# Generated by pormake.
# Topology unm, (4)-cn, num edge types: 1
# Building blocks:
#     Node 0, Type 0, BuildingBlock: KUFVIS_clean_sbu_0, # of connection points: 4
#     Node 1, Type 0, BuildingBlock: KUFVIS_clean_sbu_0, # of connection points: 4
#     Node 2, Type 0, BuildingBlock: KUFVIS_clean_sbu_0, # of connection points: 4
#     Node 3, Type 0, BuildingBlock: KUFVIS_clean_sbu_0, # of connection points: 4
#     Node 4, Type 0, BuildingBlock: KUFVIS_clean_sbu_0, # of connection points: 4
#     Node 5, Type 0, BuildingBlock: KUFVIS_clean_sbu_0, # of connection points: 4
#     Node 6, Type 0, BuildingBlock: KUFVIS_clean_sbu_0, # of connection points: 4
#     Node 7, Type 0, BuildingBlock: KUFVIS_clean_sbu_0, # of connection points: 4
#     Edge 8, Type (0, 0), BuildingBlock: AJUNOK_clean_linker_0, # of connection points: 2
#     Edge 9, Type (0, 0), BuildingBlock: AJUNOK_clean_linker_0, # of connection points: 2
#     Edge 10, Type (0, 0), BuildingBlock: AJUNOK_clean_linker_0, # of connection points: 2
#     Edge 11, Type (0, 0), BuildingBlock: AJUNOK_clean_linker_0, # of connection points: 2
#     Edge 12, Type (0, 0), BuildingBlock: AJUNOK_clean_linker_0, # of connection points: 2
#     Edge 13, Type (0, 0), BuildingBlock: AJUNOK_clean_linker_0, # of connection points: 2
#     Edge 14, Type (0, 0), BuildingBlock: AJUNOK_clean_linker_0, # of connection points: 2
#     Edge 15, Type (0, 0), BuildingBlock: AJUNOK_clean_linker_0, # of connection points: 2
#     Edge 16, Type (0, 0), BuildingBlock: AJUNOK_clean_linker_0, # of connection points: 2
#     Edge 17, Type (0, 0), BuildingBlock: AJUNOK_clean_linker_0, # of connection points: 2
#     Edge 18, Type (0, 0), BuildingBlock: AJUNOK_clean_linker_0, # of connection points: 2
#     Edge 19, Type (0, 0), BuildingBlock: AJUNOK_clean_linker_0, # of connection points: 2
#     Edge 20, Type (0, 0), BuildingBlock: AJUNOK_clean_linker_0, # of connection points: 2
#     Edge 21, Type (0, 0), BuildingBlock: AJUNOK_clean_linker_0, # of connection points: 2
#     Edge 22, Type (0, 0), BuildingBlock: AJUNOK_clean_linker_0, # of connection points: 2
#     Edge 23, Type (0, 0), BuildingBlock: AJUNOK_clean_linker_0, # of connection points: 2
# Relax obj value: 0.131
# Max RMSD: 0.132
# Mean RMSD: 0.132
data_MOF--net-unm--node1-KUFVIS_clean_sbu_0--edge1-AJUNOK_clean_linker_0
_symmetry_space_group_name_H-M    P1
_symmetry_Int_Tables_number       1
_symmetry_cell_setting            triclinic
loop_
_symmetry_equiv_pos_as_xyz
'x, y, z'
_cell_length_a     18.480845
_cell_length_b     18.338059
_cell_length_c     32.100092
_cell_angle_alpha  90.17408
_cell_angle_beta   89.994254
_cell_angle_gamma 90.182311
loop_
_atom_site_label
_atom_site_type_symbol
_atom_site_fract_x
_atom_site_fract_y
_atom_site_fract_z
_atom_type_partial_charge
Mn0 Mn 0.18697 0.31721 0.19914 0.0
Mn1 Mn 0.27334 0.46709 0.16448 0.0
C2 C 0.12304 0.40885 0.16689 0.0
C3 C 0.11495 0.26584 0.25254 0.0
C4 C 0.26566 0.32559 0.11559 0.0
O5 O 0.28646 0.30874 0.2277 0.0
O6 O 0.33801 0.4112 0.20248 0.0
C7 C 0.28288 0.54525 0.24507 0.0
N8 N 0.25881 0.54209 0.20501 0.0
C9 C 0.2022 0.65949 0.21135 0.0
C10 C 0.228 0.66466 0.25222 0.0
C11 C 0.26784 0.60707 0.26937 0.0
C12 C 0.2189 0.59661 0.18861 0.0
H13 H 0.31365 0.50121 0.25829 0.0
C14 C 0.33994 0.35318 0.22452 0.0
O15 O 0.14417 0.22478 0.22397 0.0
O16 O 0.13608 0.33279 0.25288 0.0
N17 N 0.21864 0.52766 0.12772 0.0
C18 C 0.21085 0.52083 0.08566 0.0
C19 C 0.17571 0.576 0.06322 0.0
C20 C 0.14945 0.63782 0.08416 0.0
C21 C 0.16162 0.6455 0.12705 0.0
C22 C 0.1981 0.58922 0.14761 0.0
H23 H 0.2316 0.47388 0.06929 0.0
O24 O 0.097 0.34368 0.16936 0.0
O25 O 0.18583 0.41902 0.18436 0.0
O26 O 0.23103 0.28745 0.14249 0.0
O27 O 0.28558 0.3918 0.12112 0.0
C28 C 0.14198 0.70821 0.14979 0.0
C29 C 0.16213 0.71516 0.19199 0.0
H30 H 0.21829 0.7131 0.27038 0.0
H31 H 0.28735 0.61057 0.3011 0.0
H32 H 0.16852 0.57061 0.02989 0.0
H33 H 0.12199 0.68006 0.06678 0.0
H34 H 0.113 0.75224 0.13485 0.0
H35 H 0.14792 0.76417 0.209 0.0
Mn36 Mn 0.21239 0.70081 0.70056 0.0
Mn37 Mn 0.05688 0.77921 0.67152 0.0
C38 C 0.12223 0.63116 0.67071 0.0
C39 C 0.26737 0.63115 0.75408 0.0
C40 C 0.19236 0.78019 0.61739 0.0
O41 O 0.2193 0.80203 0.72847 0.0
O42 O 0.11165 0.84755 0.7087 0.0
C43 C 0.99144 0.77324 0.7555 0.0
N44 N 0.98822 0.75688 0.71415 0.0
C45 C 0.8786 0.68791 0.72374 0.0
C46 C 0.87936 0.7066 0.76608 0.0
C47 C 0.93625 0.74903 0.78212 0.0
C48 C 0.93495 0.71395 0.69873 0.0
H49 H 0.03656 0.80313 0.76816 0.0
C50 C 0.17223 0.85328 0.72781 0.0
O51 O 0.30643 0.66081 0.72485 0.0
O52 O 0.20071 0.65048 0.75494 0.0
N53 N 0.9966 0.72151 0.63575 0.0
C54 C 1.00048 0.71421 0.59355 0.0
C55 C 0.94629 0.67504 0.57237 0.0
C56 C 0.88877 0.64383 0.59476 0.0
C57 C 0.88432 0.65475 0.63792 0.0
C58 C 0.93888 0.69605 0.65711 0.0
H59 H 0.04443 0.73822 0.57615 0.0
O60 O 0.18791 0.6079 0.6718 0.0
O61 O 0.1112 0.69403 0.68835 0.0
O62 O 0.23449 0.74592 0.64257 0.0
O63 O 0.12695 0.79783 0.62629 0.0
C64 C 0.82706 0.62786 0.66248 0.0
C65 C 0.82445 0.64408 0.70543 0.0
H66 H 0.83713 0.688 0.78664 0.0
H67 H 0.93794 0.76233 0.81498 0.0
H68 H 0.94928 0.66831 0.53891 0.0
H69 H 0.84763 0.61278 0.57839 0.0
H70 H 0.78447 0.59509 0.64862 0.0
H71 H 0.7803 0.62315 0.72399 0.0
Mn72 Mn 0.83177 0.71298 0.19446 0.0
Mn73 Mn 0.7452 0.55873 0.16761 0.0
C74 C 0.89482 0.61818 0.16387 0.0
C75 C 0.90827 0.76589 0.24629 0.0
C76 C 0.74491 0.69568 0.11392 0.0
O77 O 0.73383 0.72376 0.22488 0.0
O78 O 0.68372 0.6158 0.20698 0.0
C79 C 0.74768 0.48647 0.24979 0.0
N80 N 0.76632 0.48702 0.20874 0.0
C81 C 0.82671 0.37167 0.21489 0.0
C82 C 0.80678 0.36928 0.25688 0.0
C83 C 0.76767 0.42703 0.27459 0.0
C84 C 0.80531 0.43226 0.19172 0.0
H85 H 0.71758 0.5308 0.26342 0.0
C86 C 0.68184 0.67713 0.22608 0.0
O87 O 0.87891 0.80606 0.21751 0.0
O88 O 0.88497 0.70002 0.24776 0.0
N89 N 0.79689 0.49704 0.12981 0.0
C90 C 0.80031 0.50167 0.08748 0.0
C91 C 0.83383 0.44571 0.06466 0.0
C92 C 0.86328 0.38552 0.08554 0.0
C93 C 0.85617 0.38036 0.12891 0.0
C94 C 0.82086 0.43714 0.14986 0.0
H95 H 0.77726 0.54745 0.07119 0.0
O96 O 0.9203 0.68366 0.16362 0.0
O97 O 0.83328 0.61002 0.1829 0.0
O98 O 0.78388 0.73703 0.13746 0.0
O99 O 0.72635 0.63061 0.12371 0.0
C100 C 0.88012 0.31977 0.15192 0.0
C101 C 0.86559 0.31553 0.19498 0.0
H102 H 0.82055 0.32279 0.27548 0.0
H103 H 0.75259 0.42545 0.30716 0.0
H104 H 0.83744 0.44926 0.03107 0.0
H105 H 0.88963 0.34276 0.06787 0.0
H106 H 0.90835 0.27544 0.13667 0.0
H107 H 0.88328 0.2682 0.21232 0.0
Mn108 Mn 0.81909 0.33588 0.69548 0.0
Mn109 Mn 0.97031 0.24762 0.6673 0.0
C110 C 0.91558 0.39909 0.66801 0.0
C111 C 0.75992 0.40887 0.74586 0.0
C112 C 0.84031 0.2623 0.61045 0.0
O113 O 0.80451 0.23636 0.72364 0.0
O114 O 0.90295 0.18084 0.69746 0.0
C115 C 0.02194 0.22834 0.75393 0.0
N116 N 0.03295 0.25406 0.71464 0.0
C117 C 0.14879 0.30378 0.73397 0.0
C118 C 0.13905 0.27656 0.77432 0.0
C119 C 0.07517 0.23919 0.78445 0.0
C120 C 0.09317 0.2925 0.70506 0.0
H121 H 0.97274 0.20033 0.76217 0.0
C122 C 0.8443 0.17986 0.71864 0.0
O123 O 0.72428 0.37997 0.71491 0.0
O124 O 0.82601 0.38791 0.74976 0.0
N125 N 0.04327 0.30277 0.63886 0.0
C126 C 0.05054 0.3129 0.59708 0.0
C127 C 0.11249 0.34785 0.5814 0.0
C128 C 0.16778 0.36954 0.60871 0.0
C129 C 0.16211 0.35276 0.65114 0.0
C130 C 0.09884 0.31795 0.66489 0.0
H131 H 1.00998 0.29339 0.57587 0.0
O132 O 0.85114 0.42578 0.66701 0.0
O133 O 0.92231 0.33607 0.68616 0.0
O134 O 0.79781 0.29037 0.63774 0.0
O135 O 0.90651 0.24523 0.61761 0.0
C136 C 0.21851 0.36529 0.67978 0.0
C137 C 0.21196 0.34057 0.72113 0.0
H138 H 0.18006 0.2841 0.79785 0.0
H139 H 0.06702 0.21871 0.81569 0.0
H140 H 0.11787 0.35731 0.54828 0.0
H141 H 0.21575 0.39606 0.5965 0.0
H142 H 0.26806 0.39197 0.67002 0.0
H143 H 0.25668 0.34837 0.74241 0.0
Mn144 Mn 0.68488 0.2233 0.35591 0.0
Mn145 Mn 0.76731 0.06836 0.38537 0.0
C146 C 0.61864 0.12821 0.38279 0.0
C147 C 0.61621 0.28153 0.30348 0.0
C148 C 0.75955 0.20339 0.44004 0.0
O149 O 0.78614 0.23452 0.33006 0.0
O150 O 0.83525 0.12849 0.35131 0.0
C151 C 0.77618 1.00402 0.3008 0.0
N152 N 0.75292 1.0 0.341 0.0
C153 C 0.68907 0.88797 0.32706 0.0
C154 C 0.71336 0.89042 0.28573 0.0
C155 C 0.75698 0.94874 0.27252 0.0
C156 C 0.71007 0.94451 0.35384 0.0
H157 H 0.80862 0.04936 0.2903 0.0
C158 C 0.83922 0.1897 0.33231 0.0
O159 O 0.64383 0.31873 0.3343 0.0
O160 O 0.63724 0.21488 0.30064 0.0
N161 N 0.70898 1.0037 0.41803 0.0
C162 C 0.69562 1.00617 0.45976 0.0
C163 C 0.65454 0.95044 0.47832 0.0
C164 C 0.62863 0.89227 0.45391 0.0
C165 C 0.64563 0.88938 0.41135 0.0
C166 C 0.68769 0.946 0.39477 0.0
H167 H 0.71621 0.05016 0.47873 0.0
O168 O 0.59264 0.19337 0.38255 0.0
O169 O 0.68235 0.12042 0.3663 0.0
O170 O 0.72661 0.24505 0.41425 0.0
O171 O 0.77849 0.13753 0.43231 0.0
C172 C 0.62338 0.83218 0.38489 0.0
C173 C 0.64484 0.83162 0.34272 0.0
H174 H 0.69883 0.84797 0.26388 0.0
H175 H 0.77548 0.95121 0.24055 0.0
H176 H 0.64272 0.95249 0.51132 0.0
H177 H 0.59645 0.84967 0.46824 0.0
H178 H 0.59015 0.78803 0.39669 0.0
H179 H 0.62766 0.78725 0.32277 0.0
Mn180 Mn 0.31542 0.20043 0.85764 0.0
Mn181 Mn 0.46978 0.28261 0.88635 0.0
C182 C 0.4098 0.13303 0.88315 0.0
C183 C 0.25291 0.1306 0.80701 0.0
C184 C 0.34187 0.26681 0.94448 0.0
O185 O 0.30345 0.30177 0.83121 0.0
O186 O 0.40213 0.35338 0.85964 0.0
C187 C 0.51809 0.3111 0.79979 0.0
N188 N 0.53005 0.28046 0.83781 0.0
C189 C 0.6453 0.23404 0.81541 0.0
C190 C 0.6347 0.26653 0.77647 0.0
C191 C 0.57064 0.30474 0.7685 0.0
C192 C 0.5905 0.24135 0.84523 0.0
H193 H 0.46883 0.33994 0.79315 0.0
C194 C 0.34393 0.35739 0.83812 0.0
O195 O 0.21886 0.15983 0.8384 0.0
O196 O 0.31929 0.15065 0.80246 0.0
N197 N 0.54307 0.22336 0.91151 0.0
C198 C 0.5512 0.20636 0.95246 0.0
C199 C 0.61299 0.16867 0.96577 0.0
C200 C 0.66737 0.1511 0.93704 0.0
C201 C 0.66071 0.17416 0.89567 0.0
C202 C 0.59749 0.21115 0.88422 0.0
H203 H 0.51098 0.22159 0.97481 0.0
O204 O 0.34452 0.10822 0.88425 0.0
O205 O 0.41884 0.19664 0.86587 0.0
O206 O 0.29738 0.24338 0.91665 0.0
O207 O 0.4087 0.28136 0.9371 0.0
C208 C 0.71612 0.16541 0.86601 0.0
C209 C 0.7086 0.19584 0.82602 0.0
H210 H 0.67522 0.26223 0.75238 0.0
H211 H 0.56188 0.32941 0.73834 0.0
H212 H 0.61895 0.15386 0.99819 0.0
H213 H 0.71527 0.12255 0.94744 0.0
H214 H 0.76565 0.1373 0.874 0.0
H215 H 0.75268 0.19111 0.80407 0.0
Mn216 Mn 0.33474 0.81014 0.35904 0.0
Mn217 Mn 0.25034 0.96696 0.38247 0.0
C218 C 0.39934 0.90827 0.38404 0.0
C219 C 0.40694 0.75027 0.30791 0.0
C220 C 0.25566 0.83722 0.44169 0.0
O221 O 0.23449 0.79589 0.33177 0.0
O222 O 0.18501 0.90467 0.34778 0.0
C223 C 0.24776 0.02579 0.29668 0.0
N224 N 0.26793 0.0325 0.33734 0.0
C225 C 0.33297 0.14352 0.32298 0.0
C226 C 0.31197 0.13825 0.28112 0.0
C227 C 0.26926 0.07912 0.26791 0.0
C228 C 0.30962 0.08895 0.35026 0.0
H229 H 0.21607 0.97977 0.2862 0.0
C230 C 0.18188 0.84154 0.33063 0.0
O231 O 0.37968 0.71433 0.33918 0.0
O232 O 0.38388 0.81585 0.304 0.0
N233 N 0.30671 0.03346 0.41533 0.0
C234 C 0.31959 0.03215 0.45713 0.0
C235 C 0.36016 0.0886 0.47555 0.0
C236 C 0.38671 0.14585 0.45086 0.0
C237 C 0.37117 0.14697 0.4081 0.0
C238 C 0.32927 0.08994 0.39167 0.0
H239 H 0.29943 0.98827 0.47626 0.0
O240 O 0.42583 0.84345 0.38602 0.0
O241 O 0.3363 0.9137 0.36656 0.0
O242 O 0.29131 0.79341 0.41798 0.0
O243 O 0.23559 0.90112 0.43034 0.0
C244 C 0.39541 0.20241 0.38119 0.0
C245 C 0.37658 0.20053 0.33862 0.0
H246 H 0.32852 0.17902 0.25885 0.0
H247 H 0.25332 0.07446 0.23556 0.0
H248 H 0.37143 0.08763 0.50862 0.0
H249 H 0.41878 0.18881 0.46506 0.0
H250 H 0.42856 0.24682 0.39288 0.0
H251 H 0.39564 0.24334 0.31828 0.0
Mn252 Mn 0.71045 0.83533 0.8565 0.0
Mn253 Mn 0.55431 0.75135 0.87862 0.0
C254 C 0.61504 0.90132 0.88323 0.0
C255 C 0.76608 0.9082 0.80425 0.0
C256 C 0.68323 0.75387 0.93819 0.0
O257 O 0.72422 0.73555 0.82842 0.0
O258 O 0.61542 0.6864 0.84317 0.0
C259 C 0.49783 0.75466 0.79251 0.0
N260 N 0.48998 0.77148 0.8336 0.0
C261 C 0.3793 0.83591 0.82021 0.0
C262 C 0.38556 0.81799 0.77788 0.0
C263 C 0.44517 0.77745 0.76394 0.0
C264 C 0.43372 0.81207 0.84714 0.0
H265 H 0.54409 0.72444 0.78158 0.0
C266 C 0.67825 0.68326 0.8265 0.0
O267 O 0.80424 0.88143 0.83466 0.0
O268 O 0.70114 0.88425 0.80178 0.0
N269 N 0.48826 0.80596 0.91231 0.0
C270 C 0.48736 0.81327 0.95457 0.0
C271 C 0.42979 0.85018 0.9738 0.0
C272 C 0.37375 0.87905 0.94943 0.0
C273 C 0.37434 0.8682 0.90619 0.0
C274 C 0.4323 0.82945 0.88891 0.0
H275 H 0.53024 0.79131 0.97348 0.0
O276 O 0.67996 0.92683 0.88465 0.0
O277 O 0.60775 0.83869 0.86469 0.0
O278 O 0.72773 0.79022 0.91519 0.0
O279 O 0.61967 0.73502 0.92611 0.0
C280 C 0.31882 0.89262 0.8797 0.0
C281 C 0.32145 0.8767 0.83673 0.0
H282 H 0.34546 0.83559 0.75571 0.0
H283 H 0.45061 0.764 0.73124 0.0
H284 H 0.42902 0.85694 1.0073 0.0
H285 H 0.32987 0.90826 0.96432 0.0
H286 H 0.27349 0.92312 0.89208 0.0
H287 H 0.27821 0.89536 0.81687 0.0
C288 C 0.34731 0.27158 0.06291 0.0
C289 C 0.27821 0.29592 0.07369 0.0
C290 C 0.36609 0.26033 1.02115 0.0
C291 C 0.317 0.27387 0.98841 0.0
H292 H 0.38807 0.26412 0.08678 0.0
H293 H 0.42018 0.24214 1.01474 0.0
S294 S 0.12802 0.33756 1.00114 0.0
N295 N 0.15936 0.33199 0.04923 0.0
N296 N 0.19474 0.31096 0.97041 0.0
C297 C 0.24651 0.29569 0.9991 0.0
C298 C 0.22729 0.30699 0.04181 0.0
C299 C 0.17875 0.84988 0.55126 0.0
C300 C 0.21572 0.79581 0.57378 0.0
C301 C 0.19067 0.86052 0.50871 0.0
C302 C 0.24042 0.8178 0.48608 0.0
H303 H 0.13912 0.8842 0.56653 0.0
H304 H 0.16023 0.90322 0.4935 0.0
S305 S 0.35223 0.66862 0.53004 0.0
N306 N 0.30449 0.69834 0.57013 0.0
N307 N 0.32806 0.71924 0.48992 0.0
C308 C 0.27841 0.76355 0.50811 0.0
C309 C 0.26612 0.75264 0.5519 0.0
C310 C 0.77077 0.76323 0.04674 0.0
C311 C 0.725 0.71843 0.07084 0.0
C312 C 0.75872 0.77312 1.00361 0.0
C313 C 0.70087 0.73796 0.98286 0.0
H314 H 0.81748 0.78902 0.06095 0.0
H315 H 0.79486 0.80873 0.98653 0.0
S316 S 0.56417 0.61611 0.03258 0.0
N317 N 0.61745 0.64179 0.07108 0.0
N318 N 0.5975 0.65587 0.99079 0.0
C319 C 0.65477 0.69319 1.00702 0.0
C320 C 0.66596 0.68483 0.05069 0.0
C321 C 0.83911 0.263 0.49228 0.0
C322 C 0.77303 0.22963 0.48259 0.0
C323 C 0.85893 0.27544 0.53382 0.0
C324 C 0.81402 0.25386 0.56711 0.0
H325 H 0.87667 0.27741 0.46769 0.0
H326 H 0.91006 0.30191 0.53975 0.0
S327 S 0.63263 0.16886 0.55738 0.0
N328 N 0.66023 0.17928 0.50878 0.0
N329 N 0.69809 0.20182 0.58713 0.0
C330 C 0.74612 0.22358 0.55761 0.0
C331 C 0.72571 0.21126 0.51522 0.0
C332 C 0.44287 0.38267 0.27359 0.0
C333 C 0.4106 0.3353 0.24423 0.0
C334 C 0.51137 0.36762 0.29108 0.0
C335 C 0.55111 0.30542 0.27918 0.0
H336 H 0.41433 0.43094 0.28383 0.0
H337 H 0.5322 0.40381 0.31499 0.0
S338 S 0.4945 0.17042 0.1985 0.0
N339 N 0.42628 0.22811 0.20104 0.0
N340 N 0.5546 0.19997 0.23272 0.0
C341 C 0.52059 0.25995 0.24805 0.0
C342 C 0.45063 0.27481 0.2309 0.0
C343 C 0.25481 0.96112 0.73767 0.0
C344 C 0.1896 0.9254 0.74739 0.0
C345 C 0.27235 0.02944 0.75513 0.0
C346 C 0.22563 0.06543 0.78335 0.0
H347 H 0.29279 0.93604 0.71633 0.0
H348 H 0.32435 0.05308 0.74729 0.0
S349 S 0.0468 0.99657 0.81791 0.0
N350 N 0.07633 0.93307 0.78558 0.0
N351 N 0.1101 0.06016 0.8191 0.0
C352 C 0.15925 0.0313 0.79233 0.0
C353 C 0.141 0.9619 0.77414 0.0
C354 C 0.51179 0.6637 0.29439 0.0
C355 C 0.47261 0.72677 0.28364 0.0
C356 C 0.57972 0.64815 0.27607 0.0
C357 C 0.61227 0.69602 0.24716 0.0
H358 H 0.49071 0.62686 0.31777 0.0
H359 H 0.60754 0.59885 0.28519 0.0
S360 S 0.52997 0.86381 0.20459 0.0
N361 N 0.47011 0.83391 0.23873 0.0
N362 N 0.59738 0.80512 0.20589 0.0
C363 C 0.57298 0.75774 0.23523 0.0
C364 C 0.50348 0.77295 0.25304 0.0
C365 C 0.87746 0.06262 0.75536 0.0
C366 C 0.8239 0.10917 0.73867 0.0
C367 C 0.85922 0.99689 0.77571 0.0
C368 C 0.78694 0.97401 0.77931 0.0
H369 H 0.93403 0.0776 0.75339 0.0
H370 H 0.90175 0.96373 0.78878 0.0
S371 S 0.62671 0.07247 0.737 0.0
N372 N 0.69624 0.12449 0.72431 0.0
N373 N 0.66138 1.00244 0.76211 0.0
C374 C 0.73317 0.01882 0.76109 0.0
C375 C 0.75177 0.08578 0.74087 0.0
C376 C 0.9512 0.15663 0.29127 0.0
C377 C 0.9106 0.20912 0.31339 0.0
C378 C 0.01874 0.1739 0.27317 0.0
C379 C 0.04934 0.24403 0.27718 0.0
H380 H 0.92993 0.10204 0.28707 0.0
H381 H 0.0463 0.13242 0.25513 0.0
S382 S 0.96821 0.39878 0.33635 0.0
N383 N 0.90882 0.332 0.34135 0.0
N384 N 0.03451 0.36514 0.30779 0.0
C385 C 1.01039 0.296 0.30096 0.0
C386 C 0.94157 0.27842 0.31895 0.0
C387 C 0.23637 0.51233 0.78815 0.0
C388 C 0.28947 0.56528 0.77835 0.0
C389 C 0.25399 0.44643 0.80798 0.0
C390 C 0.3256 0.42995 0.81915 0.0
H391 H 0.18041 0.52078 0.77941 0.0
H392 H 0.21094 0.40796 0.81435 0.0
S393 S 0.48345 0.55411 0.80557 0.0
N394 N 0.41571 0.59891 0.78417 0.0
N395 N 0.44921 0.4765 0.82252 0.0
C396 C 0.37879 0.4841 0.81135 0.0
C397 C 0.36079 0.55095 0.79049 0.0
C398 C 0.07034 0.875 0.28896 0.0
C399 C 0.11217 0.82147 0.30947 0.0
C400 C 1.00374 0.85782 0.2695 0.0
C401 C 0.97508 0.78662 0.2705 0.0
H402 H 0.0897 0.93071 0.28737 0.0
H403 H 0.97493 0.90051 0.25328 0.0
S404 S 0.06115 0.62721 0.32259 0.0
N405 N 0.11794 0.69518 0.33119 0.0
N406 N 0.9942 0.66234 0.2953 0.0
C407 C 0.01583 0.73302 0.29192 0.0
C408 C 0.08377 0.7505 0.31118 0.0
C409 C 0.67355 0.51401 0.75658 0.0
C410 C 0.73392 0.47368 0.77008 0.0
C411 C 0.65657 0.58232 0.77441 0.0
C412 C 0.69895 0.61296 0.80652 0.0
H413 H 0.64076 0.49415 0.73096 0.0
H414 H 0.61096 0.61229 0.7622 0.0
S415 S 0.85947 0.52843 0.8554 0.0
N416 N 0.83427 0.46924 0.81932 0.0
N417 N 0.80118 0.59626 0.85265 0.0
C418 C 0.75794 0.57255 0.82112 0.0
C419 C 0.77552 0.50331 0.80306 0.0
C420 C 0.97936 0.53852 0.2004 0.0
C421 C 0.94837 0.56018 0.16254 0.0
C422 C 0.04015 0.49369 0.20099 0.0
C423 C 0.06992 0.467 0.16379 0.0
H424 H 0.95775 0.55819 0.22972 0.0
H425 H 0.06248 0.47769 0.23082 0.0
S426 S 1.00701 0.50594 0.05679 0.0
N427 N 0.95502 0.55674 0.08703 0.0
N428 N 0.06025 0.45967 0.08846 0.0
C429 C 0.0376 0.48575 0.12584 0.0
C430 C 0.97928 0.53619 0.12512 0.0
C431 C 0.99545 0.48414 0.70461 0.0
C432 C 0.97432 0.452 0.66681 0.0
C433 C 0.03976 0.54584 0.7051 0.0
C434 C 0.06603 0.57562 0.66785 0.0
H435 H 0.97528 0.46307 0.73394 0.0
H436 H 0.05513 0.56933 0.73486 0.0
S437 S 0.02785 0.51028 0.56094 0.0
N438 N 0.97807 0.45741 0.59125 0.0
N439 N 0.07318 0.56525 0.59252 0.0
C440 C 0.04783 0.54221 0.62995 0.0
C441 C 0.99833 0.48265 0.62932 0.0
C442 C 0.53647 0.04543 0.42158 0.0
C443 C 0.56652 0.06882 0.3838 0.0
C444 C 0.48177 0.99245 0.42188 0.0
C445 C 0.45069 0.96839 0.38442 0.0
H446 H 0.55603 0.06731 0.45087 0.0
H447 H 0.46297 0.97112 0.45139 0.0
S448 S 0.50579 0.01932 0.2776 0.0
N449 N 0.56113 0.06555 0.30828 0.0
N450 N 0.45223 0.97248 0.30886 0.0
C451 C 0.47826 0.99394 0.34657 0.0
C452 C 0.53712 0.04355 0.34625 0.0
C453 C 0.49023 0.04753 0.84749 0.0
C454 C 0.4669 0.07882 0.88505 0.0
C455 C 0.53364 0.98543 0.84753 0.0
C456 C 0.55713 0.95473 0.88511 0.0
H457 H 0.47272 0.06973 0.81791 0.0
H458 H 0.55091 0.96263 0.818 0.0
S459 S 0.51043 0.01637 0.99157 0.0
N460 N 0.46381 0.07049 0.96053 0.0
N461 N 0.55796 0.96244 0.96066 0.0
C462 C 0.53592 0.98678 0.92283 0.0
C463 C 0.48699 0.04644 0.92277 0.0
loop_
_geom_bond_atom_site_label_1
_geom_bond_atom_site_label_2
_geom_bond_distance
_geom_bond_site_symmetry_2
_ccdc_geom_bond_type
Mn0 O5 2.095 . S
Mn0 O15 2.162 . S
Mn0 O16 2.297 . S
Mn0 O24 2.385 . S
Mn0 O25 2.209 . S
Mn0 O26 2.094 . S
Mn1 O6 2.121 . S
Mn1 N8 2.257 . S
Mn1 N17 2.282 . S
Mn1 O25 2.215 . S
Mn1 O27 2.117 . S
C2 O24 1.234 . S
C2 O25 1.283 . S
C3 O15 1.281 1_655 S
C3 O16 1.236 1_655 S
C4 O26 1.240 . S
C4 O27 1.264 . S
O5 Mn0 2.095 . S
O5 C14 1.250 . S
O6 Mn1 2.121 . S
O6 C14 1.258 . S
C7 N8 1.326 . S
C7 C11 1.460 . S
C7 H13 0.929 . S
N8 Mn1 2.257 . S
N8 C7 1.326 . S
N8 C12 1.362 . S
C9 C10 1.258 . S
C9 C12 1.431 . S
C9 C29 1.449 . S
C10 C9 1.258 . S
C10 C11 1.477 . S
C10 H30 0.931 . S
C11 C7 1.460 . S
C11 C10 1.477 . S
C11 H31 0.930 . S
C12 N8 1.362 . S
C12 C9 1.431 . S
C12 C22 1.476 . S
H13 C7 0.929 . S
C14 O5 1.250 . S
C14 O6 1.258 . S
O15 Mn0 2.162 . S
O15 C3 1.281 1_455 S
O16 Mn0 2.297 . S
O16 C3 1.236 1_455 S
N17 Mn1 2.282 . S
N17 C18 1.328 . S
N17 C22 1.318 . S
C18 N17 1.328 . S
C18 C19 1.457 . S
C18 H23 0.929 . S
C19 C18 1.457 . S
C19 C20 1.291 . S
C19 H32 0.922 1_554 S
C20 C19 1.291 . S
C20 C21 1.373 . S
C20 H33 0.929 . S
C21 C20 1.373 . S
C21 C22 1.396 . S
C21 C28 1.403 . S
C22 C12 1.476 . S
C22 N17 1.318 . S
C22 C21 1.396 . S
H23 C18 0.929 . S
O24 Mn0 2.385 . S
O24 C2 1.234 . S
O25 Mn0 2.209 . S
O25 Mn1 2.215 . S
O25 C2 1.283 . S
O26 Mn0 2.094 . S
O26 C4 1.240 . S
O27 Mn1 2.117 . S
O27 C4 1.264 . S
C28 C21 1.403 . S
C28 C29 1.399 . S
C28 H34 0.929 . S
C29 C9 1.449 . S
C29 C28 1.399 . S
C29 H35 0.930 . S
H30 C10 0.931 . S
H31 C11 0.930 . S
H32 C19 0.922 1_556 S
H33 C20 0.929 . S
H34 C28 0.929 . S
H35 C29 0.930 . S
Mn36 O41 2.095 . S
Mn36 O51 2.162 . S
Mn36 O52 2.297 . S
Mn36 O60 2.385 . S
Mn36 O61 2.209 . S
Mn36 O62 2.094 . S
Mn37 O42 2.121 . S
Mn37 N44 2.257 . S
Mn37 N53 2.282 . S
Mn37 O61 2.215 . S
Mn37 O63 2.117 . S
C38 O60 1.234 . S
C38 O61 1.283 . S
C39 O51 1.281 . S
C39 O52 1.236 . S
C40 O62 1.240 . S
C40 O63 1.264 . S
O41 Mn36 2.095 . S
O41 C50 1.250 . S
O42 Mn37 2.121 . S
O42 C50 1.258 . S
C43 N44 1.326 . S
C43 C47 1.460 1_455 S
C43 H49 0.929 . S
N44 Mn37 2.257 . S
N44 C43 1.326 . S
N44 C48 1.362 1_455 S
C45 C46 1.258 . S
C45 C48 1.431 . S
C45 C65 1.449 . S
C46 C45 1.258 . S
C46 C47 1.477 . S
C46 H66 0.931 . S
C47 C43 1.460 1_655 S
C47 C46 1.477 . S
C47 H67 0.930 . S
C48 N44 1.362 1_655 S
C48 C45 1.431 . S
C48 C58 1.476 . S
H49 C43 0.929 . S
C50 O41 1.250 . S
C50 O42 1.258 . S
O51 Mn36 2.162 . S
O51 C39 1.281 . S
O52 Mn36 2.297 . S
O52 C39 1.236 . S
N53 Mn37 2.282 . S
N53 C54 1.328 . S
N53 C58 1.318 1_455 S
C54 N53 1.328 . S
C54 C55 1.457 1_455 S
C54 H59 0.929 . S
C55 C54 1.457 1_655 S
C55 C56 1.291 . S
C55 H68 0.931 1_655 S
C56 C55 1.291 . S
C56 C57 1.373 . S
C56 H69 0.929 . S
C57 C56 1.373 . S
C57 C58 1.396 . S
C57 C64 1.403 . S
C58 C48 1.476 . S
C58 N53 1.318 1_655 S
C58 C57 1.396 . S
H59 C54 0.929 . S
O60 Mn36 2.385 . S
O60 C38 1.234 . S
O61 Mn36 2.209 . S
O61 Mn37 2.215 . S
O61 C38 1.283 . S
O62 Mn36 2.094 . S
O62 C40 1.240 . S
O63 Mn37 2.117 . S
O63 C40 1.264 . S
C64 C57 1.403 . S
C64 C65 1.399 . S
C64 H70 0.929 . S
C65 C45 1.449 . S
C65 C64 1.399 . S
C65 H71 0.930 . S
H66 C46 0.931 . S
H67 C47 0.930 . S
H68 C55 0.931 1_455 S
H69 C56 0.929 . S
H70 C64 0.929 . S
H71 C65 0.930 . S
Mn72 O77 2.095 . S
Mn72 O87 2.162 . S
Mn72 O88 2.297 . S
Mn72 O96 2.385 . S
Mn72 O97 2.209 . S
Mn72 O98 2.094 . S
Mn73 O78 2.121 . S
Mn73 N80 2.257 . S
Mn73 N89 2.282 . S
Mn73 O97 2.215 . S
Mn73 O99 2.117 . S
C74 O96 1.234 . S
C74 O97 1.283 . S
C75 O87 1.281 1_455 S
C75 O88 1.236 1_455 S
C76 O98 1.240 . S
C76 O99 1.264 . S
O77 Mn72 2.095 . S
O77 C86 1.250 . S
O78 Mn73 2.121 . S
O78 C86 1.258 . S
C79 N80 1.326 . S
C79 C83 1.460 . S
C79 H85 0.929 . S
N80 Mn73 2.257 . S
N80 C79 1.326 . S
N80 C84 1.362 . S
C81 C82 1.258 . S
C81 C84 1.431 . S
C81 C101 1.449 . S
C82 C81 1.258 . S
C82 C83 1.477 . S
C82 H102 0.931 . S
C83 C79 1.460 . S
C83 C82 1.477 . S
C83 H103 0.930 . S
C84 N80 1.362 . S
C84 C81 1.431 . S
C84 C94 1.476 . S
H85 C79 0.929 . S
C86 O77 1.250 . S
C86 O78 1.258 . S
O87 Mn72 2.162 . S
O87 C75 1.281 1_655 S
O88 Mn72 2.297 . S
O88 C75 1.236 1_655 S
N89 Mn73 2.282 . S
N89 C90 1.328 . S
N89 C94 1.318 . S
C90 N89 1.328 . S
C90 C91 1.457 . S
C90 H95 0.929 . S
C91 C90 1.457 . S
C91 C92 1.291 . S
C91 H104 0.922 1_554 S
C92 C91 1.291 . S
C92 C93 1.373 . S
C92 H105 0.929 . S
C93 C92 1.373 . S
C93 C94 1.396 . S
C93 C100 1.403 . S
C94 C84 1.476 . S
C94 N89 1.318 . S
C94 C93 1.396 . S
H95 C90 0.929 . S
O96 Mn72 2.385 . S
O96 C74 1.234 . S
O97 Mn72 2.209 . S
O97 Mn73 2.215 . S
O97 C74 1.283 . S
O98 Mn72 2.094 . S
O98 C76 1.240 . S
O99 Mn73 2.117 . S
O99 C76 1.264 . S
C100 C93 1.403 . S
C100 C101 1.399 . S
C100 H106 0.929 . S
C101 C81 1.449 . S
C101 C100 1.399 . S
C101 H107 0.930 . S
H102 C82 0.931 . S
H103 C83 0.930 . S
H104 C91 0.922 1_556 S
H105 C92 0.929 . S
H106 C100 0.929 . S
H107 C101 0.930 . S
Mn108 O113 2.095 . S
Mn108 O123 2.162 . S
Mn108 O124 2.297 . S
Mn108 O132 2.385 . S
Mn108 O133 2.209 . S
Mn108 O134 2.094 . S
Mn109 O114 2.121 . S
Mn109 N116 2.257 . S
Mn109 N125 2.282 . S
Mn109 O133 2.215 . S
Mn109 O135 2.117 . S
C110 O132 1.234 . S
C110 O133 1.283 . S
C111 O123 1.281 . S
C111 O124 1.236 . S
C112 O134 1.240 . S
C112 O135 1.264 . S
O113 Mn108 2.095 . S
O113 C122 1.250 . S
O114 Mn109 2.121 . S
O114 C122 1.258 . S
C115 N116 1.326 . S
C115 C119 1.460 1_655 S
C115 H121 0.929 . S
N116 Mn109 2.257 . S
N116 C115 1.326 . S
N116 C120 1.362 1_655 S
C117 C118 1.258 . S
C117 C120 1.431 . S
C117 C137 1.449 . S
C118 C117 1.258 . S
C118 C119 1.477 . S
C118 H138 0.931 . S
C119 C115 1.460 1_455 S
C119 C118 1.477 . S
C119 H139 0.930 . S
C120 N116 1.362 1_455 S
C120 C117 1.431 . S
C120 C130 1.476 . S
H121 C115 0.929 . S
C122 O113 1.250 . S
C122 O114 1.258 . S
O123 Mn108 2.162 . S
O123 C111 1.281 . S
O124 Mn108 2.297 . S
O124 C111 1.236 . S
N125 Mn109 2.282 . S
N125 C126 1.328 . S
N125 C130 1.318 1_655 S
C126 N125 1.328 . S
C126 C127 1.457 1_655 S
C126 H131 0.929 . S
C127 C126 1.457 1_455 S
C127 C128 1.291 . S
C127 H140 0.931 1_455 S
C128 C127 1.291 . S
C128 C129 1.373 . S
C128 H141 0.929 . S
C129 C128 1.373 . S
C129 C130 1.396 . S
C129 C136 1.403 . S
C130 C120 1.476 . S
C130 N125 1.318 1_455 S
C130 C129 1.396 . S
H131 C126 0.929 . S
O132 Mn108 2.385 . S
O132 C110 1.234 . S
O133 Mn108 2.209 . S
O133 Mn109 2.215 . S
O133 C110 1.283 . S
O134 Mn108 2.094 . S
O134 C112 1.240 . S
O135 Mn109 2.117 . S
O135 C112 1.264 . S
C136 C129 1.403 . S
C136 C137 1.399 . S
C136 H142 0.929 . S
C137 C117 1.449 . S
C137 C136 1.399 . S
C137 H143 0.930 . S
H138 C118 0.931 . S
H139 C119 0.930 . S
H140 C127 0.931 1_655 S
H141 C128 0.929 . S
H142 C136 0.929 . S
H143 C137 0.930 . S
Mn144 O149 2.095 . S
Mn144 O159 2.162 . S
Mn144 O160 2.297 . S
Mn144 O168 2.385 . S
Mn144 O169 2.209 . S
Mn144 O170 2.094 . S
Mn145 O150 2.121 . S
Mn145 N152 2.257 . S
Mn145 N161 2.282 . S
Mn145 O169 2.215 . S
Mn145 O171 2.117 . S
C146 O168 1.234 . S
C146 O169 1.283 . S
C147 O159 1.281 . S
C147 O160 1.236 . S
C148 O170 1.240 . S
C148 O171 1.264 . S
O149 Mn144 2.095 . S
O149 C158 1.250 . S
O150 Mn145 2.121 . S
O150 C158 1.258 . S
C151 N152 1.326 . S
C151 C155 1.460 1_545 S
C151 H157 0.929 . S
N152 Mn145 2.257 . S
N152 C151 1.326 . S
N152 C156 1.362 1_545 S
C153 C154 1.258 . S
C153 C156 1.431 . S
C153 C173 1.449 . S
C154 C153 1.258 . S
C154 C155 1.477 . S
C154 H174 0.931 . S
C155 C151 1.460 1_565 S
C155 C154 1.477 . S
C155 H175 0.930 . S
C156 N152 1.362 1_565 S
C156 C153 1.431 . S
C156 C166 1.476 . S
H157 C151 0.929 . S
C158 O149 1.250 . S
C158 O150 1.258 . S
O159 Mn144 2.162 . S
O159 C147 1.281 . S
O160 Mn144 2.297 . S
O160 C147 1.236 . S
N161 Mn145 2.282 . S
N161 C162 1.328 . S
N161 C166 1.318 1_545 S
C162 N161 1.328 . S
C162 C163 1.457 1_545 S
C162 H167 0.929 . S
C163 C162 1.457 1_565 S
C163 C164 1.291 . S
C163 H176 0.931 1_565 S
C164 C163 1.291 . S
C164 C165 1.373 . S
C164 H177 0.929 . S
C165 C164 1.373 . S
C165 C166 1.396 . S
C165 C172 1.403 . S
C166 C156 1.476 . S
C166 N161 1.318 1_565 S
C166 C165 1.396 . S
H167 C162 0.929 . S
O168 Mn144 2.385 . S
O168 C146 1.234 . S
O169 Mn144 2.209 . S
O169 Mn145 2.215 . S
O169 C146 1.283 . S
O170 Mn144 2.094 . S
O170 C148 1.240 . S
O171 Mn145 2.117 . S
O171 C148 1.264 . S
C172 C165 1.403 . S
C172 C173 1.399 . S
C172 H178 0.929 . S
C173 C153 1.449 . S
C173 C172 1.399 . S
C173 H179 0.930 . S
H174 C154 0.931 . S
H175 C155 0.930 . S
H176 C163 0.931 1_545 S
H177 C164 0.929 . S
H178 C172 0.929 . S
H179 C173 0.930 . S
Mn180 O185 2.095 . S
Mn180 O195 2.162 . S
Mn180 O196 2.297 . S
Mn180 O204 2.385 . S
Mn180 O205 2.209 . S
Mn180 O206 2.094 . S
Mn181 O186 2.121 . S
Mn181 N188 2.257 . S
Mn181 N197 2.282 . S
Mn181 O205 2.215 . S
Mn181 O207 2.117 . S
C182 O204 1.234 . S
C182 O205 1.283 . S
C183 O195 1.281 1_565 S
C183 O196 1.236 1_565 S
C184 O206 1.240 . S
C184 O207 1.264 . S
O185 Mn180 2.095 . S
O185 C194 1.250 . S
O186 Mn181 2.121 . S
O186 C194 1.258 . S
C187 N188 1.326 . S
C187 C191 1.460 . S
C187 H193 0.929 . S
N188 Mn181 2.257 . S
N188 C187 1.326 . S
N188 C192 1.362 . S
C189 C190 1.258 . S
C189 C192 1.431 . S
C189 C209 1.449 . S
C190 C189 1.258 . S
C190 C191 1.477 . S
C190 H210 0.931 . S
C191 C187 1.460 . S
C191 C190 1.477 . S
C191 H211 0.930 . S
C192 N188 1.362 . S
C192 C189 1.431 . S
C192 C202 1.476 . S
H193 C187 0.929 . S
C194 O185 1.250 . S
C194 O186 1.258 . S
O195 Mn180 2.162 . S
O195 C183 1.281 1_545 S
O196 Mn180 2.297 . S
O196 C183 1.236 1_545 S
N197 Mn181 2.282 . S
N197 C198 1.328 . S
N197 C202 1.318 . S
C198 N197 1.328 . S
C198 C199 1.457 . S
C198 H203 0.929 . S
C199 C198 1.457 . S
C199 C200 1.291 . S
C199 H212 0.922 1_556 S
C200 C199 1.291 . S
C200 C201 1.373 . S
C200 H213 0.929 . S
C201 C200 1.373 . S
C201 C202 1.396 . S
C201 C208 1.403 . S
C202 C192 1.476 . S
C202 N197 1.318 . S
C202 C201 1.396 . S
H203 C198 0.929 . S
O204 Mn180 2.385 . S
O204 C182 1.234 . S
O205 Mn180 2.209 . S
O205 Mn181 2.215 . S
O205 C182 1.283 . S
O206 Mn180 2.094 . S
O206 C184 1.240 . S
O207 Mn181 2.117 . S
O207 C184 1.264 . S
C208 C201 1.403 . S
C208 C209 1.399 . S
C208 H214 0.929 . S
C209 C189 1.449 . S
C209 C208 1.399 . S
C209 H215 0.930 . S
H210 C190 0.931 . S
H211 C191 0.930 . S
H212 C199 0.922 1_554 S
H213 C200 0.929 . S
H214 C208 0.929 . S
H215 C209 0.930 . S
Mn216 O221 2.095 . S
Mn216 O231 2.162 . S
Mn216 O232 2.297 . S
Mn216 O240 2.385 . S
Mn216 O241 2.209 . S
Mn216 O242 2.094 . S
Mn217 O222 2.121 . S
Mn217 N224 2.257 . S
Mn217 N233 2.282 . S
Mn217 O241 2.215 . S
Mn217 O243 2.117 . S
C218 O240 1.234 . S
C218 O241 1.283 . S
C219 O231 1.281 . S
C219 O232 1.236 . S
C220 O242 1.240 . S
C220 O243 1.264 . S
O221 Mn216 2.095 . S
O221 C230 1.250 . S
O222 Mn217 2.121 . S
O222 C230 1.258 . S
C223 N224 1.326 . S
C223 C227 1.460 1_565 S
C223 H229 0.929 . S
N224 Mn217 2.257 . S
N224 C223 1.326 . S
N224 C228 1.362 1_565 S
C225 C226 1.258 . S
C225 C228 1.431 . S
C225 C245 1.449 . S
C226 C225 1.258 . S
C226 C227 1.477 . S
C226 H246 0.931 . S
C227 C223 1.460 1_545 S
C227 C226 1.477 . S
C227 H247 0.930 . S
C228 N224 1.362 1_545 S
C228 C225 1.431 . S
C228 C238 1.476 . S
H229 C223 0.929 . S
C230 O221 1.250 . S
C230 O222 1.258 . S
O231 Mn216 2.162 . S
O231 C219 1.281 . S
O232 Mn216 2.297 . S
O232 C219 1.236 . S
N233 Mn217 2.282 . S
N233 C234 1.328 . S
N233 C238 1.318 1_565 S
C234 N233 1.328 . S
C234 C235 1.457 1_565 S
C234 H239 0.929 . S
C235 C234 1.457 1_545 S
C235 C236 1.291 . S
C235 H248 0.931 1_545 S
C236 C235 1.291 . S
C236 C237 1.373 . S
C236 H249 0.929 . S
C237 C236 1.373 . S
C237 C238 1.396 . S
C237 C244 1.403 . S
C238 C228 1.476 . S
C238 N233 1.318 1_545 S
C238 C237 1.396 . S
H239 C234 0.929 . S
O240 Mn216 2.385 . S
O240 C218 1.234 . S
O241 Mn216 2.209 . S
O241 Mn217 2.215 . S
O241 C218 1.283 . S
O242 Mn216 2.094 . S
O242 C220 1.240 . S
O243 Mn217 2.117 . S
O243 C220 1.264 . S
C244 C237 1.403 . S
C244 C245 1.399 . S
C244 H250 0.929 . S
C245 C225 1.449 . S
C245 C244 1.399 . S
C245 H251 0.930 . S
H246 C226 0.931 . S
H247 C227 0.930 . S
H248 C235 0.931 1_565 S
H249 C236 0.929 . S
H250 C244 0.929 . S
H251 C245 0.930 . S
Mn252 O257 2.095 . S
Mn252 O267 2.162 . S
Mn252 O268 2.297 . S
Mn252 O276 2.385 . S
Mn252 O277 2.209 . S
Mn252 O278 2.094 . S
Mn253 O258 2.121 . S
Mn253 N260 2.257 . S
Mn253 N269 2.282 . S
Mn253 O277 2.215 . S
Mn253 O279 2.117 . S
C254 O276 1.234 . S
C254 O277 1.283 . S
C255 O267 1.281 1_545 S
C255 O268 1.236 1_545 S
C256 O278 1.240 . S
C256 O279 1.264 . S
O257 Mn252 2.095 . S
O257 C266 1.250 . S
O258 Mn253 2.121 . S
O258 C266 1.258 . S
C259 N260 1.326 . S
C259 C263 1.460 . S
C259 H265 0.929 . S
N260 Mn253 2.257 . S
N260 C259 1.326 . S
N260 C264 1.362 . S
C261 C262 1.258 . S
C261 C264 1.431 . S
C261 C281 1.449 . S
C262 C261 1.258 . S
C262 C263 1.477 . S
C262 H282 0.931 . S
C263 C259 1.460 . S
C263 C262 1.477 . S
C263 H283 0.930 . S
C264 N260 1.362 . S
C264 C261 1.431 . S
C264 C274 1.476 . S
H265 C259 0.929 . S
C266 O257 1.250 . S
C266 O258 1.258 . S
O267 Mn252 2.162 . S
O267 C255 1.281 1_565 S
O268 Mn252 2.297 . S
O268 C255 1.236 1_565 S
N269 Mn253 2.282 . S
N269 C270 1.328 . S
N269 C274 1.318 . S
C270 N269 1.328 . S
C270 C271 1.457 . S
C270 H275 0.929 . S
C271 C270 1.457 . S
C271 C272 1.291 . S
C271 H284 0.922 1_556 S
C272 C271 1.291 . S
C272 C273 1.373 . S
C272 H285 0.929 . S
C273 C272 1.373 . S
C273 C274 1.396 . S
C273 C280 1.403 . S
C274 C264 1.476 . S
C274 N269 1.318 . S
C274 C273 1.396 . S
H275 C270 0.929 . S
O276 Mn252 2.385 . S
O276 C254 1.234 . S
O277 Mn252 2.209 . S
O277 Mn253 2.215 . S
O277 C254 1.283 . S
O278 Mn252 2.094 . S
O278 C256 1.240 . S
O279 Mn253 2.117 . S
O279 C256 1.264 . S
C280 C273 1.403 . S
C280 C281 1.399 . S
C280 H286 0.929 . S
C281 C261 1.449 . S
C281 C280 1.399 . S
C281 H287 0.930 . S
H282 C262 0.931 . S
H283 C263 0.930 . S
H284 C271 0.922 1_554 S
H285 C272 0.929 . S
H286 C280 0.929 . S
H287 C281 0.930 . S
C288 C289 1.369 . S
C288 C290 1.419 1_554 S
C288 H292 0.930 . S
C289 C288 1.369 . S
C289 C298 1.429 . S
C290 C288 1.419 1_556 S
C290 C291 1.363 . S
C290 H293 0.929 . S
C291 C290 1.363 . S
C291 C297 1.428 . S
H292 C288 0.930 . S
H293 C290 0.929 . S
S294 N295 1.613 1_556 S
S294 N296 1.610 . S
N295 S294 1.613 1_554 S
N295 C298 1.350 . S
N296 S294 1.610 . S
N296 C297 1.351 . S
C297 C291 1.428 . S
C297 N296 1.351 . S
C297 C298 1.434 1_556 S
C298 C289 1.429 . S
C298 N295 1.350 . S
C298 C297 1.434 1_554 S
C299 C300 1.369 . S
C299 C301 1.419 . S
C299 H303 0.930 . S
C300 C299 1.369 . S
C300 C309 1.429 . S
C301 C299 1.419 . S
C301 C302 1.363 . S
C301 H304 0.929 . S
C302 C301 1.363 . S
C302 C308 1.428 . S
H303 C299 0.930 . S
H304 C301 0.929 . S
S305 N306 1.613 . S
S305 N307 1.610 . S
N306 S305 1.613 . S
N306 C309 1.350 . S
N307 S305 1.610 . S
N307 C308 1.351 . S
C308 C302 1.428 . S
C308 N307 1.351 . S
C308 C309 1.434 . S
C309 C300 1.429 . S
C309 N306 1.350 . S
C309 C308 1.434 . S
C310 C311 1.369 . S
C310 C312 1.419 1_554 S
C310 H314 0.930 . S
C311 C310 1.369 . S
C311 C320 1.429 . S
C312 C310 1.419 1_556 S
C312 C313 1.363 . S
C312 H315 0.929 . S
C313 C312 1.363 . S
C313 C319 1.428 . S
H314 C310 0.930 . S
H315 C312 0.929 . S
S316 N317 1.613 1_556 S
S316 N318 1.610 . S
N317 S316 1.613 1_554 S
N317 C320 1.350 . S
N318 S316 1.610 . S
N318 C319 1.351 . S
C319 C313 1.428 . S
C319 N318 1.351 . S
C319 C320 1.434 1_556 S
C320 C311 1.429 . S
C320 N317 1.350 . S
C320 C319 1.434 1_554 S
C321 C322 1.369 . S
C321 C323 1.419 . S
C321 H325 0.930 . S
C322 C321 1.369 . S
C322 C331 1.429 . S
C323 C321 1.419 . S
C323 C324 1.363 . S
C323 H326 0.929 . S
C324 C323 1.363 . S
C324 C330 1.428 . S
H325 C321 0.930 . S
H326 C323 0.929 . S
S327 N328 1.613 . S
S327 N329 1.610 . S
N328 S327 1.613 . S
N328 C331 1.350 . S
N329 S327 1.610 . S
N329 C330 1.351 . S
C330 C324 1.428 . S
C330 N329 1.351 . S
C330 C331 1.434 . S
C331 C322 1.429 . S
C331 N328 1.350 . S
C331 C330 1.434 . S
C332 C333 1.369 . S
C332 C334 1.419 . S
C332 H336 0.930 . S
C333 C332 1.369 . S
C333 C342 1.429 . S
C334 C332 1.419 . S
C334 C335 1.363 . S
C334 H337 0.929 . S
C335 C334 1.363 . S
C335 C341 1.428 . S
H336 C332 0.930 . S
H337 C334 0.929 . S
S338 N339 1.613 . S
S338 N340 1.610 . S
N339 S338 1.613 . S
N339 C342 1.350 . S
N340 S338 1.610 . S
N340 C341 1.351 . S
C341 C335 1.428 . S
C341 N340 1.351 . S
C341 C342 1.434 . S
C342 C333 1.429 . S
C342 N339 1.350 . S
C342 C341 1.434 . S
C343 C344 1.369 . S
C343 C345 1.419 . S
C343 H347 0.930 . S
C344 C343 1.369 . S
C344 C353 1.429 . S
C345 C343 1.419 . S
C345 C346 1.363 . S
C345 H348 0.929 . S
C346 C345 1.363 . S
C346 C352 1.428 . S
H347 C343 0.930 . S
H348 C345 0.929 . S
S349 N350 1.613 . S
S349 N351 1.610 . S
N350 S349 1.613 . S
N350 C353 1.350 . S
N351 S349 1.610 . S
N351 C352 1.351 . S
C352 C346 1.428 . S
C352 N351 1.351 . S
C352 C353 1.434 . S
C353 C344 1.429 . S
C353 N350 1.350 . S
C353 C352 1.434 . S
C354 C355 1.369 . S
C354 C356 1.419 . S
C354 H358 0.930 . S
C355 C354 1.369 . S
C355 C364 1.429 . S
C356 C354 1.419 . S
C356 C357 1.363 . S
C356 H359 0.929 . S
C357 C356 1.363 . S
C357 C363 1.428 . S
H358 C354 0.930 . S
H359 C356 0.929 . S
S360 N361 1.613 . S
S360 N362 1.610 . S
N361 S360 1.613 . S
N361 C364 1.350 . S
N362 S360 1.610 . S
N362 C363 1.351 . S
C363 C357 1.428 . S
C363 N362 1.351 . S
C363 C364 1.434 . S
C364 C355 1.429 . S
C364 N361 1.350 . S
C364 C363 1.434 . S
C365 C366 1.369 . S
C365 C367 1.419 . S
C365 H369 0.930 . S
C366 C365 1.369 . S
C366 C375 1.429 . S
C367 C365 1.419 . S
C367 C368 1.363 . S
C367 H370 0.929 . S
C368 C367 1.363 . S
C368 C374 1.428 . S
H369 C365 0.930 . S
H370 C367 0.929 . S
S371 N372 1.613 . S
S371 N373 1.610 . S
N372 S371 1.613 . S
N372 C375 1.350 . S
N373 S371 1.610 . S
N373 C374 1.351 . S
C374 C368 1.428 . S
C374 N373 1.351 . S
C374 C375 1.434 . S
C375 C366 1.429 . S
C375 N372 1.350 . S
C375 C374 1.434 . S
C376 C377 1.369 . S
C376 C378 1.419 . S
C376 H380 0.930 . S
C377 C376 1.369 . S
C377 C386 1.429 . S
C378 C376 1.419 . S
C378 C379 1.363 . S
C378 H381 0.929 . S
C379 C378 1.363 . S
C379 C385 1.428 . S
H380 C376 0.930 . S
H381 C378 0.929 . S
S382 N383 1.613 . S
S382 N384 1.610 . S
N383 S382 1.613 . S
N383 C386 1.350 . S
N384 S382 1.610 . S
N384 C385 1.351 . S
C385 C379 1.428 . S
C385 N384 1.351 . S
C385 C386 1.434 . S
C386 C377 1.429 . S
C386 N383 1.350 . S
C386 C385 1.434 . S
C387 C388 1.369 . S
C387 C389 1.419 . S
C387 H391 0.930 . S
C388 C387 1.369 . S
C388 C397 1.429 . S
C389 C387 1.419 . S
C389 C390 1.363 . S
C389 H392 0.929 . S
C390 C389 1.363 . S
C390 C396 1.428 . S
H391 C387 0.930 . S
H392 C389 0.929 . S
S393 N394 1.613 . S
S393 N395 1.610 . S
N394 S393 1.613 . S
N394 C397 1.350 . S
N395 S393 1.610 . S
N395 C396 1.351 . S
C396 C390 1.428 . S
C396 N395 1.351 . S
C396 C397 1.434 . S
C397 C388 1.429 . S
C397 N394 1.350 . S
C397 C396 1.434 . S
C398 C399 1.369 . S
C398 C400 1.419 . S
C398 H402 0.930 . S
C399 C398 1.369 . S
C399 C408 1.429 . S
C400 C398 1.419 . S
C400 C401 1.363 . S
C400 H403 0.929 . S
C401 C400 1.363 . S
C401 C407 1.428 . S
H402 C398 0.930 . S
H403 C400 0.929 . S
S404 N405 1.613 . S
S404 N406 1.610 . S
N405 S404 1.613 . S
N405 C408 1.350 . S
N406 S404 1.610 . S
N406 C407 1.351 . S
C407 C401 1.428 . S
C407 N406 1.351 . S
C407 C408 1.434 . S
C408 C399 1.429 . S
C408 N405 1.350 . S
C408 C407 1.434 . S
C409 C410 1.369 . S
C409 C411 1.419 . S
C409 H413 0.930 . S
C410 C409 1.369 . S
C410 C419 1.429 . S
C411 C409 1.419 . S
C411 C412 1.363 . S
C411 H414 0.929 . S
C412 C411 1.363 . S
C412 C418 1.428 . S
H413 C409 0.930 . S
H414 C411 0.929 . S
S415 N416 1.613 . S
S415 N417 1.610 . S
N416 S415 1.613 . S
N416 C419 1.350 . S
N417 S415 1.610 . S
N417 C418 1.351 . S
C418 C412 1.428 . S
C418 N417 1.351 . S
C418 C419 1.434 . S
C419 C410 1.429 . S
C419 N416 1.350 . S
C419 C418 1.434 . S
C420 C421 1.369 . S
C420 C422 1.419 . S
C420 H424 0.930 . S
C421 C420 1.369 . S
C421 C430 1.429 1_655 S
C422 C420 1.419 . S
C422 C423 1.363 1_655 S
C422 H425 0.929 . S
C423 C422 1.363 1_455 S
C423 C429 1.428 . S
H424 C420 0.930 . S
H425 C422 0.929 . S
S426 N427 1.613 . S
S426 N428 1.610 . S
N427 S426 1.613 . S
N427 C430 1.350 . S
N428 S426 1.610 . S
N428 C429 1.351 . S
C429 C423 1.428 . S
C429 N428 1.351 . S
C429 C430 1.434 . S
C430 C421 1.429 1_455 S
C430 N427 1.350 . S
C430 C429 1.434 . S
C431 C432 1.369 . S
C431 C433 1.419 1_655 S
C431 H435 0.930 . S
C432 C431 1.369 . S
C432 C441 1.429 . S
C433 C431 1.419 1_455 S
C433 C434 1.363 . S
C433 H436 0.929 . S
C434 C433 1.363 . S
C434 C440 1.428 . S
H435 C431 0.930 . S
H436 C433 0.929 . S
S437 N438 1.613 . S
S437 N439 1.610 1_655 S
N438 S437 1.613 . S
N438 C441 1.350 . S
N439 S437 1.610 1_455 S
N439 C440 1.351 . S
C440 C434 1.428 . S
C440 N439 1.351 . S
C440 C441 1.434 1_455 S
C441 C432 1.429 . S
C441 N438 1.350 . S
C441 C440 1.434 1_655 S
C442 C443 1.369 . S
C442 C444 1.419 . S
C442 H446 0.930 . S
C443 C442 1.369 . S
C443 C452 1.429 1_545 S
C444 C442 1.419 . S
C444 C445 1.363 1_545 S
C444 H447 0.929 . S
C445 C444 1.363 1_565 S
C445 C451 1.428 . S
H446 C442 0.930 . S
H447 C444 0.929 . S
S448 N449 1.613 . S
S448 N450 1.610 . S
N449 S448 1.613 . S
N449 C452 1.350 . S
N450 S448 1.610 . S
N450 C451 1.351 . S
C451 C445 1.428 . S
C451 N450 1.351 . S
C451 C452 1.434 . S
C452 C443 1.429 1_565 S
C452 N449 1.350 . S
C452 C451 1.434 . S
C453 C454 1.369 1_565 S
C453 C455 1.419 . S
C453 H457 0.930 . S
C454 C453 1.369 1_545 S
C454 C463 1.429 . S
C455 C453 1.419 . S
C455 C456 1.363 . S
C455 H458 0.929 . S
C456 C455 1.363 . S
C456 C462 1.428 1_565 S
H457 C453 0.930 . S
H458 C455 0.929 . S
S459 N460 1.613 . S
S459 N461 1.610 . S
N460 S459 1.613 . S
N460 C463 1.350 . S
N461 S459 1.610 . S
N461 C462 1.351 . S
C462 C456 1.428 1_545 S
C462 N461 1.351 . S
C462 C463 1.434 . S
C463 C454 1.429 . S
C463 N460 1.350 . S
C463 C462 1.434 . S
C289 C4 1.395 . S
C291 C184 1.396 . S
C300 C40 1.397 . S
C302 C220 1.397 . S
C311 C76 1.394 . S
C313 C256 1.395 . S
C322 C148 1.397 . S
C324 C112 1.397 . S
C333 C14 1.555 . S
C335 C147 1.628 . S
C344 C50 1.550 . S
C346 C183 1.631 . S
C355 C219 1.628 . S
C357 C86 1.554 . S
C366 C122 1.560 . S
C368 C255 1.627 . S
C377 C158 1.560 . S
C379 C3 1.627 . S
C388 C39 1.632 . S
C390 C194 1.551 . S
C399 C230 1.555 . S
C401 C75 1.628 . S
C410 C111 1.626 . S
C412 C266 1.558 . S
C421 C74 0.802 . S
C423 C2 0.807 . S
C432 C110 0.806 . S
C434 C38 0.804 . S
C443 C146 0.810 . S
C445 C218 0.798 . S
C454 C182 0.812 . S
C456 C254 0.797 . S
