# Generated by pormake.
# Topology gis, (4)-cn, num edge types: 1
# Building blocks:
#     Node 0, Type 0, BuildingBlock: CEKHIL_clean_sbu_0, # of connection points: 4
#     Node 1, Type 0, BuildingBlock: CEKHIL_clean_sbu_0, # of connection points: 4
#     Node 2, Type 0, BuildingBlock: CEKHIL_clean_sbu_0, # of connection points: 4
#     Node 3, Type 0, BuildingBlock: CEKHIL_clean_sbu_0, # of connection points: 4
#     Node 4, Type 0, BuildingBlock: CEKHIL_clean_sbu_0, # of connection points: 4
#     Node 5, Type 0, BuildingBlock: CEKHIL_clean_sbu_0, # of connection points: 4
#     Node 6, Type 0, BuildingBlock: CEKHIL_clean_sbu_0, # of connection points: 4
#     Node 7, Type 0, BuildingBlock: CEKHIL_clean_sbu_0, # of connection points: 4
#     Node 8, Type 0, BuildingBlock: CEKHIL_clean_sbu_0, # of connection points: 4
#     Node 9, Type 0, BuildingBlock: CEKHIL_clean_sbu_0, # of connection points: 4
#     Node 10, Type 0, BuildingBlock: CEKHIL_clean_sbu_0, # of connection points: 4
#     Node 11, Type 0, BuildingBlock: CEKHIL_clean_sbu_0, # of connection points: 4
#     Node 12, Type 0, BuildingBlock: CEKHIL_clean_sbu_0, # of connection points: 4
#     Node 13, Type 0, BuildingBlock: CEKHIL_clean_sbu_0, # of connection points: 4
#     Node 14, Type 0, BuildingBlock: CEKHIL_clean_sbu_0, # of connection points: 4
#     Node 15, Type 0, BuildingBlock: CEKHIL_clean_sbu_0, # of connection points: 4
#     Edge 16, Type (0, 0), BuildingBlock: CIFDUS_clean_linker_0, # of connection points: 2
#     Edge 17, Type (0, 0), BuildingBlock: CIFDUS_clean_linker_0, # of connection points: 2
#     Edge 18, Type (0, 0), BuildingBlock: CIFDUS_clean_linker_0, # of connection points: 2
#     Edge 19, Type (0, 0), BuildingBlock: CIFDUS_clean_linker_0, # of connection points: 2
#     Edge 20, Type (0, 0), BuildingBlock: CIFDUS_clean_linker_0, # of connection points: 2
#     Edge 21, Type (0, 0), BuildingBlock: CIFDUS_clean_linker_0, # of connection points: 2
#     Edge 22, Type (0, 0), BuildingBlock: CIFDUS_clean_linker_0, # of connection points: 2
#     Edge 23, Type (0, 0), BuildingBlock: CIFDUS_clean_linker_0, # of connection points: 2
#     Edge 24, Type (0, 0), BuildingBlock: CIFDUS_clean_linker_0, # of connection points: 2
#     Edge 25, Type (0, 0), BuildingBlock: CIFDUS_clean_linker_0, # of connection points: 2
#     Edge 26, Type (0, 0), BuildingBlock: CIFDUS_clean_linker_0, # of connection points: 2
#     Edge 27, Type (0, 0), BuildingBlock: CIFDUS_clean_linker_0, # of connection points: 2
#     Edge 28, Type (0, 0), BuildingBlock: CIFDUS_clean_linker_0, # of connection points: 2
#     Edge 29, Type (0, 0), BuildingBlock: CIFDUS_clean_linker_0, # of connection points: 2
#     Edge 30, Type (0, 0), BuildingBlock: CIFDUS_clean_linker_0, # of connection points: 2
#     Edge 31, Type (0, 0), BuildingBlock: CIFDUS_clean_linker_0, # of connection points: 2
#     Edge 32, Type (0, 0), BuildingBlock: CIFDUS_clean_linker_0, # of connection points: 2
#     Edge 33, Type (0, 0), BuildingBlock: CIFDUS_clean_linker_0, # of connection points: 2
#     Edge 34, Type (0, 0), BuildingBlock: CIFDUS_clean_linker_0, # of connection points: 2
#     Edge 35, Type (0, 0), BuildingBlock: CIFDUS_clean_linker_0, # of connection points: 2
#     Edge 36, Type (0, 0), BuildingBlock: CIFDUS_clean_linker_0, # of connection points: 2
#     Edge 37, Type (0, 0), BuildingBlock: CIFDUS_clean_linker_0, # of connection points: 2
#     Edge 38, Type (0, 0), BuildingBlock: CIFDUS_clean_linker_0, # of connection points: 2
#     Edge 39, Type (0, 0), BuildingBlock: CIFDUS_clean_linker_0, # of connection points: 2
#     Edge 40, Type (0, 0), BuildingBlock: CIFDUS_clean_linker_0, # of connection points: 2
#     Edge 41, Type (0, 0), BuildingBlock: CIFDUS_clean_linker_0, # of connection points: 2
#     Edge 42, Type (0, 0), BuildingBlock: CIFDUS_clean_linker_0, # of connection points: 2
#     Edge 43, Type (0, 0), BuildingBlock: CIFDUS_clean_linker_0, # of connection points: 2
#     Edge 44, Type (0, 0), BuildingBlock: CIFDUS_clean_linker_0, # of connection points: 2
#     Edge 45, Type (0, 0), BuildingBlock: CIFDUS_clean_linker_0, # of connection points: 2
#     Edge 46, Type (0, 0), BuildingBlock: CIFDUS_clean_linker_0, # of connection points: 2
#     Edge 47, Type (0, 0), BuildingBlock: CIFDUS_clean_linker_0, # of connection points: 2
# Relax obj value: 0.063
# Max RMSD: 0.132
# Mean RMSD: 0.126
data_MOF--net-gis--node1-CEKHIL_clean_sbu_0--edge1-CIFDUS_clean_linker_0
_symmetry_space_group_name_H-M    P1
_symmetry_Int_Tables_number       1
_symmetry_cell_setting            triclinic
loop_
_symmetry_equiv_pos_as_xyz
'x, y, z'
_cell_length_a     47.608122
_cell_length_b     45.057805
_cell_length_c     30.839571
_cell_angle_alpha  90.470992
_cell_angle_beta   90.417459
_cell_angle_gamma 89.994718
loop_
_atom_site_label
_atom_site_type_symbol
_atom_site_fract_x
_atom_site_fract_y
_atom_site_fract_z
_atom_type_partial_charge
Co0 Co 0.14494 0.59447 0.13885 0.0
O1 O 0.18501 0.59732 0.14352 0.0
O2 O 0.15653 0.59011 0.19888 0.0
C3 C 0.1447 0.56338 0.08159 0.0
O4 O 0.10241 0.58925 0.14495 0.0
Co5 Co 0.11577 0.61784 0.05533 0.0
O6 O 0.084 0.59423 0.07782 0.0
C7 C 0.13633 0.66022 0.12153 0.0
C8 C 0.18209 0.59328 0.18476 0.0
C9 C 0.08194 0.58699 0.11753 0.0
O10 O 0.14167 0.63857 0.14714 0.0
O11 O 0.12786 0.65653 0.08235 0.0
O12 O 0.14788 0.55321 0.12062 0.0
O13 O 0.1445 0.59193 0.07825 0.0
Co14 Co 0.64589 0.89649 0.36816 0.0
O15 O 0.68604 0.89695 0.3711 0.0
O16 O 0.66176 0.8951 0.30988 0.0
C17 C 0.63956 0.93412 0.4155 0.0
O18 O 0.60346 0.89715 0.35483 0.0
Co19 Co 0.6151 0.87805 0.4504 0.0
O20 O 0.58332 0.8979 0.42066 0.0
C21 C 0.64025 0.83144 0.39728 0.0
C22 C 0.68622 0.89597 0.32924 0.0
C23 C 0.58202 0.90116 0.37968 0.0
O24 O 0.64639 0.85183 0.37007 0.0
O25 O 0.62871 0.83715 0.43375 0.0
O26 O 0.64457 0.9391 0.37493 0.0
O27 O 0.64173 0.90662 0.4274 0.0
Co28 Co 0.36087 0.40052 0.63304 0.0
O29 O 0.32119 0.40304 0.64112 0.0
O30 O 0.35158 0.39261 0.69335 0.0
C31 C 0.36439 0.44252 0.59426 0.0
O32 O 0.40396 0.39724 0.63427 0.0
Co33 Co 0.38044 0.39356 0.53679 0.0
O34 O 0.41737 0.40124 0.56454 0.0
C35 C 0.35479 0.34311 0.58118 0.0
C36 C 0.32552 0.39675 0.68142 0.0
C37 C 0.42313 0.39965 0.60497 0.0
O38 O 0.35701 0.35693 0.61778 0.0
O39 O 0.3601 0.35524 0.54477 0.0
O40 O 0.36412 0.4441 0.63635 0.0
O41 O 0.35963 0.41659 0.57813 0.0
Co42 Co 0.86796 0.09563 0.86165 0.0
O43 O 0.82813 0.10319 0.85713 0.0
O44 O 0.85645 0.09694 0.8013 0.0
C45 C 0.86364 0.06135 0.914 0.0
O46 O 0.90993 0.08707 0.85329 0.0
Co47 Co 0.90173 0.10405 0.94817 0.0
O48 O 0.93011 0.07933 0.91828 0.0
C49 C 0.88849 0.15565 0.89146 0.0
C50 C 0.83112 0.10172 0.81541 0.0
C51 C 0.93092 0.07894 0.87703 0.0
O52 O 0.87617 0.13938 0.86256 0.0
O53 O 0.89843 0.14581 0.92728 0.0
O54 O 0.86047 0.05358 0.87353 0.0
O55 O 0.86809 0.08906 0.92119 0.0
Co56 Co 0.14253 0.39908 0.85239 0.0
O57 O 0.18253 0.3949 0.84747 0.0
O58 O 0.15327 0.39949 0.79185 0.0
C59 C 0.1442 0.43336 0.90585 0.0
O60 O 0.09991 0.40518 0.84631 0.0
Co61 Co 0.11387 0.38312 0.94007 0.0
O62 O 0.08269 0.40629 0.91429 0.0
C63 C 0.13637 0.33614 0.88258 0.0
C64 C 0.17902 0.39658 0.80589 0.0
C65 C 0.08013 0.41064 0.87366 0.0
O66 O 0.13844 0.35447 0.85099 0.0
O67 O 0.12958 0.34395 0.92113 0.0
O68 O 0.14682 0.44151 0.86574 0.0
O69 O 0.14305 0.40518 0.91198 0.0
Co70 Co 0.86326 0.89833 0.14106 0.0
O71 O 0.82308 0.89652 0.1352 0.0
O72 O 0.84577 0.89975 0.19784 0.0
C73 C 0.86848 0.93203 0.08812 0.0
O74 O 0.90494 0.9014 0.15876 0.0
Co75 Co 0.90077 0.88045 0.06249 0.0
O76 O 0.93083 0.89923 0.09791 0.0
C77 C 0.86966 0.83522 0.11197 0.0
C78 C 0.82186 0.89807 0.17707 0.0
C79 C 0.92856 0.90357 0.13864 0.0
O80 O 0.86489 0.85385 0.14277 0.0
O81 O 0.88103 0.84233 0.07599 0.0
O82 O 0.86251 0.94068 0.12734 0.0
O83 O 0.86947 0.90379 0.0821 0.0
Co84 Co 0.3676 0.59325 0.35228 0.0
O85 O 0.32751 0.59296 0.34731 0.0
O86 O 0.35654 0.59351 0.29156 0.0
C87 C 0.37058 0.55721 0.40163 0.0
O88 O 0.41042 0.59228 0.34655 0.0
Co89 Co 0.39391 0.61249 0.43993 0.0
O90 O 0.42722 0.59235 0.41498 0.0
C91 C 0.37147 0.6581 0.38201 0.0
C92 C 0.33079 0.59314 0.30569 0.0
C93 C 0.43051 0.58865 0.3743 0.0
O94 O 0.36734 0.63774 0.35334 0.0
O95 O 0.38045 0.65261 0.42035 0.0
O96 O 0.36805 0.5508 0.36066 0.0
O97 O 0.36805 0.58501 0.41186 0.0
Co98 Co 0.64838 0.10075 0.63988 0.0
O99 O 0.68847 0.10348 0.64618 0.0
O100 O 0.65856 0.10832 0.70023 0.0
C101 C 0.64822 0.0591 0.59882 0.0
O102 O 0.60544 0.09768 0.64456 0.0
Co103 Co 0.62251 0.10726 0.54783 0.0
O104 O 0.59025 0.08798 0.57652 0.0
C105 C 0.64056 0.16099 0.595 0.0
C106 C 0.68456 0.10757 0.6873 0.0
C107 C 0.58627 0.08921 0.61733 0.0
O108 O 0.6461 0.14485 0.62831 0.0
O109 O 0.63238 0.15007 0.55858 0.0
O110 O 0.65054 0.0575 0.64069 0.0
O111 O 0.64922 0.08563 0.58312 0.0
Co112 Co 0.85694 0.39178 0.86609 0.0
O113 O 0.81706 0.38692 0.87079 0.0
O114 O 0.83968 0.39195 0.80886 0.0
C115 C 0.85974 0.42609 0.91904 0.0
O116 O 0.89828 0.39809 0.84975 0.0
Co117 Co 0.89599 0.37818 0.94499 0.0
O118 O 0.9225 0.40319 0.91229 0.0
C119 C 0.8743 0.32933 0.88869 0.0
C120 C 0.81588 0.38884 0.82898 0.0
C121 C 0.92069 0.40523 0.8712 0.0
O122 O 0.86202 0.34764 0.86313 0.0
O123 O 0.88745 0.3371 0.92336 0.0
O124 O 0.85326 0.43384 0.87973 0.0
O125 O 0.86253 0.39805 0.92552 0.0
Co126 Co 0.36086 0.10563 0.62971 0.0
O127 O 0.32056 0.10466 0.62764 0.0
O128 O 0.34582 0.10574 0.68811 0.0
C129 C 0.36695 0.06982 0.57916 0.0
O130 O 0.40311 0.10568 0.64324 0.0
Co131 Co 0.39331 0.12326 0.54625 0.0
O132 O 0.42546 0.10629 0.57898 0.0
C133 C 0.36344 0.16879 0.59752 0.0
C134 C 0.32111 0.10499 0.66962 0.0
C135 C 0.42546 0.10328 0.62005 0.0
O136 O 0.36003 0.15034 0.62863 0.0
O137 O 0.37375 0.1615 0.56069 0.0
O138 O 0.36241 0.06268 0.61926 0.0
O139 O 0.36529 0.09772 0.57081 0.0
Co140 Co 0.64379 0.58976 0.35672 0.0
O141 O 0.64418 0.54712 0.36071 0.0
O142 O 0.63316 0.57771 0.41444 0.0
C143 C 0.68553 0.59418 0.32333 0.0
O144 O 0.64209 0.63486 0.36506 0.0
Co145 Co 0.64135 0.61957 0.26712 0.0
O146 O 0.65053 0.65604 0.30075 0.0
C147 C 0.5895 0.59479 0.30287 0.0
C148 C 0.6366 0.55055 0.40074 0.0
C149 C 0.64699 0.65783 0.34162 0.0
O150 O 0.60325 0.58871 0.33773 0.0
O151 O 0.60109 0.60591 0.26937 0.0
O152 O 0.68432 0.59121 0.36513 0.0
O153 O 0.66183 0.59143 0.30276 0.0
Co154 Co 0.14743 0.89892 0.14625 0.0
O155 O 0.15244 0.93966 0.13045 0.0
O156 O 0.13933 0.9034 0.08551 0.0
C157 C 0.18799 0.89421 0.18373 0.0
O158 O 0.14131 0.85461 0.14856 0.0
Co159 Co 0.1384 0.87945 0.23844 0.0
O160 O 0.14482 0.83846 0.21668 0.0
C161 C 0.09069 0.90551 0.19255 0.0
C162 C 0.14538 0.93125 0.09143 0.0
C163 C 0.14288 0.83352 0.17612 0.0
O164 O 0.10691 0.90706 0.15962 0.0
O165 O 0.09915 0.89572 0.22923 0.0
O166 O 0.18707 0.8918 0.14181 0.0
O167 O 0.16459 0.90206 0.20235 0.0
Co168 Co 0.85752 0.60208 0.12673 0.0
O169 O 0.81733 0.60342 0.12425 0.0
O170 O 0.84228 0.60522 0.18498 0.0
C171 C 0.86137 0.56436 0.07904 0.0
O172 O 0.8997 0.60015 0.14067 0.0
Co173 Co 0.89172 0.61308 0.04191 0.0
O174 O 0.92209 0.59475 0.07687 0.0
C175 C 0.86206 0.66217 0.08647 0.0
C176 C 0.81767 0.60501 0.16617 0.0
C177 C 0.9218 0.59424 0.1182 0.0
O178 O 0.85889 0.64649 0.1208 0.0
O179 O 0.87203 0.65186 0.05094 0.0
O180 O 0.85663 0.55872 0.11963 0.0
O181 O 0.86164 0.59193 0.06892 0.0
Co182 Co 0.15325 0.101 0.8761 0.0
O183 O 0.19311 0.10663 0.87601 0.0
O184 O 0.16701 0.10213 0.81676 0.0
C185 C 0.15393 0.06576 0.92721 0.0
O186 O 0.11112 0.09333 0.86558 0.0
Co187 Co 0.12089 0.11432 0.96208 0.0
O188 O 0.09187 0.09013 0.93211 0.0
C189 C 0.1449 0.16289 0.91045 0.0
C190 C 0.19188 0.1055 0.83413 0.0
C191 C 0.09082 0.08625 0.89113 0.0
O192 O 0.14789 0.14548 0.87749 0.0
O193 O 0.13708 0.15398 0.94778 0.0
O194 O 0.15835 0.05851 0.88695 0.0
O195 O 0.1516 0.09372 0.93507 0.0
Co196 Co 0.63891 0.39583 0.6398 0.0
O197 O 0.63667 0.4376 0.62946 0.0
O198 O 0.62903 0.40306 0.57936 0.0
C199 C 0.68019 0.39663 0.67554 0.0
O200 O 0.64054 0.35033 0.64036 0.0
Co201 Co 0.63437 0.37608 0.73463 0.0
O202 O 0.64831 0.33809 0.71005 0.0
C203 C 0.58285 0.39258 0.68936 0.0
C204 C 0.6304 0.43117 0.58959 0.0
C205 C 0.64673 0.33119 0.66992 0.0
O206 O 0.598 0.39534 0.65533 0.0
O207 O 0.59342 0.38669 0.72659 0.0
O208 O 0.67924 0.39658 0.63351 0.0
O209 O 0.65617 0.40005 0.69473 0.0
Co210 Co 0.36937 0.89864 0.3647 0.0
O211 O 0.37027 0.94034 0.37848 0.0
O212 O 0.38145 0.90429 0.42395 0.0
C213 C 0.32653 0.8984 0.33268 0.0
O214 O 0.36992 0.8536 0.36408 0.0
Co215 Co 0.36862 0.87532 0.27103 0.0
O216 O 0.35975 0.83648 0.2974 0.0
C217 C 0.42242 0.89517 0.30865 0.0
C218 C 0.37812 0.9325 0.41719 0.0
C219 C 0.36416 0.83224 0.33764 0.0
O220 O 0.40961 0.90025 0.34456 0.0
O221 O 0.40973 0.88606 0.27429 0.0
O222 O 0.32917 0.89764 0.37456 0.0
O223 O 0.34968 0.90206 0.31135 0.0
H224 H 0.14982 0.78227 0.22167 0.0
H225 H 0.13314 0.81537 0.09288 0.0
H226 H 0.13018 0.76491 0.06488 0.0
H227 H 0.13149 0.71156 0.07664 0.0
H228 H 0.14847 0.67779 0.20489 0.0
H229 H 0.15223 0.72838 0.23314 0.0
C230 C 0.14553 0.77845 0.18751 0.0
C231 C 0.1416 0.80265 0.15958 0.0
C232 C 0.1439 0.74927 0.17137 0.0
C233 C 0.13625 0.79724 0.11527 0.0
C234 C 0.13452 0.76835 0.0991 0.0
C235 C 0.13602 0.71516 0.11078 0.0
C236 C 0.13952 0.69085 0.13854 0.0
C237 C 0.13818 0.74423 0.12688 0.0
C238 C 0.14562 0.69607 0.18268 0.0
C239 C 0.14775 0.72501 0.19896 0.0
H240 H 0.45444 0.93043 0.36055 0.0
H241 H 0.46034 0.86624 0.25659 0.0
H242 H 0.51157 0.86531 0.26477 0.0
H243 H 0.55422 0.87808 0.30845 0.0
H244 H 0.54686 0.94193 0.41269 0.0
H245 H 0.49702 0.94807 0.39691 0.0
C246 C 0.46694 0.91652 0.33925 0.0
C247 C 0.45352 0.89812 0.30849 0.0
C248 C 0.49628 0.91599 0.34428 0.0
C249 C 0.47011 0.88059 0.28068 0.0
C250 C 0.49943 0.87994 0.28548 0.0
C251 C 0.54181 0.89393 0.32673 0.0
C252 C 0.55413 0.90936 0.3619 0.0
C253 C 0.51274 0.89691 0.31808 0.0
C254 C 0.53777 0.92965 0.38567 0.0
C255 C 0.50922 0.93308 0.37682 0.0
H256 H 0.35737 0.30396 0.64857 0.0
H257 H 0.33807 0.30986 0.51176 0.0
H258 H 0.33625 0.2561 0.5061 0.0
H259 H 0.34595 0.2077 0.53741 0.0
H260 H 0.36544 0.20052 0.67366 0.0
H261 H 0.361 0.25445 0.68225 0.0
C262 C 0.35223 0.29349 0.61773 0.0
C263 C 0.34848 0.31096 0.58047 0.0
C264 C 0.35156 0.26234 0.61444 0.0
C265 C 0.3416 0.297 0.54082 0.0
C266 C 0.34056 0.26621 0.53747 0.0
C267 C 0.34893 0.21792 0.56909 0.0
C268 C 0.35652 0.20036 0.60464 0.0
C269 C 0.34652 0.24872 0.57365 0.0
C270 C 0.35971 0.2137 0.64573 0.0
C271 C 0.35731 0.24451 0.6506 0.0
H272 H 0.0539 0.10989 0.83241 0.0
H273 H 0.06805 0.03457 0.91493 0.0
H274 H 0.01848 0.02128 0.91015 0.0
H275 H 0.97024 0.03797 0.89689 0.0
H276 H 0.95501 0.11376 0.81591 0.0
H277 H 0.00557 0.11966 0.80477 0.0
C278 C 0.04626 0.08985 0.8476 0.0
C279 C 0.06444 0.07329 0.8742 0.0
C280 C 0.01737 0.08281 0.84575 0.0
C281 C 0.05432 0.04761 0.89433 0.0
C282 C 0.02594 0.04015 0.89194 0.0
C283 C 0.97799 0.05501 0.87539 0.0
C284 C 0.95905 0.07554 0.85762 0.0
C285 C 0.00705 0.05859 0.8699 0.0
C286 C 0.96923 0.09756 0.82977 0.0
C287 C 0.99819 0.10118 0.82386 0.0
H288 H 0.15989 0.29904 0.93918 0.0
H289 H 0.12543 0.30216 0.80972 0.0
H290 H 0.1282 0.24775 0.80424 0.0
H291 H 0.13505 0.19906 0.8408 0.0
H292 H 0.16797 0.19816 0.9716 0.0
H293 H 0.17147 0.25195 0.97191 0.0
C294 C 0.15321 0.28783 0.90957 0.0
C295 C 0.14195 0.30433 0.87528 0.0
C296 C 0.15445 0.25693 0.90707 0.0
C297 C 0.13402 0.28974 0.83666 0.0
C298 C 0.13546 0.25869 0.83367 0.0
C299 C 0.14344 0.21074 0.86892 0.0
C300 C 0.15077 0.19482 0.90642 0.0
C301 C 0.14483 0.24197 0.86928 0.0
C302 C 0.1617 0.21005 0.9427 0.0
C303 C 0.16375 0.24078 0.94292 0.0
H304 H 0.9728 0.9359 0.11311 0.0
H305 H 0.9443 0.88115 0.2178 0.0
H306 H 0.99224 0.87955 0.24779 0.0
H307 H 0.04358 0.88796 0.23754 0.0
H308 H 0.07053 0.94253 0.1311 0.0
H309 H 0.02206 0.95014 0.10894 0.0
C310 C 0.97697 0.92416 0.14307 0.0
C311 C 0.95515 0.90847 0.163 0.0
C312 C 1.00449 0.92297 0.15952 0.0
C313 C 0.96075 0.89355 0.20197 0.0
C314 C 0.98823 0.89238 0.21884 0.0
C315 C 0.03877 0.90204 0.21013 0.0
C316 C 0.06083 0.91417 0.18559 0.0
C317 C 0.01051 0.90613 0.19696 0.0
C318 C 0.05413 0.93244 0.15018 0.0
C319 C 0.02634 0.93686 0.13739 0.0
H320 H 0.37903 0.70872 0.43038 0.0
H321 H 0.35255 0.67764 0.30355 0.0
H322 H 0.34682 0.7285 0.27958 0.0
H323 H 0.35117 0.78171 0.29308 0.0
H324 H 0.37772 0.81341 0.41942 0.0
H325 H 0.38127 0.76244 0.44495 0.0
C326 C 0.37185 0.71304 0.39759 0.0
C327 C 0.36647 0.68925 0.36887 0.0
C328 C 0.36861 0.74249 0.38373 0.0
C329 C 0.35704 0.69539 0.32648 0.0
C330 C 0.35373 0.72454 0.31259 0.0
C331 C 0.35761 0.77757 0.32628 0.0
C332 C 0.36435 0.80144 0.3541 0.0
C333 C 0.35977 0.74824 0.34076 0.0
C334 C 0.37246 0.79551 0.39715 0.0
C335 C 0.37457 0.76633 0.41183 0.0
H336 H 0.55107 0.12203 0.66857 0.0
H337 H 0.55712 0.04024 0.59577 0.0
H338 H 0.50628 0.03418 0.59794 0.0
H339 H 0.46024 0.05751 0.60663 0.0
H340 H 0.45296 0.14009 0.67665 0.0
H341 H 0.50385 0.14042 0.69026 0.0
C342 C 0.54125 0.10234 0.65483 0.0
C343 C 0.55768 0.08167 0.6318 0.0
C344 C 0.51171 0.09948 0.65499 0.0
C345 C 0.54478 0.05643 0.61353 0.0
C346 C 0.5157 0.05307 0.61448 0.0
C347 C 0.46974 0.07493 0.62633 0.0
C348 C 0.45312 0.0987 0.64066 0.0
C349 C 0.49892 0.07523 0.63304 0.0
C350 C 0.46545 0.1214 0.66576 0.0
C351 C 0.49458 0.12174 0.67306 0.0
H352 H 0.85172 0.19375 0.85261 0.0
H353 H 0.93333 0.18862 0.91402 0.0
H354 H 0.93712 0.24242 0.91435 0.0
H355 H 0.91518 0.29046 0.90556 0.0
H356 H 0.83322 0.29747 0.84619 0.0
H357 H 0.83163 0.24335 0.83617 0.0
C358 C 0.87049 0.20454 0.86518 0.0
C359 C 0.892 0.1875 0.88396 0.0
C360 C 0.87228 0.23567 0.8662 0.0
C361 C 0.91631 0.20148 0.90014 0.0
C362 C 0.91851 0.23218 0.90037 0.0
C363 C 0.89701 0.28015 0.89023 0.0
C364 C 0.87409 0.29759 0.87757 0.0
C365 C 0.89622 0.24941 0.885 0.0
C366 C 0.851 0.28423 0.85658 0.0
C367 C 0.85007 0.25338 0.85098 0.0
H368 H 0.66652 0.70873 0.30673 0.0
H369 H 0.62675 0.6749 0.42148 0.0
H370 H 0.62222 0.72554 0.45019 0.0
H371 H 0.62694 0.77991 0.44025 0.0
H372 H 0.66687 0.8123 0.32438 0.0
H373 H 0.67379 0.76181 0.29886 0.0
C374 C 0.65696 0.7123 0.33817 0.0
C375 C 0.64676 0.68797 0.36166 0.0
C376 C 0.65425 0.74135 0.35427 0.0
C377 C 0.63481 0.69316 0.40262 0.0
C378 C 0.63208 0.72216 0.41898 0.0
C379 C 0.63735 0.77593 0.40961 0.0
C380 C 0.64607 0.80014 0.38425 0.0
C381 C 0.64132 0.74652 0.39473 0.0
C382 C 0.65964 0.79435 0.34463 0.0
C383 C 0.66369 0.76537 0.32986 0.0
H384 H 0.86318 0.69981 0.15632 0.0
H385 H 0.84596 0.69585 0.0187 0.0
H386 H 0.84326 0.74966 0.01602 0.0
H387 H 0.85221 0.79745 0.05017 0.0
H388 H 0.87074 0.80299 0.18701 0.0
H389 H 0.86607 0.74892 0.1929 0.0
C390 C 0.85827 0.71078 0.12603 0.0
C391 C 0.85539 0.69403 0.0876 0.0
C392 C 0.85732 0.74192 0.12448 0.0
C393 C 0.84885 0.70839 0.04854 0.0
C394 C 0.84729 0.73913 0.04693 0.0
C395 C 0.85494 0.78682 0.08139 0.0
C396 C 0.86242 0.80383 0.11787 0.0
C397 C 0.8526 0.75605 0.08428 0.0
C398 C 0.86518 0.79011 0.1584 0.0
C399 C 0.86265 0.75926 0.1617 0.0
H400 H 0.63138 0.3014 0.59514 0.0
H401 H 0.67175 0.28916 0.71961 0.0
H402 H 0.67452 0.23605 0.70656 0.0
H403 H 0.66298 0.19252 0.66248 0.0
H404 H 0.62249 0.20359 0.53796 0.0
H405 H 0.62256 0.2574 0.54832 0.0
C406 C 0.64111 0.28715 0.61911 0.0
C407 C 0.65102 0.2994 0.65849 0.0
C408 C 0.64248 0.25625 0.61163 0.0
C409 C 0.66357 0.28047 0.68919 0.0
C410 C 0.66522 0.24998 0.68182 0.0
C411 C 0.65427 0.20662 0.63741 0.0
C412 C 0.64253 0.19383 0.59969 0.0
C413 C 0.65425 0.23754 0.64359 0.0
C414 C 0.63163 0.21268 0.56745 0.0
C415 C 0.6316 0.24354 0.57336 0.0
H416 H 0.0435 0.38409 0.81696 0.0
H417 H 0.05442 0.4604 0.9005 0.0
H418 H 1.00403 0.47004 0.89836 0.0
H419 H 0.95685 0.44975 0.88737 0.0
H420 H 0.94485 0.37205 0.80728 0.0
H421 H 0.99533 0.37025 0.79237 0.0
C422 C 0.03487 0.40353 0.833 0.0
C423 C 0.05247 0.42149 0.85901 0.0
C424 C 0.00557 0.40831 0.8329 0.0
C425 C 0.04115 0.44635 0.88032 0.0
C426 C 0.01232 0.45172 0.87939 0.0
C427 C 0.9652 0.43322 0.86513 0.0
C428 C 0.94735 0.41098 0.84865 0.0
C429 C 0.99424 0.43185 0.85794 0.0
C430 C 0.95823 0.38955 0.82003 0.0
C431 C 0.98718 0.38828 0.81204 0.0
H432 H 0.55921 0.56321 0.36042 0.0
H433 H 0.55002 0.61764 0.2467 0.0
H434 H 0.49895 0.61735 0.25525 0.0
H435 H 0.45735 0.60675 0.30076 0.0
H436 H 0.46811 0.55417 0.416 0.0
H437 H 0.51794 0.54841 0.40086 0.0
C438 C 0.54609 0.57478 0.33713 0.0
C439 C 0.55854 0.59082 0.3034 0.0
C440 C 0.5169 0.57501 0.34271 0.0
C441 C 0.54107 0.60522 0.27316 0.0
C442 C 0.51182 0.60519 0.27814 0.0
C443 C 0.47055 0.59351 0.32191 0.0
C444 C 0.45917 0.58118 0.3597 0.0
C445 C 0.49954 0.5909 0.3136 0.0
C446 C 0.47649 0.56419 0.387 0.0
C447 C 0.505 0.56091 0.37842 0.0
H448 H 0.55495 0.39812 0.61366 0.0
H449 H 0.54069 0.39223 0.75133 0.0
H450 H 0.4897 0.39451 0.73833 0.0
H451 H 0.44891 0.39703 0.68638 0.0
H452 H 0.46666 0.4022 0.54912 0.0
H453 H 0.51627 0.40115 0.56391 0.0
C454 C 0.54091 0.39746 0.64118 0.0
C455 C 0.55184 0.395 0.68344 0.0
C456 C 0.51196 0.3985 0.63351 0.0
C457 C 0.53295 0.39407 0.71835 0.0
C458 C 0.50376 0.39534 0.71091 0.0
C459 C 0.46365 0.39804 0.65983 0.0
C460 C 0.4536 0.39973 0.61666 0.0
C461 C 0.49294 0.39738 0.66841 0.0
C462 C 0.47327 0.40097 0.58274 0.0
C463 C 0.50192 0.40036 0.59102 0.0
H464 H 0.04587 0.61475 0.17238 0.0
H465 H 0.0554 0.53764 0.09032 0.0
H466 H 1.00478 0.52907 0.09148 0.0
H467 H 0.95794 0.55006 0.1019 0.0
H468 H 0.94735 0.6288 0.18007 0.0
H469 H 0.99801 0.63003 0.19534 0.0
C470 C 0.03685 0.59539 0.15645 0.0
C471 C 0.05412 0.57674 0.13137 0.0
C472 C 0.00748 0.59132 0.15588 0.0
C473 C 0.04237 0.55207 0.11 0.0
C474 C 0.01343 0.54736 0.11033 0.0
C475 C 0.96667 0.56681 0.12362 0.0
C476 C 0.94919 0.58941 0.13961 0.0
C477 C 0.99574 0.56778 0.13108 0.0
C478 C 0.96049 0.61107 0.16767 0.0
C479 C 0.9895 0.61196 0.17592 0.0
H480 H 0.1399 0.50381 0.0822 0.0
H481 H 0.14387 0.57854 0.99594 0.0
H482 H 0.14304 0.54491 0.93319 0.0
H483 H 0.14351 0.49389 0.90319 0.0
H484 H 0.13959 0.41977 0.99084 0.0
H485 H 0.13799 0.45356 0.05262 0.0
C486 C 0.14046 0.51276 0.04967 0.0
C487 C 0.1422 0.54351 0.04363 0.0
C488 C 0.14009 0.49339 0.01398 0.0
C489 C 0.14263 0.55486 0.00133 0.0
C490 C 0.14222 0.53566 0.96548 0.0
C491 C 0.14219 0.48522 0.93582 0.0
C492 C 0.14188 0.45441 0.94244 0.0
C493 C 0.14134 0.50484 0.97144 0.0
C494 C 0.13998 0.44342 0.98484 0.0
C495 C 0.13908 0.4627 0.02026 0.0
H496 H 0.69579 0.8957 0.24142 0.0
H497 H 0.73818 0.89654 0.36567 0.0
H498 H 0.78353 0.89744 0.3302 0.0
H499 H 0.81171 0.89814 0.26401 0.0
H500 H 0.76991 0.89714 0.13942 0.0
H501 H 0.72426 0.89621 0.17471 0.0
C502 C 0.71496 0.89603 0.26063 0.0
C503 C 0.71344 0.89606 0.30612 0.0
C504 C 0.74129 0.89657 0.23998 0.0
C505 C 0.73857 0.89652 0.33056 0.0
C506 C 0.76465 0.89705 0.31034 0.0
C507 C 0.79262 0.89774 0.24461 0.0
C508 C 0.79432 0.89772 0.1992 0.0
C509 C 0.76632 0.89713 0.26509 0.0
C510 C 0.7693 0.89715 0.17452 0.0
C511 C 0.74309 0.89661 0.19465 0.0
H512 H 0.37618 0.44056 0.50943 0.0
H513 H 0.36403 0.50182 0.61579 0.0
H514 H 0.36723 0.54372 0.56561 0.0
H515 H 0.3693 0.56219 0.49006 0.0
H516 H 0.38083 0.49927 0.38524 0.0
H517 H 0.38228 0.45867 0.43651 0.0
C518 C 0.37446 0.46305 0.52186 0.0
C519 C 0.36949 0.46814 0.56605 0.0
C520 C 0.37607 0.48669 0.49302 0.0
C521 C 0.36771 0.49742 0.58172 0.0
C522 C 0.36944 0.52132 0.55305 0.0
C523 C 0.37244 0.53962 0.47864 0.0
C524 C 0.37453 0.53367 0.43392 0.0
C525 C 0.37298 0.51614 0.50841 0.0
C526 C 0.37881 0.50439 0.41946 0.0
C527 C 0.37965 0.48112 0.44872 0.0
H528 H 0.73967 0.10549 0.66635 0.0
H529 H 0.68435 0.11376 0.77602 0.0
H530 H 0.72499 0.1137 0.82527 0.0
H531 H 0.77615 0.10934 0.83708 0.0
H532 H 0.83096 0.10015 0.72688 0.0
H533 H 0.7905 0.10256 0.67788 0.0
C534 C 0.73642 0.10747 0.70103 0.0
C535 C 0.70894 0.10958 0.71746 0.0
C536 C 0.75981 0.10712 0.72904 0.0
C537 C 0.70523 0.11213 0.76249 0.0
C538 C 0.72847 0.11202 0.79065 0.0
C539 C 0.77928 0.10801 0.80233 0.0
C540 C 0.80662 0.10449 0.7857 0.0
C541 C 0.75585 0.10923 0.77429 0.0
C542 C 0.81022 0.10281 0.74058 0.0
C543 C 0.78707 0.10418 0.71253 0.0
H544 H 0.86738 0.48508 0.91151 0.0
H545 H 0.86031 0.41534 0.00575 0.0
H546 H 0.86201 0.45193 0.06471 0.0
H547 H 0.86201 0.50426 0.08895 0.0
H548 H 0.86988 0.57336 0.99356 0.0
H549 H 0.87168 0.53652 0.93578 0.0
C550 C 0.86638 0.47792 0.94497 0.0
C551 C 0.86332 0.44778 0.9544 0.0
C552 C 0.86745 0.49895 0.97853 0.0
C553 C 0.86251 0.4386 0.99782 0.0
C554 C 0.86342 0.45946 0.03151 0.0
C555 C 0.86439 0.51114 0.05556 0.0
C556 C 0.86542 0.54141 0.04552 0.0
C557 C 0.86535 0.48978 0.0222 0.0
C558 C 0.86879 0.55013 0.00217 0.0
C559 C 0.86978 0.52911 0.96898 0.0
H560 H 0.19817 0.10114 0.74602 0.0
H561 H 0.24482 0.11317 0.86543 0.0
H562 H 0.28871 0.11387 0.82568 0.0
H563 H 0.31436 0.11051 0.75707 0.0
H564 H 0.26803 0.0989 0.63736 0.0
H565 H 0.22391 0.09856 0.67697 0.0
C566 C 0.21793 0.10405 0.76324 0.0
C567 C 0.21809 0.10707 0.80862 0.0
C568 C 0.24334 0.1044 0.74014 0.0
C569 C 0.24396 0.11077 0.83047 0.0
C570 C 0.26919 0.11114 0.80779 0.0
C571 C 0.29462 0.10788 0.73969 0.0
C572 C 0.29457 0.10468 0.69438 0.0
C573 C 0.26919 0.10784 0.76264 0.0
C574 C 0.26874 0.10141 0.67231 0.0
C575 C 0.24342 0.10122 0.69492 0.0
H576 H 0.62305 0.55076 0.48625 0.0
H577 H 0.64215 0.49192 0.37943 0.0
H578 H 0.63942 0.44918 0.42739 0.0
H579 H 0.63476 0.42869 0.50115 0.0
H580 H 0.61715 0.48826 0.60777 0.0
H581 H 0.6158 0.53022 0.55857 0.0
C582 C 0.6264 0.52858 0.47339 0.0
C583 C 0.633 0.52462 0.42942 0.0
C584 C 0.62509 0.50409 0.50123 0.0
C585 C 0.63719 0.49566 0.41325 0.0
C586 C 0.63563 0.47115 0.44067 0.0
C587 C 0.63021 0.45079 0.51338 0.0
C588 C 0.62623 0.45535 0.55804 0.0
C589 C 0.63002 0.4751 0.48491 0.0
C590 C 0.62052 0.48416 0.57354 0.0
C591 C 0.61978 0.50824 0.54544 0.0
H592 H 0.31453 0.89092 0.24678 0.0
H593 H 0.27542 0.90232 0.37149 0.0
H594 H 0.22899 0.90151 0.3373 0.0
H595 H 0.19919 0.89883 0.27123 0.0
H596 H 0.23898 0.88583 0.14715 0.0
H597 H 0.28496 0.88588 0.1817 0.0
C598 C 0.29584 0.89318 0.26645 0.0
C599 C 0.29849 0.89685 0.31153 0.0
C600 C 0.26912 0.89241 0.24664 0.0
C601 C 0.27402 0.89948 0.33663 0.0
C602 C 0.24739 0.89906 0.31711 0.0
C603 C 0.21792 0.89586 0.25188 0.0
C604 C 0.21549 0.89252 0.20663 0.0
C605 C 0.24463 0.89571 0.27205 0.0
C606 C 0.24006 0.88854 0.18205 0.0
C607 C 0.26651 0.8886 0.20174 0.0
H608 H 0.63525 0.05692 0.51309 0.0
H609 H 0.65229 0.00118 0.62322 0.0
H610 H 0.64859 0.95692 0.57713 0.0
H611 H 0.64375 0.93423 0.50413 0.0
H612 H 0.62681 0.99071 0.39466 0.0
H613 H 0.6268 0.03425 0.44186 0.0
C614 C 0.63803 0.03508 0.52704 0.0
C615 C 0.64437 0.03236 0.57133 0.0
C616 C 0.63585 0.00976 0.50041 0.0
C617 C 0.64757 0.00389 0.58907 0.0
C618 C 0.64546 0.97854 0.56274 0.0
C619 C 0.63965 0.95602 0.49083 0.0
C620 C 0.63562 0.95925 0.44593 0.0
C621 C 0.64003 0.98121 0.51819 0.0
C622 C 0.63029 0.98763 0.42909 0.0
C623 C 0.63032 0.01261 0.45602 0.0
H624 H 0.27066 0.40072 0.65979 0.0
H625 H 0.3259 0.38817 0.76972 0.0
H626 H 0.28511 0.38639 0.81783 0.0
H627 H 0.23391 0.3895 0.82834 0.0
H628 H 0.1792 0.40218 0.71773 0.0
H629 H 0.21991 0.40276 0.66991 0.0
C630 C 0.2739 0.39754 0.69429 0.0
C631 C 0.30135 0.39468 0.7112 0.0
C632 C 0.25048 0.39659 0.72149 0.0
C633 C 0.30504 0.39044 0.75592 0.0
C634 C 0.28172 0.38946 0.78337 0.0
C635 C 0.23085 0.3923 0.79374 0.0
C636 C 0.20351 0.39586 0.7766 0.0
C637 C 0.25437 0.39267 0.76648 0.0
C638 C 0.19996 0.3994 0.73173 0.0
C639 C 0.22323 0.39977 0.70441 0.0
H640 H 0.87148 0.00126 0.91123 0.0
H641 H 0.8574 0.07496 0.99866 0.0
H642 H 0.8591 0.04187 0.06051 0.0
H643 H 0.86358 0.99194 0.09007 0.0
H644 H 0.87846 0.91793 0.00361 0.0
H645 H 0.87785 0.9511 0.94146 0.0
C646 C 0.86868 0.00993 0.94383 0.0
C647 C 0.86417 0.04039 0.95036 0.0
C648 C 0.87004 0.99079 0.97956 0.0
C649 C 0.86091 0.05152 0.99278 0.0
C650 C 0.8619 0.03265 0.02825 0.0
C651 C 0.86694 0.98314 0.05768 0.0
C652 C 0.87093 0.95261 0.05145 0.0
C653 C 0.86641 0.00226 0.02206 0.0
C654 C 0.87529 0.94145 0.00927 0.0
C655 C 0.87483 0.96036 0.97364 0.0
H656 H 0.23663 0.59601 0.16084 0.0
H657 H 0.1836 0.58858 0.2732 0.0
H658 H 0.2252 0.58772 0.32025 0.0
H659 H 0.27632 0.58946 0.32924 0.0
H660 H 0.32947 0.59661 0.21698 0.0
H661 H 0.28787 0.59715 0.1698 0.0
C662 C 0.23412 0.59421 0.19564 0.0
C663 C 0.20703 0.59243 0.21356 0.0
C664 C 0.25807 0.59367 0.22235 0.0
C665 C 0.20418 0.58999 0.25865 0.0
C666 C 0.22796 0.58951 0.28551 0.0
C667 C 0.27888 0.59113 0.29443 0.0
C668 C 0.30598 0.59306 0.2766 0.0
C669 C 0.25496 0.5914 0.26768 0.0
C670 C 0.30887 0.59511 0.23147 0.0
C671 C 0.2851 0.59544 0.20454 0.0
H672 H 0.37532 0.01029 0.58777 0.0
H673 H 0.3714 0.08017 0.49297 0.0
H674 H 0.37663 0.04394 0.43456 0.0
H675 H 0.37884 0.99228 0.41001 0.0
H676 H 0.38315 0.92201 0.50401 0.0
H677 H 0.38162 0.9585 0.56306 0.0
C678 C 0.37584 0.01755 0.55434 0.0
C679 C 0.37264 0.04779 0.54469 0.0
C680 C 0.37887 0.99655 0.52074 0.0
C681 C 0.37364 0.05697 0.50127 0.0
C682 C 0.3766 0.03628 0.46779 0.0
C683 C 0.37973 0.98496 0.44342 0.0
C684 C 0.38081 0.95453 0.45265 0.0
C685 C 0.3787 0.00599 0.4771 0.0
C686 C 0.38225 0.94536 0.49607 0.0
C687 C 0.38125 0.9662 0.52986 0.0
H688 H 0.80987 0.60469 0.2542 0.0
H689 H 0.76505 0.60642 0.13201 0.0
H690 H 0.72044 0.6044 0.16965 0.0
H691 H 0.69384 0.60014 0.23687 0.0
H692 H 0.73791 0.59808 0.3595 0.0
H693 H 0.78284 0.60242 0.32225 0.0
C694 C 0.79033 0.60483 0.23591 0.0
C695 C 0.7909 0.60557 0.19035 0.0
C696 C 0.7645 0.60353 0.25782 0.0
C697 C 0.76534 0.60575 0.16711 0.0
C698 C 0.73971 0.60459 0.18858 0.0
C699 C 0.71326 0.60081 0.25546 0.0
C700 C 0.71252 0.59863 0.30081 0.0
C701 C 0.73902 0.60315 0.23387 0.0
C702 C 0.73788 0.59963 0.32447 0.0
C703 C 0.76362 0.60208 0.3032 0.0
H704 H 0.14688 0.99089 0.09742 0.0
H705 H 0.14258 0.91881 0.00467 0.0
H706 H 0.14442 0.95417 0.94494 0.0
H707 H 0.14896 0.00572 0.91939 0.0
H708 H 0.15214 0.07726 0.01331 0.0
H709 H 0.14896 0.04193 0.07228 0.0
C710 C 0.14629 0.98292 0.06414 0.0
C711 C 0.14486 0.95239 0.05537 0.0
C712 C 0.14723 0.00326 0.03019 0.0
C713 C 0.14374 0.94231 0.01214 0.0
C714 C 0.14486 0.96248 0.97802 0.0
C715 C 0.14893 0.01347 0.95278 0.0
C716 C 0.15103 0.04395 0.96205 0.0
C717 C 0.14691 0.99301 0.98669 0.0
C718 C 0.15063 0.05385 0.00537 0.0
C719 C 0.14884 0.03369 0.03915 0.0
H720 H 0.68992 0.39225 0.76281 0.0
H721 H 0.73185 0.3959 0.63934 0.0
H722 H 0.77738 0.39327 0.67535 0.0
H723 H 0.80571 0.39087 0.74196 0.0
H724 H 0.7641 0.38655 0.8656 0.0
H725 H 0.71841 0.38839 0.82962 0.0
C726 C 0.70904 0.39244 0.7439 0.0
C727 C 0.70744 0.3944 0.69855 0.0
C728 C 0.73536 0.39078 0.76481 0.0
C729 C 0.73241 0.39444 0.67438 0.0
C730 C 0.75855 0.39295 0.6949 0.0
C731 C 0.78664 0.39021 0.76098 0.0
C732 C 0.78838 0.38864 0.80632 0.0
C733 C 0.76032 0.39124 0.7401 0.0
C734 C 0.76343 0.38775 0.83054 0.0
C735 C 0.73721 0.38885 0.81003 0.0
loop_
_geom_bond_atom_site_label_1
_geom_bond_atom_site_label_2
_geom_bond_distance
_geom_bond_site_symmetry_2
_ccdc_geom_bond_type
Co0 O1 2.216 . S
Co0 O2 2.091 . S
Co0 O4 2.004 . S
Co0 O10 2.021 . S
Co0 O12 2.137 . S
Co0 O13 2.244 . S
O1 Co0 2.216 . S
O1 C8 1.247 . S
O2 Co0 2.091 . S
O2 C8 1.261 . S
C3 O12 1.247 . S
C3 O13 1.272 . S
O4 Co0 2.004 . S
O4 C9 1.259 . S
Co5 O6 2.061 . S
Co5 O11 2.052 . S
Co5 O13 2.135 . S
O6 Co5 2.061 . S
O6 C9 1.235 . S
C7 O10 1.238 . S
C7 O11 1.241 . S
C8 O1 1.247 . S
C8 O2 1.261 . S
C9 O4 1.259 . S
C9 O6 1.235 . S
O10 Co0 2.021 . S
O10 C7 1.238 . S
O11 Co5 2.052 . S
O11 C7 1.241 . S
O12 Co0 2.137 . S
O12 C3 1.247 . S
O13 Co0 2.244 . S
O13 C3 1.272 . S
O13 Co5 2.135 . S
Co14 O15 2.216 . S
Co14 O16 2.091 . S
Co14 O18 2.004 . S
Co14 O24 2.021 . S
Co14 O26 2.137 . S
Co14 O27 2.244 . S
O15 Co14 2.216 . S
O15 C22 1.247 . S
O16 Co14 2.091 . S
O16 C22 1.261 . S
C17 O26 1.247 . S
C17 O27 1.272 . S
O18 Co14 2.004 . S
O18 C23 1.259 . S
Co19 O20 2.061 . S
Co19 O25 2.052 . S
Co19 O27 2.135 . S
O20 Co19 2.061 . S
O20 C23 1.235 . S
C21 O24 1.238 . S
C21 O25 1.241 . S
C22 O15 1.247 . S
C22 O16 1.261 . S
C23 O18 1.259 . S
C23 O20 1.235 . S
O24 Co14 2.021 . S
O24 C21 1.238 . S
O25 Co19 2.052 . S
O25 C21 1.241 . S
O26 Co14 2.137 . S
O26 C17 1.247 . S
O27 Co14 2.244 . S
O27 C17 1.272 . S
O27 Co19 2.135 . S
Co28 O29 2.216 . S
Co28 O30 2.091 . S
Co28 O32 2.004 . S
Co28 O38 2.021 . S
Co28 O40 2.137 . S
Co28 O41 2.244 . S
O29 Co28 2.216 . S
O29 C36 1.247 . S
O30 Co28 2.091 . S
O30 C36 1.261 . S
C31 O40 1.247 . S
C31 O41 1.272 . S
O32 Co28 2.004 . S
O32 C37 1.259 . S
Co33 O34 2.061 . S
Co33 O39 2.052 . S
Co33 O41 2.135 . S
O34 Co33 2.061 . S
O34 C37 1.235 . S
C35 O38 1.238 . S
C35 O39 1.241 . S
C36 O29 1.247 . S
C36 O30 1.261 . S
C37 O32 1.259 . S
C37 O34 1.235 . S
O38 Co28 2.021 . S
O38 C35 1.238 . S
O39 Co33 2.052 . S
O39 C35 1.241 . S
O40 Co28 2.137 . S
O40 C31 1.247 . S
O41 Co28 2.244 . S
O41 C31 1.272 . S
O41 Co33 2.135 . S
Co42 O43 2.216 . S
Co42 O44 2.091 . S
Co42 O46 2.004 . S
Co42 O52 2.021 . S
Co42 O54 2.137 . S
Co42 O55 2.244 . S
O43 Co42 2.216 . S
O43 C50 1.247 . S
O44 Co42 2.091 . S
O44 C50 1.261 . S
C45 O54 1.247 . S
C45 O55 1.272 . S
O46 Co42 2.004 . S
O46 C51 1.259 . S
Co47 O48 2.061 . S
Co47 O53 2.052 . S
Co47 O55 2.135 . S
O48 Co47 2.061 . S
O48 C51 1.235 . S
C49 O52 1.238 . S
C49 O53 1.241 . S
C50 O43 1.247 . S
C50 O44 1.261 . S
C51 O46 1.259 . S
C51 O48 1.235 . S
O52 Co42 2.021 . S
O52 C49 1.238 . S
O53 Co47 2.052 . S
O53 C49 1.241 . S
O54 Co42 2.137 . S
O54 C45 1.247 . S
O55 Co42 2.244 . S
O55 C45 1.272 . S
O55 Co47 2.135 . S
Co56 O57 2.216 . S
Co56 O58 2.091 . S
Co56 O60 2.004 . S
Co56 O66 2.021 . S
Co56 O68 2.137 . S
Co56 O69 2.244 . S
O57 Co56 2.216 . S
O57 C64 1.247 . S
O58 Co56 2.091 . S
O58 C64 1.261 . S
C59 O68 1.247 . S
C59 O69 1.272 . S
O60 Co56 2.004 . S
O60 C65 1.259 . S
Co61 O62 2.061 . S
Co61 O67 2.052 . S
Co61 O69 2.135 . S
O62 Co61 2.061 . S
O62 C65 1.235 . S
C63 O66 1.238 . S
C63 O67 1.241 . S
C64 O57 1.247 . S
C64 O58 1.261 . S
C65 O60 1.259 . S
C65 O62 1.235 . S
O66 Co56 2.021 . S
O66 C63 1.238 . S
O67 Co61 2.052 . S
O67 C63 1.241 . S
O68 Co56 2.137 . S
O68 C59 1.247 . S
O69 Co56 2.244 . S
O69 C59 1.272 . S
O69 Co61 2.135 . S
Co70 O71 2.216 . S
Co70 O72 2.091 . S
Co70 O74 2.004 . S
Co70 O80 2.021 . S
Co70 O82 2.137 . S
Co70 O83 2.244 . S
O71 Co70 2.216 . S
O71 C78 1.247 . S
O72 Co70 2.091 . S
O72 C78 1.261 . S
C73 O82 1.247 . S
C73 O83 1.272 . S
O74 Co70 2.004 . S
O74 C79 1.259 . S
Co75 O76 2.061 . S
Co75 O81 2.052 . S
Co75 O83 2.135 . S
O76 Co75 2.061 . S
O76 C79 1.235 . S
C77 O80 1.238 . S
C77 O81 1.241 . S
C78 O71 1.247 . S
C78 O72 1.261 . S
C79 O74 1.259 . S
C79 O76 1.235 . S
O80 Co70 2.021 . S
O80 C77 1.238 . S
O81 Co75 2.052 . S
O81 C77 1.241 . S
O82 Co70 2.137 . S
O82 C73 1.247 . S
O83 Co70 2.244 . S
O83 C73 1.272 . S
O83 Co75 2.135 . S
Co84 O85 2.216 . S
Co84 O86 2.091 . S
Co84 O88 2.004 . S
Co84 O94 2.021 . S
Co84 O96 2.137 . S
Co84 O97 2.244 . S
O85 Co84 2.216 . S
O85 C92 1.247 . S
O86 Co84 2.091 . S
O86 C92 1.261 . S
C87 O96 1.247 . S
C87 O97 1.272 . S
O88 Co84 2.004 . S
O88 C93 1.259 . S
Co89 O90 2.061 . S
Co89 O95 2.052 . S
Co89 O97 2.135 . S
O90 Co89 2.061 . S
O90 C93 1.235 . S
C91 O94 1.238 . S
C91 O95 1.241 . S
C92 O85 1.247 . S
C92 O86 1.261 . S
C93 O88 1.259 . S
C93 O90 1.235 . S
O94 Co84 2.021 . S
O94 C91 1.238 . S
O95 Co89 2.052 . S
O95 C91 1.241 . S
O96 Co84 2.137 . S
O96 C87 1.247 . S
O97 Co84 2.244 . S
O97 C87 1.272 . S
O97 Co89 2.135 . S
Co98 O99 2.216 . S
Co98 O100 2.091 . S
Co98 O102 2.004 . S
Co98 O108 2.021 . S
Co98 O110 2.137 . S
Co98 O111 2.244 . S
O99 Co98 2.216 . S
O99 C106 1.247 . S
O100 Co98 2.091 . S
O100 C106 1.261 . S
C101 O110 1.247 . S
C101 O111 1.272 . S
O102 Co98 2.004 . S
O102 C107 1.259 . S
Co103 O104 2.061 . S
Co103 O109 2.052 . S
Co103 O111 2.135 . S
O104 Co103 2.061 . S
O104 C107 1.235 . S
C105 O108 1.238 . S
C105 O109 1.241 . S
C106 O99 1.247 . S
C106 O100 1.261 . S
C107 O102 1.259 . S
C107 O104 1.235 . S
O108 Co98 2.021 . S
O108 C105 1.238 . S
O109 Co103 2.052 . S
O109 C105 1.241 . S
O110 Co98 2.137 . S
O110 C101 1.247 . S
O111 Co98 2.244 . S
O111 C101 1.272 . S
O111 Co103 2.135 . S
Co112 O113 2.216 . S
Co112 O114 2.091 . S
Co112 O116 2.004 . S
Co112 O122 2.021 . S
Co112 O124 2.137 . S
Co112 O125 2.244 . S
O113 Co112 2.216 . S
O113 C120 1.247 . S
O114 Co112 2.091 . S
O114 C120 1.261 . S
C115 O124 1.247 . S
C115 O125 1.272 . S
O116 Co112 2.004 . S
O116 C121 1.259 . S
Co117 O118 2.061 . S
Co117 O123 2.052 . S
Co117 O125 2.135 . S
O118 Co117 2.061 . S
O118 C121 1.235 . S
C119 O122 1.238 . S
C119 O123 1.241 . S
C120 O113 1.247 . S
C120 O114 1.261 . S
C121 O116 1.259 . S
C121 O118 1.235 . S
O122 Co112 2.021 . S
O122 C119 1.238 . S
O123 Co117 2.052 . S
O123 C119 1.241 . S
O124 Co112 2.137 . S
O124 C115 1.247 . S
O125 Co112 2.244 . S
O125 C115 1.272 . S
O125 Co117 2.135 . S
Co126 O127 2.216 . S
Co126 O128 2.091 . S
Co126 O130 2.004 . S
Co126 O136 2.021 . S
Co126 O138 2.137 . S
Co126 O139 2.244 . S
O127 Co126 2.216 . S
O127 C134 1.247 . S
O128 Co126 2.091 . S
O128 C134 1.261 . S
C129 O138 1.247 . S
C129 O139 1.272 . S
O130 Co126 2.004 . S
O130 C135 1.259 . S
Co131 O132 2.061 . S
Co131 O137 2.052 . S
Co131 O139 2.135 . S
O132 Co131 2.061 . S
O132 C135 1.235 . S
C133 O136 1.238 . S
C133 O137 1.241 . S
C134 O127 1.247 . S
C134 O128 1.261 . S
C135 O130 1.259 . S
C135 O132 1.235 . S
O136 Co126 2.021 . S
O136 C133 1.238 . S
O137 Co131 2.052 . S
O137 C133 1.241 . S
O138 Co126 2.137 . S
O138 C129 1.247 . S
O139 Co126 2.244 . S
O139 C129 1.272 . S
O139 Co131 2.135 . S
Co140 O141 2.216 . S
Co140 O142 2.091 . S
Co140 O144 2.004 . S
Co140 O150 2.021 . S
Co140 O152 2.137 . S
Co140 O153 2.244 . S
O141 Co140 2.216 . S
O141 C148 1.247 . S
O142 Co140 2.091 . S
O142 C148 1.261 . S
C143 O152 1.247 . S
C143 O153 1.272 . S
O144 Co140 2.004 . S
O144 C149 1.259 . S
Co145 O146 2.061 . S
Co145 O151 2.052 . S
Co145 O153 2.135 . S
O146 Co145 2.061 . S
O146 C149 1.235 . S
C147 O150 1.238 . S
C147 O151 1.241 . S
C148 O141 1.247 . S
C148 O142 1.261 . S
C149 O144 1.259 . S
C149 O146 1.235 . S
O150 Co140 2.021 . S
O150 C147 1.238 . S
O151 Co145 2.052 . S
O151 C147 1.241 . S
O152 Co140 2.137 . S
O152 C143 1.247 . S
O153 Co140 2.244 . S
O153 C143 1.272 . S
O153 Co145 2.135 . S
Co154 O155 2.216 . S
Co154 O156 2.091 . S
Co154 O158 2.004 . S
Co154 O164 2.021 . S
Co154 O166 2.137 . S
Co154 O167 2.244 . S
O155 Co154 2.216 . S
O155 C162 1.247 . S
O156 Co154 2.091 . S
O156 C162 1.261 . S
C157 O166 1.247 . S
C157 O167 1.272 . S
O158 Co154 2.004 . S
O158 C163 1.259 . S
Co159 O160 2.061 . S
Co159 O165 2.052 . S
Co159 O167 2.135 . S
O160 Co159 2.061 . S
O160 C163 1.235 . S
C161 O164 1.238 . S
C161 O165 1.241 . S
C162 O155 1.247 . S
C162 O156 1.261 . S
C163 O158 1.259 . S
C163 O160 1.235 . S
O164 Co154 2.021 . S
O164 C161 1.238 . S
O165 Co159 2.052 . S
O165 C161 1.241 . S
O166 Co154 2.137 . S
O166 C157 1.247 . S
O167 Co154 2.244 . S
O167 C157 1.272 . S
O167 Co159 2.135 . S
Co168 O169 2.216 . S
Co168 O170 2.091 . S
Co168 O172 2.004 . S
Co168 O178 2.021 . S
Co168 O180 2.137 . S
Co168 O181 2.244 . S
O169 Co168 2.216 . S
O169 C176 1.247 . S
O170 Co168 2.091 . S
O170 C176 1.261 . S
C171 O180 1.247 . S
C171 O181 1.272 . S
O172 Co168 2.004 . S
O172 C177 1.259 . S
Co173 O174 2.061 . S
Co173 O179 2.052 . S
Co173 O181 2.135 . S
O174 Co173 2.061 . S
O174 C177 1.235 . S
C175 O178 1.238 . S
C175 O179 1.241 . S
C176 O169 1.247 . S
C176 O170 1.261 . S
C177 O172 1.259 . S
C177 O174 1.235 . S
O178 Co168 2.021 . S
O178 C175 1.238 . S
O179 Co173 2.052 . S
O179 C175 1.241 . S
O180 Co168 2.137 . S
O180 C171 1.247 . S
O181 Co168 2.244 . S
O181 C171 1.272 . S
O181 Co173 2.135 . S
Co182 O183 2.216 . S
Co182 O184 2.091 . S
Co182 O186 2.004 . S
Co182 O192 2.021 . S
Co182 O194 2.137 . S
Co182 O195 2.244 . S
O183 Co182 2.216 . S
O183 C190 1.247 . S
O184 Co182 2.091 . S
O184 C190 1.261 . S
C185 O194 1.247 . S
C185 O195 1.272 . S
O186 Co182 2.004 . S
O186 C191 1.259 . S
Co187 O188 2.061 . S
Co187 O193 2.052 . S
Co187 O195 2.135 . S
O188 Co187 2.061 . S
O188 C191 1.235 . S
C189 O192 1.238 . S
C189 O193 1.241 . S
C190 O183 1.247 . S
C190 O184 1.261 . S
C191 O186 1.259 . S
C191 O188 1.235 . S
O192 Co182 2.021 . S
O192 C189 1.238 . S
O193 Co187 2.052 . S
O193 C189 1.241 . S
O194 Co182 2.137 . S
O194 C185 1.247 . S
O195 Co182 2.244 . S
O195 C185 1.272 . S
O195 Co187 2.135 . S
Co196 O197 2.216 . S
Co196 O198 2.091 . S
Co196 O200 2.004 . S
Co196 O206 2.021 . S
Co196 O208 2.137 . S
Co196 O209 2.244 . S
O197 Co196 2.216 . S
O197 C204 1.247 . S
O198 Co196 2.091 . S
O198 C204 1.261 . S
C199 O208 1.247 . S
C199 O209 1.272 . S
O200 Co196 2.004 . S
O200 C205 1.259 . S
Co201 O202 2.061 . S
Co201 O207 2.052 . S
Co201 O209 2.135 . S
O202 Co201 2.061 . S
O202 C205 1.235 . S
C203 O206 1.238 . S
C203 O207 1.241 . S
C204 O197 1.247 . S
C204 O198 1.261 . S
C205 O200 1.259 . S
C205 O202 1.235 . S
O206 Co196 2.021 . S
O206 C203 1.238 . S
O207 Co201 2.052 . S
O207 C203 1.241 . S
O208 Co196 2.137 . S
O208 C199 1.247 . S
O209 Co196 2.244 . S
O209 C199 1.272 . S
O209 Co201 2.135 . S
Co210 O211 2.216 . S
Co210 O212 2.091 . S
Co210 O214 2.004 . S
Co210 O220 2.021 . S
Co210 O222 2.137 . S
Co210 O223 2.244 . S
O211 Co210 2.216 . S
O211 C218 1.247 . S
O212 Co210 2.091 . S
O212 C218 1.261 . S
C213 O222 1.247 . S
C213 O223 1.272 . S
O214 Co210 2.004 . S
O214 C219 1.259 . S
Co215 O216 2.061 . S
Co215 O221 2.052 . S
Co215 O223 2.135 . S
O216 Co215 2.061 . S
O216 C219 1.235 . S
C217 O220 1.238 . S
C217 O221 1.241 . S
C218 O211 1.247 . S
C218 O212 1.261 . S
C219 O214 1.259 . S
C219 O216 1.235 . S
O220 Co210 2.021 . S
O220 C217 1.238 . S
O221 Co215 2.052 . S
O221 C217 1.241 . S
O222 Co210 2.137 . S
O222 C213 1.247 . S
O223 Co210 2.244 . S
O223 C213 1.272 . S
O223 Co215 2.135 . S
H224 C230 0.930 . S
H225 C233 0.930 . S
H226 C234 0.930 . S
H227 C235 0.930 . S
H228 C238 0.930 . S
H229 C239 0.930 . S
C230 H224 0.930 . S
C230 C231 1.355 . S
C230 C232 1.415 . S
C231 C230 1.355 . S
C231 C233 1.419 . S
C232 C230 1.415 . S
C232 C237 1.425 . S
C232 C239 1.409 . S
C233 H225 0.930 . S
C233 C231 1.419 . S
C233 C234 1.362 . S
C234 H226 0.930 . S
C234 C233 1.362 . S
C234 C237 1.409 . S
C235 H227 0.930 . S
C235 C236 1.355 . S
C235 C237 1.415 . S
C236 C235 1.355 . S
C236 C238 1.419 . S
C237 C232 1.425 . S
C237 C234 1.409 . S
C237 C235 1.415 . S
C238 H228 0.930 . S
C238 C236 1.419 . S
C238 C239 1.362 . S
C239 H229 0.930 . S
C239 C232 1.409 . S
C239 C238 1.362 . S
H240 C246 0.930 . S
H241 C249 0.930 . S
H242 C250 0.930 . S
H243 C251 0.930 . S
H244 C254 0.930 . S
H245 C255 0.930 . S
C246 H240 0.930 . S
C246 C247 1.355 . S
C246 C248 1.415 . S
C247 C246 1.355 . S
C247 C249 1.419 . S
C248 C246 1.415 . S
C248 C253 1.425 . S
C248 C255 1.409 . S
C249 H241 0.930 . S
C249 C247 1.419 . S
C249 C250 1.362 . S
C250 H242 0.930 . S
C250 C249 1.362 . S
C250 C253 1.409 . S
C251 H243 0.930 . S
C251 C252 1.355 . S
C251 C253 1.415 . S
C252 C251 1.355 . S
C252 C254 1.419 . S
C253 C248 1.425 . S
C253 C250 1.409 . S
C253 C251 1.415 . S
C254 H244 0.930 . S
C254 C252 1.419 . S
C254 C255 1.362 . S
C255 H245 0.930 . S
C255 C248 1.409 . S
C255 C254 1.362 . S
H256 C262 0.930 . S
H257 C265 0.930 . S
H258 C266 0.930 . S
H259 C267 0.930 . S
H260 C270 0.930 . S
H261 C271 0.930 . S
C262 H256 0.930 . S
C262 C263 1.355 . S
C262 C264 1.415 . S
C263 C262 1.355 . S
C263 C265 1.419 . S
C264 C262 1.415 . S
C264 C269 1.425 . S
C264 C271 1.409 . S
C265 H257 0.930 . S
C265 C263 1.419 . S
C265 C266 1.362 . S
C266 H258 0.930 . S
C266 C265 1.362 . S
C266 C269 1.409 . S
C267 H259 0.930 . S
C267 C268 1.355 . S
C267 C269 1.415 . S
C268 C267 1.355 . S
C268 C270 1.419 . S
C269 C264 1.425 . S
C269 C266 1.409 . S
C269 C267 1.415 . S
C270 H260 0.930 . S
C270 C268 1.419 . S
C270 C271 1.362 . S
C271 H261 0.930 . S
C271 C264 1.409 . S
C271 C270 1.362 . S
H272 C278 0.930 . S
H273 C281 0.930 . S
H274 C282 0.930 . S
H275 C283 0.930 . S
H276 C286 0.930 . S
H277 C287 0.930 . S
C278 H272 0.930 . S
C278 C279 1.355 . S
C278 C280 1.415 . S
C279 C278 1.355 . S
C279 C281 1.419 . S
C280 C278 1.415 . S
C280 C285 1.425 1_455 S
C280 C287 1.409 1_455 S
C281 H273 0.930 . S
C281 C279 1.419 . S
C281 C282 1.362 . S
C282 H274 0.930 . S
C282 C281 1.362 . S
C282 C285 1.409 1_455 S
C283 H275 0.930 . S
C283 C284 1.355 . S
C283 C285 1.415 . S
C284 C283 1.355 . S
C284 C286 1.419 . S
C285 C280 1.425 1_655 S
C285 C282 1.409 1_655 S
C285 C283 1.415 . S
C286 H276 0.930 . S
C286 C284 1.419 . S
C286 C287 1.362 . S
C287 H277 0.930 . S
C287 C280 1.409 1_655 S
C287 C286 1.362 . S
H288 C294 0.930 . S
H289 C297 0.930 . S
H290 C298 0.930 . S
H291 C299 0.930 . S
H292 C302 0.930 . S
H293 C303 0.930 . S
C294 H288 0.930 . S
C294 C295 1.355 . S
C294 C296 1.415 . S
C295 C294 1.355 . S
C295 C297 1.419 . S
C296 C294 1.415 . S
C296 C301 1.425 . S
C296 C303 1.409 . S
C297 H289 0.930 . S
C297 C295 1.419 . S
C297 C298 1.362 . S
C298 H290 0.930 . S
C298 C297 1.362 . S
C298 C301 1.409 . S
C299 H291 0.930 . S
C299 C300 1.355 . S
C299 C301 1.415 . S
C300 C299 1.355 . S
C300 C302 1.419 . S
C301 C296 1.425 . S
C301 C298 1.409 . S
C301 C299 1.415 . S
C302 H292 0.930 . S
C302 C300 1.419 . S
C302 C303 1.362 . S
C303 H293 0.930 . S
C303 C296 1.409 . S
C303 C302 1.362 . S
H304 C310 0.930 . S
H305 C313 0.930 . S
H306 C314 0.930 . S
H307 C315 0.930 . S
H308 C318 0.930 . S
H309 C319 0.930 . S
C310 H304 0.930 . S
C310 C311 1.355 . S
C310 C312 1.415 1_655 S
C311 C310 1.355 . S
C311 C313 1.419 . S
C312 C310 1.415 1_455 S
C312 C317 1.425 . S
C312 C319 1.409 . S
C313 H305 0.930 . S
C313 C311 1.419 . S
C313 C314 1.362 . S
C314 H306 0.930 . S
C314 C313 1.362 . S
C314 C317 1.409 1_655 S
C315 H307 0.930 . S
C315 C316 1.355 . S
C315 C317 1.415 . S
C316 C315 1.355 . S
C316 C318 1.419 . S
C317 C312 1.425 . S
C317 C314 1.409 1_455 S
C317 C315 1.415 . S
C318 H308 0.930 . S
C318 C316 1.419 . S
C318 C319 1.362 . S
C319 H309 0.930 . S
C319 C312 1.409 . S
C319 C318 1.362 . S
H320 C326 0.930 . S
H321 C329 0.930 . S
H322 C330 0.930 . S
H323 C331 0.930 . S
H324 C334 0.930 . S
H325 C335 0.930 . S
C326 H320 0.930 . S
C326 C327 1.355 . S
C326 C328 1.415 . S
C327 C326 1.355 . S
C327 C329 1.419 . S
C328 C326 1.415 . S
C328 C333 1.425 . S
C328 C335 1.409 . S
C329 H321 0.930 . S
C329 C327 1.419 . S
C329 C330 1.362 . S
C330 H322 0.930 . S
C330 C329 1.362 . S
C330 C333 1.409 . S
C331 H323 0.930 . S
C331 C332 1.355 . S
C331 C333 1.415 . S
C332 C331 1.355 . S
C332 C334 1.419 . S
C333 C328 1.425 . S
C333 C330 1.409 . S
C333 C331 1.415 . S
C334 H324 0.930 . S
C334 C332 1.419 . S
C334 C335 1.362 . S
C335 H325 0.930 . S
C335 C328 1.409 . S
C335 C334 1.362 . S
H336 C342 0.930 . S
H337 C345 0.930 . S
H338 C346 0.930 . S
H339 C347 0.930 . S
H340 C350 0.930 . S
H341 C351 0.930 . S
C342 H336 0.930 . S
C342 C343 1.355 . S
C342 C344 1.415 . S
C343 C342 1.355 . S
C343 C345 1.419 . S
C344 C342 1.415 . S
C344 C349 1.425 . S
C344 C351 1.409 . S
C345 H337 0.930 . S
C345 C343 1.419 . S
C345 C346 1.362 . S
C346 H338 0.930 . S
C346 C345 1.362 . S
C346 C349 1.409 . S
C347 H339 0.930 . S
C347 C348 1.355 . S
C347 C349 1.415 . S
C348 C347 1.355 . S
C348 C350 1.419 . S
C349 C344 1.425 . S
C349 C346 1.409 . S
C349 C347 1.415 . S
C350 H340 0.930 . S
C350 C348 1.419 . S
C350 C351 1.362 . S
C351 H341 0.930 . S
C351 C344 1.409 . S
C351 C350 1.362 . S
H352 C358 0.930 . S
H353 C361 0.930 . S
H354 C362 0.930 . S
H355 C363 0.930 . S
H356 C366 0.930 . S
H357 C367 0.930 . S
C358 H352 0.930 . S
C358 C359 1.355 . S
C358 C360 1.415 . S
C359 C358 1.355 . S
C359 C361 1.419 . S
C360 C358 1.415 . S
C360 C365 1.425 . S
C360 C367 1.409 . S
C361 H353 0.930 . S
C361 C359 1.419 . S
C361 C362 1.362 . S
C362 H354 0.930 . S
C362 C361 1.362 . S
C362 C365 1.409 . S
C363 H355 0.930 . S
C363 C364 1.355 . S
C363 C365 1.415 . S
C364 C363 1.355 . S
C364 C366 1.419 . S
C365 C360 1.425 . S
C365 C362 1.409 . S
C365 C363 1.415 . S
C366 H356 0.930 . S
C366 C364 1.419 . S
C366 C367 1.362 . S
C367 H357 0.930 . S
C367 C360 1.409 . S
C367 C366 1.362 . S
H368 C374 0.930 . S
H369 C377 0.930 . S
H370 C378 0.930 . S
H371 C379 0.930 . S
H372 C382 0.930 . S
H373 C383 0.930 . S
C374 H368 0.930 . S
C374 C375 1.355 . S
C374 C376 1.415 . S
C375 C374 1.355 . S
C375 C377 1.419 . S
C376 C374 1.415 . S
C376 C381 1.425 . S
C376 C383 1.409 . S
C377 H369 0.930 . S
C377 C375 1.419 . S
C377 C378 1.362 . S
C378 H370 0.930 . S
C378 C377 1.362 . S
C378 C381 1.409 . S
C379 H371 0.930 . S
C379 C380 1.355 . S
C379 C381 1.415 . S
C380 C379 1.355 . S
C380 C382 1.419 . S
C381 C376 1.425 . S
C381 C378 1.409 . S
C381 C379 1.415 . S
C382 H372 0.930 . S
C382 C380 1.419 . S
C382 C383 1.362 . S
C383 H373 0.930 . S
C383 C376 1.409 . S
C383 C382 1.362 . S
H384 C390 0.930 . S
H385 C393 0.930 . S
H386 C394 0.930 . S
H387 C395 0.930 . S
H388 C398 0.930 . S
H389 C399 0.930 . S
C390 H384 0.930 . S
C390 C391 1.355 . S
C390 C392 1.415 . S
C391 C390 1.355 . S
C391 C393 1.419 . S
C392 C390 1.415 . S
C392 C397 1.425 . S
C392 C399 1.409 . S
C393 H385 0.930 . S
C393 C391 1.419 . S
C393 C394 1.362 . S
C394 H386 0.930 . S
C394 C393 1.362 . S
C394 C397 1.409 . S
C395 H387 0.930 . S
C395 C396 1.355 . S
C395 C397 1.415 . S
C396 C395 1.355 . S
C396 C398 1.419 . S
C397 C392 1.425 . S
C397 C394 1.409 . S
C397 C395 1.415 . S
C398 H388 0.930 . S
C398 C396 1.419 . S
C398 C399 1.362 . S
C399 H389 0.930 . S
C399 C392 1.409 . S
C399 C398 1.362 . S
H400 C406 0.930 . S
H401 C409 0.930 . S
H402 C410 0.930 . S
H403 C411 0.930 . S
H404 C414 0.930 . S
H405 C415 0.930 . S
C406 H400 0.930 . S
C406 C407 1.355 . S
C406 C408 1.415 . S
C407 C406 1.355 . S
C407 C409 1.419 . S
C408 C406 1.415 . S
C408 C413 1.425 . S
C408 C415 1.409 . S
C409 H401 0.930 . S
C409 C407 1.419 . S
C409 C410 1.362 . S
C410 H402 0.930 . S
C410 C409 1.362 . S
C410 C413 1.409 . S
C411 H403 0.930 . S
C411 C412 1.355 . S
C411 C413 1.415 . S
C412 C411 1.355 . S
C412 C414 1.419 . S
C413 C408 1.425 . S
C413 C410 1.409 . S
C413 C411 1.415 . S
C414 H404 0.930 . S
C414 C412 1.419 . S
C414 C415 1.362 . S
C415 H405 0.930 . S
C415 C408 1.409 . S
C415 C414 1.362 . S
H416 C422 0.930 . S
H417 C425 0.930 . S
H418 C426 0.930 . S
H419 C427 0.930 . S
H420 C430 0.930 . S
H421 C431 0.930 . S
C422 H416 0.930 . S
C422 C423 1.355 . S
C422 C424 1.415 . S
C423 C422 1.355 . S
C423 C425 1.419 . S
C424 C422 1.415 . S
C424 C429 1.425 1_455 S
C424 C431 1.409 1_455 S
C425 H417 0.930 . S
C425 C423 1.419 . S
C425 C426 1.362 . S
C426 H418 0.930 . S
C426 C425 1.362 . S
C426 C429 1.409 1_455 S
C427 H419 0.930 . S
C427 C428 1.355 . S
C427 C429 1.415 . S
C428 C427 1.355 . S
C428 C430 1.419 . S
C429 C424 1.425 1_655 S
C429 C426 1.409 1_655 S
C429 C427 1.415 . S
C430 H420 0.930 . S
C430 C428 1.419 . S
C430 C431 1.362 . S
C431 H421 0.930 . S
C431 C424 1.409 1_655 S
C431 C430 1.362 . S
H432 C438 0.930 . S
H433 C441 0.930 . S
H434 C442 0.930 . S
H435 C443 0.930 . S
H436 C446 0.930 . S
H437 C447 0.930 . S
C438 H432 0.930 . S
C438 C439 1.355 . S
C438 C440 1.415 . S
C439 C438 1.355 . S
C439 C441 1.419 . S
C440 C438 1.415 . S
C440 C445 1.425 . S
C440 C447 1.409 . S
C441 H433 0.930 . S
C441 C439 1.419 . S
C441 C442 1.362 . S
C442 H434 0.930 . S
C442 C441 1.362 . S
C442 C445 1.409 . S
C443 H435 0.930 . S
C443 C444 1.355 . S
C443 C445 1.415 . S
C444 C443 1.355 . S
C444 C446 1.419 . S
C445 C440 1.425 . S
C445 C442 1.409 . S
C445 C443 1.415 . S
C446 H436 0.930 . S
C446 C444 1.419 . S
C446 C447 1.362 . S
C447 H437 0.930 . S
C447 C440 1.409 . S
C447 C446 1.362 . S
H448 C454 0.930 . S
H449 C457 0.930 . S
H450 C458 0.930 . S
H451 C459 0.930 . S
H452 C462 0.930 . S
H453 C463 0.930 . S
C454 H448 0.930 . S
C454 C455 1.355 . S
C454 C456 1.415 . S
C455 C454 1.355 . S
C455 C457 1.419 . S
C456 C454 1.415 . S
C456 C461 1.425 . S
C456 C463 1.409 . S
C457 H449 0.930 . S
C457 C455 1.419 . S
C457 C458 1.362 . S
C458 H450 0.930 . S
C458 C457 1.362 . S
C458 C461 1.409 . S
C459 H451 0.930 . S
C459 C460 1.355 . S
C459 C461 1.415 . S
C460 C459 1.355 . S
C460 C462 1.419 . S
C461 C456 1.425 . S
C461 C458 1.409 . S
C461 C459 1.415 . S
C462 H452 0.930 . S
C462 C460 1.419 . S
C462 C463 1.362 . S
C463 H453 0.930 . S
C463 C456 1.409 . S
C463 C462 1.362 . S
H464 C470 0.930 . S
H465 C473 0.930 . S
H466 C474 0.930 . S
H467 C475 0.930 . S
H468 C478 0.930 . S
H469 C479 0.930 . S
C470 H464 0.930 . S
C470 C471 1.355 . S
C470 C472 1.415 . S
C471 C470 1.355 . S
C471 C473 1.419 . S
C472 C470 1.415 . S
C472 C477 1.425 1_455 S
C472 C479 1.409 1_455 S
C473 H465 0.930 . S
C473 C471 1.419 . S
C473 C474 1.362 . S
C474 H466 0.930 . S
C474 C473 1.362 . S
C474 C477 1.409 1_455 S
C475 H467 0.930 . S
C475 C476 1.355 . S
C475 C477 1.415 . S
C476 C475 1.355 . S
C476 C478 1.419 . S
C477 C472 1.425 1_655 S
C477 C474 1.409 1_655 S
C477 C475 1.415 . S
C478 H468 0.930 . S
C478 C476 1.419 . S
C478 C479 1.362 . S
C479 H469 0.930 . S
C479 C472 1.409 1_655 S
C479 C478 1.362 . S
H480 C486 0.930 . S
H481 C489 0.930 . S
H482 C490 0.930 1_556 S
H483 C491 0.930 . S
H484 C494 0.930 . S
H485 C495 0.930 1_554 S
C486 H480 0.930 . S
C486 C487 1.355 . S
C486 C488 1.415 . S
C487 C486 1.355 . S
C487 C489 1.419 . S
C488 C486 1.415 . S
C488 C493 1.425 1_554 S
C488 C495 1.409 1_554 S
C489 H481 0.930 . S
C489 C487 1.419 . S
C489 C490 1.362 . S
C490 H482 0.930 1_554 S
C490 C489 1.362 . S
C490 C493 1.409 1_554 S
C491 H483 0.930 . S
C491 C492 1.355 . S
C491 C493 1.415 . S
C492 C491 1.355 . S
C492 C494 1.419 . S
C493 C488 1.425 1_556 S
C493 C490 1.409 1_556 S
C493 C491 1.415 . S
C494 H484 0.930 . S
C494 C492 1.419 . S
C494 C495 1.362 . S
C495 H485 0.930 1_556 S
C495 C488 1.409 1_556 S
C495 C494 1.362 . S
H496 C502 0.930 . S
H497 C505 0.930 . S
H498 C506 0.930 . S
H499 C507 0.930 . S
H500 C510 0.930 . S
H501 C511 0.930 . S
C502 H496 0.930 . S
C502 C503 1.355 . S
C502 C504 1.415 . S
C503 C502 1.355 . S
C503 C505 1.419 . S
C504 C502 1.415 . S
C504 C509 1.425 . S
C504 C511 1.409 . S
C505 H497 0.930 . S
C505 C503 1.419 . S
C505 C506 1.362 . S
C506 H498 0.930 . S
C506 C505 1.362 . S
C506 C509 1.409 . S
C507 H499 0.930 . S
C507 C508 1.355 . S
C507 C509 1.415 . S
C508 C507 1.355 . S
C508 C510 1.419 . S
C509 C504 1.425 . S
C509 C506 1.409 . S
C509 C507 1.415 . S
C510 H500 0.930 . S
C510 C508 1.419 . S
C510 C511 1.362 . S
C511 H501 0.930 . S
C511 C504 1.409 . S
C511 C510 1.362 . S
H512 C518 0.930 . S
H513 C521 0.930 . S
H514 C522 0.930 . S
H515 C523 0.930 . S
H516 C526 0.930 . S
H517 C527 0.930 . S
C518 H512 0.930 . S
C518 C519 1.355 . S
C518 C520 1.415 . S
C519 C518 1.355 . S
C519 C521 1.419 . S
C520 C518 1.415 . S
C520 C525 1.425 . S
C520 C527 1.409 . S
C521 H513 0.930 . S
C521 C519 1.419 . S
C521 C522 1.362 . S
C522 H514 0.930 . S
C522 C521 1.362 . S
C522 C525 1.409 . S
C523 H515 0.930 . S
C523 C524 1.355 . S
C523 C525 1.415 . S
C524 C523 1.355 . S
C524 C526 1.419 . S
C525 C520 1.425 . S
C525 C522 1.409 . S
C525 C523 1.415 . S
C526 H516 0.930 . S
C526 C524 1.419 . S
C526 C527 1.362 . S
C527 H517 0.930 . S
C527 C520 1.409 . S
C527 C526 1.362 . S
H528 C534 0.930 . S
H529 C537 0.930 . S
H530 C538 0.930 . S
H531 C539 0.930 . S
H532 C542 0.930 . S
H533 C543 0.930 . S
C534 H528 0.930 . S
C534 C535 1.355 . S
C534 C536 1.415 . S
C535 C534 1.355 . S
C535 C537 1.419 . S
C536 C534 1.415 . S
C536 C541 1.425 . S
C536 C543 1.409 . S
C537 H529 0.930 . S
C537 C535 1.419 . S
C537 C538 1.362 . S
C538 H530 0.930 . S
C538 C537 1.362 . S
C538 C541 1.409 . S
C539 H531 0.930 . S
C539 C540 1.355 . S
C539 C541 1.415 . S
C540 C539 1.355 . S
C540 C542 1.419 . S
C541 C536 1.425 . S
C541 C538 1.409 . S
C541 C539 1.415 . S
C542 H532 0.930 . S
C542 C540 1.419 . S
C542 C543 1.362 . S
C543 H533 0.930 . S
C543 C536 1.409 . S
C543 C542 1.362 . S
H544 C550 0.930 . S
H545 C553 0.930 . S
H546 C554 0.930 . S
H547 C555 0.930 . S
H548 C558 0.930 . S
H549 C559 0.930 . S
C550 H544 0.930 . S
C550 C551 1.355 . S
C550 C552 1.415 . S
C551 C550 1.355 . S
C551 C553 1.419 . S
C552 C550 1.415 . S
C552 C557 1.425 1_556 S
C552 C559 1.409 . S
C553 H545 0.930 . S
C553 C551 1.419 . S
C553 C554 1.362 1_556 S
C554 H546 0.930 . S
C554 C553 1.362 1_554 S
C554 C557 1.409 . S
C555 H547 0.930 . S
C555 C556 1.355 . S
C555 C557 1.415 . S
C556 C555 1.355 . S
C556 C558 1.419 . S
C557 C552 1.425 1_554 S
C557 C554 1.409 . S
C557 C555 1.415 . S
C558 H548 0.930 . S
C558 C556 1.419 . S
C558 C559 1.362 1_554 S
C559 H549 0.930 . S
C559 C552 1.409 . S
C559 C558 1.362 1_556 S
H560 C566 0.930 . S
H561 C569 0.930 . S
H562 C570 0.930 . S
H563 C571 0.930 . S
H564 C574 0.930 . S
H565 C575 0.930 . S
C566 H560 0.930 . S
C566 C567 1.355 . S
C566 C568 1.415 . S
C567 C566 1.355 . S
C567 C569 1.419 . S
C568 C566 1.415 . S
C568 C573 1.425 . S
C568 C575 1.409 . S
C569 H561 0.930 . S
C569 C567 1.419 . S
C569 C570 1.362 . S
C570 H562 0.930 . S
C570 C569 1.362 . S
C570 C573 1.409 . S
C571 H563 0.930 . S
C571 C572 1.355 . S
C571 C573 1.415 . S
C572 C571 1.355 . S
C572 C574 1.419 . S
C573 C568 1.425 . S
C573 C570 1.409 . S
C573 C571 1.415 . S
C574 H564 0.930 . S
C574 C572 1.419 . S
C574 C575 1.362 . S
C575 H565 0.930 . S
C575 C568 1.409 . S
C575 C574 1.362 . S
H576 C582 0.930 . S
H577 C585 0.930 . S
H578 C586 0.930 . S
H579 C587 0.930 . S
H580 C590 0.930 . S
H581 C591 0.930 . S
C582 H576 0.930 . S
C582 C583 1.355 . S
C582 C584 1.415 . S
C583 C582 1.355 . S
C583 C585 1.419 . S
C584 C582 1.415 . S
C584 C589 1.425 . S
C584 C591 1.409 . S
C585 H577 0.930 . S
C585 C583 1.419 . S
C585 C586 1.362 . S
C586 H578 0.930 . S
C586 C585 1.362 . S
C586 C589 1.409 . S
C587 H579 0.930 . S
C587 C588 1.355 . S
C587 C589 1.415 . S
C588 C587 1.355 . S
C588 C590 1.419 . S
C589 C584 1.425 . S
C589 C586 1.409 . S
C589 C587 1.415 . S
C590 H580 0.930 . S
C590 C588 1.419 . S
C590 C591 1.362 . S
C591 H581 0.930 . S
C591 C584 1.409 . S
C591 C590 1.362 . S
H592 C598 0.930 . S
H593 C601 0.930 . S
H594 C602 0.930 . S
H595 C603 0.930 . S
H596 C606 0.930 . S
H597 C607 0.930 . S
C598 H592 0.930 . S
C598 C599 1.355 . S
C598 C600 1.415 . S
C599 C598 1.355 . S
C599 C601 1.419 . S
C600 C598 1.415 . S
C600 C605 1.425 . S
C600 C607 1.409 . S
C601 H593 0.930 . S
C601 C599 1.419 . S
C601 C602 1.362 . S
C602 H594 0.930 . S
C602 C601 1.362 . S
C602 C605 1.409 . S
C603 H595 0.930 . S
C603 C604 1.355 . S
C603 C605 1.415 . S
C604 C603 1.355 . S
C604 C606 1.419 . S
C605 C600 1.425 . S
C605 C602 1.409 . S
C605 C603 1.415 . S
C606 H596 0.930 . S
C606 C604 1.419 . S
C606 C607 1.362 . S
C607 H597 0.930 . S
C607 C600 1.409 . S
C607 C606 1.362 . S
H608 C614 0.930 . S
H609 C617 0.930 . S
H610 C618 0.930 1_565 S
H611 C619 0.930 . S
H612 C622 0.930 . S
H613 C623 0.930 1_545 S
C614 H608 0.930 . S
C614 C615 1.355 . S
C614 C616 1.415 . S
C615 C614 1.355 . S
C615 C617 1.419 . S
C616 C614 1.415 . S
C616 C621 1.425 1_545 S
C616 C623 1.409 1_545 S
C617 H609 0.930 . S
C617 C615 1.419 . S
C617 C618 1.362 . S
C618 H610 0.930 1_545 S
C618 C617 1.362 . S
C618 C621 1.409 1_545 S
C619 H611 0.930 . S
C619 C620 1.355 . S
C619 C621 1.415 . S
C620 C619 1.355 . S
C620 C622 1.419 . S
C621 C616 1.425 1_565 S
C621 C618 1.409 1_565 S
C621 C619 1.415 . S
C622 H612 0.930 . S
C622 C620 1.419 . S
C622 C623 1.362 . S
C623 H613 0.930 1_565 S
C623 C616 1.409 1_565 S
C623 C622 1.362 . S
H624 C630 0.930 . S
H625 C633 0.930 . S
H626 C634 0.930 . S
H627 C635 0.930 . S
H628 C638 0.930 . S
H629 C639 0.930 . S
C630 H624 0.930 . S
C630 C631 1.355 . S
C630 C632 1.415 . S
C631 C630 1.355 . S
C631 C633 1.419 . S
C632 C630 1.415 . S
C632 C637 1.425 . S
C632 C639 1.409 . S
C633 H625 0.930 . S
C633 C631 1.419 . S
C633 C634 1.362 . S
C634 H626 0.930 . S
C634 C633 1.362 . S
C634 C637 1.409 . S
C635 H627 0.930 . S
C635 C636 1.355 . S
C635 C637 1.415 . S
C636 C635 1.355 . S
C636 C638 1.419 . S
C637 C632 1.425 . S
C637 C634 1.409 . S
C637 C635 1.415 . S
C638 H628 0.930 . S
C638 C636 1.419 . S
C638 C639 1.362 . S
C639 H629 0.930 . S
C639 C632 1.409 . S
C639 C638 1.362 . S
H640 C646 0.930 . S
H641 C649 0.930 1_554 S
H642 C650 0.930 . S
H643 C651 0.930 . S
H644 C654 0.930 . S
H645 C655 0.930 . S
C646 H640 0.930 . S
C646 C647 1.355 . S
C646 C648 1.415 1_545 S
C647 C646 1.355 . S
C647 C649 1.419 . S
C648 C646 1.415 1_565 S
C648 C653 1.425 1_566 S
C648 C655 1.409 . S
C649 H641 0.930 1_556 S
C649 C647 1.419 . S
C649 C650 1.362 1_556 S
C650 H642 0.930 . S
C650 C649 1.362 1_554 S
C650 C653 1.409 . S
C651 H643 0.930 . S
C651 C652 1.355 . S
C651 C653 1.415 1_565 S
C652 C651 1.355 . S
C652 C654 1.419 . S
C653 C648 1.425 1_544 S
C653 C650 1.409 . S
C653 C651 1.415 1_545 S
C654 H644 0.930 . S
C654 C652 1.419 . S
C654 C655 1.362 1_554 S
C655 H645 0.930 . S
C655 C648 1.409 . S
C655 C654 1.362 1_556 S
H656 C662 0.930 . S
H657 C665 0.930 . S
H658 C666 0.930 . S
H659 C667 0.930 . S
H660 C670 0.930 . S
H661 C671 0.930 . S
C662 H656 0.930 . S
C662 C663 1.355 . S
C662 C664 1.415 . S
C663 C662 1.355 . S
C663 C665 1.419 . S
C664 C662 1.415 . S
C664 C669 1.425 . S
C664 C671 1.409 . S
C665 H657 0.930 . S
C665 C663 1.419 . S
C665 C666 1.362 . S
C666 H658 0.930 . S
C666 C665 1.362 . S
C666 C669 1.409 . S
C667 H659 0.930 . S
C667 C668 1.355 . S
C667 C669 1.415 . S
C668 C667 1.355 . S
C668 C670 1.419 . S
C669 C664 1.425 . S
C669 C666 1.409 . S
C669 C667 1.415 . S
C670 H660 0.930 . S
C670 C668 1.419 . S
C670 C671 1.362 . S
C671 H661 0.930 . S
C671 C664 1.409 . S
C671 C670 1.362 . S
H672 C678 0.930 . S
H673 C681 0.930 . S
H674 C682 0.930 . S
H675 C683 0.930 . S
H676 C686 0.930 . S
H677 C687 0.930 . S
C678 H672 0.930 . S
C678 C679 1.355 . S
C678 C680 1.441 . S
C679 C678 1.355 . S
C679 C681 1.419 . S
C680 C678 1.441 . S
C680 C685 1.436 . S
C680 C687 1.372 1_545 S
C681 H673 0.930 . S
C681 C679 1.419 . S
C681 C682 1.362 . S
C682 H674 0.930 . S
C682 C681 1.362 . S
C682 C685 1.409 . S
C683 H675 0.930 . S
C683 C684 1.355 . S
C683 C685 1.415 1_565 S
C684 C683 1.355 . S
C684 C686 1.419 . S
C685 C680 1.436 . S
C685 C682 1.409 . S
C685 C683 1.415 1_545 S
C686 H676 0.930 . S
C686 C684 1.419 . S
C686 C687 1.362 . S
C687 H677 0.930 . S
C687 C680 1.372 1_565 S
C687 C686 1.362 . S
H688 C694 0.930 . S
H689 C697 0.930 . S
H690 C698 0.930 . S
H691 C699 0.930 . S
H692 C702 0.930 . S
H693 C703 0.930 . S
C694 H688 0.930 . S
C694 C695 1.355 . S
C694 C696 1.415 . S
C695 C694 1.355 . S
C695 C697 1.419 . S
C696 C694 1.415 . S
C696 C701 1.425 . S
C696 C703 1.409 . S
C697 H689 0.930 . S
C697 C695 1.419 . S
C697 C698 1.362 . S
C698 H690 0.930 . S
C698 C697 1.362 . S
C698 C701 1.409 . S
C699 H691 0.930 . S
C699 C700 1.355 . S
C699 C701 1.415 . S
C700 C699 1.355 . S
C700 C702 1.419 . S
C701 C696 1.425 . S
C701 C698 1.409 . S
C701 C699 1.415 . S
C702 H692 0.930 . S
C702 C700 1.419 . S
C702 C703 1.362 . S
C703 H693 0.930 . S
C703 C696 1.409 . S
C703 C702 1.362 . S
H704 C710 0.930 . S
H705 C713 0.930 . S
H706 C714 0.930 . S
H707 C715 0.930 . S
H708 C718 0.930 . S
H709 C719 0.930 . S
C710 H704 0.930 . S
C710 C711 1.355 . S
C710 C712 1.415 1_565 S
C711 C710 1.355 . S
C711 C713 1.419 . S
C712 C710 1.415 1_545 S
C712 C717 1.425 1_554 S
C712 C719 1.409 . S
C713 H705 0.930 . S
C713 C711 1.419 . S
C713 C714 1.362 1_554 S
C714 H706 0.930 . S
C714 C713 1.362 1_556 S
C714 C717 1.409 1_565 S
C715 H707 0.930 . S
C715 C716 1.355 . S
C715 C717 1.415 . S
C716 C715 1.355 . S
C716 C718 1.419 . S
C717 C712 1.425 1_556 S
C717 C714 1.409 1_545 S
C717 C715 1.415 . S
C718 H708 0.930 . S
C718 C716 1.419 . S
C718 C719 1.362 1_556 S
C719 H709 0.930 . S
C719 C712 1.409 . S
C719 C718 1.362 1_554 S
H720 C726 0.930 . S
H721 C729 0.930 . S
H722 C730 0.930 . S
H723 C731 0.930 . S
H724 C734 0.930 . S
H725 C735 0.930 . S
C726 H720 0.930 . S
C726 C727 1.355 . S
C726 C728 1.415 . S
C727 C726 1.355 . S
C727 C729 1.419 . S
C728 C726 1.415 . S
C728 C733 1.425 . S
C728 C735 1.409 . S
C729 H721 0.930 . S
C729 C727 1.419 . S
C729 C730 1.362 . S
C730 H722 0.930 . S
C730 C729 1.362 . S
C730 C733 1.409 . S
C731 H723 0.930 . S
C731 C732 1.355 . S
C731 C733 1.415 . S
C732 C731 1.355 . S
C732 C734 1.419 . S
C733 C728 1.425 . S
C733 C730 1.409 . S
C733 C731 1.415 . S
C734 H724 0.930 . S
C734 C732 1.419 . S
C734 C735 1.362 . S
C735 H725 0.930 . S
C735 C728 1.409 . S
C735 C734 1.362 . S
C231 C163 1.427 . S
C236 C7 1.404 . S
C247 C217 1.393 . S
C252 C23 1.338 . S
C263 C35 1.406 . S
C268 C133 1.406 . S
C279 C191 1.290 . S
C284 C51 1.291 . S
C295 C63 1.414 . S
C300 C189 1.383 . S
C311 C79 1.361 . S
C316 C161 1.418 . S
C327 C91 1.432 . S
C332 C219 1.441 . S
C343 C107 1.288 . S
C348 C135 1.271 . S
C359 C49 1.416 . S
C364 C119 1.463 . S
C375 C149 1.396 . S
C380 C21 1.372 . S
C391 C175 1.457 . S
C396 C77 1.465 . S
C407 C205 1.333 . S
C412 C105 1.360 . S
C423 C65 1.372 . S
C428 C121 1.316 . S
C439 C147 1.327 . S
C444 C93 1.302 . S
C455 C203 1.368 . S
C460 C37 1.310 . S
C471 C9 1.365 . S
C476 C177 1.306 . S
C487 C3 1.338 . S
C492 C59 1.323 . S
C503 C22 1.311 . S
C508 C78 1.318 . S
C519 C31 1.433 . S
C524 C87 1.445 . S
C535 C106 1.281 . S
C540 C50 1.276 . S
C551 C115 1.396 . S
C556 C171 1.390 . S
C567 C190 1.246 . S
C572 C134 1.243 . S
C583 C148 1.288 . S
C588 C204 1.280 . S
C599 C213 1.354 . S
C604 C157 1.345 . S
C615 C101 1.378 . S
C620 C17 1.368 . S
C631 C36 1.345 . S
C636 C64 1.357 . S
C647 C45 1.406 . S
C652 C73 1.403 . S
C663 C8 1.266 . S
C668 C92 1.262 . S
C679 C129 1.322 . S
C684 C218 1.328 . S
C695 C176 1.320 . S
C700 C143 1.287 . S
C711 C162 1.339 . S
C716 C185 1.347 . S
C727 C199 1.286 . S
C732 C120 1.299 . S
