# Generated by pormake.
# Topology wmt, (6)-cn, num edge types: 1
# Building blocks:
#     Node 0, Type 0, BuildingBlock: FUNLAD_clean_sbu_0, # of connection points: 6
#     Node 1, Type 0, BuildingBlock: FUNLAD_clean_sbu_0, # of connection points: 6
#     Node 2, Type 0, BuildingBlock: FUNLAD_clean_sbu_0, # of connection points: 6
#     Node 3, Type 0, BuildingBlock: FUNLAD_clean_sbu_0, # of connection points: 6
#     Node 4, Type 0, BuildingBlock: FUNLAD_clean_sbu_0, # of connection points: 6
#     Node 5, Type 0, BuildingBlock: FUNLAD_clean_sbu_0, # of connection points: 6
#     Node 6, Type 0, BuildingBlock: FUNLAD_clean_sbu_0, # of connection points: 6
#     Node 7, Type 0, BuildingBlock: FUNLAD_clean_sbu_0, # of connection points: 6
#     Node 8, Type 0, BuildingBlock: FUNLAD_clean_sbu_0, # of connection points: 6
#     Node 9, Type 0, BuildingBlock: FUNLAD_clean_sbu_0, # of connection points: 6
#     Node 10, Type 0, BuildingBlock: FUNLAD_clean_sbu_0, # of connection points: 6
#     Node 11, Type 0, BuildingBlock: FUNLAD_clean_sbu_0, # of connection points: 6
#     Node 12, Type 0, BuildingBlock: FUNLAD_clean_sbu_0, # of connection points: 6
#     Node 13, Type 0, BuildingBlock: FUNLAD_clean_sbu_0, # of connection points: 6
#     Node 14, Type 0, BuildingBlock: FUNLAD_clean_sbu_0, # of connection points: 6
#     Node 15, Type 0, BuildingBlock: FUNLAD_clean_sbu_0, # of connection points: 6
#     Node 16, Type 0, BuildingBlock: FUNLAD_clean_sbu_0, # of connection points: 6
#     Node 17, Type 0, BuildingBlock: FUNLAD_clean_sbu_0, # of connection points: 6
#     Node 18, Type 0, BuildingBlock: FUNLAD_clean_sbu_0, # of connection points: 6
#     Node 19, Type 0, BuildingBlock: FUNLAD_clean_sbu_0, # of connection points: 6
#     Node 20, Type 0, BuildingBlock: FUNLAD_clean_sbu_0, # of connection points: 6
#     Node 21, Type 0, BuildingBlock: FUNLAD_clean_sbu_0, # of connection points: 6
#     Node 22, Type 0, BuildingBlock: FUNLAD_clean_sbu_0, # of connection points: 6
#     Node 23, Type 0, BuildingBlock: FUNLAD_clean_sbu_0, # of connection points: 6
#     Node 24, Type 0, BuildingBlock: FUNLAD_clean_sbu_0, # of connection points: 6
#     Node 25, Type 0, BuildingBlock: FUNLAD_clean_sbu_0, # of connection points: 6
#     Node 26, Type 0, BuildingBlock: FUNLAD_clean_sbu_0, # of connection points: 6
#     Node 27, Type 0, BuildingBlock: FUNLAD_clean_sbu_0, # of connection points: 6
#     Node 28, Type 0, BuildingBlock: FUNLAD_clean_sbu_0, # of connection points: 6
#     Node 29, Type 0, BuildingBlock: FUNLAD_clean_sbu_0, # of connection points: 6
#     Node 30, Type 0, BuildingBlock: FUNLAD_clean_sbu_0, # of connection points: 6
#     Node 31, Type 0, BuildingBlock: FUNLAD_clean_sbu_0, # of connection points: 6
#     Node 32, Type 0, BuildingBlock: FUNLAD_clean_sbu_0, # of connection points: 6
#     Node 33, Type 0, BuildingBlock: FUNLAD_clean_sbu_0, # of connection points: 6
#     Node 34, Type 0, BuildingBlock: FUNLAD_clean_sbu_0, # of connection points: 6
#     Node 35, Type 0, BuildingBlock: FUNLAD_clean_sbu_0, # of connection points: 6
#     Edge 36, Type (0, 0), BuildingBlock: AJUNOK_clean_linker_0, # of connection points: 2
#     Edge 37, Type (0, 0), BuildingBlock: AJUNOK_clean_linker_0, # of connection points: 2
#     Edge 38, Type (0, 0), BuildingBlock: AJUNOK_clean_linker_0, # of connection points: 2
#     Edge 39, Type (0, 0), BuildingBlock: AJUNOK_clean_linker_0, # of connection points: 2
#     Edge 40, Type (0, 0), BuildingBlock: AJUNOK_clean_linker_0, # of connection points: 2
#     Edge 41, Type (0, 0), BuildingBlock: AJUNOK_clean_linker_0, # of connection points: 2
#     Edge 42, Type (0, 0), BuildingBlock: AJUNOK_clean_linker_0, # of connection points: 2
#     Edge 43, Type (0, 0), BuildingBlock: AJUNOK_clean_linker_0, # of connection points: 2
#     Edge 44, Type (0, 0), BuildingBlock: AJUNOK_clean_linker_0, # of connection points: 2
#     Edge 45, Type (0, 0), BuildingBlock: AJUNOK_clean_linker_0, # of connection points: 2
#     Edge 46, Type (0, 0), BuildingBlock: AJUNOK_clean_linker_0, # of connection points: 2
#     Edge 47, Type (0, 0), BuildingBlock: AJUNOK_clean_linker_0, # of connection points: 2
#     Edge 48, Type (0, 0), BuildingBlock: AJUNOK_clean_linker_0, # of connection points: 2
#     Edge 49, Type (0, 0), BuildingBlock: AJUNOK_clean_linker_0, # of connection points: 2
#     Edge 50, Type (0, 0), BuildingBlock: AJUNOK_clean_linker_0, # of connection points: 2
#     Edge 51, Type (0, 0), BuildingBlock: AJUNOK_clean_linker_0, # of connection points: 2
#     Edge 52, Type (0, 0), BuildingBlock: AJUNOK_clean_linker_0, # of connection points: 2
#     Edge 53, Type (0, 0), BuildingBlock: AJUNOK_clean_linker_0, # of connection points: 2
#     Edge 54, Type (0, 0), BuildingBlock: AJUNOK_clean_linker_0, # of connection points: 2
#     Edge 55, Type (0, 0), BuildingBlock: AJUNOK_clean_linker_0, # of connection points: 2
#     Edge 56, Type (0, 0), BuildingBlock: AJUNOK_clean_linker_0, # of connection points: 2
#     Edge 57, Type (0, 0), BuildingBlock: AJUNOK_clean_linker_0, # of connection points: 2
#     Edge 58, Type (0, 0), BuildingBlock: AJUNOK_clean_linker_0, # of connection points: 2
#     Edge 59, Type (0, 0), BuildingBlock: AJUNOK_clean_linker_0, # of connection points: 2
#     Edge 60, Type (0, 0), BuildingBlock: AJUNOK_clean_linker_0, # of connection points: 2
#     Edge 61, Type (0, 0), BuildingBlock: AJUNOK_clean_linker_0, # of connection points: 2
#     Edge 62, Type (0, 0), BuildingBlock: AJUNOK_clean_linker_0, # of connection points: 2
#     Edge 63, Type (0, 0), BuildingBlock: AJUNOK_clean_linker_0, # of connection points: 2
#     Edge 64, Type (0, 0), BuildingBlock: AJUNOK_clean_linker_0, # of connection points: 2
#     Edge 65, Type (0, 0), BuildingBlock: AJUNOK_clean_linker_0, # of connection points: 2
#     Edge 66, Type (0, 0), BuildingBlock: AJUNOK_clean_linker_0, # of connection points: 2
#     Edge 67, Type (0, 0), BuildingBlock: AJUNOK_clean_linker_0, # of connection points: 2
#     Edge 68, Type (0, 0), BuildingBlock: AJUNOK_clean_linker_0, # of connection points: 2
#     Edge 69, Type (0, 0), BuildingBlock: AJUNOK_clean_linker_0, # of connection points: 2
#     Edge 70, Type (0, 0), BuildingBlock: AJUNOK_clean_linker_0, # of connection points: 2
#     Edge 71, Type (0, 0), BuildingBlock: AJUNOK_clean_linker_0, # of connection points: 2
#     Edge 72, Type (0, 0), BuildingBlock: AJUNOK_clean_linker_0, # of connection points: 2
#     Edge 73, Type (0, 0), BuildingBlock: AJUNOK_clean_linker_0, # of connection points: 2
#     Edge 74, Type (0, 0), BuildingBlock: AJUNOK_clean_linker_0, # of connection points: 2
#     Edge 75, Type (0, 0), BuildingBlock: AJUNOK_clean_linker_0, # of connection points: 2
#     Edge 76, Type (0, 0), BuildingBlock: AJUNOK_clean_linker_0, # of connection points: 2
#     Edge 77, Type (0, 0), BuildingBlock: AJUNOK_clean_linker_0, # of connection points: 2
#     Edge 78, Type (0, 0), BuildingBlock: AJUNOK_clean_linker_0, # of connection points: 2
#     Edge 79, Type (0, 0), BuildingBlock: AJUNOK_clean_linker_0, # of connection points: 2
#     Edge 80, Type (0, 0), BuildingBlock: AJUNOK_clean_linker_0, # of connection points: 2
#     Edge 81, Type (0, 0), BuildingBlock: AJUNOK_clean_linker_0, # of connection points: 2
#     Edge 82, Type (0, 0), BuildingBlock: AJUNOK_clean_linker_0, # of connection points: 2
#     Edge 83, Type (0, 0), BuildingBlock: AJUNOK_clean_linker_0, # of connection points: 2
#     Edge 84, Type (0, 0), BuildingBlock: AJUNOK_clean_linker_0, # of connection points: 2
#     Edge 85, Type (0, 0), BuildingBlock: AJUNOK_clean_linker_0, # of connection points: 2
#     Edge 86, Type (0, 0), BuildingBlock: AJUNOK_clean_linker_0, # of connection points: 2
#     Edge 87, Type (0, 0), BuildingBlock: AJUNOK_clean_linker_0, # of connection points: 2
#     Edge 88, Type (0, 0), BuildingBlock: AJUNOK_clean_linker_0, # of connection points: 2
#     Edge 89, Type (0, 0), BuildingBlock: AJUNOK_clean_linker_0, # of connection points: 2
#     Edge 90, Type (0, 0), BuildingBlock: AJUNOK_clean_linker_0, # of connection points: 2
#     Edge 91, Type (0, 0), BuildingBlock: AJUNOK_clean_linker_0, # of connection points: 2
#     Edge 92, Type (0, 0), BuildingBlock: AJUNOK_clean_linker_0, # of connection points: 2
#     Edge 93, Type (0, 0), BuildingBlock: AJUNOK_clean_linker_0, # of connection points: 2
#     Edge 94, Type (0, 0), BuildingBlock: AJUNOK_clean_linker_0, # of connection points: 2
#     Edge 95, Type (0, 0), BuildingBlock: AJUNOK_clean_linker_0, # of connection points: 2
#     Edge 96, Type (0, 0), BuildingBlock: AJUNOK_clean_linker_0, # of connection points: 2
#     Edge 97, Type (0, 0), BuildingBlock: AJUNOK_clean_linker_0, # of connection points: 2
#     Edge 98, Type (0, 0), BuildingBlock: AJUNOK_clean_linker_0, # of connection points: 2
#     Edge 99, Type (0, 0), BuildingBlock: AJUNOK_clean_linker_0, # of connection points: 2
#     Edge 100, Type (0, 0), BuildingBlock: AJUNOK_clean_linker_0, # of connection points: 2
#     Edge 101, Type (0, 0), BuildingBlock: AJUNOK_clean_linker_0, # of connection points: 2
#     Edge 102, Type (0, 0), BuildingBlock: AJUNOK_clean_linker_0, # of connection points: 2
#     Edge 103, Type (0, 0), BuildingBlock: AJUNOK_clean_linker_0, # of connection points: 2
#     Edge 104, Type (0, 0), BuildingBlock: AJUNOK_clean_linker_0, # of connection points: 2
#     Edge 105, Type (0, 0), BuildingBlock: AJUNOK_clean_linker_0, # of connection points: 2
#     Edge 106, Type (0, 0), BuildingBlock: AJUNOK_clean_linker_0, # of connection points: 2
#     Edge 107, Type (0, 0), BuildingBlock: AJUNOK_clean_linker_0, # of connection points: 2
#     Edge 108, Type (0, 0), BuildingBlock: AJUNOK_clean_linker_0, # of connection points: 2
#     Edge 109, Type (0, 0), BuildingBlock: AJUNOK_clean_linker_0, # of connection points: 2
#     Edge 110, Type (0, 0), BuildingBlock: AJUNOK_clean_linker_0, # of connection points: 2
#     Edge 111, Type (0, 0), BuildingBlock: AJUNOK_clean_linker_0, # of connection points: 2
#     Edge 112, Type (0, 0), BuildingBlock: AJUNOK_clean_linker_0, # of connection points: 2
#     Edge 113, Type (0, 0), BuildingBlock: AJUNOK_clean_linker_0, # of connection points: 2
#     Edge 114, Type (0, 0), BuildingBlock: AJUNOK_clean_linker_0, # of connection points: 2
#     Edge 115, Type (0, 0), BuildingBlock: AJUNOK_clean_linker_0, # of connection points: 2
#     Edge 116, Type (0, 0), BuildingBlock: AJUNOK_clean_linker_0, # of connection points: 2
#     Edge 117, Type (0, 0), BuildingBlock: AJUNOK_clean_linker_0, # of connection points: 2
#     Edge 118, Type (0, 0), BuildingBlock: AJUNOK_clean_linker_0, # of connection points: 2
#     Edge 119, Type (0, 0), BuildingBlock: AJUNOK_clean_linker_0, # of connection points: 2
#     Edge 120, Type (0, 0), BuildingBlock: AJUNOK_clean_linker_0, # of connection points: 2
#     Edge 121, Type (0, 0), BuildingBlock: AJUNOK_clean_linker_0, # of connection points: 2
#     Edge 122, Type (0, 0), BuildingBlock: AJUNOK_clean_linker_0, # of connection points: 2
#     Edge 123, Type (0, 0), BuildingBlock: AJUNOK_clean_linker_0, # of connection points: 2
#     Edge 124, Type (0, 0), BuildingBlock: AJUNOK_clean_linker_0, # of connection points: 2
#     Edge 125, Type (0, 0), BuildingBlock: AJUNOK_clean_linker_0, # of connection points: 2
#     Edge 126, Type (0, 0), BuildingBlock: AJUNOK_clean_linker_0, # of connection points: 2
#     Edge 127, Type (0, 0), BuildingBlock: AJUNOK_clean_linker_0, # of connection points: 2
#     Edge 128, Type (0, 0), BuildingBlock: AJUNOK_clean_linker_0, # of connection points: 2
#     Edge 129, Type (0, 0), BuildingBlock: AJUNOK_clean_linker_0, # of connection points: 2
#     Edge 130, Type (0, 0), BuildingBlock: AJUNOK_clean_linker_0, # of connection points: 2
#     Edge 131, Type (0, 0), BuildingBlock: AJUNOK_clean_linker_0, # of connection points: 2
#     Edge 132, Type (0, 0), BuildingBlock: AJUNOK_clean_linker_0, # of connection points: 2
#     Edge 133, Type (0, 0), BuildingBlock: AJUNOK_clean_linker_0, # of connection points: 2
#     Edge 134, Type (0, 0), BuildingBlock: AJUNOK_clean_linker_0, # of connection points: 2
#     Edge 135, Type (0, 0), BuildingBlock: AJUNOK_clean_linker_0, # of connection points: 2
#     Edge 136, Type (0, 0), BuildingBlock: AJUNOK_clean_linker_0, # of connection points: 2
#     Edge 137, Type (0, 0), BuildingBlock: AJUNOK_clean_linker_0, # of connection points: 2
#     Edge 138, Type (0, 0), BuildingBlock: AJUNOK_clean_linker_0, # of connection points: 2
#     Edge 139, Type (0, 0), BuildingBlock: AJUNOK_clean_linker_0, # of connection points: 2
#     Edge 140, Type (0, 0), BuildingBlock: AJUNOK_clean_linker_0, # of connection points: 2
#     Edge 141, Type (0, 0), BuildingBlock: AJUNOK_clean_linker_0, # of connection points: 2
#     Edge 142, Type (0, 0), BuildingBlock: AJUNOK_clean_linker_0, # of connection points: 2
#     Edge 143, Type (0, 0), BuildingBlock: AJUNOK_clean_linker_0, # of connection points: 2
# Relax obj value: 1.478
# Max RMSD: 0.257
# Mean RMSD: 0.257
data_MOF--net-wmt--node1-FUNLAD_clean_sbu_0--edge1-AJUNOK_clean_linker_0
_symmetry_space_group_name_H-M    P1
_symmetry_Int_Tables_number       1
_symmetry_cell_setting            triclinic
loop_
_symmetry_equiv_pos_as_xyz
'x, y, z'
_cell_length_a     97.707975
_cell_length_b     97.379835
_cell_length_c     15.588725
_cell_angle_alpha  90.039279
_cell_angle_beta   89.887383
_cell_angle_gamma 119.97172
loop_
_atom_site_label
_atom_site_type_symbol
_atom_site_fract_x
_atom_site_fract_y
_atom_site_fract_z
_atom_type_partial_charge
C0 C 0.04663 0.47613 0.88479 0.0
N1 N 0.08593 0.47978 0.02723 0.0
C2 C 0.07874 0.4636 0.03293 0.0
C3 C 0.08707 0.4553 0.01762 0.0
C4 C 0.10329 0.46337 0.99536 0.0
C5 C 0.11055 0.48012 0.99258 0.0
C6 C 0.10173 0.488 1.00769 0.0
Zn7 Zn 0.0702 0.49046 0.03251 0.0
C8 C 0.08166 0.52133 0.9173 0.0
N9 N 0.04154 0.50651 1.00724 0.0
C10 C 0.02475 0.49218 0.96521 0.0
C11 C 0.0456 0.52256 0.06416 0.0
C12 C 0.03049 0.52712 0.09339 0.0
C13 C 1.00764 0.51152 0.04603 0.0
C14 C 1.00645 0.49195 0.97751 0.0
Zn15 Zn 0.05586 0.49974 0.02355 0.0
O16 O 0.05318 0.47106 0.93718 0.0
C17 C 0.03966 0.47154 0.14425 0.0
O18 O 0.04959 0.49013 0.89657 0.0
H19 H 0.05751 0.53053 0.08555 0.0
H20 H 0.06624 0.45687 0.04727 0.0
H21 H 0.02387 0.48171 0.93728 0.0
O22 O 0.05404 0.47422 0.14649 0.0
O23 O 0.03669 0.47851 0.08469 0.0
H24 H 0.10758 0.50076 1.00118 0.0
O25 O 0.06209 0.51058 0.14695 0.0
O26 O 0.08459 0.5112 0.13296 0.0
O27 O 0.07197 0.52099 0.97107 0.0
O28 O 0.08365 0.50911 0.91704 0.0
C29 C 0.07629 0.51649 0.17074 0.0
H30 H 0.08069 0.44252 0.02324 0.0
H31 H 0.12293 0.48716 0.97586 0.0
H32 H 0.03351 0.53796 0.12775 0.0
H33 H 0.99592 0.483 0.94515 0.0
C34 C 0.54996 0.57039 0.88486 0.0
N35 N 0.54789 0.60724 0.03539 0.0
C36 C 0.56401 0.61622 0.02782 0.0
C37 C 0.57186 0.63295 0.01387 0.0
C38 C 0.56339 0.64122 1.00702 0.0
C39 C 0.54678 0.63163 0.01657 0.0
C40 C 0.53938 0.61492 0.03031 0.0
Zn41 Zn 0.53558 0.5806 0.026 0.0
C42 C 0.50643 0.56868 0.91151 0.0
N43 N 0.50851 0.5311 0.97159 0.0
C44 C 0.50082 0.52786 0.8939 0.0
C45 C 0.50961 0.5195 0.01296 0.0
C46 C 0.5064 0.50586 0.96777 0.0
C47 C 0.50526 0.50627 0.87825 0.0
C48 C 0.49804 0.51447 0.84789 0.0
Zn49 Zn 0.52172 0.55408 0.01482 0.0
O50 O 0.55389 0.58323 0.92577 0.0
C51 C 0.54857 0.56189 0.1402 0.0
O52 O 0.537 0.5583 0.90604 0.0
H53 H 0.51468 0.52165 0.07632 0.0
H54 H 0.57095 0.61037 0.0291 0.0
H55 H 0.49898 0.53637 0.85958 0.0
O56 O 0.55067 0.57607 0.1301 0.0
O57 O 0.53784 0.55081 0.09461 0.0
H58 H 0.52662 0.60803 0.03293 0.0
O59 O 0.5071 0.54896 0.11522 0.0
O60 O 0.51521 0.57439 0.1289 0.0
O61 O 0.50558 0.55698 0.94889 0.0
O62 O 0.51927 0.58193 0.92092 0.0
C63 C 0.50536 0.55972 0.1496 0.0
H64 H 0.58459 0.63934 1.00754 0.0
H65 H 0.5393 0.63681 0.00974 0.0
H66 H 0.50925 0.49769 0.99705 0.0
H67 H 0.4945 0.51333 0.78165 0.0
C68 C 0.45265 0.97966 0.90011 0.0
N69 N 0.41504 0.93658 0.01948 0.0
C70 C 0.40677 0.94439 0.00979 0.0
C71 C 0.39022 0.93611 0.99681 0.0
C72 C 0.38161 0.9194 0.99415 0.0
C73 C 0.39041 0.91161 1.006 0.0
C74 C 0.40702 0.92037 0.01806 0.0
Zn75 Zn 0.44078 0.95069 0.02024 0.0
C76 C 0.45661 0.93817 0.88084 0.0
N77 N 0.4881 0.97265 0.98902 0.0
C78 C 0.49422 0.98297 0.89829 0.0
C79 C 0.49586 0.97598 0.08601 0.0
C80 C 0.51379 0.99366 0.1123 0.0
C81 C 0.52519 1.00968 0.00986 0.0
C82 C 0.51208 1.00195 0.8935 0.0
Zn83 Zn 0.46549 0.96263 1.00268 0.0
O84 O 0.43957 0.96669 0.91278 0.0
C85 C 0.45543 0.97886 0.14572 0.0
O86 O 0.46492 0.98049 0.93189 0.0
H87 H 0.48989 0.9677 0.13611 0.0
H88 H 0.41305 0.95722 0.00985 0.0
H89 H 0.48665 0.97929 0.84284 0.0
O90 O 0.44148 0.96924 0.11701 0.0
O91 O 0.46664 0.97703 0.11562 0.0
H92 H 0.41354 0.91413 0.02386 0.0
O93 O 0.46732 0.94512 0.07701 0.0
O94 O 0.44465 0.93785 0.13558 0.0
O95 O 0.4667 0.95217 0.89529 0.0
O96 O 0.44346 0.93269 0.92272 0.0
C97 C 0.45782 0.9378 0.13732 0.0
H98 H 0.38422 0.94283 0.98862 0.0
H99 H 0.3846 0.89881 1.00306 0.0
H100 H 0.51895 0.99517 0.1756 0.0
H101 H 0.51615 1.00818 0.83286 0.0
C102 C 0.47608 0.03241 0.66301 0.0
N103 N 0.48454 0.0764 0.54595 0.0
C104 C 0.46861 0.07029 0.53492 0.0
C105 C 0.46111 0.07944 0.55 0.0
C106 C 0.4697 0.09538 0.57818 0.0
C107 C 0.48622 0.10149 0.58693 0.0
C108 C 0.49329 0.09192 0.57128 0.0
Zn109 Zn 0.49408 0.05953 0.54 0.0
C110 C 0.52314 0.0684 0.67135 0.0
N111 N 0.51155 0.02604 0.5505 0.0
C112 C 0.50853 0.02016 0.63168 0.0
C113 C 0.50403 0.01584 0.48532 0.0
C114 C 0.48841 1.00386 0.49882 0.0
C115 C 0.48233 1.00024 0.5834 0.0
C116 C 0.49356 1.00732 0.65053 0.0
Zn117 Zn 0.50537 0.04365 0.54354 0.0
O118 O 0.47536 0.04454 0.63844 0.0
C119 C 0.479 0.03228 0.40353 0.0
O120 O 0.48716 0.03073 0.63347 0.0
H121 H 0.50825 0.01928 0.42026 0.0
H122 H 0.46139 0.05798 0.51678 0.0
H123 H 0.51606 0.02716 0.68394 0.0
O124 O 0.47645 0.0435 0.42798 0.0
O125 O 0.48994 0.03154 0.44148 0.0
H126 H 0.50584 0.09697 0.58159 0.0
O127 O 0.52326 0.05684 0.4576 0.0
O128 O 0.51437 0.0736 0.4416 0.0
O129 O 0.52129 0.05566 0.63966 0.0
O130 O 0.51335 0.0731 0.64847 0.0
C131 C 0.52484 0.06949 0.42465 0.0
H132 H 0.44843 0.07376 0.54204 0.0
H133 H 0.49383 0.1137 0.60577 0.0
H134 H 0.48154 0.99765 0.44333 0.0
H135 H 0.49075 1.00432 0.71724 0.0
C136 C 0.99015 0.45075 0.66445 0.0
N137 N 0.94589 0.41035 0.56358 0.0
C138 C 0.95364 0.40191 0.55791 0.0
C139 C 0.94584 0.38528 0.57286 0.0
C140 C 0.92958 0.37651 0.59411 0.0
C141 C 0.92188 0.38555 0.59977 0.0
C142 C 0.93015 0.40226 0.58446 0.0
Zn143 Zn 0.96017 0.43683 0.55346 0.0
C144 C 0.94779 0.45333 0.68039 0.0
N145 N 0.96991 0.47902 0.61428 0.0
C146 C 0.98138 0.48263 0.70144 0.0
C147 C 0.97167 0.49053 0.53104 0.0
C148 C 0.98841 0.50979 0.5162 0.0
C149 C 1.00535 0.51808 0.61557 0.0
C150 C 0.99979 0.50081 0.71402 0.0
Zn151 Zn 0.97441 0.46341 0.53545 0.0
O152 O 0.97893 0.43692 0.64313 0.0
C153 C 0.98791 0.4492 0.40898 0.0
O154 O 0.98967 0.46256 0.63405 0.0
H155 H 0.96248 0.48703 0.48521 0.0
H156 H 0.96615 0.40815 0.54375 0.0
H157 H 0.97877 0.47329 0.74698 0.0
O158 O 0.97557 0.43618 0.43401 0.0
O159 O 0.99 0.4618 0.44404 0.0
H160 H 0.92388 0.40875 0.59101 0.0
O161 O 0.96158 0.46468 0.43438 0.0
O162 O 0.94244 0.44059 0.45926 0.0
O163 O 0.95639 0.46358 0.62455 0.0
O164 O 0.94735 0.43993 0.67543 0.0
C165 C 0.94757 0.45414 0.42029 0.0
H166 H 0.95281 0.37947 0.57015 0.0
H167 H 0.90945 0.37977 0.61586 0.0
H168 H 0.98884 0.5172 0.46309 0.0
H169 H 1.00663 0.50235 0.77106 0.0
C170 C 0.5743 0.53915 0.65676 0.0
N171 N 0.61665 0.53799 0.56485 0.0
C172 C 0.62439 0.55414 0.573 0.0
C173 C 0.64083 0.56302 0.59071 0.0
C174 C 0.64999 0.55554 0.60023 0.0
C175 C 0.64164 0.53884 0.59142 0.0
C176 C 0.62515 0.53039 0.57396 0.0
Zn177 Zn 0.59069 0.52454 0.54925 0.0
C178 C 0.57352 0.49527 0.67702 0.0
N179 N 0.54209 0.49552 0.51444 0.0
C180 C 0.53537 0.49699 0.60916 0.0
C181 C 0.53574 0.49545 0.41463 0.0
C182 C 0.5188 0.49824 0.39509 0.0
C183 C 0.50739 0.50007 0.50895 0.0
C184 C 0.51888 0.49969 0.62127 0.0
Zn185 Zn 0.56481 0.50982 0.53322 0.0
O186 O 0.58816 0.54116 0.64356 0.0
C187 C 0.57628 0.53637 0.4008 0.0
O188 O 0.56273 0.52711 0.6209 0.0
H189 H 0.5426 0.49533 0.3604 0.0
H190 H 0.61776 0.56027 0.56756 0.0
H191 H 0.54195 0.49827 0.66653 0.0
O192 O 0.59001 0.54096 0.43487 0.0
O193 O 0.56498 0.52365 0.4298 0.0
H194 H 0.61913 0.5176 0.56894 0.0
O195 O 0.56557 0.49441 0.45603 0.0
O196 O 0.5912 0.50648 0.45012 0.0
O197 O 0.5629 0.49495 0.63108 0.0
O198 O 0.58772 0.50682 0.66365 0.0
C199 C 0.57766 0.49467 0.42849 0.0
H200 H 0.64618 0.5757 0.5992 0.0
H201 H 0.64781 0.53225 0.59768 0.0
H202 H 0.51449 0.49772 0.33048 0.0
H203 H 0.51403 0.4999 0.68257 0.0
C204 C 0.95537 0.49974 0.95 0.0
N205 N 0.97743 0.5029 0.18376 0.0
C206 C 0.97317 0.48662 0.12683 0.0
C207 C 0.98795 0.48155 0.0986 0.0
C208 C 1.01103 0.49686 0.14791 0.0
C209 C 1.01236 0.51621 0.21729 0.0
C210 C 0.99414 0.51619 0.23068 0.0
Zn211 Zn 0.97909 0.52051 0.08987 0.0
C212 C 0.9918 0.54752 0.95115 0.0
N213 N 0.94544 0.5398 0.06537 0.0
C214 C 0.92958 0.53165 0.08333 0.0
C215 C 0.95275 0.55601 0.06082 0.0
C216 C 0.9445 0.5644 0.07553 0.0
C217 C 0.92823 0.55643 0.09658 0.0
C218 C 0.92086 0.53962 0.09821 0.0
Zn219 Zn 0.96132 0.52931 0.06782 0.0
O220 O 0.96694 0.50229 0.99738 0.0
C221 C 0.94961 0.501 0.20515 0.0
O222 O 0.94979 0.50936 0.95848 0.0
H223 H 0.96534 0.56272 0.04928 0.0
H224 H 0.96181 0.4798 0.0975 0.0
H225 H 0.92362 0.51888 0.08903 0.0
O226 O 0.96385 0.50481 0.19051 0.0
O227 O 0.94438 0.50917 0.16635 0.0
H228 H 0.99381 0.52401 0.27891 0.0
O229 O 0.97528 0.5475 0.17758 0.0
O230 O 0.99226 0.53935 0.17133 0.0
O231 O 0.97907 0.5481 0.96466 0.0
O232 O 0.99296 0.53713 0.99351 0.0
C233 C 0.98851 0.5489 0.20171 0.0
H234 H 0.98466 0.47059 0.06466 0.0
H235 H 0.02287 0.52463 0.25179 0.0
H236 H 0.95111 0.57722 0.0735 0.0
H237 H 0.90834 0.53251 0.11134 0.0
C238 C 0.53417 0.45635 0.94782 0.0
N239 N 0.53726 0.49386 0.0771 0.0
C240 C 0.55203 0.49685 0.05401 0.0
C241 C 0.56176 0.51021 1.00545 0.0
C242 C 0.55553 0.51978 0.98292 0.0
C243 C 0.5448 0.52023 0.04223 0.0
C244 C 0.53476 0.50623 0.08607 0.0
Zn245 Zn 0.52006 0.4702 0.07735 0.0
C246 C 0.49254 0.45993 0.94414 0.0
N247 N 0.49132 0.41609 0.07885 0.0
C248 C 0.49876 0.4074 0.06899 0.0
C249 C 0.47557 0.40796 0.10002 0.0
C250 C 0.46705 0.3911 0.11128 0.0
C251 C 0.47439 0.38176 0.10086 0.0
C252 C 0.49068 0.39057 0.07952 0.0
Zn253 Zn 0.50579 0.44304 0.06878 0.0
O254 O 0.53408 0.46775 0.98491 0.0
C255 C 0.535 0.45768 0.19318 0.0
O256 O 0.52239 0.44243 0.963 0.0
H257 H 0.46943 0.41451 0.1093 0.0
H258 H 0.55524 0.48788 0.0596 0.0
H259 H 0.51125 0.41352 0.05412 0.0
O260 O 0.53427 0.46952 0.16832 0.0
O261 O 0.52403 0.44387 0.16883 0.0
H262 H 0.52422 0.50463 0.11762 0.0
O263 O 0.49055 0.44699 0.17231 0.0
O264 O 0.50634 0.47288 0.16923 0.0
O265 O 0.48975 0.44585 0.96514 0.0
O266 O 0.50459 0.4717 0.97857 0.0
C267 C 0.49366 0.46102 0.19626 0.0
H268 H 0.57139 0.51052 0.96929 0.0
H269 H 0.54137 0.52911 0.03676 0.0
H270 H 0.45463 0.38541 0.12763 0.0
H271 H 0.49745 0.3846 0.07303 0.0
C272 C 0.57048 0.08164 0.93321 0.0
N273 N 0.54016 0.04866 0.06161 0.0
C274 C 0.53306 0.04572 0.96225 0.0
C275 C 0.51518 0.02792 0.93296 0.0
C276 C 0.50335 0.01164 0.035 0.0
C277 C 0.51585 0.01911 0.1521 0.0
C278 C 0.53348 0.038 0.15073 0.0
Zn279 Zn 0.56242 0.05696 0.05823 0.0
C280 C 0.57227 0.0412 0.9219 0.0
N281 N 0.6122 0.08187 0.05817 0.0
C282 C 0.62044 0.09803 0.05139 0.0
C283 C 0.62013 0.07409 0.07902 0.0
C284 C 0.6366 0.08241 0.09493 0.0
C285 C 0.64543 0.0991 0.08928 0.0
C286 C 0.63696 0.1068 0.06628 0.0
Zn287 Zn 0.58651 0.06861 0.05343 0.0
O288 O 0.56177 0.07531 0.99684 0.0
C289 C 0.57184 0.08023 0.18924 0.0
O290 O 0.58349 0.08124 0.93165 0.0
H291 H 0.61363 0.06133 0.08567 0.0
H292 H 0.53997 0.05356 0.91106 0.0
H293 H 0.61416 0.10426 0.03688 0.0
O294 O 0.56176 0.0665 0.16939 0.0
O295 O 0.5849 0.08669 0.147 0.0
H296 H 0.5404 0.04151 0.20881 0.0
O297 O 0.58545 0.0534 0.16833 0.0
O298 O 0.56132 0.03746 0.1256 0.0
O299 O 0.58534 0.04915 0.96328 0.0
O300 O 0.56137 0.04437 0.93871 0.0
C301 C 0.57261 0.03996 0.17481 0.0
H302 H 0.51045 0.02653 0.8686 0.0
H303 H 0.51172 0.01265 0.21199 0.0
H304 H 0.64235 0.07576 0.11193 0.0
H305 H 0.64291 0.1196 0.06261 0.0
C306 C 0.50283 0.94103 0.66 0.0
N307 N 0.50566 0.9811 0.58684 0.0
C308 C 0.49879 0.97647 0.66539 0.0
C309 C 0.48269 0.96541 0.67119 0.0
C310 C 0.4729 0.96115 0.59751 0.0
C311 C 0.48067 0.96734 0.5186 0.0
C312 C 0.49671 0.97873 0.5173 0.0
Zn313 Zn 0.52014 0.97228 0.5603 0.0
C314 C 0.5454 0.98525 0.68757 0.0
N315 N 0.54541 0.94472 0.51964 0.0
C316 C 0.53778 0.92846 0.5179 0.0
C317 C 0.5614 0.95274 0.50529 0.0
C318 C 0.56998 0.94469 0.48837 0.0
C319 C 0.56242 0.92789 0.48507 0.0
C320 C 0.54594 0.91997 0.50146 0.0
Zn321 Zn 0.53157 0.95746 0.54047 0.0
O322 O 0.50364 0.95325 0.62979 0.0
C323 C 0.5052 0.9493 0.40646 0.0
O324 O 0.51441 0.93871 0.64236 0.0
H325 H 0.5677 0.96556 0.50648 0.0
H326 H 0.50602 0.97871 0.7218 0.0
H327 H 0.52515 0.92186 0.52851 0.0
O328 O 0.5073 0.96102 0.45058 0.0
O329 O 0.51336 0.94279 0.42888 0.0
H330 H 0.50264 0.98477 0.45973 0.0
O331 O 0.54621 0.97672 0.44235 0.0
O332 O 0.5364 0.99176 0.48375 0.0
O333 O 0.54909 0.9756 0.64979 0.0
O334 O 0.5324 0.98405 0.66737 0.0
C335 C 0.54592 0.9898 0.43609 0.0
H336 H 0.47779 0.96098 0.73386 0.0
H337 H 0.47409 0.96481 0.45974 0.0
H338 H 0.58262 0.95175 0.47908 0.0
H339 H 0.53919 0.90715 0.49996 0.0
C340 C 0.08255 0.56515 0.65644 0.0
N341 N 0.04333 0.53803 0.54559 0.0
C342 C 0.04233 0.52794 0.63368 0.0
C343 C 0.02592 0.5083 0.65283 0.0
C344 C 1.0086 0.49885 0.55308 0.0
C345 C 1.01362 0.51514 0.45249 0.0
C346 C 0.03154 0.5335 0.46116 0.0
Zn347 Zn 0.05555 0.55993 0.55208 0.0
C348 C 0.04466 0.57251 0.69505 0.0
N349 N 0.08598 0.6103 0.53473 0.0
C350 C 0.10194 0.61823 0.51983 0.0
C351 C 0.07837 0.61891 0.53522 0.0
C352 C 0.08648 0.63554 0.5199 0.0
C353 C 0.10289 0.64409 0.50271 0.0
C354 C 0.11052 0.63492 0.50442 0.0
Zn355 Zn 0.07085 0.58392 0.54484 0.0
O356 O 0.07234 0.55552 0.60564 0.0
C357 C 0.07683 0.56428 0.40583 0.0
O358 O 0.085 0.57952 0.65483 0.0
H359 H 0.06574 0.61282 0.54552 0.0
H360 H 0.05092 0.53347 0.68424 0.0
H361 H 0.10815 0.61163 0.5184 0.0
O362 O 0.06285 0.55681 0.43185 0.0
O363 O 0.08551 0.57803 0.4406 0.0
H364 H 0.03434 0.54177 0.40898 0.0
O365 O 0.0546 0.58481 0.43929 0.0
O366 O 0.03706 0.56285 0.49807 0.0
O367 O 0.05369 0.58514 0.65059 0.0
O368 O 0.04535 0.56017 0.67622 0.0
C369 C 0.04009 0.57373 0.44463 0.0
H370 H 0.02594 0.50158 0.70823 0.0
H371 H 1.00643 0.51227 0.3953 0.0
H372 H 0.0797 0.64157 0.5193 0.0
H373 H 0.12314 0.64055 0.49437 0.0
C374 C 0.46463 0.52824 0.67182 0.0
N375 N 0.49592 0.52767 0.51979 0.0
C376 C 0.50464 0.52822 0.61079 0.0
C377 C 0.52133 0.52585 0.61645 0.0
C378 C 0.53059 0.52331 0.50002 0.0
C379 C 0.51677 0.52287 0.39153 0.0
C380 C 0.50025 0.52591 0.41792 0.0
Zn381 Zn 0.47354 0.51261 0.54989 0.0
C382 C 0.4655 0.48604 0.68419 0.0
N383 N 0.42261 0.48501 0.54899 0.0
C384 C 0.41455 0.49314 0.54416 0.0
C385 C 0.41441 0.4689 0.53908 0.0
C386 C 0.39799 0.46062 0.5213 0.0
C387 C 0.38944 0.46872 0.51347 0.0
C388 C 0.39807 0.48526 0.52751 0.0
Zn389 Zn 0.44851 0.4978 0.55142 0.0
O390 O 0.47569 0.52628 0.64784 0.0
C391 C 0.462 0.52564 0.42115 0.0
O392 O 0.45067 0.51849 0.64283 0.0
H393 H 0.42067 0.46237 0.54211 0.0
H394 H 0.5001 0.52957 0.67091 0.0
H395 H 0.42099 0.50591 0.55013 0.0
O396 O 0.47235 0.52886 0.47619 0.0
O397 O 0.44932 0.51211 0.42837 0.0
H398 H 0.49239 0.52514 0.36715 0.0
O399 O 0.44856 0.47902 0.46424 0.0
O400 O 0.47248 0.49823 0.44364 0.0
O401 O 0.45161 0.4843 0.66991 0.0
O402 O 0.47688 0.49632 0.63803 0.0
C403 C 0.4617 0.48437 0.42464 0.0
H404 H 0.52695 0.52674 0.67695 0.0
H405 H 0.51972 0.52216 0.32526 0.0
H406 H 0.39206 0.44789 0.51299 0.0
H407 H 0.39225 0.4922 0.52229 0.0
C408 C 0.70526 0.81115 0.27143 0.0
N409 N 0.7509 0.81575 0.35844 0.0
C410 C 0.74339 0.79965 0.34668 0.0
C411 C 0.75184 0.79147 0.33116 0.0
C412 C 0.76855 0.79953 0.32709 0.0
C413 C 0.77603 0.81613 0.34095 0.0
C414 C 0.76711 0.82393 0.35586 0.0
Zn415 Zn 0.73572 0.82693 0.38134 0.0
C416 C 0.74298 0.85679 0.26129 0.0
N417 N 0.70559 0.84715 0.42875 0.0
C418 C 0.69097 0.83431 0.42897 0.0
C419 C 0.71009 0.85781 0.49453 0.0
C420 C 0.70141 0.85362 0.57144 0.0
C421 C 0.68825 0.83831 0.57986 0.0
C422 C 0.68317 0.82875 0.50527 0.0
Zn423 Zn 0.72023 0.83839 0.39881 0.0
O424 O 0.71757 0.80998 0.28564 0.0
C425 C 0.71032 0.81052 0.52691 0.0
O426 O 0.7042 0.82213 0.30857 0.0
H427 H 0.72124 0.86882 0.49131 0.0
H428 H 0.73063 0.79291 0.34956 0.0
H429 H 0.68629 0.82661 0.37464 0.0
O430 O 0.7215 0.809 0.49211 0.0
O431 O 0.70842 0.82165 0.49977 0.0
H432 H 0.77332 0.83663 0.36525 0.0
O433 O 0.73625 0.85424 0.48321 0.0
O434 O 0.75275 0.84517 0.479 0.0
O435 O 0.73121 0.85524 0.30373 0.0
O436 O 0.74767 0.8466 0.27433 0.0
C437 C 0.7491 0.85542 0.50659 0.0
H438 H 0.74515 0.77872 0.32393 0.0
H439 H 0.78879 0.8232 0.33899 0.0
H440 H 0.70529 0.86207 0.6232 0.0
H441 H 0.67262 0.81723 0.50239 0.0
C442 C 0.22246 0.9075 0.27799 0.0
N443 N 0.21275 0.94414 0.36942 0.0
C444 C 0.22873 0.95328 0.38251 0.0
C445 C 0.23723 0.96991 0.36506 0.0
C446 C 0.22967 0.97798 0.33224 0.0
C447 C 0.21306 0.96827 0.32136 0.0
C448 C 0.20498 0.95163 0.33947 0.0
Zn449 Zn 0.20157 0.91739 0.38073 0.0
C450 C 0.17615 0.89771 0.24151 0.0
N451 N 0.18042 0.86569 0.3912 0.0
C452 C 0.1668 0.85633 0.34045 0.0
C453 C 0.18492 0.85755 0.44656 0.0
C454 C 0.17981 0.84205 0.42149 0.0
C455 C 0.17723 0.83863 0.33338 0.0
C456 C 0.1652 0.84199 0.30928 0.0
Zn457 Zn 0.19223 0.89066 0.38792 0.0
O458 O 0.22047 0.91934 0.29204 0.0
C459 C 0.21728 0.90586 0.52427 0.0
O460 O 0.21227 0.89397 0.3086 0.0
H461 H 0.18843 0.86842 0.4146 0.0
H462 H 0.23521 0.94763 0.40436 0.0
H463 H 0.15985 0.861 0.31286 0.0
O464 O 0.21804 0.91871 0.49537 0.0
O465 O 0.20661 0.89275 0.49398 0.0
H466 H 0.19241 0.94469 0.32745 0.0
O467 O 0.17361 0.88746 0.465 0.0
O468 O 0.18054 0.91254 0.47447 0.0
O469 O 0.17836 0.88784 0.2819 0.0
O470 O 0.18442 0.9124 0.26417 0.0
C471 C 0.17062 0.89784 0.49285 0.0
H472 H 0.24988 0.97629 0.37499 0.0
H473 H 0.20616 0.97344 0.299 0.0
H474 H 0.17881 0.83333 0.46759 0.0
H475 H 0.15708 0.83584 0.25782 0.0
C476 C 0.11715 0.31007 0.21243 0.0
N477 N 0.08549 0.27231 0.36835 0.0
C478 C 0.07646 0.27943 0.36764 0.0
C479 C 0.05999 0.27067 0.35244 0.0
C480 C 0.05224 0.25416 0.33878 0.0
C481 C 0.06173 0.24699 0.34316 0.0
C482 C 0.07827 0.25625 0.35703 0.0
Zn483 Zn 0.11106 0.28757 0.36046 0.0
C484 C 0.12595 0.2733 0.23072 0.0
N485 N 0.15447 0.31302 0.28971 0.0
C486 C 0.15667 0.32997 0.25166 0.0
C487 C 0.16716 0.30848 0.33328 0.0
C488 C 0.18743 0.32315 0.35071 0.0
C489 C 0.19428 0.34636 0.306 0.0
C490 C 0.17513 0.34795 0.25445 0.0
Zn491 Zn 0.13422 0.3002 0.33431 0.0
O492 O 0.10726 0.30474 0.27408 0.0
C493 C 0.12568 0.31803 0.47203 0.0
O494 O 0.12727 0.3057 0.21253 0.0
H495 H 0.16326 0.29661 0.35345 0.0
H496 H 0.08211 0.29215 0.37516 0.0
H497 H 0.14688 0.33142 0.23563 0.0
O498 O 0.11354 0.30391 0.4759 0.0
O499 O 0.13487 0.32075 0.40759 0.0
H500 H 0.0854 0.25061 0.3549 0.0
O501 O 0.14216 0.29442 0.4477 0.0
O502 O 0.11855 0.27341 0.45394 0.0
O503 O 0.13671 0.2829 0.27794 0.0
O504 O 0.11249 0.27273 0.239 0.0
C505 C 0.13316 0.28083 0.47938 0.0
H506 H 0.05338 0.27687 0.3503 0.0
H507 H 0.05654 0.23438 0.33209 0.0
H508 H 0.19564 0.31977 0.37621 0.0
H509 H 0.17631 0.35864 0.22577 0.0
C510 C 0.15205 0.36783 1.00824 0.0
N511 N 0.15586 0.41123 0.89288 0.0
C512 C 0.13975 0.40326 0.90183 0.0
C513 C 0.13113 0.41132 0.91563 0.0
C514 C 0.13875 0.42809 0.92005 0.0
C515 C 0.1554 0.43599 0.90985 0.0
C516 C 0.16362 0.42746 0.89676 0.0
Zn517 Zn 0.16894 0.39768 0.89228 0.0
C518 C 0.19633 0.41031 0.018 0.0
N519 N 0.1982 0.37867 0.92761 0.0
C520 C 0.19815 0.37511 0.01347 0.0
C521 C 0.21225 0.38381 0.88417 0.0
C522 C 0.22318 0.3798 0.91761 0.0
C523 C 0.21626 0.36704 0.97567 0.0
C524 C 0.20945 0.3713 0.04246 0.0
Zn525 Zn 0.18084 0.38333 0.88569 0.0
O526 O 0.15045 0.37954 0.98395 0.0
C527 C 0.15537 0.36734 0.75431 0.0
O528 O 0.16435 0.36762 0.98301 0.0
H529 H 0.21481 0.38992 0.82363 0.0
H530 H 0.13342 0.39044 0.90115 0.0
H531 H 0.18941 0.37474 0.05743 0.0
O532 O 0.1543 0.37972 0.77681 0.0
O533 O 0.1659 0.36533 0.79216 0.0
H534 H 0.17637 0.43398 0.89185 0.0
O535 O 0.19606 0.39675 0.78878 0.0
O536 O 0.189 0.41471 0.79455 0.0
O537 O 0.19573 0.39986 0.97001 0.0
O538 O 0.18486 0.4131 0.01008 0.0
C539 C 0.19842 0.41007 0.76486 0.0
H540 H 0.11853 0.40422 0.92582 0.0
H541 H 0.16218 0.4488 0.91223 0.0
H542 H 0.23355 0.38225 0.88062 0.0
H543 H 0.20918 0.36746 0.10773 0.0
C544 C 0.65287 0.78276 0.03459 0.0
N545 N 0.6133 0.74584 0.89384 0.0
C546 C 0.62115 0.73747 0.89767 0.0
C547 C 0.61312 0.72077 0.91257 0.0
C548 C 0.59655 0.71191 0.92513 0.0
C549 C 0.58871 0.72082 0.91767 0.0
C550 C 0.59718 0.73754 0.90292 0.0
Zn551 Zn 0.62734 0.77251 0.90016 0.0
C552 C 0.61223 0.78703 1.00269 0.0
N553 N 0.64953 0.82073 0.95542 0.0
C554 C 0.64801 0.81993 0.04352 0.0
C555 C 0.64747 0.83183 0.91305 0.0
C556 C 0.64664 0.84376 0.95971 0.0
C557 C 0.65122 0.84559 0.04713 0.0
C558 C 0.64613 0.83117 0.08879 0.0
Zn559 Zn 0.64316 0.79898 0.89968 0.0
O560 O 0.6414 0.7697 1.00694 0.0
C561 C 0.66105 0.78865 0.79179 0.0
O562 O 0.65483 0.79545 1.00255 0.0
H563 H 0.64625 0.83141 0.84438 0.0
H564 H 0.6339 0.74381 0.8929 0.0
H565 H 0.64642 0.8098 0.07933 0.0
O566 O 0.64775 0.77555 0.80468 0.0
O567 O 0.66276 0.80142 0.82617 0.0
H568 H 0.59075 0.74391 0.90176 0.0
O569 O 0.63325 0.80382 0.79782 0.0
O570 O 0.61445 0.77889 0.78954 0.0
O571 O 0.6243 0.79696 0.96454 0.0
O572 O 0.60925 0.77266 0.99856 0.0
C573 C 0.62028 0.79359 0.76553 0.0
H574 H 0.62008 0.71497 0.91748 0.0
H575 H 0.576 0.71499 0.92363 0.0
H576 H 0.6467 0.85339 0.92468 0.0
H577 H 0.64573 0.83042 0.15797 0.0
C578 C 0.24895 0.88541 0.0366 0.0
N579 N 0.27846 0.87201 0.90072 0.0
C580 C 0.28821 0.88804 0.89393 0.0
C581 C 0.30472 0.89521 0.90542 0.0
C582 C 0.31184 0.88606 0.92483 0.0
C583 C 0.30155 0.86944 0.92836 0.0
C584 C 0.28499 0.86271 0.91694 0.0
Zn585 Zn 0.25322 0.86374 0.90901 0.0
C586 C 0.23434 0.83557 0.03445 0.0
N587 N 0.20576 0.85126 0.9493 0.0
C588 C 0.2026 0.86311 0.96741 0.0
C589 C 0.19382 0.83675 0.92415 0.0
C590 C 0.18042 0.83612 0.88856 0.0
C591 C 0.18215 0.85107 0.87301 0.0
C592 C 0.18813 0.86117 0.94298 0.0
Zn593 Zn 0.22805 0.85729 0.92438 0.0
O594 O 0.25995 0.88274 0.0132 0.0
C595 C 0.2422 0.88337 0.79513 0.0
O596 O 0.23519 0.87583 0.01135 0.0
H597 H 0.19571 0.82681 0.91673 0.0
H598 H 0.28312 0.89554 0.88347 0.0
H599 H 0.21183 0.87501 0.97972 0.0
O600 O 0.2545 0.88211 0.81085 0.0
O601 O 0.22933 0.87366 0.83128 0.0
H602 H 0.27736 0.85005 0.924 0.0
O603 O 0.22078 0.8389 0.83159 0.0
O604 O 0.24501 0.84466 0.8019 0.0
O605 O 0.22504 0.84051 0.01508 0.0
O606 O 0.24861 0.84352 1.00572 0.0
C607 C 0.23 0.83585 0.78871 0.0
H608 H 0.31178 0.90801 0.90236 0.0
H609 H 0.30617 0.86158 0.94056 0.0
H610 H 0.17225 0.82583 0.85172 0.0
H611 H 0.18612 0.87108 0.95 0.0
C612 C 0.61459 0.83141 0.24077 0.0
N613 N 0.65279 0.83491 0.35037 0.0
C614 C 0.64319 0.81928 0.37003 0.0
C615 C 0.64127 0.81456 0.45636 0.0
C616 C 0.64947 0.82625 0.5192 0.0
C617 C 0.66183 0.8411 0.49018 0.0
C618 C 0.66471 0.84393 0.40346 0.0
Zn619 Zn 0.64106 0.8477 0.35241 0.0
C620 C 0.6563 0.87562 0.23606 0.0
N621 N 0.6138 0.87409 0.38439 0.0
C622 C 0.59783 0.86637 0.39969 0.0
C623 C 0.62164 0.89034 0.38313 0.0
C624 C 0.61373 0.89914 0.39698 0.0
C625 C 0.59723 0.89157 0.41277 0.0
C626 C 0.58947 0.87476 0.41385 0.0
Zn627 Zn 0.62782 0.86132 0.37549 0.0
O628 O 0.62717 0.83223 0.26522 0.0
C629 C 0.61615 0.83227 0.49718 0.0
O630 O 0.61115 0.84184 0.27028 0.0
H631 H 0.63429 0.89672 0.3733 0.0
H632 H 0.63546 0.81111 0.32178 0.0
H633 H 0.59141 0.85356 0.40254 0.0
O634 O 0.62631 0.83204 0.44858 0.0
O635 O 0.61331 0.84374 0.48633 0.0
H636 H 0.67396 0.85545 0.38237 0.0
O637 O 0.6451 0.87825 0.47634 0.0
O638 O 0.65667 0.86482 0.44567 0.0
O639 O 0.64568 0.87845 0.26817 0.0
O640 O 0.65585 0.86289 0.25832 0.0
C641 C 0.65678 0.87594 0.48786 0.0
H642 H 0.63292 0.80247 0.47378 0.0
H643 H 0.66956 0.85058 0.53237 0.0
H644 H 0.62077 0.91194 0.3978 0.0
H645 H 0.57687 0.86798 0.42542 0.0
C646 C 0.19296 0.78779 0.26459 0.0
N647 N 0.19137 0.82286 0.33197 0.0
C648 C 0.18943 0.82119 0.22469 0.0
C649 C 0.20121 0.83778 0.15517 0.0
C650 C 0.21705 0.85745 0.21173 0.0
C651 C 0.21735 0.8578 0.33657 0.0
C652 C 0.20412 0.83882 0.39025 0.0
Zn653 Zn 0.17644 0.80099 0.37551 0.0
C654 C 0.14962 0.78657 0.22867 0.0
N655 N 0.151 0.74847 0.39438 0.0
C656 C 0.1596 0.74087 0.39847 0.0
C657 C 0.13501 0.73963 0.40728 0.0
C658 C 0.12732 0.72302 0.4243 0.0
C659 C 0.13585 0.71479 0.42803 0.0
C660 C 0.15236 0.7243 0.41495 0.0
Zn661 Zn 0.16317 0.77469 0.37079 0.0
O662 O 0.19303 0.7987 0.3067 0.0
C663 C 0.19098 0.79481 0.5148 0.0
O664 O 0.18063 0.77404 0.2718 0.0
H665 H 0.12802 0.74541 0.4047 0.0
H666 H 0.18315 0.80986 0.19324 0.0
H667 H 0.17227 0.74768 0.38959 0.0
O668 O 0.1906 0.80593 0.47669 0.0
O669 O 0.18148 0.78042 0.48829 0.0
H670 H 0.20541 0.83753 0.45754 0.0
O671 O 0.14686 0.77809 0.46151 0.0
O672 O 0.16043 0.80424 0.44895 0.0
O673 O 0.14629 0.77265 0.25459 0.0
O674 O 0.16066 0.79793 0.26927 0.0
C675 C 0.14846 0.79179 0.47842 0.0
H676 H 0.20109 0.8359 0.08755 0.0
H677 H 0.22644 0.86775 0.36944 0.0
H678 H 0.11464 0.71663 0.43346 0.0
H679 H 0.15985 0.71907 0.41912 0.0
C680 C 0.23987 0.40863 0.2649 0.0
N681 N 0.21812 0.37656 0.43955 0.0
C682 C 0.2054 0.38103 0.39523 0.0
C683 C 0.18523 0.36623 0.3768 0.0
C684 C 0.17855 0.34305 0.42078 0.0
C685 C 0.19768 0.3415 0.47273 0.0
C686 C 0.21607 0.35957 0.47646 0.0
Zn687 Zn 0.23828 0.38929 0.40203 0.0
C688 C 0.24751 0.3716 0.27756 0.0
N689 N 0.28698 0.41746 0.39228 0.0
C690 C 0.29436 0.43311 0.41494 0.0
C691 C 0.29584 0.41024 0.38368 0.0
C692 C 0.31232 0.41849 0.39898 0.0
C693 C 0.32036 0.43465 0.42298 0.0
C694 C 0.31092 0.44187 0.43003 0.0
Zn695 Zn 0.26133 0.40197 0.39388 0.0
O696 O 0.23126 0.39424 0.28573 0.0
C697 C 0.24379 0.41506 0.50909 0.0
O698 O 0.25392 0.4163 0.29869 0.0
H699 H 0.29001 0.39773 0.36871 0.0
H700 H 0.20925 0.39284 0.37336 0.0
H701 H 0.28738 0.43879 0.42446 0.0
O702 O 0.23531 0.40673 0.44959 0.0
O703 O 0.2574 0.41582 0.51475 0.0
H704 H 0.22603 0.35803 0.48582 0.0
O705 O 0.26474 0.38464 0.48454 0.0
O706 O 0.24393 0.38434 0.52779 0.0
O707 O 0.25979 0.38571 0.27577 0.0
O708 O 0.23808 0.36888 0.3397 0.0
C709 C 0.25356 0.3795 0.53929 0.0
H710 H 0.17692 0.36951 0.35136 0.0
H711 H 0.19661 0.33079 0.50062 0.0
H712 H 0.31853 0.41191 0.39538 0.0
H713 H 0.31623 0.45421 0.44821 0.0
C714 C 0.17182 0.27994 0.98791 0.0
N715 N 0.17503 0.31113 0.82242 0.0
C716 C 0.16111 0.30842 0.85925 0.0
C717 C 0.15337 0.31579 0.82078 0.0
C718 C 0.16362 0.32875 0.76845 0.0
C719 C 0.16922 0.32271 0.70398 0.0
C720 C 0.17688 0.31498 0.73644 0.0
Zn721 Zn 0.19028 0.30479 0.87395 0.0
C722 C 0.21633 0.32145 1.00144 0.0
N723 N 0.21467 0.27712 0.85957 0.0
C724 C 0.21889 0.27094 0.92684 0.0
C725 C 0.21832 0.2746 0.77832 0.0
C726 C 0.22632 0.26607 0.76227 0.0
C727 C 0.23117 0.2598 0.82973 0.0
C728 C 0.22699 0.26225 0.91333 0.0
Zn729 Zn 0.20302 0.292 0.86253 0.0
O730 O 0.17514 0.29387 0.97084 0.0
C731 C 0.17494 0.27901 0.74076 0.0
O732 O 0.18084 0.27495 0.95501 0.0
H733 H 0.21511 0.27935 0.72428 0.0
H734 H 0.15704 0.30246 0.91986 0.0
H735 H 0.21618 0.27282 0.99162 0.0
O736 O 0.17381 0.28729 0.79783 0.0
O737 O 0.18778 0.27845 0.74087 0.0
H738 H 0.18443 0.31284 0.69473 0.0
O739 O 0.22305 0.30978 0.77449 0.0
O740 O 0.20669 0.31853 0.77385 0.0
O741 O 0.21728 0.30892 0.98117 0.0
O742 O 0.20606 0.32352 0.9613 0.0
C743 C 0.21957 0.31996 0.74652 0.0
H744 H 0.14299 0.31506 0.85028 0.0
H745 H 0.1719 0.32734 0.63993 0.0
H746 H 0.22855 0.26431 0.69629 0.0
H747 H 0.23024 0.25777 0.96851 0.0
C748 C 0.75147 0.90076 0.98946 0.0
N749 N 0.71622 0.86468 0.8795 0.0
C750 C 0.71963 0.85901 0.9522 0.0
C751 C 0.70885 0.84385 0.98009 0.0
C752 C 0.69376 0.83841 0.94716 0.0
C753 C 0.69372 0.83952 0.85753 0.0
C754 C 0.7055 0.85401 0.8236 0.0
Zn755 Zn 0.7247 0.88854 0.8633 0.0
C756 C 0.71056 0.90198 0.99794 0.0
N757 N 0.75134 0.94118 0.8508 0.0
C758 C 0.76736 0.94977 0.86315 0.0
C759 C 0.74388 0.94917 0.82397 0.0
C760 C 0.75229 0.96582 0.80808 0.0
C761 C 0.76887 0.97503 0.81898 0.0
C762 C 0.77619 0.96646 0.8483 0.0
Zn763 Zn 0.73757 0.91469 0.86692 0.0
O764 O 0.74325 0.89049 0.93504 0.0
C765 C 0.74896 0.89694 0.74025 0.0
O766 O 0.7518 0.9141 0.98447 0.0
H767 H 0.73125 0.94262 0.81356 0.0
H768 H 0.72879 0.86633 0.99616 0.0
H769 H 0.77348 0.94371 0.88437 0.0
O770 O 0.7353 0.88621 0.75992 0.0
O771 O 0.75423 0.91081 0.77399 0.0
H772 H 0.70432 0.85777 0.76101 0.0
O773 O 0.72097 0.91202 0.7569 0.0
O774 O 0.70597 0.88645 0.78271 0.0
O775 O 0.71968 0.91516 0.95938 0.0
O776 O 0.71182 0.88993 0.97719 0.0
C777 C 0.70823 0.89877 0.74185 0.0
H778 H 0.71073 0.83993 0.0416 0.0
H779 H 0.68292 0.83244 0.82278 0.0
H780 H 0.74573 0.97136 0.78558 0.0
H781 H 0.78874 0.97258 0.86109 0.0
C782 C 0.1344 0.85457 0.97654 0.0
N783 N 0.15456 0.84779 0.76099 0.0
C784 C 0.16069 0.86337 0.74 0.0
C785 C 0.16823 0.86916 0.66174 0.0
C786 C 0.17504 0.86096 0.62394 0.0
C787 C 0.16621 0.84426 0.6338 0.0
C788 C 0.15678 0.83804 0.70698 0.0
Zn789 Zn 0.13379 0.83818 0.82824 0.0
C790 C 0.12397 0.80902 0.93931 0.0
N791 N 0.0838 0.8165 0.86187 0.0
C792 C 0.07645 0.82494 0.84242 0.0
C793 C 0.07464 0.80045 0.87295 0.0
C794 C 0.05797 0.79243 0.86238 0.0
C795 C 0.05006 0.80069 0.839 0.0
C796 C 0.05977 0.81736 0.8316 0.0
Zn797 Zn 0.10958 0.82659 0.84647 0.0
O798 O 0.14342 0.85056 0.93914 0.0
C799 C 0.12344 0.85723 0.73502 0.0
O800 O 0.11962 0.8477 0.95188 0.0
H801 H 0.08031 0.79355 0.88579 0.0
H802 H 0.15971 0.87149 0.78306 0.0
H803 H 0.08354 0.83757 0.83158 0.0
O804 O 0.13296 0.85836 0.791 0.0
O805 O 0.11063 0.84374 0.73249 0.0
H806 H 0.15089 0.82542 0.71921 0.0
O807 O 0.10404 0.80704 0.75363 0.0
O808 O 0.12557 0.82678 0.70685 0.0
O809 O 0.11177 0.81077 0.94652 0.0
O810 O 0.13437 0.81756 0.88243 0.0
C811 C 0.11474 0.81272 0.69671 0.0
H812 H 0.17322 0.88169 0.64985 0.0
H813 H 0.16905 0.83652 0.59786 0.0
H814 H 0.05142 0.77966 0.8689 0.0
H815 H 0.05461 0.82464 0.81642 0.0
C816 C 0.3814 0.15629 0.55756 0.0
N817 N 0.42044 0.15098 0.68352 0.0
C818 C 0.41221 0.13533 0.65971 0.0
C819 C 0.41988 0.12631 0.64451 0.0
C820 C 0.43646 0.13306 0.65355 0.0
C821 C 0.44458 0.14923 0.67827 0.0
C822 C 0.43649 0.15783 0.69262 0.0
Zn823 Zn 0.40904 0.16621 0.69408 0.0
C824 C 0.42462 0.19562 0.58053 0.0
N825 N 0.39295 0.19953 0.69273 0.0
C826 C 0.38194 0.20124 0.64896 0.0
C827 C 0.40514 0.21293 0.72922 0.0
C828 C 0.40291 0.22534 0.75472 0.0
C829 C 0.38768 0.22276 0.74512 0.0
C830 C 0.37981 0.21398 0.67013 0.0
Zn831 Zn 0.39591 0.17992 0.69437 0.0
O832 O 0.39129 0.15241 0.58795 0.0
C833 C 0.37794 0.15253 0.81066 0.0
O834 O 0.38174 0.16874 0.58568 0.0
H835 H 0.41632 0.21385 0.74287 0.0
H836 H 0.39956 0.12971 0.65073 0.0
H837 H 0.3747 0.19277 0.60094 0.0
O838 O 0.38978 0.15054 0.79187 0.0
O839 O 0.37712 0.164 0.77594 0.0
H840 H 0.44328 0.17026 0.70927 0.0
O841 O 0.4083 0.18992 0.80584 0.0
O842 O 0.42488 0.18124 0.80883 0.0
O843 O 0.41322 0.19544 0.61743 0.0
O844 O 0.42679 0.18383 0.59374 0.0
C845 C 0.41983 0.19006 0.84161 0.0
H846 H 0.41274 0.11401 0.62587 0.0
H847 H 0.45731 0.15553 0.68416 0.0
H848 H 0.41114 0.23406 0.79946 0.0
H849 H 0.36958 0.21401 0.64399 0.0
C850 C 0.8855 0.234 0.56946 0.0
N851 N 0.87876 0.27169 0.69255 0.0
C852 C 0.88205 0.27792 0.61138 0.0
C853 C 0.89003 0.29449 0.5958 0.0
C854 C 0.89521 0.30559 0.66365 0.0
C855 C 0.89144 0.29888 0.74721 0.0
C856 C 0.88334 0.28206 0.76023 0.0
Zn857 Zn 0.86639 0.2451 0.69446 0.0
C858 C 0.84177 0.23105 0.54934 0.0
N859 N 0.84232 0.19564 0.64036 0.0
C860 C 0.8456 0.18152 0.59611 0.0
C861 C 0.82481 0.19492 0.65507 0.0
C862 C 0.80631 0.17782 0.62396 0.0
C863 C 0.80775 0.16037 0.56818 0.0
C864 C 0.82879 0.1624 0.55989 0.0
Zn865 Zn 0.85813 0.21896 0.67769 0.0
O866 O 0.88525 0.24628 0.59879 0.0
C867 C 0.88149 0.22932 0.82542 0.0
O868 O 0.87443 0.22039 0.59009 0.0
H869 H 0.82409 0.20525 0.67029 0.0
H870 H 0.87847 0.26996 0.55705 0.0
H871 H 0.85756 0.18402 0.58453 0.0
O872 O 0.88157 0.24245 0.80758 0.0
O873 O 0.87247 0.2171 0.78015 0.0
H874 H 0.88085 0.27743 0.82493 0.0
O875 O 0.84134 0.21644 0.7766 0.0
O876 O 0.84633 0.24073 0.79217 0.0
O877 O 0.84497 0.22095 0.57667 0.0
O878 O 0.84957 0.24479 0.58382 0.0
C879 C 0.83756 0.22588 0.81083 0.0
H880 H 0.89188 0.2985 0.52989 0.0
H881 H 0.89496 0.30658 0.8027 0.0
H882 H 0.7955 0.17833 0.62306 0.0
H883 H 0.83081 0.15412 0.52343 0.0
C884 C 0.78789 0.65043 0.58102 0.0
N885 N 0.75312 0.60865 0.71409 0.0
C886 C 0.74461 0.61634 0.71299 0.0
C887 C 0.72804 0.60809 0.699 0.0
C888 C 0.71961 0.59153 0.68477 0.0
C889 C 0.72859 0.58382 0.69016 0.0
C890 C 0.7452 0.59253 0.70405 0.0
Zn891 Zn 0.77904 0.62283 0.70219 0.0
C892 C 0.79265 0.60921 0.5804 0.0
N893 N 0.82515 0.64677 0.62912 0.0
C894 C 0.82232 0.6498 0.54453 0.0
C895 C 0.83976 0.65133 0.66999 0.0
C896 C 0.86749 0.67704 0.62357 0.0
C897 C 0.85346 0.6644 0.53084 0.0
C898 C 0.83423 0.66055 0.49038 0.0
Zn899 Zn 0.80472 0.6383 0.69775 0.0
O900 O 0.77531 0.63721 0.59552 0.0
C901 C 0.79611 0.65556 0.82213 0.0
O902 O 0.80011 0.65275 0.61872 0.0
H903 H 0.83701 0.64338 0.72496 0.0
H904 H 0.75077 0.62911 0.71909 0.0
H905 H 0.8106 0.64385 0.51751 0.0
O906 O 0.78255 0.64305 0.8044 0.0
O907 O 0.80842 0.65663 0.78612 0.0
H908 H 0.75182 0.58635 0.70258 0.0
O909 O 0.81074 0.62628 0.78086 0.0
O910 O 0.78591 0.6095 0.80914 0.0
O911 O 0.80286 0.62167 0.61415 0.0
O912 O 0.77832 0.60478 0.59998 0.0
C913 C 0.80079 0.6142 0.8216 0.0
H914 H 0.72194 0.6148 0.69817 0.0
H915 H 0.72296 0.57115 0.67982 0.0
H916 H 0.87995 0.68077 0.63241 0.0
H917 H 0.83187 0.66179 0.42401 0.0
C918 C 0.81926 0.70279 0.34001 0.0
N919 N 0.82204 0.74761 0.24121 0.0
C920 C 0.80585 0.73984 0.24045 0.0
C921 C 0.79721 0.74793 0.25281 0.0
C922 C 0.8049 0.76454 0.26637 0.0
C923 C 0.82164 0.77222 0.26776 0.0
C924 C 0.82987 0.76368 0.25496 0.0
Zn925 Zn 0.8345 0.73351 0.22421 0.0
C926 C 0.86346 0.74296 0.35234 0.0
N927 N 0.85997 0.70908 0.19792 0.0
C928 C 0.85863 0.69757 0.25207 0.0
C929 C 0.86556 0.71001 0.11626 0.0
C930 C 0.86465 0.6966 0.08011 0.0
C931 C 0.85567 0.68272 0.12647 0.0
C932 C 0.85763 0.68399 0.21605 0.0
Zn933 Zn 0.84693 0.71952 0.22078 0.0
O934 O 0.81899 0.71574 0.32745 0.0
C935 C 0.82015 0.70714 0.08282 0.0
O936 O 0.82959 0.70091 0.30014 0.0
H937 H 0.8677 0.71954 0.07323 0.0
H938 H 0.79941 0.72714 0.23097 0.0
H939 H 0.85472 0.69727 0.31709 0.0
O940 O 0.81656 0.7167 0.12094 0.0
O941 O 0.83277 0.70753 0.107 0.0
H942 H 0.84265 0.77006 0.25642 0.0
O943 O 0.86391 0.73759 0.15058 0.0
O944 O 0.85113 0.74969 0.11659 0.0
O945 O 0.86065 0.72965 0.32481 0.0
O946 O 0.85456 0.74845 0.32553 0.0
C947 C 0.86341 0.74817 0.10769 0.0
H948 H 0.78444 0.74098 0.25348 0.0
H949 H 0.82847 0.7849 0.27772 0.0
H950 H 0.86594 0.69633 0.01117 0.0
H951 H 0.85295 0.67347 0.25552 0.0
C952 C 0.32741 0.1269 0.32159 0.0
N953 N 0.28527 0.08274 0.21445 0.0
C954 C 0.29253 0.07456 0.2418 0.0
C955 C 0.28387 0.05787 0.25861 0.0
C956 C 0.26724 0.04879 0.24773 0.0
C957 C 0.26015 0.0576 0.21913 0.0
C958 C 0.2692 0.07427 0.20334 0.0
Zn959 Zn 0.29801 0.10967 0.20581 0.0
C960 C 0.28347 0.12344 0.3224 0.0
N961 N 0.31695 0.15975 0.20183 0.0
C962 C 0.31704 0.16247 0.28732 0.0
C963 C 0.31092 0.16625 0.14626 0.0
C964 C 0.30445 0.17532 0.17682 0.0
C965 C 0.30354 0.17729 0.266 0.0
C966 C 0.30802 0.16855 0.31966 0.0
Zn967 Zn 0.3107 0.1364 0.1884 0.0
O968 O 0.31687 0.11255 0.3033 0.0
C969 C 0.32741 0.12716 0.07008 0.0
O970 O 0.32633 0.13801 0.28629 0.0
H971 H 0.31021 0.16371 0.07848 0.0
H972 H 0.30514 0.08098 0.25293 0.0
H973 H 0.32112 0.15707 0.33295 0.0
O974 O 0.31617 0.11326 0.09498 0.0
O975 O 0.32805 0.1395 0.10211 0.0
H976 H 0.2631 0.08049 0.18448 0.0
O977 O 0.29716 0.13551 0.09211 0.0
O978 O 0.28037 0.1102 0.10361 0.0
O979 O 0.29298 0.13398 0.27279 0.0
O980 O 0.28257 0.1099 0.31724 0.0
C981 C 0.28445 0.12381 0.06909 0.0
H982 H 0.29029 0.05213 0.28029 0.0
H983 H 0.24747 0.05182 0.21158 0.0
H984 H 0.30066 0.18111 0.13118 0.0
H985 H 0.30644 0.16799 0.38849 0.0
C986 C 0.91975 0.21254 0.36773 0.0
N987 N 0.9498 0.20418 0.22124 0.0
C988 C 0.95923 0.22022 0.21292 0.0
C989 C 0.97568 0.22785 0.22822 0.0
C990 C 0.98309 0.21914 0.25217 0.0
C991 C 0.97314 0.20246 0.25565 0.0
C992 C 0.95662 0.19529 0.24132 0.0
Zn993 Zn 0.92438 0.19484 0.22924 0.0
C994 C 0.90866 0.16714 0.368 0.0
N995 N 0.88143 0.17667 0.30313 0.0
C996 C 0.87872 0.19155 0.33097 0.0
C997 C 0.8694 0.15894 0.26205 0.0
C998 C 0.84948 0.15296 0.23417 0.0
C999 C 0.84186 0.16943 0.26439 0.0
C1000 C 0.86036 0.19083 0.31567 0.0
Zn1001 Zn 0.90151 0.18473 0.25248 0.0
O1002 O 0.92947 0.21647 0.30596 0.0
C1003 C 0.9102 0.21034 0.114 0.0
O1004 O 0.90911 0.19819 0.37081 0.0
H1005 H 0.87369 0.15107 0.24505 0.0
H1006 H 0.95389 0.22737 0.19856 0.0
H1007 H 0.88834 0.20287 0.3489 0.0
O1008 O 0.92205 0.20787 0.11086 0.0
O1009 O 0.90101 0.20453 0.17922 0.0
H1010 H 0.94921 0.18262 0.24956 0.0
O1011 O 0.89283 0.17133 0.14145 0.0
O1012 O 0.91553 0.17199 0.13983 0.0
O1013 O 0.89947 0.16443 0.30751 0.0
O1014 O 0.9219 0.18028 0.36136 0.0
C1015 C 0.90112 0.16585 0.11151 0.0
H1016 H 0.98242 0.24066 0.22456 0.0
H1017 H 0.97794 0.19486 0.27026 0.0
H1018 H 0.84243 0.14161 0.2037 0.0
H1019 H 0.8593 0.20092 0.33535 0.0
C1020 C 0.28882 0.16881 0.56703 0.0
N1021 N 0.32181 0.17012 0.70899 0.0
C1022 C 0.33279 0.17087 0.65241 0.0
C1023 C 0.34525 0.1693 0.68523 0.0
C1024 C 0.3469 0.17004 0.77502 0.0
C1025 C 0.33276 0.1617 0.81967 0.0
C1026 C 0.32036 0.16334 0.78811 0.0
Zn1027 Zn 0.31107 0.18336 0.6955 0.0
C1028 C 0.32896 0.21515 0.60134 0.0
N1029 N 0.2831 0.20722 0.72543 0.0
C1030 C 0.26719 0.19924 0.74212 0.0
C1031 C 0.29077 0.22345 0.72467 0.0
C1032 C 0.28274 0.23202 0.74035 0.0
C1033 C 0.2663 0.22419 0.75737 0.0
C1034 C 0.25868 0.2074 0.75807 0.0
Zn1035 Zn 0.29792 0.19563 0.71547 0.0
O1036 O 0.30305 0.17302 0.5815 0.0
C1037 C 0.28333 0.16387 0.8104 0.0
O1038 O 0.28268 0.17602 0.6088 0.0
H1039 H 0.3034 0.22998 0.71413 0.0
H1040 H 0.33319 0.17487 0.58722 0.0
H1041 H 0.26097 0.18642 0.7449 0.0
O1042 O 0.29201 0.16349 0.75195 0.0
O1043 O 0.28328 0.17697 0.81957 0.0
H1044 H 0.31131 0.16182 0.83298 0.0
O1045 O 0.31412 0.21224 0.8187 0.0
O1046 O 0.3204 0.1938 0.81739 0.0
O1047 O 0.31532 0.21398 0.61465 0.0
O1048 O 0.33104 0.20415 0.63235 0.0
C1049 C 0.32206 0.20637 0.85138 0.0
H1050 H 0.35483 0.17104 0.64412 0.0
H1051 H 0.33273 0.15877 0.88662 0.0
H1052 H 0.28964 0.24482 0.74162 0.0
H1053 H 0.24612 0.20051 0.77079 0.0
C1054 C 0.85849 0.1315 0.62554 0.0
N1055 N 0.83925 0.15332 0.79237 0.0
C1056 C 0.85153 0.16653 0.75872 0.0
C1057 C 0.85047 0.18017 0.76086 0.0
C1058 C 0.83476 0.17736 0.76743 0.0
C1059 C 0.82817 0.1687 0.8431 0.0
C1060 C 0.83013 0.15545 0.85262 0.0
Zn1061 Zn 0.83422 0.13164 0.74756 0.0
C1062 C 0.81045 0.11771 0.59489 0.0
N1063 N 0.81907 0.07997 0.72265 0.0
C1064 C 0.82742 0.07308 0.75246 0.0
C1065 C 0.80338 0.07022 0.7042 0.0
C1066 C 0.79569 0.0535 0.71633 0.0
C1067 C 0.80386 0.04601 0.7481 0.0
C1068 C 0.82015 0.05633 0.76491 0.0
Zn1069 Zn 0.82753 0.10602 0.72976 0.0
O1070 O 0.85441 0.14032 0.66535 0.0
C1071 C 0.85288 0.12402 0.87376 0.0
O1072 O 0.84956 0.11623 0.63509 0.0
H1073 H 0.79643 0.07543 0.68336 0.0
H1074 H 0.86116 0.16631 0.72645 0.0
H1075 H 0.83965 0.08056 0.77057 0.0
O1076 O 0.8491 0.13397 0.84901 0.0
O1077 O 0.84538 0.11003 0.84043 0.0
H1078 H 0.82285 0.14648 0.89865 0.0
O1079 O 0.80653 0.09872 0.82303 0.0
O1080 O 0.81469 0.12376 0.82204 0.0
O1081 O 0.81137 0.10534 0.61621 0.0
O1082 O 0.81895 0.13043 0.63789 0.0
C1083 C 0.80459 0.11023 0.84618 0.0
H1084 H 0.86013 0.19078 0.73438 0.0
H1085 H 0.81834 0.16881 0.87479 0.0
H1086 H 0.78322 0.0465 0.70163 0.0
H1087 H 0.82721 0.05164 0.79139 0.0
C1088 C 0.90912 0.75222 0.60695 0.0
N1089 N 0.8727 0.71722 0.69562 0.0
C1090 C 0.86919 0.72244 0.6215 0.0
C1091 C 0.85353 0.71575 0.59607 0.0
C1092 C 0.84444 0.7006 0.62893 0.0
C1093 C 0.84549 0.70029 0.719 0.0
C1094 C 0.86087 0.70823 0.75139 0.0
Zn1095 Zn 0.89524 0.72361 0.71913 0.0
C1096 C 0.90771 0.70998 0.57775 0.0
N1097 N 0.94619 0.74784 0.73971 0.0
C1098 C 0.9545 0.76404 0.73513 0.0
C1099 C 0.95421 0.74007 0.75951 0.0
C1100 C 0.97078 0.74841 0.77502 0.0
C1101 C 0.97972 0.76515 0.77006 0.0
C1102 C 0.97106 0.77281 0.7499 0.0
Zn1103 Zn 0.92022 0.73494 0.72074 0.0
O1104 O 0.8991 0.74488 0.66413 0.0
C1105 C 0.90294 0.74552 0.85534 0.0
O1106 O 0.9213 0.75053 0.60685 0.0
H1107 H 0.94777 0.72727 0.76392 0.0
H1108 H 0.87804 0.72945 0.57508 0.0
H1109 H 0.94827 0.77034 0.72079 0.0
O1110 O 0.89234 0.73201 0.83215 0.0
O1111 O 0.91666 0.75127 0.81948 0.0
H1112 H 0.86347 0.70533 0.81405 0.0
O1113 O 0.91597 0.71717 0.82643 0.0
O1114 O 0.89117 0.70252 0.78499 0.0
O1115 O 0.92034 0.71726 0.62338 0.0
O1116 O 0.89648 0.71265 0.59584 0.0
C1117 C 0.90259 0.70418 0.83222 0.0
H1118 H 0.85095 0.71878 0.5336 0.0
H1119 H 0.83712 0.69009 0.75445 0.0
H1120 H 0.97656 0.7417 0.79 0.0
H1121 H 0.97694 0.78561 0.74723 0.0
C1122 C 0.83818 0.61326 0.34735 0.0
N1123 N 0.83414 0.64129 0.19304 0.0
C1124 C 0.8249 0.64324 0.25181 0.0
C1125 C 0.81054 0.64198 0.22492 0.0
C1126 C 0.80636 0.63878 0.13661 0.0
C1127 C 0.81213 0.6299 0.09789 0.0
C1128 C 0.82798 0.63531 0.11435 0.0
Zn1129 Zn 0.85176 0.63625 0.21778 0.0
C1130 C 0.87983 0.65675 0.32645 0.0
N1131 N 0.8797 0.61229 0.20586 0.0
C1132 C 0.87138 0.59605 0.20734 0.0
C1133 C 0.89563 0.61959 0.19036 0.0
C1134 C 0.90349 0.61076 0.17553 0.0
C1135 C 0.8952 0.59396 0.17617 0.0
C1136 C 0.87879 0.58681 0.19307 0.0
Zn1137 Zn 0.86642 0.62561 0.20757 0.0
O1138 O 0.84072 0.6269 0.32974 0.0
C1139 C 0.83786 0.60793 0.09471 0.0
O1140 O 0.84649 0.60824 0.30717 0.0
H1141 H 0.90238 0.63239 0.18694 0.0
H1142 H 0.82859 0.64569 0.31766 0.0
H1143 H 0.85872 0.59005 0.21672 0.0
O1144 O 0.83444 0.61377 0.15721 0.0
O1145 O 0.85215 0.61097 0.09232 0.0
H1146 H 0.83495 0.63364 0.06635 0.0
O1147 O 0.88306 0.64338 0.11386 0.0
O1148 O 0.86373 0.64846 0.09973 0.0
O1149 O 0.88096 0.64407 0.31583 0.0
O1150 O 0.86869 0.65744 0.28647 0.0
C1151 C 0.87736 0.65115 0.07666 0.0
H1152 H 0.80446 0.64597 0.26741 0.0
H1153 H 0.8074 0.62443 0.03708 0.0
H1154 H 0.91607 0.61718 0.16318 0.0
H1155 H 0.87143 0.57404 0.19222 0.0
C1156 C 0.41822 0.23514 0.35571 0.0
N1157 N 0.37466 0.19978 0.29339 0.0
C1158 C 0.37076 0.19978 0.3777 0.0
C1159 C 0.35699 0.20026 0.3974 0.0
C1160 C 0.34738 0.19961 0.3288 0.0
C1161 C 0.34942 0.19404 0.24923 0.0
C1162 C 0.36289 0.1929 0.23553 0.0
Zn1163 Zn 0.38972 0.22302 0.25266 0.0
C1164 C 0.37976 0.24349 0.35671 0.0
N1165 N 0.42076 0.2758 0.18655 0.0
C1166 C 0.43657 0.28335 0.16679 0.0
C1167 C 0.41374 0.28498 0.19143 0.0
C1168 C 0.42228 0.30171 0.1775 0.0
C1169 C 0.43857 0.3099 0.15659 0.0
C1170 C 0.44553 0.30011 0.15167 0.0
Zn1171 Zn 0.40531 0.24941 0.21557 0.0
O1172 O 0.40431 0.22395 0.3457 0.0
C1173 C 0.4132 0.22554 0.11656 0.0
O1174 O 0.42265 0.24831 0.31517 0.0
H1175 H 0.40129 0.27936 0.2066 0.0
H1176 H 0.37964 0.20303 0.42694 0.0
H1177 H 0.44246 0.27646 0.16318 0.0
O1178 O 0.40214 0.21607 0.16658 0.0
O1179 O 0.41695 0.24035 0.1169 0.0
H1180 H 0.3654 0.18995 0.17294 0.0
O1181 O 0.38676 0.24655 0.11358 0.0
O1182 O 0.37459 0.22171 0.15292 0.0
O1183 O 0.3916 0.25534 0.32017 0.0
O1184 O 0.37731 0.22991 0.33746 0.0
C1185 C 0.37517 0.23231 0.1033 0.0
H1186 H 0.35513 0.20319 0.46184 0.0
H1187 H 0.34118 0.1915 0.19747 0.0
H1188 H 0.41596 0.30817 0.18212 0.0
H1189 H 0.45801 0.30536 0.138 0.0
C1190 C 0.79639 0.18845 0.29541 0.0
N1191 N 0.81905 0.17382 0.11335 0.0
C1192 C 0.83157 0.19174 0.15449 0.0
C1193 C 0.85158 0.19745 0.18189 0.0
C1194 C 0.85874 0.1807 0.1527 0.0
C1195 C 0.83996 0.1592 0.10162 0.0
C1196 C 0.82146 0.15858 0.08523 0.0
Zn1197 Zn 0.79755 0.16628 0.15503 0.0
C1198 C 0.78699 0.14029 0.30269 0.0
N1199 N 0.74793 0.14876 0.20127 0.0
C1200 C 0.74114 0.15753 0.17797 0.0
C1201 C 0.73846 0.13281 0.21384 0.0
C1202 C 0.72195 0.12516 0.20023 0.0
C1203 C 0.71464 0.13374 0.17247 0.0
C1204 C 0.72463 0.15032 0.16404 0.0
Zn1205 Zn 0.77323 0.15797 0.19054 0.0
O1206 O 0.805 0.18491 0.24999 0.0
C1207 C 0.78971 0.18521 0.04785 0.0
O1208 O 0.78131 0.17904 0.28929 0.0
H1209 H 0.7438 0.12574 0.23 0.0
H1210 H 0.82772 0.20018 0.16433 0.0
H1211 H 0.74857 0.1701 0.1664 0.0
O1212 O 0.80016 0.18236 0.07089 0.0
O1213 O 0.77567 0.17618 0.07854 0.0
H1214 H 0.8173 0.16646 0.10007 0.0
O1215 O 0.76669 0.1371 0.09755 0.0
O1216 O 0.79112 0.14918 0.05887 0.0
O1217 O 0.77434 0.14143 0.29884 0.0
O1218 O 0.79805 0.1491 0.25033 0.0
C1219 C 0.77766 0.13734 0.05185 0.0
H1220 H 0.85968 0.2094 0.20391 0.0
H1221 H 0.84169 0.14979 0.07637 0.0
H1222 H 0.71507 0.11241 0.20773 0.0
H1223 H 0.71981 0.15775 0.14547 0.0
C1224 C 0.13621 0.45136 0.98593 0.0
C1225 C 0.1296 0.43714 0.93704 0.0
C1226 C 0.1279 0.4597 1.00359 0.0
C1227 C 0.1123 0.45439 0.97428 0.0
H1228 H 0.14794 0.45607 0.01252 0.0
H1229 H 0.13374 0.47034 0.04228 0.0
S1230 S 0.08988 0.41902 0.83458 0.0
N1231 N 0.10656 0.41914 0.85325 0.0
N1232 N 0.0912 0.43436 0.88714 0.0
C1233 C 0.10568 0.44041 0.92377 0.0
C1234 C 0.11416 0.43198 0.90522 0.0
C1235 C 0.59266 0.68346 0.91197 0.0
C1236 C 0.5878 0.69385 0.94674 0.0
C1237 C 0.58493 0.66689 0.93159 0.0
C1238 C 0.5717 0.65933 0.98756 0.0
H1239 H 0.60252 0.68812 0.86769 0.0
H1240 H 0.58932 0.65986 0.90104 0.0
S1241 S 0.55488 0.68095 0.10449 0.0
N1242 N 0.56918 0.69492 0.04627 0.0
N1243 N 0.55492 0.6644 0.08206 0.0
C1244 C 0.56686 0.66961 0.02398 0.0
C1245 C 0.57475 0.68651 1.00409 0.0
C1246 C 0.35712 0.91558 0.913 0.0
C1247 C 0.36379 0.91039 0.9768 0.0
C1248 C 0.34063 0.90762 0.89614 0.0
C1249 C 0.32967 0.89396 0.94229 0.0
H1250 H 0.36476 0.9259 0.87468 0.0
H1251 H 0.33648 0.91223 0.84558 0.0
S1252 S 0.34061 0.87602 0.12136 0.0
N1253 N 0.35772 0.89089 0.08901 0.0
N1254 N 0.32708 0.87623 0.0589 0.0
C1255 C 0.33619 0.88871 1.0069 0.0
C1256 C 0.35302 0.89679 0.02365 0.0
C1257 C 0.44821 0.10334 0.55105 0.0
C1258 C 0.46146 0.10523 0.59852 0.0
C1259 C 0.44034 0.11211 0.56903 0.0
C1260 C 0.4451 0.12351 0.63587 0.0
H1261 H 0.44388 0.09506 0.49802 0.0
H1262 H 0.43049 0.11003 0.52865 0.0
S1263 S 0.47793 0.13214 0.7872 0.0
N1264 N 0.47805 0.11896 0.72102 0.0
N1265 N 0.46361 0.13514 0.75387 0.0
C1266 C 0.45815 0.12533 0.68491 0.0
C1267 C 0.46615 0.11638 0.66667 0.0
C1268 C 0.90931 0.35112 0.67666 0.0
C1269 C 0.9209 0.35835 0.61116 0.0
C1270 C 0.9014 0.33445 0.69414 0.0
C1271 C 0.90432 0.32374 0.64654 0.0
H1272 H 0.90638 0.35845 0.71608 0.0
H1273 H 0.89268 0.32989 0.74498 0.0
S1274 S 0.93348 0.33604 0.46759 0.0
N1275 N 0.93455 0.35279 0.49779 0.0
N1276 N 0.92028 0.3222 0.53122 0.0
C1277 C 0.91592 0.33082 0.58106 0.0
C1278 C 0.92399 0.34776 0.56348 0.0
C1279 C 0.67495 0.55886 0.67682 0.0
C1280 C 0.66784 0.56491 0.62046 0.0
C1281 C 0.69138 0.56735 0.69695 0.0
C1282 C 0.70186 0.58253 0.66243 0.0
H1283 H 0.6677 0.54745 0.70709 0.0
H1284 H 0.69587 0.56199 0.74129 0.0
S1285 S 0.69008 0.60329 0.50382 0.0
N1286 N 0.67338 0.58687 0.52536 0.0
N1287 N 0.70371 0.6026 0.5631 0.0
C1288 C 0.69498 0.5886 0.60474 0.0
C1289 C 0.67827 0.57993 0.584 0.0
C1290 C 0.91559 0.58899 0.09472 0.0
C1291 C 0.90344 0.58413 0.1572 0.0
C1292 C 0.92325 0.5801 0.07554 0.0
C1293 C 0.9194 0.56564 0.11744 0.0
H1294 H 0.91914 0.59977 0.05877 0.0
H1295 H 0.93223 0.58461 0.02606 0.0
S1296 S 0.88959 0.54808 0.293 0.0
N1297 N 0.88878 0.564 0.26484 0.0
N1298 N 0.90296 0.54765 0.22992 0.0
C1299 C 0.90744 0.56076 0.18109 0.0
C1300 C 0.8996 0.56982 0.20049 0.0
C1301 C 0.44487 0.33883 0.18926 0.0
C1302 C 0.44795 0.32823 0.14116 0.0
C1303 C 0.45322 0.35567 0.17604 0.0
C1304 C 0.46533 0.36334 0.11346 0.0
H1305 H 0.43598 0.33411 0.23921 0.0
H1306 H 0.45022 0.36278 0.21679 0.0
S1307 S 0.47714 0.34137 0.9621 0.0
N1308 N 0.46361 0.3272 0.02291 0.0
N1309 N 0.47889 0.35813 0.9981 0.0
C1310 C 0.46831 0.35285 0.06368 0.0
C1311 C 0.45983 0.33569 0.07734 0.0
C1312 C 0.66938 0.10409 0.18014 0.0
C1313 C 0.66314 0.10827 0.10947 0.0
C1314 C 0.68575 0.11236 0.20023 0.0
C1315 C 0.69697 0.12533 0.15081 0.0
H1316 H 0.66149 0.09438 0.22141 0.0
H1317 H 0.6896 0.10857 0.25591 0.0
S1318 S 0.68727 0.14033 0.95376 0.0
N1319 N 0.66996 0.12593 0.98708 0.0
N1320 N 0.70036 0.14118 0.02361 0.0
C1321 C 0.6909 0.12951 0.07918 0.0
C1322 C 0.67421 0.12111 0.05896 0.0
C1323 C 0.57563 0.89563 0.48868 0.0
C1324 C 0.58838 0.90097 0.42946 0.0
C1325 C 0.56749 0.90417 0.50579 0.0
C1326 C 0.57143 0.91877 0.4652 0.0
H1327 H 0.57197 0.88475 0.5238 0.0
H1328 H 0.55807 0.8993 0.55286 0.0
S1329 S 0.60255 0.93747 0.29677 0.0
N1330 N 0.6035 0.92163 0.32506 0.0
N1331 N 0.58856 0.93736 0.35679 0.0
C1332 C 0.58393 0.92408 0.4045 0.0
C1333 C 0.59221 0.91537 0.38695 0.0
C1334 C 0.10739 0.67255 0.52369 0.0
C1335 C 0.11168 0.66217 0.48311 0.0
C1336 C 0.11507 0.68916 0.50582 0.0
C1337 C 0.12768 0.69671 0.44615 0.0
H1338 H 0.09803 0.66786 0.57109 0.0
H1339 H 0.11115 0.69622 0.54048 0.0
S1340 S 0.14281 0.67517 0.3145 0.0
N1341 N 0.12904 0.6611 0.37477 0.0
N1342 N 0.14327 0.69175 0.34229 0.0
C1343 C 0.13196 0.68646 0.40417 0.0
C1344 C 0.12411 0.66952 0.42219 0.0
C1345 C 0.36082 0.46294 0.53239 0.0
C1346 C 0.3719 0.46012 0.4888 0.0
C1347 C 0.34448 0.45489 0.51071 0.0
C1348 C 0.33817 0.4436 0.44343 0.0
H1349 H 0.36476 0.47129 0.58514 0.0
H1350 H 0.33667 0.45739 0.54848 0.0
S1351 S 0.36239 0.4333 0.30104 0.0
N1352 N 0.37531 0.44594 0.37022 0.0
N1353 N 0.34516 0.43132 0.32846 0.0
C1354 C 0.34927 0.44107 0.39764 0.0
C1355 C 0.36586 0.44914 0.42037 0.0
C1356 C 0.80078 0.78647 0.33797 0.0
C1357 C 0.79564 0.77359 0.27965 0.0
C1358 C 0.79225 0.79472 0.35218 0.0
C1359 C 0.77791 0.79072 0.30929 0.0
H1360 H 0.81144 0.79012 0.37469 0.0
H1361 H 0.79688 0.80422 0.39888 0.0
S1362 S 0.76005 0.75946 0.14105 0.0
N1363 N 0.77562 0.75843 0.17282 0.0
N1364 N 0.75992 0.77356 0.19926 0.0
C1365 C 0.77288 0.77817 0.2491 0.0
C1366 C 0.78157 0.76979 0.23452 0.0
C1367 C 0.25248 1.0071 0.35711 0.0
C1368 C 0.23903 0.99606 0.30949 0.0
C1369 C 0.26135 0.02369 0.33702 0.0
C1370 C 0.25751 0.03063 0.2677 0.0
H1371 H 0.25618 1.00297 0.41195 0.0
H1372 H 0.27128 0.03121 0.37772 0.0
S1373 S 0.22458 1.00721 0.11508 0.0
N1374 N 0.22327 0.99377 0.18416 0.0
N1375 N 0.23954 0.02425 0.14753 0.0
C1376 C 0.24426 0.01969 0.21856 0.0
C1377 C 0.23524 1.00279 0.23892 0.0
C1378 C 1.0118 0.24178 0.23238 0.0
C1379 C 1.00082 0.22754 0.27424 0.0
C1380 C 0.02812 0.25016 0.25351 0.0
C1381 C 0.03463 0.24477 0.31704 0.0
H1382 H 1.00782 0.24656 0.18184 0.0
H1383 H 0.03578 0.26096 0.21868 0.0
S1384 S 1.01148 0.20888 0.45118 0.0
N1385 N 0.99812 0.2091 0.38738 0.0
N1386 N 0.02853 0.22442 0.42384 0.0
C1387 C 0.02392 0.23058 0.3594 0.0
C1388 C 1.00722 0.22213 0.33892 0.0
C1389 C 0.24532 0.22841 0.83834 0.0
C1390 C 0.2574 0.2334 0.77516 0.0
C1391 C 0.23724 0.23696 0.85663 0.0
C1392 C 0.24045 0.25097 0.81209 0.0
H1393 H 0.24216 0.21783 0.87531 0.0
H1394 H 0.22815 0.23232 0.90556 0.0
S1395 S 0.27088 0.26949 0.64016 0.0
N1396 N 0.27181 0.2536 0.66738 0.0
N1397 N 0.25718 0.26949 0.70223 0.0
C1398 C 0.25251 0.25609 0.74894 0.0
C1399 C 0.26077 0.24745 0.73062 0.0
C1400 C 0.77972 0.01964 0.79995 0.0
C1401 C 0.79528 0.02787 0.76583 0.0
C1402 C 0.77151 1.00298 0.81678 0.0
C1403 C 0.77818 0.99318 0.80058 0.0
H1404 H 0.77377 0.02619 0.81527 0.0
H1405 H 0.75977 0.99778 0.8441 0.0
S1406 S 0.81804 1.00811 0.70321 0.0
N1407 N 0.81657 0.02422 0.71194 0.0
N1408 N 0.8014 0.99345 0.74197 0.0
C1409 C 0.79367 1.00122 0.76513 0.0
C1410 C 0.80206 0.01824 0.74835 0.0
C1411 C 0.02132 0.77842 0.86895 0.0
C1412 C 0.03209 0.79192 0.82086 0.0
C1413 C 1.00474 0.76997 0.85234 0.0
C1414 C 0.99772 0.77443 0.78656 0.0
H1415 H 0.02569 0.77435 0.92113 0.0
H1416 H 0.99731 0.7599 0.8927 0.0
S1417 S 0.02043 0.80778 0.63471 0.0
N1418 N 0.03412 0.80846 0.69928 0.0
N1419 N 1.0035 0.79292 0.66908 0.0
C1420 C 1.00837 0.78775 0.73706 0.0
C1421 C 0.02526 0.79633 0.7538 0.0
C1422 C 0.03333 0.47312 0.742 0.0
C1423 C 0.03351 0.4662 0.82121 0.0
C1424 C 0.01956 0.46727 0.69103 0.0
C1425 C 1.00487 0.45418 0.71573 0.0
H1426 H 0.0438 0.48383 0.72112 0.0
H1427 H 0.02034 0.47359 0.63252 0.0
S1428 S 0.99845 0.4315 0.91759 0.0
N1429 N 0.01738 0.44514 0.92152 0.0
N1430 N 0.99163 0.43419 0.82584 0.0
C1431 C 1.00492 0.44663 0.79308 0.0
C1432 C 0.01911 0.45262 0.84549 0.0
C1433 C 0.55272 0.56098 0.73814 0.0
C1434 C 0.55999 0.56823 0.81622 0.0
C1435 C 0.55829 0.55283 0.68628 0.0
C1436 C 0.57118 0.55086 0.70855 0.0
H1437 H 0.54181 0.56053 0.71978 0.0
H1438 H 0.55195 0.5474 0.62914 0.0
S1439 S 0.59618 0.56948 0.90069 0.0
N1440 N 0.5825 0.57469 0.90797 0.0
N1441 N 0.59251 0.55903 0.81141 0.0
C1442 C 0.57966 0.55945 0.78211 0.0
C1443 C 0.5742 0.56819 0.83502 0.0
C1444 C 0.46958 1.00844 0.8626 0.0
C1445 C 0.45497 0.99429 0.85122 0.0
C1446 C 0.47508 0.02155 0.80762 0.0
C1447 C 0.46656 0.02141 0.73506 0.0
H1448 H 0.47777 1.00894 0.91 0.0
H1449 H 0.48697 0.03135 0.81743 0.0
S1450 S 0.42711 0.98803 0.67404 0.0
N1451 N 0.43128 0.98173 0.76344 0.0
N1452 N 0.44214 1.00602 0.65571 0.0
C1453 C 0.45141 1.00785 0.72439 0.0
C1454 C 0.44545 0.99448 0.78344 0.0
C1455 C 0.99784 0.55563 0.35432 0.0
C1456 C 0.99992 0.56025 0.26745 0.0
C1457 C 1.01077 0.56114 0.41191 0.0
C1458 C 0.02663 0.5716 0.38633 0.0
H1459 H 0.98633 0.54649 0.37628 0.0
H1460 H 1.00834 0.55629 0.47628 0.0
S1461 S 0.03859 0.58818 0.16713 0.0
N1462 N 0.01922 0.57667 0.16016 0.0
N1463 N 0.04325 0.5871 0.26777 0.0
C1464 C 0.02876 0.57715 0.30119 0.0
C1465 C 0.01556 0.57145 0.24232 0.0
C1466 C 0.47217 0.45509 0.31309 0.0
C1467 C 0.48245 0.46471 0.2468 0.0
C1468 C 0.46382 0.46049 0.36647 0.0
C1469 C 0.46548 0.47573 0.35583 0.0
H1470 H 0.47127 0.44379 0.32711 0.0
H1471 H 0.45708 0.45323 0.42033 0.0
S1472 S 0.4881 0.50405 0.18301 0.0
N1473 N 0.49149 0.48928 0.1674 0.0
N1474 N 0.47623 0.49897 0.26629 0.0
C1475 C 0.4745 0.48459 0.28543 0.0
C1476 C 0.48286 0.47926 0.23178 0.0
C1477 C 0.57021 0.03094 0.33013 0.0
C1478 C 0.56946 0.02749 0.24177 0.0
C1479 C 0.56325 0.01872 0.39271 0.0
C1480 C 0.55556 1.00245 0.37039 0.0
H1481 H 0.57524 0.04314 0.35075 0.0
H1482 H 0.56344 0.02205 0.4592 0.0
S1483 S 0.55037 0.98698 0.14818 0.0
N1484 N 0.56025 1.00644 0.13594 0.0
N1485 N 0.54787 0.98378 0.25262 0.0
C1486 C 0.55531 0.99889 0.28266 0.0
C1487 C 0.56204 0.01129 0.21894 0.0
C1488 C 0.67607 0.79608 0.24105 0.0
C1489 C 0.69152 0.79996 0.21593 0.0
C1490 C 0.66302 0.78853 0.18503 0.0
C1491 C 0.66467 0.78434 0.10087 0.0
H1492 H 0.67413 0.79968 0.30357 0.0
H1493 H 0.65178 0.78708 0.20575 0.0
S1494 S 0.7023 0.79136 1.00263 0.0
N1495 N 0.70744 0.79839 0.10104 0.0
N1496 N 0.68307 0.78443 0.99565 0.0
C1497 C 0.67989 0.78746 0.07605 0.0
C1498 C 0.69322 0.79511 0.13347 0.0
C1499 C 0.24314 0.9072 0.07131 0.0
C1500 C 0.25067 0.89854 0.09546 0.0
C1501 C 0.23606 0.91255 0.13268 0.0
C1502 C 0.23562 0.90879 0.22047 0.0
H1503 H 0.24081 0.90797 1.00406 0.0
H1504 H 0.22887 0.91737 0.10973 0.0
S1505 S 0.25977 0.89323 0.31887 0.0
N1506 N 0.26214 0.89199 0.21482 0.0
N1507 N 0.24798 0.90078 0.32926 0.0
C1508 C 0.24563 0.90292 0.24588 0.0
C1509 C 0.25347 0.89824 0.18354 0.0
C1510 C 0.12505 0.32393 0.06827 0.0
C1511 C 0.12044 0.32401 0.15415 0.0
C1512 C 0.13371 0.33805 0.01978 0.0
C1513 C 0.13921 0.35327 0.05531 0.0
H1514 H 0.12271 0.31284 0.03941 0.0
H1515 H 0.13673 0.33705 0.9542 0.0
S1516 S 0.12777 0.36042 0.2704 0.0
N1517 N 0.11984 0.34093 0.26701 0.0
N1518 N 0.13687 0.3673 0.17768 0.0
C1519 C 0.13348 0.35356 0.13803 0.0
C1520 C 0.12407 0.33906 0.18684 0.0
C1521 C 0.68489 0.88483 0.53247 0.0
C1522 C 0.67079 0.88527 0.5478 0.0
C1523 C 0.69733 0.89031 0.59268 0.0
C1524 C 0.69665 0.89686 0.67188 0.0
H1525 H 0.68613 0.87947 0.47431 0.0
H1526 H 0.7073 0.88871 0.57855 0.0
S1527 S 0.66327 0.90207 0.74431 0.0
N1528 N 0.65761 0.8939 0.64841 0.0
N1529 N 0.68097 0.90428 0.76099 0.0
C1530 C 0.68318 0.89842 0.68651 0.0
C1531 C 0.67035 0.89272 0.62476 0.0
C1532 C 0.13033 0.78677 0.6076 0.0
C1533 C 0.13623 0.79379 0.52675 0.0
C1534 C 0.12137 0.79145 0.65946 0.0
C1535 C 0.11783 0.80317 0.63205 0.0
H1536 H 0.13361 0.7785 0.63356 0.0
H1537 H 0.11842 0.78687 0.72427 0.0
S1538 S 0.12844 0.82323 0.4205 0.0
N1539 N 0.1362 0.81159 0.41834 0.0
N1540 N 0.11969 0.82034 0.51482 0.0
C1541 C 0.12267 0.80926 0.54882 0.0
C1542 C 0.13175 0.80459 0.49663 0.0
C1543 C 0.22463 0.3454 0.67971 0.0
C1544 C 0.23018 0.33476 0.69214 0.0
C1545 C 0.23379 0.36058 0.64502 0.0
C1546 C 0.24814 0.36534 0.60114 0.0
H1547 H 0.21268 0.34189 0.69654 0.0
H1548 H 0.22842 0.36799 0.64463 0.0
S1549 S 0.26812 0.34128 0.59967 0.0
N1550 N 0.25202 0.33039 0.65754 0.0
N1551 N 0.26756 0.3573 0.56968 0.0
C1552 C 0.25387 0.35451 0.60712 0.0
C1553 C 0.24521 0.33957 0.65501 0.0
C1554 C 0.35457 0.13284 0.51594 0.0
C1555 C 0.36898 0.14644 0.49198 0.0
C1556 C 0.34135 0.12561 0.45937 0.0
C1557 C 0.34194 0.13179 0.37662 0.0
H1558 H 0.35321 0.12825 0.58058 0.0
H1559 H 0.33037 0.11576 0.48254 0.0
S1560 S 0.37728 0.16635 0.28048 0.0
N1561 N 0.38309 0.16507 0.37802 0.0
N1562 N 0.35883 0.15174 0.27255 0.0
C1563 C 0.35658 0.14493 0.35127 0.0
C1564 C 0.36987 0.1522 0.4085 0.0
C1565 C 0.9154 0.22161 0.51043 0.0
C1566 C 0.91728 0.22401 0.4212 0.0
C1567 C 0.9066 0.22672 0.55947 0.0
C1568 C 0.89917 0.23451 0.52205 0.0
H1569 H 0.91969 0.21457 0.54159 0.0
H1570 H 0.90449 0.22333 0.62645 0.0
S1571 S 0.90127 0.24483 0.29193 0.0
N1572 N 0.91189 0.23593 0.29849 0.0
N1573 N 0.8952 0.24524 0.39042 0.0
C1574 C 0.90196 0.23812 0.43417 0.0
C1575 C 0.91111 0.23305 0.38407 0.0
C1576 C 0.79208 0.66068 0.42914 0.0
C1577 C 0.79027 0.66302 0.51672 0.0
C1578 C 0.80072 0.67361 0.37245 0.0
C1579 C 0.80783 0.68961 0.39918 0.0
H1580 H 0.78802 0.64878 0.40572 0.0
H1581 H 0.8025 0.67102 0.30762 0.0
S1582 S 0.80719 0.70244 0.62235 0.0
N1583 N 0.79686 0.68289 0.62753 0.0
N1584 N 0.81236 0.70687 0.52071 0.0
C1585 C 0.80558 0.69215 0.48567 0.0
C1586 C 0.79704 0.679 0.544 0.0
C1587 C 0.34407 0.23038 0.93602 0.0
C1588 C 0.33427 0.21379 0.92287 0.0
C1589 C 0.35751 0.23675 0.99233 0.0
C1590 C 0.36202 0.22683 0.03591 0.0
H1591 H 0.34159 0.2385 0.90121 0.0
H1592 H 0.36432 0.24945 1.00175 0.0
S1593 S 0.34149 0.18286 0.01555 0.0
N1594 N 0.3303 0.1879 0.96089 0.0
N1595 N 0.35631 0.19966 0.04983 0.0
C1596 C 0.35257 0.2104 0.01929 0.0
C1597 C 0.33854 0.20398 0.96813 0.0
C1598 C 0.7834 0.11725 0.85982 0.0
C1599 C 0.79097 0.10943 0.89586 0.0
C1600 C 0.77665 0.12438 0.91098 0.0
C1601 C 0.77673 0.12373 1.00119 0.0
H1602 H 0.78432 0.11951 0.79138 0.0
H1603 H 0.77287 0.13186 0.87976 0.0
S1604 S 0.79284 0.10274 0.12815 0.0
N1605 N 0.79656 0.10016 0.02787 0.0
N1606 N 0.78351 0.11297 0.12378 0.0
C1607 C 0.78272 0.11448 0.03762 0.0
C1608 C 0.78984 0.10745 0.98535 0.0
C1609 C 0.89452 0.67567 0.86992 0.0
C1610 C 0.89958 0.69135 0.89673 0.0
C1611 C 0.88814 0.6627 0.92826 0.0
C1612 C 0.8869 0.66491 0.01674 0.0
H1613 H 0.89503 0.67332 0.80245 0.0
H1614 H 0.88357 0.65082 0.90333 0.0
S1615 S 0.90128 0.70391 0.12298 0.0
N1616 N 0.90467 0.70842 0.02003 0.0
N1617 N 0.89318 0.68443 0.12905 0.0
C1618 C 0.89307 0.6807 0.04504 0.0
C1619 C 0.8994 0.69381 0.9856 0.0
C1620 C 0.08903 0.54378 0.70125 0.0
C1621 C 0.0882 0.55758 0.72333 0.0
C1622 C 0.08874 0.53286 0.76344 0.0
C1623 C 0.08752 0.53499 0.85205 0.0
H1624 H 0.08871 0.54072 0.63418 0.0
H1625 H 0.08814 0.52203 0.74123 0.0
S1626 S 0.08562 0.56935 0.94582 0.0
N1627 N 0.08677 0.57278 0.84173 0.0
N1628 N 0.0864 0.5529 0.9576 0.0
C1629 C 0.08771 0.54931 0.8749 0.0
C1630 C 0.08803 0.56038 0.81149 0.0
C1631 C 0.49575 0.56694 0.76186 0.0
C1632 C 0.49292 0.56462 0.85047 0.0
C1633 C 0.4845 0.55647 0.7016 0.0
C1634 C 0.47008 0.54283 0.72664 0.0
H1635 H 0.50741 0.57558 0.73904 0.0
H1636 H 0.48816 0.55781 0.63498 0.0
S1637 S 0.45519 0.53397 0.94933 0.0
N1638 N 0.47289 0.54985 0.95868 0.0
N1639 N 0.45254 0.52978 0.84596 0.0
C1640 C 0.46624 0.54176 0.81383 0.0
C1641 C 0.47745 0.55271 0.87519 0.0
C1642 C 0.46134 0.92749 0.74141 0.0
C1643 C 0.46329 0.92934 0.83111 0.0
C1644 C 0.47346 0.92835 0.68655 0.0
C1645 C 0.48846 0.93145 0.71741 0.0
H1646 H 0.45123 0.92737 0.71217 0.0
H1647 H 0.4718 0.92862 0.618 0.0
S1648 S 0.49902 0.93506 0.94773 0.0
N1649 N 0.48085 0.93212 0.94828 0.0
N1650 N 0.50351 0.93455 0.84601 0.0
C1651 C 0.48988 0.9316 0.8072 0.0
C1652 C 0.4774 0.93032 0.8632 0.0
C1653 C 0.53634 0.08198 0.81359 0.0
C1654 C 0.53745 0.07717 0.73003 0.0
C1655 C 0.5484 0.08566 0.87546 0.0
C1656 C 0.56215 0.08448 0.85817 0.0
H1657 H 0.52559 0.0817 0.8336 0.0
H1658 H 0.54617 0.08805 0.94033 0.0
S1659 S 0.57239 0.07583 0.64363 0.0
N1660 N 0.55484 0.07412 0.62966 0.0
N1661 N 0.57691 0.08055 0.74552 0.0
C1662 C 0.56407 0.08126 0.77258 0.0
C1663 C 0.55188 0.07765 0.70935 0.0
C1664 C 0.95204 0.46219 0.83751 0.0
C1665 C 0.94404 0.46047 0.75949 0.0
C1666 C 0.95497 0.47439 0.89784 0.0
C1667 C 0.9496 0.48549 0.88717 0.0
H1668 H 0.9576 0.4551 0.84834 0.0
H1669 H 0.9623 0.47548 0.95207 0.0
S1670 S 0.92523 0.48444 0.70262 0.0
N1671 N 0.92919 0.47018 0.68032 0.0
N1672 N 0.93376 0.49207 0.79546 0.0
C1673 C 0.94024 0.48293 0.81359 0.0
C1674 C 0.93771 0.47079 0.75025 0.0
C1675 C 0.56239 0.4747 0.89778 0.0
C1676 C 0.54734 0.46106 0.88165 0.0
C1677 C 0.57222 0.48501 0.83134 0.0
C1678 C 0.56765 0.48208 0.74462 0.0
H1679 H 0.56589 0.47839 0.96329 0.0
H1680 H 0.58252 0.49612 0.84905 0.0
S1681 S 0.53136 0.44611 0.66591 0.0
N1682 N 0.53018 0.44385 0.77092 0.0
N1683 N 0.54814 0.46263 0.64685 0.0
C1684 C 0.55383 0.46718 0.72752 0.0
C1685 C 0.54394 0.45673 0.79533 0.0
C1686 C 0.93884 0.47133 0.22247 0.0
C1687 C 0.94005 0.48549 0.25583 0.0
C1688 C 0.93891 0.45941 0.27554 0.0
C1689 C 0.93832 0.45991 0.36598 0.0
H1690 H 0.93912 0.47004 0.15392 0.0
H1691 H 0.94067 0.45039 0.24534 0.0
S1692 S 0.93378 0.49056 0.48514 0.0
N1693 N 0.93695 0.49721 0.38555 0.0
N1694 N 0.93342 0.4734 0.48316 0.0
C1695 C 0.93589 0.47221 0.39846 0.0
C1696 C 0.93756 0.48522 0.34483 0.0
C1697 C 0.57573 0.48521 0.27829 0.0
C1698 C 0.57401 0.48153 0.36602 0.0
C1699 C 0.56403 0.47532 0.21871 0.0
C1700 C 0.54968 0.46171 0.24408 0.0
H1701 H 0.58499 0.49674 0.25698 0.0
H1702 H 0.5655 0.4794 0.15338 0.0
S1703 S 0.54244 0.44367 0.4592 0.0
N1704 N 0.55938 0.46046 0.46946 0.0
N1705 N 0.53686 0.44289 0.35863 0.0
C1706 C 0.54919 0.45649 0.32803 0.0
C1707 C 0.56152 0.46615 0.38818 0.0
C1708 C 0.56654 0.08372 0.34034 0.0
C1709 C 0.56591 0.08743 0.25377 0.0
C1710 C 0.55372 0.07954 0.39695 0.0
C1711 C 0.53958 0.079 0.37093 0.0
H1712 H 0.57607 0.08189 0.36165 0.0
H1713 H 0.55438 0.07528 0.45996 0.0
S1714 S 0.53258 0.08983 0.15437 0.0
N1715 N 0.55049 0.09211 0.14793 0.0
N1716 N 0.52662 0.08439 0.25422 0.0
C1717 C 0.53946 0.08443 0.28762 0.0
C1718 C 0.55259 0.08873 0.22973 0.0
C1719 C 0.48413 0.92953 0.29323 0.0
C1720 C 0.49277 0.9445 0.33417 0.0
C1721 C 0.47167 0.92631 0.23282 0.0
C1722 C 0.46583 0.937 0.21977 0.0
H1723 H 0.48731 0.92053 0.30519 0.0
H1724 H 0.46672 0.9155 0.19555 0.0
S1725 S 0.48531 0.97797 0.29899 0.0
N1726 N 0.49685 0.97116 0.32991 0.0
N1727 N 0.4697 0.96263 0.25733 0.0
C1728 C 0.47357 0.95112 0.26646 0.0
C1729 C 0.48797 0.95554 0.31146 0.0
C1730 C 0.07492 0.52617 0.32005 0.0
C1731 C 0.08201 0.5298 0.23808 0.0
C1732 C 0.07509 0.53788 0.3753 0.0
C1733 C 0.08187 0.55414 0.35248 0.0
H1734 H 0.06826 0.51388 0.34006 0.0
H1735 H 0.06887 0.53386 0.43575 0.0
S1736 S 0.1034 0.57072 0.14814 0.0
N1737 N 0.09734 0.55158 0.13988 0.0
N1738 N 0.09713 0.57326 0.24215 0.0
C1739 C 0.08981 0.55821 0.27264 0.0
C1740 C 0.0899 0.5462 0.21625 0.0
C1741 C 0.49209 0.56062 0.29006 0.0
C1742 C 0.49124 0.55376 0.20958 0.0
C1743 C 0.48071 0.55215 0.3549 0.0
C1744 C 0.46801 0.53633 0.34326 0.0
H1745 H 0.50229 0.57194 0.30585 0.0
H1746 H 0.48286 0.55747 0.4181 0.0
S1747 S 0.45846 0.51436 0.1382 0.0
N1748 N 0.47489 0.53114 0.11746 0.0
N1749 N 0.45411 0.5155 0.23934 0.0
C1750 C 0.46606 0.53017 0.26018 0.0
C1751 C 0.47753 0.53876 0.19394 0.0
C1752 C 0.75857 0.88108 0.05173 0.0
C1753 C 0.75617 0.89421 0.06538 0.0
C1754 C 0.75565 0.86959 0.11626 0.0
C1755 C 0.75037 0.87071 0.19862 0.0
H1756 H 0.76113 0.87871 0.98751 0.0
H1757 H 0.75631 0.85915 0.09918 0.0
S1758 S 0.74667 0.90499 0.27578 0.0
N1759 N 0.75121 0.909 0.17339 0.0
N1760 N 0.74599 0.88795 0.29424 0.0
C1761 C 0.74983 0.8848 0.21581 0.0
C1762 C 0.75277 0.89642 0.14997 0.0
C1763 C 0.13822 0.86671 0.12793 0.0
C1764 C 0.14251 0.86825 0.04056 0.0
C1765 C 0.14853 0.87754 0.19114 0.0
C1766 C 0.16366 0.89067 0.17116 0.0
H1767 H 0.12738 0.85639 0.14884 0.0
H1768 H 0.14503 0.87493 0.25773 0.0
S1769 S 0.18045 0.9006 0.95161 0.0
N1770 N 0.16295 0.88465 0.93776 0.0
N1771 N 0.1819 0.90455 0.05535 0.0
C1772 C 0.16768 0.8928 0.08362 0.0
C1773 C 0.15728 0.88176 0.01929 0.0
C1774 C 0.14333 0.27229 0.01438 0.0
C1775 C 0.15645 0.27052 0.03808 0.0
C1776 C 0.13154 0.27073 0.07379 0.0
C1777 C 0.1318 0.26665 0.16015 0.0
H1778 H 0.14293 0.27637 0.95044 0.0
H1779 H 0.12322 0.27436 0.05385 0.0
S1780 S 0.16062 0.25601 0.24999 0.0
N1781 N 0.167 0.26157 0.15095 0.0
N1782 N 0.14458 0.25751 0.26056 0.0
C1783 C 0.14347 0.26248 0.18087 0.0
C1784 C 0.15577 0.26463 0.12092 0.0
C1785 C 0.21829 0.41562 0.23264 0.0
C1786 C 0.23224 0.41552 0.20676 0.0
C1787 C 0.20736 0.416 0.17291 0.0
C1788 C 0.20988 0.41654 0.08345 0.0
H1789 H 0.21526 0.4145 0.2999 0.0
H1790 H 0.1963 0.41452 0.19694 0.0
S1791 S 0.24528 0.41799 0.98297 0.0
N1792 N 0.24821 0.41707 0.0861 0.0
N1793 N 0.22861 0.41835 0.97462 0.0
C1794 C 0.22453 0.41782 0.0582 0.0
C1795 C 0.2354 0.4172 0.11897 0.0
C1796 C 0.60625 0.80904 0.03196 0.0
C1797 C 0.60476 0.79435 0.05865 0.0
C1798 C 0.60664 0.82042 0.09069 0.0
C1799 C 0.6052 0.81768 0.1798 0.0
H1800 H 0.60898 0.81261 0.96542 0.0
H1801 H 0.60998 0.83212 0.06671 0.0
S1802 S 0.59808 0.78013 0.28213 0.0
N1803 N 0.59972 0.77711 0.17958 0.0
N1804 N 0.5999 0.79791 0.28938 0.0
C1805 C 0.60172 0.80224 0.20567 0.0
C1806 C 0.60158 0.79077 0.14579 0.0
C1807 C 0.22137 0.80481 0.21741 0.0
C1808 C 0.20547 0.7937 0.19494 0.0
C1809 C 0.23179 0.81741 0.16188 0.0
C1810 C 0.22677 0.81962 0.08091 0.0
H1811 H 0.22523 0.80492 0.28265 0.0
H1812 H 0.24316 0.82632 0.18637 0.0
S1813 S 0.18759 0.79233 0.98361 0.0
N1814 N 0.18638 0.78479 0.07999 0.0
N1815 N 0.20559 0.80779 0.97628 0.0
C1816 C 0.21163 0.80746 0.05413 0.0
C1817 C 0.20113 0.79471 0.11037 0.0
C1818 C 0.61493 0.81562 0.72118 0.0
C1819 C 0.61291 0.80033 0.70424 0.0
C1820 C 0.6136 0.82522 0.65652 0.0
C1821 C 0.61027 0.82018 0.57059 0.0
H1822 H 0.61891 0.82083 0.78404 0.0
H1823 H 0.61686 0.8373 0.67246 0.0
S1824 S 0.59913 0.77945 0.49746 0.0
N1825 N 0.60401 0.77954 0.5987 0.0
N1826 N 0.60144 0.79719 0.47785 0.0
C1827 C 0.60618 0.80413 0.55577 0.0
C1828 C 0.60748 0.79435 0.62193 0.0
C1829 C 0.19749 0.79857 0.67392 0.0
C1830 C 0.20275 0.80019 0.58827 0.0
C1831 C 0.20702 0.8093 0.73935 0.0
C1832 C 0.2224 0.82233 0.72348 0.0
H1833 H 0.18533 0.78996 0.68901 0.0
H1834 H 0.20172 0.80807 0.80188 0.0
S1835 S 0.24221 0.83161 0.5112 0.0
N1836 N 0.22492 0.81565 0.49293 0.0
N1837 N 0.24257 0.83542 0.61474 0.0
C1838 C 0.22825 0.82337 0.6397 0.0
C1839 C 0.21853 0.81249 0.57295 0.0
C1840 C 0.21919 0.41617 0.55108 0.0
C1841 C 0.23479 0.41963 0.57345 0.0
C1842 C 0.20796 0.41525 0.61186 0.0
C1843 C 0.21164 0.41844 0.69918 0.0
H1844 H 0.21499 0.41287 0.486 0.0
H1845 H 0.19587 0.41069 0.591 0.0
S1846 S 0.25207 0.43357 0.788 0.0
N1847 N 0.254 0.42958 0.68738 0.0
N1848 N 0.2334 0.42886 0.80076 0.0
C1849 C 0.22774 0.42395 0.72067 0.0
C1850 C 0.23914 0.42443 0.65856 0.0
C1851 C 0.13732 0.27351 0.63074 0.0
C1852 C 0.14072 0.27454 0.54249 0.0
C1853 C 0.14763 0.27292 0.69308 0.0
C1854 C 0.16221 0.2737 0.67165 0.0
H1855 H 0.12726 0.27439 0.65252 0.0
H1856 H 0.14468 0.27315 0.75991 0.0
S1857 S 0.1758 0.27431 0.4494 0.0
N1858 N 0.1588 0.27392 0.43722 0.0
N1859 N 0.17848 0.27411 0.55376 0.0
C1860 C 0.16516 0.27355 0.58368 0.0
C1861 C 0.15444 0.27375 0.51989 0.0
C1862 C 0.7568 0.87662 0.71501 0.0
C1863 C 0.75809 0.89118 0.68868 0.0
C1864 C 0.75682 0.86563 0.65574 0.0
C1865 C 0.7585 0.86882 0.5673 0.0
H1866 H 0.7536 0.87273 0.78084 0.0
H1867 H 0.75343 0.85383 0.67831 0.0
S1868 S 0.76686 0.90691 0.46771 0.0
N1869 N 0.76419 0.90928 0.57007 0.0
N1870 N 0.76492 0.8891 0.45906 0.0
C1871 C 0.76229 0.88432 0.5422 0.0
C1872 C 0.76194 0.89538 0.60252 0.0
C1873 C 0.14333 0.88539 0.6901 0.0
C1874 C 0.13065 0.87015 0.66617 0.0
C1875 C 0.15538 0.89568 0.63175 0.0
C1876 C 0.1554 0.89138 0.54549 0.0
H1877 H 0.14495 0.88872 0.75722 0.0
H1878 H 0.16557 0.90616 0.65688 0.0
S1879 S 0.12279 0.85543 0.44233 0.0
N1880 N 0.11755 0.85321 0.54447 0.0
N1881 N 0.13966 0.87232 0.43558 0.0
C1882 C 0.14171 0.87725 0.51843 0.0
C1883 C 0.12951 0.86676 0.57795 0.0
C1884 C 0.42968 0.20551 0.42882 0.0
C1885 C 0.43272 0.20894 0.51667 0.0
C1886 C 0.42788 0.21594 0.37256 0.0
C1887 C 0.42867 0.23018 0.40126 0.0
H1888 H 0.42655 0.19382 0.40552 0.0
H1889 H 0.42376 0.21176 0.30812 0.0
S1890 S 0.43983 0.24632 0.62098 0.0
N1891 N 0.43973 0.22932 0.62515 0.0
N1892 N 0.43522 0.24811 0.52129 0.0
C1893 C 0.43368 0.23466 0.48604 0.0
C1894 C 0.43604 0.2243 0.54273 0.0
C1895 C 0.8128 0.21247 0.50709 0.0
C1896 C 0.82813 0.22504 0.48406 0.0
C1897 C 0.80165 0.20164 0.4461 0.0
C1898 C 0.80496 0.20281 0.35717 0.0
H1899 H 0.80971 0.21022 0.57418 0.0
H1900 H 0.79096 0.1915 0.46993 0.0
S1901 S 0.84199 0.2351 0.25939 0.0
N1902 N 0.84494 0.23867 0.36319 0.0
N1903 N 0.82403 0.21964 0.24964 0.0
C1904 C 0.81943 0.2165 0.33276 0.0
C1905 C 0.83093 0.22718 0.39518 0.0
C1906 C 0.82489 0.60265 0.491 0.0
C1907 C 0.82353 0.6037 0.40173 0.0
C1908 C 0.81303 0.60145 0.54848 0.0
C1909 C 0.79927 0.60166 0.52059 0.0
H1910 H 0.83594 0.6045 0.51745 0.0
H1911 H 0.81562 0.60231 0.6165 0.0
S1912 S 0.78903 0.60248 0.29295 0.0
N1913 N 0.80618 0.60299 0.28818 0.0
N1914 N 0.78456 0.60149 0.39581 0.0
C1915 C 0.79709 0.60122 0.43145 0.0
C1916 C 0.80901 0.6021 0.37267 0.0
C1917 C 0.89071 0.76115 0.54792 0.0
C1918 C 0.9028 0.75731 0.53188 0.0
C1919 C 0.87865 0.75816 0.48727 0.0
C1920 C 0.87833 0.75158 0.40645 0.0
H1921 H 0.88942 0.76468 0.61197 0.0
H1922 H 0.86882 0.75963 0.50696 0.0
S1923 S 0.90898 0.74281 0.32368 0.0
N1924 N 0.91466 0.74881 0.42305 0.0
N1925 N 0.89294 0.7441 0.30848 0.0
C1926 C 0.89151 0.74974 0.38582 0.0
C1927 C 0.90354 0.75247 0.44799 0.0
C1928 C 0.28202 0.12956 0.47832 0.0
C1929 C 0.27712 0.12938 0.3934 0.0
C1930 C 0.28344 0.14123 0.53779 0.0
C1931 C 0.28014 0.15347 0.51623 0.0
H1932 H 0.28656 0.12185 0.49634 0.0
H1933 H 0.28884 0.14165 0.5991 0.0
S1934 S 0.26367 0.15634 0.30751 0.0
N1935 N 0.26646 0.14106 0.29516 0.0
N1936 N 0.26922 0.1628 0.40652 0.0
C1937 C 0.27343 0.15226 0.43493 0.0
C1938 C 0.27193 0.14032 0.37407 0.0
C1939 C 0.87664 0.13238 0.49983 0.0
C1940 C 0.87359 0.13983 0.56917 0.0
C1941 C 0.88944 0.14101 0.44117 0.0
C1942 C 0.90035 0.15759 0.44878 0.0
H1943 H 0.86853 0.11995 0.48738 0.0
H1944 H 0.89014 0.13478 0.38527 0.0
S1945 S 0.89855 0.18287 0.62123 0.0
N1946 N 0.88356 0.16511 0.64296 0.0
N1947 N 0.90716 0.18071 0.53523 0.0
C1948 C 0.89797 0.16492 0.52061 0.0
C1949 C 0.88483 0.15627 0.57944 0.0
C1950 C 0.27452 0.15209 0.96106 0.0
C1951 C 0.27679 0.15008 0.87377 0.0
C1952 C 0.27381 0.14126 0.02441 0.0
C1953 C 0.27566 0.12801 1.00457 0.0
H1954 H 0.27479 0.16284 0.98182 0.0
H1955 H 0.27379 0.14443 0.09107 0.0
S1956 S 0.27925 0.11579 0.78466 0.0
N1957 N 0.27816 0.13201 0.77012 0.0
N1958 N 0.27798 0.11272 0.88926 0.0
C1959 C 0.27628 0.12501 0.9171 0.0
C1960 C 0.27661 0.13576 0.8522 0.0
C1961 C 0.87855 0.1382 0.07752 0.0
C1962 C 0.89256 0.15197 0.04964 0.0
C1963 C 0.86632 0.12791 0.02022 0.0
C1964 C 0.86748 0.1306 0.93094 0.0
H1965 H 0.87644 0.13592 0.14544 0.0
H1966 H 0.85539 0.11853 0.04694 0.0
S1967 S 0.90219 0.16372 0.82181 0.0
N1968 N 0.90701 0.16675 0.92434 0.0
N1969 N 0.88465 0.14751 0.81734 0.0
C1970 C 0.88194 0.14359 0.90171 0.0
C1971 C 0.89427 0.15414 0.96024 0.0
C1972 C 0.90151 0.75685 0.99947 0.0
C1973 C 0.89722 0.75413 0.91253 0.0
C1974 C 0.89137 0.75779 0.0616 0.0
C1975 C 0.87625 0.75564 0.04056 0.0
H1976 H 0.91188 0.75654 0.02115 0.0
H1977 H 0.89461 0.7583 0.12847 0.0
S1978 S 0.8604 0.75033 0.81994 0.0
N1979 N 0.87775 0.75152 0.80721 0.0
N1980 N 0.85863 0.75249 0.92379 0.0
C1981 C 0.87265 0.7546 0.95287 0.0
C1982 C 0.88309 0.75398 0.88937 0.0
C1983 C 0.83351 0.61027 0.93657 0.0
C1984 C 0.82704 0.60349 0.01669 0.0
C1985 C 0.82433 0.61207 0.87207 0.0
C1986 C 0.80807 0.6073 0.88303 0.0
H1987 H 0.84612 0.61567 0.92625 0.0
H1988 H 0.83051 0.61839 0.81461 0.0
S1989 S 0.78445 0.58559 0.07363 0.0
N1990 N 0.80253 0.58952 0.09775 0.0
N1991 N 0.78544 0.59277 0.97633 0.0
C1992 C 0.80097 0.59864 0.9583 0.0
C1993 C 0.81041 0.59691 0.02498 0.0
C1994 C 0.43008 0.21683 0.91135 0.0
C1995 C 0.42583 0.20064 0.92042 0.0
C1996 C 0.42741 0.22545 0.97682 0.0
C1997 C 0.42047 0.21842 0.05611 0.0
H1998 H 0.43424 0.22255 0.84981 0.0
H1999 H 0.42957 0.23724 0.96217 0.0
S2000 S 0.41059 0.17763 0.12164 0.0
N2001 N 0.4166 0.17896 0.02134 0.0
N2002 N 0.41242 0.19502 0.14516 0.0
C2003 C 0.41831 0.203 0.07038 0.0
C2004 C 0.42076 0.19419 1.00285 0.0
C2005 C 0.80972 0.20284 0.84219 0.0
C2006 C 0.82223 0.21818 0.8649 0.0
C2007 C 0.79681 0.19323 0.8965 0.0
C2008 C 0.79545 0.19797 0.97963 0.0
H2009 H 0.81008 0.1974 0.78355 0.0
H2010 H 0.78887 0.18111 0.87679 0.0
S2011 S 0.8229 0.23798 0.06927 0.0
N2012 N 0.83068 0.23846 0.97433 0.0
N2013 N 0.80694 0.22028 0.0782 0.0
C2014 C 0.80699 0.21385 1.00107 0.0
C2015 C 0.82014 0.22387 0.94418 0.0
C2016 C 1.01022 0.45498 0.19063 0.0
C2017 C 0.02656 0.46245 0.21285 0.0
C2018 C 0.99769 0.44932 0.25299 0.0
C2019 C 1.00054 0.45084 0.34261 0.0
H2020 H 1.00704 0.45414 0.12353 0.0
H2021 H 0.98571 0.44466 0.23032 0.0
S2022 S 0.04083 0.4695 0.43833 0.0
N2023 N 0.0444 0.47073 0.33412 0.0
N2024 N 0.02142 0.46049 0.44892 0.0
C2025 C 0.01677 0.45793 0.36563 0.0
C2026 C 0.0295 0.46352 0.3022 0.0
C2027 C 0.55761 0.53472 0.28299 0.0
C2028 C 0.57174 0.54443 0.32905 0.0
C2029 C 0.55067 0.54072 0.22554 0.0
C2030 C 0.5573 0.55701 0.20629 0.0
H2031 H 0.55137 0.52202 0.29269 0.0
H2032 H 0.53953 0.53221 0.19704 0.0
S2033 S 0.59429 0.58839 0.30789 0.0
N2034 N 0.59207 0.57188 0.35121 0.0
N2035 N 0.57936 0.58309 0.2409 0.0
C2036 C 0.57158 0.56712 0.25089 0.0
C2037 C 0.57869 0.56091 0.31159 0.0
C2038 C 0.47581 1.00307 0.22807 0.0
C2039 C 0.45971 0.99273 0.20976 0.0
C2040 C 0.48139 0.01623 0.28378 0.0
C2041 C 0.47135 0.02024 0.3293 0.0
H2042 H 0.48453 1.00101 0.198 0.0
H2043 H 0.49405 0.02319 0.29312 0.0
S2044 S 0.42752 0.99718 0.31058 0.0
N2045 N 0.43333 0.98786 0.24388 0.0
N2046 N 0.4437 0.01204 0.35257 0.0
C2047 C 0.45498 1.01015 0.31253 0.0
C2048 C 0.44923 0.99666 0.25279 0.0
C2049 C 1.0043 0.56219 0.80471 0.0
C2050 C 1.00591 0.55825 0.89044 0.0
C2051 C 0.01718 0.56827 0.74374 0.0
C2052 C 0.03256 0.57102 0.76457 0.0
H2053 H 0.99274 0.55945 0.78231 0.0
H2054 H 1.0147 0.56974 0.67777 0.0
S2055 S 0.04425 0.56583 0.98345 0.0
N2056 N 0.02533 0.56017 0.99421 0.0
N2057 N 0.04869 0.57104 0.88198 0.0
C2058 C 0.03458 0.5685 0.85167 0.0
C2059 C 0.02163 0.56241 0.91341 0.0
C2060 C 0.47621 0.46745 0.72988 0.0
C2061 C 0.46911 0.4766 0.7529 0.0
C2062 C 0.48234 0.46086 0.79088 0.0
C2063 C 0.48231 0.46336 0.88043 0.0
H2064 H 0.47724 0.46545 0.66316 0.0
H2065 H 0.4881 0.45459 0.76683 0.0
S2066 S 0.46359 0.48481 0.9796 0.0
N2067 N 0.46111 0.48621 0.87573 0.0
N2068 N 0.4729 0.47463 0.98869 0.0
C2069 C 0.47443 0.47172 0.90508 0.0
C2070 C 0.46784 0.47809 0.84262 0.0
C2071 C 0.57014 0.01442 0.8743 0.0
C2072 C 0.56895 0.02812 0.85585 0.0
C2073 C 0.56375 1.0008 0.8184 0.0
C2074 C 0.55619 1.00033 0.73989 0.0
H2075 H 0.57508 0.01374 0.93519 0.0
H2076 H 0.56398 0.99032 0.8393 0.0
S2077 S 0.55115 0.0335 0.65771 0.0
N2078 N 0.55999 0.04013 0.75095 0.0
N2079 N 0.54925 0.01582 0.64578 0.0
C2080 C 0.55591 0.01443 0.71944 0.0
C2081 C 0.56188 0.02786 0.77684 0.0
C2082 C 0.67174 0.78273 0.65164 0.0
C2083 C 0.67454 0.78992 0.73396 0.0
C2084 C 0.68379 0.78827 0.58664 0.0
C2085 C 0.69954 0.80067 0.60121 0.0
H2086 H 0.65977 0.77406 0.63384 0.0
H2087 H 0.6804 0.78353 0.52242 0.0
S2088 S 0.71417 0.82112 0.8099 0.0
N2089 N 0.69522 0.80871 0.82813 0.0
N2090 N 0.71736 0.8184 0.70896 0.0
C2091 C 0.70275 0.80672 0.68549 0.0
C2092 C 0.69052 0.80144 0.75076 0.0
C2093 C 0.23645 0.90496 0.74046 0.0
C2094 C 0.24135 0.89368 0.72489 0.0
C2095 C 0.23088 0.91096 0.67324 0.0
C2096 C 0.22875 0.90496 0.58845 0.0
H2097 H 0.23601 0.90847 0.80587 0.0
H2098 H 0.22642 0.91879 0.69015 0.0
S2099 S 0.24145 0.87658 0.51538 0.0
N2100 N 0.24568 0.87863 0.61794 0.0
N2101 N 0.23376 0.88799 0.49453 0.0
C2102 C 0.23458 0.89443 0.57271 0.0
C2103 C 0.24109 0.88921 0.63986 0.0
C2104 C 0.13705 0.3385 0.69966 0.0
C2105 C 0.14489 0.35513 0.68408 0.0
C2106 C 0.12991 0.32676 0.63309 0.0
C2107 C 0.13045 0.33072 0.54487 0.0
H2108 H 0.1368 0.33443 0.76454 0.0
H2109 H 0.12473 0.3144 0.65079 0.0
S2110 S 0.14996 0.37244 0.46613 0.0
N2111 N 0.15226 0.37461 0.5711 0.0
N2112 N 0.14001 0.35314 0.44783 0.0
C2113 C 0.13793 0.34733 0.52872 0.0
C2114 C 0.14474 0.35925 0.59703 0.0
C2115 C 0.68407 0.89992 0.04561 0.0
C2116 C 0.69829 0.89994 0.06606 0.0
C2117 C 0.67064 0.89339 0.10239 0.0
C2118 C 0.671 0.88718 0.1841 0.0
H2119 H 0.68272 0.90352 0.98194 0.0
H2120 H 0.65964 0.89218 0.07945 0.0
S2121 S 0.7061 0.88717 0.27568 0.0
N2122 N 0.71192 0.8944 0.17816 0.0
N2123 N 0.68798 0.88408 0.28594 0.0
C2124 C 0.68577 0.88891 0.20802 0.0
C2125 C 0.69898 0.89473 0.14931 0.0
C2126 C 0.12744 0.78062 0.11079 0.0
C2127 C 0.14202 0.79099 0.15249 0.0
C2128 C 0.12104 0.78597 0.04306 0.0
C2129 C 0.12912 0.80187 0.01176 0.0
H2130 H 0.1208 0.76837 0.13115 0.0
H2131 H 0.10986 0.77754 0.01446 0.0
S2132 S 0.16692 0.83386 0.09399 0.0
N2133 N 0.16324 0.81847 0.15354 0.0
N2134 N 0.15204 0.82746 0.0279 0.0
C2135 C 0.14338 0.812 0.05188 0.0
C2136 C 0.14954 0.80689 0.12103 0.0
C2137 C 0.23548 0.35032 0.05248 0.0
C2138 C 0.22665 0.3338 0.07104 0.0
C2139 C 0.24315 0.36233 0.11722 0.0
C2140 C 0.2424 0.35874 0.20598 0.0
H2141 H 0.23624 0.3541 0.98651 0.0
H2142 H 0.24903 0.37464 0.09754 0.0
S2143 S 0.22145 0.31744 0.29161 0.0
N2144 N 0.21841 0.31481 0.18718 0.0
N2145 N 0.23214 0.33679 0.30684 0.0
C2146 C 0.23392 0.34221 0.22505 0.0
C2147 C 0.22634 0.33002 0.15893 0.0
C2148 C 0.35619 0.14192 0.02657 0.0
C2149 C 0.34049 0.13007 1.007 0.0
C2150 C 0.36847 0.148 0.96468 0.0
C2151 C 0.36578 0.14287 0.87869 0.0
H2152 H 0.3589 0.14713 0.09005 0.0
H2153 H 0.38001 0.15755 0.98329 0.0
S2154 S 0.32714 0.11195 0.79188 0.0
N2155 N 0.3233 0.11309 0.89418 0.0
N2156 N 0.34611 0.12484 0.77772 0.0
C2157 C 0.3503 0.13071 0.85835 0.0
C2158 C 0.33779 0.12424 0.92219 0.0
C2159 C 0.89089 0.2313 0.98486 0.0
C2160 C 0.89158 0.22755 0.89738 0.0
C2161 C 0.89744 0.22643 0.05324 0.0
C2162 C 0.90568 0.21798 0.0392 0.0
H2163 H 0.88427 0.23711 1.00159 0.0
H2164 H 0.89547 0.22882 0.11847 0.0
S2165 S 0.91183 0.2059 0.82259 0.0
N2166 N 0.90173 0.21498 0.80243 0.0
N2167 N 0.91448 0.20683 0.92749 0.0
C2168 C 0.90717 0.21496 0.95168 0.0
C2169 C 0.90007 0.21943 0.88254 0.0
C2170 C 0.81138 0.68466 0.86716 0.0
C2171 C 0.79864 0.66926 0.88336 0.0
C2172 C 0.81766 0.69703 0.92917 0.0
C2173 C 0.81056 0.69548 0.01016 0.0
H2174 H 0.81649 0.68716 0.80449 0.0
H2175 H 0.8284 0.70793 0.91358 0.0
S2176 S 0.77311 0.65962 0.07682 0.0
N2177 N 0.77708 0.65437 0.98316 0.0
N2178 N 0.78729 0.67808 0.09466 0.0
C2179 C 0.79613 0.68099 0.02259 0.0
C2180 C 0.79042 0.6679 0.96079 0.0
C2181 C 0.35264 0.23924 0.40104 0.0
C2182 C 0.36849 0.24407 0.42296 0.0
C2183 C 0.3399 0.2319 0.46149 0.0
C2184 C 0.34228 0.22829 0.54618 0.0
H2185 H 0.34991 0.2402 0.33503 0.0
H2186 H 0.32799 0.22768 0.43897 0.0
S2187 S 0.38197 0.24871 0.6478 0.0
N2188 N 0.38604 0.25137 0.54429 0.0
N2189 N 0.36252 0.23787 0.65583 0.0
C2190 C 0.35831 0.23618 0.5722 0.0
C2191 C 0.37123 0.24384 0.51125 0.0
C2192 C 0.78663 0.11799 0.51657 0.0
C2193 C 0.80142 0.11844 0.51439 0.0
C2194 C 0.78102 0.12357 0.44632 0.0
C2195 C 0.78997 0.12999 0.36971 0.0
H2196 H 0.77969 0.1141 0.57483 0.0
H2197 H 0.77036 0.12419 0.45575 0.0
S2198 S 0.82178 0.12127 0.31127 0.0
N2199 N 0.81977 0.11779 0.41493 0.0
N2200 N 0.80972 0.12788 0.28476 0.0
C2201 C 0.80269 0.12688 0.36129 0.0
C2202 C 0.80827 0.12126 0.4326 0.0
C2203 C 0.90101 0.69925 0.42366 0.0
C2204 C 0.90497 0.69751 0.50855 0.0
C2205 C 0.89443 0.68644 0.36373 0.0
C2206 C 0.89089 0.67083 0.38492 0.0
H2207 H 0.90204 0.71042 0.40463 0.0
H2208 H 0.8908 0.68857 0.30202 0.0
S2209 S 0.90076 0.66 0.59538 0.0
N2210 N 0.90655 0.67901 0.60673 0.0
N2211 N 0.89372 0.65511 0.49686 0.0
C2212 C 0.896 0.66921 0.46745 0.0
C2213 C 0.90304 0.6824 0.52814 0.0
C2214 C 0.99183 0.49166 0.23011 0.0
C2215 C 0.99732 0.50851 0.09348 0.0
C2216 C 1.00929 0.49097 0.19536 0.0
C2217 C 0.02178 0.50029 0.09979 0.0
H2218 H 0.98398 0.48698 0.28556 0.0
H2219 H 1.01227 0.48346 0.24889 0.0
S2220 S 0.02218 0.52988 0.85519 0.0
N2221 N 1.0069 0.52502 0.92328 0.0
N2222 N 0.03435 0.52345 0.88894 0.0
C2223 C 0.02655 0.51663 0.96205 0.0
C2224 C 1.00952 0.51726 0.99395 0.0
C2225 C 0.5322 0.52651 0.83766 0.0
C2226 C 0.52041 0.51048 0.83627 0.0
C2227 C 0.54716 0.53092 0.86956 0.0
C2228 C 0.55092 0.51934 0.89176 0.0
H2229 H 0.5289 0.53537 0.82924 0.0
H2230 H 0.55363 0.54233 0.89933 0.0
S2231 S 0.52856 0.47808 0.81188 0.0
N2232 N 0.51595 0.48447 0.80713 0.0
N2233 N 0.54538 0.49295 0.84801 0.0
C2234 C 0.54127 0.50425 0.85478 0.0
C2235 C 0.52546 0.49957 0.83271 0.0
C2236 C 0.51483 0.98535 0.98033 0.0
C2237 C 0.4981 0.9983 0.01904 0.0
C2238 C 0.5312 1.00537 0.99622 0.0
C2239 C 0.53043 0.02324 0.02803 0.0
H2240 H 0.51402 0.9741 0.96313 0.0
H2241 H 0.54376 1.00549 0.98378 0.0
S2242 S 0.49093 0.03739 0.08535 0.0
N2243 N 0.48353 0.01797 0.06093 0.0
N2244 N 0.51089 0.04785 0.08568 0.0
C2245 C 0.51346 0.03593 0.06451 0.0
C2246 C 0.4973 0.01651 0.04781 0.0
C2247 C 0.45352 0.96312 0.68286 0.0
C2248 C 0.45549 0.95638 0.60725 0.0
C2249 C 0.46151 0.97985 0.68127 0.0
C2250 C 0.46541 0.9877 0.60048 0.0
H2251 H 0.45216 0.95721 0.74369 0.0
H2252 H 0.4675 0.9857 0.73887 0.0
S2253 S 0.44272 0.96652 0.40634 0.0
N2254 N 0.44209 0.9525 0.46932 0.0
N2255 N 0.4527 0.98351 0.45886 0.0
C2256 C 0.45569 0.97811 0.53255 0.0
C2257 C 0.44978 0.96146 0.53848 0.0
C2258 C 0.03247 0.51199 0.51453 0.0
C2259 C 0.01835 0.52499 0.59149 0.0
C2260 C 1.01348 0.49416 0.52706 0.0
C2261 C 0.99517 0.49208 0.57421 0.0
H2262 H 0.04364 0.51443 0.4858 0.0
H2263 H 1.01455 0.48307 0.49645 0.0
S2264 S 0.97881 0.52485 0.71722 0.0
N2265 N 0.99798 0.53465 0.68493 0.0
N2266 N 0.96933 0.50537 0.69223 0.0
C2267 C 0.98149 0.50498 0.65433 0.0
C2268 C 1.00019 0.52261 0.64532 0.0
C2269 C 0.52246 0.53972 0.49993 0.0
C2270 C 0.50345 0.50953 0.51261 0.0
C2271 C 0.53733 0.53373 0.49342 0.0
C2272 C 0.53459 0.51364 0.50461 0.0
H2273 H 0.52293 0.55115 0.49955 0.0
H2274 H 0.5505 0.54566 0.48341 0.0
S2275 S 0.49156 0.46037 0.51596 0.0
N2276 N 0.48589 0.47427 0.51334 0.0
N2277 N 0.51137 0.4682 0.5151 0.0
C2278 C 0.51538 0.48356 0.51114 0.0
C2279 C 0.50049 0.48901 0.50993 0.0
C2280 C 0.65129 0.81095 0.63415 0.0
C2281 C 0.64737 0.82255 0.61299 0.0
C2282 C 0.66704 0.81634 0.65779 0.0
C2283 C 0.67779 0.83278 0.65758 0.0
H2284 H 0.64446 0.79907 0.6084 0.0
H2285 H 0.67147 0.80869 0.64126 0.0
S2286 S 0.66452 0.86054 0.72739 0.0
N2287 N 0.64877 0.84549 0.68403 0.0
N2288 N 0.67898 0.85645 0.71967 0.0
C2289 C 0.67096 0.84178 0.68519 0.0
C2290 C 0.65473 0.83588 0.66655 0.0
C2291 C 0.21497 0.83619 0.2677 0.0
C2292 C 0.19289 0.84482 0.27615 0.0
C2293 C 0.2289 0.84984 0.21436 0.0
C2294 C 0.22826 0.86438 0.17614 0.0
H2295 H 0.21644 0.82691 0.29819 0.0
H2296 H 0.23969 0.8494 0.20589 0.0
S2297 S 0.19716 0.87948 0.13834 0.0
N2298 N 0.18551 0.86479 0.20258 0.0
N2299 N 0.21429 0.87984 0.1319 0.0
C2300 C 0.21299 0.86774 0.1816 0.0
C2301 C 0.19528 0.85935 0.22531 0.0
C2302 C 0.1785 0.32731 0.22777 0.0
C2303 C 0.17038 0.33268 0.37678 0.0
C2304 C 0.19733 0.34458 0.2542 0.0
C2305 C 0.20251 0.35698 0.35139 0.0
H2306 H 0.17437 0.31868 0.17569 0.0
H2307 H 0.20682 0.34713 0.19556 0.0
S2308 S 0.17786 0.35915 0.61104 0.0
N2309 N 0.16583 0.3437 0.54669 0.0
N2310 N 0.19631 0.37035 0.57226 0.0
C2311 C 0.19413 0.362 0.49998 0.0
C2312 C 0.17566 0.34518 0.47537 0.0
C2313 C 0.19279 0.34868 0.78744 0.0
C2314 C 0.17722 0.34187 0.8204 0.0
C2315 C 0.20558 0.35162 0.84013 0.0
C2316 C 0.20434 0.35177 0.93005 0.0
H2317 H 0.1949 0.35002 0.71917 0.0
H2318 H 0.2172 0.35721 0.81161 0.0
S2319 S 0.16683 0.33489 0.05021 0.0
N2320 N 0.16215 0.33677 0.95181 0.0
N2321 N 0.18561 0.33988 0.04701 0.0
C2322 C 0.18881 0.34334 0.96254 0.0
C2323 C 0.176 0.34146 0.91066 0.0
C2324 C 0.68355 0.85798 0.95025 0.0
C2325 C 0.68602 0.84636 0.99222 0.0
C2326 C 0.6767 0.86557 0.99356 0.0
C2327 C 0.66811 0.85808 0.06754 0.0
H2328 H 0.68624 0.86112 0.88391 0.0
H2329 H 0.67353 0.87284 0.95536 0.0
S2330 S 0.6829 0.84063 0.22687 0.0
N2331 N 0.68866 0.83735 0.13368 0.0
N2332 N 0.67439 0.85125 0.20678 0.0
C2333 C 0.67646 0.85305 0.12097 0.0
C2334 C 0.68404 0.84543 0.08156 0.0
C2335 C 0.19898 0.88101 0.6924 0.0
C2336 C 0.19304 0.86918 0.62865 0.0
C2337 C 0.19593 0.87545 0.77718 0.0
C2338 C 0.19107 0.85922 0.79273 0.0
H2339 H 0.19969 0.89228 0.68008 0.0
H2340 H 0.19545 0.88316 0.82552 0.0
S2341 S 0.20088 0.83636 0.63715 0.0
N2342 N 0.20199 0.8513 0.58181 0.0
N2343 N 0.19598 0.8383 0.73588 0.0
C2344 C 0.19544 0.85186 0.72755 0.0
C2345 C 0.19858 0.8587 0.64432 0.0
C2346 C 0.35244 0.19828 0.78818 0.0
C2347 C 0.3564 0.18647 0.80849 0.0
C2348 C 0.36244 0.21417 0.81025 0.0
C2349 C 0.3781 0.21862 0.82637 0.0
H2350 H 0.34268 0.19594 0.7486 0.0
H2351 H 0.35949 0.22285 0.78845 0.0
S2352 S 0.3866 0.19333 0.96788 0.0
N2353 N 0.37123 0.18062 0.91133 0.0
N2354 N 0.39107 0.21135 0.93672 0.0
C2355 C 0.37944 0.20748 0.87866 0.0
C2356 C 0.36891 0.19099 0.86492 0.0
C2357 C 0.79886 0.14873 0.61789 0.0
C2358 C 0.79901 0.15455 0.51568 0.0
C2359 C 0.80926 0.15509 0.70622 0.0
C2360 C 0.8237 0.17137 0.68413 0.0
H2361 H 0.78792 0.13757 0.63486 0.0
H2362 H 0.80537 0.14828 0.76468 0.0
S2363 S 0.82915 0.19104 0.38655 0.0
N2364 N 0.81226 0.17387 0.3927 0.0
N2365 N 0.83731 0.19616 0.4827 0.0
C2366 C 0.82616 0.1837 0.5292 0.0
C2367 C 0.81173 0.1706 0.47678 0.0
C2368 C 0.85663 0.69252 0.50155 0.0
C2369 C 0.84736 0.68864 0.5834 0.0
C2370 C 0.86369 0.6841 0.45454 0.0
C2371 C 0.86245 0.66859 0.47073 0.0
H2372 H 0.85915 0.70332 0.46909 0.0
H2373 H 0.87021 0.69012 0.39784 0.0
S2374 S 0.86344 0.66251 0.75201 0.0
N2375 N 0.85149 0.67539 0.72949 0.0
N2376 N 0.86208 0.65205 0.63004 0.0
C2377 C 0.85305 0.65731 0.54981 0.0
C2378 C 0.84456 0.67486 0.63029 0.0
C2379 C 0.81124 0.66556 0.12733 0.0
C2380 C 0.80764 0.65207 0.0799 0.0
C2381 C 0.8272 0.67567 0.14529 0.0
C2382 C 0.83903 0.67454 0.09796 0.0
H2383 H 0.80258 0.66528 0.17132 0.0
H2384 H 0.82996 0.68321 0.1998 0.0
S2385 S 0.8319 0.65247 0.89733 0.0
N2386 N 0.8141 0.64626 0.93788 0.0
N2387 N 0.84457 0.66608 0.96301 0.0
C2388 C 0.83431 0.66617 0.02133 0.0
C2389 C 0.81785 0.65573 1.00764 0.0
C2390 C 0.3242 0.19847 0.40617 0.0
C2391 C 0.33515 0.20425 0.33746 0.0
C2392 C 0.30843 0.19469 0.38899 0.0
C2393 C 0.30398 0.19206 0.30163 0.0
H2394 H 0.32691 0.19474 0.46591 0.0
H2395 H 0.29956 0.18903 0.43794 0.0
S2396 S 0.32851 0.22209 0.14304 0.0
N2397 N 0.34111 0.22026 0.2063 0.0
N2398 N 0.31067 0.21063 0.18344 0.0
C2399 C 0.31464 0.20527 0.25392 0.0
C2400 C 0.3309 0.21037 0.26631 0.0
C2401 C 0.83822 0.16507 0.31663 0.0
C2402 C 0.83403 0.17112 0.21233 0.0
C2403 C 0.85667 0.16719 0.35476 0.0
C2404 C 0.86656 0.17927 0.20372 0.0
H2405 H 0.82813 0.15866 0.37318 0.0
H2406 H 0.86034 0.16416 0.41456 0.0
S2407 S 0.86136 0.194 0.95144 0.0
N2408 N 0.84286 0.18831 0.98526 0.0
N2409 N 0.87252 0.19133 0.02519 0.0
C2410 C 0.86212 0.18485 0.09735 0.0
C2411 C 0.84391 0.18291 0.06252 0.0
loop_
_geom_bond_atom_site_label_1
_geom_bond_atom_site_label_2
_geom_bond_distance
_geom_bond_site_symmetry_2
_ccdc_geom_bond_type
C0 O16 1.251 . S
C0 O18 1.254 . S
N1 C2 1.333 1_554 S
N1 C6 1.307 . S
N1 Zn7 2.020 . S
C2 N1 1.333 1_556 S
C2 C3 1.379 . S
C2 H20 0.952 . S
C3 C2 1.379 . S
C3 C4 1.387 1_556 S
C3 H30 0.949 . S
C4 C3 1.387 1_554 S
C4 C5 1.360 . S
C5 C4 1.360 . S
C5 C6 1.370 . S
C5 H31 0.950 . S
C6 N1 1.307 . S
C6 C5 1.370 . S
C6 H24 0.948 . S
Zn7 N1 2.020 . S
Zn7 O16 2.039 1_554 S
Zn7 O22 2.034 . S
Zn7 O26 2.025 . S
Zn7 O28 2.024 1_554 S
C8 O27 1.246 . S
C8 O28 1.249 . S
N9 C10 1.307 . S
N9 C11 1.333 . S
N9 Zn15 2.020 . S
C10 N9 1.307 . S
C10 C14 1.370 1_455 S
C10 H21 0.949 1_554 S
C11 N9 1.333 . S
C11 C12 1.379 . S
C11 H19 0.952 . S
C12 C11 1.379 . S
C12 C13 1.390 . S
C12 H32 0.949 . S
C13 C12 1.390 . S
C13 C14 1.357 1_455 S
C14 C10 1.370 1_655 S
C14 C13 1.357 1_655 S
C14 H33 0.950 . S
Zn15 N9 2.020 . S
Zn15 O18 2.025 1_554 S
Zn15 O23 2.024 . S
Zn15 O25 2.039 . S
Zn15 O27 2.034 1_554 S
O16 C0 1.251 . S
O16 Zn7 2.039 1_556 S
C17 O22 1.246 . S
C17 O23 1.249 . S
O18 C0 1.254 . S
O18 Zn15 2.025 1_556 S
H19 C11 0.952 . S
H20 C2 0.952 . S
H21 C10 0.949 1_556 S
O22 Zn7 2.034 . S
O22 C17 1.246 . S
O23 Zn15 2.024 . S
O23 C17 1.249 . S
H24 C6 0.948 . S
O25 Zn15 2.039 . S
O25 C29 1.251 . S
O26 Zn7 2.025 . S
O26 C29 1.254 . S
O27 C8 1.246 . S
O27 Zn15 2.034 1_556 S
O28 Zn7 2.024 1_556 S
O28 C8 1.249 . S
C29 O25 1.251 . S
C29 O26 1.254 . S
H30 C3 0.949 . S
H31 C5 0.950 . S
H32 C12 0.949 . S
H33 C14 0.950 . S
C34 O50 1.251 . S
C34 O52 1.254 . S
N35 C36 1.333 1_554 S
N35 C40 1.307 . S
N35 Zn41 2.020 . S
C36 N35 1.333 1_556 S
C36 C37 1.379 . S
C36 H54 0.952 . S
C37 C36 1.379 . S
C37 C38 1.390 1_556 S
C37 H64 0.949 . S
C38 C37 1.390 1_554 S
C38 C39 1.357 . S
C39 C38 1.357 . S
C39 C40 1.370 . S
C39 H65 0.950 . S
C40 N35 1.307 . S
C40 C39 1.370 . S
C40 H58 0.948 . S
Zn41 N35 2.020 . S
Zn41 O50 2.039 1_554 S
Zn41 O56 2.034 . S
Zn41 O60 2.025 . S
Zn41 O62 2.024 1_554 S
C42 O61 1.246 . S
C42 O62 1.249 . S
N43 C44 1.307 . S
N43 C45 1.333 . S
N43 Zn49 2.020 . S
C44 N43 1.307 . S
C44 C48 1.370 . S
C44 H55 0.949 . S
C45 N43 1.333 . S
C45 C46 1.379 . S
C45 H53 0.952 . S
C46 C45 1.379 . S
C46 C47 1.390 . S
C46 H66 0.949 . S
C47 C46 1.390 . S
C47 C48 1.357 . S
C48 C44 1.370 . S
C48 C47 1.357 . S
C48 H67 0.950 . S
Zn49 N43 2.020 . S
Zn49 O52 2.025 1_554 S
Zn49 O57 2.024 . S
Zn49 O59 2.039 . S
Zn49 O61 2.034 1_554 S
O50 C34 1.251 . S
O50 Zn41 2.039 1_556 S
C51 O56 1.246 . S
C51 O57 1.249 . S
O52 C34 1.254 . S
O52 Zn49 2.025 1_556 S
H53 C45 0.952 . S
H54 C36 0.952 . S
H55 C44 0.949 . S
O56 Zn41 2.034 . S
O56 C51 1.246 . S
O57 Zn49 2.024 . S
O57 C51 1.249 . S
H58 C40 0.948 . S
O59 Zn49 2.039 . S
O59 C63 1.251 . S
O60 Zn41 2.025 . S
O60 C63 1.254 . S
O61 C42 1.246 . S
O61 Zn49 2.034 1_556 S
O62 Zn41 2.024 1_556 S
O62 C42 1.249 . S
C63 O59 1.251 . S
C63 O60 1.254 . S
H64 C37 0.949 . S
H65 C39 0.950 . S
H66 C46 0.949 . S
H67 C48 0.950 . S
C68 O84 1.251 . S
C68 O86 1.254 . S
N69 C70 1.333 1_554 S
N69 C74 1.307 . S
N69 Zn75 2.020 . S
C70 N69 1.333 1_556 S
C70 C71 1.379 . S
C70 H88 0.952 . S
C71 C70 1.379 . S
C71 C72 1.390 1_556 S
C71 H98 0.949 . S
C72 C71 1.390 1_554 S
C72 C73 1.357 . S
C73 C72 1.357 . S
C73 C74 1.370 . S
C73 H99 0.950 . S
C74 N69 1.307 . S
C74 C73 1.370 . S
C74 H92 0.948 . S
Zn75 N69 2.020 . S
Zn75 O84 2.039 1_554 S
Zn75 O90 2.034 . S
Zn75 O94 2.025 . S
Zn75 O96 2.024 1_554 S
C76 O95 1.246 . S
C76 O96 1.249 . S
N77 C78 1.307 . S
N77 C79 1.333 . S
N77 Zn83 2.020 . S
C78 N77 1.307 . S
C78 C82 1.370 1_565 S
C78 H89 0.949 . S
C79 N77 1.333 . S
C79 C80 1.379 . S
C79 H87 0.952 . S
C80 C79 1.379 . S
C80 C81 1.390 . S
C80 H100 0.949 . S
C81 C80 1.390 . S
C81 C82 1.357 1_565 S
C82 C78 1.370 1_545 S
C82 C81 1.357 1_545 S
C82 H101 0.950 . S
Zn83 N77 2.020 . S
Zn83 O86 2.025 1_554 S
Zn83 O91 2.024 . S
Zn83 O93 2.039 . S
Zn83 O95 2.034 1_554 S
O84 C68 1.251 . S
O84 Zn75 2.039 1_556 S
C85 O90 1.246 . S
C85 O91 1.249 . S
O86 C68 1.254 . S
O86 Zn83 2.025 1_556 S
H87 C79 0.952 . S
H88 C70 0.952 . S
H89 C78 0.949 . S
O90 Zn75 2.034 . S
O90 C85 1.246 . S
O91 Zn83 2.024 . S
O91 C85 1.249 . S
H92 C74 0.948 . S
O93 Zn83 2.039 . S
O93 C97 1.251 . S
O94 Zn75 2.025 . S
O94 C97 1.254 . S
O95 C76 1.246 . S
O95 Zn83 2.034 1_556 S
O96 Zn75 2.024 1_556 S
O96 C76 1.249 . S
C97 O93 1.251 . S
C97 O94 1.254 . S
H98 C71 0.949 . S
H99 C73 0.950 . S
H100 C80 0.949 . S
H101 C82 0.950 . S
C102 O118 1.251 . S
C102 O120 1.254 . S
N103 C104 1.333 . S
N103 C108 1.307 . S
N103 Zn109 2.020 . S
C104 N103 1.333 . S
C104 C105 1.379 . S
C104 H122 0.952 . S
C105 C104 1.379 . S
C105 C106 1.390 . S
C105 H132 0.949 . S
C106 C105 1.390 . S
C106 C107 1.357 . S
C107 C106 1.357 . S
C107 C108 1.370 . S
C107 H133 0.950 . S
C108 N103 1.307 . S
C108 C107 1.370 . S
C108 H126 0.948 . S
Zn109 N103 2.020 . S
Zn109 O118 2.039 . S
Zn109 O124 2.034 . S
Zn109 O128 2.025 . S
Zn109 O130 2.024 . S
C110 O129 1.246 . S
C110 O130 1.249 . S
N111 C112 1.307 . S
N111 C113 1.333 . S
N111 Zn117 2.020 . S
C112 N111 1.307 . S
C112 C116 1.370 1_545 S
C112 H123 0.948 . S
C113 N111 1.333 . S
C113 C114 1.379 . S
C113 H121 0.952 . S
C114 C113 1.379 . S
C114 C115 1.390 . S
C114 H134 0.949 . S
C115 C114 1.390 . S
C115 C116 1.357 1_545 S
C116 C112 1.370 1_565 S
C116 C115 1.357 1_565 S
C116 H135 0.950 . S
Zn117 N111 2.020 . S
Zn117 O120 2.025 . S
Zn117 O125 2.024 . S
Zn117 O127 2.039 . S
Zn117 O129 2.034 . S
O118 C102 1.251 . S
O118 Zn109 2.039 . S
C119 O124 1.246 . S
C119 O125 1.249 . S
O120 C102 1.254 . S
O120 Zn117 2.025 . S
H121 C113 0.952 . S
H122 C104 0.952 . S
H123 C112 0.948 . S
O124 Zn109 2.034 . S
O124 C119 1.246 . S
O125 Zn117 2.024 . S
O125 C119 1.249 . S
H126 C108 0.948 . S
O127 Zn117 2.039 . S
O127 C131 1.251 . S
O128 Zn109 2.025 . S
O128 C131 1.254 . S
O129 C110 1.246 . S
O129 Zn117 2.034 . S
O130 Zn109 2.024 . S
O130 C110 1.249 . S
C131 O127 1.251 . S
C131 O128 1.254 . S
H132 C105 0.949 . S
H133 C107 0.950 . S
H134 C114 0.949 . S
H135 C116 0.950 . S
C136 O152 1.251 . S
C136 O154 1.254 . S
N137 C138 1.333 . S
N137 C142 1.307 . S
N137 Zn143 2.020 . S
C138 N137 1.333 . S
C138 C139 1.379 . S
C138 H156 0.952 . S
C139 C138 1.379 . S
C139 C140 1.390 . S
C139 H166 0.949 . S
C140 C139 1.390 . S
C140 C141 1.357 . S
C141 C140 1.357 . S
C141 C142 1.370 . S
C141 H167 0.950 . S
C142 N137 1.307 . S
C142 C141 1.370 . S
C142 H160 0.948 . S
Zn143 N137 2.020 . S
Zn143 O152 2.039 . S
Zn143 O158 2.034 . S
Zn143 O162 2.025 . S
Zn143 O164 2.024 . S
C144 O163 1.246 . S
C144 O164 1.249 . S
N145 C146 1.307 . S
N145 C147 1.333 . S
N145 Zn151 2.020 . S
C146 N145 1.307 . S
C146 C150 1.370 1_655 S
C146 H157 0.948 . S
C147 N145 1.333 . S
C147 C148 1.379 . S
C147 H155 0.952 . S
C148 C147 1.379 . S
C148 C149 1.390 . S
C148 H168 0.949 . S
C149 C148 1.390 . S
C149 C150 1.357 1_655 S
C150 C146 1.370 1_455 S
C150 C149 1.357 1_455 S
C150 H169 0.950 . S
Zn151 N145 2.020 . S
Zn151 O154 2.025 . S
Zn151 O159 2.024 . S
Zn151 O161 2.039 . S
Zn151 O163 2.034 . S
O152 C136 1.251 . S
O152 Zn143 2.039 . S
C153 O158 1.246 . S
C153 O159 1.249 . S
O154 C136 1.254 . S
O154 Zn151 2.025 . S
H155 C147 0.952 . S
H156 C138 0.952 . S
H157 C146 0.948 . S
O158 Zn143 2.034 . S
O158 C153 1.246 . S
O159 Zn151 2.024 . S
O159 C153 1.249 . S
H160 C142 0.948 . S
O161 Zn151 2.039 . S
O161 C165 1.251 . S
O162 Zn143 2.025 . S
O162 C165 1.254 . S
O163 C144 1.246 . S
O163 Zn151 2.034 . S
O164 Zn143 2.024 . S
O164 C144 1.249 . S
C165 O161 1.251 . S
C165 O162 1.254 . S
H166 C139 0.949 . S
H167 C141 0.950 . S
H168 C148 0.949 . S
H169 C150 0.950 . S
C170 O186 1.251 . S
C170 O188 1.254 . S
N171 C172 1.333 . S
N171 C176 1.307 . S
N171 Zn177 2.020 . S
C172 N171 1.333 . S
C172 C173 1.379 . S
C172 H190 0.952 . S
C173 C172 1.379 . S
C173 C174 1.390 . S
C173 H200 0.949 . S
C174 C173 1.390 . S
C174 C175 1.357 . S
C175 C174 1.357 . S
C175 C176 1.370 . S
C175 H201 0.950 . S
C176 N171 1.307 . S
C176 C175 1.370 . S
C176 H194 0.948 . S
Zn177 N171 2.020 . S
Zn177 O186 2.039 . S
Zn177 O192 2.034 . S
Zn177 O196 2.025 . S
Zn177 O198 2.024 . S
C178 O197 1.246 . S
C178 O198 1.249 . S
N179 C180 1.307 . S
N179 C181 1.333 . S
N179 Zn185 2.020 . S
C180 N179 1.307 . S
C180 C184 1.370 . S
C180 H191 0.948 . S
C181 N179 1.333 . S
C181 C182 1.379 . S
C181 H189 0.952 . S
C182 C181 1.379 . S
C182 C183 1.390 . S
C182 H202 0.949 . S
C183 C182 1.390 . S
C183 C184 1.357 . S
C184 C180 1.370 . S
C184 C183 1.357 . S
C184 H203 0.950 . S
Zn185 N179 2.020 . S
Zn185 O188 2.025 . S
Zn185 O193 2.024 . S
Zn185 O195 2.039 . S
Zn185 O197 2.034 . S
O186 C170 1.251 . S
O186 Zn177 2.039 . S
C187 O192 1.246 . S
C187 O193 1.249 . S
O188 C170 1.254 . S
O188 Zn185 2.025 . S
H189 C181 0.952 . S
H190 C172 0.952 . S
H191 C180 0.948 . S
O192 Zn177 2.034 . S
O192 C187 1.246 . S
O193 Zn185 2.024 . S
O193 C187 1.249 . S
H194 C176 0.948 . S
O195 Zn185 2.039 . S
O195 C199 1.251 . S
O196 Zn177 2.025 . S
O196 C199 1.254 . S
O197 C178 1.246 . S
O197 Zn185 2.034 . S
O198 Zn177 2.024 . S
O198 C178 1.249 . S
C199 O195 1.251 . S
C199 O196 1.254 . S
H200 C173 0.949 . S
H201 C175 0.950 . S
H202 C182 0.949 . S
H203 C184 0.950 . S
C204 O220 1.251 . S
C204 O222 1.254 . S
N205 C206 1.333 . S
N205 C210 1.307 . S
N205 Zn211 2.020 . S
C206 N205 1.333 . S
C206 C207 1.379 . S
C206 H224 0.952 1_554 S
C207 C206 1.379 . S
C207 C208 1.390 . S
C207 H234 0.949 1_554 S
C208 C207 1.390 . S
C208 C209 1.357 1_655 S
C209 C208 1.357 1_455 S
C209 C210 1.370 1_455 S
C209 H235 0.950 . S
C210 N205 1.307 . S
C210 C209 1.370 1_655 S
C210 H228 0.948 . S
Zn211 N205 2.020 . S
Zn211 O220 2.039 1_554 S
Zn211 O226 2.034 . S
Zn211 O230 2.025 . S
Zn211 O232 2.024 1_554 S
C212 O231 1.246 . S
C212 O232 1.249 . S
N213 C214 1.307 . S
N213 C215 1.333 . S
N213 Zn219 2.020 . S
C214 N213 1.307 . S
C214 C218 1.370 . S
C214 H225 0.948 . S
C215 N213 1.333 . S
C215 C216 1.379 . S
C215 H223 0.952 . S
C216 C215 1.379 . S
C216 C217 1.390 . S
C216 H236 0.949 . S
C217 C216 1.390 . S
C217 C218 1.357 . S
C218 C214 1.370 . S
C218 C217 1.357 . S
C218 H237 0.950 . S
Zn219 N213 2.020 . S
Zn219 O222 2.025 1_554 S
Zn219 O227 2.024 . S
Zn219 O229 2.039 . S
Zn219 O231 2.034 1_554 S
O220 C204 1.251 . S
O220 Zn211 2.039 1_556 S
C221 O226 1.246 . S
C221 O227 1.249 . S
O222 C204 1.254 . S
O222 Zn219 2.025 1_556 S
H223 C215 0.952 . S
H224 C206 0.952 1_556 S
H225 C214 0.948 . S
O226 Zn211 2.034 . S
O226 C221 1.246 . S
O227 Zn219 2.024 . S
O227 C221 1.249 . S
H228 C210 0.948 . S
O229 Zn219 2.039 . S
O229 C233 1.251 . S
O230 Zn211 2.025 . S
O230 C233 1.254 . S
O231 C212 1.246 . S
O231 Zn219 2.034 1_556 S
O232 Zn211 2.024 1_556 S
O232 C212 1.249 . S
C233 O229 1.251 . S
C233 O230 1.254 . S
H234 C207 0.949 1_556 S
H235 C209 0.950 . S
H236 C216 0.949 . S
H237 C218 0.950 . S
C238 O254 1.251 . S
C238 O256 1.254 . S
N239 C240 1.333 . S
N239 C244 1.307 . S
N239 Zn245 2.020 . S
C240 N239 1.333 . S
C240 C241 1.379 . S
C240 H258 0.952 1_554 S
C241 C240 1.379 . S
C241 C242 1.390 . S
C241 H268 0.949 1_554 S
C242 C241 1.390 . S
C242 C243 1.357 . S
C243 C242 1.357 . S
C243 C244 1.370 . S
C243 H269 0.950 . S
C244 N239 1.307 . S
C244 C243 1.370 . S
C244 H262 0.948 . S
Zn245 N239 2.020 . S
Zn245 O254 2.039 1_554 S
Zn245 O260 2.034 . S
Zn245 O264 2.025 . S
Zn245 O266 2.024 1_554 S
C246 O265 1.246 . S
C246 O266 1.249 . S
N247 C248 1.307 . S
N247 C249 1.333 . S
N247 Zn253 2.020 . S
C248 N247 1.307 . S
C248 C252 1.370 . S
C248 H259 0.948 . S
C249 N247 1.333 . S
C249 C250 1.379 . S
C249 H257 0.952 . S
C250 C249 1.379 . S
C250 C251 1.390 . S
C250 H270 0.949 . S
C251 C250 1.390 . S
C251 C252 1.357 . S
C252 C248 1.370 . S
C252 C251 1.357 . S
C252 H271 0.950 . S
Zn253 N247 2.020 . S
Zn253 O256 2.025 1_554 S
Zn253 O261 2.024 . S
Zn253 O263 2.039 . S
Zn253 O265 2.034 1_554 S
O254 C238 1.251 . S
O254 Zn245 2.039 1_556 S
C255 O260 1.246 . S
C255 O261 1.249 . S
O256 C238 1.254 . S
O256 Zn253 2.025 1_556 S
H257 C249 0.952 . S
H258 C240 0.952 1_556 S
H259 C248 0.948 . S
O260 Zn245 2.034 . S
O260 C255 1.246 . S
O261 Zn253 2.024 . S
O261 C255 1.249 . S
H262 C244 0.948 . S
O263 Zn253 2.039 . S
O263 C267 1.251 . S
O264 Zn245 2.025 . S
O264 C267 1.254 . S
O265 C246 1.246 . S
O265 Zn253 2.034 1_556 S
O266 Zn245 2.024 1_556 S
O266 C246 1.249 . S
C267 O263 1.251 . S
C267 O264 1.254 . S
H268 C241 0.949 1_556 S
H269 C243 0.950 . S
H270 C250 0.949 . S
H271 C252 0.950 . S
C272 O288 1.251 . S
C272 O290 1.254 . S
N273 C274 1.333 . S
N273 C278 1.307 . S
N273 Zn279 2.020 . S
C274 N273 1.333 . S
C274 C275 1.379 . S
C274 H292 0.952 1_554 S
C275 C274 1.379 . S
C275 C276 1.390 . S
C275 H302 0.949 1_554 S
C276 C275 1.390 . S
C276 C277 1.357 1_545 S
C277 C276 1.357 1_565 S
C277 C278 1.370 1_565 S
C277 H303 0.950 . S
C278 N273 1.307 . S
C278 C277 1.370 1_545 S
C278 H296 0.948 . S
Zn279 N273 2.020 . S
Zn279 O288 2.039 1_554 S
Zn279 O294 2.034 . S
Zn279 O298 2.025 . S
Zn279 O300 2.024 1_554 S
C280 O299 1.246 . S
C280 O300 1.249 . S
N281 C282 1.307 . S
N281 C283 1.333 . S
N281 Zn287 2.020 . S
C282 N281 1.307 . S
C282 C286 1.370 . S
C282 H293 0.948 . S
C283 N281 1.333 . S
C283 C284 1.379 . S
C283 H291 0.952 . S
C284 C283 1.379 . S
C284 C285 1.390 . S
C284 H304 0.949 . S
C285 C284 1.390 . S
C285 C286 1.357 . S
C286 C282 1.370 . S
C286 C285 1.357 . S
C286 H305 0.950 . S
Zn287 N281 2.020 . S
Zn287 O290 2.025 1_554 S
Zn287 O295 2.024 . S
Zn287 O297 2.039 . S
Zn287 O299 2.034 1_554 S
O288 C272 1.251 . S
O288 Zn279 2.039 1_556 S
C289 O294 1.246 . S
C289 O295 1.249 . S
O290 C272 1.254 . S
O290 Zn287 2.025 1_556 S
H291 C283 0.952 . S
H292 C274 0.952 1_556 S
H293 C282 0.948 . S
O294 Zn279 2.034 . S
O294 C289 1.246 . S
O295 Zn287 2.024 . S
O295 C289 1.249 . S
H296 C278 0.948 . S
O297 Zn287 2.039 . S
O297 C301 1.251 . S
O298 Zn279 2.025 . S
O298 C301 1.254 . S
O299 C280 1.246 . S
O299 Zn287 2.034 1_556 S
O300 Zn279 2.024 1_556 S
O300 C280 1.249 . S
C301 O297 1.251 . S
C301 O298 1.254 . S
H302 C275 0.949 1_556 S
H303 C277 0.950 . S
H304 C284 0.949 . S
H305 C286 0.950 . S
C306 O322 1.251 . S
C306 O324 1.254 . S
N307 C308 1.333 . S
N307 C312 1.307 . S
N307 Zn313 2.020 . S
C308 N307 1.333 . S
C308 C309 1.379 . S
C308 H326 0.952 . S
C309 C308 1.379 . S
C309 C310 1.390 . S
C309 H336 0.949 . S
C310 C309 1.390 . S
C310 C311 1.357 1_565 S
C311 C310 1.357 1_545 S
C311 C312 1.370 1_545 S
C311 H337 0.950 . S
C312 N307 1.307 . S
C312 C311 1.370 1_565 S
C312 H330 0.948 . S
Zn313 N307 2.020 . S
Zn313 O322 2.039 . S
Zn313 O328 2.034 . S
Zn313 O332 2.025 . S
Zn313 O334 2.024 . S
C314 O333 1.246 . S
C314 O334 1.249 . S
N315 C316 1.307 . S
N315 C317 1.333 . S
N315 Zn321 2.020 . S
C316 N315 1.307 . S
C316 C320 1.370 . S
C316 H327 0.948 . S
C317 N315 1.333 . S
C317 C318 1.379 . S
C317 H325 0.952 . S
C318 C317 1.379 . S
C318 C319 1.390 . S
C318 H338 0.949 . S
C319 C318 1.390 . S
C319 C320 1.357 . S
C320 C316 1.370 . S
C320 C319 1.357 . S
C320 H339 0.950 . S
Zn321 N315 2.020 . S
Zn321 O324 2.025 . S
Zn321 O329 2.024 . S
Zn321 O331 2.039 . S
Zn321 O333 2.034 . S
O322 C306 1.251 . S
O322 Zn313 2.039 . S
C323 O328 1.246 . S
C323 O329 1.249 . S
O324 C306 1.254 . S
O324 Zn321 2.025 . S
H325 C317 0.952 . S
H326 C308 0.952 . S
H327 C316 0.948 . S
O328 Zn313 2.034 . S
O328 C323 1.246 . S
O329 Zn321 2.024 . S
O329 C323 1.249 . S
H330 C312 0.948 . S
O331 Zn321 2.039 . S
O331 C335 1.251 . S
O332 Zn313 2.025 . S
O332 C335 1.254 . S
O333 C314 1.246 . S
O333 Zn321 2.034 . S
O334 Zn313 2.024 . S
O334 C314 1.249 . S
C335 O331 1.251 . S
C335 O332 1.254 . S
H336 C309 0.949 . S
H337 C311 0.950 . S
H338 C318 0.949 . S
H339 C320 0.950 . S
C340 O356 1.251 . S
C340 O358 1.254 . S
N341 C342 1.333 . S
N341 C346 1.307 . S
N341 Zn347 2.020 . S
C342 N341 1.333 . S
C342 C343 1.379 . S
C342 H360 0.952 . S
C343 C342 1.379 . S
C343 C344 1.390 . S
C343 H370 0.949 . S
C344 C343 1.390 . S
C344 C345 1.357 1_455 S
C345 C344 1.357 1_655 S
C345 C346 1.370 1_655 S
C345 H371 0.950 . S
C346 N341 1.307 . S
C346 C345 1.370 1_455 S
C346 H364 0.948 . S
Zn347 N341 2.020 . S
Zn347 O356 2.039 . S
Zn347 O362 2.034 . S
Zn347 O366 2.025 . S
Zn347 O368 2.024 . S
C348 O367 1.246 . S
C348 O368 1.249 . S
N349 C350 1.307 . S
N349 C351 1.333 . S
N349 Zn355 2.020 . S
C350 N349 1.307 . S
C350 C354 1.370 . S
C350 H361 0.948 . S
C351 N349 1.333 . S
C351 C352 1.379 . S
C351 H359 0.952 . S
C352 C351 1.379 . S
C352 C353 1.390 . S
C352 H372 0.949 . S
C353 C352 1.390 . S
C353 C354 1.357 . S
C354 C350 1.370 . S
C354 C353 1.357 . S
C354 H373 0.950 . S
Zn355 N349 2.020 . S
Zn355 O358 2.025 . S
Zn355 O363 2.024 . S
Zn355 O365 2.039 . S
Zn355 O367 2.034 . S
O356 C340 1.251 . S
O356 Zn347 2.039 . S
C357 O362 1.246 . S
C357 O363 1.249 . S
O358 C340 1.254 . S
O358 Zn355 2.025 . S
H359 C351 0.952 . S
H360 C342 0.952 . S
H361 C350 0.948 . S
O362 Zn347 2.034 . S
O362 C357 1.246 . S
O363 Zn355 2.024 . S
O363 C357 1.249 . S
H364 C346 0.948 . S
O365 Zn355 2.039 . S
O365 C369 1.251 . S
O366 Zn347 2.025 . S
O366 C369 1.254 . S
O367 C348 1.246 . S
O367 Zn355 2.034 . S
O368 Zn347 2.024 . S
O368 C348 1.249 . S
C369 O365 1.251 . S
C369 O366 1.254 . S
H370 C343 0.949 . S
H371 C345 0.950 . S
H372 C352 0.949 . S
H373 C354 0.950 . S
C374 O390 1.251 . S
C374 O392 1.254 . S
N375 C376 1.333 . S
N375 C380 1.307 . S
N375 Zn381 2.020 . S
C376 N375 1.333 . S
C376 C377 1.379 . S
C376 H394 0.952 . S
C377 C376 1.379 . S
C377 C378 1.390 . S
C377 H404 0.949 . S
C378 C377 1.390 . S
C378 C379 1.357 . S
C379 C378 1.357 . S
C379 C380 1.370 . S
C379 H405 0.950 . S
C380 N375 1.307 . S
C380 C379 1.370 . S
C380 H398 0.948 . S
Zn381 N375 2.020 . S
Zn381 O390 2.039 . S
Zn381 O396 2.034 . S
Zn381 O400 2.025 . S
Zn381 O402 2.024 . S
C382 O401 1.246 . S
C382 O402 1.249 . S
N383 C384 1.307 . S
N383 C385 1.333 . S
N383 Zn389 2.020 . S
C384 N383 1.307 . S
C384 C388 1.370 . S
C384 H395 0.948 . S
C385 N383 1.333 . S
C385 C386 1.379 . S
C385 H393 0.952 . S
C386 C385 1.379 . S
C386 C387 1.390 . S
C386 H406 0.949 . S
C387 C386 1.390 . S
C387 C388 1.357 . S
C388 C384 1.370 . S
C388 C387 1.357 . S
C388 H407 0.950 . S
Zn389 N383 2.020 . S
Zn389 O392 2.025 . S
Zn389 O397 2.024 . S
Zn389 O399 2.039 . S
Zn389 O401 2.034 . S
O390 C374 1.251 . S
O390 Zn381 2.039 . S
C391 O396 1.246 . S
C391 O397 1.249 . S
O392 C374 1.254 . S
O392 Zn389 2.025 . S
H393 C385 0.952 . S
H394 C376 0.952 . S
H395 C384 0.948 . S
O396 Zn381 2.034 . S
O396 C391 1.246 . S
O397 Zn389 2.024 . S
O397 C391 1.249 . S
H398 C380 0.948 . S
O399 Zn389 2.039 . S
O399 C403 1.251 . S
O400 Zn381 2.025 . S
O400 C403 1.254 . S
O401 C382 1.246 . S
O401 Zn389 2.034 . S
O402 Zn381 2.024 . S
O402 C382 1.249 . S
C403 O399 1.251 . S
C403 O400 1.254 . S
H404 C377 0.949 . S
H405 C379 0.950 . S
H406 C386 0.949 . S
H407 C388 0.950 . S
C408 O424 1.251 . S
C408 O426 1.254 . S
N409 C410 1.333 . S
N409 C414 1.307 . S
N409 Zn415 2.020 . S
C410 N409 1.333 . S
C410 C411 1.379 . S
C410 H428 0.952 . S
C411 C410 1.379 . S
C411 C412 1.390 . S
C411 H438 0.949 . S
C412 C411 1.390 . S
C412 C413 1.357 . S
C413 C412 1.357 . S
C413 C414 1.370 . S
C413 H439 0.950 . S
C414 N409 1.307 . S
C414 C413 1.370 . S
C414 H432 0.948 . S
Zn415 N409 2.020 . S
Zn415 O424 2.039 . S
Zn415 O430 2.034 . S
Zn415 O434 2.025 . S
Zn415 O436 2.024 . S
C416 O435 1.246 . S
C416 O436 1.249 . S
N417 C418 1.307 . S
N417 C419 1.333 . S
N417 Zn423 2.020 . S
C418 N417 1.307 . S
C418 C422 1.370 . S
C418 H429 0.948 . S
C419 N417 1.333 . S
C419 C420 1.379 . S
C419 H427 0.952 . S
C420 C419 1.379 . S
C420 C421 1.390 . S
C420 H440 0.949 . S
C421 C420 1.390 . S
C421 C422 1.357 . S
C422 C418 1.370 . S
C422 C421 1.357 . S
C422 H441 0.950 . S
Zn423 N417 2.020 . S
Zn423 O426 2.025 . S
Zn423 O431 2.024 . S
Zn423 O433 2.039 . S
Zn423 O435 2.034 . S
O424 C408 1.251 . S
O424 Zn415 2.039 . S
C425 O430 1.246 . S
C425 O431 1.249 . S
O426 C408 1.254 . S
O426 Zn423 2.025 . S
H427 C419 0.952 . S
H428 C410 0.952 . S
H429 C418 0.948 . S
O430 Zn415 2.034 . S
O430 C425 1.246 . S
O431 Zn423 2.024 . S
O431 C425 1.249 . S
H432 C414 0.948 . S
O433 Zn423 2.039 . S
O433 C437 1.251 . S
O434 Zn415 2.025 . S
O434 C437 1.254 . S
O435 C416 1.246 . S
O435 Zn423 2.034 . S
O436 Zn415 2.024 . S
O436 C416 1.249 . S
C437 O433 1.251 . S
C437 O434 1.254 . S
H438 C411 0.949 . S
H439 C413 0.950 . S
H440 C420 0.949 . S
H441 C422 0.950 . S
C442 O458 1.251 . S
C442 O460 1.254 . S
N443 C444 1.333 . S
N443 C448 1.307 . S
N443 Zn449 2.020 . S
C444 N443 1.333 . S
C444 C445 1.379 . S
C444 H462 0.952 . S
C445 C444 1.379 . S
C445 C446 1.390 . S
C445 H472 0.949 . S
C446 C445 1.390 . S
C446 C447 1.357 . S
C447 C446 1.357 . S
C447 C448 1.370 . S
C447 H473 0.950 . S
C448 N443 1.307 . S
C448 C447 1.370 . S
C448 H466 0.948 . S
Zn449 N443 2.020 . S
Zn449 O458 2.039 . S
Zn449 O464 2.034 . S
Zn449 O468 2.025 . S
Zn449 O470 2.024 . S
C450 O469 1.246 . S
C450 O470 1.249 . S
N451 C452 1.307 . S
N451 C453 1.333 . S
N451 Zn457 2.020 . S
C452 N451 1.307 . S
C452 C456 1.370 . S
C452 H463 0.948 . S
C453 N451 1.333 . S
C453 C454 1.379 . S
C453 H461 0.952 . S
C454 C453 1.379 . S
C454 C455 1.390 . S
C454 H474 0.949 . S
C455 C454 1.390 . S
C455 C456 1.357 . S
C456 C452 1.370 . S
C456 C455 1.357 . S
C456 H475 0.950 . S
Zn457 N451 2.020 . S
Zn457 O460 2.025 . S
Zn457 O465 2.024 . S
Zn457 O467 2.039 . S
Zn457 O469 2.034 . S
O458 C442 1.251 . S
O458 Zn449 2.039 . S
C459 O464 1.246 . S
C459 O465 1.249 . S
O460 C442 1.254 . S
O460 Zn457 2.025 . S
H461 C453 0.952 . S
H462 C444 0.952 . S
H463 C452 0.948 . S
O464 Zn449 2.034 . S
O464 C459 1.246 . S
O465 Zn457 2.024 . S
O465 C459 1.249 . S
H466 C448 0.948 . S
O467 Zn457 2.039 . S
O467 C471 1.251 . S
O468 Zn449 2.025 . S
O468 C471 1.254 . S
O469 C450 1.246 . S
O469 Zn457 2.034 . S
O470 Zn449 2.024 . S
O470 C450 1.249 . S
C471 O467 1.251 . S
C471 O468 1.254 . S
H472 C445 0.949 . S
H473 C447 0.950 . S
H474 C454 0.949 . S
H475 C456 0.950 . S
C476 O492 1.251 . S
C476 O494 1.254 . S
N477 C478 1.333 . S
N477 C482 1.307 . S
N477 Zn483 2.020 . S
C478 N477 1.333 . S
C478 C479 1.379 . S
C478 H496 0.952 . S
C479 C478 1.379 . S
C479 C480 1.390 . S
C479 H506 0.949 . S
C480 C479 1.390 . S
C480 C481 1.357 . S
C481 C480 1.357 . S
C481 C482 1.370 . S
C481 H507 0.950 . S
C482 N477 1.307 . S
C482 C481 1.370 . S
C482 H500 0.948 . S
Zn483 N477 2.020 . S
Zn483 O492 2.039 . S
Zn483 O498 2.034 . S
Zn483 O502 2.025 . S
Zn483 O504 2.024 . S
C484 O503 1.246 . S
C484 O504 1.249 . S
N485 C486 1.307 . S
N485 C487 1.333 . S
N485 Zn491 2.020 . S
C486 N485 1.307 . S
C486 C490 1.370 . S
C486 H497 0.948 . S
C487 N485 1.333 . S
C487 C488 1.379 . S
C487 H495 0.952 . S
C488 C487 1.379 . S
C488 C489 1.390 . S
C488 H508 0.949 . S
C489 C488 1.390 . S
C489 C490 1.357 . S
C490 C486 1.370 . S
C490 C489 1.357 . S
C490 H509 0.950 . S
Zn491 N485 2.020 . S
Zn491 O494 2.025 . S
Zn491 O499 2.024 . S
Zn491 O501 2.039 . S
Zn491 O503 2.034 . S
O492 C476 1.251 . S
O492 Zn483 2.039 . S
C493 O498 1.246 . S
C493 O499 1.249 . S
O494 C476 1.254 . S
O494 Zn491 2.025 . S
H495 C487 0.952 . S
H496 C478 0.952 . S
H497 C486 0.948 . S
O498 Zn483 2.034 . S
O498 C493 1.246 . S
O499 Zn491 2.024 . S
O499 C493 1.249 . S
H500 C482 0.948 . S
O501 Zn491 2.039 . S
O501 C505 1.251 . S
O502 Zn483 2.025 . S
O502 C505 1.254 . S
O503 C484 1.246 . S
O503 Zn491 2.034 . S
O504 Zn483 2.024 . S
O504 C484 1.249 . S
C505 O501 1.251 . S
C505 O502 1.254 . S
H506 C479 0.949 . S
H507 C481 0.950 . S
H508 C488 0.949 . S
H509 C490 0.950 . S
C510 O526 1.251 . S
C510 O528 1.254 . S
N511 C512 1.333 . S
N511 C516 1.307 . S
N511 Zn517 2.020 . S
C512 N511 1.333 . S
C512 C513 1.379 . S
C512 H530 0.952 . S
C513 C512 1.379 . S
C513 C514 1.390 . S
C513 H540 0.949 . S
C514 C513 1.390 . S
C514 C515 1.357 . S
C515 C514 1.357 . S
C515 C516 1.370 . S
C515 H541 0.950 . S
C516 N511 1.307 . S
C516 C515 1.370 . S
C516 H534 0.948 . S
Zn517 N511 2.020 . S
Zn517 O526 2.039 . S
Zn517 O532 2.034 . S
Zn517 O536 2.025 . S
Zn517 O538 2.024 . S
C518 O537 1.246 . S
C518 O538 1.249 . S
N519 C520 1.307 . S
N519 C521 1.333 . S
N519 Zn525 2.020 . S
C520 N519 1.307 . S
C520 C524 1.370 . S
C520 H531 0.948 . S
C521 N519 1.333 . S
C521 C522 1.379 . S
C521 H529 0.952 . S
C522 C521 1.379 . S
C522 C523 1.390 . S
C522 H542 0.949 . S
C523 C522 1.390 . S
C523 C524 1.357 . S
C524 C520 1.370 . S
C524 C523 1.357 . S
C524 H543 0.950 . S
Zn525 N519 2.020 . S
Zn525 O528 2.025 . S
Zn525 O533 2.024 . S
Zn525 O535 2.039 . S
Zn525 O537 2.034 . S
O526 C510 1.251 . S
O526 Zn517 2.039 . S
C527 O532 1.246 . S
C527 O533 1.249 . S
O528 C510 1.254 . S
O528 Zn525 2.025 . S
H529 C521 0.952 . S
H530 C512 0.952 . S
H531 C520 0.948 . S
O532 Zn517 2.034 . S
O532 C527 1.246 . S
O533 Zn525 2.024 . S
O533 C527 1.249 . S
H534 C516 0.948 . S
O535 Zn525 2.039 . S
O535 C539 1.251 . S
O536 Zn517 2.025 . S
O536 C539 1.254 . S
O537 C518 1.246 . S
O537 Zn525 2.034 . S
O538 Zn517 2.024 . S
O538 C518 1.249 . S
C539 O535 1.251 . S
C539 O536 1.254 . S
H540 C513 0.949 . S
H541 C515 0.950 . S
H542 C522 0.949 . S
H543 C524 0.950 . S
C544 O560 1.251 . S
C544 O562 1.254 . S
N545 C546 1.333 . S
N545 C550 1.307 . S
N545 Zn551 2.020 . S
C546 N545 1.333 . S
C546 C547 1.379 . S
C546 H564 0.952 . S
C547 C546 1.379 . S
C547 C548 1.390 . S
C547 H574 0.949 . S
C548 C547 1.390 . S
C548 C549 1.357 . S
C549 C548 1.357 . S
C549 C550 1.370 . S
C549 H575 0.950 . S
C550 N545 1.307 . S
C550 C549 1.370 . S
C550 H568 0.948 . S
Zn551 N545 2.020 . S
Zn551 O560 2.039 . S
Zn551 O566 2.034 . S
Zn551 O570 2.025 . S
Zn551 O572 2.024 . S
C552 O571 1.246 . S
C552 O572 1.249 . S
N553 C554 1.307 . S
N553 C555 1.333 . S
N553 Zn559 2.020 . S
C554 N553 1.307 . S
C554 C558 1.370 . S
C554 H565 0.948 . S
C555 N553 1.333 . S
C555 C556 1.379 . S
C555 H563 0.952 . S
C556 C555 1.379 . S
C556 C557 1.390 . S
C556 H576 0.949 . S
C557 C556 1.390 . S
C557 C558 1.357 . S
C558 C554 1.370 . S
C558 C557 1.357 . S
C558 H577 0.950 . S
Zn559 N553 2.020 . S
Zn559 O562 2.025 . S
Zn559 O567 2.024 . S
Zn559 O569 2.039 . S
Zn559 O571 2.034 . S
O560 C544 1.251 . S
O560 Zn551 2.039 . S
C561 O566 1.246 . S
C561 O567 1.249 . S
O562 C544 1.254 . S
O562 Zn559 2.025 . S
H563 C555 0.952 . S
H564 C546 0.952 . S
H565 C554 0.948 . S
O566 Zn551 2.034 . S
O566 C561 1.246 . S
O567 Zn559 2.024 . S
O567 C561 1.249 . S
H568 C550 0.948 . S
O569 Zn559 2.039 . S
O569 C573 1.251 . S
O570 Zn551 2.025 . S
O570 C573 1.254 . S
O571 C552 1.246 . S
O571 Zn559 2.034 . S
O572 Zn551 2.024 . S
O572 C552 1.249 . S
C573 O569 1.251 . S
C573 O570 1.254 . S
H574 C547 0.949 . S
H575 C549 0.950 . S
H576 C556 0.949 . S
H577 C558 0.950 . S
C578 O594 1.251 . S
C578 O596 1.254 . S
N579 C580 1.333 . S
N579 C584 1.307 . S
N579 Zn585 2.020 . S
C580 N579 1.333 . S
C580 C581 1.379 . S
C580 H598 0.952 . S
C581 C580 1.379 . S
C581 C582 1.390 . S
C581 H608 0.949 . S
C582 C581 1.390 . S
C582 C583 1.357 . S
C583 C582 1.357 . S
C583 C584 1.370 . S
C583 H609 0.950 . S
C584 N579 1.307 . S
C584 C583 1.370 . S
C584 H602 0.948 . S
Zn585 N579 2.020 . S
Zn585 O594 2.039 . S
Zn585 O600 2.034 . S
Zn585 O604 2.025 . S
Zn585 O606 2.024 . S
C586 O605 1.246 . S
C586 O606 1.249 . S
N587 C588 1.307 . S
N587 C589 1.333 . S
N587 Zn593 2.020 . S
C588 N587 1.307 . S
C588 C592 1.370 . S
C588 H599 0.948 . S
C589 N587 1.333 . S
C589 C590 1.379 . S
C589 H597 0.952 . S
C590 C589 1.379 . S
C590 C591 1.390 . S
C590 H610 0.949 . S
C591 C590 1.390 . S
C591 C592 1.357 . S
C592 C588 1.370 . S
C592 C591 1.357 . S
C592 H611 0.950 . S
Zn593 N587 2.020 . S
Zn593 O596 2.025 . S
Zn593 O601 2.024 . S
Zn593 O603 2.039 . S
Zn593 O605 2.034 . S
O594 C578 1.251 . S
O594 Zn585 2.039 . S
C595 O600 1.246 . S
C595 O601 1.249 . S
O596 C578 1.254 . S
O596 Zn593 2.025 . S
H597 C589 0.952 . S
H598 C580 0.952 . S
H599 C588 0.948 . S
O600 Zn585 2.034 . S
O600 C595 1.246 . S
O601 Zn593 2.024 . S
O601 C595 1.249 . S
H602 C584 0.948 . S
O603 Zn593 2.039 . S
O603 C607 1.251 . S
O604 Zn585 2.025 . S
O604 C607 1.254 . S
O605 C586 1.246 . S
O605 Zn593 2.034 . S
O606 Zn585 2.024 . S
O606 C586 1.249 . S
C607 O603 1.251 . S
C607 O604 1.254 . S
H608 C581 0.949 . S
H609 C583 0.950 . S
H610 C590 0.949 . S
H611 C592 0.950 . S
C612 O628 1.251 . S
C612 O630 1.254 . S
N613 C614 1.333 . S
N613 C618 1.307 . S
N613 Zn619 2.020 . S
C614 N613 1.333 . S
C614 C615 1.379 . S
C614 H632 0.952 . S
C615 C614 1.379 . S
C615 C616 1.390 . S
C615 H642 0.949 . S
C616 C615 1.390 . S
C616 C617 1.357 . S
C617 C616 1.357 . S
C617 C618 1.370 . S
C617 H643 0.950 . S
C618 N613 1.307 . S
C618 C617 1.370 . S
C618 H636 0.948 . S
Zn619 N613 2.020 . S
Zn619 O628 2.039 . S
Zn619 O634 2.034 . S
Zn619 O638 2.025 . S
Zn619 O640 2.024 . S
C620 O639 1.246 . S
C620 O640 1.249 . S
N621 C622 1.307 . S
N621 C623 1.333 . S
N621 Zn627 2.020 . S
C622 N621 1.307 . S
C622 C626 1.370 . S
C622 H633 0.948 . S
C623 N621 1.333 . S
C623 C624 1.379 . S
C623 H631 0.952 . S
C624 C623 1.379 . S
C624 C625 1.390 . S
C624 H644 0.949 . S
C625 C624 1.390 . S
C625 C626 1.357 . S
C626 C622 1.370 . S
C626 C625 1.357 . S
C626 H645 0.950 . S
Zn627 N621 2.020 . S
Zn627 O630 2.025 . S
Zn627 O635 2.024 . S
Zn627 O637 2.039 . S
Zn627 O639 2.034 . S
O628 C612 1.251 . S
O628 Zn619 2.039 . S
C629 O634 1.246 . S
C629 O635 1.249 . S
O630 C612 1.254 . S
O630 Zn627 2.025 . S
H631 C623 0.952 . S
H632 C614 0.952 . S
H633 C622 0.948 . S
O634 Zn619 2.034 . S
O634 C629 1.246 . S
O635 Zn627 2.024 . S
O635 C629 1.249 . S
H636 C618 0.948 . S
O637 Zn627 2.039 . S
O637 C641 1.251 . S
O638 Zn619 2.025 . S
O638 C641 1.254 . S
O639 C620 1.246 . S
O639 Zn627 2.034 . S
O640 Zn619 2.024 . S
O640 C620 1.249 . S
C641 O637 1.251 . S
C641 O638 1.254 . S
H642 C615 0.949 . S
H643 C617 0.950 . S
H644 C624 0.949 . S
H645 C626 0.950 . S
C646 O662 1.251 . S
C646 O664 1.254 . S
N647 C648 1.333 . S
N647 C652 1.307 . S
N647 Zn653 2.020 . S
C648 N647 1.333 . S
C648 C649 1.379 . S
C648 H666 0.952 . S
C649 C648 1.379 . S
C649 C650 1.390 . S
C649 H676 0.949 . S
C650 C649 1.390 . S
C650 C651 1.357 . S
C651 C650 1.357 . S
C651 C652 1.370 . S
C651 H677 0.950 . S
C652 N647 1.307 . S
C652 C651 1.370 . S
C652 H670 0.948 . S
Zn653 N647 2.020 . S
Zn653 O662 2.039 . S
Zn653 O668 2.034 . S
Zn653 O672 2.025 . S
Zn653 O674 2.024 . S
C654 O673 1.246 . S
C654 O674 1.249 . S
N655 C656 1.307 . S
N655 C657 1.333 . S
N655 Zn661 2.020 . S
C656 N655 1.307 . S
C656 C660 1.370 . S
C656 H667 0.948 . S
C657 N655 1.333 . S
C657 C658 1.379 . S
C657 H665 0.952 . S
C658 C657 1.379 . S
C658 C659 1.390 . S
C658 H678 0.949 . S
C659 C658 1.390 . S
C659 C660 1.357 . S
C660 C656 1.370 . S
C660 C659 1.357 . S
C660 H679 0.950 . S
Zn661 N655 2.020 . S
Zn661 O664 2.025 . S
Zn661 O669 2.024 . S
Zn661 O671 2.039 . S
Zn661 O673 2.034 . S
O662 C646 1.251 . S
O662 Zn653 2.039 . S
C663 O668 1.246 . S
C663 O669 1.249 . S
O664 C646 1.254 . S
O664 Zn661 2.025 . S
H665 C657 0.952 . S
H666 C648 0.952 . S
H667 C656 0.948 . S
O668 Zn653 2.034 . S
O668 C663 1.246 . S
O669 Zn661 2.024 . S
O669 C663 1.249 . S
H670 C652 0.948 . S
O671 Zn661 2.039 . S
O671 C675 1.251 . S
O672 Zn653 2.025 . S
O672 C675 1.254 . S
O673 C654 1.246 . S
O673 Zn661 2.034 . S
O674 Zn653 2.024 . S
O674 C654 1.249 . S
C675 O671 1.251 . S
C675 O672 1.254 . S
H676 C649 0.949 . S
H677 C651 0.950 . S
H678 C658 0.949 . S
H679 C660 0.950 . S
C680 O696 1.251 . S
C680 O698 1.254 . S
N681 C682 1.333 . S
N681 C686 1.307 . S
N681 Zn687 2.020 . S
C682 N681 1.333 . S
C682 C683 1.379 . S
C682 H700 0.952 . S
C683 C682 1.379 . S
C683 C684 1.390 . S
C683 H710 0.949 . S
C684 C683 1.390 . S
C684 C685 1.357 . S
C685 C684 1.357 . S
C685 C686 1.370 . S
C685 H711 0.950 . S
C686 N681 1.307 . S
C686 C685 1.370 . S
C686 H704 0.948 . S
Zn687 N681 2.020 . S
Zn687 O696 2.039 . S
Zn687 O702 2.034 . S
Zn687 O706 2.025 . S
Zn687 O708 2.024 . S
C688 O707 1.246 . S
C688 O708 1.249 . S
N689 C690 1.307 . S
N689 C691 1.333 . S
N689 Zn695 2.020 . S
C690 N689 1.307 . S
C690 C694 1.370 . S
C690 H701 0.948 . S
C691 N689 1.333 . S
C691 C692 1.379 . S
C691 H699 0.952 . S
C692 C691 1.379 . S
C692 C693 1.390 . S
C692 H712 0.949 . S
C693 C692 1.390 . S
C693 C694 1.357 . S
C694 C690 1.370 . S
C694 C693 1.357 . S
C694 H713 0.950 . S
Zn695 N689 2.020 . S
Zn695 O698 2.025 . S
Zn695 O703 2.024 . S
Zn695 O705 2.039 . S
Zn695 O707 2.034 . S
O696 C680 1.251 . S
O696 Zn687 2.039 . S
C697 O702 1.246 . S
C697 O703 1.249 . S
O698 C680 1.254 . S
O698 Zn695 2.025 . S
H699 C691 0.952 . S
H700 C682 0.952 . S
H701 C690 0.948 . S
O702 Zn687 2.034 . S
O702 C697 1.246 . S
O703 Zn695 2.024 . S
O703 C697 1.249 . S
H704 C686 0.948 . S
O705 Zn695 2.039 . S
O705 C709 1.251 . S
O706 Zn687 2.025 . S
O706 C709 1.254 . S
O707 C688 1.246 . S
O707 Zn695 2.034 . S
O708 Zn687 2.024 . S
O708 C688 1.249 . S
C709 O705 1.251 . S
C709 O706 1.254 . S
H710 C683 0.949 . S
H711 C685 0.950 . S
H712 C692 0.949 . S
H713 C694 0.950 . S
C714 O730 1.251 . S
C714 O732 1.254 . S
N715 C716 1.333 . S
N715 C720 1.307 . S
N715 Zn721 2.020 . S
C716 N715 1.333 . S
C716 C717 1.379 . S
C716 H734 0.952 . S
C717 C716 1.379 . S
C717 C718 1.390 . S
C717 H744 0.949 . S
C718 C717 1.390 . S
C718 C719 1.357 . S
C719 C718 1.357 . S
C719 C720 1.370 . S
C719 H745 0.950 . S
C720 N715 1.307 . S
C720 C719 1.370 . S
C720 H738 0.948 . S
Zn721 N715 2.020 . S
Zn721 O730 2.039 . S
Zn721 O736 2.034 . S
Zn721 O740 2.025 . S
Zn721 O742 2.024 . S
C722 O741 1.246 . S
C722 O742 1.249 . S
N723 C724 1.307 . S
N723 C725 1.333 . S
N723 Zn729 2.020 . S
C724 N723 1.307 . S
C724 C728 1.370 . S
C724 H735 0.948 . S
C725 N723 1.333 . S
C725 C726 1.379 . S
C725 H733 0.952 . S
C726 C725 1.379 . S
C726 C727 1.390 . S
C726 H746 0.949 . S
C727 C726 1.390 . S
C727 C728 1.357 . S
C728 C724 1.370 . S
C728 C727 1.357 . S
C728 H747 0.950 . S
Zn729 N723 2.020 . S
Zn729 O732 2.025 . S
Zn729 O737 2.024 . S
Zn729 O739 2.039 . S
Zn729 O741 2.034 . S
O730 C714 1.251 . S
O730 Zn721 2.039 . S
C731 O736 1.246 . S
C731 O737 1.249 . S
O732 C714 1.254 . S
O732 Zn729 2.025 . S
H733 C725 0.952 . S
H734 C716 0.952 . S
H735 C724 0.948 . S
O736 Zn721 2.034 . S
O736 C731 1.246 . S
O737 Zn729 2.024 . S
O737 C731 1.249 . S
H738 C720 0.948 . S
O739 Zn729 2.039 . S
O739 C743 1.251 . S
O740 Zn721 2.025 . S
O740 C743 1.254 . S
O741 C722 1.246 . S
O741 Zn729 2.034 . S
O742 Zn721 2.024 . S
O742 C722 1.249 . S
C743 O739 1.251 . S
C743 O740 1.254 . S
H744 C717 0.949 . S
H745 C719 0.950 . S
H746 C726 0.949 . S
H747 C728 0.950 . S
C748 O764 1.251 . S
C748 O766 1.254 . S
N749 C750 1.333 . S
N749 C754 1.307 . S
N749 Zn755 2.020 . S
C750 N749 1.333 . S
C750 C751 1.379 . S
C750 H768 0.952 . S
C751 C750 1.379 . S
C751 C752 1.390 . S
C751 H778 0.949 . S
C752 C751 1.390 . S
C752 C753 1.357 . S
C753 C752 1.357 . S
C753 C754 1.370 . S
C753 H779 0.950 . S
C754 N749 1.307 . S
C754 C753 1.370 . S
C754 H772 0.948 . S
Zn755 N749 2.020 . S
Zn755 O764 2.039 . S
Zn755 O770 2.034 . S
Zn755 O774 2.025 . S
Zn755 O776 2.024 . S
C756 O775 1.246 . S
C756 O776 1.249 . S
N757 C758 1.307 . S
N757 C759 1.333 . S
N757 Zn763 2.020 . S
C758 N757 1.307 . S
C758 C762 1.370 . S
C758 H769 0.948 . S
C759 N757 1.333 . S
C759 C760 1.379 . S
C759 H767 0.952 . S
C760 C759 1.379 . S
C760 C761 1.390 . S
C760 H780 0.949 . S
C761 C760 1.390 . S
C761 C762 1.357 . S
C762 C758 1.370 . S
C762 C761 1.357 . S
C762 H781 0.950 . S
Zn763 N757 2.020 . S
Zn763 O766 2.025 . S
Zn763 O771 2.024 . S
Zn763 O773 2.039 . S
Zn763 O775 2.034 . S
O764 C748 1.251 . S
O764 Zn755 2.039 . S
C765 O770 1.246 . S
C765 O771 1.249 . S
O766 C748 1.254 . S
O766 Zn763 2.025 . S
H767 C759 0.952 . S
H768 C750 0.952 . S
H769 C758 0.948 . S
O770 Zn755 2.034 . S
O770 C765 1.246 . S
O771 Zn763 2.024 . S
O771 C765 1.249 . S
H772 C754 0.948 . S
O773 Zn763 2.039 . S
O773 C777 1.251 . S
O774 Zn755 2.025 . S
O774 C777 1.254 . S
O775 C756 1.246 . S
O775 Zn763 2.034 . S
O776 Zn755 2.024 . S
O776 C756 1.249 . S
C777 O773 1.251 . S
C777 O774 1.254 . S
H778 C751 0.949 . S
H779 C753 0.950 . S
H780 C760 0.949 . S
H781 C762 0.950 . S
C782 O798 1.251 . S
C782 O800 1.254 . S
N783 C784 1.333 . S
N783 C788 1.307 . S
N783 Zn789 2.020 . S
C784 N783 1.333 . S
C784 C785 1.379 . S
C784 H802 0.952 . S
C785 C784 1.379 . S
C785 C786 1.390 . S
C785 H812 0.949 . S
C786 C785 1.390 . S
C786 C787 1.357 . S
C787 C786 1.357 . S
C787 C788 1.370 . S
C787 H813 0.950 . S
C788 N783 1.307 . S
C788 C787 1.370 . S
C788 H806 0.948 . S
Zn789 N783 2.020 . S
Zn789 O798 2.039 . S
Zn789 O804 2.034 . S
Zn789 O808 2.025 . S
Zn789 O810 2.024 . S
C790 O809 1.246 . S
C790 O810 1.249 . S
N791 C792 1.307 . S
N791 C793 1.333 . S
N791 Zn797 2.020 . S
C792 N791 1.307 . S
C792 C796 1.370 . S
C792 H803 0.948 . S
C793 N791 1.333 . S
C793 C794 1.379 . S
C793 H801 0.952 . S
C794 C793 1.379 . S
C794 C795 1.390 . S
C794 H814 0.949 . S
C795 C794 1.390 . S
C795 C796 1.357 . S
C796 C792 1.370 . S
C796 C795 1.357 . S
C796 H815 0.950 . S
Zn797 N791 2.020 . S
Zn797 O800 2.025 . S
Zn797 O805 2.024 . S
Zn797 O807 2.039 . S
Zn797 O809 2.034 . S
O798 C782 1.251 . S
O798 Zn789 2.039 . S
C799 O804 1.246 . S
C799 O805 1.249 . S
O800 C782 1.254 . S
O800 Zn797 2.025 . S
H801 C793 0.952 . S
H802 C784 0.952 . S
H803 C792 0.948 . S
O804 Zn789 2.034 . S
O804 C799 1.246 . S
O805 Zn797 2.024 . S
O805 C799 1.249 . S
H806 C788 0.948 . S
O807 Zn797 2.039 . S
O807 C811 1.251 . S
O808 Zn789 2.025 . S
O808 C811 1.254 . S
O809 C790 1.246 . S
O809 Zn797 2.034 . S
O810 Zn789 2.024 . S
O810 C790 1.249 . S
C811 O807 1.251 . S
C811 O808 1.254 . S
H812 C785 0.949 . S
H813 C787 0.950 . S
H814 C794 0.949 . S
H815 C796 0.950 . S
C816 O832 1.251 . S
C816 O834 1.254 . S
N817 C818 1.333 . S
N817 C822 1.307 . S
N817 Zn823 2.020 . S
C818 N817 1.333 . S
C818 C819 1.379 . S
C818 H836 0.952 . S
C819 C818 1.379 . S
C819 C820 1.390 . S
C819 H846 0.949 . S
C820 C819 1.390 . S
C820 C821 1.357 . S
C821 C820 1.357 . S
C821 C822 1.370 . S
C821 H847 0.950 . S
C822 N817 1.307 . S
C822 C821 1.370 . S
C822 H840 0.948 . S
Zn823 N817 2.020 . S
Zn823 O832 2.039 . S
Zn823 O838 2.034 . S
Zn823 O842 2.025 . S
Zn823 O844 2.024 . S
C824 O843 1.246 . S
C824 O844 1.249 . S
N825 C826 1.307 . S
N825 C827 1.333 . S
N825 Zn831 2.020 . S
C826 N825 1.307 . S
C826 C830 1.370 . S
C826 H837 0.948 . S
C827 N825 1.333 . S
C827 C828 1.379 . S
C827 H835 0.952 . S
C828 C827 1.379 . S
C828 C829 1.390 . S
C828 H848 0.949 . S
C829 C828 1.390 . S
C829 C830 1.357 . S
C830 C826 1.370 . S
C830 C829 1.357 . S
C830 H849 0.950 . S
Zn831 N825 2.020 . S
Zn831 O834 2.025 . S
Zn831 O839 2.024 . S
Zn831 O841 2.039 . S
Zn831 O843 2.034 . S
O832 C816 1.251 . S
O832 Zn823 2.039 . S
C833 O838 1.246 . S
C833 O839 1.249 . S
O834 C816 1.254 . S
O834 Zn831 2.025 . S
H835 C827 0.952 . S
H836 C818 0.952 . S
H837 C826 0.948 . S
O838 Zn823 2.034 . S
O838 C833 1.246 . S
O839 Zn831 2.024 . S
O839 C833 1.249 . S
H840 C822 0.948 . S
O841 Zn831 2.039 . S
O841 C845 1.251 . S
O842 Zn823 2.025 . S
O842 C845 1.254 . S
O843 C824 1.246 . S
O843 Zn831 2.034 . S
O844 Zn823 2.024 . S
O844 C824 1.249 . S
C845 O841 1.251 . S
C845 O842 1.254 . S
H846 C819 0.949 . S
H847 C821 0.950 . S
H848 C828 0.949 . S
H849 C830 0.950 . S
C850 O866 1.251 . S
C850 O868 1.254 . S
N851 C852 1.333 . S
N851 C856 1.307 . S
N851 Zn857 2.020 . S
C852 N851 1.333 . S
C852 C853 1.379 . S
C852 H870 0.952 . S
C853 C852 1.379 . S
C853 C854 1.390 . S
C853 H880 0.949 . S
C854 C853 1.390 . S
C854 C855 1.357 . S
C855 C854 1.357 . S
C855 C856 1.370 . S
C855 H881 0.950 . S
C856 N851 1.307 . S
C856 C855 1.370 . S
C856 H874 0.948 . S
Zn857 N851 2.020 . S
Zn857 O866 2.039 . S
Zn857 O872 2.034 . S
Zn857 O876 2.025 . S
Zn857 O878 2.024 . S
C858 O877 1.246 . S
C858 O878 1.249 . S
N859 C860 1.307 . S
N859 C861 1.333 . S
N859 Zn865 2.020 . S
C860 N859 1.307 . S
C860 C864 1.370 . S
C860 H871 0.948 . S
C861 N859 1.333 . S
C861 C862 1.379 . S
C861 H869 0.952 . S
C862 C861 1.379 . S
C862 C863 1.390 . S
C862 H882 0.949 . S
C863 C862 1.390 . S
C863 C864 1.357 . S
C864 C860 1.370 . S
C864 C863 1.357 . S
C864 H883 0.950 . S
Zn865 N859 2.020 . S
Zn865 O868 2.025 . S
Zn865 O873 2.024 . S
Zn865 O875 2.039 . S
Zn865 O877 2.034 . S
O866 C850 1.251 . S
O866 Zn857 2.039 . S
C867 O872 1.246 . S
C867 O873 1.249 . S
O868 C850 1.254 . S
O868 Zn865 2.025 . S
H869 C861 0.952 . S
H870 C852 0.952 . S
H871 C860 0.948 . S
O872 Zn857 2.034 . S
O872 C867 1.246 . S
O873 Zn865 2.024 . S
O873 C867 1.249 . S
H874 C856 0.948 . S
O875 Zn865 2.039 . S
O875 C879 1.251 . S
O876 Zn857 2.025 . S
O876 C879 1.254 . S
O877 C858 1.246 . S
O877 Zn865 2.034 . S
O878 Zn857 2.024 . S
O878 C858 1.249 . S
C879 O875 1.251 . S
C879 O876 1.254 . S
H880 C853 0.949 . S
H881 C855 0.950 . S
H882 C862 0.949 . S
H883 C864 0.950 . S
C884 O900 1.251 . S
C884 O902 1.254 . S
N885 C886 1.333 . S
N885 C890 1.307 . S
N885 Zn891 2.020 . S
C886 N885 1.333 . S
C886 C887 1.379 . S
C886 H904 0.952 . S
C887 C886 1.379 . S
C887 C888 1.390 . S
C887 H914 0.949 . S
C888 C887 1.390 . S
C888 C889 1.357 . S
C889 C888 1.357 . S
C889 C890 1.370 . S
C889 H915 0.950 . S
C890 N885 1.307 . S
C890 C889 1.370 . S
C890 H908 0.948 . S
Zn891 N885 2.020 . S
Zn891 O900 2.039 . S
Zn891 O906 2.034 . S
Zn891 O910 2.025 . S
Zn891 O912 2.024 . S
C892 O911 1.246 . S
C892 O912 1.249 . S
N893 C894 1.307 . S
N893 C895 1.333 . S
N893 Zn899 2.020 . S
C894 N893 1.307 . S
C894 C898 1.370 . S
C894 H905 0.948 . S
C895 N893 1.333 . S
C895 C896 1.379 . S
C895 H903 0.952 . S
C896 C895 1.379 . S
C896 C897 1.390 . S
C896 H916 0.949 . S
C897 C896 1.390 . S
C897 C898 1.357 . S
C898 C894 1.370 . S
C898 C897 1.357 . S
C898 H917 0.950 . S
Zn899 N893 2.020 . S
Zn899 O902 2.025 . S
Zn899 O907 2.024 . S
Zn899 O909 2.039 . S
Zn899 O911 2.034 . S
O900 C884 1.251 . S
O900 Zn891 2.039 . S
C901 O906 1.246 . S
C901 O907 1.249 . S
O902 C884 1.254 . S
O902 Zn899 2.025 . S
H903 C895 0.952 . S
H904 C886 0.952 . S
H905 C894 0.948 . S
O906 Zn891 2.034 . S
O906 C901 1.246 . S
O907 Zn899 2.024 . S
O907 C901 1.249 . S
H908 C890 0.948 . S
O909 Zn899 2.039 . S
O909 C913 1.251 . S
O910 Zn891 2.025 . S
O910 C913 1.254 . S
O911 C892 1.246 . S
O911 Zn899 2.034 . S
O912 Zn891 2.024 . S
O912 C892 1.249 . S
C913 O909 1.251 . S
C913 O910 1.254 . S
H914 C887 0.949 . S
H915 C889 0.950 . S
H916 C896 0.949 . S
H917 C898 0.950 . S
C918 O934 1.251 . S
C918 O936 1.254 . S
N919 C920 1.333 . S
N919 C924 1.307 . S
N919 Zn925 2.020 . S
C920 N919 1.333 . S
C920 C921 1.379 . S
C920 H938 0.952 . S
C921 C920 1.379 . S
C921 C922 1.390 . S
C921 H948 0.949 . S
C922 C921 1.390 . S
C922 C923 1.357 . S
C923 C922 1.357 . S
C923 C924 1.370 . S
C923 H949 0.950 . S
C924 N919 1.307 . S
C924 C923 1.370 . S
C924 H942 0.948 . S
Zn925 N919 2.020 . S
Zn925 O934 2.039 . S
Zn925 O940 2.034 . S
Zn925 O944 2.025 . S
Zn925 O946 2.024 . S
C926 O945 1.246 . S
C926 O946 1.249 . S
N927 C928 1.307 . S
N927 C929 1.333 . S
N927 Zn933 2.020 . S
C928 N927 1.307 . S
C928 C932 1.370 . S
C928 H939 0.948 . S
C929 N927 1.333 . S
C929 C930 1.379 . S
C929 H937 0.952 . S
C930 C929 1.379 . S
C930 C931 1.390 . S
C930 H950 0.949 . S
C931 C930 1.390 . S
C931 C932 1.357 . S
C932 C928 1.370 . S
C932 C931 1.357 . S
C932 H951 0.950 . S
Zn933 N927 2.020 . S
Zn933 O936 2.025 . S
Zn933 O941 2.024 . S
Zn933 O943 2.039 . S
Zn933 O945 2.034 . S
O934 C918 1.251 . S
O934 Zn925 2.039 . S
C935 O940 1.246 . S
C935 O941 1.249 . S
O936 C918 1.254 . S
O936 Zn933 2.025 . S
H937 C929 0.952 . S
H938 C920 0.952 . S
H939 C928 0.948 . S
O940 Zn925 2.034 . S
O940 C935 1.246 . S
O941 Zn933 2.024 . S
O941 C935 1.249 . S
H942 C924 0.948 . S
O943 Zn933 2.039 . S
O943 C947 1.251 . S
O944 Zn925 2.025 . S
O944 C947 1.254 . S
O945 C926 1.246 . S
O945 Zn933 2.034 . S
O946 Zn925 2.024 . S
O946 C926 1.249 . S
C947 O943 1.251 . S
C947 O944 1.254 . S
H948 C921 0.949 . S
H949 C923 0.950 . S
H950 C930 0.949 . S
H951 C932 0.950 . S
C952 O968 1.251 . S
C952 O970 1.254 . S
N953 C954 1.333 . S
N953 C958 1.307 . S
N953 Zn959 2.020 . S
C954 N953 1.333 . S
C954 C955 1.379 . S
C954 H972 0.952 . S
C955 C954 1.379 . S
C955 C956 1.390 . S
C955 H982 0.949 . S
C956 C955 1.390 . S
C956 C957 1.357 . S
C957 C956 1.357 . S
C957 C958 1.370 . S
C957 H983 0.950 . S
C958 N953 1.307 . S
C958 C957 1.370 . S
C958 H976 0.948 . S
Zn959 N953 2.020 . S
Zn959 O968 2.039 . S
Zn959 O974 2.034 . S
Zn959 O978 2.025 . S
Zn959 O980 2.024 . S
C960 O979 1.246 . S
C960 O980 1.249 . S
N961 C962 1.307 . S
N961 C963 1.333 . S
N961 Zn967 2.020 . S
C962 N961 1.307 . S
C962 C966 1.370 . S
C962 H973 0.948 . S
C963 N961 1.333 . S
C963 C964 1.379 . S
C963 H971 0.952 . S
C964 C963 1.379 . S
C964 C965 1.390 . S
C964 H984 0.949 . S
C965 C964 1.390 . S
C965 C966 1.357 . S
C966 C962 1.370 . S
C966 C965 1.357 . S
C966 H985 0.950 . S
Zn967 N961 2.020 . S
Zn967 O970 2.025 . S
Zn967 O975 2.024 . S
Zn967 O977 2.039 . S
Zn967 O979 2.034 . S
O968 C952 1.251 . S
O968 Zn959 2.039 . S
C969 O974 1.246 . S
C969 O975 1.249 . S
O970 C952 1.254 . S
O970 Zn967 2.025 . S
H971 C963 0.952 . S
H972 C954 0.952 . S
H973 C962 0.948 . S
O974 Zn959 2.034 . S
O974 C969 1.246 . S
O975 Zn967 2.024 . S
O975 C969 1.249 . S
H976 C958 0.948 . S
O977 Zn967 2.039 . S
O977 C981 1.251 . S
O978 Zn959 2.025 . S
O978 C981 1.254 . S
O979 C960 1.246 . S
O979 Zn967 2.034 . S
O980 Zn959 2.024 . S
O980 C960 1.249 . S
C981 O977 1.251 . S
C981 O978 1.254 . S
H982 C955 0.949 . S
H983 C957 0.950 . S
H984 C964 0.949 . S
H985 C966 0.950 . S
C986 O1002 1.251 . S
C986 O1004 1.254 . S
N987 C988 1.333 . S
N987 C992 1.307 . S
N987 Zn993 2.020 . S
C988 N987 1.333 . S
C988 C989 1.379 . S
C988 H1006 0.952 . S
C989 C988 1.379 . S
C989 C990 1.390 . S
C989 H1016 0.949 . S
C990 C989 1.390 . S
C990 C991 1.357 . S
C991 C990 1.357 . S
C991 C992 1.370 . S
C991 H1017 0.950 . S
C992 N987 1.307 . S
C992 C991 1.370 . S
C992 H1010 0.948 . S
Zn993 N987 2.020 . S
Zn993 O1002 2.039 . S
Zn993 O1008 2.034 . S
Zn993 O1012 2.025 . S
Zn993 O1014 2.024 . S
C994 O1013 1.246 . S
C994 O1014 1.249 . S
N995 C996 1.307 . S
N995 C997 1.333 . S
N995 Zn1001 2.020 . S
C996 N995 1.307 . S
C996 C1000 1.370 . S
C996 H1007 0.948 . S
C997 N995 1.333 . S
C997 C998 1.379 . S
C997 H1005 0.952 . S
C998 C997 1.379 . S
C998 C999 1.390 . S
C998 H1018 0.949 . S
C999 C998 1.390 . S
C999 C1000 1.357 . S
C1000 C996 1.370 . S
C1000 C999 1.357 . S
C1000 H1019 0.950 . S
Zn1001 N995 2.020 . S
Zn1001 O1004 2.025 . S
Zn1001 O1009 2.024 . S
Zn1001 O1011 2.039 . S
Zn1001 O1013 2.034 . S
O1002 C986 1.251 . S
O1002 Zn993 2.039 . S
C1003 O1008 1.246 . S
C1003 O1009 1.249 . S
O1004 C986 1.254 . S
O1004 Zn1001 2.025 . S
H1005 C997 0.952 . S
H1006 C988 0.952 . S
H1007 C996 0.948 . S
O1008 Zn993 2.034 . S
O1008 C1003 1.246 . S
O1009 Zn1001 2.024 . S
O1009 C1003 1.249 . S
H1010 C992 0.948 . S
O1011 Zn1001 2.039 . S
O1011 C1015 1.251 . S
O1012 Zn993 2.025 . S
O1012 C1015 1.254 . S
O1013 C994 1.246 . S
O1013 Zn1001 2.034 . S
O1014 Zn993 2.024 . S
O1014 C994 1.249 . S
C1015 O1011 1.251 . S
C1015 O1012 1.254 . S
H1016 C989 0.949 . S
H1017 C991 0.950 . S
H1018 C998 0.949 . S
H1019 C1000 0.950 . S
C1020 O1036 1.251 . S
C1020 O1038 1.254 . S
N1021 C1022 1.333 . S
N1021 C1026 1.307 . S
N1021 Zn1027 2.020 . S
C1022 N1021 1.333 . S
C1022 C1023 1.379 . S
C1022 H1040 0.952 . S
C1023 C1022 1.379 . S
C1023 C1024 1.390 . S
C1023 H1050 0.949 . S
C1024 C1023 1.390 . S
C1024 C1025 1.357 . S
C1025 C1024 1.357 . S
C1025 C1026 1.370 . S
C1025 H1051 0.950 . S
C1026 N1021 1.307 . S
C1026 C1025 1.370 . S
C1026 H1044 0.948 . S
Zn1027 N1021 2.020 . S
Zn1027 O1036 2.039 . S
Zn1027 O1042 2.034 . S
Zn1027 O1046 2.025 . S
Zn1027 O1048 2.024 . S
C1028 O1047 1.246 . S
C1028 O1048 1.249 . S
N1029 C1030 1.307 . S
N1029 C1031 1.333 . S
N1029 Zn1035 2.020 . S
C1030 N1029 1.307 . S
C1030 C1034 1.370 . S
C1030 H1041 0.948 . S
C1031 N1029 1.333 . S
C1031 C1032 1.379 . S
C1031 H1039 0.952 . S
C1032 C1031 1.379 . S
C1032 C1033 1.390 . S
C1032 H1052 0.949 . S
C1033 C1032 1.390 . S
C1033 C1034 1.357 . S
C1034 C1030 1.370 . S
C1034 C1033 1.357 . S
C1034 H1053 0.950 . S
Zn1035 N1029 2.020 . S
Zn1035 O1038 2.025 . S
Zn1035 O1043 2.024 . S
Zn1035 O1045 2.039 . S
Zn1035 O1047 2.034 . S
O1036 C1020 1.251 . S
O1036 Zn1027 2.039 . S
C1037 O1042 1.246 . S
C1037 O1043 1.249 . S
O1038 C1020 1.254 . S
O1038 Zn1035 2.025 . S
H1039 C1031 0.952 . S
H1040 C1022 0.952 . S
H1041 C1030 0.948 . S
O1042 Zn1027 2.034 . S
O1042 C1037 1.246 . S
O1043 Zn1035 2.024 . S
O1043 C1037 1.249 . S
H1044 C1026 0.948 . S
O1045 Zn1035 2.039 . S
O1045 C1049 1.251 . S
O1046 Zn1027 2.025 . S
O1046 C1049 1.254 . S
O1047 C1028 1.246 . S
O1047 Zn1035 2.034 . S
O1048 Zn1027 2.024 . S
O1048 C1028 1.249 . S
C1049 O1045 1.251 . S
C1049 O1046 1.254 . S
H1050 C1023 0.949 . S
H1051 C1025 0.950 . S
H1052 C1032 0.949 . S
H1053 C1034 0.950 . S
C1054 O1070 1.251 . S
C1054 O1072 1.254 . S
N1055 C1056 1.333 . S
N1055 C1060 1.307 . S
N1055 Zn1061 2.020 . S
C1056 N1055 1.333 . S
C1056 C1057 1.379 . S
C1056 H1074 0.952 . S
C1057 C1056 1.379 . S
C1057 C1058 1.390 . S
C1057 H1084 0.949 . S
C1058 C1057 1.390 . S
C1058 C1059 1.357 . S
C1059 C1058 1.357 . S
C1059 C1060 1.370 . S
C1059 H1085 0.950 . S
C1060 N1055 1.307 . S
C1060 C1059 1.370 . S
C1060 H1078 0.948 . S
Zn1061 N1055 2.020 . S
Zn1061 O1070 2.039 . S
Zn1061 O1076 2.034 . S
Zn1061 O1080 2.025 . S
Zn1061 O1082 2.024 . S
C1062 O1081 1.246 . S
C1062 O1082 1.249 . S
N1063 C1064 1.307 . S
N1063 C1065 1.333 . S
N1063 Zn1069 2.020 . S
C1064 N1063 1.307 . S
C1064 C1068 1.370 . S
C1064 H1075 0.948 . S
C1065 N1063 1.333 . S
C1065 C1066 1.379 . S
C1065 H1073 0.952 . S
C1066 C1065 1.379 . S
C1066 C1067 1.390 . S
C1066 H1086 0.949 . S
C1067 C1066 1.390 . S
C1067 C1068 1.357 . S
C1068 C1064 1.370 . S
C1068 C1067 1.357 . S
C1068 H1087 0.950 . S
Zn1069 N1063 2.020 . S
Zn1069 O1072 2.025 . S
Zn1069 O1077 2.024 . S
Zn1069 O1079 2.039 . S
Zn1069 O1081 2.034 . S
O1070 C1054 1.251 . S
O1070 Zn1061 2.039 . S
C1071 O1076 1.246 . S
C1071 O1077 1.249 . S
O1072 C1054 1.254 . S
O1072 Zn1069 2.025 . S
H1073 C1065 0.952 . S
H1074 C1056 0.952 . S
H1075 C1064 0.948 . S
O1076 Zn1061 2.034 . S
O1076 C1071 1.246 . S
O1077 Zn1069 2.024 . S
O1077 C1071 1.249 . S
H1078 C1060 0.948 . S
O1079 Zn1069 2.039 . S
O1079 C1083 1.251 . S
O1080 Zn1061 2.025 . S
O1080 C1083 1.254 . S
O1081 C1062 1.246 . S
O1081 Zn1069 2.034 . S
O1082 Zn1061 2.024 . S
O1082 C1062 1.249 . S
C1083 O1079 1.251 . S
C1083 O1080 1.254 . S
H1084 C1057 0.949 . S
H1085 C1059 0.950 . S
H1086 C1066 0.949 . S
H1087 C1068 0.950 . S
C1088 O1104 1.251 . S
C1088 O1106 1.254 . S
N1089 C1090 1.333 . S
N1089 C1094 1.307 . S
N1089 Zn1095 2.020 . S
C1090 N1089 1.333 . S
C1090 C1091 1.379 . S
C1090 H1108 0.952 . S
C1091 C1090 1.379 . S
C1091 C1092 1.390 . S
C1091 H1118 0.949 . S
C1092 C1091 1.390 . S
C1092 C1093 1.357 . S
C1093 C1092 1.357 . S
C1093 C1094 1.370 . S
C1093 H1119 0.950 . S
C1094 N1089 1.307 . S
C1094 C1093 1.370 . S
C1094 H1112 0.948 . S
Zn1095 N1089 2.020 . S
Zn1095 O1104 2.039 . S
Zn1095 O1110 2.034 . S
Zn1095 O1114 2.025 . S
Zn1095 O1116 2.024 . S
C1096 O1115 1.246 . S
C1096 O1116 1.249 . S
N1097 C1098 1.307 . S
N1097 C1099 1.333 . S
N1097 Zn1103 2.020 . S
C1098 N1097 1.307 . S
C1098 C1102 1.370 . S
C1098 H1109 0.948 . S
C1099 N1097 1.333 . S
C1099 C1100 1.379 . S
C1099 H1107 0.952 . S
C1100 C1099 1.379 . S
C1100 C1101 1.390 . S
C1100 H1120 0.949 . S
C1101 C1100 1.390 . S
C1101 C1102 1.357 . S
C1102 C1098 1.370 . S
C1102 C1101 1.357 . S
C1102 H1121 0.950 . S
Zn1103 N1097 2.020 . S
Zn1103 O1106 2.025 . S
Zn1103 O1111 2.024 . S
Zn1103 O1113 2.039 . S
Zn1103 O1115 2.034 . S
O1104 C1088 1.251 . S
O1104 Zn1095 2.039 . S
C1105 O1110 1.246 . S
C1105 O1111 1.249 . S
O1106 C1088 1.254 . S
O1106 Zn1103 2.025 . S
H1107 C1099 0.952 . S
H1108 C1090 0.952 . S
H1109 C1098 0.948 . S
O1110 Zn1095 2.034 . S
O1110 C1105 1.246 . S
O1111 Zn1103 2.024 . S
O1111 C1105 1.249 . S
H1112 C1094 0.948 . S
O1113 Zn1103 2.039 . S
O1113 C1117 1.251 . S
O1114 Zn1095 2.025 . S
O1114 C1117 1.254 . S
O1115 C1096 1.246 . S
O1115 Zn1103 2.034 . S
O1116 Zn1095 2.024 . S
O1116 C1096 1.249 . S
C1117 O1113 1.251 . S
C1117 O1114 1.254 . S
H1118 C1091 0.949 . S
H1119 C1093 0.950 . S
H1120 C1100 0.949 . S
H1121 C1102 0.950 . S
C1122 O1138 1.251 . S
C1122 O1140 1.254 . S
N1123 C1124 1.333 . S
N1123 C1128 1.307 . S
N1123 Zn1129 2.020 . S
C1124 N1123 1.333 . S
C1124 C1125 1.379 . S
C1124 H1142 0.952 . S
C1125 C1124 1.379 . S
C1125 C1126 1.390 . S
C1125 H1152 0.949 . S
C1126 C1125 1.390 . S
C1126 C1127 1.357 . S
C1127 C1126 1.357 . S
C1127 C1128 1.370 . S
C1127 H1153 0.950 . S
C1128 N1123 1.307 . S
C1128 C1127 1.370 . S
C1128 H1146 0.948 . S
Zn1129 N1123 2.020 . S
Zn1129 O1138 2.039 . S
Zn1129 O1144 2.034 . S
Zn1129 O1148 2.025 . S
Zn1129 O1150 2.024 . S
C1130 O1149 1.246 . S
C1130 O1150 1.249 . S
N1131 C1132 1.307 . S
N1131 C1133 1.333 . S
N1131 Zn1137 2.020 . S
C1132 N1131 1.307 . S
C1132 C1136 1.370 . S
C1132 H1143 0.948 . S
C1133 N1131 1.333 . S
C1133 C1134 1.379 . S
C1133 H1141 0.952 . S
C1134 C1133 1.379 . S
C1134 C1135 1.390 . S
C1134 H1154 0.949 . S
C1135 C1134 1.390 . S
C1135 C1136 1.357 . S
C1136 C1132 1.370 . S
C1136 C1135 1.357 . S
C1136 H1155 0.950 . S
Zn1137 N1131 2.020 . S
Zn1137 O1140 2.025 . S
Zn1137 O1145 2.024 . S
Zn1137 O1147 2.039 . S
Zn1137 O1149 2.034 . S
O1138 C1122 1.251 . S
O1138 Zn1129 2.039 . S
C1139 O1144 1.246 . S
C1139 O1145 1.249 . S
O1140 C1122 1.254 . S
O1140 Zn1137 2.025 . S
H1141 C1133 0.952 . S
H1142 C1124 0.952 . S
H1143 C1132 0.948 . S
O1144 Zn1129 2.034 . S
O1144 C1139 1.246 . S
O1145 Zn1137 2.024 . S
O1145 C1139 1.249 . S
H1146 C1128 0.948 . S
O1147 Zn1137 2.039 . S
O1147 C1151 1.251 . S
O1148 Zn1129 2.025 . S
O1148 C1151 1.254 . S
O1149 C1130 1.246 . S
O1149 Zn1137 2.034 . S
O1150 Zn1129 2.024 . S
O1150 C1130 1.249 . S
C1151 O1147 1.251 . S
C1151 O1148 1.254 . S
H1152 C1125 0.949 . S
H1153 C1127 0.950 . S
H1154 C1134 0.949 . S
H1155 C1136 0.950 . S
C1156 O1172 1.251 . S
C1156 O1174 1.254 . S
N1157 C1158 1.333 . S
N1157 C1162 1.307 . S
N1157 Zn1163 2.020 . S
C1158 N1157 1.333 . S
C1158 C1159 1.379 . S
C1158 H1176 0.952 . S
C1159 C1158 1.379 . S
C1159 C1160 1.390 . S
C1159 H1186 0.949 . S
C1160 C1159 1.390 . S
C1160 C1161 1.357 . S
C1161 C1160 1.357 . S
C1161 C1162 1.370 . S
C1161 H1187 0.950 . S
C1162 N1157 1.307 . S
C1162 C1161 1.370 . S
C1162 H1180 0.948 . S
Zn1163 N1157 2.020 . S
Zn1163 O1172 2.039 . S
Zn1163 O1178 2.034 . S
Zn1163 O1182 2.025 . S
Zn1163 O1184 2.024 . S
C1164 O1183 1.246 . S
C1164 O1184 1.249 . S
N1165 C1166 1.307 . S
N1165 C1167 1.333 . S
N1165 Zn1171 2.020 . S
C1166 N1165 1.307 . S
C1166 C1170 1.370 . S
C1166 H1177 0.948 . S
C1167 N1165 1.333 . S
C1167 C1168 1.379 . S
C1167 H1175 0.952 . S
C1168 C1167 1.379 . S
C1168 C1169 1.390 . S
C1168 H1188 0.949 . S
C1169 C1168 1.390 . S
C1169 C1170 1.357 . S
C1170 C1166 1.370 . S
C1170 C1169 1.357 . S
C1170 H1189 0.950 . S
Zn1171 N1165 2.020 . S
Zn1171 O1174 2.025 . S
Zn1171 O1179 2.024 . S
Zn1171 O1181 2.039 . S
Zn1171 O1183 2.034 . S
O1172 C1156 1.251 . S
O1172 Zn1163 2.039 . S
C1173 O1178 1.246 . S
C1173 O1179 1.249 . S
O1174 C1156 1.254 . S
O1174 Zn1171 2.025 . S
H1175 C1167 0.952 . S
H1176 C1158 0.952 . S
H1177 C1166 0.948 . S
O1178 Zn1163 2.034 . S
O1178 C1173 1.246 . S
O1179 Zn1171 2.024 . S
O1179 C1173 1.249 . S
H1180 C1162 0.948 . S
O1181 Zn1171 2.039 . S
O1181 C1185 1.251 . S
O1182 Zn1163 2.025 . S
O1182 C1185 1.254 . S
O1183 C1164 1.246 . S
O1183 Zn1171 2.034 . S
O1184 Zn1163 2.024 . S
O1184 C1164 1.249 . S
C1185 O1181 1.251 . S
C1185 O1182 1.254 . S
H1186 C1159 0.949 . S
H1187 C1161 0.950 . S
H1188 C1168 0.949 . S
H1189 C1170 0.950 . S
C1190 O1206 1.251 . S
C1190 O1208 1.254 . S
N1191 C1192 1.333 . S
N1191 C1196 1.307 . S
N1191 Zn1197 2.020 . S
C1192 N1191 1.333 . S
C1192 C1193 1.379 . S
C1192 H1210 0.952 . S
C1193 C1192 1.379 . S
C1193 C1194 1.390 . S
C1193 H1220 0.949 . S
C1194 C1193 1.390 . S
C1194 C1195 1.357 . S
C1195 C1194 1.357 . S
C1195 C1196 1.370 . S
C1195 H1221 0.950 . S
C1196 N1191 1.307 . S
C1196 C1195 1.370 . S
C1196 H1214 0.948 . S
Zn1197 N1191 2.020 . S
Zn1197 O1206 2.039 . S
Zn1197 O1212 2.034 . S
Zn1197 O1216 2.025 . S
Zn1197 O1218 2.024 . S
C1198 O1217 1.246 . S
C1198 O1218 1.249 . S
N1199 C1200 1.307 . S
N1199 C1201 1.333 . S
N1199 Zn1205 2.020 . S
C1200 N1199 1.307 . S
C1200 C1204 1.370 . S
C1200 H1211 0.948 . S
C1201 N1199 1.333 . S
C1201 C1202 1.379 . S
C1201 H1209 0.952 . S
C1202 C1201 1.379 . S
C1202 C1203 1.390 . S
C1202 H1222 0.949 . S
C1203 C1202 1.390 . S
C1203 C1204 1.357 . S
C1204 C1200 1.370 . S
C1204 C1203 1.357 . S
C1204 H1223 0.950 . S
Zn1205 N1199 2.020 . S
Zn1205 O1208 2.025 . S
Zn1205 O1213 2.024 . S
Zn1205 O1215 2.039 . S
Zn1205 O1217 2.034 . S
O1206 C1190 1.251 . S
O1206 Zn1197 2.039 . S
C1207 O1212 1.246 . S
C1207 O1213 1.249 . S
O1208 C1190 1.254 . S
O1208 Zn1205 2.025 . S
H1209 C1201 0.952 . S
H1210 C1192 0.952 . S
H1211 C1200 0.948 . S
O1212 Zn1197 2.034 . S
O1212 C1207 1.246 . S
O1213 Zn1205 2.024 . S
O1213 C1207 1.249 . S
H1214 C1196 0.948 . S
O1215 Zn1205 2.039 . S
O1215 C1219 1.251 . S
O1216 Zn1197 2.025 . S
O1216 C1219 1.254 . S
O1217 C1198 1.246 . S
O1217 Zn1205 2.034 . S
O1218 Zn1197 2.024 . S
O1218 C1198 1.249 . S
C1219 O1215 1.251 . S
C1219 O1216 1.254 . S
H1220 C1193 0.949 . S
H1221 C1195 0.950 . S
H1222 C1202 0.949 . S
H1223 C1204 0.950 . S
C1224 C1225 1.369 . S
C1224 C1226 1.419 . S
C1224 H1228 0.930 . S
C1225 C1224 1.369 . S
C1225 C1234 1.429 . S
C1226 C1224 1.419 . S
C1226 C1227 1.363 . S
C1226 H1229 0.929 1_556 S
C1227 C1226 1.363 . S
C1227 C1233 1.428 . S
H1228 C1224 0.930 . S
H1229 C1226 0.929 1_554 S
S1230 N1231 1.613 . S
S1230 N1232 1.610 . S
N1231 S1230 1.613 . S
N1231 C1234 1.350 . S
N1232 S1230 1.610 . S
N1232 C1233 1.351 . S
C1233 C1227 1.428 . S
C1233 N1232 1.351 . S
C1233 C1234 1.434 . S
C1234 C1225 1.429 . S
C1234 N1231 1.350 . S
C1234 C1233 1.434 . S
C1235 C1236 1.369 . S
C1235 C1237 1.419 . S
C1235 H1239 0.930 . S
C1236 C1235 1.369 . S
C1236 C1245 1.429 . S
C1237 C1235 1.419 . S
C1237 C1238 1.363 . S
C1237 H1240 0.929 . S
C1238 C1237 1.363 . S
C1238 C1244 1.428 . S
H1239 C1235 0.930 . S
H1240 C1237 0.929 . S
S1241 N1242 1.613 1_554 S
S1241 N1243 1.610 . S
N1242 S1241 1.613 1_556 S
N1242 C1245 1.350 . S
N1243 S1241 1.610 . S
N1243 C1244 1.351 1_554 S
C1244 C1238 1.428 . S
C1244 N1243 1.351 1_556 S
C1244 C1245 1.434 . S
C1245 C1236 1.429 . S
C1245 N1242 1.350 . S
C1245 C1244 1.434 . S
C1246 C1247 1.369 . S
C1246 C1248 1.419 . S
C1246 H1250 0.930 . S
C1247 C1246 1.369 . S
C1247 C1256 1.429 1_556 S
C1248 C1246 1.419 . S
C1248 C1249 1.363 . S
C1248 H1251 0.929 . S
C1249 C1248 1.363 . S
C1249 C1255 1.428 . S
H1250 C1246 0.930 . S
H1251 C1248 0.929 . S
S1252 N1253 1.613 . S
S1252 N1254 1.606 1_554 S
N1253 S1252 1.613 . S
N1253 C1256 1.350 . S
N1254 S1252 1.606 1_556 S
N1254 C1255 1.353 . S
C1255 C1249 1.428 . S
C1255 N1254 1.353 . S
C1255 C1256 1.434 1_556 S
C1256 C1247 1.429 1_554 S
C1256 N1253 1.350 . S
C1256 C1255 1.434 1_554 S
C1257 C1258 1.369 . S
C1257 C1259 1.419 . S
C1257 H1261 0.930 . S
C1258 C1257 1.369 . S
C1258 C1267 1.429 . S
C1259 C1257 1.419 . S
C1259 C1260 1.363 . S
C1259 H1262 0.929 . S
C1260 C1259 1.363 . S
C1260 C1266 1.428 . S
H1261 C1257 0.930 . S
H1262 C1259 0.929 . S
S1263 N1264 1.613 . S
S1263 N1265 1.610 . S
N1264 S1263 1.613 . S
N1264 C1267 1.350 . S
N1265 S1263 1.610 . S
N1265 C1266 1.351 . S
C1266 C1260 1.428 . S
C1266 N1265 1.351 . S
C1266 C1267 1.434 . S
C1267 C1258 1.429 . S
C1267 N1264 1.350 . S
C1267 C1266 1.434 . S
C1268 C1269 1.369 . S
C1268 C1270 1.419 . S
C1268 H1272 0.930 . S
C1269 C1268 1.369 . S
C1269 C1278 1.429 . S
C1270 C1268 1.419 . S
C1270 C1271 1.363 . S
C1270 H1273 0.929 . S
C1271 C1270 1.363 . S
C1271 C1277 1.428 . S
H1272 C1268 0.930 . S
H1273 C1270 0.929 . S
S1274 N1275 1.613 . S
S1274 N1276 1.610 . S
N1275 S1274 1.613 . S
N1275 C1278 1.350 . S
N1276 S1274 1.610 . S
N1276 C1277 1.351 . S
C1277 C1271 1.428 . S
C1277 N1276 1.351 . S
C1277 C1278 1.434 . S
C1278 C1269 1.429 . S
C1278 N1275 1.350 . S
C1278 C1277 1.434 . S
C1279 C1280 1.369 . S
C1279 C1281 1.419 . S
C1279 H1283 0.930 . S
C1280 C1279 1.369 . S
C1280 C1289 1.429 . S
C1281 C1279 1.419 . S
C1281 C1282 1.363 . S
C1281 H1284 0.929 . S
C1282 C1281 1.363 . S
C1282 C1288 1.428 . S
H1283 C1279 0.930 . S
H1284 C1281 0.929 . S
S1285 N1286 1.613 . S
S1285 N1287 1.610 . S
N1286 S1285 1.613 . S
N1286 C1289 1.350 . S
N1287 S1285 1.610 . S
N1287 C1288 1.351 . S
C1288 C1282 1.428 . S
C1288 N1287 1.351 . S
C1288 C1289 1.434 . S
C1289 C1280 1.429 . S
C1289 N1286 1.350 . S
C1289 C1288 1.434 . S
C1290 C1291 1.369 . S
C1290 C1292 1.419 . S
C1290 H1294 0.930 . S
C1291 C1290 1.369 . S
C1291 C1300 1.429 . S
C1292 C1290 1.419 . S
C1292 C1293 1.363 . S
C1292 H1295 0.929 . S
C1293 C1292 1.363 . S
C1293 C1299 1.428 . S
H1294 C1290 0.930 . S
H1295 C1292 0.929 . S
S1296 N1297 1.613 . S
S1296 N1298 1.610 . S
N1297 S1296 1.613 . S
N1297 C1300 1.350 . S
N1298 S1296 1.610 . S
N1298 C1299 1.351 . S
C1299 C1293 1.428 . S
C1299 N1298 1.351 . S
C1299 C1300 1.434 . S
C1300 C1291 1.429 . S
C1300 N1297 1.350 . S
C1300 C1299 1.434 . S
C1301 C1302 1.369 . S
C1301 C1303 1.419 . S
C1301 H1305 0.930 . S
C1302 C1301 1.369 . S
C1302 C1311 1.429 . S
C1303 C1301 1.419 . S
C1303 C1304 1.363 . S
C1303 H1306 0.929 . S
C1304 C1303 1.363 . S
C1304 C1310 1.428 . S
H1305 C1301 0.930 . S
H1306 C1303 0.929 . S
S1307 N1308 1.613 . S
S1307 N1309 1.610 . S
N1308 S1307 1.613 . S
N1308 C1311 1.350 1_556 S
N1309 S1307 1.610 . S
N1309 C1310 1.351 1_556 S
C1310 C1304 1.428 . S
C1310 N1309 1.351 1_554 S
C1310 C1311 1.434 . S
C1311 C1302 1.429 . S
C1311 N1308 1.350 1_554 S
C1311 C1310 1.434 . S
C1312 C1313 1.369 . S
C1312 C1314 1.419 . S
C1312 H1316 0.930 . S
C1313 C1312 1.369 . S
C1313 C1322 1.429 . S
C1314 C1312 1.419 . S
C1314 C1315 1.363 . S
C1314 H1317 0.929 . S
C1315 C1314 1.363 . S
C1315 C1321 1.428 . S
H1316 C1312 0.930 . S
H1317 C1314 0.929 . S
S1318 N1319 1.613 . S
S1318 N1320 1.610 1_556 S
N1319 S1318 1.613 . S
N1319 C1322 1.350 1_556 S
N1320 S1318 1.610 1_554 S
N1320 C1321 1.351 . S
C1321 C1315 1.428 . S
C1321 N1320 1.351 . S
C1321 C1322 1.434 . S
C1322 C1313 1.429 . S
C1322 N1319 1.350 1_554 S
C1322 C1321 1.434 . S
C1323 C1324 1.369 . S
C1323 C1325 1.419 . S
C1323 H1327 0.930 . S
C1324 C1323 1.369 . S
C1324 C1333 1.429 . S
C1325 C1323 1.419 . S
C1325 C1326 1.363 . S
C1325 H1328 0.929 . S
C1326 C1325 1.363 . S
C1326 C1332 1.428 . S
H1327 C1323 0.930 . S
H1328 C1325 0.929 . S
S1329 N1330 1.613 . S
S1329 N1331 1.610 . S
N1330 S1329 1.613 . S
N1330 C1333 1.350 . S
N1331 S1329 1.610 . S
N1331 C1332 1.351 . S
C1332 C1326 1.428 . S
C1332 N1331 1.351 . S
C1332 C1333 1.434 . S
C1333 C1324 1.429 . S
C1333 N1330 1.350 . S
C1333 C1332 1.434 . S
C1334 C1335 1.369 . S
C1334 C1336 1.419 . S
C1334 H1338 0.930 . S
C1335 C1334 1.369 . S
C1335 C1344 1.429 . S
C1336 C1334 1.419 . S
C1336 C1337 1.363 . S
C1336 H1339 0.929 . S
C1337 C1336 1.363 . S
C1337 C1343 1.428 . S
H1338 C1334 0.930 . S
H1339 C1336 0.929 . S
S1340 N1341 1.613 . S
S1340 N1342 1.610 . S
N1341 S1340 1.613 . S
N1341 C1344 1.350 . S
N1342 S1340 1.610 . S
N1342 C1343 1.351 . S
C1343 C1337 1.428 . S
C1343 N1342 1.351 . S
C1343 C1344 1.434 . S
C1344 C1335 1.429 . S
C1344 N1341 1.350 . S
C1344 C1343 1.434 . S
C1345 C1346 1.369 . S
C1345 C1347 1.419 . S
C1345 H1349 0.930 . S
C1346 C1345 1.369 . S
C1346 C1355 1.429 . S
C1347 C1345 1.419 . S
C1347 C1348 1.363 . S
C1347 H1350 0.929 . S
C1348 C1347 1.363 . S
C1348 C1354 1.428 . S
H1349 C1345 0.930 . S
H1350 C1347 0.929 . S
S1351 N1352 1.613 . S
S1351 N1353 1.610 . S
N1352 S1351 1.613 . S
N1352 C1355 1.350 . S
N1353 S1351 1.610 . S
N1353 C1354 1.351 . S
C1354 C1348 1.428 . S
C1354 N1353 1.351 . S
C1354 C1355 1.434 . S
C1355 C1346 1.429 . S
C1355 N1352 1.350 . S
C1355 C1354 1.434 . S
C1356 C1357 1.369 . S
C1356 C1358 1.419 . S
C1356 H1360 0.930 . S
C1357 C1356 1.369 . S
C1357 C1366 1.429 . S
C1358 C1356 1.419 . S
C1358 C1359 1.363 . S
C1358 H1361 0.929 . S
C1359 C1358 1.363 . S
C1359 C1365 1.428 . S
H1360 C1356 0.930 . S
H1361 C1358 0.929 . S
S1362 N1363 1.613 . S
S1362 N1364 1.610 . S
N1363 S1362 1.613 . S
N1363 C1366 1.350 . S
N1364 S1362 1.610 . S
N1364 C1365 1.351 . S
C1365 C1359 1.428 . S
C1365 N1364 1.351 . S
C1365 C1366 1.434 . S
C1366 C1357 1.429 . S
C1366 N1363 1.350 . S
C1366 C1365 1.434 . S
C1367 C1368 1.369 . S
C1367 C1369 1.419 1_565 S
C1367 H1371 0.930 . S
C1368 C1367 1.369 . S
C1368 C1377 1.429 . S
C1369 C1367 1.419 1_545 S
C1369 C1370 1.363 . S
C1369 H1372 0.929 . S
C1370 C1369 1.363 . S
C1370 C1376 1.428 . S
H1371 C1367 0.930 . S
H1372 C1369 0.929 . S
S1373 N1374 1.613 . S
S1373 N1375 1.610 1_565 S
N1374 S1373 1.613 . S
N1374 C1377 1.350 . S
N1375 S1373 1.610 1_545 S
N1375 C1376 1.351 . S
C1376 C1370 1.428 . S
C1376 N1375 1.351 . S
C1376 C1377 1.434 1_545 S
C1377 C1368 1.429 . S
C1377 N1374 1.350 . S
C1377 C1376 1.434 1_565 S
C1378 C1379 1.369 . S
C1378 C1380 1.419 1_655 S
C1378 H1382 0.930 . S
C1379 C1378 1.369 . S
C1379 C1388 1.429 . S
C1380 C1378 1.419 1_455 S
C1380 C1381 1.363 . S
C1380 H1383 0.929 . S
C1381 C1380 1.363 . S
C1381 C1387 1.428 . S
H1382 C1378 0.930 . S
H1383 C1380 0.929 . S
S1384 N1385 1.613 . S
S1384 N1386 1.610 1_655 S
N1385 S1384 1.613 . S
N1385 C1388 1.350 . S
N1386 S1384 1.610 1_455 S
N1386 C1387 1.351 . S
C1387 C1381 1.428 . S
C1387 N1386 1.351 . S
C1387 C1388 1.434 1_455 S
C1388 C1379 1.429 . S
C1388 N1385 1.350 . S
C1388 C1387 1.434 1_655 S
C1389 C1390 1.369 . S
C1389 C1391 1.419 . S
C1389 H1393 0.930 . S
C1390 C1389 1.369 . S
C1390 C1399 1.429 . S
C1391 C1389 1.419 . S
C1391 C1392 1.363 . S
C1391 H1394 0.929 . S
C1392 C1391 1.363 . S
C1392 C1398 1.428 . S
H1393 C1389 0.930 . S
H1394 C1391 0.929 . S
S1395 N1396 1.613 . S
S1395 N1397 1.610 . S
N1396 S1395 1.613 . S
N1396 C1399 1.350 . S
N1397 S1395 1.610 . S
N1397 C1398 1.351 . S
C1398 C1392 1.428 . S
C1398 N1397 1.351 . S
C1398 C1399 1.434 . S
C1399 C1390 1.429 . S
C1399 N1396 1.350 . S
C1399 C1398 1.434 . S
C1400 C1401 1.369 . S
C1400 C1402 1.419 1_545 S
C1400 H1404 0.930 . S
C1401 C1400 1.369 . S
C1401 C1410 1.429 . S
C1402 C1400 1.419 1_565 S
C1402 C1403 1.363 . S
C1402 H1405 0.929 . S
C1403 C1402 1.363 . S
C1403 C1409 1.428 . S
H1404 C1400 0.930 . S
H1405 C1402 0.929 . S
S1406 N1407 1.613 1_565 S
S1406 N1408 1.610 . S
N1407 S1406 1.613 1_545 S
N1407 C1410 1.350 . S
N1408 S1406 1.610 . S
N1408 C1409 1.351 . S
C1409 C1403 1.428 . S
C1409 N1408 1.351 . S
C1409 C1410 1.434 1_565 S
C1410 C1401 1.429 . S
C1410 N1407 1.350 . S
C1410 C1409 1.434 1_545 S
C1411 C1412 1.369 . S
C1411 C1413 1.419 1_455 S
C1411 H1415 0.930 . S
C1412 C1411 1.369 . S
C1412 C1421 1.429 . S
C1413 C1411 1.419 1_655 S
C1413 C1414 1.363 . S
C1413 H1416 0.929 . S
C1414 C1413 1.363 . S
C1414 C1420 1.428 . S
H1415 C1411 0.930 . S
H1416 C1413 0.929 . S
S1417 N1418 1.613 . S
S1417 N1419 1.610 1_455 S
N1418 S1417 1.613 . S
N1418 C1421 1.350 . S
N1419 S1417 1.610 1_655 S
N1419 C1420 1.351 . S
C1420 C1414 1.428 . S
C1420 N1419 1.351 . S
C1420 C1421 1.434 1_655 S
C1421 C1412 1.429 . S
C1421 N1418 1.350 . S
C1421 C1420 1.434 1_455 S
C1422 C1423 1.369 . S
C1422 C1424 1.419 1_455 S
C1422 H1426 0.930 . S
C1423 C1422 1.369 . S
C1423 C1432 1.429 . S
C1424 C1422 1.419 1_655 S
C1424 C1425 1.363 . S
C1424 H1427 0.929 . S
C1425 C1424 1.363 . S
C1425 C1431 1.428 . S
H1426 C1422 0.930 . S
H1427 C1424 0.929 . S
S1428 N1429 1.611 1_655 S
S1428 N1430 1.617 . S
N1429 S1428 1.611 1_455 S
N1429 C1432 1.350 . S
N1430 S1428 1.617 . S
N1430 C1431 1.351 . S
C1431 C1425 1.428 . S
C1431 N1430 1.351 . S
C1431 C1432 1.434 1_655 S
C1432 C1423 1.429 . S
C1432 N1429 1.350 . S
C1432 C1431 1.434 1_455 S
C1433 C1434 1.369 . S
C1433 C1435 1.419 . S
C1433 H1437 0.930 . S
C1434 C1433 1.369 . S
C1434 C1443 1.429 . S
C1435 C1433 1.419 . S
C1435 C1436 1.363 . S
C1435 H1438 0.929 . S
C1436 C1435 1.363 . S
C1436 C1442 1.428 . S
H1437 C1433 0.930 . S
H1438 C1435 0.929 . S
S1439 N1440 1.613 . S
S1439 N1441 1.610 . S
N1440 S1439 1.613 . S
N1440 C1443 1.350 . S
N1441 S1439 1.610 . S
N1441 C1442 1.351 . S
C1442 C1436 1.428 . S
C1442 N1441 1.351 . S
C1442 C1443 1.434 . S
C1443 C1434 1.429 . S
C1443 N1440 1.350 . S
C1443 C1442 1.434 . S
C1444 C1445 1.369 . S
C1444 C1446 1.419 1_565 S
C1444 H1448 0.930 . S
C1445 C1444 1.369 . S
C1445 C1454 1.429 . S
C1446 C1444 1.419 1_545 S
C1446 C1447 1.363 . S
C1446 H1449 0.929 . S
C1447 C1446 1.363 . S
C1447 C1453 1.476 . S
H1448 C1444 0.930 . S
H1449 C1446 0.929 . S
S1450 N1451 1.613 . S
S1450 N1452 1.610 . S
N1451 S1450 1.613 . S
N1451 C1454 1.350 . S
N1452 S1450 1.610 . S
N1452 C1453 1.364 1_565 S
C1453 C1447 1.476 . S
C1453 N1452 1.364 1_545 S
C1453 C1454 1.370 1_545 S
C1454 C1445 1.429 . S
C1454 N1451 1.350 . S
C1454 C1453 1.370 1_565 S
C1455 C1456 1.369 . S
C1455 C1457 1.419 1_655 S
C1455 H1459 0.930 . S
C1456 C1455 1.369 . S
C1456 C1465 1.429 . S
C1457 C1455 1.419 1_455 S
C1457 C1458 1.363 . S
C1457 H1460 0.929 . S
C1458 C1457 1.363 . S
C1458 C1464 1.428 . S
H1459 C1455 0.930 . S
H1460 C1457 0.929 . S
S1461 N1462 1.613 1_455 S
S1461 N1463 1.610 . S
N1462 S1461 1.613 1_655 S
N1462 C1465 1.350 . S
N1463 S1461 1.610 . S
N1463 C1464 1.351 . S
C1464 C1458 1.428 . S
C1464 N1463 1.351 . S
C1464 C1465 1.434 1_455 S
C1465 C1456 1.429 . S
C1465 N1462 1.350 . S
C1465 C1464 1.434 1_655 S
C1466 C1467 1.369 . S
C1466 C1468 1.419 . S
C1466 H1470 0.930 . S
C1467 C1466 1.369 . S
C1467 C1476 1.429 . S
C1468 C1466 1.419 . S
C1468 C1469 1.363 . S
C1468 H1471 0.929 . S
C1469 C1468 1.363 . S
C1469 C1475 1.428 . S
H1470 C1466 0.930 . S
H1471 C1468 0.929 . S
S1472 N1473 1.613 . S
S1472 N1474 1.610 . S
N1473 S1472 1.613 . S
N1473 C1476 1.350 . S
N1474 S1472 1.610 . S
N1474 C1475 1.351 . S
C1475 C1469 1.428 . S
C1475 N1474 1.351 . S
C1475 C1476 1.434 . S
C1476 C1467 1.429 . S
C1476 N1473 1.350 . S
C1476 C1475 1.434 . S
C1477 C1478 1.369 . S
C1477 C1479 1.419 1_545 S
C1477 H1481 0.930 . S
C1478 C1477 1.369 . S
C1478 C1487 1.429 . S
C1479 C1477 1.419 1_565 S
C1479 C1480 1.363 . S
C1479 H1482 0.929 . S
C1480 C1479 1.363 . S
C1480 C1486 1.428 . S
H1481 C1477 0.930 . S
H1482 C1479 0.929 . S
S1483 N1484 1.613 1_565 S
S1483 N1485 1.610 . S
N1484 S1483 1.613 1_545 S
N1484 C1487 1.350 . S
N1485 S1483 1.610 . S
N1485 C1486 1.351 . S
C1486 C1480 1.428 . S
C1486 N1485 1.351 . S
C1486 C1487 1.434 1_565 S
C1487 C1478 1.429 . S
C1487 N1484 1.350 . S
C1487 C1486 1.434 1_545 S
C1488 C1489 1.369 . S
C1488 C1490 1.419 . S
C1488 H1492 0.930 . S
C1489 C1488 1.369 . S
C1489 C1498 1.429 . S
C1490 C1488 1.419 . S
C1490 C1491 1.363 . S
C1490 H1493 0.929 . S
C1491 C1490 1.363 . S
C1491 C1497 1.428 . S
H1492 C1488 0.930 . S
H1493 C1490 0.929 . S
S1494 N1495 1.613 . S
S1494 N1496 1.610 . S
N1495 S1494 1.613 . S
N1495 C1498 1.350 . S
N1496 S1494 1.610 . S
N1496 C1497 1.351 . S
C1497 C1491 1.428 . S
C1497 N1496 1.351 . S
C1497 C1498 1.434 . S
C1498 C1489 1.429 . S
C1498 N1495 1.350 . S
C1498 C1497 1.434 . S
C1499 C1500 1.369 . S
C1499 C1501 1.419 . S
C1499 H1503 0.930 1_554 S
C1500 C1499 1.369 . S
C1500 C1509 1.429 . S
C1501 C1499 1.419 . S
C1501 C1502 1.363 . S
C1501 H1504 0.929 . S
C1502 C1501 1.363 . S
C1502 C1508 1.428 . S
H1503 C1499 0.930 1_556 S
H1504 C1501 0.929 . S
S1505 N1506 1.613 . S
S1505 N1507 1.610 . S
N1506 S1505 1.613 . S
N1506 C1509 1.350 . S
N1507 S1505 1.610 . S
N1507 C1508 1.351 . S
C1508 C1502 1.428 . S
C1508 N1507 1.351 . S
C1508 C1509 1.434 . S
C1509 C1500 1.429 . S
C1509 N1506 1.350 . S
C1509 C1508 1.434 . S
C1510 C1511 1.369 . S
C1510 C1512 1.419 . S
C1510 H1514 0.930 . S
C1511 C1510 1.369 . S
C1511 C1520 1.429 . S
C1512 C1510 1.419 . S
C1512 C1513 1.363 . S
C1512 H1515 0.929 . S
C1513 C1512 1.363 . S
C1513 C1519 1.428 . S
H1514 C1510 0.930 . S
H1515 C1512 0.929 . S
S1516 N1517 1.613 . S
S1516 N1518 1.610 . S
N1517 S1516 1.613 . S
N1517 C1520 1.350 . S
N1518 S1516 1.610 . S
N1518 C1519 1.351 . S
C1519 C1513 1.428 . S
C1519 N1518 1.351 . S
C1519 C1520 1.434 . S
C1520 C1511 1.429 . S
C1520 N1517 1.350 . S
C1520 C1519 1.434 . S
C1521 C1522 1.369 . S
C1521 C1523 1.419 . S
C1521 H1525 0.930 . S
C1522 C1521 1.369 . S
C1522 C1531 1.429 . S
C1523 C1521 1.419 . S
C1523 C1524 1.363 . S
C1523 H1526 0.929 . S
C1524 C1523 1.363 . S
C1524 C1530 1.428 . S
H1525 C1521 0.930 . S
H1526 C1523 0.929 . S
S1527 N1528 1.613 . S
S1527 N1529 1.610 . S
N1528 S1527 1.613 . S
N1528 C1531 1.350 . S
N1529 S1527 1.610 . S
N1529 C1530 1.351 . S
C1530 C1524 1.428 . S
C1530 N1529 1.351 . S
C1530 C1531 1.434 . S
C1531 C1522 1.429 . S
C1531 N1528 1.350 . S
C1531 C1530 1.434 . S
C1532 C1533 1.369 . S
C1532 C1534 1.419 . S
C1532 H1536 0.930 . S
C1533 C1532 1.369 . S
C1533 C1542 1.429 . S
C1534 C1532 1.419 . S
C1534 C1535 1.363 . S
C1534 H1537 0.929 . S
C1535 C1534 1.363 . S
C1535 C1541 1.428 . S
H1536 C1532 0.930 . S
H1537 C1534 0.929 . S
S1538 N1539 1.613 . S
S1538 N1540 1.610 . S
N1539 S1538 1.613 . S
N1539 C1542 1.350 . S
N1540 S1538 1.610 . S
N1540 C1541 1.351 . S
C1541 C1535 1.428 . S
C1541 N1540 1.351 . S
C1541 C1542 1.434 . S
C1542 C1533 1.429 . S
C1542 N1539 1.350 . S
C1542 C1541 1.434 . S
C1543 C1544 1.369 . S
C1543 C1545 1.419 . S
C1543 H1547 0.930 . S
C1544 C1543 1.369 . S
C1544 C1553 1.429 . S
C1545 C1543 1.419 . S
C1545 C1546 1.363 . S
C1545 H1548 0.929 . S
C1546 C1545 1.363 . S
C1546 C1552 1.428 . S
H1547 C1543 0.930 . S
H1548 C1545 0.929 . S
S1549 N1550 1.613 . S
S1549 N1551 1.610 . S
N1550 S1549 1.613 . S
N1550 C1553 1.350 . S
N1551 S1549 1.610 . S
N1551 C1552 1.351 . S
C1552 C1546 1.428 . S
C1552 N1551 1.351 . S
C1552 C1553 1.434 . S
C1553 C1544 1.429 . S
C1553 N1550 1.350 . S
C1553 C1552 1.434 . S
C1554 C1555 1.369 . S
C1554 C1556 1.419 . S
C1554 H1558 0.930 . S
C1555 C1554 1.369 . S
C1555 C1564 1.429 . S
C1556 C1554 1.419 . S
C1556 C1557 1.363 . S
C1556 H1559 0.929 . S
C1557 C1556 1.363 . S
C1557 C1563 1.428 . S
H1558 C1554 0.930 . S
H1559 C1556 0.929 . S
S1560 N1561 1.613 . S
S1560 N1562 1.610 . S
N1561 S1560 1.613 . S
N1561 C1564 1.350 . S
N1562 S1560 1.610 . S
N1562 C1563 1.351 . S
C1563 C1557 1.428 . S
C1563 N1562 1.351 . S
C1563 C1564 1.434 . S
C1564 C1555 1.429 . S
C1564 N1561 1.350 . S
C1564 C1563 1.434 . S
C1565 C1566 1.369 . S
C1565 C1567 1.419 . S
C1565 H1569 0.930 . S
C1566 C1565 1.369 . S
C1566 C1575 1.429 . S
C1567 C1565 1.419 . S
C1567 C1568 1.363 . S
C1567 H1570 0.929 . S
C1568 C1567 1.363 . S
C1568 C1574 1.428 . S
H1569 C1565 0.930 . S
H1570 C1567 0.929 . S
S1571 N1572 1.613 . S
S1571 N1573 1.610 . S
N1572 S1571 1.613 . S
N1572 C1575 1.350 . S
N1573 S1571 1.610 . S
N1573 C1574 1.351 . S
C1574 C1568 1.428 . S
C1574 N1573 1.351 . S
C1574 C1575 1.434 . S
C1575 C1566 1.429 . S
C1575 N1572 1.350 . S
C1575 C1574 1.434 . S
C1576 C1577 1.369 . S
C1576 C1578 1.419 . S
C1576 H1580 0.930 . S
C1577 C1576 1.369 . S
C1577 C1586 1.429 . S
C1578 C1576 1.419 . S
C1578 C1579 1.363 . S
C1578 H1581 0.929 . S
C1579 C1578 1.363 . S
C1579 C1585 1.428 . S
H1580 C1576 0.930 . S
H1581 C1578 0.929 . S
S1582 N1583 1.613 . S
S1582 N1584 1.610 . S
N1583 S1582 1.613 . S
N1583 C1586 1.350 . S
N1584 S1582 1.610 . S
N1584 C1585 1.351 . S
C1585 C1579 1.428 . S
C1585 N1584 1.351 . S
C1585 C1586 1.434 . S
C1586 C1577 1.429 . S
C1586 N1583 1.350 . S
C1586 C1585 1.434 . S
C1587 C1588 1.369 . S
C1587 C1589 1.419 . S
C1587 H1591 0.930 . S
C1588 C1587 1.369 . S
C1588 C1597 1.429 . S
C1589 C1587 1.419 . S
C1589 C1590 1.363 . S
C1589 H1592 0.929 . S
C1590 C1589 1.363 . S
C1590 C1596 1.428 . S
H1591 C1587 0.930 . S
H1592 C1589 0.929 . S
S1593 N1594 1.613 . S
S1593 N1595 1.610 . S
N1594 S1593 1.613 . S
N1594 C1597 1.350 . S
N1595 S1593 1.610 . S
N1595 C1596 1.351 . S
C1596 C1590 1.428 . S
C1596 N1595 1.351 . S
C1596 C1597 1.434 . S
C1597 C1588 1.429 . S
C1597 N1594 1.350 . S
C1597 C1596 1.434 . S
C1598 C1599 1.369 . S
C1598 C1600 1.419 . S
C1598 H1602 0.930 . S
C1599 C1598 1.369 . S
C1599 C1608 1.429 . S
C1600 C1598 1.419 . S
C1600 C1601 1.363 . S
C1600 H1603 0.929 . S
C1601 C1600 1.363 . S
C1601 C1607 1.428 1_556 S
H1602 C1598 0.930 . S
H1603 C1600 0.929 . S
S1604 N1605 1.613 . S
S1604 N1606 1.610 . S
N1605 S1604 1.613 . S
N1605 C1608 1.350 1_554 S
N1606 S1604 1.610 . S
N1606 C1607 1.351 . S
C1607 C1601 1.428 1_554 S
C1607 N1606 1.351 . S
C1607 C1608 1.434 1_554 S
C1608 C1599 1.429 . S
C1608 N1605 1.350 1_556 S
C1608 C1607 1.434 1_556 S
C1609 C1610 1.369 . S
C1609 C1611 1.419 . S
C1609 H1613 0.930 . S
C1610 C1609 1.369 . S
C1610 C1619 1.429 . S
C1611 C1609 1.419 . S
C1611 C1612 1.363 . S
C1611 H1614 0.929 . S
C1612 C1611 1.363 . S
C1612 C1618 1.428 1_556 S
H1613 C1609 0.930 . S
H1614 C1611 0.929 . S
S1615 N1616 1.613 1_554 S
S1615 N1617 1.610 . S
N1616 S1615 1.613 1_556 S
N1616 C1619 1.350 . S
N1617 S1615 1.610 . S
N1617 C1618 1.351 . S
C1618 C1612 1.428 1_554 S
C1618 N1617 1.351 . S
C1618 C1619 1.434 1_554 S
C1619 C1610 1.429 . S
C1619 N1616 1.350 . S
C1619 C1618 1.434 1_556 S
C1620 C1621 1.369 . S
C1620 C1622 1.419 . S
C1620 H1624 0.930 . S
C1621 C1620 1.369 . S
C1621 C1630 1.429 . S
C1622 C1620 1.419 . S
C1622 C1623 1.363 . S
C1622 H1625 0.929 . S
C1623 C1622 1.363 . S
C1623 C1629 1.428 . S
H1624 C1620 0.930 . S
H1625 C1622 0.929 . S
S1626 N1627 1.613 . S
S1626 N1628 1.610 . S
N1627 S1626 1.613 . S
N1627 C1630 1.350 . S
N1628 S1626 1.610 . S
N1628 C1629 1.351 . S
C1629 C1623 1.428 . S
C1629 N1628 1.351 . S
C1629 C1630 1.434 . S
C1630 C1621 1.429 . S
C1630 N1627 1.350 . S
C1630 C1629 1.434 . S
C1631 C1632 1.369 . S
C1631 C1633 1.419 . S
C1631 H1635 0.930 . S
C1632 C1631 1.369 . S
C1632 C1641 1.429 . S
C1633 C1631 1.419 . S
C1633 C1634 1.363 . S
C1633 H1636 0.929 . S
C1634 C1633 1.363 . S
C1634 C1640 1.428 . S
H1635 C1631 0.930 . S
H1636 C1633 0.929 . S
S1637 N1638 1.613 . S
S1637 N1639 1.610 . S
N1638 S1637 1.613 . S
N1638 C1641 1.350 . S
N1639 S1637 1.610 . S
N1639 C1640 1.351 . S
C1640 C1634 1.428 . S
C1640 N1639 1.351 . S
C1640 C1641 1.434 . S
C1641 C1632 1.429 . S
C1641 N1638 1.350 . S
C1641 C1640 1.434 . S
C1642 C1643 1.369 . S
C1642 C1644 1.419 . S
C1642 H1646 0.930 . S
C1643 C1642 1.369 . S
C1643 C1652 1.429 . S
C1644 C1642 1.419 . S
C1644 C1645 1.363 . S
C1644 H1647 0.929 . S
C1645 C1644 1.363 . S
C1645 C1651 1.428 . S
H1646 C1642 0.930 . S
H1647 C1644 0.929 . S
S1648 N1649 1.613 . S
S1648 N1650 1.610 . S
N1649 S1648 1.613 . S
N1649 C1652 1.350 . S
N1650 S1648 1.610 . S
N1650 C1651 1.351 . S
C1651 C1645 1.428 . S
C1651 N1650 1.351 . S
C1651 C1652 1.434 . S
C1652 C1643 1.429 . S
C1652 N1649 1.350 . S
C1652 C1651 1.434 . S
C1653 C1654 1.369 . S
C1653 C1655 1.419 . S
C1653 H1657 0.930 . S
C1654 C1653 1.369 . S
C1654 C1663 1.429 . S
C1655 C1653 1.419 . S
C1655 C1656 1.363 . S
C1655 H1658 0.929 . S
C1656 C1655 1.363 . S
C1656 C1662 1.428 . S
H1657 C1653 0.930 . S
H1658 C1655 0.929 . S
S1659 N1660 1.613 . S
S1659 N1661 1.610 . S
N1660 S1659 1.613 . S
N1660 C1663 1.350 . S
N1661 S1659 1.610 . S
N1661 C1662 1.351 . S
C1662 C1656 1.428 . S
C1662 N1661 1.351 . S
C1662 C1663 1.434 . S
C1663 C1654 1.429 . S
C1663 N1660 1.350 . S
C1663 C1662 1.434 . S
C1664 C1665 1.369 . S
C1664 C1666 1.419 . S
C1664 H1668 0.930 . S
C1665 C1664 1.369 . S
C1665 C1674 1.429 . S
C1666 C1664 1.419 . S
C1666 C1667 1.363 . S
C1666 H1669 0.929 . S
C1667 C1666 1.363 . S
C1667 C1673 1.428 . S
H1668 C1664 0.930 . S
H1669 C1666 0.929 . S
S1670 N1671 1.613 . S
S1670 N1672 1.610 . S
N1671 S1670 1.613 . S
N1671 C1674 1.350 . S
N1672 S1670 1.610 . S
N1672 C1673 1.351 . S
C1673 C1667 1.428 . S
C1673 N1672 1.351 . S
C1673 C1674 1.434 . S
C1674 C1665 1.429 . S
C1674 N1671 1.350 . S
C1674 C1673 1.434 . S
C1675 C1676 1.369 . S
C1675 C1677 1.419 . S
C1675 H1679 0.930 . S
C1676 C1675 1.369 . S
C1676 C1685 1.429 . S
C1677 C1675 1.419 . S
C1677 C1678 1.363 . S
C1677 H1680 0.929 . S
C1678 C1677 1.363 . S
C1678 C1684 1.428 . S
H1679 C1675 0.930 . S
H1680 C1677 0.929 . S
S1681 N1682 1.613 . S
S1681 N1683 1.610 . S
N1682 S1681 1.613 . S
N1682 C1685 1.350 . S
N1683 S1681 1.610 . S
N1683 C1684 1.351 . S
C1684 C1678 1.428 . S
C1684 N1683 1.351 . S
C1684 C1685 1.434 . S
C1685 C1676 1.429 . S
C1685 N1682 1.350 . S
C1685 C1684 1.434 . S
C1686 C1687 1.369 . S
C1686 C1688 1.419 . S
C1686 H1690 0.930 . S
C1687 C1686 1.369 . S
C1687 C1696 1.429 . S
C1688 C1686 1.419 . S
C1688 C1689 1.363 . S
C1688 H1691 0.929 . S
C1689 C1688 1.363 . S
C1689 C1695 1.428 . S
H1690 C1686 0.930 . S
H1691 C1688 0.929 . S
S1692 N1693 1.613 . S
S1692 N1694 1.610 . S
N1693 S1692 1.613 . S
N1693 C1696 1.350 . S
N1694 S1692 1.610 . S
N1694 C1695 1.351 . S
C1695 C1689 1.428 . S
C1695 N1694 1.351 . S
C1695 C1696 1.434 . S
C1696 C1687 1.429 . S
C1696 N1693 1.350 . S
C1696 C1695 1.434 . S
C1697 C1698 1.369 . S
C1697 C1699 1.419 . S
C1697 H1701 0.930 . S
C1698 C1697 1.369 . S
C1698 C1707 1.429 . S
C1699 C1697 1.419 . S
C1699 C1700 1.363 . S
C1699 H1702 0.929 . S
C1700 C1699 1.363 . S
C1700 C1706 1.428 . S
H1701 C1697 0.930 . S
H1702 C1699 0.929 . S
S1703 N1704 1.613 . S
S1703 N1705 1.610 . S
N1704 S1703 1.613 . S
N1704 C1707 1.350 . S
N1705 S1703 1.610 . S
N1705 C1706 1.351 . S
C1706 C1700 1.428 . S
C1706 N1705 1.351 . S
C1706 C1707 1.434 . S
C1707 C1698 1.429 . S
C1707 N1704 1.350 . S
C1707 C1706 1.434 . S
C1708 C1709 1.369 . S
C1708 C1710 1.419 . S
C1708 H1712 0.930 . S
C1709 C1708 1.369 . S
C1709 C1718 1.429 . S
C1710 C1708 1.419 . S
C1710 C1711 1.363 . S
C1710 H1713 0.929 . S
C1711 C1710 1.363 . S
C1711 C1717 1.428 . S
H1712 C1708 0.930 . S
H1713 C1710 0.929 . S
S1714 N1715 1.613 . S
S1714 N1716 1.610 . S
N1715 S1714 1.613 . S
N1715 C1718 1.350 . S
N1716 S1714 1.610 . S
N1716 C1717 1.351 . S
C1717 C1711 1.428 . S
C1717 N1716 1.351 . S
C1717 C1718 1.434 . S
C1718 C1709 1.429 . S
C1718 N1715 1.350 . S
C1718 C1717 1.434 . S
C1719 C1720 1.369 . S
C1719 C1721 1.419 . S
C1719 H1723 0.930 . S
C1720 C1719 1.369 . S
C1720 C1729 1.429 . S
C1721 C1719 1.419 . S
C1721 C1722 1.363 . S
C1721 H1724 0.929 . S
C1722 C1721 1.363 . S
C1722 C1728 1.428 . S
H1723 C1719 0.930 . S
H1724 C1721 0.929 . S
S1725 N1726 1.613 . S
S1725 N1727 1.610 . S
N1726 S1725 1.613 . S
N1726 C1729 1.350 . S
N1727 S1725 1.610 . S
N1727 C1728 1.351 . S
C1728 C1722 1.428 . S
C1728 N1727 1.351 . S
C1728 C1729 1.434 . S
C1729 C1720 1.429 . S
C1729 N1726 1.350 . S
C1729 C1728 1.434 . S
C1730 C1731 1.369 . S
C1730 C1732 1.419 . S
C1730 H1734 0.930 . S
C1731 C1730 1.369 . S
C1731 C1740 1.429 . S
C1732 C1730 1.419 . S
C1732 C1733 1.363 . S
C1732 H1735 0.929 . S
C1733 C1732 1.363 . S
C1733 C1739 1.428 . S
H1734 C1730 0.930 . S
H1735 C1732 0.929 . S
S1736 N1737 1.613 . S
S1736 N1738 1.610 . S
N1737 S1736 1.613 . S
N1737 C1740 1.350 . S
N1738 S1736 1.610 . S
N1738 C1739 1.351 . S
C1739 C1733 1.428 . S
C1739 N1738 1.351 . S
C1739 C1740 1.434 . S
C1740 C1731 1.429 . S
C1740 N1737 1.350 . S
C1740 C1739 1.434 . S
C1741 C1742 1.369 . S
C1741 C1743 1.419 . S
C1741 H1745 0.930 . S
C1742 C1741 1.369 . S
C1742 C1751 1.429 . S
C1743 C1741 1.419 . S
C1743 C1744 1.363 . S
C1743 H1746 0.929 . S
C1744 C1743 1.363 . S
C1744 C1750 1.428 . S
H1745 C1741 0.930 . S
H1746 C1743 0.929 . S
S1747 N1748 1.613 . S
S1747 N1749 1.610 . S
N1748 S1747 1.613 . S
N1748 C1751 1.350 . S
N1749 S1747 1.610 . S
N1749 C1750 1.351 . S
C1750 C1744 1.428 . S
C1750 N1749 1.351 . S
C1750 C1751 1.434 . S
C1751 C1742 1.429 . S
C1751 N1748 1.350 . S
C1751 C1750 1.434 . S
C1752 C1753 1.369 . S
C1752 C1754 1.419 . S
C1752 H1756 0.930 1_554 S
C1753 C1752 1.369 . S
C1753 C1762 1.429 . S
C1754 C1752 1.419 . S
C1754 C1755 1.363 . S
C1754 H1757 0.929 . S
C1755 C1754 1.363 . S
C1755 C1761 1.428 . S
H1756 C1752 0.930 1_556 S
H1757 C1754 0.929 . S
S1758 N1759 1.613 . S
S1758 N1760 1.610 . S
N1759 S1758 1.613 . S
N1759 C1762 1.350 . S
N1760 S1758 1.610 . S
N1760 C1761 1.351 . S
C1761 C1755 1.428 . S
C1761 N1760 1.351 . S
C1761 C1762 1.434 . S
C1762 C1753 1.429 . S
C1762 N1759 1.350 . S
C1762 C1761 1.434 . S
C1763 C1764 1.369 . S
C1763 C1765 1.419 . S
C1763 H1767 0.930 . S
C1764 C1763 1.369 . S
C1764 C1773 1.429 . S
C1765 C1763 1.419 . S
C1765 C1766 1.363 . S
C1765 H1768 0.929 . S
C1766 C1765 1.363 . S
C1766 C1772 1.428 . S
H1767 C1763 0.930 . S
H1768 C1765 0.929 . S
S1769 N1770 1.613 . S
S1769 N1771 1.610 1_556 S
N1770 S1769 1.613 . S
N1770 C1773 1.350 1_556 S
N1771 S1769 1.610 1_554 S
N1771 C1772 1.351 . S
C1772 C1766 1.428 . S
C1772 N1771 1.351 . S
C1772 C1773 1.434 . S
C1773 C1764 1.429 . S
C1773 N1770 1.350 1_554 S
C1773 C1772 1.434 . S
C1774 C1775 1.369 . S
C1774 C1776 1.419 . S
C1774 H1778 0.930 . S
C1775 C1774 1.369 . S
C1775 C1784 1.429 . S
C1776 C1774 1.419 . S
C1776 C1777 1.363 . S
C1776 H1779 0.929 . S
C1777 C1776 1.363 . S
C1777 C1783 1.428 . S
H1778 C1774 0.930 . S
H1779 C1776 0.929 . S
S1780 N1781 1.613 . S
S1780 N1782 1.610 . S
N1781 S1780 1.613 . S
N1781 C1784 1.350 . S
N1782 S1780 1.610 . S
N1782 C1783 1.351 . S
C1783 C1777 1.428 . S
C1783 N1782 1.351 . S
C1783 C1784 1.434 . S
C1784 C1775 1.429 . S
C1784 N1781 1.350 . S
C1784 C1783 1.434 . S
C1785 C1786 1.369 . S
C1785 C1787 1.419 . S
C1785 H1789 0.930 . S
C1786 C1785 1.369 . S
C1786 C1795 1.429 . S
C1787 C1785 1.419 . S
C1787 C1788 1.363 . S
C1787 H1790 0.929 . S
C1788 C1787 1.363 . S
C1788 C1794 1.428 . S
H1789 C1785 0.930 . S
H1790 C1787 0.929 . S
S1791 N1792 1.613 1_556 S
S1791 N1793 1.610 . S
N1792 S1791 1.613 1_554 S
N1792 C1795 1.350 . S
N1793 S1791 1.610 . S
N1793 C1794 1.351 1_556 S
C1794 C1788 1.428 . S
C1794 N1793 1.351 1_554 S
C1794 C1795 1.434 . S
C1795 C1786 1.429 . S
C1795 N1792 1.350 . S
C1795 C1794 1.434 . S
C1796 C1797 1.369 . S
C1796 C1798 1.419 . S
C1796 H1800 0.930 1_554 S
C1797 C1796 1.369 . S
C1797 C1806 1.429 . S
C1798 C1796 1.419 . S
C1798 C1799 1.363 . S
C1798 H1801 0.929 . S
C1799 C1798 1.363 . S
C1799 C1805 1.428 . S
H1800 C1796 0.930 1_556 S
H1801 C1798 0.929 . S
S1802 N1803 1.613 . S
S1802 N1804 1.610 . S
N1803 S1802 1.613 . S
N1803 C1806 1.350 . S
N1804 S1802 1.610 . S
N1804 C1805 1.351 . S
C1805 C1799 1.428 . S
C1805 N1804 1.351 . S
C1805 C1806 1.434 . S
C1806 C1797 1.429 . S
C1806 N1803 1.350 . S
C1806 C1805 1.434 . S
C1807 C1808 1.369 . S
C1807 C1809 1.419 . S
C1807 H1811 0.930 . S
C1808 C1807 1.369 . S
C1808 C1817 1.429 . S
C1809 C1807 1.419 . S
C1809 C1810 1.363 . S
C1809 H1812 0.929 . S
C1810 C1809 1.363 . S
C1810 C1816 1.428 . S
H1811 C1807 0.930 . S
H1812 C1809 0.929 . S
S1813 N1814 1.613 1_556 S
S1813 N1815 1.610 . S
N1814 S1813 1.613 1_554 S
N1814 C1817 1.350 . S
N1815 S1813 1.610 . S
N1815 C1816 1.351 1_556 S
C1816 C1810 1.428 . S
C1816 N1815 1.351 1_554 S
C1816 C1817 1.434 . S
C1817 C1808 1.429 . S
C1817 N1814 1.350 . S
C1817 C1816 1.434 . S
C1818 C1819 1.369 . S
C1818 C1820 1.419 . S
C1818 H1822 0.930 . S
C1819 C1818 1.369 . S
C1819 C1828 1.429 . S
C1820 C1818 1.419 . S
C1820 C1821 1.363 . S
C1820 H1823 0.929 . S
C1821 C1820 1.363 . S
C1821 C1827 1.428 . S
H1822 C1818 0.930 . S
H1823 C1820 0.929 . S
S1824 N1825 1.613 . S
S1824 N1826 1.610 . S
N1825 S1824 1.613 . S
N1825 C1828 1.350 . S
N1826 S1824 1.610 . S
N1826 C1827 1.351 . S
C1827 C1821 1.428 . S
C1827 N1826 1.351 . S
C1827 C1828 1.434 . S
C1828 C1819 1.429 . S
C1828 N1825 1.350 . S
C1828 C1827 1.434 . S
C1829 C1830 1.369 . S
C1829 C1831 1.419 . S
C1829 H1833 0.930 . S
C1830 C1829 1.369 . S
C1830 C1839 1.429 . S
C1831 C1829 1.419 . S
C1831 C1832 1.363 . S
C1831 H1834 0.929 . S
C1832 C1831 1.363 . S
C1832 C1838 1.428 . S
H1833 C1829 0.930 . S
H1834 C1831 0.929 . S
S1835 N1836 1.613 . S
S1835 N1837 1.610 . S
N1836 S1835 1.613 . S
N1836 C1839 1.350 . S
N1837 S1835 1.610 . S
N1837 C1838 1.351 . S
C1838 C1832 1.428 . S
C1838 N1837 1.351 . S
C1838 C1839 1.434 . S
C1839 C1830 1.429 . S
C1839 N1836 1.350 . S
C1839 C1838 1.434 . S
C1840 C1841 1.369 . S
C1840 C1842 1.419 . S
C1840 H1844 0.930 . S
C1841 C1840 1.369 . S
C1841 C1850 1.429 . S
C1842 C1840 1.419 . S
C1842 C1843 1.363 . S
C1842 H1845 0.929 . S
C1843 C1842 1.363 . S
C1843 C1849 1.428 . S
H1844 C1840 0.930 . S
H1845 C1842 0.929 . S
S1846 N1847 1.613 . S
S1846 N1848 1.610 . S
N1847 S1846 1.613 . S
N1847 C1850 1.350 . S
N1848 S1846 1.610 . S
N1848 C1849 1.351 . S
C1849 C1843 1.428 . S
C1849 N1848 1.351 . S
C1849 C1850 1.434 . S
C1850 C1841 1.429 . S
C1850 N1847 1.350 . S
C1850 C1849 1.434 . S
C1851 C1852 1.369 . S
C1851 C1853 1.419 . S
C1851 H1855 0.930 . S
C1852 C1851 1.369 . S
C1852 C1861 1.429 . S
C1853 C1851 1.419 . S
C1853 C1854 1.363 . S
C1853 H1856 0.929 . S
C1854 C1853 1.363 . S
C1854 C1860 1.428 . S
H1855 C1851 0.930 . S
H1856 C1853 0.929 . S
S1857 N1858 1.613 . S
S1857 N1859 1.610 . S
N1858 S1857 1.613 . S
N1858 C1861 1.350 . S
N1859 S1857 1.610 . S
N1859 C1860 1.351 . S
C1860 C1854 1.428 . S
C1860 N1859 1.351 . S
C1860 C1861 1.434 . S
C1861 C1852 1.429 . S
C1861 N1858 1.350 . S
C1861 C1860 1.434 . S
C1862 C1863 1.369 . S
C1862 C1864 1.419 . S
C1862 H1866 0.930 . S
C1863 C1862 1.369 . S
C1863 C1872 1.429 . S
C1864 C1862 1.419 . S
C1864 C1865 1.363 . S
C1864 H1867 0.929 . S
C1865 C1864 1.363 . S
C1865 C1871 1.428 . S
H1866 C1862 0.930 . S
H1867 C1864 0.929 . S
S1868 N1869 1.613 . S
S1868 N1870 1.610 . S
N1869 S1868 1.613 . S
N1869 C1872 1.350 . S
N1870 S1868 1.610 . S
N1870 C1871 1.351 . S
C1871 C1865 1.428 . S
C1871 N1870 1.351 . S
C1871 C1872 1.434 . S
C1872 C1863 1.429 . S
C1872 N1869 1.350 . S
C1872 C1871 1.434 . S
C1873 C1874 1.369 . S
C1873 C1875 1.419 . S
C1873 H1877 0.930 . S
C1874 C1873 1.369 . S
C1874 C1883 1.429 . S
C1875 C1873 1.419 . S
C1875 C1876 1.363 . S
C1875 H1878 0.929 . S
C1876 C1875 1.363 . S
C1876 C1882 1.428 . S
H1877 C1873 0.930 . S
H1878 C1875 0.929 . S
S1879 N1880 1.613 . S
S1879 N1881 1.610 . S
N1880 S1879 1.613 . S
N1880 C1883 1.350 . S
N1881 S1879 1.610 . S
N1881 C1882 1.351 . S
C1882 C1876 1.428 . S
C1882 N1881 1.351 . S
C1882 C1883 1.434 . S
C1883 C1874 1.429 . S
C1883 N1880 1.350 . S
C1883 C1882 1.434 . S
C1884 C1885 1.369 . S
C1884 C1886 1.419 . S
C1884 H1888 0.930 . S
C1885 C1884 1.369 . S
C1885 C1894 1.429 . S
C1886 C1884 1.419 . S
C1886 C1887 1.363 . S
C1886 H1889 0.929 . S
C1887 C1886 1.363 . S
C1887 C1893 1.428 . S
H1888 C1884 0.930 . S
H1889 C1886 0.929 . S
S1890 N1891 1.613 . S
S1890 N1892 1.610 . S
N1891 S1890 1.613 . S
N1891 C1894 1.350 . S
N1892 S1890 1.610 . S
N1892 C1893 1.351 . S
C1893 C1887 1.428 . S
C1893 N1892 1.351 . S
C1893 C1894 1.434 . S
C1894 C1885 1.429 . S
C1894 N1891 1.350 . S
C1894 C1893 1.434 . S
C1895 C1896 1.369 . S
C1895 C1897 1.419 . S
C1895 H1899 0.930 . S
C1896 C1895 1.369 . S
C1896 C1905 1.429 . S
C1897 C1895 1.419 . S
C1897 C1898 1.363 . S
C1897 H1900 0.929 . S
C1898 C1897 1.363 . S
C1898 C1904 1.428 . S
H1899 C1895 0.930 . S
H1900 C1897 0.929 . S
S1901 N1902 1.613 . S
S1901 N1903 1.610 . S
N1902 S1901 1.613 . S
N1902 C1905 1.350 . S
N1903 S1901 1.610 . S
N1903 C1904 1.351 . S
C1904 C1898 1.428 . S
C1904 N1903 1.351 . S
C1904 C1905 1.434 . S
C1905 C1896 1.429 . S
C1905 N1902 1.350 . S
C1905 C1904 1.434 . S
C1906 C1907 1.369 . S
C1906 C1908 1.419 . S
C1906 H1910 0.930 . S
C1907 C1906 1.369 . S
C1907 C1916 1.429 . S
C1908 C1906 1.419 . S
C1908 C1909 1.363 . S
C1908 H1911 0.929 . S
C1909 C1908 1.363 . S
C1909 C1915 1.428 . S
H1910 C1906 0.930 . S
H1911 C1908 0.929 . S
S1912 N1913 1.613 . S
S1912 N1914 1.610 . S
N1913 S1912 1.613 . S
N1913 C1916 1.350 . S
N1914 S1912 1.610 . S
N1914 C1915 1.351 . S
C1915 C1909 1.428 . S
C1915 N1914 1.351 . S
C1915 C1916 1.434 . S
C1916 C1907 1.429 . S
C1916 N1913 1.350 . S
C1916 C1915 1.434 . S
C1917 C1918 1.369 . S
C1917 C1919 1.419 . S
C1917 H1921 0.930 . S
C1918 C1917 1.369 . S
C1918 C1927 1.429 . S
C1919 C1917 1.419 . S
C1919 C1920 1.363 . S
C1919 H1922 0.929 . S
C1920 C1919 1.363 . S
C1920 C1926 1.428 . S
H1921 C1917 0.930 . S
H1922 C1919 0.929 . S
S1923 N1924 1.613 . S
S1923 N1925 1.610 . S
N1924 S1923 1.613 . S
N1924 C1927 1.350 . S
N1925 S1923 1.610 . S
N1925 C1926 1.351 . S
C1926 C1920 1.428 . S
C1926 N1925 1.351 . S
C1926 C1927 1.434 . S
C1927 C1918 1.429 . S
C1927 N1924 1.350 . S
C1927 C1926 1.434 . S
C1928 C1929 1.369 . S
C1928 C1930 1.419 . S
C1928 H1932 0.930 . S
C1929 C1928 1.369 . S
C1929 C1938 1.429 . S
C1930 C1928 1.419 . S
C1930 C1931 1.363 . S
C1930 H1933 0.929 . S
C1931 C1930 1.363 . S
C1931 C1937 1.428 . S
H1932 C1928 0.930 . S
H1933 C1930 0.929 . S
S1934 N1935 1.613 . S
S1934 N1936 1.610 . S
N1935 S1934 1.613 . S
N1935 C1938 1.350 . S
N1936 S1934 1.610 . S
N1936 C1937 1.351 . S
C1937 C1931 1.428 . S
C1937 N1936 1.351 . S
C1937 C1938 1.434 . S
C1938 C1929 1.429 . S
C1938 N1935 1.350 . S
C1938 C1937 1.434 . S
C1939 C1940 1.369 . S
C1939 C1941 1.419 . S
C1939 H1943 0.930 . S
C1940 C1939 1.369 . S
C1940 C1949 1.429 . S
C1941 C1939 1.419 . S
C1941 C1942 1.363 . S
C1941 H1944 0.929 . S
C1942 C1941 1.363 . S
C1942 C1948 1.428 . S
H1943 C1939 0.930 . S
H1944 C1941 0.929 . S
S1945 N1946 1.613 . S
S1945 N1947 1.610 . S
N1946 S1945 1.613 . S
N1946 C1949 1.350 . S
N1947 S1945 1.610 . S
N1947 C1948 1.351 . S
C1948 C1942 1.428 . S
C1948 N1947 1.351 . S
C1948 C1949 1.434 . S
C1949 C1940 1.429 . S
C1949 N1946 1.350 . S
C1949 C1948 1.434 . S
C1950 C1951 1.369 . S
C1950 C1952 1.419 . S
C1950 H1954 0.930 . S
C1951 C1950 1.369 . S
C1951 C1960 1.429 . S
C1952 C1950 1.419 . S
C1952 C1953 1.363 1_556 S
C1952 H1955 0.929 1_556 S
C1953 C1952 1.363 1_554 S
C1953 C1959 1.428 1_554 S
H1954 C1950 0.930 . S
H1955 C1952 0.929 1_554 S
S1956 N1957 1.613 . S
S1956 N1958 1.610 . S
N1957 S1956 1.613 . S
N1957 C1960 1.350 . S
N1958 S1956 1.610 . S
N1958 C1959 1.351 . S
C1959 C1953 1.428 1_556 S
C1959 N1958 1.351 . S
C1959 C1960 1.434 . S
C1960 C1951 1.429 . S
C1960 N1957 1.350 . S
C1960 C1959 1.434 . S
C1961 C1962 1.369 . S
C1961 C1963 1.419 1_554 S
C1961 H1965 0.930 . S
C1962 C1961 1.369 . S
C1962 C1971 1.429 1_554 S
C1963 C1961 1.419 1_556 S
C1963 C1964 1.363 . S
C1963 H1966 0.929 . S
C1964 C1963 1.363 . S
C1964 C1970 1.428 . S
H1965 C1961 0.930 . S
H1966 C1963 0.929 . S
S1967 N1968 1.613 . S
S1967 N1969 1.610 . S
N1968 S1967 1.613 . S
N1968 C1971 1.350 . S
N1969 S1967 1.610 . S
N1969 C1970 1.351 . S
C1970 C1964 1.428 . S
C1970 N1969 1.351 . S
C1970 C1971 1.434 . S
C1971 C1962 1.429 1_556 S
C1971 N1968 1.350 . S
C1971 C1970 1.434 . S
C1972 C1973 1.369 . S
C1972 C1974 1.419 1_556 S
C1972 H1976 0.930 1_556 S
C1973 C1972 1.369 . S
C1973 C1982 1.429 . S
C1974 C1972 1.419 1_554 S
C1974 C1975 1.363 . S
C1974 H1977 0.929 . S
C1975 C1974 1.363 . S
C1975 C1981 1.428 1_554 S
H1976 C1972 0.930 1_554 S
H1977 C1974 0.929 . S
S1978 N1979 1.613 . S
S1978 N1980 1.610 . S
N1979 S1978 1.613 . S
N1979 C1982 1.350 . S
N1980 S1978 1.610 . S
N1980 C1981 1.351 . S
C1981 C1975 1.428 1_556 S
C1981 N1980 1.351 . S
C1981 C1982 1.434 . S
C1982 C1973 1.429 . S
C1982 N1979 1.350 . S
C1982 C1981 1.434 . S
C1983 C1984 1.369 . S
C1983 C1985 1.419 . S
C1983 H1987 0.930 . S
C1984 C1983 1.369 . S
C1984 C1993 1.429 1_556 S
C1985 C1983 1.419 . S
C1985 C1986 1.363 . S
C1985 H1988 0.929 . S
C1986 C1985 1.363 . S
C1986 C1992 1.428 . S
H1987 C1983 0.930 . S
H1988 C1985 0.929 . S
S1989 N1990 1.613 . S
S1989 N1991 1.610 1_554 S
N1990 S1989 1.613 . S
N1990 C1993 1.350 . S
N1991 S1989 1.610 1_556 S
N1991 C1992 1.351 . S
C1992 C1986 1.428 . S
C1992 N1991 1.351 . S
C1992 C1993 1.434 1_556 S
C1993 C1984 1.429 1_554 S
C1993 N1990 1.350 . S
C1993 C1992 1.434 1_554 S
C1994 C1995 1.369 . S
C1994 C1996 1.419 . S
C1994 H1998 0.930 . S
C1995 C1994 1.369 . S
C1995 C2004 1.429 . S
C1996 C1994 1.419 . S
C1996 C1997 1.363 . S
C1996 H1999 0.929 . S
C1997 C1996 1.363 . S
C1997 C2003 1.428 . S
H1998 C1994 0.930 . S
H1999 C1996 0.929 . S
S2000 N2001 1.613 . S
S2000 N2002 1.610 . S
N2001 S2000 1.613 . S
N2001 C2004 1.350 . S
N2002 S2000 1.610 . S
N2002 C2003 1.351 . S
C2003 C1997 1.428 . S
C2003 N2002 1.351 . S
C2003 C2004 1.434 . S
C2004 C1995 1.429 . S
C2004 N2001 1.350 . S
C2004 C2003 1.434 . S
C2005 C2006 1.369 . S
C2005 C2007 1.419 . S
C2005 H2009 0.930 . S
C2006 C2005 1.369 . S
C2006 C2015 1.429 . S
C2007 C2005 1.419 . S
C2007 C2008 1.363 . S
C2007 H2010 0.929 . S
C2008 C2007 1.363 . S
C2008 C2014 1.428 1_556 S
H2009 C2005 0.930 . S
H2010 C2007 0.929 . S
S2011 N2012 1.613 1_554 S
S2011 N2013 1.610 . S
N2012 S2011 1.613 1_556 S
N2012 C2015 1.350 . S
N2013 S2011 1.610 . S
N2013 C2014 1.351 . S
C2014 C2008 1.428 1_554 S
C2014 N2013 1.351 . S
C2014 C2015 1.434 1_554 S
C2015 C2006 1.429 . S
C2015 N2012 1.350 . S
C2015 C2014 1.434 1_556 S
C2016 C2017 1.369 . S
C2016 C2018 1.419 1_455 S
C2016 H2020 0.930 . S
C2017 C2016 1.369 . S
C2017 C2026 1.429 . S
C2018 C2016 1.419 1_655 S
C2018 C2019 1.363 . S
C2018 H2021 0.929 . S
C2019 C2018 1.363 . S
C2019 C2025 1.428 . S
H2020 C2016 0.930 . S
H2021 C2018 0.929 . S
S2022 N2023 1.544 1_655 S
S2022 N2024 1.630 . S
N2023 S2022 1.544 1_455 S
N2023 C2026 1.350 . S
N2024 S2022 1.630 . S
N2024 C2025 1.351 . S
C2025 C2019 1.428 . S
C2025 N2024 1.351 . S
C2025 C2026 1.434 1_655 S
C2026 C2017 1.429 . S
C2026 N2023 1.350 . S
C2026 C2025 1.434 1_455 S
C2027 C2028 1.369 . S
C2027 C2029 1.419 . S
C2027 H2031 0.930 . S
C2028 C2027 1.369 . S
C2028 C2037 1.429 . S
C2029 C2027 1.419 . S
C2029 C2030 1.363 . S
C2029 H2032 0.929 . S
C2030 C2029 1.363 . S
C2030 C2036 1.428 . S
H2031 C2027 0.930 . S
H2032 C2029 0.929 . S
S2033 N2034 1.613 . S
S2033 N2035 1.610 . S
N2034 S2033 1.613 . S
N2034 C2037 1.350 . S
N2035 S2033 1.610 . S
N2035 C2036 1.351 . S
C2036 C2030 1.428 . S
C2036 N2035 1.351 . S
C2036 C2037 1.434 . S
C2037 C2028 1.429 . S
C2037 N2034 1.350 . S
C2037 C2036 1.434 . S
C2038 C2039 1.409 . S
C2038 C2040 1.362 1_565 S
C2038 H2042 0.930 . S
C2039 C2038 1.409 . S
C2039 C2048 1.429 . S
C2040 C2038 1.362 1_545 S
C2040 C2041 1.363 . S
C2040 H2043 0.929 . S
C2041 C2040 1.363 . S
C2041 C2047 1.443 . S
H2042 C2038 0.930 . S
H2043 C2040 0.929 . S
S2044 N2045 1.613 . S
S2044 N2046 1.653 . S
N2045 S2044 1.613 . S
N2045 C2048 1.350 . S
N2046 S2044 1.653 . S
N2046 C2047 1.376 1_565 S
C2047 C2041 1.443 . S
C2047 N2046 1.376 1_545 S
C2047 C2048 1.411 1_545 S
C2048 C2039 1.429 . S
C2048 N2045 1.350 . S
C2048 C2047 1.411 1_565 S
C2049 C2050 1.369 . S
C2049 C2051 1.418 1_655 S
C2049 H2053 0.930 . S
C2050 C2049 1.369 . S
C2050 C2059 1.429 1_655 S
C2051 C2049 1.418 1_455 S
C2051 C2052 1.364 . S
C2051 H2054 0.922 1_455 S
C2052 C2051 1.364 . S
C2052 C2058 1.428 . S
H2053 C2049 0.930 . S
H2054 C2051 0.922 1_655 S
S2055 N2056 1.613 . S
S2055 N2057 1.610 . S
N2056 S2055 1.613 . S
N2056 C2059 1.350 . S
N2057 S2055 1.610 . S
N2057 C2058 1.351 . S
C2058 C2052 1.428 . S
C2058 N2057 1.351 . S
C2058 C2059 1.434 . S
C2059 C2050 1.429 1_455 S
C2059 N2056 1.350 . S
C2059 C2058 1.434 . S
C2060 C2061 1.369 . S
C2060 C2062 1.419 . S
C2060 H2064 0.930 . S
C2061 C2060 1.369 . S
C2061 C2070 1.429 . S
C2062 C2060 1.419 . S
C2062 C2063 1.363 . S
C2062 H2065 0.929 . S
C2063 C2062 1.363 . S
C2063 C2069 1.428 . S
H2064 C2060 0.930 . S
H2065 C2062 0.929 . S
S2066 N2067 1.613 . S
S2066 N2068 1.610 . S
N2067 S2066 1.613 . S
N2067 C2070 1.350 . S
N2068 S2066 1.610 . S
N2068 C2069 1.351 . S
C2069 C2063 1.428 . S
C2069 N2068 1.351 . S
C2069 C2070 1.434 . S
C2070 C2061 1.429 . S
C2070 N2067 1.350 . S
C2070 C2069 1.434 . S
C2071 C2072 1.369 . S
C2071 C2073 1.419 1_545 S
C2071 H2075 0.930 . S
C2072 C2071 1.369 . S
C2072 C2081 1.429 . S
C2073 C2071 1.419 1_565 S
C2073 C2074 1.363 . S
C2073 H2076 0.929 . S
C2074 C2073 1.363 . S
C2074 C2080 1.428 . S
H2075 C2071 0.930 . S
H2076 C2073 0.929 . S
S2077 N2078 1.613 . S
S2077 N2079 1.610 1_545 S
N2078 S2077 1.613 . S
N2078 C2081 1.350 . S
N2079 S2077 1.610 1_565 S
N2079 C2080 1.351 . S
C2080 C2074 1.428 . S
C2080 N2079 1.351 . S
C2080 C2081 1.434 1_565 S
C2081 C2072 1.429 . S
C2081 N2078 1.350 . S
C2081 C2080 1.434 1_545 S
C2082 C2083 1.369 . S
C2082 C2084 1.419 . S
C2082 H2086 0.930 . S
C2083 C2082 1.369 . S
C2083 C2092 1.429 . S
C2084 C2082 1.419 . S
C2084 C2085 1.363 . S
C2084 H2087 0.929 . S
C2085 C2084 1.363 . S
C2085 C2091 1.428 . S
H2086 C2082 0.930 . S
H2087 C2084 0.929 . S
S2088 N2089 1.613 . S
S2088 N2090 1.610 . S
N2089 S2088 1.613 . S
N2089 C2092 1.350 . S
N2090 S2088 1.610 . S
N2090 C2091 1.351 . S
C2091 C2085 1.428 . S
C2091 N2090 1.351 . S
C2091 C2092 1.434 . S
C2092 C2083 1.429 . S
C2092 N2089 1.350 . S
C2092 C2091 1.434 . S
C2093 C2094 1.369 . S
C2093 C2095 1.419 . S
C2093 H2097 0.930 . S
C2094 C2093 1.369 . S
C2094 C2103 1.429 . S
C2095 C2093 1.419 . S
C2095 C2096 1.363 . S
C2095 H2098 0.929 . S
C2096 C2095 1.363 . S
C2096 C2102 1.428 . S
H2097 C2093 0.930 . S
H2098 C2095 0.929 . S
S2099 N2100 1.613 . S
S2099 N2101 1.610 . S
N2100 S2099 1.613 . S
N2100 C2103 1.350 . S
N2101 S2099 1.610 . S
N2101 C2102 1.351 . S
C2102 C2096 1.428 . S
C2102 N2101 1.351 . S
C2102 C2103 1.434 . S
C2103 C2094 1.429 . S
C2103 N2100 1.350 . S
C2103 C2102 1.434 . S
C2104 C2105 1.369 . S
C2104 C2106 1.419 . S
C2104 H2108 0.930 . S
C2105 C2104 1.369 . S
C2105 C2114 1.429 . S
C2106 C2104 1.419 . S
C2106 C2107 1.363 . S
C2106 H2109 0.929 . S
C2107 C2106 1.363 . S
C2107 C2113 1.428 . S
H2108 C2104 0.930 . S
H2109 C2106 0.929 . S
S2110 N2111 1.613 . S
S2110 N2112 1.610 . S
N2111 S2110 1.613 . S
N2111 C2114 1.350 . S
N2112 S2110 1.610 . S
N2112 C2113 1.351 . S
C2113 C2107 1.428 . S
C2113 N2112 1.351 . S
C2113 C2114 1.434 . S
C2114 C2105 1.429 . S
C2114 N2111 1.350 . S
C2114 C2113 1.434 . S
C2115 C2116 1.369 . S
C2115 C2117 1.419 . S
C2115 H2119 0.930 . S
C2116 C2115 1.369 . S
C2116 C2125 1.429 . S
C2117 C2115 1.419 . S
C2117 C2118 1.363 . S
C2117 H2120 0.929 . S
C2118 C2117 1.363 . S
C2118 C2124 1.428 . S
H2119 C2115 0.930 . S
H2120 C2117 0.929 . S
S2121 N2122 1.613 . S
S2121 N2123 1.610 . S
N2122 S2121 1.613 . S
N2122 C2125 1.350 . S
N2123 S2121 1.610 . S
N2123 C2124 1.351 . S
C2124 C2118 1.428 . S
C2124 N2123 1.351 . S
C2124 C2125 1.434 . S
C2125 C2116 1.429 . S
C2125 N2122 1.350 . S
C2125 C2124 1.434 . S
C2126 C2127 1.369 . S
C2126 C2128 1.419 . S
C2126 H2130 0.930 . S
C2127 C2126 1.369 . S
C2127 C2136 1.429 . S
C2128 C2126 1.419 . S
C2128 C2129 1.363 . S
C2128 H2131 0.929 . S
C2129 C2128 1.363 . S
C2129 C2135 1.428 . S
H2130 C2126 0.930 . S
H2131 C2128 0.929 . S
S2132 N2133 1.613 . S
S2132 N2134 1.610 . S
N2133 S2132 1.613 . S
N2133 C2136 1.350 . S
N2134 S2132 1.610 . S
N2134 C2135 1.351 . S
C2135 C2129 1.428 . S
C2135 N2134 1.351 . S
C2135 C2136 1.434 . S
C2136 C2127 1.429 . S
C2136 N2133 1.350 . S
C2136 C2135 1.434 . S
C2137 C2138 1.369 . S
C2137 C2139 1.419 . S
C2137 H2141 0.930 . S
C2138 C2137 1.369 . S
C2138 C2147 1.429 . S
C2139 C2137 1.419 . S
C2139 C2140 1.363 . S
C2139 H2142 0.929 . S
C2140 C2139 1.363 . S
C2140 C2146 1.428 . S
H2141 C2137 0.930 . S
H2142 C2139 0.929 . S
S2143 N2144 1.613 . S
S2143 N2145 1.610 . S
N2144 S2143 1.613 . S
N2144 C2147 1.350 . S
N2145 S2143 1.610 . S
N2145 C2146 1.351 . S
C2146 C2140 1.428 . S
C2146 N2145 1.351 . S
C2146 C2147 1.434 . S
C2147 C2138 1.429 . S
C2147 N2144 1.350 . S
C2147 C2146 1.434 . S
C2148 C2149 1.369 1_556 S
C2148 C2150 1.419 . S
C2148 H2152 0.930 1_556 S
C2149 C2148 1.369 1_554 S
C2149 C2158 1.429 1_554 S
C2150 C2148 1.419 . S
C2150 C2151 1.363 . S
C2150 H2153 0.929 . S
C2151 C2150 1.363 . S
C2151 C2157 1.428 . S
H2152 C2148 0.930 1_554 S
H2153 C2150 0.929 . S
S2154 N2155 1.613 . S
S2154 N2156 1.610 . S
N2155 S2154 1.613 . S
N2155 C2158 1.350 . S
N2156 S2154 1.610 . S
N2156 C2157 1.351 . S
C2157 C2151 1.428 . S
C2157 N2156 1.351 . S
C2157 C2158 1.434 . S
C2158 C2149 1.429 1_556 S
C2158 N2155 1.350 . S
C2158 C2157 1.434 . S
C2159 C2160 1.369 . S
C2159 C2161 1.419 1_556 S
C2159 H2163 0.930 . S
C2160 C2159 1.369 . S
C2160 C2169 1.429 . S
C2161 C2159 1.419 1_554 S
C2161 C2162 1.363 . S
C2161 H2164 0.929 . S
C2162 C2161 1.363 . S
C2162 C2168 1.428 1_554 S
H2163 C2159 0.930 . S
H2164 C2161 0.929 . S
S2165 N2166 1.613 . S
S2165 N2167 1.610 . S
N2166 S2165 1.613 . S
N2166 C2169 1.350 . S
N2167 S2165 1.610 . S
N2167 C2168 1.351 . S
C2168 C2162 1.428 1_556 S
C2168 N2167 1.351 . S
C2168 C2169 1.434 . S
C2169 C2160 1.429 . S
C2169 N2166 1.350 . S
C2169 C2168 1.434 . S
C2170 C2171 1.369 . S
C2170 C2172 1.419 . S
C2170 H2174 0.930 . S
C2171 C2170 1.369 . S
C2171 C2180 1.429 . S
C2172 C2170 1.419 . S
C2172 C2173 1.363 1_556 S
C2172 H2175 0.929 . S
C2173 C2172 1.363 1_554 S
C2173 C2179 1.428 . S
H2174 C2170 0.930 . S
H2175 C2172 0.929 . S
S2176 N2177 1.613 . S
S2176 N2178 1.610 . S
N2177 S2176 1.613 . S
N2177 C2180 1.350 1_554 S
N2178 S2176 1.610 . S
N2178 C2179 1.351 . S
C2179 C2173 1.428 . S
C2179 N2178 1.351 . S
C2179 C2180 1.434 1_554 S
C2180 C2171 1.429 . S
C2180 N2177 1.350 1_556 S
C2180 C2179 1.434 1_556 S
C2181 C2182 1.369 . S
C2181 C2183 1.419 . S
C2181 H2185 0.930 . S
C2182 C2181 1.369 . S
C2182 C2191 1.429 . S
C2183 C2181 1.419 . S
C2183 C2184 1.363 . S
C2183 H2186 0.929 . S
C2184 C2183 1.363 . S
C2184 C2190 1.428 . S
H2185 C2181 0.930 . S
H2186 C2183 0.929 . S
S2187 N2188 1.613 . S
S2187 N2189 1.610 . S
N2188 S2187 1.613 . S
N2188 C2191 1.350 . S
N2189 S2187 1.610 . S
N2189 C2190 1.351 . S
C2190 C2184 1.428 . S
C2190 N2189 1.351 . S
C2190 C2191 1.434 . S
C2191 C2182 1.429 . S
C2191 N2188 1.350 . S
C2191 C2190 1.434 . S
C2192 C2193 1.369 . S
C2192 C2194 1.419 . S
C2192 H2196 0.930 . S
C2193 C2192 1.369 . S
C2193 C2202 1.429 . S
C2194 C2192 1.419 . S
C2194 C2195 1.363 . S
C2194 H2197 0.929 . S
C2195 C2194 1.363 . S
C2195 C2201 1.428 . S
H2196 C2192 0.930 . S
H2197 C2194 0.929 . S
S2198 N2199 1.613 . S
S2198 N2200 1.610 . S
N2199 S2198 1.613 . S
N2199 C2202 1.350 . S
N2200 S2198 1.610 . S
N2200 C2201 1.351 . S
C2201 C2195 1.428 . S
C2201 N2200 1.351 . S
C2201 C2202 1.434 . S
C2202 C2193 1.429 . S
C2202 N2199 1.350 . S
C2202 C2201 1.434 . S
C2203 C2204 1.369 . S
C2203 C2205 1.419 . S
C2203 H2207 0.930 . S
C2204 C2203 1.369 . S
C2204 C2213 1.429 . S
C2205 C2203 1.419 . S
C2205 C2206 1.363 . S
C2205 H2208 0.929 . S
C2206 C2205 1.363 . S
C2206 C2212 1.428 . S
H2207 C2203 0.930 . S
H2208 C2205 0.929 . S
S2209 N2210 1.613 . S
S2209 N2211 1.610 . S
N2210 S2209 1.613 . S
N2210 C2213 1.350 . S
N2211 S2209 1.610 . S
N2211 C2212 1.351 . S
C2212 C2206 1.428 . S
C2212 N2211 1.351 . S
C2212 C2213 1.434 . S
C2213 C2204 1.429 . S
C2213 N2210 1.350 . S
C2213 C2212 1.434 . S
C2214 C2215 1.369 . S
C2214 C2216 1.419 . S
C2214 H2218 0.930 . S
C2215 C2214 1.369 . S
C2215 C2224 1.429 1_655 S
C2216 C2214 1.419 . S
C2216 C2217 1.363 1_655 S
C2216 H2219 0.929 . S
C2217 C2216 1.363 1_455 S
C2217 C2223 1.428 1_554 S
H2218 C2214 0.930 . S
H2219 C2216 0.929 . S
S2220 N2221 1.613 . S
S2220 N2222 1.610 . S
N2221 S2220 1.613 . S
N2221 C2224 1.350 1_556 S
N2222 S2220 1.610 . S
N2222 C2223 1.351 . S
C2223 C2217 1.428 1_556 S
C2223 N2222 1.351 . S
C2223 C2224 1.434 1_556 S
C2224 C2215 1.429 1_455 S
C2224 N2221 1.350 1_554 S
C2224 C2223 1.434 1_554 S
C2225 C2226 1.369 . S
C2225 C2227 1.419 . S
C2225 H2229 0.930 . S
C2226 C2225 1.369 . S
C2226 C2235 1.429 1_554 S
C2227 C2225 1.419 . S
C2227 C2228 1.363 . S
C2227 H2230 0.929 . S
C2228 C2227 1.363 . S
C2228 C2234 1.428 1_554 S
H2229 C2225 0.930 . S
H2230 C2227 0.929 . S
S2231 N2232 1.613 . S
S2231 N2233 1.610 . S
N2232 S2231 1.613 . S
N2232 C2235 1.350 . S
N2233 S2231 1.610 . S
N2233 C2234 1.351 . S
C2234 C2228 1.428 1_556 S
C2234 N2233 1.351 . S
C2234 C2235 1.434 . S
C2235 C2226 1.429 1_556 S
C2235 N2232 1.350 . S
C2235 C2234 1.434 . S
C2236 C2237 1.369 . S
C2236 C2238 1.419 . S
C2236 H2240 0.930 . S
C2237 C2236 1.369 . S
C2237 C2246 1.429 1_565 S
C2238 C2236 1.419 . S
C2238 C2239 1.363 1_565 S
C2238 H2241 0.929 . S
C2239 C2238 1.363 1_545 S
C2239 C2245 1.428 . S
H2240 C2236 0.930 . S
H2241 C2238 0.929 . S
S2242 N2243 1.613 . S
S2242 N2244 1.610 . S
N2243 S2242 1.613 . S
N2243 C2246 1.350 . S
N2244 S2242 1.610 . S
N2244 C2245 1.351 . S
C2245 C2239 1.428 . S
C2245 N2244 1.351 . S
C2245 C2246 1.434 . S
C2246 C2237 1.429 1_545 S
C2246 N2243 1.350 . S
C2246 C2245 1.434 . S
C2247 C2248 1.395 . S
C2247 C2249 1.381 1_545 S
C2247 H2251 0.947 . S
C2248 C2247 1.395 . S
C2248 C2257 1.440 . S
C2249 C2247 1.381 1_565 S
C2249 C2250 1.363 . S
C2249 H2252 0.929 . S
C2250 C2249 1.363 . S
C2250 C2256 1.428 . S
H2251 C2247 0.947 . S
H2252 C2249 0.929 . S
S2253 N2254 1.605 1_565 S
S2253 N2255 1.610 . S
N2254 S2253 1.605 1_545 S
N2254 C2257 1.356 . S
N2255 S2253 1.610 . S
N2255 C2256 1.351 . S
C2256 C2250 1.428 . S
C2256 N2255 1.351 . S
C2256 C2257 1.410 1_565 S
C2257 C2248 1.440 . S
C2257 N2254 1.356 . S
C2257 C2256 1.410 1_545 S
C2258 C2259 1.369 . S
C2258 C2260 1.419 . S
C2258 H2262 0.930 . S
C2259 C2258 1.369 . S
C2259 C2268 1.429 1_455 S
C2260 C2258 1.419 . S
C2260 C2261 1.363 1_455 S
C2260 H2263 0.929 . S
C2261 C2260 1.363 1_655 S
C2261 C2267 1.428 . S
H2262 C2258 0.930 . S
H2263 C2260 0.929 . S
S2264 N2265 1.613 . S
S2264 N2266 1.610 . S
N2265 S2264 1.613 . S
N2265 C2268 1.350 . S
N2266 S2264 1.610 . S
N2266 C2267 1.351 . S
C2267 C2261 1.428 . S
C2267 N2266 1.351 . S
C2267 C2268 1.434 . S
C2268 C2259 1.429 1_655 S
C2268 N2265 1.350 . S
C2268 C2267 1.434 . S
C2269 C2270 1.369 . S
C2269 C2271 1.419 . S
C2269 H2273 0.930 . S
C2270 C2269 1.369 . S
C2270 C2279 1.429 . S
C2271 C2269 1.419 . S
C2271 C2272 1.363 . S
C2271 H2274 0.929 . S
C2272 C2271 1.363 . S
C2272 C2278 1.428 . S
H2273 C2269 0.930 . S
H2274 C2271 0.929 . S
S2275 N2276 1.613 . S
S2275 N2277 1.610 . S
N2276 S2275 1.613 . S
N2276 C2279 1.350 . S
N2277 S2275 1.610 . S
N2277 C2278 1.351 . S
C2278 C2272 1.428 . S
C2278 N2277 1.351 . S
C2278 C2279 1.434 . S
C2279 C2270 1.429 . S
C2279 N2276 1.350 . S
C2279 C2278 1.434 . S
C2280 C2281 1.369 . S
C2280 C2282 1.419 . S
C2280 H2284 0.930 . S
C2281 C2280 1.369 . S
C2281 C2290 1.429 . S
C2282 C2280 1.419 . S
C2282 C2283 1.363 . S
C2282 H2285 0.929 . S
C2283 C2282 1.363 . S
C2283 C2289 1.428 . S
H2284 C2280 0.930 . S
H2285 C2282 0.929 . S
S2286 N2287 1.613 . S
S2286 N2288 1.610 . S
N2287 S2286 1.613 . S
N2287 C2290 1.350 . S
N2288 S2286 1.610 . S
N2288 C2289 1.351 . S
C2289 C2283 1.428 . S
C2289 N2288 1.351 . S
C2289 C2290 1.434 . S
C2290 C2281 1.429 . S
C2290 N2287 1.350 . S
C2290 C2289 1.434 . S
C2291 C2292 1.369 . S
C2291 C2293 1.419 . S
C2291 H2295 0.930 . S
C2292 C2291 1.369 . S
C2292 C2301 1.429 . S
C2293 C2291 1.419 . S
C2293 C2294 1.363 . S
C2293 H2296 0.929 . S
C2294 C2293 1.363 . S
C2294 C2300 1.428 . S
H2295 C2291 0.930 . S
H2296 C2293 0.929 . S
S2297 N2298 1.613 . S
S2297 N2299 1.610 . S
N2298 S2297 1.613 . S
N2298 C2301 1.350 . S
N2299 S2297 1.610 . S
N2299 C2300 1.351 . S
C2300 C2294 1.428 . S
C2300 N2299 1.351 . S
C2300 C2301 1.434 . S
C2301 C2292 1.429 . S
C2301 N2298 1.350 . S
C2301 C2300 1.434 . S
C2302 C2303 1.369 . S
C2302 C2304 1.419 . S
C2302 H2306 0.930 . S
C2303 C2302 1.369 . S
C2303 C2312 1.429 . S
C2304 C2302 1.419 . S
C2304 C2305 1.363 . S
C2304 H2307 0.929 . S
C2305 C2304 1.363 . S
C2305 C2311 1.428 . S
H2306 C2302 0.930 . S
H2307 C2304 0.929 . S
S2308 N2309 1.613 . S
S2308 N2310 1.610 . S
N2309 S2308 1.613 . S
N2309 C2312 1.350 . S
N2310 S2308 1.610 . S
N2310 C2311 1.351 . S
C2311 C2305 1.428 . S
C2311 N2310 1.351 . S
C2311 C2312 1.434 . S
C2312 C2303 1.429 . S
C2312 N2309 1.350 . S
C2312 C2311 1.434 . S
C2313 C2314 1.369 . S
C2313 C2315 1.419 . S
C2313 H2317 0.930 . S
C2314 C2313 1.369 . S
C2314 C2323 1.429 . S
C2315 C2313 1.419 . S
C2315 C2316 1.363 . S
C2315 H2318 0.929 . S
C2316 C2315 1.363 . S
C2316 C2322 1.428 . S
H2317 C2313 0.930 . S
H2318 C2315 0.929 . S
S2319 N2320 1.613 . S
S2319 N2321 1.610 . S
N2320 S2319 1.613 . S
N2320 C2323 1.350 1_554 S
N2321 S2319 1.610 . S
N2321 C2322 1.351 1_554 S
C2322 C2316 1.428 . S
C2322 N2321 1.351 1_556 S
C2322 C2323 1.434 . S
C2323 C2314 1.429 . S
C2323 N2320 1.350 1_556 S
C2323 C2322 1.434 . S
C2324 C2325 1.369 . S
C2324 C2326 1.419 . S
C2324 H2328 0.930 . S
C2325 C2324 1.369 . S
C2325 C2334 1.429 . S
C2326 C2324 1.419 . S
C2326 C2327 1.363 . S
C2326 H2329 0.929 . S
C2327 C2326 1.363 . S
C2327 C2333 1.428 . S
H2328 C2324 0.930 . S
H2329 C2326 0.929 . S
S2330 N2331 1.613 . S
S2330 N2332 1.610 . S
N2331 S2330 1.613 . S
N2331 C2334 1.350 . S
N2332 S2330 1.610 . S
N2332 C2333 1.351 . S
C2333 C2327 1.428 . S
C2333 N2332 1.351 . S
C2333 C2334 1.434 . S
C2334 C2325 1.429 . S
C2334 N2331 1.350 . S
C2334 C2333 1.434 . S
C2335 C2336 1.369 . S
C2335 C2337 1.419 . S
C2335 H2339 0.930 . S
C2336 C2335 1.369 . S
C2336 C2345 1.429 . S
C2337 C2335 1.419 . S
C2337 C2338 1.363 . S
C2337 H2340 0.929 . S
C2338 C2337 1.363 . S
C2338 C2344 1.428 . S
H2339 C2335 0.930 . S
H2340 C2337 0.929 . S
S2341 N2342 1.613 . S
S2341 N2343 1.610 . S
N2342 S2341 1.613 . S
N2342 C2345 1.350 . S
N2343 S2341 1.610 . S
N2343 C2344 1.351 . S
C2344 C2338 1.428 . S
C2344 N2343 1.351 . S
C2344 C2345 1.434 . S
C2345 C2336 1.429 . S
C2345 N2342 1.350 . S
C2345 C2344 1.434 . S
C2346 C2347 1.369 . S
C2346 C2348 1.419 . S
C2346 H2350 0.930 . S
C2347 C2346 1.369 . S
C2347 C2356 1.429 . S
C2348 C2346 1.419 . S
C2348 C2349 1.363 . S
C2348 H2351 0.929 . S
C2349 C2348 1.363 . S
C2349 C2355 1.428 . S
H2350 C2346 0.930 . S
H2351 C2348 0.929 . S
S2352 N2353 1.613 . S
S2352 N2354 1.610 . S
N2353 S2352 1.613 . S
N2353 C2356 1.350 . S
N2354 S2352 1.610 . S
N2354 C2355 1.351 . S
C2355 C2349 1.428 . S
C2355 N2354 1.351 . S
C2355 C2356 1.434 . S
C2356 C2347 1.429 . S
C2356 N2353 1.350 . S
C2356 C2355 1.434 . S
C2357 C2358 1.369 . S
C2357 C2359 1.419 . S
C2357 H2361 0.930 . S
C2358 C2357 1.369 . S
C2358 C2367 1.429 . S
C2359 C2357 1.419 . S
C2359 C2360 1.363 . S
C2359 H2362 0.929 . S
C2360 C2359 1.363 . S
C2360 C2366 1.428 . S
H2361 C2357 0.930 . S
H2362 C2359 0.929 . S
S2363 N2364 1.613 . S
S2363 N2365 1.610 . S
N2364 S2363 1.613 . S
N2364 C2367 1.350 . S
N2365 S2363 1.610 . S
N2365 C2366 1.351 . S
C2366 C2360 1.428 . S
C2366 N2365 1.351 . S
C2366 C2367 1.434 . S
C2367 C2358 1.429 . S
C2367 N2364 1.350 . S
C2367 C2366 1.434 . S
C2368 C2369 1.369 . S
C2368 C2370 1.419 . S
C2368 H2372 0.930 . S
C2369 C2368 1.369 . S
C2369 C2378 1.429 . S
C2370 C2368 1.419 . S
C2370 C2371 1.363 . S
C2370 H2373 0.929 . S
C2371 C2370 1.363 . S
C2371 C2377 1.428 . S
H2372 C2368 0.930 . S
H2373 C2370 0.929 . S
S2374 N2375 1.613 . S
S2374 N2376 1.610 . S
N2375 S2374 1.613 . S
N2375 C2378 1.350 . S
N2376 S2374 1.610 . S
N2376 C2377 1.351 . S
C2377 C2371 1.428 . S
C2377 N2376 1.351 . S
C2377 C2378 1.434 . S
C2378 C2369 1.429 . S
C2378 N2375 1.350 . S
C2378 C2377 1.434 . S
C2379 C2380 1.369 . S
C2379 C2381 1.419 . S
C2379 H2383 0.930 . S
C2380 C2379 1.369 . S
C2380 C2389 1.429 . S
C2381 C2379 1.419 . S
C2381 C2382 1.363 . S
C2381 H2384 0.929 . S
C2382 C2381 1.363 . S
C2382 C2388 1.428 . S
H2383 C2379 0.930 . S
H2384 C2381 0.929 . S
S2385 N2386 1.613 . S
S2385 N2387 1.610 . S
N2386 S2385 1.613 . S
N2386 C2389 1.350 . S
N2387 S2385 1.610 . S
N2387 C2388 1.351 . S
C2388 C2382 1.428 . S
C2388 N2387 1.351 . S
C2388 C2389 1.434 . S
C2389 C2380 1.429 . S
C2389 N2386 1.350 . S
C2389 C2388 1.434 . S
C2390 C2391 1.369 . S
C2390 C2392 1.419 . S
C2390 H2394 0.930 . S
C2391 C2390 1.369 . S
C2391 C2400 1.429 . S
C2392 C2390 1.419 . S
C2392 C2393 1.363 . S
C2392 H2395 0.929 . S
C2393 C2392 1.363 . S
C2393 C2399 1.428 . S
H2394 C2390 0.930 . S
H2395 C2392 0.929 . S
S2396 N2397 1.613 . S
S2396 N2398 1.610 . S
N2397 S2396 1.613 . S
N2397 C2400 1.350 . S
N2398 S2396 1.610 . S
N2398 C2399 1.351 . S
C2399 C2393 1.428 . S
C2399 N2398 1.351 . S
C2399 C2400 1.434 . S
C2400 C2391 1.429 . S
C2400 N2397 1.350 . S
C2400 C2399 1.434 . S
C2401 C2402 1.369 . S
C2401 C2403 1.419 . S
C2401 H2405 0.930 . S
C2402 C2401 1.369 . S
C2402 C2411 1.429 . S
C2403 C2401 1.419 . S
C2403 C2404 1.363 . S
C2403 H2406 0.929 . S
C2404 C2403 1.363 . S
C2404 C2410 1.428 . S
H2405 C2401 0.930 . S
H2406 C2403 0.929 . S
S2407 N2408 1.613 . S
S2407 N2409 1.610 . S
N2408 S2407 1.613 . S
N2408 C2411 1.350 . S
N2409 S2407 1.610 . S
N2409 C2410 1.351 . S
C2410 C2404 1.428 . S
C2410 N2409 1.351 . S
C2410 C2411 1.434 . S
C2411 C2402 1.429 . S
C2411 N2408 1.350 . S
C2411 C2410 1.434 . S
C1225 C514 1.365 . S
C1227 C4 1.359 1_556 S
C1236 C548 1.363 . S
C1238 C38 1.366 1_556 S
C1247 C72 1.365 1_556 S
C1249 C582 1.364 . S
C1258 C106 1.362 . S
C1260 C820 1.365 . S
C1269 C140 1.364 . S
C1271 C854 1.362 . S
C1280 C174 1.364 . S
C1282 C888 1.362 . S
C1291 C1135 1.366 . S
C1293 C217 1.363 . S
C1302 C1169 1.362 . S
C1304 C251 1.365 . S
C1313 C285 1.365 . S
C1315 C1203 1.362 . S
C1324 C625 1.363 . S
C1326 C319 1.363 . S
C1335 C353 1.364 . S
C1337 C659 1.365 . S
C1346 C387 1.362 . S
C1348 C693 1.364 . S
C1357 C922 1.365 . S
C1359 C412 1.362 . S
C1368 C446 1.362 . S
C1370 C956 1.365 . S
C1379 C990 1.362 . S
C1381 C480 1.365 . S
C1390 C1033 1.362 . S
C1392 C727 1.363 . S
C1401 C1067 1.365 . S
C1403 C761 1.362 . S
C1412 C795 1.364 . S
C1414 C1101 1.365 . S
C1423 C0 1.954 . S
C1425 C136 1.952 . S
C1434 C34 1.949 . S
C1436 C170 1.953 . S
C1445 C68 1.954 . S
C1447 C102 1.949 . S
C1456 C233 1.951 . S
C1458 C369 1.954 . S
C1467 C267 1.949 . S
C1469 C403 1.948 . S
C1478 C301 1.947 . S
C1480 C335 1.949 . S
C1489 C408 1.955 . S
C1491 C544 1.951 1_554 S
C1500 C578 1.953 1_554 S
C1502 C442 1.949 . S
C1511 C476 1.954 . S
C1513 C510 1.952 1_554 S
C1522 C641 1.953 . S
C1524 C777 1.948 . S
C1533 C675 1.951 . S
C1535 C811 1.954 . S
C1544 C743 1.950 . S
C1546 C709 1.954 . S
C1555 C816 1.954 . S
C1557 C952 1.949 . S
C1566 C986 1.953 . S
C1568 C850 1.954 . S
C1577 C884 1.950 . S
C1579 C918 1.954 . S
C1588 C1049 1.949 . S
C1590 C1185 1.948 1_556 S
C1599 C1083 1.952 . S
C1601 C1219 1.948 1_556 S
C1610 C1117 1.951 . S
C1612 C1151 1.948 1_556 S
C1621 C340 2.068 . S
C1623 C8 2.095 . S
C1632 C42 2.092 . S
C1634 C374 2.065 . S
C1643 C76 2.093 . S
C1645 C306 2.063 . S
C1654 C110 2.093 . S
C1656 C272 2.066 . S
C1665 C144 2.094 . S
C1667 C204 2.067 . S
C1676 C238 2.063 . S
C1678 C178 2.093 . S
C1687 C221 2.099 . S
C1689 C165 2.064 . S
C1698 C199 2.066 . S
C1700 C255 2.099 . S
C1709 C289 2.093 . S
C1711 C131 2.066 . S
C1720 C323 2.093 . S
C1722 C97 2.062 . S
C1731 C29 2.066 . S
C1733 C357 2.099 . S
C1742 C63 2.068 . S
C1744 C391 2.097 . S
C1753 C748 2.067 1_554 S
C1755 C416 2.094 . S
C1764 C782 2.060 1_554 S
C1766 C450 2.097 . S
C1775 C714 2.067 1_554 S
C1777 C484 2.097 . S
C1786 C680 2.066 . S
C1788 C518 2.093 1_554 S
C1797 C552 2.100 1_554 S
C1799 C612 2.064 . S
C1808 C646 2.066 . S
C1810 C586 2.093 1_554 S
C1819 C573 2.068 . S
C1821 C629 2.097 . S
C1830 C663 2.097 . S
C1832 C607 2.067 . S
C1841 C697 2.099 . S
C1843 C539 2.063 . S
C1852 C505 2.064 . S
C1854 C731 2.099 . S
C1863 C765 2.096 . S
C1865 C437 2.061 . S
C1874 C799 2.095 . S
C1876 C471 2.061 . S
C1885 C824 2.092 . S
C1887 C1156 2.065 . S
C1896 C858 2.099 . S
C1898 C1190 2.066 . S
C1907 C1122 2.062 . S
C1909 C892 2.098 . S
C1918 C1088 2.067 . S
C1920 C926 2.094 . S
C1929 C960 2.093 . S
C1931 C1020 2.066 . S
C1940 C1054 2.064 . S
C1942 C994 2.099 . S
C1951 C1037 2.093 . S
C1953 C981 2.063 . S
C1962 C1015 2.068 . S
C1964 C1071 2.096 . S
C1973 C1105 2.097 . S
C1975 C947 2.067 . S
C1984 C1139 2.093 1_556 S
C1986 C913 2.065 . S
C1995 C845 2.060 . S
C1997 C1173 2.096 1_556 S
C2006 C879 2.062 . S
C2008 C1207 2.093 1_556 S
C2017 C17 2.256 . S
C2019 C153 2.256 . S
C2028 C187 2.259 . S
C2030 C51 2.261 . S
C2039 C85 2.262 . S
C2041 C119 2.259 . S
C2050 C212 2.256 . S
C2052 C348 2.260 . S
C2061 C382 2.258 . S
C2063 C246 2.255 . S
C2072 C280 2.255 . S
C2074 C314 2.256 . S
C2083 C561 2.256 . S
C2085 C425 2.257 . S
C2094 C595 2.260 . S
C2096 C459 2.255 . S
C2105 C527 2.261 . S
C2107 C493 2.256 . S
C2116 C756 2.255 1_554 S
C2118 C620 2.256 . S
C2127 C654 2.254 . S
C2129 C790 2.257 1_554 S
C2138 C722 2.262 1_554 S
C2140 C688 2.258 . S
C2149 C969 2.260 . S
C2151 C833 2.260 . S
C2160 C867 2.255 . S
C2162 C1003 2.257 . S
C2171 C901 2.260 . S
C2173 C935 2.255 . S
C2182 C1164 2.256 . S
C2184 C1028 2.256 . S
C2193 C1062 2.258 . S
C2195 C1198 2.255 . S
C2204 C1096 2.256 . S
C2206 C1130 2.261 . S
C2215 C13 0.655 1_655 S
C2217 C208 0.666 1_455 S
C2226 C47 0.665 . S
C2228 C242 0.659 . S
C2237 C276 0.653 1_565 S
C2239 C81 0.667 1_545 S
C2248 C310 0.657 1_545 S
C2250 C115 0.664 1_565 S
C2259 C149 0.654 1_455 S
C2261 C344 0.666 1_655 S
C2270 C183 0.653 . S
C2272 C378 0.667 . S
C2281 C616 0.656 . S
C2283 C421 0.665 . S
C2292 C455 0.658 . S
C2294 C650 0.664 . S
C2303 C684 0.652 . S
C2305 C489 0.668 . S
C2314 C718 0.667 . S
C2316 C523 0.657 . S
C2325 C752 0.655 . S
C2327 C557 0.666 . S
C2336 C786 0.660 . S
C2338 C591 0.661 . S
C2347 C1024 0.668 . S
C2349 C829 0.655 . S
C2358 C863 0.662 . S
C2360 C1058 0.661 . S
C2369 C1092 0.669 . S
C2371 C897 0.655 . S
C2380 C1126 0.653 . S
C2382 C931 0.667 . S
C2391 C1160 0.665 . S
C2393 C965 0.657 . S
C2402 C999 0.667 . S
C2404 C1194 0.656 . S
