# Generated by pormake.
# Topology wmi, (6)-cn, num edge types: 1
# Building blocks:
#     Node 0, Type 0, BuildingBlock: VOLQOD_clean_sbu_1, # of connection points: 6
#     Node 1, Type 0, BuildingBlock: VOLQOD_clean_sbu_1, # of connection points: 6
#     Node 2, Type 0, BuildingBlock: VOLQOD_clean_sbu_1, # of connection points: 6
#     Node 3, Type 0, BuildingBlock: VOLQOD_clean_sbu_1, # of connection points: 6
#     Node 4, Type 0, BuildingBlock: VOLQOD_clean_sbu_1, # of connection points: 6
#     Node 5, Type 0, BuildingBlock: VOLQOD_clean_sbu_1, # of connection points: 6
#     Node 6, Type 0, BuildingBlock: VOLQOD_clean_sbu_1, # of connection points: 6
#     Node 7, Type 0, BuildingBlock: VOLQOD_clean_sbu_1, # of connection points: 6
#     Node 8, Type 0, BuildingBlock: VOLQOD_clean_sbu_1, # of connection points: 6
#     Node 9, Type 0, BuildingBlock: VOLQOD_clean_sbu_1, # of connection points: 6
#     Node 10, Type 0, BuildingBlock: VOLQOD_clean_sbu_1, # of connection points: 6
#     Node 11, Type 0, BuildingBlock: VOLQOD_clean_sbu_1, # of connection points: 6
#     Node 12, Type 0, BuildingBlock: VOLQOD_clean_sbu_1, # of connection points: 6
#     Node 13, Type 0, BuildingBlock: VOLQOD_clean_sbu_1, # of connection points: 6
#     Node 14, Type 0, BuildingBlock: VOLQOD_clean_sbu_1, # of connection points: 6
#     Node 15, Type 0, BuildingBlock: VOLQOD_clean_sbu_1, # of connection points: 6
#     Node 16, Type 0, BuildingBlock: VOLQOD_clean_sbu_1, # of connection points: 6
#     Node 17, Type 0, BuildingBlock: VOLQOD_clean_sbu_1, # of connection points: 6
#     Edge 18, Type (0, 0), BuildingBlock: KIFKEQ_clean_linker_1, # of connection points: 2
#     Edge 19, Type (0, 0), BuildingBlock: KIFKEQ_clean_linker_1, # of connection points: 2
#     Edge 20, Type (0, 0), BuildingBlock: KIFKEQ_clean_linker_1, # of connection points: 2
#     Edge 21, Type (0, 0), BuildingBlock: KIFKEQ_clean_linker_1, # of connection points: 2
#     Edge 22, Type (0, 0), BuildingBlock: KIFKEQ_clean_linker_1, # of connection points: 2
#     Edge 23, Type (0, 0), BuildingBlock: KIFKEQ_clean_linker_1, # of connection points: 2
#     Edge 24, Type (0, 0), BuildingBlock: KIFKEQ_clean_linker_1, # of connection points: 2
#     Edge 25, Type (0, 0), BuildingBlock: KIFKEQ_clean_linker_1, # of connection points: 2
#     Edge 26, Type (0, 0), BuildingBlock: KIFKEQ_clean_linker_1, # of connection points: 2
#     Edge 27, Type (0, 0), BuildingBlock: KIFKEQ_clean_linker_1, # of connection points: 2
#     Edge 28, Type (0, 0), BuildingBlock: KIFKEQ_clean_linker_1, # of connection points: 2
#     Edge 29, Type (0, 0), BuildingBlock: KIFKEQ_clean_linker_1, # of connection points: 2
#     Edge 30, Type (0, 0), BuildingBlock: KIFKEQ_clean_linker_1, # of connection points: 2
#     Edge 31, Type (0, 0), BuildingBlock: KIFKEQ_clean_linker_1, # of connection points: 2
#     Edge 32, Type (0, 0), BuildingBlock: KIFKEQ_clean_linker_1, # of connection points: 2
#     Edge 33, Type (0, 0), BuildingBlock: KIFKEQ_clean_linker_1, # of connection points: 2
#     Edge 34, Type (0, 0), BuildingBlock: KIFKEQ_clean_linker_1, # of connection points: 2
#     Edge 35, Type (0, 0), BuildingBlock: KIFKEQ_clean_linker_1, # of connection points: 2
#     Edge 36, Type (0, 0), BuildingBlock: KIFKEQ_clean_linker_1, # of connection points: 2
#     Edge 37, Type (0, 0), BuildingBlock: KIFKEQ_clean_linker_1, # of connection points: 2
#     Edge 38, Type (0, 0), BuildingBlock: KIFKEQ_clean_linker_1, # of connection points: 2
#     Edge 39, Type (0, 0), BuildingBlock: KIFKEQ_clean_linker_1, # of connection points: 2
#     Edge 40, Type (0, 0), BuildingBlock: KIFKEQ_clean_linker_1, # of connection points: 2
#     Edge 41, Type (0, 0), BuildingBlock: KIFKEQ_clean_linker_1, # of connection points: 2
#     Edge 42, Type (0, 0), BuildingBlock: KIFKEQ_clean_linker_1, # of connection points: 2
#     Edge 43, Type (0, 0), BuildingBlock: KIFKEQ_clean_linker_1, # of connection points: 2
#     Edge 44, Type (0, 0), BuildingBlock: KIFKEQ_clean_linker_1, # of connection points: 2
#     Edge 45, Type (0, 0), BuildingBlock: KIFKEQ_clean_linker_1, # of connection points: 2
#     Edge 46, Type (0, 0), BuildingBlock: KIFKEQ_clean_linker_1, # of connection points: 2
#     Edge 47, Type (0, 0), BuildingBlock: KIFKEQ_clean_linker_1, # of connection points: 2
#     Edge 48, Type (0, 0), BuildingBlock: KIFKEQ_clean_linker_1, # of connection points: 2
#     Edge 49, Type (0, 0), BuildingBlock: KIFKEQ_clean_linker_1, # of connection points: 2
#     Edge 50, Type (0, 0), BuildingBlock: KIFKEQ_clean_linker_1, # of connection points: 2
#     Edge 51, Type (0, 0), BuildingBlock: KIFKEQ_clean_linker_1, # of connection points: 2
#     Edge 52, Type (0, 0), BuildingBlock: KIFKEQ_clean_linker_1, # of connection points: 2
#     Edge 53, Type (0, 0), BuildingBlock: KIFKEQ_clean_linker_1, # of connection points: 2
#     Edge 54, Type (0, 0), BuildingBlock: KIFKEQ_clean_linker_1, # of connection points: 2
#     Edge 55, Type (0, 0), BuildingBlock: KIFKEQ_clean_linker_1, # of connection points: 2
#     Edge 56, Type (0, 0), BuildingBlock: KIFKEQ_clean_linker_1, # of connection points: 2
#     Edge 57, Type (0, 0), BuildingBlock: KIFKEQ_clean_linker_1, # of connection points: 2
#     Edge 58, Type (0, 0), BuildingBlock: KIFKEQ_clean_linker_1, # of connection points: 2
#     Edge 59, Type (0, 0), BuildingBlock: KIFKEQ_clean_linker_1, # of connection points: 2
#     Edge 60, Type (0, 0), BuildingBlock: KIFKEQ_clean_linker_1, # of connection points: 2
#     Edge 61, Type (0, 0), BuildingBlock: KIFKEQ_clean_linker_1, # of connection points: 2
#     Edge 62, Type (0, 0), BuildingBlock: KIFKEQ_clean_linker_1, # of connection points: 2
#     Edge 63, Type (0, 0), BuildingBlock: KIFKEQ_clean_linker_1, # of connection points: 2
#     Edge 64, Type (0, 0), BuildingBlock: KIFKEQ_clean_linker_1, # of connection points: 2
#     Edge 65, Type (0, 0), BuildingBlock: KIFKEQ_clean_linker_1, # of connection points: 2
#     Edge 66, Type (0, 0), BuildingBlock: KIFKEQ_clean_linker_1, # of connection points: 2
#     Edge 67, Type (0, 0), BuildingBlock: KIFKEQ_clean_linker_1, # of connection points: 2
#     Edge 68, Type (0, 0), BuildingBlock: KIFKEQ_clean_linker_1, # of connection points: 2
#     Edge 69, Type (0, 0), BuildingBlock: KIFKEQ_clean_linker_1, # of connection points: 2
#     Edge 70, Type (0, 0), BuildingBlock: KIFKEQ_clean_linker_1, # of connection points: 2
#     Edge 71, Type (0, 0), BuildingBlock: KIFKEQ_clean_linker_1, # of connection points: 2
# Relax obj value: 0.312
# Max RMSD: 0.231
# Mean RMSD: 0.231
data_MOF--net-wmi--node1-VOLQOD_clean_sbu_1--edge1-KIFKEQ_clean_linker_1
_symmetry_space_group_name_H-M    P1
_symmetry_Int_Tables_number       1
_symmetry_cell_setting            triclinic
loop_
_symmetry_equiv_pos_as_xyz
'x, y, z'
_cell_length_a     31.743253
_cell_length_b     31.679154
_cell_length_c     100.52091
_cell_angle_alpha  89.927436
_cell_angle_beta   90.081007
_cell_angle_gamma 120.04374
loop_
_atom_site_label
_atom_site_type_symbol
_atom_site_fract_x
_atom_site_fract_y
_atom_site_fract_z
_atom_type_partial_charge
O0 O 0.50576 0.05032 0.0881 0.0
Zn1 Zn 0.44119 0.98999 0.08515 0.0
O2 O 0.40287 -0.00217 0.07144 0.0
Zn3 Zn 0.34704 -0.00301 0.07938 0.0
Zn4 Zn 0.44611 0.05868 0.06346 0.0
Zn5 Zn 0.38425 0.95018 0.05774 0.0
O6 O 0.28452 0.9436 0.07114 0.0
O7 O 0.31359 0.90367 0.05953 0.0
O8 O 0.40544 0.96738 0.10241 0.0
O9 O 0.34118 0.97562 0.09842 0.0
O10 O 0.35783 0.0661 0.0802 0.0
O11 O 0.43394 0.10692 0.07239 0.0
O12 O 0.43866 0.05994 0.04361 0.0
O13 O 0.46116 0.94373 0.07863 0.0
O14 O 0.3962 0.98054 0.0397 0.0
O15 O 0.42389 0.91684 0.05913 0.0
C16 C 0.53267 0.07312 0.07825 0.0
C17 C 0.27812 0.90662 0.0644 0.0
C18 C 0.39774 0.10582 0.07817 0.0
C19 C 0.36581 0.96445 0.10618 0.0
C20 C 0.41816 0.02436 0.03553 0.0
C21 C 0.4534 0.91892 0.06806 0.0
O22 O 0.51442 0.07473 0.06712 0.0
O23 O 0.92563 0.48047 0.09069 0.0
Zn24 Zn 0.98283 0.47134 0.09366 0.0
O25 O 0.98209 0.42403 0.08114 0.0
Zn26 Zn 0.97825 0.36879 0.09074 0.0
Zn27 Zn 0.92804 0.40255 0.06912 0.0
Zn28 Zn 0.04005 0.45484 0.07047 0.0
O29 O 0.03983 0.36548 0.08849 0.0
O30 O 0.08494 0.43291 0.07662 0.0
O31 O 0.98598 0.45318 0.11283 0.0
O32 O 0.9763 0.3793 0.11012 0.0
O33 O 0.91707 0.30555 0.08621 0.0
O34 O 0.88084 0.33326 0.07266 0.0
O35 O 0.94695 0.40495 0.05001 0.0
O36 O 0.03765 0.53832 0.08962 0.0
O37 O 0.02666 0.43572 0.05135 0.0
O38 O 0.07184 0.52776 0.07163 0.0
C39 C 0.89701 0.46996 0.0808 0.0
C40 C 0.0799 0.39609 0.08306 0.0
C41 C 0.88108 0.29868 0.07903 0.0
C42 C 0.98135 0.4138 0.11762 0.0
C43 C 0.98763 0.41722 0.04458 0.0
C44 C 0.06768 0.55554 0.08002 0.0
O45 O 0.89558 0.44206 0.0715 0.0
O46 O 0.51504 0.48132 0.09581 0.0
Zn47 Zn 0.52532 0.54912 0.09493 0.0
O48 O 0.55673 0.58169 0.07828 0.0
Zn49 Zn 0.61749 0.642 0.08196 0.0
Zn50 Zn 0.56961 0.53882 0.0676 0.0
Zn51 Zn 0.51377 0.59627 0.06826 0.0
O52 O 0.61886 0.70061 0.07362 0.0
O53 O 0.54289 0.66733 0.06608 0.0
O54 O 0.56353 0.58841 0.11078 0.0
O55 O 0.62462 0.65424 0.10145 0.0
O56 O 0.67554 0.63672 0.07643 0.0
O57 O 0.64068 0.56471 0.06629 0.0
O58 O 0.54363 0.53083 0.04912 0.0
O59 O 0.45739 0.53742 0.09598 0.0
O60 O 0.50332 0.57107 0.04973 0.0
O61 O 0.44877 0.56765 0.07691 0.0
C62 C 0.52096 0.45563 0.08712 0.0
C63 C 0.58489 0.70407 0.06792 0.0
C64 C 0.67836 0.60332 0.07018 0.0
C65 C 0.60181 0.63013 0.1117 0.0
C66 C 0.51767 0.5458 0.04349 0.0
C67 C 0.43147 0.54541 0.08785 0.0
O68 O 0.54029 0.47304 0.07589 0.0
O69 O 0.06922 0.51889 0.90275 0.0
Zn70 Zn 0.00649 0.45822 0.89942 0.0
O71 O 0.00384 0.40392 0.90918 0.0
Zn72 Zn 0.00338 0.35757 0.89634 0.0
Zn73 Zn 0.05978 0.42663 0.92069 0.0
Zn74 Zn 0.94613 0.37438 0.92025 0.0
O75 O 0.94078 0.2937 0.89744 0.0
O76 O 0.90082 0.30834 0.91329 0.0
O77 O -0.00352 0.44586 0.87975 0.0
O78 O 0.00463 0.38051 0.87779 0.0
O79 O 0.06168 0.34903 0.89814 0.0
O80 O 0.10054 0.39833 0.9151 0.0
O81 O 0.04156 0.40952 0.93975 0.0
O82 O 0.95671 0.47364 0.906 0.0
O83 O 0.96097 0.36855 0.93933 0.0
O84 O 0.91261 0.41438 0.92029 0.0
C85 C 0.10121 0.53056 0.91179 0.0
C86 C 0.90303 0.28052 0.90454 0.0
C87 C 0.09744 0.36849 0.90617 0.0
C88 C -0.00074 0.41418 0.87265 0.0
C89 C 0.0009 0.38578 0.94567 0.0
C90 C 0.92197 0.45353 0.91427 0.0
O91 O 0.10066 0.49908 0.91976 0.0
O92 O 0.47045 0.50473 0.88977 0.0
Zn93 Zn 0.53199 0.50418 0.89408 0.0
O94 O 0.56585 0.54379 0.90934 0.0
Zn95 Zn 0.62673 0.59988 0.90421 0.0
Zn96 Zn 0.52242 0.56209 0.91672 0.0
Zn97 Zn 0.57575 0.50625 0.92244 0.0
O98 O 0.68303 0.60092 0.91424 0.0
O99 O 0.64551 0.52592 0.9229 0.0
O100 O 0.5756 0.52334 0.87827 0.0
O101 O 0.64012 0.59194 0.88515 0.0
O102 O 0.62086 0.66128 0.90496 0.0
O103 O 0.5418 0.62785 0.90977 0.0
O104 O 0.5227 0.56223 0.93671 0.0
O105 O 0.50575 0.43435 0.89858 0.0
O106 O 0.55999 0.51997 0.94037 0.0
O107 O 0.53224 0.4348 0.91908 0.0
C108 C 0.4407 0.49804 0.89908 0.0
C109 C 0.68413 0.56584 0.92023 0.0
C110 C 0.58216 0.66402 0.90607 0.0
C111 C 0.61771 0.5599 0.87621 0.0
C112 C 0.53912 0.54257 0.94464 0.0
C113 C 0.50642 0.41203 0.90902 0.0
O114 O 0.45548 0.51377 0.91077 0.0
O115 O 0.48208 0.93311 0.88914 0.0
Zn116 Zn 0.46569 0.98693 0.8876 0.0
O117 O 0.43889 -0.00473 0.90394 0.0
Zn118 Zn 0.37154 0.97694 0.90186 0.0
Zn119 Zn 0.44741 0.95694 0.91706 0.0
Zn120 Zn 0.47242 0.06123 0.90975 0.0
O121 O 0.35802 0.02917 0.90848 0.0
O122 O 0.43293 0.09176 0.90535 0.0
O123 O 0.42128 0.97789 0.87221 0.0
O124 O 0.35614 0.97153 0.88238 0.0
O125 O 0.3292 0.91242 0.91061 0.0
O126 O 0.38368 0.89695 0.91993 0.0
O127 O 0.46757 0.99142 0.93443 0.0
O128 O 0.53059 0.04606 0.88453 0.0
O129 O 0.48042 0.06535 0.92975 0.0
O130 O 0.53724 0.0961 0.90092 0.0
C131 C 0.49964 0.92354 0.89938 0.0
C132 C 0.38751 0.07459 0.90701 0.0
C133 C 0.33985 0.88456 0.91717 0.0
C134 C 0.37891 0.97303 0.8718 0.0
C135 C 0.47797 0.03396 0.93811 0.0
C136 C 0.55494 0.08578 0.8909 0.0
O137 O 0.49437 0.93643 0.91096 0.0
O138 O 0.20115 0.39179 0.43068 0.0
Zn139 Zn 0.13176 0.33659 0.43122 0.0
O140 O 0.09512 0.33338 0.41522 0.0
Zn141 Zn 0.03689 0.33676 0.41991 0.0
Zn142 Zn 0.13719 0.3865 0.4038 0.0
Zn143 Zn 0.07729 0.27445 0.40546 0.0
O144 O 0.97507 0.27692 0.41323 0.0
O145 O 0.00611 0.2325 0.40543 0.0
O146 O 0.09789 0.33988 0.44767 0.0
O147 O 0.03077 0.33649 0.4398 0.0
O148 O 0.04335 0.40073 0.41347 0.0
O149 O 0.11575 0.43507 0.40358 0.0
O150 O 0.13749 0.36639 0.38507 0.0
O151 O 0.14093 0.27869 0.43235 0.0
O152 O 0.09582 0.28585 0.38617 0.0
O153 O 0.10861 0.23942 0.41347 0.0
C154 C 0.22593 0.41799 0.42091 0.0
C155 C 0.9699 0.23782 0.40807 0.0
C156 C 0.07823 0.43642 0.40735 0.0
C157 C 0.05754 0.33854 0.44952 0.0
C158 C 0.11991 0.32494 0.37956 0.0
C159 C 0.13203 0.24457 0.4242 0.0
O160 O 0.20568 0.41786 0.40999 0.0
O161 O 0.61326 0.80187 0.42593 0.0
Zn162 Zn 0.67485 0.79929 0.42389 0.0
O163 O 0.67 0.75695 0.40935 0.0
Zn164 Zn 0.68129 0.70555 0.41532 0.0
Zn165 Zn 0.60725 0.73015 0.40154 0.0
Zn166 Zn 0.71477 0.79476 0.39589 0.0
O167 O 0.73879 0.70867 0.40567 0.0
O168 O 0.7696 0.78243 0.39653 0.0
O169 O 0.69409 0.78013 0.44086 0.0
O170 O 0.70144 0.71705 0.43442 0.0
O171 O 0.61829 0.64031 0.41508 0.0
O172 O 0.56574 0.66482 0.40944 0.0
O173 O 0.60759 0.72359 0.38157 0.0
O174 O 0.72306 0.86908 0.41965 0.0
O175 O 0.68627 0.7732 0.37797 0.0
O176 O 0.73761 0.86594 0.39818 0.0
C177 C 0.58596 0.79885 0.41627 0.0
C178 C 0.77297 0.74525 0.39962 0.0
C179 C 0.57497 0.63239 0.41366 0.0
C180 C 0.70445 0.74692 0.44334 0.0
C181 C 0.64365 0.74437 0.3737 0.0
C182 C 0.74065 0.89014 0.40859 0.0
O183 O 0.58287 0.77524 0.40574 0.0
O184 O 0.19201 0.80897 0.42218 0.0
Zn185 Zn 0.2048 0.87732 0.42481 0.0
O186 O 0.25354 0.92212 0.41229 0.0
Zn187 Zn 0.30948 0.971 0.42209 0.0
Zn188 Zn 0.27099 0.88665 0.40025 0.0
Zn189 Zn 0.22672 0.95248 0.4014 0.0
O190 O 0.31495 0.03726 0.42056 0.0
O191 O 0.25007 0.01911 0.40801 0.0
O192 O 0.22323 0.89795 0.4439 0.0
O193 O 0.30026 0.95649 0.44151 0.0
O194 O 0.37029 0.97008 0.41702 0.0
O195 O 0.33889 0.90404 0.4041 0.0
O196 O 0.27029 0.90405 0.38111 0.0
O197 O 0.13997 0.87008 0.42068 0.0
O198 O 0.24608 0.95832 0.38232 0.0
O199 O 0.15428 0.91269 0.40198 0.0
C200 C 0.19876 0.78944 0.41195 0.0
C201 C 0.28626 0.04905 0.41497 0.0
C202 C 0.3747 0.93864 0.41019 0.0
C203 C 0.26421 0.9289 0.44884 0.0
C204 C 0.26127 0.93476 0.37558 0.0
C205 C 0.12499 0.88273 0.41052 0.0
O206 O 0.22606 0.81499 0.40243 0.0
O207 O 0.74214 0.89429 0.22838 0.0
Zn208 Zn 0.6872 0.82683 0.22476 0.0
O209 O 0.67976 0.78201 0.23901 0.0
Zn210 Zn 0.68643 0.72836 0.23225 0.0
Zn211 Zn 0.72777 0.81672 0.25238 0.0
Zn212 Zn 0.6169 0.7567 0.24706 0.0
O213 O 0.626 0.66302 0.23566 0.0
O214 O 0.57439 0.68887 0.24092 0.0
O215 O 0.69311 0.80198 0.20688 0.0
O216 O 0.69149 0.7334 0.21253 0.0
O217 O 0.74874 0.73275 0.23859 0.0
O218 O 0.7793 0.79888 0.25139 0.0
O219 O 0.69929 0.79986 0.27054 0.0
O220 O 0.63117 0.83863 0.22448 0.0
O221 O 0.61996 0.75426 0.26701 0.0
O222 O 0.58809 0.7981 0.24217 0.0
C223 C 0.76273 0.91397 0.23933 0.0
C224 C 0.58305 0.65514 0.23772 0.0
C225 C 0.78259 0.76449 0.2459 0.0
C226 C 0.69381 0.76339 0.20374 0.0
C227 C 0.6561 0.77425 0.27489 0.0
C228 C 0.59677 0.82793 0.23265 0.0
O229 O 0.75808 0.88859 0.24964 0.0
O230 O 0.15722 0.88799 0.22874 0.0
Zn231 Zn 0.22283 0.8947 0.22737 0.0
O232 O 0.26958 0.94524 0.23915 0.0
Zn233 Zn 0.32051 -0.00304 0.22843 0.0
Zn234 Zn 0.23631 0.96978 0.24992 0.0
Zn235 Zn 0.29736 0.91807 0.25112 0.0
O236 O 0.38691 0.007 0.23301 0.0
O237 O 0.36642 0.94391 0.24655 0.0
O238 O 0.24491 0.90423 0.20828 0.0
O239 O 0.31204 0.97665 0.2094 0.0
O240 O 0.31686 0.05884 0.22938 0.0
O241 O 0.25839 0.03768 0.24451 0.0
O242 O 0.24943 0.97001 0.26949 0.0
O243 O 0.20967 0.8298 0.23361 0.0
O244 O 0.29619 0.93659 0.26999 0.0
O245 O 0.26039 0.84481 0.25051 0.0
C246 C 0.1384 0.90084 0.2379 0.0
C247 C 0.398 0.98026 0.23993 0.0
C248 C 0.28962 0.06854 0.2365 0.0
C249 C 0.28184 0.93955 0.20277 0.0
C250 C 0.27495 0.95618 0.27589 0.0
C251 C 0.22589 0.81511 0.24302 0.0
O252 O 0.16421 0.93021 0.24705 0.0
O253 O 0.14024 0.3002 0.22595 0.0
Zn254 Zn 0.13709 0.36106 0.22849 0.0
O255 O 0.10225 0.3583 0.24473 0.0
Zn256 Zn 0.04695 0.36675 0.24037 0.0
Zn257 Zn 0.08106 0.29697 0.25366 0.0
Zn258 Zn 0.14579 0.40877 0.2567 0.0
O259 O 0.0538 0.42741 0.24897 0.0
O260 O 0.1281 0.46033 0.25772 0.0
O261 O 0.10782 0.37377 0.21233 0.0
O262 O 0.04577 0.37844 0.22084 0.0
O263 O 0.98309 0.30544 0.2444 0.0
O264 O 0.00937 0.25703 0.25241 0.0
O265 O 0.09793 0.30426 0.27311 0.0
O266 O 0.20764 0.41147 0.22989 0.0
O267 O 0.14187 0.38446 0.27517 0.0
O268 O 0.21479 0.43748 0.25069 0.0
C269 C 0.13193 0.26578 0.23396 0.0
C270 C 0.09004 0.46225 0.2549 0.0
C271 C 0.97512 0.26455 0.24898 0.0
C272 C 0.07156 0.38023 0.21095 0.0
C273 C 0.12215 0.34206 0.28023 0.0
C274 C 0.23375 0.43634 0.23965 0.0
O275 O 0.11112 0.26149 0.2451 0.0
O276 O 0.84653 0.71437 0.75503 0.0
Zn277 Zn 0.77883 0.65806 0.75728 0.0
O278 O 0.73224 0.66473 0.74613 0.0
Zn279 Zn 0.68589 0.67113 0.75727 0.0
Zn280 Zn 0.76713 0.72098 0.735 0.0
Zn281 Zn 0.69856 0.60928 0.73465 0.0
O282 O 0.61653 0.61907 0.7534 0.0
O283 O 0.62988 0.57025 0.74032 0.0
O284 O 0.75951 0.6476 0.77658 0.0
O285 O 0.69495 0.65719 0.77594 0.0
O286 O 0.69781 0.73995 0.75697 0.0
O287 O 0.75705 0.7738 0.74193 0.0
O288 O 0.74601 0.70861 0.71591 0.0
O289 O 0.78452 0.60156 0.751 0.0
O290 O 0.69815 0.62839 0.71587 0.0
O291 O 0.73099 0.5691 0.73455 0.0
C292 C 0.86499 0.7411 0.74481 0.0
C293 C 0.60138 0.57918 0.74709 0.0
C294 C 0.72892 0.77689 0.75039 0.0
C295 C 0.72409 0.64812 0.78232 0.0
C296 C 0.71853 0.669 0.70981 0.0
C297 C 0.7648 0.57058 0.74169 0.0
O298 O 0.83849 0.74391 0.73572 0.0
O299 O 0.25648 0.15766 0.76445 0.0
Zn300 Zn 0.3104 0.14179 0.76566 0.0
O301 O 0.31256 0.10889 0.74945 0.0
Zn302 Zn 0.31036 0.04823 0.75347 0.0
Zn303 Zn 0.26011 0.09725 0.73792 0.0
Zn304 Zn 0.37033 0.15168 0.73989 0.0
O305 O 0.37413 0.05236 0.74844 0.0
O306 O 0.41892 0.13082 0.74276 0.0
O307 O 0.30494 0.10227 0.78213 0.0
O308 O 0.30527 0.03847 0.77308 0.0
O309 O 0.24966 0.99033 0.74576 0.0
O310 O 0.21025 0.02768 0.7386 0.0
O311 O 0.28004 0.11061 0.71883 0.0
O312 O 0.36834 0.20971 0.76701 0.0
O313 O 0.36032 0.14994 0.72021 0.0
O314 O 0.39299 0.21941 0.74597 0.0
C315 C 0.2328 0.15901 0.75436 0.0
C316 C 0.41474 0.08945 0.74524 0.0
C317 C 0.21173 0.989 0.74098 0.0
C318 C 0.30353 0.06144 0.78324 0.0
C319 C 0.32161 0.13188 0.71332 0.0
C320 C 0.39183 0.23692 0.75725 0.0
O321 O 0.23274 0.13886 0.74341 0.0
O322 O 0.85241 0.15192 0.76909 0.0
Zn323 Zn 0.85178 0.21301 0.76407 0.0
O324 O 0.89153 0.24183 0.74816 0.0
Zn325 Zn 0.94015 0.31 0.75098 0.0
Zn326 Zn 0.92414 0.2073 0.74282 0.0
Zn327 Zn 0.84886 0.23603 0.73397 0.0
O328 O 0.92687 0.35397 0.73943 0.0
O329 O 0.85676 0.30089 0.72997 0.0
O330 O 0.87552 0.26117 0.77925 0.0
O331 O 0.93541 0.32755 0.76974 0.0
O332 O 0.00926 0.32298 0.74942 0.0
O333 O -0.00627 0.24647 0.74747 0.0
O334 O 0.91994 0.19425 0.72295 0.0
O335 O 0.78039 0.18819 0.76064 0.0
O336 O 0.86261 0.21155 0.71746 0.0
O337 O 0.77986 0.19102 0.7386 0.0
C338 C 0.86941 0.12816 0.76316 0.0
C339 C 0.89009 0.34453 0.73223 0.0
C340 C 0.0232 0.29169 0.74912 0.0
C341 C 0.90927 0.30569 0.77981 0.0
C342 C 0.89186 0.19687 0.71435 0.0
C343 C 0.75748 0.17733 0.74962 0.0
O344 O 0.89571 0.14462 0.75278 0.0
O345 O 0.39657 0.18951 0.56097 0.0
Zn346 Zn 0.33628 0.12411 0.56222 0.0
O347 O 0.33781 0.0879 0.57778 0.0
Zn348 Zn 0.3379 0.02909 0.57196 0.0
Zn349 Zn 0.39478 0.12849 0.58836 0.0
Zn350 Zn 0.28199 0.07145 0.58878 0.0
O351 O 0.27827 0.96839 0.57878 0.0
O352 O 0.23725 0.0002 0.58841 0.0
O353 O 0.32485 0.08601 0.5453 0.0
O354 O 0.33131 0.02281 0.55217 0.0
O355 O 0.40147 0.03209 0.57664 0.0
O356 O 0.44001 0.10271 0.58753 0.0
O357 O 0.38013 0.1313 0.60769 0.0
O358 O 0.28492 0.14251 0.56408 0.0
O359 O 0.29958 0.09016 0.60773 0.0
O360 O 0.2479 0.10678 0.5829 0.0
C361 C 0.42704 0.2149 0.56995 0.0
C362 C 0.24063 0.96365 0.5847 0.0
C363 C 0.43849 0.0647 0.58287 0.0
C364 C 0.32495 0.04657 0.54295 0.0
C365 C 0.33984 0.11414 0.61381 0.0
C366 C 0.25338 0.13411 0.573 0.0
O367 O 0.42842 0.19642 0.5811 0.0
O368 O 0.81469 0.2032 0.56802 0.0
Zn369 Zn 0.88247 0.21695 0.56497 0.0
O370 O 0.92519 0.25361 0.57973 0.0
Zn371 Zn 0.98012 0.31363 0.57288 0.0
Zn372 Zn 0.8891 0.26796 0.59263 0.0
Zn373 Zn 0.94776 0.21461 0.58865 0.0
O374 O 0.04436 0.31686 0.57657 0.0
O375 O 0.01833 0.24358 0.58559 0.0
O376 O 0.90753 0.24944 0.54726 0.0
O377 O 0.97634 0.31554 0.55308 0.0
O378 O 0.97725 0.37238 0.5793 0.0
O379 O 0.91078 0.33853 0.59195 0.0
O380 O 0.89828 0.2513 0.61122 0.0
O381 O 0.87257 0.14983 0.5642 0.0
O382 O 0.93856 0.21171 0.60841 0.0
O383 O 0.91212 0.14595 0.58194 0.0
C384 C 0.79368 0.20725 0.57829 0.0
C385 C 0.05235 0.28421 0.58131 0.0
C386 C 0.94619 0.37572 0.58658 0.0
C387 C 0.94621 0.28873 0.54421 0.0
C388 C 0.91824 0.22834 0.61596 0.0
C389 C 0.88417 0.1258 0.57203 0.0
O390 O 0.8176 0.22987 0.58861 0.0
O391 O 0.80722 0.60914 0.56392 0.0
Zn392 Zn 0.80183 0.66879 0.56153 0.0
O393 O 0.75673 0.67034 0.57437 0.0
Zn394 Zn 0.7038 0.67237 0.56523 0.0
Zn395 Zn 0.73106 0.61358 0.58546 0.0
Zn396 Zn 0.79106 0.72603 0.58578 0.0
O397 O 0.7008 0.73271 0.5701 0.0
O398 O 0.76986 0.77338 0.58161 0.0
O399 O 0.78531 0.67659 0.54258 0.0
O400 O 0.718 0.67998 0.54596 0.0
O401 O 0.63994 0.60895 0.56717 0.0
O402 O 0.6636 0.56731 0.58004 0.0
O403 O 0.72807 0.62906 0.6046 0.0
O404 O 0.86999 0.72077 0.56553 0.0
O405 O 0.77487 0.70946 0.60489 0.0
O406 O 0.86321 0.75664 0.5837 0.0
C407 C 0.79819 0.58189 0.57407 0.0
C408 C 0.73259 0.77088 0.57611 0.0
C409 C 0.63132 0.5701 0.57323 0.0
C410 C 0.75015 0.68121 0.5382 0.0
C411 C 0.7482 0.66935 0.61084 0.0
C412 C 0.88913 0.75106 0.57501 0.0
O413 O 0.77167 0.58184 0.58358 0.0
H414 H 0.54532 0.95113 0.07669 0.0
H415 H 0.42938 0.83709 0.05364 0.0
H416 H 0.59514 0.91359 0.07329 0.0
H417 H 0.47785 0.79779 0.05082 0.0
H418 H 0.56411 0.73143 0.04454 0.0
H419 H 0.54533 0.79669 0.04174 0.0
H420 H 0.59485 0.84492 0.08195 0.0
H421 H 0.61633 0.78166 0.08427 0.0
C422 C 0.53041 0.9177 0.07098 0.0
C423 C 0.48317 0.89621 0.06566 0.0
C424 C 0.55901 0.89634 0.06899 0.0
C425 C 0.54056 0.85253 0.06186 0.0
C426 C 0.49378 0.83205 0.05615 0.0
C427 C 0.46557 0.85403 0.05791 0.0
C428 C 0.5731 0.75768 0.05248 0.0
C429 C 0.59111 0.75172 0.06465 0.0
C430 C 0.56175 0.79455 0.05098 0.0
C431 C 0.56683 0.82486 0.06178 0.0
C432 C 0.59036 0.8223 0.0734 0.0
C433 C 0.60282 0.78609 0.07477 0.0
H434 H 0.23648 0.8404 0.04456 0.0
H435 H 0.21554 0.86986 0.08517 0.0
H436 H 0.17658 0.7545 0.04766 0.0
H437 H 0.15761 0.78375 0.08857 0.0
H438 H 0.14696 0.60828 0.06422 0.0
H439 H 0.18654 0.69485 0.05919 0.0
H440 H 0.08488 0.70894 0.08479 0.0
H441 H 0.04655 0.62259 0.09024 0.0
C442 C 0.21773 0.82864 0.05401 0.0
C443 C 0.23074 0.86145 0.06465 0.0
C444 C 0.18408 0.77937 0.05588 0.0
C445 C 0.1637 0.76193 0.0685 0.0
C446 C 0.17267 0.79579 0.07872 0.0
C447 C 0.20571 0.84531 0.07676 0.0
C448 C 0.13328 0.62994 0.06883 0.0
C449 C 0.09396 0.60869 0.0777 0.0
C450 C 0.15546 0.67948 0.0658 0.0
C451 C 0.13838 0.70883 0.07141 0.0
C452 C 0.09914 0.68755 0.08035 0.0
C453 C 0.07732 0.63806 0.08351 0.0
H454 H 0.12134 0.39774 0.10677 0.0
H455 H 0.13866 0.39327 0.06433 0.0
H456 H 0.20885 0.42987 0.10982 0.0
H457 H 0.22541 0.4239 0.06734 0.0
H458 H 0.37603 0.47375 0.10586 0.0
H459 H 0.28714 0.42318 0.10587 0.0
H460 H 0.27911 0.51241 0.07458 0.0
H461 H 0.36715 0.56258 0.07447 0.0
C462 C 0.14347 0.40097 0.0982 0.0
C463 C 0.12393 0.39348 0.08532 0.0
C464 C 0.19344 0.41967 0.09993 0.0
C465 C 0.22371 0.43063 0.08877 0.0
C466 C 0.20279 0.41678 0.07606 0.0
C467 C 0.15322 0.3987 0.07434 0.0
C468 C 0.35516 0.48313 0.09917 0.0
C469 C 0.37856 0.52172 0.09001 0.0
C470 C 0.30444 0.45397 0.09914 0.0
C471 C 0.27674 0.46304 0.08992 0.0
C472 C 0.29994 0.50371 0.08148 0.0
C473 C 0.3503 0.53275 0.08152 0.0
H474 H 0.83275 0.41338 0.92615 0.0
H475 H 0.94609 0.54738 0.90891 0.0
H476 H 0.78367 0.4515 0.92982 0.0
H477 H 0.89792 0.58629 0.91308 0.0
H478 H 0.70811 0.52844 0.94123 0.0
H479 H 0.77366 0.50959 0.94196 0.0
H480 H 0.82751 0.58372 0.90433 0.0
H481 H 0.76332 0.60452 0.90405 0.0
C482 C 0.84744 0.4512 0.92332 0.0
C483 C 0.89295 0.47714 0.9171 0.0
C484 C 0.81956 0.47333 0.92555 0.0
C485 C 0.83689 0.52216 0.92178 0.0
C486 C 0.88314 0.54849 0.91593 0.0
C487 C 0.91074 0.52616 0.91355 0.0
C488 C 0.73512 0.54214 0.93338 0.0
C489 C 0.73065 0.56754 0.92253 0.0
C490 C 0.77227 0.53084 0.93369 0.0
C491 C 0.80499 0.54381 0.92301 0.0
C492 C 0.80307 0.57318 0.91276 0.0
C493 C 0.76635 0.58527 0.91258 0.0
H494 H 0.3785 0.12327 0.88645 0.0
H495 H 0.36424 0.10721 0.92905 0.0
H496 H 0.39013 0.2048 0.88815 0.0
H497 H 0.37502 0.18905 0.9309 0.0
H498 H 0.42775 0.3566 0.89332 0.0
H499 H 0.37357 0.26866 0.89423 0.0
H500 H 0.45525 0.26024 0.92757 0.0
H501 H 0.50851 0.34818 0.9269 0.0
C502 C 0.37485 0.13631 0.89611 0.0
C503 C 0.37071 0.10965 0.90762 0.0
C504 C 0.38161 0.18309 0.89713 0.0
C505 C 0.3848 0.20379 0.90972 0.0
C506 C 0.37368 0.17424 0.9211 0.0
C507 C 0.36685 0.12728 0.92006 0.0
C508 C 0.43401 0.33593 0.90088 0.0
C509 C 0.47319 0.35901 0.90983 0.0
C510 C 0.40264 0.28568 0.90147 0.0
C511 C 0.41008 0.25749 0.91095 0.0
C512 C 0.44789 0.28097 0.92029 0.0
C513 C 0.479 0.33128 0.91978 0.0
H514 H 0.61263 0.06154 0.87635 0.0
H515 H 0.61615 0.17735 0.89999 0.0
H516 H 0.70131 0.1008 0.87798 0.0
H517 H 0.70424 0.216 0.90154 0.0
H518 H 0.87205 0.2421 0.87983 0.0
H519 H 0.7864 0.19104 0.87346 0.0
H520 H 0.74557 0.17112 0.9149 0.0
H521 H 0.83054 0.22211 0.92128 0.0
C522 C 0.63234 0.09608 0.88151 0.0
C523 C 0.60745 0.11588 0.88833 0.0
C524 C 0.68292 0.11823 0.88248 0.0
C525 C 0.70875 0.16022 0.89023 0.0
C526 C 0.6845 0.18275 0.8958 0.0
C527 C 0.63423 0.16082 0.89484 0.0
C528 C 0.84494 0.22488 0.88756 0.0
C529 C 0.85741 0.23653 0.90103 0.0
C530 C 0.7961 0.1961 0.8839 0.0
C531 C 0.75994 0.17881 0.89372 0.0
C532 C 0.77314 0.18522 0.9072 0.0
C533 C 0.8216 0.21396 0.91084 0.0
H534 H 0.28611 0.0854 0.43933 0.0
H535 H 0.28842 0.1138 0.39728 0.0
H536 H 0.25289 0.13919 0.44369 0.0
H537 H 0.25654 0.16824 0.4016 0.0
H538 H 0.2052 0.26119 0.44168 0.0
H539 H 0.25759 0.22497 0.44073 0.0
H540 H 0.16732 0.1282 0.40955 0.0
H541 H 0.11522 0.16387 0.41041 0.0
C542 C 0.28226 0.10548 0.43113 0.0
C543 C 0.28925 0.09552 0.41797 0.0
C544 C 0.26291 0.13583 0.43361 0.0
C545 C 0.25089 0.15634 0.42291 0.0
C546 C 0.26454 0.15175 0.40996 0.0
C547 C 0.28331 0.12121 0.40749 0.0
C548 C 0.19595 0.23142 0.43483 0.0
C549 C 0.15651 0.21584 0.42596 0.0
C550 C 0.22615 0.21109 0.43425 0.0
C551 C 0.21729 0.17522 0.42476 0.0
C552 C 0.17577 0.1571 0.41665 0.0
C553 C 0.14566 0.17715 0.41725 0.0
H554 H 0.9434 0.17683 0.3872 0.0
H555 H 0.8887 0.20247 0.42376 0.0
H556 H 0.8758 0.09421 0.38646 0.0
H557 H 0.81916 0.11914 0.42289 0.0
H558 H 0.77677 0.95584 0.42894 0.0
H559 H 0.81829 0.04428 0.42737 0.0
H560 H 0.79349 0.03347 0.38488 0.0
H561 H 0.75394 0.94499 0.38641 0.0
C562 C 0.91562 0.16515 0.39482 0.0
C563 C 0.92148 0.19549 0.40565 0.0
C564 C 0.87656 0.11773 0.39437 0.0
C565 C 0.84245 0.09959 0.40477 0.0
C566 C 0.84547 0.13179 0.41488 0.0
C567 C 0.88482 0.17961 0.41531 0.0
C568 C 0.77999 0.9724 0.41928 0.0
C569 C 0.76328 0.94362 0.40775 0.0
C570 C 0.80314 0.02313 0.41839 0.0
C571 C 0.80948 0.04611 0.40598 0.0
C572 C 0.79004 0.01701 0.39457 0.0
C573 C 0.7676 0.96634 0.39542 0.0
H574 H 0.08162 0.86655 0.38632 0.0
H575 H 0.0505 0.83886 0.42828 0.0
H576 H -0.00476 0.81854 0.38132 0.0
H577 H 0.96375 0.79298 0.42338 0.0
H578 H 0.81117 0.69665 0.41299 0.0
H579 H 0.89738 0.72129 0.41401 0.0
H580 H 0.92799 0.82918 0.38345 0.0
H581 H 0.84249 0.80309 0.38202 0.0
C582 C 0.05615 0.85086 0.39449 0.0
C583 C 0.07255 0.85708 0.40771 0.0
C584 C 0.00669 0.82309 0.39163 0.0
C585 C 0.97251 0.80184 0.40194 0.0
C586 C -0.01092 0.80789 0.41517 0.0
C587 C 0.03869 0.83489 0.41801 0.0
C588 C 0.83621 0.72426 0.40615 0.0
C589 C 0.82049 0.74879 0.39765 0.0
C590 C 0.88562 0.73886 0.40686 0.0
C591 C 0.91973 0.77814 0.39909 0.0
C592 C 0.90295 0.79883 0.38959 0.0
C593 C 0.8538 0.78408 0.38883 0.0
H594 H 0.4545 0.97892 0.2598 0.0
H595 H 0.44644 0.98762 0.21711 0.0
H596 H 0.51272 0.95064 0.25736 0.0
H597 H 0.5034 0.95755 0.2146 0.0
H598 H 0.51998 0.81417 0.24786 0.0
H599 H 0.48539 0.86707 0.24948 0.0
H600 H 0.58225 0.95969 0.2186 0.0
H601 H 0.61676 0.90618 0.2168 0.0
C602 C 0.46697 0.9768 0.24992 0.0
C603 C 0.44594 0.98481 0.23864 0.0
C604 C 0.49966 0.96001 0.2485 0.0
C605 C 0.51096 0.95019 0.23579 0.0
C606 C 0.49498 0.96448 0.22451 0.0
C607 C 0.46268 0.98203 0.22594 0.0
C608 C 0.53371 0.84552 0.24133 0.0
C609 C 0.57122 0.85602 0.23225 0.0
C610 C 0.5144 0.87626 0.24239 0.0
C611 C 0.53222 0.91827 0.23442 0.0
C612 C 0.56828 0.92782 0.22494 0.0
C613 C 0.5877 0.89696 0.22387 0.0
H614 H 0.13161 0.74895 0.23772 0.0
H615 H 0.26207 0.7637 0.25565 0.0
H616 H 0.08752 0.66295 0.24352 0.0
H617 H 0.21889 0.67695 0.2608 0.0
H618 H 0.13379 0.52768 0.27483 0.0
H619 H 0.15948 0.61412 0.27389 0.0
H620 H 0.08205 0.59022 0.23667 0.0
H621 H 0.05426 0.5037 0.23812 0.0
C622 C 0.15103 0.73352 0.24274 0.0
C623 C 0.20042 0.76271 0.24609 0.0
C624 C 0.12571 0.68424 0.24609 0.0
C625 C 0.14949 0.66284 0.25264 0.0
C626 C 0.19898 0.69231 0.25604 0.0
C627 C 0.22404 0.74189 0.25293 0.0
C628 C 0.12086 0.54087 0.26674 0.0
C629 C 0.09252 0.50943 0.25649 0.0
C630 C 0.13609 0.59041 0.26609 0.0
C631 C 0.12419 0.60945 0.25499 0.0
C632 C 0.09191 0.57699 0.24539 0.0
C633 C 0.07581 0.52725 0.24621 0.0
H634 H 0.54252 0.58248 0.25585 0.0
H635 H 0.5275 0.62241 0.21586 0.0
H636 H 0.45733 0.51715 0.25559 0.0
H637 H 0.44235 0.55831 0.21559 0.0
H638 H 0.30091 0.49255 0.25832 0.0
H639 H 0.38879 0.53165 0.25679 0.0
H640 H 0.37608 0.47387 0.21713 0.0
H641 H 0.28767 0.43519 0.21855 0.0
C642 C 0.52146 0.5756 0.2468 0.0
C643 C 0.54102 0.60671 0.23583 0.0
C644 C 0.47269 0.53883 0.24669 0.0
C645 C 0.44297 0.5334 0.23567 0.0
C646 C 0.46427 0.56138 0.22419 0.0
C647 C 0.51302 0.59798 0.22431 0.0
C648 C 0.31671 0.48807 0.24927 0.0
C649 C 0.28726 0.46119 0.23851 0.0
C650 C 0.36714 0.50987 0.24847 0.0
C651 C 0.38933 0.50525 0.2369 0.0
C652 C 0.35995 0.47801 0.22617 0.0
C653 C 0.30937 0.45614 0.22697 0.0
H654 H 0.7512 0.51848 0.71887 0.0
H655 H 0.82553 0.55302 0.7568 0.0
H656 H 0.79024 0.47174 0.71274 0.0
H657 H 0.86318 0.50532 0.75086 0.0
H658 H 0.94827 0.44235 0.73688 0.0
H659 H 0.9224 0.50288 0.73641 0.0
H660 H 0.78487 0.3964 0.71917 0.0
H661 H 0.81124 0.33675 0.71913 0.0
C662 C 0.77545 0.51566 0.72594 0.0
C663 C 0.7851 0.53913 0.73835 0.0
C664 C 0.798 0.48916 0.7224 0.0
C665 C 0.8303 0.48541 0.73123 0.0
C666 C 0.83958 0.50865 0.74367 0.0
C667 C 0.8174 0.53538 0.74716 0.0
C668 C 0.91316 0.43235 0.7326 0.0
C669 C 0.88121 0.38437 0.72843 0.0
C670 C 0.89819 0.46689 0.73243 0.0
C671 C 0.851 0.45385 0.72817 0.0
C672 C 0.82136 0.40757 0.72258 0.0
C673 C 0.83646 0.37322 0.72264 0.0
H674 H 0.55108 0.54969 0.77036 0.0
H675 H 0.54241 0.51593 0.72853 0.0
H676 H 0.48461 0.46682 0.77485 0.0
H677 H 0.47713 0.43384 0.73287 0.0
H678 H 0.36594 0.28691 0.74098 0.0
H679 H 0.39841 0.37466 0.74025 0.0
H680 H 0.48938 0.39212 0.77426 0.0
H681 H 0.4543 0.30342 0.77537 0.0
C682 C 0.53335 0.52524 0.76208 0.0
C683 C 0.5518 0.53864 0.74912 0.0
C684 C 0.49585 0.4777 0.76465 0.0
C685 C 0.47625 0.44347 0.75427 0.0
C686 C 0.49106 0.45914 0.74113 0.0
C687 C 0.52859 0.50625 0.73859 0.0
C688 C 0.39242 0.30966 0.7484 0.0
C689 C 0.40898 0.28917 0.75799 0.0
C690 C 0.41079 0.35975 0.74803 0.0
C691 C 0.44713 0.39047 0.75702 0.0
C692 C 0.46114 0.36945 0.76724 0.0
C693 C 0.44173 0.31889 0.7678 0.0
H694 H 0.48797 0.13395 0.72767 0.0
H695 H 0.44161 0.03858 0.76186 0.0
H696 H 0.56777 0.14128 0.72881 0.0
H697 H 0.52258 0.04631 0.76312 0.0
H698 H 0.69416 0.15886 0.77031 0.0
H699 H 0.60571 0.12204 0.76879 0.0
H700 H 0.61162 0.09424 0.72698 0.0
H701 H 0.69953 0.13137 0.72839 0.0
C702 C 0.49472 0.11373 0.73526 0.0
C703 C 0.45902 0.08592 0.74471 0.0
C704 C 0.54026 0.11766 0.73588 0.0
C705 C 0.55125 0.09435 0.74607 0.0
C706 C 0.51485 0.06464 0.7552 0.0
C707 C 0.46867 0.05999 0.75443 0.0
C708 C 0.67642 0.14408 0.76086 0.0
C709 C 0.70384 0.14919 0.7494 0.0
C710 C 0.62582 0.12262 0.76002 0.0
C711 C 0.60211 0.10586 0.74773 0.0
C712 C 0.62919 0.10752 0.73653 0.0
C713 C 0.67954 0.12905 0.73735 0.0
H714 H 0.10319 0.29503 0.55882 0.0
H715 H 0.10604 0.27927 0.60137 0.0
H716 H 0.16028 0.26517 0.55618 0.0
H717 H 0.16477 0.25162 0.59889 0.0
H718 H 0.27246 0.21312 0.55761 0.0
H719 H 0.23728 0.2659 0.55994 0.0
H720 H 0.14132 0.17078 0.59062 0.0
H721 H 0.17688 0.1189 0.58852 0.0
C722 C 0.11842 0.28798 0.56763 0.0
C723 C 0.1004 0.28903 0.58028 0.0
C724 C 0.15079 0.27054 0.56614 0.0
C725 C 0.16558 0.25452 0.57732 0.0
C726 C 0.15269 0.26228 0.59008 0.0
C727 C 0.1198 0.27885 0.59153 0.0
C728 C 0.24346 0.20325 0.56475 0.0
C729 C 0.22751 0.1619 0.57293 0.0
C730 C 0.22362 0.23368 0.56613 0.0
C731 C 0.18754 0.22322 0.5757 0.0
C732 C 0.17034 0.18081 0.58347 0.0
C733 C 0.19019 0.15061 0.58214 0.0
H734 H 0.74088 0.82929 0.59655 0.0
H735 H 0.72551 0.81535 0.55389 0.0
H736 H 0.7714 0.91659 0.59474 0.0
H737 H 0.75788 0.90328 0.55195 0.0
H738 H 0.80676 0.06788 0.55597 0.0
H739 H 0.75608 0.97925 0.55695 0.0
H740 H 0.85298 0.97438 0.58635 0.0
H741 H 0.90299 0.0626 0.5856 0.0
C742 C 0.74224 0.84481 0.58684 0.0
C743 C 0.73122 0.81618 0.57536 0.0
C744 C 0.76037 0.89473 0.58576 0.0
C745 C 0.76862 0.91677 0.57318 0.0
C746 C 0.75215 0.8872 0.56177 0.0
C747 C 0.73328 0.83692 0.56287 0.0
C748 C 0.81762 0.0478 0.56251 0.0
C749 C 0.8587 0.07226 0.57081 0.0
C750 C 0.7884 -0.00287 0.5631 0.0
C751 C 0.79983 0.97019 0.57199 0.0
C752 C 0.84234 -0.00556 0.57973 0.0
C753 C 0.8714 0.04493 0.57917 0.0
H754 H 0.20007 0.89783 0.56481 0.0
H755 H 0.18004 0.92483 0.60571 0.0
H756 H 0.11373 0.83806 0.56307 0.0
H757 H 0.09417 0.86304 0.60432 0.0
H758 H 0.95306 0.72687 0.56422 0.0
H759 H 0.04025 0.7654 0.56836 0.0
H760 H 0.03231 0.87154 0.59367 0.0
H761 H 0.94515 0.83188 0.58995 0.0
C762 C 0.17759 0.88891 0.57363 0.0
C763 C 0.19617 0.916 0.58534 0.0
C764 C 0.12802 0.85482 0.57264 0.0
C765 C 0.09675 0.84699 0.58344 0.0
C766 C 0.11699 0.86957 0.59568 0.0
C767 C 0.16622 0.90433 0.59656 0.0
C768 C 0.97009 0.7586 0.57062 0.0
C769 C 0.94238 0.77661 0.57671 0.0
C770 C 0.02 0.78051 0.57304 0.0
C771 C 0.04326 0.82115 0.58148 0.0
C772 C 0.01545 0.83939 0.58742 0.0
C773 C 0.96554 0.81715 0.58514 0.0
H774 H 0.47634 0.11076 0.02243 0.0
H775 H 0.37492 0.95758 0.01578 0.0
H776 H 0.49687 0.12089 -0.00131 0.0
H777 H 0.39555 0.96796 0.99231 0.0
H778 H 0.49044 0.9831 0.95798 0.0
H779 H 0.47695 0.98736 0.9816 0.0
H780 H 0.45689 0.11068 0.97473 0.0
H781 H 0.47047 0.10662 0.95086 0.0
C782 C 0.4578 0.07953 0.01591 0.0
C783 C 0.42454 0.03318 0.02103 0.0
C784 C 0.46965 0.08539 0.00236 0.0
C785 C 0.4486 0.04495 -0.00619 0.0
C786 C 0.41314 -0.00053 -0.00121 0.0
C787 C 0.40116 -0.00636 0.01223 0.0
C788 C 0.48402 0.01172 0.96148 0.0
C789 C 0.48068 0.04398 0.95252 0.0
C790 C 0.47608 0.01398 0.975 0.0
C791 C 0.46472 0.04856 0.97987 0.0
C792 C 0.46531 0.08351 0.97115 0.0
C793 C 0.47321 0.08121 0.95753 0.0
H794 H 0.92337 0.32822 0.96168 0.0
H795 H 0.07638 0.4366 0.96278 0.0
H796 H 0.92015 0.33047 0.98587 0.0
H797 H 0.07274 0.44033 0.98682 0.0
H798 H 0.06092 0.4154 0.03096 0.0
H799 H 0.06369 0.40024 0.00735 0.0
H800 H 0.92175 0.3857 0.00214 0.0
H801 H 0.91817 0.39883 0.02586 0.0
C802 C 0.95636 0.35227 0.96709 0.0
C803 C 3e-05 0.38245 0.96032 0.0
C804 C 0.95444 0.35385 0.98094 0.0
C805 C -0.00397 0.38602 0.98828 0.0
C806 C 0.04013 0.41471 0.98152 0.0
C807 C 0.04217 0.41272 0.9677 0.0
C808 C 0.03029 0.40891 0.02476 0.0
C809 C -0.01056 0.40859 0.03024 0.0
C810 C 0.03192 0.4003 0.01122 0.0
C811 C -0.00701 0.39182 0.00283 0.0
C812 C 0.95199 0.3912 0.00835 0.0
C813 C 0.95011 0.39919 0.02192 0.0
H814 H 0.4727 0.55834 0.95778 0.0
H815 H 0.5903 0.52884 0.96403 0.0
H816 H 0.45798 0.55281 0.98177 0.0
H817 H 0.57681 0.52494 0.98781 0.0
H818 H 0.52075 0.47675 0.02811 0.0
H819 H 0.51884 0.47266 0.00393 0.0
H820 H 0.49473 0.59536 0.00225 0.0
H821 H 0.49458 0.59808 0.02644 0.0
C822 C 0.49571 0.55128 0.96429 0.0
C823 C 0.53242 0.54373 0.95907 0.0
C824 C 0.48724 0.54802 0.97799 0.0
C825 C 0.51566 0.53755 0.98665 0.0
C826 C 0.55325 0.53149 0.98139 0.0
C827 C 0.56134 0.53426 0.96776 0.0
C828 C 0.51415 0.50223 0.02257 0.0
C829 C 0.50855 0.53816 0.02912 0.0
C830 C 0.51336 0.50013 0.00873 0.0
C831 C 0.50781 0.53446 0.0012 0.0
C832 C 0.49896 0.56833 0.00777 0.0
C833 C 0.49904 0.56998 0.02163 0.0
H834 H 0.06088 0.2523 0.36246 0.0
H835 H 0.19261 0.39259 0.36415 0.0
H836 H 0.06536 0.25408 0.33823 0.0
H837 H 0.19861 0.39341 0.34003 0.0
H838 H 0.15306 0.4137 0.29881 0.0
H839 H 0.15638 0.40609 0.32268 0.0
H840 H 0.10566 0.25213 0.3184 0.0
H841 H 0.10041 0.25948 0.29434 0.0
C842 C 0.09137 0.28297 0.35764 0.0
C843 C 0.12597 0.32267 0.36512 0.0
C844 C 0.09412 0.28391 0.34377 0.0
C845 C 0.13196 0.32426 0.33717 0.0
C846 C 0.16823 0.36243 0.34477 0.0
C847 C 0.16497 0.36188 0.35859 0.0
C848 C 0.1429 0.37823 0.30292 0.0
C849 C 0.12636 0.33716 0.29469 0.0
C850 C 0.14519 0.37392 0.31664 0.0
C851 C 0.13164 0.32854 0.32248 0.0
C852 C 0.11586 0.2875 0.31423 0.0
C853 C 0.11304 0.29174 0.30045 0.0
H854 H 0.70713 0.74124 0.35658 0.0
H855 H 0.5659 0.72986 0.35843 0.0
H856 H 0.70449 0.74225 0.33244 0.0
H857 H 0.56385 0.73255 0.33403 0.0
H858 H 0.57311 0.70885 0.2882 0.0
H859 H 0.5641 0.69333 0.31222 0.0
H860 H 0.71289 0.80803 0.31807 0.0
H861 H 0.72224 0.82283 0.29434 0.0
C862 C 0.67528 0.7385 0.35177 0.0
C863 C 0.63709 0.73633 0.35929 0.0
C864 C 0.67385 0.73931 0.33797 0.0
C865 C 0.63458 0.73885 0.33139 0.0
C866 C 0.59462 0.73311 0.33887 0.0
C867 C 0.59578 0.73161 0.35279 0.0
C868 C 0.60373 0.73081 0.29466 0.0
C869 C 0.64858 0.76667 0.28937 0.0
C870 C 0.59852 0.72195 0.30837 0.0
C871 C 0.63807 0.74881 0.31695 0.0
C872 C 0.68216 0.78577 0.31166 0.0
C873 C 0.68742 0.79446 0.29805 0.0
H874 H 0.21902 0.97562 0.29266 0.0
H875 H 0.33817 0.94628 0.29219 0.0
H876 H 0.21921 0.97431 0.31689 0.0
H877 H 0.33935 0.9465 0.31638 0.0
H878 H 0.28128 0.88279 0.35758 0.0
H879 H 0.2881 0.89302 0.33358 0.0
H880 H 0.26378 0.01525 0.33671 0.0
H881 H 0.25547 0.00412 0.36075 0.0
C882 C 0.24577 0.96971 0.29772 0.0
C883 C 0.27821 0.96052 0.29052 0.0
C884 C 0.24603 0.96918 0.31161 0.0
C885 C 0.27901 0.95985 0.31855 0.0
C886 C 0.3128 0.95275 0.31132 0.0
C887 C 0.31227 0.95287 0.29746 0.0
C888 C 0.2776 0.912 0.35317 0.0
C889 C 0.26762 0.94249 0.36107 0.0
C890 C 0.28185 0.91809 0.33941 0.0
C891 C 0.27657 0.95503 0.33324 0.0
C892 C 0.2674 0.98606 0.34115 0.0
C893 C 0.26285 0.97979 0.35493 0.0
H894 H 0.74256 0.74719 0.69355 0.0
H895 H 0.68463 0.59124 0.69314 0.0
H896 H 0.74344 0.74798 0.66929 0.0
H897 H 0.68773 0.5923 0.66909 0.0
H898 H 0.67181 0.60075 0.62521 0.0
H899 H 0.65682 0.6023 0.6489 0.0
H900 H 0.79102 0.74019 0.65249 0.0
H901 H 0.80451 0.73966 0.62871 0.0
C902 C 0.72978 0.7131 0.68827 0.0
C903 C 0.71388 0.66925 0.69523 0.0
C904 C 0.7306 0.71356 0.67439 0.0
C905 C 0.71621 0.67029 0.66723 0.0
C906 C 0.69845 0.62622 0.67424 0.0
C907 C 0.69695 0.62566 0.68807 0.0
C908 C 0.69799 0.63137 0.63109 0.0
C909 C 0.73948 0.6699 0.62518 0.0
C910 C 0.68947 0.63228 0.64466 0.0
C911 C 0.72276 0.67131 0.65262 0.0
C912 C 0.76409 0.71002 0.64663 0.0
C913 C 0.77214 0.70951 0.63303 0.0
H914 H 0.41219 0.13498 0.63186 0.0
H915 H 0.26615 0.11099 0.62829 0.0
H916 H 0.40847 0.14227 0.65593 0.0
H917 H 0.26315 0.12055 0.65217 0.0
H918 H 0.24972 0.07729 0.69563 0.0
H919 H 0.25584 0.07613 0.67159 0.0
H920 H 0.40661 0.19041 0.67376 0.0
H921 H 0.40095 0.18995 0.69795 0.0
C922 C 0.3796 0.13197 0.63621 0.0
C923 C 0.33927 0.12187 0.62824 0.0
C924 C 0.37753 0.13644 0.64999 0.0
C925 C 0.33534 0.13161 0.65602 0.0
C926 C 0.29575 0.12327 0.64792 0.0
C927 C 0.29754 0.11803 0.63422 0.0
C928 C 0.2841 0.1024 0.69098 0.0
C929 C 0.32486 0.13367 0.69868 0.0
C930 C 0.28758 0.10195 0.67717 0.0
C931 C 0.33171 0.1333 0.67071 0.0
C932 C 0.37229 0.16526 0.67841 0.0
C933 C 0.36897 0.16523 0.69227 0.0
H934 H 0.87213 0.25263 0.63467 0.0
H935 H 0.95978 0.18413 0.63005 0.0
H936 H 0.86594 0.23594 0.65835 0.0
H937 H 0.95303 0.16703 0.65396 0.0
H938 H 0.97208 0.21162 0.7003 0.0
H939 H 0.97933 0.21376 0.67597 0.0
H940 H 0.82534 0.16161 0.67243 0.0
H941 H 0.81837 0.16043 0.69653 0.0
C942 C 0.89008 0.23397 0.63869 0.0
C943 C 0.91623 0.21951 0.63044 0.0
C944 C 0.88618 0.22405 0.65226 0.0
C945 C 0.90836 0.19947 0.65794 0.0
C946 C 0.9355 0.18589 0.64981 0.0
C947 C 0.93922 0.19563 0.63614 0.0
C948 C 0.93968 0.19932 0.69428 0.0
C949 C 0.89486 0.18669 0.70022 0.0
C950 C 0.9438 0.2006 0.68039 0.0
C951 C 0.90308 0.18901 0.67237 0.0
C952 C 0.85753 0.17197 0.67839 0.0
C953 C 0.85351 0.17105 0.69217 0.0
H954 H 0.3663 -0.00319 0.18955 0.0
H955 H 0.21973 0.87692 0.18379 0.0
H956 H 0.38342 -0.00569 0.16614 0.0
H957 H 0.23728 0.87456 0.16015 0.0
H958 H 0.41503 0.9517 0.12667 0.0
H959 H 0.39169 0.93817 0.15006 0.0
H960 H 0.25629 0.93251 0.1405 0.0
H961 H 0.27924 0.94569 0.11708 0.0
C962 C 0.33768 0.96985 0.18329 0.0
C963 C 0.29152 0.93722 0.18851 0.0
C964 C 0.34772 0.96813 0.1699 0.0
C965 C 0.31178 0.93401 0.16138 0.0
C966 C 0.26557 0.90124 0.16654 0.0
C967 C 0.2556 0.90258 0.18004 0.0
C968 C 0.37998 0.94689 0.12951 0.0
C969 C 0.34931 0.95051 0.12005 0.0
C970 C 0.36672 0.93927 0.14289 0.0
C971 C 0.32245 0.9348 0.14706 0.0
C972 C 0.29054 0.93562 0.13753 0.0
C973 C 0.3039 0.94356 0.12414 0.0
H974 H 0.97066 0.33381 0.13068 0.0
H975 H 0.00505 0.48272 0.13725 0.0
H976 H -0.00824 0.32854 0.15357 0.0
H977 H 0.02583 0.47679 0.16043 0.0
H978 H 0.01078 0.41511 0.20458 0.0
H979 H 0.9854 0.42495 0.18234 0.0
H980 H 0.07645 0.37437 0.16496 0.0
H981 H 0.10213 0.36472 0.18707 0.0
C982 C 0.98216 0.36532 0.13703 0.0
C983 C 0.98684 0.409 0.13206 0.0
C984 C -0.00558 0.36223 0.15013 0.0
C985 C 0.01119 0.40252 0.15862 0.0
C986 C 0.01311 0.44532 0.154 0.0
C987 C 0.00119 0.44863 0.14077 0.0
C988 C 0.02555 0.4063 0.196 0.0
C989 C 0.05819 0.38878 0.19756 0.0
C990 C 0.0112 0.41221 0.18331 0.0
C991 C 0.02871 0.4 0.17203 0.0
C992 C 0.06206 0.38349 0.17356 0.0
C993 C 0.0769 0.37819 0.18621 0.0
H994 H 0.69687 0.68511 0.19371 0.0
H995 H 0.68591 0.81064 0.18185 0.0
H996 H 0.68002 0.65495 0.17099 0.0
H997 H 0.66882 0.77998 0.15906 0.0
H998 H 0.5723 0.58569 0.13592 0.0
H999 H 0.60252 0.62173 0.15774 0.0
H1000 H 0.70367 0.75875 0.13923 0.0
H1001 H 0.67343 0.72302 0.11737 0.0
C1002 C 0.69154 0.70666 0.18623 0.0
C1003 C 0.69198 0.74994 0.18963 0.0
C1004 C 0.68168 0.68919 0.17325 0.0
C1005 C 0.67237 0.71476 0.16338 0.0
C1006 C 0.67594 0.75963 0.16652 0.0
C1007 C 0.68564 0.7771 0.17956 0.0
C1008 C 0.60103 0.62345 0.13649 0.0
C1009 C 0.62039 0.65149 0.12493 0.0
C1010 C 0.61858 0.64394 0.14896 0.0
C1011 C 0.65556 0.69291 0.15011 0.0
C1012 C 0.675 0.72098 0.13858 0.0
C1013 C 0.65775 0.7004 0.12609 0.0
H1014 H 0.04607 0.39281 0.85371 0.0
H1015 H 0.93437 0.43096 0.85932 0.0
H1016 H 0.02437 0.37674 0.83019 0.0
H1017 H 0.91153 0.4132 0.83576 0.0
H1018 H 0.85232 0.28269 0.80208 0.0
H1019 H 0.87665 0.32151 0.82397 0.0
H1020 H 0.01778 0.4255 0.80838 0.0
H1021 H -0.0064 0.38775 0.78648 0.0
C1022 C 0.01753 0.39863 0.84981 0.0
C1023 C -0.00814 0.4131 0.85822 0.0
C1024 C 0.00522 0.38957 0.8364 0.0
C1025 C 0.9663 0.39371 0.8313 0.0
C1026 C 0.94172 0.40993 0.83956 0.0
C1027 C 0.95493 0.42029 0.85294 0.0
C1028 C 0.88818 0.31436 0.80328 0.0
C1029 C 0.92118 0.33188 0.79261 0.0
C1030 C 0.90188 0.33673 0.81573 0.0
C1031 C 0.94895 0.37635 0.81773 0.0
C1032 C 0.98124 0.39506 0.80699 0.0
C1033 C 0.96732 0.37335 0.7945 0.0
H1034 H 0.57793 0.50324 0.85421 0.0
H1035 H 0.70749 0.63224 0.8681 0.0
H1036 H 0.60913 0.52124 0.83157 0.0
H1037 H 0.73837 0.65004 0.84533 0.0
H1038 H 0.78384 0.64208 0.80116 0.0
H1039 H 0.76292 0.61554 0.8244 0.0
H1040 H 0.61939 0.59539 0.81815 0.0
H1041 H 0.63978 0.62183 0.79528 0.0
C1042 C 0.61335 0.53498 0.85249 0.0
C1043 C 0.63977 0.56689 0.8629 0.0
C1044 C 0.63116 0.54518 0.83954 0.0
C1045 C 0.67576 0.58726 0.83678 0.0
C1046 C 0.70392 0.6173 0.84727 0.0
C1047 C 0.686 0.60726 0.86025 0.0
C1048 C 0.74792 0.63204 0.80481 0.0
C1049 C 0.71353 0.63417 0.79643 0.0
C1050 C 0.73605 0.6169 0.81804 0.0
C1051 C 0.6894 0.60287 0.8229 0.0
C1052 C 0.65531 0.60522 0.81453 0.0
C1053 C 0.66727 0.62088 0.80147 0.0
H1054 H 0.30113 0.97602 0.78883 0.0
H1055 H 0.3061 0.10105 0.80774 0.0
H1056 H 0.31109 0.94708 0.81034 0.0
H1057 H 0.31621 0.07171 0.82935 0.0
H1058 H 0.30168 0.98668 0.86722 0.0
H1059 H 0.27507 0.0021 0.84591 0.0
H1060 H 0.383 0.98072 0.82576 0.0
H1061 H 0.40976 0.96526 0.84702 0.0
C1062 C 0.3038 -0.00286 0.79758 0.0
C1063 C 0.30343 0.04128 0.79653 0.0
C1064 C 0.30963 0.9805 0.80989 0.0
C1065 C 0.31487 0.00737 0.82146 0.0
C1066 C 0.31197 0.05014 0.82056 0.0
C1067 C 0.3064 0.06704 0.8082 0.0
C1068 C 0.31919 0.98437 0.85823 0.0
C1069 C 0.35807 0.97498 0.85882 0.0
C1070 C 0.30413 -0.00643 0.84606 0.0
C1071 C 0.32718 -0.00709 0.83423 0.0
C1072 C 0.36436 0.98113 0.83474 0.0
C1073 C 0.37979 0.97244 0.84691 0.0
H1074 H 0.02589 0.36922 0.53424 0.0
H1075 H 0.89457 0.23841 0.52218 0.0
H1076 H 0.05121 0.38662 0.51111 0.0
H1077 H 0.92042 0.25585 0.49901 0.0
H1078 H 0.10845 0.35269 0.47257 0.0
H1079 H 0.07885 0.34555 0.49523 0.0
H1080 H 0.93866 0.31493 0.48031 0.0
H1081 H 0.96803 0.32163 0.45754 0.0
C1082 C 0.00215 0.34439 0.52666 0.0
C1083 C 0.95845 0.30206 0.53008 0.0
C1084 C 0.01681 0.35434 0.51342 0.0
C1085 C -0.01196 0.32232 0.50331 0.0
C1086 C 0.94318 0.28131 0.50662 0.0
C1087 C 0.92852 0.27122 0.51989 0.0
C1088 C 0.07142 0.34478 0.47409 0.0
C1089 C 0.04054 0.33749 0.46325 0.0
C1090 C 0.05459 0.34104 0.48708 0.0
C1091 C 0.00647 0.32972 0.48951 0.0
C1092 C 0.9758 0.32333 0.4787 0.0
C1093 C -0.00726 0.3274 0.46568 0.0
H1094 H 0.73139 0.68207 0.45208 0.0
H1095 H 0.71032 0.8001 0.46535 0.0
H1096 H 0.74778 0.66855 0.47492 0.0
H1097 H 0.72734 0.78677 0.48811 0.0
H1098 H 0.68265 0.69766 0.52643 0.0
H1099 H 0.6782 0.71717 0.5034 0.0
H1100 H 0.80585 0.707 0.49444 0.0
H1101 H 0.81051 0.68694 0.51777 0.0
C1102 C 0.73078 0.70549 0.45983 0.0
C1103 C 0.71879 0.74169 0.45694 0.0
C1104 C 0.74056 0.69793 0.47288 0.0
C1105 C 0.73835 0.72632 0.48324 0.0
C1106 C 0.72856 0.76392 0.48028 0.0
C1107 C 0.7189 0.77158 0.46726 0.0
C1108 C 0.7099 0.69943 0.51962 0.0
C1109 C 0.74707 0.69082 0.52397 0.0
C1110 C 0.70751 0.71108 0.50643 0.0
C1111 C 0.74207 0.71427 0.49722 0.0
C1112 C 0.77881 0.7048 0.5014 0.0
C1113 C 0.78145 0.69336 0.51472 0.0
H1114 H 0.347 0.96086 0.46325 0.0
H1115 H 0.19452 0.91554 0.46692 0.0
H1116 H 0.35964 0.98522 0.4866 0.0
H1117 H 0.20753 0.94083 0.49032 0.0
H1118 H 0.27965 0.06591 0.52271 0.0
H1119 H 0.26113 0.02993 0.50045 0.0
H1120 H 0.32983 0.94584 0.51027 0.0
H1121 H 0.34787 0.98115 0.53259 0.0
C1122 C 0.31609 0.95549 0.46912 0.0
C1123 C 0.26982 0.93648 0.46331 0.0
C1124 C 0.32332 0.9693 0.48245 0.0
C1125 C 0.2846 0.96516 0.49014 0.0
C1126 C 0.23794 0.9446 0.4845 0.0
C1127 C 0.23047 0.92983 0.4712 0.0
C1128 C 0.29088 0.03984 0.52011 0.0
C1129 C 0.31536 0.02646 0.52935 0.0
C1130 C 0.27983 0.01893 0.50745 0.0
C1131 C 0.2938 0.98497 0.50377 0.0
C1132 C 0.31866 0.97192 0.51293 0.0
C1133 C 0.32896 0.99214 0.52566 0.0
H1134 H 0.44017 0.39305 0.10134 0.0
H1135 H 0.55781 0.40078 0.07789 0.0
H1136 H 0.40285 0.30382 0.1026 0.0
H1137 H 0.52129 0.31261 0.07936 0.0
H1138 H 0.47409 0.16539 0.09313 0.0
H1139 H 0.50059 0.24952 0.09902 0.0
H1140 H 0.36848 0.23464 0.08229 0.0
H1141 H 0.34138 0.14919 0.07645 0.0
C1142 C 0.4585 0.37575 0.09673 0.0
C1143 C 0.50187 0.40349 0.08955 0.0
C1144 C 0.437 0.32497 0.09737 0.0
C1145 C 0.45941 0.3018 0.09111 0.0
C1146 C 0.50362 0.32986 0.08436 0.0
C1147 C 0.52446 0.38017 0.0835 0.0
C1148 C 0.4501 0.17971 0.09103 0.0
C1149 C 0.40625 0.15159 0.08413 0.0
C1150 C 0.46519 0.22763 0.09443 0.0
C1151 C 0.43682 0.24838 0.09092 0.0
C1152 C 0.39075 0.21904 0.08512 0.0
C1153 C 0.37536 0.17051 0.08175 0.0
H1154 H 0.5918 0.07167 0.05927 0.0
H1155 H 0.59165 0.11871 0.09954 0.0
H1156 H 0.68005 0.11003 0.05989 0.0
H1157 H 0.68057 0.1599 0.09996 0.0
H1158 H 0.82036 0.26073 0.05818 0.0
H1159 H 0.73761 0.19377 0.0586 0.0
H1160 H 0.75751 0.16086 0.09913 0.0
H1161 H 0.84122 0.22981 0.09873 0.0
C1162 C 0.6109 0.09048 0.06825 0.0
C1163 C 0.58546 0.09369 0.07922 0.0
C1164 C 0.66133 0.11222 0.06863 0.0
C1165 C 0.68743 0.13884 0.07987 0.0
C1166 C 0.66159 0.13938 0.09118 0.0
C1167 C 0.61081 0.11646 0.0909 0.0
C1168 C 0.8075 0.23843 0.06707 0.0
C1169 C 0.83668 0.25074 0.07848 0.0
C1170 C 0.76006 0.19965 0.0673 0.0
C1171 C 0.74068 0.1722 0.07897 0.0
C1172 C 0.7713 0.18187 0.09006 0.0
C1173 C 0.81923 0.22089 0.0898 0.0
H1174 H 0.74677 0.63212 0.08948 0.0
H1175 H 0.71236 0.57341 0.04969 0.0
H1176 H 0.80635 0.60564 0.09156 0.0
H1177 H 0.7742 0.54957 0.05135 0.0
H1178 H 0.81313 0.439 0.06692 0.0
H1179 H 0.77021 0.48329 0.06292 0.0
H1180 H 0.8777 0.60422 0.08626 0.0
H1181 H 0.91912 0.5585 0.0908 0.0
C1182 C 0.75382 0.61573 0.08094 0.0
C1183 C 0.72478 0.60408 0.0695 0.0
C1184 C 0.78789 0.60038 0.08212 0.0
C1185 C 0.7939 0.57402 0.07176 0.0
C1186 C 0.76906 0.56809 0.0597 0.0
C1187 C 0.73423 0.58236 0.05865 0.0
C1188 C 0.82726 0.47488 0.07127 0.0
C1189 C 0.86903 0.49513 0.07926 0.0
C1190 C 0.80319 0.50069 0.06881 0.0
C1191 C 0.82099 0.5478 0.07407 0.0
C1192 C 0.8628 0.56795 0.08213 0.0
C1193 C 0.88639 0.54168 0.08478 0.0
H1194 H 0.37871 0.5002 0.88055 0.0
H1195 H 0.38736 0.41706 0.91339 0.0
H1196 H 0.28985 0.44861 0.88048 0.0
H1197 H 0.29923 0.36417 0.91301 0.0
H1198 H 0.16089 0.37264 0.92479 0.0
H1199 H 0.2427 0.3884 0.92077 0.0
H1200 H 0.21344 0.36925 0.87852 0.0
H1201 H 0.13087 0.35372 0.88263 0.0
C1202 C 0.3615 0.47 0.88747 0.0
C1203 C 0.38899 0.46316 0.89723 0.0
C1204 C 0.31086 0.44013 0.88737 0.0
C1205 C 0.28758 0.4028 0.8969 0.0
C1206 C 0.31606 0.39325 0.90574 0.0
C1207 C 0.3663 0.42355 0.90601 0.0
C1208 C 0.17137 0.37013 0.91469 0.0
C1209 C 0.14002 0.36273 0.90401 0.0
C1210 C 0.21822 0.37888 0.91237 0.0
C1211 C 0.23472 0.38071 0.89929 0.0
C1212 C 0.20178 0.36863 0.88868 0.0
C1213 C 0.15449 0.35932 0.89104 0.0
H1214 H 0.55396 0.90997 0.91812 0.0
H1215 H 0.503 0.8736 0.87755 0.0
H1216 H 0.58639 0.85487 0.91703 0.0
H1217 H 0.53591 0.81855 0.87649 0.0
H1218 H 0.51026 0.66838 0.8932 0.0
H1219 H 0.50246 0.73958 0.88901 0.0
H1220 H 0.64485 0.8319 0.90605 0.0
H1221 H 0.65289 0.75959 0.91016 0.0
C1222 C 0.55035 0.89082 0.90889 0.0
C1223 C 0.5249 0.89527 0.89801 0.0
C1224 C 0.56955 0.85975 0.90822 0.0
C1225 C 0.56341 0.8323 0.8967 0.0
C1226 C 0.54081 0.83913 0.88552 0.0
C1227 C 0.5219 0.87052 0.88615 0.0
C1228 C 0.54029 0.70396 0.89586 0.0
C1229 C 0.58189 0.70863 0.90216 0.0
C1230 C 0.53605 0.7448 0.89332 0.0
C1231 C 0.57306 0.79124 0.89719 0.0
C1232 C 0.6158 0.79637 0.90298 0.0
C1233 C 0.62045 0.75524 0.90531 0.0
H1234 H 0.24196 0.84397 0.91316 0.0
H1235 H 0.35088 0.81164 0.92791 0.0
H1236 H 0.1815 0.75749 0.91388 0.0
H1237 H 0.29089 0.72543 0.92823 0.0
H1238 H 0.16215 0.57223 0.93298 0.0
H1239 H 0.2156 0.65902 0.93716 0.0
H1240 H 0.1739 0.69241 0.89935 0.0
H1241 H 0.11977 0.60613 0.89531 0.0
C1242 C 0.25283 0.81858 0.91675 0.0
C1243 C 0.30137 0.83445 0.92019 0.0
C1244 C 0.21832 0.7691 0.91708 0.0
C1245 C 0.23189 0.73481 0.92081 0.0
C1246 C 0.2794 0.75106 0.92532 0.0
C1247 C 0.31384 0.80051 0.92507 0.0
C1248 C 0.16464 0.59813 0.92554 0.0
C1249 C 0.13682 0.58243 0.91381 0.0
C1250 C 0.19506 0.64774 0.92796 0.0
C1251 C 0.19827 0.68236 0.91867 0.0
C1252 C 0.17112 0.66656 0.90686 0.0
C1253 C 0.1406 0.6171 0.90446 0.0
H1254 H 0.17135 0.73756 0.38902 0.0
H1255 H 0.16293 0.72102 0.43175 0.0
H1256 H 0.12662 0.6495 0.38642 0.0
H1257 H 0.12036 0.63253 0.4292 0.0
H1258 H 0.03131 0.47306 0.42221 0.0
H1259 H 0.04971 0.55796 0.42238 0.0
H1260 H 0.1479 0.58936 0.38924 0.0
H1261 H 0.12815 0.50528 0.38878 0.0
C1262 C 0.1603 0.71498 0.39786 0.0
C1263 C 0.17149 0.736 0.41059 0.0
C1264 C 0.13452 0.6645 0.39638 0.0
C1265 C 0.12033 0.63384 0.40759 0.0
C1266 C 0.13013 0.65498 0.42034 0.0
C1267 C 0.15511 0.70564 0.42182 0.0
C1268 C 0.05546 0.49792 0.4147 0.0
C1269 C 0.07888 0.48289 0.40561 0.0
C1270 C 0.06649 0.5466 0.41489 0.0
C1271 C 0.10092 0.5807 0.40597 0.0
C1272 C 0.12096 0.5643 0.3962 0.0
C1273 C 0.10991 0.51598 0.396 0.0
H1274 H 0.52718 0.55021 0.39897 0.0
H1275 H 0.52764 0.61351 0.43693 0.0
H1276 H 0.44214 0.48727 0.40238 0.0
H1277 H 0.44258 0.55143 0.44032 0.0
H1278 H 0.28458 0.42522 0.442 0.0
H1279 H 0.37356 0.46439 0.44203 0.0
H1280 H 0.37671 0.50877 0.40123 0.0
H1281 H 0.28892 0.47021 0.40112 0.0
C1282 C 0.50966 0.54905 0.40831 0.0
C1283 C 0.53342 0.58605 0.41774 0.0
C1284 C 0.46101 0.51355 0.41022 0.0
C1285 C 0.43563 0.51523 0.42149 0.0
C1286 C 0.46125 0.54914 0.43158 0.0
C1287 C 0.50988 0.58456 0.42967 0.0
C1288 C 0.30439 0.44356 0.43307 0.0
C1289 C 0.27964 0.44476 0.42158 0.0
C1290 C 0.35518 0.46557 0.43307 0.0
C1291 C 0.38185 0.48857 0.42154 0.0
C1292 C 0.35704 0.49005 0.41014 0.0
C1293 C 0.30666 0.46857 0.41016 0.0
H1294 H 0.54013 0.81837 0.43638 0.0
H1295 H 0.5889 0.8542 0.39572 0.0
H1296 H 0.50221 0.86924 0.43481 0.0
H1297 H 0.55412 0.90709 0.39435 0.0
H1298 H 0.40873 0.90609 0.39057 0.0
H1299 H 0.47132 0.88439 0.39252 0.0
H1300 H 0.50766 0.94841 0.43183 0.0
H1301 H 0.44315 0.96916 0.42993 0.0
C1302 C 0.5432 0.83773 0.42721 0.0
C1303 C 0.5655 0.83117 0.41601 0.0
C1304 C 0.52231 0.8674 0.42635 0.0
C1305 C 0.52466 0.89163 0.41437 0.0
C1306 C 0.55059 0.8879 0.40358 0.0
C1307 C 0.57018 0.85741 0.40433 0.0
C1308 C 0.43092 0.91669 0.39949 0.0
C1309 C 0.42078 0.93851 0.41018 0.0
C1310 C 0.46715 0.9046 0.40059 0.0
C1311 C 0.49412 0.9142 0.41241 0.0
C1312 C 0.48686 0.93995 0.42269 0.0
C1313 C 0.45043 0.95228 0.42155 0.0
H1314 H 0.84658 0.79533 0.26644 0.0
H1315 H 0.82614 0.74225 0.22607 0.0
H1316 H 0.93291 0.82185 0.26503 0.0
H1317 H 0.91282 0.77104 0.22433 0.0
H1318 H 0.07195 0.81404 0.22695 0.0
H1319 H 0.98425 0.76994 0.23033 0.0
H1320 H -0.00312 0.88958 0.25406 0.0
H1321 H 0.0847 0.9325 0.25118 0.0
C1322 C 0.86052 0.78841 0.25737 0.0
C1323 C 0.83008 0.76724 0.24633 0.0
C1324 C 0.90999 0.80417 0.25648 0.0
C1325 C 0.93003 0.80003 0.24442 0.0
C1326 C 0.89866 0.77484 0.23376 0.0
C1327 C 0.84892 0.75818 0.23476 0.0
C1328 C 0.05586 0.83104 0.2328 0.0
C1329 C 0.08506 0.87679 0.23878 0.0
C1330 C 0.00562 0.80568 0.23477 0.0
C1331 C 0.98353 0.82587 0.2426 0.0
C1332 C 0.01279 0.87224 0.24829 0.0
C1333 C 0.06306 0.89723 0.2465 0.0
H1334 H 0.28129 0.10569 0.21292 0.0
H1335 H 0.28991 0.12879 0.25537 0.0
H1336 H 0.2448 0.15758 0.21037 0.0
H1337 H 0.25479 0.18133 0.25284 0.0
H1338 H 0.19926 0.27935 0.21488 0.0
H1339 H 0.24941 0.24076 0.21419 0.0
H1340 H 0.16619 0.14642 0.24664 0.0
H1341 H 0.11647 0.18479 0.24746 0.0
C1342 C 0.27775 0.12399 0.22159 0.0
C1343 C 0.28784 0.11325 0.23435 0.0
C1344 C 0.25652 0.15323 0.22015 0.0
C1345 C 0.24564 0.17191 0.23147 0.0
C1346 C 0.26162 0.1661 0.24401 0.0
C1347 C 0.28228 0.13669 0.24544 0.0
C1348 C 0.191 0.24964 0.22168 0.0
C1349 C 0.15437 0.23558 0.23138 0.0
C1350 C 0.21992 0.22787 0.22131 0.0
C1351 C 0.21259 0.19192 0.23065 0.0
C1352 C 0.17358 0.17531 0.23962 0.0
C1353 C 0.14477 0.19691 0.23999 0.0
H1354 H 0.83288 0.97004 0.25722 0.0
H1355 H 0.74875 0.97808 0.22451 0.0
H1356 H 0.87166 0.05763 0.26019 0.0
H1357 H 0.78581 0.0658 0.22787 0.0
H1358 H 0.92053 0.22455 0.22709 0.0
H1359 H 0.86033 0.13846 0.22485 0.0
H1360 H 0.86066 0.12154 0.26757 0.0
H1361 H 0.92346 0.20705 0.26955 0.0
C1362 C 0.82254 0.99064 0.25071 0.0
C1363 C 0.78829 0.96743 0.24055 0.0
C1364 C 0.84413 0.04081 0.25253 0.0
C1365 C 0.83127 0.06886 0.24441 0.0
C1366 C 0.79682 0.04546 0.23425 0.0
C1367 C 0.77578 -0.00474 0.23228 0.0
C1368 C 0.90596 0.20274 0.23601 0.0
C1369 C 0.92638 0.22186 0.24847 0.0
C1370 C 0.87162 0.15328 0.23475 0.0
C1371 C 0.85685 0.12267 0.246 0.0
C1372 C 0.87264 0.14373 0.25865 0.0
C1373 C 0.90783 0.19281 0.25985 0.0
H1374 H 0.76826 0.8558 0.7343 0.0
H1375 H 0.71166 0.80891 0.774 0.0
H1376 H 0.80238 0.94031 0.74101 0.0
H1377 H 0.74628 0.89456 0.78073 0.0
H1378 H 0.78352 0.06501 0.7753 0.0
H1379 H 0.74325 0.97595 0.77423 0.0
H1380 H 0.87392 0.98693 0.75779 0.0
H1381 H 0.91394 0.0755 0.75867 0.0
C1382 C 0.76235 0.86358 0.74441 0.0
C1383 C 0.73799 0.82594 0.75369 0.0
C1384 C 0.78223 0.9119 0.74826 0.0
C1385 C 0.7782 0.9236 0.76148 0.0
C1386 C 0.75028 0.88613 0.77053 0.0
C1387 C 0.73023 0.83735 0.76665 0.0
C1388 C 0.80421 0.04831 0.77194 0.0
C1389 C 0.85145 0.07696 0.76677 0.0
C1390 C 0.78108 -0.00255 0.7713 0.0
C1391 C 0.8052 0.9751 0.76557 0.0
C1392 C 0.85433 0.00366 0.76195 0.0
C1393 C 0.87726 0.05423 0.76252 0.0
H1394 H 0.18142 0.90172 0.75372 0.0
H1395 H 0.14003 0.97149 0.72358 0.0
H1396 H 0.09893 0.83088 0.75324 0.0
H1397 H 0.05835 0.9025 0.72339 0.0
H1398 H 0.91547 0.77187 0.72166 0.0
H1399 H 0.00324 0.8197 0.71881 0.0
H1400 H 0.02231 0.81982 0.76142 0.0
H1401 H 0.93441 0.76987 0.76418 0.0
C1402 C 0.15509 0.90136 0.74678 0.0
C1403 C 0.16671 0.94224 0.73884 0.0
C1404 C 0.10784 0.86113 0.74659 0.0
C1405 C 0.07189 0.8613 0.73841 0.0
C1406 C 0.08503 0.90073 0.72973 0.0
C1407 C 0.13187 0.94063 0.72993 0.0
C1408 C 0.93848 0.78185 0.73041 0.0
C1409 C 0.9182 0.76816 0.74317 0.0
C1410 C -0.01125 0.80909 0.72878 0.0
C1411 C 0.01978 0.82411 0.7399 0.0
C1412 C -0.00047 0.80841 0.75263 0.0
C1413 C 0.94916 0.78035 0.75424 0.0
H1414 H 0.24081 0.22369 0.77372 0.0
H1415 H 0.17397 0.16449 0.73561 0.0
H1416 H 0.20775 0.27878 0.77314 0.0
H1417 H 0.14077 0.21852 0.73515 0.0
H1418 H 0.09548 0.32118 0.73105 0.0
H1419 H 0.16176 0.30346 0.73317 0.0
H1420 H 0.12608 0.2684 0.77469 0.0
H1421 H 0.06133 0.28784 0.77256 0.0
C1422 C 0.21881 0.22214 0.76529 0.0
C1423 C 0.20966 0.18942 0.75476 0.0
C1424 C 0.20036 0.25402 0.76491 0.0
C1425 C 0.17258 0.25377 0.75398 0.0
C1426 C 0.16338 0.22085 0.74352 0.0
C1427 C 0.1817 0.18916 0.7439 0.0
C1428 C 0.10409 0.31281 0.74078 0.0
C1429 C 0.07375 0.30575 0.75165 0.0
C1430 C 0.14141 0.3019 0.74198 0.0
C1431 C 0.14788 0.2829 0.75398 0.0
C1432 C 0.12196 0.28278 0.76531 0.0
C1433 C 0.08499 0.29414 0.76412 0.0
H1434 H 0.49551 0.07806 0.60423 0.0
H1435 H 0.48474 0.05268 0.56191 0.0
H1436 H 0.58187 0.10407 0.60353 0.0
H1437 H 0.57169 0.08164 0.56092 0.0
H1438 H 0.7313 0.12829 0.56354 0.0
H1439 H 0.64318 0.07963 0.56566 0.0
H1440 H 0.6473 0.17809 0.5961 0.0
H1441 H 0.73542 0.22506 0.59441 0.0
C1442 C 0.51156 0.07669 0.59485 0.0
C1443 C 0.48396 0.06354 0.58313 0.0
C1444 C 0.5611 0.09238 0.59438 0.0
C1445 C 0.58412 0.09664 0.5821 0.0
C1446 C 0.5553 0.07888 0.57055 0.0
C1447 C 0.50539 0.06203 0.5711 0.0
C1448 C 0.71322 0.13961 0.57063 0.0
C1449 C 0.74012 0.18062 0.57877 0.0
C1450 C 0.66273 0.11161 0.57187 0.0
C1451 C 0.63803 0.12447 0.58116 0.0
C1452 C 0.6651 0.16611 0.58912 0.0
C1453 C 0.7156 0.19357 0.58803 0.0
H1454 H 0.96839 0.4395 0.56621 0.0
H1455 H 0.91707 0.41196 0.60677 0.0
H1456 H 0.93741 0.49522 0.56349 0.0
H1457 H 0.88851 0.47007 0.6044 0.0
H1458 H 0.77197 0.50112 0.5892 0.0
H1459 H 0.81923 0.4613 0.5934 0.0
H1460 H 0.9337 0.56586 0.56784 0.0
H1461 H 0.88507 0.60389 0.56312 0.0
C1462 C 0.95261 0.44729 0.57475 0.0
C1463 C 0.9444 0.42108 0.58663 0.0
C1464 C 0.93463 0.47915 0.57319 0.0
C1465 C 0.90902 0.48593 0.58361 0.0
C1466 C 0.90637 0.46419 0.59602 0.0
C1467 C 0.92338 0.43155 0.59747 0.0
C1468 C 0.807 0.51516 0.58438 0.0
C1469 C 0.82459 0.5551 0.57572 0.0
C1470 C 0.83454 0.49293 0.58695 0.0
C1471 C 0.88075 0.51086 0.58112 0.0
C1472 C 0.89816 0.55081 0.5724 0.0
C1473 C 0.87018 0.57246 0.56965 0.0
H1474 H 0.41624 0.27159 0.55117 0.0
H1475 H 0.5032 0.2789 0.5852 0.0
H1476 H 0.4552 0.36055 0.55111 0.0
H1477 H 0.54226 0.36718 0.58498 0.0
H1478 H 0.59144 0.52445 0.54995 0.0
H1479 H 0.53638 0.43642 0.54777 0.0
H1480 H 0.51483 0.42547 0.59036 0.0
H1481 H 0.57104 0.51278 0.59248 0.0
C1482 C 0.44428 0.29215 0.55846 0.0
C1483 C 0.45637 0.26823 0.56828 0.0
C1484 C 0.46628 0.34299 0.55846 0.0
C1485 C 0.50058 0.37054 0.56828 0.0
C1486 C 0.51462 0.34671 0.57757 0.0
C1487 C 0.4927 0.29615 0.5776 0.0
C1488 C 0.573 0.50338 0.55872 0.0
C1489 C 0.58525 0.5248 0.57138 0.0
C1490 C 0.54186 0.45304 0.5575 0.0
C1491 C 0.52271 0.4241 0.56895 0.0
C1492 C 0.53031 0.44684 0.58141 0.0
C1493 C 0.56178 0.49678 0.58263 0.0
loop_
_geom_bond_atom_site_label_1
_geom_bond_atom_site_label_2
_geom_bond_distance
_geom_bond_site_symmetry_2
_ccdc_geom_bond_type
O0 Zn1 1.953 . S
O0 C16 1.225 . S
Zn1 O0 1.953 . S
Zn1 O2 1.949 . S
Zn1 O8 1.919 . S
Zn1 O13 1.924 1_545 S
O2 Zn1 1.949 . S
O2 Zn3 1.923 . S
O2 Zn4 1.950 . S
O2 Zn5 1.945 1_545 S
Zn3 O2 1.923 . S
Zn3 O6 1.933 1_545 S
Zn3 O9 1.941 . S
Zn3 O10 1.965 . S
Zn4 O2 1.950 . S
Zn4 O11 1.938 . S
Zn4 O12 1.906 . S
Zn4 O22 1.953 . S
Zn5 O2 1.945 1_565 S
Zn5 O7 1.932 . S
Zn5 O14 1.977 . S
Zn5 O15 1.910 . S
O6 Zn3 1.933 1_565 S
O6 C17 1.226 . S
O7 Zn5 1.932 . S
O7 C17 1.307 . S
O8 Zn1 1.919 . S
O8 C19 1.253 . S
O9 Zn3 1.941 . S
O9 C19 1.283 . S
O10 Zn3 1.965 . S
O10 C18 1.303 . S
O11 Zn4 1.938 . S
O11 C18 1.247 . S
O12 Zn4 1.906 . S
O12 C20 1.317 . S
O13 Zn1 1.924 1_565 S
O13 C21 1.311 . S
O14 Zn5 1.977 . S
O14 C20 1.258 1_565 S
O15 Zn5 1.910 . S
O15 C21 1.231 . S
C16 O0 1.225 . S
C16 O22 1.298 . S
C17 O6 1.226 . S
C17 O7 1.307 . S
C18 O10 1.303 . S
C18 O11 1.247 . S
C19 O8 1.253 . S
C19 O9 1.283 . S
C20 O12 1.317 . S
C20 O14 1.258 1_545 S
C21 O13 1.311 . S
C21 O15 1.231 . S
O22 Zn4 1.953 . S
O22 C16 1.298 . S
O23 Zn24 1.953 1_655 S
O23 C39 1.225 . S
Zn24 O23 1.953 1_455 S
Zn24 O25 1.949 . S
Zn24 O31 1.919 . S
Zn24 O36 1.924 . S
O25 Zn24 1.949 . S
O25 Zn26 1.923 . S
O25 Zn27 1.950 1_455 S
O25 Zn28 1.945 . S
Zn26 O25 1.923 . S
Zn26 O29 1.933 . S
Zn26 O32 1.941 . S
Zn26 O33 1.965 1_455 S
Zn27 O25 1.950 1_655 S
Zn27 O34 1.938 . S
Zn27 O35 1.906 . S
Zn27 O45 1.953 . S
Zn28 O25 1.945 . S
Zn28 O30 1.932 . S
Zn28 O37 1.977 . S
Zn28 O38 1.910 . S
O29 Zn26 1.933 . S
O29 C40 1.226 . S
O30 Zn28 1.932 . S
O30 C40 1.307 . S
O31 Zn24 1.919 . S
O31 C42 1.253 . S
O32 Zn26 1.941 . S
O32 C42 1.283 . S
O33 Zn26 1.965 1_655 S
O33 C41 1.303 . S
O34 Zn27 1.938 . S
O34 C41 1.247 . S
O35 Zn27 1.906 . S
O35 C43 1.304 1_655 S
O36 Zn24 1.924 . S
O36 C44 1.311 . S
O37 Zn28 1.977 . S
O37 C43 1.272 . S
O38 Zn28 1.910 . S
O38 C44 1.231 . S
C39 O23 1.225 . S
C39 O45 1.298 . S
C40 O29 1.226 . S
C40 O30 1.307 . S
C41 O33 1.303 . S
C41 O34 1.247 . S
C42 O31 1.253 . S
C42 O32 1.283 . S
C43 O35 1.304 1_455 S
C43 O37 1.272 . S
C44 O36 1.311 . S
C44 O38 1.231 . S
O45 Zn27 1.953 . S
O45 C39 1.298 . S
O46 Zn47 1.953 . S
O46 C62 1.225 . S
Zn47 O46 1.953 . S
Zn47 O48 1.949 . S
Zn47 O54 1.919 . S
Zn47 O59 1.924 . S
O48 Zn47 1.949 . S
O48 Zn49 1.923 . S
O48 Zn50 1.950 . S
O48 Zn51 1.945 . S
Zn49 O48 1.923 . S
Zn49 O52 1.933 . S
Zn49 O55 1.941 . S
Zn49 O56 1.965 . S
Zn50 O48 1.950 . S
Zn50 O57 1.938 . S
Zn50 O58 1.906 . S
Zn50 O68 1.953 . S
Zn51 O48 1.945 . S
Zn51 O53 1.932 . S
Zn51 O60 1.977 . S
Zn51 O61 1.910 . S
O52 Zn49 1.933 . S
O52 C63 1.226 . S
O53 Zn51 1.932 . S
O53 C63 1.307 . S
O54 Zn47 1.919 . S
O54 C65 1.253 . S
O55 Zn49 1.941 . S
O55 C65 1.283 . S
O56 Zn49 1.965 . S
O56 C64 1.303 . S
O57 Zn50 1.938 . S
O57 C64 1.247 . S
O58 Zn50 1.906 . S
O58 C66 1.304 . S
O59 Zn47 1.924 . S
O59 C67 1.311 . S
O60 Zn51 1.977 . S
O60 C66 1.272 . S
O61 Zn51 1.910 . S
O61 C67 1.231 . S
C62 O46 1.225 . S
C62 O68 1.298 . S
C63 O52 1.226 . S
C63 O53 1.307 . S
C64 O56 1.303 . S
C64 O57 1.247 . S
C65 O54 1.253 . S
C65 O55 1.283 . S
C66 O58 1.304 . S
C66 O60 1.272 . S
C67 O59 1.311 . S
C67 O61 1.231 . S
O68 Zn50 1.953 . S
O68 C62 1.298 . S
O69 Zn70 1.953 . S
O69 C85 1.225 . S
Zn70 O69 1.953 . S
Zn70 O71 1.949 . S
Zn70 O77 1.919 . S
Zn70 O82 1.924 1_455 S
O71 Zn70 1.949 . S
O71 Zn72 1.923 . S
O71 Zn73 1.950 . S
O71 Zn74 1.945 1_455 S
Zn72 O71 1.923 . S
Zn72 O75 1.933 1_455 S
Zn72 O78 1.941 . S
Zn72 O79 1.965 . S
Zn73 O71 1.950 . S
Zn73 O80 1.938 . S
Zn73 O81 1.906 . S
Zn73 O91 1.953 . S
Zn74 O71 1.945 1_655 S
Zn74 O76 1.932 . S
Zn74 O83 1.977 . S
Zn74 O84 1.910 . S
O75 Zn72 1.933 1_655 S
O75 C86 1.226 . S
O76 Zn74 1.932 . S
O76 C86 1.307 . S
O77 Zn70 1.919 . S
O77 C88 1.253 . S
O78 Zn72 1.941 . S
O78 C88 1.283 . S
O79 Zn72 1.965 . S
O79 C87 1.303 . S
O80 Zn73 1.938 . S
O80 C87 1.247 . S
O81 Zn73 1.906 . S
O81 C89 1.317 . S
O82 Zn70 1.924 1_655 S
O82 C90 1.311 . S
O83 Zn74 1.977 . S
O83 C89 1.258 1_655 S
O84 Zn74 1.910 . S
O84 C90 1.231 . S
C85 O69 1.225 . S
C85 O91 1.298 . S
C86 O75 1.226 . S
C86 O76 1.307 . S
C87 O79 1.303 . S
C87 O80 1.247 . S
C88 O77 1.253 . S
C88 O78 1.283 . S
C89 O81 1.317 . S
C89 O83 1.258 1_455 S
C90 O82 1.311 . S
C90 O84 1.231 . S
O91 Zn73 1.953 . S
O91 C85 1.298 . S
O92 Zn93 1.953 . S
O92 C108 1.225 . S
Zn93 O92 1.953 . S
Zn93 O94 1.949 . S
Zn93 O100 1.919 . S
Zn93 O105 1.924 . S
O94 Zn93 1.949 . S
O94 Zn95 1.923 . S
O94 Zn96 1.950 . S
O94 Zn97 1.945 . S
Zn95 O94 1.923 . S
Zn95 O98 1.933 . S
Zn95 O101 1.941 . S
Zn95 O102 1.965 . S
Zn96 O94 1.950 . S
Zn96 O103 1.938 . S
Zn96 O104 1.906 . S
Zn96 O114 1.953 . S
Zn97 O94 1.945 . S
Zn97 O99 1.932 . S
Zn97 O106 1.977 . S
Zn97 O107 1.910 . S
O98 Zn95 1.933 . S
O98 C109 1.226 . S
O99 Zn97 1.932 . S
O99 C109 1.307 . S
O100 Zn93 1.919 . S
O100 C111 1.253 . S
O101 Zn95 1.941 . S
O101 C111 1.283 . S
O102 Zn95 1.965 . S
O102 C110 1.303 . S
O103 Zn96 1.938 . S
O103 C110 1.247 . S
O104 Zn96 1.906 . S
O104 C112 1.304 . S
O105 Zn93 1.924 . S
O105 C113 1.311 . S
O106 Zn97 1.977 . S
O106 C112 1.272 . S
O107 Zn97 1.910 . S
O107 C113 1.231 . S
C108 O92 1.225 . S
C108 O114 1.298 . S
C109 O98 1.226 . S
C109 O99 1.307 . S
C110 O102 1.303 . S
C110 O103 1.247 . S
C111 O100 1.253 . S
C111 O101 1.283 . S
C112 O104 1.304 . S
C112 O106 1.272 . S
C113 O105 1.311 . S
C113 O107 1.231 . S
O114 Zn96 1.953 . S
O114 C108 1.298 . S
O115 Zn116 1.953 1_565 S
O115 C131 1.225 . S
Zn116 O115 1.953 1_545 S
Zn116 O117 1.949 . S
Zn116 O123 1.919 . S
Zn116 O128 1.924 . S
O117 Zn116 1.949 . S
O117 Zn118 1.923 . S
O117 Zn119 1.950 1_545 S
O117 Zn120 1.945 . S
Zn118 O117 1.923 . S
Zn118 O121 1.933 . S
Zn118 O124 1.941 . S
Zn118 O125 1.965 1_545 S
Zn119 O117 1.950 1_565 S
Zn119 O126 1.938 . S
Zn119 O127 1.906 . S
Zn119 O137 1.953 . S
Zn120 O117 1.945 . S
Zn120 O122 1.932 . S
Zn120 O129 1.977 . S
Zn120 O130 1.910 . S
O121 Zn118 1.933 . S
O121 C132 1.226 . S
O122 Zn120 1.932 . S
O122 C132 1.307 . S
O123 Zn116 1.919 . S
O123 C134 1.253 . S
O124 Zn118 1.941 . S
O124 C134 1.283 . S
O125 Zn118 1.965 1_565 S
O125 C133 1.303 . S
O126 Zn119 1.938 . S
O126 C133 1.247 . S
O127 Zn119 1.906 . S
O127 C135 1.304 1_565 S
O128 Zn116 1.924 . S
O128 C136 1.311 . S
O129 Zn120 1.977 . S
O129 C135 1.272 . S
O130 Zn120 1.910 . S
O130 C136 1.231 . S
C131 O115 1.225 . S
C131 O137 1.298 . S
C132 O121 1.226 . S
C132 O122 1.307 . S
C133 O125 1.303 . S
C133 O126 1.247 . S
C134 O123 1.253 . S
C134 O124 1.283 . S
C135 O127 1.304 1_545 S
C135 O129 1.272 . S
C136 O128 1.311 . S
C136 O130 1.231 . S
O137 Zn119 1.953 . S
O137 C131 1.298 . S
O138 Zn139 1.953 . S
O138 C154 1.225 . S
Zn139 O138 1.953 . S
Zn139 O140 1.949 . S
Zn139 O146 1.919 . S
Zn139 O151 1.924 . S
O140 Zn139 1.949 . S
O140 Zn141 1.923 . S
O140 Zn142 1.950 . S
O140 Zn143 1.945 . S
Zn141 O140 1.923 . S
Zn141 O144 1.933 . S
Zn141 O147 1.941 . S
Zn141 O148 1.965 . S
Zn142 O140 1.950 . S
Zn142 O149 1.938 . S
Zn142 O150 1.906 . S
Zn142 O160 1.953 . S
Zn143 O140 1.945 . S
Zn143 O145 1.932 . S
Zn143 O152 1.977 . S
Zn143 O153 1.910 . S
O144 Zn141 1.933 . S
O144 C155 1.226 1_455 S
O145 Zn143 1.932 . S
O145 C155 1.307 1_455 S
O146 Zn139 1.919 . S
O146 C157 1.253 . S
O147 Zn141 1.941 . S
O147 C157 1.283 . S
O148 Zn141 1.965 . S
O148 C156 1.303 . S
O149 Zn142 1.938 . S
O149 C156 1.247 . S
O150 Zn142 1.906 . S
O150 C158 1.304 . S
O151 Zn139 1.924 . S
O151 C159 1.311 . S
O152 Zn143 1.977 . S
O152 C158 1.272 . S
O153 Zn143 1.910 . S
O153 C159 1.231 . S
C154 O138 1.225 . S
C154 O160 1.298 . S
C155 O144 1.226 1_655 S
C155 O145 1.307 1_655 S
C156 O148 1.303 . S
C156 O149 1.247 . S
C157 O146 1.253 . S
C157 O147 1.283 . S
C158 O150 1.304 . S
C158 O152 1.272 . S
C159 O151 1.311 . S
C159 O153 1.231 . S
O160 Zn142 1.953 . S
O160 C154 1.298 . S
O161 Zn162 1.953 . S
O161 C177 1.225 . S
Zn162 O161 1.953 . S
Zn162 O163 1.949 . S
Zn162 O169 1.919 . S
Zn162 O174 1.924 . S
O163 Zn162 1.949 . S
O163 Zn164 1.923 . S
O163 Zn165 1.950 . S
O163 Zn166 1.945 . S
Zn164 O163 1.923 . S
Zn164 O167 1.933 . S
Zn164 O170 1.941 . S
Zn164 O171 1.965 . S
Zn165 O163 1.950 . S
Zn165 O172 1.938 . S
Zn165 O173 1.906 . S
Zn165 O183 1.953 . S
Zn166 O163 1.945 . S
Zn166 O168 1.932 . S
Zn166 O175 1.977 . S
Zn166 O176 1.910 . S
O167 Zn164 1.933 . S
O167 C178 1.226 . S
O168 Zn166 1.932 . S
O168 C178 1.307 . S
O169 Zn162 1.919 . S
O169 C180 1.253 . S
O170 Zn164 1.941 . S
O170 C180 1.283 . S
O171 Zn164 1.965 . S
O171 C179 1.303 . S
O172 Zn165 1.938 . S
O172 C179 1.247 . S
O173 Zn165 1.906 . S
O173 C181 1.304 . S
O174 Zn162 1.924 . S
O174 C182 1.311 . S
O175 Zn166 1.977 . S
O175 C181 1.272 . S
O176 Zn166 1.910 . S
O176 C182 1.231 . S
C177 O161 1.225 . S
C177 O183 1.298 . S
C178 O167 1.226 . S
C178 O168 1.307 . S
C179 O171 1.303 . S
C179 O172 1.247 . S
C180 O169 1.253 . S
C180 O170 1.283 . S
C181 O173 1.304 . S
C181 O175 1.272 . S
C182 O174 1.311 . S
C182 O176 1.231 . S
O183 Zn165 1.953 . S
O183 C177 1.298 . S
O184 Zn185 1.953 . S
O184 C200 1.225 . S
Zn185 O184 1.953 . S
Zn185 O186 1.949 . S
Zn185 O192 1.919 . S
Zn185 O197 1.924 . S
O186 Zn185 1.949 . S
O186 Zn187 1.923 . S
O186 Zn188 1.950 . S
O186 Zn189 1.945 . S
Zn187 O186 1.923 . S
Zn187 O190 1.933 1_565 S
Zn187 O193 1.941 . S
Zn187 O194 1.965 . S
Zn188 O186 1.950 . S
Zn188 O195 1.938 . S
Zn188 O196 1.906 . S
Zn188 O206 1.953 . S
Zn189 O186 1.945 . S
Zn189 O191 1.932 . S
Zn189 O198 1.977 . S
Zn189 O199 1.910 . S
O190 Zn187 1.933 1_545 S
O190 C201 1.226 . S
O191 Zn189 1.932 . S
O191 C201 1.307 1_565 S
O192 Zn185 1.919 . S
O192 C203 1.253 . S
O193 Zn187 1.941 . S
O193 C203 1.283 . S
O194 Zn187 1.965 . S
O194 C202 1.303 . S
O195 Zn188 1.938 . S
O195 C202 1.247 . S
O196 Zn188 1.906 . S
O196 C204 1.304 . S
O197 Zn185 1.924 . S
O197 C205 1.311 . S
O198 Zn189 1.977 . S
O198 C204 1.272 . S
O199 Zn189 1.910 . S
O199 C205 1.231 . S
C200 O184 1.225 . S
C200 O206 1.298 . S
C201 O190 1.226 . S
C201 O191 1.307 1_545 S
C202 O194 1.303 . S
C202 O195 1.247 . S
C203 O192 1.253 . S
C203 O193 1.283 . S
C204 O196 1.304 . S
C204 O198 1.272 . S
C205 O197 1.311 . S
C205 O199 1.231 . S
O206 Zn188 1.953 . S
O206 C200 1.298 . S
O207 Zn208 1.953 . S
O207 C223 1.225 . S
Zn208 O207 1.953 . S
Zn208 O209 1.949 . S
Zn208 O215 1.919 . S
Zn208 O220 1.924 . S
O209 Zn208 1.949 . S
O209 Zn210 1.923 . S
O209 Zn211 1.950 . S
O209 Zn212 1.945 . S
Zn210 O209 1.923 . S
Zn210 O213 1.933 . S
Zn210 O216 1.941 . S
Zn210 O217 1.965 . S
Zn211 O209 1.950 . S
Zn211 O218 1.938 . S
Zn211 O219 1.906 . S
Zn211 O229 1.953 . S
Zn212 O209 1.945 . S
Zn212 O214 1.932 . S
Zn212 O221 1.977 . S
Zn212 O222 1.910 . S
O213 Zn210 1.933 . S
O213 C224 1.226 . S
O214 Zn212 1.932 . S
O214 C224 1.307 . S
O215 Zn208 1.919 . S
O215 C226 1.253 . S
O216 Zn210 1.941 . S
O216 C226 1.283 . S
O217 Zn210 1.965 . S
O217 C225 1.303 . S
O218 Zn211 1.938 . S
O218 C225 1.247 . S
O219 Zn211 1.906 . S
O219 C227 1.304 . S
O220 Zn208 1.924 . S
O220 C228 1.311 . S
O221 Zn212 1.977 . S
O221 C227 1.272 . S
O222 Zn212 1.910 . S
O222 C228 1.231 . S
C223 O207 1.225 . S
C223 O229 1.298 . S
C224 O213 1.226 . S
C224 O214 1.307 . S
C225 O217 1.303 . S
C225 O218 1.247 . S
C226 O215 1.253 . S
C226 O216 1.283 . S
C227 O219 1.304 . S
C227 O221 1.272 . S
C228 O220 1.311 . S
C228 O222 1.231 . S
O229 Zn211 1.953 . S
O229 C223 1.298 . S
O230 Zn231 1.953 . S
O230 C246 1.225 . S
Zn231 O230 1.953 . S
Zn231 O232 1.949 . S
Zn231 O238 1.919 . S
Zn231 O243 1.924 . S
O232 Zn231 1.949 . S
O232 Zn233 1.923 . S
O232 Zn234 1.950 . S
O232 Zn235 1.945 . S
Zn233 O232 1.923 . S
Zn233 O236 1.933 . S
Zn233 O239 1.941 . S
Zn233 O240 1.965 1_565 S
Zn234 O232 1.950 . S
Zn234 O241 1.938 . S
Zn234 O242 1.906 . S
Zn234 O252 1.953 . S
Zn235 O232 1.945 . S
Zn235 O237 1.932 . S
Zn235 O244 1.977 . S
Zn235 O245 1.910 . S
O236 Zn233 1.933 . S
O236 C247 1.226 . S
O237 Zn235 1.932 . S
O237 C247 1.307 . S
O238 Zn231 1.919 . S
O238 C249 1.253 . S
O239 Zn233 1.941 . S
O239 C249 1.283 . S
O240 Zn233 1.965 1_545 S
O240 C248 1.303 . S
O241 Zn234 1.938 . S
O241 C248 1.247 1_565 S
O242 Zn234 1.906 . S
O242 C250 1.304 . S
O243 Zn231 1.924 . S
O243 C251 1.311 . S
O244 Zn235 1.977 . S
O244 C250 1.272 . S
O245 Zn235 1.910 . S
O245 C251 1.231 . S
C246 O230 1.225 . S
C246 O252 1.298 . S
C247 O236 1.226 . S
C247 O237 1.307 . S
C248 O240 1.303 . S
C248 O241 1.247 1_545 S
C249 O238 1.253 . S
C249 O239 1.283 . S
C250 O242 1.304 . S
C250 O244 1.272 . S
C251 O243 1.311 . S
C251 O245 1.231 . S
O252 Zn234 1.953 . S
O252 C246 1.298 . S
O253 Zn254 1.953 . S
O253 C269 1.225 . S
Zn254 O253 1.953 . S
Zn254 O255 1.949 . S
Zn254 O261 1.919 . S
Zn254 O266 1.924 . S
O255 Zn254 1.949 . S
O255 Zn256 1.923 . S
O255 Zn257 1.950 . S
O255 Zn258 1.945 . S
Zn256 O255 1.923 . S
Zn256 O259 1.933 . S
Zn256 O262 1.941 . S
Zn256 O263 1.965 . S
Zn257 O255 1.950 . S
Zn257 O264 1.938 . S
Zn257 O265 1.906 . S
Zn257 O275 1.953 . S
Zn258 O255 1.945 . S
Zn258 O260 1.932 . S
Zn258 O267 1.977 . S
Zn258 O268 1.910 . S
O259 Zn256 1.933 . S
O259 C270 1.226 . S
O260 Zn258 1.932 . S
O260 C270 1.307 . S
O261 Zn254 1.919 . S
O261 C272 1.253 . S
O262 Zn256 1.941 . S
O262 C272 1.283 . S
O263 Zn256 1.965 . S
O263 C271 1.303 . S
O264 Zn257 1.938 . S
O264 C271 1.247 . S
O265 Zn257 1.906 . S
O265 C273 1.304 . S
O266 Zn254 1.924 . S
O266 C274 1.311 . S
O267 Zn258 1.977 . S
O267 C273 1.272 . S
O268 Zn258 1.910 . S
O268 C274 1.231 . S
C269 O253 1.225 . S
C269 O275 1.298 . S
C270 O259 1.226 . S
C270 O260 1.307 . S
C271 O263 1.303 . S
C271 O264 1.247 . S
C272 O261 1.253 . S
C272 O262 1.283 . S
C273 O265 1.304 . S
C273 O267 1.272 . S
C274 O266 1.311 . S
C274 O268 1.231 . S
O275 Zn257 1.953 . S
O275 C269 1.298 . S
O276 Zn277 1.953 . S
O276 C292 1.225 . S
Zn277 O276 1.953 . S
Zn277 O278 1.949 . S
Zn277 O284 1.919 . S
Zn277 O289 1.924 . S
O278 Zn277 1.949 . S
O278 Zn279 1.923 . S
O278 Zn280 1.950 . S
O278 Zn281 1.945 . S
Zn279 O278 1.923 . S
Zn279 O282 1.933 . S
Zn279 O285 1.941 . S
Zn279 O286 1.965 . S
Zn280 O278 1.950 . S
Zn280 O287 1.938 . S
Zn280 O288 1.906 . S
Zn280 O298 1.953 . S
Zn281 O278 1.945 . S
Zn281 O283 1.932 . S
Zn281 O290 1.977 . S
Zn281 O291 1.910 . S
O282 Zn279 1.933 . S
O282 C293 1.226 . S
O283 Zn281 1.932 . S
O283 C293 1.307 . S
O284 Zn277 1.919 . S
O284 C295 1.253 . S
O285 Zn279 1.941 . S
O285 C295 1.283 . S
O286 Zn279 1.965 . S
O286 C294 1.303 . S
O287 Zn280 1.938 . S
O287 C294 1.247 . S
O288 Zn280 1.906 . S
O288 C296 1.304 . S
O289 Zn277 1.924 . S
O289 C297 1.311 . S
O290 Zn281 1.977 . S
O290 C296 1.272 . S
O291 Zn281 1.910 . S
O291 C297 1.231 . S
C292 O276 1.225 . S
C292 O298 1.298 . S
C293 O282 1.226 . S
C293 O283 1.307 . S
C294 O286 1.303 . S
C294 O287 1.247 . S
C295 O284 1.253 . S
C295 O285 1.283 . S
C296 O288 1.304 . S
C296 O290 1.272 . S
C297 O289 1.311 . S
C297 O291 1.231 . S
O298 Zn280 1.953 . S
O298 C292 1.298 . S
O299 Zn300 1.953 . S
O299 C315 1.225 . S
Zn300 O299 1.953 . S
Zn300 O301 1.949 . S
Zn300 O307 1.919 . S
Zn300 O312 1.924 . S
O301 Zn300 1.949 . S
O301 Zn302 1.923 . S
O301 Zn303 1.950 . S
O301 Zn304 1.945 . S
Zn302 O301 1.923 . S
Zn302 O305 1.933 . S
Zn302 O308 1.941 . S
Zn302 O309 1.965 . S
Zn303 O301 1.950 . S
Zn303 O310 1.938 . S
Zn303 O311 1.906 . S
Zn303 O321 1.953 . S
Zn304 O301 1.945 . S
Zn304 O306 1.932 . S
Zn304 O313 1.977 . S
Zn304 O314 1.910 . S
O305 Zn302 1.933 . S
O305 C316 1.226 . S
O306 Zn304 1.932 . S
O306 C316 1.307 . S
O307 Zn300 1.919 . S
O307 C318 1.253 . S
O308 Zn302 1.941 . S
O308 C318 1.283 . S
O309 Zn302 1.965 . S
O309 C317 1.303 . S
O310 Zn303 1.938 . S
O310 C317 1.247 . S
O311 Zn303 1.906 . S
O311 C319 1.304 . S
O312 Zn300 1.924 . S
O312 C320 1.311 . S
O313 Zn304 1.977 . S
O313 C319 1.272 . S
O314 Zn304 1.910 . S
O314 C320 1.231 . S
C315 O299 1.225 . S
C315 O321 1.298 . S
C316 O305 1.226 . S
C316 O306 1.307 . S
C317 O309 1.303 . S
C317 O310 1.247 . S
C318 O307 1.253 . S
C318 O308 1.283 . S
C319 O311 1.304 . S
C319 O313 1.272 . S
C320 O312 1.311 . S
C320 O314 1.231 . S
O321 Zn303 1.953 . S
O321 C315 1.298 . S
O322 Zn323 1.953 . S
O322 C338 1.225 . S
Zn323 O322 1.953 . S
Zn323 O324 1.949 . S
Zn323 O330 1.919 . S
Zn323 O335 1.924 . S
O324 Zn323 1.949 . S
O324 Zn325 1.923 . S
O324 Zn326 1.950 . S
O324 Zn327 1.945 . S
Zn325 O324 1.923 . S
Zn325 O328 1.933 . S
Zn325 O331 1.941 . S
Zn325 O332 1.965 1_655 S
Zn326 O324 1.950 . S
Zn326 O333 1.938 . S
Zn326 O334 1.906 . S
Zn326 O344 1.953 . S
Zn327 O324 1.945 . S
Zn327 O329 1.932 . S
Zn327 O336 1.977 . S
Zn327 O337 1.910 . S
O328 Zn325 1.933 . S
O328 C339 1.226 . S
O329 Zn327 1.932 . S
O329 C339 1.307 . S
O330 Zn323 1.919 . S
O330 C341 1.253 . S
O331 Zn325 1.941 . S
O331 C341 1.283 . S
O332 Zn325 1.965 1_455 S
O332 C340 1.303 . S
O333 Zn326 1.938 . S
O333 C340 1.247 1_655 S
O334 Zn326 1.906 . S
O334 C342 1.304 . S
O335 Zn323 1.924 . S
O335 C343 1.311 . S
O336 Zn327 1.977 . S
O336 C342 1.272 . S
O337 Zn327 1.910 . S
O337 C343 1.231 . S
C338 O322 1.225 . S
C338 O344 1.298 . S
C339 O328 1.226 . S
C339 O329 1.307 . S
C340 O332 1.303 . S
C340 O333 1.247 1_455 S
C341 O330 1.253 . S
C341 O331 1.283 . S
C342 O334 1.304 . S
C342 O336 1.272 . S
C343 O335 1.311 . S
C343 O337 1.231 . S
O344 Zn326 1.953 . S
O344 C338 1.298 . S
O345 Zn346 1.953 . S
O345 C361 1.225 . S
Zn346 O345 1.953 . S
Zn346 O347 1.949 . S
Zn346 O353 1.919 . S
Zn346 O358 1.924 . S
O347 Zn346 1.949 . S
O347 Zn348 1.923 . S
O347 Zn349 1.950 . S
O347 Zn350 1.945 . S
Zn348 O347 1.923 . S
Zn348 O351 1.933 . S
Zn348 O354 1.941 . S
Zn348 O355 1.965 . S
Zn349 O347 1.950 . S
Zn349 O356 1.938 . S
Zn349 O357 1.906 . S
Zn349 O367 1.953 . S
Zn350 O347 1.945 . S
Zn350 O352 1.932 . S
Zn350 O359 1.977 . S
Zn350 O360 1.910 . S
O351 Zn348 1.933 . S
O351 C362 1.226 1_545 S
O352 Zn350 1.932 . S
O352 C362 1.307 1_545 S
O353 Zn346 1.919 . S
O353 C364 1.253 . S
O354 Zn348 1.941 . S
O354 C364 1.283 . S
O355 Zn348 1.965 . S
O355 C363 1.303 . S
O356 Zn349 1.938 . S
O356 C363 1.247 . S
O357 Zn349 1.906 . S
O357 C365 1.304 . S
O358 Zn346 1.924 . S
O358 C366 1.311 . S
O359 Zn350 1.977 . S
O359 C365 1.272 . S
O360 Zn350 1.910 . S
O360 C366 1.231 . S
C361 O345 1.225 . S
C361 O367 1.298 . S
C362 O351 1.226 1_565 S
C362 O352 1.307 1_565 S
C363 O355 1.303 . S
C363 O356 1.247 . S
C364 O353 1.253 . S
C364 O354 1.283 . S
C365 O357 1.304 . S
C365 O359 1.272 . S
C366 O358 1.311 . S
C366 O360 1.231 . S
O367 Zn349 1.953 . S
O367 C361 1.298 . S
O368 Zn369 1.953 . S
O368 C384 1.225 . S
Zn369 O368 1.953 . S
Zn369 O370 1.949 . S
Zn369 O376 1.919 . S
Zn369 O381 1.924 . S
O370 Zn369 1.949 . S
O370 Zn371 1.923 . S
O370 Zn372 1.950 . S
O370 Zn373 1.945 . S
Zn371 O370 1.923 . S
Zn371 O374 1.933 1_655 S
Zn371 O377 1.941 . S
Zn371 O378 1.965 . S
Zn372 O370 1.950 . S
Zn372 O379 1.938 . S
Zn372 O380 1.906 . S
Zn372 O390 1.953 . S
Zn373 O370 1.945 . S
Zn373 O375 1.932 . S
Zn373 O382 1.977 . S
Zn373 O383 1.910 . S
O374 Zn371 1.933 1_455 S
O374 C385 1.226 . S
O375 Zn373 1.932 . S
O375 C385 1.307 1_655 S
O376 Zn369 1.919 . S
O376 C387 1.253 . S
O377 Zn371 1.941 . S
O377 C387 1.283 . S
O378 Zn371 1.965 . S
O378 C386 1.303 . S
O379 Zn372 1.938 . S
O379 C386 1.247 . S
O380 Zn372 1.906 . S
O380 C388 1.304 . S
O381 Zn369 1.924 . S
O381 C389 1.311 . S
O382 Zn373 1.977 . S
O382 C388 1.272 . S
O383 Zn373 1.910 . S
O383 C389 1.231 . S
C384 O368 1.225 . S
C384 O390 1.298 . S
C385 O374 1.226 . S
C385 O375 1.307 1_455 S
C386 O378 1.303 . S
C386 O379 1.247 . S
C387 O376 1.253 . S
C387 O377 1.283 . S
C388 O380 1.304 . S
C388 O382 1.272 . S
C389 O381 1.311 . S
C389 O383 1.231 . S
O390 Zn372 1.953 . S
O390 C384 1.298 . S
O391 Zn392 1.953 . S
O391 C407 1.225 . S
Zn392 O391 1.953 . S
Zn392 O393 1.949 . S
Zn392 O399 1.919 . S
Zn392 O404 1.924 . S
O393 Zn392 1.949 . S
O393 Zn394 1.923 . S
O393 Zn395 1.950 . S
O393 Zn396 1.945 . S
Zn394 O393 1.923 . S
Zn394 O397 1.933 . S
Zn394 O400 1.941 . S
Zn394 O401 1.965 . S
Zn395 O393 1.950 . S
Zn395 O402 1.938 . S
Zn395 O403 1.906 . S
Zn395 O413 1.953 . S
Zn396 O393 1.945 . S
Zn396 O398 1.932 . S
Zn396 O405 1.977 . S
Zn396 O406 1.910 . S
O397 Zn394 1.933 . S
O397 C408 1.226 . S
O398 Zn396 1.932 . S
O398 C408 1.307 . S
O399 Zn392 1.919 . S
O399 C410 1.253 . S
O400 Zn394 1.941 . S
O400 C410 1.283 . S
O401 Zn394 1.965 . S
O401 C409 1.303 . S
O402 Zn395 1.938 . S
O402 C409 1.247 . S
O403 Zn395 1.906 . S
O403 C411 1.304 . S
O404 Zn392 1.924 . S
O404 C412 1.311 . S
O405 Zn396 1.977 . S
O405 C411 1.272 . S
O406 Zn396 1.910 . S
O406 C412 1.231 . S
C407 O391 1.225 . S
C407 O413 1.298 . S
C408 O397 1.226 . S
C408 O398 1.307 . S
C409 O401 1.303 . S
C409 O402 1.247 . S
C410 O399 1.253 . S
C410 O400 1.283 . S
C411 O403 1.304 . S
C411 O405 1.272 . S
C412 O404 1.311 . S
C412 O406 1.231 . S
O413 Zn395 1.953 . S
O413 C407 1.298 . S
H414 C422 0.950 . S
H415 C427 0.950 . S
H416 C424 0.950 . S
H417 C426 0.950 . S
H418 C428 0.950 . S
H419 C430 0.950 . S
H420 C432 0.950 . S
H421 C433 0.950 . S
C422 H414 0.950 . S
C422 C423 1.386 . S
C422 C424 1.391 . S
C423 C422 1.386 . S
C423 C427 1.393 . S
C424 H416 0.950 . S
C424 C422 1.391 . S
C424 C425 1.400 . S
C425 C424 1.400 . S
C425 C426 1.398 . S
C425 C431 1.491 . S
C426 H417 0.950 . S
C426 C425 1.398 . S
C426 C427 1.391 . S
C427 H415 0.950 . S
C427 C423 1.393 . S
C427 C426 1.391 . S
C428 H418 0.950 . S
C428 C429 1.386 . S
C428 C430 1.391 . S
C429 C428 1.386 . S
C429 C433 1.393 . S
C430 H419 0.950 . S
C430 C428 1.391 . S
C430 C431 1.400 . S
C431 C425 1.491 . S
C431 C430 1.400 . S
C431 C432 1.398 . S
C432 H420 0.950 . S
C432 C431 1.398 . S
C432 C433 1.391 . S
C433 H421 0.950 . S
C433 C429 1.393 . S
C433 C432 1.391 . S
H434 C442 0.950 . S
H435 C447 0.950 . S
H436 C444 0.950 . S
H437 C446 0.950 . S
H438 C448 0.950 . S
H439 C450 0.950 . S
H440 C452 0.950 . S
H441 C453 0.950 . S
C442 H434 0.950 . S
C442 C443 1.386 . S
C442 C444 1.391 . S
C443 C442 1.386 . S
C443 C447 1.393 . S
C444 H436 0.950 . S
C444 C442 1.391 . S
C444 C445 1.400 . S
C445 C444 1.400 . S
C445 C446 1.398 . S
C445 C451 1.491 . S
C446 H437 0.950 . S
C446 C445 1.398 . S
C446 C447 1.391 . S
C447 H435 0.950 . S
C447 C443 1.393 . S
C447 C446 1.391 . S
C448 H438 0.950 . S
C448 C449 1.386 . S
C448 C450 1.391 . S
C449 C448 1.386 . S
C449 C453 1.393 . S
C450 H439 0.950 . S
C450 C448 1.391 . S
C450 C451 1.400 . S
C451 C445 1.491 . S
C451 C450 1.400 . S
C451 C452 1.398 . S
C452 H440 0.950 . S
C452 C451 1.398 . S
C452 C453 1.391 . S
C453 H441 0.950 . S
C453 C449 1.393 . S
C453 C452 1.391 . S
H454 C462 0.950 . S
H455 C467 0.950 . S
H456 C464 0.950 . S
H457 C466 0.950 . S
H458 C468 0.950 . S
H459 C470 0.950 . S
H460 C472 0.950 . S
H461 C473 0.950 . S
C462 H454 0.950 . S
C462 C463 1.386 . S
C462 C464 1.391 . S
C463 C462 1.386 . S
C463 C467 1.393 . S
C464 H456 0.950 . S
C464 C462 1.391 . S
C464 C465 1.400 . S
C465 C464 1.400 . S
C465 C466 1.398 . S
C465 C471 1.491 . S
C466 H457 0.950 . S
C466 C465 1.398 . S
C466 C467 1.391 . S
C467 H455 0.950 . S
C467 C463 1.393 . S
C467 C466 1.391 . S
C468 H458 0.950 . S
C468 C469 1.386 . S
C468 C470 1.391 . S
C469 C468 1.386 . S
C469 C473 1.393 . S
C470 H459 0.950 . S
C470 C468 1.391 . S
C470 C471 1.400 . S
C471 C465 1.491 . S
C471 C470 1.400 . S
C471 C472 1.398 . S
C472 H460 0.950 . S
C472 C471 1.398 . S
C472 C473 1.391 . S
C473 H461 0.950 . S
C473 C469 1.393 . S
C473 C472 1.391 . S
H474 C482 0.950 . S
H475 C487 0.950 . S
H476 C484 0.950 . S
H477 C486 0.950 . S
H478 C488 0.950 . S
H479 C490 0.950 . S
H480 C492 0.950 . S
H481 C493 0.950 . S
C482 H474 0.950 . S
C482 C483 1.386 . S
C482 C484 1.391 . S
C483 C482 1.386 . S
C483 C487 1.393 . S
C484 H476 0.950 . S
C484 C482 1.391 . S
C484 C485 1.400 . S
C485 C484 1.400 . S
C485 C486 1.398 . S
C485 C491 1.491 . S
C486 H477 0.950 . S
C486 C485 1.398 . S
C486 C487 1.391 . S
C487 H475 0.950 . S
C487 C483 1.393 . S
C487 C486 1.391 . S
C488 H478 0.950 . S
C488 C489 1.386 . S
C488 C490 1.391 . S
C489 C488 1.386 . S
C489 C493 1.393 . S
C490 H479 0.950 . S
C490 C488 1.391 . S
C490 C491 1.400 . S
C491 C485 1.491 . S
C491 C490 1.400 . S
C491 C492 1.398 . S
C492 H480 0.950 . S
C492 C491 1.398 . S
C492 C493 1.391 . S
C493 H481 0.950 . S
C493 C489 1.393 . S
C493 C492 1.391 . S
H494 C502 0.950 . S
H495 C507 0.950 . S
H496 C504 0.950 . S
H497 C506 0.950 . S
H498 C508 0.950 . S
H499 C510 0.950 . S
H500 C512 0.950 . S
H501 C513 0.950 . S
C502 H494 0.950 . S
C502 C503 1.386 . S
C502 C504 1.391 . S
C503 C502 1.386 . S
C503 C507 1.393 . S
C504 H496 0.950 . S
C504 C502 1.391 . S
C504 C505 1.400 . S
C505 C504 1.400 . S
C505 C506 1.398 . S
C505 C511 1.491 . S
C506 H497 0.950 . S
C506 C505 1.398 . S
C506 C507 1.391 . S
C507 H495 0.950 . S
C507 C503 1.393 . S
C507 C506 1.391 . S
C508 H498 0.950 . S
C508 C509 1.386 . S
C508 C510 1.391 . S
C509 C508 1.386 . S
C509 C513 1.393 . S
C510 H499 0.950 . S
C510 C508 1.391 . S
C510 C511 1.400 . S
C511 C505 1.491 . S
C511 C510 1.400 . S
C511 C512 1.398 . S
C512 H500 0.950 . S
C512 C511 1.398 . S
C512 C513 1.391 . S
C513 H501 0.950 . S
C513 C509 1.393 . S
C513 C512 1.391 . S
H514 C522 0.950 . S
H515 C527 0.950 . S
H516 C524 0.950 . S
H517 C526 0.950 . S
H518 C528 0.950 . S
H519 C530 0.950 . S
H520 C532 0.950 . S
H521 C533 0.950 . S
C522 H514 0.950 . S
C522 C523 1.386 . S
C522 C524 1.391 . S
C523 C522 1.386 . S
C523 C527 1.393 . S
C524 H516 0.950 . S
C524 C522 1.391 . S
C524 C525 1.400 . S
C525 C524 1.400 . S
C525 C526 1.398 . S
C525 C531 1.491 . S
C526 H517 0.950 . S
C526 C525 1.398 . S
C526 C527 1.391 . S
C527 H515 0.950 . S
C527 C523 1.393 . S
C527 C526 1.391 . S
C528 H518 0.950 . S
C528 C529 1.386 . S
C528 C530 1.391 . S
C529 C528 1.386 . S
C529 C533 1.393 . S
C530 H519 0.950 . S
C530 C528 1.391 . S
C530 C531 1.400 . S
C531 C525 1.491 . S
C531 C530 1.400 . S
C531 C532 1.398 . S
C532 H520 0.950 . S
C532 C531 1.398 . S
C532 C533 1.391 . S
C533 H521 0.950 . S
C533 C529 1.393 . S
C533 C532 1.391 . S
H534 C542 0.950 . S
H535 C547 0.950 . S
H536 C544 0.950 . S
H537 C546 0.950 . S
H538 C548 0.950 . S
H539 C550 0.950 . S
H540 C552 0.950 . S
H541 C553 0.950 . S
C542 H534 0.950 . S
C542 C543 1.386 . S
C542 C544 1.391 . S
C543 C542 1.386 . S
C543 C547 1.393 . S
C544 H536 0.950 . S
C544 C542 1.391 . S
C544 C545 1.400 . S
C545 C544 1.400 . S
C545 C546 1.398 . S
C545 C551 1.491 . S
C546 H537 0.950 . S
C546 C545 1.398 . S
C546 C547 1.391 . S
C547 H535 0.950 . S
C547 C543 1.393 . S
C547 C546 1.391 . S
C548 H538 0.950 . S
C548 C549 1.386 . S
C548 C550 1.391 . S
C549 C548 1.386 . S
C549 C553 1.393 . S
C550 H539 0.950 . S
C550 C548 1.391 . S
C550 C551 1.400 . S
C551 C545 1.491 . S
C551 C550 1.400 . S
C551 C552 1.398 . S
C552 H540 0.950 . S
C552 C551 1.398 . S
C552 C553 1.391 . S
C553 H541 0.950 . S
C553 C549 1.393 . S
C553 C552 1.391 . S
H554 C562 0.950 . S
H555 C567 0.950 . S
H556 C564 0.950 . S
H557 C566 0.950 . S
H558 C568 0.950 . S
H559 C570 0.950 . S
H560 C572 0.950 . S
H561 C573 0.950 . S
C562 H554 0.950 . S
C562 C563 1.386 . S
C562 C564 1.391 . S
C563 C562 1.386 . S
C563 C567 1.393 . S
C564 H556 0.950 . S
C564 C562 1.391 . S
C564 C565 1.400 . S
C565 C564 1.400 . S
C565 C566 1.398 . S
C565 C571 1.491 . S
C566 H557 0.950 . S
C566 C565 1.398 . S
C566 C567 1.391 . S
C567 H555 0.950 . S
C567 C563 1.393 . S
C567 C566 1.391 . S
C568 H558 0.950 . S
C568 C569 1.386 . S
C568 C570 1.391 1_565 S
C569 C568 1.386 . S
C569 C573 1.393 . S
C570 H559 0.950 . S
C570 C568 1.391 1_545 S
C570 C571 1.400 . S
C571 C565 1.491 . S
C571 C570 1.400 . S
C571 C572 1.398 . S
C572 H560 0.950 . S
C572 C571 1.398 . S
C572 C573 1.391 1_545 S
C573 H561 0.950 . S
C573 C569 1.393 . S
C573 C572 1.391 1_565 S
H574 C582 0.950 . S
H575 C587 0.950 . S
H576 C584 0.950 . S
H577 C586 0.950 . S
H578 C588 0.950 . S
H579 C590 0.950 . S
H580 C592 0.950 . S
H581 C593 0.950 . S
C582 H574 0.950 . S
C582 C583 1.386 . S
C582 C584 1.391 1_455 S
C583 C582 1.386 . S
C583 C587 1.393 . S
C584 H576 0.950 . S
C584 C582 1.391 1_655 S
C584 C585 1.400 . S
C585 C584 1.400 . S
C585 C586 1.398 . S
C585 C591 1.491 . S
C586 H577 0.950 . S
C586 C585 1.398 . S
C586 C587 1.391 1_655 S
C587 H575 0.950 . S
C587 C583 1.393 . S
C587 C586 1.391 1_455 S
C588 H578 0.950 . S
C588 C589 1.386 . S
C588 C590 1.391 . S
C589 C588 1.386 . S
C589 C593 1.393 . S
C590 H579 0.950 . S
C590 C588 1.391 . S
C590 C591 1.400 . S
C591 C585 1.491 . S
C591 C590 1.400 . S
C591 C592 1.398 . S
C592 H580 0.950 . S
C592 C591 1.398 . S
C592 C593 1.391 . S
C593 H581 0.950 . S
C593 C589 1.393 . S
C593 C592 1.391 . S
H594 C602 0.950 . S
H595 C607 0.950 . S
H596 C604 0.950 . S
H597 C606 0.950 . S
H598 C608 0.950 . S
H599 C610 0.950 . S
H600 C612 0.950 . S
H601 C613 0.950 . S
C602 H594 0.950 . S
C602 C603 1.386 . S
C602 C604 1.391 . S
C603 C602 1.386 . S
C603 C607 1.393 . S
C604 H596 0.950 . S
C604 C602 1.391 . S
C604 C605 1.400 . S
C605 C604 1.400 . S
C605 C606 1.398 . S
C605 C611 1.491 . S
C606 H597 0.950 . S
C606 C605 1.398 . S
C606 C607 1.391 . S
C607 H595 0.950 . S
C607 C603 1.393 . S
C607 C606 1.391 . S
C608 H598 0.950 . S
C608 C609 1.386 . S
C608 C610 1.391 . S
C609 C608 1.386 . S
C609 C613 1.393 . S
C610 H599 0.950 . S
C610 C608 1.391 . S
C610 C611 1.400 . S
C611 C605 1.491 . S
C611 C610 1.400 . S
C611 C612 1.398 . S
C612 H600 0.950 . S
C612 C611 1.398 . S
C612 C613 1.391 . S
C613 H601 0.950 . S
C613 C609 1.393 . S
C613 C612 1.391 . S
H614 C622 0.950 . S
H615 C627 0.950 . S
H616 C624 0.950 . S
H617 C626 0.950 . S
H618 C628 0.950 . S
H619 C630 0.950 . S
H620 C632 0.950 . S
H621 C633 0.950 . S
C622 H614 0.950 . S
C622 C623 1.386 . S
C622 C624 1.391 . S
C623 C622 1.386 . S
C623 C627 1.393 . S
C624 H616 0.950 . S
C624 C622 1.391 . S
C624 C625 1.400 . S
C625 C624 1.400 . S
C625 C626 1.398 . S
C625 C631 1.491 . S
C626 H617 0.950 . S
C626 C625 1.398 . S
C626 C627 1.391 . S
C627 H615 0.950 . S
C627 C623 1.393 . S
C627 C626 1.391 . S
C628 H618 0.950 . S
C628 C629 1.386 . S
C628 C630 1.391 . S
C629 C628 1.386 . S
C629 C633 1.393 . S
C630 H619 0.950 . S
C630 C628 1.391 . S
C630 C631 1.400 . S
C631 C625 1.491 . S
C631 C630 1.400 . S
C631 C632 1.398 . S
C632 H620 0.950 . S
C632 C631 1.398 . S
C632 C633 1.391 . S
C633 H621 0.950 . S
C633 C629 1.393 . S
C633 C632 1.391 . S
H634 C642 0.950 . S
H635 C647 0.950 . S
H636 C644 0.950 . S
H637 C646 0.950 . S
H638 C648 0.950 . S
H639 C650 0.950 . S
H640 C652 0.950 . S
H641 C653 0.950 . S
C642 H634 0.950 . S
C642 C643 1.386 . S
C642 C644 1.391 . S
C643 C642 1.386 . S
C643 C647 1.393 . S
C644 H636 0.950 . S
C644 C642 1.391 . S
C644 C645 1.400 . S
C645 C644 1.400 . S
C645 C646 1.398 . S
C645 C651 1.491 . S
C646 H637 0.950 . S
C646 C645 1.398 . S
C646 C647 1.391 . S
C647 H635 0.950 . S
C647 C643 1.393 . S
C647 C646 1.391 . S
C648 H638 0.950 . S
C648 C649 1.386 . S
C648 C650 1.391 . S
C649 C648 1.386 . S
C649 C653 1.393 . S
C650 H639 0.950 . S
C650 C648 1.391 . S
C650 C651 1.400 . S
C651 C645 1.491 . S
C651 C650 1.400 . S
C651 C652 1.398 . S
C652 H640 0.950 . S
C652 C651 1.398 . S
C652 C653 1.391 . S
C653 H641 0.950 . S
C653 C649 1.393 . S
C653 C652 1.391 . S
H654 C662 0.950 . S
H655 C667 0.950 . S
H656 C664 0.950 . S
H657 C666 0.950 . S
H658 C668 0.950 . S
H659 C670 0.950 . S
H660 C672 0.950 . S
H661 C673 0.950 . S
C662 H654 0.950 . S
C662 C663 1.386 . S
C662 C664 1.391 . S
C663 C662 1.386 . S
C663 C667 1.393 . S
C664 H656 0.950 . S
C664 C662 1.391 . S
C664 C665 1.400 . S
C665 C664 1.400 . S
C665 C666 1.398 . S
C665 C671 1.491 . S
C666 H657 0.950 . S
C666 C665 1.398 . S
C666 C667 1.391 . S
C667 H655 0.950 . S
C667 C663 1.393 . S
C667 C666 1.391 . S
C668 H658 0.950 . S
C668 C669 1.386 . S
C668 C670 1.391 . S
C669 C668 1.386 . S
C669 C673 1.393 . S
C670 H659 0.950 . S
C670 C668 1.391 . S
C670 C671 1.400 . S
C671 C665 1.491 . S
C671 C670 1.400 . S
C671 C672 1.398 . S
C672 H660 0.950 . S
C672 C671 1.398 . S
C672 C673 1.391 . S
C673 H661 0.950 . S
C673 C669 1.393 . S
C673 C672 1.391 . S
H674 C682 0.950 . S
H675 C687 0.950 . S
H676 C684 0.950 . S
H677 C686 0.950 . S
H678 C688 0.950 . S
H679 C690 0.950 . S
H680 C692 0.950 . S
H681 C693 0.950 . S
C682 H674 0.950 . S
C682 C683 1.386 . S
C682 C684 1.391 . S
C683 C682 1.386 . S
C683 C687 1.393 . S
C684 H676 0.950 . S
C684 C682 1.391 . S
C684 C685 1.400 . S
C685 C684 1.400 . S
C685 C686 1.398 . S
C685 C691 1.491 . S
C686 H677 0.950 . S
C686 C685 1.398 . S
C686 C687 1.391 . S
C687 H675 0.950 . S
C687 C683 1.393 . S
C687 C686 1.391 . S
C688 H678 0.950 . S
C688 C689 1.386 . S
C688 C690 1.391 . S
C689 C688 1.386 . S
C689 C693 1.393 . S
C690 H679 0.950 . S
C690 C688 1.391 . S
C690 C691 1.400 . S
C691 C685 1.491 . S
C691 C690 1.400 . S
C691 C692 1.398 . S
C692 H680 0.950 . S
C692 C691 1.398 . S
C692 C693 1.391 . S
C693 H681 0.950 . S
C693 C689 1.393 . S
C693 C692 1.391 . S
H694 C702 0.950 . S
H695 C707 0.950 . S
H696 C704 0.950 . S
H697 C706 0.950 . S
H698 C708 0.950 . S
H699 C710 0.950 . S
H700 C712 0.950 . S
H701 C713 0.950 . S
C702 H694 0.950 . S
C702 C703 1.386 . S
C702 C704 1.391 . S
C703 C702 1.386 . S
C703 C707 1.393 . S
C704 H696 0.950 . S
C704 C702 1.391 . S
C704 C705 1.400 . S
C705 C704 1.400 . S
C705 C706 1.398 . S
C705 C711 1.491 . S
C706 H697 0.950 . S
C706 C705 1.398 . S
C706 C707 1.391 . S
C707 H695 0.950 . S
C707 C703 1.393 . S
C707 C706 1.391 . S
C708 H698 0.950 . S
C708 C709 1.386 . S
C708 C710 1.391 . S
C709 C708 1.386 . S
C709 C713 1.393 . S
C710 H699 0.950 . S
C710 C708 1.391 . S
C710 C711 1.400 . S
C711 C705 1.491 . S
C711 C710 1.400 . S
C711 C712 1.398 . S
C712 H700 0.950 . S
C712 C711 1.398 . S
C712 C713 1.391 . S
C713 H701 0.950 . S
C713 C709 1.393 . S
C713 C712 1.391 . S
H714 C722 0.950 . S
H715 C727 0.950 . S
H716 C724 0.950 . S
H717 C726 0.950 . S
H718 C728 0.950 . S
H719 C730 0.950 . S
H720 C732 0.950 . S
H721 C733 0.950 . S
C722 H714 0.950 . S
C722 C723 1.386 . S
C722 C724 1.391 . S
C723 C722 1.386 . S
C723 C727 1.393 . S
C724 H716 0.950 . S
C724 C722 1.391 . S
C724 C725 1.400 . S
C725 C724 1.400 . S
C725 C726 1.398 . S
C725 C731 1.491 . S
C726 H717 0.950 . S
C726 C725 1.398 . S
C726 C727 1.391 . S
C727 H715 0.950 . S
C727 C723 1.393 . S
C727 C726 1.391 . S
C728 H718 0.950 . S
C728 C729 1.386 . S
C728 C730 1.391 . S
C729 C728 1.386 . S
C729 C733 1.393 . S
C730 H719 0.950 . S
C730 C728 1.391 . S
C730 C731 1.400 . S
C731 C725 1.491 . S
C731 C730 1.400 . S
C731 C732 1.398 . S
C732 H720 0.950 . S
C732 C731 1.398 . S
C732 C733 1.391 . S
C733 H721 0.950 . S
C733 C729 1.393 . S
C733 C732 1.391 . S
H734 C742 0.950 . S
H735 C747 0.950 . S
H736 C744 0.950 . S
H737 C746 0.950 . S
H738 C748 0.950 . S
H739 C750 0.950 . S
H740 C752 0.950 . S
H741 C753 0.950 . S
C742 H734 0.950 . S
C742 C743 1.386 . S
C742 C744 1.391 . S
C743 C742 1.386 . S
C743 C747 1.393 . S
C744 H736 0.950 . S
C744 C742 1.391 . S
C744 C745 1.400 . S
C745 C744 1.400 . S
C745 C746 1.398 . S
C745 C751 1.491 . S
C746 H737 0.950 . S
C746 C745 1.398 . S
C746 C747 1.391 . S
C747 H735 0.950 . S
C747 C743 1.393 . S
C747 C746 1.391 . S
C748 H738 0.950 . S
C748 C749 1.386 . S
C748 C750 1.391 1_545 S
C749 C748 1.386 . S
C749 C753 1.393 . S
C750 H739 0.950 . S
C750 C748 1.391 1_565 S
C750 C751 1.400 . S
C751 C745 1.491 . S
C751 C750 1.400 . S
C751 C752 1.398 . S
C752 H740 0.950 . S
C752 C751 1.398 . S
C752 C753 1.391 1_565 S
C753 H741 0.950 . S
C753 C749 1.393 . S
C753 C752 1.391 1_545 S
H754 C762 0.950 1_545 S
H755 C767 0.950 . S
H756 C764 0.950 . S
H757 C766 0.950 . S
H758 C768 0.950 . S
H759 C770 0.950 . S
H760 C772 0.950 . S
H761 C773 0.950 . S
C762 H754 0.950 1_565 S
C762 C763 1.386 . S
C762 C764 1.391 . S
C763 C762 1.386 . S
C763 C767 1.393 . S
C764 H756 0.950 . S
C764 C762 1.391 . S
C764 C765 1.400 . S
C765 C764 1.400 . S
C765 C766 1.398 . S
C765 C771 1.491 . S
C766 H757 0.950 . S
C766 C765 1.398 . S
C766 C767 1.391 . S
C767 H755 0.950 . S
C767 C763 1.393 . S
C767 C766 1.391 . S
C768 H758 0.950 . S
C768 C769 1.386 . S
C768 C770 1.391 1_655 S
C769 C768 1.386 . S
C769 C773 1.393 . S
C770 H759 0.950 . S
C770 C768 1.391 1_455 S
C770 C771 1.400 . S
C771 C765 1.491 . S
C771 C770 1.400 . S
C771 C772 1.398 . S
C772 H760 0.950 . S
C772 C771 1.398 . S
C772 C773 1.391 1_455 S
C773 H761 0.950 . S
C773 C769 1.393 . S
C773 C772 1.391 1_655 S
H774 C782 0.950 . S
H775 C787 0.950 . S
H776 C784 0.950 . S
H777 C786 0.950 . S
H778 C788 0.959 . S
H779 C790 0.950 1_565 S
H780 C792 0.950 . S
H781 C793 0.950 . S
C782 H774 0.950 . S
C782 C783 1.386 . S
C782 C784 1.391 . S
C783 C782 1.386 . S
C783 C787 1.393 1_545 S
C784 H776 0.950 . S
C784 C782 1.391 . S
C784 C785 1.400 . S
C785 C784 1.400 . S
C785 C786 1.398 1_545 S
C785 C791 1.491 1_554 S
C786 H777 0.950 . S
C786 C785 1.398 1_565 S
C786 C787 1.391 . S
C787 H775 0.950 . S
C787 C783 1.393 1_565 S
C787 C786 1.391 . S
C788 H778 0.959 . S
C788 C789 1.386 . S
C788 C790 1.391 . S
C789 C788 1.386 . S
C789 C793 1.393 . S
C790 H779 0.950 1_545 S
C790 C788 1.391 . S
C790 C791 1.400 . S
C791 C785 1.491 1_556 S
C791 C790 1.400 . S
C791 C792 1.398 . S
C792 H780 0.950 . S
C792 C791 1.398 . S
C792 C793 1.391 . S
C793 H781 0.950 . S
C793 C789 1.393 . S
C793 C792 1.391 . S
H794 C802 0.950 . S
H795 C807 0.950 . S
H796 C804 0.950 . S
H797 C806 0.950 . S
H798 C808 0.950 . S
H799 C810 0.950 . S
H800 C812 0.950 1_655 S
H801 C813 0.950 . S
C802 H794 0.950 . S
C802 C803 1.386 . S
C802 C804 1.391 . S
C803 C802 1.386 . S
C803 C807 1.393 1_655 S
C804 H796 0.950 . S
C804 C802 1.391 . S
C804 C805 1.400 1_655 S
C805 C804 1.400 1_455 S
C805 C806 1.398 . S
C805 C811 1.491 1_556 S
C806 H797 0.950 . S
C806 C805 1.398 . S
C806 C807 1.391 . S
C807 H795 0.950 . S
C807 C803 1.393 1_455 S
C807 C806 1.391 . S
C808 H798 0.950 . S
C808 C809 1.386 . S
C808 C810 1.391 . S
C809 C808 1.386 . S
C809 C813 1.393 . S
C810 H799 0.950 . S
C810 C808 1.391 . S
C810 C811 1.400 . S
C811 C805 1.491 1_554 S
C811 C810 1.400 . S
C811 C812 1.398 . S
C812 H800 0.950 1_455 S
C812 C811 1.398 . S
C812 C813 1.391 . S
C813 H801 0.950 . S
C813 C809 1.393 . S
C813 C812 1.391 . S
H814 C822 0.950 . S
H815 C827 0.950 . S
H816 C824 0.950 . S
H817 C826 0.950 . S
H818 C828 0.950 . S
H819 C830 0.950 . S
H820 C832 0.950 . S
H821 C833 0.950 . S
C822 H814 0.950 . S
C822 C823 1.386 . S
C822 C824 1.391 . S
C823 C822 1.386 . S
C823 C827 1.393 . S
C824 H816 0.950 . S
C824 C822 1.391 . S
C824 C825 1.400 . S
C825 C824 1.400 . S
C825 C826 1.398 . S
C825 C831 1.491 1_556 S
C826 H817 0.950 . S
C826 C825 1.398 . S
C826 C827 1.391 . S
C827 H815 0.950 . S
C827 C823 1.393 . S
C827 C826 1.391 . S
C828 H818 0.950 . S
C828 C829 1.386 . S
C828 C830 1.391 . S
C829 C828 1.386 . S
C829 C833 1.393 . S
C830 H819 0.950 . S
C830 C828 1.391 . S
C830 C831 1.400 . S
C831 C825 1.491 1_554 S
C831 C830 1.400 . S
C831 C832 1.398 . S
C832 H820 0.950 . S
C832 C831 1.398 . S
C832 C833 1.391 . S
C833 H821 0.950 . S
C833 C829 1.393 . S
C833 C832 1.391 . S
H834 C842 0.950 . S
H835 C847 0.950 . S
H836 C844 0.950 . S
H837 C846 0.950 . S
H838 C848 0.950 . S
H839 C850 0.950 . S
H840 C852 0.950 . S
H841 C853 0.950 . S
C842 H834 0.950 . S
C842 C843 1.386 . S
C842 C844 1.391 . S
C843 C842 1.386 . S
C843 C847 1.393 . S
C844 H836 0.950 . S
C844 C842 1.391 . S
C844 C845 1.400 . S
C845 C844 1.400 . S
C845 C846 1.398 . S
C845 C851 1.491 . S
C846 H837 0.950 . S
C846 C845 1.398 . S
C846 C847 1.391 . S
C847 H835 0.950 . S
C847 C843 1.393 . S
C847 C846 1.391 . S
C848 H838 0.950 . S
C848 C849 1.386 . S
C848 C850 1.391 . S
C849 C848 1.386 . S
C849 C853 1.393 . S
C850 H839 0.950 . S
C850 C848 1.391 . S
C850 C851 1.400 . S
C851 C845 1.491 . S
C851 C850 1.400 . S
C851 C852 1.398 . S
C852 H840 0.950 . S
C852 C851 1.398 . S
C852 C853 1.391 . S
C853 H841 0.950 . S
C853 C849 1.393 . S
C853 C852 1.391 . S
H854 C862 0.950 . S
H855 C867 0.950 . S
H856 C864 0.950 . S
H857 C866 0.950 . S
H858 C868 0.950 . S
H859 C870 0.950 . S
H860 C872 0.950 . S
H861 C873 0.950 . S
C862 H854 0.950 . S
C862 C863 1.386 . S
C862 C864 1.391 . S
C863 C862 1.386 . S
C863 C867 1.393 . S
C864 H856 0.950 . S
C864 C862 1.391 . S
C864 C865 1.400 . S
C865 C864 1.400 . S
C865 C866 1.398 . S
C865 C871 1.491 . S
C866 H857 0.950 . S
C866 C865 1.398 . S
C866 C867 1.391 . S
C867 H855 0.950 . S
C867 C863 1.393 . S
C867 C866 1.391 . S
C868 H858 0.950 . S
C868 C869 1.386 . S
C868 C870 1.391 . S
C869 C868 1.386 . S
C869 C873 1.393 . S
C870 H859 0.950 . S
C870 C868 1.391 . S
C870 C871 1.400 . S
C871 C865 1.491 . S
C871 C870 1.400 . S
C871 C872 1.398 . S
C872 H860 0.950 . S
C872 C871 1.398 . S
C872 C873 1.391 . S
C873 H861 0.950 . S
C873 C869 1.393 . S
C873 C872 1.391 . S
H874 C882 0.950 . S
H875 C887 0.950 . S
H876 C884 0.950 . S
H877 C886 0.950 . S
H878 C888 0.950 . S
H879 C890 0.950 . S
H880 C892 0.950 . S
H881 C893 0.950 . S
C882 H874 0.950 . S
C882 C883 1.386 . S
C882 C884 1.391 . S
C883 C882 1.386 . S
C883 C887 1.393 . S
C884 H876 0.950 . S
C884 C882 1.391 . S
C884 C885 1.400 . S
C885 C884 1.400 . S
C885 C886 1.398 . S
C885 C891 1.491 . S
C886 H877 0.950 . S
C886 C885 1.398 . S
C886 C887 1.391 . S
C887 H875 0.950 . S
C887 C883 1.393 . S
C887 C886 1.391 . S
C888 H878 0.950 . S
C888 C889 1.386 . S
C888 C890 1.391 . S
C889 C888 1.386 . S
C889 C893 1.393 . S
C890 H879 0.950 . S
C890 C888 1.391 . S
C890 C891 1.400 . S
C891 C885 1.491 . S
C891 C890 1.400 . S
C891 C892 1.398 . S
C892 H880 0.950 . S
C892 C891 1.398 . S
C892 C893 1.391 . S
C893 H881 0.950 . S
C893 C889 1.393 . S
C893 C892 1.391 . S
H894 C902 0.950 . S
H895 C907 0.950 . S
H896 C904 0.950 . S
H897 C906 0.950 . S
H898 C908 0.950 . S
H899 C910 0.950 . S
H900 C912 0.950 . S
H901 C913 0.950 . S
C902 H894 0.950 . S
C902 C903 1.386 . S
C902 C904 1.391 . S
C903 C902 1.386 . S
C903 C907 1.393 . S
C904 H896 0.950 . S
C904 C902 1.391 . S
C904 C905 1.400 . S
C905 C904 1.400 . S
C905 C906 1.398 . S
C905 C911 1.491 . S
C906 H897 0.950 . S
C906 C905 1.398 . S
C906 C907 1.391 . S
C907 H895 0.950 . S
C907 C903 1.393 . S
C907 C906 1.391 . S
C908 H898 0.950 . S
C908 C909 1.386 . S
C908 C910 1.391 . S
C909 C908 1.386 . S
C909 C913 1.393 . S
C910 H899 0.950 . S
C910 C908 1.391 . S
C910 C911 1.400 . S
C911 C905 1.491 . S
C911 C910 1.400 . S
C911 C912 1.398 . S
C912 H900 0.950 . S
C912 C911 1.398 . S
C912 C913 1.391 . S
C913 H901 0.950 . S
C913 C909 1.393 . S
C913 C912 1.391 . S
H914 C922 0.950 . S
H915 C927 0.950 . S
H916 C924 0.950 . S
H917 C926 0.950 . S
H918 C928 0.950 . S
H919 C930 0.950 . S
H920 C932 0.950 . S
H921 C933 0.950 . S
C922 H914 0.950 . S
C922 C923 1.386 . S
C922 C924 1.391 . S
C923 C922 1.386 . S
C923 C927 1.393 . S
C924 H916 0.950 . S
C924 C922 1.391 . S
C924 C925 1.400 . S
C925 C924 1.400 . S
C925 C926 1.398 . S
C925 C931 1.491 . S
C926 H917 0.950 . S
C926 C925 1.398 . S
C926 C927 1.391 . S
C927 H915 0.950 . S
C927 C923 1.393 . S
C927 C926 1.391 . S
C928 H918 0.950 . S
C928 C929 1.386 . S
C928 C930 1.391 . S
C929 C928 1.386 . S
C929 C933 1.393 . S
C930 H919 0.950 . S
C930 C928 1.391 . S
C930 C931 1.400 . S
C931 C925 1.491 . S
C931 C930 1.400 . S
C931 C932 1.398 . S
C932 H920 0.950 . S
C932 C931 1.398 . S
C932 C933 1.391 . S
C933 H921 0.950 . S
C933 C929 1.393 . S
C933 C932 1.391 . S
H934 C942 0.950 . S
H935 C947 0.950 . S
H936 C944 0.950 . S
H937 C946 0.950 . S
H938 C948 0.950 . S
H939 C950 0.950 . S
H940 C952 0.950 . S
H941 C953 0.950 . S
C942 H934 0.950 . S
C942 C943 1.386 . S
C942 C944 1.391 . S
C943 C942 1.386 . S
C943 C947 1.393 . S
C944 H936 0.950 . S
C944 C942 1.391 . S
C944 C945 1.400 . S
C945 C944 1.400 . S
C945 C946 1.398 . S
C945 C951 1.491 . S
C946 H937 0.950 . S
C946 C945 1.398 . S
C946 C947 1.391 . S
C947 H935 0.950 . S
C947 C943 1.393 . S
C947 C946 1.391 . S
C948 H938 0.950 . S
C948 C949 1.386 . S
C948 C950 1.391 . S
C949 C948 1.386 . S
C949 C953 1.393 . S
C950 H939 0.950 . S
C950 C948 1.391 . S
C950 C951 1.400 . S
C951 C945 1.491 . S
C951 C950 1.400 . S
C951 C952 1.398 . S
C952 H940 0.950 . S
C952 C951 1.398 . S
C952 C953 1.391 . S
C953 H941 0.950 . S
C953 C949 1.393 . S
C953 C952 1.391 . S
H954 C962 0.950 . S
H955 C967 0.950 . S
H956 C964 0.950 1_545 S
H957 C966 0.950 . S
H958 C968 0.950 . S
H959 C970 0.950 . S
H960 C972 0.929 1_545 S
H961 C973 0.950 . S
C962 H954 0.950 . S
C962 C963 1.386 . S
C962 C964 1.391 . S
C963 C962 1.386 . S
C963 C967 1.393 . S
C964 H956 0.950 1_565 S
C964 C962 1.391 . S
C964 C965 1.400 . S
C965 C964 1.400 . S
C965 C966 1.398 . S
C965 C971 1.491 . S
C966 H957 0.950 . S
C966 C965 1.398 . S
C966 C967 1.391 . S
C967 H955 0.950 . S
C967 C963 1.393 . S
C967 C966 1.391 . S
C968 H958 0.950 . S
C968 C969 1.386 . S
C968 C970 1.391 . S
C969 C968 1.386 . S
C969 C973 1.393 1_565 S
C970 H959 0.950 . S
C970 C968 1.391 . S
C970 C971 1.400 . S
C971 C965 1.491 . S
C971 C970 1.400 . S
C971 C972 1.419 . S
C972 H960 0.929 1_565 S
C972 C971 1.419 . S
C972 C973 1.391 1_565 S
C973 H961 0.950 . S
C973 C969 1.393 1_545 S
C973 C972 1.391 1_545 S
H974 C982 0.950 . S
H975 C987 0.950 1_655 S
H976 C984 0.950 . S
H977 C986 0.950 1_655 S
H978 C988 0.950 . S
H979 C990 0.950 . S
H980 C992 0.950 . S
H981 C993 0.950 . S
C982 H974 0.950 . S
C982 C983 1.386 . S
C982 C984 1.391 . S
C983 C982 1.386 . S
C983 C987 1.393 . S
C984 H976 0.950 . S
C984 C982 1.391 . S
C984 C985 1.400 . S
C985 C984 1.400 . S
C985 C986 1.398 . S
C985 C991 1.491 . S
C986 H977 0.950 1_455 S
C986 C985 1.398 . S
C986 C987 1.391 . S
C987 H975 0.950 1_455 S
C987 C983 1.393 . S
C987 C986 1.391 . S
C988 H978 0.950 . S
C988 C989 1.386 . S
C988 C990 1.391 . S
C989 C988 1.386 . S
C989 C993 1.393 . S
C990 H979 0.950 . S
C990 C988 1.391 . S
C990 C991 1.400 . S
C991 C985 1.491 . S
C991 C990 1.400 . S
C991 C992 1.398 . S
C992 H980 0.950 . S
C992 C991 1.398 . S
C992 C993 1.391 . S
C993 H981 0.950 . S
C993 C989 1.393 . S
C993 C992 1.391 . S
H994 C1002 0.950 . S
H995 C1007 0.950 . S
H996 C1004 0.950 . S
H997 C1006 0.950 . S
H998 C1008 0.950 . S
H999 C1010 0.950 . S
H1000 C1012 0.950 . S
H1001 C1013 0.950 . S
C1002 H994 0.950 . S
C1002 C1003 1.386 . S
C1002 C1004 1.391 . S
C1003 C1002 1.386 . S
C1003 C1007 1.393 . S
C1004 H996 0.950 . S
C1004 C1002 1.391 . S
C1004 C1005 1.400 . S
C1005 C1004 1.400 . S
C1005 C1006 1.398 . S
C1005 C1011 1.491 . S
C1006 H997 0.950 . S
C1006 C1005 1.398 . S
C1006 C1007 1.391 . S
C1007 H995 0.950 . S
C1007 C1003 1.393 . S
C1007 C1006 1.391 . S
C1008 H998 0.950 . S
C1008 C1009 1.386 . S
C1008 C1010 1.391 . S
C1009 C1008 1.386 . S
C1009 C1013 1.393 . S
C1010 H999 0.950 . S
C1010 C1008 1.391 . S
C1010 C1011 1.400 . S
C1011 C1005 1.491 . S
C1011 C1010 1.400 . S
C1011 C1012 1.398 . S
C1012 H1000 0.950 . S
C1012 C1011 1.398 . S
C1012 C1013 1.391 . S
C1013 H1001 0.950 . S
C1013 C1009 1.393 . S
C1013 C1012 1.391 . S
H1014 C1022 0.950 . S
H1015 C1027 0.950 . S
H1016 C1024 0.950 . S
H1017 C1026 0.950 . S
H1018 C1028 0.950 . S
H1019 C1030 0.950 . S
H1020 C1032 0.950 1_455 S
H1021 C1033 0.950 . S
C1022 H1014 0.950 . S
C1022 C1023 1.386 1_455 S
C1022 C1024 1.391 . S
C1023 C1022 1.386 1_655 S
C1023 C1027 1.393 . S
C1024 H1016 0.950 . S
C1024 C1022 1.391 . S
C1024 C1025 1.400 1_455 S
C1025 C1024 1.400 1_655 S
C1025 C1026 1.398 . S
C1025 C1031 1.491 . S
C1026 H1017 0.950 . S
C1026 C1025 1.398 . S
C1026 C1027 1.391 . S
C1027 H1015 0.950 . S
C1027 C1023 1.393 . S
C1027 C1026 1.391 . S
C1028 H1018 0.950 . S
C1028 C1029 1.386 . S
C1028 C1030 1.391 . S
C1029 C1028 1.386 . S
C1029 C1033 1.393 . S
C1030 H1019 0.950 . S
C1030 C1028 1.391 . S
C1030 C1031 1.400 . S
C1031 C1025 1.491 . S
C1031 C1030 1.400 . S
C1031 C1032 1.398 . S
C1032 H1020 0.950 1_655 S
C1032 C1031 1.398 . S
C1032 C1033 1.391 . S
C1033 H1021 0.950 . S
C1033 C1029 1.393 . S
C1033 C1032 1.391 . S
H1034 C1042 0.950 . S
H1035 C1047 0.950 . S
H1036 C1044 0.950 . S
H1037 C1046 0.950 . S
H1038 C1048 0.950 . S
H1039 C1050 0.950 . S
H1040 C1052 0.950 . S
H1041 C1053 0.950 . S
C1042 H1034 0.950 . S
C1042 C1043 1.386 . S
C1042 C1044 1.391 . S
C1043 C1042 1.386 . S
C1043 C1047 1.393 . S
C1044 H1036 0.950 . S
C1044 C1042 1.391 . S
C1044 C1045 1.400 . S
C1045 C1044 1.400 . S
C1045 C1046 1.398 . S
C1045 C1051 1.491 . S
C1046 H1037 0.950 . S
C1046 C1045 1.398 . S
C1046 C1047 1.391 . S
C1047 H1035 0.950 . S
C1047 C1043 1.393 . S
C1047 C1046 1.391 . S
C1048 H1038 0.950 . S
C1048 C1049 1.386 . S
C1048 C1050 1.391 . S
C1049 C1048 1.386 . S
C1049 C1053 1.393 . S
C1050 H1039 0.950 . S
C1050 C1048 1.391 . S
C1050 C1051 1.400 . S
C1051 C1045 1.491 . S
C1051 C1050 1.400 . S
C1051 C1052 1.398 . S
C1052 H1040 0.950 . S
C1052 C1051 1.398 . S
C1052 C1053 1.391 . S
C1053 H1041 0.950 . S
C1053 C1049 1.393 . S
C1053 C1052 1.391 . S
H1054 C1062 0.950 . S
H1055 C1067 0.950 . S
H1056 C1064 0.950 . S
H1057 C1066 0.950 . S
H1058 C1068 0.950 . S
H1059 C1070 0.950 . S
H1060 C1072 0.950 . S
H1061 C1073 0.950 . S
C1062 H1054 0.950 . S
C1062 C1063 1.386 . S
C1062 C1064 1.391 . S
C1063 C1062 1.386 . S
C1063 C1067 1.393 . S
C1064 H1056 0.950 . S
C1064 C1062 1.391 . S
C1064 C1065 1.400 . S
C1065 C1064 1.400 . S
C1065 C1066 1.398 . S
C1065 C1071 1.491 . S
C1066 H1057 0.950 . S
C1066 C1065 1.398 . S
C1066 C1067 1.391 . S
C1067 H1055 0.950 . S
C1067 C1063 1.393 . S
C1067 C1066 1.391 . S
C1068 H1058 0.950 . S
C1068 C1069 1.386 . S
C1068 C1070 1.391 . S
C1069 C1068 1.386 . S
C1069 C1073 1.393 . S
C1070 H1059 0.950 . S
C1070 C1068 1.391 . S
C1070 C1071 1.400 . S
C1071 C1065 1.491 . S
C1071 C1070 1.400 . S
C1071 C1072 1.398 . S
C1072 H1060 0.950 . S
C1072 C1071 1.398 . S
C1072 C1073 1.391 . S
C1073 H1061 0.950 . S
C1073 C1069 1.393 . S
C1073 C1072 1.391 . S
H1074 C1082 0.950 . S
H1075 C1087 0.950 . S
H1076 C1084 0.950 . S
H1077 C1086 0.950 1_455 S
H1078 C1088 0.950 . S
H1079 C1090 0.950 . S
H1080 C1092 0.950 . S
H1081 C1093 0.950 . S
C1082 H1074 0.950 . S
C1082 C1083 1.386 . S
C1082 C1084 1.391 . S
C1083 C1082 1.386 . S
C1083 C1087 1.393 . S
C1084 H1076 0.950 . S
C1084 C1082 1.391 . S
C1084 C1085 1.407 . S
C1085 C1084 1.407 . S
C1085 C1086 1.395 . S
C1085 C1091 1.487 1_655 S
C1086 H1077 0.950 1_655 S
C1086 C1085 1.395 . S
C1086 C1087 1.391 . S
C1087 H1075 0.950 . S
C1087 C1083 1.393 . S
C1087 C1086 1.391 . S
C1088 H1078 0.950 . S
C1088 C1089 1.386 . S
C1088 C1090 1.391 . S
C1089 C1088 1.386 . S
C1089 C1093 1.393 . S
C1090 H1079 0.950 . S
C1090 C1088 1.391 . S
C1090 C1091 1.400 . S
C1091 C1085 1.487 1_455 S
C1091 C1090 1.400 . S
C1091 C1092 1.398 . S
C1092 H1080 0.950 . S
C1092 C1091 1.398 . S
C1092 C1093 1.391 . S
C1093 H1081 0.950 . S
C1093 C1089 1.393 . S
C1093 C1092 1.391 . S
H1094 C1102 0.950 . S
H1095 C1107 0.950 . S
H1096 C1104 0.950 . S
H1097 C1106 0.950 . S
H1098 C1108 0.950 . S
H1099 C1110 0.950 . S
H1100 C1112 0.950 . S
H1101 C1113 0.950 . S
C1102 H1094 0.950 . S
C1102 C1103 1.386 . S
C1102 C1104 1.391 . S
C1103 C1102 1.386 . S
C1103 C1107 1.393 . S
C1104 H1096 0.950 . S
C1104 C1102 1.391 . S
C1104 C1105 1.400 . S
C1105 C1104 1.400 . S
C1105 C1106 1.398 . S
C1105 C1111 1.491 . S
C1106 H1097 0.950 . S
C1106 C1105 1.398 . S
C1106 C1107 1.391 . S
C1107 H1095 0.950 . S
C1107 C1103 1.393 . S
C1107 C1106 1.391 . S
C1108 H1098 0.950 . S
C1108 C1109 1.386 . S
C1108 C1110 1.391 . S
C1109 C1108 1.386 . S
C1109 C1113 1.393 . S
C1110 H1099 0.950 . S
C1110 C1108 1.391 . S
C1110 C1111 1.400 . S
C1111 C1105 1.491 . S
C1111 C1110 1.400 . S
C1111 C1112 1.398 . S
C1112 H1100 0.950 . S
C1112 C1111 1.398 . S
C1112 C1113 1.391 . S
C1113 H1101 0.950 . S
C1113 C1109 1.393 . S
C1113 C1112 1.391 . S
H1114 C1122 0.950 . S
H1115 C1127 0.950 . S
H1116 C1124 0.950 . S
H1117 C1126 0.950 . S
H1118 C1128 0.950 . S
H1119 C1130 0.950 . S
H1120 C1132 0.950 . S
H1121 C1133 0.950 . S
C1122 H1114 0.950 . S
C1122 C1123 1.386 . S
C1122 C1124 1.391 . S
C1123 C1122 1.386 . S
C1123 C1127 1.393 . S
C1124 H1116 0.950 . S
C1124 C1122 1.391 . S
C1124 C1125 1.406 . S
C1125 C1124 1.406 . S
C1125 C1126 1.396 . S
C1125 C1131 1.487 1_565 S
C1126 H1117 0.950 . S
C1126 C1125 1.396 . S
C1126 C1127 1.391 . S
C1127 H1115 0.950 . S
C1127 C1123 1.393 . S
C1127 C1126 1.391 . S
C1128 H1118 0.950 . S
C1128 C1129 1.386 . S
C1128 C1130 1.391 . S
C1129 C1128 1.386 . S
C1129 C1133 1.393 . S
C1130 H1119 0.950 . S
C1130 C1128 1.391 . S
C1130 C1131 1.400 . S
C1131 C1125 1.487 1_545 S
C1131 C1130 1.400 . S
C1131 C1132 1.398 . S
C1132 H1120 0.950 . S
C1132 C1131 1.398 . S
C1132 C1133 1.391 . S
C1133 H1121 0.950 . S
C1133 C1129 1.393 . S
C1133 C1132 1.391 . S
H1134 C1142 0.950 . S
H1135 C1147 0.950 . S
H1136 C1144 0.950 . S
H1137 C1146 0.950 . S
H1138 C1148 0.950 . S
H1139 C1150 0.950 . S
H1140 C1152 0.950 . S
H1141 C1153 0.950 . S
C1142 H1134 0.950 . S
C1142 C1143 1.386 . S
C1142 C1144 1.391 . S
C1143 C1142 1.386 . S
C1143 C1147 1.393 . S
C1144 H1136 0.950 . S
C1144 C1142 1.391 . S
C1144 C1145 1.400 . S
C1145 C1144 1.400 . S
C1145 C1146 1.398 . S
C1145 C1151 1.491 . S
C1146 H1137 0.950 . S
C1146 C1145 1.398 . S
C1146 C1147 1.391 . S
C1147 H1135 0.950 . S
C1147 C1143 1.393 . S
C1147 C1146 1.391 . S
C1148 H1138 0.950 . S
C1148 C1149 1.386 . S
C1148 C1150 1.391 . S
C1149 C1148 1.386 . S
C1149 C1153 1.393 . S
C1150 H1139 0.950 . S
C1150 C1148 1.391 . S
C1150 C1151 1.400 . S
C1151 C1145 1.491 . S
C1151 C1150 1.400 . S
C1151 C1152 1.398 . S
C1152 H1140 0.950 . S
C1152 C1151 1.398 . S
C1152 C1153 1.391 . S
C1153 H1141 0.950 . S
C1153 C1149 1.393 . S
C1153 C1152 1.391 . S
H1154 C1162 0.950 . S
H1155 C1167 0.950 . S
H1156 C1164 0.950 . S
H1157 C1166 0.950 . S
H1158 C1168 0.950 . S
H1159 C1170 0.950 . S
H1160 C1172 0.950 . S
H1161 C1173 0.950 . S
C1162 H1154 0.950 . S
C1162 C1163 1.386 . S
C1162 C1164 1.391 . S
C1163 C1162 1.386 . S
C1163 C1167 1.393 . S
C1164 H1156 0.950 . S
C1164 C1162 1.391 . S
C1164 C1165 1.400 . S
C1165 C1164 1.400 . S
C1165 C1166 1.398 . S
C1165 C1171 1.491 . S
C1166 H1157 0.950 . S
C1166 C1165 1.398 . S
C1166 C1167 1.391 . S
C1167 H1155 0.950 . S
C1167 C1163 1.393 . S
C1167 C1166 1.391 . S
C1168 H1158 0.950 . S
C1168 C1169 1.386 . S
C1168 C1170 1.391 . S
C1169 C1168 1.386 . S
C1169 C1173 1.393 . S
C1170 H1159 0.950 . S
C1170 C1168 1.391 . S
C1170 C1171 1.400 . S
C1171 C1165 1.491 . S
C1171 C1170 1.400 . S
C1171 C1172 1.398 . S
C1172 H1160 0.950 . S
C1172 C1171 1.398 . S
C1172 C1173 1.391 . S
C1173 H1161 0.950 . S
C1173 C1169 1.393 . S
C1173 C1172 1.391 . S
H1174 C1182 0.950 . S
H1175 C1187 0.950 . S
H1176 C1184 0.950 . S
H1177 C1186 0.950 . S
H1178 C1188 0.950 . S
H1179 C1190 0.950 . S
H1180 C1192 0.950 . S
H1181 C1193 0.950 . S
C1182 H1174 0.950 . S
C1182 C1183 1.386 . S
C1182 C1184 1.391 . S
C1183 C1182 1.386 . S
C1183 C1187 1.393 . S
C1184 H1176 0.950 . S
C1184 C1182 1.391 . S
C1184 C1185 1.400 . S
C1185 C1184 1.400 . S
C1185 C1186 1.398 . S
C1185 C1191 1.491 . S
C1186 H1177 0.950 . S
C1186 C1185 1.398 . S
C1186 C1187 1.391 . S
C1187 H1175 0.950 . S
C1187 C1183 1.393 . S
C1187 C1186 1.391 . S
C1188 H1178 0.950 . S
C1188 C1189 1.386 . S
C1188 C1190 1.391 . S
C1189 C1188 1.386 . S
C1189 C1193 1.393 . S
C1190 H1179 0.950 . S
C1190 C1188 1.391 . S
C1190 C1191 1.400 . S
C1191 C1185 1.491 . S
C1191 C1190 1.400 . S
C1191 C1192 1.398 . S
C1192 H1180 0.950 . S
C1192 C1191 1.398 . S
C1192 C1193 1.391 . S
C1193 H1181 0.950 . S
C1193 C1189 1.393 . S
C1193 C1192 1.391 . S
H1194 C1202 0.950 . S
H1195 C1207 0.950 . S
H1196 C1204 0.950 . S
H1197 C1206 0.950 . S
H1198 C1208 0.950 . S
H1199 C1210 0.950 . S
H1200 C1212 0.950 . S
H1201 C1213 0.950 . S
C1202 H1194 0.950 . S
C1202 C1203 1.386 . S
C1202 C1204 1.391 . S
C1203 C1202 1.386 . S
C1203 C1207 1.393 . S
C1204 H1196 0.950 . S
C1204 C1202 1.391 . S
C1204 C1205 1.400 . S
C1205 C1204 1.400 . S
C1205 C1206 1.398 . S
C1205 C1211 1.491 . S
C1206 H1197 0.950 . S
C1206 C1205 1.398 . S
C1206 C1207 1.391 . S
C1207 H1195 0.950 . S
C1207 C1203 1.393 . S
C1207 C1206 1.391 . S
C1208 H1198 0.950 . S
C1208 C1209 1.386 . S
C1208 C1210 1.391 . S
C1209 C1208 1.386 . S
C1209 C1213 1.393 . S
C1210 H1199 0.950 . S
C1210 C1208 1.391 . S
C1210 C1211 1.400 . S
C1211 C1205 1.491 . S
C1211 C1210 1.400 . S
C1211 C1212 1.398 . S
C1212 H1200 0.950 . S
C1212 C1211 1.398 . S
C1212 C1213 1.391 . S
C1213 H1201 0.950 . S
C1213 C1209 1.393 . S
C1213 C1212 1.391 . S
H1214 C1222 0.950 . S
H1215 C1227 0.950 . S
H1216 C1224 0.950 . S
H1217 C1226 0.950 . S
H1218 C1228 0.950 . S
H1219 C1230 0.950 . S
H1220 C1232 0.950 . S
H1221 C1233 0.950 . S
C1222 H1214 0.950 . S
C1222 C1223 1.386 . S
C1222 C1224 1.391 . S
C1223 C1222 1.386 . S
C1223 C1227 1.393 . S
C1224 H1216 0.950 . S
C1224 C1222 1.391 . S
C1224 C1225 1.400 . S
C1225 C1224 1.400 . S
C1225 C1226 1.398 . S
C1225 C1231 1.491 . S
C1226 H1217 0.950 . S
C1226 C1225 1.398 . S
C1226 C1227 1.391 . S
C1227 H1215 0.950 . S
C1227 C1223 1.393 . S
C1227 C1226 1.391 . S
C1228 H1218 0.950 . S
C1228 C1229 1.386 . S
C1228 C1230 1.391 . S
C1229 C1228 1.386 . S
C1229 C1233 1.393 . S
C1230 H1219 0.950 . S
C1230 C1228 1.391 . S
C1230 C1231 1.400 . S
C1231 C1225 1.491 . S
C1231 C1230 1.400 . S
C1231 C1232 1.398 . S
C1232 H1220 0.950 . S
C1232 C1231 1.398 . S
C1232 C1233 1.391 . S
C1233 H1221 0.950 . S
C1233 C1229 1.393 . S
C1233 C1232 1.391 . S
H1234 C1242 0.950 . S
H1235 C1247 0.950 . S
H1236 C1244 0.950 . S
H1237 C1246 0.950 . S
H1238 C1248 0.950 . S
H1239 C1250 0.950 . S
H1240 C1252 0.950 . S
H1241 C1253 0.950 . S
C1242 H1234 0.950 . S
C1242 C1243 1.386 . S
C1242 C1244 1.391 . S
C1243 C1242 1.386 . S
C1243 C1247 1.393 . S
C1244 H1236 0.950 . S
C1244 C1242 1.391 . S
C1244 C1245 1.400 . S
C1245 C1244 1.400 . S
C1245 C1246 1.398 . S
C1245 C1251 1.491 . S
C1246 H1237 0.950 . S
C1246 C1245 1.398 . S
C1246 C1247 1.391 . S
C1247 H1235 0.950 . S
C1247 C1243 1.393 . S
C1247 C1246 1.391 . S
C1248 H1238 0.950 . S
C1248 C1249 1.386 . S
C1248 C1250 1.391 . S
C1249 C1248 1.386 . S
C1249 C1253 1.393 . S
C1250 H1239 0.950 . S
C1250 C1248 1.391 . S
C1250 C1251 1.400 . S
C1251 C1245 1.491 . S
C1251 C1250 1.400 . S
C1251 C1252 1.398 . S
C1252 H1240 0.950 . S
C1252 C1251 1.398 . S
C1252 C1253 1.391 . S
C1253 H1241 0.950 . S
C1253 C1249 1.393 . S
C1253 C1252 1.391 . S
H1254 C1262 0.950 . S
H1255 C1267 0.950 . S
H1256 C1264 0.950 . S
H1257 C1266 0.950 . S
H1258 C1268 0.950 . S
H1259 C1270 0.950 . S
H1260 C1272 0.950 . S
H1261 C1273 0.950 . S
C1262 H1254 0.950 . S
C1262 C1263 1.386 . S
C1262 C1264 1.391 . S
C1263 C1262 1.386 . S
C1263 C1267 1.393 . S
C1264 H1256 0.950 . S
C1264 C1262 1.391 . S
C1264 C1265 1.400 . S
C1265 C1264 1.400 . S
C1265 C1266 1.398 . S
C1265 C1271 1.491 . S
C1266 H1257 0.950 . S
C1266 C1265 1.398 . S
C1266 C1267 1.391 . S
C1267 H1255 0.950 . S
C1267 C1263 1.393 . S
C1267 C1266 1.391 . S
C1268 H1258 0.950 . S
C1268 C1269 1.386 . S
C1268 C1270 1.391 . S
C1269 C1268 1.386 . S
C1269 C1273 1.393 . S
C1270 H1259 0.950 . S
C1270 C1268 1.391 . S
C1270 C1271 1.400 . S
C1271 C1265 1.491 . S
C1271 C1270 1.400 . S
C1271 C1272 1.398 . S
C1272 H1260 0.950 . S
C1272 C1271 1.398 . S
C1272 C1273 1.391 . S
C1273 H1261 0.950 . S
C1273 C1269 1.393 . S
C1273 C1272 1.391 . S
H1274 C1282 0.950 . S
H1275 C1287 0.950 . S
H1276 C1284 0.950 . S
H1277 C1286 0.950 . S
H1278 C1288 0.950 . S
H1279 C1290 0.950 . S
H1280 C1292 0.950 . S
H1281 C1293 0.950 . S
C1282 H1274 0.950 . S
C1282 C1283 1.386 . S
C1282 C1284 1.391 . S
C1283 C1282 1.386 . S
C1283 C1287 1.393 . S
C1284 H1276 0.950 . S
C1284 C1282 1.391 . S
C1284 C1285 1.400 . S
C1285 C1284 1.400 . S
C1285 C1286 1.398 . S
C1285 C1291 1.491 . S
C1286 H1277 0.950 . S
C1286 C1285 1.398 . S
C1286 C1287 1.391 . S
C1287 H1275 0.950 . S
C1287 C1283 1.393 . S
C1287 C1286 1.391 . S
C1288 H1278 0.950 . S
C1288 C1289 1.386 . S
C1288 C1290 1.391 . S
C1289 C1288 1.386 . S
C1289 C1293 1.393 . S
C1290 H1279 0.950 . S
C1290 C1288 1.391 . S
C1290 C1291 1.400 . S
C1291 C1285 1.491 . S
C1291 C1290 1.400 . S
C1291 C1292 1.398 . S
C1292 H1280 0.950 . S
C1292 C1291 1.398 . S
C1292 C1293 1.391 . S
C1293 H1281 0.950 . S
C1293 C1289 1.393 . S
C1293 C1292 1.391 . S
H1294 C1302 0.950 . S
H1295 C1307 0.950 . S
H1296 C1304 0.950 . S
H1297 C1306 0.950 . S
H1298 C1308 0.950 . S
H1299 C1310 0.950 . S
H1300 C1312 0.950 . S
H1301 C1313 0.950 . S
C1302 H1294 0.950 . S
C1302 C1303 1.386 . S
C1302 C1304 1.391 . S
C1303 C1302 1.386 . S
C1303 C1307 1.393 . S
C1304 H1296 0.950 . S
C1304 C1302 1.391 . S
C1304 C1305 1.400 . S
C1305 C1304 1.400 . S
C1305 C1306 1.398 . S
C1305 C1311 1.491 . S
C1306 H1297 0.950 . S
C1306 C1305 1.398 . S
C1306 C1307 1.391 . S
C1307 H1295 0.950 . S
C1307 C1303 1.393 . S
C1307 C1306 1.391 . S
C1308 H1298 0.950 . S
C1308 C1309 1.386 . S
C1308 C1310 1.391 . S
C1309 C1308 1.386 . S
C1309 C1313 1.393 . S
C1310 H1299 0.950 . S
C1310 C1308 1.391 . S
C1310 C1311 1.400 . S
C1311 C1305 1.491 . S
C1311 C1310 1.400 . S
C1311 C1312 1.398 . S
C1312 H1300 0.950 . S
C1312 C1311 1.398 . S
C1312 C1313 1.391 . S
C1313 H1301 0.950 . S
C1313 C1309 1.393 . S
C1313 C1312 1.391 . S
H1314 C1322 0.950 . S
H1315 C1327 0.950 . S
H1316 C1324 0.950 . S
H1317 C1326 0.950 . S
H1318 C1328 0.950 . S
H1319 C1330 0.950 . S
H1320 C1332 0.950 1_655 S
H1321 C1333 0.950 . S
C1322 H1314 0.950 . S
C1322 C1323 1.386 . S
C1322 C1324 1.391 . S
C1323 C1322 1.386 . S
C1323 C1327 1.393 . S
C1324 H1316 0.950 . S
C1324 C1322 1.391 . S
C1324 C1325 1.400 . S
C1325 C1324 1.400 . S
C1325 C1326 1.398 . S
C1325 C1331 1.491 . S
C1326 H1317 0.950 . S
C1326 C1325 1.398 . S
C1326 C1327 1.391 . S
C1327 H1315 0.950 . S
C1327 C1323 1.393 . S
C1327 C1326 1.391 . S
C1328 H1318 0.950 . S
C1328 C1329 1.386 . S
C1328 C1330 1.391 1_455 S
C1329 C1328 1.386 . S
C1329 C1333 1.393 . S
C1330 H1319 0.950 . S
C1330 C1328 1.391 1_655 S
C1330 C1331 1.400 . S
C1331 C1325 1.491 . S
C1331 C1330 1.400 . S
C1331 C1332 1.398 1_655 S
C1332 H1320 0.950 1_455 S
C1332 C1331 1.398 1_455 S
C1332 C1333 1.391 . S
C1333 H1321 0.950 . S
C1333 C1329 1.393 . S
C1333 C1332 1.391 . S
H1334 C1342 0.950 1_565 S
H1335 C1347 0.950 . S
H1336 C1344 0.950 . S
H1337 C1346 0.950 . S
H1338 C1348 0.950 . S
H1339 C1350 0.950 . S
H1340 C1352 0.950 . S
H1341 C1353 0.950 . S
C1342 H1334 0.950 1_545 S
C1342 C1343 1.386 . S
C1342 C1344 1.391 . S
C1343 C1342 1.386 . S
C1343 C1347 1.393 . S
C1344 H1336 0.950 . S
C1344 C1342 1.391 . S
C1344 C1345 1.400 . S
C1345 C1344 1.400 . S
C1345 C1346 1.398 . S
C1345 C1351 1.491 . S
C1346 H1337 0.950 . S
C1346 C1345 1.398 . S
C1346 C1347 1.391 . S
C1347 H1335 0.950 . S
C1347 C1343 1.393 . S
C1347 C1346 1.391 . S
C1348 H1338 0.950 . S
C1348 C1349 1.386 . S
C1348 C1350 1.391 . S
C1349 C1348 1.386 . S
C1349 C1353 1.393 . S
C1350 H1339 0.950 . S
C1350 C1348 1.391 . S
C1350 C1351 1.400 . S
C1351 C1345 1.491 . S
C1351 C1350 1.400 . S
C1351 C1352 1.398 . S
C1352 H1340 0.950 . S
C1352 C1351 1.398 . S
C1352 C1353 1.391 . S
C1353 H1341 0.950 . S
C1353 C1349 1.393 . S
C1353 C1352 1.391 . S
H1354 C1362 0.950 . S
H1355 C1367 0.950 . S
H1356 C1364 0.950 . S
H1357 C1366 0.950 . S
H1358 C1368 0.950 1_455 S
H1359 C1370 0.950 . S
H1360 C1372 0.950 . S
H1361 C1373 0.950 . S
C1362 H1354 0.950 . S
C1362 C1363 1.386 . S
C1362 C1364 1.391 1_565 S
C1363 C1362 1.386 . S
C1363 C1367 1.393 . S
C1364 H1356 0.950 . S
C1364 C1362 1.391 1_545 S
C1364 C1365 1.400 . S
C1365 C1364 1.400 . S
C1365 C1366 1.398 . S
C1365 C1371 1.491 . S
C1366 H1357 0.950 . S
C1366 C1365 1.398 . S
C1366 C1367 1.391 1_545 S
C1367 H1355 0.950 . S
C1367 C1363 1.393 . S
C1367 C1366 1.391 1_565 S
C1368 H1358 0.950 1_655 S
C1368 C1369 1.386 . S
C1368 C1370 1.391 . S
C1369 C1368 1.386 . S
C1369 C1373 1.393 . S
C1370 H1359 0.950 . S
C1370 C1368 1.391 . S
C1370 C1371 1.400 . S
C1371 C1365 1.491 . S
C1371 C1370 1.400 . S
C1371 C1372 1.398 . S
C1372 H1360 0.950 . S
C1372 C1371 1.398 . S
C1372 C1373 1.391 . S
C1373 H1361 0.950 . S
C1373 C1369 1.393 . S
C1373 C1372 1.391 . S
H1374 C1382 0.950 . S
H1375 C1387 0.950 . S
H1376 C1384 0.950 . S
H1377 C1386 0.950 . S
H1378 C1388 0.950 . S
H1379 C1390 0.950 . S
H1380 C1392 0.950 . S
H1381 C1393 0.950 . S
C1382 H1374 0.950 . S
C1382 C1383 1.386 . S
C1382 C1384 1.391 . S
C1383 C1382 1.386 . S
C1383 C1387 1.393 . S
C1384 H1376 0.950 . S
C1384 C1382 1.391 . S
C1384 C1385 1.400 . S
C1385 C1384 1.400 . S
C1385 C1386 1.398 . S
C1385 C1391 1.491 . S
C1386 H1377 0.950 . S
C1386 C1385 1.398 . S
C1386 C1387 1.391 . S
C1387 H1375 0.950 . S
C1387 C1383 1.393 . S
C1387 C1386 1.391 . S
C1388 H1378 0.950 . S
C1388 C1389 1.386 . S
C1388 C1390 1.391 1_545 S
C1389 C1388 1.386 . S
C1389 C1393 1.393 . S
C1390 H1379 0.950 . S
C1390 C1388 1.391 1_565 S
C1390 C1391 1.400 . S
C1391 C1385 1.491 . S
C1391 C1390 1.400 . S
C1391 C1392 1.398 . S
C1392 H1380 0.950 . S
C1392 C1391 1.398 . S
C1392 C1393 1.391 1_565 S
C1393 H1381 0.950 . S
C1393 C1389 1.393 . S
C1393 C1392 1.391 1_545 S
H1394 C1402 0.950 . S
H1395 C1407 0.950 1_545 S
H1396 C1404 0.950 . S
H1397 C1406 0.950 . S
H1398 C1408 0.950 . S
H1399 C1410 0.950 . S
H1400 C1412 0.950 . S
H1401 C1413 0.950 . S
C1402 H1394 0.950 . S
C1402 C1403 1.386 . S
C1402 C1404 1.391 . S
C1403 C1402 1.386 . S
C1403 C1407 1.393 . S
C1404 H1396 0.950 . S
C1404 C1402 1.391 . S
C1404 C1405 1.400 . S
C1405 C1404 1.400 . S
C1405 C1406 1.398 . S
C1405 C1411 1.491 . S
C1406 H1397 0.950 . S
C1406 C1405 1.398 . S
C1406 C1407 1.391 . S
C1407 H1395 0.950 1_565 S
C1407 C1403 1.393 . S
C1407 C1406 1.391 . S
C1408 H1398 0.950 . S
C1408 C1409 1.386 . S
C1408 C1410 1.391 1_655 S
C1409 C1408 1.386 . S
C1409 C1413 1.393 . S
C1410 H1399 0.950 . S
C1410 C1408 1.391 1_455 S
C1410 C1411 1.400 . S
C1411 C1405 1.491 . S
C1411 C1410 1.400 . S
C1411 C1412 1.398 . S
C1412 H1400 0.950 . S
C1412 C1411 1.398 . S
C1412 C1413 1.391 1_455 S
C1413 H1401 0.950 . S
C1413 C1409 1.393 . S
C1413 C1412 1.391 1_655 S
H1414 C1422 0.950 . S
H1415 C1427 0.950 . S
H1416 C1424 0.950 . S
H1417 C1426 0.950 . S
H1418 C1428 0.950 . S
H1419 C1430 0.950 . S
H1420 C1432 0.950 . S
H1421 C1433 0.950 1_655 S
C1422 H1414 0.950 . S
C1422 C1423 1.386 . S
C1422 C1424 1.391 . S
C1423 C1422 1.386 . S
C1423 C1427 1.393 . S
C1424 H1416 0.950 . S
C1424 C1422 1.391 . S
C1424 C1425 1.400 . S
C1425 C1424 1.400 . S
C1425 C1426 1.398 . S
C1425 C1431 1.491 . S
C1426 H1417 0.950 . S
C1426 C1425 1.398 . S
C1426 C1427 1.391 . S
C1427 H1415 0.950 . S
C1427 C1423 1.393 . S
C1427 C1426 1.391 . S
C1428 H1418 0.950 . S
C1428 C1429 1.386 . S
C1428 C1430 1.391 . S
C1429 C1428 1.386 . S
C1429 C1433 1.393 . S
C1430 H1419 0.950 . S
C1430 C1428 1.391 . S
C1430 C1431 1.400 . S
C1431 C1425 1.491 . S
C1431 C1430 1.400 . S
C1431 C1432 1.398 . S
C1432 H1420 0.950 . S
C1432 C1431 1.398 . S
C1432 C1433 1.391 . S
C1433 H1421 0.950 1_455 S
C1433 C1429 1.393 . S
C1433 C1432 1.391 . S
H1434 C1442 0.950 . S
H1435 C1447 0.950 . S
H1436 C1444 0.950 . S
H1437 C1446 0.950 . S
H1438 C1448 0.950 . S
H1439 C1450 0.950 . S
H1440 C1452 0.950 . S
H1441 C1453 0.950 . S
C1442 H1434 0.950 . S
C1442 C1443 1.386 . S
C1442 C1444 1.391 . S
C1443 C1442 1.386 . S
C1443 C1447 1.393 . S
C1444 H1436 0.950 . S
C1444 C1442 1.391 . S
C1444 C1445 1.400 . S
C1445 C1444 1.400 . S
C1445 C1446 1.398 . S
C1445 C1451 1.491 . S
C1446 H1437 0.950 . S
C1446 C1445 1.398 . S
C1446 C1447 1.391 . S
C1447 H1435 0.950 . S
C1447 C1443 1.393 . S
C1447 C1446 1.391 . S
C1448 H1438 0.950 . S
C1448 C1449 1.386 . S
C1448 C1450 1.391 . S
C1449 C1448 1.386 . S
C1449 C1453 1.393 . S
C1450 H1439 0.950 . S
C1450 C1448 1.391 . S
C1450 C1451 1.400 . S
C1451 C1445 1.491 . S
C1451 C1450 1.400 . S
C1451 C1452 1.398 . S
C1452 H1440 0.950 . S
C1452 C1451 1.398 . S
C1452 C1453 1.391 . S
C1453 H1441 0.950 . S
C1453 C1449 1.393 . S
C1453 C1452 1.391 . S
H1454 C1462 0.950 . S
H1455 C1467 0.950 . S
H1456 C1464 0.950 . S
H1457 C1466 0.950 . S
H1458 C1468 0.950 . S
H1459 C1470 0.950 . S
H1460 C1472 0.950 . S
H1461 C1473 0.950 . S
C1462 H1454 0.950 . S
C1462 C1463 1.386 . S
C1462 C1464 1.391 . S
C1463 C1462 1.386 . S
C1463 C1467 1.393 . S
C1464 H1456 0.950 . S
C1464 C1462 1.391 . S
C1464 C1465 1.400 . S
C1465 C1464 1.400 . S
C1465 C1466 1.398 . S
C1465 C1471 1.491 . S
C1466 H1457 0.950 . S
C1466 C1465 1.398 . S
C1466 C1467 1.391 . S
C1467 H1455 0.950 . S
C1467 C1463 1.393 . S
C1467 C1466 1.391 . S
C1468 H1458 0.950 . S
C1468 C1469 1.386 . S
C1468 C1470 1.391 . S
C1469 C1468 1.386 . S
C1469 C1473 1.393 . S
C1470 H1459 0.950 . S
C1470 C1468 1.391 . S
C1470 C1471 1.400 . S
C1471 C1465 1.491 . S
C1471 C1470 1.400 . S
C1471 C1472 1.398 . S
C1472 H1460 0.950 . S
C1472 C1471 1.398 . S
C1472 C1473 1.391 . S
C1473 H1461 0.950 . S
C1473 C1469 1.393 . S
C1473 C1472 1.391 . S
H1474 C1482 0.950 . S
H1475 C1487 0.950 . S
H1476 C1484 0.950 . S
H1477 C1486 0.950 . S
H1478 C1488 0.950 . S
H1479 C1490 0.950 . S
H1480 C1492 0.950 . S
H1481 C1493 0.950 . S
C1482 H1474 0.950 . S
C1482 C1483 1.386 . S
C1482 C1484 1.391 . S
C1483 C1482 1.386 . S
C1483 C1487 1.393 . S
C1484 H1476 0.950 . S
C1484 C1482 1.391 . S
C1484 C1485 1.400 . S
C1485 C1484 1.400 . S
C1485 C1486 1.398 . S
C1485 C1491 1.491 . S
C1486 H1477 0.950 . S
C1486 C1485 1.398 . S
C1486 C1487 1.391 . S
C1487 H1475 0.950 . S
C1487 C1483 1.393 . S
C1487 C1486 1.391 . S
C1488 H1478 0.950 . S
C1488 C1489 1.386 . S
C1488 C1490 1.391 . S
C1489 C1488 1.386 . S
C1489 C1493 1.393 . S
C1490 H1479 0.950 . S
C1490 C1488 1.391 . S
C1490 C1491 1.400 . S
C1491 C1485 1.491 . S
C1491 C1490 1.400 . S
C1491 C1492 1.398 . S
C1492 H1480 0.950 . S
C1492 C1491 1.398 . S
C1492 C1493 1.391 . S
C1493 H1481 0.950 . S
C1493 C1489 1.393 . S
C1493 C1492 1.391 . S
C423 C21 1.075 . S
C429 C63 1.094 . S
C443 C17 1.071 . S
C449 C44 1.096 . S
C463 C40 1.090 . S
C469 C67 1.076 . S
C483 C90 1.080 . S
C489 C109 1.084 . S
C503 C132 1.085 . S
C509 C113 1.079 . S
C523 C136 1.090 . S
C529 C86 1.079 . S
C543 C201 1.085 . S
C549 C159 1.079 . S
C563 C155 1.066 . S
C569 C182 1.100 . S
C583 C205 1.100 . S
C589 C178 1.063 . S
C603 C247 1.073 . S
C609 C228 1.094 . S
C623 C251 1.079 . S
C629 C270 1.091 . S
C643 C224 1.073 . S
C649 C274 1.095 . S
C663 C297 1.100 . S
C669 C339 1.063 . S
C683 C293 1.090 . S
C689 C320 1.076 . S
C703 C316 1.063 . S
C709 C343 1.100 . S
C723 C385 1.089 . S
C729 C366 1.076 . S
C743 C408 1.070 . S
C749 C389 1.092 . S
C763 C362 1.083 . S
C769 C412 1.081 . S
C783 C20 1.514 . S
C789 C135 1.517 . S
C803 C89 1.526 1_655 S
C809 C43 1.519 . S
C823 C112 1.512 . S
C829 C66 1.517 . S
C843 C158 1.515 . S
C849 C273 1.514 . S
C863 C181 1.526 . S
C869 C227 1.513 . S
C883 C250 1.513 . S
C889 C204 1.517 . S
C903 C296 1.511 . S
C909 C411 1.525 . S
C923 C365 1.512 . S
C929 C319 1.526 . S
C943 C388 1.512 . S
C949 C342 1.526 . S
C963 C249 1.544 . S
C969 C19 1.545 1_565 S
C983 C42 1.544 . S
C989 C272 1.540 . S
C1003 C226 1.543 . S
C1009 C65 1.546 . S
C1023 C88 1.542 1_655 S
C1029 C341 1.547 . S
C1043 C111 1.539 . S
C1049 C295 1.547 . S
C1063 C318 1.546 . S
C1069 C134 1.539 . S
C1083 C387 1.545 . S
C1089 C157 1.545 . S
C1103 C180 1.547 . S
C1109 C410 1.539 . S
C1123 C203 1.546 . S
C1129 C364 1.544 . S
C1143 C62 0.981 . S
C1149 C18 0.984 . S
C1163 C16 0.982 . S
C1169 C41 0.989 . S
C1183 C64 0.977 . S
C1189 C39 0.982 . S
C1203 C108 0.986 . S
C1209 C87 0.966 . S
C1223 C131 0.984 . S
C1229 C110 0.986 . S
C1243 C133 0.985 . S
C1249 C85 0.981 . S
C1263 C200 0.989 . S
C1269 C156 0.967 . S
C1283 C179 0.976 . S
C1289 C154 0.988 . S
C1303 C177 0.982 . S
C1309 C202 0.975 . S
C1323 C225 0.976 . S
C1329 C246 0.988 . S
C1343 C248 0.968 . S
C1349 C269 0.989 . S
C1363 C223 0.984 . S
C1369 C271 0.988 1_655 S
C1383 C294 0.983 . S
C1389 C338 0.986 . S
C1403 C317 0.983 1_565 S
C1409 C292 0.981 . S
C1423 C315 0.988 . S
C1429 C340 0.965 . S
C1443 C363 0.972 . S
C1449 C384 0.989 . S
C1463 C386 0.975 . S
C1469 C407 0.982 . S
C1483 C361 0.982 . S
C1489 C409 0.989 . S
