# Generated by pormake.
# Topology qtz-x, (6)-cn, num edge types: 1
# Building blocks:
#     Node 0, Type 0, BuildingBlock: CIFDUS_clean_sbu_1, # of connection points: 6
#     Node 1, Type 0, BuildingBlock: CIFDUS_clean_sbu_1, # of connection points: 6
#     Node 2, Type 0, BuildingBlock: CIFDUS_clean_sbu_1, # of connection points: 6
#     Edge 3, Type (0, 0), BuildingBlock: MIFKUJ_clean_linker_0, # of connection points: 2
#     Edge 4, Type (0, 0), BuildingBlock: MIFKUJ_clean_linker_0, # of connection points: 2
#     Edge 5, Type (0, 0), BuildingBlock: MIFKUJ_clean_linker_0, # of connection points: 2
#     Edge 6, Type (0, 0), BuildingBlock: MIFKUJ_clean_linker_0, # of connection points: 2
#     Edge 7, Type (0, 0), BuildingBlock: MIFKUJ_clean_linker_0, # of connection points: 2
#     Edge 8, Type (0, 0), BuildingBlock: MIFKUJ_clean_linker_0, # of connection points: 2
#     Edge 9, Type (0, 0), BuildingBlock: MIFKUJ_clean_linker_0, # of connection points: 2
#     Edge 10, Type (0, 0), BuildingBlock: MIFKUJ_clean_linker_0, # of connection points: 2
#     Edge 11, Type (0, 0), BuildingBlock: MIFKUJ_clean_linker_0, # of connection points: 2
# Relax obj value: 0.267
# Max RMSD: 0.255
# Mean RMSD: 0.254
data_MOF--net-qtz-x--node1-CIFDUS_clean_sbu_1--edge1-MIFKUJ_clean_linker_0
_symmetry_space_group_name_H-M    P1
_symmetry_Int_Tables_number       1
_symmetry_cell_setting            triclinic
loop_
_symmetry_equiv_pos_as_xyz
'x, y, z'
_cell_length_a     20.177779
_cell_length_b     20.074046
_cell_length_c     48.401125
_cell_angle_alpha  95.195988
_cell_angle_beta   93.962063
_cell_angle_gamma 120.41747
loop_
_atom_site_label
_atom_site_type_symbol
_atom_site_fract_x
_atom_site_fract_y
_atom_site_fract_z
_atom_type_partial_charge
O0 O 0.01972 0.34302 0.15209 0.0
Mn1 Mn 0.01205 0.44333 0.15225 0.0
O2 O 0.1426 0.37886 0.14583 0.0
Mn3 Mn 0.18055 0.48433 0.14468 0.0
O4 O 1.00333 0.54273 0.15244 0.0
O5 O 0.92279 0.39587 0.17418 0.0
Mn6 Mn 0.84273 0.39828 0.15876 0.0
O7 O 0.93754 0.39655 0.11435 0.0
O8 O 0.87969 0.5042 0.15879 0.0
O9 O 0.08816 0.49678 0.19005 0.0
O10 O 0.20962 0.54497 0.17903 0.0
O11 O 0.81365 0.35225 0.19071 0.0
O12 O 0.81475 0.3408 0.12354 0.0
C13 C 0.13555 0.51151 0.10853 0.0
C14 C 0.07382 0.32754 0.14939 0.0
C15 C 0.94823 0.55663 0.1553 0.0
C16 C 0.88339 0.36477 0.19399 0.0
C17 C 0.864 0.35751 0.10638 0.0
C18 C 0.16255 0.53809 0.19636 0.0
O19 O 0.10082 0.48833 0.13005 0.0
O20 O 0.20535 0.52415 0.11126 0.0
O21 O 0.49281 0.11348 0.49516 0.0
Mn22 Mn 0.59552 0.11046 0.49795 0.0
O23 O 0.39504 0.98845 0.48254 0.0
Mn24 Mn 0.4539 0.9415 0.48359 0.0
O25 O 0.69755 0.10595 0.50076 0.0
O26 O 0.64911 0.21501 0.52247 0.0
Mn27 Mn 0.74138 0.27577 0.51276 0.0
O28 O 0.62678 0.16442 0.46204 0.0
O29 O 0.79577 0.22609 0.51927 0.0
O30 O 0.56696 0.05389 0.53408 0.0
O31 O 0.48246 0.9268 0.51804 0.0
O32 O 0.73139 0.33516 0.54148 0.0
O33 O 0.72644 0.28738 0.47578 0.0
C34 C 0.52279 0.95842 0.45045 0.0
C35 C 0.42039 0.0613 0.48847 0.0
C36 C 0.76908 0.15402 0.5108 0.0
C37 C 0.66446 0.27276 0.5412 0.0
C38 C 0.67826 0.23204 0.45677 0.0
C39 C 0.52707 0.9815 0.53775 0.0
O40 O 0.54145 0.00813 0.47261 0.0
O41 O 0.46032 0.89208 0.45088 0.0
O42 O 0.31962 0.45213 0.8276 0.0
Mn43 Mn 0.43529 0.54669 0.83403 0.0
O44 O 0.31966 0.34548 0.80982 0.0
Mn45 Mn 0.42391 0.39113 0.82108 0.0
O46 O 0.54901 0.64393 0.84089 0.0
O47 O 0.39715 0.60375 0.85681 0.0
Mn48 Mn 0.44131 0.70257 0.85434 0.0
O49 O 0.41687 0.5911 0.79833 0.0
O50 O 0.54412 0.73935 0.86734 0.0
O51 O 0.4601 0.51103 0.87084 0.0
O52 O 0.45274 0.39693 0.85852 0.0
O53 O 0.36297 0.67912 0.87694 0.0
O54 O 0.42436 0.70348 0.81628 0.0
C55 C 0.50282 0.45535 0.79447 0.0
C56 C 0.28394 0.37986 0.81673 0.0
C57 C 0.58211 0.71211 0.85575 0.0
C58 C 0.35016 0.609 0.87199 0.0
C59 C 0.41888 0.65567 0.79558 0.0
C60 C 0.46546 0.45281 0.87688 0.0
O61 O 0.47329 0.48576 0.81082 0.0
O62 O 0.48302 0.38365 0.79621 0.0
H63 H 0.84151 0.59909 0.14459 0.0
H64 H 0.86413 0.72995 0.14322 0.0
H65 H 0.11058 0.82671 0.16188 0.0
H66 H 0.08848 0.695 0.16327 0.0
H67 H 0.0553 0.90677 0.19427 0.0
H68 H 0.04168 0.81816 0.09815 0.0
H69 H 0.98563 0.72529 0.05429 0.0
H70 H 0.78088 0.74095 0.05174 0.0
H71 H 0.83521 0.83303 0.09588 0.0
H72 H 0.17891 0.28199 0.15816 0.0
H73 H 0.15436 0.15048 0.15928 0.0
H74 H 0.90806 0.05795 0.14433 0.0
H75 H 0.93205 0.19059 0.14333 0.0
H76 H 0.96243 0.97541 0.10993 0.0
H77 H 0.98012 0.06687 0.20685 0.0
H78 H 0.03957 0.15975 0.25067 0.0
H79 H 0.24148 0.1394 0.25115 0.0
H80 H 0.18374 0.04728 0.2071 0.0
C81 C 0.90066 0.64804 0.14846 0.0
C82 C 0.96326 0.63656 0.15411 0.0
C83 C 0.91343 0.72282 0.14751 0.0
C84 C 0.98899 0.78792 0.15227 0.0
C85 C 0.05179 0.77707 0.15811 0.0
C86 C 0.03911 0.70187 0.15877 0.0
C87 C 1.00157 0.86713 0.15138 0.0
C88 C 0.03605 0.92222 0.17572 0.0
C89 C 0.97475 0.88642 0.12733 0.0
C90 C 0.94225 0.832 0.1005 0.0
C91 C 0.98445 0.80139 0.08836 0.0
C92 C 0.95303 0.74893 0.06343 0.0
C93 C 0.87965 0.72707 0.05027 0.0
C94 C 0.83769 0.75787 0.06198 0.0
C95 C 0.8688 0.81028 0.08695 0.0
C96 C 0.11932 0.23393 0.15509 0.0
C97 C 0.05737 0.24699 0.15061 0.0
C98 C 0.1055 0.1587 0.15584 0.0
C99 C 0.02948 0.09456 0.15201 0.0
C100 C 0.96722 0.10685 0.14734 0.0
C101 C 0.981 0.1826 0.14691 0.0
C102 C 0.01602 0.01499 0.15287 0.0
C103 C 0.98148 0.95986 0.1285 0.0
C104 C 0.04327 0.99579 0.17684 0.0
C105 C 0.07791 0.05078 0.20348 0.0
C106 C 0.03748 0.08271 0.21616 0.0
C107 C 0.07082 0.13513 0.24107 0.0
C108 C 0.14438 0.15569 0.25362 0.0
C109 C 0.18457 0.12356 0.24137 0.0
C110 C 0.15154 0.07118 0.21644 0.0
H111 H 0.17025 0.19646 0.27285 0.0
H112 H 0.85541 0.68639 0.03098 0.0
H113 H 0.40737 0.15803 0.52847 0.0
H114 H 0.29321 0.17111 0.53195 0.0
H115 H 0.18584 0.02608 0.45188 0.0
H116 H 0.29842 0.01157 0.44863 0.0
H117 H 0.16265 0.15117 0.45858 0.0
H118 H 0.14358 0.94781 0.50597 0.0
H119 H 0.17697 0.88067 0.5394 0.0
H120 H 0.16074 0.02058 0.60803 0.0
H121 H 0.12871 0.08982 0.57504 0.0
H122 H 0.77223 0.04885 0.47159 0.0
H123 H 0.88116 0.02788 0.46686 0.0
H124 H 1.00323 0.18219 0.54428 0.0
H125 H 0.89569 0.20418 0.54887 0.0
H126 H 0.0144 0.04571 0.53744 0.0
H127 H 0.04111 0.25417 0.48635 0.0
H128 H 0.99715 0.3086 0.45063 0.0
H129 H 0.98537 0.13965 0.38626 0.0
H130 H 0.02793 0.08323 0.4217 0.0
C131 C 0.36015 0.13074 0.51136 0.0
C132 C 0.36136 0.08386 0.48827 0.0
C133 C 0.29483 0.13759 0.51347 0.0
C134 C 0.23074 0.09868 0.49232 0.0
C135 C 0.23449 0.05636 0.46843 0.0
C136 C 0.29877 0.0482 0.46659 0.0
C137 C 0.15777 0.09778 0.49564 0.0
C138 C 0.13004 0.12768 0.47574 0.0
C139 C 0.11483 0.06629 0.51791 0.0
C140 C 0.13609 0.02597 0.53794 0.0
C141 C 0.14888 0.96572 0.52818 0.0
C142 C 0.16706 0.92682 0.54707 0.0
C143 C 0.17144 0.94667 0.57582 0.0
C144 C 0.15766 1.00548 0.58575 0.0
C145 C 0.1397 0.04475 0.56694 0.0
C146 C 0.82151 0.0766 0.48791 0.0
C147 C 0.82582 0.12829 0.51056 0.0
C148 C 0.88381 0.06512 0.48508 0.0
C149 C 0.95049 0.10431 0.50507 0.0
C150 C 0.95241 0.15166 0.52861 0.0
C151 C 0.891 0.16416 0.53119 0.0
C152 C 0.02065 0.10069 0.50082 0.0
C153 C 0.04756 0.06957 0.52044 0.0
C154 C 0.06206 0.12965 0.47804 0.0
C155 C 0.0368 0.16386 0.45674 0.0
C156 C 0.02841 0.2281 0.46463 0.0
C157 C 1.00385 0.2594 0.44442 0.0
C158 C 0.98825 0.22745 0.4162 0.0
C159 C 0.99731 0.16422 0.40813 0.0
C160 C 0.02164 0.13256 0.42827 0.0
H161 H 0.9694 0.25184 0.40058 0.0
H162 H 0.18468 0.91589 0.59039 0.0
H163 H 0.66094 0.72772 0.81111 0.0
H164 H 0.78051 0.84441 0.80411 0.0
H165 H 0.80798 0.94405 0.89 0.0
H166 H 0.68615 0.82878 0.89657 0.0
H167 H 0.8214 0.04483 0.85878 0.0
H168 H 0.93078 0.88213 0.86238 0.0
H169 H 0.94109 0.76626 0.84968 0.0
H170 H 0.96371 0.81464 0.76512 0.0
H171 H 0.95135 0.92951 0.77708 0.0
H172 H 0.20319 0.37181 0.85997 0.0
H173 H 0.07867 0.26029 0.86585 0.0
H174 H 0.0526 0.15811 0.7806 0.0
H175 H 0.17888 0.26892 0.77498 0.0
H176 H 0.0382 0.05909 0.8121 0.0
H177 H 0.92948 0.22563 0.81012 0.0
H178 H 0.92762 0.3453 0.82525 0.0
H179 H 0.91188 0.29319 0.90949 0.0
H180 H 0.91406 0.17345 0.89491 0.0
C181 C 0.69404 0.77323 0.82879 0.0
C182 C 0.66452 0.76906 0.85444 0.0
C183 C 0.76237 0.84032 0.82474 0.0
C184 C 0.80359 0.90352 0.84652 0.0
C185 C 0.77704 0.89659 0.87279 0.0
C186 C 0.70793 0.8303 0.87665 0.0
C187 C 0.8702 0.97909 0.84132 0.0
C188 C 0.86932 0.048 0.84887 0.0
C189 C 0.93201 0.98343 0.82782 0.0
C190 C 0.9393 0.91408 0.82058 0.0
C191 C 0.9371 0.86761 0.841 0.0
C192 C 0.94327 0.80204 0.83392 0.0
C193 C 0.95254 0.78279 0.80656 0.0
C194 C 0.95594 0.82924 0.78625 0.0
C195 C 0.94934 0.89459 0.79317 0.0
C196 C 0.16909 0.32751 0.84209 0.0
C197 C 0.20002 0.3293 0.81692 0.0
C198 C 0.09801 0.26306 0.84557 0.0
C199 C 0.056 0.19997 0.82384 0.0
C200 C 0.08398 0.20543 0.79783 0.0
C201 C 0.15566 0.26917 0.79449 0.0
C202 C 0.98892 0.12479 0.82914 0.0
C203 C 0.98994 0.05591 0.82177 0.0
C204 C 0.92764 0.12067 0.843 0.0
C205 C 0.92251 0.19078 0.85143 0.0
C206 C 0.92565 0.23969 0.83187 0.0
C207 C 0.92451 0.30754 0.84035 0.0
C208 C 0.91971 0.32687 0.86832 0.0
C209 C 0.91536 0.27804 0.88781 0.0
C210 C 0.91624 0.21001 0.87942 0.0
H211 H 0.91931 0.37966 0.87487 0.0
H212 H 0.95739 0.73206 0.80112 0.0
H213 H 0.36568 0.53538 0.91362 0.0
H214 H 0.26801 0.46864 0.94394 0.0
H215 H 0.0957 0.47071 0.88638 0.0
H216 H 0.19595 0.54336 0.85719 0.0
H217 H 0.09934 0.53853 0.93179 0.0
H218 H 0.06511 0.2876 0.91197 0.0
H219 H 0.1011 0.18814 0.90105 0.0
H220 H 0.24794 0.26811 0.9799 0.0
H221 H 0.21255 0.3675 0.99112 0.0
H222 H 0.01734 0.3791 0.07834 0.0
H223 H 0.98597 0.35521 0.02747 0.0
H224 H 0.15001 0.59849 0.02444 0.0
H225 H 0.17628 0.62285 0.07527 0.0
H226 H 0.08625 0.36182 -0.00094 0.0
H227 H 0.14599 0.6581 0.96516 0.0
H228 H 0.10609 0.75406 0.97552 0.0
H229 H 0.89828 0.57906 0.00288 0.0
H230 H 0.93617 0.48097 -0.00769 0.0
C231 C 0.30616 0.51831 0.90689 0.0
C232 C 0.28785 0.54424 0.8833 0.0
C233 C 0.24977 0.47945 0.92414 0.0
C234 C 0.1738 0.46437 0.91763 0.0
C235 C 0.15379 0.48214 0.89207 0.0
C236 C 0.21083 0.52316 0.8753 0.0
C237 C 0.1229 0.44812 0.94007 0.0
C238 C 0.09495 0.49862 0.94621 0.0
C239 C 0.1146 0.39462 0.9586 0.0
C240 C 0.13631 0.335 0.95219 0.0
C241 C 0.10535 0.28398 0.92679 0.0
C242 C 0.12552 0.22765 0.92061 0.0
C243 C 0.17705 0.22209 0.93972 0.0
C244 C 0.20803 0.27247 0.96511 0.0
C245 C 0.18757 0.32852 0.97143 0.0
C246 C 0.04187 0.42841 0.0669 0.0
C247 C 0.09689 0.50342 0.08068 0.0
C248 C 0.0251 0.41449 0.03773 0.0
C249 C 0.06526 0.47491 0.02189 0.0
C250 C 0.11619 0.55107 0.03594 0.0
C251 C 0.13164 0.56515 0.06509 0.0
C252 C 0.06842 0.45649 0.99173 0.0
C253 C 0.08742 0.39948 0.98415 0.0
C254 C 0.06798 0.50379 0.97183 0.0
C255 C 0.04396 0.56195 0.97791 0.0
C256 C 0.09134 0.63959 0.97314 0.0
C257 C 0.06921 0.69444 0.97915 0.0
C258 C 0.99976 0.67251 0.98994 0.0
C259 C 0.95228 0.5957 -0.00528 0.0
C260 C 0.97399 0.54045 0.9887 0.0
H261 H 0.98265 0.71502 -0.00542 0.0
H262 H 0.19281 0.17863 0.93488 0.0
H263 H 0.73579 0.36754 0.43443 0.0
H264 H 0.78932 0.3924 0.39016 0.0
H265 H 0.71286 0.14834 0.36974 0.0
H266 H 0.66192 0.12411 0.41443 0.0
H267 H 0.8621 0.23859 0.36271 0.0
H268 H 0.62503 0.22727 0.33449 0.0
H269 H 0.52226 0.25881 0.33748 0.0
H270 H 0.68655 0.49961 0.33332 0.0
H271 H 0.79065 0.46968 0.33069 0.0
H272 H 0.84652 0.22852 0.21213 0.0
H273 H 0.84096 0.2111 0.26144 0.0
H274 H 0.97271 0.46094 0.28535 0.0
H275 H 0.98056 0.47826 0.236 0.0
H276 H 0.80639 0.37477 0.29244 0.0
H277 H 0.04075 0.37634 0.31447 0.0
H278 H 0.13784 0.33742 0.31017 0.0
H279 H 0.97171 0.10512 0.3236 0.0
H280 H 0.87293 0.14202 0.32738 0.0
C281 C 0.72851 0.31885 0.42013 0.0
C282 C 0.69282 0.24336 0.42759 0.0
C283 C 0.75936 0.33314 0.39489 0.0
C284 C 0.75503 0.27219 0.37661 0.0
C285 C 0.71678 0.19622 0.38351 0.0
C286 C 0.68593 0.18197 0.40877 0.0
C287 C 0.79357 0.28861 0.35096 0.0
C288 C 0.84935 0.26751 0.34712 0.0
C289 C 0.77819 0.32802 0.33105 0.0
C290 C 0.71583 0.34638 0.33271 0.0
C291 C 0.63942 0.28709 0.33448 0.0
C292 C 0.58089 0.30465 0.33605 0.0
C293 C 0.59792 0.38122 0.33568 0.0
C294 C 0.67349 0.44035 0.33366 0.0
C295 C 0.73227 0.42312 0.3321 0.0
C296 C 0.87897 0.2794 0.22802 0.0
C297 C 0.91437 0.35461 0.22047 0.0
C298 C 0.87532 0.26948 0.25619 0.0
C299 C 0.9057 0.33477 0.27695 0.0
C300 C 0.94926 0.40989 0.26959 0.0
C301 C 0.95434 0.41972 0.24142 0.0
C302 C 0.87497 0.32479 0.30412 0.0
C303 C 0.81994 0.34663 0.30816 0.0
C304 C 0.89019 0.28483 0.32383 0.0
C305 C 0.94897 0.26181 0.32087 0.0
C306 C 0.02441 0.31661 0.31608 0.0
C307 C 0.0799 0.29496 0.31383 0.0
C308 C 0.06089 0.21881 0.31656 0.0
C309 C 0.9863 0.16406 0.32145 0.0
C310 C 0.93053 0.18533 0.32365 0.0
H311 H 0.10403 0.20228 0.315 0.0
H312 H 0.55251 0.39469 0.33689 0.0
H313 H 0.38232 0.57322 0.74176 0.0
H314 H 0.40203 0.62843 0.69752 0.0
H315 H 0.49594 0.85871 0.74376 0.0
H316 H 0.47409 0.80495 0.7869 0.0
H317 H 0.40987 0.8495 0.70248 0.0
H318 H 0.61186 0.78061 0.71186 0.0
H319 H 0.67513 0.70272 0.71093 0.0
H320 H 0.53448 0.56778 0.6332 0.0
H321 H 0.46994 0.64428 0.63382 0.0
H322 H 0.57935 0.07058 0.59063 0.0
H323 H 0.56677 0.02056 0.63587 0.0
H324 H 0.4603 0.78573 0.59204 0.0
H325 H 0.47645 0.83441 0.54795 0.0
H326 H 0.5545 0.80167 0.63255 0.0
H327 H 0.35748 0.87097 0.62055 0.0
H328 H 0.31541 0.9652 0.61444 0.0
H329 H 0.44595 0.09955 0.69357 0.0
H330 H 0.49051 0.00715 0.69985 0.0
C331 C 0.4066 0.63541 0.74232 0.0
C332 C 0.42562 0.6841 0.76797 0.0
C333 C 0.41849 0.66717 0.71707 0.0
C334 C 0.45103 0.74821 0.7172 0.0
C335 C 0.46994 0.79613 0.74284 0.0
C336 C 0.4571 0.76474 0.76769 0.0
C337 C 0.46567 0.78503 0.69114 0.0
C338 C 0.44191 0.83909 0.68729 0.0
C339 C 0.50607 0.77113 0.67084 0.0
C340 C 0.53581 0.7177 0.67302 0.0
C341 C 0.59329 0.73318 0.69493 0.0
C342 C 0.62981 0.68971 0.6943 0.0
C343 C 0.60925 0.63094 0.67182 0.0
C344 C 0.55041 0.61353 0.65048 0.0
C345 C 0.51382 0.65675 0.651 0.0
C346 C 0.55468 0.00865 0.59083 0.0
C347 C 0.52842 0.95676 0.56562 0.0
C348 C 0.54664 0.97995 0.61662 0.0
C349 C 0.51144 0.89907 0.61735 0.0
C350 C 0.48758 0.84821 0.59217 0.0
C351 C 0.49656 0.87653 0.5668 0.0
C352 C 0.49809 0.86484 0.64382 0.0
C353 C 0.52214 0.81158 0.64775 0.0
C354 C 0.45704 0.87867 0.66384 0.0
C355 C 0.42792 0.93254 0.66054 0.0
C356 C 0.37745 0.92076 0.6366 0.0
C357 C 0.35317 0.97385 0.6331 0.0
C358 C 0.37792 0.0383 0.65359 0.0
C359 C 0.42687 0.04964 0.67769 0.0
C360 C 0.45172 0.99697 0.68123 0.0
H361 H 0.35915 0.0794 0.6508 0.0
H362 H 0.63895 0.59895 0.6707 0.0
H363 H 0.58834 0.57363 0.91133 0.0
H364 H 0.6595 0.56192 0.95209 0.0
H365 H 0.48311 0.31882 0.94654 0.0
H366 H 0.41295 0.32983 0.90559 0.0
H367 H 0.54887 0.40558 0.00377 0.0
H368 H 0.62658 0.34428 0.915 0.0
H369 H 0.67244 0.37655 0.86932 0.0
H370 H 0.8705 0.59231 0.91003 0.0
H371 H 0.82458 0.56182 0.95577 0.0
H372 H 0.72943 0.2425 0.07489 0.0
H373 H 0.66332 0.26015 0.03427 0.0
H374 H 0.86377 0.48796 0.03392 0.0
H375 H 0.92991 0.47043 0.07381 0.0
H376 H 0.79043 0.41801 0.98044 0.0
H377 H 0.72785 0.47596 0.06917 0.0
H378 H 0.68675 0.45066 0.11578 0.0
H379 H 0.46518 0.25709 0.07778 0.0
H380 H 0.50556 0.28047 0.0309 0.0
C381 C 0.5635 0.51859 0.9195 0.0
C382 C 0.4954 0.45257 0.90543 0.0
C383 C 0.60439 0.51179 0.94256 0.0
C384 C 0.57679 0.43927 0.95202 0.0
C385 C 0.50526 0.37518 0.9395 0.0
C386 C 0.46525 0.38156 0.9162 0.0
C387 C 0.62593 0.42734 0.97268 0.0
C388 C 0.60144 0.40783 -0.00131 0.0
C389 C 0.69534 0.43213 0.9662 0.0
C390 C 0.72261 0.45062 0.93875 0.0
C391 C 0.67978 0.39865 0.91414 0.0
C392 C 0.70566 0.41666 0.88824 0.0
C393 C 0.77445 0.48635 0.88677 0.0
C394 C 0.81738 0.53823 0.91119 0.0
C395 C 0.79157 0.52055 0.9371 0.0
C396 C 0.76064 0.29458 0.06518 0.0
C397 C 0.83551 0.35426 0.07714 0.0
C398 C 0.72263 0.30504 0.0422 0.0
C399 C 0.75846 0.37588 0.03123 0.0
C400 C 0.8355 0.43253 0.04165 0.0
C401 C 0.87369 0.42191 0.0644 0.0
C402 C 0.71293 0.39497 0.01154 0.0
C403 C 0.7382 0.41611 0.98572 0.0
C404 C 0.64497 0.3932 0.01845 0.0
C405 C 0.62001 0.37943 0.04655 0.0
C406 C 0.67057 0.42762 0.07076 0.0
C407 C 0.64739 0.41368 0.09723 0.0
C408 C 0.57345 0.35217 0.09975 0.0
C409 C 0.52248 0.30463 0.07579 0.0
C410 C 0.54547 0.31821 0.04926 0.0
H411 H 0.55558 0.34145 0.12026 0.0
H412 H 0.79442 0.50018 0.86671 0.0
H413 H 0.12311 0.62837 0.22897 0.0
H414 H 0.20328 0.7224 0.27104 0.0
H415 H 0.36411 0.64091 0.26794 0.0
H416 H 0.28496 0.54797 0.22641 0.0
H417 H 0.33472 0.66237 0.32053 0.0
H418 H 0.40009 0.80302 0.24092 0.0
H419 H 0.36939 0.85098 0.19965 0.0
H420 H 0.29052 0.97501 0.25141 0.0
H421 H 0.31978 0.92685 0.29295 0.0
H422 H 0.61366 0.92103 0.42205 0.0
H423 H 0.57641 0.87265 0.37196 0.0
H424 H 0.43553 0.97752 0.36754 0.0
H425 H 0.47805 0.03105 0.41688 0.0
H426 H 0.45632 0.94656 0.31713 0.0
H427 H 0.36547 0.79037 0.39332 0.0
H428 H 0.37922 0.73295 0.43482 0.0
H429 H 0.4943 0.63523 0.39025 0.0
H430 H 0.48008 0.69104 0.34838 0.0
C431 C 0.17447 0.62943 0.23785 0.0
C432 C 0.19816 0.58128 0.22462 0.0
C433 C 0.22068 0.68367 0.26153 0.0
C434 C 0.29038 0.68951 0.2722 0.0
C435 C 0.31098 0.63781 0.25993 0.0
C436 C 0.26558 0.58456 0.2363 0.0
C437 C 0.34348 0.74971 0.29587 0.0
C438 C 0.36197 0.72451 0.31963 0.0
C439 C 0.37777 0.83071 0.29487 0.0
C440 C 0.36139 0.86068 0.26999 0.0
C441 C 0.37571 0.84008 0.24347 0.0
C442 C 0.35864 0.86737 0.22004 0.0
C443 C 0.3278 0.91582 0.22289 0.0
C444 C 0.31429 0.93737 0.24922 0.0
C445 C 0.33117 0.91015 0.27272 0.0
C446 C 0.57997 0.93906 0.40984 0.0
C447 C 0.54745 0.97835 0.42324 0.0
C448 C 0.5571 0.90987 0.38132 0.0
C449 C 0.4992 0.91721 0.36649 0.0
C450 C 0.47872 0.96929 0.37865 0.0
C451 C 0.50382 1.00074 0.40691 0.0
C452 C 0.44841 0.85911 0.34175 0.0
C453 C 0.42973 0.88447 0.31789 0.0
C454 C 0.41266 0.77774 0.34268 0.0
C455 C 0.42258 0.74556 0.36794 0.0
C456 C 0.39401 0.75692 0.39247 0.0
C457 C 0.40171 0.72454 0.416 0.0
C458 C 0.43816 0.68105 0.41524 0.0
C459 C 0.46636 0.6692 0.39085 0.0
C460 C 0.45822 0.70088 0.36719 0.0
H461 H 0.44423 0.65623 0.4335 0.0
H462 H 0.31453 0.93681 0.20472 0.0
H463 H 0.63024 0.45434 0.78413 0.0
H464 H 0.66135 0.44311 0.73754 0.0
H465 H 0.5141 0.52779 0.70809 0.0
H466 H 0.47763 0.53198 0.75507 0.0
H467 H 0.47022 0.40753 0.67777 0.0
H468 H 0.72854 0.61517 0.70644 0.0
H469 H 0.85614 0.69607 0.73455 0.0
H470 H 0.90014 0.5084 0.72133 0.0
H471 H 0.77185 0.42547 0.69326 0.0
H472 H 0.58046 0.3427 0.54166 0.0
H473 H 0.55122 0.39214 0.58443 0.0
H474 H 0.61939 0.25932 0.63165 0.0
H475 H 0.64885 0.21037 0.58887 0.0
H476 H 0.70785 0.42488 0.64804 0.0
H477 H 0.43763 0.21595 0.62419 0.0
H478 H 0.31595 0.14489 0.59154 0.0
H479 H 0.30446 0.35313 0.59391 0.0
H480 H 0.42725 0.42604 0.62598 0.0
C481 C 0.60793 0.47481 0.76803 0.0
C482 C 0.55104 0.49321 0.77298 0.0
C483 C 0.62598 0.46855 0.74111 0.0
C484 C 0.59064 0.48474 0.71879 0.0
C485 C 0.54228 0.51457 0.72474 0.0
C486 C 0.52242 0.51864 0.75176 0.0
C487 C 0.59338 0.45704 0.68946 0.0
C488 C 0.523 0.4133 0.67125 0.0
C489 C 0.66181 0.46345 0.68056 0.0
C490 C 0.7399 0.51385 0.69739 0.0
C491 C 0.76501 0.5908 0.70933 0.0
C492 C 0.8377 0.63715 0.7254 0.0
C493 C 0.88641 0.60754 0.72971 0.0
C494 C 0.86244 0.53142 0.71791 0.0
C495 C 0.78969 0.48473 0.70183 0.0
C496 C 0.58475 0.32067 0.56092 0.0
C497 C 0.61493 0.27134 0.56204 0.0
C498 C 0.56906 0.34968 0.58537 0.0
C499 C 0.58409 0.33006 0.61119 0.0
C500 C 0.60764 0.27523 0.61188 0.0
C501 C 0.62285 0.24592 0.5874 0.0
C502 C 0.5849 0.37366 0.63769 0.0
C503 C 0.65603 0.42071 0.65495 0.0
C504 C 0.51803 0.37194 0.64545 0.0
C505 C 0.4423 0.3268 0.6272 0.0
C506 C 0.40947 0.24677 0.61761 0.0
C507 C 0.34018 0.20609 0.59922 0.0
C508 C 0.30257 0.24455 0.59061 0.0
C509 C 0.33378 0.32352 0.60055 0.0
C510 C 0.40326 0.36456 0.61881 0.0
H511 H 0.24938 0.21344 0.57619 0.0
H512 H 0.94264 0.64354 0.74221 0.0
loop_
_geom_bond_atom_site_label_1
_geom_bond_atom_site_label_2
_geom_bond_distance
_geom_bond_site_symmetry_2
_ccdc_geom_bond_type
O0 Mn1 2.163 1_655 S
O0 C14 1.244 1_655 S
Mn1 O0 2.163 1_455 S
Mn1 O4 2.160 . S
Mn1 O5 2.221 1_455 S
Mn1 O7 2.163 1_455 S
Mn1 O9 2.160 . S
Mn1 O19 2.221 . S
O2 Mn3 2.087 . S
O2 C14 1.256 . S
Mn3 O2 2.087 . S
Mn3 O10 2.089 . S
Mn3 O19 2.290 . S
Mn3 O20 2.251 . S
O4 Mn1 2.160 . S
O4 C15 1.239 1_455 S
O5 Mn1 2.221 1_655 S
O5 Mn6 2.290 . S
O5 C16 1.278 . S
Mn6 O5 2.290 . S
Mn6 O8 2.089 . S
Mn6 O11 2.251 . S
Mn6 O12 2.087 . S
O7 Mn1 2.163 1_655 S
O7 C17 1.244 . S
O8 Mn6 2.089 . S
O8 C15 1.256 . S
O9 Mn1 2.160 . S
O9 C18 1.239 . S
O10 Mn3 2.089 . S
O10 C18 1.256 . S
O11 Mn6 2.251 . S
O11 C16 1.241 . S
O12 Mn6 2.087 . S
O12 C17 1.256 . S
C13 O19 1.278 . S
C13 O20 1.241 . S
C14 O0 1.244 1_455 S
C14 O2 1.256 . S
C15 O4 1.239 1_655 S
C15 O8 1.256 . S
C16 O5 1.278 . S
C16 O11 1.241 . S
C17 O7 1.244 . S
C17 O12 1.256 . S
C18 O9 1.239 . S
C18 O10 1.256 . S
O19 Mn1 2.221 . S
O19 Mn3 2.290 . S
O19 C13 1.278 . S
O20 Mn3 2.251 . S
O20 C13 1.241 . S
O21 Mn22 2.163 . S
O21 C35 1.244 1_545 S
Mn22 O21 2.163 . S
Mn22 O25 2.160 . S
Mn22 O26 2.221 . S
Mn22 O28 2.163 . S
Mn22 O30 2.160 1_545 S
Mn22 O40 2.221 1_545 S
O23 Mn24 2.087 . S
O23 C35 1.256 . S
Mn24 O23 2.087 . S
Mn24 O31 2.089 . S
Mn24 O40 2.290 . S
Mn24 O41 2.251 . S
O25 Mn22 2.160 . S
O25 C36 1.239 . S
O26 Mn22 2.221 . S
O26 Mn27 2.290 . S
O26 C37 1.278 . S
Mn27 O26 2.290 . S
Mn27 O29 2.089 . S
Mn27 O32 2.251 . S
Mn27 O33 2.087 . S
O28 Mn22 2.163 . S
O28 C38 1.244 . S
O29 Mn27 2.089 . S
O29 C36 1.256 . S
O30 Mn22 2.160 1_565 S
O30 C39 1.239 . S
O31 Mn24 2.089 . S
O31 C39 1.256 . S
O32 Mn27 2.251 . S
O32 C37 1.241 . S
O33 Mn27 2.087 . S
O33 C38 1.256 . S
C34 O40 1.278 . S
C34 O41 1.241 . S
C35 O21 1.244 1_565 S
C35 O23 1.256 . S
C36 O25 1.239 . S
C36 O29 1.256 . S
C37 O26 1.278 . S
C37 O32 1.241 . S
C38 O28 1.244 . S
C38 O33 1.256 . S
C39 O30 1.239 . S
C39 O31 1.256 . S
O40 Mn22 2.221 1_565 S
O40 Mn24 2.290 . S
O40 C34 1.278 . S
O41 Mn24 2.251 . S
O41 C34 1.241 . S
O42 Mn43 2.163 . S
O42 C56 1.244 . S
Mn43 O42 2.163 . S
Mn43 O46 2.160 . S
Mn43 O47 2.221 . S
Mn43 O49 2.163 . S
Mn43 O51 2.160 . S
Mn43 O61 2.221 . S
O44 Mn45 2.087 . S
O44 C56 1.256 . S
Mn45 O44 2.087 . S
Mn45 O52 2.089 . S
Mn45 O61 2.290 . S
Mn45 O62 2.251 . S
O46 Mn43 2.160 . S
O46 C57 1.239 . S
O47 Mn43 2.221 . S
O47 Mn48 2.290 . S
O47 C58 1.278 . S
Mn48 O47 2.290 . S
Mn48 O50 2.089 . S
Mn48 O53 2.251 . S
Mn48 O54 2.087 . S
O49 Mn43 2.163 . S
O49 C59 1.244 . S
O50 Mn48 2.089 . S
O50 C57 1.256 . S
O51 Mn43 2.160 . S
O51 C60 1.239 . S
O52 Mn45 2.089 . S
O52 C60 1.256 . S
O53 Mn48 2.251 . S
O53 C58 1.241 . S
O54 Mn48 2.087 . S
O54 C59 1.256 . S
C55 O61 1.278 . S
C55 O62 1.241 . S
C56 O42 1.244 . S
C56 O44 1.256 . S
C57 O46 1.239 . S
C57 O50 1.256 . S
C58 O47 1.278 . S
C58 O53 1.241 . S
C59 O49 1.244 . S
C59 O54 1.256 . S
C60 O51 1.239 . S
C60 O52 1.256 . S
O61 Mn43 2.221 . S
O61 Mn45 2.290 . S
O61 C55 1.278 . S
O62 Mn45 2.251 . S
O62 C55 1.241 . S
H63 C81 0.951 . S
H64 C83 0.951 . S
H65 C85 0.950 . S
H66 C86 0.950 . S
H67 C88 0.951 1_655 S
H68 C91 0.950 . S
H69 C92 0.950 . S
H70 C94 0.950 1_655 S
H71 C95 0.950 1_655 S
H72 C96 0.951 . S
H73 C98 0.951 . S
H74 C100 0.950 . S
H75 C101 0.950 . S
H76 C103 0.950 . S
H77 C106 0.950 . S
H78 C107 0.950 . S
H79 C109 0.943 1_455 S
H80 C110 0.950 . S
C81 H63 0.951 . S
C81 C82 1.366 1_655 S
C81 C83 1.388 . S
C82 C81 1.366 1_455 S
C82 C86 1.385 . S
C83 H64 0.951 . S
C83 C81 1.388 . S
C83 C84 1.366 1_655 S
C84 C83 1.366 1_455 S
C84 C85 1.414 . S
C84 C87 1.499 . S
C85 H65 0.950 . S
C85 C84 1.414 . S
C85 C86 1.374 . S
C86 H66 0.950 . S
C86 C82 1.385 . S
C86 C85 1.374 . S
C87 C84 1.499 . S
C87 C88 1.373 . S
C87 C89 1.389 . S
C88 H67 0.951 1_455 S
C88 C87 1.373 . S
C88 C104 1.376 1_465 S
C89 C87 1.389 . S
C89 C90 1.524 . S
C89 C103 1.377 1_565 S
C90 C89 1.524 . S
C90 C91 1.397 . S
C90 C95 1.363 . S
C91 H68 0.950 . S
C91 C90 1.397 . S
C91 C92 1.334 . S
C92 H69 0.950 . S
C92 C91 1.334 . S
C92 C93 1.287 . S
C93 C92 1.287 . S
C93 C94 1.524 . S
C93 H112 0.913 . S
C94 H70 0.950 1_455 S
C94 C93 1.524 . S
C94 C95 1.415 . S
C95 H71 0.950 1_455 S
C95 C90 1.363 . S
C95 C94 1.415 . S
C96 H72 0.951 . S
C96 C97 1.366 . S
C96 C98 1.388 . S
C97 C96 1.366 . S
C97 C101 1.385 1_455 S
C98 H73 0.951 . S
C98 C96 1.388 . S
C98 C99 1.366 . S
C99 C98 1.366 . S
C99 C100 1.414 1_455 S
C99 C102 1.499 . S
C100 H74 0.950 . S
C100 C99 1.414 1_655 S
C100 C101 1.374 . S
C101 H75 0.950 . S
C101 C97 1.385 1_655 S
C101 C100 1.374 . S
C102 C99 1.499 . S
C102 C103 1.373 . S
C102 C104 1.389 1_455 S
C103 H76 0.950 . S
C103 C89 1.377 1_545 S
C103 C102 1.373 . S
C104 C88 1.376 1_645 S
C104 C102 1.389 1_655 S
C104 C105 1.525 . S
C105 C104 1.525 . S
C105 C106 1.397 . S
C105 C110 1.363 1_655 S
C106 H77 0.950 . S
C106 C105 1.397 . S
C106 C107 1.334 . S
C107 H78 0.950 . S
C107 C106 1.334 . S
C107 C108 1.287 . S
C108 C107 1.287 . S
C108 C109 1.539 . S
C108 H111 0.999 . S
C109 H79 0.943 1_655 S
C109 C108 1.539 . S
C109 C110 1.408 1_655 S
C110 H80 0.950 . S
C110 C105 1.363 1_455 S
C110 C109 1.408 1_455 S
H111 C108 0.999 . S
H112 C93 0.913 . S
H113 C131 0.951 1_565 S
H114 C133 0.951 1_565 S
H115 C135 0.950 . S
H116 C136 0.950 . S
H117 C138 0.950 . S
H118 C141 0.950 . S
H119 C142 0.950 . S
H120 C144 0.950 1_655 S
H121 C145 0.950 1_655 S
H122 C146 0.951 . S
H123 C148 0.951 . S
H124 C150 0.950 . S
H125 C151 0.950 . S
H126 C153 0.950 . S
H127 C156 0.950 . S
H128 C157 0.950 . S
H129 C159 0.950 . S
H130 C160 0.950 . S
C131 H113 0.951 1_545 S
C131 C132 1.366 . S
C131 C133 1.388 . S
C132 C131 1.366 . S
C132 C136 1.385 . S
C133 H114 0.951 1_545 S
C133 C131 1.388 . S
C133 C134 1.366 . S
C134 C133 1.366 . S
C134 C135 1.414 . S
C134 C137 1.499 . S
C135 H115 0.950 . S
C135 C134 1.414 . S
C135 C136 1.374 . S
C136 H116 0.950 . S
C136 C132 1.385 . S
C136 C135 1.374 . S
C137 C134 1.499 . S
C137 C138 1.373 . S
C137 C139 1.389 1_545 S
C138 H117 0.950 . S
C138 C137 1.373 . S
C138 C154 1.377 . S
C139 C137 1.389 1_565 S
C139 C140 1.524 . S
C139 C153 1.377 1_455 S
C140 C139 1.524 . S
C140 C141 1.397 . S
C140 C145 1.363 . S
C141 H118 0.950 . S
C141 C140 1.397 . S
C141 C142 1.334 . S
C142 H119 0.950 . S
C142 C141 1.334 . S
C142 C143 1.287 . S
C143 C142 1.287 . S
C143 C144 1.524 . S
C143 H162 0.913 . S
C144 H120 0.950 1_455 S
C144 C143 1.524 . S
C144 C145 1.415 . S
C145 H121 0.950 1_455 S
C145 C140 1.363 . S
C145 C144 1.415 . S
C146 H122 0.951 . S
C146 C147 1.366 . S
C146 C148 1.388 . S
C147 C146 1.366 . S
C147 C151 1.385 . S
C148 H123 0.951 . S
C148 C146 1.388 . S
C148 C149 1.366 . S
C149 C148 1.366 . S
C149 C150 1.414 . S
C149 C152 1.499 . S
C150 H124 0.950 . S
C150 C149 1.414 . S
C150 C151 1.374 . S
C151 H125 0.950 . S
C151 C147 1.385 . S
C151 C150 1.374 . S
C152 C149 1.499 . S
C152 C153 1.373 1_545 S
C152 C154 1.389 1_655 S
C153 H126 0.950 . S
C153 C139 1.377 1_655 S
C153 C152 1.373 1_565 S
C154 C138 1.377 . S
C154 C152 1.389 1_455 S
C154 C155 1.524 . S
C155 C154 1.524 . S
C155 C156 1.397 . S
C155 C160 1.363 . S
C156 H127 0.950 . S
C156 C155 1.397 . S
C156 C157 1.334 . S
C157 H128 0.950 . S
C157 C156 1.334 . S
C157 C158 1.287 . S
C158 C157 1.287 . S
C158 C159 1.524 . S
C158 H161 0.999 . S
C159 H129 0.950 . S
C159 C158 1.524 . S
C159 C160 1.415 . S
C160 H130 0.950 . S
C160 C155 1.363 . S
C160 C159 1.415 . S
H161 C158 0.999 . S
H162 C143 0.913 . S
H163 C181 0.951 . S
H164 C183 0.951 . S
H165 C185 0.950 . S
H166 C186 0.950 . S
H167 C188 0.950 . S
H168 C191 0.950 . S
H169 C192 0.950 . S
H170 C194 0.950 . S
H171 C195 0.950 . S
H172 C196 0.951 . S
H173 C198 0.951 . S
H174 C200 0.950 . S
H175 C201 0.950 . S
H176 C203 0.950 . S
H177 C206 0.950 . S
H178 C207 0.950 . S
H179 C209 0.950 . S
H180 C210 0.950 . S
C181 H163 0.951 . S
C181 C182 1.366 . S
C181 C183 1.388 . S
C182 C181 1.366 . S
C182 C186 1.385 . S
C183 H164 0.951 . S
C183 C181 1.388 . S
C183 C184 1.366 . S
C184 C183 1.366 . S
C184 C185 1.414 . S
C184 C187 1.499 . S
C185 H165 0.950 . S
C185 C184 1.414 . S
C185 C186 1.374 . S
C186 H166 0.950 . S
C186 C182 1.385 . S
C186 C185 1.374 . S
C187 C184 1.499 . S
C187 C188 1.373 1_565 S
C187 C189 1.393 1_565 S
C188 H167 0.950 . S
C188 C187 1.373 1_545 S
C188 C204 1.377 . S
C189 C187 1.393 1_545 S
C189 C190 1.515 1_545 S
C189 C203 1.382 1_655 S
C190 C189 1.515 1_565 S
C190 C191 1.397 . S
C190 C195 1.363 . S
C191 H168 0.950 . S
C191 C190 1.397 . S
C191 C192 1.334 . S
C192 H169 0.950 . S
C192 C191 1.334 . S
C192 C193 1.287 . S
C193 C192 1.287 . S
C193 C194 1.524 . S
C193 H212 0.913 . S
C194 H170 0.950 . S
C194 C193 1.524 . S
C194 C195 1.415 . S
C195 H171 0.950 . S
C195 C190 1.363 . S
C195 C194 1.415 . S
C196 H172 0.951 . S
C196 C197 1.366 . S
C196 C198 1.388 . S
C197 C196 1.366 . S
C197 C201 1.385 . S
C198 H173 0.951 . S
C198 C196 1.388 . S
C198 C199 1.366 . S
C199 C198 1.366 . S
C199 C200 1.414 . S
C199 C202 1.499 . S
C200 H174 0.950 . S
C200 C199 1.414 . S
C200 C201 1.374 . S
C201 H175 0.950 . S
C201 C197 1.385 . S
C201 C200 1.374 . S
C202 C199 1.499 . S
C202 C203 1.373 . S
C202 C204 1.389 1_455 S
C203 H176 0.950 . S
C203 C189 1.382 1_455 S
C203 C202 1.373 . S
C204 C188 1.377 . S
C204 C202 1.389 1_655 S
C204 C205 1.524 . S
C205 C204 1.524 . S
C205 C206 1.397 1_655 S
C205 C210 1.363 . S
C206 H177 0.950 . S
C206 C205 1.397 1_455 S
C206 C207 1.334 . S
C207 H178 0.950 . S
C207 C206 1.334 . S
C207 C208 1.287 1_455 S
C208 C207 1.287 1_655 S
C208 C209 1.524 . S
C208 H211 0.999 . S
C209 H179 0.950 . S
C209 C208 1.524 . S
C209 C210 1.415 . S
C210 H180 0.950 . S
C210 C205 1.363 . S
C210 C209 1.415 . S
H211 C208 0.999 . S
H212 C193 0.913 . S
H213 C231 0.951 . S
H214 C233 0.951 . S
H215 C235 0.950 . S
H216 C236 0.950 . S
H217 C238 0.950 . S
H218 C241 0.950 . S
H219 C242 0.950 . S
H220 C244 0.950 . S
H221 C245 0.950 1_554 S
H222 C246 0.951 . S
H223 C248 0.951 . S
H224 C250 0.950 . S
H225 C251 0.950 . S
H226 C253 0.950 . S
H227 C256 0.950 . S
H228 C257 0.950 . S
H229 C259 0.950 . S
H230 C260 0.950 1_556 S
C231 H213 0.951 . S
C231 C232 1.366 . S
C231 C233 1.388 . S
C232 C231 1.366 . S
C232 C236 1.385 . S
C233 H214 0.951 . S
C233 C231 1.388 . S
C233 C234 1.366 . S
C234 C233 1.366 . S
C234 C235 1.414 . S
C234 C237 1.499 . S
C235 H215 0.950 . S
C235 C234 1.414 . S
C235 C236 1.374 . S
C236 H216 0.950 . S
C236 C232 1.385 . S
C236 C235 1.374 . S
C237 C234 1.499 . S
C237 C238 1.373 . S
C237 C239 1.389 . S
C238 H217 0.950 . S
C238 C237 1.373 . S
C238 C254 1.377 1_556 S
C239 C237 1.389 . S
C239 C240 1.524 . S
C239 C253 1.377 1_556 S
C240 C239 1.524 . S
C240 C241 1.397 . S
C240 C245 1.363 . S
C241 H218 0.950 . S
C241 C240 1.397 . S
C241 C242 1.334 . S
C242 H219 0.950 . S
C242 C241 1.334 . S
C242 C243 1.287 . S
C243 C242 1.287 . S
C243 C244 1.524 . S
C243 H262 0.913 . S
C244 H220 0.950 . S
C244 C243 1.524 . S
C244 C245 1.415 . S
C245 H221 0.950 1_556 S
C245 C240 1.363 . S
C245 C244 1.415 . S
C246 H222 0.951 . S
C246 C247 1.366 . S
C246 C248 1.388 . S
C247 C246 1.366 . S
C247 C251 1.385 . S
C248 H223 0.951 . S
C248 C246 1.388 . S
C248 C249 1.366 . S
C249 C248 1.366 . S
C249 C250 1.414 . S
C249 C252 1.499 . S
C250 H224 0.950 . S
C250 C249 1.414 . S
C250 C251 1.374 . S
C251 H225 0.950 . S
C251 C247 1.385 . S
C251 C250 1.374 . S
C252 C249 1.499 . S
C252 C253 1.373 . S
C252 C254 1.389 . S
C253 H226 0.950 . S
C253 C239 1.377 1_554 S
C253 C252 1.373 . S
C254 C238 1.377 1_554 S
C254 C252 1.389 . S
C254 C255 1.524 . S
C255 C254 1.524 . S
C255 C256 1.397 . S
C255 C260 1.363 . S
C256 H227 0.950 . S
C256 C255 1.397 . S
C256 C257 1.334 . S
C257 H228 0.950 . S
C257 C256 1.334 . S
C257 C258 1.287 . S
C258 C257 1.287 . S
C258 C259 1.524 . S
C258 H261 0.999 . S
C259 H229 0.950 . S
C259 C258 1.524 . S
C259 C260 1.415 . S
C260 H230 0.950 1_554 S
C260 C255 1.363 . S
C260 C259 1.415 . S
H261 C258 0.999 . S
H262 C243 0.913 . S
H263 C281 0.951 . S
H264 C283 0.951 . S
H265 C285 0.950 . S
H266 C286 0.950 . S
H267 C288 0.950 . S
H268 C291 0.950 . S
H269 C292 0.950 . S
H270 C294 0.950 . S
H271 C295 0.950 . S
H272 C296 0.951 . S
H273 C298 0.951 . S
H274 C300 0.950 . S
H275 C301 0.950 . S
H276 C303 0.950 . S
H277 C306 0.950 . S
H278 C307 0.950 . S
H279 C309 0.950 . S
H280 C310 0.950 . S
C281 H263 0.951 . S
C281 C282 1.366 . S
C281 C283 1.388 . S
C282 C281 1.366 . S
C282 C286 1.385 . S
C283 H264 0.951 . S
C283 C281 1.388 . S
C283 C284 1.366 . S
C284 C283 1.366 . S
C284 C285 1.414 . S
C284 C287 1.499 . S
C285 H265 0.950 . S
C285 C284 1.414 . S
C285 C286 1.374 . S
C286 H266 0.950 . S
C286 C282 1.385 . S
C286 C285 1.374 . S
C287 C284 1.499 . S
C287 C288 1.373 . S
C287 C289 1.389 . S
C288 H267 0.950 . S
C288 C287 1.373 . S
C288 C304 1.377 . S
C289 C287 1.389 . S
C289 C290 1.524 . S
C289 C303 1.377 . S
C290 C289 1.524 . S
C290 C291 1.397 . S
C290 C295 1.363 . S
C291 H268 0.950 . S
C291 C290 1.397 . S
C291 C292 1.334 . S
C292 H269 0.950 . S
C292 C291 1.334 . S
C292 C293 1.287 . S
C293 C292 1.287 . S
C293 C294 1.524 . S
C293 H312 0.913 . S
C294 H270 0.950 . S
C294 C293 1.524 . S
C294 C295 1.415 . S
C295 H271 0.950 . S
C295 C290 1.363 . S
C295 C294 1.415 . S
C296 H272 0.951 . S
C296 C297 1.366 . S
C296 C298 1.388 . S
C297 C296 1.366 . S
C297 C301 1.385 . S
C298 H273 0.951 . S
C298 C296 1.388 . S
C298 C299 1.366 . S
C299 C298 1.366 . S
C299 C300 1.414 . S
C299 C302 1.499 . S
C300 H274 0.950 . S
C300 C299 1.414 . S
C300 C301 1.374 . S
C301 H275 0.950 . S
C301 C297 1.385 . S
C301 C300 1.374 . S
C302 C299 1.499 . S
C302 C303 1.373 . S
C302 C304 1.389 . S
C303 H276 0.950 . S
C303 C289 1.377 . S
C303 C302 1.373 . S
C304 C288 1.377 . S
C304 C302 1.389 . S
C304 C305 1.524 . S
C305 C304 1.524 . S
C305 C306 1.397 . S
C305 C310 1.363 . S
C306 H277 0.950 . S
C306 C305 1.397 . S
C306 C307 1.334 1_655 S
C307 H278 0.950 . S
C307 C306 1.334 1_455 S
C307 C308 1.287 . S
C308 C307 1.287 . S
C308 C309 1.524 1_455 S
C308 H311 0.999 . S
C309 H279 0.950 . S
C309 C308 1.524 1_655 S
C309 C310 1.415 . S
C310 H280 0.950 . S
C310 C305 1.363 . S
C310 C309 1.415 . S
H311 C308 0.999 . S
H312 C293 0.913 . S
H313 C331 0.951 . S
H314 C333 0.951 . S
H315 C335 0.950 . S
H316 C336 0.950 . S
H317 C338 0.950 . S
H318 C341 0.950 . S
H319 C342 0.950 . S
H320 C344 0.950 . S
H321 C345 0.950 . S
H322 C346 0.951 . S
H323 C348 0.951 . S
H324 C350 0.950 . S
H325 C351 0.950 . S
H326 C353 0.950 . S
H327 C356 0.950 . S
H328 C357 0.950 . S
H329 C359 0.950 1_545 S
H330 C360 0.950 . S
C331 H313 0.951 . S
C331 C332 1.366 . S
C331 C333 1.388 . S
C332 C331 1.366 . S
C332 C336 1.385 . S
C333 H314 0.951 . S
C333 C331 1.388 . S
C333 C334 1.366 . S
C334 C333 1.366 . S
C334 C335 1.414 . S
C334 C337 1.499 . S
C335 H315 0.950 . S
C335 C334 1.414 . S
C335 C336 1.374 . S
C336 H316 0.950 . S
C336 C332 1.385 . S
C336 C335 1.374 . S
C337 C334 1.499 . S
C337 C338 1.373 . S
C337 C339 1.389 . S
C338 H317 0.950 . S
C338 C337 1.373 . S
C338 C354 1.377 . S
C339 C337 1.389 . S
C339 C340 1.524 . S
C339 C353 1.377 . S
C340 C339 1.524 . S
C340 C341 1.397 . S
C340 C345 1.363 . S
C341 H318 0.950 . S
C341 C340 1.397 . S
C341 C342 1.334 . S
C342 H319 0.950 . S
C342 C341 1.334 . S
C342 C343 1.287 . S
C343 C342 1.287 . S
C343 C344 1.524 . S
C343 H362 0.913 . S
C344 H320 0.950 . S
C344 C343 1.524 . S
C344 C345 1.415 . S
C345 H321 0.950 . S
C345 C340 1.363 . S
C345 C344 1.415 . S
C346 H322 0.951 . S
C346 C347 1.366 . S
C346 C348 1.388 . S
C347 C346 1.366 . S
C347 C351 1.385 . S
C348 H323 0.951 . S
C348 C346 1.388 . S
C348 C349 1.366 . S
C349 C348 1.366 . S
C349 C350 1.414 . S
C349 C352 1.499 . S
C350 H324 0.950 . S
C350 C349 1.414 . S
C350 C351 1.374 . S
C351 H325 0.950 . S
C351 C347 1.385 . S
C351 C350 1.374 . S
C352 C349 1.499 . S
C352 C353 1.373 . S
C352 C354 1.389 . S
C353 H326 0.950 . S
C353 C339 1.377 . S
C353 C352 1.373 . S
C354 C338 1.377 . S
C354 C352 1.389 . S
C354 C355 1.524 . S
C355 C354 1.524 . S
C355 C356 1.397 . S
C355 C360 1.363 . S
C356 H327 0.950 . S
C356 C355 1.397 . S
C356 C357 1.334 . S
C357 H328 0.950 . S
C357 C356 1.334 . S
C357 C358 1.287 . S
C358 C357 1.287 . S
C358 C359 1.524 . S
C358 H361 0.999 . S
C359 H329 0.950 1_565 S
C359 C358 1.524 . S
C359 C360 1.415 . S
C360 H330 0.950 . S
C360 C355 1.363 . S
C360 C359 1.415 . S
H361 C358 0.999 . S
H362 C343 0.913 . S
H363 C381 0.951 . S
H364 C383 0.951 . S
H365 C385 0.950 . S
H366 C386 0.950 . S
H367 C388 0.950 . S
H368 C391 0.950 . S
H369 C392 0.950 . S
H370 C394 0.950 . S
H371 C395 0.950 . S
H372 C396 0.951 . S
H373 C398 0.951 . S
H374 C400 0.950 . S
H375 C401 0.950 . S
H376 C403 0.950 . S
H377 C406 0.950 . S
H378 C407 0.950 . S
H379 C409 0.950 . S
H380 C410 0.950 . S
C381 H363 0.951 . S
C381 C382 1.366 . S
C381 C383 1.388 . S
C382 C381 1.366 . S
C382 C386 1.385 . S
C383 H364 0.951 . S
C383 C381 1.388 . S
C383 C384 1.366 . S
C384 C383 1.366 . S
C384 C385 1.414 . S
C384 C387 1.499 . S
C385 H365 0.950 . S
C385 C384 1.414 . S
C385 C386 1.374 . S
C386 H366 0.950 . S
C386 C382 1.385 . S
C386 C385 1.374 . S
C387 C384 1.499 . S
C387 C388 1.373 . S
C387 C389 1.389 . S
C388 H367 0.950 . S
C388 C387 1.373 . S
C388 C404 1.377 1_556 S
C389 C387 1.389 . S
C389 C390 1.524 . S
C389 C403 1.377 1_556 S
C390 C389 1.524 . S
C390 C391 1.397 . S
C390 C395 1.363 . S
C391 H368 0.950 . S
C391 C390 1.397 . S
C391 C392 1.334 . S
C392 H369 0.950 . S
C392 C391 1.334 . S
C392 C393 1.287 . S
C393 C392 1.287 . S
C393 C394 1.524 . S
C393 H412 0.913 . S
C394 H370 0.950 . S
C394 C393 1.524 . S
C394 C395 1.415 . S
C395 H371 0.950 . S
C395 C390 1.363 . S
C395 C394 1.415 . S
C396 H372 0.951 . S
C396 C397 1.366 . S
C396 C398 1.388 . S
C397 C396 1.366 . S
C397 C401 1.385 . S
C398 H373 0.951 . S
C398 C396 1.388 . S
C398 C399 1.366 . S
C399 C398 1.366 . S
C399 C400 1.414 . S
C399 C402 1.499 . S
C400 H374 0.950 . S
C400 C399 1.414 . S
C400 C401 1.374 . S
C401 H375 0.950 . S
C401 C397 1.385 . S
C401 C400 1.374 . S
C402 C399 1.499 . S
C402 C403 1.373 . S
C402 C404 1.389 . S
C403 H376 0.950 . S
C403 C389 1.377 1_554 S
C403 C402 1.373 . S
C404 C388 1.377 1_554 S
C404 C402 1.389 . S
C404 C405 1.524 . S
C405 C404 1.524 . S
C405 C406 1.397 . S
C405 C410 1.363 . S
C406 H377 0.950 . S
C406 C405 1.397 . S
C406 C407 1.334 . S
C407 H378 0.950 . S
C407 C406 1.334 . S
C407 C408 1.287 . S
C408 C407 1.287 . S
C408 C409 1.524 . S
C408 H411 0.999 . S
C409 H379 0.950 . S
C409 C408 1.524 . S
C409 C410 1.415 . S
C410 H380 0.950 . S
C410 C405 1.363 . S
C410 C409 1.415 . S
H411 C408 0.999 . S
H412 C393 0.913 . S
H413 C431 0.951 . S
H414 C433 0.951 . S
H415 C435 0.950 . S
H416 C436 0.950 . S
H417 C438 0.950 . S
H418 C441 0.950 . S
H419 C442 0.950 . S
H420 C444 0.950 . S
H421 C445 0.950 . S
H422 C446 0.951 . S
H423 C448 0.951 . S
H424 C450 0.950 . S
H425 C451 0.950 . S
H426 C453 0.950 . S
H427 C456 0.950 . S
H428 C457 0.950 . S
H429 C459 0.950 . S
H430 C460 0.950 . S
C431 H413 0.951 . S
C431 C432 1.366 . S
C431 C433 1.388 . S
C432 C431 1.366 . S
C432 C436 1.385 . S
C433 H414 0.951 . S
C433 C431 1.388 . S
C433 C434 1.366 . S
C434 C433 1.366 . S
C434 C435 1.414 . S
C434 C437 1.499 . S
C435 H415 0.950 . S
C435 C434 1.414 . S
C435 C436 1.374 . S
C436 H416 0.950 . S
C436 C432 1.385 . S
C436 C435 1.374 . S
C437 C434 1.499 . S
C437 C438 1.373 . S
C437 C439 1.389 . S
C438 H417 0.950 . S
C438 C437 1.373 . S
C438 C454 1.377 . S
C439 C437 1.389 . S
C439 C440 1.524 . S
C439 C453 1.377 . S
C440 C439 1.524 . S
C440 C441 1.397 . S
C440 C445 1.363 . S
C441 H418 0.950 . S
C441 C440 1.397 . S
C441 C442 1.334 . S
C442 H419 0.950 . S
C442 C441 1.334 . S
C442 C443 1.287 . S
C443 C442 1.287 . S
C443 C444 1.524 . S
C443 H462 0.913 . S
C444 H420 0.950 . S
C444 C443 1.524 . S
C444 C445 1.415 . S
C445 H421 0.950 . S
C445 C440 1.363 . S
C445 C444 1.415 . S
C446 H422 0.951 . S
C446 C447 1.366 . S
C446 C448 1.388 . S
C447 C446 1.366 . S
C447 C451 1.385 . S
C448 H423 0.951 . S
C448 C446 1.388 . S
C448 C449 1.366 . S
C449 C448 1.366 . S
C449 C450 1.414 . S
C449 C452 1.499 . S
C450 H424 0.950 . S
C450 C449 1.414 . S
C450 C451 1.374 . S
C451 H425 0.950 . S
C451 C447 1.385 . S
C451 C450 1.374 . S
C452 C449 1.499 . S
C452 C453 1.373 . S
C452 C454 1.389 . S
C453 H426 0.950 . S
C453 C439 1.377 . S
C453 C452 1.373 . S
C454 C438 1.377 . S
C454 C452 1.389 . S
C454 C455 1.524 . S
C455 C454 1.524 . S
C455 C456 1.397 . S
C455 C460 1.363 . S
C456 H427 0.950 . S
C456 C455 1.397 . S
C456 C457 1.334 . S
C457 H428 0.950 . S
C457 C456 1.334 . S
C457 C458 1.287 . S
C458 C457 1.287 . S
C458 C459 1.524 . S
C458 H461 0.999 . S
C459 H429 0.950 . S
C459 C458 1.524 . S
C459 C460 1.415 . S
C460 H430 0.950 . S
C460 C455 1.363 . S
C460 C459 1.415 . S
H461 C458 0.999 . S
H462 C443 0.913 . S
H463 C481 0.951 . S
H464 C483 0.951 . S
H465 C485 0.950 . S
H466 C486 0.950 . S
H467 C488 0.950 . S
H468 C491 0.950 . S
H469 C492 0.950 . S
H470 C494 0.950 . S
H471 C495 0.950 . S
H472 C496 0.951 . S
H473 C498 0.951 . S
H474 C500 0.950 . S
H475 C501 0.950 . S
H476 C503 0.950 . S
H477 C506 0.950 . S
H478 C507 0.950 . S
H479 C509 0.950 . S
H480 C510 0.950 . S
C481 H463 0.951 . S
C481 C482 1.366 . S
C481 C483 1.388 . S
C482 C481 1.366 . S
C482 C486 1.385 . S
C483 H464 0.951 . S
C483 C481 1.388 . S
C483 C484 1.366 . S
C484 C483 1.366 . S
C484 C485 1.414 . S
C484 C487 1.499 . S
C485 H465 0.950 . S
C485 C484 1.414 . S
C485 C486 1.374 . S
C486 H466 0.950 . S
C486 C482 1.385 . S
C486 C485 1.374 . S
C487 C484 1.499 . S
C487 C488 1.373 . S
C487 C489 1.389 . S
C488 H467 0.950 . S
C488 C487 1.373 . S
C488 C504 1.377 . S
C489 C487 1.389 . S
C489 C490 1.524 . S
C489 C503 1.377 . S
C490 C489 1.524 . S
C490 C491 1.397 . S
C490 C495 1.363 . S
C491 H468 0.950 . S
C491 C490 1.397 . S
C491 C492 1.334 . S
C492 H469 0.950 . S
C492 C491 1.334 . S
C492 C493 1.287 . S
C493 C492 1.287 . S
C493 C494 1.524 . S
C493 H512 0.913 . S
C494 H470 0.950 . S
C494 C493 1.524 . S
C494 C495 1.415 . S
C495 H471 0.950 . S
C495 C490 1.363 . S
C495 C494 1.415 . S
C496 H472 0.951 . S
C496 C497 1.366 . S
C496 C498 1.388 . S
C497 C496 1.366 . S
C497 C501 1.385 . S
C498 H473 0.951 . S
C498 C496 1.388 . S
C498 C499 1.366 . S
C499 C498 1.366 . S
C499 C500 1.414 . S
C499 C502 1.499 . S
C500 H474 0.950 . S
C500 C499 1.414 . S
C500 C501 1.374 . S
C501 H475 0.950 . S
C501 C497 1.385 . S
C501 C500 1.374 . S
C502 C499 1.499 . S
C502 C503 1.373 . S
C502 C504 1.389 . S
C503 H476 0.950 . S
C503 C489 1.377 . S
C503 C502 1.373 . S
C504 C488 1.377 . S
C504 C502 1.389 . S
C504 C505 1.524 . S
C505 C504 1.524 . S
C505 C506 1.397 . S
C505 C510 1.363 . S
C506 H477 0.950 . S
C506 C505 1.397 . S
C506 C507 1.334 . S
C507 H478 0.950 . S
C507 C506 1.334 . S
C507 C508 1.287 . S
C508 C507 1.287 . S
C508 C509 1.524 . S
C508 H511 0.999 1_545 S
C509 H479 0.950 . S
C509 C508 1.524 . S
C509 C510 1.415 . S
C510 H480 0.950 . S
C510 C505 1.363 . S
C510 C509 1.415 . S
H511 C508 0.999 1_565 S
H512 C493 0.913 . S
C82 C15 1.396 1_455 S
C97 C14 1.388 . S
C132 C35 1.390 1_545 S
C147 C36 1.400 . S
C182 C57 1.391 . S
C197 C56 1.386 . S
C232 C58 1.030 . S
C247 C13 0.958 . S
C282 C38 1.552 . S
C297 C16 1.477 . S
C332 C59 0.934 . S
C347 C39 0.944 . S
C382 C60 0.923 . S
C397 C17 0.912 . S
C432 C18 0.388 . S
C447 C34 0.686 . S
C482 C55 0.926 . S
C497 C37 1.013 . S
