# Generated by pormake.
# Topology unb, (4)-cn, num edge types: 1
# Building blocks:
#     Node 0, Type 0, BuildingBlock: GALJAG_clean_sbu_0, # of connection points: 4
#     Node 1, Type 0, BuildingBlock: GALJAG_clean_sbu_0, # of connection points: 4
#     Node 2, Type 0, BuildingBlock: GALJAG_clean_sbu_0, # of connection points: 4
#     Node 3, Type 0, BuildingBlock: GALJAG_clean_sbu_0, # of connection points: 4
#     Node 4, Type 0, BuildingBlock: GALJAG_clean_sbu_0, # of connection points: 4
#     Node 5, Type 0, BuildingBlock: GALJAG_clean_sbu_0, # of connection points: 4
#     Node 6, Type 0, BuildingBlock: GALJAG_clean_sbu_0, # of connection points: 4
#     Node 7, Type 0, BuildingBlock: GALJAG_clean_sbu_0, # of connection points: 4
#     Node 8, Type 0, BuildingBlock: GALJAG_clean_sbu_0, # of connection points: 4
#     Node 9, Type 0, BuildingBlock: GALJAG_clean_sbu_0, # of connection points: 4
#     Node 10, Type 0, BuildingBlock: GALJAG_clean_sbu_0, # of connection points: 4
#     Node 11, Type 0, BuildingBlock: GALJAG_clean_sbu_0, # of connection points: 4
#     Node 12, Type 0, BuildingBlock: GALJAG_clean_sbu_0, # of connection points: 4
#     Node 13, Type 0, BuildingBlock: GALJAG_clean_sbu_0, # of connection points: 4
#     Node 14, Type 0, BuildingBlock: GALJAG_clean_sbu_0, # of connection points: 4
#     Node 15, Type 0, BuildingBlock: GALJAG_clean_sbu_0, # of connection points: 4
#     Node 16, Type 0, BuildingBlock: GALJAG_clean_sbu_0, # of connection points: 4
#     Node 17, Type 0, BuildingBlock: GALJAG_clean_sbu_0, # of connection points: 4
#     Edge 18, Type (0, 0), BuildingBlock: XIVTED_clean_linker_0, # of connection points: 2
#     Edge 19, Type (0, 0), BuildingBlock: XIVTED_clean_linker_0, # of connection points: 2
#     Edge 20, Type (0, 0), BuildingBlock: XIVTED_clean_linker_0, # of connection points: 2
#     Edge 21, Type (0, 0), BuildingBlock: XIVTED_clean_linker_0, # of connection points: 2
#     Edge 22, Type (0, 0), BuildingBlock: XIVTED_clean_linker_0, # of connection points: 2
#     Edge 23, Type (0, 0), BuildingBlock: XIVTED_clean_linker_0, # of connection points: 2
#     Edge 24, Type (0, 0), BuildingBlock: XIVTED_clean_linker_0, # of connection points: 2
#     Edge 25, Type (0, 0), BuildingBlock: XIVTED_clean_linker_0, # of connection points: 2
#     Edge 26, Type (0, 0), BuildingBlock: XIVTED_clean_linker_0, # of connection points: 2
#     Edge 27, Type (0, 0), BuildingBlock: XIVTED_clean_linker_0, # of connection points: 2
#     Edge 28, Type (0, 0), BuildingBlock: XIVTED_clean_linker_0, # of connection points: 2
#     Edge 29, Type (0, 0), BuildingBlock: XIVTED_clean_linker_0, # of connection points: 2
#     Edge 30, Type (0, 0), BuildingBlock: XIVTED_clean_linker_0, # of connection points: 2
#     Edge 31, Type (0, 0), BuildingBlock: XIVTED_clean_linker_0, # of connection points: 2
#     Edge 32, Type (0, 0), BuildingBlock: XIVTED_clean_linker_0, # of connection points: 2
#     Edge 33, Type (0, 0), BuildingBlock: XIVTED_clean_linker_0, # of connection points: 2
#     Edge 34, Type (0, 0), BuildingBlock: XIVTED_clean_linker_0, # of connection points: 2
#     Edge 35, Type (0, 0), BuildingBlock: XIVTED_clean_linker_0, # of connection points: 2
#     Edge 36, Type (0, 0), BuildingBlock: XIVTED_clean_linker_0, # of connection points: 2
#     Edge 37, Type (0, 0), BuildingBlock: XIVTED_clean_linker_0, # of connection points: 2
#     Edge 38, Type (0, 0), BuildingBlock: XIVTED_clean_linker_0, # of connection points: 2
#     Edge 39, Type (0, 0), BuildingBlock: XIVTED_clean_linker_0, # of connection points: 2
#     Edge 40, Type (0, 0), BuildingBlock: XIVTED_clean_linker_0, # of connection points: 2
#     Edge 41, Type (0, 0), BuildingBlock: XIVTED_clean_linker_0, # of connection points: 2
#     Edge 42, Type (0, 0), BuildingBlock: XIVTED_clean_linker_0, # of connection points: 2
#     Edge 43, Type (0, 0), BuildingBlock: XIVTED_clean_linker_0, # of connection points: 2
#     Edge 44, Type (0, 0), BuildingBlock: XIVTED_clean_linker_0, # of connection points: 2
#     Edge 45, Type (0, 0), BuildingBlock: XIVTED_clean_linker_0, # of connection points: 2
#     Edge 46, Type (0, 0), BuildingBlock: XIVTED_clean_linker_0, # of connection points: 2
#     Edge 47, Type (0, 0), BuildingBlock: XIVTED_clean_linker_0, # of connection points: 2
#     Edge 48, Type (0, 0), BuildingBlock: XIVTED_clean_linker_0, # of connection points: 2
#     Edge 49, Type (0, 0), BuildingBlock: XIVTED_clean_linker_0, # of connection points: 2
#     Edge 50, Type (0, 0), BuildingBlock: XIVTED_clean_linker_0, # of connection points: 2
#     Edge 51, Type (0, 0), BuildingBlock: XIVTED_clean_linker_0, # of connection points: 2
#     Edge 52, Type (0, 0), BuildingBlock: XIVTED_clean_linker_0, # of connection points: 2
#     Edge 53, Type (0, 0), BuildingBlock: XIVTED_clean_linker_0, # of connection points: 2
# Relax obj value: 0.185
# Max RMSD: 0.139
# Mean RMSD: 0.139
data_MOF--net-unb--node1-GALJAG_clean_sbu_0--edge1-XIVTED_clean_linker_0
_symmetry_space_group_name_H-M    P1
_symmetry_Int_Tables_number       1
_symmetry_cell_setting            triclinic
loop_
_symmetry_equiv_pos_as_xyz
'x, y, z'
_cell_length_a     62.696802
_cell_length_b     62.72098
_cell_length_c     27.28813
_cell_angle_alpha  89.957215
_cell_angle_beta   90.02552
_cell_angle_gamma 120.01801
loop_
_atom_site_label
_atom_site_type_symbol
_atom_site_fract_x
_atom_site_fract_y
_atom_site_fract_z
_atom_type_partial_charge
In0 In 0.13123 0.26214 0.07199 0.0
O1 O 0.15402 0.29452 0.12296 0.0
O2 O 0.12512 0.26207 0.15487 0.0
C3 C 0.14429 0.28682 0.9865 0.0
C4 C 0.15526 0.23665 0.06593 0.0
C5 C 0.08234 0.24021 0.05556 0.0
O6 O 0.14426 0.29705 0.0263 0.0
O7 O 0.13802 0.26441 0.99013 0.0
O8 O 0.09316 0.22821 0.06407 0.0
O9 O 0.09595 0.26327 0.05795 0.0
C10 C 0.14233 0.28389 0.16128 0.0
O11 O 0.13238 0.22641 0.07354 0.0
O12 O 0.16623 0.25985 0.06431 0.0
In13 In 0.71504 0.86091 0.05723 0.0
O14 O 0.7505 0.89788 0.06337 0.0
O15 O 0.71713 0.89819 0.05227 0.0
C16 C 0.73623 0.83346 0.03885 0.0
C17 C 0.69265 0.84803 0.1458 0.0
C18 C 0.69154 0.85197 0.97076 0.0
O19 O 0.74854 0.85624 0.0474 0.0
O20 O 0.71321 0.82424 0.04205 0.0
O21 O 0.68027 0.84251 0.01028 0.0
O22 O 0.71446 0.86595 0.9751 0.0
C23 C 0.74027 0.91054 0.05616 0.0
O24 O 0.68163 0.84792 0.10711 0.0
O25 O 0.71513 0.85486 0.14009 0.0
In26 In 0.11091 0.8491 0.08237 0.0
O27 O 0.07334 0.84644 0.08703 0.0
O28 O 0.07425 0.81336 0.07624 0.0
C29 C 0.13657 0.89758 0.06132 0.0
C30 C 0.12366 0.84037 0.17181 0.0
C31 C 0.12226 0.83548 -0.00262 0.0
O32 O 0.11379 0.88646 0.0704 0.0
O33 O 0.14662 0.88458 0.06567 0.0
O34 O 0.1329 0.83612 0.03711 0.0
O35 O 0.10578 0.84128 0.0009 0.0
C36 C 0.06131 0.82353 0.0794 0.0
O37 O 0.1221 0.82795 0.13434 0.0
O38 O 0.11845 0.8571 0.16452 0.0
In39 In 0.25119 0.11486 0.90508 0.0
O40 O 0.28346 0.1252 0.85342 0.0
O41 O 0.25056 0.12096 0.8223 0.0
C42 C 0.27605 0.12611 0.99029 0.0
C43 C 0.22986 0.1422 0.92295 0.0
C44 C 0.22611 0.06532 0.91093 0.0
O45 O 0.28634 0.13617 0.95035 0.0
O46 O 0.25351 0.11031 0.98691 0.0
O47 O 0.21559 0.07779 0.90466 0.0
O48 O 0.24933 0.07775 0.9112 0.0
C49 C 0.27252 0.12609 0.81542 0.0
O50 O 0.21753 0.11945 0.91384 0.0
O51 O 0.25289 0.15137 0.92029 0.0
In52 In 0.86102 0.13281 0.91854 0.0
O53 O 0.84977 0.15472 0.86889 0.0
O54 O 0.85547 0.12744 0.83549 0.0
C55 C 0.84981 0.14517 0.00509 0.0
C56 C 0.8336 0.08386 0.93344 0.0
C57 C 0.91062 0.15778 0.92321 0.0
O58 O 0.84039 0.14678 0.96534 0.0
O59 O 0.86494 0.13763 0.00091 0.0
O60 O 0.89837 0.13492 0.9152 0.0
O61 O 0.89792 0.16822 0.9261 0.0
C62 C 0.84956 0.1438 0.83002 0.0
O63 O 0.85655 0.09459 0.92633 0.0
O64 O 0.82434 0.09762 0.93049 0.0
In65 In 0.84355 0.71839 0.91441 0.0
O66 O 0.88082 0.75268 0.92797 0.0
O67 O 0.87902 0.71797 0.93056 0.0
C68 C 0.81807 0.74252 0.91389 0.0
C69 C 0.83545 0.69656 0.82552 0.0
C70 C 0.82931 0.69409 0.00016 0.0
O71 O 0.84099 0.75319 0.90635 0.0
O72 O 0.80782 0.71948 0.91896 0.0
O73 O 0.82919 0.68352 0.96071 0.0
O74 O 0.83616 0.71662 -0.00401 0.0
C75 C 0.89197 0.74096 0.93605 0.0
O76 O 0.82328 0.68556 0.86317 0.0
O77 O 0.85162 0.71878 0.83238 0.0
In78 In 0.7922 0.58813 0.41294 0.0
O79 O 0.81369 0.62118 0.46326 0.0
O80 O 0.78823 0.58721 0.49639 0.0
C81 C 0.80143 0.61153 0.32629 0.0
C82 C 0.81886 0.56549 0.40252 0.0
C83 C 0.74289 0.5649 0.40236 0.0
O84 O 0.80403 0.62261 0.36642 0.0
O85 O 0.79459 0.589 0.33022 0.0
O86 O 0.75449 0.55343 0.40796 0.0
O87 O 0.75601 0.58802 0.40484 0.0
C88 C 0.80378 0.60971 0.50225 0.0
O89 O 0.79618 0.55395 0.41263 0.0
O90 O 0.82837 0.58858 0.40057 0.0
In91 In 0.3823 0.19069 0.40339 0.0
O92 O 0.34967 0.18041 0.45428 0.0
O93 O 0.38231 0.18438 0.48612 0.0
C94 C 0.35782 0.17721 0.31779 0.0
C95 C 0.40591 0.24017 0.39629 0.0
C96 C 0.40652 0.16592 0.38779 0.0
O97 O 0.34771 0.16713 0.35786 0.0
O98 O 0.37995 0.19412 0.32129 0.0
O99 O 0.41748 0.18877 0.39601 0.0
O100 O 0.38335 0.15534 0.39014 0.0
C101 C 0.36037 0.17939 0.49254 0.0
O102 O 0.41689 0.22849 0.40645 0.0
O103 O 0.38283 0.227 0.39262 0.0
In104 In 0.78645 0.18938 0.41687 0.0
O105 O 0.79749 0.16741 0.46679 0.0
O106 O 0.79151 0.19453 0.50009 0.0
C107 C 0.79876 0.17785 0.33062 0.0
C108 C 0.73695 0.16376 0.40945 0.0
C109 C 0.81305 0.23838 0.40202 0.0
O110 O 0.80824 0.17653 0.37053 0.0
O111 O 0.78305 0.18467 0.33455 0.0
O112 O 0.79017 0.22733 0.41012 0.0
O113 O 0.8227 0.22495 0.40437 0.0
C114 C 0.79743 0.17818 0.50568 0.0
O115 O 0.74875 0.18657 0.4182 0.0
O116 O 0.74999 0.15367 0.4075 0.0
In117 In 0.92728 0.45582 0.24335 0.0
O118 O 0.96007 0.46637 0.19295 0.0
O119 O 0.92681 0.46016 0.16 0.0
C120 C 0.95171 0.46911 0.32899 0.0
C121 C 0.90418 0.48183 0.25722 0.0
C122 C 0.90337 0.40642 0.2528 0.0
O123 O 0.96212 0.4786 0.28878 0.0
O124 O 0.9293 0.45294 0.32566 0.0
O125 O 0.8924 0.41819 0.24338 0.0
O126 O 0.92654 0.41943 0.25437 0.0
C127 C 0.94903 0.46597 0.15411 0.0
O128 O 0.89271 0.45892 0.24963 0.0
O129 O 0.92731 0.49185 0.25491 0.0
In130 In 0.52265 0.46085 0.25381 0.0
O131 O 0.51832 0.42258 0.25626 0.0
O132 O 0.48589 0.42516 0.26102 0.0
C133 C 0.57191 0.48576 0.26645 0.0
C134 C 0.51182 0.47226 0.165 0.0
C135 C 0.51139 0.4734 0.34011 0.0
O136 O 0.56005 0.46308 0.25654 0.0
O137 O 0.55912 0.49614 0.26725 0.0
O138 O 0.51041 0.4831 0.30022 0.0
O139 O 0.51799 0.45753 0.33624 0.0
C140 C 0.49529 0.41148 0.26223 0.0
O141 O 0.5025 0.47427 0.20436 0.0
O142 O 0.52662 0.46432 0.17014 0.0
In143 In 0.51927 0.05818 0.24701 0.0
O144 O 0.50548 0.02417 0.19909 0.0
O145 O 0.52055 0.05867 0.16295 0.0
C146 C 0.50501 0.03475 0.33348 0.0
C147 C 0.56829 0.08063 0.26239 0.0
C148 C 0.49259 0.08102 0.25212 0.0
O149 O 0.49828 0.02342 0.29317 0.0
O150 O 0.51878 0.05774 0.32996 0.0
O151 O 0.51558 0.09254 0.24545 0.0
O152 O 0.4829 0.05792 0.25323 0.0
C153 C 0.51081 0.03561 0.15897 0.0
O154 O 0.55729 0.0924 0.25333 0.0
O155 O 0.55481 0.05754 0.2608 0.0
In156 In 0.45782 0.92739 0.74548 0.0
O157 O 0.47634 0.96128 0.79404 0.0
O158 O 0.45919 0.92655 0.82959 0.0
C159 C 0.46701 0.95137 0.65967 0.0
C160 C 0.48368 0.90435 0.72848 0.0
C161 C 0.40835 0.90503 0.73926 0.0
O162 O 0.4748 0.96257 0.69988 0.0
O163 O 0.45477 0.92824 0.66293 0.0
O164 O 0.41965 0.89325 0.74417 0.0
O165 O 0.42188 0.92812 0.7408 0.0
C166 C 0.47112 0.94968 0.83395 0.0
O167 O 0.49339 0.92745 0.72758 0.0
O168 O 0.46135 0.89298 0.74113 0.0
In169 In 0.05865 0.52878 0.74184 0.0
O170 O 0.09316 0.56675 0.7433 0.0
O171 O 0.05854 0.56493 0.73609 0.0
C172 C 0.0816 0.50291 0.72444 0.0
C173 C 0.03688 0.51665 0.83098 0.0
C174 C 0.03425 0.51733 0.65614 0.0
O175 O 0.09319 0.52573 0.73301 0.0
O176 O 0.05849 0.49292 0.72748 0.0
O177 O 0.02378 0.50733 0.69599 0.0
O178 O 0.05678 0.5331 0.6598 0.0
C179 C 0.08168 0.57829 0.73701 0.0
O180 O 0.02565 0.51622 0.7924 0.0
O181 O 0.05935 0.52344 0.82493 0.0
In182 In 0.45756 0.52763 0.75211 0.0
O183 O 0.42206 0.49132 0.73865 0.0
O184 O 0.41926 0.52332 0.74988 0.0
C185 C 0.48277 0.57693 0.74037 0.0
C186 C 0.46964 0.51799 0.84142 0.0
C187 C 0.46972 0.51537 0.66647 0.0
O188 O 0.45979 0.56495 0.7471 0.0
O189 O 0.49324 0.56425 0.74297 0.0
O190 O 0.4711 0.50613 0.70666 0.0
O191 O 0.46223 0.53057 0.66976 0.0
C192 C 0.40835 0.50068 0.73965 0.0
O193 O 0.45417 0.52509 0.83597 0.0
O194 O 0.47902 0.516 0.80214 0.0
In195 In 0.58379 0.7898 0.55895 0.0
O196 O 0.61696 0.80195 0.5089 0.0
O197 O 0.58251 0.79094 0.47504 0.0
C198 C 0.60734 0.80442 0.64528 0.0
C199 C 0.56081 0.81613 0.56851 0.0
C200 C 0.56164 0.74078 0.57353 0.0
O201 O 0.61861 0.81183 0.60496 0.0
O202 O 0.58453 0.78971 0.64168 0.0
O203 O 0.54978 0.75149 0.5626 0.0
O204 O 0.58473 0.75454 0.57373 0.0
C205 C 0.60525 0.79887 0.46955 0.0
O206 O 0.54924 0.79311 0.56233 0.0
O207 O 0.58394 0.82601 0.56654 0.0
In208 In 0.19015 0.79794 0.58435 0.0
O209 O 0.18447 0.79187 0.50151 0.0
O210 O 0.18011 0.82035 0.53299 0.0
C211 C 0.17587 0.80827 0.66968 0.0
C212 C 0.16569 0.74892 0.59947 0.0
C213 C 0.23952 0.82404 0.59373 0.0
O214 O 0.19316 0.80361 0.66641 0.0
O215 O 0.16579 0.80812 0.62949 0.0
O216 O 0.22807 0.80144 0.58306 0.0
O217 O 0.22621 0.83383 0.59649 0.0
C218 C 0.1794 0.80874 0.4948 0.0
O219 O 0.18853 0.76096 0.59116 0.0
O220 O 0.15496 0.76137 0.59733 0.0
In221 In 0.19122 0.3939 0.57339 0.0
O222 O 0.16913 0.36121 0.52269 0.0
O223 O 0.1973 0.39404 0.49045 0.0
C224 C 0.17929 0.36938 0.65904 0.0
C225 C 0.24018 0.41748 0.58979 0.0
C226 C 0.16541 0.41759 0.57995 0.0
O227 O 0.17946 0.35923 0.61919 0.0
O228 O 0.18486 0.39159 0.65535 0.0
O229 O 0.18825 0.42866 0.57141 0.0
O230 O 0.15538 0.39447 0.58223 0.0
C231 C 0.18054 0.37199 0.48424 0.0
O232 O 0.22864 0.42874 0.58097 0.0
O233 O 0.22729 0.39434 0.58753 0.0
H234 H 0.20323 0.39079 0.39623 0.0
H235 H 0.11942 0.26524 0.24914 0.0
H236 H 0.14529 0.32472 0.46297 0.0
H237 H 0.17806 0.33096 0.18278 0.0
H238 H 0.12859 0.28672 0.32788 0.0
H239 H 0.19413 0.36929 0.31751 0.0
C240 C 0.18856 0.37178 0.39427 0.0
C241 C 0.17499 0.35951 0.43615 0.0
C242 C 0.13948 0.29644 0.29612 0.0
C243 C 0.16451 0.33477 0.34632 0.0
C244 C 0.13426 0.28417 0.25119 0.0
C245 C 0.148 0.29634 0.20941 0.0
C246 C 0.15857 0.32107 0.29927 0.0
C247 C 0.16701 0.32088 0.21411 0.0
C248 C 0.18339 0.3595 0.34936 0.0
C249 C 0.15621 0.33487 0.43157 0.0
N250 N 0.17172 0.33244 0.25819 0.0
N251 N 0.15153 0.32332 0.3875 0.0
H252 H 0.5846 0.79579 0.37945 0.0
H253 H 0.71243 0.84731 0.23482 0.0
H254 H 0.65377 0.81565 0.44965 0.0
H255 H 0.64412 0.83137 0.16563 0.0
H256 H 0.69098 0.83446 0.31354 0.0
H257 H 0.60572 0.8072 0.30021 0.0
C258 C 0.60421 0.80247 0.37815 0.0
C259 C 0.61747 0.80483 0.42116 0.0
C260 C 0.68067 0.83377 0.28114 0.0
C261 C 0.64178 0.81797 0.33075 0.0
C262 C 0.69292 0.84112 0.23623 0.0
C263 C 0.68004 0.84045 0.19369 0.0
C264 C 0.65534 0.82565 0.28353 0.0
C265 C 0.65477 0.83222 0.19757 0.0
C266 C 0.61628 0.80902 0.33294 0.0
C267 C 0.64285 0.81358 0.41738 0.0
N268 N 0.64324 0.82514 0.24168 0.0
N269 N 0.65417 0.81987 0.37301 0.0
H270 H 0.17524 0.78536 0.40775 0.0
H271 H 0.12934 0.86507 0.25796 0.0
H272 H 0.16707 0.84369 0.47216 0.0
H273 H 0.13636 0.80581 0.19487 0.0
H274 H 0.14356 0.85792 0.33659 0.0
H275 H 0.16179 0.79317 0.32899 0.0
C276 C 0.1707 0.79988 0.40525 0.0
C277 C 0.17225 0.81389 0.44653 0.0
C278 C 0.14197 0.84647 0.30555 0.0
C279 C 0.15674 0.82288 0.35658 0.0
C280 C 0.13382 0.85052 0.26071 0.0
C281 C 0.13165 0.83599 0.21989 0.0
C282 C 0.14801 0.82776 0.30957 0.0
C283 C 0.13775 0.81743 0.22544 0.0
C284 C 0.16298 0.80431 0.3603 0.0
C285 C 0.16613 0.83245 0.44124 0.0
N286 N 0.14565 0.81386 0.2694 0.0
N287 N 0.1586 0.83638 0.39712 0.0
H288 H 0.37919 0.17489 0.5799 0.0
H289 H 0.25348 0.13066 0.72823 0.0
H290 H 0.31306 0.16724 0.5144 0.0
H291 H 0.3197 0.13822 0.79306 0.0
H292 H 0.27486 0.14392 0.64945 0.0
H293 H 0.35772 0.16169 0.65848 0.0
C294 C 0.36017 0.1705 0.58211 0.0
C295 C 0.34788 0.17216 0.54061 0.0
C296 C 0.28471 0.14265 0.68089 0.0
C297 C 0.32314 0.15695 0.63034 0.0
C298 C 0.27249 0.13504 0.72583 0.0
C299 C 0.28484 0.13334 0.7672 0.0
C300 C 0.30946 0.1486 0.67734 0.0
C301 C 0.30948 0.13927 0.76207 0.0
C302 C 0.34789 0.16292 0.62696 0.0
C303 C 0.32323 0.16621 0.54552 0.0
N304 N 0.32098 0.14666 0.71801 0.0
N305 N 0.31166 0.15885 0.58955 0.0
H306 H 0.81089 0.14387 0.52546 0.0
H307 H 0.83583 0.17794 0.81045 0.0
H308 H 0.80018 0.19966 0.59461 0.0
H309 H 0.84648 0.12213 0.7412 0.0
H310 H 0.82276 0.18619 0.73178 0.0
H311 H 0.82371 0.13547 0.60425 0.0
C312 C 0.81117 0.15432 0.5573 0.0
C313 C 0.80447 0.1725 0.55352 0.0
C314 C 0.82797 0.17216 0.73372 0.0
C315 C 0.81921 0.16304 0.64385 0.0
C316 C 0.83548 0.16746 0.77862 0.0
C317 C 0.84226 0.14933 0.78232 0.0
C318 C 0.82723 0.15862 0.69214 0.0
C319 C 0.84142 0.13629 0.73994 0.0
C320 C 0.81853 0.14953 0.60227 0.0
C321 C 0.80519 0.18548 0.59592 0.0
N322 N 0.83402 0.14117 0.69661 0.0
N323 N 0.81247 0.18051 0.63933 0.0
H324 H 0.85887 0.71628 0.73852 0.0
H325 H 0.78342 0.58937 0.59094 0.0
H326 H 0.80278 0.64854 0.8036 0.0
H327 H 0.83644 0.65791 0.52345 0.0
H328 H 0.79151 0.61042 0.66993 0.0
H329 H 0.85196 0.69502 0.6599 0.0
C330 C 0.84509 0.69695 0.73623 0.0
C331 C 0.83134 0.68416 0.77758 0.0
C332 C 0.80142 0.62086 0.63788 0.0
C333 C 0.82339 0.65969 0.6879 0.0
C334 C 0.79684 0.60883 0.5928 0.0
C335 C 0.80925 0.62193 0.55059 0.0
C336 C 0.81855 0.64619 0.6408 0.0
C337 C 0.82644 0.64712 0.5551 0.0
C338 C 0.84116 0.68481 0.69137 0.0
C339 C 0.81375 0.65911 0.7726 0.0
N340 N 0.83055 0.65844 0.59937 0.0
N341 N 0.81029 0.6477 0.72861 0.0
H342 H 0.92945 0.46713 0.06514 0.0
H343 H 0.05656 0.51501 0.91967 0.0
H344 H -0.00308 0.47995 0.13362 0.0
H345 H -0.01121 0.50147 0.85152 0.0
H346 H 0.0351 0.50215 -0.00154 0.0
H347 H 0.95085 0.47933 0.98632 0.0
C348 C 0.94875 0.47244 0.06354 0.0
C349 C 0.96144 0.47255 0.10594 0.0
C350 C 0.02493 0.502 0.96627 0.0
C351 C 0.98608 0.48662 0.01597 0.0
C352 C 0.03718 0.50937 0.92133 0.0
C353 C 0.02443 0.50932 0.87906 0.0
C354 C -0.00025 0.49454 0.96891 0.0
C355 C -0.00067 0.5018 0.88323 0.0
C356 C 0.96098 0.47944 0.01856 0.0
C357 C 0.98644 0.47961 0.10179 0.0
N358 N 0.98782 0.49472 0.92732 0.0
N359 N -0.00205 0.48641 0.05764 0.0
H360 H 0.52988 0.4703 0.07477 0.0
H361 H 0.45173 0.52022 0.93169 0.0
H362 H 0.48038 0.48952 0.14607 0.0
H363 H 0.50196 0.50189 0.86074 0.0
H364 H 0.46209 0.50923 0.01073 0.0
H365 H 0.51992 0.48182 -0.0041 0.0
C366 C 0.5169 0.47692 0.07379 0.0
C367 C 0.50593 0.47894 0.11697 0.0
C368 C 0.47088 0.50765 0.97788 0.0
C369 C 0.49444 0.49218 0.02698 0.0
C370 C 0.46497 0.51393 0.93278 0.0
C371 C 0.476 0.51195 0.88964 0.0
C372 C 0.48791 0.4993 0.97981 0.0
C373 C 0.49302 0.50369 0.89313 0.0
C374 C 0.51123 0.48352 0.0288 0.0
C375 C 0.48926 0.48766 0.11364 0.0
N376 N 0.49843 0.49764 0.93739 0.0
N377 N 0.48403 0.49395 0.06945 0.0
H378 H 0.48947 0.9862 0.14278 0.0
H379 H 0.4961 -0.00084 0.85055 0.0
H380 H 0.52056 0.05581 0.06694 0.0
H381 H 0.46191 0.92929 0.92591 0.0
H382 H 0.50659 0.02023 0.92951 0.0
H383 H 0.48056 0.96507 0.06388 0.0
C384 C 0.49446 -0.00295 0.10947 0.0
C385 C 0.50574 0.0228 0.11136 0.0
C386 C 0.49683 0.00029 0.92887 0.0
C387 C 0.49558 -0.00127 0.02089 0.0
C388 C 0.49085 0.98824 0.88378 0.0
C389 C 0.47806 0.96243 0.88172 0.0
C390 C 0.48999 0.98645 0.97234 0.0
C391 C 0.47175 0.94922 0.92589 0.0
C392 C 0.48935 0.98497 0.06443 0.0
C393 C 0.51182 0.03593 0.06712 0.0
N394 N 0.47775 0.96139 0.96943 0.0
N395 N 0.50664 0.02374 0.02367 0.0
H396 H 0.1567 0.3345 0.96772 0.0
H397 H 0.16785 0.32196 0.67791 0.0
H398 H 0.14542 0.26807 0.89715 0.0
H399 H 0.17833 0.3881 0.74848 0.0
H400 H 0.15976 0.30186 0.75806 0.0
H401 H 0.16525 0.35471 0.88767 0.0
C402 C 0.15611 0.32422 0.93538 0.0
C403 C 0.15034 0.29962 0.93894 0.0
C404 C 0.16381 0.32077 0.75599 0.0
C405 C 0.15997 0.32248 0.84742 0.0
C406 C 0.16838 0.3322 0.71027 0.0
C407 C 0.17374 0.35668 0.70668 0.0
C408 C 0.16463 0.33394 0.79827 0.0
C409 C 0.17425 0.36917 0.74967 0.0
C410 C 0.16094 0.33572 0.8897 0.0
C411 C 0.14978 0.28709 0.89597 0.0
N412 N 0.16977 0.35766 0.79372 0.0
N413 N 0.15451 0.29866 0.85194 0.0
H414 H 0.58612 0.79078 0.73528 0.0
H415 H 0.71248 0.86952 0.8814 0.0
H416 H 0.65623 0.83587 0.66433 0.0
H417 H 0.64258 0.82203 0.9511 0.0
H418 H 0.69202 0.85899 0.8017 0.0
H419 H 0.60633 0.80347 0.81477 0.0
C420 C 0.60581 0.80338 0.73647 0.0
C421 C 0.61958 0.81225 0.69323 0.0
C422 C 0.68114 0.85092 0.83441 0.0
C423 C 0.64284 0.82687 0.78413 0.0
C424 C 0.69279 0.85694 0.87991 0.0
C425 C 0.67917 0.84654 0.92281 0.0
C426 C 0.6557 0.83439 0.83186 0.0
C427 C 0.65375 0.8304 0.91886 0.0
C428 C 0.61733 0.81063 0.78188 0.0
C429 C 0.64498 0.82857 0.69687 0.0
N430 N 0.64283 0.82476 0.8741 0.0
N431 N 0.65584 0.83535 0.74163 0.0
H432 H 0.15868 0.82471 0.9788 0.0
H433 H 0.13791 0.81689 0.68813 0.0
H434 H 0.10208 0.83363 0.90792 0.0
H435 H 0.19504 0.80902 0.75955 0.0
H436 H 0.12401 0.82251 0.76841 0.0
H437 H 0.17157 0.81777 0.89867 0.0
C438 C 0.14889 0.82506 0.94637 0.0
C439 C 0.12935 0.82979 0.94987 0.0
C440 C 0.1396 0.81957 0.76648 0.0
C441 C 0.14402 0.82205 0.85822 0.0
C442 C 0.14756 0.81644 0.7207 0.0
C443 C 0.16764 0.81253 0.71731 0.0
C444 C 0.15184 0.81877 0.80901 0.0
C445 C 0.17947 0.81201 0.76056 0.0
C446 C 0.15627 0.82117 0.90065 0.0
C447 C 0.11728 0.83008 0.90678 0.0
N448 N 0.17138 0.81508 0.80464 0.0
N449 N 0.12486 0.82634 0.86268 0.0
H450 H 0.31063 0.14053 0.29931 0.0
H451 H 0.32386 0.1612 0.00862 0.0
H452 H 0.37663 0.19609 0.22791 0.0
H453 H 0.25722 0.10675 0.07996 0.0
H454 H 0.34393 0.17354 0.08868 0.0
H455 H 0.29083 0.12736 0.2191 0.0
C456 C 0.32091 0.14998 0.26675 0.0
C457 C 0.34525 0.16942 0.27014 0.0
C458 C 0.32493 0.15884 0.08681 0.0
C459 C 0.32288 0.15445 0.17849 0.0
C460 C 0.31352 0.15178 0.04114 0.0
C461 C 0.28887 0.13298 0.03779 0.0
C462 C 0.31157 0.14701 0.12933 0.0
C463 C 0.27627 0.12137 0.08098 0.0
C464 C 0.30964 0.14245 0.22101 0.0
C465 C 0.35779 0.18102 0.22689 0.0
N466 N 0.28775 0.12861 0.12501 0.0
N467 N 0.34646 0.17335 0.18283 0.0
H468 H 0.86792 0.14297 0.09457 0.0
H469 H 0.78087 0.18008 0.24103 0.0
H470 H 0.81638 0.15991 0.02471 0.0
H471 H 0.83299 0.16408 0.31123 0.0
H472 H 0.7936 0.17264 0.16146 0.0
H473 H 0.85558 0.15085 0.17426 0.0
C474 C 0.85405 0.14843 0.09604 0.0
C475 C 0.84311 0.15078 0.05308 0.0
C476 C 0.80226 0.17072 0.19422 0.0
C477 C 0.82885 0.15972 0.14406 0.0
C478 C 0.79497 0.17493 0.23966 0.0
C479 C 0.80591 0.17267 0.28269 0.0
C480 C 0.82063 0.16421 0.19178 0.0
C481 C 0.82409 0.16599 0.27887 0.0
C482 C 0.847 0.15289 0.14154 0.0
C483 C 0.82525 0.15789 0.057 0.0
N484 N 0.83091 0.162 0.23411 0.0
N485 N 0.81864 0.16207 0.10178 0.0
H486 H 0.82962 0.71379 0.08933 0.0
H487 H 0.79706 0.59089 0.23649 0.0
H488 H 0.81572 0.6462 0.01994 0.0
H489 H 0.81423 0.65931 0.30668 0.0
H490 H 0.80246 0.61051 0.15675 0.0
H491 H 0.82223 0.69368 0.16913 0.0
C492 C 0.82486 0.69465 0.09091 0.0
C493 C 0.82333 0.68162 0.04806 0.0
C494 C 0.80507 0.62127 0.18953 0.0
C495 C 0.815 0.65856 0.13917 0.0
C496 C 0.80203 0.61009 0.23508 0.0
C497 C 0.80527 0.62355 0.27818 0.0
C498 C 0.81138 0.64609 0.18703 0.0
C499 C 0.81163 0.64832 0.27427 0.0
C500 C 0.82071 0.68321 0.13647 0.0
C501 C 0.81711 0.6569 0.05214 0.0
N502 N 0.81448 0.65882 0.2294 0.0
N503 N 0.81324 0.64617 0.09697 0.0
H504 H -0.00035 0.50407 0.34715 0.0
H505 H 0.98611 0.48331 0.63775 0.0
H506 H 0.93241 0.45113 0.41901 0.0
H507 H 0.05355 0.53616 0.56641 0.0
H508 H 0.96589 0.4717 0.55778 0.0
H509 H 0.01977 0.51643 0.42723 0.0
C510 C -0.01084 0.49504 0.37978 0.0
C511 C 0.96438 0.47656 0.37658 0.0
C512 C 0.9851 0.48588 0.55962 0.0
C513 C 0.98714 0.49058 0.46804 0.0
C514 C -0.00339 0.49251 0.60524 0.0
C515 C 0.0215 0.51067 0.60857 0.0
C516 C -0.00138 0.49749 0.51712 0.0
C517 C 0.0343 0.52203 0.5654 0.0
C518 C 0.00062 0.5021 0.42545 0.0
C519 C 0.95159 0.46546 0.4199 0.0
N520 N 0.02272 0.51522 0.5214 0.0
N521 N 0.96311 0.47264 0.46386 0.0
H522 H 0.48552 0.48259 0.64841 0.0
H523 H 0.49675 0.50698 0.35881 0.0
H524 H 0.46866 0.53377 0.57673 0.0
H525 H 0.51239 0.45478 0.42975 0.0
H526 H 0.4868 0.51742 0.43868 0.0
H527 H 0.49595 0.47241 0.56868 0.0
C528 C 0.48404 0.49167 0.61588 0.0
C529 C 0.47622 0.50901 0.61903 0.0
C530 C 0.49241 0.50368 0.43678 0.0
C531 C 0.48807 0.49753 0.52798 0.0
C532 C 0.49808 0.49774 0.39122 0.0
C533 C 0.50536 0.48 0.38779 0.0
C534 C 0.49406 0.49179 0.47908 0.0
C535 C 0.50682 0.46857 0.43084 0.0
C536 C 0.48997 0.48588 0.57042 0.0
C537 C 0.4746 0.52027 0.57587 0.0
N538 N 0.50121 0.47465 0.47475 0.0
N539 N 0.48047 0.51433 0.5321 0.0
H540 H 0.49333 0.0009 0.64226 0.0
H541 H 0.47584 0.98551 0.35133 0.0
H542 H 0.45154 0.93077 0.56948 0.0
H543 H 0.51809 0.0556 0.42402 0.0
H544 H 0.46547 0.96514 0.43127 0.0
H545 H 0.50152 0.02147 0.56269 0.0
C546 C 0.48586 0.98986 0.60951 0.0
C547 C 0.47183 0.96414 0.61229 0.0
C548 C 0.47696 0.98499 0.42973 0.0
C549 C 0.48106 0.98744 0.52138 0.0
C550 C 0.48286 -0.00341 0.38415 0.0
C551 C 0.49789 0.02222 0.3812 0.0
C552 C 0.4862 -0.00084 0.47252 0.0
C553 C 0.50648 0.03576 0.42473 0.0
C554 C 0.49051 0.00158 0.56414 0.0
C555 C 0.46252 0.95067 0.56887 0.0
N556 N 0.50056 0.02405 0.46865 0.0
N557 N 0.46734 0.96248 0.52514 0.0
H558 H 0.20388 0.25454 0.04453 0.0
H559 H 0.18121 0.12525 0.94226 0.0
H560 H 0.13411 0.18692 0.05376 0.0
H561 H 0.25272 0.191 0.94693 0.0
H562 H 0.16341 0.1479 0.98107 0.0
H563 H 0.22228 0.23165 0.00929 0.0
C564 C 0.19253 0.23481 0.03981 0.0
C565 C 0.16743 0.2226 0.052 0.0
C566 C 0.18298 0.15741 0.97347 0.0
C567 C 0.18822 0.19638 0.01085 0.0
C568 C 0.19311 0.14454 0.95096 0.0
C569 C 0.21846 0.1563 0.94127 0.0
C570 C 0.19831 0.18224 0.98628 0.0
C571 C 0.23307 0.18125 0.95364 0.0
C572 C 0.203 0.22177 0.01942 0.0
C573 C 0.15355 0.19705 0.04492 0.0
N574 N 0.22278 0.19339 0.97558 0.0
N575 N 0.16408 0.18481 0.02444 0.0
H576 H 0.78417 0.05697 0.95167 0.0
H577 H 0.79026 0.9401 0.0519 0.0
H578 H 0.85048 0.05217 0.95328 0.0
H579 H 0.72244 0.94129 0.03452 0.0
H580 H 0.81307 0.98252 0.02223 0.0
H581 H 0.76145 0.01541 0.98591 0.0
C582 C 0.79389 0.04707 0.9588 0.0
C583 C 0.81922 0.05797 0.94947 0.0
C584 C 0.79321 0.97357 0.02522 0.0
C585 C 0.79344 0.01061 0.98935 0.0
C586 C 0.7802 0.94942 0.04251 0.0
C587 C 0.75442 0.93716 0.04553 0.0
C588 C 0.78035 0.98555 0.01086 0.0
C589 C 0.74231 0.95007 0.03271 0.0
C590 C 0.78094 0.0234 0.97858 0.0
C591 C 0.83094 0.0444 0.9597 0.0
N592 N 0.75538 0.97353 0.01567 0.0
N593 N 0.81797 0.02145 0.97926 0.0
H594 H 0.91943 0.71945 0.95816 0.0
H595 H 0.03069 0.84267 0.0722 0.0
H596 H 0.9216 0.78931 0.96064 0.0
H597 H 0.03207 0.77492 0.05625 0.0
H598 H -0.01095 0.82233 0.03816 0.0
H599 H 0.95969 0.73874 -0.00171 0.0
C600 C 0.92849 0.73891 0.96675 0.0
C601 C 0.91724 0.75284 0.95587 0.0
C602 C -0.00162 0.81185 0.04247 0.0
C603 C 0.96309 0.77494 0.00247 0.0
C604 C 0.02207 0.8234 0.06227 0.0
C605 C 0.03487 0.81048 0.06686 0.0
C606 C 0.98742 0.7872 0.02715 0.0
C607 C 0.02287 0.78557 0.05325 0.0
C608 C 0.95141 0.74987 0.9899 0.0
C609 C 0.9297 0.77792 0.96813 0.0
N610 N -0.00013 0.77478 0.03369 0.0
N611 N 0.95193 0.78815 0.99091 0.0
H612 H 0.83744 0.79237 0.91631 0.0
H613 H 0.71373 0.78429 0.01754 0.0
H614 H 0.76934 0.72381 0.93564 0.0
H615 H 0.78478 0.85067 0.01871 0.0
H616 H 0.73281 0.7621 0.98176 0.0
H617 H 0.81712 0.81456 0.94548 0.0
C618 C 0.8181 0.78201 0.92599 0.0
C619 C 0.80507 0.75622 0.92378 0.0
C620 C 0.74423 0.7815 0.99002 0.0
C621 C 0.78181 0.78144 0.95788 0.0
C622 C 0.73338 0.79414 0.01064 0.0
C623 C 0.74773 0.81932 0.02131 0.0
C624 C 0.76959 0.79419 0.97971 0.0
C625 C 0.77306 0.83123 0.01131 0.0
C626 C 0.80656 0.79467 0.94301 0.0
C627 C 0.78008 0.74372 0.9369 0.0
N628 N 0.78317 0.81857 0.99093 0.0
N629 N 0.76928 0.75644 0.95369 0.0
H630 H 0.11788 0.92761 0.03977 0.0
H631 H 0.24485 0.03513 0.93002 0.0
H632 H 0.18511 0.92455 0.03568 0.0
H633 H 0.1766 0.03624 0.92615 0.0
H634 H 0.22303 -0.00595 0.96649 0.0
H635 H 0.13914 0.96756 -0.00148 0.0
C636 C 0.13719 0.93548 0.03065 0.0
C637 C 0.14979 0.92281 0.04129 0.0
C638 C 0.21276 0.00317 0.95727 0.0
C639 C 0.17413 0.96832 0.99348 0.0
C640 C 0.22519 0.02656 0.93615 0.0
C641 C 0.21252 0.03912 0.92518 0.0
C642 C 0.18751 0.99233 0.96776 0.0
C643 C 0.18708 0.0272 0.93404 0.0
C644 C 0.14927 0.9582 0.00678 0.0
C645 C 0.17473 0.93375 0.02831 0.0
N646 N 0.17544 0.00454 0.9552 0.0
N647 N 0.18608 0.95586 0.00502 0.0
H648 H 0.94064 0.138 0.93113 0.0
H649 H 0.0552 0.26213 0.034 0.0
H650 H 0.94046 0.20643 0.94534 0.0
H651 H 0.05124 0.19144 0.03663 0.0
H652 H 0.01401 0.24266 -0.00226 0.0
H653 H 0.98262 0.15819 0.96349 0.0
C654 C 0.94958 0.15737 0.9404 0.0
C655 C 0.93706 0.17056 0.93567 0.0
C656 C 0.0221 0.23138 0.00646 0.0
C657 C 0.98491 0.19369 0.97338 0.0
C658 C 0.04555 0.24247 0.02739 0.0
C659 C 0.05659 0.22835 0.03847 0.0
C660 C 0.00968 0.20603 -0.00372 0.0
C661 C 0.04335 0.20298 0.02885 0.0
C662 C 0.97346 0.16884 0.95924 0.0
C663 C 0.94946 0.19559 0.94845 0.0
N664 N 0.02063 0.19265 0.00812 0.0
N665 N 0.97267 0.20631 0.96696 0.0
H666 H 0.80076 0.51604 0.39297 0.0
H667 H 0.92487 0.53093 0.27759 0.0
H668 H 0.86709 0.58629 0.37464 0.0
H669 H 0.85533 0.46282 0.27736 0.0
H670 H 0.90469 0.55149 0.31577 0.0
H671 H 0.82152 0.49586 0.35596 0.0
C672 C 0.81981 0.52719 0.38177 0.0
C673 C 0.83223 0.55287 0.38684 0.0
C674 C 0.89381 0.53208 0.30706 0.0
C675 C 0.85599 0.52996 0.34377 0.0
C676 C 0.90529 0.52038 0.28503 0.0
C677 C 0.89173 0.49515 0.27425 0.0
C678 C 0.86864 0.5184 0.31871 0.0
C679 C 0.86646 0.48232 0.28491 0.0
C680 C 0.83159 0.51568 0.36026 0.0
C681 C 0.85685 0.56643 0.37144 0.0
N682 N 0.85576 0.49406 0.30683 0.0
N683 N 0.86791 0.55481 0.35042 0.0
H684 H 0.44577 0.38371 0.2792 0.0
H685 H 0.45566 0.27083 0.39027 0.0
H686 H 0.5128 0.38025 0.28083 0.0
H687 H 0.38652 0.26888 0.3686 0.0
H688 H 0.47722 0.31231 0.3557 0.0
H689 H 0.42375 0.34232 0.31457 0.0
C690 C 0.45577 0.3741 0.28641 0.0
C691 C 0.48113 0.38539 0.27703 0.0
C692 C 0.45734 0.30288 0.35873 0.0
C693 C 0.45621 0.33831 0.31834 0.0
C694 C 0.44504 0.27928 0.37886 0.0
C695 C 0.41927 0.26641 0.38225 0.0
C696 C 0.44377 0.31372 0.34196 0.0
C697 C 0.40642 0.27818 0.36666 0.0
C698 C 0.44324 0.35055 0.30685 0.0
C699 C 0.49323 0.37219 0.28734 0.0
N700 N 0.41881 0.30116 0.34701 0.0
N701 N 0.48069 0.34941 0.30774 0.0
H702 H 0.59563 0.05916 0.28578 0.0
H703 H 0.70663 0.18303 0.3982 0.0
H704 H 0.59879 0.12947 0.28179 0.0
H705 H 0.70816 0.11524 0.38511 0.0
H706 H 0.66558 0.16276 0.36141 0.0
H707 H 0.63607 0.07881 0.32527 0.0
C708 C 0.60498 0.07879 0.29269 0.0
C709 C 0.5939 0.09273 0.2804 0.0
C710 C 0.67482 0.15226 0.36687 0.0
C711 C 0.63991 0.11524 0.32636 0.0
C712 C 0.69816 0.16377 0.38827 0.0
C713 C 0.71081 0.15079 0.39462 0.0
C714 C 0.66405 0.1276 0.35178 0.0
C715 C 0.69904 0.12592 0.38085 0.0
C716 C 0.62799 0.08997 0.31549 0.0
C717 C 0.60673 0.11806 0.29047 0.0
N718 N 0.67636 0.11515 0.35984 0.0
N719 N 0.62901 0.12848 0.3131 0.0
H720 H 0.44335 0.06016 0.27108 0.0
H721 H 0.45581 0.18583 0.37106 0.0
H722 H 0.51067 0.13032 0.26494 0.0
H723 H 0.3868 0.1173 0.36422 0.0
H724 H 0.47643 0.16544 0.3343 0.0
H725 H 0.42215 0.08065 0.30474 0.0
C726 C 0.45358 0.07993 0.27616 0.0
C727 C 0.4788 0.09357 0.26527 0.0
C728 C 0.45679 0.15483 0.34097 0.0
C729 C 0.4548 0.11706 0.3046 0.0
C730 C 0.44505 0.16641 0.3623 0.0
C731 C 0.41957 0.1532 0.37077 0.0
C732 C 0.44297 0.12983 0.32808 0.0
C733 C 0.40649 0.12814 0.35842 0.0
C734 C 0.44151 0.0916 0.29565 0.0
C735 C 0.49119 0.11912 0.27277 0.0
N736 N 0.41833 0.11727 0.33761 0.0
N737 N 0.47911 0.13001 0.29232 0.0
H738 H 0.79503 0.26916 0.38267 0.0
H739 H 0.92292 0.37758 0.27832 0.0
H740 H 0.86199 0.26559 0.37944 0.0
H741 H 0.85382 0.37658 0.26544 0.0
H742 H 0.90122 0.33683 0.31636 0.0
H743 H 0.81687 0.30957 0.34336 0.0
C744 C 0.81442 0.27703 0.37425 0.0
C745 C 0.82674 0.26404 0.38434 0.0
C746 C 0.89077 0.34543 0.30484 0.0
C747 C 0.85175 0.31007 0.33871 0.0
C748 C 0.90312 0.36862 0.28285 0.0
C749 C 0.89013 0.38046 0.26871 0.0
C750 C 0.86527 0.33409 0.31306 0.0
C751 C 0.86453 0.36808 0.27569 0.0
C752 C 0.82682 0.3 0.35144 0.0
C753 C 0.85181 0.27502 0.37236 0.0
N754 N 0.85297 0.34565 0.2977 0.0
N755 N 0.86348 0.29738 0.35004 0.0
H756 H 0.60095 0.53407 0.29208 0.0
H757 H 0.71218 0.51595 0.38411 0.0
H758 H 0.60164 0.46587 0.27847 0.0
H759 H 0.71454 0.58591 0.38506 0.0
H760 H 0.67072 0.49678 0.34931 0.0
H761 H 0.64224 0.55328 0.32767 0.0
C762 C 0.60992 0.52322 0.29606 0.0
C763 C 0.59789 0.49835 0.28226 0.0
C764 C 0.68025 0.5163 0.35736 0.0
C765 C 0.64493 0.52008 0.3237 0.0
C766 C 0.70384 0.52721 0.37757 0.0
C767 C 0.71679 0.55255 0.38745 0.0
C768 C 0.66954 0.53084 0.347 0.0
C769 C 0.70518 0.5663 0.37801 0.0
C770 C 0.63343 0.53416 0.31663 0.0
C771 C 0.61029 0.48512 0.28848 0.0
N772 N 0.68224 0.55528 0.35814 0.0
N773 N 0.63309 0.49611 0.30899 0.0
H774 H 0.51198 0.79772 0.58843 0.0
H775 H 0.53124 0.92484 0.69641 0.0
H776 H 0.58201 0.8653 0.58823 0.0
H777 H 0.46436 0.85499 0.71401 0.0
H778 H 0.54983 0.90388 0.65367 0.0
H779 H 0.49337 0.81927 0.62859 0.0
C780 C 0.52336 0.81719 0.59613 0.0
C781 C 0.54858 0.82974 0.58509 0.0
C782 C 0.53115 0.89312 0.66718 0.0
C783 C 0.52752 0.85442 0.63177 0.0
C784 C 0.52059 0.90504 0.69185 0.0
C785 C 0.49625 0.8916 0.70887 0.0
C786 C 0.5172 0.8676 0.65919 0.0
C787 C 0.48322 0.86603 0.70166 0.0
C788 C 0.51277 0.82944 0.61946 0.0
C789 C 0.56248 0.85493 0.59613 0.0
N790 N 0.49381 0.85488 0.67711 0.0
N791 N 0.55179 0.86642 0.6191 0.0
H792 H 0.1859 0.71979 0.61597 0.0
H793 H 0.06084 0.60675 0.71928 0.0
H794 H 0.11716 0.71982 0.62359 0.0
H795 H 0.13094 0.6094 0.72275 0.0
H796 H 0.08116 0.64835 0.68514 0.0
H797 H 0.16581 0.67888 0.65332 0.0
C798 C 0.1665 0.71105 0.625 0.0
C799 C 0.15314 0.72316 0.6166 0.0
C800 C 0.09214 0.63993 0.69374 0.0
C801 C 0.13013 0.67653 0.65998 0.0
C802 C 0.08057 0.61624 0.71352 0.0
C803 C 0.09423 0.60462 0.72378 0.0
C804 C 0.11753 0.65201 0.68387 0.0
C805 C 0.11973 0.6177 0.71542 0.0
C806 C 0.15509 0.68778 0.64667 0.0
C807 C 0.12811 0.71109 0.62931 0.0
N808 N 0.13053 0.64064 0.69559 0.0
N809 N 0.11742 0.68845 0.65047 0.0
H810 H 0.38109 0.45218 0.71372 0.0
H811 H 0.2698 0.46655 0.60821 0.0
H812 H 0.37714 0.51871 0.72609 0.0
H813 H 0.26852 0.39716 0.61388 0.0
H814 H 0.31027 0.48644 0.64739 0.0
H815 H 0.3403 0.43174 0.67561 0.0
C816 C 0.37149 0.46238 0.70901 0.0
C817 C 0.38248 0.48716 0.72308 0.0
C818 C 0.3012 0.46688 0.6399 0.0
C819 C 0.33607 0.46407 0.67871 0.0
C820 C 0.27818 0.45555 0.61717 0.0
C821 C 0.26582 0.43018 0.60777 0.0
C822 C 0.31196 0.45273 0.65321 0.0
C823 C 0.27746 0.41679 0.62042 0.0
C824 C 0.34827 0.45075 0.68701 0.0
C825 C 0.3693 0.49955 0.71589 0.0
N826 N 0.29987 0.42822 0.64261 0.0
N827 N 0.34686 0.48792 0.69389 0.0
H828 H 0.18443 0.46722 0.58959 0.0
H829 H 0.06046 0.454 0.70234 0.0
H830 H 0.11686 0.39776 0.60433 0.0
H831 H 0.13035 0.52173 0.70302 0.0
H832 H 0.08023 0.43329 0.66318 0.0
H833 H 0.16398 0.48804 0.62524 0.0
C834 C 0.16518 0.4564 0.59965 0.0
C835 C 0.15232 0.43072 0.59411 0.0
C836 C 0.09128 0.45266 0.67213 0.0
C837 C 0.12892 0.45435 0.63563 0.0
C838 C 0.08003 0.46444 0.69473 0.0
C839 C 0.09382 0.48959 0.70607 0.0
C840 C 0.11646 0.46615 0.66052 0.0
C841 C 0.11906 0.50228 0.69511 0.0
C842 C 0.15357 0.46826 0.62038 0.0
C843 C 0.12745 0.41759 0.60798 0.0
N844 N 0.12956 0.49045 0.67273 0.0
N845 N 0.11659 0.42954 0.62835 0.0
H846 H 0.53168 0.60596 0.71894 0.0
H847 H 0.51247 0.70956 0.58867 0.0
H848 H 0.46267 0.60559 0.718 0.0
H849 H 0.58339 0.71466 0.60407 0.0
H850 H 0.49354 0.67023 0.63218 0.0
H851 H 0.55101 0.64551 0.67605 0.0
C852 C 0.52069 0.6144 0.71039 0.0
C853 C 0.49554 0.6025 0.72204 0.0
C854 C 0.51323 0.67987 0.62581 0.0
C855 C 0.51738 0.64744 0.67205 0.0
C856 C 0.52401 0.70222 0.60056 0.0
C857 C 0.54954 0.71538 0.59275 0.0
C858 C 0.52808 0.67061 0.64333 0.0
C859 C 0.56363 0.70509 0.60926 0.0
C860 C 0.53169 0.63688 0.68559 0.0
C861 C 0.48213 0.61417 0.70982 0.0
N862 N 0.55272 0.68335 0.63395 0.0
N863 N 0.49317 0.6359 0.68516 0.0
H864 H 0.27019 0.80508 0.60191 0.0
H865 H 0.38032 0.92655 0.72297 0.0
H866 H 0.26748 0.87181 0.62408 0.0
H867 H 0.37747 0.85637 0.71926 0.0
H868 H 0.33945 0.90737 0.68532 0.0
H869 H 0.31081 0.82461 0.64029 0.0
C870 C 0.27831 0.82398 0.61422 0.0
C871 C 0.26546 0.83685 0.60982 0.0
C872 C 0.34768 0.89612 0.69314 0.0
C873 C 0.31176 0.85919 0.65454 0.0
C874 C 0.37092 0.90702 0.71493 0.0
C875 C 0.38228 0.89301 0.72422 0.0
C876 C 0.33582 0.8711 0.68023 0.0
C877 C 0.36936 0.86784 0.71282 0.0
C878 C 0.3014 0.83505 0.63655 0.0
C879 C 0.27678 0.86124 0.62668 0.0
N880 N 0.3469 0.85773 0.69106 0.0
N881 N 0.29927 0.8716 0.64848 0.0
loop_
_geom_bond_atom_site_label_1
_geom_bond_atom_site_label_2
_geom_bond_distance
_geom_bond_site_symmetry_2
_ccdc_geom_bond_type
In0 O1 2.294 . S
In0 O2 2.326 . S
In0 O6 2.266 . S
In0 O7 2.326 1_554 S
In0 O8 2.266 . S
In0 O9 2.326 . S
In0 O11 2.294 . S
In0 O12 2.326 . S
O1 In0 2.294 . S
O1 C10 1.240 . S
O2 In0 2.326 . S
O2 C10 1.252 . S
C3 O6 1.252 1_556 S
C3 O7 1.260 . S
C4 O11 1.240 . S
C4 O12 1.252 . S
C5 O8 1.252 . S
C5 O9 1.260 . S
O6 In0 2.266 . S
O6 C3 1.252 1_554 S
O7 In0 2.326 1_556 S
O7 C3 1.260 . S
O8 In0 2.266 . S
O8 C5 1.252 . S
O9 In0 2.326 . S
O9 C5 1.260 . S
C10 O1 1.240 . S
C10 O2 1.252 . S
O11 In0 2.294 . S
O11 C4 1.240 . S
O12 In0 2.326 . S
O12 C4 1.252 . S
In13 O14 2.294 . S
In13 O15 2.326 . S
In13 O19 2.266 . S
In13 O20 2.326 . S
In13 O21 2.266 . S
In13 O22 2.326 1_554 S
In13 O24 2.294 . S
In13 O25 2.326 . S
O14 In13 2.294 . S
O14 C23 1.240 . S
O15 In13 2.326 . S
O15 C23 1.252 . S
C16 O19 1.252 . S
C16 O20 1.260 . S
C17 O24 1.240 . S
C17 O25 1.252 . S
C18 O21 1.252 1_556 S
C18 O22 1.260 . S
O19 In13 2.266 . S
O19 C16 1.252 . S
O20 In13 2.326 . S
O20 C16 1.260 . S
O21 In13 2.266 . S
O21 C18 1.252 1_554 S
O22 In13 2.326 1_556 S
O22 C18 1.260 . S
C23 O14 1.240 . S
C23 O15 1.252 . S
O24 In13 2.294 . S
O24 C17 1.240 . S
O25 In13 2.326 . S
O25 C17 1.252 . S
In26 O27 2.294 . S
In26 O28 2.326 . S
In26 O32 2.266 . S
In26 O33 2.326 . S
In26 O34 2.266 . S
In26 O35 2.326 1_554 S
In26 O37 2.294 . S
In26 O38 2.326 . S
O27 In26 2.294 . S
O27 C36 1.240 . S
O28 In26 2.326 . S
O28 C36 1.252 . S
C29 O32 1.252 . S
C29 O33 1.260 . S
C30 O37 1.240 . S
C30 O38 1.252 . S
C31 O34 1.252 1_556 S
C31 O35 1.260 . S
O32 In26 2.266 . S
O32 C29 1.252 . S
O33 In26 2.326 . S
O33 C29 1.260 . S
O34 In26 2.266 . S
O34 C31 1.252 1_554 S
O35 In26 2.326 1_556 S
O35 C31 1.260 . S
C36 O27 1.240 . S
C36 O28 1.252 . S
O37 In26 2.294 . S
O37 C30 1.240 . S
O38 In26 2.326 . S
O38 C30 1.252 . S
In39 O40 2.294 . S
In39 O41 2.326 . S
In39 O45 2.266 . S
In39 O46 2.326 1_556 S
In39 O47 2.266 . S
In39 O48 2.326 . S
In39 O50 2.294 . S
In39 O51 2.326 . S
O40 In39 2.294 . S
O40 C49 1.240 . S
O41 In39 2.326 . S
O41 C49 1.252 . S
C42 O45 1.252 1_554 S
C42 O46 1.260 . S
C43 O50 1.240 . S
C43 O51 1.252 . S
C44 O47 1.252 . S
C44 O48 1.260 . S
O45 In39 2.266 . S
O45 C42 1.252 1_556 S
O46 In39 2.326 1_554 S
O46 C42 1.260 . S
O47 In39 2.266 . S
O47 C44 1.252 . S
O48 In39 2.326 . S
O48 C44 1.260 . S
C49 O40 1.240 . S
C49 O41 1.252 . S
O50 In39 2.294 . S
O50 C43 1.240 . S
O51 In39 2.326 . S
O51 C43 1.252 . S
In52 O53 2.294 . S
In52 O54 2.326 . S
In52 O58 2.266 . S
In52 O59 2.326 1_556 S
In52 O60 2.266 . S
In52 O61 2.326 . S
In52 O63 2.294 . S
In52 O64 2.326 . S
O53 In52 2.294 . S
O53 C62 1.240 . S
O54 In52 2.326 . S
O54 C62 1.252 . S
C55 O58 1.252 1_554 S
C55 O59 1.260 . S
C56 O63 1.240 . S
C56 O64 1.252 . S
C57 O60 1.252 . S
C57 O61 1.260 . S
O58 In52 2.266 . S
O58 C55 1.252 1_556 S
O59 In52 2.326 1_554 S
O59 C55 1.260 . S
O60 In52 2.266 . S
O60 C57 1.252 . S
O61 In52 2.326 . S
O61 C57 1.260 . S
C62 O53 1.240 . S
C62 O54 1.252 . S
O63 In52 2.294 . S
O63 C56 1.240 . S
O64 In52 2.326 . S
O64 C56 1.252 . S
In65 O66 2.294 . S
In65 O67 2.326 . S
In65 O71 2.266 . S
In65 O72 2.326 . S
In65 O73 2.266 . S
In65 O74 2.326 1_556 S
In65 O76 2.294 . S
In65 O77 2.326 . S
O66 In65 2.294 . S
O66 C75 1.240 . S
O67 In65 2.326 . S
O67 C75 1.252 . S
C68 O71 1.252 . S
C68 O72 1.260 . S
C69 O76 1.240 . S
C69 O77 1.252 . S
C70 O73 1.252 1_554 S
C70 O74 1.260 . S
O71 In65 2.266 . S
O71 C68 1.252 . S
O72 In65 2.326 . S
O72 C68 1.260 . S
O73 In65 2.266 . S
O73 C70 1.252 1_556 S
O74 In65 2.326 1_554 S
O74 C70 1.260 . S
C75 O66 1.240 . S
C75 O67 1.252 . S
O76 In65 2.294 . S
O76 C69 1.240 . S
O77 In65 2.326 . S
O77 C69 1.252 . S
In78 O79 2.294 . S
In78 O80 2.326 . S
In78 O84 2.266 . S
In78 O85 2.326 . S
In78 O86 2.266 . S
In78 O87 2.326 . S
In78 O89 2.294 . S
In78 O90 2.326 . S
O79 In78 2.294 . S
O79 C88 1.240 . S
O80 In78 2.326 . S
O80 C88 1.252 . S
C81 O84 1.252 . S
C81 O85 1.260 . S
C82 O89 1.240 . S
C82 O90 1.252 . S
C83 O86 1.252 . S
C83 O87 1.260 . S
O84 In78 2.266 . S
O84 C81 1.252 . S
O85 In78 2.326 . S
O85 C81 1.260 . S
O86 In78 2.266 . S
O86 C83 1.252 . S
O87 In78 2.326 . S
O87 C83 1.260 . S
C88 O79 1.240 . S
C88 O80 1.252 . S
O89 In78 2.294 . S
O89 C82 1.240 . S
O90 In78 2.326 . S
O90 C82 1.252 . S
In91 O92 2.294 . S
In91 O93 2.326 . S
In91 O97 2.266 . S
In91 O98 2.326 . S
In91 O99 2.266 . S
In91 O100 2.326 . S
In91 O102 2.294 . S
In91 O103 2.326 . S
O92 In91 2.294 . S
O92 C101 1.240 . S
O93 In91 2.326 . S
O93 C101 1.252 . S
C94 O97 1.252 . S
C94 O98 1.260 . S
C95 O102 1.240 . S
C95 O103 1.252 . S
C96 O99 1.252 . S
C96 O100 1.260 . S
O97 In91 2.266 . S
O97 C94 1.252 . S
O98 In91 2.326 . S
O98 C94 1.260 . S
O99 In91 2.266 . S
O99 C96 1.252 . S
O100 In91 2.326 . S
O100 C96 1.260 . S
C101 O92 1.240 . S
C101 O93 1.252 . S
O102 In91 2.294 . S
O102 C95 1.240 . S
O103 In91 2.326 . S
O103 C95 1.252 . S
In104 O105 2.294 . S
In104 O106 2.326 . S
In104 O110 2.266 . S
In104 O111 2.326 . S
In104 O112 2.266 . S
In104 O113 2.326 . S
In104 O115 2.294 . S
In104 O116 2.326 . S
O105 In104 2.294 . S
O105 C114 1.240 . S
O106 In104 2.326 . S
O106 C114 1.252 . S
C107 O110 1.252 . S
C107 O111 1.260 . S
C108 O115 1.240 . S
C108 O116 1.252 . S
C109 O112 1.252 . S
C109 O113 1.260 . S
O110 In104 2.266 . S
O110 C107 1.252 . S
O111 In104 2.326 . S
O111 C107 1.260 . S
O112 In104 2.266 . S
O112 C109 1.252 . S
O113 In104 2.326 . S
O113 C109 1.260 . S
C114 O105 1.240 . S
C114 O106 1.252 . S
O115 In104 2.294 . S
O115 C108 1.240 . S
O116 In104 2.326 . S
O116 C108 1.252 . S
In117 O118 2.294 . S
In117 O119 2.326 . S
In117 O123 2.266 . S
In117 O124 2.326 . S
In117 O125 2.266 . S
In117 O126 2.326 . S
In117 O128 2.294 . S
In117 O129 2.326 . S
O118 In117 2.294 . S
O118 C127 1.240 . S
O119 In117 2.326 . S
O119 C127 1.252 . S
C120 O123 1.252 . S
C120 O124 1.260 . S
C121 O128 1.240 . S
C121 O129 1.252 . S
C122 O125 1.252 . S
C122 O126 1.260 . S
O123 In117 2.266 . S
O123 C120 1.252 . S
O124 In117 2.326 . S
O124 C120 1.260 . S
O125 In117 2.266 . S
O125 C122 1.252 . S
O126 In117 2.326 . S
O126 C122 1.260 . S
C127 O118 1.240 . S
C127 O119 1.252 . S
O128 In117 2.294 . S
O128 C121 1.240 . S
O129 In117 2.326 . S
O129 C121 1.252 . S
In130 O131 2.294 . S
In130 O132 2.326 . S
In130 O136 2.266 . S
In130 O137 2.326 . S
In130 O138 2.266 . S
In130 O139 2.326 . S
In130 O141 2.294 . S
In130 O142 2.326 . S
O131 In130 2.294 . S
O131 C140 1.240 . S
O132 In130 2.326 . S
O132 C140 1.252 . S
C133 O136 1.252 . S
C133 O137 1.260 . S
C134 O141 1.240 . S
C134 O142 1.252 . S
C135 O138 1.252 . S
C135 O139 1.260 . S
O136 In130 2.266 . S
O136 C133 1.252 . S
O137 In130 2.326 . S
O137 C133 1.260 . S
O138 In130 2.266 . S
O138 C135 1.252 . S
O139 In130 2.326 . S
O139 C135 1.260 . S
C140 O131 1.240 . S
C140 O132 1.252 . S
O141 In130 2.294 . S
O141 C134 1.240 . S
O142 In130 2.326 . S
O142 C134 1.252 . S
In143 O144 2.294 . S
In143 O145 2.326 . S
In143 O149 2.266 . S
In143 O150 2.326 . S
In143 O151 2.266 . S
In143 O152 2.326 . S
In143 O154 2.294 . S
In143 O155 2.326 . S
O144 In143 2.294 . S
O144 C153 1.240 . S
O145 In143 2.326 . S
O145 C153 1.252 . S
C146 O149 1.252 . S
C146 O150 1.260 . S
C147 O154 1.240 . S
C147 O155 1.252 . S
C148 O151 1.252 . S
C148 O152 1.260 . S
O149 In143 2.266 . S
O149 C146 1.252 . S
O150 In143 2.326 . S
O150 C146 1.260 . S
O151 In143 2.266 . S
O151 C148 1.252 . S
O152 In143 2.326 . S
O152 C148 1.260 . S
C153 O144 1.240 . S
C153 O145 1.252 . S
O154 In143 2.294 . S
O154 C147 1.240 . S
O155 In143 2.326 . S
O155 C147 1.252 . S
In156 O157 2.294 . S
In156 O158 2.326 . S
In156 O162 2.266 . S
In156 O163 2.326 . S
In156 O164 2.266 . S
In156 O165 2.326 . S
In156 O167 2.294 . S
In156 O168 2.326 . S
O157 In156 2.294 . S
O157 C166 1.240 . S
O158 In156 2.326 . S
O158 C166 1.252 . S
C159 O162 1.252 . S
C159 O163 1.260 . S
C160 O167 1.240 . S
C160 O168 1.252 . S
C161 O164 1.252 . S
C161 O165 1.260 . S
O162 In156 2.266 . S
O162 C159 1.252 . S
O163 In156 2.326 . S
O163 C159 1.260 . S
O164 In156 2.266 . S
O164 C161 1.252 . S
O165 In156 2.326 . S
O165 C161 1.260 . S
C166 O157 1.240 . S
C166 O158 1.252 . S
O167 In156 2.294 . S
O167 C160 1.240 . S
O168 In156 2.326 . S
O168 C160 1.252 . S
In169 O170 2.294 . S
In169 O171 2.326 . S
In169 O175 2.266 . S
In169 O176 2.326 . S
In169 O177 2.266 . S
In169 O178 2.326 . S
In169 O180 2.294 . S
In169 O181 2.326 . S
O170 In169 2.294 . S
O170 C179 1.240 . S
O171 In169 2.326 . S
O171 C179 1.252 . S
C172 O175 1.252 . S
C172 O176 1.260 . S
C173 O180 1.240 . S
C173 O181 1.252 . S
C174 O177 1.252 . S
C174 O178 1.260 . S
O175 In169 2.266 . S
O175 C172 1.252 . S
O176 In169 2.326 . S
O176 C172 1.260 . S
O177 In169 2.266 . S
O177 C174 1.252 . S
O178 In169 2.326 . S
O178 C174 1.260 . S
C179 O170 1.240 . S
C179 O171 1.252 . S
O180 In169 2.294 . S
O180 C173 1.240 . S
O181 In169 2.326 . S
O181 C173 1.252 . S
In182 O183 2.294 . S
In182 O184 2.326 . S
In182 O188 2.266 . S
In182 O189 2.326 . S
In182 O190 2.266 . S
In182 O191 2.326 . S
In182 O193 2.294 . S
In182 O194 2.326 . S
O183 In182 2.294 . S
O183 C192 1.240 . S
O184 In182 2.326 . S
O184 C192 1.252 . S
C185 O188 1.252 . S
C185 O189 1.260 . S
C186 O193 1.240 . S
C186 O194 1.252 . S
C187 O190 1.252 . S
C187 O191 1.260 . S
O188 In182 2.266 . S
O188 C185 1.252 . S
O189 In182 2.326 . S
O189 C185 1.260 . S
O190 In182 2.266 . S
O190 C187 1.252 . S
O191 In182 2.326 . S
O191 C187 1.260 . S
C192 O183 1.240 . S
C192 O184 1.252 . S
O193 In182 2.294 . S
O193 C186 1.240 . S
O194 In182 2.326 . S
O194 C186 1.252 . S
In195 O196 2.294 . S
In195 O197 2.326 . S
In195 O201 2.266 . S
In195 O202 2.326 . S
In195 O203 2.266 . S
In195 O204 2.326 . S
In195 O206 2.294 . S
In195 O207 2.326 . S
O196 In195 2.294 . S
O196 C205 1.240 . S
O197 In195 2.326 . S
O197 C205 1.252 . S
C198 O201 1.252 . S
C198 O202 1.260 . S
C199 O206 1.240 . S
C199 O207 1.252 . S
C200 O203 1.252 . S
C200 O204 1.260 . S
O201 In195 2.266 . S
O201 C198 1.252 . S
O202 In195 2.326 . S
O202 C198 1.260 . S
O203 In195 2.266 . S
O203 C200 1.252 . S
O204 In195 2.326 . S
O204 C200 1.260 . S
C205 O196 1.240 . S
C205 O197 1.252 . S
O206 In195 2.294 . S
O206 C199 1.240 . S
O207 In195 2.326 . S
O207 C199 1.252 . S
In208 O209 2.294 . S
In208 O210 2.326 . S
In208 O214 2.266 . S
In208 O215 2.326 . S
In208 O216 2.266 . S
In208 O217 2.326 . S
In208 O219 2.294 . S
In208 O220 2.326 . S
O209 In208 2.294 . S
O209 C218 1.240 . S
O210 In208 2.326 . S
O210 C218 1.252 . S
C211 O214 1.252 . S
C211 O215 1.260 . S
C212 O219 1.240 . S
C212 O220 1.252 . S
C213 O216 1.252 . S
C213 O217 1.260 . S
O214 In208 2.266 . S
O214 C211 1.252 . S
O215 In208 2.326 . S
O215 C211 1.260 . S
O216 In208 2.266 . S
O216 C213 1.252 . S
O217 In208 2.326 . S
O217 C213 1.260 . S
C218 O209 1.240 . S
C218 O210 1.252 . S
O219 In208 2.294 . S
O219 C212 1.240 . S
O220 In208 2.326 . S
O220 C212 1.252 . S
In221 O222 2.294 . S
In221 O223 2.326 . S
In221 O227 2.266 . S
In221 O228 2.326 . S
In221 O229 2.266 . S
In221 O230 2.326 . S
In221 O232 2.294 . S
In221 O233 2.326 . S
O222 In221 2.294 . S
O222 C231 1.240 . S
O223 In221 2.326 . S
O223 C231 1.252 . S
C224 O227 1.252 . S
C224 O228 1.260 . S
C225 O232 1.240 . S
C225 O233 1.252 . S
C226 O229 1.252 . S
C226 O230 1.260 . S
O227 In221 2.266 . S
O227 C224 1.252 . S
O228 In221 2.326 . S
O228 C224 1.260 . S
O229 In221 2.266 . S
O229 C226 1.252 . S
O230 In221 2.326 . S
O230 C226 1.260 . S
C231 O222 1.240 . S
C231 O223 1.252 . S
O232 In221 2.294 . S
O232 C225 1.240 . S
O233 In221 2.326 . S
O233 C225 1.252 . S
H234 C240 0.930 . S
H235 C244 0.930 . S
H236 C249 0.929 . S
H237 C247 0.929 . S
H238 C242 0.929 . S
H239 C248 0.929 . S
C240 H234 0.930 . S
C240 C241 1.367 . S
C240 C248 1.378 . S
C241 C240 1.367 . S
C241 C249 1.433 . S
C242 H238 0.929 . S
C242 C244 1.378 . S
C242 C246 1.350 . S
C243 C246 1.463 . S
C243 C248 1.350 . S
C243 N251 1.427 . S
C244 H235 0.930 . S
C244 C242 1.378 . S
C244 C245 1.367 . S
C245 C244 1.367 . S
C245 C247 1.433 . S
C246 C242 1.350 . S
C246 C243 1.463 . S
C246 N250 1.427 . S
C247 H237 0.929 . S
C247 C245 1.433 . S
C247 N250 1.384 . S
C248 H239 0.929 . S
C248 C240 1.378 . S
C248 C243 1.350 . S
C249 H236 0.929 . S
C249 C241 1.433 . S
C249 N251 1.384 . S
N250 C246 1.427 . S
N250 C247 1.384 . S
N251 C243 1.427 . S
N251 C249 1.384 . S
H252 C258 0.930 . S
H253 C262 0.930 . S
H254 C267 0.929 . S
H255 C265 0.929 . S
H256 C260 0.929 . S
H257 C266 0.929 . S
C258 H252 0.930 . S
C258 C259 1.367 . S
C258 C266 1.378 . S
C259 C258 1.367 . S
C259 C267 1.433 . S
C260 H256 0.929 . S
C260 C262 1.378 . S
C260 C264 1.350 . S
C261 C264 1.463 . S
C261 C266 1.350 . S
C261 N269 1.427 . S
C262 H253 0.930 . S
C262 C260 1.378 . S
C262 C263 1.367 . S
C263 C262 1.367 . S
C263 C265 1.433 . S
C264 C260 1.350 . S
C264 C261 1.463 . S
C264 N268 1.427 . S
C265 H255 0.929 . S
C265 C263 1.433 . S
C265 N268 1.384 . S
C266 H257 0.929 . S
C266 C258 1.378 . S
C266 C261 1.350 . S
C267 H254 0.929 . S
C267 C259 1.433 . S
C267 N269 1.384 . S
N268 C264 1.427 . S
N268 C265 1.384 . S
N269 C261 1.427 . S
N269 C267 1.384 . S
H270 C276 0.930 . S
H271 C280 0.930 . S
H272 C285 0.929 . S
H273 C283 0.929 . S
H274 C278 0.929 . S
H275 C284 0.929 . S
C276 H270 0.930 . S
C276 C277 1.367 . S
C276 C284 1.378 . S
C277 C276 1.367 . S
C277 C285 1.433 . S
C278 H274 0.929 . S
C278 C280 1.378 . S
C278 C282 1.350 . S
C279 C282 1.463 . S
C279 C284 1.350 . S
C279 N287 1.427 . S
C280 H271 0.930 . S
C280 C278 1.378 . S
C280 C281 1.367 . S
C281 C280 1.367 . S
C281 C283 1.433 . S
C282 C278 1.350 . S
C282 C279 1.463 . S
C282 N286 1.427 . S
C283 H273 0.929 . S
C283 C281 1.433 . S
C283 N286 1.384 . S
C284 H275 0.929 . S
C284 C276 1.378 . S
C284 C279 1.350 . S
C285 H272 0.929 . S
C285 C277 1.433 . S
C285 N287 1.384 . S
N286 C282 1.427 . S
N286 C283 1.384 . S
N287 C279 1.427 . S
N287 C285 1.384 . S
H288 C294 0.930 . S
H289 C298 0.930 . S
H290 C303 0.929 . S
H291 C301 0.929 . S
H292 C296 0.929 . S
H293 C302 0.929 . S
C294 H288 0.930 . S
C294 C295 1.367 . S
C294 C302 1.378 . S
C295 C294 1.367 . S
C295 C303 1.433 . S
C296 H292 0.929 . S
C296 C298 1.378 . S
C296 C300 1.350 . S
C297 C300 1.463 . S
C297 C302 1.350 . S
C297 N305 1.427 . S
C298 H289 0.930 . S
C298 C296 1.378 . S
C298 C299 1.367 . S
C299 C298 1.367 . S
C299 C301 1.433 . S
C300 C296 1.350 . S
C300 C297 1.463 . S
C300 N304 1.427 . S
C301 H291 0.929 . S
C301 C299 1.433 . S
C301 N304 1.384 . S
C302 H293 0.929 . S
C302 C294 1.378 . S
C302 C297 1.350 . S
C303 H290 0.929 . S
C303 C295 1.433 . S
C303 N305 1.384 . S
N304 C300 1.427 . S
N304 C301 1.384 . S
N305 C297 1.427 . S
N305 C303 1.384 . S
H306 C312 0.930 . S
H307 C316 0.930 . S
H308 C321 0.929 . S
H309 C319 0.929 . S
H310 C314 0.929 . S
H311 C320 0.929 . S
C312 H306 0.930 . S
C312 C313 1.367 . S
C312 C320 1.378 . S
C313 C312 1.367 . S
C313 C321 1.433 . S
C314 H310 0.929 . S
C314 C316 1.378 . S
C314 C318 1.350 . S
C315 C318 1.463 . S
C315 C320 1.350 . S
C315 N323 1.427 . S
C316 H307 0.930 . S
C316 C314 1.378 . S
C316 C317 1.367 . S
C317 C316 1.367 . S
C317 C319 1.433 . S
C318 C314 1.350 . S
C318 C315 1.463 . S
C318 N322 1.427 . S
C319 H309 0.929 . S
C319 C317 1.433 . S
C319 N322 1.384 . S
C320 H311 0.929 . S
C320 C312 1.378 . S
C320 C315 1.350 . S
C321 H308 0.929 . S
C321 C313 1.433 . S
C321 N323 1.384 . S
N322 C318 1.427 . S
N322 C319 1.384 . S
N323 C315 1.427 . S
N323 C321 1.384 . S
H324 C330 0.930 . S
H325 C334 0.930 . S
H326 C339 0.929 . S
H327 C337 0.929 . S
H328 C332 0.929 . S
H329 C338 0.929 . S
C330 H324 0.930 . S
C330 C331 1.367 . S
C330 C338 1.378 . S
C331 C330 1.367 . S
C331 C339 1.433 . S
C332 H328 0.929 . S
C332 C334 1.378 . S
C332 C336 1.350 . S
C333 C336 1.463 . S
C333 C338 1.350 . S
C333 N341 1.427 . S
C334 H325 0.930 . S
C334 C332 1.378 . S
C334 C335 1.367 . S
C335 C334 1.367 . S
C335 C337 1.433 . S
C336 C332 1.350 . S
C336 C333 1.463 . S
C336 N340 1.427 . S
C337 H327 0.929 . S
C337 C335 1.433 . S
C337 N340 1.384 . S
C338 H329 0.929 . S
C338 C330 1.378 . S
C338 C333 1.350 . S
C339 H326 0.929 . S
C339 C331 1.433 . S
C339 N341 1.384 . S
N340 C336 1.427 . S
N340 C337 1.384 . S
N341 C333 1.427 . S
N341 C339 1.384 . S
H342 C348 0.930 . S
H343 C352 0.930 . S
H344 C357 0.929 . S
H345 C355 0.929 . S
H346 C350 0.929 . S
H347 C356 0.929 . S
C348 H342 0.930 . S
C348 C349 1.367 . S
C348 C356 1.378 . S
C349 C348 1.367 . S
C349 C357 1.433 . S
C350 H346 0.929 . S
C350 C352 1.378 . S
C350 C354 1.350 . S
C351 C354 1.463 1_654 S
C351 C356 1.350 . S
C351 N359 1.423 1_655 S
C352 H343 0.930 . S
C352 C350 1.378 . S
C352 C353 1.367 . S
C353 C352 1.367 . S
C353 C355 1.433 . S
C354 C350 1.350 . S
C354 C351 1.463 1_456 S
C354 N358 1.427 1_455 S
C355 H345 0.929 . S
C355 C353 1.433 . S
C355 N358 1.384 1_455 S
C356 H347 0.929 . S
C356 C348 1.378 . S
C356 C351 1.350 . S
C357 H344 0.929 . S
C357 C349 1.433 . S
C357 N359 1.381 1_655 S
N358 C354 1.427 1_655 S
N358 C355 1.384 1_655 S
N359 C351 1.423 1_455 S
N359 C357 1.381 1_455 S
H360 C366 0.930 . S
H361 C370 0.930 . S
H362 C375 0.929 . S
H363 C373 0.929 . S
H364 C368 0.929 . S
H365 C374 0.929 . S
C366 H360 0.930 . S
C366 C367 1.367 . S
C366 C374 1.378 . S
C367 C366 1.367 . S
C367 C375 1.433 . S
C368 H364 0.929 . S
C368 C370 1.378 . S
C368 C372 1.350 . S
C369 C372 1.463 1_554 S
C369 C374 1.350 . S
C369 N377 1.427 . S
C370 H361 0.930 . S
C370 C368 1.378 . S
C370 C371 1.367 . S
C371 C370 1.367 . S
C371 C373 1.433 . S
C372 C368 1.350 . S
C372 C369 1.463 1_556 S
C372 N376 1.427 . S
C373 H363 0.929 . S
C373 C371 1.433 . S
C373 N376 1.384 . S
C374 H365 0.929 . S
C374 C366 1.378 . S
C374 C369 1.350 . S
C375 H362 0.929 . S
C375 C367 1.433 . S
C375 N377 1.384 . S
N376 C372 1.427 . S
N376 C373 1.384 . S
N377 C369 1.427 . S
N377 C375 1.384 . S
H378 C384 0.930 . S
H379 C388 0.930 . S
H380 C393 0.929 . S
H381 C391 0.929 . S
H382 C386 0.929 . S
H383 C392 0.929 . S
C384 H378 0.930 . S
C384 C385 1.367 1_565 S
C384 C392 1.378 . S
C385 C384 1.367 1_545 S
C385 C393 1.433 . S
C386 H382 0.929 . S
C386 C388 1.378 . S
C386 C390 1.350 1_545 S
C387 C390 1.463 1_544 S
C387 C392 1.350 1_545 S
C387 N395 1.427 . S
C388 H379 0.930 . S
C388 C386 1.378 . S
C388 C389 1.367 1_545 S
C389 C388 1.367 1_565 S
C389 C391 1.433 . S
C390 C386 1.350 1_565 S
C390 C387 1.463 1_566 S
C390 N394 1.427 . S
C391 H381 0.929 . S
C391 C389 1.433 . S
C391 N394 1.384 . S
C392 H383 0.929 . S
C392 C384 1.378 . S
C392 C387 1.350 1_565 S
C393 H380 0.929 . S
C393 C385 1.433 . S
C393 N395 1.384 . S
N394 C390 1.427 . S
N394 C391 1.384 . S
N395 C387 1.427 . S
N395 C393 1.384 . S
H396 C402 0.930 . S
H397 C406 0.930 . S
H398 C411 0.929 . S
H399 C409 0.929 . S
H400 C404 0.929 . S
H401 C410 0.929 . S
C402 H396 0.930 . S
C402 C403 1.367 . S
C402 C410 1.378 . S
C403 C402 1.367 . S
C403 C411 1.433 . S
C404 H400 0.929 . S
C404 C406 1.378 . S
C404 C408 1.350 . S
C405 C408 1.463 . S
C405 C410 1.350 . S
C405 N413 1.427 . S
C406 H397 0.930 . S
C406 C404 1.378 . S
C406 C407 1.367 . S
C407 C406 1.367 . S
C407 C409 1.433 . S
C408 C404 1.350 . S
C408 C405 1.463 . S
C408 N412 1.427 . S
C409 H399 0.929 . S
C409 C407 1.433 . S
C409 N412 1.384 . S
C410 H401 0.929 . S
C410 C402 1.378 . S
C410 C405 1.350 . S
C411 H398 0.929 . S
C411 C403 1.433 . S
C411 N413 1.384 . S
N412 C408 1.427 . S
N412 C409 1.384 . S
N413 C405 1.427 . S
N413 C411 1.384 . S
H414 C420 0.930 . S
H415 C424 0.930 . S
H416 C429 0.929 . S
H417 C427 0.929 . S
H418 C422 0.929 . S
H419 C428 0.929 . S
C420 H414 0.930 . S
C420 C421 1.367 . S
C420 C428 1.378 . S
C421 C420 1.367 . S
C421 C429 1.433 . S
C422 H418 0.929 . S
C422 C424 1.378 . S
C422 C426 1.350 . S
C423 C426 1.463 . S
C423 C428 1.350 . S
C423 N431 1.427 . S
C424 H415 0.930 . S
C424 C422 1.378 . S
C424 C425 1.367 . S
C425 C424 1.367 . S
C425 C427 1.433 . S
C426 C422 1.350 . S
C426 C423 1.463 . S
C426 N430 1.427 . S
C427 H417 0.929 . S
C427 C425 1.433 . S
C427 N430 1.384 . S
C428 H419 0.929 . S
C428 C420 1.378 . S
C428 C423 1.350 . S
C429 H416 0.929 . S
C429 C421 1.433 . S
C429 N431 1.384 . S
N430 C426 1.427 . S
N430 C427 1.384 . S
N431 C423 1.427 . S
N431 C429 1.384 . S
H432 C438 0.930 . S
H433 C442 0.930 . S
H434 C447 0.929 . S
H435 C445 0.929 . S
H436 C440 0.929 . S
H437 C446 0.929 . S
C438 H432 0.930 . S
C438 C439 1.367 . S
C438 C446 1.378 . S
C439 C438 1.367 . S
C439 C447 1.433 . S
C440 H436 0.929 . S
C440 C442 1.378 . S
C440 C444 1.350 . S
C441 C444 1.463 . S
C441 C446 1.350 . S
C441 N449 1.427 . S
C442 H433 0.930 . S
C442 C440 1.378 . S
C442 C443 1.367 . S
C443 C442 1.367 . S
C443 C445 1.433 . S
C444 C440 1.350 . S
C444 C441 1.463 . S
C444 N448 1.427 . S
C445 H435 0.929 . S
C445 C443 1.433 . S
C445 N448 1.384 . S
C446 H437 0.929 . S
C446 C438 1.378 . S
C446 C441 1.350 . S
C447 H434 0.929 . S
C447 C439 1.433 . S
C447 N449 1.384 . S
N448 C444 1.427 . S
N448 C445 1.384 . S
N449 C441 1.427 . S
N449 C447 1.384 . S
H450 C456 0.930 . S
H451 C460 0.930 . S
H452 C465 0.929 . S
H453 C463 0.929 . S
H454 C458 0.929 . S
H455 C464 0.929 . S
C456 H450 0.930 . S
C456 C457 1.367 . S
C456 C464 1.378 . S
C457 C456 1.367 . S
C457 C465 1.433 . S
C458 H454 0.929 . S
C458 C460 1.378 . S
C458 C462 1.350 . S
C459 C462 1.463 . S
C459 C464 1.350 . S
C459 N467 1.427 . S
C460 H451 0.930 . S
C460 C458 1.378 . S
C460 C461 1.367 . S
C461 C460 1.367 . S
C461 C463 1.433 . S
C462 C458 1.350 . S
C462 C459 1.463 . S
C462 N466 1.427 . S
C463 H453 0.929 . S
C463 C461 1.433 . S
C463 N466 1.384 . S
C464 H455 0.929 . S
C464 C456 1.378 . S
C464 C459 1.350 . S
C465 H452 0.929 . S
C465 C457 1.433 . S
C465 N467 1.384 . S
N466 C462 1.427 . S
N466 C463 1.384 . S
N467 C459 1.427 . S
N467 C465 1.384 . S
H468 C474 0.930 . S
H469 C478 0.930 . S
H470 C483 0.929 . S
H471 C481 0.929 . S
H472 C476 0.929 . S
H473 C482 0.929 . S
C474 H468 0.930 . S
C474 C475 1.367 . S
C474 C482 1.378 . S
C475 C474 1.367 . S
C475 C483 1.433 . S
C476 H472 0.929 . S
C476 C478 1.378 . S
C476 C480 1.350 . S
C477 C480 1.463 . S
C477 C482 1.350 . S
C477 N485 1.427 . S
C478 H469 0.930 . S
C478 C476 1.378 . S
C478 C479 1.367 . S
C479 C478 1.367 . S
C479 C481 1.433 . S
C480 C476 1.350 . S
C480 C477 1.463 . S
C480 N484 1.427 . S
C481 H471 0.929 . S
C481 C479 1.433 . S
C481 N484 1.384 . S
C482 H473 0.929 . S
C482 C474 1.378 . S
C482 C477 1.350 . S
C483 H470 0.929 . S
C483 C475 1.433 . S
C483 N485 1.384 . S
N484 C480 1.427 . S
N484 C481 1.384 . S
N485 C477 1.427 . S
N485 C483 1.384 . S
H486 C492 0.930 . S
H487 C496 0.930 . S
H488 C501 0.929 . S
H489 C499 0.929 . S
H490 C494 0.929 . S
H491 C500 0.929 . S
C492 H486 0.930 . S
C492 C493 1.367 . S
C492 C500 1.378 . S
C493 C492 1.367 . S
C493 C501 1.433 . S
C494 H490 0.929 . S
C494 C496 1.378 . S
C494 C498 1.350 . S
C495 C498 1.463 . S
C495 C500 1.350 . S
C495 N503 1.427 . S
C496 H487 0.930 . S
C496 C494 1.378 . S
C496 C497 1.367 . S
C497 C496 1.367 . S
C497 C499 1.433 . S
C498 C494 1.350 . S
C498 C495 1.463 . S
C498 N502 1.427 . S
C499 H489 0.929 . S
C499 C497 1.433 . S
C499 N502 1.384 . S
C500 H491 0.929 . S
C500 C492 1.378 . S
C500 C495 1.350 . S
C501 H488 0.929 . S
C501 C493 1.433 . S
C501 N503 1.384 . S
N502 C498 1.427 . S
N502 C499 1.384 . S
N503 C495 1.427 . S
N503 C501 1.384 . S
H504 C510 0.930 . S
H505 C514 0.930 . S
H506 C519 0.929 . S
H507 C517 0.929 . S
H508 C512 0.928 . S
H509 C518 0.929 1_455 S
C510 H504 0.930 . S
C510 C511 1.367 . S
C510 C518 1.378 . S
C511 C510 1.367 . S
C511 C519 1.433 . S
C512 H508 0.928 . S
C512 C514 1.374 1_655 S
C512 C516 1.355 1_655 S
C513 C516 1.463 1_655 S
C513 C518 1.350 . S
C513 N521 1.427 . S
C514 H505 0.930 . S
C514 C512 1.374 1_455 S
C514 C515 1.367 . S
C515 C514 1.367 . S
C515 C517 1.433 . S
C516 C512 1.355 1_455 S
C516 C513 1.463 1_455 S
C516 N520 1.427 . S
C517 H507 0.929 . S
C517 C515 1.433 . S
C517 N520 1.384 . S
C518 H509 0.929 1_655 S
C518 C510 1.378 . S
C518 C513 1.350 . S
C519 H506 0.929 . S
C519 C511 1.433 . S
C519 N521 1.384 . S
N520 C516 1.427 . S
N520 C517 1.384 . S
N521 C513 1.427 . S
N521 C519 1.384 . S
H522 C528 0.930 . S
H523 C532 0.930 . S
H524 C537 0.929 . S
H525 C535 0.929 . S
H526 C530 0.929 . S
H527 C536 0.929 . S
C528 H522 0.930 . S
C528 C529 1.367 . S
C528 C536 1.378 . S
C529 C528 1.367 . S
C529 C537 1.433 . S
C530 H526 0.929 . S
C530 C532 1.378 . S
C530 C534 1.350 . S
C531 C534 1.463 . S
C531 C536 1.350 . S
C531 N539 1.427 . S
C532 H523 0.930 . S
C532 C530 1.378 . S
C532 C533 1.367 . S
C533 C532 1.367 . S
C533 C535 1.433 . S
C534 C530 1.350 . S
C534 C531 1.463 . S
C534 N538 1.427 . S
C535 H525 0.929 . S
C535 C533 1.433 . S
C535 N538 1.384 . S
C536 H527 0.929 . S
C536 C528 1.378 . S
C536 C531 1.350 . S
C537 H524 0.929 . S
C537 C529 1.433 . S
C537 N539 1.384 . S
N538 C534 1.427 . S
N538 C535 1.384 . S
N539 C531 1.427 . S
N539 C537 1.384 . S
H540 C546 0.930 . S
H541 C550 0.922 . S
H542 C555 0.929 . S
H543 C553 0.929 . S
H544 C548 0.929 . S
H545 C554 0.929 . S
C546 H540 0.930 . S
C546 C547 1.367 . S
C546 C554 1.378 1_565 S
C547 C546 1.367 . S
C547 C555 1.433 . S
C548 H544 0.929 . S
C548 C550 1.378 1_565 S
C548 C552 1.350 1_565 S
C549 C552 1.463 1_565 S
C549 C554 1.350 1_565 S
C549 N557 1.427 . S
C550 H541 0.922 . S
C550 C548 1.378 1_545 S
C550 C551 1.367 . S
C551 C550 1.367 . S
C551 C553 1.433 . S
C552 C548 1.350 1_545 S
C552 C549 1.463 1_545 S
C552 N556 1.427 . S
C553 H543 0.929 . S
C553 C551 1.433 . S
C553 N556 1.384 . S
C554 H545 0.929 . S
C554 C546 1.378 1_545 S
C554 C549 1.350 1_545 S
C555 H542 0.929 . S
C555 C547 1.433 . S
C555 N557 1.384 . S
N556 C552 1.427 . S
N556 C553 1.384 . S
N557 C549 1.427 . S
N557 C555 1.384 . S
H558 C564 0.930 . S
H559 C568 0.930 . S
H560 C573 0.929 . S
H561 C571 0.929 . S
H562 C566 0.929 . S
H563 C572 0.929 . S
C564 H558 0.930 . S
C564 C565 1.367 . S
C564 C572 1.378 1_554 S
C565 C564 1.367 . S
C565 C573 1.433 . S
C566 H562 0.929 . S
C566 C568 1.378 1_554 S
C566 C570 1.350 1_554 S
C567 C570 1.463 1_554 S
C567 C572 1.350 1_554 S
C567 N575 1.427 . S
C568 H559 0.930 . S
C568 C566 1.378 1_556 S
C568 C569 1.367 . S
C569 C568 1.367 . S
C569 C571 1.433 . S
C570 C566 1.350 1_556 S
C570 C567 1.463 1_556 S
C570 N574 1.427 . S
C571 H561 0.929 . S
C571 C569 1.433 . S
C571 N574 1.384 . S
C572 H563 0.929 . S
C572 C564 1.378 1_556 S
C572 C567 1.350 1_556 S
C573 H560 0.929 . S
C573 C565 1.433 . S
C573 N575 1.384 . S
N574 C570 1.427 . S
N574 C571 1.384 . S
N575 C567 1.427 . S
N575 C573 1.384 . S
H576 C582 0.930 1_554 S
H577 C586 0.930 1_556 S
H578 C591 0.929 . S
H579 C589 0.929 . S
H580 C584 0.929 . S
H581 C590 0.929 . S
C582 H576 0.930 1_556 S
C582 C583 1.367 . S
C582 C590 1.378 1_556 S
C583 C582 1.367 . S
C583 C591 1.433 . S
C584 H580 0.929 . S
C584 C586 1.378 1_556 S
C584 C588 1.350 1_556 S
C585 C588 1.463 1_546 S
C585 C590 1.350 1_556 S
C585 N593 1.427 . S
C586 H577 0.930 1_554 S
C586 C584 1.378 1_554 S
C586 C587 1.367 . S
C587 C586 1.367 . S
C587 C589 1.433 . S
C588 C584 1.350 1_554 S
C588 C585 1.463 1_564 S
C588 N592 1.427 . S
C589 H579 0.929 . S
C589 C587 1.433 . S
C589 N592 1.384 . S
C590 H581 0.929 . S
C590 C582 1.378 1_554 S
C590 C585 1.350 1_554 S
C591 H578 0.929 . S
C591 C583 1.433 . S
C591 N593 1.384 . S
N592 C588 1.427 . S
N592 C589 1.384 . S
N593 C585 1.427 . S
N593 C591 1.384 . S
H594 C600 0.930 1_554 S
H595 C604 0.930 1_556 S
H596 C609 0.929 . S
H597 C607 0.929 . S
H598 C602 0.929 . S
H599 C608 0.929 . S
C600 H594 0.930 1_556 S
C600 C601 1.367 . S
C600 C608 1.378 1_556 S
C601 C600 1.367 . S
C601 C609 1.433 . S
C602 H598 0.929 . S
C602 C604 1.378 1_556 S
C602 C606 1.350 1_556 S
C603 C606 1.463 1_656 S
C603 C608 1.350 1_556 S
C603 N611 1.427 . S
C604 H595 0.930 1_554 S
C604 C602 1.378 1_554 S
C604 C605 1.367 . S
C605 C604 1.367 . S
C605 C607 1.433 . S
C606 C602 1.350 1_554 S
C606 C603 1.463 1_454 S
C606 N610 1.427 . S
C607 H597 0.929 . S
C607 C605 1.433 . S
C607 N610 1.384 . S
C608 H599 0.929 . S
C608 C600 1.378 1_554 S
C608 C603 1.350 1_554 S
C609 H596 0.929 . S
C609 C601 1.433 . S
C609 N611 1.384 . S
N610 C606 1.427 . S
N610 C607 1.384 . S
N611 C603 1.427 . S
N611 C609 1.384 . S
H612 C618 0.930 . S
H613 C622 0.930 . S
H614 C627 0.929 . S
H615 C625 0.929 . S
H616 C620 0.929 . S
H617 C626 0.929 . S
C618 H612 0.930 . S
C618 C619 1.367 . S
C618 C626 1.378 1_556 S
C619 C618 1.367 . S
C619 C627 1.433 . S
C620 H616 0.929 . S
C620 C622 1.378 1_556 S
C620 C624 1.350 1_556 S
C621 C624 1.463 1_556 S
C621 C626 1.350 1_556 S
C621 N629 1.427 . S
C622 H613 0.930 . S
C622 C620 1.378 1_554 S
C622 C623 1.367 . S
C623 C622 1.367 . S
C623 C625 1.433 . S
C624 C620 1.350 1_554 S
C624 C621 1.463 1_554 S
C624 N628 1.427 . S
C625 H615 0.929 . S
C625 C623 1.433 . S
C625 N628 1.384 . S
C626 H617 0.929 . S
C626 C618 1.378 1_554 S
C626 C621 1.350 1_554 S
C627 H614 0.929 . S
C627 C619 1.433 . S
C627 N629 1.384 . S
N628 C624 1.427 . S
N628 C625 1.384 . S
N629 C621 1.427 . S
N629 C627 1.384 . S
H630 C636 0.930 . S
H631 C640 0.930 . S
H632 C645 0.929 . S
H633 C643 0.929 . S
H634 C638 0.929 . S
H635 C644 0.929 . S
C636 H630 0.930 . S
C636 C637 1.367 1_556 S
C636 C644 1.378 . S
C637 C636 1.367 1_554 S
C637 C645 1.433 . S
C638 H634 0.929 . S
C638 C640 1.378 . S
C638 C642 1.350 1_554 S
C639 C642 1.463 1_564 S
C639 C644 1.350 1_554 S
C639 N647 1.427 . S
C640 H631 0.930 . S
C640 C638 1.378 . S
C640 C641 1.367 1_554 S
C641 C640 1.367 1_556 S
C641 C643 1.433 . S
C642 C638 1.350 1_556 S
C642 C639 1.463 1_546 S
C642 N646 1.427 . S
C643 H633 0.929 . S
C643 C641 1.433 . S
C643 N646 1.384 . S
C644 H635 0.929 . S
C644 C636 1.378 . S
C644 C639 1.350 1_556 S
C645 H632 0.929 . S
C645 C637 1.433 . S
C645 N647 1.384 . S
N646 C642 1.427 . S
N646 C643 1.384 . S
N647 C639 1.427 . S
N647 C645 1.384 . S
H648 C654 0.930 . S
H649 C658 0.930 . S
H650 C663 0.929 . S
H651 C661 0.929 . S
H652 C656 0.929 . S
H653 C662 0.929 . S
C654 H648 0.930 . S
C654 C655 1.367 1_554 S
C654 C662 1.378 . S
C655 C654 1.367 1_556 S
C655 C663 1.433 . S
C656 H652 0.929 . S
C656 C658 1.378 . S
C656 C660 1.350 1_556 S
C657 C660 1.463 1_656 S
C657 C662 1.350 1_556 S
C657 N665 1.427 . S
C658 H649 0.930 . S
C658 C656 1.378 . S
C658 C659 1.367 1_556 S
C659 C658 1.367 1_554 S
C659 C661 1.433 . S
C660 C656 1.350 1_554 S
C660 C657 1.463 1_454 S
C660 N664 1.427 . S
C661 H651 0.929 . S
C661 C659 1.433 . S
C661 N664 1.384 . S
C662 H653 0.929 . S
C662 C654 1.378 . S
C662 C657 1.350 1_554 S
C663 H650 0.929 . S
C663 C655 1.433 . S
C663 N665 1.384 . S
N664 C660 1.427 . S
N664 C661 1.384 . S
N665 C657 1.427 . S
N665 C663 1.384 . S
H666 C672 0.930 . S
H667 C676 0.930 . S
H668 C681 0.929 . S
H669 C679 0.929 . S
H670 C674 0.929 . S
H671 C680 0.929 . S
C672 H666 0.930 . S
C672 C673 1.367 . S
C672 C680 1.378 . S
C673 C672 1.367 . S
C673 C681 1.433 . S
C674 H670 0.929 . S
C674 C676 1.378 . S
C674 C678 1.350 . S
C675 C678 1.463 . S
C675 C680 1.350 . S
C675 N683 1.427 . S
C676 H667 0.930 . S
C676 C674 1.378 . S
C676 C677 1.367 . S
C677 C676 1.367 . S
C677 C679 1.433 . S
C678 C674 1.350 . S
C678 C675 1.463 . S
C678 N682 1.427 . S
C679 H669 0.929 . S
C679 C677 1.433 . S
C679 N682 1.384 . S
C680 H671 0.929 . S
C680 C672 1.378 . S
C680 C675 1.350 . S
C681 H668 0.929 . S
C681 C673 1.433 . S
C681 N683 1.384 . S
N682 C678 1.427 . S
N682 C679 1.384 . S
N683 C675 1.427 . S
N683 C681 1.384 . S
H684 C690 0.930 . S
H685 C694 0.930 . S
H686 C699 0.929 . S
H687 C697 0.929 . S
H688 C692 0.929 . S
H689 C698 0.929 . S
C690 H684 0.930 . S
C690 C691 1.367 . S
C690 C698 1.378 . S
C691 C690 1.367 . S
C691 C699 1.433 . S
C692 H688 0.929 . S
C692 C694 1.378 . S
C692 C696 1.350 . S
C693 C696 1.463 . S
C693 C698 1.350 . S
C693 N701 1.427 . S
C694 H685 0.930 . S
C694 C692 1.378 . S
C694 C695 1.367 . S
C695 C694 1.367 . S
C695 C697 1.433 . S
C696 C692 1.350 . S
C696 C693 1.463 . S
C696 N700 1.427 . S
C697 H687 0.929 . S
C697 C695 1.433 . S
C697 N700 1.384 . S
C698 H689 0.929 . S
C698 C690 1.378 . S
C698 C693 1.350 . S
C699 H686 0.929 . S
C699 C691 1.433 . S
C699 N701 1.384 . S
N700 C696 1.427 . S
N700 C697 1.384 . S
N701 C693 1.427 . S
N701 C699 1.384 . S
H702 C708 0.930 . S
H703 C712 0.930 . S
H704 C717 0.929 . S
H705 C715 0.929 . S
H706 C710 0.929 . S
H707 C716 0.929 . S
C708 H702 0.930 . S
C708 C709 1.367 . S
C708 C716 1.378 . S
C709 C708 1.367 . S
C709 C717 1.433 . S
C710 H706 0.929 . S
C710 C712 1.378 . S
C710 C714 1.350 . S
C711 C714 1.463 . S
C711 C716 1.350 . S
C711 N719 1.427 . S
C712 H703 0.930 . S
C712 C710 1.378 . S
C712 C713 1.367 . S
C713 C712 1.367 . S
C713 C715 1.433 . S
C714 C710 1.350 . S
C714 C711 1.463 . S
C714 N718 1.427 . S
C715 H705 0.929 . S
C715 C713 1.433 . S
C715 N718 1.384 . S
C716 H707 0.929 . S
C716 C708 1.378 . S
C716 C711 1.350 . S
C717 H704 0.929 . S
C717 C709 1.433 . S
C717 N719 1.384 . S
N718 C714 1.427 . S
N718 C715 1.384 . S
N719 C711 1.427 . S
N719 C717 1.384 . S
H720 C726 0.930 . S
H721 C730 0.930 . S
H722 C735 0.929 . S
H723 C733 0.929 . S
H724 C728 0.929 . S
H725 C734 0.929 . S
C726 H720 0.930 . S
C726 C727 1.367 . S
C726 C734 1.378 . S
C727 C726 1.367 . S
C727 C735 1.433 . S
C728 H724 0.929 . S
C728 C730 1.378 . S
C728 C732 1.350 . S
C729 C732 1.463 . S
C729 C734 1.350 . S
C729 N737 1.427 . S
C730 H721 0.930 . S
C730 C728 1.378 . S
C730 C731 1.367 . S
C731 C730 1.367 . S
C731 C733 1.433 . S
C732 C728 1.350 . S
C732 C729 1.463 . S
C732 N736 1.427 . S
C733 H723 0.929 . S
C733 C731 1.433 . S
C733 N736 1.384 . S
C734 H725 0.929 . S
C734 C726 1.378 . S
C734 C729 1.350 . S
C735 H722 0.929 . S
C735 C727 1.433 . S
C735 N737 1.384 . S
N736 C732 1.427 . S
N736 C733 1.384 . S
N737 C729 1.427 . S
N737 C735 1.384 . S
H738 C744 0.930 . S
H739 C748 0.930 . S
H740 C753 0.929 . S
H741 C751 0.929 . S
H742 C746 0.929 . S
H743 C752 0.929 . S
C744 H738 0.930 . S
C744 C745 1.367 . S
C744 C752 1.378 . S
C745 C744 1.367 . S
C745 C753 1.433 . S
C746 H742 0.929 . S
C746 C748 1.378 . S
C746 C750 1.350 . S
C747 C750 1.463 . S
C747 C752 1.350 . S
C747 N755 1.427 . S
C748 H739 0.930 . S
C748 C746 1.378 . S
C748 C749 1.367 . S
C749 C748 1.367 . S
C749 C751 1.433 . S
C750 C746 1.350 . S
C750 C747 1.463 . S
C750 N754 1.427 . S
C751 H741 0.929 . S
C751 C749 1.433 . S
C751 N754 1.384 . S
C752 H743 0.929 . S
C752 C744 1.378 . S
C752 C747 1.350 . S
C753 H740 0.929 . S
C753 C745 1.433 . S
C753 N755 1.384 . S
N754 C750 1.427 . S
N754 C751 1.384 . S
N755 C747 1.427 . S
N755 C753 1.384 . S
H756 C762 0.930 . S
H757 C766 0.930 . S
H758 C771 0.929 . S
H759 C769 0.929 . S
H760 C764 0.929 . S
H761 C770 0.929 . S
C762 H756 0.930 . S
C762 C763 1.367 . S
C762 C770 1.378 . S
C763 C762 1.367 . S
C763 C771 1.433 . S
C764 H760 0.929 . S
C764 C766 1.378 . S
C764 C768 1.350 . S
C765 C768 1.463 . S
C765 C770 1.350 . S
C765 N773 1.427 . S
C766 H757 0.930 . S
C766 C764 1.378 . S
C766 C767 1.367 . S
C767 C766 1.367 . S
C767 C769 1.433 . S
C768 C764 1.350 . S
C768 C765 1.463 . S
C768 N772 1.427 . S
C769 H759 0.929 . S
C769 C767 1.433 . S
C769 N772 1.384 . S
C770 H761 0.929 . S
C770 C762 1.378 . S
C770 C765 1.350 . S
C771 H758 0.929 . S
C771 C763 1.433 . S
C771 N773 1.384 . S
N772 C768 1.427 . S
N772 C769 1.384 . S
N773 C765 1.427 . S
N773 C771 1.384 . S
H774 C780 0.930 . S
H775 C784 0.930 . S
H776 C789 0.929 . S
H777 C787 0.929 . S
H778 C782 0.929 . S
H779 C788 0.929 . S
C780 H774 0.930 . S
C780 C781 1.367 . S
C780 C788 1.378 . S
C781 C780 1.367 . S
C781 C789 1.433 . S
C782 H778 0.929 . S
C782 C784 1.378 . S
C782 C786 1.350 . S
C783 C786 1.463 . S
C783 C788 1.350 . S
C783 N791 1.427 . S
C784 H775 0.930 . S
C784 C782 1.378 . S
C784 C785 1.367 . S
C785 C784 1.367 . S
C785 C787 1.433 . S
C786 C782 1.350 . S
C786 C783 1.463 . S
C786 N790 1.427 . S
C787 H777 0.929 . S
C787 C785 1.433 . S
C787 N790 1.384 . S
C788 H779 0.929 . S
C788 C780 1.378 . S
C788 C783 1.350 . S
C789 H776 0.929 . S
C789 C781 1.433 . S
C789 N791 1.384 . S
N790 C786 1.427 . S
N790 C787 1.384 . S
N791 C783 1.427 . S
N791 C789 1.384 . S
H792 C798 0.930 . S
H793 C802 0.930 . S
H794 C807 0.929 . S
H795 C805 0.929 . S
H796 C800 0.929 . S
H797 C806 0.929 . S
C798 H792 0.930 . S
C798 C799 1.367 . S
C798 C806 1.378 . S
C799 C798 1.367 . S
C799 C807 1.433 . S
C800 H796 0.929 . S
C800 C802 1.378 . S
C800 C804 1.350 . S
C801 C804 1.463 . S
C801 C806 1.350 . S
C801 N809 1.427 . S
C802 H793 0.930 . S
C802 C800 1.378 . S
C802 C803 1.367 . S
C803 C802 1.367 . S
C803 C805 1.433 . S
C804 C800 1.350 . S
C804 C801 1.463 . S
C804 N808 1.427 . S
C805 H795 0.929 . S
C805 C803 1.433 . S
C805 N808 1.384 . S
C806 H797 0.929 . S
C806 C798 1.378 . S
C806 C801 1.350 . S
C807 H794 0.929 . S
C807 C799 1.433 . S
C807 N809 1.384 . S
N808 C804 1.427 . S
N808 C805 1.384 . S
N809 C801 1.427 . S
N809 C807 1.384 . S
H810 C816 0.930 . S
H811 C820 0.930 . S
H812 C825 0.929 . S
H813 C823 0.929 . S
H814 C818 0.929 . S
H815 C824 0.929 . S
C816 H810 0.930 . S
C816 C817 1.367 . S
C816 C824 1.378 . S
C817 C816 1.367 . S
C817 C825 1.433 . S
C818 H814 0.929 . S
C818 C820 1.378 . S
C818 C822 1.350 . S
C819 C822 1.463 . S
C819 C824 1.350 . S
C819 N827 1.427 . S
C820 H811 0.930 . S
C820 C818 1.378 . S
C820 C821 1.367 . S
C821 C820 1.367 . S
C821 C823 1.433 . S
C822 C818 1.350 . S
C822 C819 1.463 . S
C822 N826 1.427 . S
C823 H813 0.929 . S
C823 C821 1.433 . S
C823 N826 1.384 . S
C824 H815 0.929 . S
C824 C816 1.378 . S
C824 C819 1.350 . S
C825 H812 0.929 . S
C825 C817 1.433 . S
C825 N827 1.384 . S
N826 C822 1.427 . S
N826 C823 1.384 . S
N827 C819 1.427 . S
N827 C825 1.384 . S
H828 C834 0.930 . S
H829 C838 0.930 . S
H830 C843 0.929 . S
H831 C841 0.929 . S
H832 C836 0.929 . S
H833 C842 0.929 . S
C834 H828 0.930 . S
C834 C835 1.367 . S
C834 C842 1.378 . S
C835 C834 1.367 . S
C835 C843 1.433 . S
C836 H832 0.929 . S
C836 C838 1.378 . S
C836 C840 1.350 . S
C837 C840 1.463 . S
C837 C842 1.350 . S
C837 N845 1.427 . S
C838 H829 0.930 . S
C838 C836 1.378 . S
C838 C839 1.367 . S
C839 C838 1.367 . S
C839 C841 1.433 . S
C840 C836 1.350 . S
C840 C837 1.463 . S
C840 N844 1.427 . S
C841 H831 0.929 . S
C841 C839 1.433 . S
C841 N844 1.384 . S
C842 H833 0.929 . S
C842 C834 1.378 . S
C842 C837 1.350 . S
C843 H830 0.929 . S
C843 C835 1.433 . S
C843 N845 1.384 . S
N844 C840 1.427 . S
N844 C841 1.384 . S
N845 C837 1.427 . S
N845 C843 1.384 . S
H846 C852 0.930 . S
H847 C856 0.930 . S
H848 C861 0.929 . S
H849 C859 0.929 . S
H850 C854 0.929 . S
H851 C860 0.929 . S
C852 H846 0.930 . S
C852 C853 1.367 . S
C852 C860 1.378 . S
C853 C852 1.367 . S
C853 C861 1.433 . S
C854 H850 0.929 . S
C854 C856 1.378 . S
C854 C858 1.350 . S
C855 C858 1.463 . S
C855 C860 1.350 . S
C855 N863 1.427 . S
C856 H847 0.930 . S
C856 C854 1.378 . S
C856 C857 1.367 . S
C857 C856 1.367 . S
C857 C859 1.433 . S
C858 C854 1.350 . S
C858 C855 1.463 . S
C858 N862 1.427 . S
C859 H849 0.929 . S
C859 C857 1.433 . S
C859 N862 1.384 . S
C860 H851 0.929 . S
C860 C852 1.378 . S
C860 C855 1.350 . S
C861 H848 0.929 . S
C861 C853 1.433 . S
C861 N863 1.384 . S
N862 C858 1.427 . S
N862 C859 1.384 . S
N863 C855 1.427 . S
N863 C861 1.384 . S
H864 C870 0.930 . S
H865 C874 0.930 . S
H866 C879 0.929 . S
H867 C877 0.929 . S
H868 C872 0.929 . S
H869 C878 0.929 . S
C870 H864 0.930 . S
C870 C871 1.367 . S
C870 C878 1.378 . S
C871 C870 1.367 . S
C871 C879 1.433 . S
C872 H868 0.929 . S
C872 C874 1.378 . S
C872 C876 1.350 . S
C873 C876 1.463 . S
C873 C878 1.350 . S
C873 N881 1.427 . S
C874 H865 0.930 . S
C874 C872 1.378 . S
C874 C875 1.367 . S
C875 C874 1.367 . S
C875 C877 1.433 . S
C876 C872 1.350 . S
C876 C873 1.463 . S
C876 N880 1.427 . S
C877 H867 0.929 . S
C877 C875 1.433 . S
C877 N880 1.384 . S
C878 H869 0.929 . S
C878 C870 1.378 . S
C878 C873 1.350 . S
C879 H866 0.929 . S
C879 C871 1.433 . S
C879 N881 1.384 . S
N880 C876 1.427 . S
N880 C877 1.384 . S
N881 C873 1.427 . S
N881 C879 1.384 . S
C241 C231 1.895 . S
C245 C10 1.894 . S
C259 C205 1.895 . S
C263 C17 1.894 . S
C277 C218 1.895 . S
C281 C30 1.894 . S
C295 C101 1.894 . S
C299 C49 1.894 . S
C313 C114 1.894 . S
C317 C62 1.894 . S
C331 C69 1.895 . S
C335 C88 1.894 . S
C349 C127 1.895 . S
C353 C173 1.894 . S
C367 C134 1.894 . S
C371 C186 1.895 . S
C385 C153 1.894 . S
C389 C166 1.894 . S
C403 C3 0.362 . S
C407 C224 0.363 . S
C421 C198 0.349 . S
C425 C18 0.339 . S
C439 C31 0.352 . S
C443 C211 0.342 . S
C457 C94 0.362 . S
C461 C42 0.355 . S
C475 C55 0.337 . S
C479 C107 0.345 . S
C493 C70 0.340 . S
C497 C81 0.334 . S
C511 C120 0.349 . S
C515 C174 0.358 . S
C529 C187 0.349 . S
C533 C135 0.358 . S
C547 C159 0.351 . S
C551 C146 0.359 . S
C565 C4 1.858 . S
C569 C43 1.855 . S
C583 C56 1.856 . S
C587 C23 1.855 . S
C601 C75 1.857 . S
C605 C36 1.855 . S
C619 C68 1.736 . S
C623 C16 1.738 . S
C637 C29 1.736 . S
C641 C44 1.737 . S
C655 C57 1.736 . S
C659 C5 1.737 . S
C673 C82 1.859 . S
C677 C121 1.861 . S
C691 C140 1.858 . S
C695 C95 1.855 . S
C709 C147 1.856 . S
C713 C108 1.855 . S
C727 C148 1.738 . S
C731 C96 1.736 . S
C745 C109 1.736 . S
C749 C122 1.737 . S
C763 C133 1.739 . S
C767 C83 1.737 . S
C781 C199 1.861 . S
C785 C160 1.863 . S
C799 C212 1.854 . S
C803 C179 1.856 . S
C817 C192 1.862 . S
C821 C225 1.862 . S
C835 C226 1.736 . S
C839 C172 1.738 . S
C853 C185 1.739 . S
C857 C200 1.737 . S
C871 C213 1.737 . S
C875 C161 1.739 . S
