# Generated by pormake.
# Topology wjh, (4)-cn, num edge types: 1
# Building blocks:
#     Node 0, Type 0, BuildingBlock: GALJAG_clean_sbu_0, # of connection points: 4
#     Node 1, Type 0, BuildingBlock: GALJAG_clean_sbu_0, # of connection points: 4
#     Node 2, Type 0, BuildingBlock: GALJAG_clean_sbu_0, # of connection points: 4
#     Node 3, Type 0, BuildingBlock: GALJAG_clean_sbu_0, # of connection points: 4
#     Node 4, Type 0, BuildingBlock: GALJAG_clean_sbu_0, # of connection points: 4
#     Node 5, Type 0, BuildingBlock: GALJAG_clean_sbu_0, # of connection points: 4
#     Node 6, Type 0, BuildingBlock: GALJAG_clean_sbu_0, # of connection points: 4
#     Node 7, Type 0, BuildingBlock: GALJAG_clean_sbu_0, # of connection points: 4
#     Node 8, Type 0, BuildingBlock: GALJAG_clean_sbu_0, # of connection points: 4
#     Node 9, Type 0, BuildingBlock: GALJAG_clean_sbu_0, # of connection points: 4
#     Node 10, Type 0, BuildingBlock: GALJAG_clean_sbu_0, # of connection points: 4
#     Node 11, Type 0, BuildingBlock: GALJAG_clean_sbu_0, # of connection points: 4
#     Edge 12, Type (0, 0), BuildingBlock: XUDNAN_clean_linker_2, # of connection points: 2
#     Edge 13, Type (0, 0), BuildingBlock: XUDNAN_clean_linker_2, # of connection points: 2
#     Edge 14, Type (0, 0), BuildingBlock: XUDNAN_clean_linker_2, # of connection points: 2
#     Edge 15, Type (0, 0), BuildingBlock: XUDNAN_clean_linker_2, # of connection points: 2
#     Edge 16, Type (0, 0), BuildingBlock: XUDNAN_clean_linker_2, # of connection points: 2
#     Edge 17, Type (0, 0), BuildingBlock: XUDNAN_clean_linker_2, # of connection points: 2
#     Edge 18, Type (0, 0), BuildingBlock: XUDNAN_clean_linker_2, # of connection points: 2
#     Edge 19, Type (0, 0), BuildingBlock: XUDNAN_clean_linker_2, # of connection points: 2
#     Edge 20, Type (0, 0), BuildingBlock: XUDNAN_clean_linker_2, # of connection points: 2
#     Edge 21, Type (0, 0), BuildingBlock: XUDNAN_clean_linker_2, # of connection points: 2
#     Edge 22, Type (0, 0), BuildingBlock: XUDNAN_clean_linker_2, # of connection points: 2
#     Edge 23, Type (0, 0), BuildingBlock: XUDNAN_clean_linker_2, # of connection points: 2
#     Edge 24, Type (0, 0), BuildingBlock: XUDNAN_clean_linker_2, # of connection points: 2
#     Edge 25, Type (0, 0), BuildingBlock: XUDNAN_clean_linker_2, # of connection points: 2
#     Edge 26, Type (0, 0), BuildingBlock: XUDNAN_clean_linker_2, # of connection points: 2
#     Edge 27, Type (0, 0), BuildingBlock: XUDNAN_clean_linker_2, # of connection points: 2
#     Edge 28, Type (0, 0), BuildingBlock: XUDNAN_clean_linker_2, # of connection points: 2
#     Edge 29, Type (0, 0), BuildingBlock: XUDNAN_clean_linker_2, # of connection points: 2
#     Edge 30, Type (0, 0), BuildingBlock: XUDNAN_clean_linker_2, # of connection points: 2
#     Edge 31, Type (0, 0), BuildingBlock: XUDNAN_clean_linker_2, # of connection points: 2
#     Edge 32, Type (0, 0), BuildingBlock: XUDNAN_clean_linker_2, # of connection points: 2
#     Edge 33, Type (0, 0), BuildingBlock: XUDNAN_clean_linker_2, # of connection points: 2
#     Edge 34, Type (0, 0), BuildingBlock: XUDNAN_clean_linker_2, # of connection points: 2
#     Edge 35, Type (0, 0), BuildingBlock: XUDNAN_clean_linker_2, # of connection points: 2
# Relax obj value: 0.053
# Max RMSD: 0.092
# Mean RMSD: 0.092
data_MOF--net-wjh--node1-GALJAG_clean_sbu_0--edge1-XUDNAN_clean_linker_2
_symmetry_space_group_name_H-M    P1
_symmetry_Int_Tables_number       1
_symmetry_cell_setting            triclinic
loop_
_symmetry_equiv_pos_as_xyz
'x, y, z'
_cell_length_a     59.932587
_cell_length_b     59.942354
_cell_length_c     27.850344
_cell_angle_alpha  89.980962
_cell_angle_beta   90.009843
_cell_angle_gamma 120.02106
loop_
_atom_site_label
_atom_site_type_symbol
_atom_site_fract_x
_atom_site_fract_y
_atom_site_fract_z
_atom_type_partial_charge
In0 In 0.53423 0.14716 0.05169 0.0
O1 O 0.56667 0.15199 1.00062 0.0
O2 O 0.54199 0.16594 0.97824 0.0
C3 C 0.54637 0.13966 0.14144 0.0
C4 C 0.498 0.09907 0.02785 0.0
C5 C 0.52361 0.18393 0.07743 0.0
O6 O 0.56382 0.15303 0.11121 0.0
O7 O 0.52377 0.12992 0.12551 0.0
O8 O 0.5066 0.16221 0.06181 0.0
O9 O 0.54627 0.18752 0.07809 0.0
C10 C 0.56049 0.16248 0.96782 0.0
O11 O 0.49288 0.11694 0.03357 0.0
O12 O 0.52146 0.10574 0.03273 0.0
In13 In 0.37187 0.518 0.20858 0.0
O14 O 0.39331 0.54675 0.14773 0.0
O15 O 0.35966 0.51156 0.12998 0.0
C16 C 0.39664 0.54456 0.28806 0.0
C17 C 0.38771 0.48317 0.20824 0.0
C18 C 0.32504 0.51021 0.23253 0.0
O19 O 0.40124 0.55504 0.24707 0.0
O20 O 0.37985 0.52097 0.28852 0.0
O21 O 0.32929 0.49184 0.22545 0.0
O22 O 0.34417 0.53239 0.22558 0.0
C23 C 0.37813 0.53261 0.1152 0.0
O24 O 0.36437 0.47674 0.21419 0.0
O25 O 0.40274 0.50692 0.20169 0.0
In26 In 0.86044 0.37942 0.3884 0.0
O27 O 0.8433 0.39781 0.33955 0.0
O28 O 0.84695 0.36633 0.31285 0.0
C29 C 0.86592 0.39622 0.47922 0.0
C30 C 0.90999 0.40675 0.36281 0.0
C31 C 0.82603 0.3309 0.41146 0.0
O32 O 0.85337 0.40136 0.44876 0.0
O33 O 0.87578 0.38343 0.46311 0.0
O34 O 0.84833 0.3369 0.3964 0.0
O35 O 0.82129 0.3492 0.41319 0.0
C36 C 0.84031 0.38293 0.30472 0.0
O37 O 0.89959 0.38293 0.37237 0.0
O38 O 0.89528 0.41611 0.36567 0.0
In39 In 0.47126 0.8526 0.53031 0.0
O40 O 0.44465 0.84933 0.4687 0.0
O41 O 0.47632 0.84391 0.45256 0.0
C42 C 0.4476 0.85676 0.60901 0.0
C43 C 0.51081 0.90133 0.52808 0.0
C44 C 0.46657 0.80777 0.55945 0.0
O45 O 0.43704 0.85203 0.56805 0.0
O46 O 0.47004 0.85991 0.60962 0.0
O47 O 0.48849 0.82763 0.55363 0.0
O48 O 0.4477 0.81042 0.54774 0.0
C49 C 0.45701 0.84487 0.43703 0.0
O50 O 0.51446 0.88252 0.53497 0.0
O51 O 0.48764 0.89525 0.52133 0.0
In52 In 0.617 0.47664 0.70995 0.0
O53 O 0.59483 0.45004 0.64771 0.0
O54 O 0.62992 0.48457 0.63192 0.0
C55 C 0.59087 0.45205 0.78947 0.0
C56 C 0.60512 0.51429 0.7103 0.0
C57 C 0.65747 0.47097 0.73119 0.0
O58 O 0.58336 0.44262 0.74796 0.0
O59 O 0.61115 0.47381 0.79038 0.0
O60 O 0.65933 0.493 0.73219 0.0
O61 O 0.6359 0.45279 0.71768 0.0
C62 C 0.61082 0.46419 0.61609 0.0
O63 O 0.62819 0.51939 0.71598 0.0
O64 O 0.58897 0.49079 0.70386 0.0
In65 In 0.13481 0.62445 0.90004 0.0
O66 O 0.14317 0.59596 0.86067 0.0
O67 O 0.13975 0.62374 0.81879 0.0
C68 C 0.14091 0.61622 0.99315 0.0
C69 C 0.08373 0.60687 0.89583 0.0
C70 C 0.17391 0.67318 0.9034 0.0
O71 O 0.14302 0.60304 0.95984 0.0
O72 O 0.13501 0.63262 0.97939 0.0
O73 O 0.15077 0.66787 0.89886 0.0
O74 O 0.17722 0.65396 0.90305 0.0
C75 C 0.14363 0.6049 0.81936 0.0
O76 O 0.10015 0.6297 0.88444 0.0
O77 O 0.09314 0.59308 0.90838 0.0
In78 In 0.84754 0.46419 0.89381 0.0
O79 O 0.87685 0.50765 0.89723 0.0
O80 O 0.88983 0.48087 0.90843 0.0
C81 C 0.80251 0.46153 0.87306 0.0
C82 C 0.83594 0.43983 0.97937 0.0
C83 C 0.85551 0.44678 0.80998 0.0
O84 O 0.82272 0.48299 0.88033 0.0
O85 O 0.80519 0.4421 0.878 0.0
O86 O 0.85618 0.43724 0.85001 0.0
O87 O 0.85087 0.46507 0.81226 0.0
C88 C 0.89566 0.50413 0.90512 0.0
O89 O 0.83575 0.42901 0.94039 0.0
O90 O 0.84202 0.46321 0.97545 0.0
In91 In 0.37857 0.86041 0.03059 0.0
O92 O 0.37352 0.89521 0.04361 0.0
O93 O 0.41085 0.90182 0.02553 0.0
C94 C 0.32932 0.82232 0.02751 0.0
C95 C 0.39735 0.85059 0.1112 0.0
C96 C 0.38811 0.85787 0.93676 0.0
O97 O 0.33547 0.84545 0.03553 0.0
O98 O 0.34805 0.81834 0.02394 0.0
O99 O 0.37022 0.86127 0.95181 0.0
O100 O 0.4017 0.85577 0.9693 0.0
C101 C 0.39681 0.91141 0.03489 0.0
O102 O 0.40388 0.84754 0.06966 0.0
O103 O 0.38125 0.85829 0.1119 0.0
In104 In 0.52171 0.37877 0.21091 0.0
O105 O 0.48093 0.37044 0.22792 0.0
O106 O 0.50948 0.40884 0.21005 0.0
C107 C 0.51534 0.33118 0.20675 0.0
C108 C 0.55035 0.39952 0.29061 0.0
C109 C 0.53195 0.38963 0.11683 0.0
O110 O 0.49687 0.33513 0.21494 0.0
O111 O 0.53713 0.35127 0.20293 0.0
O112 O 0.54852 0.40223 0.14886 0.0
O113 O 0.51064 0.37201 0.1325 0.0
C114 C 0.48632 0.39344 0.22107 0.0
O115 O 0.55903 0.4076 0.24896 0.0
O116 O 0.52756 0.38081 0.29175 0.0
In117 In 0.14829 0.53636 0.39882 0.0
O118 O 0.10932 0.49887 0.39252 0.0
O119 O 0.1101 0.53474 0.39134 0.0
C120 C 0.18255 0.52113 0.37996 0.0
C121 C 0.15444 0.54893 0.49315 0.0
C122 C 0.15782 0.56464 0.31847 0.0
O123 O 0.15861 0.50539 0.38261 0.0
O124 O 0.18915 0.54429 0.38896 0.0
O125 O 0.1621 0.57481 0.35981 0.0
O126 O 0.1494 0.5407 0.31823 0.0
C127 C 0.0968 0.51058 0.3882 0.0
O128 O 0.15859 0.56528 0.46067 0.0
O129 O 0.1477 0.52662 0.47795 0.0
In130 In 0.6276 0.13976 0.55548 0.0
O131 O 0.61146 0.15975 0.60201 0.0
O132 O 0.62698 0.13944 0.63812 0.0
C133 C 0.60491 0.14044 0.47184 0.0
C134 C 0.61129 0.08892 0.55858 0.0
C135 C 0.67677 0.17631 0.53899 0.0
O136 O 0.62745 0.14395 0.47379 0.0
O137 O 0.59393 0.13696 0.51206 0.0
O138 O 0.66988 0.15266 0.54032 0.0
O139 O 0.65907 0.18133 0.5475 0.0
C140 C 0.61634 0.15296 0.64166 0.0
O141 O 0.63466 0.10568 0.56509 0.0
O142 O 0.59649 0.09789 0.55191 0.0
In143 In 0.46965 0.61645 0.70881 0.0
O144 O 0.5117 0.62767 0.72504 0.0
O145 O 0.48456 0.58882 0.70665 0.0
C146 C 0.46685 0.65971 0.70616 0.0
C147 C 0.44278 0.59428 0.78951 0.0
C148 C 0.45884 0.60571 0.61482 0.0
O149 O 0.48837 0.66051 0.70715 0.0
O150 O 0.44739 0.63742 0.70873 0.0
O151 O 0.44387 0.59112 0.64731 0.0
O152 O 0.47902 0.62515 0.62997 0.0
C153 C 0.50748 0.60503 0.71771 0.0
O154 O 0.43418 0.58558 0.74805 0.0
O155 O 0.46492 0.61416 0.79013 0.0
H156 H 0.593 0.1566 0.18847 0.0
H157 H 0.51012 0.11627 0.21041 0.0
H158 H 0.5164 0.11296 0.29665 0.0
H159 H 0.60585 0.11887 0.27525 0.0
H160 H 0.63566 0.14591 0.29578 0.0
H161 H 0.6249 0.1453 0.23514 0.0
H162 H 0.62759 0.18931 0.24907 0.0
H163 H 0.63818 0.18997 0.30987 0.0
H164 H 0.61016 0.1929 0.2984 0.0
H165 H 0.531 0.11548 0.38056 0.0
H166 H 0.55347 0.12033 0.45743 0.0
H167 H 0.62691 0.15705 0.38281 0.0
C168 C 0.57624 0.14696 0.21147 0.0
C169 C 0.55108 0.13675 0.19262 0.0
C170 C 0.5296 0.12424 0.22387 0.0
C171 C 0.53292 0.12231 0.27305 0.0
C172 C 0.55787 0.13277 0.29064 0.0
C173 C 0.57919 0.14458 0.26096 0.0
C174 C 0.60382 0.15378 0.28959 0.0
C175 C 0.61841 0.14015 0.27295 0.0
C176 C 0.62095 0.18324 0.28654 0.0
C177 C 0.59289 0.14531 0.33977 0.0
C178 C 0.56634 0.13348 0.33945 0.0
C179 C 0.5518 0.12455 0.38135 0.0
C180 C 0.56472 0.12749 0.42484 0.0
C181 C 0.59186 0.13897 0.426 0.0
C182 C 0.60611 0.14806 0.38288 0.0
H183 H 0.38445 0.52708 0.38021 0.0
H184 H 0.43794 0.59349 0.29614 0.0
H185 H 0.45975 0.61634 0.37091 0.0
H186 H 0.37817 0.5628 0.47811 0.0
H187 H 0.37616 0.54032 0.52328 0.0
H188 H 0.36502 0.52926 0.46318 0.0
H189 H 0.39545 0.51029 0.45789 0.0
H190 H 0.40672 0.52131 0.51794 0.0
H191 H 0.42941 0.53087 0.4691 0.0
H192 H 0.47616 0.63138 0.45463 0.0
H193 H 0.48515 0.63844 0.54143 0.0
H194 H 0.42006 0.56252 0.57102 0.0
C195 C 0.40078 0.54643 0.37749 0.0
C196 C 0.40962 0.55853 0.33242 0.0
C197 C 0.4309 0.58391 0.33034 0.0
C198 C 0.4434 0.59698 0.37257 0.0
C199 C 0.43422 0.58444 0.41644 0.0
C200 C 0.41331 0.55979 0.4192 0.0
C201 C 0.40705 0.55073 0.47079 0.0
C202 C 0.37999 0.54548 0.48464 0.0
C203 C 0.40983 0.52689 0.47942 0.0
C204 C 0.42782 0.57411 0.49675 0.0
C205 C 0.44334 0.59329 0.4647 0.0
C206 C 0.46408 0.61654 0.48004 0.0
C207 C 0.46905 0.62033 0.52942 0.0
C208 C 0.45327 0.60103 0.56294 0.0
C209 C 0.43238 0.57764 0.54625 0.0
H210 H 0.84383 0.45586 0.71961 0.0
H211 H 0.87683 0.41635 0.79693 0.0
H212 H 0.88445 0.40069 0.72007 0.0
H213 H 0.81049 0.40627 0.63176 0.0
H214 H 0.81597 0.42835 0.58325 0.0
H215 H 0.81414 0.43745 0.64411 0.0
H216 H 0.85905 0.47832 0.63489 0.0
H217 H 0.86106 0.46931 0.57401 0.0
H218 H 0.88612 0.47508 0.61639 0.0
H219 H 0.88871 0.38963 0.63598 0.0
H220 H 0.88689 0.38108 0.54934 0.0
H221 H 0.84937 0.42615 0.52552 0.0
C222 C 0.8528 0.44403 0.72026 0.0
C223 C 0.85992 0.43739 0.76407 0.0
C224 C 0.87127 0.42162 0.76369 0.0
C225 C 0.87574 0.41273 0.72027 0.0
C226 C 0.86852 0.41962 0.6777 0.0
C227 C 0.85709 0.4347 0.67725 0.0
C228 C 0.85024 0.43837 0.62654 0.0
C229 C 0.82097 0.42692 0.62111 0.0
C230 C 0.865 0.46697 0.61212 0.0
C231 C 0.8596 0.42295 0.59856 0.0
C232 C 0.87029 0.41255 0.62889 0.0
C233 C 0.88036 0.39762 0.61185 0.0
C234 C 0.87925 0.39293 0.5625 0.0
C235 C 0.86795 0.40294 0.53067 0.0
C236 C 0.85811 0.41826 0.54899 0.0
H237 H 0.4655 0.86182 0.70077 0.0
H238 H 0.40003 0.85241 0.61776 0.0
H239 H 0.37767 0.85158 0.69303 0.0
H240 H 0.42931 0.81948 0.79645 0.0
H241 H 0.45185 0.83883 0.84253 0.0
H242 H 0.463 0.83953 0.78221 0.0
H243 H 0.48299 0.88914 0.77973 0.0
H244 H 0.47202 0.88862 0.84015 0.0
H245 H 0.46301 0.90301 0.79268 0.0
H246 H 0.36262 0.85172 0.77703 0.0
H247 H 0.35555 0.8526 0.86407 0.0
H248 H 0.43048 0.86072 0.89244 0.0
C249 C 0.44652 0.85976 0.69835 0.0
C250 C 0.43449 0.85729 0.65347 0.0
C251 C 0.40959 0.85442 0.65181 0.0
C252 C 0.39676 0.8539 0.69432 0.0
C253 C 0.40912 0.85619 0.73801 0.0
C254 C 0.43343 0.85906 0.74033 0.0
C255 C 0.44231 0.86074 0.79182 0.0
C256 C 0.44688 0.8383 0.80395 0.0
C257 C 0.46651 0.88694 0.80166 0.0
C258 C 0.41912 0.85828 0.81824 0.0
C259 C 0.40026 0.85579 0.78648 0.0
C260 C 0.37723 0.85362 0.80222 0.0
C261 C 0.37342 0.85416 0.85172 0.0
C262 C 0.39247 0.85667 0.88492 0.0
C263 C 0.41554 0.8586 0.86787 0.0
H264 H 0.57377 0.42992 0.07273 0.0
H265 H 0.50065 0.36088 0.04366 0.0
H266 H 0.50773 0.36914 0.95669 0.0
H267 H 0.56886 0.46845 0.97904 0.0
H268 H 0.6027 0.48468 0.96445 0.0
H269 H 0.59219 0.47306 0.02454 0.0
H270 H 0.61569 0.4467 0.02041 0.0
H271 H 0.6263 0.45828 0.96032 0.0
H272 H 0.60847 0.42413 0.972 0.0
H273 H 0.52276 0.38472 0.87276 0.0
H274 H 0.54459 0.40721 0.79776 0.0
H275 H 0.60729 0.46648 0.88162 0.0
C276 C 0.55933 0.41652 0.04802 0.0
C277 C 0.53669 0.39476 0.06489 0.0
C278 C 0.51814 0.37771 0.03149 0.0
C279 C 0.52198 0.3822 0.98202 0.0
C280 C 0.54443 0.40388 0.9665 0.0
C281 C 0.56278 0.4208 0.99844 0.0
C282 C 0.58502 0.44286 0.9723 0.0
C283 C 0.58731 0.46879 0.98589 0.0
C284 C 0.61037 0.44299 0.98182 0.0
C285 C 0.57629 0.43566 0.92077 0.0
C286 C 0.55288 0.41307 0.91816 0.0
C287 C 0.54108 0.40247 0.87431 0.0
C288 C 0.55359 0.41535 0.83196 0.0
C289 C 0.57752 0.43859 0.83393 0.0
C290 C 0.58891 0.44881 0.87898 0.0
H291 H 0.15477 0.54731 0.22689 0.0
H292 H 0.16558 0.61356 0.30882 0.0
H293 H 0.16442 0.63488 0.23347 0.0
H294 H 0.19345 0.58362 0.12202 0.0
H295 H 0.17209 0.55922 0.0804 0.0
H296 H 0.17595 0.55032 0.14034 0.0
H297 H 0.12657 0.52799 0.15316 0.0
H298 H 0.12256 0.53704 0.09354 0.0
H299 H 0.11037 0.54619 0.14447 0.0
H300 H 0.15767 0.64683 0.15041 0.0
H301 H 0.14912 0.65027 0.06486 0.0
H302 H 0.14402 0.57666 0.03668 0.0
C303 C 0.15734 0.5665 0.22894 0.0
C304 C 0.16029 0.57885 0.27363 0.0
C305 C 0.16346 0.60386 0.2749 0.0
C306 C 0.16276 0.61606 0.23233 0.0
C307 C 0.15918 0.60305 0.18894 0.0
C308 C 0.15688 0.57897 0.18688 0.0
C309 C 0.15237 0.56875 0.13593 0.0
C310 C 0.17481 0.56528 0.11866 0.0
C311 C 0.12642 0.5435 0.13155 0.0
C312 C 0.15185 0.59059 0.10967 0.0
C313 C 0.15583 0.61018 0.14092 0.0
C314 C 0.15488 0.63179 0.12554 0.0
C315 C 0.14987 0.63348 0.07693 0.0
C316 C 0.14599 0.61376 0.0442 0.0
C317 C 0.14715 0.59212 0.06084 0.0
H318 H 0.55218 0.31846 0.18653 0.0
H319 H 0.46951 0.28596 0.20052 0.0
H320 H 0.46262 0.24423 0.17032 0.0
H321 H 0.55104 0.28869 0.07833 0.0
H322 H 0.57699 0.28288 0.09305 0.0
H323 H 0.57572 0.30948 0.12013 0.0
H324 H 0.57693 0.29236 0.205 0.0
H325 H 0.57865 0.26591 0.1782 0.0
H326 H 0.55354 0.25967 0.22079 0.0
H327 H 0.46466 0.20755 0.1313 0.0
H328 H 0.47561 0.17698 0.09347 0.0
H329 H 0.55699 0.23334 0.10627 0.0
C330 C 0.53265 0.30241 0.18423 0.0
C331 C 0.51136 0.30537 0.19594 0.0
C332 C 0.48609 0.28402 0.19201 0.0
C333 C 0.48199 0.26029 0.17472 0.0
C334 C 0.50338 0.25826 0.162 0.0
C335 C 0.52823 0.27861 0.16726 0.0
C336 C 0.54786 0.27166 0.14954 0.0
C337 C 0.56383 0.28922 0.10779 0.0
C338 C 0.56526 0.27244 0.19085 0.0
C339 C 0.53014 0.24437 0.13262 0.0
C340 C 0.50456 0.23702 0.14007 0.0
C341 C 0.48462 0.21298 0.12579 0.0
C342 C 0.49103 0.19583 0.10406 0.0
C343 C 0.51713 0.20282 0.09704 0.0
C344 C 0.53687 0.22746 0.11134 0.0
H345 H 0.31454 0.54704 0.26412 0.0
H346 H 0.28025 0.46442 0.24573 0.0
H347 H 0.24011 0.45785 0.28393 0.0
H348 H 0.28789 0.5446 0.3797 0.0
H349 H 0.28288 0.5714 0.36862 0.0
H350 H 0.30848 0.56962 0.33829 0.0
H351 H 0.29027 0.57297 0.25582 0.0
H352 H 0.26481 0.57509 0.28592 0.0
H353 H 0.2571 0.55052 0.24126 0.0
H354 H 0.20378 0.46055 0.32458 0.0
H355 H 0.17375 0.47242 0.36223 0.0
H356 H 0.23286 0.55312 0.35595 0.0
C357 C 0.2985 0.52757 0.26763 0.0
C358 C 0.30039 0.50623 0.25175 0.0
C359 C 0.27911 0.48104 0.25749 0.0
C360 C 0.2563 0.47712 0.27926 0.0
C361 C 0.25522 0.4986 0.29525 0.0
C362 C 0.27575 0.52332 0.28955 0.0
C363 C 0.26988 0.54314 0.31029 0.0
C364 C 0.28838 0.55806 0.35168 0.0
C365 C 0.27055 0.56151 0.27097 0.0
C366 C 0.24279 0.52573 0.32842 0.0
C367 C 0.23463 0.5001 0.31946 0.0
C368 C 0.21 0.48055 0.33196 0.0
C369 C 0.19312 0.48745 0.35344 0.0
C370 C 0.20107 0.51364 0.3623 0.0
C371 C 0.22634 0.5329 0.35016 0.0
H372 H 0.69366 0.22734 0.5281 0.0
H373 H 0.71801 0.1706 0.51396 0.0
H374 H 0.75981 0.20418 0.48058 0.0
H375 H 0.71991 0.25935 0.41932 0.0
H376 H 0.72929 0.29095 0.44228 0.0
H377 H 0.70237 0.26296 0.46841 0.0
H378 H 0.72373 0.27597 0.55246 0.0
H379 H 0.7506 0.30418 0.52668 0.0
H380 H 0.75604 0.28172 0.56057 0.0
H381 H 0.79838 0.24427 0.4449 0.0
H382 H 0.8303 0.28721 0.41267 0.0
H383 H 0.779 0.31608 0.44955 0.0
C384 C 0.70791 0.222 0.51873 0.0
C385 C 0.70271 0.19645 0.52381 0.0
C386 C 0.72174 0.19017 0.5106 0.0
C387 C 0.74546 0.20908 0.49153 0.0
C388 C 0.74973 0.23405 0.48601 0.0
C389 C 0.73147 0.24049 0.49955 0.0
C390 C 0.74013 0.26831 0.48851 0.0
C391 C 0.72184 0.2705 0.45248 0.0
C392 C 0.74279 0.28343 0.53481 0.0
C393 C 0.76607 0.27656 0.46623 0.0
C394 C 0.77144 0.25668 0.46515 0.0
C395 C 0.79438 0.25999 0.44573 0.0
C396 C 0.81233 0.28435 0.42739 0.0
C397 C 0.80706 0.30488 0.42851 0.0
C398 C 0.78358 0.30075 0.44802 0.0
H399 H 0.5027 0.79337 0.58064 0.0
H400 H 0.42147 0.76911 0.59391 0.0
H401 H 0.41429 0.73118 0.64021 0.0
H402 H 0.49282 0.72953 0.56335 0.0
H403 H 0.52106 0.73547 0.59667 0.0
H404 H 0.52027 0.76164 0.56656 0.0
H405 H 0.53092 0.78668 0.64697 0.0
H406 H 0.53135 0.76036 0.67745 0.0
H407 H 0.51048 0.7719 0.6984 0.0
H408 H 0.41526 0.69615 0.68417 0.0
H409 H 0.4232 0.66229 0.71502 0.0
H410 H 0.50345 0.70739 0.67217 0.0
C411 C 0.48344 0.78001 0.59328 0.0
C412 C 0.46265 0.7842 0.58376 0.0
C413 C 0.43768 0.76625 0.60059 0.0
C414 C 0.43341 0.74475 0.62731 0.0
C415 C 0.45428 0.74131 0.63667 0.0
C416 C 0.47873 0.75812 0.61965 0.0
C417 C 0.49732 0.7488 0.63257 0.0
C418 C 0.50851 0.74354 0.58708 0.0
C419 C 0.51879 0.76809 0.66583 0.0
C420 C 0.47934 0.72402 0.65894 0.0
C421 C 0.45473 0.72043 0.66147 0.0
C422 C 0.43445 0.69871 0.68257 0.0
C423 C 0.43918 0.67963 0.70009 0.0
C424 C 0.46393 0.68227 0.69609 0.0
C425 C 0.48444 0.70506 0.67635 0.0
H426 H 0.70645 0.50561 0.76447 0.0
H427 H 0.65362 0.42419 0.73896 0.0
H428 H 0.68445 0.41361 0.77529 0.0
H429 H 0.76494 0.5031 0.73793 0.0
H430 H 0.7838 0.52614 0.78371 0.0
H431 H 0.75763 0.52773 0.75526 0.0
H432 H 0.73738 0.52519 0.8387 0.0
H433 H 0.76333 0.52328 0.86735 0.0
H434 H 0.73041 0.49859 0.87806 0.0
H435 H 0.719 0.41102 0.81679 0.0
H436 H 0.75865 0.41681 0.85411 0.0
H437 H 0.79119 0.49988 0.85135 0.0
C438 C 0.70156 0.48562 0.76617 0.0
C439 C 0.6776 0.46573 0.74896 0.0
C440 C 0.67184 0.43978 0.75182 0.0
C441 C 0.68917 0.43351 0.77261 0.0
C442 C 0.71234 0.45341 0.79006 0.0
C443 C 0.71887 0.47896 0.78652 0.0
C444 C 0.74546 0.49642 0.80751 0.0
C445 C 0.76406 0.51441 0.76879 0.0
C446 C 0.74404 0.51178 0.85046 0.0
C447 C 0.75261 0.47658 0.82348 0.0
C448 C 0.73299 0.45192 0.81333 0.0
C449 C 0.73463 0.43022 0.8247 0.0
C450 C 0.75723 0.43374 0.84607 0.0
C451 C 0.77803 0.4588 0.85555 0.0
C452 C 0.77556 0.48051 0.84464 0.0
H453 H 0.22376 0.68729 0.92274 0.0
H454 H 0.17111 0.7171 0.91564 0.0
H455 H 0.20484 0.75848 0.94982 0.0
H456 H 0.25144 0.71485 0.03437 0.0
H457 H 0.28347 0.72188 0.01853 0.0
H458 H 0.2559 0.69532 0.9905 0.0
H459 H 0.27368 0.71426 0.90619 0.0
H460 H 0.30159 0.74056 0.93391 0.0
H461 H 0.28219 0.74704 0.89303 0.0
H462 H 0.24393 0.79582 0.98862 0.0
H463 H 0.28656 0.82759 0.02143 0.0
H464 H 0.31259 0.77228 0.00405 0.0
C465 C 0.21944 0.70267 0.92748 0.0
C466 C 0.1949 0.6991 0.91633 0.0
C467 C 0.1899 0.71957 0.92361 0.0
C468 C 0.20885 0.74303 0.94329 0.0
C469 C 0.23259 0.74559 0.95542 0.0
C470 C 0.23801 0.72605 0.94722 0.0
C471 C 0.26479 0.73336 0.96405 0.0
C472 C 0.26382 0.71527 0.00425 0.0
C473 C 0.28155 0.73384 0.92177 0.0
C474 C 0.27368 0.76012 0.98299 0.0
C475 C 0.25484 0.76683 0.97799 0.0
C476 C 0.25883 0.79078 0.99264 0.0
C477 C 0.28302 0.80862 0.01152 0.0
C478 C 0.30279 0.80233 0.0154 0.0
C479 C 0.29779 0.77758 1.00183 0.0
H480 H 0.61953 0.13606 0.73203 0.0
H481 H 0.59767 0.18556 0.65642 0.0
H482 H 0.58482 0.19637 0.73318 0.0
H483 H 0.56748 0.11027 0.8139 0.0
H484 H 0.58582 0.1091 0.86416 0.0
H485 H 0.59537 0.1069 0.80388 0.0
H486 H 0.64088 0.14576 0.82015 0.0
H487 H 0.63142 0.14813 0.88051 0.0
H488 H 0.64413 0.17569 0.84117 0.0
H489 H 0.57151 0.19951 0.81647 0.0
H490 H 0.55759 0.19401 0.90107 0.0
H491 H 0.58823 0.14284 0.92413 0.0
C492 C 0.61236 0.14944 0.73178 0.0
C493 C 0.6097 0.16007 0.68825 0.0
C494 C 0.59992 0.17723 0.6893 0.0
C495 C 0.59265 0.18356 0.73276 0.0
C496 C 0.59532 0.17263 0.77496 0.0
C497 C 0.60492 0.15594 0.77494 0.0
C498 C 0.60442 0.14577 0.82511 0.0
C499 C 0.58724 0.11627 0.82684 0.0
C500 C 0.63185 0.15436 0.84277 0.0
C501 C 0.59258 0.15899 0.85311 0.0
C502 C 0.58769 0.17455 0.82343 0.0
C503 C 0.57552 0.18764 0.84019 0.0
C504 C 0.56768 0.18439 0.88831 0.0
C505 C 0.57206 0.16822 0.91926 0.0
C506 C 0.5851 0.15573 0.90155 0.0
H507 H 0.45798 0.60897 0.88265 0.0
H508 H 0.3946 0.55198 0.79677 0.0
H509 H 0.3704 0.53117 0.87087 0.0
H510 H 0.45411 0.5661 0.97527 0.0
H511 H 0.46192 0.58913 0.02304 0.0
H512 H 0.47379 0.6001 0.96327 0.0
H513 H 0.4529 0.62891 0.964 0.0
H514 H 0.44091 0.61798 0.02378 0.0
H515 H 0.41894 0.61463 0.97641 0.0
H516 H 0.35373 0.51572 0.9542 0.0
H517 H 0.3459 0.50641 0.04088 0.0
H518 H 0.42 0.57362 0.07277 0.0
C519 C 0.43895 0.5922 0.87942 0.0
C520 C 0.42814 0.5821 0.83392 0.0
C521 C 0.40324 0.56005 0.83124 0.0
C522 C 0.38934 0.54813 0.87312 0.0
C523 C 0.40057 0.55852 0.9174 0.0
C524 C 0.42481 0.58006 0.92086 0.0
C525 C 0.43274 0.58698 0.97287 0.0
C526 C 0.45708 0.58548 0.98427 0.0
C527 C 0.43659 0.61371 0.98497 0.0
C528 C 0.40929 0.56582 0.99815 0.0
C529 C 0.39092 0.54967 0.96547 0.0
C530 C 0.3679 0.52832 0.98012 0.0
C531 C 0.36364 0.5232 0.02944 0.0
C532 C 0.38228 0.53935 0.06357 0.0
C533 C 0.40528 0.56106 0.04757 0.0
H534 H 0.84404 0.46044 0.07029 0.0
H535 H 0.81537 0.38831 0.99314 0.0
H536 H 0.80833 0.36524 0.06989 0.0
H537 H 0.8793 0.44827 0.15559 0.0
H538 H 0.8726 0.46331 0.20523 0.0
H539 H 0.87231 0.47381 0.14484 0.0
H540 H 0.82576 0.46506 0.15725 0.0
H541 H 0.8259 0.45446 0.21779 0.0
H542 H 0.80094 0.4336 0.17654 0.0
H543 H 0.80884 0.35068 0.15277 0.0
H544 H 0.81747 0.34553 0.23743 0.0
H545 H 0.84521 0.42664 0.26271 0.0
C546 C 0.83577 0.43972 0.06971 0.0
C547 C 0.83011 0.42611 0.02581 0.0
C548 C 0.8198 0.39909 0.02637 0.0
C549 C 0.81561 0.3858 0.06978 0.0
C550 C 0.82175 0.39978 0.11241 0.0
C551 C 0.83156 0.42612 0.11288 0.0
C552 C 0.83849 0.43673 0.16353 0.0
C553 C 0.86739 0.4567 0.16751 0.0
C554 C 0.82177 0.44813 0.17973 0.0
C555 C 0.83177 0.41234 0.19116 0.0
C556 C 0.82186 0.39123 0.16091 0.0
C557 C 0.81613 0.36694 0.17702 0.0
C558 C 0.82113 0.36421 0.2251 0.0
C559 C 0.83167 0.38561 0.25657 0.0
C560 C 0.83652 0.40985 0.23963 0.0
H561 H 0.42056 0.85289 0.39371 0.0
H562 H 0.47813 0.83106 0.36389 0.0
H563 H 0.46793 0.82834 0.27731 0.0
H564 H 0.37409 0.81241 0.30311 0.0
H565 H 0.36515 0.83616 0.2883 0.0
H566 H 0.37604 0.83496 0.34804 0.0
H567 H 0.41152 0.88298 0.34129 0.0
H568 H 0.40078 0.88432 0.28154 0.0
H569 H 0.43391 0.89323 0.29184 0.0
H570 H 0.45243 0.82956 0.19343 0.0
H571 H 0.43318 0.8351 0.11896 0.0
H572 H 0.38623 0.85665 0.20396 0.0
C573 C 0.43082 0.84725 0.36903 0.0
C574 C 0.45005 0.84205 0.38552 0.0
C575 C 0.46327 0.83505 0.35203 0.0
C576 C 0.45759 0.83344 0.30281 0.0
C577 C 0.43868 0.83892 0.28766 0.0
C578 C 0.4255 0.84569 0.31981 0.0
C579 C 0.40676 0.8516 0.29416 0.0
C580 C 0.37886 0.83265 0.3093 0.0
C581 C 0.41367 0.8797 0.30272 0.0
C582 C 0.41158 0.84728 0.24253 0.0
C583 C 0.42996 0.83986 0.2395 0.0
C584 C 0.43793 0.83525 0.1954 0.0
C585 C 0.4269 0.83845 0.15331 0.0
C586 C 0.40819 0.84625 0.15566 0.0
C587 C 0.40041 0.85056 0.20097 0.0
H588 H 0.5695 0.42338 0.57284 0.0
H589 H 0.64406 0.49031 0.54262 0.0
H590 H 0.63772 0.47996 0.45602 0.0
H591 H 0.57241 0.38138 0.48198 0.0
H592 H 0.53866 0.3667 0.46741 0.0
H593 H 0.54966 0.37875 0.52712 0.0
H594 H 0.52867 0.40739 0.52085 0.0
H595 H 0.5176 0.39542 0.46119 0.0
H596 H 0.53709 0.4296 0.4714 0.0
H597 H 0.62248 0.46299 0.37221 0.0
H598 H 0.59912 0.44119 0.29786 0.0
H599 H 0.53458 0.38564 0.38337 0.0
C600 C 0.58459 0.43575 0.54805 0.0
C601 C 0.60731 0.45761 0.56443 0.0
C602 C 0.62651 0.47343 0.53083 0.0
C603 C 0.62311 0.46768 0.4816 0.0
C604 C 0.60041 0.44605 0.46659 0.0
C605 C 0.58148 0.43034 0.49884 0.0
C606 C 0.5585 0.40875 0.47336 0.0
C607 C 0.55459 0.38233 0.48836 0.0
C608 C 0.53403 0.4104 0.48223 0.0
C609 C 0.56733 0.41491 0.42169 0.0
C610 C 0.59161 0.43639 0.41849 0.0
C611 C 0.60351 0.44607 0.37431 0.0
C612 C 0.59012 0.43357 0.3323 0.0
C613 C 0.56509 0.41171 0.33486 0.0
C614 C 0.55374 0.40223 0.38024 0.0
H615 H 0.15562 0.59072 0.5364 0.0
H616 H 0.15611 0.51999 0.56703 0.0
H617 H 0.15583 0.52791 0.65397 0.0
H618 H 0.19566 0.62827 0.6383 0.0
H619 H 0.1771 0.64393 0.64877 0.0
H620 H 0.17957 0.63386 0.589 0.0
H621 H 0.12977 0.60732 0.58324 0.0
H622 H 0.12715 0.61722 0.64299 0.0
H623 H 0.11182 0.58343 0.62844 0.0
H624 H 0.15356 0.54242 0.73741 0.0
H625 H 0.14839 0.56201 0.81157 0.0
H626 H 0.148 0.62263 0.72697 0.0
C627 C 0.15611 0.57715 0.56146 0.0
C628 C 0.15609 0.55484 0.54504 0.0
C629 C 0.15621 0.53725 0.57887 0.0
C630 C 0.1561 0.54161 0.62831 0.0
C631 C 0.15574 0.56358 0.64339 0.0
C632 C 0.15572 0.58107 0.61102 0.0
C633 C 0.1538 0.60235 0.6367 0.0
C634 C 0.17798 0.62866 0.62765 0.0
C635 C 0.12917 0.60258 0.62196 0.0
C636 C 0.15244 0.59392 0.68846 0.0
C637 C 0.15385 0.57165 0.69153 0.0
C638 C 0.15255 0.55993 0.73548 0.0
C639 C 0.1496 0.57118 0.7774 0.0
C640 C 0.14778 0.59382 0.77506 0.0
C641 C 0.14937 0.60534 0.72992 0.0
H642 H 0.50508 0.05833 0.01068 0.0
H643 H 0.44571 0.07857 0.03276 0.0
H644 H 0.4126 0.03232 0.0338 0.0
H645 H 0.46624 0.00145 0.93405 0.0
H646 H 0.48059 0.98402 0.95991 0.0
H647 H 0.49892 0.01865 0.95595 0.0
H648 H 0.50743 0.02117 0.04761 0.0
H649 H 0.48882 0.98662 0.05202 0.0
H650 H 0.48051 0.00625 0.08843 0.0
H651 H 0.38672 0.98378 0.0405 0.0
H652 H 0.36973 0.93677 0.04627 0.0
H653 H 0.44641 0.94909 0.01928 0.0
C654 C 0.48505 0.05306 0.01473 0.0
C655 C 0.47789 0.07194 0.02157 0.0
C656 C 0.45154 0.06433 0.02714 0.0
C657 C 0.43264 0.03815 0.02792 0.0
C658 C 0.44047 0.01996 0.02257 0.0
C659 C 0.46601 0.02711 0.01538 0.0
C660 C 0.46962 0.00394 0.01257 0.0
C661 C 0.47941 0.0019 0.96265 0.0
C662 C 0.48765 0.00454 0.05255 0.0
C663 C 0.44221 0.98262 0.02066 0.0
C664 C 0.42562 0.99217 0.02614 0.0
C665 C 0.39948 0.97606 0.0357 0.0
C666 C 0.39005 0.94946 0.03919 0.0
C667 C 0.40678 0.93938 0.0332 0.0
C668 C 0.43315 0.95625 0.02389 0.0
H669 H 0.49451 0.44187 0.20705 0.0
H670 H 0.43453 0.36375 0.23964 0.0
H671 H 0.40216 0.37793 0.23942 0.0
H672 H 0.46967 0.47418 0.27978 0.0
H673 H 0.47906 0.50016 0.23751 0.0
H674 H 0.49717 0.48366 0.24131 0.0
H675 H 0.49012 0.4735 0.15024 0.0
H676 H 0.47183 0.48981 0.14622 0.0
H677 H 0.45779 0.45684 0.12658 0.0
H678 H 0.37637 0.40102 0.23395 0.0
H679 H 0.35967 0.43122 0.22617 0.0
H680 H 0.43712 0.49364 0.1969 0.0
C681 C 0.47459 0.42774 0.21443 0.0
C682 C 0.46697 0.40173 0.22342 0.0
C683 C 0.44073 0.3838 0.23278 0.0
C684 C 0.42224 0.39167 0.23263 0.0
C685 C 0.43041 0.41747 0.2231 0.0
C686 C 0.456 0.43522 0.21439 0.0
C687 C 0.45993 0.46176 0.20484 0.0
C688 C 0.47749 0.48107 0.24315 0.0
C689 C 0.47054 0.47101 0.15395 0.0
C690 C 0.43253 0.45623 0.20942 0.0
C691 C 0.41572 0.43062 0.21991 0.0
C692 C 0.38937 0.42112 0.22578 0.0
C693 C 0.38006 0.43836 0.2212 0.0
C694 C 0.39711 0.4647 0.21089 0.0
C695 C 0.42361 0.4736 0.20472 0.0
H696 H 0.05998 0.45953 0.40115 0.0
H697 H 0.07146 0.53273 0.34855 0.0
H698 H 0.02553 0.51218 0.32742 0.0
H699 H 0.01045 0.418 0.3132 0.0
H700 H 0.99187 0.39336 0.35679 0.0
H701 H 0.02632 0.41295 0.36356 0.0
H702 H 0.0202 0.42637 0.44883 0.0
H703 H 0.98581 0.40669 0.44243 0.0
H704 H -4e-05 0.44041 0.45675 0.0
H705 H 0.9789 0.48531 0.31621 0.0
H706 H 0.93255 0.45397 0.32179 0.0
H707 H 0.9497 0.39765 0.3832 0.0
C708 C 0.05278 0.47106 0.38469 0.0
C709 C 0.06919 0.49766 0.3763 0.0
C710 C 0.05915 0.51233 0.35542 0.0
C711 C 0.03315 0.5008 0.3429 0.0
C712 C 0.01741 0.47461 0.3517 0.0
C713 C 0.02666 0.45988 0.3725 0.0
C714 C 0.00496 0.43261 0.38173 0.0
C715 C 0.00863 0.41308 0.35204 0.0
C716 C 0.0026 0.42615 0.43563 0.0
C717 C 0.9821 0.43459 0.36384 0.0
C718 C 0.98992 0.45892 0.34594 0.0
C719 C 0.97248 0.4661 0.3297 0.0
C720 C 0.94621 0.44818 0.33307 0.0
C721 C 0.93763 0.42342 0.35274 0.0
C722 C 0.95581 0.41631 0.36725 0.0
H723 H 0.5054 0.94314 0.51459 0.0
H724 H 0.5623 0.92106 0.54909 0.0
H725 H 0.59525 0.96717 0.55971 0.0
H726 H 0.54777 0.00151 0.44927 0.0
H727 H 0.53216 0.01832 0.47236 0.0
H728 H 0.51407 0.98387 0.46495 0.0
H729 H 0.5007 0.97872 0.55463 0.0
H730 H 0.51892 0.01312 0.56244 0.0
H731 H 0.52529 0.99253 0.60025 0.0
H732 H 0.62144 0.01643 0.56925 0.0
H733 H 0.63818 0.0635 0.57543 0.0
H734 H 0.56284 0.05131 0.53616 0.0
C735 C 0.52485 0.94792 0.52385 0.0
C736 C 0.53137 0.92858 0.53087 0.0
C737 C 0.55699 0.93566 0.54329 0.0
C738 C 0.57576 0.96176 0.54947 0.0
C739 C 0.5685 0.98035 0.54303 0.0
C740 C 0.54362 0.97364 0.53027 0.0
C741 C 0.5402 0.99688 0.52679 0.0
C742 C 0.53314 0.00035 0.47528 0.0
C743 C 0.5201 0.9952 0.5632 0.0
C744 C 0.56699 0.01785 0.54003 0.0
C745 C 0.58318 0.00813 0.54909 0.0
C746 C 0.60889 0.0242 0.56213 0.0
C747 C 0.61822 0.05085 0.56566 0.0
C748 C 0.60177 0.06098 0.55647 0.0
C749 C 0.57588 0.04416 0.54365 0.0
H750 H 0.55639 0.50505 0.70059 0.0
H751 H 0.63459 0.56691 0.72567 0.0
H752 H 0.61859 0.59794 0.73155 0.0
H753 H 0.5358 0.54033 0.62805 0.0
H754 H 0.50372 0.52431 0.65285 0.0
H755 H 0.52187 0.50785 0.65047 0.0
H756 H 0.51573 0.49962 0.74227 0.0
H757 H 0.49766 0.51617 0.74498 0.0
H758 H 0.52562 0.52649 0.78254 0.0
H759 H 0.59252 0.62189 0.73491 0.0
H760 H 0.55983 0.63587 0.73386 0.0
H761 H 0.50003 0.55695 0.70724 0.0
C762 C 0.5703 0.52513 0.70715 0.0
C763 C 0.59674 0.53363 0.71256 0.0
C764 C 0.61421 0.56006 0.72128 0.0
C765 C 0.60528 0.57775 0.72475 0.0
C766 C 0.57889 0.56856 0.7195 0.0
C767 C 0.56177 0.5428 0.71082 0.0
C768 C 0.53441 0.53732 0.70668 0.0
C769 C 0.52331 0.52685 0.65653 0.0
C770 C 0.51736 0.51881 0.74649 0.0
C771 C 0.53861 0.56404 0.7141 0.0
C772 C 0.56429 0.58195 0.72159 0.0
C773 C 0.57239 0.60796 0.72908 0.0
C774 C 0.55374 0.61573 0.72853 0.0
C775 C 0.52744 0.59749 0.72046 0.0
C776 C 0.51998 0.5714 0.71347 0.0
H777 H 0.04602 0.55831 0.91815 0.0
H778 H 0.05816 0.63296 0.87384 0.0
H779 H 0.01095 0.61573 0.87556 0.0
H780 H 0.98986 0.52056 0.84843 0.0
H781 H 0.97477 0.49567 0.89322 0.0
H782 H 0.00935 0.51446 0.88975 0.0
H783 H 0.01124 0.52724 0.97927 0.0
H784 H 0.97662 0.50862 0.98291 0.0
H785 H 0.99323 0.54226 0.99899 0.0
H786 H 0.96168 0.58925 0.88079 0.0
H787 H 0.91544 0.55575 0.88572 0.0
H788 H 0.93719 0.49942 0.92691 0.0
C789 C 0.03881 0.5711 0.9089 0.0
C790 C 0.05569 0.59696 0.89589 0.0
C791 C 0.04549 0.61305 0.88389 0.0
C792 C 0.01875 0.60346 0.88493 0.0
C793 C 0.00261 0.5778 0.89813 0.0
C794 C 0.01236 0.56189 0.90976 0.0
C795 C 0.99117 0.53492 0.92147 0.0
C796 C 0.9913 0.51525 0.8861 0.0
C797 C 0.9932 0.52786 0.97377 0.0
C798 C 0.96787 0.53796 0.91425 0.0
C799 C 0.97471 0.56281 0.90108 0.0
C800 C 0.95615 0.56978 0.89132 0.0
C801 C 0.92997 0.55069 0.89435 0.0
C802 C 0.92278 0.52506 0.9068 0.0
C803 C 0.94206 0.51887 0.91749 0.0
loop_
_geom_bond_atom_site_label_1
_geom_bond_atom_site_label_2
_geom_bond_distance
_geom_bond_site_symmetry_2
_ccdc_geom_bond_type
In0 O1 2.284 1_554 S
In0 O2 2.326 1_554 S
In0 O6 2.266 . S
In0 O7 2.326 . S
In0 O8 2.266 . S
In0 O9 2.326 . S
In0 O11 2.294 . S
In0 O12 2.326 . S
O1 In0 2.284 1_556 S
O1 C10 1.251 . S
O2 In0 2.326 1_556 S
O2 C10 1.252 . S
C3 O6 1.252 . S
C3 O7 1.260 . S
C4 O11 1.240 . S
C4 O12 1.252 . S
C5 O8 1.252 . S
C5 O9 1.260 . S
O6 In0 2.266 . S
O6 C3 1.252 . S
O7 In0 2.326 . S
O7 C3 1.260 . S
O8 In0 2.266 . S
O8 C5 1.252 . S
O9 In0 2.326 . S
O9 C5 1.260 . S
C10 O1 1.251 . S
C10 O2 1.252 . S
O11 In0 2.294 . S
O11 C4 1.240 . S
O12 In0 2.326 . S
O12 C4 1.252 . S
In13 O14 2.294 . S
In13 O15 2.326 . S
In13 O19 2.266 . S
In13 O20 2.326 . S
In13 O21 2.266 . S
In13 O22 2.326 . S
In13 O24 2.294 . S
In13 O25 2.326 . S
O14 In13 2.294 . S
O14 C23 1.240 . S
O15 In13 2.326 . S
O15 C23 1.252 . S
C16 O19 1.252 . S
C16 O20 1.260 . S
C17 O24 1.240 . S
C17 O25 1.252 . S
C18 O21 1.252 . S
C18 O22 1.260 . S
O19 In13 2.266 . S
O19 C16 1.252 . S
O20 In13 2.326 . S
O20 C16 1.260 . S
O21 In13 2.266 . S
O21 C18 1.252 . S
O22 In13 2.326 . S
O22 C18 1.260 . S
C23 O14 1.240 . S
C23 O15 1.252 . S
O24 In13 2.294 . S
O24 C17 1.240 . S
O25 In13 2.326 . S
O25 C17 1.252 . S
In26 O27 2.294 . S
In26 O28 2.326 . S
In26 O32 2.266 . S
In26 O33 2.326 . S
In26 O34 2.266 . S
In26 O35 2.326 . S
In26 O37 2.294 . S
In26 O38 2.326 . S
O27 In26 2.294 . S
O27 C36 1.240 . S
O28 In26 2.326 . S
O28 C36 1.252 . S
C29 O32 1.252 . S
C29 O33 1.260 . S
C30 O37 1.240 . S
C30 O38 1.252 . S
C31 O34 1.252 . S
C31 O35 1.260 . S
O32 In26 2.266 . S
O32 C29 1.252 . S
O33 In26 2.326 . S
O33 C29 1.260 . S
O34 In26 2.266 . S
O34 C31 1.252 . S
O35 In26 2.326 . S
O35 C31 1.260 . S
C36 O27 1.240 . S
C36 O28 1.252 . S
O37 In26 2.294 . S
O37 C30 1.240 . S
O38 In26 2.326 . S
O38 C30 1.252 . S
In39 O40 2.294 . S
In39 O41 2.326 . S
In39 O45 2.266 . S
In39 O46 2.326 . S
In39 O47 2.266 . S
In39 O48 2.326 . S
In39 O50 2.294 . S
In39 O51 2.326 . S
O40 In39 2.294 . S
O40 C49 1.240 . S
O41 In39 2.326 . S
O41 C49 1.252 . S
C42 O45 1.252 . S
C42 O46 1.260 . S
C43 O50 1.240 . S
C43 O51 1.252 . S
C44 O47 1.252 . S
C44 O48 1.260 . S
O45 In39 2.266 . S
O45 C42 1.252 . S
O46 In39 2.326 . S
O46 C42 1.260 . S
O47 In39 2.266 . S
O47 C44 1.252 . S
O48 In39 2.326 . S
O48 C44 1.260 . S
C49 O40 1.240 . S
C49 O41 1.252 . S
O50 In39 2.294 . S
O50 C43 1.240 . S
O51 In39 2.326 . S
O51 C43 1.252 . S
In52 O53 2.294 . S
In52 O54 2.326 . S
In52 O58 2.266 . S
In52 O59 2.326 . S
In52 O60 2.266 . S
In52 O61 2.326 . S
In52 O63 2.294 . S
In52 O64 2.326 . S
O53 In52 2.294 . S
O53 C62 1.240 . S
O54 In52 2.326 . S
O54 C62 1.252 . S
C55 O58 1.252 . S
C55 O59 1.260 . S
C56 O63 1.240 . S
C56 O64 1.252 . S
C57 O60 1.252 . S
C57 O61 1.260 . S
O58 In52 2.266 . S
O58 C55 1.252 . S
O59 In52 2.326 . S
O59 C55 1.260 . S
O60 In52 2.266 . S
O60 C57 1.252 . S
O61 In52 2.326 . S
O61 C57 1.260 . S
C62 O53 1.240 . S
C62 O54 1.252 . S
O63 In52 2.294 . S
O63 C56 1.240 . S
O64 In52 2.326 . S
O64 C56 1.252 . S
In65 O66 2.294 . S
In65 O67 2.326 . S
In65 O71 2.266 . S
In65 O72 2.326 . S
In65 O73 2.266 . S
In65 O74 2.326 . S
In65 O76 2.294 . S
In65 O77 2.326 . S
O66 In65 2.294 . S
O66 C75 1.240 . S
O67 In65 2.326 . S
O67 C75 1.252 . S
C68 O71 1.252 . S
C68 O72 1.260 . S
C69 O76 1.240 . S
C69 O77 1.252 . S
C70 O73 1.252 . S
C70 O74 1.260 . S
O71 In65 2.266 . S
O71 C68 1.252 . S
O72 In65 2.326 . S
O72 C68 1.260 . S
O73 In65 2.266 . S
O73 C70 1.252 . S
O74 In65 2.326 . S
O74 C70 1.260 . S
C75 O66 1.240 . S
C75 O67 1.252 . S
O76 In65 2.294 . S
O76 C69 1.240 . S
O77 In65 2.326 . S
O77 C69 1.252 . S
In78 O79 2.294 . S
In78 O80 2.326 . S
In78 O84 2.266 . S
In78 O85 2.326 . S
In78 O86 2.266 . S
In78 O87 2.326 . S
In78 O89 2.294 . S
In78 O90 2.326 . S
O79 In78 2.294 . S
O79 C88 1.240 . S
O80 In78 2.326 . S
O80 C88 1.252 . S
C81 O84 1.252 . S
C81 O85 1.260 . S
C82 O89 1.240 . S
C82 O90 1.252 . S
C83 O86 1.252 . S
C83 O87 1.260 . S
O84 In78 2.266 . S
O84 C81 1.252 . S
O85 In78 2.326 . S
O85 C81 1.260 . S
O86 In78 2.266 . S
O86 C83 1.252 . S
O87 In78 2.326 . S
O87 C83 1.260 . S
C88 O79 1.240 . S
C88 O80 1.252 . S
O89 In78 2.294 . S
O89 C82 1.240 . S
O90 In78 2.326 . S
O90 C82 1.252 . S
In91 O92 2.294 . S
In91 O93 2.326 . S
In91 O97 2.266 . S
In91 O98 2.326 . S
In91 O99 2.266 1_554 S
In91 O100 2.326 1_554 S
In91 O102 2.294 . S
In91 O103 2.326 . S
O92 In91 2.294 . S
O92 C101 1.240 . S
O93 In91 2.326 . S
O93 C101 1.252 . S
C94 O97 1.252 . S
C94 O98 1.260 . S
C95 O102 1.240 . S
C95 O103 1.252 . S
C96 O99 1.252 . S
C96 O100 1.260 . S
O97 In91 2.266 . S
O97 C94 1.252 . S
O98 In91 2.326 . S
O98 C94 1.260 . S
O99 In91 2.266 1_556 S
O99 C96 1.252 . S
O100 In91 2.326 1_556 S
O100 C96 1.260 . S
C101 O92 1.240 . S
C101 O93 1.252 . S
O102 In91 2.294 . S
O102 C95 1.240 . S
O103 In91 2.326 . S
O103 C95 1.252 . S
In104 O105 2.294 . S
In104 O106 2.326 . S
In104 O110 2.266 . S
In104 O111 2.326 . S
In104 O112 2.266 . S
In104 O113 2.326 . S
In104 O115 2.294 . S
In104 O116 2.326 . S
O105 In104 2.294 . S
O105 C114 1.240 . S
O106 In104 2.326 . S
O106 C114 1.252 . S
C107 O110 1.252 . S
C107 O111 1.260 . S
C108 O115 1.240 . S
C108 O116 1.252 . S
C109 O112 1.252 . S
C109 O113 1.260 . S
O110 In104 2.266 . S
O110 C107 1.252 . S
O111 In104 2.326 . S
O111 C107 1.260 . S
O112 In104 2.266 . S
O112 C109 1.252 . S
O113 In104 2.326 . S
O113 C109 1.260 . S
C114 O105 1.240 . S
C114 O106 1.252 . S
O115 In104 2.294 . S
O115 C108 1.240 . S
O116 In104 2.326 . S
O116 C108 1.252 . S
In117 O118 2.294 . S
In117 O119 2.326 . S
In117 O123 2.266 . S
In117 O124 2.326 . S
In117 O125 2.266 . S
In117 O126 2.326 . S
In117 O128 2.294 . S
In117 O129 2.326 . S
O118 In117 2.294 . S
O118 C127 1.240 . S
O119 In117 2.326 . S
O119 C127 1.252 . S
C120 O123 1.252 . S
C120 O124 1.260 . S
C121 O128 1.240 . S
C121 O129 1.252 . S
C122 O125 1.252 . S
C122 O126 1.260 . S
O123 In117 2.266 . S
O123 C120 1.252 . S
O124 In117 2.326 . S
O124 C120 1.260 . S
O125 In117 2.266 . S
O125 C122 1.252 . S
O126 In117 2.326 . S
O126 C122 1.260 . S
C127 O118 1.240 . S
C127 O119 1.252 . S
O128 In117 2.294 . S
O128 C121 1.240 . S
O129 In117 2.326 . S
O129 C121 1.252 . S
In130 O131 2.294 . S
In130 O132 2.326 . S
In130 O136 2.266 . S
In130 O137 2.326 . S
In130 O138 2.266 . S
In130 O139 2.326 . S
In130 O141 2.294 . S
In130 O142 2.326 . S
O131 In130 2.294 . S
O131 C140 1.240 . S
O132 In130 2.326 . S
O132 C140 1.252 . S
C133 O136 1.252 . S
C133 O137 1.260 . S
C134 O141 1.240 . S
C134 O142 1.252 . S
C135 O138 1.252 . S
C135 O139 1.260 . S
O136 In130 2.266 . S
O136 C133 1.252 . S
O137 In130 2.326 . S
O137 C133 1.260 . S
O138 In130 2.266 . S
O138 C135 1.252 . S
O139 In130 2.326 . S
O139 C135 1.260 . S
C140 O131 1.240 . S
C140 O132 1.252 . S
O141 In130 2.294 . S
O141 C134 1.240 . S
O142 In130 2.326 . S
O142 C134 1.252 . S
In143 O144 2.294 . S
In143 O145 2.326 . S
In143 O149 2.266 . S
In143 O150 2.326 . S
In143 O151 2.266 . S
In143 O152 2.326 . S
In143 O154 2.294 . S
In143 O155 2.326 . S
O144 In143 2.294 . S
O144 C153 1.240 . S
O145 In143 2.326 . S
O145 C153 1.252 . S
C146 O149 1.252 . S
C146 O150 1.260 . S
C147 O154 1.240 . S
C147 O155 1.252 . S
C148 O151 1.252 . S
C148 O152 1.260 . S
O149 In143 2.266 . S
O149 C146 1.252 . S
O150 In143 2.326 . S
O150 C146 1.260 . S
O151 In143 2.266 . S
O151 C148 1.252 . S
O152 In143 2.326 . S
O152 C148 1.260 . S
C153 O144 1.240 . S
C153 O145 1.252 . S
O154 In143 2.294 . S
O154 C147 1.240 . S
O155 In143 2.326 . S
O155 C147 1.252 . S
H156 C168 0.930 . S
H157 C170 0.930 . S
H158 C171 0.930 . S
H159 C175 0.959 . S
H160 C175 0.959 . S
H161 C175 0.961 . S
H162 C176 0.960 . S
H163 C176 0.961 . S
H164 C176 0.959 . S
H165 C179 0.929 . S
H166 C180 0.931 . S
H167 C182 0.930 . S
C168 H156 0.930 . S
C168 C169 1.399 . S
C168 C173 1.399 . S
C169 C168 1.399 . S
C169 C170 1.376 . S
C170 H157 0.930 . S
C170 C169 1.376 . S
C170 C171 1.388 . S
C171 H158 0.930 . S
C171 C170 1.388 . S
C171 C172 1.390 . S
C172 C171 1.390 . S
C172 C173 1.394 . S
C172 C178 1.465 . S
C173 C168 1.399 . S
C173 C172 1.394 . S
C173 C174 1.516 . S
C174 C173 1.516 . S
C174 C175 1.502 . S
C174 C176 1.561 . S
C174 C177 1.526 . S
C175 H159 0.959 . S
C175 H160 0.959 . S
C175 H161 0.961 . S
C175 C174 1.502 . S
C176 H162 0.960 . S
C176 H163 0.961 . S
C176 H164 0.959 . S
C176 C174 1.561 . S
C177 C174 1.526 . S
C177 C178 1.396 . S
C177 C182 1.390 . S
C178 C172 1.465 . S
C178 C177 1.396 . S
C178 C179 1.399 . S
C179 H165 0.929 . S
C179 C178 1.399 . S
C179 C180 1.385 . S
C180 H166 0.931 . S
C180 C179 1.385 . S
C180 C181 1.389 . S
C181 C180 1.389 . S
C181 C182 1.387 . S
C182 H167 0.930 . S
C182 C177 1.390 . S
C182 C181 1.387 . S
H183 C195 0.930 . S
H184 C197 0.930 . S
H185 C198 0.930 . S
H186 C202 0.959 . S
H187 C202 0.959 . S
H188 C202 0.961 . S
H189 C203 0.960 . S
H190 C203 0.961 . S
H191 C203 0.959 . S
H192 C206 0.929 . S
H193 C207 0.931 . S
H194 C209 0.930 . S
C195 H183 0.930 . S
C195 C196 1.399 . S
C195 C200 1.399 . S
C196 C195 1.399 . S
C196 C197 1.376 . S
C197 H184 0.930 . S
C197 C196 1.376 . S
C197 C198 1.388 . S
C198 H185 0.930 . S
C198 C197 1.388 . S
C198 C199 1.390 . S
C199 C198 1.390 . S
C199 C200 1.394 . S
C199 C205 1.465 . S
C200 C195 1.399 . S
C200 C199 1.394 . S
C200 C201 1.516 . S
C201 C200 1.516 . S
C201 C202 1.502 . S
C201 C203 1.561 . S
C201 C204 1.526 . S
C202 H186 0.959 . S
C202 H187 0.959 . S
C202 H188 0.961 . S
C202 C201 1.502 . S
C203 H189 0.960 . S
C203 H190 0.961 . S
C203 H191 0.959 . S
C203 C201 1.561 . S
C204 C201 1.526 . S
C204 C205 1.396 . S
C204 C209 1.390 . S
C205 C199 1.465 . S
C205 C204 1.396 . S
C205 C206 1.399 . S
C206 H192 0.929 . S
C206 C205 1.399 . S
C206 C207 1.385 . S
C207 H193 0.931 . S
C207 C206 1.385 . S
C207 C208 1.389 . S
C208 C207 1.389 . S
C208 C209 1.387 . S
C209 H194 0.930 . S
C209 C204 1.390 . S
C209 C208 1.387 . S
H210 C222 0.930 . S
H211 C224 0.930 . S
H212 C225 0.930 . S
H213 C229 0.959 . S
H214 C229 0.959 . S
H215 C229 0.961 . S
H216 C230 0.960 . S
H217 C230 0.961 . S
H218 C230 0.959 . S
H219 C233 0.929 . S
H220 C234 0.931 . S
H221 C236 0.930 . S
C222 H210 0.930 . S
C222 C223 1.399 . S
C222 C227 1.399 . S
C223 C222 1.399 . S
C223 C224 1.376 . S
C224 H211 0.930 . S
C224 C223 1.376 . S
C224 C225 1.388 . S
C225 H212 0.930 . S
C225 C224 1.388 . S
C225 C226 1.390 . S
C226 C225 1.390 . S
C226 C227 1.394 . S
C226 C232 1.465 . S
C227 C222 1.399 . S
C227 C226 1.394 . S
C227 C228 1.516 . S
C228 C227 1.516 . S
C228 C229 1.502 . S
C228 C230 1.561 . S
C228 C231 1.526 . S
C229 H213 0.959 . S
C229 H214 0.959 . S
C229 H215 0.961 . S
C229 C228 1.502 . S
C230 H216 0.960 . S
C230 H217 0.961 . S
C230 H218 0.959 . S
C230 C228 1.561 . S
C231 C228 1.526 . S
C231 C232 1.396 . S
C231 C236 1.390 . S
C232 C226 1.465 . S
C232 C231 1.396 . S
C232 C233 1.399 . S
C233 H219 0.929 . S
C233 C232 1.399 . S
C233 C234 1.385 . S
C234 H220 0.931 . S
C234 C233 1.385 . S
C234 C235 1.389 . S
C235 C234 1.389 . S
C235 C236 1.387 . S
C236 H221 0.930 . S
C236 C231 1.390 . S
C236 C235 1.387 . S
H237 C249 0.930 . S
H238 C251 0.930 . S
H239 C252 0.930 . S
H240 C256 0.959 . S
H241 C256 0.959 . S
H242 C256 0.961 . S
H243 C257 0.960 . S
H244 C257 0.961 . S
H245 C257 0.959 . S
H246 C260 0.929 . S
H247 C261 0.931 . S
H248 C263 0.930 . S
C249 H237 0.930 . S
C249 C250 1.399 . S
C249 C254 1.399 . S
C250 C249 1.399 . S
C250 C251 1.376 . S
C251 H238 0.930 . S
C251 C250 1.376 . S
C251 C252 1.388 . S
C252 H239 0.930 . S
C252 C251 1.388 . S
C252 C253 1.390 . S
C253 C252 1.390 . S
C253 C254 1.394 . S
C253 C259 1.465 . S
C254 C249 1.399 . S
C254 C253 1.394 . S
C254 C255 1.516 . S
C255 C254 1.516 . S
C255 C256 1.502 . S
C255 C257 1.561 . S
C255 C258 1.526 . S
C256 H240 0.959 . S
C256 H241 0.959 . S
C256 H242 0.961 . S
C256 C255 1.502 . S
C257 H243 0.960 . S
C257 H244 0.961 . S
C257 H245 0.959 . S
C257 C255 1.561 . S
C258 C255 1.526 . S
C258 C259 1.396 . S
C258 C263 1.390 . S
C259 C253 1.465 . S
C259 C258 1.396 . S
C259 C260 1.399 . S
C260 H246 0.929 . S
C260 C259 1.399 . S
C260 C261 1.385 . S
C261 H247 0.931 . S
C261 C260 1.385 . S
C261 C262 1.389 . S
C262 C261 1.389 . S
C262 C263 1.387 . S
C263 H248 0.930 . S
C263 C258 1.390 . S
C263 C262 1.387 . S
H264 C276 0.930 . S
H265 C278 0.930 . S
H266 C279 0.930 1_556 S
H267 C283 0.959 . S
H268 C283 0.959 . S
H269 C283 0.961 1_554 S
H270 C284 0.960 1_554 S
H271 C284 0.961 . S
H272 C284 0.959 . S
H273 C287 0.929 . S
H274 C288 0.931 . S
H275 C290 0.930 . S
C276 H264 0.930 . S
C276 C277 1.399 . S
C276 C281 1.399 . S
C277 C276 1.399 . S
C277 C278 1.376 . S
C278 H265 0.930 . S
C278 C277 1.376 . S
C278 C279 1.388 . S
C279 H266 0.930 1_554 S
C279 C278 1.388 . S
C279 C280 1.390 1_554 S
C280 C279 1.390 1_556 S
C280 C281 1.394 1_556 S
C280 C286 1.465 . S
C281 C276 1.399 . S
C281 C280 1.394 1_554 S
C281 C282 1.516 1_554 S
C282 C281 1.516 1_556 S
C282 C283 1.502 . S
C282 C284 1.561 . S
C282 C285 1.526 . S
C283 H267 0.959 . S
C283 H268 0.959 . S
C283 H269 0.961 1_556 S
C283 C282 1.502 . S
C284 H270 0.960 1_556 S
C284 H271 0.961 . S
C284 H272 0.959 . S
C284 C282 1.561 . S
C285 C282 1.526 . S
C285 C286 1.396 . S
C285 C290 1.390 . S
C286 C280 1.465 . S
C286 C285 1.396 . S
C286 C287 1.399 . S
C287 H273 0.929 . S
C287 C286 1.399 . S
C287 C288 1.385 . S
C288 H274 0.931 . S
C288 C287 1.385 . S
C288 C289 1.389 . S
C289 C288 1.389 . S
C289 C290 1.387 . S
C290 H275 0.930 . S
C290 C285 1.390 . S
C290 C289 1.387 . S
H291 C303 0.930 . S
H292 C305 0.930 . S
H293 C306 0.930 . S
H294 C310 0.959 . S
H295 C310 0.959 . S
H296 C310 0.961 . S
H297 C311 0.960 . S
H298 C311 0.961 . S
H299 C311 0.959 . S
H300 C314 0.929 . S
H301 C315 0.931 . S
H302 C317 0.930 . S
C303 H291 0.930 . S
C303 C304 1.399 . S
C303 C308 1.399 . S
C304 C303 1.399 . S
C304 C305 1.376 . S
C305 H292 0.930 . S
C305 C304 1.376 . S
C305 C306 1.388 . S
C306 H293 0.930 . S
C306 C305 1.388 . S
C306 C307 1.390 . S
C307 C306 1.390 . S
C307 C308 1.394 . S
C307 C313 1.465 . S
C308 C303 1.399 . S
C308 C307 1.394 . S
C308 C309 1.516 . S
C309 C308 1.516 . S
C309 C310 1.502 . S
C309 C311 1.561 . S
C309 C312 1.526 . S
C310 H294 0.959 . S
C310 H295 0.959 . S
C310 H296 0.961 . S
C310 C309 1.502 . S
C311 H297 0.960 . S
C311 H298 0.961 . S
C311 H299 0.959 . S
C311 C309 1.561 . S
C312 C309 1.526 . S
C312 C313 1.396 . S
C312 C317 1.390 . S
C313 C307 1.465 . S
C313 C312 1.396 . S
C313 C314 1.399 . S
C314 H300 0.929 . S
C314 C313 1.399 . S
C314 C315 1.385 . S
C315 H301 0.931 . S
C315 C314 1.385 . S
C315 C316 1.389 . S
C316 C315 1.389 . S
C316 C317 1.387 . S
C317 H302 0.930 . S
C317 C312 1.390 . S
C317 C316 1.387 . S
H318 C330 0.930 . S
H319 C332 0.930 . S
H320 C333 0.930 . S
H321 C337 0.959 . S
H322 C337 0.959 . S
H323 C337 0.961 . S
H324 C338 0.960 . S
H325 C338 0.961 . S
H326 C338 0.959 . S
H327 C341 0.929 . S
H328 C342 0.931 . S
H329 C344 0.930 . S
C330 H318 0.930 . S
C330 C331 1.399 . S
C330 C335 1.399 . S
C331 C330 1.399 . S
C331 C332 1.376 . S
C332 H319 0.930 . S
C332 C331 1.376 . S
C332 C333 1.388 . S
C333 H320 0.930 . S
C333 C332 1.388 . S
C333 C334 1.390 . S
C334 C333 1.390 . S
C334 C335 1.394 . S
C334 C340 1.465 . S
C335 C330 1.399 . S
C335 C334 1.394 . S
C335 C336 1.516 . S
C336 C335 1.516 . S
C336 C337 1.502 . S
C336 C338 1.561 . S
C336 C339 1.526 . S
C337 H321 0.959 . S
C337 H322 0.959 . S
C337 H323 0.961 . S
C337 C336 1.502 . S
C338 H324 0.960 . S
C338 H325 0.961 . S
C338 H326 0.959 . S
C338 C336 1.561 . S
C339 C336 1.526 . S
C339 C340 1.396 . S
C339 C344 1.390 . S
C340 C334 1.465 . S
C340 C339 1.396 . S
C340 C341 1.399 . S
C341 H327 0.929 . S
C341 C340 1.399 . S
C341 C342 1.385 . S
C342 H328 0.931 . S
C342 C341 1.385 . S
C342 C343 1.389 . S
C343 C342 1.389 . S
C343 C344 1.387 . S
C344 H329 0.930 . S
C344 C339 1.390 . S
C344 C343 1.387 . S
H345 C357 0.930 . S
H346 C359 0.930 . S
H347 C360 0.930 . S
H348 C364 0.959 . S
H349 C364 0.959 . S
H350 C364 0.961 . S
H351 C365 0.960 . S
H352 C365 0.961 . S
H353 C365 0.959 . S
H354 C368 0.929 . S
H355 C369 0.931 . S
H356 C371 0.930 . S
C357 H345 0.930 . S
C357 C358 1.399 . S
C357 C362 1.399 . S
C358 C357 1.399 . S
C358 C359 1.376 . S
C359 H346 0.930 . S
C359 C358 1.376 . S
C359 C360 1.388 . S
C360 H347 0.930 . S
C360 C359 1.388 . S
C360 C361 1.390 . S
C361 C360 1.390 . S
C361 C362 1.394 . S
C361 C367 1.465 . S
C362 C357 1.399 . S
C362 C361 1.394 . S
C362 C363 1.516 . S
C363 C362 1.516 . S
C363 C364 1.502 . S
C363 C365 1.561 . S
C363 C366 1.526 . S
C364 H348 0.959 . S
C364 H349 0.959 . S
C364 H350 0.961 . S
C364 C363 1.502 . S
C365 H351 0.960 . S
C365 H352 0.961 . S
C365 H353 0.959 . S
C365 C363 1.561 . S
C366 C363 1.526 . S
C366 C367 1.396 . S
C366 C371 1.390 . S
C367 C361 1.465 . S
C367 C366 1.396 . S
C367 C368 1.399 . S
C368 H354 0.929 . S
C368 C367 1.399 . S
C368 C369 1.385 . S
C369 H355 0.931 . S
C369 C368 1.385 . S
C369 C370 1.389 . S
C370 C369 1.389 . S
C370 C371 1.387 . S
C371 H356 0.930 . S
C371 C366 1.390 . S
C371 C370 1.387 . S
H372 C384 0.930 . S
H373 C386 0.930 . S
H374 C387 0.930 . S
H375 C391 0.959 . S
H376 C391 0.959 . S
H377 C391 0.961 . S
H378 C392 0.960 . S
H379 C392 0.961 . S
H380 C392 0.959 . S
H381 C395 0.929 . S
H382 C396 0.931 . S
H383 C398 0.930 . S
C384 H372 0.930 . S
C384 C385 1.399 . S
C384 C389 1.399 . S
C385 C384 1.399 . S
C385 C386 1.376 . S
C386 H373 0.930 . S
C386 C385 1.376 . S
C386 C387 1.388 . S
C387 H374 0.930 . S
C387 C386 1.388 . S
C387 C388 1.390 . S
C388 C387 1.390 . S
C388 C389 1.394 . S
C388 C394 1.465 . S
C389 C384 1.399 . S
C389 C388 1.394 . S
C389 C390 1.516 . S
C390 C389 1.516 . S
C390 C391 1.502 . S
C390 C392 1.561 . S
C390 C393 1.526 . S
C391 H375 0.959 . S
C391 H376 0.959 . S
C391 H377 0.961 . S
C391 C390 1.502 . S
C392 H378 0.960 . S
C392 H379 0.961 . S
C392 H380 0.959 . S
C392 C390 1.561 . S
C393 C390 1.526 . S
C393 C394 1.396 . S
C393 C398 1.390 . S
C394 C388 1.465 . S
C394 C393 1.396 . S
C394 C395 1.399 . S
C395 H381 0.929 . S
C395 C394 1.399 . S
C395 C396 1.385 . S
C396 H382 0.931 . S
C396 C395 1.385 . S
C396 C397 1.389 . S
C397 C396 1.389 . S
C397 C398 1.387 . S
C398 H383 0.930 . S
C398 C393 1.390 . S
C398 C397 1.387 . S
H399 C411 0.930 . S
H400 C413 0.930 . S
H401 C414 0.930 . S
H402 C418 0.959 . S
H403 C418 0.959 . S
H404 C418 0.961 . S
H405 C419 0.960 . S
H406 C419 0.961 . S
H407 C419 0.959 . S
H408 C422 0.929 . S
H409 C423 0.931 . S
H410 C425 0.930 . S
C411 H399 0.930 . S
C411 C412 1.399 . S
C411 C416 1.399 . S
C412 C411 1.399 . S
C412 C413 1.376 . S
C413 H400 0.930 . S
C413 C412 1.376 . S
C413 C414 1.388 . S
C414 H401 0.930 . S
C414 C413 1.388 . S
C414 C415 1.390 . S
C415 C414 1.390 . S
C415 C416 1.394 . S
C415 C421 1.465 . S
C416 C411 1.399 . S
C416 C415 1.394 . S
C416 C417 1.516 . S
C417 C416 1.516 . S
C417 C418 1.502 . S
C417 C419 1.561 . S
C417 C420 1.526 . S
C418 H402 0.959 . S
C418 H403 0.959 . S
C418 H404 0.961 . S
C418 C417 1.502 . S
C419 H405 0.960 . S
C419 H406 0.961 . S
C419 H407 0.959 . S
C419 C417 1.561 . S
C420 C417 1.526 . S
C420 C421 1.396 . S
C420 C425 1.390 . S
C421 C415 1.465 . S
C421 C420 1.396 . S
C421 C422 1.399 . S
C422 H408 0.929 . S
C422 C421 1.399 . S
C422 C423 1.385 . S
C423 H409 0.931 . S
C423 C422 1.385 . S
C423 C424 1.389 . S
C424 C423 1.389 . S
C424 C425 1.387 . S
C425 H410 0.930 . S
C425 C420 1.390 . S
C425 C424 1.387 . S
H426 C438 0.930 . S
H427 C440 0.930 . S
H428 C441 0.930 . S
H429 C445 0.959 . S
H430 C445 0.959 . S
H431 C445 0.961 . S
H432 C446 0.960 . S
H433 C446 0.961 . S
H434 C446 0.959 . S
H435 C449 0.929 . S
H436 C450 0.931 . S
H437 C452 0.930 . S
C438 H426 0.930 . S
C438 C439 1.399 . S
C438 C443 1.399 . S
C439 C438 1.399 . S
C439 C440 1.376 . S
C440 H427 0.930 . S
C440 C439 1.376 . S
C440 C441 1.388 . S
C441 H428 0.930 . S
C441 C440 1.388 . S
C441 C442 1.390 . S
C442 C441 1.390 . S
C442 C443 1.394 . S
C442 C448 1.465 . S
C443 C438 1.399 . S
C443 C442 1.394 . S
C443 C444 1.516 . S
C444 C443 1.516 . S
C444 C445 1.502 . S
C444 C446 1.561 . S
C444 C447 1.526 . S
C445 H429 0.959 . S
C445 H430 0.959 . S
C445 H431 0.961 . S
C445 C444 1.502 . S
C446 H432 0.960 . S
C446 H433 0.961 . S
C446 H434 0.959 . S
C446 C444 1.561 . S
C447 C444 1.526 . S
C447 C448 1.396 . S
C447 C452 1.390 . S
C448 C442 1.465 . S
C448 C447 1.396 . S
C448 C449 1.399 . S
C449 H435 0.929 . S
C449 C448 1.399 . S
C449 C450 1.385 . S
C450 H436 0.931 . S
C450 C449 1.385 . S
C450 C451 1.389 . S
C451 C450 1.389 . S
C451 C452 1.387 . S
C452 H437 0.930 . S
C452 C447 1.390 . S
C452 C451 1.387 . S
H453 C465 0.930 . S
H454 C467 0.930 . S
H455 C468 0.930 . S
H456 C472 0.959 . S
H457 C472 0.959 . S
H458 C472 0.961 . S
H459 C473 0.960 . S
H460 C473 0.961 . S
H461 C473 0.959 . S
H462 C476 0.929 . S
H463 C477 0.931 . S
H464 C479 0.930 . S
C465 H453 0.930 . S
C465 C466 1.399 . S
C465 C470 1.399 . S
C466 C465 1.399 . S
C466 C467 1.376 . S
C467 H454 0.930 . S
C467 C466 1.376 . S
C467 C468 1.388 . S
C468 H455 0.930 . S
C468 C467 1.388 . S
C468 C469 1.390 . S
C469 C468 1.390 . S
C469 C470 1.394 . S
C469 C475 1.465 . S
C470 C465 1.399 . S
C470 C469 1.394 . S
C470 C471 1.516 1_556 S
C471 C470 1.516 1_554 S
C471 C472 1.502 . S
C471 C473 1.561 . S
C471 C474 1.526 1_554 S
C472 H456 0.959 . S
C472 H457 0.959 . S
C472 H458 0.961 . S
C472 C471 1.502 . S
C473 H459 0.960 . S
C473 H460 0.961 . S
C473 H461 0.959 . S
C473 C471 1.561 . S
C474 C471 1.526 1_556 S
C474 C475 1.396 . S
C474 C479 1.390 1_556 S
C475 C469 1.465 . S
C475 C474 1.396 . S
C475 C476 1.399 . S
C476 H462 0.929 . S
C476 C475 1.399 . S
C476 C477 1.385 . S
C477 H463 0.931 . S
C477 C476 1.385 . S
C477 C478 1.389 . S
C478 C477 1.389 . S
C478 C479 1.387 1_556 S
C479 H464 0.930 . S
C479 C474 1.390 1_554 S
C479 C478 1.387 1_554 S
H480 C492 0.930 . S
H481 C494 0.930 . S
H482 C495 0.930 . S
H483 C499 0.959 . S
H484 C499 0.959 . S
H485 C499 0.961 . S
H486 C500 0.960 . S
H487 C500 0.961 . S
H488 C500 0.959 . S
H489 C503 0.929 . S
H490 C504 0.931 . S
H491 C506 0.930 . S
C492 H480 0.930 . S
C492 C493 1.399 . S
C492 C497 1.399 . S
C493 C492 1.399 . S
C493 C494 1.376 . S
C494 H481 0.930 . S
C494 C493 1.376 . S
C494 C495 1.388 . S
C495 H482 0.930 . S
C495 C494 1.388 . S
C495 C496 1.390 . S
C496 C495 1.390 . S
C496 C497 1.394 . S
C496 C502 1.465 . S
C497 C492 1.399 . S
C497 C496 1.394 . S
C497 C498 1.516 . S
C498 C497 1.516 . S
C498 C499 1.502 . S
C498 C500 1.561 . S
C498 C501 1.526 . S
C499 H483 0.959 . S
C499 H484 0.959 . S
C499 H485 0.961 . S
C499 C498 1.502 . S
C500 H486 0.960 . S
C500 H487 0.961 . S
C500 H488 0.959 . S
C500 C498 1.561 . S
C501 C498 1.526 . S
C501 C502 1.396 . S
C501 C506 1.390 . S
C502 C496 1.465 . S
C502 C501 1.396 . S
C502 C503 1.399 . S
C503 H489 0.929 . S
C503 C502 1.399 . S
C503 C504 1.385 . S
C504 H490 0.931 . S
C504 C503 1.385 . S
C504 C505 1.389 . S
C505 C504 1.389 . S
C505 C506 1.387 . S
C506 H491 0.930 . S
C506 C501 1.390 . S
C506 C505 1.387 . S
H507 C519 0.930 . S
H508 C521 0.930 . S
H509 C522 0.930 . S
H510 C526 0.959 . S
H511 C526 0.959 1_554 S
H512 C526 0.961 . S
H513 C527 0.960 . S
H514 C527 0.961 1_554 S
H515 C527 0.959 . S
H516 C530 0.929 . S
H517 C531 0.931 . S
H518 C533 0.930 . S
C519 H507 0.930 . S
C519 C520 1.399 . S
C519 C524 1.399 . S
C520 C519 1.399 . S
C520 C521 1.376 . S
C521 H508 0.930 . S
C521 C520 1.376 . S
C521 C522 1.388 . S
C522 H509 0.930 . S
C522 C521 1.388 . S
C522 C523 1.390 . S
C523 C522 1.390 . S
C523 C524 1.394 . S
C523 C529 1.465 . S
C524 C519 1.399 . S
C524 C523 1.394 . S
C524 C525 1.516 . S
C525 C524 1.516 . S
C525 C526 1.502 . S
C525 C527 1.561 . S
C525 C528 1.526 1_556 S
C526 H510 0.959 . S
C526 H511 0.959 1_556 S
C526 H512 0.961 . S
C526 C525 1.502 . S
C527 H513 0.960 . S
C527 H514 0.961 1_556 S
C527 H515 0.959 . S
C527 C525 1.561 . S
C528 C525 1.526 1_554 S
C528 C529 1.396 1_554 S
C528 C533 1.390 . S
C529 C523 1.465 . S
C529 C528 1.396 1_556 S
C529 C530 1.399 . S
C530 H516 0.929 . S
C530 C529 1.399 . S
C530 C531 1.385 1_556 S
C531 H517 0.931 . S
C531 C530 1.385 1_554 S
C531 C532 1.389 . S
C532 C531 1.389 . S
C532 C533 1.387 . S
C533 H518 0.930 . S
C533 C528 1.390 . S
C533 C532 1.387 . S
H534 C546 0.930 . S
H535 C548 0.930 1_556 S
H536 C549 0.930 . S
H537 C553 0.959 . S
H538 C553 0.959 . S
H539 C553 0.961 . S
H540 C554 0.960 . S
H541 C554 0.961 . S
H542 C554 0.959 . S
H543 C557 0.929 . S
H544 C558 0.931 . S
H545 C560 0.930 . S
C546 H534 0.930 . S
C546 C547 1.399 . S
C546 C551 1.399 . S
C547 C546 1.399 . S
C547 C548 1.376 . S
C548 H535 0.930 1_554 S
C548 C547 1.376 . S
C548 C549 1.388 . S
C549 H536 0.930 . S
C549 C548 1.388 . S
C549 C550 1.390 . S
C550 C549 1.390 . S
C550 C551 1.394 . S
C550 C556 1.465 . S
C551 C546 1.399 . S
C551 C550 1.394 . S
C551 C552 1.516 . S
C552 C551 1.516 . S
C552 C553 1.502 . S
C552 C554 1.561 . S
C552 C555 1.526 . S
C553 H537 0.959 . S
C553 H538 0.959 . S
C553 H539 0.961 . S
C553 C552 1.502 . S
C554 H540 0.960 . S
C554 H541 0.961 . S
C554 H542 0.959 . S
C554 C552 1.561 . S
C555 C552 1.526 . S
C555 C556 1.396 . S
C555 C560 1.390 . S
C556 C550 1.465 . S
C556 C555 1.396 . S
C556 C557 1.399 . S
C557 H543 0.929 . S
C557 C556 1.399 . S
C557 C558 1.385 . S
C558 H544 0.931 . S
C558 C557 1.385 . S
C558 C559 1.389 . S
C559 C558 1.389 . S
C559 C560 1.387 . S
C560 H545 0.930 . S
C560 C555 1.390 . S
C560 C559 1.387 . S
H561 C573 0.930 . S
H562 C575 0.930 . S
H563 C576 0.930 . S
H564 C580 0.959 . S
H565 C580 0.959 . S
H566 C580 0.961 . S
H567 C581 0.960 . S
H568 C581 0.961 . S
H569 C581 0.959 . S
H570 C584 0.929 . S
H571 C585 0.931 . S
H572 C587 0.930 . S
C573 H561 0.930 . S
C573 C574 1.399 . S
C573 C578 1.399 . S
C574 C573 1.399 . S
C574 C575 1.376 . S
C575 H562 0.930 . S
C575 C574 1.376 . S
C575 C576 1.388 . S
C576 H563 0.930 . S
C576 C575 1.388 . S
C576 C577 1.390 . S
C577 C576 1.390 . S
C577 C578 1.394 . S
C577 C583 1.465 . S
C578 C573 1.399 . S
C578 C577 1.394 . S
C578 C579 1.516 . S
C579 C578 1.516 . S
C579 C580 1.502 . S
C579 C581 1.561 . S
C579 C582 1.526 . S
C580 H564 0.959 . S
C580 H565 0.959 . S
C580 H566 0.961 . S
C580 C579 1.502 . S
C581 H567 0.960 . S
C581 H568 0.961 . S
C581 H569 0.959 . S
C581 C579 1.561 . S
C582 C579 1.526 . S
C582 C583 1.396 . S
C582 C587 1.390 . S
C583 C577 1.465 . S
C583 C582 1.396 . S
C583 C584 1.399 . S
C584 H570 0.929 . S
C584 C583 1.399 . S
C584 C585 1.385 . S
C585 H571 0.931 . S
C585 C584 1.385 . S
C585 C586 1.389 . S
C586 C585 1.389 . S
C586 C587 1.387 . S
C587 H572 0.930 . S
C587 C582 1.390 . S
C587 C586 1.387 . S
H588 C600 0.930 . S
H589 C602 0.930 . S
H590 C603 0.930 . S
H591 C607 0.959 . S
H592 C607 0.959 . S
H593 C607 0.961 . S
H594 C608 0.960 . S
H595 C608 0.961 . S
H596 C608 0.959 . S
H597 C611 0.929 . S
H598 C612 0.931 . S
H599 C614 0.930 . S
C600 H588 0.930 . S
C600 C601 1.399 . S
C600 C605 1.399 . S
C601 C600 1.399 . S
C601 C602 1.376 . S
C602 H589 0.930 . S
C602 C601 1.376 . S
C602 C603 1.388 . S
C603 H590 0.930 . S
C603 C602 1.388 . S
C603 C604 1.390 . S
C604 C603 1.390 . S
C604 C605 1.394 . S
C604 C610 1.465 . S
C605 C600 1.399 . S
C605 C604 1.394 . S
C605 C606 1.516 . S
C606 C605 1.516 . S
C606 C607 1.502 . S
C606 C608 1.561 . S
C606 C609 1.526 . S
C607 H591 0.959 . S
C607 H592 0.959 . S
C607 H593 0.961 . S
C607 C606 1.502 . S
C608 H594 0.960 . S
C608 H595 0.961 . S
C608 H596 0.959 . S
C608 C606 1.561 . S
C609 C606 1.526 . S
C609 C610 1.396 . S
C609 C614 1.390 . S
C610 C604 1.465 . S
C610 C609 1.396 . S
C610 C611 1.399 . S
C611 H597 0.929 . S
C611 C610 1.399 . S
C611 C612 1.385 . S
C612 H598 0.931 . S
C612 C611 1.385 . S
C612 C613 1.389 . S
C613 C612 1.389 . S
C613 C614 1.387 . S
C614 H599 0.930 . S
C614 C609 1.390 . S
C614 C613 1.387 . S
H615 C627 0.930 . S
H616 C629 0.930 . S
H617 C630 0.930 . S
H618 C634 0.959 . S
H619 C634 0.959 . S
H620 C634 0.961 . S
H621 C635 0.960 . S
H622 C635 0.961 . S
H623 C635 0.959 . S
H624 C638 0.929 . S
H625 C639 0.931 . S
H626 C641 0.930 . S
C627 H615 0.930 . S
C627 C628 1.399 . S
C627 C632 1.399 . S
C628 C627 1.399 . S
C628 C629 1.376 . S
C629 H616 0.930 . S
C629 C628 1.376 . S
C629 C630 1.388 . S
C630 H617 0.930 . S
C630 C629 1.388 . S
C630 C631 1.390 . S
C631 C630 1.390 . S
C631 C632 1.394 . S
C631 C637 1.465 . S
C632 C627 1.399 . S
C632 C631 1.394 . S
C632 C633 1.516 . S
C633 C632 1.516 . S
C633 C634 1.502 . S
C633 C635 1.561 . S
C633 C636 1.526 . S
C634 H618 0.959 . S
C634 H619 0.959 . S
C634 H620 0.961 . S
C634 C633 1.502 . S
C635 H621 0.960 . S
C635 H622 0.961 . S
C635 H623 0.959 . S
C635 C633 1.561 . S
C636 C633 1.526 . S
C636 C637 1.396 . S
C636 C641 1.390 . S
C637 C631 1.465 . S
C637 C636 1.396 . S
C637 C638 1.399 . S
C638 H624 0.929 . S
C638 C637 1.399 . S
C638 C639 1.385 . S
C639 H625 0.931 . S
C639 C638 1.385 . S
C639 C640 1.389 . S
C640 C639 1.389 . S
C640 C641 1.387 . S
C641 H626 0.930 . S
C641 C636 1.390 . S
C641 C640 1.387 . S
H642 C654 0.930 1_556 S
H643 C656 0.930 . S
H644 C657 0.930 . S
H645 C661 0.959 . S
H646 C661 0.959 . S
H647 C661 0.961 1_545 S
H648 C662 0.960 1_545 S
H649 C662 0.961 . S
H650 C662 0.959 . S
H651 C665 0.929 . S
H652 C666 0.931 . S
H653 C668 0.930 1_556 S
C654 H642 0.930 1_554 S
C654 C655 1.399 . S
C654 C659 1.399 . S
C655 C654 1.399 . S
C655 C656 1.376 . S
C656 H643 0.930 . S
C656 C655 1.376 . S
C656 C657 1.388 . S
C657 H644 0.930 . S
C657 C656 1.388 . S
C657 C658 1.390 . S
C658 C657 1.390 . S
C658 C659 1.394 . S
C658 C664 1.465 1_545 S
C659 C654 1.399 . S
C659 C658 1.394 . S
C659 C660 1.489 1_544 S
C660 C659 1.489 1_566 S
C660 C661 1.485 . S
C660 C662 1.579 . S
C660 C663 1.557 1_556 S
C661 H645 0.959 . S
C661 H646 0.959 . S
C661 H647 0.961 1_565 S
C661 C660 1.485 . S
C662 H648 0.960 1_565 S
C662 H649 0.961 . S
C662 H650 0.959 . S
C662 C660 1.579 . S
C663 C660 1.557 1_554 S
C663 C664 1.396 . S
C663 C668 1.390 . S
C664 C658 1.465 1_565 S
C664 C663 1.396 . S
C664 C665 1.399 . S
C665 H651 0.929 . S
C665 C664 1.399 . S
C665 C666 1.385 . S
C666 H652 0.931 . S
C666 C665 1.385 . S
C666 C667 1.389 . S
C667 C666 1.389 . S
C667 C668 1.387 . S
C668 H653 0.930 1_554 S
C668 C663 1.390 . S
C668 C667 1.387 . S
H669 C681 0.930 . S
H670 C683 0.930 . S
H671 C684 0.930 . S
H672 C688 0.959 . S
H673 C688 0.959 . S
H674 C688 0.961 . S
H675 C689 0.960 . S
H676 C689 0.961 . S
H677 C689 0.959 . S
H678 C692 0.929 . S
H679 C693 0.931 . S
H680 C695 0.930 . S
C681 H669 0.930 . S
C681 C682 1.399 . S
C681 C686 1.399 . S
C682 C681 1.399 . S
C682 C683 1.376 . S
C683 H670 0.930 . S
C683 C682 1.376 . S
C683 C684 1.388 . S
C684 H671 0.930 . S
C684 C683 1.388 . S
C684 C685 1.390 . S
C685 C684 1.390 . S
C685 C686 1.394 . S
C685 C691 1.465 . S
C686 C681 1.399 . S
C686 C685 1.394 . S
C686 C687 1.516 . S
C687 C686 1.516 . S
C687 C688 1.502 . S
C687 C689 1.561 . S
C687 C690 1.526 . S
C688 H672 0.959 . S
C688 H673 0.959 . S
C688 H674 0.961 . S
C688 C687 1.502 . S
C689 H675 0.960 . S
C689 H676 0.961 . S
C689 H677 0.959 . S
C689 C687 1.561 . S
C690 C687 1.526 . S
C690 C691 1.396 . S
C690 C695 1.390 . S
C691 C685 1.465 . S
C691 C690 1.396 . S
C691 C692 1.399 . S
C692 H678 0.929 . S
C692 C691 1.399 . S
C692 C693 1.385 . S
C693 H679 0.931 . S
C693 C692 1.385 . S
C693 C694 1.389 . S
C694 C693 1.389 . S
C694 C695 1.387 . S
C695 H680 0.930 . S
C695 C690 1.390 . S
C695 C694 1.387 . S
H696 C708 0.930 . S
H697 C710 0.930 . S
H698 C711 0.930 . S
H699 C715 0.951 . S
H700 C715 0.981 . S
H701 C715 0.933 1_455 S
H702 C716 0.925 1_455 S
H703 C716 0.988 . S
H704 C716 0.984 . S
H705 C719 0.929 . S
H706 C720 0.931 . S
H707 C722 0.930 . S
C708 H696 0.930 . S
C708 C709 1.399 . S
C708 C713 1.399 . S
C709 C708 1.399 . S
C709 C710 1.376 . S
C710 H697 0.930 . S
C710 C709 1.376 . S
C710 C711 1.388 . S
C711 H698 0.930 . S
C711 C710 1.388 . S
C711 C712 1.390 . S
C712 C711 1.390 . S
C712 C713 1.394 . S
C712 C718 1.465 1_455 S
C713 C708 1.399 . S
C713 C712 1.394 . S
C713 C714 1.522 . S
C714 C713 1.522 . S
C714 C715 1.522 1_455 S
C714 C716 1.543 1_455 S
C714 C717 1.518 1_455 S
C715 H699 0.951 . S
C715 H700 0.981 . S
C715 H701 0.933 1_655 S
C715 C714 1.522 1_655 S
C716 H702 0.925 1_655 S
C716 H703 0.988 . S
C716 H704 0.984 . S
C716 C714 1.543 1_655 S
C717 C714 1.518 1_655 S
C717 C718 1.396 . S
C717 C722 1.390 . S
C718 C712 1.465 1_655 S
C718 C717 1.396 . S
C718 C719 1.399 . S
C719 H705 0.929 . S
C719 C718 1.399 . S
C719 C720 1.385 . S
C720 H706 0.931 . S
C720 C719 1.385 . S
C720 C721 1.389 . S
C721 C720 1.389 . S
C721 C722 1.387 . S
C722 H707 0.930 . S
C722 C717 1.390 . S
C722 C721 1.387 . S
H723 C735 0.930 . S
H724 C737 0.930 . S
H725 C738 0.930 . S
H726 C742 0.959 . S
H727 C742 0.959 . S
H728 C742 0.961 1_565 S
H729 C743 0.960 1_565 S
H730 C743 0.961 . S
H731 C743 0.959 . S
H732 C746 0.929 . S
H733 C747 0.931 . S
H734 C749 0.930 . S
C735 H723 0.930 . S
C735 C736 1.399 . S
C735 C740 1.399 . S
C736 C735 1.399 . S
C736 C737 1.376 . S
C737 H724 0.930 . S
C737 C736 1.376 . S
C737 C738 1.388 . S
C738 H725 0.930 . S
C738 C737 1.388 . S
C738 C739 1.390 . S
C739 C738 1.390 . S
C739 C740 1.394 . S
C739 C745 1.465 1_565 S
C740 C735 1.399 . S
C740 C739 1.394 . S
C740 C741 1.516 1_565 S
C741 C740 1.516 1_545 S
C741 C742 1.502 . S
C741 C743 1.561 . S
C741 C744 1.526 . S
C742 H726 0.959 . S
C742 H727 0.959 . S
C742 H728 0.961 1_545 S
C742 C741 1.502 . S
C743 H729 0.960 1_545 S
C743 H730 0.961 . S
C743 H731 0.959 . S
C743 C741 1.561 . S
C744 C741 1.526 . S
C744 C745 1.396 . S
C744 C749 1.390 . S
C745 C739 1.465 1_545 S
C745 C744 1.396 . S
C745 C746 1.399 . S
C746 H732 0.929 . S
C746 C745 1.399 . S
C746 C747 1.385 . S
C747 H733 0.931 . S
C747 C746 1.385 . S
C747 C748 1.389 . S
C748 C747 1.389 . S
C748 C749 1.387 . S
C749 H734 0.930 . S
C749 C744 1.390 . S
C749 C748 1.387 . S
H750 C762 0.930 . S
H751 C764 0.930 . S
H752 C765 0.930 . S
H753 C769 0.959 . S
H754 C769 0.959 . S
H755 C769 0.961 . S
H756 C770 0.960 . S
H757 C770 0.961 . S
H758 C770 0.959 . S
H759 C773 0.929 . S
H760 C774 0.931 . S
H761 C776 0.930 . S
C762 H750 0.930 . S
C762 C763 1.399 . S
C762 C767 1.399 . S
C763 C762 1.399 . S
C763 C764 1.376 . S
C764 H751 0.930 . S
C764 C763 1.376 . S
C764 C765 1.388 . S
C765 H752 0.930 . S
C765 C764 1.388 . S
C765 C766 1.390 . S
C766 C765 1.390 . S
C766 C767 1.394 . S
C766 C772 1.465 . S
C767 C762 1.399 . S
C767 C766 1.394 . S
C767 C768 1.516 . S
C768 C767 1.516 . S
C768 C769 1.502 . S
C768 C770 1.561 . S
C768 C771 1.526 . S
C769 H753 0.959 . S
C769 H754 0.959 . S
C769 H755 0.961 . S
C769 C768 1.502 . S
C770 H756 0.960 . S
C770 H757 0.961 . S
C770 H758 0.959 . S
C770 C768 1.561 . S
C771 C768 1.526 . S
C771 C772 1.396 . S
C771 C776 1.390 . S
C772 C766 1.465 . S
C772 C771 1.396 . S
C772 C773 1.399 . S
C773 H759 0.929 . S
C773 C772 1.399 . S
C773 C774 1.385 . S
C774 H760 0.931 . S
C774 C773 1.385 . S
C774 C775 1.389 . S
C775 C774 1.389 . S
C775 C776 1.387 . S
C776 H761 0.930 . S
C776 C771 1.390 . S
C776 C775 1.387 . S
H777 C789 0.930 . S
H778 C791 0.930 . S
H779 C792 0.930 . S
H780 C796 0.950 . S
H781 C796 0.959 1_655 S
H782 C796 0.961 . S
H783 C797 0.960 . S
H784 C797 0.961 1_655 S
H785 C797 0.959 . S
H786 C800 0.929 . S
H787 C801 0.931 . S
H788 C803 0.930 . S
C789 H777 0.930 . S
C789 C790 1.399 . S
C789 C794 1.399 . S
C790 C789 1.399 . S
C790 C791 1.376 . S
C791 H778 0.930 . S
C791 C790 1.376 . S
C791 C792 1.388 . S
C792 H779 0.930 . S
C792 C791 1.388 . S
C792 C793 1.390 . S
C793 C792 1.390 . S
C793 C794 1.394 . S
C793 C799 1.465 1_455 S
C794 C789 1.399 . S
C794 C793 1.394 . S
C794 C795 1.516 . S
C795 C794 1.516 . S
C795 C796 1.502 . S
C795 C797 1.561 . S
C795 C798 1.526 1_455 S
C796 H780 0.950 . S
C796 H781 0.959 1_455 S
C796 H782 0.961 . S
C796 C795 1.502 . S
C797 H783 0.960 . S
C797 H784 0.961 1_455 S
C797 H785 0.959 . S
C797 C795 1.561 . S
C798 C795 1.526 1_655 S
C798 C799 1.396 . S
C798 C803 1.390 . S
C799 C793 1.465 1_655 S
C799 C798 1.396 . S
C799 C800 1.399 . S
C800 H786 0.929 . S
C800 C799 1.399 . S
C800 C801 1.385 . S
C801 H787 0.931 . S
C801 C800 1.385 . S
C801 C802 1.389 . S
C802 C801 1.389 . S
C802 C803 1.387 . S
C803 H788 0.930 . S
C803 C798 1.390 . S
C803 C802 1.387 . S
C169 C3 1.115 . S
C181 C133 1.119 . S
C196 C16 1.137 . S
C208 C148 1.121 . S
C223 C83 1.138 . S
C235 C29 1.122 . S
C250 C42 1.144 . S
C262 C96 1.132 . S
C277 C109 1.137 . S
C289 C55 1.144 . S
C304 C122 1.142 . S
C316 C68 1.128 1_554 S
C331 C107 1.359 . S
C343 C5 1.345 . S
C358 C18 1.357 . S
C370 C120 1.339 . S
C385 C135 1.329 . S
C397 C31 1.353 . S
C412 C44 1.339 . S
C424 C146 1.324 . S
C439 C57 1.324 . S
C451 C81 1.346 . S
C466 C70 1.343 . S
C478 C94 1.324 1_556 S
C493 C140 1.709 . S
C505 C10 1.709 . S
C520 C147 1.701 . S
C532 C23 1.701 . S
C547 C82 1.709 1_554 S
C559 C36 1.709 . S
C574 C49 1.696 . S
C586 C95 1.697 . S
C601 C62 1.694 . S
C613 C108 1.694 . S
C628 C121 1.695 . S
C640 C75 1.695 . S
C655 C4 1.404 . S
C667 C101 1.426 . S
C682 C114 1.432 . S
C694 C17 1.431 . S
C709 C127 1.404 . S
C721 C30 1.423 . S
C736 C43 1.404 . S
C748 C134 1.426 . S
C763 C56 1.437 . S
C775 C153 1.417 . S
C790 C69 1.437 . S
C802 C88 1.417 . S
