# Generated by pormake.
# Topology cdl, (4)-cn, num edge types: 1
# Building blocks:
#     Node 0, Type 0, BuildingBlock: MUDLON_clean_sbu_0, # of connection points: 4
#     Node 1, Type 0, BuildingBlock: MUDLON_clean_sbu_0, # of connection points: 4
#     Node 2, Type 0, BuildingBlock: MUDLON_clean_sbu_0, # of connection points: 4
#     Node 3, Type 0, BuildingBlock: MUDLON_clean_sbu_0, # of connection points: 4
#     Edge 4, Type (0, 0), BuildingBlock: MIFKUJ_clean_linker_0, # of connection points: 2
#     Edge 5, Type (0, 0), BuildingBlock: MIFKUJ_clean_linker_0, # of connection points: 2
#     Edge 6, Type (0, 0), BuildingBlock: MIFKUJ_clean_linker_0, # of connection points: 2
#     Edge 7, Type (0, 0), BuildingBlock: MIFKUJ_clean_linker_0, # of connection points: 2
#     Edge 8, Type (0, 0), BuildingBlock: MIFKUJ_clean_linker_0, # of connection points: 2
#     Edge 9, Type (0, 0), BuildingBlock: MIFKUJ_clean_linker_0, # of connection points: 2
#     Edge 10, Type (0, 0), BuildingBlock: MIFKUJ_clean_linker_0, # of connection points: 2
#     Edge 11, Type (0, 0), BuildingBlock: MIFKUJ_clean_linker_0, # of connection points: 2
# Relax obj value: 0.001
# Max RMSD: 0.021
# Mean RMSD: 0.019
data_MOF--net-cdl--node1-MUDLON_clean_sbu_0--edge1-MIFKUJ_clean_linker_0
_symmetry_space_group_name_H-M    P1
_symmetry_Int_Tables_number       1
_symmetry_cell_setting            triclinic
loop_
_symmetry_equiv_pos_as_xyz
'x, y, z'
_cell_length_a     19.7606
_cell_length_b     19.766878
_cell_length_c     77.867191
_cell_angle_alpha  90.253869
_cell_angle_beta   91.031577
_cell_angle_gamma 89.317073
loop_
_atom_site_label
_atom_site_type_symbol
_atom_site_fract_x
_atom_site_fract_y
_atom_site_fract_z
_atom_type_partial_charge
Mg0 Mg 0.15321 0.97713 0.14184 0.0
C1 C 0.20683 0.11532 0.15455 0.0
O2 O 0.1766 0.09717 0.16864 0.0
C3 C 0.20212 0.83547 0.13098 0.0
O4 O 0.16838 0.85238 0.11693 0.0
C5 C 0.10523 0.02424 0.1066 0.0
O6 O 0.14072 0.07655 0.11171 0.0
O7 O 0.09631 0.97614 0.11716 0.0
O8 O 0.21019 0.07326 0.14209 0.0
O9 O 0.09566 0.97632 0.16581 0.0
C10 C 0.1321 0.95659 0.17857 0.0
O11 O 0.19502 0.93821 0.17569 0.0
O12 O 0.20945 0.87962 0.14285 0.0
Mg13 Mg 0.04397 0.07926 0.64303 0.0
C14 C 0.18054 0.13399 0.63158 0.0
O15 O 0.1583 0.10964 0.61683 0.0
C16 C 0.90544 0.13649 0.65313 0.0
O17 O 0.92517 0.11099 0.66796 0.0
C18 C 0.99236 1.00533 0.61108 0.0
O19 O 0.93422 0.01859 0.61838 0.0
O20 O 0.04688 0.01939 0.61924 0.0
O21 O 0.14116 0.13381 0.64439 0.0
O22 O 0.03826 0.02298 0.66725 0.0
C23 C 0.08897 0.0187 0.67755 0.0
O24 O 0.1479 0.04046 0.67251 0.0
O25 O 0.94725 0.13657 0.64082 0.0
Mg26 Mg 0.89773 0.97346 0.892 0.0
C27 C 0.87604 0.11839 0.88623 0.0
O28 O 0.93248 0.10256 0.87843 0.0
C29 C 0.87056 0.83116 0.8863 0.0
O30 O 0.93012 0.84277 0.87978 0.0
C31 C 1.00006 0.9679 0.86051 0.0
O32 O 0.05107 0.96396 0.87152 0.0
O33 O 0.93985 0.97181 0.866 0.0
O34 O 0.84445 0.0714 0.89372 0.0
O35 O 0.96391 0.96516 0.91488 0.0
C36 C 0.97912 0.01645 0.92407 0.0
O37 O 0.96365 0.07715 0.91833 0.0
O38 O 0.8383 0.88065 0.89295 0.0
Mg39 Mg 0.99854 0.08669 0.39413 0.0
C40 C 0.14281 0.10475 0.40167 0.0
O41 O 0.12889 0.04208 0.40575 0.0
C42 C 0.85275 0.10567 0.38915 0.0
O43 O 0.86682 0.04358 0.38414 0.0
C44 C 0.05197 0.03124 0.35991 0.0
O45 O 0.10952 0.05198 0.36661 0.0
O46 O 0.9989 0.03468 0.36895 0.0
O47 O 0.09439 0.14251 0.39615 0.0
O48 O 0.99988 0.02476 0.41775 0.0
C49 C 0.94975 0.0224 0.42781 0.0
O50 O 0.89204 0.0505 0.42298 0.0
O51 O 0.90171 0.14299 0.39405 0.0
H52 H 0.23011 0.20916 0.17975 0.0
H53 H 0.24562 0.33077 0.17651 0.0
H54 H 0.23846 0.30787 0.12139 0.0
H55 H 0.2258 0.18545 0.12459 0.0
H56 H 0.32476 0.40203 0.12918 0.0
H57 H 0.09642 0.35962 0.14593 0.0
H58 H 1.00717 0.31343 0.16409 0.0
H59 H 0.08151 0.42932 0.20707 0.0
H60 H 0.17175 0.47558 0.1892 0.0
H61 H 0.20794 0.73407 0.10706 0.0
H62 H 0.22471 0.61303 0.11194 0.0
H63 H 0.25494 0.6506 0.16611 0.0
H64 H 0.2381 0.77232 0.1613 0.0
H65 H 0.16291 0.55067 0.16 0.0
H66 H 0.3866 0.60024 0.14153 0.0
H67 H 0.47211 0.64702 0.12236 0.0
H68 H 0.40151 0.51873 0.08133 0.0
H69 H 0.3149 0.47182 0.10019 0.0
C70 C 0.23292 0.22978 0.16692 0.0
C71 C 0.22622 0.18741 0.15243 0.0
C72 C 0.24124 0.29964 0.16507 0.0
C73 C 0.24129 0.32935 0.14869 0.0
C74 C 0.23813 0.28665 0.13419 0.0
C75 C 0.23094 0.21645 0.13603 0.0
C76 C 0.24168 0.40479 0.14671 0.0
C77 C 0.28887 0.43434 0.1358 0.0
C78 C 0.1958 0.44776 0.15555 0.0
C79 C 0.14124 0.4205 0.16628 0.0
C80 C 0.09397 0.37492 0.15928 0.0
C81 C 0.04319 0.34877 0.16952 0.0
C82 C 0.0388 0.36827 0.18674 0.0
C83 C 0.08505 0.41417 0.19373 0.0
C84 C 0.13598 0.44041 0.18356 0.0
C85 C 0.21924 0.71688 0.12 0.0
C86 C 0.22172 0.7632 0.13378 0.0
C87 C 0.22902 0.64744 0.12276 0.0
C88 C 0.24141 0.62235 0.13939 0.0
C89 C 0.24554 0.66858 0.15315 0.0
C90 C 0.23633 0.73829 0.15037 0.0
C91 C 0.24581 0.54775 0.14246 0.0
C92 C 0.19921 0.51836 0.15351 0.0
C93 C 0.29165 0.50502 0.1336 0.0
C94 C 0.34388 0.53291 0.12224 0.0
C95 C 0.38895 0.58236 0.12838 0.0
C96 C 0.43769 0.60884 0.11758 0.0
C97 C 0.44215 0.58596 0.10063 0.0
C98 C 0.39797 0.53643 0.09446 0.0
C99 C 0.3491 0.50982 0.10521 0.0
H100 H 0.47991 0.60653 0.09228 0.0
H101 H 0.99947 0.34794 0.19464 0.0
H102 H 0.27256 0.15232 0.60628 0.0
H103 H 0.39469 0.16662 0.60935 0.0
H104 H 0.37759 0.16696 0.66448 0.0
H105 H 0.25462 0.15414 0.66147 0.0
H106 H 0.47077 0.25577 0.65525 0.0
H107 H 0.42664 0.02315 0.64185 0.0
H108 H 0.37868 0.92825 0.62517 0.0
H109 H 0.48953 0.9888 0.58099 0.0
H110 H 0.53747 0.08468 0.59735 0.0
H111 H 0.80816 0.15298 0.67734 0.0
H112 H 0.68628 0.16681 0.67285 0.0
H113 H 0.71404 0.17271 0.61808 0.0
H114 H 0.83663 0.15825 0.62249 0.0
H115 H 0.61608 0.08562 0.62619 0.0
H116 H 0.66603 0.31511 0.64071 0.0
H117 H 0.71465 0.40787 0.65804 0.0
H118 H 0.59417 0.3508 0.70085 0.0
H119 H 0.54547 0.25706 0.68385 0.0
C120 C 0.29449 0.15627 0.61908 0.0
C121 C 0.25351 0.15159 0.63363 0.0
C122 C 0.36466 0.16406 0.62083 0.0
C123 C 0.39605 0.16635 0.63716 0.0
C124 C 0.35492 0.16498 0.65172 0.0
C125 C 0.28444 0.15769 0.64999 0.0
C126 C 0.47168 0.16741 0.63899 0.0
C127 C 0.50244 0.21811 0.64903 0.0
C128 C 0.51364 0.11922 0.63062 0.0
C129 C 0.48507 0.0615 0.62077 0.0
C130 C 0.44039 0.01653 0.62854 0.0
C131 C 0.41327 0.96252 0.61915 0.0
C132 C 0.43089 0.95262 0.60202 0.0
C133 C 0.47584 0.99661 0.59425 0.0
C134 C 0.50303 0.05076 0.60358 0.0
C135 C 0.78866 0.1583 0.66432 0.0
C136 C 0.83255 0.15459 0.65028 0.0
C137 C 0.71868 0.16646 0.66177 0.0
C138 C 0.69051 0.17126 0.64512 0.0
C139 C 0.73433 0.16925 0.63107 0.0
C140 C 0.80458 0.16144 0.63361 0.0
C141 C 0.61527 0.17399 0.64243 0.0
C142 C 0.58452 0.1237 0.63228 0.0
C143 C 0.57346 0.22227 0.65079 0.0
C144 C 0.60253 0.27868 0.66105 0.0
C145 C 0.65029 0.32199 0.65387 0.0
C146 C 0.67779 0.37481 0.66362 0.0
C147 C 0.65763 0.38512 0.68055 0.0
C148 C 0.60978 0.34271 0.68774 0.0
C149 C 0.58216 0.28978 0.67805 0.0
H150 H 0.67898 0.42605 0.68808 0.0
H151 H 0.40985 0.91076 0.59477 0.0
H152 H 0.7758 0.17794 0.90586 0.0
H153 H 0.75199 0.30007 0.90904 0.0
H154 H 0.90566 0.34301 0.87215 0.0
H155 H 0.92928 0.22295 0.86886 0.0
H156 H 0.9224 0.41368 0.90264 0.0
H157 H 0.74307 0.35874 0.86128 0.0
H158 H 0.63956 0.29984 0.85178 0.0
H159 H 0.53149 0.38573 0.89414 0.0
H160 H 0.63473 0.44447 0.90402 0.0
H161 H 0.91273 0.72679 0.86653 0.0
H162 H 0.88969 0.60715 0.86997 0.0
H163 H 0.75201 0.65357 0.9108 0.0
H164 H 0.77497 0.77519 0.90739 0.0
H165 H 0.71272 0.53946 0.88593 0.0
H166 H 0.88989 0.6078 0.92474 0.0
H167 H 0.99357 0.66874 0.93314 0.0
H168 H 0.10598 0.5568 0.89559 0.0
H169 H 1.0027 0.49597 0.88676 0.0
C170 C 0.80375 0.21353 0.89828 0.0
C171 C 0.85489 0.19063 0.88723 0.0
C172 C 0.79013 0.2832 0.90012 0.0
C173 C 0.8275 0.33065 0.89093 0.0
C174 C 0.87665 0.30744 0.87949 0.0
C175 C 0.89003 0.23851 0.87763 0.0
C176 C 0.81929 0.40481 0.89357 0.0
C177 C 0.87637 0.44105 0.89907 0.0
C178 C 0.75863 0.44053 0.88947 0.0
C179 C 0.69679 0.40519 0.88352 0.0
C180 C 0.69742 0.3645 0.86867 0.0
C181 C 0.63876 0.33128 0.86319 0.0
C182 C 0.57905 0.33882 0.87238 0.0
C183 C 0.57782 0.37979 0.88705 0.0
C184 C 0.63637 0.41307 0.89259 0.0
C185 C 0.87667 0.71201 0.87609 0.0
C186 C 0.84638 0.76049 0.88685 0.0
C187 C 0.86343 0.64347 0.878 0.0
C188 C 0.81986 0.62144 0.89077 0.0
C189 C 0.78584 0.66968 0.90086 0.0
C190 C 0.79903 0.73899 0.89891 0.0
C191 C 0.81668 0.54784 0.89435 0.0
C192 C 0.75792 0.51186 0.89002 0.0
C193 C 0.87581 0.5119 0.89959 0.0
C194 C 0.93842 0.54753 0.90504 0.0
C195 C 0.93662 0.59646 0.9182 0.0
C196 C 0.99533 0.63096 0.92305 0.0
C197 C 0.05631 0.61669 0.91489 0.0
C198 C 0.05872 0.56778 0.9019 0.0
C199 C 1.00012 0.5332 0.89699 0.0
H200 H 0.1017 0.64348 0.91866 0.0
H201 H 0.53368 0.31309 0.86812 0.0
H202 H 0.25218 0.02918 0.41134 0.0
H203 H 0.37057 0.05847 0.41089 0.0
H204 H 0.31783 0.25864 0.39288 0.0
H205 H 0.19708 0.22846 0.39279 0.0
H206 H 0.42328 0.21033 0.3756 0.0
H207 H 0.37892 0.23417 0.43458 0.0
H208 H 0.33282 0.20604 0.46284 0.0
H209 H 0.45558 0.02546 0.46471 0.0
H210 H 0.50172 0.05188 0.43635 0.0
H211 H 0.79649 0.23449 0.39142 0.0
H212 H 0.67557 0.26392 0.39493 0.0
H213 H 0.62726 0.05195 0.39576 0.0
H214 H 0.7458 0.02244 0.39183 0.0
H215 H 0.57441 0.14475 0.42448 0.0
H216 H 0.59358 0.11524 0.36167 0.0
H217 H 0.63961 0.14779 0.33369 0.0
H218 H 0.56504 0.3508 0.34073 0.0
H219 H 0.51939 0.31953 0.36888 0.0
C220 C 0.2651 0.07979 0.40738 0.0
C221 C 0.21466 0.12657 0.40218 0.0
C222 C 0.33332 0.09668 0.40725 0.0
C223 C 0.35356 0.16134 0.40223 0.0
C224 C 0.30355 0.20858 0.39696 0.0
C225 C 0.23457 0.19139 0.39697 0.0
C226 C 0.42735 0.17683 0.40193 0.0
C227 C 0.45608 0.1978 0.38647 0.0
C228 C 0.47079 0.16108 0.4161 0.0
C229 C 0.44371 0.14503 0.43328 0.0
C230 C 0.39587 0.18828 0.44097 0.0
C231 C 0.36973 0.17264 0.45702 0.0
C232 C 0.39124 0.114 0.46556 0.0
C233 C 0.43903 0.07092 0.45808 0.0
C234 C 0.46531 0.08629 0.44203 0.0
C235 C 0.75987 0.19439 0.3923 0.0
C236 C 0.78077 0.12617 0.39125 0.0
C237 C 0.69099 0.21122 0.39428 0.0
C238 C 0.64262 0.15999 0.39561 0.0
C239 C 0.66373 0.09221 0.39477 0.0
C240 C 0.73168 0.07551 0.39244 0.0
C241 C 0.56958 0.17506 0.39801 0.0
C242 C 0.54121 0.15957 0.41387 0.0
C243 C 0.52672 0.19686 0.38435 0.0
C244 C 0.55402 0.21535 0.36746 0.0
C245 C 0.58769 0.16699 0.35733 0.0
C246 C 0.61353 0.18514 0.34142 0.0
C247 C 0.6055 0.25139 0.33547 0.0
C248 C 0.5714 0.29956 0.34538 0.0
C249 C 0.54553 0.28165 0.3613 0.0
H250 H 0.62551 0.26535 0.32314 0.0
H251 H 0.3709 0.10195 0.47798 0.0
H252 H 0.97505 0.90244 0.94404 0.0
H253 H 0.99841 0.89413 0.97499 0.0
H254 H 0.05841 0.10308 0.97618 0.0
H255 H 0.03454 0.11205 0.94532 0.0
H256 H 0.14378 0.01866 0.99607 0.0
H257 H 0.905 0.06562 0.98796 0.0
H258 H 0.79041 0.04433 0.97626 0.0
H259 H 0.79009 0.85032 1.00086 0.0
H260 H 0.90521 0.87011 1.01251 0.0
H261 H 0.11672 0.11987 0.08177 0.0
H262 H 0.09719 0.10766 0.05096 0.0
H263 H 0.02981 0.90334 0.05829 0.0
H264 H 0.04926 0.9152 0.08944 0.0
H265 H 0.9511 0.97181 0.03411 0.0
H266 H 0.18547 0.92758 0.04425 0.0
H267 H 0.30031 0.94746 0.05593 0.0
H268 H 0.31056 0.1325 0.02747 0.0
H269 H 0.19528 0.11427 1.01581 0.0
C270 C 0.99432 0.94633 0.95082 0.0
C271 C 1.00274 1.00803 0.94219 0.0
C272 C 1.00722 0.94159 0.96855 0.0
C273 C 0.02945 0.9982 0.97796 0.0
C274 C 0.04114 0.05879 0.96921 0.0
C275 C 0.02742 0.06383 0.95155 0.0
C276 C 0.03782 0.99554 0.997 0.0
C277 C 0.10157 1.00889 1.00439 0.0
C278 C 0.98319 0.98089 1.00788 0.0
C279 C 0.914 0.96898 1.00092 0.0
C280 C 0.88075 0.01816 0.99074 0.0
C281 C 0.81566 1.00642 0.98415 0.0
C282 C 0.78308 0.94591 0.98777 0.0
C283 C 0.81546 0.8971 0.99803 0.0
C284 C 0.88061 0.90856 1.00464 0.0
C285 C 0.09714 0.07238 0.07694 0.0
C286 C 0.08499 0.01834 0.08814 0.0
C287 C 0.08631 0.0654 0.05924 0.0
C288 C 0.06328 1.00416 0.05223 0.0
C289 C 0.04804 0.95096 0.0634 0.0
C290 C 0.05906 0.95785 0.0812 0.0
C291 C 0.0569 0.99607 0.03321 0.0
C292 C 0.99356 0.98077 0.02581 0.0
C293 C 0.11204 1.00857 0.0223 0.0
C294 C 0.18144 0.01983 0.02927 0.0
C295 C 0.21196 0.97281 0.04059 0.0
C296 C 0.27719 0.98373 0.04719 0.0
C297 C 0.31265 0.04128 0.04248 0.0
C298 C 0.28299 0.08797 0.03113 0.0
C299 C 0.21772 0.07734 0.0245 0.0
H300 H 0.36317 0.04963 0.0476 0.0
H301 H 0.73267 0.93693 0.98266 0.0
H302 H 0.06807 1.00286 0.44638 0.0
H303 H 0.07981 0.98369 0.47735 0.0
H304 H 0.86279 0.97014 0.48102 0.0
H305 H 0.85077 0.99111 0.45026 0.0
H306 H 0.90693 0.05431 0.50393 0.0
H307 H 0.9748 0.83035 0.48684 0.0
H308 H 0.04184 0.74473 0.47125 0.0
H309 H 0.22382 0.81606 0.49584 0.0
H310 H 0.15795 0.90273 0.51143 0.0
H311 H 0.88568 0.96747 0.59055 0.0
H312 H 0.88366 0.95341 0.55938 0.0
H313 H 0.09866 0.98731 0.55826 0.0
H314 H 0.10136 1.0005 0.58958 0.0
H315 H 0.05903 0.89114 0.53429 0.0
H316 H 0.99102 0.11646 0.55061 0.0
H317 H 0.9238 0.20127 0.56644 0.0
H318 H 0.74124 0.12617 0.54292 0.0
H319 H 0.80733 0.04022 0.52712 0.0
C320 C 0.02296 0.99434 0.45373 0.0
C321 C 0.95843 0.99884 0.44583 0.0
C322 C 0.02973 0.98327 0.47148 0.0
C323 C 0.97218 0.97538 0.48164 0.0
C324 C 0.90801 0.97651 0.47356 0.0
C325 C 0.90121 0.98826 0.45591 0.0
C326 C 0.97783 0.97165 0.50079 0.0
C327 C 0.9394 0.01771 0.5105 0.0
C328 C 0.02179 0.92555 0.50952 0.0
C329 C 0.0615 0.87348 0.50017 0.0
C330 C 0.02918 0.82815 0.48882 0.0
C331 C 0.06696 0.77935 0.48 0.0
C332 C 0.13706 0.77508 0.48252 0.0
C333 C 0.16952 0.81949 0.49389 0.0
C334 C 0.13198 0.86841 0.50273 0.0
C335 C 0.93285 0.97081 0.58375 0.0
C336 C 0.99356 0.98588 0.5926 0.0
C337 C 0.93156 0.96294 0.56589 0.0
C338 C 0.99076 0.97065 0.5564 0.0
C339 C 0.05227 0.98142 0.56527 0.0
C340 C 0.05369 0.98902 0.5832 0.0
C341 C 0.98719 0.97287 0.53725 0.0
C342 C 0.02632 0.9272 0.52761 0.0
C343 C 0.94382 0.01929 0.52851 0.0
C344 C 0.90406 0.07153 0.53781 0.0
C345 C 0.9365 0.11776 0.54889 0.0
C346 C 0.89861 0.16606 0.55785 0.0
C347 C 0.82828 0.169 0.55572 0.0
C348 C 0.79571 0.12378 0.54457 0.0
C349 C 0.83336 0.0753 0.53561 0.0
H350 H 0.79903 0.2064 0.56267 0.0
H351 H 0.16622 0.73726 0.47568 0.0
H352 H 0.93881 0.0193 0.33892 0.0
H353 H 0.93572 1.00548 0.30758 0.0
H354 H 0.15364 0.98977 0.30758 0.0
H355 H 0.15711 1.00479 0.33866 0.0
H356 H 0.11268 0.07726 0.28432 0.0
H357 H 0.04649 0.8515 0.3003 0.0
H358 H 0.97512 0.76725 0.31433 0.0
H359 H 0.80205 0.83752 0.2851 0.0
H360 H 0.87229 0.92278 0.27105 0.0
H361 H 0.20546 0.92717 0.20744 0.0
H362 H 0.17281 0.93988 0.23721 0.0
H363 H 0.97305 1.00552 0.22103 0.0
H364 H 1.00583 0.99373 0.19072 0.0
H365 H 0.98558 0.90416 0.25105 0.0
H366 H 0.05665 0.12298 0.233 0.0
H367 H 0.13139 0.20241 0.21835 0.0
H368 H 0.29724 0.14255 0.25151 0.0
H369 H 0.22376 0.06184 0.26616 0.0
C370 C 0.98597 0.0118 0.33226 0.0
C371 C 0.04825 0.01341 0.34133 0.0
C372 C 0.98414 1.00391 0.31431 0.0
C373 C 0.04449 0.9967 0.30512 0.0
C374 C 0.10637 0.99582 0.31429 0.0
C375 C 0.10826 1.00411 0.33212 0.0
C376 C 0.04447 0.99331 0.28595 0.0
C377 C 0.08497 0.03914 0.27712 0.0
C378 C 1.00661 0.94522 0.27634 0.0
C379 C 0.96444 0.89403 0.28479 0.0
C380 C 0.99309 0.84936 0.29698 0.0
C381 C 0.95287 0.80135 0.30491 0.0
C382 C 0.88404 0.79719 0.30066 0.0
C383 C 0.85534 0.8409 0.28842 0.0
C384 C 0.89533 0.88904 0.28046 0.0
C385 C 0.15427 0.94388 0.21006 0.0
C386 C 0.1084 0.95987 0.19659 0.0
C387 C 0.13572 0.95101 0.22716 0.0
C388 C 0.0707 0.9739 0.23135 0.0
C389 C 0.02352 0.98763 0.21804 0.0
C390 C 0.04238 0.9811 0.20076 0.0
C391 C 0.05508 0.98685 0.24969 0.0
C392 C 0.01201 0.94299 0.25831 0.0
C393 C 0.09058 0.03667 0.25918 0.0
C394 C 0.13476 0.086 0.2506 0.0
C395 C 0.10918 0.12638 0.23709 0.0
C396 C 0.1513 0.17169 0.22879 0.0
C397 C 0.21905 0.17744 0.23397 0.0
C398 C 0.24475 0.13802 0.2475 0.0
C399 C 0.20286 0.09253 0.25582 0.0
H400 H 0.25159 0.21251 0.22753 0.0
H401 H 0.85299 0.75998 0.30681 0.0
H402 H 0.18746 0.99587 0.70206 0.0
H403 H 0.17304 0.97929 0.73285 0.0
H404 H 0.95623 0.98391 0.72553 0.0
H405 H 0.97021 1.00063 0.69466 0.0
H406 H 0.99735 0.06886 0.75126 0.0
H407 H 0.03794 0.83734 0.73547 0.0
H408 H 0.09964 0.74217 0.72212 0.0
H409 H 0.27333 0.78224 0.75434 0.0
H410 H 0.21297 0.8783 0.76772 0.0
H411 H 0.90466 0.9743 0.83468 0.0
H412 H 0.92208 0.97641 0.80379 0.0
H413 H 0.13811 0.96489 0.81235 0.0
H414 H 0.12103 0.96181 0.84347 0.0
H415 H 0.09951 0.88304 0.78605 0.0
H416 H 0.06158 0.1141 0.80164 0.0
H417 H 1.0021 0.21046 0.81509 0.0
H418 H 0.8268 0.17374 0.78317 0.0
H419 H 0.88488 0.07645 0.76971 0.0
C420 C 0.13664 0.99234 0.70693 0.0
C421 C 0.08 0.99964 0.69583 0.0
C422 C 0.1285 0.98269 0.72458 0.0
C423 C 0.06354 0.98019 0.73156 0.0
C424 C 1.00687 0.98572 0.72046 0.0
C425 C 0.01496 0.99488 0.70278 0.0
C426 C 0.05481 0.97571 0.75051 0.0
C427 C 0.01877 0.02761 0.75882 0.0
C428 C 0.08472 0.92318 0.7605 0.0
C429 C 0.12115 0.86546 0.75247 0.0
C430 C 0.0895 0.82625 0.7396 0.0
C431 C 0.12419 0.77206 0.73205 0.0
C432 C 0.19043 0.75628 0.73734 0.0
C433 C 0.22205 0.79458 0.75023 0.0
C434 C 0.1876 0.84886 0.75782 0.0
C435 C 0.95602 0.97217 0.83007 0.0
C436 C 1.01149 0.96829 0.84165 0.0
C437 C 0.96589 0.97361 0.81234 0.0
C438 C 0.03146 0.97177 0.80568 0.0
C439 C 0.08702 0.96657 0.81716 0.0
C440 C 0.07718 0.96505 0.83496 0.0
C441 C 0.04152 0.9759 0.78676 0.0
C442 C 0.07799 0.92419 0.77848 0.0
C443 C 0.0124 0.02887 0.77677 0.0
C444 C 0.97737 0.08755 0.78478 0.0
C445 C 1.01015 0.12623 0.79758 0.0
C446 C 0.97672 0.18107 0.80519 0.0
C447 C 0.91065 0.1981 0.80002 0.0
C448 C 0.87794 0.16042 0.78718 0.0
C449 C 0.91112 0.10545 0.77955 0.0
H450 H 0.88485 0.24059 0.80593 0.0
H451 H 0.21719 0.71429 0.73149 0.0
loop_
_geom_bond_atom_site_label_1
_geom_bond_atom_site_label_2
_geom_bond_distance
_geom_bond_site_symmetry_2
_ccdc_geom_bond_type
Mg0 O7 2.142 . S
Mg0 O8 2.048 . S
Mg0 O9 2.048 . S
Mg0 O12 2.141 1_545 S
C1 O2 1.313 . S
C1 O8 1.195 . S
O2 C1 1.313 . S
C3 O4 1.245 . S
C3 O12 1.289 . S
O4 C3 1.245 . S
C5 O6 1.245 . S
C5 O7 1.303 . S
O6 C5 1.245 . S
O7 Mg0 2.142 . S
O7 C5 1.303 . S
O8 Mg0 2.048 . S
O8 C1 1.195 . S
O9 Mg0 2.048 . S
O9 C10 1.195 . S
C10 O9 1.195 . S
C10 O11 1.313 . S
O11 C10 1.313 . S
O12 Mg0 2.141 1_565 S
O12 C3 1.289 . S
Mg13 O20 2.141 . S
Mg13 O21 2.048 . S
Mg13 O22 2.048 . S
Mg13 O25 2.141 1_455 S
C14 O15 1.313 1_545 S
C14 O21 1.195 . S
O15 C14 1.313 1_565 S
C16 O17 1.245 1_545 S
C16 O25 1.289 . S
O17 C16 1.245 1_565 S
C18 O19 1.245 1_545 S
C18 O20 1.289 . S
O19 C18 1.245 1_565 S
O20 Mg13 2.141 . S
O20 C18 1.289 . S
O21 Mg13 2.048 . S
O21 C14 1.195 . S
O22 Mg13 2.048 . S
O22 C23 1.195 . S
C23 O22 1.195 . S
C23 O24 1.313 1_545 S
O24 C23 1.313 1_565 S
O25 Mg13 2.141 1_655 S
O25 C16 1.289 . S
Mg26 O33 2.141 . S
Mg26 O34 2.048 . S
Mg26 O35 2.048 . S
Mg26 O38 2.141 1_545 S
C27 O28 1.313 . S
C27 O34 1.195 1_455 S
O28 C27 1.313 . S
C29 O30 1.245 . S
C29 O38 1.289 1_455 S
O30 C29 1.245 . S
C31 O32 1.245 . S
C31 O33 1.289 1_455 S
O32 C31 1.245 . S
O33 Mg26 2.141 . S
O33 C31 1.289 1_655 S
O34 Mg26 2.048 . S
O34 C27 1.195 1_655 S
O35 Mg26 2.048 . S
O35 C36 1.195 1_655 S
C36 O35 1.195 1_455 S
C36 O37 1.313 . S
O37 C36 1.313 . S
O38 Mg26 2.141 1_565 S
O38 C29 1.289 1_655 S
Mg39 O46 2.141 . S
Mg39 O47 2.048 . S
Mg39 O48 2.048 . S
Mg39 O51 2.141 1_455 S
C40 O41 1.313 1_545 S
C40 O47 1.195 . S
O41 C40 1.313 1_565 S
C42 O43 1.245 1_545 S
C42 O51 1.289 . S
O43 C42 1.245 1_565 S
C44 O45 1.230 1_545 S
C44 O46 1.301 . S
O45 C44 1.230 1_565 S
O46 Mg39 2.141 . S
O46 C44 1.301 . S
O47 Mg39 2.048 . S
O47 C40 1.195 . S
O48 Mg39 2.048 . S
O48 C49 1.195 . S
C49 O48 1.195 . S
C49 O50 1.313 1_545 S
O50 C49 1.313 1_565 S
O51 Mg39 2.141 1_655 S
O51 C42 1.289 . S
H52 C70 0.951 . S
H53 C72 0.951 . S
H54 C74 0.950 . S
H55 C75 0.950 . S
H56 C77 0.950 . S
H57 C80 0.950 . S
H58 C81 0.950 . S
H59 C83 0.950 . S
H60 C84 0.950 1_455 S
H61 C85 0.951 . S
H62 C87 0.951 . S
H63 C89 0.950 . S
H64 C90 0.950 . S
H65 C92 0.950 1_655 S
H66 C95 0.950 . S
H67 C96 0.950 . S
H68 C98 0.950 . S
H69 C99 0.950 . S
C70 H52 0.951 . S
C70 C71 1.366 . S
C70 C72 1.388 . S
C71 C70 1.366 . S
C71 C75 1.385 . S
C72 H53 0.951 . S
C72 C70 1.388 . S
C72 C73 1.366 . S
C73 C72 1.366 . S
C73 C74 1.414 . S
C73 C76 1.499 . S
C74 H54 0.950 . S
C74 C73 1.414 . S
C74 C75 1.374 . S
C75 H55 0.950 . S
C75 C71 1.385 . S
C75 C74 1.374 . S
C76 C73 1.499 . S
C76 C77 1.373 . S
C76 C78 1.389 . S
C77 H56 0.950 . S
C77 C76 1.373 . S
C77 C93 1.377 . S
C78 C76 1.389 . S
C78 C79 1.524 1_455 S
C78 C92 1.377 . S
C79 C78 1.524 1_655 S
C79 C80 1.397 . S
C79 C84 1.363 . S
C80 H57 0.950 . S
C80 C79 1.397 . S
C80 C81 1.334 . S
C81 H58 0.950 . S
C81 C80 1.334 . S
C81 C82 1.287 . S
C82 C81 1.287 . S
C82 C83 1.524 . S
C82 H101 0.913 . S
C83 H59 0.950 . S
C83 C82 1.524 . S
C83 C84 1.415 . S
C84 H60 0.950 1_655 S
C84 C79 1.363 . S
C84 C83 1.415 . S
C85 H61 0.951 . S
C85 C86 1.366 . S
C85 C87 1.388 . S
C86 C85 1.366 . S
C86 C90 1.385 . S
C87 H62 0.951 . S
C87 C85 1.388 . S
C87 C88 1.366 . S
C88 C87 1.366 . S
C88 C89 1.414 . S
C88 C91 1.499 . S
C89 H63 0.950 . S
C89 C88 1.414 . S
C89 C90 1.374 . S
C90 H64 0.950 . S
C90 C86 1.385 . S
C90 C89 1.374 . S
C91 C88 1.499 . S
C91 C92 1.373 . S
C91 C93 1.389 . S
C92 H65 0.950 1_455 S
C92 C78 1.377 . S
C92 C91 1.373 . S
C93 C77 1.377 . S
C93 C91 1.389 . S
C93 C94 1.524 . S
C94 C93 1.524 . S
C94 C95 1.397 . S
C94 C99 1.363 . S
C95 H66 0.950 . S
C95 C94 1.397 . S
C95 C96 1.334 . S
C96 H67 0.950 . S
C96 C95 1.334 . S
C96 C97 1.287 . S
C97 C96 1.287 . S
C97 C98 1.524 . S
C97 H100 0.999 . S
C98 H68 0.950 . S
C98 C97 1.524 . S
C98 C99 1.415 . S
C99 H69 0.950 . S
C99 C94 1.363 . S
C99 C98 1.415 . S
H100 C97 0.999 . S
H101 C82 0.913 . S
H102 C120 0.951 . S
H103 C122 0.951 . S
H104 C124 0.950 . S
H105 C125 0.950 . S
H106 C127 0.950 . S
H107 C130 0.950 . S
H108 C131 0.950 . S
H109 C133 0.950 . S
H110 C134 0.950 . S
H111 C135 0.951 . S
H112 C137 0.951 . S
H113 C139 0.950 . S
H114 C140 0.950 . S
H115 C142 0.950 . S
H116 C145 0.950 . S
H117 C146 0.950 . S
H118 C148 0.950 . S
H119 C149 0.950 . S
C120 H102 0.951 . S
C120 C121 1.366 . S
C120 C122 1.388 . S
C121 C120 1.366 . S
C121 C125 1.385 . S
C122 H103 0.951 . S
C122 C120 1.388 . S
C122 C123 1.366 . S
C123 C122 1.366 . S
C123 C124 1.414 . S
C123 C126 1.499 . S
C124 H104 0.950 . S
C124 C123 1.414 . S
C124 C125 1.374 . S
C125 H105 0.950 . S
C125 C121 1.385 . S
C125 C124 1.374 . S
C126 C123 1.499 . S
C126 C127 1.373 . S
C126 C128 1.389 1_545 S
C127 H106 0.950 . S
C127 C126 1.373 . S
C127 C143 1.377 . S
C128 C126 1.389 1_565 S
C128 C129 1.524 . S
C128 C142 1.377 . S
C129 C128 1.524 . S
C129 C130 1.397 . S
C129 C134 1.363 . S
C130 H107 0.950 . S
C130 C129 1.397 . S
C130 C131 1.334 . S
C131 H108 0.950 . S
C131 C130 1.334 . S
C131 C132 1.287 . S
C132 C131 1.287 . S
C132 C133 1.524 . S
C132 H151 0.913 . S
C133 H109 0.950 . S
C133 C132 1.524 . S
C133 C134 1.415 . S
C134 H110 0.950 . S
C134 C129 1.363 . S
C134 C133 1.415 . S
C135 H111 0.951 . S
C135 C136 1.366 . S
C135 C137 1.388 . S
C136 C135 1.366 . S
C136 C140 1.385 . S
C137 H112 0.951 . S
C137 C135 1.388 . S
C137 C138 1.366 . S
C138 C137 1.366 . S
C138 C139 1.414 . S
C138 C141 1.499 . S
C139 H113 0.950 . S
C139 C138 1.414 . S
C139 C140 1.374 . S
C140 H114 0.950 . S
C140 C136 1.385 . S
C140 C139 1.374 . S
C141 C138 1.499 . S
C141 C142 1.373 1_545 S
C141 C143 1.389 . S
C142 H115 0.950 . S
C142 C128 1.377 . S
C142 C141 1.373 1_565 S
C143 C127 1.377 . S
C143 C141 1.389 . S
C143 C144 1.524 . S
C144 C143 1.524 . S
C144 C145 1.397 . S
C144 C149 1.363 . S
C145 H116 0.950 . S
C145 C144 1.397 . S
C145 C146 1.334 . S
C146 H117 0.950 . S
C146 C145 1.334 . S
C146 C147 1.287 . S
C147 C146 1.287 . S
C147 C148 1.524 . S
C147 H150 0.999 . S
C148 H118 0.950 . S
C148 C147 1.524 . S
C148 C149 1.415 . S
C149 H119 0.950 . S
C149 C144 1.363 . S
C149 C148 1.415 . S
H150 C147 0.999 . S
H151 C132 0.913 . S
H152 C170 0.951 . S
H153 C172 0.951 . S
H154 C174 0.950 . S
H155 C175 0.950 . S
H156 C177 0.950 . S
H157 C180 0.950 . S
H158 C181 0.950 . S
H159 C183 0.950 . S
H160 C184 0.950 . S
H161 C185 0.951 . S
H162 C187 0.951 . S
H163 C189 0.950 . S
H164 C190 0.950 . S
H165 C192 0.950 . S
H166 C195 0.950 . S
H167 C196 0.950 . S
H168 C198 0.950 . S
H169 C199 0.950 . S
C170 H152 0.951 . S
C170 C171 1.366 1_655 S
C170 C172 1.388 . S
C171 C170 1.366 1_455 S
C171 C175 1.385 . S
C172 H153 0.951 . S
C172 C170 1.388 . S
C172 C173 1.366 1_655 S
C173 C172 1.366 1_455 S
C173 C174 1.414 . S
C173 C176 1.499 . S
C174 H154 0.950 . S
C174 C173 1.414 . S
C174 C175 1.374 . S
C175 H155 0.950 . S
C175 C171 1.385 . S
C175 C174 1.374 . S
C176 C173 1.499 . S
C176 C177 1.373 . S
C176 C178 1.389 1_455 S
C177 H156 0.950 . S
C177 C176 1.373 . S
C177 C193 1.377 . S
C178 C176 1.389 1_655 S
C178 C179 1.524 . S
C178 C192 1.377 . S
C179 C178 1.524 . S
C179 C180 1.397 . S
C179 C184 1.363 . S
C180 H157 0.950 . S
C180 C179 1.397 . S
C180 C181 1.334 . S
C181 H158 0.950 . S
C181 C180 1.334 . S
C181 C182 1.287 . S
C182 C181 1.287 . S
C182 C183 1.524 . S
C182 H201 0.913 . S
C183 H159 0.950 . S
C183 C182 1.524 . S
C183 C184 1.415 . S
C184 H160 0.950 . S
C184 C179 1.363 . S
C184 C183 1.415 . S
C185 H161 0.951 . S
C185 C186 1.366 . S
C185 C187 1.388 . S
C186 C185 1.366 . S
C186 C190 1.385 1_455 S
C187 H162 0.951 . S
C187 C185 1.388 . S
C187 C188 1.366 . S
C188 C187 1.366 . S
C188 C189 1.414 1_455 S
C188 C191 1.499 . S
C189 H163 0.950 . S
C189 C188 1.414 1_655 S
C189 C190 1.374 . S
C190 H164 0.950 . S
C190 C186 1.385 1_655 S
C190 C189 1.374 . S
C191 C188 1.499 . S
C191 C192 1.373 1_455 S
C191 C193 1.389 . S
C192 H165 0.950 . S
C192 C178 1.377 . S
C192 C191 1.373 1_655 S
C193 C177 1.377 . S
C193 C191 1.389 . S
C193 C194 1.524 . S
C194 C193 1.524 . S
C194 C195 1.397 . S
C194 C199 1.363 . S
C195 H166 0.950 . S
C195 C194 1.397 . S
C195 C196 1.334 . S
C196 H167 0.950 . S
C196 C195 1.334 . S
C196 C197 1.287 . S
C197 C196 1.287 . S
C197 C198 1.524 . S
C197 H200 0.999 . S
C198 H168 0.950 . S
C198 C197 1.524 . S
C198 C199 1.415 . S
C199 H169 0.950 . S
C199 C194 1.363 . S
C199 C198 1.415 . S
H200 C197 0.999 . S
H201 C182 0.913 . S
H202 C220 0.951 . S
H203 C222 0.951 . S
H204 C224 0.950 . S
H205 C225 0.950 . S
H206 C227 0.950 . S
H207 C230 0.950 1_545 S
H208 C231 0.950 . S
H209 C233 0.950 . S
H210 C234 0.950 . S
H211 C235 0.951 . S
H212 C237 0.951 . S
H213 C239 0.950 . S
H214 C240 0.950 . S
H215 C242 0.950 . S
H216 C245 0.950 . S
H217 C246 0.950 . S
H218 C248 0.950 . S
H219 C249 0.950 . S
C220 H202 0.951 . S
C220 C221 1.366 1_565 S
C220 C222 1.388 . S
C221 C220 1.366 1_545 S
C221 C225 1.385 . S
C222 H203 0.951 . S
C222 C220 1.388 . S
C222 C223 1.366 1_565 S
C223 C222 1.366 1_545 S
C223 C224 1.414 . S
C223 C226 1.499 . S
C224 H204 0.950 . S
C224 C223 1.414 . S
C224 C225 1.374 . S
C225 H205 0.950 . S
C225 C221 1.385 . S
C225 C224 1.374 . S
C226 C223 1.499 . S
C226 C227 1.373 . S
C226 C228 1.389 1_545 S
C227 H206 0.950 . S
C227 C226 1.373 . S
C227 C243 1.377 . S
C228 C226 1.389 1_565 S
C228 C229 1.524 . S
C228 C242 1.377 . S
C229 C228 1.524 . S
C229 C230 1.397 . S
C229 C234 1.363 . S
C230 H207 0.950 1_565 S
C230 C229 1.397 . S
C230 C231 1.334 . S
C231 H208 0.950 . S
C231 C230 1.334 . S
C231 C232 1.287 . S
C232 C231 1.287 . S
C232 C233 1.524 . S
C232 H251 0.913 . S
C233 H209 0.950 . S
C233 C232 1.524 . S
C233 C234 1.415 . S
C234 H210 0.950 . S
C234 C229 1.363 . S
C234 C233 1.415 . S
C235 H211 0.951 . S
C235 C236 1.366 . S
C235 C237 1.388 . S
C236 C235 1.366 . S
C236 C240 1.385 1_545 S
C237 H212 0.951 . S
C237 C235 1.388 . S
C237 C238 1.366 . S
C238 C237 1.366 . S
C238 C239 1.414 1_545 S
C238 C241 1.499 . S
C239 H213 0.950 . S
C239 C238 1.414 1_565 S
C239 C240 1.374 . S
C240 H214 0.950 . S
C240 C236 1.385 1_565 S
C240 C239 1.374 . S
C241 C238 1.499 . S
C241 C242 1.373 1_545 S
C241 C243 1.389 . S
C242 H215 0.950 . S
C242 C228 1.377 . S
C242 C241 1.373 1_565 S
C243 C227 1.377 . S
C243 C241 1.389 . S
C243 C244 1.524 . S
C244 C243 1.524 . S
C244 C245 1.397 . S
C244 C249 1.363 . S
C245 H216 0.950 . S
C245 C244 1.397 . S
C245 C246 1.334 . S
C246 H217 0.950 . S
C246 C245 1.334 . S
C246 C247 1.287 . S
C247 C246 1.287 . S
C247 C248 1.524 . S
C247 H250 0.999 . S
C248 H218 0.950 . S
C248 C247 1.524 . S
C248 C249 1.415 . S
C249 H219 0.950 . S
C249 C244 1.363 . S
C249 C248 1.415 . S
H250 C247 0.999 . S
H251 C232 0.913 . S
H252 C270 0.951 . S
H253 C272 0.951 . S
H254 C274 0.950 . S
H255 C275 0.950 . S
H256 C277 0.950 1_565 S
H257 C280 0.950 . S
H258 C281 0.950 . S
H259 C283 0.950 . S
H260 C284 0.950 1_565 S
H261 C285 0.951 . S
H262 C287 0.951 . S
H263 C289 0.950 . S
H264 C290 0.950 . S
H265 C292 0.950 . S
H266 C295 0.950 . S
H267 C296 0.950 . S
H268 C298 0.951 . S
H269 C299 0.950 . S
C270 H252 0.951 . S
C270 C271 1.366 1_665 S
C270 C272 1.388 . S
C271 C270 1.366 1_445 S
C271 C275 1.385 . S
C272 H253 0.951 . S
C272 C270 1.388 . S
C272 C273 1.366 1_665 S
C273 C272 1.366 1_445 S
C273 C274 1.414 . S
C273 C276 1.499 . S
C274 H254 0.950 . S
C274 C273 1.414 . S
C274 C275 1.374 . S
C275 H255 0.950 . S
C275 C271 1.385 . S
C275 C274 1.374 . S
C276 C273 1.499 . S
C276 C277 1.373 . S
C276 C278 1.389 1_455 S
C277 H256 0.950 1_545 S
C277 C276 1.373 . S
C277 C293 1.377 1_546 S
C278 C276 1.389 1_655 S
C278 C279 1.524 . S
C278 C292 1.377 1_556 S
C279 C278 1.524 . S
C279 C280 1.397 . S
C279 C284 1.363 . S
C280 H257 0.950 . S
C280 C279 1.397 . S
C280 C281 1.334 . S
C281 H258 0.950 . S
C281 C280 1.334 . S
C281 C282 1.287 . S
C282 C281 1.287 . S
C282 C283 1.524 . S
C282 H301 0.913 . S
C283 H259 0.950 . S
C283 C282 1.524 . S
C283 C284 1.415 . S
C284 H260 0.950 1_545 S
C284 C279 1.363 . S
C284 C283 1.415 . S
C285 H261 0.951 . S
C285 C286 1.366 . S
C285 C287 1.388 . S
C286 C285 1.366 . S
C286 C290 1.385 1_445 S
C287 H262 0.951 . S
C287 C285 1.388 . S
C287 C288 1.366 . S
C288 C287 1.366 . S
C288 C289 1.414 1_445 S
C288 C291 1.499 . S
C289 H263 0.950 . S
C289 C288 1.414 1_665 S
C289 C290 1.374 . S
C290 H264 0.950 . S
C290 C286 1.385 1_665 S
C290 C289 1.374 . S
C291 C288 1.499 . S
C291 C292 1.373 1_455 S
C291 C293 1.389 1_545 S
C292 H265 0.950 . S
C292 C278 1.377 1_554 S
C292 C291 1.373 1_655 S
C293 C277 1.377 1_564 S
C293 C291 1.389 1_565 S
C293 C294 1.524 . S
C294 C293 1.524 . S
C294 C295 1.397 . S
C294 C299 1.363 1_565 S
C295 H266 0.950 . S
C295 C294 1.397 . S
C295 C296 1.334 . S
C296 H267 0.950 . S
C296 C295 1.334 . S
C296 C297 1.287 . S
C297 C296 1.287 . S
C297 C298 1.524 . S
C297 H300 0.999 . S
C298 H268 0.951 . S
C298 C297 1.524 . S
C298 C299 1.415 1_565 S
C299 H269 0.950 . S
C299 C294 1.363 1_545 S
C299 C298 1.415 1_545 S
H300 C297 0.999 . S
H301 C282 0.913 . S
H302 C320 0.951 . S
H303 C322 0.951 . S
H304 C324 0.950 . S
H305 C325 0.950 . S
H306 C327 0.950 . S
H307 C330 0.950 . S
H308 C331 0.950 . S
H309 C333 0.950 1_545 S
H310 C334 0.950 . S
H311 C335 0.951 1_565 S
H312 C337 0.951 1_565 S
H313 C339 0.950 . S
H314 C340 0.950 . S
H315 C342 0.950 . S
H316 C345 0.950 . S
H317 C346 0.950 . S
H318 C348 0.950 . S
H319 C349 0.950 . S
C320 H302 0.951 . S
C320 C321 1.366 . S
C320 C322 1.388 . S
C321 C320 1.366 . S
C321 C325 1.385 1_445 S
C322 H303 0.951 . S
C322 C320 1.388 . S
C322 C323 1.366 . S
C323 C322 1.366 . S
C323 C324 1.414 1_445 S
C323 C326 1.499 . S
C324 H304 0.950 . S
C324 C323 1.414 1_665 S
C324 C325 1.374 . S
C325 H305 0.950 . S
C325 C321 1.385 1_665 S
C325 C324 1.374 . S
C326 C323 1.499 . S
C326 C327 1.373 1_455 S
C326 C328 1.389 . S
C327 H306 0.950 . S
C327 C326 1.373 1_655 S
C327 C343 1.377 . S
C328 C326 1.389 . S
C328 C329 1.524 1_545 S
C328 C342 1.377 . S
C329 C328 1.524 1_565 S
C329 C330 1.397 . S
C329 C334 1.363 1_565 S
C330 H307 0.950 . S
C330 C329 1.397 . S
C330 C331 1.334 . S
C331 H308 0.950 . S
C331 C330 1.334 . S
C331 C332 1.287 . S
C332 C331 1.287 . S
C332 C333 1.524 . S
C332 H351 0.913 . S
C333 H309 0.950 1_565 S
C333 C332 1.524 . S
C333 C334 1.415 1_565 S
C334 H310 0.950 . S
C334 C329 1.363 1_545 S
C334 C333 1.415 1_545 S
C335 H311 0.951 1_545 S
C335 C336 1.366 1_655 S
C335 C337 1.388 . S
C336 C335 1.366 1_455 S
C336 C340 1.385 . S
C337 H312 0.951 1_545 S
C337 C335 1.388 . S
C337 C338 1.366 1_655 S
C338 C337 1.366 1_455 S
C338 C339 1.414 . S
C338 C341 1.499 . S
C339 H313 0.950 . S
C339 C338 1.414 . S
C339 C340 1.374 . S
C340 H314 0.950 . S
C340 C336 1.385 . S
C340 C339 1.374 . S
C341 C338 1.499 . S
C341 C342 1.373 . S
C341 C343 1.389 1_455 S
C342 H315 0.950 . S
C342 C328 1.377 . S
C342 C341 1.373 . S
C343 C327 1.377 . S
C343 C341 1.389 1_655 S
C343 C344 1.524 . S
C344 C343 1.524 . S
C344 C345 1.397 . S
C344 C349 1.363 . S
C345 H316 0.950 . S
C345 C344 1.397 . S
C345 C346 1.334 . S
C346 H317 0.950 . S
C346 C345 1.334 . S
C346 C347 1.287 . S
C347 C346 1.287 . S
C347 C348 1.524 . S
C347 H350 0.999 . S
C348 H318 0.950 . S
C348 C347 1.524 . S
C348 C349 1.415 . S
C349 H319 0.950 . S
C349 C344 1.363 . S
C349 C348 1.415 . S
H350 C347 0.999 . S
H351 C332 0.913 . S
H352 C370 0.951 . S
H353 C372 0.951 . S
H354 C374 0.950 . S
H355 C375 0.950 . S
H356 C377 0.950 . S
H357 C380 0.950 . S
H358 C381 0.950 . S
H359 C383 0.950 . S
H360 C384 0.963 . S
H361 C385 0.951 . S
H362 C387 0.951 . S
H363 C389 0.950 . S
H364 C390 0.950 . S
H365 C392 0.950 . S
H366 C395 0.950 . S
H367 C396 0.950 . S
H368 C398 0.950 . S
H369 C399 0.950 1_565 S
C370 H352 0.951 . S
C370 C371 1.366 1_655 S
C370 C372 1.388 . S
C371 C370 1.366 1_455 S
C371 C375 1.385 1_545 S
C372 H353 0.951 . S
C372 C370 1.388 . S
C372 C373 1.366 1_655 S
C373 C372 1.366 1_455 S
C373 C374 1.414 1_545 S
C373 C376 1.499 . S
C374 H354 0.950 . S
C374 C373 1.414 1_565 S
C374 C375 1.374 . S
C375 H355 0.950 . S
C375 C371 1.385 1_565 S
C375 C374 1.374 . S
C376 C373 1.499 . S
C376 C377 1.373 . S
C376 C378 1.389 1_445 S
C377 H356 0.950 . S
C377 C376 1.373 . S
C377 C393 1.377 . S
C378 C376 1.389 1_665 S
C378 C379 1.524 . S
C378 C392 1.377 . S
C379 C378 1.524 . S
C379 C380 1.397 . S
C379 C384 1.356 1_565 S
C380 H357 0.950 . S
C380 C379 1.397 . S
C380 C381 1.334 . S
C381 H358 0.950 . S
C381 C380 1.334 . S
C381 C382 1.287 . S
C382 C381 1.287 . S
C382 C383 1.524 . S
C382 H401 0.913 . S
C383 H359 0.950 . S
C383 C382 1.524 . S
C383 C384 1.410 1_565 S
C384 H360 0.963 . S
C384 C379 1.356 1_545 S
C384 C383 1.410 1_545 S
C385 H361 0.951 . S
C385 C386 1.366 1_565 S
C385 C387 1.388 . S
C386 C385 1.366 1_545 S
C386 C390 1.385 1_455 S
C387 H362 0.951 . S
C387 C385 1.388 . S
C387 C388 1.366 1_565 S
C388 C387 1.366 1_545 S
C388 C389 1.414 1_455 S
C388 C391 1.499 . S
C389 H363 0.950 . S
C389 C388 1.414 1_655 S
C389 C390 1.374 . S
C390 H364 0.950 . S
C390 C386 1.385 1_655 S
C390 C389 1.374 . S
C391 C388 1.499 . S
C391 C392 1.373 1_445 S
C391 C393 1.389 . S
C392 H365 0.950 . S
C392 C378 1.377 . S
C392 C391 1.373 1_665 S
C393 C377 1.377 . S
C393 C391 1.389 . S
C393 C394 1.524 . S
C394 C393 1.524 . S
C394 C395 1.397 . S
C394 C399 1.363 . S
C395 H366 0.950 . S
C395 C394 1.397 . S
C395 C396 1.334 . S
C396 H367 0.950 . S
C396 C395 1.334 . S
C396 C397 1.287 . S
C397 C396 1.287 . S
C397 C398 1.524 . S
C397 H400 0.999 . S
C398 H368 0.950 . S
C398 C397 1.524 . S
C398 C399 1.415 . S
C399 H369 0.950 1_545 S
C399 C394 1.363 . S
C399 C398 1.415 . S
H400 C397 0.999 . S
H401 C382 0.913 . S
H402 C420 0.951 . S
H403 C422 0.951 . S
H404 C424 0.950 . S
H405 C425 0.950 . S
H406 C427 0.950 . S
H407 C430 0.950 . S
H408 C431 0.950 . S
H409 C433 0.950 . S
H410 C434 0.950 . S
H411 C435 0.951 . S
H412 C437 0.951 . S
H413 C439 0.950 . S
H414 C440 0.950 . S
H415 C442 0.950 . S
H416 C445 0.950 . S
H417 C446 0.950 . S
H418 C448 0.950 1_655 S
H419 C449 0.950 . S
C420 H402 0.951 . S
C420 C421 1.366 1_565 S
C420 C422 1.388 . S
C421 C420 1.366 1_545 S
C421 C425 1.385 1_455 S
C422 H403 0.951 . S
C422 C420 1.388 . S
C422 C423 1.366 1_565 S
C423 C422 1.366 1_545 S
C423 C424 1.414 1_455 S
C423 C426 1.499 . S
C424 H404 0.950 . S
C424 C423 1.414 1_655 S
C424 C425 1.374 . S
C425 H405 0.950 . S
C425 C421 1.385 1_655 S
C425 C424 1.374 . S
C426 C423 1.499 . S
C426 C427 1.373 . S
C426 C428 1.389 1_445 S
C427 H406 0.950 . S
C427 C426 1.373 . S
C427 C443 1.377 . S
C428 C426 1.389 1_665 S
C428 C429 1.524 . S
C428 C442 1.377 1_655 S
C429 C428 1.524 . S
C429 C430 1.397 . S
C429 C434 1.363 1_655 S
C430 H407 0.950 . S
C430 C429 1.397 . S
C430 C431 1.334 . S
C431 H408 0.950 . S
C431 C430 1.334 . S
C431 C432 1.287 . S
C432 C431 1.287 . S
C432 C433 1.524 1_655 S
C432 H451 0.913 . S
C433 H409 0.950 . S
C433 C432 1.524 1_455 S
C433 C434 1.415 . S
C434 H410 0.950 . S
C434 C429 1.363 1_455 S
C434 C433 1.415 . S
C435 H411 0.951 . S
C435 C436 1.366 1_655 S
C435 C437 1.388 . S
C436 C435 1.366 1_455 S
C436 C440 1.385 1_545 S
C437 H412 0.951 . S
C437 C435 1.388 . S
C437 C438 1.366 1_655 S
C438 C437 1.366 1_455 S
C438 C439 1.414 1_545 S
C438 C441 1.499 . S
C439 H413 0.950 . S
C439 C438 1.414 1_565 S
C439 C440 1.374 . S
C440 H414 0.950 . S
C440 C436 1.385 1_565 S
C440 C439 1.374 . S
C441 C438 1.499 . S
C441 C442 1.373 1_545 S
C441 C443 1.389 . S
C442 H415 0.950 . S
C442 C428 1.377 1_455 S
C442 C441 1.373 1_565 S
C443 C427 1.377 . S
C443 C441 1.389 . S
C443 C444 1.524 . S
C444 C443 1.524 . S
C444 C445 1.397 . S
C444 C449 1.363 1_455 S
C445 H416 0.950 . S
C445 C444 1.397 . S
C445 C446 1.334 . S
C446 H417 0.950 . S
C446 C445 1.334 . S
C446 C447 1.287 . S
C447 C446 1.287 . S
C447 C448 1.524 . S
C447 H450 0.999 . S
C448 H418 0.950 1_455 S
C448 C447 1.524 . S
C448 C449 1.415 1_455 S
C449 H419 0.950 . S
C449 C444 1.363 1_655 S
C449 C448 1.415 1_655 S
H450 C447 0.999 . S
H451 C432 0.913 . S
C71 C1 1.493 . S
C86 C3 1.489 . S
C121 C14 1.493 . S
C136 C16 1.488 . S
C171 C27 1.493 . S
C186 C29 1.489 . S
C221 C40 1.493 . S
C236 C42 1.489 . S
C271 C36 1.494 . S
C286 C5 1.495 . S
C321 C49 1.497 . S
C336 C18 1.487 . S
C371 C44 1.494 . S
C386 C10 1.497 . S
C421 C23 1.493 . S
C436 C31 1.490 . S
