# Generated by pormake.
# Topology wir, (6)-cn, num edge types: 1
# Building blocks:
#     Node 0, Type 0, BuildingBlock: VOLQOD_clean_sbu_1, # of connection points: 6
#     Node 1, Type 0, BuildingBlock: VOLQOD_clean_sbu_1, # of connection points: 6
#     Node 2, Type 0, BuildingBlock: VOLQOD_clean_sbu_1, # of connection points: 6
#     Node 3, Type 0, BuildingBlock: VOLQOD_clean_sbu_1, # of connection points: 6
#     Node 4, Type 0, BuildingBlock: VOLQOD_clean_sbu_1, # of connection points: 6
#     Node 5, Type 0, BuildingBlock: VOLQOD_clean_sbu_1, # of connection points: 6
#     Node 6, Type 0, BuildingBlock: VOLQOD_clean_sbu_1, # of connection points: 6
#     Node 7, Type 0, BuildingBlock: VOLQOD_clean_sbu_1, # of connection points: 6
#     Node 8, Type 0, BuildingBlock: VOLQOD_clean_sbu_1, # of connection points: 6
#     Node 9, Type 0, BuildingBlock: VOLQOD_clean_sbu_1, # of connection points: 6
#     Node 10, Type 0, BuildingBlock: VOLQOD_clean_sbu_1, # of connection points: 6
#     Node 11, Type 0, BuildingBlock: VOLQOD_clean_sbu_1, # of connection points: 6
#     Node 12, Type 0, BuildingBlock: VOLQOD_clean_sbu_1, # of connection points: 6
#     Node 13, Type 0, BuildingBlock: VOLQOD_clean_sbu_1, # of connection points: 6
#     Node 14, Type 0, BuildingBlock: VOLQOD_clean_sbu_1, # of connection points: 6
#     Node 15, Type 0, BuildingBlock: VOLQOD_clean_sbu_1, # of connection points: 6
#     Node 16, Type 0, BuildingBlock: VOLQOD_clean_sbu_1, # of connection points: 6
#     Node 17, Type 0, BuildingBlock: VOLQOD_clean_sbu_1, # of connection points: 6
#     Node 18, Type 0, BuildingBlock: VOLQOD_clean_sbu_1, # of connection points: 6
#     Node 19, Type 0, BuildingBlock: VOLQOD_clean_sbu_1, # of connection points: 6
#     Node 20, Type 0, BuildingBlock: VOLQOD_clean_sbu_1, # of connection points: 6
#     Node 21, Type 0, BuildingBlock: VOLQOD_clean_sbu_1, # of connection points: 6
#     Node 22, Type 0, BuildingBlock: VOLQOD_clean_sbu_1, # of connection points: 6
#     Node 23, Type 0, BuildingBlock: VOLQOD_clean_sbu_1, # of connection points: 6
#     Node 24, Type 0, BuildingBlock: VOLQOD_clean_sbu_1, # of connection points: 6
#     Node 25, Type 0, BuildingBlock: VOLQOD_clean_sbu_1, # of connection points: 6
#     Node 26, Type 0, BuildingBlock: VOLQOD_clean_sbu_1, # of connection points: 6
#     Node 27, Type 0, BuildingBlock: VOLQOD_clean_sbu_1, # of connection points: 6
#     Node 28, Type 0, BuildingBlock: VOLQOD_clean_sbu_1, # of connection points: 6
#     Node 29, Type 0, BuildingBlock: VOLQOD_clean_sbu_1, # of connection points: 6
#     Node 30, Type 0, BuildingBlock: VOLQOD_clean_sbu_1, # of connection points: 6
#     Node 31, Type 0, BuildingBlock: VOLQOD_clean_sbu_1, # of connection points: 6
#     Edge 32, Type (0, 0), BuildingBlock: OJICUG_clean_linker_0, # of connection points: 2
#     Edge 33, Type (0, 0), BuildingBlock: OJICUG_clean_linker_0, # of connection points: 2
#     Edge 34, Type (0, 0), BuildingBlock: OJICUG_clean_linker_0, # of connection points: 2
#     Edge 35, Type (0, 0), BuildingBlock: OJICUG_clean_linker_0, # of connection points: 2
#     Edge 36, Type (0, 0), BuildingBlock: OJICUG_clean_linker_0, # of connection points: 2
#     Edge 37, Type (0, 0), BuildingBlock: OJICUG_clean_linker_0, # of connection points: 2
#     Edge 38, Type (0, 0), BuildingBlock: OJICUG_clean_linker_0, # of connection points: 2
#     Edge 39, Type (0, 0), BuildingBlock: OJICUG_clean_linker_0, # of connection points: 2
#     Edge 40, Type (0, 0), BuildingBlock: OJICUG_clean_linker_0, # of connection points: 2
#     Edge 41, Type (0, 0), BuildingBlock: OJICUG_clean_linker_0, # of connection points: 2
#     Edge 42, Type (0, 0), BuildingBlock: OJICUG_clean_linker_0, # of connection points: 2
#     Edge 43, Type (0, 0), BuildingBlock: OJICUG_clean_linker_0, # of connection points: 2
#     Edge 44, Type (0, 0), BuildingBlock: OJICUG_clean_linker_0, # of connection points: 2
#     Edge 45, Type (0, 0), BuildingBlock: OJICUG_clean_linker_0, # of connection points: 2
#     Edge 46, Type (0, 0), BuildingBlock: OJICUG_clean_linker_0, # of connection points: 2
#     Edge 47, Type (0, 0), BuildingBlock: OJICUG_clean_linker_0, # of connection points: 2
#     Edge 48, Type (0, 0), BuildingBlock: OJICUG_clean_linker_0, # of connection points: 2
#     Edge 49, Type (0, 0), BuildingBlock: OJICUG_clean_linker_0, # of connection points: 2
#     Edge 50, Type (0, 0), BuildingBlock: OJICUG_clean_linker_0, # of connection points: 2
#     Edge 51, Type (0, 0), BuildingBlock: OJICUG_clean_linker_0, # of connection points: 2
#     Edge 52, Type (0, 0), BuildingBlock: OJICUG_clean_linker_0, # of connection points: 2
#     Edge 53, Type (0, 0), BuildingBlock: OJICUG_clean_linker_0, # of connection points: 2
#     Edge 54, Type (0, 0), BuildingBlock: OJICUG_clean_linker_0, # of connection points: 2
#     Edge 55, Type (0, 0), BuildingBlock: OJICUG_clean_linker_0, # of connection points: 2
#     Edge 56, Type (0, 0), BuildingBlock: OJICUG_clean_linker_0, # of connection points: 2
#     Edge 57, Type (0, 0), BuildingBlock: OJICUG_clean_linker_0, # of connection points: 2
#     Edge 58, Type (0, 0), BuildingBlock: OJICUG_clean_linker_0, # of connection points: 2
#     Edge 59, Type (0, 0), BuildingBlock: OJICUG_clean_linker_0, # of connection points: 2
#     Edge 60, Type (0, 0), BuildingBlock: OJICUG_clean_linker_0, # of connection points: 2
#     Edge 61, Type (0, 0), BuildingBlock: OJICUG_clean_linker_0, # of connection points: 2
#     Edge 62, Type (0, 0), BuildingBlock: OJICUG_clean_linker_0, # of connection points: 2
#     Edge 63, Type (0, 0), BuildingBlock: OJICUG_clean_linker_0, # of connection points: 2
#     Edge 64, Type (0, 0), BuildingBlock: OJICUG_clean_linker_0, # of connection points: 2
#     Edge 65, Type (0, 0), BuildingBlock: OJICUG_clean_linker_0, # of connection points: 2
#     Edge 66, Type (0, 0), BuildingBlock: OJICUG_clean_linker_0, # of connection points: 2
#     Edge 67, Type (0, 0), BuildingBlock: OJICUG_clean_linker_0, # of connection points: 2
#     Edge 68, Type (0, 0), BuildingBlock: OJICUG_clean_linker_0, # of connection points: 2
#     Edge 69, Type (0, 0), BuildingBlock: OJICUG_clean_linker_0, # of connection points: 2
#     Edge 70, Type (0, 0), BuildingBlock: OJICUG_clean_linker_0, # of connection points: 2
#     Edge 71, Type (0, 0), BuildingBlock: OJICUG_clean_linker_0, # of connection points: 2
#     Edge 72, Type (0, 0), BuildingBlock: OJICUG_clean_linker_0, # of connection points: 2
#     Edge 73, Type (0, 0), BuildingBlock: OJICUG_clean_linker_0, # of connection points: 2
#     Edge 74, Type (0, 0), BuildingBlock: OJICUG_clean_linker_0, # of connection points: 2
#     Edge 75, Type (0, 0), BuildingBlock: OJICUG_clean_linker_0, # of connection points: 2
#     Edge 76, Type (0, 0), BuildingBlock: OJICUG_clean_linker_0, # of connection points: 2
#     Edge 77, Type (0, 0), BuildingBlock: OJICUG_clean_linker_0, # of connection points: 2
#     Edge 78, Type (0, 0), BuildingBlock: OJICUG_clean_linker_0, # of connection points: 2
#     Edge 79, Type (0, 0), BuildingBlock: OJICUG_clean_linker_0, # of connection points: 2
#     Edge 80, Type (0, 0), BuildingBlock: OJICUG_clean_linker_0, # of connection points: 2
#     Edge 81, Type (0, 0), BuildingBlock: OJICUG_clean_linker_0, # of connection points: 2
#     Edge 82, Type (0, 0), BuildingBlock: OJICUG_clean_linker_0, # of connection points: 2
#     Edge 83, Type (0, 0), BuildingBlock: OJICUG_clean_linker_0, # of connection points: 2
#     Edge 84, Type (0, 0), BuildingBlock: OJICUG_clean_linker_0, # of connection points: 2
#     Edge 85, Type (0, 0), BuildingBlock: OJICUG_clean_linker_0, # of connection points: 2
#     Edge 86, Type (0, 0), BuildingBlock: OJICUG_clean_linker_0, # of connection points: 2
#     Edge 87, Type (0, 0), BuildingBlock: OJICUG_clean_linker_0, # of connection points: 2
#     Edge 88, Type (0, 0), BuildingBlock: OJICUG_clean_linker_0, # of connection points: 2
#     Edge 89, Type (0, 0), BuildingBlock: OJICUG_clean_linker_0, # of connection points: 2
#     Edge 90, Type (0, 0), BuildingBlock: OJICUG_clean_linker_0, # of connection points: 2
#     Edge 91, Type (0, 0), BuildingBlock: OJICUG_clean_linker_0, # of connection points: 2
#     Edge 92, Type (0, 0), BuildingBlock: OJICUG_clean_linker_0, # of connection points: 2
#     Edge 93, Type (0, 0), BuildingBlock: OJICUG_clean_linker_0, # of connection points: 2
#     Edge 94, Type (0, 0), BuildingBlock: OJICUG_clean_linker_0, # of connection points: 2
#     Edge 95, Type (0, 0), BuildingBlock: OJICUG_clean_linker_0, # of connection points: 2
#     Edge 96, Type (0, 0), BuildingBlock: OJICUG_clean_linker_0, # of connection points: 2
#     Edge 97, Type (0, 0), BuildingBlock: OJICUG_clean_linker_0, # of connection points: 2
#     Edge 98, Type (0, 0), BuildingBlock: OJICUG_clean_linker_0, # of connection points: 2
#     Edge 99, Type (0, 0), BuildingBlock: OJICUG_clean_linker_0, # of connection points: 2
#     Edge 100, Type (0, 0), BuildingBlock: OJICUG_clean_linker_0, # of connection points: 2
#     Edge 101, Type (0, 0), BuildingBlock: OJICUG_clean_linker_0, # of connection points: 2
#     Edge 102, Type (0, 0), BuildingBlock: OJICUG_clean_linker_0, # of connection points: 2
#     Edge 103, Type (0, 0), BuildingBlock: OJICUG_clean_linker_0, # of connection points: 2
#     Edge 104, Type (0, 0), BuildingBlock: OJICUG_clean_linker_0, # of connection points: 2
#     Edge 105, Type (0, 0), BuildingBlock: OJICUG_clean_linker_0, # of connection points: 2
#     Edge 106, Type (0, 0), BuildingBlock: OJICUG_clean_linker_0, # of connection points: 2
#     Edge 107, Type (0, 0), BuildingBlock: OJICUG_clean_linker_0, # of connection points: 2
#     Edge 108, Type (0, 0), BuildingBlock: OJICUG_clean_linker_0, # of connection points: 2
#     Edge 109, Type (0, 0), BuildingBlock: OJICUG_clean_linker_0, # of connection points: 2
#     Edge 110, Type (0, 0), BuildingBlock: OJICUG_clean_linker_0, # of connection points: 2
#     Edge 111, Type (0, 0), BuildingBlock: OJICUG_clean_linker_0, # of connection points: 2
#     Edge 112, Type (0, 0), BuildingBlock: OJICUG_clean_linker_0, # of connection points: 2
#     Edge 113, Type (0, 0), BuildingBlock: OJICUG_clean_linker_0, # of connection points: 2
#     Edge 114, Type (0, 0), BuildingBlock: OJICUG_clean_linker_0, # of connection points: 2
#     Edge 115, Type (0, 0), BuildingBlock: OJICUG_clean_linker_0, # of connection points: 2
#     Edge 116, Type (0, 0), BuildingBlock: OJICUG_clean_linker_0, # of connection points: 2
#     Edge 117, Type (0, 0), BuildingBlock: OJICUG_clean_linker_0, # of connection points: 2
#     Edge 118, Type (0, 0), BuildingBlock: OJICUG_clean_linker_0, # of connection points: 2
#     Edge 119, Type (0, 0), BuildingBlock: OJICUG_clean_linker_0, # of connection points: 2
#     Edge 120, Type (0, 0), BuildingBlock: OJICUG_clean_linker_0, # of connection points: 2
#     Edge 121, Type (0, 0), BuildingBlock: OJICUG_clean_linker_0, # of connection points: 2
#     Edge 122, Type (0, 0), BuildingBlock: OJICUG_clean_linker_0, # of connection points: 2
#     Edge 123, Type (0, 0), BuildingBlock: OJICUG_clean_linker_0, # of connection points: 2
#     Edge 124, Type (0, 0), BuildingBlock: OJICUG_clean_linker_0, # of connection points: 2
#     Edge 125, Type (0, 0), BuildingBlock: OJICUG_clean_linker_0, # of connection points: 2
#     Edge 126, Type (0, 0), BuildingBlock: OJICUG_clean_linker_0, # of connection points: 2
#     Edge 127, Type (0, 0), BuildingBlock: OJICUG_clean_linker_0, # of connection points: 2
# Relax obj value: 0.345
# Max RMSD: 0.208
# Mean RMSD: 0.208
data_MOF--net-wir--node1-VOLQOD_clean_sbu_1--edge1-OJICUG_clean_linker_0
_symmetry_space_group_name_H-M    P1
_symmetry_Int_Tables_number       1
_symmetry_cell_setting            triclinic
loop_
_symmetry_equiv_pos_as_xyz
'x, y, z'
_cell_length_a     32.894791
_cell_length_b     32.809467
_cell_length_c     67.210953
_cell_angle_alpha  89.864015
_cell_angle_beta   89.977006
_cell_angle_gamma 89.983343
loop_
_atom_site_label
_atom_site_type_symbol
_atom_site_fract_x
_atom_site_fract_y
_atom_site_fract_z
_atom_type_partial_charge
O0 O 0.07082 0.0759 0.29872 0.0
Zn1 Zn 0.10332 0.11116 0.28075 0.0
O2 O 0.1504 0.13079 0.29504 0.0
Zn3 Zn 0.20203 0.11226 0.28424 0.0
Zn4 Zn 0.14849 0.1178 0.32272 0.0
Zn5 Zn 0.14632 0.1882 0.29312 0.0
O6 O 0.22477 0.15826 0.26648 0.0
O7 O 0.17796 0.2065 0.27053 0.0
O8 O 0.12249 0.07487 0.25865 0.0
O9 O 0.18857 0.06614 0.26527 0.0
O10 O 0.24109 0.09146 0.30706 0.0
O11 O 0.19674 0.08779 0.3319 0.0
O12 O 0.15168 0.1675 0.33964 0.0
O13 O 0.06213 0.15616 0.27329 0.0
O14 O 0.17016 0.21287 0.31691 0.0
O15 O 0.08928 0.20873 0.28909 0.0
C16 C 0.07246 0.06921 0.31731 0.0
C17 C 0.20927 0.19286 0.26183 0.0
C18 C 0.23227 0.08218 0.32515 0.0
C19 C 0.15642 0.05694 0.25556 0.0
C20 C 0.16715 0.2017 0.33493 0.0
C21 C 0.05984 0.19282 0.27961 0.0
O22 O 0.09981 0.08479 0.3283 0.0
O23 O 0.1539 0.82843 0.55001 0.0
Zn24 Zn 0.1174 0.85783 0.53134 0.0
O25 O 0.09631 0.90573 0.54456 0.0
Zn26 Zn 0.11491 0.95712 0.5332 0.0
Zn27 Zn 0.10749 0.90548 0.5724 0.0
Zn28 Zn 0.0392 0.90077 0.54218 0.0
O29 O 0.0692 0.97884 0.51492 0.0
O30 O 0.02168 0.93132 0.51912 0.0
O31 O 0.15325 0.87605 0.5088 0.0
O32 O 0.16122 0.9427 0.51454 0.0
O33 O 0.13562 -0.00251 0.55558 0.0
O34 O 0.13533 0.95495 0.58128 0.0
O35 O 0.05712 0.90747 0.58869 0.0
O36 O 0.07351 0.81478 0.52465 0.0
O37 O 0.01292 0.92532 0.56541 0.0
O38 O 0.01951 0.84317 0.53863 0.0
C39 C 0.16003 0.8318 0.56859 0.0
C40 C 0.03509 0.96258 0.5102 0.0
C41 C 0.14273 0.98981 0.57402 0.0
C42 C 0.17083 0.91006 0.50528 0.0
C43 C 0.02309 0.92254 0.58356 0.0
C44 C 0.03637 0.81284 0.53023 0.0
O45 O 0.14248 0.85888 0.57901 0.0
O46 O 0.40704 0.9024 0.79739 0.0
Zn47 Zn 0.37135 0.86857 0.78014 0.0
O48 O 0.32511 0.8516 0.79576 0.0
Zn49 Zn 0.27339 0.86855 0.78501 0.0
Zn50 Zn 0.32822 0.86652 0.82304 0.0
Zn51 Zn 0.32974 0.79459 0.79541 0.0
O52 O 0.25266 0.82128 0.76761 0.0
O53 O 0.30064 0.77424 0.77223 0.0
O54 O 0.35137 0.90548 0.75842 0.0
O55 O 0.28565 0.91463 0.76569 0.0
O56 O 0.23462 0.88906 0.80798 0.0
O57 O 0.28054 0.89773 0.83186 0.0
O58 O 0.32464 0.81802 0.84106 0.0
O59 O 0.40943 0.82156 0.77164 0.0
O60 O 0.30362 0.77221 0.81923 0.0
O61 O 0.38802 0.77614 0.79375 0.0
C62 C 0.40598 0.9114 0.81576 0.0
C63 C 0.26931 0.78711 0.76317 0.0
C64 C 0.24432 0.90089 0.82558 0.0
C65 C 0.31746 0.92365 0.75564 0.0
C66 C 0.30745 0.7843 0.83704 0.0
C67 C 0.41461 0.78845 0.78137 0.0
O68 O 0.37793 0.89878 0.82728 0.0
O69 O 0.32785 0.15042 0.05106 0.0
Zn70 Zn 0.36309 0.12031 0.0322 0.0
O71 O 0.38393 0.07209 0.04538 0.0
Zn72 Zn 0.36443 0.02114 0.03394 0.0
Zn73 Zn 0.37264 0.07205 0.07324 0.0
Zn74 Zn 0.44119 0.07675 0.04285 0.0
O75 O 0.40963 -0.00069 0.01534 0.0
O76 O 0.45806 0.04579 0.01983 0.0
O77 O 0.32639 0.10302 0.00998 0.0
O78 O 0.31804 0.03633 0.01547 0.0
O79 O 0.34276 0.98089 0.05628 0.0
O80 O 0.3432 0.02327 0.08196 0.0
O81 O 0.42294 0.06841 0.0895 0.0
O82 O 0.40706 0.16265 0.02493 0.0
O83 O 0.46779 0.05249 0.06619 0.0
O84 O 0.46121 0.13435 0.03884 0.0
C85 C 0.32219 0.14726 0.06969 0.0
C86 C 0.44404 0.01513 0.0107 0.0
C87 C 0.33523 0.98864 0.07467 0.0
C88 C 0.30849 0.06927 0.0064 0.0
C89 C 0.45735 0.05433 0.08434 0.0
C90 C 0.44429 0.16458 0.0303 0.0
O91 O 0.33922 0.11966 0.08005 0.0
O92 O 0.0759 0.90441 0.15632 0.0
Zn93 Zn 0.10724 0.86837 0.17435 0.0
O94 O 0.15472 0.84884 0.16036 0.0
Zn95 Zn 0.20586 0.86797 0.17154 0.0
Zn96 Zn 0.1535 0.86178 0.13266 0.0
Zn97 Zn 0.15054 0.79139 0.16225 0.0
O98 O 0.22801 0.82214 0.18962 0.0
O99 O 0.18207 0.77331 0.1849 0.0
O100 O 0.12539 0.90417 0.19671 0.0
O101 O 0.19136 0.91426 0.19035 0.0
O102 O 0.24571 0.88879 0.14894 0.0
O103 O 0.20236 0.8909 0.12367 0.0
O104 O 0.15601 0.81204 0.11576 0.0
O105 O 0.06574 0.82354 0.18151 0.0
O106 O 0.17462 0.76674 0.1385 0.0
O107 O 0.09341 0.77056 0.16627 0.0
C108 C 0.07834 0.91177 0.1378 0.0
C109 C 0.21276 0.78728 0.19398 0.0
C110 C 0.23754 0.89722 0.13068 0.0
C111 C 0.15885 0.92278 0.19994 0.0
C112 C 0.17153 0.77785 0.12048 0.0
C113 C 0.06367 0.78667 0.17548 0.0
O114 O 0.10574 0.89598 0.1269 0.0
O115 O 0.32552 0.82905 0.40593 0.0
Zn116 Zn 0.36056 0.86076 0.42426 0.0
O117 O 0.38002 0.90876 0.4104 0.0
Zn118 Zn 0.36047 0.95968 0.42184 0.0
Zn119 Zn 0.3673 0.90791 0.38268 0.0
Zn120 Zn 0.43746 0.90498 0.41209 0.0
O121 O 0.40605 0.98195 0.44 0.0
O122 O 0.45529 0.93674 0.43462 0.0
O123 O 0.32391 0.87817 0.44653 0.0
O124 O 0.3145 0.94456 0.44063 0.0
O125 O 0.33825 -0.00051 0.39953 0.0
O126 O 0.33749 0.95657 0.37406 0.0
O127 O 0.4167 0.91105 0.3656 0.0
O128 O 0.40571 0.81988 0.43174 0.0
O129 O 0.46234 0.92875 0.38819 0.0
O130 O 0.45848 0.84793 0.41647 0.0
C131 C 0.31824 0.83196 0.38743 0.0
C132 C 0.44112 0.96695 0.44404 0.0
C133 C 0.33 -0.00861 0.38127 0.0
C134 C 0.30554 0.91174 0.44995 0.0
C135 C 0.4511 0.92595 0.3702 0.0
C136 C 0.44262 0.81815 0.42583 0.0
O137 O 0.33367 0.85994 0.37671 0.0
O138 O 0.39834 0.07591 0.65638 0.0
Zn139 Zn 0.36661 0.11217 0.67413 0.0
O140 O 0.31937 0.13148 0.6599 0.0
Zn141 Zn 0.2681 0.11266 0.67116 0.0
Zn142 Zn 0.32097 0.11791 0.63231 0.0
Zn143 Zn 0.32358 0.18897 0.66124 0.0
O144 O 0.2465 0.15865 0.68925 0.0
O145 O 0.29208 0.20753 0.68375 0.0
O146 O 0.34809 0.07657 0.69657 0.0
O147 O 0.28224 0.06628 0.69008 0.0
O148 O 0.22828 0.09187 0.64857 0.0
O149 O 0.27213 0.08888 0.62351 0.0
O150 O 0.31868 0.16714 0.61495 0.0
O151 O 0.40763 0.15726 0.68139 0.0
O152 O 0.2996 0.21296 0.63723 0.0
O153 O 0.3807 0.20982 0.66538 0.0
C154 C 0.39591 0.06786 0.63795 0.0
C155 C 0.2618 0.19365 0.69322 0.0
C156 C 0.23678 0.08298 0.63041 0.0
C157 C 0.31465 0.05789 0.69979 0.0
C158 C 0.30285 0.20133 0.61932 0.0
C159 C 0.40997 0.19397 0.67508 0.0
O160 O 0.36854 0.08328 0.62689 0.0
O161 O 0.15605 0.15414 0.90726 0.0
Zn162 Zn 0.1201 0.12267 0.92536 0.0
O163 O 0.10037 0.0751 0.9114 0.0
Zn164 Zn 0.11905 0.0237 0.9227 0.0
Zn165 Zn 0.11329 0.07637 0.88371 0.0
Zn166 Zn 0.04307 0.07927 0.91307 0.0
O167 O 0.07309 0.00131 0.94057 0.0
O168 O 0.02468 0.04761 0.93563 0.0
O169 O 0.1559 0.10426 0.9478 0.0
O170 O 0.16484 0.03792 0.94164 0.0
O171 O 0.14068 0.98402 0.90034 0.0
O172 O 0.14231 0.02737 0.87495 0.0
O173 O 0.06391 0.07401 0.86662 0.0
O174 O 0.07527 0.16413 0.93252 0.0
O175 O 0.01849 0.05545 0.88922 0.0
O176 O 0.02251 0.13643 0.91715 0.0
C177 C 0.16346 0.15151 0.88877 0.0
C178 C 0.03832 0.01675 0.94479 0.0
C179 C 0.14906 -0.00773 0.88209 0.0
C180 C 0.17388 0.0704 0.95115 0.0
C181 C 0.02972 0.05858 0.87122 0.0
C182 C 0.03849 0.16614 0.92644 0.0
O183 O 0.14765 0.12402 0.87794 0.0
O184 O 0.89941 0.90412 0.6551 0.0
Zn185 Zn 0.87015 0.86827 0.67407 0.0
O186 O 0.82202 0.8471 0.66119 0.0
Zn187 Zn 0.77116 0.86677 0.67261 0.0
Zn188 Zn 0.8218 0.85797 0.63329 0.0
Zn189 Zn 0.82684 0.78979 0.66407 0.0
O190 O 0.74905 0.82167 0.6912 0.0
O191 O 0.79579 0.7733 0.68718 0.0
O192 O 0.8529 0.90462 0.69639 0.0
O193 O 0.78639 0.91334 0.69099 0.0
O194 O 0.7308 0.88779 0.65027 0.0
O195 O 0.77275 0.88664 0.62444 0.0
O196 O 0.81866 0.80724 0.61734 0.0
O197 O 0.91294 0.82453 0.68113 0.0
O198 O 0.8025 0.76285 0.64093 0.0
O199 O 0.88436 0.76973 0.66801 0.0
C200 C 0.89604 0.90966 0.63647 0.0
C201 C 0.76485 0.78733 0.69607 0.0
C202 C 0.73822 0.89465 0.63178 0.0
C203 C 0.81931 0.92268 0.70003 0.0
C204 C 0.80437 0.77295 0.62273 0.0
C205 C 0.91477 0.78702 0.67611 0.0
O206 O 0.86876 0.89204 0.62623 0.0
O207 O 0.82099 0.15706 0.40853 0.0
Zn208 Zn 0.85754 0.12451 0.42586 0.0
O209 O 0.87646 0.07765 0.41115 0.0
Zn210 Zn 0.85834 0.02574 0.422 0.0
Zn211 Zn 0.86251 0.08025 0.38361 0.0
Zn212 Zn 0.93373 0.0816 0.41235 0.0
O213 O 0.90471 0.00307 0.43948 0.0
O214 O 0.95297 0.04954 0.43462 0.0
O215 O 0.82254 0.10485 0.44837 0.0
O216 O 0.81263 0.03902 0.44128 0.0
O217 O 0.83751 0.98667 0.3992 0.0
O218 O 0.83363 0.03138 0.37443 0.0
O219 O 0.91147 0.07883 0.36608 0.0
O220 O 0.90283 0.16559 0.43292 0.0
O221 O 0.95696 0.05803 0.38818 0.0
O222 O 0.95455 0.1386 0.41642 0.0
C223 C 0.8127 0.15529 0.3901 0.0
C224 C 0.93954 0.01839 0.44363 0.0
C225 C 0.82828 -0.00435 0.38112 0.0
C226 C 0.80423 0.07101 0.45134 0.0
C227 C 0.94537 0.06228 0.3703 0.0
C228 C 0.93918 0.1679 0.42626 0.0
O229 O 0.82784 0.1282 0.37879 0.0
O230 O 0.58152 0.07715 0.15514 0.0
Zn231 Zn 0.61166 0.11313 0.17369 0.0
O232 O 0.65962 0.1335 0.1603 0.0
Zn233 Zn 0.71043 0.11425 0.17193 0.0
Zn234 Zn 0.65939 0.12149 0.13254 0.0
Zn235 Zn 0.65514 0.19094 0.16224 0.0
O236 O 0.73167 0.15981 0.19047 0.0
O237 O 0.68582 0.20854 0.18515 0.0
O238 O 0.62904 0.07687 0.19615 0.0
O239 O 0.69539 0.06774 0.19051 0.0
O240 O 0.75087 0.09293 0.14969 0.0
O241 O 0.70853 0.09283 0.12399 0.0
O242 O 0.66198 0.17148 0.11582 0.0
O243 O 0.56982 0.15767 0.18076 0.0
O244 O 0.67955 0.2166 0.1387 0.0
O245 O 0.59783 0.21132 0.16612 0.0
C246 C 0.58496 0.07024 0.13663 0.0
C247 C 0.71599 0.19456 0.19466 0.0
C248 C 0.7432 0.08535 0.1313 0.0
C249 C 0.66258 0.05862 0.19971 0.0
C250 C 0.6769 0.20579 0.12065 0.0
C251 C 0.56789 0.19481 0.17504 0.0
O252 O 0.61252 0.08681 0.12611 0.0
O253 O 0.65343 0.82269 0.90836 0.0
Zn254 Zn 0.61817 0.85704 0.92543 0.0
O255 O 0.60018 0.90382 0.9103 0.0
Zn256 Zn 0.61859 0.95546 0.92116 0.0
Zn257 Zn 0.61552 0.90075 0.88291 0.0
Zn258 Zn 0.54272 0.90073 0.91102 0.0
O259 O 0.57247 0.9781 0.93875 0.0
O260 O 0.52306 0.93335 0.93307 0.0
O261 O 0.65397 0.87633 0.94763 0.0
O262 O 0.66432 0.94202 0.94033 0.0
O263 O 0.63999 -0.00567 0.89843 0.0
O264 O 0.64561 0.94925 0.87397 0.0
O265 O 0.56738 0.90275 0.86486 0.0
O266 O 0.57212 0.81757 0.93309 0.0
O267 O 0.52063 0.92362 0.8863 0.0
O268 O 0.52138 0.84396 0.91557 0.0
C269 C 0.66261 0.82405 0.89002 0.0
C270 C 0.53709 0.96361 0.9425 0.0
C271 C 0.65044 0.98509 0.88057 0.0
C272 C 0.67262 0.90999 0.95042 0.0
C273 C 0.53318 0.91914 0.86858 0.0
C274 C 0.53607 0.8152 0.92609 0.0
O275 O 0.64924 0.85181 0.87851 0.0
O276 O 0.9051 0.07478 0.79968 0.0
Zn277 Zn 0.87358 0.11037 0.7814 0.0
O278 O 0.82602 0.13045 0.79525 0.0
Zn279 Zn 0.77473 0.11165 0.7841 0.0
Zn280 Zn 0.82706 0.11764 0.82298 0.0
Zn281 Zn 0.83014 0.18793 0.79325 0.0
O282 O 0.75186 0.15769 0.76641 0.0
O283 O 0.79832 0.20616 0.77068 0.0
O284 O 0.85526 0.07431 0.75908 0.0
O285 O 0.78891 0.06605 0.76506 0.0
O286 O 0.73536 0.08955 0.80645 0.0
O287 O 0.77853 0.08783 0.8318 0.0
O288 O 0.82391 0.16728 0.83986 0.0
O289 O 0.91502 0.15513 0.77407 0.0
O290 O 0.80662 0.21301 0.81707 0.0
O291 O 0.88719 0.2084 0.78902 0.0
C292 C 0.90264 0.06809 0.81826 0.0
C293 C 0.76718 0.19243 0.76188 0.0
C294 C 0.74359 0.08092 0.82466 0.0
C295 C 0.82135 0.05671 0.75563 0.0
C296 C 0.80917 0.20177 0.8351 0.0
C297 C 0.91697 0.19212 0.77992 0.0
O298 O 0.8751 0.08408 0.82898 0.0
O299 O 0.65107 0.15205 0.55125 0.0
Zn300 Zn 0.61586 0.12085 0.53281 0.0
O301 O 0.59579 0.07299 0.54648 0.0
Zn302 Zn 0.61471 0.02182 0.53509 0.0
Zn303 Zn 0.6082 0.07356 0.57422 0.0
Zn304 Zn 0.53849 0.0775 0.54458 0.0
O305 O 0.56907 0.00042 0.51672 0.0
O306 O 0.52058 0.04658 0.52178 0.0
O307 O 0.65241 0.10294 0.51063 0.0
O308 O 0.66118 0.03639 0.51645 0.0
O309 O 0.63554 0.98149 0.55757 0.0
O310 O 0.63761 0.02472 0.5829 0.0
O311 O 0.55851 0.07012 0.59106 0.0
O312 O 0.57127 0.16242 0.52536 0.0
O313 O 0.51325 0.05304 0.56817 0.0
O314 O 0.51814 0.13489 0.54056 0.0
C315 C 0.65779 0.14919 0.5698 0.0
C316 C 0.53441 0.01611 0.51245 0.0
C317 C 0.64408 0.98958 0.57581 0.0
C318 C 0.67047 0.06921 0.50718 0.0
C319 C 0.52426 0.05521 0.58622 0.0
C320 C 0.5344 0.16459 0.53129 0.0
O321 O 0.64179 0.12141 0.58045 0.0
O322 O 0.57635 0.90558 0.29913 0.0
Zn323 Zn 0.60824 0.86994 0.28107 0.0
O324 O 0.65568 0.85015 0.29512 0.0
Zn325 Zn 0.70704 0.86877 0.28391 0.0
Zn326 Zn 0.65426 0.86329 0.32276 0.0
Zn327 Zn 0.65163 0.79264 0.29359 0.0
O328 O 0.72914 0.82272 0.26592 0.0
O329 O 0.68299 0.7742 0.27095 0.0
O330 O 0.62675 0.90614 0.2587 0.0
O331 O 0.69295 0.91477 0.26493 0.0
O332 O 0.74649 0.89054 0.30638 0.0
O333 O 0.7027 0.89303 0.33149 0.0
O334 O 0.65734 0.81395 0.33996 0.0
O335 O 0.56717 0.82484 0.27379 0.0
O336 O 0.67557 0.76808 0.31753 0.0
O337 O 0.59452 0.77213 0.28955 0.0
C338 C 0.57876 0.91277 0.31765 0.0
C339 C 0.71363 0.78793 0.2617 0.0
C340 C 0.73788 0.89951 0.32451 0.0
C341 C 0.6606 0.92403 0.25539 0.0
C342 C 0.67268 0.7796 0.33548 0.0
C343 C 0.56503 0.78807 0.28006 0.0
O344 O 0.60629 0.89708 0.32852 0.0
O345 O 0.82454 0.82647 0.04912 0.0
Zn346 Zn 0.86086 0.85785 0.03123 0.0
O347 O 0.88063 0.90511 0.04529 0.0
Zn348 Zn 0.8624 0.95676 0.03415 0.0
Zn349 Zn 0.86758 0.9036 0.07293 0.0
Zn350 Zn 0.93782 0.9005 0.0436 0.0
O351 O 0.90841 0.97843 0.01609 0.0
O352 O 0.9564 0.93163 0.0209 0.0
O353 O 0.82536 0.87681 0.00887 0.0
O354 O 0.81598 0.94299 0.01536 0.0
O355 O 0.84235 -0.00327 0.05683 0.0
O356 O 0.83902 0.95273 0.08191 0.0
O357 O 0.91707 0.90568 0.08996 0.0
O358 O 0.90537 0.81599 0.02415 0.0
O359 O 0.96221 0.92479 0.06732 0.0
O360 O 0.95803 0.84309 0.03984 0.0
C361 C 0.81709 0.82881 0.06762 0.0
C362 C 0.94295 0.96261 0.01177 0.0
C363 C 0.83356 0.98829 0.07502 0.0
C364 C 0.80711 0.9106 0.00572 0.0
C365 C 0.95105 0.92156 0.08532 0.0
C366 C 0.94196 0.81354 0.03047 0.0
O367 O 0.83302 0.85601 0.07858 0.0
O368 O 0.57073 0.58084 0.79812 0.0
Zn369 Zn 0.60637 0.61481 0.78087 0.0
O370 O 0.65337 0.63009 0.79634 0.0
Zn371 Zn 0.70433 0.61197 0.78525 0.0
Zn372 Zn 0.65041 0.61473 0.8236 0.0
Zn373 Zn 0.65051 0.68712 0.79625 0.0
O374 O 0.72585 0.65876 0.76775 0.0
O375 O 0.67984 0.70733 0.7731 0.0
O376 O 0.6249 0.57802 0.75884 0.0
O377 O 0.69025 0.56633 0.76609 0.0
O378 O 0.74343 0.59088 0.80792 0.0
O379 O 0.69839 0.58372 0.83234 0.0
O380 O 0.65357 0.663 0.8417 0.0
O381 O 0.56905 0.66307 0.77292 0.0
O382 O 0.6773 0.70814 0.82012 0.0
O383 O 0.59295 0.70749 0.79474 0.0
C384 C 0.57231 0.57055 0.81634 0.0
C385 C 0.71032 0.69365 0.76368 0.0
C386 C 0.73428 0.57976 0.82573 0.0
C387 C 0.65811 0.5586 0.75606 0.0
C388 C 0.6721 0.69616 0.83789 0.0
C389 C 0.56521 0.69619 0.78276 0.0
O390 O 0.60086 0.58214 0.82779 0.0
O391 O 0.65448 0.32992 0.04942 0.0
Zn392 Zn 0.61805 0.36005 0.03104 0.0
O393 O 0.59765 0.40793 0.0445 0.0
Zn394 Zn 0.61663 0.45918 0.03307 0.0
Zn395 Zn 0.60973 0.40729 0.07226 0.0
Zn396 Zn 0.5404 0.40329 0.0424 0.0
O397 O 0.57098 0.48095 0.01468 0.0
O398 O 0.52276 0.43434 0.01946 0.0
O399 O 0.65376 0.37792 0.00853 0.0
O400 O 0.66296 0.44432 0.01445 0.0
O401 O 0.63783 0.49939 0.05548 0.0
O402 O 0.63821 0.45649 0.08105 0.0
O403 O 0.55984 0.40968 0.08889 0.0
O404 O 0.57392 0.31763 0.02422 0.0
O405 O 0.51492 0.42766 0.06594 0.0
O406 O 0.52028 0.3457 0.03867 0.0
C407 C 0.66129 0.333 0.06795 0.0
C408 C 0.5365 0.46511 0.01024 0.0
C409 C 0.64546 0.49144 0.07386 0.0
C410 C 0.67199 0.4116 0.00512 0.0
C411 C 0.5257 0.42489 0.08401 0.0
C412 C 0.53691 0.31558 0.02996 0.0
O413 O 0.64447 0.36024 0.07857 0.0
O414 O 0.90058 0.40538 0.29946 0.0
Zn415 Zn 0.86797 0.36953 0.28189 0.0
O416 O 0.82088 0.35067 0.29638 0.0
Zn417 Zn 0.76951 0.3692 0.28519 0.0
Zn418 Zn 0.82278 0.36494 0.32387 0.0
Zn419 Zn 0.82482 0.29314 0.29536 0.0
O420 O 0.74784 0.32298 0.26727 0.0
O421 O 0.79332 0.27409 0.27294 0.0
O422 O 0.84923 0.40528 0.2595 0.0
O423 O 0.78338 0.41532 0.26613 0.0
O424 O 0.72996 0.39038 0.30777 0.0
O425 O 0.77432 0.3948 0.33256 0.0
O426 O 0.8198 0.31622 0.34156 0.0
O427 O 0.90835 0.32398 0.27448 0.0
O428 O 0.80072 0.2699 0.31953 0.0
O429 O 0.88183 0.27212 0.29123 0.0
C430 C 0.89848 0.41367 0.31787 0.0
C431 C 0.76307 0.28789 0.26342 0.0
C432 C 0.7388 0.40015 0.32578 0.0
C433 C 0.81567 0.4238 0.25635 0.0
C434 C 0.80378 0.28203 0.33737 0.0
C435 C 0.91081 0.28752 0.28114 0.0
O436 O 0.87093 0.39891 0.32904 0.0
O437 O 0.82514 0.64854 0.55204 0.0
Zn438 Zn 0.86104 0.61876 0.53334 0.0
O439 O 0.88138 0.57043 0.54659 0.0
Zn440 Zn 0.86168 0.51973 0.53492 0.0
Zn441 Zn 0.86973 0.57031 0.57442 0.0
Zn442 Zn 0.93872 0.57488 0.54443 0.0
O443 O 0.90717 0.49794 0.5165 0.0
O444 O 0.95599 0.54373 0.52161 0.0
O445 O 0.82486 0.60188 0.51085 0.0
O446 O 0.81559 0.53531 0.51626 0.0
O447 O 0.83958 0.47932 0.5571 0.0
O448 O 0.84084 0.52114 0.58299 0.0
O449 O 0.91974 0.56757 0.591 0.0
O450 O 0.90538 0.66088 0.52627 0.0
O451 O 0.96473 0.55074 0.56792 0.0
O452 O 0.95923 0.63226 0.54029 0.0
C453 C 0.81849 0.64493 0.57057 0.0
C454 C 0.94193 0.51341 0.51224 0.0
C455 C 0.83246 0.48674 0.57556 0.0
C456 C 0.80662 0.56838 0.50716 0.0
C457 C 0.95414 0.55316 0.58603 0.0
C458 C 0.94262 0.66254 0.53165 0.0
O459 O 0.83526 0.61729 0.58101 0.0
O460 O 0.57231 0.40498 0.65731 0.0
Zn461 Zn 0.60371 0.36939 0.67557 0.0
O462 O 0.65109 0.34915 0.66169 0.0
Zn463 Zn 0.70258 0.36773 0.67262 0.0
Zn464 Zn 0.64985 0.36146 0.63393 0.0
Zn465 Zn 0.64665 0.29181 0.6639 0.0
O466 O 0.72477 0.32193 0.69073 0.0
O467 O 0.67777 0.27388 0.68674 0.0
O468 O 0.6225 0.40579 0.69771 0.0
O469 O 0.68873 0.41425 0.69133 0.0
O470 O 0.74227 0.38797 0.64986 0.0
O471 O 0.69854 0.39066 0.62476 0.0
O472 O 0.65271 0.31134 0.61736 0.0
O473 O 0.5618 0.32484 0.68283 0.0
O474 O 0.67085 0.26643 0.64036 0.0
O475 O 0.58939 0.27163 0.66772 0.0
C476 C 0.57455 0.41139 0.6387 0.0
C477 C 0.709 0.28753 0.69549 0.0
C478 C 0.7339 0.39657 0.63164 0.0
C479 C 0.6564 0.42369 0.70086 0.0
C480 C 0.66801 0.27718 0.62228 0.0
C481 C 0.5596 0.28797 0.67679 0.0
O482 O 0.60185 0.39512 0.62792 0.0
O483 O 0.82683 0.32671 0.90634 0.0
Zn484 Zn 0.86184 0.35846 0.92469 0.0
O485 O 0.88166 0.40626 0.91081 0.0
Zn486 Zn 0.86272 0.45744 0.92212 0.0
Zn487 Zn 0.86894 0.40543 0.8831 0.0
Zn488 Zn 0.93899 0.40222 0.91258 0.0
O489 O 0.9083 0.47951 0.94026 0.0
O490 O 0.95699 0.43356 0.93523 0.0
O491 O 0.82515 0.37646 0.94688 0.0
O492 O 0.81671 0.44295 0.94085 0.0
O493 O 0.84085 0.49725 0.89982 0.0
O494 O 0.83905 0.45404 0.87447 0.0
O495 O 0.91838 0.4089 0.86611 0.0
O496 O 0.90679 0.31733 0.93219 0.0
O497 O 0.96396 0.42628 0.8888 0.0
O498 O 0.95956 0.34503 0.91675 0.0
C499 C 0.81992 0.32944 0.8878 0.0
C500 C 0.94307 0.46409 0.9445 0.0
C501 C 0.83214 0.48903 0.88162 0.0
C502 C 0.80726 0.41035 0.95022 0.0
C503 C 0.95273 0.4238 0.87079 0.0
C504 C 0.9436 0.31535 0.92614 0.0
O505 O 0.83557 0.35732 0.87709 0.0
O506 O 0.90148 0.575 0.15705 0.0
Zn507 Zn 0.86978 0.61135 0.17479 0.0
O508 O 0.82274 0.6311 0.16051 0.0
Zn509 Zn 0.77104 0.61292 0.17149 0.0
Zn510 Zn 0.82456 0.61786 0.1329 0.0
Zn511 Zn 0.82724 0.68849 0.1621 0.0
O512 O 0.74933 0.65908 0.18953 0.0
O513 O 0.7961 0.70712 0.18476 0.0
O514 O 0.85052 0.57579 0.19717 0.0
O515 O 0.78456 0.56656 0.19047 0.0
O516 O 0.73152 0.59235 0.14868 0.0
O517 O 0.77586 0.58878 0.12384 0.0
O518 O 0.82221 0.6674 0.11577 0.0
O519 O 0.91137 0.65615 0.18193 0.0
O520 O 0.8031 0.71284 0.13824 0.0
O521 O 0.88451 0.70881 0.16596 0.0
C522 C 0.89944 0.56763 0.13854 0.0
C523 C 0.7652 0.69364 0.19389 0.0
C524 C 0.74031 0.58324 0.13057 0.0
C525 C 0.81671 0.55766 0.20027 0.0
C526 C 0.80635 0.7015 0.12028 0.0
C527 C 0.91388 0.69278 0.17551 0.0
O528 O 0.87237 0.58353 0.12746 0.0
O529 O 0.65507 0.65613 0.40754 0.0
Zn530 Zn 0.61912 0.62492 0.42581 0.0
O531 O 0.5988 0.57742 0.41198 0.0
Zn532 Zn 0.617 0.52572 0.42311 0.0
Zn533 Zn 0.61126 0.57859 0.38425 0.0
Zn534 Zn 0.54157 0.58193 0.41385 0.0
O535 O 0.57101 0.50367 0.44111 0.0
O536 O 0.52317 0.55071 0.43656 0.0
O537 O 0.65508 0.60595 0.44816 0.0
O538 O 0.6631 0.53946 0.44198 0.0
O539 O 0.63771 0.48587 0.40056 0.0
O540 O 0.63981 0.52949 0.3753 0.0
O541 O 0.5616 0.57646 0.3674 0.0
O542 O 0.57452 0.66687 0.43295 0.0
O543 O 0.51655 0.5579 0.39017 0.0
O544 O 0.52152 0.63924 0.41775 0.0
C545 C 0.66197 0.65341 0.38899 0.0
C546 C 0.53657 0.51954 0.44556 0.0
C547 C 0.64605 0.49418 0.38231 0.0
C548 C 0.67263 0.57182 0.45148 0.0
C549 C 0.52751 0.56099 0.37214 0.0
C550 C 0.53771 0.669 0.4269 0.0
O551 O 0.64569 0.62601 0.37828 0.0
O552 O 0.40283 0.40625 0.15585 0.0
Zn553 Zn 0.37325 0.3698 0.17449 0.0
O554 O 0.32547 0.34876 0.16122 0.0
Zn555 Zn 0.27431 0.36777 0.17249 0.0
Zn556 Zn 0.32581 0.36013 0.13337 0.0
Zn557 Zn 0.33021 0.29143 0.16379 0.0
O558 O 0.25203 0.32205 0.1906 0.0
O559 O 0.29908 0.27396 0.1867 0.0
O560 O 0.35523 0.40557 0.19698 0.0
O561 O 0.28879 0.41393 0.19125 0.0
O562 O 0.23427 0.38889 0.1501 0.0
O563 O 0.27653 0.38833 0.12439 0.0
O564 O 0.32383 0.30963 0.11711 0.0
O565 O 0.416 0.32583 0.18137 0.0
O566 O 0.30635 0.26507 0.1404 0.0
O567 O 0.38757 0.2715 0.1677 0.0
C568 C 0.39963 0.41236 0.13726 0.0
C569 C 0.26783 0.28769 0.19543 0.0
C570 C 0.24185 0.39597 0.13165 0.0
C571 C 0.3214 0.42328 0.20054 0.0
C572 C 0.30915 0.27534 0.12225 0.0
C573 C 0.41785 0.2885 0.17603 0.0
O574 O 0.37255 0.39494 0.12681 0.0
O575 O 0.32343 0.65822 0.90808 0.0
Zn576 Zn 0.35882 0.62426 0.9254 0.0
O577 O 0.37758 0.57754 0.91055 0.0
Zn578 Zn 0.35988 0.52556 0.92146 0.0
Zn579 Zn 0.36248 0.58034 0.88313 0.0
Zn580 Zn 0.43496 0.5813 0.91139 0.0
O581 O 0.40625 0.50336 0.9391 0.0
O582 O 0.45495 0.54897 0.93352 0.0
O583 O 0.32304 0.60446 0.94755 0.0
O584 O 0.31384 0.53847 0.94058 0.0
O585 O 0.33955 0.48638 0.89866 0.0
O586 O 0.33321 0.53151 0.87418 0.0
O587 O 0.41077 0.57877 0.86521 0.0
O588 O 0.40439 0.66429 0.93306 0.0
O589 O 0.45748 0.55843 0.88682 0.0
O590 O 0.45562 0.63826 0.91579 0.0
C591 C 0.31461 0.65664 0.88971 0.0
C592 C 0.44138 0.51835 0.94291 0.0
C593 C 0.32917 0.4955 0.88076 0.0
C594 C 0.30496 0.5705 0.9505 0.0
C595 C 0.44502 0.56261 0.86907 0.0
C596 C 0.44052 0.66694 0.92615 0.0
O597 O 0.32842 0.62887 0.87839 0.0
O598 O 0.07936 0.57655 0.65665 0.0
Zn599 Zn 0.10973 0.61277 0.67497 0.0
O600 O 0.15747 0.63316 0.66139 0.0
Zn601 Zn 0.20863 0.61369 0.67257 0.0
Zn602 Zn 0.15651 0.6213 0.63362 0.0
Zn603 Zn 0.1532 0.69057 0.66365 0.0
O604 O 0.23116 0.65906 0.69084 0.0
O605 O 0.18466 0.70759 0.68654 0.0
O606 O 0.12766 0.57676 0.69742 0.0
O607 O 0.19383 0.56744 0.69128 0.0
O608 O 0.24821 0.59199 0.65006 0.0
O609 O 0.2052 0.59222 0.62464 0.0
O610 O 0.15925 0.67147 0.6171 0.0
O611 O 0.06759 0.65713 0.68193 0.0
O612 O 0.1773 0.71635 0.64003 0.0
O613 O 0.09582 0.71102 0.66762 0.0
C614 C 0.0821 0.57012 0.63808 0.0
C615 C 0.21553 0.69357 0.69551 0.0
C616 C 0.24001 0.58447 0.63173 0.0
C617 C 0.16128 0.55845 0.70074 0.0
C618 C 0.17441 0.70566 0.62196 0.0
C619 C 0.06567 0.69433 0.67629 0.0
O620 O 0.10917 0.58705 0.62738 0.0
O621 O 0.15124 0.32728 0.40595 0.0
Zn622 Zn 0.11638 0.35958 0.42415 0.0
O623 O 0.09694 0.40726 0.41009 0.0
Zn624 Zn 0.11571 0.45851 0.42137 0.0
Zn625 Zn 0.1101 0.40613 0.38243 0.0
Zn626 Zn 0.03958 0.40326 0.41164 0.0
O627 O 0.06993 0.48026 0.43955 0.0
O628 O 0.0212 0.43453 0.43424 0.0
O629 O 0.15307 0.37776 0.44626 0.0
O630 O 0.16192 0.44418 0.44014 0.0
O631 O 0.13695 0.4984 0.39888 0.0
O632 O 0.14008 0.45466 0.37377 0.0
O633 O 0.06088 0.4097 0.36524 0.0
O634 O 0.07118 0.31882 0.43177 0.0
O635 O 0.01514 0.42749 0.3878 0.0
O636 O 0.01885 0.34613 0.4158 0.0
C637 C 0.15848 0.32976 0.38743 0.0
C638 C 0.03506 0.46489 0.44364 0.0
C639 C 0.14617 0.48996 0.38076 0.0
C640 C 0.17116 0.41154 0.44956 0.0
C641 C 0.0266 0.42493 0.36982 0.0
C642 C 0.03454 0.3167 0.4255 0.0
O643 O 0.14332 0.35774 0.3766 0.0
O644 O 0.40357 0.57655 0.30044 0.0
Zn645 Zn 0.3724 0.61182 0.2819 0.0
O646 O 0.32461 0.63202 0.29548 0.0
Zn647 Zn 0.27359 0.61289 0.28416 0.0
Zn648 Zn 0.32519 0.61968 0.32324 0.0
Zn649 Zn 0.32885 0.68947 0.29335 0.0
O650 O 0.25154 0.65851 0.26592 0.0
O651 O 0.29755 0.70726 0.27059 0.0
O652 O 0.35456 0.57528 0.2597 0.0
O653 O 0.2882 0.56654 0.26552 0.0
O654 O 0.23352 0.59191 0.30656 0.0
O655 O 0.27638 0.59042 0.33204 0.0
O656 O 0.32208 0.66958 0.33992 0.0
O657 O 0.41385 0.65651 0.27446 0.0
O658 O 0.3048 0.71491 0.31696 0.0
O659 O 0.38598 0.70995 0.28924 0.0
C660 C 0.40066 0.56991 0.319 0.0
C661 C 0.26691 0.69327 0.26148 0.0
C662 C 0.24143 0.58371 0.32487 0.0
C663 C 0.32088 0.55725 0.25625 0.0
C664 C 0.30724 0.70395 0.33502 0.0
C665 C 0.41578 0.69358 0.2802 0.0
O666 O 0.37289 0.58596 0.32956 0.0
O667 O 0.15289 0.6518 0.04994 0.0
Zn668 Zn 0.11712 0.62004 0.03203 0.0
O669 O 0.09777 0.5725 0.04617 0.0
Zn670 Zn 0.11682 0.52127 0.03493 0.0
Zn671 Zn 0.11082 0.57391 0.07382 0.0
Zn672 Zn 0.04044 0.57657 0.04454 0.0
O673 O 0.07105 0.49919 0.0169 0.0
O674 O 0.02231 0.5451 0.02195 0.0
O675 O 0.15286 0.60185 0.00964 0.0
O676 O 0.16282 0.53568 0.01599 0.0
O677 O 0.13823 0.48155 0.05747 0.0
O678 O 0.14047 0.52524 0.08262 0.0
O679 O 0.06144 0.57089 0.09096 0.0
O680 O 0.07224 0.66127 0.02477 0.0
O681 O 0.016 0.55242 0.06841 0.0
O682 O 0.01966 0.63383 0.04046 0.0
C683 C 0.16021 0.64951 0.06845 0.0
C684 C 0.03622 0.51455 0.0127 0.0
C685 C 0.14699 0.49 0.07564 0.0
C686 C 0.17134 0.56827 0.00637 0.0
C687 C 0.02727 0.5554 0.08639 0.0
C688 C 0.03556 0.66344 0.03098 0.0
O689 O 0.1446 0.62204 0.07944 0.0
O690 O 0.07745 0.40414 0.79972 0.0
Zn691 Zn 0.10912 0.36862 0.78156 0.0
O692 O 0.15669 0.34896 0.79551 0.0
Zn693 Zn 0.20776 0.36775 0.78409 0.0
Zn694 Zn 0.1557 0.36211 0.82314 0.0
Zn695 Zn 0.15262 0.29149 0.79401 0.0
O696 O 0.22938 0.32195 0.76588 0.0
O697 O 0.18367 0.27319 0.77131 0.0
O698 O 0.12716 0.40498 0.75923 0.0
O699 O 0.19334 0.41396 0.76534 0.0
O700 O 0.24764 0.38937 0.80635 0.0
O701 O 0.2043 0.39182 0.83165 0.0
O702 O 0.15902 0.31277 0.84034 0.0
O703 O 0.06819 0.32351 0.77424 0.0
O704 O 0.17692 0.26695 0.81783 0.0
O705 O 0.09552 0.27084 0.79004 0.0
C706 C 0.08015 0.41154 0.81821 0.0
C707 C 0.21392 0.28707 0.76182 0.0
C708 C 0.23935 0.39831 0.82452 0.0
C709 C 0.16085 0.42313 0.7559 0.0
C710 C 0.17433 0.27845 0.83579 0.0
C711 C 0.06607 0.28674 0.7805 0.0
O712 O 0.10786 0.39599 0.82901 0.0
O713 O 0.3222 0.32649 0.54832 0.0
Zn714 Zn 0.35884 0.35829 0.53074 0.0
O715 O 0.37809 0.40543 0.54512 0.0
Zn716 Zn 0.35972 0.45715 0.53411 0.0
Zn717 Zn 0.36464 0.40332 0.57272 0.0
Zn718 Zn 0.43536 0.40123 0.54367 0.0
O719 O 0.40594 0.47947 0.51635 0.0
O720 O 0.4542 0.43295 0.52119 0.0
O721 O 0.32375 0.37746 0.5082 0.0
O722 O 0.31377 0.44341 0.51502 0.0
O723 O 0.33903 0.49663 0.55686 0.0
O724 O 0.33606 0.45239 0.58185 0.0
O725 O 0.4139 0.40475 0.58997 0.0
O726 O 0.40377 0.31669 0.52383 0.0
O727 O 0.45919 0.42504 0.56765 0.0
O728 O 0.45599 0.344 0.53977 0.0
C729 C 0.31423 0.32859 0.56677 0.0
C730 C 0.44069 0.464 0.51213 0.0
C731 C 0.33029 0.48796 0.57504 0.0
C732 C 0.30533 0.4112 0.50514 0.0
C733 C 0.44786 0.42099 0.58558 0.0
C734 C 0.44027 0.31442 0.53028 0.0
O735 O 0.32982 0.35568 0.57792 0.0
C736 C 0.19439 0.26891 0.34502 0.0
C737 C 0.17797 0.23096 0.35044 0.0
H738 H 0.20215 0.33113 0.35333 0.0
C739 C 0.16743 0.22353 0.37035 0.0
H740 H 0.20427 0.27502 0.32992 0.0
C741 C 0.16707 0.2556 0.38386 0.0
C742 C 0.17679 0.29508 0.37734 0.0
H743 H 0.15586 0.19414 0.37505 0.0
H744 H 0.15436 0.25037 0.39852 0.0
C745 C 0.19368 0.30094 0.35844 0.0
C746 C 0.00103 0.92518 0.61891 0.0
C747 C -0.00707 0.93276 0.59874 0.0
H748 H 0.97528 0.91325 0.64745 0.0
C749 C 0.9539 0.94536 0.59291 0.0
H750 H 0.03119 0.91672 0.62389 0.0
C751 C 0.92202 0.94353 0.60638 0.0
C752 C 0.92912 0.92934 0.62573 0.0
H753 H 0.9471 0.95291 0.57756 0.0
H754 H 0.89136 0.94892 0.6011 0.0
C755 C 0.96911 0.92371 0.63245 0.0
C756 C 0.30909 0.76315 0.87264 0.0
C757 C 0.296 0.75624 0.85307 0.0
H758 H 0.32384 0.73564 0.90052 0.0
C759 C 0.27668 0.71933 0.84832 0.0
H760 H 0.32301 0.79178 0.87684 0.0
C761 C 0.27707 0.68734 0.86185 0.0
C762 C 0.29647 0.69223 0.88022 0.0
H763 H 0.26482 0.71375 0.83354 0.0
H764 H 0.26642 0.65765 0.85711 0.0
C765 C 0.30909 0.73114 0.88628 0.0
C766 C 0.51189 0.05536 0.13304 0.0
C767 C 0.55185 0.04991 0.12623 0.0
H768 H 0.44962 0.06129 0.12465 0.0
C769 C 0.55879 0.03486 0.10705 0.0
H770 H 0.50583 0.0664 0.14793 0.0
C771 C 0.52673 0.03207 0.09373 0.0
C772 C 0.48766 0.04454 0.09954 0.0
H773 H 0.58942 0.0295 0.10171 0.0
H774 H 0.53337 0.02394 0.07845 0.0
C775 C 0.47978 0.05287 0.11965 0.0
C776 C 0.19803 0.7103 0.11044 0.0
C777 C 0.182 0.74841 0.10498 0.0
H778 H 0.20464 0.64785 0.1023 0.0
C779 C 0.17124 0.75576 0.0851 0.0
H780 H 0.20809 0.70424 0.12551 0.0
C781 C 0.17014 0.72353 0.07171 0.0
C782 C 0.17934 0.68399 0.07831 0.0
H783 H 0.15997 0.78526 0.08037 0.0
H784 H 0.15721 0.72876 0.05709 0.0
C785 C 0.19655 0.67811 0.09714 0.0
C786 C 0.50497 0.9233 0.32125 0.0
C787 C 0.54458 0.93209 0.32769 0.0
H788 H 0.44333 0.91409 0.33014 0.0
C789 C 0.55081 0.94931 0.34647 0.0
H790 H 0.49948 0.91034 0.30668 0.0
C791 C 0.51883 0.95135 0.35988 0.0
C792 C 0.48054 0.93587 0.35459 0.0
H793 H 0.58113 0.95708 0.35151 0.0
H794 H 0.52515 0.96142 0.37491 0.0
C795 C 0.47294 0.925 0.33475 0.0
C796 C 0.30453 0.25459 0.57017 0.0
C797 C 0.29458 0.29411 0.57646 0.0
H798 H 0.3155 0.19322 0.57933 0.0
C799 C 0.27653 0.30002 0.59509 0.0
H800 H 0.31809 0.24935 0.5557 0.0
C801 C 0.27518 0.26805 0.6086 0.0
C802 C 0.29213 0.23017 0.60353 0.0
H803 H 0.26786 0.33025 0.59999 0.0
H804 H 0.26456 0.27423 0.62355 0.0
C805 C 0.30354 0.2226 0.58377 0.0
C806 C 0.96257 0.03178 0.86094 0.0
C807 C 0.0006 0.04795 0.85562 0.0
H808 H 0.90056 0.0244 0.85241 0.0
C809 C 0.0083 0.05839 0.83572 0.0
H810 H 0.95624 0.02198 0.87603 0.0
C811 C 0.97649 0.0589 0.82209 0.0
C812 C 0.93697 0.04943 0.82847 0.0
H813 H 0.03776 0.06977 0.83111 0.0
H814 H 0.98194 0.07157 0.80742 0.0
C815 C 0.9308 0.03264 0.8474 0.0
C816 C 0.80151 0.75032 0.5875 0.0
C817 C 0.79413 0.74245 0.60771 0.0
H818 H 0.81375 0.72418 0.55911 0.0
C819 C 0.78196 0.70331 0.61374 0.0
H820 H 0.8096 0.78057 0.58235 0.0
C821 C 0.78415 0.67115 0.60044 0.0
C822 C 0.79836 0.67807 0.58108 0.0
H823 H 0.77453 0.6967 0.62912 0.0
H824 H 0.77909 0.64045 0.60589 0.0
C825 C 0.8034 0.71811 0.57414 0.0
C826 C 0.01102 0.0329 0.3594 0.0
C827 C 0.97383 0.0514 0.35444 0.0
H828 H 0.07258 0.02303 0.35064 0.0
C829 C 0.9666 0.06365 0.33475 0.0
H830 H 0.0169 0.02171 0.37431 0.0
C831 C -0.00165 0.06341 0.32107 0.0
C832 C 0.03735 0.05141 0.32721 0.0
H833 H 0.93776 0.07692 0.33041 0.0
H834 H -0.00645 0.07742 0.30664 0.0
C835 C 0.04276 0.03308 0.34583 0.0
C836 C 0.69755 0.30666 0.09725 0.0
C837 C 0.6817 0.29969 0.07823 0.0
H838 H 0.70901 0.28141 0.12588 0.0
C839 C 0.6753 0.25965 0.07167 0.0
H840 H 0.70359 0.33736 0.10239 0.0
C841 C 0.67762 0.22762 0.0852 0.0
C842 C 0.68677 0.23568 0.1052 0.0
H843 H 0.66357 0.25358 0.0569 0.0
H844 H 0.66843 0.19748 0.08043 0.0
C845 C 0.70023 0.27467 0.11071 0.0
C846 C 0.48035 0.9141 0.81941 0.0
C847 C 0.44197 0.92874 0.82507 0.0
H848 H 0.54025 0.89907 0.82927 0.0
C849 C 0.43746 0.94981 0.84301 0.0
H850 H 0.48445 0.89792 0.80551 0.0
C851 C 0.46917 0.95032 0.85659 0.0
C852 C 0.50544 0.92951 0.85232 0.0
H853 H 0.40815 0.96191 0.84742 0.0
H854 H 0.46384 0.96371 0.87108 0.0
C855 C 0.5121 0.91431 0.83309 0.0
C856 C 0.78335 0.26958 0.84518 0.0
C857 C 0.7988 0.23123 0.85061 0.0
H858 H 0.77689 0.33191 0.85354 0.0
C859 C 0.80895 0.22348 0.87054 0.0
H860 H 0.7738 0.27597 0.83006 0.0
C861 C 0.80992 0.25547 0.88407 0.0
C862 C 0.80115 0.29519 0.87758 0.0
H863 H 0.81979 0.1938 0.87524 0.0
H864 H 0.82232 0.24989 0.89876 0.0
C865 C 0.78463 0.30151 0.85863 0.0
C866 C 0.50193 0.05489 0.62157 0.0
C867 C 0.49467 0.04459 0.60164 0.0
H868 H 0.47488 0.06905 0.64956 0.0
C869 C 0.45651 0.02916 0.59608 0.0
H870 H 0.53146 0.06564 0.62638 0.0
C871 C 0.42426 0.03099 0.60933 0.0
C872 C 0.43012 0.04802 0.62819 0.0
H873 H 0.45051 0.01943 0.58097 0.0
H874 H 0.39403 0.02344 0.60409 0.0
C875 C 0.46963 0.05637 0.63491 0.0
C876 C 0.69912 0.71229 0.34612 0.0
C877 C 0.68337 0.75065 0.35123 0.0
H878 H 0.70583 0.65019 0.35499 0.0
C879 C 0.67325 0.75886 0.37111 0.0
H880 H 0.70868 0.70556 0.33106 0.0
C881 C 0.67245 0.72721 0.38491 0.0
C882 C 0.68132 0.68738 0.37872 0.0
H883 H 0.66225 0.7886 0.37557 0.0
H884 H 0.65993 0.73308 0.39954 0.0
C885 C 0.69801 0.68068 0.35985 0.0
C886 C 0.04995 0.94793 0.10895 0.0
C887 C 0.04399 0.93087 0.12783 0.0
H888 H 0.02421 0.95877 0.08041 0.0
C889 C 0.00454 0.92145 0.13432 0.0
H890 H 0.08013 0.9562 0.10387 0.0
C891 C 0.97258 0.92201 0.12078 0.0
C892 C 0.98012 0.9325 0.10087 0.0
H893 H -0.00076 0.90867 0.14897 0.0
H894 H 0.9432 0.91053 0.12545 0.0
C895 C 0.01803 0.94888 0.0955 0.0
C896 C 0.70144 0.79306 0.86272 0.0
C897 C 0.68095 0.78834 0.88082 0.0
H898 H 0.71544 0.76639 0.83473 0.0
C899 C 0.66789 0.74951 0.88687 0.0
H900 H 0.71242 0.82271 0.85801 0.0
C901 C 0.66869 0.71738 0.87338 0.0
C902 C 0.683 0.7241 0.85398 0.0
H903 H 0.6523 0.74518 0.90092 0.0
H904 H 0.65441 0.68883 0.8775 0.0
C905 C 0.7027 0.76093 0.84936 0.0
C906 C 0.42567 0.44749 0.10754 0.0
C907 C 0.43281 0.43233 0.12672 0.0
H908 H 0.45038 0.45739 0.07868 0.0
C909 C 0.4728 0.42565 0.1332 0.0
H910 H 0.39501 0.45369 0.10246 0.0
C911 C 0.50448 0.42694 0.11951 0.0
C912 C 0.49614 0.43538 0.09944 0.0
H913 H 0.47901 0.41441 0.14806 0.0
H914 H 0.53454 0.41758 0.12427 0.0
C915 C 0.45731 0.44913 0.09393 0.0
C916 C 0.80463 0.22946 0.38671 0.0
C917 C 0.79341 0.19018 0.38058 0.0
H918 H 0.81733 0.29033 0.37729 0.0
C919 C 0.77477 0.18462 0.36208 0.0
H920 H 0.81869 0.23444 0.40108 0.0
C921 C 0.77415 0.21643 0.34846 0.0
C922 C 0.7924 0.25381 0.35332 0.0
H923 H 0.76513 0.1546 0.3573 0.0
H924 H 0.76308 0.21041 0.33358 0.0
C925 C 0.80436 0.2613 0.373 0.0
C926 C 0.97667 0.55319 0.62134 0.0
C927 C 0.98438 0.5438 0.60133 0.0
H928 H 0.00299 0.56778 0.64944 0.0
C929 C 0.02333 0.53073 0.59562 0.0
H930 H 0.94661 0.56215 0.62626 0.0
C931 C 0.05547 0.53389 0.60887 0.0
C932 C 0.04874 0.54979 0.6279 0.0
H933 H 0.02984 0.52182 0.58044 0.0
H934 H 0.08605 0.52804 0.60357 0.0
C935 C 0.00887 0.55597 0.63467 0.0
C936 C 0.66852 0.22306 0.57343 0.0
C937 C 0.67664 0.18332 0.58009 0.0
H938 H 0.65894 0.2849 0.58204 0.0
C939 C 0.69248 0.177 0.59918 0.0
H940 H 0.65672 0.22864 0.55862 0.0
C941 C 0.69361 0.20906 0.61257 0.0
C942 C 0.67866 0.24749 0.60693 0.0
H943 H 0.69975 0.14658 0.60439 0.0
H944 H 0.70256 0.20269 0.62777 0.0
C945 C 0.66931 0.25516 0.5869 0.0
C946 C 0.05235 0.44774 0.84716 0.0
C947 C 0.04606 0.43087 0.8283 0.0
H948 H 0.02676 0.45922 0.87567 0.0
C949 C 0.00642 0.42236 0.82182 0.0
H950 H 0.08269 0.45535 0.85223 0.0
C951 C 0.97443 0.42379 0.83534 0.0
C952 C 0.98211 0.43415 0.85523 0.0
H953 H 0.00087 0.40976 0.80719 0.0
H954 H 0.9448 0.41305 0.83068 0.0
C955 C 0.02041 0.4495 0.8606 0.0
C956 C 0.78036 0.80056 0.09631 0.0
C957 C 0.79765 0.79448 0.07752 0.0
H958 H 0.76913 0.77488 0.12487 0.0
C959 C 0.80703 0.75488 0.07115 0.0
H960 H 0.77212 0.83086 0.10129 0.0
C961 C 0.80622 0.72289 0.08476 0.0
C962 C 0.79554 0.73055 0.10461 0.0
H963 H 0.82 0.7495 0.05657 0.0
H964 H 0.8177 0.6934 0.08021 0.0
C965 C 0.77916 0.7686 0.10983 0.0
C966 C 0.50614 0.55977 0.33665 0.0
C967 C 0.49825 0.55019 0.35664 0.0
H968 H 0.48006 0.57208 0.30821 0.0
C969 C 0.46004 0.53463 0.36207 0.0
H970 H 0.53574 0.57061 0.33195 0.0
C971 C 0.42834 0.53528 0.34849 0.0
C972 C 0.43476 0.55129 0.32942 0.0
H973 H 0.45355 0.52549 0.37724 0.0
H974 H 0.39801 0.52753 0.35354 0.0
C975 C 0.47439 0.56007 0.32299 0.0
C976 C 0.30766 0.2529 0.08695 0.0
C977 C 0.29935 0.24502 0.10707 0.0
H978 H 0.32016 0.22676 0.05857 0.0
C979 C 0.28634 0.20602 0.11292 0.0
H980 H 0.31653 0.28303 0.08194 0.0
C981 C 0.28829 0.17395 0.09956 0.0
C982 C 0.30297 0.1808 0.08028 0.0
H983 H 0.27827 0.1994 0.12822 0.0
H984 H 0.28243 0.1433 0.10488 0.0
C985 C 0.30925 0.22078 0.07351 0.0
C986 C 0.46612 0.56688 0.83356 0.0
C987 C 0.47286 0.55213 0.85289 0.0
H988 H 0.49367 0.583 0.8059 0.0
C989 C 0.50924 0.5316 0.85731 0.0
H990 H 0.43785 0.5818 0.82963 0.0
C991 C 0.54098 0.5321 0.84373 0.0
C992 C 0.53641 0.55296 0.82568 0.0
H993 H 0.51459 0.51847 0.87188 0.0
H994 H 0.57033 0.52025 0.84824 0.0
C995 C 0.4979 0.56711 0.8199 0.0
C996 C 0.19757 0.77459 0.61196 0.0
C997 C 0.18455 0.73543 0.6065 0.0
H998 H 0.20107 0.8371 0.60337 0.0
C999 C 0.17632 0.72693 0.58644 0.0
H1000 H 0.20564 0.78167 0.6272 0.0
C1001 C 0.17448 0.75866 0.57273 0.0
C1002 C 0.18042 0.79885 0.57917 0.0
H1003 H 0.16753 0.69664 0.58172 0.0
H1004 H 0.16341 0.75224 0.55788 0.0
C1005 C 0.19542 0.80627 0.59831 0.0
C1006 C 0.95971 0.45237 0.35949 0.0
C1007 C -0.00252 0.43561 0.3542 0.0
H1008 H 0.8975 0.45956 0.35126 0.0
C1009 C 0.00465 0.42416 0.33441 0.0
H1010 H 0.95383 0.46298 0.37448 0.0
C1011 C 0.97246 0.42302 0.32101 0.0
C1012 C 0.93314 0.4329 0.32752 0.0
H1013 H 0.03391 0.4123 0.3298 0.0
H1014 H 0.97748 0.40951 0.30652 0.0
C1015 C 0.92756 0.4509 0.34618 0.0
C1016 C 0.30749 0.75805 0.38386 0.0
C1017 C 0.29925 0.79778 0.37724 0.0
H1018 H 0.31693 0.69621 0.37522 0.0
C1019 C 0.28302 0.80406 0.35822 0.0
H1020 H 0.31959 0.75249 0.39862 0.0
C1021 C 0.28166 0.772 0.34484 0.0
C1022 C 0.29673 0.73359 0.35042 0.0
H1023 H 0.27561 0.83447 0.35303 0.0
H1024 H 0.27242 0.77834 0.32967 0.0
C1025 C 0.30644 0.72594 0.37041 0.0
C1026 C 0.97326 0.55741 0.13527 0.0
C1027 C 0.93381 0.5481 0.12878 0.0
H1028 H 0.03481 0.56748 0.12644 0.0
C1029 C 0.92794 0.5305 0.11005 0.0
H1030 H 0.97847 0.57064 0.14981 0.0
C1031 C 0.96003 0.52877 0.0967 0.0
C1032 C -0.00197 0.54496 0.102 0.0
H1033 H 0.89774 0.52234 0.10498 0.0
H1034 H 0.95395 0.51846 0.08169 0.0
C1035 C 0.0054 0.55606 0.12182 0.0
C1036 C 0.20108 0.21116 0.84625 0.0
C1037 C 0.18517 0.2494 0.85147 0.0
H1038 H 0.20774 0.14891 0.85487 0.0
C1039 C 0.17487 0.25728 0.87135 0.0
H1040 H 0.21081 0.2047 0.83118 0.0
C1041 C 0.17395 0.22539 0.88501 0.0
C1042 C 0.18288 0.18566 0.87868 0.0
H1043 H 0.16375 0.28691 0.8759 0.0
H1044 H 0.16127 0.231 0.89964 0.0
C1045 C 0.19983 0.17931 0.85983 0.0
C1046 C 0.46897 0.42035 0.62113 0.0
C1047 C 0.47671 0.43148 0.60132 0.0
H1048 H 0.49529 0.40668 0.64938 0.0
C1049 C 0.51459 0.44827 0.59619 0.0
H1050 H 0.43962 0.40848 0.6256 0.0
C1051 C 0.54628 0.44735 0.60977 0.0
C1052 C 0.54013 0.42998 0.62857 0.0
H1053 H 0.52094 0.45858 0.58118 0.0
H1054 H 0.57647 0.45603 0.60488 0.0
C1055 C 0.50069 0.41985 0.63481 0.0
C1056 C 0.98349 0.19733 0.27776 0.0
C1057 C 0.02158 0.21672 0.27733 0.0
H1058 H 0.9187 0.20447 0.27958 0.0
C1059 C 0.02271 0.25962 0.27662 0.0
H1060 H 0.98153 0.1644 0.2785 0.0
C1061 C 0.9867 0.28258 0.27681 0.0
C1062 C 0.94868 0.26325 0.27827 0.0
H1063 H 0.05157 0.2755 0.2763 0.0
H1064 H 0.98875 0.31554 0.27673 0.0
C1065 C 0.9475 0.22033 0.27849 0.0
C1066 C 0.00945 0.6999 0.5289 0.0
C1067 C 0.9666 0.70082 0.52898 0.0
H1068 H 0.06507 0.73427 0.52873 0.0
C1069 C 0.94713 0.73892 0.52792 0.0
H1070 H 0.02548 0.67109 0.52966 0.0
C1071 C 0.96986 0.77514 0.52775 0.0
C1072 C 0.01269 0.77426 0.52817 0.0
H1073 H 0.91426 0.74086 0.52805 0.0
H1074 H 0.95381 0.80398 0.52764 0.0
C1075 C 0.0322 0.73612 0.52827 0.0
C1076 C 0.47935 0.76748 0.79739 0.0
C1077 C 0.45409 0.76682 0.7806 0.0
H1078 H 0.53418 0.7464 0.81105 0.0
C1079 C 0.46575 0.74333 0.76408 0.0
H1080 H 0.47085 0.78512 0.81036 0.0
C1081 C 0.50182 0.72015 0.7646 0.0
C1082 C 0.5272 0.72089 0.78148 0.0
H1083 H 0.44649 0.74207 0.75103 0.0
H1084 H 0.50986 0.70177 0.75183 0.0
C1085 C 0.51564 0.74526 0.79774 0.0
C1086 C 0.44803 0.24117 0.0275 0.0
C1087 C 0.46783 0.20318 0.02787 0.0
H1088 H 0.45422 0.30629 0.02808 0.0
C1089 C 0.51066 0.2026 0.02745 0.0
H1090 H 0.41515 0.24281 0.02794 0.0
C1091 C 0.5331 0.23901 0.02713 0.0
C1092 C 0.51331 0.277 0.02771 0.0
H1093 H 0.52692 0.17389 0.02769 0.0
H1094 H 0.56599 0.23737 0.02728 0.0
C1095 C 0.47048 0.27758 0.02766 0.0
C1096 C 0.95125 0.75956 0.17811 0.0
C1097 C 0.95216 0.71662 0.17796 0.0
H1098 H 0.98553 0.81528 0.17799 0.0
C1099 C -0.00984 0.69703 0.17852 0.0
H1100 H 0.92249 0.77563 0.1777 0.0
C1101 C 0.02633 0.7198 0.17824 0.0
C1102 C 0.02541 0.76274 0.17793 0.0
H1103 H -0.008 0.66407 0.17827 0.0
H1104 H 0.05509 0.70373 0.17793 0.0
C1105 C 0.98739 0.78232 0.17836 0.0
C1106 C 0.44785 0.74193 0.42973 0.0
C1107 C 0.46696 0.78019 0.42863 0.0
H1108 H 0.45518 0.67694 0.42986 0.0
C1109 C 0.50978 0.78155 0.42863 0.0
H1110 H 0.41499 0.73971 0.42964 0.0
C1111 C 0.53289 0.74555 0.42919 0.0
C1112 C 0.51372 0.70726 0.42925 0.0
H1113 H 0.5255 0.81052 0.42783 0.0
H1114 H 0.56573 0.74768 0.42864 0.0
C1115 C 0.47092 0.70594 0.42979 0.0
C1116 C 0.48315 0.28382 0.67847 0.0
C1117 C 0.52117 0.26425 0.67892 0.0
H1118 H 0.41833 0.27703 0.67664 0.0
C1119 C 0.52207 0.22134 0.67959 0.0
H1120 H 0.48134 0.31676 0.67777 0.0
C1121 C 0.48595 0.19855 0.67936 0.0
C1122 C 0.448 0.21806 0.6779 0.0
H1123 H 0.55084 0.20528 0.67995 0.0
H1124 H 0.48786 0.16559 0.67942 0.0
C1125 C 0.44705 0.26101 0.67771 0.0
C1126 C 0.97158 0.20297 0.92924 0.0
C1127 C 0.01438 0.20428 0.92894 0.0
H1128 H 0.91569 0.23685 0.92913 0.0
C1129 C 0.03359 0.24254 0.92935 0.0
H1130 H 0.95581 0.174 0.92896 0.0
C1131 C 0.01055 0.27857 0.92902 0.0
C1132 C 0.96774 0.27726 0.92879 0.0
H1133 H 0.06644 0.24467 0.92899 0.0
H1134 H 0.02631 0.30754 0.92857 0.0
C1135 C 0.94854 0.239 0.92942 0.0
C1136 C 0.02763 0.76098 0.67835 0.0
C1137 C 0.02716 0.71802 0.67855 0.0
H1138 H -0.00718 0.81638 0.6779 0.0
C1139 C -0.01069 0.69816 0.6794 0.0
H1140 H 0.05622 0.77732 0.67772 0.0
C1141 C 0.95293 0.72059 0.67912 0.0
C1142 C 0.95339 0.76352 0.67845 0.0
H1143 H 0.98773 0.66518 0.67946 0.0
H1144 H 0.92434 0.70423 0.67911 0.0
C1145 C -0.00874 0.78343 0.67853 0.0
C1146 C 0.94435 0.24426 0.42918 0.0
C1147 C 0.96343 0.20594 0.4287 0.0
H1148 H 0.95184 0.30925 0.4283 0.0
C1149 C 0.00623 0.20446 0.42878 0.0
H1150 H 0.9115 0.24651 0.42898 0.0
C1151 C 0.02939 0.2404 0.42884 0.0
C1152 C 0.01031 0.27872 0.42828 0.0
H1153 H 0.02188 0.17542 0.42842 0.0
H1154 H 0.06223 0.23813 0.42839 0.0
C1155 C 0.9675 0.28021 0.4287 0.0
C1156 C 0.49174 0.19919 0.17882 0.0
C1157 C 0.52968 0.21878 0.17762 0.0
H1158 H 0.42684 0.20576 0.17908 0.0
C1159 C 0.5305 0.26173 0.17747 0.0
H1160 H 0.48991 0.16622 0.17886 0.0
C1161 C 0.49433 0.28447 0.178 0.0
C1162 C 0.45635 0.26482 0.17822 0.0
H1163 H 0.55919 0.27785 0.17661 0.0
H1164 H 0.4961 0.31741 0.17736 0.0
C1165 C 0.45556 0.2219 0.17887 0.0
C1166 C 0.53066 0.73909 0.92968 0.0
C1167 C 0.51165 0.77743 0.92885 0.0
H1168 H 0.52305 0.67412 0.92922 0.0
C1169 C 0.46887 0.77905 0.92885 0.0
H1170 H 0.56352 0.73677 0.92953 0.0
C1171 C 0.44565 0.74316 0.92917 0.0
C1172 C 0.46471 0.70482 0.9289 0.0
H1173 H 0.45331 0.80813 0.92821 0.0
H1174 H 0.41282 0.74545 0.92861 0.0
C1175 C 0.50747 0.70321 0.92942 0.0
C1176 C 0.02925 0.21965 0.77792 0.0
C1177 C 0.02807 0.26258 0.77785 0.0
H1178 H -0.00473 0.16375 0.77808 0.0
C1179 C -0.01 0.28195 0.77682 0.0
H1180 H 0.05808 0.20375 0.77867 0.0
C1181 C 0.95399 0.259 0.77689 0.0
C1182 C 0.95515 0.21609 0.77748 0.0
H1183 H 0.98795 0.3149 0.77686 0.0
H1184 H 0.92513 0.27491 0.77687 0.0
C1185 C -0.00674 0.19668 0.77748 0.0
C1186 C 0.44486 0.23795 0.52752 0.0
C1187 C 0.46425 0.27612 0.52803 0.0
H1188 H 0.45176 0.1729 0.5284 0.0
C1189 C 0.50707 0.27717 0.52807 0.0
H1190 H 0.41199 0.236 0.52763 0.0
C1191 C 0.52991 0.24101 0.52809 0.0
C1192 C 0.5105 0.20285 0.52859 0.0
H1193 H 0.52299 0.30606 0.52845 0.0
H1194 H 0.56277 0.24297 0.52861 0.0
C1195 C 0.46769 0.20178 0.52806 0.0
C1196 C 0.52807 0.72105 0.27761 0.0
C1197 C 0.52694 0.76399 0.27756 0.0
H1198 H 0.49404 0.66518 0.27795 0.0
C1199 C 0.48886 0.78339 0.27677 0.0
H1200 H 0.55689 0.70512 0.27818 0.0
C1201 C 0.45282 0.76047 0.27707 0.0
C1202 C 0.45394 0.71755 0.27763 0.0
H1203 H 0.48685 0.81635 0.27685 0.0
H1204 H 0.42398 0.77641 0.27721 0.0
C1205 C 0.49204 0.69812 0.27739 0.0
C1206 C 0.94612 0.73704 0.02791 0.0
C1207 C 0.96568 0.77513 0.02812 0.0
H1208 H 0.95282 0.67196 0.0289 0.0
C1209 C 0.00848 0.77603 0.02774 0.0
H1210 H 0.91325 0.73522 0.02834 0.0
C1211 C 0.03118 0.73979 0.02762 0.0
C1212 C 0.01165 0.70171 0.02841 0.0
H1213 H 0.02451 0.80487 0.02787 0.0
H1214 H 0.06405 0.74165 0.02781 0.0
C1215 C 0.96883 0.70079 0.02832 0.0
C1216 C 0.20874 0.25616 0.24112 0.0
C1217 C 0.22556 0.21743 0.24524 0.0
H1218 H 0.20841 0.30857 0.22207 0.0
C1219 C 0.25571 0.20197 0.23267 0.0
H1220 H 0.18531 0.26905 0.25051 0.0
C1221 C 0.26866 0.22462 0.21629 0.0
C1222 C 0.25179 0.26331 0.21215 0.0
H1223 H 0.26896 0.1722 0.23532 0.0
H1224 H 0.29206 0.2117 0.2069 0.0
C1225 C 0.22169 0.27881 0.22473 0.0
C1226 C 0.9489 0.97346 0.47337 0.0
C1227 C 0.96446 0.00249 0.46015 0.0
H1228 H 0.95865 0.93884 0.49976 0.0
C1229 C 0.00347 0.01895 0.46366 0.0
H1230 H 0.91891 0.96055 0.47121 0.0
C1231 C 0.02626 0.00686 0.48013 0.0
C1232 C 0.01062 0.97795 0.4934 0.0
H1233 H 0.01644 0.04153 0.45375 0.0
H1234 H 0.05622 0.01982 0.48234 0.0
C1235 C 0.97169 0.96135 0.48983 0.0
C1236 C 0.22543 0.77844 0.73315 0.0
C1237 C 0.25449 0.76265 0.74626 0.0
H1238 H 0.19121 0.76951 0.70668 0.0
C1239 C 0.27167 0.72406 0.7423 0.0
H1240 H 0.21198 0.80815 0.73562 0.0
C1241 C 0.25997 0.70178 0.72558 0.0
C1242 C 0.23087 0.71762 0.71248 0.0
H1243 H 0.29435 0.711 0.7521 0.0
H1244 H 0.27334 0.67204 0.72307 0.0
C1245 C 0.21384 0.75626 0.71644 0.0
C1246 C 0.50746 0.01584 -0.00968 0.0
C1247 C 0.46792 0.00045 -0.00645 0.0
H1248 H 0.56004 0.01702 0.97156 0.0
C1249 C 0.45095 0.9741 -0.02052 0.0
H1250 H 0.52154 0.03638 0.00087 0.0
C1251 C 0.47305 0.96341 0.96255 0.0
C1252 C 0.51266 0.97872 0.95937 0.0
H1253 H 0.42047 0.96221 -0.01861 0.0
H1254 H 0.4591 0.94276 0.95202 0.0
C1255 C 0.52954 0.00516 0.97341 0.0
C1256 C 0.26719 0.75707 0.24118 0.0
C1257 C 0.25161 0.71756 0.24458 0.0
H1258 H 0.26775 0.8099 0.22242 0.0
C1259 C 0.22418 0.70098 0.23093 0.0
H1260 H 0.28855 0.77083 0.25142 0.0
C1261 C 0.21264 0.72337 0.21421 0.0
C1262 C 0.22818 0.7629 0.21083 0.0
H1263 H 0.21207 0.67055 0.23298 0.0
H1264 H 0.19126 0.70963 0.20397 0.0
C1265 C 0.25565 0.77947 0.22447 0.0
C1266 C 0.47039 0.01677 0.49253 0.0
C1267 C 0.51024 0.00182 0.49535 0.0
H1268 H 0.41748 0.01822 0.47397 0.0
C1269 C 0.52741 0.97662 0.48086 0.0
H1270 H 0.45621 0.03645 0.50343 0.0
C1271 C 0.50526 0.96666 0.46387 0.0
C1272 C 0.46536 0.98152 0.46106 0.0
H1273 H 0.55813 0.96515 0.48245 0.0
H1274 H 0.51945 0.94697 0.45298 0.0
C1275 C 0.44821 0.00678 0.47555 0.0
C1276 C 0.26244 0.25794 0.71299 0.0
C1277 C 0.24756 0.21797 0.71029 0.0
H1278 H 0.26427 0.3109 0.73154 0.0
C1279 C 0.22269 0.20073 0.72493 0.0
H1280 H 0.28186 0.27219 0.70197 0.0
C1281 C 0.21309 0.22288 0.74198 0.0
C1282 C 0.22802 0.26283 0.74469 0.0
H1283 H 0.21128 0.16992 0.72344 0.0
H1284 H 0.19369 0.20863 0.753 0.0
C1285 C 0.25285 0.2801 0.73004 0.0
C1286 C 0.97437 0.01742 0.96478 0.0
C1287 C 0.01362 0.00133 0.96151 0.0
H1288 H 0.92145 0.01843 -0.01666 0.0
C1289 C 0.02957 0.97328 0.97512 0.0
H1290 H 0.96109 0.03925 0.95457 0.0
C1291 C 0.00684 0.9617 -0.00829 0.0
C1292 C 0.9676 0.97784 -0.00501 0.0
H1293 H 0.05977 0.96073 0.97315 0.0
H1294 H 0.0201 0.93988 0.00193 0.0
C1295 C 0.95165 0.00586 -0.01863 0.0
C1296 C 0.75408 0.70209 0.73359 0.0
C1297 C 0.72538 0.71813 0.74678 0.0
H1298 H 0.78821 0.71092 0.70706 0.0
C1299 C 0.70879 0.75706 0.74295 0.0
H1300 H 0.76708 0.67211 0.73598 0.0
C1301 C 0.72068 0.77942 0.72624 0.0
C1302 C 0.74942 0.76332 0.71306 0.0
H1303 H 0.68641 0.77032 0.75282 0.0
H1304 H 0.70775 0.8094 0.7238 0.0
C1305 C 0.7659 0.72436 0.71691 0.0
C1306 C 0.72421 0.28072 0.23167 0.0
C1307 C 0.74894 0.26347 0.24637 0.0
H1308 H 0.69557 0.27291 0.20353 0.0
C1309 C 0.76387 0.22349 0.24368 0.0
H1310 H 0.71277 0.31153 0.23314 0.0
C1311 C 0.75448 0.20135 0.2266 0.0
C1312 C 0.72982 0.21866 0.21188 0.0
H1313 H 0.78319 0.20926 0.25475 0.0
H1314 H 0.76594 0.17056 0.2251 0.0
C1315 C 0.71483 0.2586 0.2146 0.0
C1316 C 0.75475 0.27864 0.72492 0.0
C1317 C 0.72498 0.26306 0.71219 0.0
H1318 H 0.79074 0.2689 0.75082 0.0
C1319 C 0.70831 0.22423 0.7162 0.0
H1320 H 0.76785 0.30851 0.72237 0.0
C1321 C 0.72114 0.20152 0.73258 0.0
C1322 C 0.75096 0.21707 0.7453 0.0
H1323 H 0.68515 0.21125 0.70669 0.0
H1324 H 0.70805 0.17164 0.73512 0.0
C1325 C 0.76756 0.25593 0.74132 0.0
C1326 C 0.75559 0.77988 0.23087 0.0
C1327 C 0.72845 0.76347 0.24477 0.0
H1328 H 0.78756 0.7711 0.20364 0.0
C1329 C 0.71247 0.72409 0.24152 0.0
H1330 H 0.768 0.8102 0.23279 0.0
C1331 C 0.72326 0.7017 0.22471 0.0
C1332 C 0.7504 0.71811 0.21082 0.0
H1333 H 0.6913 0.71046 0.25194 0.0
H1334 H 0.71085 0.67138 0.2228 0.0
C1335 C 0.7664 0.75748 0.21407 0.0
C1336 C 0.52819 0.50777 -0.02048 0.0
C1337 C 0.5121 0.48008 -0.00671 0.0
H1338 H 0.51884 0.54073 0.95255 0.0
C1339 C 0.47287 0.46396 -0.00999 0.0
H1340 H 0.55838 0.52031 -0.01852 0.0
C1341 C 0.45025 0.47526 0.97335 0.0
C1342 C 0.46626 0.50303 0.95961 0.0
H1343 H 0.45946 0.4424 0.00032 0.0
H1344 H 0.42003 0.46274 0.97144 0.0
C1345 C 0.50554 0.51908 0.96284 0.0
C1346 C 0.00591 0.514 0.49229 0.0
C1347 C 0.96603 0.49912 0.49511 0.0
H1348 H 0.05875 0.51566 0.47369 0.0
C1349 C 0.94881 0.47409 0.48056 0.0
H1350 H 0.02016 0.53352 0.50324 0.0
C1351 C 0.97093 0.4643 0.46352 0.0
C1352 C 0.01081 0.4792 0.46072 0.0
H1353 H 0.91808 0.46267 0.48214 0.0
H1354 H 0.95673 0.44475 0.45258 0.0
C1355 C 0.02801 0.50424 0.47526 0.0
C1356 C 0.02908 0.47398 -0.01855 0.0
C1357 C 0.01202 0.49982 -0.00429 0.0
H1358 H 0.02107 0.44348 0.95379 0.0
C1359 C 0.97228 0.51492 -0.00728 0.0
H1360 H 0.0597 0.46234 -0.01683 0.0
C1361 C 0.95016 0.50457 0.97579 0.0
C1362 C 0.96723 0.47875 0.96152 0.0
H1363 H 0.95818 0.53507 0.00344 0.0
H1364 H 0.91954 0.51622 0.97406 0.0
C1365 C 0.00696 0.46362 0.96451 0.0
C1366 C 0.50468 0.46341 0.49212 0.0
C1367 C 0.46553 0.47969 0.49551 0.0
H1368 H 0.55764 0.46265 0.47358 0.0
C1369 C 0.44986 0.50835 0.48213 0.0
H1370 H 0.51775 0.44112 0.50216 0.0
C1371 C 0.47273 0.52035 0.46566 0.0
C1372 C 0.51184 0.50402 0.46225 0.0
H1373 H 0.41976 0.52109 0.48419 0.0
H1374 H 0.45964 0.54263 0.45562 0.0
C1375 C 0.52755 0.4754 0.47565 0.0
C1376 C 0.25674 0.06966 0.36006 0.0
C1377 C 0.26259 0.06472 0.33934 0.0
H1378 H 0.2739 0.05132 0.38967 0.0
C1379 C 0.2947 0.04003 0.33289 0.0
H1380 H 0.23251 0.08892 0.3656 0.0
C1381 C 0.31821 0.01834 0.34678 0.0
C1382 C 0.31065 0.02128 0.36746 0.0
H1383 H 0.30015 0.03558 0.31715 0.0
H1384 H 0.34138 -0.0022 0.34125 0.0
C1385 C 0.28065 0.04844 0.37396 0.0
C1386 C 0.17588 0.03873 0.62265 0.0
C1387 C 0.20656 0.0653 0.61628 0.0
H1388 H 0.13146 -0.00564 0.61416 0.0
C1389 C 0.21182 0.07131 0.59556 0.0
H1390 H 0.17097 0.03336 0.63837 0.0
C1391 C 0.18902 0.04924 0.58159 0.0
C1392 C 0.16071 0.02019 0.58799 0.0
H1393 H 0.23496 0.09199 0.59009 0.0
H1394 H 0.19544 0.05305 0.56589 0.0
C1395 C 0.15344 0.01628 0.60868 0.0
C1396 C 0.19733 0.93455 0.87457 0.0
C1397 C 0.16753 0.96212 0.86821 0.0
H1398 H 0.24483 0.89359 0.86594 0.0
C1399 C 0.15938 0.96514 0.84759 0.0
H1400 H 0.20449 0.9316 0.89024 0.0
C1401 C 0.1822 0.94314 0.83359 0.0
C1402 C 0.21422 0.91813 0.83988 0.0
H1403 H 0.13633 0.98601 0.84219 0.0
H1404 H 0.17646 0.94772 0.81787 0.0
C1405 C 0.22059 0.91308 0.86056 0.0
C1406 C 0.29962 0.9401 0.12309 0.0
C1407 C 0.26807 0.91477 0.11659 0.0
H1408 H 0.34577 0.98294 0.11481 0.0
C1409 C 0.26281 0.90942 0.09585 0.0
H1410 H 0.30462 0.9449 0.13884 0.0
C1411 C 0.28662 0.93088 0.08198 0.0
C1412 C 0.31598 0.95867 0.08852 0.0
H1413 H 0.23905 0.88967 0.09026 0.0
H1414 H 0.28026 0.92763 0.06626 0.0
C1415 C 0.32306 0.96197 0.10923 0.0
C1416 C 0.67864 0.94096 0.62441 0.0
C1417 C 0.70788 0.91302 0.61787 0.0
H1418 H 0.63541 0.98673 0.61613 0.0
C1419 C 0.71174 0.90628 0.59715 0.0
H1420 H 0.67483 0.94694 0.64014 0.0
C1421 C 0.689 0.92887 0.58329 0.0
C1422 C 0.66217 0.95917 0.58981 0.0
H1423 H 0.73375 0.88457 0.59156 0.0
H1424 H 0.6943 0.92436 0.56754 0.0
C1425 C 0.65627 0.9639 0.61055 0.0
C1426 C 0.78566 0.93366 0.37316 0.0
C1427 C 0.81111 0.96537 0.36687 0.0
H1428 H 0.74284 0.88781 0.36455 0.0
C1429 C 0.81683 0.97117 0.34617 0.0
H1430 H 0.78058 0.92831 0.38888 0.0
C1431 C 0.79561 0.9477 0.33215 0.0
C1432 C 0.76768 0.91822 0.33849 0.0
H1433 H 0.83666 -0.00488 0.34076 0.0
H1434 H 0.7991 0.95445 0.31646 0.0
C1435 C 0.76399 0.91061 0.35915 0.0
C1436 C 0.79172 0.05097 0.08282 0.0
C1437 C 0.81664 0.01891 0.0892 0.0
H1438 H 0.74934 0.09737 0.09129 0.0
C1439 C 0.82201 0.01311 0.10993 0.0
H1440 H 0.78693 0.05639 0.0671 0.0
C1441 C 0.80081 0.0368 0.12388 0.0
C1442 C 0.7733 0.06659 0.11745 0.0
H1443 H 0.84148 0.98893 0.11542 0.0
H1444 H 0.80394 0.02994 0.13958 0.0
C1445 C 0.77012 0.07431 0.09677 0.0
C1446 C 0.69428 0.04639 0.873 0.0
C1447 C 0.66847 0.01525 0.86647 0.0
H1448 H 0.7381 0.09167 0.86475 0.0
C1449 C 0.6633 0.0098 0.84575 0.0
H1450 H 0.69898 0.05141 0.88875 0.0
C1451 C 0.6853 0.03314 0.83191 0.0
C1452 C 0.71351 0.06206 0.83849 0.0
H1453 H 0.64324 0.98625 0.84018 0.0
H1454 H 0.68209 0.02675 0.81619 0.0
C1455 C 0.71678 0.06927 0.85917 0.0
C1456 C 0.79693 0.53792 0.83334 0.0
C1457 C 0.76475 0.56246 0.83984 0.0
H1458 H 0.84365 0.49568 0.84163 0.0
C1459 C 0.75891 0.5673 0.86057 0.0
H1460 H 0.80232 0.53357 0.81759 0.0
C1461 C 0.78289 0.54609 0.87442 0.0
C1462 C 0.8129 0.51901 0.86786 0.0
H1463 H 0.73461 0.58647 0.86612 0.0
H1464 H 0.77615 0.54886 0.89013 0.0
C1465 C 0.82048 0.51619 0.84719 0.0
C1466 C 0.69285 0.54997 0.08155 0.0
C1467 C 0.66377 0.5216 0.08785 0.0
H1468 H 0.73957 0.59175 0.0902 0.0
C1469 C 0.65611 0.51791 0.10851 0.0
H1470 H 0.69963 0.55353 0.06587 0.0
C1471 C 0.67879 0.53996 0.12256 0.0
C1472 C 0.71014 0.56585 0.1163 0.0
H1473 H 0.63359 0.49648 0.11392 0.0
H1474 H 0.67345 0.53479 0.13827 0.0
C1475 C 0.7159 0.5716 0.0956 0.0
C1476 C 0.67877 0.44549 0.33355 0.0
C1477 C 0.70872 0.41807 0.33989 0.0
H1478 H 0.63535 0.49082 0.34214 0.0
C1479 C 0.71365 0.41159 0.36058 0.0
H1480 H 0.6742 0.45127 0.31784 0.0
C1481 C 0.69121 0.43395 0.37459 0.0
C1482 C 0.66368 0.4638 0.36824 0.0
H1483 H 0.73628 0.39029 0.366 0.0
H1484 H 0.69733 0.4297 0.39029 0.0
C1485 C 0.65674 0.46828 0.34756 0.0
C1486 C 0.79693 0.43792 0.62389 0.0
C1487 C 0.76445 0.41373 0.61744 0.0
H1488 H 0.84413 0.47955 0.61555 0.0
C1489 C 0.75854 0.409 0.5967 0.0
H1490 H 0.80248 0.44218 0.63963 0.0
C1491 C 0.78264 0.43005 0.58282 0.0
C1492 C 0.81299 0.45677 0.58932 0.0
H1493 H 0.73407 0.39009 0.59115 0.0
H1494 H 0.77577 0.4274 0.56711 0.0
C1495 C 0.82069 0.45937 0.61 0.0
C1496 C 0.18205 0.44191 0.12426 0.0
C1497 C 0.21148 0.41416 0.11773 0.0
H1498 H 0.13847 0.48735 0.11596 0.0
C1499 C 0.2154 0.40741 0.09701 0.0
H1500 H 0.1782 0.4479 0.13999 0.0
C1501 C 0.19246 0.42977 0.08315 0.0
C1502 C 0.16539 0.45986 0.08966 0.0
H1503 H 0.23758 0.38585 0.09144 0.0
H1504 H 0.19777 0.42526 0.06741 0.0
C1505 C 0.1595 0.46465 0.11039 0.0
C1506 C 0.31745 0.47113 0.84584 0.0
C1507 C 0.31235 0.46499 0.86654 0.0
H1508 H 0.29932 0.45435 0.81619 0.0
C1509 C 0.28784 0.43262 0.87292 0.0
H1510 H 0.33659 0.49559 0.84037 0.0
C1511 C 0.26633 0.40923 0.85898 0.0
C1512 C 0.26932 0.41717 0.83833 0.0
H1513 H 0.28327 0.427 0.88865 0.0
H1514 H 0.24579 0.38594 0.86444 0.0
C1515 C 0.29642 0.44732 0.83189 0.0
C1516 C 0.28763 0.55002 0.58299 0.0
C1517 C 0.31313 0.51833 0.58928 0.0
H1518 H 0.24485 0.59594 0.59161 0.0
C1519 C 0.31891 0.51263 0.60998 0.0
H1520 H 0.28249 0.55533 0.56728 0.0
C1521 C 0.29769 0.53613 0.62401 0.0
C1522 C 0.26971 0.56559 0.61769 0.0
H1523 H 0.33879 0.48873 0.6154 0.0
H1524 H 0.30127 0.52942 0.6397 0.0
C1525 C 0.26598 0.57313 0.59702 0.0
C1526 C 0.15848 0.51572 0.34607 0.0
C1527 C 0.16458 0.52019 0.3668 0.0
H1528 H 0.17716 0.53263 0.31649 0.0
C1529 C 0.192 0.54989 0.37335 0.0
H1530 H 0.13719 0.4933 0.34049 0.0
C1531 C 0.21511 0.57213 0.35951 0.0
C1532 C 0.21097 0.56567 0.33879 0.0
H1533 H 0.19749 0.55412 0.3891 0.0
H1534 H 0.23757 0.59335 0.3651 0.0
C1535 C 0.18117 0.53837 0.33223 0.0
C1536 C 0.12123 0.00583 0.23419 0.0
C1537 C 0.15767 0.02308 0.24108 0.0
H1538 H 0.09308 0.96058 0.21613 0.0
C1539 C 0.19485 0.00678 0.23448 0.0
H1540 H 0.09204 0.01741 0.23907 0.0
C1541 C 0.19546 0.97405 0.22115 0.0
C1542 C 0.15891 0.95671 0.2144 0.0
H1543 H 0.22346 0.01937 0.23953 0.0
H1544 H 0.22452 0.96226 0.21622 0.0
C1545 C 0.12184 0.97296 0.22113 0.0
C1546 C 0.22119 0.94812 0.48413 0.0
C1547 C 0.20478 0.91096 0.49083 0.0
H1548 H 0.26592 0.97763 0.46593 0.0
C1549 C 0.22209 0.87432 0.48413 0.0
H1550 H 0.20858 0.9769 0.48904 0.0
C1551 C 0.25514 0.87474 0.47114 0.0
C1552 C 0.27149 0.91182 0.46435 0.0
H1553 H 0.21043 0.84513 0.48908 0.0
H1554 H 0.26757 0.84585 0.46628 0.0
C1555 C 0.25408 0.94854 0.47092 0.0
C1556 C 0.35167 0.00761 0.72095 0.0
C1557 C 0.31457 0.02398 0.71432 0.0
H1558 H 0.3816 0.96308 0.73885 0.0
C1559 C 0.27805 0.00676 0.72125 0.0
H1560 H 0.38041 0.01988 0.71582 0.0
C1561 C 0.27875 0.97402 0.73466 0.0
C1562 C 0.31597 0.95759 0.74114 0.0
H1563 H 0.24898 0.01866 0.71639 0.0
H1564 H 0.25019 0.96149 0.73986 0.0
C1565 C 0.35236 0.97474 0.73408 0.0
C1566 C 0.2248 0.03251 0.97202 0.0
C1567 C 0.2077 0.06959 0.96564 0.0
H1568 H 0.27011 0.00322 -0.01006 0.0
C1569 C 0.22424 0.10631 0.97267 0.0
H1570 H 0.21278 0.00369 0.96686 0.0
C1571 C 0.25727 0.10606 -0.01435 0.0
C1572 C 0.27436 0.06906 -0.00791 0.0
H1573 H 0.21202 0.13545 0.96797 0.0
H1574 H 0.26914 0.13499 -0.00925 0.0
C1575 C 0.25767 0.03224 -0.01478 0.0
C1576 C 0.85633 0.97339 0.72088 0.0
C1577 C 0.8193 0.95672 0.7144 0.0
H1578 H 0.88598 0.01815 0.73869 0.0
C1579 C 0.7827 0.97366 0.72133 0.0
H1580 H 0.88511 0.96131 0.71573 0.0
C1581 C 0.78321 0.00639 0.73463 0.0
C1582 C 0.82032 0.02305 0.74105 0.0
H1583 H 0.75367 0.96154 0.71658 0.0
H1584 H 0.75454 0.01862 0.73984 0.0
C1585 C 0.85683 0.00626 0.73396 0.0
C1586 C 0.72187 0.10604 0.48659 0.0
C1587 C 0.70451 0.06901 0.4928 0.0
H1588 H 0.76705 0.13565 0.46898 0.0
C1589 C 0.72074 0.03228 0.48553 0.0
H1590 H 0.71039 0.13491 0.49201 0.0
C1591 C 0.75337 0.0327 0.47215 0.0
C1592 C 0.7707 0.06985 0.46601 0.0
H1593 H 0.70807 0.00323 0.49007 0.0
H1594 H 0.76502 0.00397 0.46666 0.0
C1595 C 0.75466 0.10645 0.47347 0.0
C1596 C 0.69873 0.97458 0.23434 0.0
C1597 C 0.66162 0.95791 0.24084 0.0
H1598 H 0.72824 0.01951 0.21621 0.0
C1599 C 0.62511 0.97489 0.23383 0.0
H1600 H 0.7274 0.96221 0.23949 0.0
C1601 C 0.62559 0.0079 0.22074 0.0
C1602 C 0.66261 0.02453 0.21416 0.0
H1603 H 0.59597 0.96302 0.23861 0.0
H1604 H 0.59681 0.0201 0.21565 0.0
C1605 C 0.69922 0.00743 0.22103 0.0
C1606 C 0.7565 0.94805 -0.01558 0.0
C1607 C 0.77307 0.91116 -0.00864 0.0
H1608 H 0.71168 0.97674 0.96593 0.0
C1609 C 0.7559 0.87424 -0.01504 0.0
H1610 H 0.76902 0.977 -0.01088 0.0
C1611 C 0.7229 0.8741 0.972 0.0
C1612 C 0.70646 0.91086 0.96489 0.0
H1613 H 0.76765 0.84524 -0.00987 0.0
H1614 H 0.71064 0.84499 0.96736 0.0
C1615 C 0.72365 0.9479 0.97118 0.0
C1616 C 0.69492 0.50664 0.73533 0.0
C1617 C 0.65831 0.5246 0.74163 0.0
H1618 H 0.72315 0.46064 0.71742 0.0
C1619 C 0.62135 0.50881 0.73456 0.0
H1620 H 0.7239 0.51808 0.74054 0.0
C1621 C 0.6209 0.47572 0.72161 0.0
C1622 C 0.65741 0.45783 0.71519 0.0
H1623 H 0.59255 0.52168 0.73921 0.0
H1624 H 0.59179 0.46447 0.71646 0.0
C1625 C 0.69449 0.47373 0.72212 0.0
C1626 C 0.7559 0.37445 0.97127 0.0
C1627 C 0.77315 0.41115 0.96454 0.0
H1628 H 0.71031 0.34586 -0.01096 0.0
C1629 C 0.75651 0.44827 0.97108 0.0
H1630 H 0.76774 0.3453 0.96643 0.0
C1631 C 0.72345 0.4486 -0.01582 0.0
C1632 C 0.70612 0.41182 -0.00921 0.0
H1633 H 0.76908 0.47708 0.96614 0.0
H1634 H 0.71143 0.47764 -0.01094 0.0
C1635 C 0.72269 0.37478 -0.01586 0.0
C1636 C 0.8521 0.474 0.23488 0.0
C1637 C 0.81521 0.45761 0.24176 0.0
H1638 H 0.88143 0.5185 0.21671 0.0
C1639 C 0.77847 0.4747 0.23504 0.0
H1640 H 0.88099 0.46182 0.23984 0.0
C1641 C 0.77873 0.50736 0.22159 0.0
C1642 C 0.81574 0.52383 0.21485 0.0
H1643 H 0.74955 0.46278 0.2401 0.0
H1644 H 0.75 0.51979 0.21656 0.0
C1645 C 0.85236 0.50681 0.22169 0.0
C1646 C 0.72356 0.60686 0.47306 0.0
C1647 C 0.7064 0.57044 0.46601 0.0
H1648 H 0.76874 0.63474 0.49126 0.0
C1649 C 0.72275 0.53307 0.47247 0.0
H1650 H 0.71194 0.6362 0.4683 0.0
C1651 C 0.75544 0.53222 0.48578 0.0
C1652 C 0.77271 0.56873 0.4927 0.0
H1653 H 0.71024 0.50445 0.4673 0.0
H1654 H 0.76725 0.50298 0.49058 0.0
C1655 C 0.75641 0.60602 0.48614 0.0
C1656 C 0.3573 0.50664 0.23504 0.0
C1657 C 0.32047 0.5233 0.24181 0.0
H1658 H 0.38645 0.46191 0.217 0.0
C1659 C 0.28368 0.50641 0.2351 0.0
H1660 H 0.38622 0.51868 0.24 0.0
C1661 C 0.28381 0.47372 0.22177 0.0
C1662 C 0.32073 0.45703 0.21508 0.0
H1663 H 0.25478 0.51852 0.24007 0.0
H1664 H 0.255 0.4615 0.21675 0.0
C1665 C 0.35744 0.47381 0.22193 0.0
C1666 C 0.25427 0.60579 0.97203 0.0
C1667 C 0.27122 0.56922 0.96504 0.0
H1668 H 0.20938 0.6341 -0.00976 0.0
C1669 C 0.25473 0.53198 0.97158 0.0
H1670 H 0.26597 0.63504 0.9672 0.0
C1671 C 0.22213 0.53143 -0.01502 0.0
C1672 C 0.2051 0.56812 -0.00816 0.0
H1673 H 0.2671 0.50328 0.96643 0.0
H1674 H 0.21018 0.50233 -0.01013 0.0
C1675 C 0.22151 0.60525 -0.01484 0.0
C1676 C 0.1985 0.50722 0.72174 0.0
C1677 C 0.16169 0.52432 0.71513 0.0
H1678 H 0.2272 0.46175 0.73985 0.0
C1679 C 0.12486 0.50752 0.72185 0.0
H1680 H 0.22739 0.51943 0.7168 0.0
C1681 C 0.12475 0.47429 0.73479 0.0
C1682 C 0.16147 0.45727 0.74152 0.0
H1683 H 0.09594 0.51973 0.71695 0.0
H1684 H 0.09575 0.46226 0.73969 0.0
C1685 C 0.19839 0.47415 0.73491 0.0
C1686 C 0.22255 0.3752 0.47038 0.0
C1687 C 0.20519 0.41207 0.46395 0.0
H1688 H 0.26786 0.34608 0.48809 0.0
C1689 C 0.22148 0.449 0.47093 0.0
H1690 H 0.21101 0.3462 0.46519 0.0
C1691 C 0.25422 0.44894 0.48423 0.0
C1692 C 0.2716 0.41197 0.49058 0.0
H1693 H 0.20881 0.47793 0.46621 0.0
H1694 H 0.26594 0.47782 0.48949 0.0
C1695 C 0.25545 0.37516 0.48343 0.0
loop_
_geom_bond_atom_site_label_1
_geom_bond_atom_site_label_2
_geom_bond_distance
_geom_bond_site_symmetry_2
_ccdc_geom_bond_type
O0 Zn1 1.953 . S
O0 C16 1.225 . S
Zn1 O0 1.953 . S
Zn1 O2 1.949 . S
Zn1 O8 1.919 . S
Zn1 O13 1.924 . S
O2 Zn1 1.949 . S
O2 Zn3 1.923 . S
O2 Zn4 1.950 . S
O2 Zn5 1.945 . S
Zn3 O2 1.923 . S
Zn3 O6 1.933 . S
Zn3 O9 1.941 . S
Zn3 O10 1.965 . S
Zn4 O2 1.950 . S
Zn4 O11 1.938 . S
Zn4 O12 1.906 . S
Zn4 O22 1.953 . S
Zn5 O2 1.945 . S
Zn5 O7 1.932 . S
Zn5 O14 1.977 . S
Zn5 O15 1.910 . S
O6 Zn3 1.933 . S
O6 C17 1.226 . S
O7 Zn5 1.932 . S
O7 C17 1.307 . S
O8 Zn1 1.919 . S
O8 C19 1.253 . S
O9 Zn3 1.941 . S
O9 C19 1.283 . S
O10 Zn3 1.965 . S
O10 C18 1.303 . S
O11 Zn4 1.938 . S
O11 C18 1.247 . S
O12 Zn4 1.906 . S
O12 C20 1.304 . S
O13 Zn1 1.924 . S
O13 C21 1.311 . S
O14 Zn5 1.977 . S
O14 C20 1.272 . S
O15 Zn5 1.910 . S
O15 C21 1.231 . S
C16 O0 1.225 . S
C16 O22 1.298 . S
C17 O6 1.226 . S
C17 O7 1.307 . S
C18 O10 1.303 . S
C18 O11 1.247 . S
C19 O8 1.253 . S
C19 O9 1.283 . S
C20 O12 1.304 . S
C20 O14 1.272 . S
C21 O13 1.311 . S
C21 O15 1.231 . S
O22 Zn4 1.953 . S
O22 C16 1.298 . S
O23 Zn24 1.953 . S
O23 C39 1.225 . S
Zn24 O23 1.953 . S
Zn24 O25 1.949 . S
Zn24 O31 1.919 . S
Zn24 O36 1.924 . S
O25 Zn24 1.949 . S
O25 Zn26 1.923 . S
O25 Zn27 1.950 . S
O25 Zn28 1.945 . S
Zn26 O25 1.923 . S
Zn26 O29 1.933 . S
Zn26 O32 1.941 . S
Zn26 O33 1.965 . S
Zn27 O25 1.950 . S
Zn27 O34 1.938 . S
Zn27 O35 1.906 . S
Zn27 O45 1.953 . S
Zn28 O25 1.945 . S
Zn28 O30 1.932 . S
Zn28 O37 1.977 . S
Zn28 O38 1.910 . S
O29 Zn26 1.933 . S
O29 C40 1.226 . S
O30 Zn28 1.932 . S
O30 C40 1.307 . S
O31 Zn24 1.919 . S
O31 C42 1.253 . S
O32 Zn26 1.941 . S
O32 C42 1.283 . S
O33 Zn26 1.965 . S
O33 C41 1.303 . S
O34 Zn27 1.938 . S
O34 C41 1.247 . S
O35 Zn27 1.906 . S
O35 C43 1.304 . S
O36 Zn24 1.924 . S
O36 C44 1.311 . S
O37 Zn28 1.977 . S
O37 C43 1.272 . S
O38 Zn28 1.910 . S
O38 C44 1.231 . S
C39 O23 1.225 . S
C39 O45 1.298 . S
C40 O29 1.226 . S
C40 O30 1.307 . S
C41 O33 1.303 . S
C41 O34 1.247 . S
C42 O31 1.253 . S
C42 O32 1.283 . S
C43 O35 1.304 . S
C43 O37 1.272 . S
C44 O36 1.311 . S
C44 O38 1.231 . S
O45 Zn27 1.953 . S
O45 C39 1.298 . S
O46 Zn47 1.953 . S
O46 C62 1.225 . S
Zn47 O46 1.953 . S
Zn47 O48 1.949 . S
Zn47 O54 1.919 . S
Zn47 O59 1.924 . S
O48 Zn47 1.949 . S
O48 Zn49 1.923 . S
O48 Zn50 1.950 . S
O48 Zn51 1.945 . S
Zn49 O48 1.923 . S
Zn49 O52 1.933 . S
Zn49 O55 1.941 . S
Zn49 O56 1.965 . S
Zn50 O48 1.950 . S
Zn50 O57 1.938 . S
Zn50 O58 1.906 . S
Zn50 O68 1.953 . S
Zn51 O48 1.945 . S
Zn51 O53 1.932 . S
Zn51 O60 1.977 . S
Zn51 O61 1.910 . S
O52 Zn49 1.933 . S
O52 C63 1.226 . S
O53 Zn51 1.932 . S
O53 C63 1.307 . S
O54 Zn47 1.919 . S
O54 C65 1.253 . S
O55 Zn49 1.941 . S
O55 C65 1.283 . S
O56 Zn49 1.965 . S
O56 C64 1.303 . S
O57 Zn50 1.938 . S
O57 C64 1.247 . S
O58 Zn50 1.906 . S
O58 C66 1.304 . S
O59 Zn47 1.924 . S
O59 C67 1.311 . S
O60 Zn51 1.977 . S
O60 C66 1.272 . S
O61 Zn51 1.910 . S
O61 C67 1.231 . S
C62 O46 1.225 . S
C62 O68 1.298 . S
C63 O52 1.226 . S
C63 O53 1.307 . S
C64 O56 1.303 . S
C64 O57 1.247 . S
C65 O54 1.253 . S
C65 O55 1.283 . S
C66 O58 1.304 . S
C66 O60 1.272 . S
C67 O59 1.311 . S
C67 O61 1.231 . S
O68 Zn50 1.953 . S
O68 C62 1.298 . S
O69 Zn70 1.953 . S
O69 C85 1.225 . S
Zn70 O69 1.953 . S
Zn70 O71 1.949 . S
Zn70 O77 1.919 . S
Zn70 O82 1.924 . S
O71 Zn70 1.949 . S
O71 Zn72 1.923 . S
O71 Zn73 1.950 . S
O71 Zn74 1.945 . S
Zn72 O71 1.923 . S
Zn72 O75 1.933 . S
Zn72 O78 1.941 . S
Zn72 O79 1.965 . S
Zn73 O71 1.950 . S
Zn73 O80 1.938 . S
Zn73 O81 1.906 . S
Zn73 O91 1.953 . S
Zn74 O71 1.945 . S
Zn74 O76 1.932 . S
Zn74 O83 1.977 . S
Zn74 O84 1.910 . S
O75 Zn72 1.933 . S
O75 C86 1.226 . S
O76 Zn74 1.932 . S
O76 C86 1.307 . S
O77 Zn70 1.919 . S
O77 C88 1.253 . S
O78 Zn72 1.941 . S
O78 C88 1.283 . S
O79 Zn72 1.965 . S
O79 C87 1.303 . S
O80 Zn73 1.938 . S
O80 C87 1.247 . S
O81 Zn73 1.906 . S
O81 C89 1.304 . S
O82 Zn70 1.924 . S
O82 C90 1.311 . S
O83 Zn74 1.977 . S
O83 C89 1.272 . S
O84 Zn74 1.910 . S
O84 C90 1.231 . S
C85 O69 1.225 . S
C85 O91 1.298 . S
C86 O75 1.226 . S
C86 O76 1.307 . S
C87 O79 1.303 . S
C87 O80 1.247 . S
C88 O77 1.253 . S
C88 O78 1.283 . S
C89 O81 1.304 . S
C89 O83 1.272 . S
C90 O82 1.311 . S
C90 O84 1.231 . S
O91 Zn73 1.953 . S
O91 C85 1.298 . S
O92 Zn93 1.953 . S
O92 C108 1.225 . S
Zn93 O92 1.953 . S
Zn93 O94 1.949 . S
Zn93 O100 1.919 . S
Zn93 O105 1.924 . S
O94 Zn93 1.949 . S
O94 Zn95 1.923 . S
O94 Zn96 1.950 . S
O94 Zn97 1.945 . S
Zn95 O94 1.923 . S
Zn95 O98 1.933 . S
Zn95 O101 1.941 . S
Zn95 O102 1.965 . S
Zn96 O94 1.950 . S
Zn96 O103 1.938 . S
Zn96 O104 1.906 . S
Zn96 O114 1.953 . S
Zn97 O94 1.945 . S
Zn97 O99 1.932 . S
Zn97 O106 1.977 . S
Zn97 O107 1.910 . S
O98 Zn95 1.933 . S
O98 C109 1.226 . S
O99 Zn97 1.932 . S
O99 C109 1.307 . S
O100 Zn93 1.919 . S
O100 C111 1.253 . S
O101 Zn95 1.941 . S
O101 C111 1.283 . S
O102 Zn95 1.965 . S
O102 C110 1.303 . S
O103 Zn96 1.938 . S
O103 C110 1.247 . S
O104 Zn96 1.906 . S
O104 C112 1.304 . S
O105 Zn93 1.924 . S
O105 C113 1.311 . S
O106 Zn97 1.977 . S
O106 C112 1.272 . S
O107 Zn97 1.910 . S
O107 C113 1.231 . S
C108 O92 1.225 . S
C108 O114 1.298 . S
C109 O98 1.226 . S
C109 O99 1.307 . S
C110 O102 1.303 . S
C110 O103 1.247 . S
C111 O100 1.253 . S
C111 O101 1.283 . S
C112 O104 1.304 . S
C112 O106 1.272 . S
C113 O105 1.311 . S
C113 O107 1.231 . S
O114 Zn96 1.953 . S
O114 C108 1.298 . S
O115 Zn116 1.953 . S
O115 C131 1.225 . S
Zn116 O115 1.953 . S
Zn116 O117 1.949 . S
Zn116 O123 1.919 . S
Zn116 O128 1.924 . S
O117 Zn116 1.949 . S
O117 Zn118 1.923 . S
O117 Zn119 1.950 . S
O117 Zn120 1.945 . S
Zn118 O117 1.923 . S
Zn118 O121 1.933 . S
Zn118 O124 1.941 . S
Zn118 O125 1.965 . S
Zn119 O117 1.950 . S
Zn119 O126 1.938 . S
Zn119 O127 1.906 . S
Zn119 O137 1.953 . S
Zn120 O117 1.945 . S
Zn120 O122 1.932 . S
Zn120 O129 1.977 . S
Zn120 O130 1.910 . S
O121 Zn118 1.933 . S
O121 C132 1.226 . S
O122 Zn120 1.932 . S
O122 C132 1.307 . S
O123 Zn116 1.919 . S
O123 C134 1.253 . S
O124 Zn118 1.941 . S
O124 C134 1.283 . S
O125 Zn118 1.965 . S
O125 C133 1.303 . S
O126 Zn119 1.938 . S
O126 C133 1.247 . S
O127 Zn119 1.906 . S
O127 C135 1.304 . S
O128 Zn116 1.924 . S
O128 C136 1.311 . S
O129 Zn120 1.977 . S
O129 C135 1.272 . S
O130 Zn120 1.910 . S
O130 C136 1.231 . S
C131 O115 1.225 . S
C131 O137 1.298 . S
C132 O121 1.226 . S
C132 O122 1.307 . S
C133 O125 1.303 . S
C133 O126 1.247 . S
C134 O123 1.253 . S
C134 O124 1.283 . S
C135 O127 1.304 . S
C135 O129 1.272 . S
C136 O128 1.311 . S
C136 O130 1.231 . S
O137 Zn119 1.953 . S
O137 C131 1.298 . S
O138 Zn139 1.953 . S
O138 C154 1.225 . S
Zn139 O138 1.953 . S
Zn139 O140 1.949 . S
Zn139 O146 1.919 . S
Zn139 O151 1.924 . S
O140 Zn139 1.949 . S
O140 Zn141 1.923 . S
O140 Zn142 1.950 . S
O140 Zn143 1.945 . S
Zn141 O140 1.923 . S
Zn141 O144 1.933 . S
Zn141 O147 1.941 . S
Zn141 O148 1.965 . S
Zn142 O140 1.950 . S
Zn142 O149 1.938 . S
Zn142 O150 1.906 . S
Zn142 O160 1.953 . S
Zn143 O140 1.945 . S
Zn143 O145 1.932 . S
Zn143 O152 1.977 . S
Zn143 O153 1.910 . S
O144 Zn141 1.933 . S
O144 C155 1.226 . S
O145 Zn143 1.932 . S
O145 C155 1.307 . S
O146 Zn139 1.919 . S
O146 C157 1.253 . S
O147 Zn141 1.941 . S
O147 C157 1.283 . S
O148 Zn141 1.965 . S
O148 C156 1.303 . S
O149 Zn142 1.938 . S
O149 C156 1.247 . S
O150 Zn142 1.906 . S
O150 C158 1.304 . S
O151 Zn139 1.924 . S
O151 C159 1.311 . S
O152 Zn143 1.977 . S
O152 C158 1.272 . S
O153 Zn143 1.910 . S
O153 C159 1.231 . S
C154 O138 1.225 . S
C154 O160 1.298 . S
C155 O144 1.226 . S
C155 O145 1.307 . S
C156 O148 1.303 . S
C156 O149 1.247 . S
C157 O146 1.253 . S
C157 O147 1.283 . S
C158 O150 1.304 . S
C158 O152 1.272 . S
C159 O151 1.311 . S
C159 O153 1.231 . S
O160 Zn142 1.953 . S
O160 C154 1.298 . S
O161 Zn162 1.953 . S
O161 C177 1.225 . S
Zn162 O161 1.953 . S
Zn162 O163 1.949 . S
Zn162 O169 1.919 . S
Zn162 O174 1.924 . S
O163 Zn162 1.949 . S
O163 Zn164 1.923 . S
O163 Zn165 1.950 . S
O163 Zn166 1.945 . S
Zn164 O163 1.923 . S
Zn164 O167 1.933 . S
Zn164 O170 1.941 . S
Zn164 O171 1.965 . S
Zn165 O163 1.950 . S
Zn165 O172 1.938 . S
Zn165 O173 1.906 . S
Zn165 O183 1.953 . S
Zn166 O163 1.945 . S
Zn166 O168 1.932 . S
Zn166 O175 1.977 . S
Zn166 O176 1.910 . S
O167 Zn164 1.933 . S
O167 C178 1.226 . S
O168 Zn166 1.932 . S
O168 C178 1.307 . S
O169 Zn162 1.919 . S
O169 C180 1.253 . S
O170 Zn164 1.941 . S
O170 C180 1.283 . S
O171 Zn164 1.965 . S
O171 C179 1.303 . S
O172 Zn165 1.938 . S
O172 C179 1.247 . S
O173 Zn165 1.906 . S
O173 C181 1.304 . S
O174 Zn162 1.924 . S
O174 C182 1.311 . S
O175 Zn166 1.977 . S
O175 C181 1.272 . S
O176 Zn166 1.910 . S
O176 C182 1.231 . S
C177 O161 1.225 . S
C177 O183 1.298 . S
C178 O167 1.226 . S
C178 O168 1.307 . S
C179 O171 1.303 . S
C179 O172 1.247 . S
C180 O169 1.253 . S
C180 O170 1.283 . S
C181 O173 1.304 . S
C181 O175 1.272 . S
C182 O174 1.311 . S
C182 O176 1.231 . S
O183 Zn165 1.953 . S
O183 C177 1.298 . S
O184 Zn185 1.953 . S
O184 C200 1.225 . S
Zn185 O184 1.953 . S
Zn185 O186 1.949 . S
Zn185 O192 1.919 . S
Zn185 O197 1.924 . S
O186 Zn185 1.949 . S
O186 Zn187 1.923 . S
O186 Zn188 1.950 . S
O186 Zn189 1.945 . S
Zn187 O186 1.923 . S
Zn187 O190 1.933 . S
Zn187 O193 1.941 . S
Zn187 O194 1.965 . S
Zn188 O186 1.950 . S
Zn188 O195 1.938 . S
Zn188 O196 1.906 . S
Zn188 O206 1.953 . S
Zn189 O186 1.945 . S
Zn189 O191 1.932 . S
Zn189 O198 1.977 . S
Zn189 O199 1.910 . S
O190 Zn187 1.933 . S
O190 C201 1.226 . S
O191 Zn189 1.932 . S
O191 C201 1.307 . S
O192 Zn185 1.919 . S
O192 C203 1.253 . S
O193 Zn187 1.941 . S
O193 C203 1.283 . S
O194 Zn187 1.965 . S
O194 C202 1.303 . S
O195 Zn188 1.938 . S
O195 C202 1.247 . S
O196 Zn188 1.906 . S
O196 C204 1.304 . S
O197 Zn185 1.924 . S
O197 C205 1.311 . S
O198 Zn189 1.977 . S
O198 C204 1.272 . S
O199 Zn189 1.910 . S
O199 C205 1.231 . S
C200 O184 1.225 . S
C200 O206 1.298 . S
C201 O190 1.226 . S
C201 O191 1.307 . S
C202 O194 1.303 . S
C202 O195 1.247 . S
C203 O192 1.253 . S
C203 O193 1.283 . S
C204 O196 1.304 . S
C204 O198 1.272 . S
C205 O197 1.311 . S
C205 O199 1.231 . S
O206 Zn188 1.953 . S
O206 C200 1.298 . S
O207 Zn208 1.953 . S
O207 C223 1.225 . S
Zn208 O207 1.953 . S
Zn208 O209 1.949 . S
Zn208 O215 1.919 . S
Zn208 O220 1.924 . S
O209 Zn208 1.949 . S
O209 Zn210 1.923 . S
O209 Zn211 1.950 . S
O209 Zn212 1.945 . S
Zn210 O209 1.923 . S
Zn210 O213 1.933 . S
Zn210 O216 1.941 . S
Zn210 O217 1.965 . S
Zn211 O209 1.950 . S
Zn211 O218 1.938 . S
Zn211 O219 1.906 . S
Zn211 O229 1.953 . S
Zn212 O209 1.945 . S
Zn212 O214 1.932 . S
Zn212 O221 1.977 . S
Zn212 O222 1.910 . S
O213 Zn210 1.933 . S
O213 C224 1.226 . S
O214 Zn212 1.932 . S
O214 C224 1.307 . S
O215 Zn208 1.919 . S
O215 C226 1.253 . S
O216 Zn210 1.941 . S
O216 C226 1.283 . S
O217 Zn210 1.965 . S
O217 C225 1.303 . S
O218 Zn211 1.938 . S
O218 C225 1.247 . S
O219 Zn211 1.906 . S
O219 C227 1.304 . S
O220 Zn208 1.924 . S
O220 C228 1.311 . S
O221 Zn212 1.977 . S
O221 C227 1.272 . S
O222 Zn212 1.910 . S
O222 C228 1.231 . S
C223 O207 1.225 . S
C223 O229 1.298 . S
C224 O213 1.226 . S
C224 O214 1.307 . S
C225 O217 1.303 . S
C225 O218 1.247 . S
C226 O215 1.253 . S
C226 O216 1.283 . S
C227 O219 1.304 . S
C227 O221 1.272 . S
C228 O220 1.311 . S
C228 O222 1.231 . S
O229 Zn211 1.953 . S
O229 C223 1.298 . S
O230 Zn231 1.953 . S
O230 C246 1.225 . S
Zn231 O230 1.953 . S
Zn231 O232 1.949 . S
Zn231 O238 1.919 . S
Zn231 O243 1.924 . S
O232 Zn231 1.949 . S
O232 Zn233 1.923 . S
O232 Zn234 1.950 . S
O232 Zn235 1.945 . S
Zn233 O232 1.923 . S
Zn233 O236 1.933 . S
Zn233 O239 1.941 . S
Zn233 O240 1.965 . S
Zn234 O232 1.950 . S
Zn234 O241 1.938 . S
Zn234 O242 1.906 . S
Zn234 O252 1.953 . S
Zn235 O232 1.945 . S
Zn235 O237 1.932 . S
Zn235 O244 1.977 . S
Zn235 O245 1.910 . S
O236 Zn233 1.933 . S
O236 C247 1.226 . S
O237 Zn235 1.932 . S
O237 C247 1.307 . S
O238 Zn231 1.919 . S
O238 C249 1.253 . S
O239 Zn233 1.941 . S
O239 C249 1.283 . S
O240 Zn233 1.965 . S
O240 C248 1.303 . S
O241 Zn234 1.938 . S
O241 C248 1.247 . S
O242 Zn234 1.906 . S
O242 C250 1.304 . S
O243 Zn231 1.924 . S
O243 C251 1.311 . S
O244 Zn235 1.977 . S
O244 C250 1.272 . S
O245 Zn235 1.910 . S
O245 C251 1.231 . S
C246 O230 1.225 . S
C246 O252 1.298 . S
C247 O236 1.226 . S
C247 O237 1.307 . S
C248 O240 1.303 . S
C248 O241 1.247 . S
C249 O238 1.253 . S
C249 O239 1.283 . S
C250 O242 1.304 . S
C250 O244 1.272 . S
C251 O243 1.311 . S
C251 O245 1.231 . S
O252 Zn234 1.953 . S
O252 C246 1.298 . S
O253 Zn254 1.953 . S
O253 C269 1.225 . S
Zn254 O253 1.953 . S
Zn254 O255 1.949 . S
Zn254 O261 1.919 . S
Zn254 O266 1.924 . S
O255 Zn254 1.949 . S
O255 Zn256 1.923 . S
O255 Zn257 1.950 . S
O255 Zn258 1.945 . S
Zn256 O255 1.923 . S
Zn256 O259 1.933 . S
Zn256 O262 1.941 . S
Zn256 O263 1.965 . S
Zn257 O255 1.950 . S
Zn257 O264 1.938 . S
Zn257 O265 1.906 . S
Zn257 O275 1.953 . S
Zn258 O255 1.945 . S
Zn258 O260 1.932 . S
Zn258 O267 1.977 . S
Zn258 O268 1.910 . S
O259 Zn256 1.933 . S
O259 C270 1.226 . S
O260 Zn258 1.932 . S
O260 C270 1.307 . S
O261 Zn254 1.919 . S
O261 C272 1.253 . S
O262 Zn256 1.941 . S
O262 C272 1.283 . S
O263 Zn256 1.965 . S
O263 C271 1.303 . S
O264 Zn257 1.938 . S
O264 C271 1.247 . S
O265 Zn257 1.906 . S
O265 C273 1.304 . S
O266 Zn254 1.924 . S
O266 C274 1.311 . S
O267 Zn258 1.977 . S
O267 C273 1.272 . S
O268 Zn258 1.910 . S
O268 C274 1.231 . S
C269 O253 1.225 . S
C269 O275 1.298 . S
C270 O259 1.226 . S
C270 O260 1.307 . S
C271 O263 1.303 . S
C271 O264 1.247 . S
C272 O261 1.253 . S
C272 O262 1.283 . S
C273 O265 1.304 . S
C273 O267 1.272 . S
C274 O266 1.311 . S
C274 O268 1.231 . S
O275 Zn257 1.953 . S
O275 C269 1.298 . S
O276 Zn277 1.953 . S
O276 C292 1.225 . S
Zn277 O276 1.953 . S
Zn277 O278 1.949 . S
Zn277 O284 1.919 . S
Zn277 O289 1.924 . S
O278 Zn277 1.949 . S
O278 Zn279 1.923 . S
O278 Zn280 1.950 . S
O278 Zn281 1.945 . S
Zn279 O278 1.923 . S
Zn279 O282 1.933 . S
Zn279 O285 1.941 . S
Zn279 O286 1.965 . S
Zn280 O278 1.950 . S
Zn280 O287 1.938 . S
Zn280 O288 1.906 . S
Zn280 O298 1.953 . S
Zn281 O278 1.945 . S
Zn281 O283 1.932 . S
Zn281 O290 1.977 . S
Zn281 O291 1.910 . S
O282 Zn279 1.933 . S
O282 C293 1.226 . S
O283 Zn281 1.932 . S
O283 C293 1.307 . S
O284 Zn277 1.919 . S
O284 C295 1.253 . S
O285 Zn279 1.941 . S
O285 C295 1.283 . S
O286 Zn279 1.965 . S
O286 C294 1.303 . S
O287 Zn280 1.938 . S
O287 C294 1.247 . S
O288 Zn280 1.906 . S
O288 C296 1.304 . S
O289 Zn277 1.924 . S
O289 C297 1.311 . S
O290 Zn281 1.977 . S
O290 C296 1.272 . S
O291 Zn281 1.910 . S
O291 C297 1.231 . S
C292 O276 1.225 . S
C292 O298 1.298 . S
C293 O282 1.226 . S
C293 O283 1.307 . S
C294 O286 1.303 . S
C294 O287 1.247 . S
C295 O284 1.253 . S
C295 O285 1.283 . S
C296 O288 1.304 . S
C296 O290 1.272 . S
C297 O289 1.311 . S
C297 O291 1.231 . S
O298 Zn280 1.953 . S
O298 C292 1.298 . S
O299 Zn300 1.953 . S
O299 C315 1.225 . S
Zn300 O299 1.953 . S
Zn300 O301 1.949 . S
Zn300 O307 1.919 . S
Zn300 O312 1.924 . S
O301 Zn300 1.949 . S
O301 Zn302 1.923 . S
O301 Zn303 1.950 . S
O301 Zn304 1.945 . S
Zn302 O301 1.923 . S
Zn302 O305 1.933 . S
Zn302 O308 1.941 . S
Zn302 O309 1.965 . S
Zn303 O301 1.950 . S
Zn303 O310 1.938 . S
Zn303 O311 1.906 . S
Zn303 O321 1.953 . S
Zn304 O301 1.945 . S
Zn304 O306 1.932 . S
Zn304 O313 1.977 . S
Zn304 O314 1.910 . S
O305 Zn302 1.933 . S
O305 C316 1.226 . S
O306 Zn304 1.932 . S
O306 C316 1.307 . S
O307 Zn300 1.919 . S
O307 C318 1.253 . S
O308 Zn302 1.941 . S
O308 C318 1.283 . S
O309 Zn302 1.965 . S
O309 C317 1.303 . S
O310 Zn303 1.938 . S
O310 C317 1.247 . S
O311 Zn303 1.906 . S
O311 C319 1.304 . S
O312 Zn300 1.924 . S
O312 C320 1.311 . S
O313 Zn304 1.977 . S
O313 C319 1.272 . S
O314 Zn304 1.910 . S
O314 C320 1.231 . S
C315 O299 1.225 . S
C315 O321 1.298 . S
C316 O305 1.226 . S
C316 O306 1.307 . S
C317 O309 1.303 . S
C317 O310 1.247 . S
C318 O307 1.253 . S
C318 O308 1.283 . S
C319 O311 1.304 . S
C319 O313 1.272 . S
C320 O312 1.311 . S
C320 O314 1.231 . S
O321 Zn303 1.953 . S
O321 C315 1.298 . S
O322 Zn323 1.953 . S
O322 C338 1.225 . S
Zn323 O322 1.953 . S
Zn323 O324 1.949 . S
Zn323 O330 1.919 . S
Zn323 O335 1.924 . S
O324 Zn323 1.949 . S
O324 Zn325 1.923 . S
O324 Zn326 1.950 . S
O324 Zn327 1.945 . S
Zn325 O324 1.923 . S
Zn325 O328 1.933 . S
Zn325 O331 1.941 . S
Zn325 O332 1.965 . S
Zn326 O324 1.950 . S
Zn326 O333 1.938 . S
Zn326 O334 1.906 . S
Zn326 O344 1.953 . S
Zn327 O324 1.945 . S
Zn327 O329 1.932 . S
Zn327 O336 1.977 . S
Zn327 O337 1.910 . S
O328 Zn325 1.933 . S
O328 C339 1.226 . S
O329 Zn327 1.932 . S
O329 C339 1.307 . S
O330 Zn323 1.919 . S
O330 C341 1.253 . S
O331 Zn325 1.941 . S
O331 C341 1.283 . S
O332 Zn325 1.965 . S
O332 C340 1.303 . S
O333 Zn326 1.938 . S
O333 C340 1.247 . S
O334 Zn326 1.906 . S
O334 C342 1.304 . S
O335 Zn323 1.924 . S
O335 C343 1.311 . S
O336 Zn327 1.977 . S
O336 C342 1.272 . S
O337 Zn327 1.910 . S
O337 C343 1.231 . S
C338 O322 1.225 . S
C338 O344 1.298 . S
C339 O328 1.226 . S
C339 O329 1.307 . S
C340 O332 1.303 . S
C340 O333 1.247 . S
C341 O330 1.253 . S
C341 O331 1.283 . S
C342 O334 1.304 . S
C342 O336 1.272 . S
C343 O335 1.311 . S
C343 O337 1.231 . S
O344 Zn326 1.953 . S
O344 C338 1.298 . S
O345 Zn346 1.953 . S
O345 C361 1.225 . S
Zn346 O345 1.953 . S
Zn346 O347 1.949 . S
Zn346 O353 1.919 . S
Zn346 O358 1.924 . S
O347 Zn346 1.949 . S
O347 Zn348 1.923 . S
O347 Zn349 1.950 . S
O347 Zn350 1.945 . S
Zn348 O347 1.923 . S
Zn348 O351 1.933 . S
Zn348 O354 1.941 . S
Zn348 O355 1.965 . S
Zn349 O347 1.950 . S
Zn349 O356 1.938 . S
Zn349 O357 1.906 . S
Zn349 O367 1.953 . S
Zn350 O347 1.945 . S
Zn350 O352 1.932 . S
Zn350 O359 1.977 . S
Zn350 O360 1.910 . S
O351 Zn348 1.933 . S
O351 C362 1.226 . S
O352 Zn350 1.932 . S
O352 C362 1.307 . S
O353 Zn346 1.919 . S
O353 C364 1.253 . S
O354 Zn348 1.941 . S
O354 C364 1.283 . S
O355 Zn348 1.965 . S
O355 C363 1.303 . S
O356 Zn349 1.938 . S
O356 C363 1.247 . S
O357 Zn349 1.906 . S
O357 C365 1.304 . S
O358 Zn346 1.924 . S
O358 C366 1.311 . S
O359 Zn350 1.977 . S
O359 C365 1.272 . S
O360 Zn350 1.910 . S
O360 C366 1.231 . S
C361 O345 1.225 . S
C361 O367 1.298 . S
C362 O351 1.226 . S
C362 O352 1.307 . S
C363 O355 1.303 . S
C363 O356 1.247 . S
C364 O353 1.253 . S
C364 O354 1.283 . S
C365 O357 1.304 . S
C365 O359 1.272 . S
C366 O358 1.311 . S
C366 O360 1.231 . S
O367 Zn349 1.953 . S
O367 C361 1.298 . S
O368 Zn369 1.953 . S
O368 C384 1.225 . S
Zn369 O368 1.953 . S
Zn369 O370 1.949 . S
Zn369 O376 1.919 . S
Zn369 O381 1.924 . S
O370 Zn369 1.949 . S
O370 Zn371 1.923 . S
O370 Zn372 1.950 . S
O370 Zn373 1.945 . S
Zn371 O370 1.923 . S
Zn371 O374 1.933 . S
Zn371 O377 1.941 . S
Zn371 O378 1.965 . S
Zn372 O370 1.950 . S
Zn372 O379 1.938 . S
Zn372 O380 1.906 . S
Zn372 O390 1.953 . S
Zn373 O370 1.945 . S
Zn373 O375 1.932 . S
Zn373 O382 1.977 . S
Zn373 O383 1.910 . S
O374 Zn371 1.933 . S
O374 C385 1.226 . S
O375 Zn373 1.932 . S
O375 C385 1.307 . S
O376 Zn369 1.919 . S
O376 C387 1.253 . S
O377 Zn371 1.941 . S
O377 C387 1.283 . S
O378 Zn371 1.965 . S
O378 C386 1.303 . S
O379 Zn372 1.938 . S
O379 C386 1.247 . S
O380 Zn372 1.906 . S
O380 C388 1.304 . S
O381 Zn369 1.924 . S
O381 C389 1.311 . S
O382 Zn373 1.977 . S
O382 C388 1.272 . S
O383 Zn373 1.910 . S
O383 C389 1.231 . S
C384 O368 1.225 . S
C384 O390 1.298 . S
C385 O374 1.226 . S
C385 O375 1.307 . S
C386 O378 1.303 . S
C386 O379 1.247 . S
C387 O376 1.253 . S
C387 O377 1.283 . S
C388 O380 1.304 . S
C388 O382 1.272 . S
C389 O381 1.311 . S
C389 O383 1.231 . S
O390 Zn372 1.953 . S
O390 C384 1.298 . S
O391 Zn392 1.953 . S
O391 C407 1.225 . S
Zn392 O391 1.953 . S
Zn392 O393 1.949 . S
Zn392 O399 1.919 . S
Zn392 O404 1.924 . S
O393 Zn392 1.949 . S
O393 Zn394 1.923 . S
O393 Zn395 1.950 . S
O393 Zn396 1.945 . S
Zn394 O393 1.923 . S
Zn394 O397 1.933 . S
Zn394 O400 1.941 . S
Zn394 O401 1.965 . S
Zn395 O393 1.950 . S
Zn395 O402 1.938 . S
Zn395 O403 1.906 . S
Zn395 O413 1.953 . S
Zn396 O393 1.945 . S
Zn396 O398 1.932 . S
Zn396 O405 1.977 . S
Zn396 O406 1.910 . S
O397 Zn394 1.933 . S
O397 C408 1.226 . S
O398 Zn396 1.932 . S
O398 C408 1.307 . S
O399 Zn392 1.919 . S
O399 C410 1.253 . S
O400 Zn394 1.941 . S
O400 C410 1.283 . S
O401 Zn394 1.965 . S
O401 C409 1.303 . S
O402 Zn395 1.938 . S
O402 C409 1.247 . S
O403 Zn395 1.906 . S
O403 C411 1.304 . S
O404 Zn392 1.924 . S
O404 C412 1.311 . S
O405 Zn396 1.977 . S
O405 C411 1.272 . S
O406 Zn396 1.910 . S
O406 C412 1.231 . S
C407 O391 1.225 . S
C407 O413 1.298 . S
C408 O397 1.226 . S
C408 O398 1.307 . S
C409 O401 1.303 . S
C409 O402 1.247 . S
C410 O399 1.253 . S
C410 O400 1.283 . S
C411 O403 1.304 . S
C411 O405 1.272 . S
C412 O404 1.311 . S
C412 O406 1.231 . S
O413 Zn395 1.953 . S
O413 C407 1.298 . S
O414 Zn415 1.953 . S
O414 C430 1.225 . S
Zn415 O414 1.953 . S
Zn415 O416 1.949 . S
Zn415 O422 1.919 . S
Zn415 O427 1.924 . S
O416 Zn415 1.949 . S
O416 Zn417 1.923 . S
O416 Zn418 1.950 . S
O416 Zn419 1.945 . S
Zn417 O416 1.923 . S
Zn417 O420 1.933 . S
Zn417 O423 1.941 . S
Zn417 O424 1.965 . S
Zn418 O416 1.950 . S
Zn418 O425 1.938 . S
Zn418 O426 1.906 . S
Zn418 O436 1.953 . S
Zn419 O416 1.945 . S
Zn419 O421 1.932 . S
Zn419 O428 1.977 . S
Zn419 O429 1.910 . S
O420 Zn417 1.933 . S
O420 C431 1.226 . S
O421 Zn419 1.932 . S
O421 C431 1.307 . S
O422 Zn415 1.919 . S
O422 C433 1.253 . S
O423 Zn417 1.941 . S
O423 C433 1.283 . S
O424 Zn417 1.965 . S
O424 C432 1.303 . S
O425 Zn418 1.938 . S
O425 C432 1.247 . S
O426 Zn418 1.906 . S
O426 C434 1.304 . S
O427 Zn415 1.924 . S
O427 C435 1.311 . S
O428 Zn419 1.977 . S
O428 C434 1.272 . S
O429 Zn419 1.910 . S
O429 C435 1.231 . S
C430 O414 1.225 . S
C430 O436 1.298 . S
C431 O420 1.226 . S
C431 O421 1.307 . S
C432 O424 1.303 . S
C432 O425 1.247 . S
C433 O422 1.253 . S
C433 O423 1.283 . S
C434 O426 1.304 . S
C434 O428 1.272 . S
C435 O427 1.311 . S
C435 O429 1.231 . S
O436 Zn418 1.953 . S
O436 C430 1.298 . S
O437 Zn438 1.953 . S
O437 C453 1.225 . S
Zn438 O437 1.953 . S
Zn438 O439 1.949 . S
Zn438 O445 1.919 . S
Zn438 O450 1.924 . S
O439 Zn438 1.949 . S
O439 Zn440 1.923 . S
O439 Zn441 1.950 . S
O439 Zn442 1.945 . S
Zn440 O439 1.923 . S
Zn440 O443 1.933 . S
Zn440 O446 1.941 . S
Zn440 O447 1.965 . S
Zn441 O439 1.950 . S
Zn441 O448 1.938 . S
Zn441 O449 1.906 . S
Zn441 O459 1.953 . S
Zn442 O439 1.945 . S
Zn442 O444 1.932 . S
Zn442 O451 1.977 . S
Zn442 O452 1.910 . S
O443 Zn440 1.933 . S
O443 C454 1.226 . S
O444 Zn442 1.932 . S
O444 C454 1.307 . S
O445 Zn438 1.919 . S
O445 C456 1.253 . S
O446 Zn440 1.941 . S
O446 C456 1.283 . S
O447 Zn440 1.965 . S
O447 C455 1.303 . S
O448 Zn441 1.938 . S
O448 C455 1.247 . S
O449 Zn441 1.906 . S
O449 C457 1.304 . S
O450 Zn438 1.924 . S
O450 C458 1.311 . S
O451 Zn442 1.977 . S
O451 C457 1.272 . S
O452 Zn442 1.910 . S
O452 C458 1.231 . S
C453 O437 1.225 . S
C453 O459 1.298 . S
C454 O443 1.226 . S
C454 O444 1.307 . S
C455 O447 1.303 . S
C455 O448 1.247 . S
C456 O445 1.253 . S
C456 O446 1.283 . S
C457 O449 1.304 . S
C457 O451 1.272 . S
C458 O450 1.311 . S
C458 O452 1.231 . S
O459 Zn441 1.953 . S
O459 C453 1.298 . S
O460 Zn461 1.953 . S
O460 C476 1.225 . S
Zn461 O460 1.953 . S
Zn461 O462 1.949 . S
Zn461 O468 1.919 . S
Zn461 O473 1.924 . S
O462 Zn461 1.949 . S
O462 Zn463 1.923 . S
O462 Zn464 1.950 . S
O462 Zn465 1.945 . S
Zn463 O462 1.923 . S
Zn463 O466 1.933 . S
Zn463 O469 1.941 . S
Zn463 O470 1.965 . S
Zn464 O462 1.950 . S
Zn464 O471 1.938 . S
Zn464 O472 1.906 . S
Zn464 O482 1.953 . S
Zn465 O462 1.945 . S
Zn465 O467 1.932 . S
Zn465 O474 1.977 . S
Zn465 O475 1.910 . S
O466 Zn463 1.933 . S
O466 C477 1.226 . S
O467 Zn465 1.932 . S
O467 C477 1.307 . S
O468 Zn461 1.919 . S
O468 C479 1.253 . S
O469 Zn463 1.941 . S
O469 C479 1.283 . S
O470 Zn463 1.965 . S
O470 C478 1.303 . S
O471 Zn464 1.938 . S
O471 C478 1.247 . S
O472 Zn464 1.906 . S
O472 C480 1.304 . S
O473 Zn461 1.924 . S
O473 C481 1.311 . S
O474 Zn465 1.977 . S
O474 C480 1.272 . S
O475 Zn465 1.910 . S
O475 C481 1.231 . S
C476 O460 1.225 . S
C476 O482 1.298 . S
C477 O466 1.226 . S
C477 O467 1.307 . S
C478 O470 1.303 . S
C478 O471 1.247 . S
C479 O468 1.253 . S
C479 O469 1.283 . S
C480 O472 1.304 . S
C480 O474 1.272 . S
C481 O473 1.311 . S
C481 O475 1.231 . S
O482 Zn464 1.953 . S
O482 C476 1.298 . S
O483 Zn484 1.953 . S
O483 C499 1.225 . S
Zn484 O483 1.953 . S
Zn484 O485 1.949 . S
Zn484 O491 1.919 . S
Zn484 O496 1.924 . S
O485 Zn484 1.949 . S
O485 Zn486 1.923 . S
O485 Zn487 1.950 . S
O485 Zn488 1.945 . S
Zn486 O485 1.923 . S
Zn486 O489 1.933 . S
Zn486 O492 1.941 . S
Zn486 O493 1.965 . S
Zn487 O485 1.950 . S
Zn487 O494 1.938 . S
Zn487 O495 1.906 . S
Zn487 O505 1.953 . S
Zn488 O485 1.945 . S
Zn488 O490 1.932 . S
Zn488 O497 1.977 . S
Zn488 O498 1.910 . S
O489 Zn486 1.933 . S
O489 C500 1.226 . S
O490 Zn488 1.932 . S
O490 C500 1.307 . S
O491 Zn484 1.919 . S
O491 C502 1.253 . S
O492 Zn486 1.941 . S
O492 C502 1.283 . S
O493 Zn486 1.965 . S
O493 C501 1.303 . S
O494 Zn487 1.938 . S
O494 C501 1.247 . S
O495 Zn487 1.906 . S
O495 C503 1.304 . S
O496 Zn484 1.924 . S
O496 C504 1.311 . S
O497 Zn488 1.977 . S
O497 C503 1.272 . S
O498 Zn488 1.910 . S
O498 C504 1.231 . S
C499 O483 1.225 . S
C499 O505 1.298 . S
C500 O489 1.226 . S
C500 O490 1.307 . S
C501 O493 1.303 . S
C501 O494 1.247 . S
C502 O491 1.253 . S
C502 O492 1.283 . S
C503 O495 1.304 . S
C503 O497 1.272 . S
C504 O496 1.311 . S
C504 O498 1.231 . S
O505 Zn487 1.953 . S
O505 C499 1.298 . S
O506 Zn507 1.953 . S
O506 C522 1.225 . S
Zn507 O506 1.953 . S
Zn507 O508 1.949 . S
Zn507 O514 1.919 . S
Zn507 O519 1.924 . S
O508 Zn507 1.949 . S
O508 Zn509 1.923 . S
O508 Zn510 1.950 . S
O508 Zn511 1.945 . S
Zn509 O508 1.923 . S
Zn509 O512 1.933 . S
Zn509 O515 1.941 . S
Zn509 O516 1.965 . S
Zn510 O508 1.950 . S
Zn510 O517 1.938 . S
Zn510 O518 1.906 . S
Zn510 O528 1.953 . S
Zn511 O508 1.945 . S
Zn511 O513 1.932 . S
Zn511 O520 1.977 . S
Zn511 O521 1.910 . S
O512 Zn509 1.933 . S
O512 C523 1.226 . S
O513 Zn511 1.932 . S
O513 C523 1.307 . S
O514 Zn507 1.919 . S
O514 C525 1.253 . S
O515 Zn509 1.941 . S
O515 C525 1.283 . S
O516 Zn509 1.965 . S
O516 C524 1.303 . S
O517 Zn510 1.938 . S
O517 C524 1.247 . S
O518 Zn510 1.906 . S
O518 C526 1.304 . S
O519 Zn507 1.924 . S
O519 C527 1.311 . S
O520 Zn511 1.977 . S
O520 C526 1.272 . S
O521 Zn511 1.910 . S
O521 C527 1.231 . S
C522 O506 1.225 . S
C522 O528 1.298 . S
C523 O512 1.226 . S
C523 O513 1.307 . S
C524 O516 1.303 . S
C524 O517 1.247 . S
C525 O514 1.253 . S
C525 O515 1.283 . S
C526 O518 1.304 . S
C526 O520 1.272 . S
C527 O519 1.311 . S
C527 O521 1.231 . S
O528 Zn510 1.953 . S
O528 C522 1.298 . S
O529 Zn530 1.953 . S
O529 C545 1.225 . S
Zn530 O529 1.953 . S
Zn530 O531 1.949 . S
Zn530 O537 1.919 . S
Zn530 O542 1.924 . S
O531 Zn530 1.949 . S
O531 Zn532 1.923 . S
O531 Zn533 1.950 . S
O531 Zn534 1.945 . S
Zn532 O531 1.923 . S
Zn532 O535 1.933 . S
Zn532 O538 1.941 . S
Zn532 O539 1.965 . S
Zn533 O531 1.950 . S
Zn533 O540 1.938 . S
Zn533 O541 1.906 . S
Zn533 O551 1.953 . S
Zn534 O531 1.945 . S
Zn534 O536 1.932 . S
Zn534 O543 1.977 . S
Zn534 O544 1.910 . S
O535 Zn532 1.933 . S
O535 C546 1.226 . S
O536 Zn534 1.932 . S
O536 C546 1.307 . S
O537 Zn530 1.919 . S
O537 C548 1.253 . S
O538 Zn532 1.941 . S
O538 C548 1.283 . S
O539 Zn532 1.965 . S
O539 C547 1.303 . S
O540 Zn533 1.938 . S
O540 C547 1.247 . S
O541 Zn533 1.906 . S
O541 C549 1.304 . S
O542 Zn530 1.924 . S
O542 C550 1.311 . S
O543 Zn534 1.977 . S
O543 C549 1.272 . S
O544 Zn534 1.910 . S
O544 C550 1.231 . S
C545 O529 1.225 . S
C545 O551 1.298 . S
C546 O535 1.226 . S
C546 O536 1.307 . S
C547 O539 1.303 . S
C547 O540 1.247 . S
C548 O537 1.253 . S
C548 O538 1.283 . S
C549 O541 1.304 . S
C549 O543 1.272 . S
C550 O542 1.311 . S
C550 O544 1.231 . S
O551 Zn533 1.953 . S
O551 C545 1.298 . S
O552 Zn553 1.953 . S
O552 C568 1.225 . S
Zn553 O552 1.953 . S
Zn553 O554 1.949 . S
Zn553 O560 1.919 . S
Zn553 O565 1.924 . S
O554 Zn553 1.949 . S
O554 Zn555 1.923 . S
O554 Zn556 1.950 . S
O554 Zn557 1.945 . S
Zn555 O554 1.923 . S
Zn555 O558 1.933 . S
Zn555 O561 1.941 . S
Zn555 O562 1.965 . S
Zn556 O554 1.950 . S
Zn556 O563 1.938 . S
Zn556 O564 1.906 . S
Zn556 O574 1.953 . S
Zn557 O554 1.945 . S
Zn557 O559 1.932 . S
Zn557 O566 1.977 . S
Zn557 O567 1.910 . S
O558 Zn555 1.933 . S
O558 C569 1.226 . S
O559 Zn557 1.932 . S
O559 C569 1.307 . S
O560 Zn553 1.919 . S
O560 C571 1.253 . S
O561 Zn555 1.941 . S
O561 C571 1.283 . S
O562 Zn555 1.965 . S
O562 C570 1.303 . S
O563 Zn556 1.938 . S
O563 C570 1.247 . S
O564 Zn556 1.906 . S
O564 C572 1.304 . S
O565 Zn553 1.924 . S
O565 C573 1.311 . S
O566 Zn557 1.977 . S
O566 C572 1.272 . S
O567 Zn557 1.910 . S
O567 C573 1.231 . S
C568 O552 1.225 . S
C568 O574 1.298 . S
C569 O558 1.226 . S
C569 O559 1.307 . S
C570 O562 1.303 . S
C570 O563 1.247 . S
C571 O560 1.253 . S
C571 O561 1.283 . S
C572 O564 1.304 . S
C572 O566 1.272 . S
C573 O565 1.311 . S
C573 O567 1.231 . S
O574 Zn556 1.953 . S
O574 C568 1.298 . S
O575 Zn576 1.953 . S
O575 C591 1.225 . S
Zn576 O575 1.953 . S
Zn576 O577 1.949 . S
Zn576 O583 1.919 . S
Zn576 O588 1.924 . S
O577 Zn576 1.949 . S
O577 Zn578 1.923 . S
O577 Zn579 1.950 . S
O577 Zn580 1.945 . S
Zn578 O577 1.923 . S
Zn578 O581 1.933 . S
Zn578 O584 1.941 . S
Zn578 O585 1.965 . S
Zn579 O577 1.950 . S
Zn579 O586 1.938 . S
Zn579 O587 1.906 . S
Zn579 O597 1.953 . S
Zn580 O577 1.945 . S
Zn580 O582 1.932 . S
Zn580 O589 1.977 . S
Zn580 O590 1.910 . S
O581 Zn578 1.933 . S
O581 C592 1.226 . S
O582 Zn580 1.932 . S
O582 C592 1.307 . S
O583 Zn576 1.919 . S
O583 C594 1.253 . S
O584 Zn578 1.941 . S
O584 C594 1.283 . S
O585 Zn578 1.965 . S
O585 C593 1.303 . S
O586 Zn579 1.938 . S
O586 C593 1.247 . S
O587 Zn579 1.906 . S
O587 C595 1.304 . S
O588 Zn576 1.924 . S
O588 C596 1.311 . S
O589 Zn580 1.977 . S
O589 C595 1.272 . S
O590 Zn580 1.910 . S
O590 C596 1.231 . S
C591 O575 1.225 . S
C591 O597 1.298 . S
C592 O581 1.226 . S
C592 O582 1.307 . S
C593 O585 1.303 . S
C593 O586 1.247 . S
C594 O583 1.253 . S
C594 O584 1.283 . S
C595 O587 1.304 . S
C595 O589 1.272 . S
C596 O588 1.311 . S
C596 O590 1.231 . S
O597 Zn579 1.953 . S
O597 C591 1.298 . S
O598 Zn599 1.953 . S
O598 C614 1.225 . S
Zn599 O598 1.953 . S
Zn599 O600 1.949 . S
Zn599 O606 1.919 . S
Zn599 O611 1.924 . S
O600 Zn599 1.949 . S
O600 Zn601 1.923 . S
O600 Zn602 1.950 . S
O600 Zn603 1.945 . S
Zn601 O600 1.923 . S
Zn601 O604 1.933 . S
Zn601 O607 1.941 . S
Zn601 O608 1.965 . S
Zn602 O600 1.950 . S
Zn602 O609 1.938 . S
Zn602 O610 1.906 . S
Zn602 O620 1.953 . S
Zn603 O600 1.945 . S
Zn603 O605 1.932 . S
Zn603 O612 1.977 . S
Zn603 O613 1.910 . S
O604 Zn601 1.933 . S
O604 C615 1.226 . S
O605 Zn603 1.932 . S
O605 C615 1.307 . S
O606 Zn599 1.919 . S
O606 C617 1.253 . S
O607 Zn601 1.941 . S
O607 C617 1.283 . S
O608 Zn601 1.965 . S
O608 C616 1.303 . S
O609 Zn602 1.938 . S
O609 C616 1.247 . S
O610 Zn602 1.906 . S
O610 C618 1.304 . S
O611 Zn599 1.924 . S
O611 C619 1.311 . S
O612 Zn603 1.977 . S
O612 C618 1.272 . S
O613 Zn603 1.910 . S
O613 C619 1.231 . S
C614 O598 1.225 . S
C614 O620 1.298 . S
C615 O604 1.226 . S
C615 O605 1.307 . S
C616 O608 1.303 . S
C616 O609 1.247 . S
C617 O606 1.253 . S
C617 O607 1.283 . S
C618 O610 1.304 . S
C618 O612 1.272 . S
C619 O611 1.311 . S
C619 O613 1.231 . S
O620 Zn602 1.953 . S
O620 C614 1.298 . S
O621 Zn622 1.953 . S
O621 C637 1.225 . S
Zn622 O621 1.953 . S
Zn622 O623 1.949 . S
Zn622 O629 1.919 . S
Zn622 O634 1.924 . S
O623 Zn622 1.949 . S
O623 Zn624 1.923 . S
O623 Zn625 1.950 . S
O623 Zn626 1.945 . S
Zn624 O623 1.923 . S
Zn624 O627 1.933 . S
Zn624 O630 1.941 . S
Zn624 O631 1.965 . S
Zn625 O623 1.950 . S
Zn625 O632 1.938 . S
Zn625 O633 1.906 . S
Zn625 O643 1.953 . S
Zn626 O623 1.945 . S
Zn626 O628 1.932 . S
Zn626 O635 1.977 . S
Zn626 O636 1.910 . S
O627 Zn624 1.933 . S
O627 C638 1.226 . S
O628 Zn626 1.932 . S
O628 C638 1.307 . S
O629 Zn622 1.919 . S
O629 C640 1.253 . S
O630 Zn624 1.941 . S
O630 C640 1.283 . S
O631 Zn624 1.965 . S
O631 C639 1.303 . S
O632 Zn625 1.938 . S
O632 C639 1.247 . S
O633 Zn625 1.906 . S
O633 C641 1.304 . S
O634 Zn622 1.924 . S
O634 C642 1.311 . S
O635 Zn626 1.977 . S
O635 C641 1.272 . S
O636 Zn626 1.910 . S
O636 C642 1.231 . S
C637 O621 1.225 . S
C637 O643 1.298 . S
C638 O627 1.226 . S
C638 O628 1.307 . S
C639 O631 1.303 . S
C639 O632 1.247 . S
C640 O629 1.253 . S
C640 O630 1.283 . S
C641 O633 1.304 . S
C641 O635 1.272 . S
C642 O634 1.311 . S
C642 O636 1.231 . S
O643 Zn625 1.953 . S
O643 C637 1.298 . S
O644 Zn645 1.953 . S
O644 C660 1.225 . S
Zn645 O644 1.953 . S
Zn645 O646 1.949 . S
Zn645 O652 1.919 . S
Zn645 O657 1.924 . S
O646 Zn645 1.949 . S
O646 Zn647 1.923 . S
O646 Zn648 1.950 . S
O646 Zn649 1.945 . S
Zn647 O646 1.923 . S
Zn647 O650 1.933 . S
Zn647 O653 1.941 . S
Zn647 O654 1.965 . S
Zn648 O646 1.950 . S
Zn648 O655 1.938 . S
Zn648 O656 1.906 . S
Zn648 O666 1.953 . S
Zn649 O646 1.945 . S
Zn649 O651 1.932 . S
Zn649 O658 1.977 . S
Zn649 O659 1.910 . S
O650 Zn647 1.933 . S
O650 C661 1.226 . S
O651 Zn649 1.932 . S
O651 C661 1.307 . S
O652 Zn645 1.919 . S
O652 C663 1.253 . S
O653 Zn647 1.941 . S
O653 C663 1.283 . S
O654 Zn647 1.965 . S
O654 C662 1.303 . S
O655 Zn648 1.938 . S
O655 C662 1.247 . S
O656 Zn648 1.906 . S
O656 C664 1.304 . S
O657 Zn645 1.924 . S
O657 C665 1.311 . S
O658 Zn649 1.977 . S
O658 C664 1.272 . S
O659 Zn649 1.910 . S
O659 C665 1.231 . S
C660 O644 1.225 . S
C660 O666 1.298 . S
C661 O650 1.226 . S
C661 O651 1.307 . S
C662 O654 1.303 . S
C662 O655 1.247 . S
C663 O652 1.253 . S
C663 O653 1.283 . S
C664 O656 1.304 . S
C664 O658 1.272 . S
C665 O657 1.311 . S
C665 O659 1.231 . S
O666 Zn648 1.953 . S
O666 C660 1.298 . S
O667 Zn668 1.953 . S
O667 C683 1.225 . S
Zn668 O667 1.953 . S
Zn668 O669 1.949 . S
Zn668 O675 1.919 . S
Zn668 O680 1.924 . S
O669 Zn668 1.949 . S
O669 Zn670 1.923 . S
O669 Zn671 1.950 . S
O669 Zn672 1.945 . S
Zn670 O669 1.923 . S
Zn670 O673 1.933 . S
Zn670 O676 1.941 . S
Zn670 O677 1.965 . S
Zn671 O669 1.950 . S
Zn671 O678 1.938 . S
Zn671 O679 1.906 . S
Zn671 O689 1.953 . S
Zn672 O669 1.945 . S
Zn672 O674 1.932 . S
Zn672 O681 1.977 . S
Zn672 O682 1.910 . S
O673 Zn670 1.933 . S
O673 C684 1.226 . S
O674 Zn672 1.932 . S
O674 C684 1.307 . S
O675 Zn668 1.919 . S
O675 C686 1.253 . S
O676 Zn670 1.941 . S
O676 C686 1.283 . S
O677 Zn670 1.965 . S
O677 C685 1.303 . S
O678 Zn671 1.938 . S
O678 C685 1.247 . S
O679 Zn671 1.906 . S
O679 C687 1.304 . S
O680 Zn668 1.924 . S
O680 C688 1.311 . S
O681 Zn672 1.977 . S
O681 C687 1.272 . S
O682 Zn672 1.910 . S
O682 C688 1.231 . S
C683 O667 1.225 . S
C683 O689 1.298 . S
C684 O673 1.226 . S
C684 O674 1.307 . S
C685 O677 1.303 . S
C685 O678 1.247 . S
C686 O675 1.253 . S
C686 O676 1.283 . S
C687 O679 1.304 . S
C687 O681 1.272 . S
C688 O680 1.311 . S
C688 O682 1.231 . S
O689 Zn671 1.953 . S
O689 C683 1.298 . S
O690 Zn691 1.953 . S
O690 C706 1.225 . S
Zn691 O690 1.953 . S
Zn691 O692 1.949 . S
Zn691 O698 1.919 . S
Zn691 O703 1.924 . S
O692 Zn691 1.949 . S
O692 Zn693 1.923 . S
O692 Zn694 1.950 . S
O692 Zn695 1.945 . S
Zn693 O692 1.923 . S
Zn693 O696 1.933 . S
Zn693 O699 1.941 . S
Zn693 O700 1.965 . S
Zn694 O692 1.950 . S
Zn694 O701 1.938 . S
Zn694 O702 1.906 . S
Zn694 O712 1.953 . S
Zn695 O692 1.945 . S
Zn695 O697 1.932 . S
Zn695 O704 1.977 . S
Zn695 O705 1.910 . S
O696 Zn693 1.933 . S
O696 C707 1.226 . S
O697 Zn695 1.932 . S
O697 C707 1.307 . S
O698 Zn691 1.919 . S
O698 C709 1.253 . S
O699 Zn693 1.941 . S
O699 C709 1.283 . S
O700 Zn693 1.965 . S
O700 C708 1.303 . S
O701 Zn694 1.938 . S
O701 C708 1.247 . S
O702 Zn694 1.906 . S
O702 C710 1.304 . S
O703 Zn691 1.924 . S
O703 C711 1.311 . S
O704 Zn695 1.977 . S
O704 C710 1.272 . S
O705 Zn695 1.910 . S
O705 C711 1.231 . S
C706 O690 1.225 . S
C706 O712 1.298 . S
C707 O696 1.226 . S
C707 O697 1.307 . S
C708 O700 1.303 . S
C708 O701 1.247 . S
C709 O698 1.253 . S
C709 O699 1.283 . S
C710 O702 1.304 . S
C710 O704 1.272 . S
C711 O703 1.311 . S
C711 O705 1.231 . S
O712 Zn694 1.953 . S
O712 C706 1.298 . S
O713 Zn714 1.953 . S
O713 C729 1.225 . S
Zn714 O713 1.953 . S
Zn714 O715 1.949 . S
Zn714 O721 1.919 . S
Zn714 O726 1.924 . S
O715 Zn714 1.949 . S
O715 Zn716 1.923 . S
O715 Zn717 1.950 . S
O715 Zn718 1.945 . S
Zn716 O715 1.923 . S
Zn716 O719 1.933 . S
Zn716 O722 1.941 . S
Zn716 O723 1.965 . S
Zn717 O715 1.950 . S
Zn717 O724 1.938 . S
Zn717 O725 1.906 . S
Zn717 O735 1.953 . S
Zn718 O715 1.945 . S
Zn718 O720 1.932 . S
Zn718 O727 1.977 . S
Zn718 O728 1.910 . S
O719 Zn716 1.933 . S
O719 C730 1.226 . S
O720 Zn718 1.932 . S
O720 C730 1.307 . S
O721 Zn714 1.919 . S
O721 C732 1.253 . S
O722 Zn716 1.941 . S
O722 C732 1.283 . S
O723 Zn716 1.965 . S
O723 C731 1.303 . S
O724 Zn717 1.938 . S
O724 C731 1.247 . S
O725 Zn717 1.906 . S
O725 C733 1.304 . S
O726 Zn714 1.924 . S
O726 C734 1.311 . S
O727 Zn718 1.977 . S
O727 C733 1.272 . S
O728 Zn718 1.910 . S
O728 C734 1.231 . S
C729 O713 1.225 . S
C729 O735 1.298 . S
C730 O719 1.226 . S
C730 O720 1.307 . S
C731 O723 1.303 . S
C731 O724 1.247 . S
C732 O721 1.253 . S
C732 O722 1.283 . S
C733 O725 1.304 . S
C733 O727 1.272 . S
C734 O726 1.311 . S
C734 O728 1.231 . S
O735 Zn717 1.953 . S
O735 C729 1.298 . S
C736 C737 1.387 . S
C736 H740 0.950 . S
C736 C745 1.390 . S
C737 C736 1.387 . S
C737 C739 1.387 . S
H738 C745 0.950 . S
C739 C737 1.387 . S
C739 C741 1.390 . S
C739 H743 0.950 . S
H740 C736 0.950 . S
C741 C739 1.390 . S
C741 C742 1.387 . S
C741 H744 0.950 . S
C742 C741 1.387 . S
C742 C745 1.387 . S
H743 C739 0.950 . S
H744 C741 0.950 . S
C745 C736 1.390 . S
C745 H738 0.950 . S
C745 C742 1.387 . S
C746 C747 1.389 . S
C746 H750 0.930 1_655 S
C746 C755 1.410 . S
C747 C746 1.389 . S
C747 C749 1.387 . S
H748 C755 0.950 . S
C749 C747 1.387 . S
C749 C751 1.390 . S
C749 H753 0.950 . S
H750 C746 0.930 1_455 S
C751 C749 1.390 . S
C751 C752 1.387 . S
C751 H754 0.950 . S
C752 C751 1.387 . S
C752 C755 1.387 . S
H753 C749 0.950 . S
H754 C751 0.950 . S
C755 C746 1.410 . S
C755 H748 0.950 . S
C755 C752 1.387 . S
C756 C757 1.387 . S
C756 H760 0.950 . S
C756 C765 1.390 . S
C757 C756 1.387 . S
C757 C759 1.387 . S
H758 C765 0.950 . S
C759 C757 1.387 . S
C759 C761 1.390 . S
C759 H763 0.950 . S
H760 C756 0.950 . S
C761 C759 1.390 . S
C761 C762 1.387 . S
C761 H764 0.950 . S
C762 C761 1.387 . S
C762 C765 1.387 . S
H763 C759 0.950 . S
H764 C761 0.950 . S
C765 C756 1.390 . S
C765 H758 0.950 . S
C765 C762 1.387 . S
C766 C767 1.387 . S
C766 H770 0.950 . S
C766 C775 1.390 . S
C767 C766 1.387 . S
C767 C769 1.387 . S
H768 C775 0.950 . S
C769 C767 1.387 . S
C769 C771 1.390 . S
C769 H773 0.950 . S
H770 C766 0.950 . S
C771 C769 1.390 . S
C771 C772 1.387 . S
C771 H774 0.950 . S
C772 C771 1.387 . S
C772 C775 1.387 . S
H773 C769 0.950 . S
H774 C771 0.950 . S
C775 C766 1.390 . S
C775 H768 0.950 . S
C775 C772 1.387 . S
C776 C777 1.387 . S
C776 H780 0.950 . S
C776 C785 1.390 . S
C777 C776 1.387 . S
C777 C779 1.387 . S
H778 C785 0.950 . S
C779 C777 1.387 . S
C779 C781 1.390 . S
C779 H783 0.950 . S
H780 C776 0.950 . S
C781 C779 1.390 . S
C781 C782 1.387 . S
C781 H784 0.950 . S
C782 C781 1.387 . S
C782 C785 1.387 . S
H783 C779 0.950 . S
H784 C781 0.950 . S
C785 C776 1.390 . S
C785 H778 0.950 . S
C785 C782 1.387 . S
C786 C787 1.387 . S
C786 H790 0.950 . S
C786 C795 1.390 . S
C787 C786 1.387 . S
C787 C789 1.387 . S
H788 C795 0.950 . S
C789 C787 1.387 . S
C789 C791 1.390 . S
C789 H793 0.950 . S
H790 C786 0.950 . S
C791 C789 1.390 . S
C791 C792 1.387 . S
C791 H794 0.950 . S
C792 C791 1.387 . S
C792 C795 1.387 . S
H793 C789 0.950 . S
H794 C791 0.950 . S
C795 C786 1.390 . S
C795 H788 0.950 . S
C795 C792 1.387 . S
C796 C797 1.387 . S
C796 H800 0.950 . S
C796 C805 1.390 . S
C797 C796 1.387 . S
C797 C799 1.387 . S
H798 C805 0.950 . S
C799 C797 1.387 . S
C799 C801 1.390 . S
C799 H803 0.950 . S
H800 C796 0.950 . S
C801 C799 1.390 . S
C801 C802 1.387 . S
C801 H804 0.950 . S
C802 C801 1.387 . S
C802 C805 1.387 . S
H803 C799 0.950 . S
H804 C801 0.950 . S
C805 C796 1.390 . S
C805 H798 0.950 . S
C805 C802 1.387 . S
C806 C807 1.387 . S
C806 H810 0.950 . S
C806 C815 1.390 . S
C807 C806 1.387 . S
C807 C809 1.387 . S
H808 C815 0.950 . S
C809 C807 1.387 . S
C809 C811 1.390 . S
C809 H813 0.956 . S
H810 C806 0.950 . S
C811 C809 1.390 . S
C811 C812 1.387 . S
C811 H814 0.950 . S
C812 C811 1.387 . S
C812 C815 1.387 . S
H813 C809 0.956 . S
H814 C811 0.950 . S
C815 C806 1.390 . S
C815 H808 0.950 . S
C815 C812 1.387 . S
C816 C817 1.387 . S
C816 H820 0.950 . S
C816 C825 1.390 . S
C817 C816 1.387 . S
C817 C819 1.387 . S
H818 C825 0.950 . S
C819 C817 1.387 . S
C819 C821 1.390 . S
C819 H823 0.950 . S
H820 C816 0.950 . S
C821 C819 1.390 . S
C821 C822 1.387 . S
C821 H824 0.950 . S
C822 C821 1.387 . S
C822 C825 1.387 . S
H823 C819 0.950 . S
H824 C821 0.950 . S
C825 C816 1.390 . S
C825 H818 0.950 . S
C825 C822 1.387 . S
C826 C827 1.387 . S
C826 H830 0.950 . S
C826 C835 1.390 . S
C827 C826 1.387 . S
C827 C829 1.387 . S
H828 C835 0.950 . S
C829 C827 1.387 . S
C829 C831 1.390 . S
C829 H833 0.950 1_455 S
H830 C826 0.950 . S
C831 C829 1.390 . S
C831 C832 1.387 . S
C831 H834 0.950 . S
C832 C831 1.387 . S
C832 C835 1.387 . S
H833 C829 0.950 1_655 S
H834 C831 0.950 . S
C835 C826 1.390 . S
C835 H828 0.950 . S
C835 C832 1.387 . S
C836 C837 1.387 . S
C836 H840 0.950 . S
C836 C845 1.390 . S
C837 C836 1.387 . S
C837 C839 1.387 . S
H838 C845 0.950 . S
C839 C837 1.387 . S
C839 C841 1.390 . S
C839 H843 0.950 . S
H840 C836 0.950 . S
C841 C839 1.390 . S
C841 C842 1.387 . S
C841 H844 0.950 . S
C842 C841 1.387 . S
C842 C845 1.387 . S
H843 C839 0.950 . S
H844 C841 0.950 . S
C845 C836 1.390 . S
C845 H838 0.950 . S
C845 C842 1.387 . S
C846 C847 1.387 . S
C846 H850 0.950 . S
C846 C855 1.390 . S
C847 C846 1.387 . S
C847 C849 1.387 . S
H848 C855 0.950 . S
C849 C847 1.387 . S
C849 C851 1.390 . S
C849 H853 0.950 . S
H850 C846 0.950 . S
C851 C849 1.390 . S
C851 C852 1.387 . S
C851 H854 0.950 . S
C852 C851 1.387 . S
C852 C855 1.387 . S
H853 C849 0.950 . S
H854 C851 0.950 . S
C855 C846 1.390 . S
C855 H848 0.950 . S
C855 C852 1.387 . S
C856 C857 1.387 . S
C856 H860 0.950 . S
C856 C865 1.390 . S
C857 C856 1.387 . S
C857 C859 1.387 . S
H858 C865 0.950 . S
C859 C857 1.387 . S
C859 C861 1.390 . S
C859 H863 0.950 . S
H860 C856 0.950 . S
C861 C859 1.390 . S
C861 C862 1.387 . S
C861 H864 0.950 . S
C862 C861 1.387 . S
C862 C865 1.387 . S
H863 C859 0.950 . S
H864 C861 0.950 . S
C865 C856 1.390 . S
C865 H858 0.950 . S
C865 C862 1.387 . S
C866 C867 1.387 . S
C866 H870 0.950 . S
C866 C875 1.390 . S
C867 C866 1.387 . S
C867 C869 1.387 . S
H868 C875 0.950 . S
C869 C867 1.387 . S
C869 C871 1.390 . S
C869 H873 0.950 . S
H870 C866 0.950 . S
C871 C869 1.390 . S
C871 C872 1.387 . S
C871 H874 0.950 . S
C872 C871 1.387 . S
C872 C875 1.387 . S
H873 C869 0.950 . S
H874 C871 0.950 . S
C875 C866 1.390 . S
C875 H868 0.950 . S
C875 C872 1.387 . S
C876 C877 1.387 . S
C876 H880 0.950 . S
C876 C885 1.390 . S
C877 C876 1.387 . S
C877 C879 1.387 . S
H878 C885 0.950 . S
C879 C877 1.387 . S
C879 C881 1.390 . S
C879 H883 0.950 . S
H880 C876 0.950 . S
C881 C879 1.390 . S
C881 C882 1.387 . S
C881 H884 0.950 . S
C882 C881 1.387 . S
C882 C885 1.387 . S
H883 C879 0.950 . S
H884 C881 0.950 . S
C885 C876 1.390 . S
C885 H878 0.950 . S
C885 C882 1.387 . S
C886 C887 1.387 . S
C886 H890 0.950 . S
C886 C895 1.390 . S
C887 C886 1.387 . S
C887 C889 1.387 . S
H888 C895 0.950 . S
C889 C887 1.387 . S
C889 C891 1.390 1_455 S
C889 H893 0.950 . S
H890 C886 0.950 . S
C891 C889 1.390 1_655 S
C891 C892 1.387 1_655 S
C891 H894 0.950 . S
C892 C891 1.387 1_455 S
C892 C895 1.387 . S
H893 C889 0.950 . S
H894 C891 0.950 . S
C895 C886 1.390 . S
C895 H888 0.950 . S
C895 C892 1.387 . S
C896 C897 1.387 . S
C896 H900 0.950 . S
C896 C905 1.390 . S
C897 C896 1.387 . S
C897 C899 1.387 . S
H898 C905 0.950 . S
C899 C897 1.387 . S
C899 C901 1.390 . S
C899 H903 0.950 . S
H900 C896 0.950 . S
C901 C899 1.390 . S
C901 C902 1.387 . S
C901 H904 0.950 . S
C902 C901 1.387 . S
C902 C905 1.387 . S
H903 C899 0.950 . S
H904 C901 0.950 . S
C905 C896 1.390 . S
C905 H898 0.950 . S
C905 C902 1.387 . S
C906 C907 1.387 . S
C906 H910 0.950 . S
C906 C915 1.390 . S
C907 C906 1.387 . S
C907 C909 1.387 . S
H908 C915 0.950 . S
C909 C907 1.387 . S
C909 C911 1.390 . S
C909 H913 0.950 . S
H910 C906 0.950 . S
C911 C909 1.390 . S
C911 C912 1.387 . S
C911 H914 0.950 . S
C912 C911 1.387 . S
C912 C915 1.387 . S
H913 C909 0.950 . S
H914 C911 0.950 . S
C915 C906 1.390 . S
C915 H908 0.950 . S
C915 C912 1.387 . S
C916 C917 1.387 . S
C916 H920 0.950 . S
C916 C925 1.390 . S
C917 C916 1.387 . S
C917 C919 1.387 . S
H918 C925 0.950 . S
C919 C917 1.387 . S
C919 C921 1.390 . S
C919 H923 0.950 . S
H920 C916 0.950 . S
C921 C919 1.390 . S
C921 C922 1.387 . S
C921 H924 0.950 . S
C922 C921 1.387 . S
C922 C925 1.387 . S
H923 C919 0.950 . S
H924 C921 0.950 . S
C925 C916 1.390 . S
C925 H918 0.950 . S
C925 C922 1.387 . S
C926 C927 1.387 . S
C926 H930 0.950 . S
C926 C935 1.390 . S
C927 C926 1.387 . S
C927 C929 1.387 . S
H928 C935 0.950 . S
C929 C927 1.387 . S
C929 C931 1.390 . S
C929 H933 0.950 . S
H930 C926 0.950 . S
C931 C929 1.390 . S
C931 C932 1.387 . S
C931 H934 0.950 . S
C932 C931 1.387 . S
C932 C935 1.387 . S
H933 C929 0.950 . S
H934 C931 0.950 . S
C935 C926 1.390 . S
C935 H928 0.950 . S
C935 C932 1.387 . S
C936 C937 1.387 . S
C936 H940 0.950 . S
C936 C945 1.390 . S
C937 C936 1.387 . S
C937 C939 1.387 . S
H938 C945 0.950 . S
C939 C937 1.387 . S
C939 C941 1.390 . S
C939 H943 0.950 . S
H940 C936 0.950 . S
C941 C939 1.390 . S
C941 C942 1.387 . S
C941 H944 0.950 . S
C942 C941 1.387 . S
C942 C945 1.387 . S
H943 C939 0.950 . S
H944 C941 0.950 . S
C945 C936 1.390 . S
C945 H938 0.950 . S
C945 C942 1.387 . S
C946 C947 1.387 . S
C946 H950 0.950 . S
C946 C955 1.390 . S
C947 C946 1.387 . S
C947 C949 1.387 . S
H948 C955 0.950 . S
C949 C947 1.387 . S
C949 C951 1.390 . S
C949 H953 0.950 . S
H950 C946 0.950 . S
C951 C949 1.390 . S
C951 C952 1.387 . S
C951 H954 0.950 1_455 S
C952 C951 1.387 . S
C952 C955 1.387 . S
H953 C949 0.950 . S
H954 C951 0.950 1_655 S
C955 C946 1.390 . S
C955 H948 0.950 . S
C955 C952 1.387 . S
C956 C957 1.387 . S
C956 H960 0.950 . S
C956 C965 1.390 . S
C957 C956 1.387 . S
C957 C959 1.387 . S
H958 C965 0.950 . S
C959 C957 1.387 . S
C959 C961 1.390 . S
C959 H963 0.950 . S
H960 C956 0.950 . S
C961 C959 1.390 . S
C961 C962 1.387 . S
C961 H964 0.950 . S
C962 C961 1.387 . S
C962 C965 1.387 . S
H963 C959 0.950 . S
H964 C961 0.950 . S
C965 C956 1.390 . S
C965 H958 0.950 . S
C965 C962 1.387 . S
C966 C967 1.387 . S
C966 H970 0.950 . S
C966 C975 1.390 . S
C967 C966 1.387 . S
C967 C969 1.387 . S
H968 C975 0.950 . S
C969 C967 1.387 . S
C969 C971 1.390 . S
C969 H973 0.950 . S
H970 C966 0.950 . S
C971 C969 1.390 . S
C971 C972 1.387 . S
C971 H974 0.950 . S
C972 C971 1.387 . S
C972 C975 1.387 . S
H973 C969 0.950 . S
H974 C971 0.950 . S
C975 C966 1.390 . S
C975 H968 0.950 . S
C975 C972 1.387 . S
C976 C977 1.387 . S
C976 H980 0.950 . S
C976 C985 1.390 . S
C977 C976 1.387 . S
C977 C979 1.387 . S
H978 C985 0.950 . S
C979 C977 1.387 . S
C979 C981 1.390 . S
C979 H983 0.950 . S
H980 C976 0.950 . S
C981 C979 1.390 . S
C981 C982 1.387 . S
C981 H984 0.950 . S
C982 C981 1.387 . S
C982 C985 1.387 . S
H983 C979 0.950 . S
H984 C981 0.950 . S
C985 C976 1.390 . S
C985 H978 0.950 . S
C985 C982 1.387 . S
C986 C987 1.387 . S
C986 H990 0.950 . S
C986 C995 1.390 . S
C987 C986 1.387 . S
C987 C989 1.387 . S
H988 C995 0.950 . S
C989 C987 1.387 . S
C989 C991 1.390 . S
C989 H993 0.950 . S
H990 C986 0.950 . S
C991 C989 1.390 . S
C991 C992 1.387 . S
C991 H994 0.950 . S
C992 C991 1.387 . S
C992 C995 1.387 . S
H993 C989 0.950 . S
H994 C991 0.950 . S
C995 C986 1.390 . S
C995 H988 0.950 . S
C995 C992 1.387 . S
C996 C997 1.387 . S
C996 H1000 0.950 . S
C996 C1005 1.390 . S
C997 C996 1.387 . S
C997 C999 1.387 . S
H998 C1005 0.950 . S
C999 C997 1.387 . S
C999 C1001 1.390 . S
C999 H1003 0.950 . S
H1000 C996 0.950 . S
C1001 C999 1.390 . S
C1001 C1002 1.387 . S
C1001 H1004 0.950 . S
C1002 C1001 1.387 . S
C1002 C1005 1.387 . S
H1003 C999 0.950 . S
H1004 C1001 0.950 . S
C1005 C996 1.390 . S
C1005 H998 0.950 . S
C1005 C1002 1.387 . S
C1006 C1007 1.387 . S
C1006 H1010 0.950 1_655 S
C1006 C1015 1.390 . S
C1007 C1006 1.387 . S
C1007 C1009 1.387 . S
H1008 C1015 0.950 . S
C1009 C1007 1.387 . S
C1009 C1011 1.390 . S
C1009 H1013 0.950 . S
H1010 C1006 0.950 1_455 S
C1011 C1009 1.390 . S
C1011 C1012 1.387 . S
C1011 H1014 0.950 . S
C1012 C1011 1.387 . S
C1012 C1015 1.387 . S
H1013 C1009 0.950 . S
H1014 C1011 0.950 . S
C1015 C1006 1.390 . S
C1015 H1008 0.950 . S
C1015 C1012 1.387 . S
C1016 C1017 1.387 . S
C1016 H1020 0.950 . S
C1016 C1025 1.390 . S
C1017 C1016 1.387 . S
C1017 C1019 1.387 . S
H1018 C1025 0.950 . S
C1019 C1017 1.387 . S
C1019 C1021 1.390 . S
C1019 H1023 0.950 . S
H1020 C1016 0.950 . S
C1021 C1019 1.390 . S
C1021 C1022 1.387 . S
C1021 H1024 0.950 . S
C1022 C1021 1.387 . S
C1022 C1025 1.387 . S
H1023 C1019 0.950 . S
H1024 C1021 0.950 . S
C1025 C1016 1.390 . S
C1025 H1018 0.950 . S
C1025 C1022 1.387 . S
C1026 C1027 1.387 . S
C1026 H1030 0.950 . S
C1026 C1035 1.390 . S
C1027 C1026 1.387 . S
C1027 C1029 1.387 . S
H1028 C1035 0.950 . S
C1029 C1027 1.387 . S
C1029 C1031 1.390 . S
C1029 H1033 0.950 . S
H1030 C1026 0.950 . S
C1031 C1029 1.390 . S
C1031 C1032 1.387 . S
C1031 H1034 0.950 . S
C1032 C1031 1.387 . S
C1032 C1035 1.387 . S
H1033 C1029 0.950 . S
H1034 C1031 0.950 . S
C1035 C1026 1.390 . S
C1035 H1028 0.950 . S
C1035 C1032 1.387 . S
C1036 C1037 1.387 . S
C1036 H1040 0.950 . S
C1036 C1045 1.390 . S
C1037 C1036 1.387 . S
C1037 C1039 1.387 . S
H1038 C1045 0.950 . S
C1039 C1037 1.387 . S
C1039 C1041 1.390 . S
C1039 H1043 0.950 . S
H1040 C1036 0.950 . S
C1041 C1039 1.390 . S
C1041 C1042 1.387 . S
C1041 H1044 0.950 . S
C1042 C1041 1.387 . S
C1042 C1045 1.387 . S
H1043 C1039 0.950 . S
H1044 C1041 0.950 . S
C1045 C1036 1.390 . S
C1045 H1038 0.950 . S
C1045 C1042 1.387 . S
C1046 C1047 1.387 . S
C1046 H1050 0.950 . S
C1046 C1055 1.390 . S
C1047 C1046 1.387 . S
C1047 C1049 1.387 . S
H1048 C1055 0.950 . S
C1049 C1047 1.387 . S
C1049 C1051 1.390 . S
C1049 H1053 0.950 . S
H1050 C1046 0.950 . S
C1051 C1049 1.390 . S
C1051 C1052 1.387 . S
C1051 H1054 0.950 . S
C1052 C1051 1.387 . S
C1052 C1055 1.387 . S
H1053 C1049 0.950 . S
H1054 C1051 0.950 . S
C1055 C1046 1.390 . S
C1055 H1048 0.950 . S
C1055 C1052 1.387 . S
C1056 C1057 1.387 . S
C1056 H1060 0.950 . S
C1056 C1065 1.390 1_455 S
C1057 C1056 1.387 . S
C1057 C1059 1.387 . S
H1058 C1065 0.950 . S
C1059 C1057 1.387 . S
C1059 C1061 1.390 1_455 S
C1059 H1063 0.950 . S
H1060 C1056 0.950 . S
C1061 C1059 1.390 1_655 S
C1061 C1062 1.387 . S
C1061 H1064 0.950 . S
C1062 C1061 1.387 . S
C1062 C1065 1.387 . S
H1063 C1059 0.950 . S
H1064 C1061 0.950 . S
C1065 C1056 1.390 1_655 S
C1065 H1058 0.950 . S
C1065 C1062 1.387 . S
C1066 C1067 1.387 . S
C1066 H1070 0.950 . S
C1066 C1075 1.390 1_655 S
C1067 C1066 1.387 . S
C1067 C1069 1.387 . S
H1068 C1075 0.950 . S
C1069 C1067 1.387 . S
C1069 C1071 1.390 1_655 S
C1069 H1073 0.950 . S
H1070 C1066 0.950 . S
C1071 C1069 1.390 1_455 S
C1071 C1072 1.387 . S
C1071 H1074 0.950 . S
C1072 C1071 1.387 . S
C1072 C1075 1.387 . S
H1073 C1069 0.950 . S
H1074 C1071 0.950 . S
C1075 C1066 1.390 1_455 S
C1075 H1068 0.950 . S
C1075 C1072 1.387 . S
C1076 C1077 1.387 . S
C1076 H1080 0.950 . S
C1076 C1085 1.390 . S
C1077 C1076 1.387 . S
C1077 C1079 1.387 . S
H1078 C1085 0.950 . S
C1079 C1077 1.387 . S
C1079 C1081 1.390 . S
C1079 H1083 0.950 . S
H1080 C1076 0.950 . S
C1081 C1079 1.390 . S
C1081 C1082 1.387 . S
C1081 H1084 0.950 . S
C1082 C1081 1.387 . S
C1082 C1085 1.387 . S
H1083 C1079 0.950 . S
H1084 C1081 0.950 . S
C1085 C1076 1.390 . S
C1085 H1078 0.950 . S
C1085 C1082 1.387 . S
C1086 C1087 1.387 . S
C1086 H1090 0.950 . S
C1086 C1095 1.390 . S
C1087 C1086 1.387 . S
C1087 C1089 1.387 . S
H1088 C1095 0.950 . S
C1089 C1087 1.387 . S
C1089 C1091 1.390 . S
C1089 H1093 0.950 . S
H1090 C1086 0.950 . S
C1091 C1089 1.390 . S
C1091 C1092 1.387 . S
C1091 H1094 0.950 . S
C1092 C1091 1.387 . S
C1092 C1095 1.387 . S
H1093 C1089 0.950 . S
H1094 C1091 0.950 . S
C1095 C1086 1.390 . S
C1095 H1088 0.950 . S
C1095 C1092 1.387 . S
C1096 C1097 1.387 . S
C1096 H1100 0.950 . S
C1096 C1105 1.390 1_655 S
C1097 C1096 1.387 . S
C1097 C1099 1.387 . S
H1098 C1105 0.950 . S
C1099 C1097 1.387 . S
C1099 C1101 1.390 1_655 S
C1099 H1103 0.950 . S
H1100 C1096 0.950 . S
C1101 C1099 1.390 1_455 S
C1101 C1102 1.387 . S
C1101 H1104 0.950 . S
C1102 C1101 1.387 . S
C1102 C1105 1.387 . S
H1103 C1099 0.950 . S
H1104 C1101 0.950 . S
C1105 C1096 1.390 1_455 S
C1105 H1098 0.950 . S
C1105 C1102 1.387 . S
C1106 C1107 1.387 . S
C1106 H1110 0.950 . S
C1106 C1115 1.390 . S
C1107 C1106 1.387 . S
C1107 C1109 1.387 . S
H1108 C1115 0.950 . S
C1109 C1107 1.387 . S
C1109 C1111 1.390 . S
C1109 H1113 0.950 . S
H1110 C1106 0.950 . S
C1111 C1109 1.390 . S
C1111 C1112 1.387 . S
C1111 H1114 0.950 . S
C1112 C1111 1.387 . S
C1112 C1115 1.387 . S
H1113 C1109 0.950 . S
H1114 C1111 0.950 . S
C1115 C1106 1.390 . S
C1115 H1108 0.950 . S
C1115 C1112 1.387 . S
C1116 C1117 1.387 . S
C1116 H1120 0.950 . S
C1116 C1125 1.390 . S
C1117 C1116 1.387 . S
C1117 C1119 1.387 . S
H1118 C1125 0.950 . S
C1119 C1117 1.387 . S
C1119 C1121 1.390 . S
C1119 H1123 0.950 . S
H1120 C1116 0.950 . S
C1121 C1119 1.390 . S
C1121 C1122 1.387 . S
C1121 H1124 0.950 . S
C1122 C1121 1.387 . S
C1122 C1125 1.387 . S
H1123 C1119 0.950 . S
H1124 C1121 0.950 . S
C1125 C1116 1.390 . S
C1125 H1118 0.950 . S
C1125 C1122 1.387 . S
C1126 C1127 1.387 . S
C1126 H1130 0.950 . S
C1126 C1135 1.390 1_455 S
C1127 C1126 1.387 . S
C1127 C1129 1.387 . S
H1128 C1135 0.950 . S
C1129 C1127 1.387 . S
C1129 C1131 1.390 1_455 S
C1129 H1133 0.950 . S
H1130 C1126 0.950 . S
C1131 C1129 1.390 1_655 S
C1131 C1132 1.387 . S
C1131 H1134 0.950 . S
C1132 C1131 1.387 . S
C1132 C1135 1.387 . S
H1133 C1129 0.950 . S
H1134 C1131 0.950 . S
C1135 C1126 1.390 1_655 S
C1135 H1128 0.950 . S
C1135 C1132 1.387 . S
C1136 C1137 1.387 . S
C1136 H1140 0.950 . S
C1136 C1145 1.390 1_455 S
C1137 C1136 1.387 . S
C1137 C1139 1.387 . S
H1138 C1145 0.950 . S
C1139 C1137 1.387 . S
C1139 C1141 1.390 1_455 S
C1139 H1143 0.950 . S
H1140 C1136 0.950 . S
C1141 C1139 1.390 1_655 S
C1141 C1142 1.387 . S
C1141 H1144 0.950 . S
C1142 C1141 1.387 . S
C1142 C1145 1.387 . S
H1143 C1139 0.950 . S
H1144 C1141 0.950 . S
C1145 C1136 1.390 1_655 S
C1145 H1138 0.950 . S
C1145 C1142 1.387 . S
C1146 C1147 1.387 . S
C1146 H1150 0.950 . S
C1146 C1155 1.390 1_655 S
C1147 C1146 1.387 . S
C1147 C1149 1.387 . S
H1148 C1155 0.950 . S
C1149 C1147 1.387 . S
C1149 C1151 1.390 1_655 S
C1149 H1153 0.950 . S
H1150 C1146 0.950 . S
C1151 C1149 1.390 1_455 S
C1151 C1152 1.387 . S
C1151 H1154 0.950 . S
C1152 C1151 1.387 . S
C1152 C1155 1.387 . S
H1153 C1149 0.950 . S
H1154 C1151 0.950 . S
C1155 C1146 1.390 1_455 S
C1155 H1148 0.950 . S
C1155 C1152 1.387 . S
C1156 C1157 1.387 . S
C1156 H1160 0.950 . S
C1156 C1165 1.390 . S
C1157 C1156 1.387 . S
C1157 C1159 1.387 . S
H1158 C1165 0.950 . S
C1159 C1157 1.387 . S
C1159 C1161 1.390 . S
C1159 H1163 0.950 . S
H1160 C1156 0.950 . S
C1161 C1159 1.390 . S
C1161 C1162 1.387 . S
C1161 H1164 0.950 . S
C1162 C1161 1.387 . S
C1162 C1165 1.387 . S
H1163 C1159 0.950 . S
H1164 C1161 0.950 . S
C1165 C1156 1.390 . S
C1165 H1158 0.950 . S
C1165 C1162 1.387 . S
C1166 C1167 1.387 . S
C1166 H1170 0.950 . S
C1166 C1175 1.390 . S
C1167 C1166 1.387 . S
C1167 C1169 1.387 . S
H1168 C1175 0.950 . S
C1169 C1167 1.387 . S
C1169 C1171 1.390 . S
C1169 H1173 0.950 . S
H1170 C1166 0.950 . S
C1171 C1169 1.390 . S
C1171 C1172 1.387 . S
C1171 H1174 0.950 . S
C1172 C1171 1.387 . S
C1172 C1175 1.387 . S
H1173 C1169 0.950 . S
H1174 C1171 0.950 . S
C1175 C1166 1.390 . S
C1175 H1168 0.950 . S
C1175 C1172 1.387 . S
C1176 C1177 1.387 . S
C1176 H1180 0.950 . S
C1176 C1185 1.390 1_455 S
C1177 C1176 1.387 . S
C1177 C1179 1.387 . S
H1178 C1185 0.950 . S
C1179 C1177 1.387 . S
C1179 C1181 1.390 1_455 S
C1179 H1183 0.950 . S
H1180 C1176 0.950 . S
C1181 C1179 1.390 1_655 S
C1181 C1182 1.387 . S
C1181 H1184 0.950 . S
C1182 C1181 1.387 . S
C1182 C1185 1.387 . S
H1183 C1179 0.950 . S
H1184 C1181 0.950 . S
C1185 C1176 1.390 1_655 S
C1185 H1178 0.950 . S
C1185 C1182 1.387 . S
C1186 C1187 1.387 . S
C1186 H1190 0.950 . S
C1186 C1195 1.390 . S
C1187 C1186 1.387 . S
C1187 C1189 1.387 . S
H1188 C1195 0.950 . S
C1189 C1187 1.387 . S
C1189 C1191 1.390 . S
C1189 H1193 0.950 . S
H1190 C1186 0.950 . S
C1191 C1189 1.390 . S
C1191 C1192 1.387 . S
C1191 H1194 0.950 . S
C1192 C1191 1.387 . S
C1192 C1195 1.387 . S
H1193 C1189 0.950 . S
H1194 C1191 0.950 . S
C1195 C1186 1.390 . S
C1195 H1188 0.950 . S
C1195 C1192 1.387 . S
C1196 C1197 1.387 . S
C1196 H1200 0.950 . S
C1196 C1205 1.390 . S
C1197 C1196 1.387 . S
C1197 C1199 1.387 . S
H1198 C1205 0.950 . S
C1199 C1197 1.387 . S
C1199 C1201 1.390 . S
C1199 H1203 0.950 . S
H1200 C1196 0.950 . S
C1201 C1199 1.390 . S
C1201 C1202 1.387 . S
C1201 H1204 0.950 . S
C1202 C1201 1.387 . S
C1202 C1205 1.387 . S
H1203 C1199 0.950 . S
H1204 C1201 0.950 . S
C1205 C1196 1.390 . S
C1205 H1198 0.950 . S
C1205 C1202 1.387 . S
C1206 C1207 1.387 . S
C1206 H1210 0.950 . S
C1206 C1215 1.390 1_655 S
C1207 C1206 1.387 . S
C1207 C1209 1.387 . S
H1208 C1215 0.950 . S
C1209 C1207 1.387 . S
C1209 C1211 1.390 1_655 S
C1209 H1213 0.950 . S
H1210 C1206 0.950 . S
C1211 C1209 1.390 1_455 S
C1211 C1212 1.387 . S
C1211 H1214 0.950 . S
C1212 C1211 1.387 . S
C1212 C1215 1.387 . S
H1213 C1209 0.950 . S
H1214 C1211 0.950 . S
C1215 C1206 1.390 1_455 S
C1215 H1208 0.950 . S
C1215 C1212 1.387 . S
C1216 C1217 1.387 . S
C1216 H1220 0.950 . S
C1216 C1225 1.390 . S
C1217 C1216 1.387 . S
C1217 C1219 1.387 . S
H1218 C1225 0.950 . S
C1219 C1217 1.387 . S
C1219 C1221 1.390 . S
C1219 H1223 0.950 . S
H1220 C1216 0.950 . S
C1221 C1219 1.390 . S
C1221 C1222 1.387 . S
C1221 H1224 0.950 . S
C1222 C1221 1.387 . S
C1222 C1225 1.387 . S
H1223 C1219 0.950 . S
H1224 C1221 0.950 . S
C1225 C1216 1.390 . S
C1225 H1218 0.950 . S
C1225 C1222 1.387 . S
C1226 C1227 1.387 1_565 S
C1226 H1230 0.950 . S
C1226 C1235 1.390 1_655 S
C1227 C1226 1.387 1_545 S
C1227 C1229 1.387 . S
H1228 C1235 0.950 . S
C1229 C1227 1.387 . S
C1229 C1231 1.390 1_655 S
C1229 H1233 0.950 . S
H1230 C1226 0.950 . S
C1231 C1229 1.390 1_455 S
C1231 C1232 1.387 1_545 S
C1231 H1234 0.950 . S
C1232 C1231 1.387 1_565 S
C1232 C1235 1.387 . S
H1233 C1229 0.950 . S
H1234 C1231 0.950 . S
C1235 C1226 1.390 1_455 S
C1235 H1228 0.950 . S
C1235 C1232 1.387 . S
C1236 C1237 1.387 . S
C1236 H1240 0.950 . S
C1236 C1245 1.390 . S
C1237 C1236 1.387 . S
C1237 C1239 1.387 . S
H1238 C1245 0.950 . S
C1239 C1237 1.387 . S
C1239 C1241 1.390 . S
C1239 H1243 0.950 . S
H1240 C1236 0.950 . S
C1241 C1239 1.390 . S
C1241 C1242 1.387 . S
C1241 H1244 0.950 . S
C1242 C1241 1.387 . S
C1242 C1245 1.387 . S
H1243 C1239 0.950 . S
H1244 C1241 0.950 . S
C1245 C1236 1.390 . S
C1245 H1238 0.950 . S
C1245 C1242 1.387 . S
C1246 C1247 1.387 . S
C1246 H1250 0.950 . S
C1246 C1255 1.390 1_554 S
C1247 C1246 1.387 . S
C1247 C1249 1.387 1_545 S
H1248 C1255 0.950 . S
C1249 C1247 1.387 1_565 S
C1249 C1251 1.390 1_554 S
C1249 H1253 0.950 . S
H1250 C1246 0.950 . S
C1251 C1249 1.390 1_556 S
C1251 C1252 1.387 . S
C1251 H1254 0.950 . S
C1252 C1251 1.387 . S
C1252 C1255 1.387 1_565 S
H1253 C1249 0.950 . S
H1254 C1251 0.950 . S
C1255 C1246 1.390 1_556 S
C1255 H1248 0.950 . S
C1255 C1252 1.387 1_545 S
C1256 C1257 1.387 . S
C1256 H1260 0.950 . S
C1256 C1265 1.390 . S
C1257 C1256 1.387 . S
C1257 C1259 1.387 . S
H1258 C1265 0.950 . S
C1259 C1257 1.387 . S
C1259 C1261 1.390 . S
C1259 H1263 0.950 . S
H1260 C1256 0.950 . S
C1261 C1259 1.390 . S
C1261 C1262 1.387 . S
C1261 H1264 0.950 . S
C1262 C1261 1.387 . S
C1262 C1265 1.387 . S
H1263 C1259 0.950 . S
H1264 C1261 0.950 . S
C1265 C1256 1.390 . S
C1265 H1258 0.950 . S
C1265 C1262 1.387 . S
C1266 C1267 1.387 . S
C1266 H1270 0.950 . S
C1266 C1275 1.390 1_545 S
C1267 C1266 1.387 . S
C1267 C1269 1.387 . S
H1268 C1275 0.950 . S
C1269 C1267 1.387 . S
C1269 C1271 1.390 1_545 S
C1269 H1273 0.950 . S
H1270 C1266 0.950 . S
C1271 C1269 1.390 1_565 S
C1271 C1272 1.387 . S
C1271 H1274 0.950 . S
C1272 C1271 1.387 . S
C1272 C1275 1.387 . S
H1273 C1269 0.950 . S
H1274 C1271 0.950 . S
C1275 C1266 1.390 1_565 S
C1275 H1268 0.950 . S
C1275 C1272 1.387 . S
C1276 C1277 1.387 . S
C1276 H1280 0.950 . S
C1276 C1285 1.390 . S
C1277 C1276 1.387 . S
C1277 C1279 1.387 . S
H1278 C1285 0.950 . S
C1279 C1277 1.387 . S
C1279 C1281 1.390 . S
C1279 H1283 0.950 . S
H1280 C1276 0.950 . S
C1281 C1279 1.390 . S
C1281 C1282 1.387 . S
C1281 H1284 0.950 . S
C1282 C1281 1.387 . S
C1282 C1285 1.387 . S
H1283 C1279 0.950 . S
H1284 C1281 0.950 . S
C1285 C1276 1.390 . S
C1285 H1278 0.950 . S
C1285 C1282 1.387 . S
C1286 C1287 1.395 . S
C1286 H1290 0.950 . S
C1286 C1295 1.383 1_456 S
C1287 C1286 1.395 . S
C1287 C1289 1.387 1_545 S
H1288 C1295 0.950 . S
C1289 C1287 1.387 1_565 S
C1289 C1291 1.383 1_456 S
C1289 H1293 0.950 . S
H1290 C1286 0.950 . S
C1291 C1289 1.383 1_654 S
C1291 C1292 1.395 . S
C1291 H1294 0.950 . S
C1292 C1291 1.395 . S
C1292 C1295 1.387 1_565 S
H1293 C1289 0.950 . S
H1294 C1291 0.950 . S
C1295 C1286 1.383 1_654 S
C1295 H1288 0.950 . S
C1295 C1292 1.387 1_545 S
C1296 C1297 1.387 . S
C1296 H1300 0.950 . S
C1296 C1305 1.390 . S
C1297 C1296 1.387 . S
C1297 C1299 1.387 . S
H1298 C1305 0.950 . S
C1299 C1297 1.387 . S
C1299 C1301 1.390 . S
C1299 H1303 0.950 . S
H1300 C1296 0.950 . S
C1301 C1299 1.390 . S
C1301 C1302 1.387 . S
C1301 H1304 0.950 . S
C1302 C1301 1.387 . S
C1302 C1305 1.387 . S
H1303 C1299 0.950 . S
H1304 C1301 0.950 . S
C1305 C1296 1.390 . S
C1305 H1298 0.950 . S
C1305 C1302 1.387 . S
C1306 C1307 1.387 . S
C1306 H1310 0.950 . S
C1306 C1315 1.390 . S
C1307 C1306 1.387 . S
C1307 C1309 1.387 . S
H1308 C1315 0.950 . S
C1309 C1307 1.387 . S
C1309 C1311 1.390 . S
C1309 H1313 0.950 . S
H1310 C1306 0.950 . S
C1311 C1309 1.390 . S
C1311 C1312 1.387 . S
C1311 H1314 0.950 . S
C1312 C1311 1.387 . S
C1312 C1315 1.387 . S
H1313 C1309 0.950 . S
H1314 C1311 0.950 . S
C1315 C1306 1.390 . S
C1315 H1308 0.950 . S
C1315 C1312 1.387 . S
C1316 C1317 1.387 . S
C1316 H1320 0.950 . S
C1316 C1325 1.390 . S
C1317 C1316 1.387 . S
C1317 C1319 1.387 . S
H1318 C1325 0.950 . S
C1319 C1317 1.387 . S
C1319 C1321 1.390 . S
C1319 H1323 0.950 . S
H1320 C1316 0.950 . S
C1321 C1319 1.390 . S
C1321 C1322 1.387 . S
C1321 H1324 0.950 . S
C1322 C1321 1.387 . S
C1322 C1325 1.387 . S
H1323 C1319 0.950 . S
H1324 C1321 0.950 . S
C1325 C1316 1.390 . S
C1325 H1318 0.950 . S
C1325 C1322 1.387 . S
C1326 C1327 1.387 . S
C1326 H1330 0.950 . S
C1326 C1335 1.390 . S
C1327 C1326 1.387 . S
C1327 C1329 1.387 . S
H1328 C1335 0.950 . S
C1329 C1327 1.387 . S
C1329 C1331 1.390 . S
C1329 H1333 0.950 . S
H1330 C1326 0.950 . S
C1331 C1329 1.390 . S
C1331 C1332 1.387 . S
C1331 H1334 0.950 . S
C1332 C1331 1.387 . S
C1332 C1335 1.387 . S
H1333 C1329 0.950 . S
H1334 C1331 0.950 . S
C1335 C1326 1.390 . S
C1335 H1328 0.950 . S
C1335 C1332 1.387 . S
C1336 C1337 1.387 . S
C1336 H1340 0.950 . S
C1336 C1345 1.390 1_554 S
C1337 C1336 1.387 . S
C1337 C1339 1.387 . S
H1338 C1345 0.950 . S
C1339 C1337 1.387 . S
C1339 C1341 1.390 1_554 S
C1339 H1343 0.950 . S
H1340 C1336 0.950 . S
C1341 C1339 1.390 1_556 S
C1341 C1342 1.387 . S
C1341 H1344 0.950 . S
C1342 C1341 1.387 . S
C1342 C1345 1.387 . S
H1343 C1339 0.950 . S
H1344 C1341 0.950 . S
C1345 C1336 1.390 1_556 S
C1345 H1338 0.950 . S
C1345 C1342 1.387 . S
C1346 C1347 1.387 . S
C1346 H1350 0.950 . S
C1346 C1355 1.390 1_655 S
C1347 C1346 1.387 . S
C1347 C1349 1.387 . S
H1348 C1355 0.950 . S
C1349 C1347 1.387 . S
C1349 C1351 1.390 1_655 S
C1349 H1353 0.950 . S
H1350 C1346 0.950 . S
C1351 C1349 1.390 1_455 S
C1351 C1352 1.387 . S
C1351 H1354 0.950 . S
C1352 C1351 1.387 . S
C1352 C1355 1.387 . S
H1353 C1349 0.950 . S
H1354 C1351 0.950 . S
C1355 C1346 1.390 1_455 S
C1355 H1348 0.950 . S
C1355 C1352 1.387 . S
C1356 C1357 1.387 . S
C1356 H1360 0.950 . S
C1356 C1365 1.390 1_454 S
C1357 C1356 1.387 . S
C1357 C1359 1.387 . S
H1358 C1365 0.950 . S
C1359 C1357 1.387 . S
C1359 C1361 1.390 1_454 S
C1359 H1363 0.950 . S
H1360 C1356 0.950 . S
C1361 C1359 1.390 1_656 S
C1361 C1362 1.387 . S
C1361 H1364 0.950 . S
C1362 C1361 1.387 . S
C1362 C1365 1.387 . S
H1363 C1359 0.950 . S
H1364 C1361 0.950 . S
C1365 C1356 1.390 1_656 S
C1365 H1358 0.950 . S
C1365 C1362 1.387 . S
C1366 C1367 1.387 . S
C1366 H1370 0.950 . S
C1366 C1375 1.390 . S
C1367 C1366 1.387 . S
C1367 C1369 1.387 . S
H1368 C1375 0.950 . S
C1369 C1367 1.387 . S
C1369 C1371 1.390 . S
C1369 H1373 0.950 . S
H1370 C1366 0.950 . S
C1371 C1369 1.390 . S
C1371 C1372 1.387 . S
C1371 H1374 0.950 . S
C1372 C1371 1.387 . S
C1372 C1375 1.387 . S
H1373 C1369 0.950 . S
H1374 C1371 0.950 . S
C1375 C1366 1.390 . S
C1375 H1368 0.950 . S
C1375 C1372 1.387 . S
C1376 C1377 1.387 . S
C1376 H1380 0.950 . S
C1376 C1385 1.390 1_545 S
C1377 C1376 1.387 . S
C1377 C1379 1.387 . S
H1378 C1385 0.950 . S
C1379 C1377 1.387 . S
C1379 C1381 1.390 . S
C1379 H1383 0.950 . S
H1380 C1376 0.950 . S
C1381 C1379 1.390 . S
C1381 C1382 1.384 1_545 S
C1381 H1384 0.950 . S
C1382 C1381 1.384 1_565 S
C1382 C1385 1.388 . S
H1383 C1379 0.950 . S
H1384 C1381 0.950 . S
C1385 C1376 1.390 1_565 S
C1385 H1378 0.950 . S
C1385 C1382 1.388 . S
C1386 C1387 1.387 . S
C1386 H1390 0.950 1_545 S
C1386 C1395 1.390 1_545 S
C1387 C1386 1.387 . S
C1387 C1389 1.387 . S
H1388 C1395 0.950 . S
C1389 C1387 1.387 . S
C1389 C1391 1.390 . S
C1389 H1393 0.950 . S
H1390 C1386 0.950 1_565 S
C1391 C1389 1.390 . S
C1391 C1392 1.387 1_545 S
C1391 H1394 0.950 . S
C1392 C1391 1.387 1_565 S
C1392 C1395 1.388 . S
H1393 C1389 0.950 . S
H1394 C1391 0.950 . S
C1395 C1386 1.390 1_565 S
C1395 H1388 0.950 . S
C1395 C1392 1.388 . S
C1396 C1397 1.387 1_565 S
C1396 H1400 0.950 . S
C1396 C1405 1.390 . S
C1397 C1396 1.387 1_545 S
C1397 C1399 1.388 . S
H1398 C1405 0.950 . S
C1399 C1397 1.388 . S
C1399 C1401 1.390 1_545 S
C1399 H1403 0.950 . S
H1400 C1396 0.950 . S
C1401 C1399 1.390 1_565 S
C1401 C1402 1.387 . S
C1401 H1404 0.950 1_565 S
C1402 C1401 1.387 . S
C1402 C1405 1.387 . S
H1403 C1399 0.950 . S
H1404 C1401 0.950 1_545 S
C1405 C1396 1.390 . S
C1405 H1398 0.950 . S
C1405 C1402 1.387 . S
C1406 C1407 1.387 . S
C1406 H1410 0.950 . S
C1406 C1415 1.390 . S
C1407 C1406 1.387 . S
C1407 C1409 1.387 . S
H1408 C1415 0.950 . S
C1409 C1407 1.387 . S
C1409 C1411 1.390 1_565 S
C1409 H1413 0.950 1_565 S
H1410 C1406 0.950 . S
C1411 C1409 1.390 1_545 S
C1411 C1412 1.387 . S
C1411 H1414 0.950 . S
C1412 C1411 1.387 . S
C1412 C1415 1.388 1_545 S
H1413 C1409 0.950 1_545 S
H1414 C1411 0.950 . S
C1415 C1406 1.390 . S
C1415 H1408 0.950 . S
C1415 C1412 1.388 1_565 S
C1416 C1417 1.387 . S
C1416 H1420 0.950 . S
C1416 C1425 1.390 1_565 S
C1417 C1416 1.387 . S
C1417 C1419 1.387 . S
H1418 C1425 0.950 . S
C1419 C1417 1.387 . S
C1419 C1421 1.390 . S
C1419 H1423 0.950 . S
H1420 C1416 0.950 . S
C1421 C1419 1.390 . S
C1421 C1422 1.384 1_565 S
C1421 H1424 0.950 . S
C1422 C1421 1.384 1_545 S
C1422 C1425 1.389 . S
H1423 C1419 0.950 . S
H1424 C1421 0.950 . S
C1425 C1416 1.390 1_545 S
C1425 H1418 0.950 . S
C1425 C1422 1.389 . S
C1426 C1427 1.385 1_565 S
C1426 H1430 0.950 . S
C1426 C1435 1.390 . S
C1427 C1426 1.385 1_545 S
C1427 C1429 1.389 . S
H1428 C1435 0.950 . S
C1429 C1427 1.389 . S
C1429 C1431 1.390 1_545 S
C1429 H1433 0.950 . S
H1430 C1426 0.950 . S
C1431 C1429 1.390 1_565 S
C1431 C1432 1.387 . S
C1431 H1434 0.950 1_565 S
C1432 C1431 1.387 . S
C1432 C1435 1.387 . S
H1433 C1429 0.950 . S
H1434 C1431 0.950 1_545 S
C1435 C1426 1.390 . S
C1435 H1428 0.950 . S
C1435 C1432 1.387 . S
C1436 C1437 1.384 1_545 S
C1436 H1440 0.950 . S
C1436 C1445 1.390 . S
C1437 C1436 1.384 1_565 S
C1437 C1439 1.389 . S
H1438 C1445 0.950 . S
C1439 C1437 1.389 . S
C1439 C1441 1.390 1_565 S
C1439 H1443 0.950 . S
H1440 C1436 0.950 . S
C1441 C1439 1.390 1_545 S
C1441 C1442 1.387 . S
C1441 H1444 0.950 1_545 S
C1442 C1441 1.387 . S
C1442 C1445 1.387 . S
H1443 C1439 0.950 . S
H1444 C1441 0.950 1_565 S
C1445 C1436 1.390 . S
C1445 H1438 0.950 . S
C1445 C1442 1.387 . S
C1446 C1447 1.388 1_545 S
C1446 H1450 0.950 . S
C1446 C1455 1.390 . S
C1447 C1446 1.388 1_565 S
C1447 C1449 1.387 . S
H1448 C1455 0.950 . S
C1449 C1447 1.387 . S
C1449 C1451 1.390 1_565 S
C1449 H1453 0.950 . S
H1450 C1446 0.950 . S
C1451 C1449 1.390 1_545 S
C1451 C1452 1.387 . S
C1451 H1454 0.950 1_545 S
C1452 C1451 1.387 . S
C1452 C1455 1.387 . S
H1453 C1449 0.950 . S
H1454 C1451 0.950 1_565 S
C1455 C1446 1.390 . S
C1455 H1448 0.950 . S
C1455 C1452 1.387 . S
C1456 C1457 1.387 . S
C1456 H1460 0.950 . S
C1456 C1465 1.390 . S
C1457 C1456 1.387 . S
C1457 C1459 1.387 . S
H1458 C1465 0.950 . S
C1459 C1457 1.387 . S
C1459 C1461 1.390 . S
C1459 H1463 0.950 . S
H1460 C1456 0.950 . S
C1461 C1459 1.390 . S
C1461 C1462 1.387 . S
C1461 H1464 0.950 . S
C1462 C1461 1.387 . S
C1462 C1465 1.387 . S
H1463 C1459 0.950 . S
H1464 C1461 0.950 . S
C1465 C1456 1.390 . S
C1465 H1458 0.950 . S
C1465 C1462 1.387 . S
C1466 C1467 1.387 . S
C1466 H1470 0.950 . S
C1466 C1475 1.390 . S
C1467 C1466 1.387 . S
C1467 C1469 1.387 . S
H1468 C1475 0.950 . S
C1469 C1467 1.387 . S
C1469 C1471 1.390 . S
C1469 H1473 0.950 . S
H1470 C1466 0.950 . S
C1471 C1469 1.390 . S
C1471 C1472 1.387 . S
C1471 H1474 0.950 . S
C1472 C1471 1.387 . S
C1472 C1475 1.387 . S
H1473 C1469 0.950 . S
H1474 C1471 0.950 . S
C1475 C1466 1.390 . S
C1475 H1468 0.950 . S
C1475 C1472 1.387 . S
C1476 C1477 1.387 . S
C1476 H1480 0.950 . S
C1476 C1485 1.390 . S
C1477 C1476 1.387 . S
C1477 C1479 1.387 . S
H1478 C1485 0.950 . S
C1479 C1477 1.387 . S
C1479 C1481 1.390 . S
C1479 H1483 0.950 . S
H1480 C1476 0.950 . S
C1481 C1479 1.390 . S
C1481 C1482 1.387 . S
C1481 H1484 0.950 . S
C1482 C1481 1.387 . S
C1482 C1485 1.387 . S
H1483 C1479 0.950 . S
H1484 C1481 0.950 . S
C1485 C1476 1.390 . S
C1485 H1478 0.950 . S
C1485 C1482 1.387 . S
C1486 C1487 1.387 . S
C1486 H1490 0.950 . S
C1486 C1495 1.390 . S
C1487 C1486 1.387 . S
C1487 C1489 1.387 . S
H1488 C1495 0.950 . S
C1489 C1487 1.387 . S
C1489 C1491 1.390 . S
C1489 H1493 0.950 . S
H1490 C1486 0.950 . S
C1491 C1489 1.390 . S
C1491 C1492 1.387 . S
C1491 H1494 0.950 . S
C1492 C1491 1.387 . S
C1492 C1495 1.387 . S
H1493 C1489 0.950 . S
H1494 C1491 0.950 . S
C1495 C1486 1.390 . S
C1495 H1488 0.950 . S
C1495 C1492 1.387 . S
C1496 C1497 1.387 . S
C1496 H1500 0.950 . S
C1496 C1505 1.390 . S
C1497 C1496 1.387 . S
C1497 C1499 1.387 . S
H1498 C1505 0.950 . S
C1499 C1497 1.387 . S
C1499 C1501 1.390 . S
C1499 H1503 0.950 . S
H1500 C1496 0.950 . S
C1501 C1499 1.390 . S
C1501 C1502 1.387 . S
C1501 H1504 0.950 . S
C1502 C1501 1.387 . S
C1502 C1505 1.387 . S
H1503 C1499 0.950 . S
H1504 C1501 0.950 . S
C1505 C1496 1.390 . S
C1505 H1498 0.950 . S
C1505 C1502 1.387 . S
C1506 C1507 1.387 . S
C1506 H1510 0.950 . S
C1506 C1515 1.390 . S
C1507 C1506 1.387 . S
C1507 C1509 1.387 . S
H1508 C1515 0.950 . S
C1509 C1507 1.387 . S
C1509 C1511 1.390 . S
C1509 H1513 0.950 . S
H1510 C1506 0.950 . S
C1511 C1509 1.390 . S
C1511 C1512 1.387 . S
C1511 H1514 0.950 . S
C1512 C1511 1.387 . S
C1512 C1515 1.387 . S
H1513 C1509 0.950 . S
H1514 C1511 0.950 . S
C1515 C1506 1.390 . S
C1515 H1508 0.950 . S
C1515 C1512 1.387 . S
C1516 C1517 1.387 . S
C1516 H1520 0.950 . S
C1516 C1525 1.390 . S
C1517 C1516 1.387 . S
C1517 C1519 1.387 . S
H1518 C1525 0.950 . S
C1519 C1517 1.387 . S
C1519 C1521 1.390 . S
C1519 H1523 0.950 . S
H1520 C1516 0.950 . S
C1521 C1519 1.390 . S
C1521 C1522 1.387 . S
C1521 H1524 0.950 . S
C1522 C1521 1.387 . S
C1522 C1525 1.387 . S
H1523 C1519 0.950 . S
H1524 C1521 0.950 . S
C1525 C1516 1.390 . S
C1525 H1518 0.950 . S
C1525 C1522 1.387 . S
C1526 C1527 1.387 . S
C1526 H1530 0.950 . S
C1526 C1535 1.390 . S
C1527 C1526 1.387 . S
C1527 C1529 1.387 . S
H1528 C1535 0.950 . S
C1529 C1527 1.387 . S
C1529 C1531 1.390 . S
C1529 H1533 0.950 . S
H1530 C1526 0.950 . S
C1531 C1529 1.390 . S
C1531 C1532 1.387 . S
C1531 H1534 0.950 . S
C1532 C1531 1.387 . S
C1532 C1535 1.387 . S
H1533 C1529 0.950 . S
H1534 C1531 0.950 . S
C1535 C1526 1.390 . S
C1535 H1528 0.950 . S
C1535 C1532 1.387 . S
C1536 C1537 1.387 . S
C1536 H1540 0.950 . S
C1536 C1545 1.390 1_545 S
C1537 C1536 1.387 . S
C1537 C1539 1.387 . S
H1538 C1545 0.950 . S
C1539 C1537 1.387 . S
C1539 C1541 1.390 1_545 S
C1539 H1543 0.950 . S
H1540 C1536 0.950 . S
C1541 C1539 1.390 1_565 S
C1541 C1542 1.387 . S
C1541 H1544 0.950 . S
C1542 C1541 1.387 . S
C1542 C1545 1.387 . S
H1543 C1539 0.950 . S
H1544 C1541 0.950 . S
C1545 C1536 1.390 1_565 S
C1545 H1538 0.950 . S
C1545 C1542 1.387 . S
C1546 C1547 1.387 . S
C1546 H1550 0.950 . S
C1546 C1555 1.390 . S
C1547 C1546 1.387 . S
C1547 C1549 1.387 . S
H1548 C1555 0.950 . S
C1549 C1547 1.387 . S
C1549 C1551 1.390 . S
C1549 H1553 0.950 . S
H1550 C1546 0.950 . S
C1551 C1549 1.390 . S
C1551 C1552 1.387 . S
C1551 H1554 0.950 . S
C1552 C1551 1.387 . S
C1552 C1555 1.387 . S
H1553 C1549 0.950 . S
H1554 C1551 0.950 . S
C1555 C1546 1.390 . S
C1555 H1548 0.950 . S
C1555 C1552 1.387 . S
C1556 C1557 1.387 . S
C1556 H1560 0.950 . S
C1556 C1565 1.390 1_545 S
C1557 C1556 1.387 . S
C1557 C1559 1.387 . S
H1558 C1565 0.950 . S
C1559 C1557 1.387 . S
C1559 C1561 1.390 1_545 S
C1559 H1563 0.950 . S
H1560 C1556 0.950 . S
C1561 C1559 1.390 1_565 S
C1561 C1562 1.387 . S
C1561 H1564 0.950 . S
C1562 C1561 1.387 . S
C1562 C1565 1.387 . S
H1563 C1559 0.950 . S
H1564 C1561 0.950 . S
C1565 C1556 1.390 1_565 S
C1565 H1558 0.950 . S
C1565 C1562 1.387 . S
C1566 C1567 1.387 . S
C1566 H1570 0.950 . S
C1566 C1575 1.390 1_556 S
C1567 C1566 1.387 . S
C1567 C1569 1.387 . S
H1568 C1575 0.950 . S
C1569 C1567 1.387 . S
C1569 C1571 1.390 1_556 S
C1569 H1573 0.950 . S
H1570 C1566 0.950 . S
C1571 C1569 1.390 1_554 S
C1571 C1572 1.387 . S
C1571 H1574 0.950 . S
C1572 C1571 1.387 . S
C1572 C1575 1.387 . S
H1573 C1569 0.950 . S
H1574 C1571 0.950 . S
C1575 C1566 1.390 1_554 S
C1575 H1568 0.950 . S
C1575 C1572 1.387 . S
C1576 C1577 1.387 . S
C1576 H1580 0.950 . S
C1576 C1585 1.390 1_565 S
C1577 C1576 1.387 . S
C1577 C1579 1.387 . S
H1578 C1585 0.950 . S
C1579 C1577 1.387 . S
C1579 C1581 1.390 1_565 S
C1579 H1583 0.950 . S
H1580 C1576 0.950 . S
C1581 C1579 1.390 1_545 S
C1581 C1582 1.387 . S
C1581 H1584 0.950 . S
C1582 C1581 1.387 . S
C1582 C1585 1.387 . S
H1583 C1579 0.950 . S
H1584 C1581 0.950 . S
C1585 C1576 1.390 1_545 S
C1585 H1578 0.950 . S
C1585 C1582 1.387 . S
C1586 C1587 1.387 . S
C1586 H1590 0.950 . S
C1586 C1595 1.390 . S
C1587 C1586 1.387 . S
C1587 C1589 1.387 . S
H1588 C1595 0.950 . S
C1589 C1587 1.387 . S
C1589 C1591 1.390 . S
C1589 H1593 0.950 . S
H1590 C1586 0.950 . S
C1591 C1589 1.390 . S
C1591 C1592 1.387 . S
C1591 H1594 0.950 . S
C1592 C1591 1.387 . S
C1592 C1595 1.387 . S
H1593 C1589 0.950 . S
H1594 C1591 0.950 . S
C1595 C1586 1.390 . S
C1595 H1588 0.950 . S
C1595 C1592 1.387 . S
C1596 C1597 1.387 . S
C1596 H1600 0.950 . S
C1596 C1605 1.390 1_565 S
C1597 C1596 1.387 . S
C1597 C1599 1.387 . S
H1598 C1605 0.950 . S
C1599 C1597 1.387 . S
C1599 C1601 1.390 1_565 S
C1599 H1603 0.950 . S
H1600 C1596 0.950 . S
C1601 C1599 1.390 1_545 S
C1601 C1602 1.387 . S
C1601 H1604 0.950 . S
C1602 C1601 1.387 . S
C1602 C1605 1.387 . S
H1603 C1599 0.950 . S
H1604 C1601 0.950 . S
C1605 C1596 1.390 1_545 S
C1605 H1598 0.950 . S
C1605 C1602 1.387 . S
C1606 C1607 1.387 . S
C1606 H1610 0.950 . S
C1606 C1615 1.390 1_554 S
C1607 C1606 1.387 . S
C1607 C1609 1.387 . S
H1608 C1615 0.950 . S
C1609 C1607 1.387 . S
C1609 C1611 1.390 1_554 S
C1609 H1613 0.950 . S
H1610 C1606 0.950 . S
C1611 C1609 1.390 1_556 S
C1611 C1612 1.387 . S
C1611 H1614 0.950 . S
C1612 C1611 1.387 . S
C1612 C1615 1.387 . S
H1613 C1609 0.950 . S
H1614 C1611 0.950 . S
C1615 C1606 1.390 1_556 S
C1615 H1608 0.950 . S
C1615 C1612 1.387 . S
C1616 C1617 1.387 . S
C1616 H1620 0.950 . S
C1616 C1625 1.390 . S
C1617 C1616 1.387 . S
C1617 C1619 1.387 . S
H1618 C1625 0.950 . S
C1619 C1617 1.387 . S
C1619 C1621 1.390 . S
C1619 H1623 0.950 . S
H1620 C1616 0.950 . S
C1621 C1619 1.390 . S
C1621 C1622 1.387 . S
C1621 H1624 0.950 . S
C1622 C1621 1.387 . S
C1622 C1625 1.387 . S
H1623 C1619 0.950 . S
H1624 C1621 0.950 . S
C1625 C1616 1.390 . S
C1625 H1618 0.950 . S
C1625 C1622 1.387 . S
C1626 C1627 1.387 . S
C1626 H1630 0.950 . S
C1626 C1635 1.390 1_556 S
C1627 C1626 1.387 . S
C1627 C1629 1.387 . S
H1628 C1635 0.950 . S
C1629 C1627 1.387 . S
C1629 C1631 1.390 1_556 S
C1629 H1633 0.950 . S
H1630 C1626 0.950 . S
C1631 C1629 1.390 1_554 S
C1631 C1632 1.387 . S
C1631 H1634 0.950 . S
C1632 C1631 1.387 . S
C1632 C1635 1.387 . S
H1633 C1629 0.950 . S
H1634 C1631 0.950 . S
C1635 C1626 1.390 1_554 S
C1635 H1628 0.950 . S
C1635 C1632 1.387 . S
C1636 C1637 1.387 . S
C1636 H1640 0.950 . S
C1636 C1645 1.390 . S
C1637 C1636 1.387 . S
C1637 C1639 1.387 . S
H1638 C1645 0.950 . S
C1639 C1637 1.387 . S
C1639 C1641 1.390 . S
C1639 H1643 0.950 . S
H1640 C1636 0.950 . S
C1641 C1639 1.390 . S
C1641 C1642 1.387 . S
C1641 H1644 0.950 . S
C1642 C1641 1.387 . S
C1642 C1645 1.387 . S
H1643 C1639 0.950 . S
H1644 C1641 0.950 . S
C1645 C1636 1.390 . S
C1645 H1638 0.950 . S
C1645 C1642 1.387 . S
C1646 C1647 1.387 . S
C1646 H1650 0.950 . S
C1646 C1655 1.390 . S
C1647 C1646 1.387 . S
C1647 C1649 1.387 . S
H1648 C1655 0.950 . S
C1649 C1647 1.387 . S
C1649 C1651 1.390 . S
C1649 H1653 0.950 . S
H1650 C1646 0.950 . S
C1651 C1649 1.390 . S
C1651 C1652 1.387 . S
C1651 H1654 0.950 . S
C1652 C1651 1.387 . S
C1652 C1655 1.387 . S
H1653 C1649 0.950 . S
H1654 C1651 0.950 . S
C1655 C1646 1.390 . S
C1655 H1648 0.950 . S
C1655 C1652 1.387 . S
C1656 C1657 1.387 . S
C1656 H1660 0.950 . S
C1656 C1665 1.390 . S
C1657 C1656 1.387 . S
C1657 C1659 1.387 . S
H1658 C1665 0.950 . S
C1659 C1657 1.387 . S
C1659 C1661 1.390 . S
C1659 H1663 0.950 . S
H1660 C1656 0.950 . S
C1661 C1659 1.390 . S
C1661 C1662 1.387 . S
C1661 H1664 0.950 . S
C1662 C1661 1.387 . S
C1662 C1665 1.387 . S
H1663 C1659 0.950 . S
H1664 C1661 0.950 . S
C1665 C1656 1.390 . S
C1665 H1658 0.950 . S
C1665 C1662 1.387 . S
C1666 C1667 1.387 . S
C1666 H1670 0.950 . S
C1666 C1675 1.390 1_556 S
C1667 C1666 1.387 . S
C1667 C1669 1.387 . S
H1668 C1675 0.950 . S
C1669 C1667 1.387 . S
C1669 C1671 1.390 1_556 S
C1669 H1673 0.950 . S
H1670 C1666 0.950 . S
C1671 C1669 1.390 1_554 S
C1671 C1672 1.387 . S
C1671 H1674 0.950 . S
C1672 C1671 1.387 . S
C1672 C1675 1.387 . S
H1673 C1669 0.950 . S
H1674 C1671 0.950 . S
C1675 C1666 1.390 1_554 S
C1675 H1668 0.950 . S
C1675 C1672 1.387 . S
C1676 C1677 1.387 . S
C1676 H1680 0.950 . S
C1676 C1685 1.390 . S
C1677 C1676 1.387 . S
C1677 C1679 1.387 . S
H1678 C1685 0.950 . S
C1679 C1677 1.387 . S
C1679 C1681 1.390 . S
C1679 H1683 0.950 . S
H1680 C1676 0.950 . S
C1681 C1679 1.390 . S
C1681 C1682 1.387 . S
C1681 H1684 0.950 . S
C1682 C1681 1.387 . S
C1682 C1685 1.387 . S
H1683 C1679 0.950 . S
H1684 C1681 0.950 . S
C1685 C1676 1.390 . S
C1685 H1678 0.950 . S
C1685 C1682 1.387 . S
C1686 C1687 1.387 . S
C1686 H1690 0.950 . S
C1686 C1695 1.390 . S
C1687 C1686 1.387 . S
C1687 C1689 1.387 . S
H1688 C1695 0.950 . S
C1689 C1687 1.387 . S
C1689 C1691 1.390 . S
C1689 H1693 0.950 . S
H1690 C1686 0.950 . S
C1691 C1689 1.390 . S
C1691 C1692 1.387 . S
C1691 H1694 0.950 . S
C1692 C1691 1.387 . S
C1692 C1695 1.387 . S
H1693 C1689 0.950 . S
H1694 C1691 0.950 . S
C1695 C1686 1.390 . S
C1695 H1688 0.950 . S
C1695 C1692 1.387 . S
C737 C20 0.933 . S
C742 C637 0.969 . S
C747 C43 0.928 1_655 S
C752 C200 0.970 . S
C757 C66 0.929 . S
C762 C591 0.971 . S
C767 C246 0.970 . S
C772 C89 0.929 . S
C777 C112 0.932 . S
C782 C683 0.969 . S
C787 C338 0.970 . S
C792 C135 0.930 . S
C797 C729 0.971 . S
C802 C158 0.928 . S
C807 C181 0.933 1_655 S
C812 C292 0.969 . S
C817 C204 0.933 . S
C822 C453 0.969 . S
C827 C227 0.932 1_455 S
C832 C16 0.970 . S
C837 C407 0.971 . S
C842 C250 0.929 . S
C847 C62 0.969 . S
C852 C273 0.931 . S
C857 C296 0.931 . S
C862 C499 0.969 . S
C867 C319 0.934 . S
C872 C154 0.968 . S
C877 C342 0.929 . S
C882 C545 0.970 . S
C887 C108 0.970 . S
C892 C365 0.930 1_455 S
C897 C269 0.969 . S
C902 C388 0.932 . S
C907 C568 0.970 . S
C912 C411 0.930 . S
C917 C223 0.970 . S
C922 C434 0.929 . S
C927 C457 0.929 1_455 S
C932 C614 0.970 . S
C937 C315 0.971 . S
C942 C480 0.928 . S
C947 C706 0.969 . S
C952 C503 0.931 1_455 S
C957 C361 0.969 . S
C962 C526 0.932 . S
C967 C549 0.930 . S
C972 C660 0.970 . S
C977 C572 0.933 . S
C982 C85 0.969 . S
C987 C595 0.931 . S
C992 C384 0.969 . S
C997 C618 0.929 . S
C1002 C39 0.970 . S
C1007 C641 0.930 1_655 S
C1012 C430 0.969 . S
C1017 C131 0.969 . S
C1022 C664 0.932 . S
C1027 C522 0.969 . S
C1032 C687 0.933 1_655 S
C1037 C710 0.928 . S
C1042 C177 0.971 . S
C1047 C733 0.930 . S
C1052 C476 0.969 . S
C1057 C21 1.402 . S
C1062 C435 1.402 . S
C1067 C458 1.402 . S
C1072 C44 1.402 . S
C1077 C67 1.402 . S
C1082 C389 1.402 . S
C1087 C90 1.402 . S
C1092 C412 1.402 . S
C1097 C527 1.399 . S
C1102 C113 1.399 . S
C1107 C136 1.399 . S
C1112 C550 1.399 . S
C1117 C481 1.402 . S
C1122 C159 1.402 . S
C1127 C182 1.402 . S
C1132 C504 1.402 . S
C1137 C619 1.402 . S
C1142 C205 1.402 . S
C1147 C228 1.402 . S
C1152 C642 1.402 . S
C1157 C251 1.402 . S
C1162 C573 1.402 . S
C1167 C274 1.399 . S
C1172 C596 1.399 . S
C1177 C711 1.399 . S
C1182 C297 1.399 . S
C1187 C734 1.402 . S
C1192 C320 1.402 . S
C1197 C343 1.402 . S
C1202 C665 1.402 . S
C1207 C366 1.399 . S
C1212 C688 1.399 . S
C1217 C17 1.586 . S
C1222 C569 1.586 . S
C1227 C224 1.586 . S
C1232 C40 1.586 . S
C1237 C63 1.584 . S
C1242 C615 1.584 . S
C1247 C86 1.586 . S
C1252 C270 1.586 . S
C1257 C661 1.585 . S
C1262 C109 1.585 . S
C1267 C316 1.584 . S
C1272 C132 1.584 . S
C1277 C155 1.586 . S
C1282 C707 1.586 . S
C1287 C178 1.586 . S
C1292 C362 1.586 . S
C1297 C385 1.584 . S
C1302 C201 1.584 . S
C1307 C431 1.585 . S
C1312 C247 1.585 . S
C1317 C477 1.584 . S
C1322 C293 1.584 . S
C1327 C339 1.585 . S
C1332 C523 1.585 . S
C1337 C408 1.585 . S
C1342 C592 1.585 . S
C1347 C454 1.586 . S
C1352 C638 1.586 . S
C1357 C684 1.586 . S
C1362 C500 1.586 . S
C1367 C730 1.586 . S
C1372 C546 1.586 . S
C1377 C18 1.714 . S
C1382 C133 1.717 . S
C1387 C156 1.715 . S
C1392 C41 1.714 . S
C1397 C179 1.716 . S
C1402 C64 1.715 . S
C1407 C110 1.715 . S
C1412 C87 1.715 . S
C1417 C202 1.714 . S
C1422 C317 1.718 . S
C1427 C225 1.715 . S
C1432 C340 1.714 . S
C1437 C363 1.716 . S
C1442 C248 1.714 . S
C1447 C271 1.713 . S
C1452 C294 1.715 . S
C1457 C386 1.714 . S
C1462 C501 1.714 . S
C1467 C409 1.716 . S
C1472 C524 1.715 . S
C1477 C432 1.716 . S
C1482 C547 1.715 . S
C1487 C478 1.715 . S
C1492 C455 1.714 . S
C1497 C570 1.714 . S
C1502 C685 1.716 . S
C1507 C593 1.716 . S
C1512 C708 1.715 . S
C1517 C731 1.714 . S
C1522 C616 1.715 . S
C1527 C639 1.716 . S
C1532 C662 1.714 . S
C1537 C19 1.476 . S
C1542 C111 1.476 . S
C1547 C42 1.479 . S
C1552 C134 1.479 . S
C1557 C157 1.476 . S
C1562 C65 1.476 . S
C1567 C180 1.479 . S
C1572 C88 1.479 . S
C1577 C203 1.479 . S
C1582 C295 1.479 . S
C1587 C318 1.479 . S
C1592 C226 1.479 . S
C1597 C341 1.476 . S
C1602 C249 1.476 . S
C1607 C364 1.476 . S
C1612 C272 1.476 . S
C1617 C387 1.479 . S
C1622 C479 1.479 . S
C1627 C502 1.476 . S
C1632 C410 1.476 . S
C1637 C433 1.476 . S
C1642 C525 1.476 . S
C1647 C548 1.476 . S
C1652 C456 1.476 . S
C1657 C663 1.479 . S
C1662 C571 1.479 . S
C1667 C594 1.479 . S
C1672 C686 1.479 . S
C1677 C617 1.476 . S
C1682 C709 1.476 . S
C1687 C640 1.479 . S
C1692 C732 1.479 . S
