# Generated by pormake.
# Topology ecf, (8)-cn, num edge types: 1
# Building blocks:
#     Node 0, Type 0, BuildingBlock: LIZSOE_clean_sbu_0, # of connection points: 8
#     Node 1, Type 0, BuildingBlock: LIZSOE_clean_sbu_0, # of connection points: 8
#     Node 2, Type 0, BuildingBlock: LIZSOE_clean_sbu_0, # of connection points: 8
#     Node 3, Type 0, BuildingBlock: LIZSOE_clean_sbu_0, # of connection points: 8
#     Node 4, Type 0, BuildingBlock: LIZSOE_clean_sbu_0, # of connection points: 8
#     Node 5, Type 0, BuildingBlock: LIZSOE_clean_sbu_0, # of connection points: 8
#     Edge 6, Type (0, 0), BuildingBlock: KIFKEQ_clean_linker_1, # of connection points: 2
#     Edge 7, Type (0, 0), BuildingBlock: KIFKEQ_clean_linker_1, # of connection points: 2
#     Edge 8, Type (0, 0), BuildingBlock: KIFKEQ_clean_linker_1, # of connection points: 2
#     Edge 9, Type (0, 0), BuildingBlock: KIFKEQ_clean_linker_1, # of connection points: 2
#     Edge 10, Type (0, 0), BuildingBlock: KIFKEQ_clean_linker_1, # of connection points: 2
#     Edge 11, Type (0, 0), BuildingBlock: KIFKEQ_clean_linker_1, # of connection points: 2
#     Edge 12, Type (0, 0), BuildingBlock: KIFKEQ_clean_linker_1, # of connection points: 2
#     Edge 13, Type (0, 0), BuildingBlock: KIFKEQ_clean_linker_1, # of connection points: 2
#     Edge 14, Type (0, 0), BuildingBlock: KIFKEQ_clean_linker_1, # of connection points: 2
#     Edge 15, Type (0, 0), BuildingBlock: KIFKEQ_clean_linker_1, # of connection points: 2
#     Edge 16, Type (0, 0), BuildingBlock: KIFKEQ_clean_linker_1, # of connection points: 2
#     Edge 17, Type (0, 0), BuildingBlock: KIFKEQ_clean_linker_1, # of connection points: 2
#     Edge 18, Type (0, 0), BuildingBlock: KIFKEQ_clean_linker_1, # of connection points: 2
#     Edge 19, Type (0, 0), BuildingBlock: KIFKEQ_clean_linker_1, # of connection points: 2
#     Edge 20, Type (0, 0), BuildingBlock: KIFKEQ_clean_linker_1, # of connection points: 2
#     Edge 21, Type (0, 0), BuildingBlock: KIFKEQ_clean_linker_1, # of connection points: 2
#     Edge 22, Type (0, 0), BuildingBlock: KIFKEQ_clean_linker_1, # of connection points: 2
#     Edge 23, Type (0, 0), BuildingBlock: KIFKEQ_clean_linker_1, # of connection points: 2
#     Edge 24, Type (0, 0), BuildingBlock: KIFKEQ_clean_linker_1, # of connection points: 2
#     Edge 25, Type (0, 0), BuildingBlock: KIFKEQ_clean_linker_1, # of connection points: 2
#     Edge 26, Type (0, 0), BuildingBlock: KIFKEQ_clean_linker_1, # of connection points: 2
#     Edge 27, Type (0, 0), BuildingBlock: KIFKEQ_clean_linker_1, # of connection points: 2
#     Edge 28, Type (0, 0), BuildingBlock: KIFKEQ_clean_linker_1, # of connection points: 2
#     Edge 29, Type (0, 0), BuildingBlock: KIFKEQ_clean_linker_1, # of connection points: 2
# Relax obj value: 0.280
# Max RMSD: 0.203
# Mean RMSD: 0.200
data_MOF--net-ecf--node1-LIZSOE_clean_sbu_0--edge1-KIFKEQ_clean_linker_1
_symmetry_space_group_name_H-M    P1
_symmetry_Int_Tables_number       1
_symmetry_cell_setting            triclinic
loop_
_symmetry_equiv_pos_as_xyz
'x, y, z'
_cell_length_a     38.15695
_cell_length_b     38.159944
_cell_length_c     21.819394
_cell_angle_alpha  89.419964
_cell_angle_beta   90.067715
_cell_angle_gamma 119.90552
loop_
_atom_site_label
_atom_site_type_symbol
_atom_site_fract_x
_atom_site_fract_y
_atom_site_fract_z
_atom_type_partial_charge
Co0 Co 0.0814 0.26626 0.2575 0.0
N1 N 0.03715 0.23192 0.21125 0.0
C2 C 1.02059 0.24055 0.16271 0.0
N3 N 0.99 0.17422 0.16954 0.0
C4 C 1.0172 0.19133 0.21529 0.0
C5 C 0.99177 0.20518 0.13699 0.0
Co6 Co 0.27483 0.40435 0.27187 0.0
N7 N 0.32116 0.44965 0.30106 0.0
N8 N 0.37696 0.50979 0.31787 0.0
C9 C 0.37802 0.48177 0.35449 0.0
C10 C 0.34422 0.44523 0.34386 0.0
C11 C 0.34207 0.48959 0.28552 0.0
Co12 Co 0.17868 0.33498 0.27001 0.0
C13 C 0.25443 0.38097 0.18792 0.0
H14 H 0.33776 0.4167 0.36434 0.0
O15 O 0.12108 0.30079 0.30547 0.0
O16 O 0.18087 0.38509 0.30202 0.0
O17 O 0.16104 0.34665 0.18775 0.0
O18 O 0.17631 0.286 0.23611 0.0
O19 O 0.1104 0.24274 0.2232 0.0
O20 O 0.245 0.43117 0.28207 0.0
O21 O 0.23558 0.36396 0.23907 0.0
O22 O 0.26117 0.38237 0.35252 0.0
O23 O 0.09638 0.30185 0.19347 0.0
O24 O 0.05838 0.29107 0.29222 0.0
O25 O 0.20024 0.32586 0.3499 0.0
O26 O 0.28361 0.41835 0.19135 0.0
C27 C 0.12537 0.33076 0.16637 0.0
C28 C 0.33078 0.50792 0.23327 0.0
H29 H 0.30093 0.48665 0.21391 0.0
H30 H 0.3295 0.53477 0.24862 0.0
H31 H 0.35423 0.518 0.19688 0.0
C32 C 0.20919 0.42184 0.29718 0.0
C33 C 0.14738 0.25267 0.21678 0.0
H34 H 0.02908 0.27057 0.14622 0.0
H35 H 0.04059 0.1556 0.2553 0.0
H36 H 0.99208 0.14445 0.28445 0.0
H37 H 0.03751 0.19025 0.30711 0.0
C38 C 1.02204 0.16916 0.2688 0.0
C39 C 0.09187 0.30758 0.32339 0.0
C40 C 0.23393 0.34932 0.37689 0.0
H41 H 0.97346 0.20236 0.09738 0.0
H42 H 0.40238 0.48712 0.3854 0.0
Co43 Co 0.85402 0.08369 0.7737 0.0
N44 N 0.83131 0.02817 0.76741 0.0
C45 C 0.8207 1.01127 0.71154 0.0
N46 N 0.81102 0.96194 0.77472 0.0
C47 C 0.82508 0.99727 0.80545 0.0
C48 C 0.80796 0.97101 0.71593 0.0
Co49 Co 0.86105 0.26173 0.76996 0.0
N50 N 0.88497 0.31893 0.76124 0.0
N51 N 0.89723 0.38374 0.76296 0.0
C52 C 0.90455 0.3753 0.70626 0.0
C53 C 0.89669 0.33617 0.70519 0.0
C54 C 0.88556 0.34886 0.79588 0.0
Co55 Co 0.85446 0.17071 0.78221 0.0
C56 C 0.8103 0.21732 0.81582 0.0
H57 H 0.89639 0.3204 0.66418 0.0
O58 O 0.87875 0.13511 0.78023 0.0
O59 O 0.8968 0.20673 0.84311 0.0
O60 O 0.81713 0.13564 0.85379 0.0
O61 O 0.81155 0.13672 0.71976 0.0
O62 O 0.81553 0.08072 0.72154 0.0
O63 O 0.89905 0.26665 0.83285 0.0
O64 O 0.83194 0.20823 0.77955 0.0
O65 O 0.89836 0.26237 0.71008 0.0
O66 O 0.82037 0.07857 0.84074 0.0
O67 O 0.89373 0.09119 0.82467 0.0
O68 O 0.89269 0.20144 0.71162 0.0
O69 O 0.82386 0.25554 0.82598 0.0
C70 C 0.80778 0.09897 0.86996 0.0
C71 C 0.87433 0.34343 0.86242 0.0
H72 H 0.88213 0.32183 0.88424 0.0
H73 H 0.89013 0.37278 0.88649 0.0
H74 H 0.84122 0.33086 0.86699 0.0
C75 C 0.91159 0.24417 0.85722 0.0
C76 C 0.7999 0.10081 0.70188 0.0
H77 H 0.82399 0.02769 0.66924 0.0
H78 H 0.86643 0.01621 0.88064 0.0
H79 H 0.81763 0.97246 0.89728 0.0
H80 H 0.82337 0.02218 0.89284 0.0
C81 C 0.8334 1.00208 0.87299 0.0
C82 C 0.9025 0.12852 0.81576 0.0
C83 C 0.90871 0.23757 0.69008 0.0
H84 H 0.80032 0.95062 0.67769 0.0
H85 H 0.91214 0.39514 0.66666 0.0
Co86 Co 0.75897 0.81116 0.29607 0.0
N87 N 0.79686 0.80254 0.26074 0.0
C88 C 0.81602 0.81503 0.20634 0.0
N89 N 0.84449 0.78506 0.25618 0.0
C90 C 0.81363 0.78312 0.28891 0.0
C91 C 0.84563 0.80458 0.20369 0.0
Co92 Co 0.63502 0.88094 0.28253 0.0
N93 N 0.58679 0.87845 0.3052 0.0
N94 N 0.52743 0.87699 0.31079 0.0
C95 C 0.53198 0.86026 0.36232 0.0
C96 C 0.56819 0.86123 0.35892 0.0
C97 C 0.56095 0.88784 0.2766 0.0
Co98 Co 0.70114 0.84961 0.29571 0.0
C99 C 0.66444 0.88506 0.20258 0.0
H100 H 0.57914 0.84798 0.39248 0.0
O101 O 0.7235 0.81721 0.33782 0.0
O102 O 0.64779 0.80008 0.30514 0.0
O103 O 0.70462 0.83004 0.21003 0.0
O104 O 0.7542 0.89685 0.28669 0.0
O105 O 0.78487 0.86412 0.2556 0.0
O106 O 0.60635 0.82392 0.2907 0.0
O107 O 0.6796 0.88383 0.25624 0.0
O108 O 0.65138 0.88885 0.3647 0.0
O109 O 0.72548 0.78627 0.23087 0.0
O110 O 0.78791 0.83547 0.36097 0.0
O111 O 0.69812 0.87058 0.37901 0.0
O112 O 0.6266 0.87612 0.20125 0.0
C113 C 0.70982 0.80057 0.19468 0.0
C114 C 0.56773 0.90595 0.21356 0.0
H115 H 0.60031 0.92792 0.20631 0.0
H116 H 0.55816 0.88155 0.17937 0.0
H117 H 0.54974 0.92121 0.20637 0.0
C118 C 0.61248 0.7947 0.29988 0.0
C119 C 0.78356 0.89661 0.26077 0.0
H120 H 0.81054 0.83266 0.17259 0.0
H121 H 0.81124 0.78347 0.38733 0.0
H122 H 0.80849 0.73864 0.35586 0.0
H123 H 0.76544 0.74663 0.35155 0.0
C124 C 0.7989 0.76152 0.34936 0.0
C125 C 0.75206 0.82663 0.37939 0.0
C126 C 0.67716 0.8861 0.39826 0.0
H127 H 0.86888 0.81431 0.16877 0.0
H128 H 0.50948 0.84615 0.39823 0.0
Co129 Co 0.96007 0.77444 0.79707 0.0
N130 N 1.01531 0.80432 0.7844 0.0
C131 C 0.04021 0.78979 0.77118 0.0
N132 N 0.07795 0.85623 0.76828 0.0
C133 C 0.03921 0.84485 0.78336 0.0
C134 C 0.07863 0.82157 0.76121 0.0
Co135 Co 0.77976 0.60795 0.80267 0.0
N136 N 0.72282 0.57667 0.79633 0.0
N137 N 0.65862 0.52353 0.80081 0.0
C138 C 0.65805 0.5564 0.77862 0.0
C139 C 0.69702 0.58868 0.77632 0.0
C140 C 0.69861 0.53695 0.81151 0.0
Co141 Co 0.87145 0.69031 0.80531 0.0
C142 C 0.82699 0.60092 0.77289 0.0
H143 H 0.70586 0.61904 0.76106 0.0
O144 O 0.90903 0.74963 0.80537 0.0
O145 O 0.83806 0.69811 0.86966 0.0
O146 O 0.90688 0.68536 0.87238 0.0
O147 O 0.90291 0.68104 0.73856 0.0
O148 O 0.95761 0.74201 0.73287 0.0
O149 O 0.77536 0.64499 0.8563 0.0
O150 O 0.83274 0.63092 0.80811 0.0
O151 O 0.78099 0.64093 0.73301 0.0
O152 O 0.96701 0.74149 0.85307 0.0
O153 O 0.94715 0.80358 0.74569 0.0
O154 O 0.83899 0.69929 0.73991 0.0
O155 O 0.79045 0.57707 0.75299 0.0
C156 C 0.94515 0.70885 0.88295 0.0
C157 C 0.71505 0.51128 0.83649 0.0
H158 H 0.74791 0.52527 0.82804 0.0
H159 H 0.71056 0.50828 0.88687 0.0
H160 H 0.69908 0.48071 0.8161 0.0
C161 C 0.79978 0.67901 0.88079 0.0
C162 C 0.93643 0.70651 0.71342 0.0
H163 H 0.03084 0.75805 0.76782 0.0
H164 H 1.01359 0.88188 0.75983 0.0
H165 H 0.04877 0.90064 0.82275 0.0
H166 H 0.99841 0.85756 0.83358 0.0
C167 C 0.0243 0.87299 0.80126 0.0
C168 C 0.91186 0.77805 0.76887 0.0
C169 C 0.8045 0.67724 0.71514 0.0
H170 H 0.10482 0.81943 0.7479 0.0
H171 H 0.63113 0.55724 0.76532 0.0
Co172 Co 0.15896 0.76139 0.27514 0.0
N173 N 0.15198 0.71034 0.28938 0.0
C174 C 0.11536 0.6818 0.31016 0.0
N175 N 0.15035 0.65083 0.29796 0.0
C176 C 0.17281 0.69045 0.28178 0.0
C177 C 0.11425 0.64547 0.31553 0.0
Co178 Co 0.20825 0.94743 0.33216 0.0
N179 N 0.20428 0.99261 0.31673 0.0
N180 N 0.20497 0.04838 0.28334 0.0
C181 C 0.18253 0.03577 0.33468 0.0
C182 C 0.18248 1.00173 0.35539 0.0
C183 C 0.2184 0.02231 0.27353 0.0
Co184 Co 0.19084 0.85758 0.3022 0.0
C185 C 0.25246 0.93992 0.36132 0.0
H186 H 0.16683 0.98406 0.39564 0.0
O187 O 0.16199 0.80611 0.25463 0.0
O188 O 0.21904 0.88862 0.22622 0.0
O189 O 0.23823 0.85091 0.31956 0.0
O190 O 0.16191 0.82694 0.37843 0.0
O191 O 0.14663 0.76356 0.35856 0.0
O192 O 0.20882 0.9398 0.24486 0.0
O193 O 0.21619 0.90807 0.35407 0.0
O194 O 0.15167 0.91589 0.33639 0.0
O195 O 0.21572 0.78708 0.29067 0.0
O196 O 0.1687 0.76316 0.19412 0.0
O197 O 0.14303 0.86263 0.28382 0.0
O198 O 0.26167 0.97272 0.33033 0.0
C199 C 0.24399 0.82151 0.30801 0.0
C200 C 0.2469 0.02746 0.22255 0.0
H201 H 0.26433 1.01208 0.23286 0.0
H202 H 0.22921 0.01525 0.18009 0.0
H203 H 0.26833 0.06007 0.2141 0.0
C204 C 0.21891 0.92044 0.20858 0.0
C205 C 0.14579 0.78957 0.39366 0.0
H206 H 0.0907 0.6872 0.32019 0.0
H207 H 0.22025 0.68607 0.23445 0.0
H208 H 0.23692 0.72617 0.28947 0.0
H209 H 0.21695 0.73071 0.21681 0.0
C210 C 0.21411 0.70928 0.25372 0.0
C211 C 0.16199 0.79338 0.19909 0.0
C212 C 0.12904 0.88185 0.31213 0.0
H213 H 0.08886 0.61716 0.3312 0.0
H214 H 0.16638 0.04956 0.35452 0.0
Co215 Co 0.26689 0.1952 0.79821 0.0
N216 N 0.23769 0.22208 0.79459 0.0
C217 C 0.25038 0.25983 0.77275 0.0
N218 N 0.18899 0.23778 0.8087 0.0
C219 C 0.20023 0.20955 0.81678 0.0
C220 C 0.2203 0.26922 0.78046 0.0
Co221 Co 0.43361 0.17932 0.79637 0.0
N222 N 0.46464 0.15321 0.80413 0.0
N223 N 0.5187 0.14353 0.80932 0.0
C224 C 0.48443 0.10766 0.81683 0.0
C225 C 0.45159 0.11363 0.81368 0.0
C226 C 0.50561 0.17062 0.80098 0.0
Co227 Co 0.35121 0.18958 0.79446 0.0
C228 C 0.44003 0.23265 0.82911 0.0
H229 H 0.42016 0.09049 0.81799 0.0
O230 O 0.29139 0.16749 0.79835 0.0
O231 O 0.34311 0.15135 0.86319 0.0
O232 O 0.35952 0.23258 0.85831 0.0
O233 O 0.35759 0.22764 0.7238 0.0
O234 O 0.29918 0.22729 0.73364 0.0
O235 O 0.39807 0.14501 0.86153 0.0
O236 O 0.41075 0.21003 0.79144 0.0
O237 O 0.39872 0.14043 0.73774 0.0
O238 O 0.30057 0.23215 0.85355 0.0
O239 O 0.23643 0.15651 0.74537 0.0
O240 O 0.34291 0.14645 0.73212 0.0
O241 O 0.4628 0.21864 0.84978 0.0
C242 C 0.3355 0.24535 0.87569 0.0
C243 C 0.53245 0.21442 0.78512 0.0
H244 H 0.54286 0.23206 0.82798 0.0
H245 H 0.55928 0.21906 0.75867 0.0
H246 H 0.51548 0.22586 0.75809 0.0
C247 C 0.36342 0.13549 0.88352 0.0
C248 C 0.33255 0.23898 0.70664 0.0
H249 H 0.27979 0.27967 0.75302 0.0
H250 H 0.14438 0.15342 0.82302 0.0
H251 H 0.16927 0.17262 0.89471 0.0
H252 H 0.18894 0.15003 0.8426 0.0
C253 C 0.17433 0.16884 0.84574 0.0
C254 C 0.26241 0.14519 0.76047 0.0
C255 C 0.36381 0.12996 0.71533 0.0
H256 H 0.22122 0.29696 0.7664 0.0
H257 H 0.48316 0.07902 0.82498 0.0
H258 H 0.26326 0.50258 0.30152 0.0
H259 H 0.13531 0.41691 0.31326 0.0
H260 H 0.2496 0.55801 0.30163 0.0
H261 H 0.12154 0.47284 0.31714 0.0
H262 H 0.10771 0.57808 0.24615 0.0
H263 H 0.1216 0.52221 0.25103 0.0
H264 H 0.22867 0.59616 0.35807 0.0
H265 H 0.21509 0.65233 0.3505 0.0
C266 C 0.23215 0.49552 0.30474 0.0
C267 C 0.20038 0.45518 0.30613 0.0
C268 C 0.2243 0.52751 0.30557 0.0
C269 C 0.18441 0.52012 0.30878 0.0
C270 C 0.15262 0.47973 0.31316 0.0
C271 C 0.16051 0.4476 0.31166 0.0
C272 C 0.13439 0.58224 0.27006 0.0
C273 C 0.16072 0.61944 0.29714 0.0
C274 C 0.14215 0.55018 0.27362 0.0
C275 C 0.17614 0.55439 0.30536 0.0
C276 C 0.20254 0.59189 0.33243 0.0
C277 C 0.19496 0.62413 0.3281 0.0
H278 H 0.54583 0.09573 0.76211 0.0
H279 H 0.58474 0.20481 0.86465 0.0
H280 H 0.61373 0.10438 0.76975 0.0
H281 H 0.65285 0.21475 0.86996 0.0
H282 H 0.76574 0.21423 0.91481 0.0
H283 H 0.69384 0.19223 0.91579 0.0
H284 H 0.68209 0.14247 0.7351 0.0
H285 H 0.75404 0.16357 0.7354 0.0
C286 C 0.56899 0.12182 0.78583 0.0
C287 C 0.55973 0.14999 0.81163 0.0
C288 C 0.60816 0.12695 0.78997 0.0
C289 C 0.6394 0.16027 0.82066 0.0
C290 C 0.62989 0.18831 0.84667 0.0
C291 C 0.59078 0.18314 0.84252 0.0
C292 C 0.74745 0.19702 0.87638 0.0
C293 C 0.76586 0.19036 0.82538 0.0
C294 C 0.70618 0.18516 0.87624 0.0
C295 C 0.68181 0.16658 0.8247 0.0
C296 C 0.69947 0.15671 0.77577 0.0
C297 C 0.74089 0.16837 0.77617 0.0
H298 H 0.37269 0.57897 0.31451 0.0
H299 H 0.45597 0.53371 0.31071 0.0
H300 H 0.42871 0.64775 0.304 0.0
H301 H 0.51245 0.60227 0.3084 0.0
H302 H 0.60886 0.72702 0.25463 0.0
H303 H 0.55109 0.65899 0.25328 0.0
H304 H 0.48051 0.70049 0.35236 0.0
H305 H 0.53765 0.76916 0.34847 0.0
C306 C 0.40294 0.58367 0.31005 0.0
C307 C 0.40978 0.55079 0.31085 0.0
C308 C 0.4354 0.62335 0.30602 0.0
C309 C 0.47566 0.6312 0.30505 0.0
C310 C 0.48222 0.59801 0.30714 0.0
C311 C 0.44978 0.55848 0.30935 0.0
C312 C 0.58089 0.72141 0.27608 0.0
C313 C 0.5777 0.75319 0.30193 0.0
C314 C 0.54766 0.68225 0.27578 0.0
C315 C 0.51068 0.67355 0.30319 0.0
C316 C 0.50788 0.70567 0.32958 0.0
C317 C 0.5408 0.74511 0.32807 0.0
H318 H 0.94909 0.45914 0.72122 0.0
H319 H 0.84245 0.39243 0.83357 0.0
H320 H 0.94108 0.51879 0.72615 0.0
H321 H 0.83614 0.45302 0.84162 0.0
H322 H 0.85863 0.58411 0.87315 0.0
H323 H 0.88118 0.53407 0.87899 0.0
H324 H 0.87647 0.52539 0.68203 0.0
H325 H 0.85214 0.57394 0.67648 0.0
C326 C 0.92455 0.45742 0.74842 0.0
C327 C 0.89673 0.4207 0.77749 0.0
C328 C 0.92003 0.49169 0.75117 0.0
C329 C 0.88807 0.49073 0.78436 0.0
C330 C 0.86143 0.45488 0.81632 0.0
C331 C 0.86537 0.42016 0.81232 0.0
C332 C 0.86402 0.57278 0.83095 0.0
C333 C 0.85437 0.58365 0.77419 0.0
C334 C 0.87628 0.5436 0.83441 0.0
C335 C 0.88031 0.52551 0.78103 0.0
C336 C 0.87379 0.53883 0.72398 0.0
C337 C 0.86031 0.56701 0.72068 0.0
H338 H 0.27665 0.79378 0.22509 0.0
H339 H 0.30649 0.87049 0.38298 0.0
H340 H 0.3468 0.81096 0.21498 0.0
H341 H 0.3771 0.88727 0.37406 0.0
H342 H 0.5065 0.9343 0.31866 0.0
H343 H 0.43727 0.92284 0.31282 0.0
H344 H 0.39443 0.79825 0.26471 0.0
H345 H 0.46362 0.8108 0.26865 0.0
C346 C 0.29807 0.81329 0.25889 0.0
C347 C 0.28594 0.82962 0.30615 0.0
C348 C 0.33842 0.82356 0.25269 0.0
C349 C 0.36764 0.85036 0.29384 0.0
C350 C 0.35549 0.86697 0.34103 0.0
C351 C 0.31504 0.85696 0.34678 0.0
C352 C 0.48217 0.90509 0.30463 0.0
C353 C 0.48983 0.87353 0.29296 0.0
C354 C 0.4426 0.89821 0.30232 0.0
C355 C 0.41019 0.85947 0.289 0.0
C356 C 0.41856 0.82856 0.27432 0.0
C357 C 0.45805 0.83561 0.27629 0.0
H358 H 0.47247 0.28254 0.92694 0.0
H359 H 0.4523 0.28374 0.733 0.0
H360 H 0.52075 0.35473 0.92332 0.0
H361 H 0.50285 0.35503 0.72745 0.0
H362 H 0.59246 0.48849 0.72791 0.0
H363 H 0.53256 0.4223 0.73925 0.0
H364 H 0.58513 0.39931 0.89963 0.0
H365 H 0.64228 0.46702 0.89194 0.0
C366 C 0.47766 0.2986 0.88367 0.0
C367 C 0.45806 0.27739 0.83049 0.0
C368 C 0.50632 0.34006 0.88105 0.0
C369 C 0.51748 0.36149 0.82466 0.0
C370 C 0.49559 0.34055 0.77211 0.0
C371 C 0.46606 0.29929 0.77517 0.0
C372 C 0.59102 0.46945 0.76605 0.0
C373 C 0.62333 0.48322 0.8078 0.0
C374 C 0.55658 0.43088 0.77225 0.0
C375 C 0.55325 0.40417 0.82007 0.0
C376 C 0.58548 0.41836 0.86235 0.0
C377 C 0.61944 0.45731 0.85691 0.0
H378 H 0.22042 0.26807 0.1743 0.0
H379 H 0.09745 0.17163 0.19682 0.0
H380 H 0.24234 0.21918 0.15661 0.0
H381 H 0.11922 0.12235 0.1811 0.0
H382 H 0.16446 0.03814 0.1789 0.0
H383 H 0.15472 0.09017 0.12711 0.0
H384 H 0.24159 0.17974 0.24986 0.0
H385 H 0.2503 0.12756 0.30113 0.0
C386 C 0.19798 0.23648 0.17409 0.0
C387 C 0.15772 0.22363 0.19009 0.0
C388 C 0.21043 0.20848 0.16342 0.0
C389 C 0.18269 0.16707 0.16928 0.0
C390 C 0.14137 0.15419 0.1766 0.0
C391 C 0.12893 0.18239 0.18666 0.0
C392 C 0.18245 0.0694 0.19257 0.0
C393 C 0.2079 0.07952 0.24356 0.0
C394 C 0.17695 0.09896 0.16325 0.0
C395 C 0.19727 0.13884 0.18461 0.0
C396 C 0.22591 0.14938 0.23175 0.0
C397 C 0.23083 0.11973 0.26145 0.0
H398 H 0.95129 0.20248 0.7615 0.0
H399 H 0.94596 0.12554 0.91156 0.0
H400 H 0.02381 0.24365 0.77403 0.0
H401 H 1.01873 0.16401 0.92064 0.0
H402 H 0.15183 0.22713 0.91807 0.0
H403 H 0.08371 0.21651 0.93546 0.0
H404 H 0.07161 0.2283 0.73998 0.0
H405 H 0.13999 0.24097 0.72451 0.0
C406 C 0.96528 0.19521 0.79864 0.0
C407 C 0.94281 0.16062 0.83521 0.0
C408 C 1.00719 0.21833 0.80511 0.0
C409 C 0.0276 0.20627 0.84659 0.0
C410 C 1.0045 0.17437 0.88783 0.0
C411 C 0.96255 0.15194 0.88232 0.0
C412 C 0.13434 0.22778 0.87941 0.0
C413 C 0.15027 0.23398 0.81992 0.0
C414 C 0.09548 0.2218 0.88911 0.0
C415 C 0.07167 0.22117 0.83918 0.0
C416 C 0.08888 0.22932 0.77996 0.0
C417 C 0.12788 0.23602 0.77066 0.0
H418 H 1.0056 0.11228 0.17484 0.0
H419 H 0.91194 0.14156 0.13835 0.0
H420 H 0.95473 0.04045 0.18097 0.0
H421 H 0.86149 0.0699 0.14053 0.0
H422 H 0.79591 0.97079 0.2867 0.0
H423 H 0.84527 0.03476 0.24307 0.0
H424 H 0.89503 0.97544 0.13523 0.0
H425 H 0.84408 0.90977 0.17885 0.0
C426 C 0.97419 0.10319 0.16741 0.0
C427 C 0.96213 0.13222 0.15972 0.0
C428 C 0.94531 0.06217 0.16934 0.0
C429 C 0.90426 0.04998 0.16259 0.0
C430 C 0.893 0.07878 0.14688 0.0
C431 C 0.92175 0.11967 0.14574 0.0
C432 C 0.8169 0.97097 0.25313 0.0
C433 C 0.81579 0.93514 0.23561 0.0
C434 C 0.84502 1.00771 0.22772 0.0
C435 C 0.87318 1.00979 0.18461 0.0
C436 C 0.8731 0.97429 0.16785 0.0
C437 C 0.8443 0.93698 0.19305 0.0
H438 H 0.75753 0.88683 0.73801 0.0
H439 H 0.8652 0.95457 0.84625 0.0
H440 H 0.76936 0.82926 0.73812 0.0
H441 H 0.87485 0.89635 0.85032 0.0
H442 H 0.86653 0.77396 0.86536 0.0
H443 H 0.82697 0.80766 0.87678 0.0
H444 H 0.85186 0.84739 0.68812 0.0
H445 H 0.89105 0.81274 0.67642 0.0
C446 C 0.78246 0.88868 0.76435 0.0
C447 C 0.81021 0.92516 0.79256 0.0
C448 C 0.78913 0.85589 0.76428 0.0
C449 C 0.82287 0.85879 0.79427 0.0
C450 C 0.84829 0.89354 0.82763 0.0
C451 C 0.84237 0.92671 0.8261 0.0
C452 C 0.86114 0.78735 0.82526 0.0
C453 C 0.88038 0.7894 0.76946 0.0
C454 C 0.83913 0.80719 0.83212 0.0
C455 C 0.83606 0.82934 0.78308 0.0
C456 C 0.85333 0.82967 0.72611 0.0
C457 C 0.87573 0.81005 0.71945 0.0
H458 H 0.88754 0.75542 0.20299 0.0
H459 H 0.88083 0.81755 0.36286 0.0
H460 H 0.95633 0.77243 0.2318 0.0
H461 H 0.9483 0.83328 0.39247 0.0
H462 H 0.08346 0.91816 0.32536 0.0
H463 H 1.00959 0.88432 0.32763 0.0
H464 H 1.00288 0.7681 0.31689 0.0
H465 H 0.0765 0.80176 0.31657 0.0
C466 C 0.90012 0.77097 0.24559 0.0
C467 C 0.87892 0.78468 0.28108 0.0
C468 C 0.93916 0.7806 0.26217 0.0
C469 C 0.95724 0.80437 0.31402 0.0
C470 C 0.93475 0.81498 0.35229 0.0
C471 C 0.89592 0.80539 0.33577 0.0
C472 C 0.0661 0.88544 0.32426 0.0
C473 C 0.08523 0.86251 0.31821 0.0
C474 C 0.02408 0.86609 0.32602 0.0
C475 C 1.00101 0.82373 0.32197 0.0
C476 C 1.02025 0.80078 0.31924 0.0
C477 C 0.06214 0.82007 0.31804 0.0
H478 H 0.27175 0.09208 0.83303 0.0
H479 H 0.22729 0.10417 0.65688 0.0
H480 H 0.2337 0.01905 0.82459 0.0
H481 H 0.19136 0.03107 0.64583 0.0
H482 H 0.15554 0.88551 0.80268 0.0
H483 H 0.21201 0.95421 0.78583 0.0
H484 H 0.13096 0.98524 0.69207 0.0
H485 H 0.0763 0.91643 0.70497 0.0
C486 C 0.2557 0.07915 0.79092 0.0
C487 C 0.25228 0.10368 0.74576 0.0
C488 C 0.23364 0.03708 0.78601 0.0
C489 C 0.20824 0.01896 0.73534 0.0
C490 C 0.20919 0.04389 0.68668 0.0
C491 C 0.23016 0.0858 0.69256 0.0
C492 C 0.15028 0.90716 0.77785 0.0
C493 C 0.11134 0.89625 0.75709 0.0
C494 C 0.18248 0.94648 0.76837 0.0
C495 C 0.17623 0.97559 0.73791 0.0
C496 C 0.13741 0.96381 0.71499 0.0
C497 C 0.10557 0.92455 0.72384 0.0
H498 H 0.24151 0.37252 0.0631 0.0
H499 H 0.2921 0.33905 0.21385 0.0
H500 H 0.26931 0.34348 0.99109 0.0
H501 H 0.3209 0.31121 0.14283 0.0
H502 H 0.33046 0.22776 0.99718 0.0
H503 H 0.30877 0.25887 0.0744 0.0
H504 H 0.33091 0.35486 0.94629 0.0
H505 H 0.35134 0.32271 0.86897 0.0
C506 C 0.25774 0.35807 0.08086 0.0
C507 C 0.26314 0.35657 0.14427 0.0
C508 C 0.27446 0.34209 0.03962 0.0
C509 C 0.29785 0.32502 0.06067 0.0
C510 C 0.3028 0.32341 0.12439 0.0
C511 C 0.28601 0.3392 0.16534 0.0
C512 C 0.33296 0.25675 0.98677 0.0
C513 C 0.34394 0.27335 0.92735 0.0
C514 C 0.31969 0.27434 1.03079 0.0
C515 C 0.31702 0.30913 1.01663 0.0
C516 C 0.3314 0.32758 0.95881 0.0
C517 C 0.34447 0.30987 0.91487 0.0
H518 H 0.93619 0.19326 0.62657 0.0
H519 H 0.95704 0.31469 0.64369 0.0
H520 H 0.98861 0.21657 0.54747 0.0
H521 H 1.00987 0.33817 0.56603 0.0
H522 H 0.06241 0.35376 0.36886 0.0
H523 H 1.0214 0.33872 0.46105 0.0
H524 H 0.05779 0.25294 0.51822 0.0
H525 H 0.09827 0.26774 0.42452 0.0
C526 C 0.95193 0.22498 0.61375 0.0
C527 C 0.9414 0.25173 0.64146 0.0
C528 C 0.98256 0.23859 0.56848 0.0
C529 C 1.00405 0.27955 0.54926 0.0
C530 C 0.99393 0.30633 0.578 0.0
C531 C 0.96331 0.29273 0.62303 0.0
C532 C 0.06337 0.33322 0.40258 0.0
C533 C 0.08457 0.31272 0.38928 0.0
C534 C 0.03921 0.32404 0.45562 0.0
C535 C 0.03509 0.29378 0.49758 0.0
C536 C 0.05909 0.27572 0.48685 0.0
C537 C 0.08346 0.28509 0.43367 0.0
H538 H 0.73827 0.95441 0.21366 0.0
H539 H 0.64824 0.88381 0.07978 0.0
H540 H 0.77171 1.00972 0.13972 0.0
H541 H 0.68205 0.93824 1.00449 0.0
H542 H 0.7259 0.0515 0.88966 0.0
H543 H 0.69349 0.99973 0.96973 0.0
H544 H 0.80974 0.04171 0.05516 0.0
H545 H 0.84098 0.09447 0.97715 0.0
C546 C 0.72656 0.94992 0.1675 0.0
C547 C 0.69088 0.91392 0.15285 0.0
C548 C 0.74555 0.98215 0.12468 0.0
C549 C 0.72966 0.97969 0.06515 0.0
C550 C 0.69505 0.94265 0.04979 0.0
C551 C 0.67591 0.91069 0.09284 0.0
C552 C 0.74407 0.05098 0.92748 0.0
C553 C 0.78587 0.07863 0.92812 0.0
C554 C 0.7257 0.02027 0.97283 0.0
C555 C 0.74864 0.01524 1.01974 0.0
C556 C 0.79029 0.04416 1.02139 0.0
C557 C 0.80841 0.07512 0.97663 0.0
H558 H 0.77857 0.65519 0.59577 0.0
H559 H 0.79395 0.74162 0.7332 0.0
H560 H 0.75732 0.68998 0.52183 0.0
H561 H 0.7729 0.77659 0.66024 0.0
H562 H 0.7892 0.8576 0.48796 0.0
H563 H 0.79726 0.81947 0.57169 0.0
H564 H 0.70734 0.70808 0.48987 0.0
H565 H 0.69946 0.74671 0.40593 0.0
C566 C 0.77735 0.68163 0.61022 0.0
C567 C 0.7894 0.69651 0.66985 0.0
C568 C 0.76488 0.70156 0.56793 0.0
C569 C 0.7637 0.73678 0.5842 0.0
C570 C 0.7743 0.75044 0.64487 0.0
C571 C 0.78671 0.73054 0.68683 0.0
C572 C 0.76954 0.82509 0.48948 0.0
C573 C 0.74294 0.80555 0.44051 0.0
C574 C 0.77459 0.80294 0.53733 0.0
C575 C 0.75355 0.76027 0.53772 0.0
C576 C 0.7247 0.74076 0.49109 0.0
C577 C 0.7193 0.76305 0.44354 0.0
H578 H 1.00449 0.68919 0.88901 0.0
H579 H 0.93683 0.72793 0.9989 0.0
H580 H 0.05723 0.71314 0.96655 0.0
H581 H 0.99038 0.75458 0.07487 0.0
H582 H 0.08655 0.78092 0.22149 0.0
H583 H 0.02994 0.75336 0.15138 0.0
H584 H 0.11144 0.77046 1.00179 0.0
H585 H 0.16759 0.79591 0.0738 0.0
C586 C 1.00006 0.70123 0.93121 0.0
C587 C 0.96559 0.70518 0.93858 0.0
C588 C 0.03112 0.71646 0.97507 0.0
C589 C 0.02939 0.73733 1.02711 0.0
C590 C 0.99345 0.73873 0.03628 0.0
C591 C 0.96205 0.72272 0.99291 0.0
C592 C 0.0927 0.78053 0.17326 0.0
C593 C 0.13204 0.79177 0.1534 0.0
C594 C 0.05983 0.76394 0.13258 0.0
C595 C 0.06515 0.75836 0.07012 0.0
C596 C 0.1052 0.77256 0.04954 0.0
C597 C 0.13792 0.78841 0.09061 0.0
H598 H 0.38995 0.07663 0.68553 0.0
H599 H 0.30099 0.10972 0.63491 0.0
H600 H 0.36314 0.02365 0.60803 0.0
H601 H 0.27253 0.05509 0.5602 0.0
H602 H 0.20978 0.93366 0.46486 0.0
H603 H 0.23629 0.97699 0.55459 0.0
H604 H 0.35792 0.0204 0.48974 0.0
H605 H 0.33125 0.97775 0.39901 0.0
C606 C 0.36431 0.0724 0.65854 0.0
C607 C 0.347 0.09711 0.66804 0.0
C608 C 0.34888 0.04183 0.61406 0.0
C609 C 0.3152 0.03447 0.57828 0.0
C610 C 0.29786 0.05911 0.58778 0.0
C611 C 0.31391 0.09028 0.63122 0.0
C612 C 0.24224 0.95086 0.47111 0.0
C613 C 0.26835 0.95133 0.425 0.0
C614 C 0.25745 0.97647 0.52206 0.0
C615 C 0.29929 1.00276 0.52919 0.0
C616 C 0.32556 1.00057 0.48601 0.0
C617 C 0.3103 0.97561 0.4343 0.0
H618 H 0.72059 0.65991 0.89118 0.0
H619 H 0.83954 0.74145 0.9619 0.0
H620 H 0.69235 0.69262 0.95367 0.0
H621 H 0.8113 0.77451 1.02357 0.0
H622 H 0.66204 0.72618 0.14857 0.0
H623 H 0.68151 0.69782 0.06432 0.0
H624 H 0.77847 0.81719 1.01643 0.0
H625 H 0.75845 0.84544 0.10084 0.0
C626 C 0.7408 0.68477 0.92007 0.0
C627 C 0.78251 0.69809 0.92109 0.0
C628 C 0.72455 0.70368 0.95566 0.0
C629 C 0.74957 0.73659 0.99305 0.0
C630 C 0.79125 0.74989 0.99418 0.0
C631 C 0.80745 0.73075 0.959 0.0
C632 C 0.68593 0.74661 0.11769 0.0
C633 C 0.7082 0.7881 0.13054 0.0
C634 C 0.69753 0.73031 0.06983 0.0
C635 C 0.7321 0.7551 1.03432 0.0
C636 C 0.75205 0.79718 0.04352 0.0
C637 C 0.74001 0.81354 0.09092 0.0
H638 H 0.11513 0.71592 0.4522 0.0
H639 H 0.11102 0.82705 0.45411 0.0
H640 H 0.05869 0.68551 0.52518 0.0
H641 H 0.05466 0.7965 0.52636 0.0
H642 H 0.98733 0.67628 0.71354 0.0
H643 H 0.04005 0.69379 0.63591 0.0
H644 H 0.98141 0.74022 0.51792 0.0
H645 H 0.92887 0.72249 0.59542 0.0
C646 C 0.10279 0.73416 0.46907 0.0
C647 C 0.11787 0.77408 0.44735 0.0
C648 C 0.07029 0.71659 0.51059 0.0
C649 C 0.05164 0.73827 0.53048 0.0
C650 C 0.06782 0.77869 0.51086 0.0
C651 C 0.10064 0.79645 0.47018 0.0
C652 C 0.98441 0.68786 0.66942 0.0
C653 C 0.95344 0.69707 0.65983 0.0
C654 C 1.01499 0.69858 0.62538 0.0
C655 C 1.0154 0.71927 0.57142 0.0
C656 C 0.98232 0.72496 0.55952 0.0
C657 C 0.95165 0.7139 0.60322 0.0
H658 H 0.38621 0.08048 0.92142 0.0
H659 H 0.29594 0.1151 0.95275 0.0
H660 H 0.35026 0.02294 0.99134 0.0
H661 H 0.261 0.05887 1.0241 0.0
H662 H 0.18443 0.93941 0.11409 0.0
H663 H 0.21972 0.98877 1.03208 0.0
H664 H 0.33316 1.00162 0.09407 0.0
H665 H 0.29715 0.95075 0.17393 0.0
C666 C 0.35901 0.07621 0.94375 0.0
C667 C 0.34409 0.10262 0.93099 0.0
C668 C 0.33828 0.04307 0.98408 0.0
C669 C 0.30214 0.03549 1.01325 0.0
C670 C 0.28793 0.06263 1.00151 0.0
C671 C 0.3084 0.09543 0.96093 0.0
C672 C 0.21668 0.95167 0.10842 0.0
C673 C 0.23794 0.94081 0.14975 0.0
C674 C 0.23719 0.98068 0.06219 0.0
C675 C 0.2797 1.00026 0.05681 0.0
C676 C 0.30054 0.98733 0.09607 0.0
C677 C 0.27987 0.95787 0.14178 0.0
H678 H 0.35089 0.31686 0.70231 0.0
H679 H 0.31971 0.21388 0.58884 0.0
H680 H 0.32509 0.34441 0.62511 0.0
H681 H 0.29531 0.24204 0.50946 0.0
H682 H 0.20525 0.27132 0.41917 0.0
H683 H 0.23733 0.24863 0.49458 0.0
H684 H 0.32654 0.37299 0.5304 0.0
H685 H 0.29325 0.39535 0.45821 0.0
C686 C 0.34085 0.30139 0.65896 0.0
C687 C 0.33822 0.26366 0.65117 0.0
C688 C 0.32535 0.31686 0.61476 0.0
C689 C 0.30701 0.29511 0.56112 0.0
C690 C 0.30806 0.25921 0.55078 0.0
C691 C 0.32333 0.24362 0.5954 0.0
C692 C 0.23096 0.29378 0.44454 0.0
C693 C 0.24662 0.3352 0.43224 0.0
C694 C 0.25004 0.28079 0.48689 0.0
C695 C 0.28537 0.30884 0.51794 0.0
C696 C 0.29956 0.35026 0.50785 0.0
C697 C 0.28036 0.36317 0.46609 0.0
H698 H 0.12851 0.29674 0.06045 0.0
H699 H 0.09232 0.37733 0.13742 0.0
H700 H 0.07815 0.27873 0.97961 0.0
H701 H 0.04229 0.35994 0.05613 0.0
H702 H 0.94033 0.20645 0.93334 0.0
H703 H 1.00215 0.23701 0.99381 0.0
H704 H 0.02396 0.35575 0.94279 0.0
H705 H 0.96309 0.3251 0.87926 0.0
C706 C 0.11173 0.31273 0.05771 0.0
C707 C 0.11522 0.33927 0.10467 0.0
C708 C 0.08204 0.30158 1.01227 0.0
C709 C 0.05551 0.3172 1.01207 0.0
C710 C 0.06218 0.34732 0.05474 0.0
C711 C 0.09149 0.35797 0.10078 0.0
C712 C 0.95865 0.23903 0.93381 0.0
C713 C 0.94696 0.26305 0.89991 0.0
C714 C 0.99414 0.25664 0.96876 0.0
C715 C 1.01854 0.29894 0.97249 0.0
C716 C 1.0061 0.32311 0.94065 0.0
C717 C 0.97099 0.30544 0.90448 0.0
H718 H 0.72156 0.04321 0.71566 0.0
H719 H 0.81445 0.10858 0.58048 0.0
H720 H 0.68756 0.98633 0.64557 0.0
H721 H 0.7809 0.05173 0.51049 0.0
H722 H 0.75185 0.9259 0.45122 0.0
H723 H 0.7756 0.98232 0.52227 0.0
H724 H 0.6539 0.96089 0.54126 0.0
H725 H 0.63008 0.90457 0.47007 0.0
C726 C 0.73327 0.04644 0.66946 0.0
C727 C 0.77017 0.08075 0.65303 0.0
C728 C 0.7143 1.01349 0.62979 0.0
C729 C 0.73223 1.01409 0.57326 0.0
C730 C 0.76684 0.05004 0.55435 0.0
C731 C 0.78544 0.08312 0.59369 0.0
C732 C 0.72992 0.93229 0.47207 0.0
C733 C 0.68905 0.91066 0.45485 0.0
C734 C 0.74365 0.96516 0.51182 0.0
C735 C 0.71676 0.97678 0.53593 0.0
C736 C 0.6754 0.95299 0.52294 0.0
C737 C 0.66174 0.92049 0.48255 0.0
loop_
_geom_bond_atom_site_label_1
_geom_bond_atom_site_label_2
_geom_bond_distance
_geom_bond_site_symmetry_2
_ccdc_geom_bond_type
Co0 N1 2.034 1_455 S
Co0 O15 2.262 . S
Co0 O19 1.958 . S
Co0 O23 1.950 . S
Co0 O24 2.057 . S
N1 Co0 2.034 1_655 S
N1 C2 1.366 . S
N1 C4 1.332 . S
C2 N1 1.366 . S
C2 C5 1.377 . S
C2 H34 0.931 1_655 S
N3 C4 1.346 . S
N3 C5 1.337 . S
C4 N1 1.332 . S
C4 N3 1.346 . S
C4 C38 1.361 . S
C5 C2 1.377 . S
C5 N3 1.337 . S
C5 H41 0.930 . S
Co6 N7 2.034 . S
Co6 O20 1.950 . S
Co6 O21 2.262 . S
Co6 O22 1.958 . S
Co6 O26 2.057 . S
N7 Co6 2.034 . S
N7 C10 1.366 . S
N7 C11 1.332 . S
N8 C9 1.337 . S
N8 C11 1.346 . S
C9 N8 1.337 . S
C9 C10 1.377 . S
C9 H42 0.930 . S
C10 N7 1.366 . S
C10 C9 1.377 . S
C10 H14 0.931 . S
C11 N7 1.332 . S
C11 N8 1.346 . S
C11 C28 1.361 . S
Co12 O15 2.097 . S
Co12 O16 2.065 . S
Co12 O17 2.065 . S
Co12 O18 2.042 . S
Co12 O21 2.097 . S
Co12 O25 2.042 . S
C13 O21 1.253 . S
C13 O26 1.263 . S
H14 C10 0.931 . S
O15 Co0 2.262 . S
O15 Co12 2.097 . S
O15 C39 1.253 . S
O16 Co12 2.065 . S
O16 C32 1.221 . S
O17 Co12 2.065 . S
O17 C27 1.221 . S
O18 Co12 2.042 . S
O18 C33 1.237 . S
O19 Co0 1.958 . S
O19 C33 1.278 . S
O20 Co6 1.950 . S
O20 C32 1.277 . S
O21 Co6 2.262 . S
O21 Co12 2.097 . S
O21 C13 1.253 . S
O22 Co6 1.958 . S
O22 C40 1.278 . S
O23 Co0 1.950 . S
O23 C27 1.277 . S
O24 Co0 2.057 . S
O24 C39 1.263 . S
O25 Co12 2.042 . S
O25 C40 1.237 . S
O26 Co6 2.057 . S
O26 C13 1.263 . S
C27 O17 1.221 . S
C27 O23 1.277 . S
C28 C11 1.361 . S
C28 H29 0.960 . S
C28 H30 0.961 . S
C28 H31 0.961 . S
H29 C28 0.960 . S
H30 C28 0.961 . S
H31 C28 0.961 . S
C32 O16 1.221 . S
C32 O20 1.277 . S
C33 O18 1.237 . S
C33 O19 1.278 . S
H34 C2 0.931 1_455 S
H35 C38 0.961 . S
H36 C38 0.961 . S
H37 C38 0.960 . S
C38 C4 1.361 . S
C38 H35 0.961 . S
C38 H36 0.961 . S
C38 H37 0.960 . S
C39 O15 1.253 . S
C39 O24 1.263 . S
C40 O22 1.278 . S
C40 O25 1.237 . S
H41 C5 0.930 . S
H42 C9 0.930 . S
Co43 N44 2.034 1_545 S
Co43 O58 2.262 . S
Co43 O62 1.958 . S
Co43 O66 1.950 . S
Co43 O67 2.057 . S
N44 Co43 2.034 1_565 S
N44 C45 1.366 . S
N44 C47 1.332 . S
C45 N44 1.366 . S
C45 C48 1.377 . S
C45 H77 0.931 . S
N46 C47 1.346 . S
N46 C48 1.337 . S
C47 N44 1.332 . S
C47 N46 1.346 . S
C47 C81 1.361 . S
C48 C45 1.377 . S
C48 N46 1.337 . S
C48 H84 0.930 . S
Co49 N50 2.034 . S
Co49 O63 1.950 . S
Co49 O64 2.262 . S
Co49 O65 1.958 . S
Co49 O69 2.057 . S
N50 Co49 2.034 . S
N50 C53 1.366 . S
N50 C54 1.332 . S
N51 C52 1.337 . S
N51 C54 1.346 . S
C52 N51 1.337 . S
C52 C53 1.377 . S
C52 H85 0.930 . S
C53 N50 1.366 . S
C53 C52 1.377 . S
C53 H57 0.931 . S
C54 N50 1.332 . S
C54 N51 1.346 . S
C54 C71 1.361 . S
Co55 O58 2.097 . S
Co55 O59 2.065 . S
Co55 O60 2.065 . S
Co55 O61 2.042 . S
Co55 O64 2.097 . S
Co55 O68 2.042 . S
C56 O64 1.253 . S
C56 O69 1.263 . S
H57 C53 0.931 . S
O58 Co43 2.262 . S
O58 Co55 2.097 . S
O58 C82 1.253 . S
O59 Co55 2.065 . S
O59 C75 1.221 . S
O60 Co55 2.065 . S
O60 C70 1.221 . S
O61 Co55 2.042 . S
O61 C76 1.237 . S
O62 Co43 1.958 . S
O62 C76 1.278 . S
O63 Co49 1.950 . S
O63 C75 1.277 . S
O64 Co49 2.262 . S
O64 Co55 2.097 . S
O64 C56 1.253 . S
O65 Co49 1.958 . S
O65 C83 1.278 . S
O66 Co43 1.950 . S
O66 C70 1.277 . S
O67 Co43 2.057 . S
O67 C82 1.263 . S
O68 Co55 2.042 . S
O68 C83 1.237 . S
O69 Co49 2.057 . S
O69 C56 1.263 . S
C70 O60 1.221 . S
C70 O66 1.277 . S
C71 C54 1.361 . S
C71 H72 0.960 . S
C71 H73 0.961 . S
C71 H74 0.961 . S
H72 C71 0.960 . S
H73 C71 0.961 . S
H74 C71 0.961 . S
C75 O59 1.221 . S
C75 O63 1.277 . S
C76 O61 1.237 . S
C76 O62 1.278 . S
H77 C45 0.931 . S
H78 C81 0.961 . S
H79 C81 0.961 . S
H80 C81 0.940 1_545 S
C81 C47 1.361 . S
C81 H78 0.961 . S
C81 H79 0.961 . S
C81 H80 0.940 1_565 S
C82 O58 1.253 . S
C82 O67 1.263 . S
C83 O65 1.278 . S
C83 O68 1.237 . S
H84 C48 0.930 . S
H85 C52 0.930 . S
Co86 N87 2.034 . S
Co86 O101 2.262 . S
Co86 O105 1.958 . S
Co86 O109 1.950 . S
Co86 O110 2.057 . S
N87 Co86 2.034 . S
N87 C88 1.366 . S
N87 C90 1.332 . S
C88 N87 1.366 . S
C88 C91 1.377 . S
C88 H120 0.931 . S
N89 C90 1.346 . S
N89 C91 1.337 . S
C90 N87 1.332 . S
C90 N89 1.346 . S
C90 C124 1.361 . S
C91 C88 1.377 . S
C91 N89 1.337 . S
C91 H127 0.930 . S
Co92 N93 2.034 . S
Co92 O106 1.950 . S
Co92 O107 2.262 . S
Co92 O108 1.958 . S
Co92 O112 2.057 . S
N93 Co92 2.034 . S
N93 C96 1.366 . S
N93 C97 1.332 . S
N94 C95 1.337 . S
N94 C97 1.346 . S
C95 N94 1.337 . S
C95 C96 1.377 . S
C95 H128 0.930 . S
C96 N93 1.366 . S
C96 C95 1.377 . S
C96 H100 0.931 . S
C97 N93 1.332 . S
C97 N94 1.346 . S
C97 C114 1.361 . S
Co98 O101 2.097 . S
Co98 O102 2.065 . S
Co98 O103 2.065 . S
Co98 O104 2.042 . S
Co98 O107 2.097 . S
Co98 O111 2.042 . S
C99 O107 1.253 . S
C99 O112 1.263 . S
H100 C96 0.931 . S
O101 Co86 2.262 . S
O101 Co98 2.097 . S
O101 C125 1.253 . S
O102 Co98 2.065 . S
O102 C118 1.221 . S
O103 Co98 2.065 . S
O103 C113 1.221 . S
O104 Co98 2.042 . S
O104 C119 1.237 . S
O105 Co86 1.958 . S
O105 C119 1.278 . S
O106 Co92 1.950 . S
O106 C118 1.277 . S
O107 Co92 2.262 . S
O107 Co98 2.097 . S
O107 C99 1.253 . S
O108 Co92 1.958 . S
O108 C126 1.278 . S
O109 Co86 1.950 . S
O109 C113 1.277 . S
O110 Co86 2.057 . S
O110 C125 1.263 . S
O111 Co98 2.042 . S
O111 C126 1.237 . S
O112 Co92 2.057 . S
O112 C99 1.263 . S
C113 O103 1.221 . S
C113 O109 1.277 . S
C114 C97 1.361 . S
C114 H115 0.960 . S
C114 H116 0.961 . S
C114 H117 0.961 . S
H115 C114 0.960 . S
H116 C114 0.961 . S
H117 C114 0.961 . S
C118 O102 1.221 . S
C118 O106 1.277 . S
C119 O104 1.237 . S
C119 O105 1.278 . S
H120 C88 0.931 . S
H121 C124 0.961 . S
H122 C124 0.961 . S
H123 C124 0.960 . S
C124 C90 1.361 . S
C124 H121 0.961 . S
C124 H122 0.961 . S
C124 H123 0.960 . S
C125 O101 1.253 . S
C125 O110 1.263 . S
C126 O108 1.278 . S
C126 O111 1.237 . S
H127 C91 0.930 . S
H128 C95 0.930 . S
Co129 N130 2.034 1_655 S
Co129 O144 2.262 . S
Co129 O148 1.958 . S
Co129 O152 1.950 . S
Co129 O153 2.057 . S
N130 Co129 2.034 1_455 S
N130 C131 1.366 . S
N130 C133 1.332 . S
C131 N130 1.366 . S
C131 C134 1.377 . S
C131 H163 0.931 . S
N132 C133 1.346 . S
N132 C134 1.337 . S
C133 N130 1.332 . S
C133 N132 1.346 . S
C133 C167 1.361 . S
C134 C131 1.377 . S
C134 N132 1.337 . S
C134 H170 0.930 . S
Co135 N136 2.034 . S
Co135 O149 1.950 . S
Co135 O150 2.262 . S
Co135 O151 1.958 . S
Co135 O155 2.057 . S
N136 Co135 2.034 . S
N136 C139 1.366 . S
N136 C140 1.332 . S
N137 C138 1.337 . S
N137 C140 1.346 . S
C138 N137 1.337 . S
C138 C139 1.377 . S
C138 H171 0.930 . S
C139 N136 1.366 . S
C139 C138 1.377 . S
C139 H143 0.931 . S
C140 N136 1.332 . S
C140 N137 1.346 . S
C140 C157 1.361 . S
Co141 O144 2.097 . S
Co141 O145 2.065 . S
Co141 O146 2.065 . S
Co141 O147 2.042 . S
Co141 O150 2.097 . S
Co141 O154 2.042 . S
C142 O150 1.253 . S
C142 O155 1.263 . S
H143 C139 0.931 . S
O144 Co129 2.262 . S
O144 Co141 2.097 . S
O144 C168 1.253 . S
O145 Co141 2.065 . S
O145 C161 1.221 . S
O146 Co141 2.065 . S
O146 C156 1.221 . S
O147 Co141 2.042 . S
O147 C162 1.237 . S
O148 Co129 1.958 . S
O148 C162 1.278 . S
O149 Co135 1.950 . S
O149 C161 1.277 . S
O150 Co135 2.262 . S
O150 Co141 2.097 . S
O150 C142 1.253 . S
O151 Co135 1.958 . S
O151 C169 1.278 . S
O152 Co129 1.950 . S
O152 C156 1.277 . S
O153 Co129 2.057 . S
O153 C168 1.263 . S
O154 Co141 2.042 . S
O154 C169 1.237 . S
O155 Co135 2.057 . S
O155 C142 1.263 . S
C156 O146 1.221 . S
C156 O152 1.277 . S
C157 C140 1.361 . S
C157 H158 0.960 . S
C157 H159 0.961 . S
C157 H160 0.961 . S
H158 C157 0.960 . S
H159 C157 0.961 . S
H160 C157 0.961 . S
C161 O145 1.221 . S
C161 O149 1.277 . S
C162 O147 1.237 . S
C162 O148 1.278 . S
H163 C131 0.931 . S
H164 C167 0.961 . S
H165 C167 0.961 . S
H166 C167 0.948 1_655 S
C167 C133 1.361 . S
C167 H164 0.961 . S
C167 H165 0.961 . S
C167 H166 0.948 1_455 S
C168 O144 1.253 . S
C168 O153 1.263 . S
C169 O151 1.278 . S
C169 O154 1.237 . S
H170 C134 0.930 . S
H171 C138 0.930 . S
Co172 N173 2.034 . S
Co172 O187 2.262 . S
Co172 O191 1.958 . S
Co172 O195 1.950 . S
Co172 O196 2.057 . S
N173 Co172 2.034 . S
N173 C174 1.366 . S
N173 C176 1.332 . S
C174 N173 1.366 . S
C174 C177 1.377 . S
C174 H206 0.931 . S
N175 C176 1.346 . S
N175 C177 1.337 . S
C176 N173 1.332 . S
C176 N175 1.346 . S
C176 C210 1.361 . S
C177 C174 1.377 . S
C177 N175 1.337 . S
C177 H213 0.930 . S
Co178 N179 2.034 1_565 S
Co178 O192 1.950 . S
Co178 O193 2.262 . S
Co178 O194 1.958 . S
Co178 O198 2.057 . S
N179 Co178 2.034 1_545 S
N179 C182 1.366 . S
N179 C183 1.332 . S
N180 C181 1.337 . S
N180 C183 1.346 . S
C181 N180 1.337 . S
C181 C182 1.377 . S
C181 H214 0.930 . S
C182 N179 1.366 . S
C182 C181 1.377 . S
C182 H186 0.931 1_545 S
C183 N179 1.332 . S
C183 N180 1.346 . S
C183 C200 1.361 . S
Co184 O187 2.097 . S
Co184 O188 2.065 . S
Co184 O189 2.065 . S
Co184 O190 2.042 . S
Co184 O193 2.097 . S
Co184 O197 2.042 . S
C185 O193 1.253 . S
C185 O198 1.263 . S
H186 C182 0.931 1_565 S
O187 Co172 2.262 . S
O187 Co184 2.097 . S
O187 C211 1.253 . S
O188 Co184 2.065 . S
O188 C204 1.221 . S
O189 Co184 2.065 . S
O189 C199 1.221 . S
O190 Co184 2.042 . S
O190 C205 1.237 . S
O191 Co172 1.958 . S
O191 C205 1.278 . S
O192 Co178 1.950 . S
O192 C204 1.277 . S
O193 Co178 2.262 . S
O193 Co184 2.097 . S
O193 C185 1.253 . S
O194 Co178 1.958 . S
O194 C212 1.278 . S
O195 Co172 1.950 . S
O195 C199 1.277 . S
O196 Co172 2.057 . S
O196 C211 1.263 . S
O197 Co184 2.042 . S
O197 C212 1.237 . S
O198 Co178 2.057 . S
O198 C185 1.263 . S
C199 O189 1.221 . S
C199 O195 1.277 . S
C200 C183 1.361 . S
C200 H201 0.960 . S
C200 H202 0.961 . S
C200 H203 0.961 . S
H201 C200 0.960 . S
H202 C200 0.961 . S
H203 C200 0.961 . S
C204 O188 1.221 . S
C204 O192 1.277 . S
C205 O190 1.237 . S
C205 O191 1.278 . S
H206 C174 0.931 . S
H207 C210 0.961 . S
H208 C210 0.961 . S
H209 C210 0.960 . S
C210 C176 1.361 . S
C210 H207 0.961 . S
C210 H208 0.961 . S
C210 H209 0.960 . S
C211 O187 1.253 . S
C211 O196 1.263 . S
C212 O194 1.278 . S
C212 O197 1.237 . S
H213 C177 0.930 . S
H214 C181 0.930 . S
Co215 N216 2.034 . S
Co215 O230 2.262 . S
Co215 O234 1.958 . S
Co215 O238 1.950 . S
Co215 O239 2.057 . S
N216 Co215 2.034 . S
N216 C217 1.366 . S
N216 C219 1.332 . S
C217 N216 1.366 . S
C217 C220 1.377 . S
C217 H249 0.931 . S
N218 C219 1.346 . S
N218 C220 1.337 . S
C219 N216 1.332 . S
C219 N218 1.346 . S
C219 C253 1.361 . S
C220 C217 1.377 . S
C220 N218 1.337 . S
C220 H256 0.930 . S
Co221 N222 2.034 . S
Co221 O235 1.950 . S
Co221 O236 2.262 . S
Co221 O237 1.958 . S
Co221 O241 2.057 . S
N222 Co221 2.034 . S
N222 C225 1.366 . S
N222 C226 1.332 . S
N223 C224 1.337 . S
N223 C226 1.346 . S
C224 N223 1.337 . S
C224 C225 1.377 . S
C224 H257 0.930 . S
C225 N222 1.366 . S
C225 C224 1.377 . S
C225 H229 0.931 . S
C226 N222 1.332 . S
C226 N223 1.346 . S
C226 C243 1.361 . S
Co227 O230 2.097 . S
Co227 O231 2.065 . S
Co227 O232 2.065 . S
Co227 O233 2.042 . S
Co227 O236 2.097 . S
Co227 O240 2.042 . S
C228 O236 1.253 . S
C228 O241 1.263 . S
H229 C225 0.931 . S
O230 Co215 2.262 . S
O230 Co227 2.097 . S
O230 C254 1.253 . S
O231 Co227 2.065 . S
O231 C247 1.221 . S
O232 Co227 2.065 . S
O232 C242 1.221 . S
O233 Co227 2.042 . S
O233 C248 1.237 . S
O234 Co215 1.958 . S
O234 C248 1.278 . S
O235 Co221 1.950 . S
O235 C247 1.277 . S
O236 Co221 2.262 . S
O236 Co227 2.097 . S
O236 C228 1.253 . S
O237 Co221 1.958 . S
O237 C255 1.278 . S
O238 Co215 1.950 . S
O238 C242 1.277 . S
O239 Co215 2.057 . S
O239 C254 1.263 . S
O240 Co227 2.042 . S
O240 C255 1.237 . S
O241 Co221 2.057 . S
O241 C228 1.263 . S
C242 O232 1.221 . S
C242 O238 1.277 . S
C243 C226 1.361 . S
C243 H244 0.960 . S
C243 H245 0.961 . S
C243 H246 0.961 . S
H244 C243 0.960 . S
H245 C243 0.961 . S
H246 C243 0.961 . S
C247 O231 1.221 . S
C247 O235 1.277 . S
C248 O233 1.237 . S
C248 O234 1.278 . S
H249 C217 0.931 . S
H250 C253 0.961 . S
H251 C253 0.961 . S
H252 C253 0.960 . S
C253 C219 1.361 . S
C253 H250 0.961 . S
C253 H251 0.961 . S
C253 H252 0.960 . S
C254 O230 1.253 . S
C254 O239 1.263 . S
C255 O237 1.278 . S
C255 O240 1.237 . S
H256 C220 0.930 . S
H257 C224 0.930 . S
H258 C266 0.950 . S
H259 C271 0.950 . S
H260 C268 0.950 . S
H261 C270 0.950 . S
H262 C272 0.950 . S
H263 C274 0.950 . S
H264 C276 0.950 . S
H265 C277 0.950 . S
C266 H258 0.950 . S
C266 C267 1.386 . S
C266 C268 1.391 . S
C267 C266 1.386 . S
C267 C271 1.393 . S
C268 H260 0.950 . S
C268 C266 1.391 . S
C268 C269 1.400 . S
C269 C268 1.400 . S
C269 C270 1.398 . S
C269 C275 1.491 . S
C270 H261 0.950 . S
C270 C269 1.398 . S
C270 C271 1.391 . S
C271 H259 0.950 . S
C271 C267 1.393 . S
C271 C270 1.391 . S
C272 H262 0.950 . S
C272 C273 1.386 . S
C272 C274 1.391 . S
C273 C272 1.386 . S
C273 C277 1.393 . S
C274 H263 0.950 . S
C274 C272 1.391 . S
C274 C275 1.400 . S
C275 C269 1.491 . S
C275 C274 1.400 . S
C275 C276 1.398 . S
C276 H264 0.950 . S
C276 C275 1.398 . S
C276 C277 1.391 . S
C277 H265 0.950 . S
C277 C273 1.393 . S
C277 C276 1.391 . S
H278 C286 0.950 . S
H279 C291 0.950 . S
H280 C288 0.950 . S
H281 C290 0.950 . S
H282 C292 0.950 . S
H283 C294 0.950 . S
H284 C296 0.950 . S
H285 C297 0.950 . S
C286 H278 0.950 . S
C286 C287 1.386 . S
C286 C288 1.391 . S
C287 C286 1.386 . S
C287 C291 1.393 . S
C288 H280 0.950 . S
C288 C286 1.391 . S
C288 C289 1.400 . S
C289 C288 1.400 . S
C289 C290 1.398 . S
C289 C295 1.491 . S
C290 H281 0.950 . S
C290 C289 1.398 . S
C290 C291 1.391 . S
C291 H279 0.950 . S
C291 C287 1.393 . S
C291 C290 1.391 . S
C292 H282 0.950 . S
C292 C293 1.386 . S
C292 C294 1.391 . S
C293 C292 1.386 . S
C293 C297 1.393 . S
C294 H283 0.950 . S
C294 C292 1.391 . S
C294 C295 1.400 . S
C295 C289 1.491 . S
C295 C294 1.400 . S
C295 C296 1.398 . S
C296 H284 0.950 . S
C296 C295 1.398 . S
C296 C297 1.391 . S
C297 H285 0.950 . S
C297 C293 1.393 . S
C297 C296 1.391 . S
H298 C306 0.950 . S
H299 C311 0.950 . S
H300 C308 0.950 . S
H301 C310 0.950 . S
H302 C312 0.950 . S
H303 C314 0.950 . S
H304 C316 0.950 . S
H305 C317 0.950 . S
C306 H298 0.950 . S
C306 C307 1.386 . S
C306 C308 1.391 . S
C307 C306 1.386 . S
C307 C311 1.393 . S
C308 H300 0.950 . S
C308 C306 1.391 . S
C308 C309 1.400 . S
C309 C308 1.400 . S
C309 C310 1.398 . S
C309 C315 1.491 . S
C310 H301 0.950 . S
C310 C309 1.398 . S
C310 C311 1.391 . S
C311 H299 0.950 . S
C311 C307 1.393 . S
C311 C310 1.391 . S
C312 H302 0.950 . S
C312 C313 1.386 . S
C312 C314 1.391 . S
C313 C312 1.386 . S
C313 C317 1.393 . S
C314 H303 0.950 . S
C314 C312 1.391 . S
C314 C315 1.400 . S
C315 C309 1.491 . S
C315 C314 1.400 . S
C315 C316 1.398 . S
C316 H304 0.950 . S
C316 C315 1.398 . S
C316 C317 1.391 . S
C317 H305 0.950 . S
C317 C313 1.393 . S
C317 C316 1.391 . S
H318 C326 0.950 . S
H319 C331 0.950 . S
H320 C328 0.950 . S
H321 C330 0.950 . S
H322 C332 0.950 . S
H323 C334 0.950 . S
H324 C336 0.950 . S
H325 C337 0.950 . S
C326 H318 0.950 . S
C326 C327 1.386 . S
C326 C328 1.391 . S
C327 C326 1.386 . S
C327 C331 1.393 . S
C328 H320 0.950 . S
C328 C326 1.391 . S
C328 C329 1.400 . S
C329 C328 1.400 . S
C329 C330 1.398 . S
C329 C335 1.491 . S
C330 H321 0.950 . S
C330 C329 1.398 . S
C330 C331 1.391 . S
C331 H319 0.950 . S
C331 C327 1.393 . S
C331 C330 1.391 . S
C332 H322 0.950 . S
C332 C333 1.386 . S
C332 C334 1.391 . S
C333 C332 1.386 . S
C333 C337 1.393 . S
C334 H323 0.950 . S
C334 C332 1.391 . S
C334 C335 1.400 . S
C335 C329 1.491 . S
C335 C334 1.400 . S
C335 C336 1.398 . S
C336 H324 0.950 . S
C336 C335 1.398 . S
C336 C337 1.391 . S
C337 H325 0.950 . S
C337 C333 1.393 . S
C337 C336 1.391 . S
H338 C346 0.950 . S
H339 C351 0.950 . S
H340 C348 0.950 . S
H341 C350 0.950 . S
H342 C352 0.950 . S
H343 C354 0.950 . S
H344 C356 0.950 . S
H345 C357 0.950 . S
C346 H338 0.950 . S
C346 C347 1.386 . S
C346 C348 1.391 . S
C347 C346 1.386 . S
C347 C351 1.393 . S
C348 H340 0.950 . S
C348 C346 1.391 . S
C348 C349 1.400 . S
C349 C348 1.400 . S
C349 C350 1.398 . S
C349 C355 1.491 . S
C350 H341 0.950 . S
C350 C349 1.398 . S
C350 C351 1.391 . S
C351 H339 0.950 . S
C351 C347 1.393 . S
C351 C350 1.391 . S
C352 H342 0.950 . S
C352 C353 1.386 . S
C352 C354 1.391 . S
C353 C352 1.386 . S
C353 C357 1.393 . S
C354 H343 0.950 . S
C354 C352 1.391 . S
C354 C355 1.400 . S
C355 C349 1.491 . S
C355 C354 1.400 . S
C355 C356 1.398 . S
C356 H344 0.950 . S
C356 C355 1.398 . S
C356 C357 1.391 . S
C357 H345 0.950 . S
C357 C353 1.393 . S
C357 C356 1.391 . S
H358 C366 0.950 . S
H359 C371 0.950 . S
H360 C368 0.950 . S
H361 C370 0.950 . S
H362 C372 0.950 . S
H363 C374 0.950 . S
H364 C376 0.950 . S
H365 C377 0.950 . S
C366 H358 0.950 . S
C366 C367 1.386 . S
C366 C368 1.391 . S
C367 C366 1.386 . S
C367 C371 1.393 . S
C368 H360 0.950 . S
C368 C366 1.391 . S
C368 C369 1.400 . S
C369 C368 1.400 . S
C369 C370 1.398 . S
C369 C375 1.491 . S
C370 H361 0.950 . S
C370 C369 1.398 . S
C370 C371 1.391 . S
C371 H359 0.950 . S
C371 C367 1.393 . S
C371 C370 1.391 . S
C372 H362 0.950 . S
C372 C373 1.386 . S
C372 C374 1.391 . S
C373 C372 1.386 . S
C373 C377 1.393 . S
C374 H363 0.950 . S
C374 C372 1.391 . S
C374 C375 1.400 . S
C375 C369 1.491 . S
C375 C374 1.400 . S
C375 C376 1.398 . S
C376 H364 0.950 . S
C376 C375 1.398 . S
C376 C377 1.391 . S
C377 H365 0.950 . S
C377 C373 1.393 . S
C377 C376 1.391 . S
H378 C386 0.950 . S
H379 C391 0.950 . S
H380 C388 0.950 . S
H381 C390 0.950 . S
H382 C392 0.950 . S
H383 C394 0.950 . S
H384 C396 0.950 . S
H385 C397 0.950 . S
C386 H378 0.950 . S
C386 C387 1.386 . S
C386 C388 1.391 . S
C387 C386 1.386 . S
C387 C391 1.393 . S
C388 H380 0.950 . S
C388 C386 1.391 . S
C388 C389 1.400 . S
C389 C388 1.400 . S
C389 C390 1.398 . S
C389 C395 1.491 . S
C390 H381 0.950 . S
C390 C389 1.398 . S
C390 C391 1.391 . S
C391 H379 0.950 . S
C391 C387 1.393 . S
C391 C390 1.391 . S
C392 H382 0.950 . S
C392 C393 1.386 . S
C392 C394 1.391 . S
C393 C392 1.386 . S
C393 C397 1.393 . S
C394 H383 0.950 . S
C394 C392 1.391 . S
C394 C395 1.400 . S
C395 C389 1.491 . S
C395 C394 1.400 . S
C395 C396 1.398 . S
C396 H384 0.950 . S
C396 C395 1.398 . S
C396 C397 1.391 . S
C397 H385 0.950 . S
C397 C393 1.393 . S
C397 C396 1.391 . S
H398 C406 0.950 . S
H399 C411 0.950 . S
H400 C408 0.950 . S
H401 C410 0.950 . S
H402 C412 0.950 . S
H403 C414 0.950 . S
H404 C416 0.950 . S
H405 C417 0.950 . S
C406 H398 0.950 . S
C406 C407 1.386 . S
C406 C408 1.391 . S
C407 C406 1.386 . S
C407 C411 1.393 . S
C408 H400 0.950 . S
C408 C406 1.391 . S
C408 C409 1.400 . S
C409 C408 1.400 . S
C409 C410 1.398 . S
C409 C415 1.491 1_655 S
C410 H401 0.950 . S
C410 C409 1.398 . S
C410 C411 1.391 . S
C411 H399 0.950 . S
C411 C407 1.393 . S
C411 C410 1.391 . S
C412 H402 0.950 . S
C412 C413 1.386 . S
C412 C414 1.391 . S
C413 C412 1.386 . S
C413 C417 1.393 . S
C414 H403 0.950 . S
C414 C412 1.391 . S
C414 C415 1.400 . S
C415 C409 1.491 1_455 S
C415 C414 1.400 . S
C415 C416 1.398 . S
C416 H404 0.950 . S
C416 C415 1.398 . S
C416 C417 1.391 . S
C417 H405 0.950 . S
C417 C413 1.393 . S
C417 C416 1.391 . S
H418 C426 0.950 . S
H419 C431 0.950 . S
H420 C428 0.950 . S
H421 C430 0.950 . S
H422 C432 0.950 . S
H423 C434 0.950 . S
H424 C436 0.950 . S
H425 C437 0.950 . S
C426 H418 0.950 . S
C426 C427 1.386 . S
C426 C428 1.391 . S
C427 C426 1.386 . S
C427 C431 1.393 . S
C428 H420 0.950 . S
C428 C426 1.391 . S
C428 C429 1.400 . S
C429 C428 1.400 . S
C429 C430 1.398 . S
C429 C435 1.491 1_545 S
C430 H421 0.950 . S
C430 C429 1.398 . S
C430 C431 1.391 . S
C431 H419 0.950 . S
C431 C427 1.393 . S
C431 C430 1.391 . S
C432 H422 0.950 . S
C432 C433 1.386 . S
C432 C434 1.391 . S
C433 C432 1.386 . S
C433 C437 1.393 . S
C434 H423 0.950 . S
C434 C432 1.391 . S
C434 C435 1.400 . S
C435 C429 1.491 1_565 S
C435 C434 1.400 . S
C435 C436 1.398 . S
C436 H424 0.950 . S
C436 C435 1.398 . S
C436 C437 1.391 . S
C437 H425 0.950 . S
C437 C433 1.393 . S
C437 C436 1.391 . S
H438 C446 0.950 . S
H439 C451 0.950 . S
H440 C448 0.950 . S
H441 C450 0.950 . S
H442 C452 0.950 . S
H443 C454 0.950 . S
H444 C456 0.950 . S
H445 C457 0.950 . S
C446 H438 0.950 . S
C446 C447 1.386 . S
C446 C448 1.391 . S
C447 C446 1.386 . S
C447 C451 1.393 . S
C448 H440 0.950 . S
C448 C446 1.391 . S
C448 C449 1.400 . S
C449 C448 1.400 . S
C449 C450 1.398 . S
C449 C455 1.491 . S
C450 H441 0.950 . S
C450 C449 1.398 . S
C450 C451 1.391 . S
C451 H439 0.950 . S
C451 C447 1.393 . S
C451 C450 1.391 . S
C452 H442 0.950 . S
C452 C453 1.386 . S
C452 C454 1.391 . S
C453 C452 1.386 . S
C453 C457 1.393 . S
C454 H443 0.950 . S
C454 C452 1.391 . S
C454 C455 1.400 . S
C455 C449 1.491 . S
C455 C454 1.400 . S
C455 C456 1.398 . S
C456 H444 0.950 . S
C456 C455 1.398 . S
C456 C457 1.391 . S
C457 H445 0.950 . S
C457 C453 1.393 . S
C457 C456 1.391 . S
H458 C466 0.950 . S
H459 C471 0.950 . S
H460 C468 0.950 . S
H461 C470 0.950 . S
H462 C472 0.950 . S
H463 C474 0.950 . S
H464 C476 0.950 . S
H465 C477 0.950 . S
C466 H458 0.950 . S
C466 C467 1.386 . S
C466 C468 1.391 . S
C467 C466 1.386 . S
C467 C471 1.393 . S
C468 H460 0.950 . S
C468 C466 1.391 . S
C468 C469 1.400 . S
C469 C468 1.400 . S
C469 C470 1.398 . S
C469 C475 1.491 1_655 S
C470 H461 0.950 . S
C470 C469 1.398 . S
C470 C471 1.391 . S
C471 H459 0.950 . S
C471 C467 1.393 . S
C471 C470 1.391 . S
C472 H462 0.950 . S
C472 C473 1.386 . S
C472 C474 1.391 . S
C473 C472 1.386 . S
C473 C477 1.393 . S
C474 H463 0.950 . S
C474 C472 1.391 . S
C474 C475 1.400 . S
C475 C469 1.491 1_455 S
C475 C474 1.400 . S
C475 C476 1.398 . S
C476 H464 0.950 . S
C476 C475 1.398 . S
C476 C477 1.391 . S
C477 H465 0.950 . S
C477 C473 1.393 . S
C477 C476 1.391 . S
H478 C486 0.950 . S
H479 C491 0.950 . S
H480 C488 0.950 . S
H481 C490 0.950 . S
H482 C492 0.950 . S
H483 C494 0.950 . S
H484 C496 0.950 . S
H485 C497 0.950 . S
C486 H478 0.950 . S
C486 C487 1.386 . S
C486 C488 1.391 . S
C487 C486 1.386 . S
C487 C491 1.393 . S
C488 H480 0.950 . S
C488 C486 1.391 . S
C488 C489 1.400 . S
C489 C488 1.400 . S
C489 C490 1.398 . S
C489 C495 1.491 1_545 S
C490 H481 0.950 . S
C490 C489 1.398 . S
C490 C491 1.391 . S
C491 H479 0.950 . S
C491 C487 1.393 . S
C491 C490 1.391 . S
C492 H482 0.950 . S
C492 C493 1.386 . S
C492 C494 1.391 . S
C493 C492 1.386 . S
C493 C497 1.393 . S
C494 H483 0.950 . S
C494 C492 1.391 . S
C494 C495 1.400 . S
C495 C489 1.491 1_565 S
C495 C494 1.400 . S
C495 C496 1.398 . S
C496 H484 0.950 . S
C496 C495 1.398 . S
C496 C497 1.391 . S
C497 H485 0.950 . S
C497 C493 1.393 . S
C497 C496 1.391 . S
H498 C506 0.950 . S
H499 C511 0.950 . S
H500 C508 0.950 . S
H501 C510 0.950 . S
H502 C512 0.950 . S
H503 C514 0.950 . S
H504 C516 0.950 . S
H505 C517 0.950 . S
C506 H498 0.950 . S
C506 C507 1.386 . S
C506 C508 1.391 . S
C507 C506 1.386 . S
C507 C511 1.393 . S
C508 H500 0.950 . S
C508 C506 1.391 . S
C508 C509 1.400 . S
C509 C508 1.400 . S
C509 C510 1.398 . S
C509 C515 1.491 1_554 S
C510 H501 0.950 . S
C510 C509 1.398 . S
C510 C511 1.391 . S
C511 H499 0.950 . S
C511 C507 1.393 . S
C511 C510 1.391 . S
C512 H502 0.950 . S
C512 C513 1.386 . S
C512 C514 1.391 . S
C513 C512 1.386 . S
C513 C517 1.393 . S
C514 H503 0.950 . S
C514 C512 1.391 . S
C514 C515 1.400 . S
C515 C509 1.491 1_556 S
C515 C514 1.400 . S
C515 C516 1.398 . S
C516 H504 0.950 . S
C516 C515 1.398 . S
C516 C517 1.391 . S
C517 H505 0.950 . S
C517 C513 1.393 . S
C517 C516 1.391 . S
H518 C526 0.950 . S
H519 C531 0.950 . S
H520 C528 0.950 . S
H521 C530 0.950 . S
H522 C532 0.950 . S
H523 C534 0.950 . S
H524 C536 0.950 . S
H525 C537 0.950 . S
C526 H518 0.950 . S
C526 C527 1.386 . S
C526 C528 1.391 . S
C527 C526 1.386 . S
C527 C531 1.393 . S
C528 H520 0.950 . S
C528 C526 1.391 . S
C528 C529 1.400 . S
C529 C528 1.400 . S
C529 C530 1.398 . S
C529 C535 1.491 . S
C530 H521 0.950 . S
C530 C529 1.398 . S
C530 C531 1.391 . S
C531 H519 0.950 . S
C531 C527 1.393 . S
C531 C530 1.391 . S
C532 H522 0.950 . S
C532 C533 1.386 . S
C532 C534 1.391 1_455 S
C533 C532 1.386 . S
C533 C537 1.393 . S
C534 H523 0.950 . S
C534 C532 1.391 1_655 S
C534 C535 1.400 . S
C535 C529 1.491 . S
C535 C534 1.400 . S
C535 C536 1.398 . S
C536 H524 0.950 . S
C536 C535 1.398 . S
C536 C537 1.391 1_655 S
C537 H525 0.950 . S
C537 C533 1.393 . S
C537 C536 1.391 1_455 S
H538 C546 0.950 . S
H539 C551 0.950 . S
H540 C548 0.950 . S
H541 C550 0.950 1_556 S
H542 C552 0.950 . S
H543 C554 0.950 . S
H544 C556 0.961 1_554 S
H545 C557 0.950 . S
C546 H538 0.950 . S
C546 C547 1.386 . S
C546 C548 1.391 . S
C547 C546 1.386 . S
C547 C551 1.393 . S
C548 H540 0.950 . S
C548 C546 1.391 . S
C548 C549 1.400 . S
C549 C548 1.400 . S
C549 C550 1.398 . S
C549 C555 1.491 1_554 S
C550 H541 0.950 1_554 S
C550 C549 1.398 . S
C550 C551 1.391 . S
C551 H539 0.950 . S
C551 C547 1.393 . S
C551 C550 1.391 . S
C552 H542 0.950 . S
C552 C553 1.386 . S
C552 C554 1.391 1_545 S
C553 C552 1.386 . S
C553 C557 1.393 . S
C554 H543 0.950 . S
C554 C552 1.391 1_565 S
C554 C555 1.400 . S
C555 C549 1.491 1_556 S
C555 C554 1.400 . S
C555 C556 1.398 1_565 S
C556 H544 0.961 1_556 S
C556 C555 1.398 1_545 S
C556 C557 1.391 . S
C557 H545 0.950 . S
C557 C553 1.393 . S
C557 C556 1.391 . S
H558 C566 0.950 . S
H559 C571 0.950 . S
H560 C568 0.950 . S
H561 C570 0.950 . S
H562 C572 0.950 . S
H563 C574 0.950 . S
H564 C576 0.950 . S
H565 C577 0.950 . S
C566 H558 0.950 . S
C566 C567 1.386 . S
C566 C568 1.391 . S
C567 C566 1.386 . S
C567 C571 1.393 . S
C568 H560 0.950 . S
C568 C566 1.391 . S
C568 C569 1.400 . S
C569 C568 1.400 . S
C569 C570 1.398 . S
C569 C575 1.491 . S
C570 H561 0.950 . S
C570 C569 1.398 . S
C570 C571 1.391 . S
C571 H559 0.950 . S
C571 C567 1.393 . S
C571 C570 1.391 . S
C572 H562 0.950 . S
C572 C573 1.386 . S
C572 C574 1.391 . S
C573 C572 1.386 . S
C573 C577 1.393 . S
C574 H563 0.950 . S
C574 C572 1.391 . S
C574 C575 1.400 . S
C575 C569 1.491 . S
C575 C574 1.400 . S
C575 C576 1.398 . S
C576 H564 0.950 . S
C576 C575 1.398 . S
C576 C577 1.391 . S
C577 H565 0.950 . S
C577 C573 1.393 . S
C577 C576 1.391 . S
H578 C586 0.949 . S
H579 C591 0.950 . S
H580 C588 0.950 . S
H581 C590 0.950 1_554 S
H582 C592 0.950 . S
H583 C594 0.950 . S
H584 C596 0.950 1_556 S
H585 C597 0.950 . S
C586 H578 0.949 . S
C586 C587 1.384 1_455 S
C586 C588 1.394 . S
C587 C586 1.384 1_655 S
C587 C591 1.393 . S
C588 H580 0.950 . S
C588 C586 1.394 . S
C588 C589 1.400 . S
C589 C588 1.400 . S
C589 C590 1.398 1_455 S
C589 C595 1.491 1_556 S
C590 H581 0.950 1_556 S
C590 C589 1.398 1_655 S
C590 C591 1.391 . S
C591 H579 0.950 . S
C591 C587 1.393 . S
C591 C590 1.391 . S
C592 H582 0.950 . S
C592 C593 1.386 . S
C592 C594 1.391 . S
C593 C592 1.386 . S
C593 C597 1.393 . S
C594 H583 0.950 . S
C594 C592 1.391 . S
C594 C595 1.400 . S
C595 C589 1.491 1_554 S
C595 C594 1.400 . S
C595 C596 1.398 . S
C596 H584 0.950 1_554 S
C596 C595 1.398 . S
C596 C597 1.391 . S
C597 H585 0.950 . S
C597 C593 1.393 . S
C597 C596 1.391 . S
H598 C606 0.950 . S
H599 C611 0.950 . S
H600 C608 0.950 . S
H601 C610 0.950 . S
H602 C612 0.954 . S
H603 C614 0.950 . S
H604 C616 0.950 . S
H605 C617 0.950 . S
C606 H598 0.950 . S
C606 C607 1.386 . S
C606 C608 1.391 . S
C607 C606 1.386 . S
C607 C611 1.393 . S
C608 H600 0.950 . S
C608 C606 1.391 . S
C608 C609 1.400 . S
C609 C608 1.400 . S
C609 C610 1.398 . S
C609 C615 1.491 . S
C610 H601 0.950 . S
C610 C609 1.398 . S
C610 C611 1.391 . S
C611 H599 0.950 . S
C611 C607 1.393 . S
C611 C610 1.391 . S
C612 H602 0.954 . S
C612 C613 1.386 . S
C612 C614 1.391 1_565 S
C613 C612 1.386 . S
C613 C617 1.393 . S
C614 H603 0.950 . S
C614 C612 1.391 1_545 S
C614 C615 1.400 . S
C615 C609 1.491 . S
C615 C614 1.400 . S
C615 C616 1.398 1_545 S
C616 H604 0.950 . S
C616 C615 1.398 1_565 S
C616 C617 1.391 . S
C617 H605 0.950 . S
C617 C613 1.393 . S
C617 C616 1.391 . S
H618 C626 0.950 . S
H619 C631 0.950 . S
H620 C628 0.950 . S
H621 C630 0.950 1_554 S
H622 C632 0.950 . S
H623 C634 0.950 . S
H624 C636 0.950 1_556 S
H625 C637 0.950 . S
C626 H618 0.950 . S
C626 C627 1.386 . S
C626 C628 1.391 . S
C627 C626 1.386 . S
C627 C631 1.393 . S
C628 H620 0.950 . S
C628 C626 1.391 . S
C628 C629 1.400 . S
C629 C628 1.400 . S
C629 C630 1.398 . S
C629 C635 1.491 1_556 S
C630 H621 0.950 1_556 S
C630 C629 1.398 . S
C630 C631 1.391 . S
C631 H619 0.950 . S
C631 C627 1.393 . S
C631 C630 1.391 . S
C632 H622 0.950 . S
C632 C633 1.386 . S
C632 C634 1.391 . S
C633 C632 1.386 . S
C633 C637 1.393 . S
C634 H623 0.950 . S
C634 C632 1.391 . S
C634 C635 1.400 . S
C635 C629 1.491 1_554 S
C635 C634 1.400 . S
C635 C636 1.398 . S
C636 H624 0.950 1_554 S
C636 C635 1.398 . S
C636 C637 1.391 . S
C637 H625 0.950 . S
C637 C633 1.393 . S
C637 C636 1.391 . S
H638 C646 0.950 . S
H639 C651 0.950 . S
H640 C648 0.950 . S
H641 C650 0.950 . S
H642 C652 0.950 . S
H643 C654 0.950 . S
H644 C656 0.950 . S
H645 C657 0.950 . S
C646 H638 0.950 . S
C646 C647 1.386 . S
C646 C648 1.391 . S
C647 C646 1.386 . S
C647 C651 1.393 . S
C648 H640 0.950 . S
C648 C646 1.391 . S
C648 C649 1.400 . S
C649 C648 1.400 . S
C649 C650 1.398 . S
C649 C655 1.491 . S
C650 H641 0.950 . S
C650 C649 1.398 . S
C650 C651 1.391 . S
C651 H639 0.950 . S
C651 C647 1.393 . S
C651 C650 1.391 . S
C652 H642 0.950 . S
C652 C653 1.386 1_455 S
C652 C654 1.391 . S
C653 C652 1.386 1_655 S
C653 C657 1.393 . S
C654 H643 0.950 . S
C654 C652 1.391 . S
C654 C655 1.400 . S
C655 C649 1.491 . S
C655 C654 1.400 . S
C655 C656 1.398 1_455 S
C656 H644 0.950 . S
C656 C655 1.398 1_655 S
C656 C657 1.391 . S
C657 H645 0.950 . S
C657 C653 1.393 . S
C657 C656 1.391 . S
H658 C666 0.950 . S
H659 C671 0.950 . S
H660 C668 0.950 . S
H661 C670 0.950 1_554 S
H662 C672 0.950 . S
H663 C674 0.950 . S
H664 C676 0.950 1_556 S
H665 C677 0.950 . S
C666 H658 0.950 . S
C666 C667 1.386 . S
C666 C668 1.391 . S
C667 C666 1.386 . S
C667 C671 1.393 . S
C668 H660 0.950 . S
C668 C666 1.391 . S
C668 C669 1.400 . S
C669 C668 1.400 . S
C669 C670 1.398 . S
C669 C675 1.491 1_556 S
C670 H661 0.950 1_556 S
C670 C669 1.398 . S
C670 C671 1.391 . S
C671 H659 0.950 . S
C671 C667 1.393 . S
C671 C670 1.391 . S
C672 H662 0.950 . S
C672 C673 1.386 . S
C672 C674 1.391 1_565 S
C673 C672 1.386 . S
C673 C677 1.393 . S
C674 H663 0.950 . S
C674 C672 1.391 1_545 S
C674 C675 1.400 . S
C675 C669 1.491 1_554 S
C675 C674 1.400 . S
C675 C676 1.398 1_545 S
C676 H664 0.950 1_554 S
C676 C675 1.398 1_565 S
C676 C677 1.391 . S
C677 H665 0.950 . S
C677 C673 1.393 . S
C677 C676 1.391 . S
H678 C686 0.950 . S
H679 C691 0.950 . S
H680 C688 0.950 . S
H681 C690 0.950 . S
H682 C692 0.950 . S
H683 C694 0.950 . S
H684 C696 0.950 . S
H685 C697 0.950 . S
C686 H678 0.950 . S
C686 C687 1.386 . S
C686 C688 1.391 . S
C687 C686 1.386 . S
C687 C691 1.393 . S
C688 H680 0.950 . S
C688 C686 1.391 . S
C688 C689 1.400 . S
C689 C688 1.400 . S
C689 C690 1.398 . S
C689 C695 1.491 . S
C690 H681 0.950 . S
C690 C689 1.398 . S
C690 C691 1.391 . S
C691 H679 0.950 . S
C691 C687 1.393 . S
C691 C690 1.391 . S
C692 H682 0.950 . S
C692 C693 1.386 . S
C692 C694 1.391 . S
C693 C692 1.386 . S
C693 C697 1.393 . S
C694 H683 0.950 . S
C694 C692 1.391 . S
C694 C695 1.400 . S
C695 C689 1.491 . S
C695 C694 1.400 . S
C695 C696 1.398 . S
C696 H684 0.950 . S
C696 C695 1.398 . S
C696 C697 1.391 . S
C697 H685 0.950 . S
C697 C693 1.393 . S
C697 C696 1.391 . S
H698 C706 0.950 . S
H699 C711 0.950 . S
H700 C708 0.950 1_556 S
H701 C710 0.950 . S
H702 C712 0.950 . S
H703 C714 0.950 1_554 S
H704 C716 0.950 . S
H705 C717 0.950 . S
C706 H698 0.950 . S
C706 C707 1.386 . S
C706 C708 1.391 . S
C707 C706 1.386 . S
C707 C711 1.393 1_455 S
C708 H700 0.950 1_554 S
C708 C706 1.391 . S
C708 C709 1.400 1_455 S
C709 C708 1.400 1_655 S
C709 C710 1.398 . S
C709 C715 1.491 1_554 S
C710 H701 0.950 . S
C710 C709 1.398 . S
C710 C711 1.391 . S
C711 H699 0.950 . S
C711 C707 1.393 1_655 S
C711 C710 1.391 . S
C712 H702 0.950 . S
C712 C713 1.386 . S
C712 C714 1.391 . S
C713 C712 1.386 . S
C713 C717 1.393 . S
C714 H703 0.950 1_556 S
C714 C712 1.391 . S
C714 C715 1.400 . S
C715 C709 1.491 1_556 S
C715 C714 1.400 . S
C715 C716 1.398 . S
C716 H704 0.950 . S
C716 C715 1.398 . S
C716 C717 1.391 . S
C717 H705 0.950 . S
C717 C713 1.393 . S
C717 C716 1.391 . S
H718 C726 0.950 . S
H719 C731 0.950 . S
H720 C728 0.950 . S
H721 C730 0.950 . S
H722 C732 0.950 . S
H723 C734 0.950 . S
H724 C736 0.950 . S
H725 C737 0.950 . S
C726 H718 0.950 . S
C726 C727 1.386 . S
C726 C728 1.391 1_545 S
C727 C726 1.386 . S
C727 C731 1.393 . S
C728 H720 0.950 . S
C728 C726 1.391 1_565 S
C728 C729 1.400 . S
C729 C728 1.400 . S
C729 C730 1.398 . S
C729 C735 1.491 . S
C730 H721 0.950 . S
C730 C729 1.398 . S
C730 C731 1.391 1_565 S
C731 H719 0.950 . S
C731 C727 1.393 . S
C731 C730 1.391 1_545 S
C732 H722 0.950 . S
C732 C733 1.386 . S
C732 C734 1.391 . S
C733 C732 1.386 . S
C733 C737 1.393 . S
C734 H723 0.950 . S
C734 C732 1.391 . S
C734 C735 1.400 . S
C735 C729 1.491 . S
C735 C734 1.400 . S
C735 C736 1.398 . S
C736 H724 0.950 . S
C736 C735 1.398 . S
C736 C737 1.391 . S
C737 H725 0.950 . S
C737 C733 1.393 . S
C737 C736 1.391 . S
C267 C32 1.427 . S
C273 N175 1.424 . S
C287 N223 1.416 . S
C293 C56 1.300 . S
C307 N8 1.420 . S
C313 C118 1.412 . S
C327 N51 1.399 . S
C333 C142 1.281 . S
C347 C199 1.431 . S
C353 N94 1.429 . S
C367 C228 1.254 . S
C373 N137 1.387 . S
C387 C33 1.014 . S
C393 N180 0.938 . S
C407 C82 0.983 . S
C413 N218 0.980 . S
C427 N3 0.942 . S
C433 C119 1.017 . S
C447 N46 0.970 . S
C453 C168 0.978 . S
C467 N89 0.892 . S
C473 C212 1.014 . S
C487 C254 0.961 . S
C493 N132 0.989 . S
C507 C13 1.736 . S
C513 C242 1.690 . S
C527 C83 1.828 . S
C533 C39 1.586 . S
C547 C99 1.755 . S
C553 C70 1.717 . S
C567 C169 1.822 . S
C573 C125 1.553 . S
C587 C156 1.706 . S
C593 C211 1.744 . S
C607 C255 1.820 . S
C613 C185 1.571 . S
C627 C161 1.830 . S
C633 C113 1.738 . S
C647 C205 1.711 . S
C653 C162 1.615 . S
C667 C247 1.834 . S
C673 C204 1.747 . S
C687 C248 1.630 . S
C693 C40 1.715 . S
C707 C27 1.737 . S
C713 C75 1.830 . S
C727 C76 1.626 . S
C733 C126 1.714 . S
