# Generated by pormake.
# Topology whd, (6)-cn, num edge types: 1
# Building blocks:
#     Node 0, Type 0, BuildingBlock: IZENUY_clean_sbu_0, # of connection points: 6
#     Node 1, Type 0, BuildingBlock: IZENUY_clean_sbu_0, # of connection points: 6
#     Node 2, Type 0, BuildingBlock: IZENUY_clean_sbu_0, # of connection points: 6
#     Node 3, Type 0, BuildingBlock: IZENUY_clean_sbu_0, # of connection points: 6
#     Node 4, Type 0, BuildingBlock: IZENUY_clean_sbu_0, # of connection points: 6
#     Node 5, Type 0, BuildingBlock: IZENUY_clean_sbu_0, # of connection points: 6
#     Node 6, Type 0, BuildingBlock: IZENUY_clean_sbu_0, # of connection points: 6
#     Node 7, Type 0, BuildingBlock: IZENUY_clean_sbu_0, # of connection points: 6
#     Node 8, Type 0, BuildingBlock: IZENUY_clean_sbu_0, # of connection points: 6
#     Node 9, Type 0, BuildingBlock: IZENUY_clean_sbu_0, # of connection points: 6
#     Node 10, Type 0, BuildingBlock: IZENUY_clean_sbu_0, # of connection points: 6
#     Node 11, Type 0, BuildingBlock: IZENUY_clean_sbu_0, # of connection points: 6
#     Node 12, Type 0, BuildingBlock: IZENUY_clean_sbu_0, # of connection points: 6
#     Node 13, Type 0, BuildingBlock: IZENUY_clean_sbu_0, # of connection points: 6
#     Node 14, Type 0, BuildingBlock: IZENUY_clean_sbu_0, # of connection points: 6
#     Node 15, Type 0, BuildingBlock: IZENUY_clean_sbu_0, # of connection points: 6
#     Edge 16, Type (0, 0), BuildingBlock: KIFKEQ_clean_linker_1, # of connection points: 2
#     Edge 17, Type (0, 0), BuildingBlock: KIFKEQ_clean_linker_1, # of connection points: 2
#     Edge 18, Type (0, 0), BuildingBlock: KIFKEQ_clean_linker_1, # of connection points: 2
#     Edge 19, Type (0, 0), BuildingBlock: KIFKEQ_clean_linker_1, # of connection points: 2
#     Edge 20, Type (0, 0), BuildingBlock: KIFKEQ_clean_linker_1, # of connection points: 2
#     Edge 21, Type (0, 0), BuildingBlock: KIFKEQ_clean_linker_1, # of connection points: 2
#     Edge 22, Type (0, 0), BuildingBlock: KIFKEQ_clean_linker_1, # of connection points: 2
#     Edge 23, Type (0, 0), BuildingBlock: KIFKEQ_clean_linker_1, # of connection points: 2
#     Edge 24, Type (0, 0), BuildingBlock: KIFKEQ_clean_linker_1, # of connection points: 2
#     Edge 25, Type (0, 0), BuildingBlock: KIFKEQ_clean_linker_1, # of connection points: 2
#     Edge 26, Type (0, 0), BuildingBlock: KIFKEQ_clean_linker_1, # of connection points: 2
#     Edge 27, Type (0, 0), BuildingBlock: KIFKEQ_clean_linker_1, # of connection points: 2
#     Edge 28, Type (0, 0), BuildingBlock: KIFKEQ_clean_linker_1, # of connection points: 2
#     Edge 29, Type (0, 0), BuildingBlock: KIFKEQ_clean_linker_1, # of connection points: 2
#     Edge 30, Type (0, 0), BuildingBlock: KIFKEQ_clean_linker_1, # of connection points: 2
#     Edge 31, Type (0, 0), BuildingBlock: KIFKEQ_clean_linker_1, # of connection points: 2
#     Edge 32, Type (0, 0), BuildingBlock: KIFKEQ_clean_linker_1, # of connection points: 2
#     Edge 33, Type (0, 0), BuildingBlock: KIFKEQ_clean_linker_1, # of connection points: 2
#     Edge 34, Type (0, 0), BuildingBlock: KIFKEQ_clean_linker_1, # of connection points: 2
#     Edge 35, Type (0, 0), BuildingBlock: KIFKEQ_clean_linker_1, # of connection points: 2
#     Edge 36, Type (0, 0), BuildingBlock: KIFKEQ_clean_linker_1, # of connection points: 2
#     Edge 37, Type (0, 0), BuildingBlock: KIFKEQ_clean_linker_1, # of connection points: 2
#     Edge 38, Type (0, 0), BuildingBlock: KIFKEQ_clean_linker_1, # of connection points: 2
#     Edge 39, Type (0, 0), BuildingBlock: KIFKEQ_clean_linker_1, # of connection points: 2
#     Edge 40, Type (0, 0), BuildingBlock: KIFKEQ_clean_linker_1, # of connection points: 2
#     Edge 41, Type (0, 0), BuildingBlock: KIFKEQ_clean_linker_1, # of connection points: 2
#     Edge 42, Type (0, 0), BuildingBlock: KIFKEQ_clean_linker_1, # of connection points: 2
#     Edge 43, Type (0, 0), BuildingBlock: KIFKEQ_clean_linker_1, # of connection points: 2
#     Edge 44, Type (0, 0), BuildingBlock: KIFKEQ_clean_linker_1, # of connection points: 2
#     Edge 45, Type (0, 0), BuildingBlock: KIFKEQ_clean_linker_1, # of connection points: 2
#     Edge 46, Type (0, 0), BuildingBlock: KIFKEQ_clean_linker_1, # of connection points: 2
#     Edge 47, Type (0, 0), BuildingBlock: KIFKEQ_clean_linker_1, # of connection points: 2
#     Edge 48, Type (0, 0), BuildingBlock: KIFKEQ_clean_linker_1, # of connection points: 2
#     Edge 49, Type (0, 0), BuildingBlock: KIFKEQ_clean_linker_1, # of connection points: 2
#     Edge 50, Type (0, 0), BuildingBlock: KIFKEQ_clean_linker_1, # of connection points: 2
#     Edge 51, Type (0, 0), BuildingBlock: KIFKEQ_clean_linker_1, # of connection points: 2
#     Edge 52, Type (0, 0), BuildingBlock: KIFKEQ_clean_linker_1, # of connection points: 2
#     Edge 53, Type (0, 0), BuildingBlock: KIFKEQ_clean_linker_1, # of connection points: 2
#     Edge 54, Type (0, 0), BuildingBlock: KIFKEQ_clean_linker_1, # of connection points: 2
#     Edge 55, Type (0, 0), BuildingBlock: KIFKEQ_clean_linker_1, # of connection points: 2
#     Edge 56, Type (0, 0), BuildingBlock: KIFKEQ_clean_linker_1, # of connection points: 2
#     Edge 57, Type (0, 0), BuildingBlock: KIFKEQ_clean_linker_1, # of connection points: 2
#     Edge 58, Type (0, 0), BuildingBlock: KIFKEQ_clean_linker_1, # of connection points: 2
#     Edge 59, Type (0, 0), BuildingBlock: KIFKEQ_clean_linker_1, # of connection points: 2
#     Edge 60, Type (0, 0), BuildingBlock: KIFKEQ_clean_linker_1, # of connection points: 2
#     Edge 61, Type (0, 0), BuildingBlock: KIFKEQ_clean_linker_1, # of connection points: 2
#     Edge 62, Type (0, 0), BuildingBlock: KIFKEQ_clean_linker_1, # of connection points: 2
#     Edge 63, Type (0, 0), BuildingBlock: KIFKEQ_clean_linker_1, # of connection points: 2
# Relax obj value: 0.274
# Max RMSD: 0.227
# Mean RMSD: 0.227
data_MOF--net-whd--node1-IZENUY_clean_sbu_0--edge1-KIFKEQ_clean_linker_1
_symmetry_space_group_name_H-M    P1
_symmetry_Int_Tables_number       1
_symmetry_cell_setting            triclinic
loop_
_symmetry_equiv_pos_as_xyz
'x, y, z'
_cell_length_a     51.763264
_cell_length_b     51.981498
_cell_length_c     29.60776
_cell_angle_alpha  90.055321
_cell_angle_beta   90.033569
_cell_angle_gamma 89.964719
loop_
_atom_site_label
_atom_site_type_symbol
_atom_site_fract_x
_atom_site_fract_y
_atom_site_fract_z
_atom_type_partial_charge
Fe0 Fe 0.18157 0.36763 0.32499 0.0
Fe1 Fe 0.16329 0.41926 0.36359 0.0
O2 O 0.18561 0.40137 0.33102 0.0
Fe3 Fe 0.21198 0.41717 0.3046 0.0
O4 O 0.2009 0.40705 0.2495 0.0
O5 O 0.19458 0.36644 0.26713 0.0
O6 O 0.14996 0.37158 0.29961 0.0
C7 C 0.13135 0.38357 0.31729 0.0
C8 C 0.23396 0.36992 0.33452 0.0
O9 O 0.13517 0.39908 0.34964 0.0
C10 C 0.21147 0.44127 0.38661 0.0
O11 O 0.16768 0.36267 0.38169 0.0
O12 O 0.17091 0.40077 0.41329 0.0
O13 O 0.23425 0.38954 0.30908 0.0
O14 O 0.21296 0.36137 0.34991 0.0
C15 C 0.17049 0.45266 0.29397 0.0
O16 O 0.18713 0.44254 0.38364 0.0
O17 O 0.22465 0.42864 0.35837 0.0
C18 C 0.16942 0.37671 0.4165 0.0
O19 O 0.15458 0.43929 0.31602 0.0
O20 O 0.19445 0.44753 0.29484 0.0
C21 C 0.19675 0.38408 0.23783 0.0
Fe22 Fe 0.36245 0.83663 0.66416 0.0
Fe23 Fe 0.41148 0.80517 0.68398 0.0
O24 O 0.39615 0.83177 0.65751 0.0
Fe25 Fe 0.41453 0.85352 0.62461 0.0
O26 O 0.39497 0.8822 0.63846 0.0
O27 O 0.36727 0.8681 0.68878 0.0
O28 O 0.36144 0.82422 0.72265 0.0
C29 C 0.37955 0.82222 0.75137 0.0
C30 C 0.37143 0.84846 0.57189 0.0
O31 O 0.40221 0.81689 0.73903 0.0
C32 C 0.43537 0.80471 0.60195 0.0
O33 O 0.35526 0.80547 0.64002 0.0
O34 O 0.38317 0.78361 0.68051 0.0
O35 O 0.39558 0.84653 0.57507 0.0
O36 O 0.35743 0.85005 0.60696 0.0
C37 C 0.44811 0.84541 0.69411 0.0
O38 O 0.42227 0.79205 0.63022 0.0
O39 O 0.43716 0.82897 0.60446 0.0
C40 C 0.36341 0.78435 0.65521 0.0
O41 O 0.44241 0.82172 0.69285 0.0
O42 O 0.43518 0.8617 0.67202 0.0
C43 C 0.37933 0.88638 0.67057 0.0
Fe44 Fe 0.80123 0.59499 0.30822 0.0
Fe45 Fe 0.83275 0.6434 0.33107 0.0
O46 O 0.82802 0.60974 0.33556 0.0
Fe47 Fe 0.84995 0.59088 0.36731 0.0
O48 O 0.85785 0.57102 0.31895 0.0
O49 O 0.81773 0.56413 0.29783 0.0
O50 O 0.81292 0.60524 0.25354 0.0
C51 C 0.81824 0.62813 0.24297 0.0
C52 C 0.80095 0.57031 0.38958 0.0
O53 O 0.82009 0.64544 0.27303 0.0
C54 C 0.8452 0.63297 0.4224 0.0
O55 O 0.77968 0.62326 0.31314 0.0
O56 O 0.80156 0.64991 0.35604 0.0
O57 O 0.82527 0.56829 0.38675 0.0
O58 O 0.78814 0.58348 0.36156 0.0
C59 C 0.88266 0.62674 0.32278 0.0
O60 O 0.84649 0.64745 0.38809 0.0
O61 O 0.84336 0.60898 0.41801 0.0
C62 C 0.7804 0.64234 0.33987 0.0
O63 O 0.86423 0.63928 0.30589 0.0
O64 O 0.87867 0.61037 0.35371 0.0
C65 C 0.84148 0.55818 0.29688 0.0
Fe66 Fe 0.6014 0.20658 0.69014 0.0
Fe67 Fe 0.59486 0.15867 0.63025 0.0
O68 O 0.61462 0.17895 0.66344 0.0
Fe69 Fe 0.64778 0.17127 0.66955 0.0
O70 O 0.64424 0.16799 0.72983 0.0
O71 O 0.62205 0.20382 0.74056 0.0
O72 O 0.57763 0.18744 0.72071 0.0
C73 C 0.56196 0.17189 0.70273 0.0
C74 C 0.64849 0.22561 0.66374 0.0
O75 O 0.56542 0.16408 0.66281 0.0
C76 C 0.64096 0.16146 0.58021 0.0
O77 O 0.57827 0.21358 0.64425 0.0
O78 O 0.58737 0.18473 0.59211 0.0
O79 O 0.65849 0.20448 0.67546 0.0
O80 O 0.62422 0.22811 0.66198 0.0
C81 C 0.62364 0.12262 0.67346 0.0
O82 O 0.62055 0.14959 0.59096 0.0
O83 O 0.65325 0.17433 0.60923 0.0
C84 C 0.57725 0.20581 0.6036 0.0
O85 O 0.60123 0.13128 0.66672 0.0
O86 O 0.64328 0.13632 0.66524 0.0
C87 C 0.63521 0.18508 0.7557 0.0
Fe88 Fe 0.17024 0.64963 0.6634 0.0
Fe89 Fe 0.15823 0.59696 0.62352 0.0
O90 O 0.17774 0.61658 0.65839 0.0
Fe91 Fe 0.20435 0.60331 0.68832 0.0
O92 O 0.2002 0.62434 0.73825 0.0
O93 O 0.16462 0.64599 0.72311 0.0
O94 O 0.13531 0.64558 0.65586 0.0
C95 C 0.12117 0.62627 0.66385 0.0
C96 C 0.22486 0.64967 0.66253 0.0
O97 O 0.12958 0.60383 0.65699 0.0
C98 C 0.20617 0.57863 0.60221 0.0
O99 O 0.17533 0.65489 0.60334 0.0
O100 O 0.15068 0.62253 0.58296 0.0
O101 O 0.22713 0.62549 0.66189 0.0
O102 O 0.20353 0.66002 0.67256 0.0
C103 C 0.16881 0.56448 0.69799 0.0
O104 O 0.18558 0.58894 0.58828 0.0
O105 O 0.21258 0.57983 0.64361 0.0
C106 C 0.16268 0.64304 0.57339 0.0
O107 O 0.1622 0.56772 0.65728 0.0
O108 O 0.18382 0.58018 0.7172 0.0
C109 C 0.18032 0.63664 0.75122 0.0
Fe110 Fe 0.5947 0.85329 0.36593 0.0
Fe111 Fe 0.64823 0.83612 0.33166 0.0
O112 O 0.61438 0.83107 0.33614 0.0
Fe113 Fe 0.59994 0.8036 0.3104 0.0
O114 O 0.56862 0.81905 0.29954 0.0
O115 O 0.57498 0.85959 0.31637 0.0
O116 O 0.61352 0.88199 0.35102 0.0
C117 C 0.63094 0.88594 0.32191 0.0
C118 C 0.575 0.80447 0.39138 0.0
O119 O 0.64427 0.86766 0.30653 0.0
C120 C 0.64804 0.78382 0.34113 0.0
O121 O 0.61264 0.84872 0.41751 0.0
O122 O 0.65191 0.84961 0.38887 0.0
O123 O 0.58875 0.79144 0.36452 0.0
O124 O 0.57248 0.82858 0.38688 0.0
C125 C 0.63279 0.82007 0.24387 0.0
O126 O 0.65543 0.80514 0.3565 0.0
O127 O 0.6284 0.78255 0.31579 0.0
C128 C 0.63675 0.85014 0.42249 0.0
O129 O 0.6502 0.82352 0.27353 0.0
O130 O 0.60996 0.81434 0.25502 0.0
C131 C 0.56226 0.84247 0.296 0.0
Fe132 Fe 0.83939 0.36075 0.66199 0.0
Fe133 Fe 0.85265 0.41389 0.62556 0.0
O134 O 0.83251 0.39406 0.65884 0.0
Fe135 Fe 0.80589 0.40737 0.68892 0.0
O136 O 0.80943 0.38558 0.73793 0.0
O137 O 0.84445 0.36314 0.72209 0.0
O138 O 0.87457 0.3643 0.65589 0.0
C139 C 0.88902 0.3833 0.66473 0.0
C140 C 0.78476 0.362 0.65956 0.0
O141 O 0.88083 0.40595 0.65942 0.0
C142 C 0.80507 0.43315 0.6039 0.0
O143 O 0.83484 0.35665 0.60154 0.0
O144 O 0.86015 0.38891 0.58371 0.0
O145 O 0.78291 0.38615 0.66115 0.0
O146 O 0.80575 0.35081 0.66906 0.0
C147 C 0.84159 0.44565 0.70107 0.0
O148 O 0.82573 0.42293 0.59008 0.0
O149 O 0.7983 0.43153 0.64506 0.0
C150 C 0.84793 0.36876 0.57263 0.0
O151 O 0.84893 0.44267 0.6607 0.0
O152 O 0.82639 0.42983 0.71928 0.0
C153 C 0.82893 0.37255 0.75047 0.0
Fe154 Fe 0.41069 0.20718 0.30661 0.0
Fe155 Fe 0.41572 0.16034 0.36908 0.0
O156 O 0.39649 0.18096 0.33574 0.0
Fe157 Fe 0.36287 0.17501 0.33176 0.0
O158 O 0.36544 0.17011 0.27197 0.0
O159 O 0.38888 0.20457 0.25736 0.0
O160 O 0.43286 0.1862 0.27604 0.0
C161 C 0.44819 0.17046 0.29434 0.0
C162 C 0.36534 0.22948 0.3333 0.0
O163 O 0.4449 0.16349 0.33479 0.0
C164 C 0.37066 0.16676 0.42103 0.0
O165 O 0.435 0.21383 0.35084 0.0
O166 O 0.4252 0.18668 0.40525 0.0
O167 O 0.35377 0.20877 0.32376 0.0
O168 O 0.38967 0.23036 0.33481 0.0
C169 C 0.38439 0.12516 0.32883 0.0
O170 O 0.39021 0.15352 0.41009 0.0
O171 O 0.35855 0.17969 0.39191 0.0
C172 C 0.43618 0.20694 0.39195 0.0
O173 O 0.40729 0.13276 0.33441 0.0
O174 O 0.36559 0.13986 0.33807 0.0
C175 C 0.3745 0.18617 0.24435 0.0
Fe176 Fe 0.67466 0.86297 0.83037 0.0
Fe177 Fe 0.65667 0.91509 0.86683 0.0
O178 O 0.67943 0.8965 0.83657 0.0
Fe179 Fe 0.70668 0.9117 0.81222 0.0
O180 O 0.69669 0.90186 0.75645 0.0
O181 O 0.68839 0.86143 0.77282 0.0
O182 O 0.64361 0.86777 0.80319 0.0
C183 C 0.62502 0.87997 0.82024 0.0
C184 C 0.72693 0.86391 0.84299 0.0
O185 O 0.62862 0.89486 0.85338 0.0
C186 C 0.7045 0.93788 0.89127 0.0
O187 O 0.6601 0.85886 0.88706 0.0
O188 O 0.66331 0.89734 0.91777 0.0
O189 O 0.72835 0.88372 0.81818 0.0
O190 O 0.7054 0.85579 0.85668 0.0
C191 C 0.66593 0.94729 0.79665 0.0
O192 O 0.68024 0.93881 0.88622 0.0
O193 O 0.71811 0.92313 0.86707 0.0
C194 C 0.66152 0.87326 0.92174 0.0
O195 O 0.64911 0.93412 0.81711 0.0
O196 O 0.68979 0.94219 0.80102 0.0
C197 C 0.69142 0.87928 0.74407 0.0
Fe198 Fe 0.92046 0.35023 0.13338 0.0
Fe199 Fe 0.86755 0.33196 0.16662 0.0
O200 O 0.90137 0.32736 0.16229 0.0
Fe201 Fe 0.91628 0.30004 0.18684 0.0
O202 O 0.94675 0.31677 0.20013 0.0
O203 O 0.93909 0.35737 0.18397 0.0
O204 O 0.89989 0.3781 0.14672 0.0
C205 C 0.88398 0.38145 0.17859 0.0
C206 C 0.94358 0.30279 0.10881 0.0
O207 O 0.87168 0.36272 0.19475 0.0
C208 C 0.86887 0.27994 0.15301 0.0
O209 O 0.90329 0.34396 0.08142 0.0
O210 O 0.86421 0.34702 0.11031 0.0
O211 O 0.92866 0.28906 0.13237 0.0
O212 O 0.94453 0.32689 0.11443 0.0
C213 C 0.88227 0.3143 0.25331 0.0
O214 O 0.86095 0.30148 0.13919 0.0
O215 O 0.88839 0.27845 0.17874 0.0
C216 C 0.87917 0.34579 0.07641 0.0
O217 O 0.86503 0.31778 0.22346 0.0
O218 O 0.90531 0.30946 0.24234 0.0
C219 C 0.95217 0.34047 0.20454 0.0
Fe220 Fe 0.35109 0.09616 0.86786 0.0
Fe221 Fe 0.30424 0.10151 0.80459 0.0
O222 O 0.33044 0.11559 0.83473 0.0
Fe223 Fe 0.33634 0.14912 0.83219 0.0
O224 O 0.37164 0.1463 0.83712 0.0
O225 O 0.37899 0.10473 0.83376 0.0
O226 O 0.34768 0.06729 0.8332 0.0
C227 C 0.34073 0.06385 0.79277 0.0
C228 C 0.34551 0.14065 0.9211 0.0
O229 O 0.32561 0.07959 0.7739 0.0
C230 C 0.28175 0.14625 0.83505 0.0
O231 O 0.32441 0.08669 0.90354 0.0
O232 O 0.29747 0.07709 0.84831 0.0
O233 O 0.33227 0.1528 0.89258 0.0
O234 O 0.35836 0.12107 0.90951 0.0
C235 C 0.32477 0.13865 0.74399 0.0
O236 O 0.28052 0.12206 0.83243 0.0
O237 O 0.30244 0.15815 0.82647 0.0
C238 C 0.30409 0.07586 0.8896 0.0
O239 O 0.30681 0.12354 0.75608 0.0
O240 O 0.34065 0.14767 0.77209 0.0
C241 C 0.38658 0.12762 0.82839 0.0
Fe242 Fe 0.09665 0.71162 0.18736 0.0
Fe243 Fe 0.09042 0.66161 0.13396 0.0
O244 O 0.11043 0.6837 0.16295 0.0
Fe245 Fe 0.14399 0.6776 0.16743 0.0
O246 O 0.14721 0.69174 0.22421 0.0
O247 O 0.10741 0.70218 0.24292 0.0
O248 O 0.06563 0.69587 0.20118 0.0
C249 C 0.05979 0.67226 0.20596 0.0
C250 C 0.14498 0.72954 0.1534 0.0
O251 O 0.07203 0.65506 0.18471 0.0
C252 C 0.13167 0.66458 0.07707 0.0
O253 O 0.08468 0.72284 0.13294 0.0
O254 O 0.06694 0.6858 0.11537 0.0
O255 O 0.15205 0.70761 0.14016 0.0
O256 O 0.1253 0.73212 0.17854 0.0
C257 C 0.12557 0.62895 0.17892 0.0
O258 O 0.10765 0.66743 0.08204 0.0
O259 O 0.14654 0.66243 0.11101 0.0
C260 C 0.06931 0.70974 0.10922 0.0
O261 O 0.11004 0.63295 0.14672 0.0
O262 O 0.1384 0.64717 0.19555 0.0
C263 C 0.13023 0.69649 0.25395 0.0
Fe264 Fe 0.66008 0.09584 0.13067 0.0
Fe265 Fe 0.70788 0.10176 0.19205 0.0
O266 O 0.6808 0.11532 0.16365 0.0
Fe267 Fe 0.67425 0.14865 0.16771 0.0
O268 O 0.63899 0.14543 0.16274 0.0
O269 O 0.63228 0.10383 0.16557 0.0
O270 O 0.66404 0.0669 0.16519 0.0
C271 C 0.67207 0.06351 0.20508 0.0
C272 C 0.66453 0.1412 0.07878 0.0
O273 O 0.68778 0.07905 0.22298 0.0
C274 C 0.72875 0.14747 0.16306 0.0
O275 O 0.68654 0.08678 0.09398 0.0
O276 O 0.71464 0.07773 0.14773 0.0
O277 O 0.67817 0.15293 0.10736 0.0
O278 O 0.65222 0.12111 0.08961 0.0
C279 C 0.68659 0.13727 0.25501 0.0
O280 O 0.73049 0.12324 0.16334 0.0
O281 O 0.7079 0.1584 0.17403 0.0
C282 C 0.70736 0.07649 0.10687 0.0
O283 O 0.70525 0.12337 0.24141 0.0
O284 O 0.67012 0.14616 0.22778 0.0
C285 C 0.62434 0.12656 0.17134 0.0
Fe286 Fe 0.15035 0.34099 0.82889 0.0
Fe287 Fe 0.10383 0.3073 0.80245 0.0
O288 O 0.11706 0.33375 0.83271 0.0
Fe289 Fe 0.09713 0.3533 0.86684 0.0
O290 O 0.10442 0.38171 0.83326 0.0
O291 O 0.14635 0.3759 0.83587 0.0
O292 O 0.14745 0.34632 0.76897 0.0
C293 C 0.1384 0.33054 0.74073 0.0
C294 C 0.1429 0.34908 0.91852 0.0
O295 O 0.12551 0.31107 0.7534 0.0
C296 C 0.07881 0.30549 0.88775 0.0
O297 O 0.16062 0.30768 0.82053 0.0
O298 O 0.12562 0.2845 0.82977 0.0
O299 O 0.1224 0.36095 0.90807 0.0
O300 O 0.155 0.33618 0.88922 0.0
C301 C 0.0651 0.34277 0.79156 0.0
O302 O 0.07975 0.29937 0.84627 0.0
O303 O 0.08885 0.32607 0.902 0.0
C304 C 0.14993 0.28646 0.82973 0.0
O305 O 0.08104 0.32788 0.77266 0.0
O306 O 0.06805 0.34929 0.83237 0.0
C307 C 0.12706 0.39011 0.8275 0.0
Fe308 Fe 0.3018 0.91341 0.18492 0.0
Fe309 Fe 0.33405 0.86526 0.16328 0.0
O310 O 0.32933 0.89895 0.15934 0.0
Fe311 Fe 0.35196 0.91843 0.13039 0.0
O312 O 0.35818 0.93761 0.18055 0.0
O313 O 0.31741 0.94452 0.19612 0.0
O314 O 0.31245 0.90318 0.2403 0.0
C315 C 0.31767 0.88024 0.251 0.0
C316 C 0.30324 0.93816 0.10398 0.0
O317 O 0.32065 0.86304 0.22089 0.0
C318 C 0.34905 0.87695 0.07309 0.0
O319 O 0.28067 0.88512 0.17905 0.0
O320 O 0.30314 0.85875 0.13685 0.0
O321 O 0.32739 0.94081 0.10938 0.0
O322 O 0.28987 0.92466 0.13066 0.0
C323 C 0.38392 0.88228 0.17552 0.0
O324 O 0.34834 0.86176 0.10657 0.0
O325 O 0.34752 0.90093 0.07836 0.0
C326 C 0.28175 0.86617 0.15228 0.0
O327 O 0.36534 0.86899 0.18995 0.0
O328 O 0.38044 0.89928 0.14562 0.0
C329 C 0.34099 0.95037 0.20068 0.0
Fe330 Fe 0.90849 0.70484 0.80756 0.0
Fe331 Fe 0.91479 0.65576 0.86383 0.0
O332 O 0.89466 0.67755 0.83421 0.0
Fe333 Fe 0.86091 0.67196 0.83134 0.0
O334 O 0.85739 0.6847 0.77364 0.0
O335 O 0.89705 0.6944 0.75292 0.0
O336 O 0.93915 0.68854 0.79365 0.0
C337 C 0.94478 0.66482 0.79023 0.0
C338 C 0.86084 0.72425 0.8418 0.0
O339 O 0.93282 0.64821 0.81316 0.0
C340 C 0.874 0.65976 0.92201 0.0
O341 O 0.92118 0.71703 0.86088 0.0
O342 O 0.93848 0.68012 0.88073 0.0
O343 O 0.85365 0.70274 0.85676 0.0
O344 O 0.88024 0.72594 0.81587 0.0
C345 C 0.87856 0.62268 0.82197 0.0
O346 O 0.89801 0.66222 0.9162 0.0
O347 O 0.85872 0.65816 0.88857 0.0
C348 C 0.93667 0.70426 0.88494 0.0
O349 O 0.89512 0.62707 0.85242 0.0
O350 O 0.86536 0.64071 0.80551 0.0
C351 C 0.87411 0.68851 0.74306 0.0
H352 H 0.19238 0.47843 0.22335 0.0
H353 H 0.12909 0.48208 0.31826 0.0
H354 H 0.17982 0.52062 0.19325 0.0
H355 H 0.11719 0.5245 0.28898 0.0
H356 H 0.14143 0.61361 0.26234 0.0
H357 H 0.15043 0.56967 0.28788 0.0
H358 H 0.13118 0.54056 0.15565 0.0
H359 H 0.12132 0.58443 0.13024 0.0
C360 C 0.17573 0.48815 0.23752 0.0
C361 C 0.16171 0.47698 0.27311 0.0
C362 C 0.16855 0.51217 0.22026 0.0
C363 C 0.14764 0.52564 0.23903 0.0
C364 C 0.1334 0.51438 0.2741 0.0
C365 C 0.14016 0.49011 0.29062 0.0
C366 C 0.13902 0.59782 0.23879 0.0
C367 C 0.13067 0.60239 0.19434 0.0
C368 C 0.14407 0.57277 0.25344 0.0
C369 C 0.14147 0.55194 0.22361 0.0
C370 C 0.13331 0.55642 0.17912 0.0
C371 C 0.12761 0.58144 0.16475 0.0
H372 H 0.48117 0.88363 0.66847 0.0
H373 H 0.47035 0.82417 0.76845 0.0
H374 H 0.52402 0.89291 0.69995 0.0
H375 H 0.51285 0.83403 0.80061 0.0
H376 H 0.57967 0.88445 0.86664 0.0
H377 H 0.53579 0.87764 0.83783 0.0
H378 H 0.5667 0.86021 0.70603 0.0
H379 H 0.61067 0.86626 0.73497 0.0
C380 C 0.48775 0.87292 0.69766 0.0
C381 C 0.47251 0.85317 0.71605 0.0
C382 C 0.51226 0.87811 0.7154 0.0
C383 C 0.5216 0.8641 0.7525 0.0
C384 C 0.50596 0.8451 0.77204 0.0
C385 C 0.48175 0.83946 0.75363 0.0
C386 C 0.57709 0.87913 0.83155 0.0
C387 C 0.59855 0.87575 0.80306 0.0
C388 C 0.55204 0.87522 0.81518 0.0
C389 C 0.54802 0.86856 0.76978 0.0
C390 C 0.5694 0.86552 0.74112 0.0
C391 C 0.59448 0.8688 0.75774 0.0
H392 H 0.88779 0.42635 0.13116 0.0
H393 H 0.86723 0.39604 0.2621 0.0
H394 H 0.87796 0.47 0.15776 0.0
H395 H 0.85826 0.43982 0.28888 0.0
H396 H 0.88176 0.52722 0.3212 0.0
H397 H 0.89225 0.48447 0.29158 0.0
H398 H 0.82985 0.49061 0.19566 0.0
H399 H 0.81868 0.53314 0.22614 0.0
C400 C 0.88133 0.42904 0.16564 0.0
C401 C 0.87823 0.40781 0.19457 0.0
C402 C 0.87565 0.45394 0.1807 0.0
C403 C 0.86745 0.4581 0.22527 0.0
C404 C 0.86463 0.43699 0.25438 0.0
C405 C 0.86967 0.41202 0.23902 0.0
C406 C 0.87043 0.5196 0.29349 0.0
C407 C 0.84938 0.53352 0.27595 0.0
C408 C 0.87636 0.49512 0.2768 0.0
C409 C 0.86179 0.4844 0.24154 0.0
C410 C 0.84134 0.49859 0.22287 0.0
C411 C 0.83498 0.52283 0.2403 0.0
H412 H 0.41012 0.1745 0.82203 0.0
H413 H 0.42443 0.09318 0.80429 0.0
H414 H 0.45377 0.18397 0.7967 0.0
H415 H 0.46839 0.10275 0.77943 0.0
H416 H 0.52854 0.13406 0.678 0.0
H417 H 0.48771 0.1225 0.71264 0.0
H418 H 0.49992 0.17981 0.8162 0.0
H419 H 0.54101 0.19174 0.78095 0.0
C420 C 0.42264 0.15859 0.81312 0.0
C421 C 0.41366 0.13305 0.815 0.0
C422 C 0.44778 0.16405 0.79894 0.0
C423 C 0.46458 0.14414 0.78605 0.0
C424 C 0.45582 0.11855 0.78873 0.0
C425 C 0.43066 0.11306 0.80312 0.0
C426 C 0.52267 0.14419 0.70829 0.0
C427 C 0.53798 0.16404 0.72642 0.0
C428 C 0.4993 0.13736 0.7284 0.0
C429 C 0.49051 0.15022 0.76717 0.0
C430 C 0.50606 0.1697 0.78605 0.0
C431 C 0.52963 0.17646 0.76601 0.0
H432 H 0.13348 0.52909 0.66932 0.0
H433 H 0.18548 0.54577 0.77981 0.0
H434 H 0.12191 0.48848 0.70466 0.0
H435 H 0.17358 0.50507 0.81548 0.0
H436 H 0.17289 0.41598 0.82573 0.0
H437 H 0.18118 0.45929 0.79857 0.0
H438 H 0.09992 0.46915 0.77029 0.0
H439 H 0.09154 0.42544 0.79718 0.0
C440 C 0.14232 0.5242 0.70136 0.0
C441 C 0.16063 0.54062 0.72148 0.0
C442 C 0.13549 0.50097 0.72181 0.0
C443 C 0.14685 0.49348 0.76282 0.0
C444 C 0.16468 0.51017 0.7836 0.0
C445 C 0.17143 0.53354 0.76325 0.0
C446 C 0.15669 0.42738 0.81405 0.0
C447 C 0.13153 0.41716 0.81352 0.0
C448 C 0.16146 0.45234 0.79878 0.0
C449 C 0.14123 0.46771 0.7823 0.0
C450 C 0.11596 0.4577 0.78246 0.0
C451 C 0.11114 0.43272 0.79806 0.0
H452 H 0.54068 0.89034 0.28406 0.0
H453 H 0.52717 0.80956 0.2585 0.0
H454 H 0.49787 0.90039 0.25393 0.0
H455 H 0.48467 0.81968 0.22824 0.0
H456 H 0.39966 0.84398 0.23275 0.0
H457 H 0.44327 0.83512 0.25953 0.0
H458 H 0.47209 0.89961 0.18283 0.0
H459 H 0.42838 0.9087 0.15618 0.0
C460 C 0.52873 0.87476 0.27165 0.0
C461 C 0.53735 0.84912 0.27402 0.0
C462 C 0.50423 0.88054 0.25426 0.0
C463 C 0.48778 0.86079 0.23913 0.0
C464 C 0.4967 0.83528 0.24036 0.0
C465 C 0.52118 0.82952 0.25744 0.0
C466 C 0.41525 0.85629 0.22151 0.0
C467 C 0.41047 0.87698 0.19209 0.0
C468 C 0.44029 0.85112 0.2367 0.0
C469 C 0.46117 0.86658 0.22309 0.0
C470 C 0.45639 0.88745 0.19414 0.0
C471 C 0.43135 0.89255 0.17868 0.0
H472 H 0.83461 0.60357 0.78332 0.0
H473 H 0.91079 0.58123 0.82843 0.0
H474 H 0.82629 0.55935 0.75907 0.0
H475 H 0.90253 0.53709 0.80324 0.0
H476 H 0.88439 0.47513 0.6886 0.0
H477 H 0.89377 0.51719 0.72186 0.0
H478 H 0.82303 0.51334 0.79855 0.0
H479 H 0.81382 0.47093 0.76603 0.0
C480 C 0.84956 0.58923 0.78807 0.0
C481 C 0.87336 0.59587 0.80779 0.0
C482 C 0.84472 0.56393 0.77447 0.0
C483 C 0.86375 0.54488 0.77948 0.0
C484 C 0.88757 0.55147 0.79904 0.0
C485 C 0.89223 0.57667 0.81352 0.0
C486 C 0.87101 0.48312 0.71301 0.0
C487 C 0.84836 0.46979 0.72468 0.0
C488 C 0.87643 0.50711 0.73211 0.0
C489 C 0.85906 0.51847 0.76255 0.0
C490 C 0.83665 0.50498 0.77496 0.0
C491 C 0.83149 0.4807 0.75659 0.0
H492 H 0.59991 0.17303 0.17671 0.0
H493 H 0.58711 0.09163 0.19616 0.0
H494 H 0.55602 0.18194 0.20132 0.0
H495 H 0.54285 0.10063 0.22034 0.0
H496 H 0.4813 0.13243 0.31995 0.0
H497 H 0.52235 0.12063 0.28603 0.0
H498 H 0.51028 0.17689 0.18086 0.0
H499 H 0.46907 0.18907 0.21533 0.0
C500 C 0.58768 0.15697 0.18588 0.0
C501 C 0.59714 0.13159 0.18461 0.0
C502 C 0.56238 0.1621 0.19964 0.0
C503 C 0.54587 0.14202 0.21272 0.0
C504 C 0.55516 0.11657 0.21082 0.0
C505 C 0.58049 0.1114 0.19682 0.0
C506 C 0.48725 0.14223 0.2894 0.0
C507 C 0.47197 0.16192 0.27065 0.0
C508 C 0.51074 0.13526 0.26973 0.0
C509 C 0.51968 0.14786 0.23083 0.0
C510 C 0.50407 0.16702 0.21116 0.0
C511 C 0.4804 0.17391 0.23075 0.0
H512 H 0.6971 0.98751 0.77566 0.0
H513 H 0.61767 0.96232 0.76813 0.0
H514 H 0.68513 0.02856 0.74367 0.0
H515 H 0.60568 1.00348 0.73384 0.0
H516 H 0.59159 0.09188 0.72346 0.0
H517 H 0.60054 0.04825 0.75038 0.0
H518 H 0.67263 0.0484 0.67661 0.0
H519 H 0.66429 0.09213 0.65206 0.0
C520 C 0.67709 0.99056 0.76636 0.0
C521 C 0.65835 0.97158 0.77429 0.0
C522 C 0.67021 0.01416 0.74769 0.0
C523 C 0.64444 0.01936 0.73563 0.0
C524 C 0.62566 1.00025 0.74311 0.0
C525 C 0.63253 0.97662 0.76246 0.0
C526 C 0.60924 0.0824 0.71293 0.0
C527 C 0.62744 0.09547 0.68633 0.0
C528 C 0.61433 0.05738 0.7281 0.0
C529 C 0.63753 0.04488 0.71629 0.0
C530 C 0.65496 0.05764 0.6876 0.0
C531 C 0.65013 0.0827 0.67328 0.0
H532 H 0.08668 0.40839 0.34166 0.0
H533 H 0.11524 0.34611 0.25868 0.0
H534 H 0.04257 0.39867 0.3175 0.0
H535 H 0.07127 0.33656 0.2346 0.0
H536 H 0.98854 0.30832 0.24026 0.0
H537 H 0.0311 0.31935 0.26906 0.0
H538 H 0.01511 0.3999 0.24722 0.0
H539 H 0.9722 0.38892 0.21832 0.0
C540 C 0.08358 0.39263 0.31832 0.0
C541 C 0.10454 0.37794 0.30234 0.0
C542 C 0.05831 0.38717 0.30432 0.0
C543 C 0.05341 0.36675 0.27438 0.0
C544 C 0.07436 0.35218 0.25823 0.0
C545 C 0.0996 0.35776 0.27187 0.0
C546 C 0.99388 0.32844 0.24192 0.0
C547 C 0.97691 0.34772 0.22661 0.0
C548 C 0.01842 0.33472 0.25817 0.0
C549 C 0.02661 0.36046 0.25991 0.0
C550 C 0.00933 0.37988 0.24639 0.0
C551 C 0.98476 0.37358 0.22974 0.0
H552 H 0.39043 0.93176 0.62681 0.0
H553 H 0.35549 0.90149 0.74817 0.0
H554 H 0.38118 0.97568 0.65282 0.0
H555 H 0.34652 0.94508 0.77389 0.0
H556 H 0.36668 0.02376 0.83049 0.0
H557 H 0.37598 0.98195 0.79815 0.0
H558 H 0.34067 1.00516 0.6726 0.0
H559 H 0.33093 0.04761 0.70527 0.0
C560 C 0.38081 0.93445 0.65894 0.0
C561 C 0.37379 0.9131 0.68548 0.0
C562 C 0.37536 0.95956 0.67361 0.0
C563 C 0.36321 0.96377 0.71541 0.0
C564 C 0.35609 0.94243 0.74168 0.0
C565 C 0.36117 0.91744 0.72683 0.0
C566 C 0.36091 0.02022 0.79587 0.0
C567 C 0.34782 0.03913 0.77064 0.0
C568 C 0.3662 0.99611 0.77744 0.0
C569 C 0.35882 0.99019 0.73306 0.0
C570 C 0.34658 0.00926 0.70695 0.0
C571 C 0.34095 0.03349 0.72569 0.0
H572 H 0.04101 0.62395 0.22351 0.0
H573 H 0.02356 0.70463 0.242 0.0
H574 H 0.99889 0.6127 0.25484 0.0
H575 H 0.98167 0.69328 0.27363 0.0
H576 H 0.92788 0.6031 0.34839 0.0
H577 H 0.97184 0.61398 0.32481 0.0
H578 H 0.94177 0.67496 0.24092 0.0
H579 H 0.8981 0.66434 0.26441 0.0
C580 C 0.02835 0.63928 0.23474 0.0
C581 C 0.0356 0.66522 0.22978 0.0
C582 C 1.00426 0.6328 0.2529 0.0
C583 C 0.98685 0.65211 0.26625 0.0
C584 C 0.9945 0.67798 0.26294 0.0
C585 C 0.01861 0.68446 0.24506 0.0
C586 C 0.93067 0.61886 0.32498 0.0
C587 C 0.90942 0.63289 0.30846 0.0
C588 C 0.95584 0.62501 0.31138 0.0
C589 C 0.96029 0.64546 0.2813 0.0
C590 C 0.93904 0.65939 0.26475 0.0
C591 C 0.91395 0.65316 0.27803 0.0
H592 H 0.70031 0.03635 0.26742 0.0
H593 H 0.62814 0.03557 0.19421 0.0
H594 H 0.6903 0.99374 0.29852 0.0
H595 H 0.61802 0.99338 0.22586 0.0
H596 H 0.59971 0.92829 0.32806 0.0
H597 H 0.60928 0.97232 0.30412 0.0
H598 H 0.68507 0.94831 0.26049 0.0
H599 H 0.67545 0.90419 0.28367 0.0
C600 C 0.68215 0.02729 0.25862 0.0
C601 C 0.66504 0.03926 0.22831 0.0
C602 C 0.67652 1.00287 0.27613 0.0
C603 C 0.65342 0.99024 0.26446 0.0
C604 C 0.63589 1.00269 0.23561 0.0
C605 C 0.64174 0.0268 0.21741 0.0
C606 C 0.61844 0.9324 0.31346 0.0
C607 C 0.63679 0.9127 0.30767 0.0
C608 C 0.62388 0.95759 0.2997 0.0
C609 C 0.64796 0.96374 0.28068 0.0
C610 C 0.66645 0.94416 0.27549 0.0
C611 C 0.66085 0.91887 0.28844 0.0
H612 H 0.92516 0.41866 0.69207 0.0
H613 H 0.91441 0.33726 0.66882 0.0
H614 H 0.96924 0.41037 0.71778 0.0
H615 H 0.95823 0.32904 0.69493 0.0
H616 H 0.04553 0.32461 0.71121 0.0
H617 H 1.00423 0.33584 0.67611 0.0
H618 H 0.98904 0.38976 0.78397 0.0
H619 H 0.03019 0.37886 0.81863 0.0
C620 C 0.93221 0.39904 0.69217 0.0
C621 C 0.91619 0.37864 0.67848 0.0
C622 C 0.95744 0.39428 0.70707 0.0
C623 C 0.96724 0.36903 0.7084 0.0
C624 C 0.95141 0.34873 0.69377 0.0
C625 C 0.92618 0.35346 0.67912 0.0
C626 C 0.03348 0.33904 0.72715 0.0
C627 C 0.04109 0.35066 0.76793 0.0
C628 C 0.00977 0.34537 0.70718 0.0
C629 C 0.99331 0.36363 0.72735 0.0
C630 C 1.00135 0.37582 0.76729 0.0
C631 C 0.02489 0.36939 0.78736 0.0
H632 H 0.41607 0.09313 0.28087 0.0
H633 H 0.3411 0.09677 0.34436 0.0
H634 H 0.40615 0.05019 0.25241 0.0
H635 H 0.33165 0.05345 0.31831 0.0
H636 H 0.30925 0.99064 0.22005 0.0
H637 H 0.3206 0.03183 0.25278 0.0
H638 H 0.39973 0.00638 0.26776 0.0
H639 H 0.38843 0.96539 0.23255 0.0
C640 C 0.39764 0.08454 0.28936 0.0
C641 C 0.37928 0.09838 0.31449 0.0
C642 C 0.39197 0.05983 0.27329 0.0
C643 C 0.36796 0.04825 0.28264 0.0
C644 C 0.35005 0.06188 0.30928 0.0
C645 C 0.35553 0.08671 0.32456 0.0
C646 C 0.32905 0.99373 0.2306 0.0
C647 C 0.34794 0.97472 0.22368 0.0
C648 C 0.33558 0.01739 0.24972 0.0
C649 C 0.36112 0.02259 0.26328 0.0
C650 C 0.37995 1.00332 0.25713 0.0
C651 C 0.37347 0.97972 0.23725 0.0
H652 H 0.08148 0.59117 0.6696 0.0
H653 H 0.09988 0.67122 0.69235 0.0
H654 H 0.03714 0.59918 0.69458 0.0
H655 H 0.05625 0.67898 0.71844 0.0
H656 H 0.9718 0.6931 0.7287 0.0
H657 H 0.01289 0.68237 0.69347 0.0
H658 H 0.01274 0.60882 0.76144 0.0
H659 H 0.97115 0.61918 0.79534 0.0
C660 C 0.07609 0.61043 0.67994 0.0
C661 C 0.09417 0.63058 0.67865 0.0
C662 C 0.05072 0.61501 0.69444 0.0
C663 C 0.043 0.63979 0.70819 0.0
C664 C 0.06123 0.65981 0.70705 0.0
C665 C 0.08639 0.6553 0.69234 0.0
C666 C 0.9804 0.67452 0.73574 0.0
C667 C 0.96833 0.65714 0.76523 0.0
C668 C 1.00405 0.66841 0.71576 0.0
C669 C 0.0164 0.64489 0.72517 0.0
C670 C 1.00376 0.62703 0.75314 0.0
C671 C 0.97994 0.63304 0.77279 0.0
H672 H 0.234 0.53564 0.6243 0.0
H673 H 0.2077 0.58042 0.5104 0.0
H674 H 0.24632 0.50074 0.57311 0.0
H675 H 0.2201 0.54573 0.45946 0.0
H676 H 0.24472 0.48114 0.37248 0.0
H677 H 0.25413 0.51573 0.42669 0.0
H678 H 0.21389 0.47342 0.53055 0.0
H679 H 0.20422 0.43945 0.47638 0.0
C680 C 0.23169 0.53841 0.58827 0.0
C681 C 0.21954 0.5606 0.57137 0.0
C682 C 0.23865 0.51839 0.55901 0.0
C683 C 0.23399 0.52042 0.51234 0.0
C684 C 0.22414 0.54364 0.49517 0.0
C685 C 0.21685 0.56345 0.52441 0.0
C686 C 0.23891 0.47888 0.4074 0.0
C687 C 0.22393 0.45771 0.4206 0.0
C688 C 0.2441 0.49869 0.43828 0.0
C689 C 0.23468 0.49731 0.48282 0.0
C690 C 0.22171 0.47494 0.49673 0.0
C691 C 0.21613 0.45548 0.46575 0.0
H692 H 0.47598 0.77359 0.62188 0.0
H693 H 0.43466 0.80834 0.51119 0.0
H694 H 0.51183 0.76304 0.57074 0.0
H695 H 0.46992 0.79729 0.45992 0.0
H696 H 0.53517 0.77206 0.37311 0.0
H697 H 0.49958 0.76151 0.42476 0.0
H698 H 0.54035 0.79906 0.53366 0.0
H699 H 0.57534 0.8101 0.48183 0.0
C700 C 0.4741 0.77783 0.5862 0.0
C701 C 0.45263 0.79154 0.57012 0.0
C702 C 0.4946 0.77196 0.55708 0.0
C703 C 0.49361 0.77933 0.51141 0.0
C704 C 0.47106 0.79104 0.49476 0.0
C705 C 0.4509 0.7974 0.52402 0.0
C706 C 0.53687 0.77706 0.40853 0.0
C707 C 0.55793 0.79164 0.42387 0.0
C708 C 0.51653 0.77118 0.43793 0.0
C709 C 0.51726 0.77943 0.48318 0.0
C710 C 0.53943 0.79212 0.49918 0.0
C711 C 0.55943 0.79848 0.4696 0.0
H712 H 0.80387 0.4316 0.51215 0.0
H713 H 0.77708 0.47604 0.62621 0.0
H714 H 0.79146 0.46629 0.46143 0.0
H715 H 0.76468 0.51096 0.5752 0.0
H716 H 0.80668 0.57264 0.47964 0.0
H717 H 0.79657 0.53874 0.53351 0.0
H718 H 0.75792 0.49597 0.42813 0.0
H719 H 0.76794 0.53043 0.3742 0.0
C720 C 0.79462 0.44851 0.52623 0.0
C721 C 0.7918 0.45127 0.57317 0.0
C722 C 0.7873 0.46832 0.49711 0.0
C723 C 0.77728 0.49146 0.51437 0.0
C724 C 0.77249 0.49339 0.56102 0.0
C725 C 0.77951 0.47337 0.59017 0.0
C726 C 0.79504 0.55651 0.46859 0.0
C727 C 0.78793 0.55409 0.42311 0.0
C728 C 0.78917 0.5371 0.49939 0.0
C729 C 0.77657 0.51459 0.485 0.0
C730 C 0.76769 0.51309 0.4401 0.0
C731 C 0.77322 0.53282 0.40937 0.0
H732 H 0.47964 0.23435 0.37041 0.0
H733 H 0.43522 0.20649 0.4837 0.0
H734 H 0.51533 0.24485 0.4214 0.0
H735 H 0.47071 0.21682 0.53433 0.0
H736 H 0.53581 0.23694 0.62175 0.0
H737 H 0.50096 0.24805 0.56949 0.0
H738 H 0.54356 0.21306 0.46007 0.0
H739 H 0.57828 0.20214 0.51197 0.0
C740 C 0.47717 0.23125 0.40633 0.0
C741 C 0.45483 0.21922 0.42303 0.0
C742 C 0.49764 0.23714 0.43546 0.0
C743 C 0.49595 0.2314 0.48179 0.0
C744 C 0.47261 0.22167 0.49892 0.0
C745 C 0.45231 0.21554 0.46982 0.0
C746 C 0.53809 0.2324 0.58626 0.0
C747 C 0.55955 0.21827 0.57106 0.0
C748 C 0.51808 0.23865 0.5564 0.0
C749 C 0.51937 0.23115 0.51079 0.0
C750 C 0.542 0.21927 0.4949 0.0
C751 C 0.56184 0.21282 0.52474 0.0
H752 H 0.72173 0.02716 0.12377 0.0
H753 H 0.72044 0.08498 0.01951 0.0
H754 H 0.73089 0.99416 0.06739 0.0
H755 H 0.73156 0.0525 0.96329 0.0
H756 H 0.69323 0.9877 0.88168 0.0
H757 H 0.70382 0.02252 0.93213 0.0
H758 H 0.75325 0.97163 0.00914 0.0
H759 H 0.74157 0.93604 0.95815 0.0
C760 C 0.72459 0.03292 0.08896 0.0
C761 C 0.72001 0.05842 0.07565 0.0
C762 C 0.72997 0.01403 0.05656 0.0
C763 C 0.73132 0.02048 0.01042 0.0
C764 C 0.72978 0.04664 -0.00177 0.0
C765 C 0.72363 0.06533 0.03038 0.0
C766 C 0.70683 0.98407 0.90881 0.0
C767 C 0.71639 0.95922 0.91645 0.0
C768 C 0.7132 1.00418 0.93766 0.0
C769 C 0.72939 1.00005 0.97513 0.0
C770 C 0.74048 0.97545 0.98096 0.0
C771 C 0.73405 0.95513 0.95166 0.0
H772 H 0.99386 0.31308 0.11778 0.0
H773 H 0.94052 0.26737 0.03979 0.0
H774 H 0.02802 0.30352 0.06506 0.0
H775 H 0.97539 0.25677 0.98643 0.0
H776 H 0.02901 0.29167 0.87201 0.0
H777 H 0.99694 0.28076 0.92917 0.0
H778 H 0.05745 0.27668 0.02977 0.0
H779 H 0.089 0.28952 0.97297 0.0
C780 C 0.98975 0.30021 0.08983 0.0
C781 C 0.96462 0.29112 0.08247 0.0
C782 C 0.00946 0.29445 0.05963 0.0
C783 C 1.00461 0.2794 0.02104 0.0
C784 C 0.97975 0.26867 0.01547 0.0
C785 C 0.95985 0.27447 0.04612 0.0
C786 C 0.03544 0.28768 0.90613 0.0
C787 C 0.06128 0.29178 0.91848 0.0
C788 C 0.01709 0.28129 0.93897 0.0
C789 C 0.02444 0.27847 0.98452 0.0
C790 C 0.05092 0.27956 0.99539 0.0
C791 C 0.06907 0.28669 0.96289 0.0
H792 H 0.30222 0.07735 0.98133 0.0
H793 H 0.27829 0.03188 0.86654 0.0
H794 H 0.29099 0.04204 0.0317 0.0
H795 H 0.26725 0.99635 0.91713 0.0
H796 H 0.31257 0.93732 0.01477 0.0
H797 H 0.30174 0.97089 0.96047 0.0
H798 H 0.25717 0.01031 0.0626 0.0
H799 H 0.26772 0.97612 0.11687 0.0
C800 C 0.29384 0.06007 0.96702 0.0
C801 C 0.29146 0.05722 0.92002 0.0
C802 C 0.2872 0.03992 0.99589 0.0
C803 C 0.27841 0.0164 0.97825 0.0
C804 C 0.27406 0.01428 0.93153 0.0
C805 C 0.28032 0.03463 0.90264 0.0
C806 C 0.29956 0.95262 0.02493 0.0
C807 C 0.2908 0.95422 0.06961 0.0
C808 C 0.29328 0.97179 0.99389 0.0
C809 C 0.27865 0.99324 0.00738 0.0
C810 C 0.26843 0.99394 0.05139 0.0
C811 C 0.2743 0.97439 0.08227 0.0
H812 H 0.92954 0.73767 0.95528 0.0
H813 H 0.98808 0.69904 0.8769 0.0
H814 H 0.96252 0.75045 0.0108 0.0
H815 H 0.02086 0.7118 0.9314 0.0
H816 H 0.07816 0.73577 0.03091 0.0
H817 H 0.04566 0.7456 0.97291 0.0
H818 H 0.98542 0.72017 0.06341 0.0
H819 H 0.01781 0.71037 0.12062 0.0
C820 C 0.94959 0.73277 0.9492 0.0
C821 C 0.95642 0.71733 0.91224 0.0
C822 C 0.96841 0.73995 0.9809 0.0
C823 C 0.99429 0.73207 0.97553 0.0
C824 C 1.00124 0.71849 0.93633 0.0
C825 C 0.98245 0.711 0.90526 0.0
C826 C 0.05787 0.73334 0.03876 0.0
C827 C 0.05031 0.72239 0.0799 0.0
C828 C 0.03931 0.7388 0.00564 0.0
C829 C 0.01299 0.73352 0.01352 0.0
C830 C 1.00543 0.72477 0.0564 0.0
C831 C 0.02396 0.71902 0.08911 0.0
H832 H 0.18908 0.33672 0.19901 0.0
H833 H 0.19853 0.41727 0.16651 0.0
H834 H 0.17971 0.3275 0.11967 0.0
H835 H 0.18932 0.40791 0.08759 0.0
H836 H 0.13001 0.38672 0.97788 0.0
H837 H 0.1471 0.3942 0.05295 0.0
H838 H 0.19812 0.32899 0.03814 0.0
H839 H 0.1809 0.32136 0.96188 0.0
C840 C 0.18958 0.35237 0.17493 0.0
C841 C 0.19426 0.37778 0.18923 0.0
C842 C 0.18437 0.34704 0.12948 0.0
C843 C 0.18357 0.36704 0.09766 0.0
C844 C 0.18951 0.39219 0.11157 0.0
C845 C 0.19483 0.3975 0.1568 0.0
C846 C 0.14492 0.37393 0.99034 0.0
C847 C 0.15409 0.35341 0.96387 0.0
C848 C 0.15486 0.37838 0.0333 0.0
C849 C 0.17408 0.36232 0.05119 0.0
C850 C 0.18329 0.34166 0.02503 0.0
C851 C 0.17352 0.33737 0.98147 0.0
H852 H 0.33595 0.82956 0.03909 0.0
H853 H 0.37168 0.90172 0.00269 0.0
H854 H 0.34232 0.8139 0.9614 0.0
H855 H 0.37853 0.88582 0.92606 0.0
H856 H 0.41486 0.83325 0.81655 0.0
H857 H 0.40694 0.84455 0.89525 0.0
H858 H 0.32523 0.83275 0.87589 0.0
H859 H 0.33295 0.8219 0.79619 0.0
C860 C 0.34531 0.84195 0.01468 0.0
C861 C 0.35338 0.86682 0.02697 0.0
C862 C 0.34878 0.83306 0.97033 0.0
C863 C 0.36094 0.8487 0.93804 0.0
C864 C 0.3692 0.8734 0.95047 0.0
C865 C 0.36522 0.88248 0.99429 0.0
C866 C 0.39519 0.83273 0.82901 0.0
C867 C 0.3745 0.8267 0.80003 0.0
C868 C 0.39071 0.83927 0.87405 0.0
C869 C 0.36552 0.83948 0.89142 0.0
C870 C 0.34485 0.83255 0.86317 0.0
C871 C 0.34926 0.82647 0.81765 0.0
H872 H 0.82607 0.64301 0.94818 0.0
H873 H 0.8991 0.66976 0.00122 0.0
H874 H 0.81012 0.63705 0.02518 0.0
H875 H 0.88314 0.66374 0.07789 0.0
H876 H 0.83841 0.67265 0.20887 0.0
H877 H 0.84996 0.6818 0.13063 0.0
H878 H 0.82045 0.60759 0.09021 0.0
H879 H 0.80878 0.59838 0.16838 0.0
C880 C 0.83868 0.64771 0.9762 0.0
C881 C 0.86391 0.65673 0.96854 0.0
C882 C 0.82956 0.6442 0.02026 0.0
C883 C 0.84537 0.64996 0.05753 0.0
C884 C 0.87041 0.6594 0.04985 0.0
C885 C 0.87961 0.66265 0.00589 0.0
C886 C 0.83403 0.65842 0.18325 0.0
C887 C 0.8227 0.63476 0.19494 0.0
C888 C 0.84082 0.6636 0.13849 0.0
C889 C 0.83624 0.64535 0.10436 0.0
C890 C 0.82404 0.6221 0.11573 0.0
C891 C 0.81746 0.6168 0.16056 0.0
H892 H 0.69819 0.17014 0.02927 0.0
H893 H 0.62159 0.13717 0.02681 0.0
H894 H 0.69212 0.18544 0.95149 0.0
H895 H 0.61541 0.15293 0.94997 0.0
H896 H 0.6068 0.20438 0.8254 0.0
H897 H 0.61457 0.1982 0.90633 0.0
H898 H 0.68476 0.15677 0.87615 0.0
H899 H 0.67684 0.16243 0.7954 0.0
C900 C 0.67997 0.16656 0.01236 0.0
C901 C 0.66043 0.15234 0.0337 0.0
C902 C 0.67654 0.17525 0.96807 0.0
C903 C 0.65328 0.17039 0.94516 0.0
C904 C 0.6334 0.15709 0.96722 0.0
C905 C 0.63704 0.14792 0.01094 0.0
C906 C 0.62406 0.19429 0.83613 0.0
C907 C 0.64112 0.1837 0.80428 0.0
C908 C 0.62846 0.19076 0.88226 0.0
C909 C 0.65027 0.17711 0.89712 0.0
C910 C 0.66795 0.16758 0.86537 0.0
C911 C 0.66329 0.17064 0.81929 0.0
H912 H 0.21488 0.63654 0.82205 0.0
H913 H 0.13394 0.64535 0.79013 0.0
H914 H 0.20537 0.64471 0.90189 0.0
H915 H 0.12425 0.65208 0.86913 0.0
H916 H 0.11381 0.68849 0.00248 0.0
H917 H 0.12795 0.68305 0.92498 0.0
H918 H 0.18587 0.62849 0.96893 0.0
H919 H 0.17246 0.6353 0.0474 0.0
C920 C 0.19508 0.64005 0.83217 0.0
C921 C 0.17522 0.64072 0.79981 0.0
C922 C 0.18958 0.64459 0.87789 0.0
C923 C 0.16406 0.64949 0.89209 0.0
C924 C 0.14424 0.6493 0.85956 0.0
C925 C 0.14978 0.64525 0.81411 0.0
C926 C 0.12968 0.67546 0.99558 0.0
C927 C 0.14185 0.66207 0.03077 0.0
C928 C 0.13771 0.67216 0.95106 0.0
C929 C 0.15769 0.65483 0.94031 0.0
C930 C 0.1705 0.64206 0.97584 0.0
C931 C 0.16278 0.64584 0.02076 0.0
H932 H 0.67814 0.83713 0.20717 0.0
H933 H 0.60195 0.81015 0.17056 0.0
H934 H 0.68705 0.84665 0.1281 0.0
H935 H 0.61091 0.81989 0.0915 0.0
H936 H 0.64386 0.82542 0.94701 0.0
H937 H 0.63889 0.80891 0.02414 0.0
H938 H 0.66932 0.88016 0.07707 0.0
H939 H 0.67433 0.89653 0.0008 0.0
C940 C 0.66341 0.83289 0.18227 0.0
C941 C 0.63925 0.82305 0.19535 0.0
C942 C 0.66849 0.83847 0.13697 0.0
C943 C 0.6496 0.8342 0.10365 0.0
C944 C 0.62591 0.82321 0.11635 0.0
C945 C 0.62075 0.81778 0.16173 0.0
C946 C 0.64963 0.83743 0.97517 0.0
C947 C 0.65931 0.86234 0.96778 0.0
C948 C 0.64671 0.82803 0.01925 0.0
C949 C 0.6538 0.84321 0.05663 0.0
C950 C 0.66399 0.86785 0.04902 0.0
C951 C 0.66663 0.87732 0.00524 0.0
H952 H 0.87538 0.36335 0.78881 0.0
H953 H 0.79468 0.37259 0.82183 0.0
H954 H 0.8855 0.35682 0.86762 0.0
H955 H 0.80458 0.3645 0.90156 0.0
H956 H 0.83774 0.37417 0.04673 0.0
H957 H 0.82395 0.38046 0.96833 0.0
H958 H 0.88276 0.32682 0.92437 0.0
H959 H 0.89732 0.32206 0.00178 0.0
C960 C 0.85967 0.36353 0.81299 0.0
C961 C 0.83418 0.36819 0.79901 0.0
C962 C 0.86545 0.35958 0.8584 0.0
C963 C 0.84584 0.35958 0.89128 0.0
C964 C 0.82024 0.36449 0.87737 0.0
C965 C 0.8145 0.36897 0.83167 0.0
C966 C 0.84755 0.36374 0.02009 0.0
C967 C 0.86884 0.34798 0.03009 0.0
C968 C 0.8396 0.36721 0.97518 0.0
C969 C 0.85251 0.35455 0.93959 0.0
C970 C 0.87289 0.33767 0.95039 0.0
C971 C 0.88116 0.33474 0.99489 0.0
H972 H 0.36108 0.11316 0.99343 0.0
H973 H 0.33543 0.18911 0.95406 0.0
H974 H 0.36589 0.12772 0.07088 0.0
H975 H 0.34054 0.20378 0.0326 0.0
H976 H 0.39125 0.21473 0.17183 0.0
H977 H 0.38171 0.20669 0.0918 0.0
H978 H 0.33147 0.14407 0.12942 0.0
H979 H 0.34071 0.15181 0.2085 0.0
C980 C 0.35654 0.13301 0.00132 0.0
C981 C 0.34791 0.15002 0.96777 0.0
C982 C 0.3592 0.14128 0.04566 0.0
C983 C 0.35347 0.16678 0.05739 0.0
C984 C 0.34509 0.18403 0.02402 0.0
C985 C 0.34206 0.17561 0.9794 0.0
C986 C 0.37789 0.19951 0.16295 0.0
C987 C 0.36709 0.18365 0.19644 0.0
C988 C 0.37235 0.19506 0.11733 0.0
C989 C 0.35608 0.17466 0.10488 0.0
C990 C 0.34427 0.15976 0.13839 0.0
C991 C 0.34967 0.16421 0.18365 0.0
H992 H 0.6121 0.8719 0.49395 0.0
H993 H 0.68455 0.83691 0.45531 0.0
H994 H 0.62845 0.87814 0.5705 0.0
H995 H 0.70065 0.84266 0.53293 0.0
H996 H 0.69043 0.8326 0.69994 0.0
H997 H 0.67985 0.82492 0.62008 0.0
H998 H 0.67216 0.90662 0.59901 0.0
H999 H 0.68319 0.9145 0.67782 0.0
C1000 C 0.63149 0.86545 0.50185 0.0
C1001 C 0.6471 0.85402 0.46858 0.0
C1002 C 0.64081 0.86906 0.5456 0.0
C1003 C 0.66572 0.86083 0.55733 0.0
C1004 C 0.68133 0.84907 0.52448 0.0
C1005 C 0.67219 0.84595 0.4802 0.0
C1006 C 0.6869 0.84891 0.67806 0.0
C1007 C 0.68765 0.87414 0.69526 0.0
C1008 C 0.68097 0.8445 0.63247 0.0
C1009 C 0.67522 0.86523 0.60376 0.0
C1010 C 0.67656 0.89038 0.62062 0.0
C1011 C 0.68294 0.89482 0.66572 0.0
H1012 H 0.81922 0.33185 0.52882 0.0
H1013 H 0.88569 0.38135 0.51296 0.0
H1014 H 0.82634 0.31479 0.45238 0.0
H1015 H 0.89271 0.3643 0.43762 0.0
H1016 H 0.91498 0.31118 0.32539 0.0
H1017 H 0.90555 0.32114 0.40396 0.0
H1018 H 0.82538 0.33355 0.37027 0.0
H1019 H 0.83469 0.32356 0.29114 0.0
C1020 C 0.83536 0.33897 0.5092 0.0
C1021 C 0.8519 0.35792 0.52694 0.0
C1022 C 0.83935 0.32929 0.46553 0.0
C1023 C 0.8602 0.33808 0.43936 0.0
C1024 C 0.87672 0.3569 0.45729 0.0
C1025 C 0.87255 0.36679 0.50039 0.0
C1026 C 0.89523 0.31563 0.33464 0.0
C1027 C 0.87564 0.31683 0.30179 0.0
C1028 C 0.88988 0.32141 0.37968 0.0
C1029 C 0.86481 0.32836 0.39302 0.0
C1030 C 0.84486 0.32815 0.36085 0.0
C1031 C 0.85024 0.32253 0.31555 0.0
H1032 H 0.35831 0.17366 0.70933 0.0
H1033 H 0.29696 0.12152 0.67076 0.0
H1034 H 0.36621 0.18336 0.63043 0.0
H1035 H 0.30516 0.13146 0.59109 0.0
H1036 H 0.32152 0.17526 0.45295 0.0
H1037 H 0.30682 0.17104 0.53162 0.0
H1038 H 0.38435 0.15078 0.57214 0.0
H1039 H 0.39891 0.15474 0.49453 0.0
C1040 C 0.34628 0.16445 0.6841 0.0
C1041 C 0.32727 0.14645 0.6963 0.0
C1042 C 0.35082 0.1701 0.63895 0.0
C1043 C 0.33643 0.15796 0.60499 0.0
C1044 C 0.31638 0.14112 0.61692 0.0
C1045 C 0.31185 0.13534 0.66237 0.0
C1046 C 0.33533 0.17002 0.47885 0.0
C1047 C 0.3613 0.16522 0.4678 0.0
C1048 C 0.32692 0.1675 0.52356 0.0
C1049 C 0.34454 0.16074 0.55761 0.0
C1050 C 0.37048 0.15627 0.54646 0.0
C1051 C 0.37875 0.15838 0.50203 0.0
H1052 H 0.12395 0.63275 0.51442 0.0
H1053 H 0.19279 0.67896 0.53009 0.0
H1054 H 0.11759 0.65008 0.43917 0.0
H1055 H 0.18637 0.6963 0.45361 0.0
H1056 H 0.17734 0.68525 0.292 0.0
H1057 H 0.18631 0.67621 0.3716 0.0
H1058 H 0.10713 0.69396 0.40498 0.0
H1059 H 0.09804 0.70299 0.32597 0.0
C1060 C 0.13773 0.64668 0.50182 0.0
C1061 C 0.1589 0.65449 0.52821 0.0
C1062 C 0.13395 0.65674 0.45879 0.0
C1063 C 0.15138 0.67465 0.44077 0.0
C1064 C 0.17266 0.68251 0.46688 0.0
C1065 C 0.17625 0.67269 0.51054 0.0
C1066 C 0.16197 0.68767 0.31642 0.0
C1067 C 0.13689 0.69454 0.30249 0.0
C1068 C 0.16716 0.68263 0.36198 0.0
C1069 C 0.14733 0.68417 0.39422 0.0
C1070 C 0.12268 0.69237 0.38066 0.0
C1071 C 0.11753 0.69757 0.33536 0.0
H1072 H 0.68945 0.17259 0.54711 0.0
H1073 H 0.61405 0.14451 0.50785 0.0
H1074 H 0.70404 0.16848 0.46831 0.0
H1075 H 0.62854 0.14066 0.4303 0.0
H1076 H 0.65055 0.16853 0.29308 0.0
H1077 H 0.64279 0.17607 0.37275 0.0
H1078 H 0.70854 0.12888 0.40697 0.0
H1079 H 0.71658 0.12107 0.32639 0.0
C1080 C 0.67608 0.16554 0.52182 0.0
C1081 C 0.65063 0.15886 0.5336 0.0
C1082 C 0.68445 0.16311 0.47701 0.0
C1083 C 0.66729 0.15444 0.44354 0.0
C1084 C 0.64202 0.14763 0.45551 0.0
C1085 C 0.6338 0.14973 0.49999 0.0
C1086 C 0.66362 0.15991 0.31731 0.0
C1087 C 0.68399 0.14386 0.30335 0.0
C1088 C 0.65915 0.1643 0.36294 0.0
C1089 C 0.67494 0.15285 0.3957 0.0
C1090 C 0.69619 0.13796 0.38209 0.0
C1091 C 0.70066 0.13341 0.33612 0.0
H1092 H 0.13685 0.29551 0.67102 0.0
H1093 H 0.15158 0.37552 0.70109 0.0
H1094 H 0.14667 0.30351 0.59132 0.0
H1095 H 0.16014 0.38374 0.62217 0.0
H1096 H 0.19698 0.39082 0.4895 0.0
H1097 H 0.19148 0.37658 0.56701 0.0
H1098 H 0.13137 0.32418 0.52408 0.0
H1099 H 0.13814 0.33762 0.44564 0.0
C1100 C 0.14207 0.31478 0.66056 0.0
C1101 C 0.14379 0.33481 0.69234 0.0
C1102 C 0.14758 0.3194 0.61493 0.0
C1103 C 0.1546 0.34419 0.6003 0.0
C1104 C 0.15566 0.36422 0.63222 0.0
C1105 C 0.15056 0.35955 0.6776 0.0
C1106 C 0.18284 0.37602 0.49667 0.0
C1107 C 0.16775 0.36551 0.46195 0.0
C1108 C 0.17951 0.36797 0.54109 0.0
C1109 C 0.16049 0.3497 0.55209 0.0
C1110 C 0.14623 0.33823 0.51688 0.0
C1111 C 0.15001 0.34594 0.47202 0.0
H1112 H 0.39358 0.83466 0.49241 0.0
H1113 H 0.32363 0.86734 0.54772 0.0
H1114 H 0.37683 0.84037 0.4165 0.0
H1115 H 0.3067 0.87305 0.4709 0.0
H1116 H 0.30887 0.91074 0.32506 0.0
H1117 H 0.3184 0.90087 0.4039 0.0
H1118 H 0.34245 0.82438 0.36545 0.0
H1119 H 0.33316 0.8342 0.28662 0.0
C1120 C 0.37451 0.84294 0.48838 0.0
C1121 C 0.36001 0.85071 0.52616 0.0
C1122 C 0.36482 0.84601 0.44479 0.0
C1123 C 0.34042 0.85709 0.43768 0.0
C1124 C 0.32564 0.86455 0.47539 0.0
C1125 C 0.33526 0.86119 0.5193 0.0
C1126 C 0.31585 0.89169 0.33344 0.0
C1127 C 0.32045 0.87334 0.29937 0.0
C1128 C 0.32116 0.886 0.37869 0.0
C1129 C 0.33134 0.86192 0.39082 0.0
C1130 C 0.3349 0.84322 0.35705 0.0
C1131 C 0.32946 0.84883 0.31188 0.0
H1132 H 0.90269 0.70106 0.66854 0.0
H1133 H 0.82951 0.66817 0.70858 0.0
H1134 H 0.89338 0.69045 0.58997 0.0
H1135 H 0.82023 0.65773 0.62986 0.0
H1136 H 0.85912 0.68204 0.44727 0.0
H1137 H 0.86354 0.69904 0.52411 0.0
H1138 H 0.84032 0.62548 0.57813 0.0
H1139 H 0.83595 0.60854 0.50205 0.0
C1140 C 0.88443 0.69195 0.66054 0.0
C1141 C 0.86692 0.68528 0.69494 0.0
C1142 C 0.87906 0.68601 0.61545 0.0
C1143 C 0.85618 0.67309 0.60384 0.0
C1144 C 0.83817 0.66744 0.63793 0.0
C1145 C 0.84343 0.67356 0.68298 0.0
C1146 C 0.85484 0.66957 0.47558 0.0
C1147 C 0.8473 0.64389 0.4685 0.0
C1148 C 0.85743 0.67929 0.5195 0.0
C1149 C 0.85215 0.66362 0.55708 0.0
C1150 C 0.84416 0.63814 0.54988 0.0
C1151 C 0.84186 0.62838 0.50619 0.0
H1152 H 0.36701 0.26835 0.39607 0.0
H1153 H 0.32893 0.24416 0.27352 0.0
H1154 H 0.33807 0.30606 0.40023 0.0
H1155 H 0.30098 0.28203 0.27671 0.0
H1156 H 0.27521 0.36726 0.27722 0.0
H1157 H 0.3106 0.33601 0.27885 0.0
H1158 H 0.2816 0.30522 0.40409 0.0
H1159 H 0.24566 0.33598 0.40205 0.0
C1160 C 0.3528 0.27138 0.36974 0.0
C1161 C 0.35006 0.25343 0.33457 0.0
C1162 C 0.33629 0.2928 0.37216 0.0
C1163 C 0.31748 0.29688 0.33863 0.0
C1164 C 0.31546 0.27937 0.30274 0.0
C1165 C 0.33135 0.25771 0.30104 0.0
C1166 C 0.27665 0.35421 0.30562 0.0
C1167 C 0.25755 0.35397 0.33938 0.0
C1168 C 0.29688 0.33634 0.30646 0.0
C1169 C 0.29877 0.31836 0.34165 0.0
C1170 C 0.28063 0.31909 0.37684 0.0
C1171 C 0.26004 0.33657 0.3755 0.0
H1172 H 0.22383 0.70081 0.6452 0.0
H1173 H 0.27694 0.63752 0.66364 0.0
H1174 H 0.25971 0.73032 0.63837 0.0
H1175 H 0.31341 0.66749 0.65602 0.0
H1176 H 0.36445 0.73903 0.70313 0.0
H1177 H 0.33307 0.70388 0.6994 0.0
H1178 H 0.29465 0.74182 0.58836 0.0
H1179 H 0.32546 0.77704 0.59272 0.0
C1180 C 0.24324 0.69311 0.64746 0.0
C1181 C 0.24746 0.66676 0.65526 0.0
C1182 C 0.2639 0.71008 0.64308 0.0
C1183 C 0.2895 0.7013 0.64635 0.0
C1184 C 0.2939 0.67487 0.65353 0.0
C1185 C 0.27305 0.6577 0.65763 0.0
C1186 C 0.34954 0.73963 0.67746 0.0
C1187 C 0.34717 0.76109 0.64878 0.0
C1188 C 0.33162 0.71943 0.67521 0.0
C1189 C 0.31108 0.72024 0.6441 0.0
C1190 C 0.30987 0.74086 0.61345 0.0
C1191 C 0.3276 0.76105 0.61587 0.0
H1192 H 0.63786 0.73368 0.31759 0.0
H1193 H 0.69625 0.78187 0.37858 0.0
H1194 H 0.66689 0.69677 0.32282 0.0
H1195 H 0.72548 0.74553 0.38204 0.0
H1196 H 0.77047 0.6749 0.40983 0.0
H1197 H 0.73585 0.7064 0.41588 0.0
H1198 H 0.7045 0.67994 0.28865 0.0
H1199 H 0.73853 0.64759 0.28392 0.0
C1200 C 0.65684 0.7364 0.33225 0.0
C1201 C 0.66471 0.76081 0.34752 0.0
C1202 C 0.67359 0.71525 0.33497 0.0
C1203 C 0.69869 0.71802 0.35272 0.0
C1204 C 0.70622 0.74236 0.36893 0.0
C1205 C 0.68944 0.76338 0.36664 0.0
C1206 C 0.75592 0.67556 0.38353 0.0
C1207 C 0.75735 0.65889 0.34623 0.0
C1208 C 0.73615 0.69379 0.38677 0.0
C1209 C 0.71753 0.69619 0.35235 0.0
C1210 C 0.71829 0.67863 0.31606 0.0
C1211 C 0.73788 0.66007 0.31321 0.0
H1212 H 0.73474 0.36914 0.68809 0.0
H1213 H 0.7834 0.31849 0.61003 0.0
H1214 H 0.6993 0.33788 0.68289 0.0
H1215 H 0.74799 0.28807 0.60266 0.0
H1216 H 0.70079 0.2244 0.66349 0.0
H1217 H 0.73075 0.25944 0.65638 0.0
H1218 H 0.66739 0.31272 0.63927 0.0
H1219 H 0.63664 0.27698 0.64801 0.0
C1220 C 0.73757 0.35165 0.66881 0.0
C1221 C 0.76188 0.34591 0.65019 0.0
C1222 C 0.71729 0.33379 0.66565 0.0
C1223 C 0.72096 0.31015 0.64325 0.0
C1224 C 0.74469 0.30566 0.62144 0.0
C1225 C 0.76498 0.32313 0.62542 0.0
C1226 C 0.69297 0.24348 0.65803 0.0
C1227 C 0.66616 0.24776 0.65644 0.0
C1228 C 0.71033 0.26369 0.65344 0.0
C1229 C 0.70161 0.28897 0.64657 0.0
C1230 C 0.67476 0.29347 0.64461 0.0
C1231 C 0.65717 0.27301 0.64937 0.0
H1232 H 0.73574 0.82996 0.91141 0.0
H1233 H 0.77001 0.86046 0.78988 0.0
H1234 H 0.77088 0.79904 0.91794 0.0
H1235 H 0.80445 0.82865 0.79476 0.0
H1236 H 0.87089 0.77495 0.82218 0.0
H1237 H 0.84148 0.81149 0.82909 0.0
H1238 H 0.78281 0.76094 0.88305 0.0
H1239 H 0.81242 0.72505 0.8782 0.0
C1240 C 0.75089 0.8301 0.88618 0.0
C1241 C 0.75 0.8475 0.84996 0.0
C1242 C 0.77097 0.81221 0.88965 0.0
C1243 C 0.7904 0.81086 0.85643 0.0
C1244 C 0.79008 0.82914 0.82131 0.0
C1245 C 0.77023 0.84737 0.81833 0.0
C1246 C 0.85182 0.77178 0.83611 0.0
C1247 C 0.84404 0.74702 0.84947 0.0
C1248 C 0.83484 0.79271 0.83978 0.0
C1249 C 0.80958 0.78933 0.85646 0.0
C1250 C 0.80217 0.76461 0.87087 0.0
C1251 C 0.81919 0.74384 0.86775 0.0
H1252 H 0.7283 0.19834 0.14343 0.0
H1253 H 0.78064 0.1344 0.16164 0.0
H1254 H 0.76448 0.22723 0.13452 0.0
H1255 H 0.81744 0.1637 0.1517 0.0
H1256 H 0.86995 0.23375 0.19795 0.0
H1257 H 0.83818 0.19913 0.19356 0.0
H1258 H 0.79914 0.23917 0.08547 0.0
H1259 H 0.83037 0.27404 0.09073 0.0
C1260 C 0.74761 0.19035 0.14509 0.0
C1261 C 0.75151 0.16402 0.15367 0.0
C1262 C 0.76846 0.20697 0.13946 0.0
C1263 C 0.79397 0.19786 0.14215 0.0
C1264 C 0.79802 0.17138 0.14969 0.0
C1265 C 0.77697 0.15458 0.15513 0.0
C1266 C 0.85484 0.23496 0.17271 0.0
C1267 C 0.85244 0.25692 0.14524 0.0
C1268 C 0.83668 0.21501 0.17007 0.0
C1269 C 0.81581 0.21653 0.1397 0.0
C1270 C 0.81458 0.23764 0.11003 0.0
C1271 C 0.83257 0.25762 0.11291 0.0
H1272 H 0.13598 0.23529 0.83961 0.0
H1273 H 0.20225 0.28577 0.83468 0.0
H1274 H 0.16506 0.19821 0.84829 0.0
H1275 H 0.23074 0.24932 0.84214 0.0
H1276 H 0.27909 0.18709 0.8907 0.0
H1277 H 0.24437 0.21845 0.8967 0.0
H1278 H 0.19794 0.17324 0.80486 0.0
H1279 H 0.23268 0.14106 0.8006 0.0
C1280 C 0.15664 0.23851 0.84052 0.0
C1281 C 0.16672 0.26356 0.83646 0.0
C1282 C 0.17328 0.21728 0.84528 0.0
C1283 C 0.20026 0.22077 0.84646 0.0
C1284 C 0.21011 0.24585 0.84251 0.0
C1285 C 0.19366 0.26686 0.83777 0.0
C1286 C 0.26121 0.18356 0.87266 0.0
C1287 C 0.2586 0.16186 0.84486 0.0
C1288 C 0.24137 0.2016 0.87579 0.0
C1289 C 0.21861 0.19875 0.85028 0.0
C1290 C 0.21521 0.17604 0.82494 0.0
C1291 C 0.23506 0.15762 0.82244 0.0
H1292 H 0.19356 0.72874 0.11766 0.0
H1293 H 0.13589 0.78072 0.17074 0.0
H1294 H 0.22408 0.76381 0.11244 0.0
H1295 H 0.16625 0.81639 0.16346 0.0
H1296 H 0.23838 0.86344 0.20464 0.0
H1297 H 0.20339 0.8324 0.19916 0.0
H1298 H 0.23737 0.80147 0.07721 0.0
H1299 H 0.27307 0.83172 0.08425 0.0
C1300 C 0.18717 0.7478 0.12736 0.0
C1301 C 0.16228 0.75181 0.14503 0.0
C1302 C 0.20471 0.76809 0.12402 0.0
C1303 C 0.19781 0.79311 0.13763 0.0
C1304 C 0.17249 0.79734 0.15346 0.0
C1305 C 0.15498 0.77691 0.15734 0.0
C1306 C 0.23819 0.85021 0.17635 0.0
C1307 C 0.25866 0.84982 0.1452 0.0
C1308 C 0.21799 0.83244 0.173 0.0
C1309 C 0.21755 0.81408 0.138 0.0
C1310 C 0.23732 0.81479 0.10534 0.0
C1311 C 0.25774 0.83227 0.10914 0.0
loop_
_geom_bond_atom_site_label_1
_geom_bond_atom_site_label_2
_geom_bond_distance
_geom_bond_site_symmetry_2
_ccdc_geom_bond_type
Fe0 O2 1.918 . S
Fe0 O5 1.997 . S
Fe0 O6 2.002 . S
Fe0 O11 1.976 . S
Fe0 O14 1.996 . S
Fe1 O2 1.918 . S
Fe1 O9 1.997 . S
Fe1 O12 1.996 . S
Fe1 O16 1.976 . S
Fe1 O19 2.002 . S
O2 Fe0 1.918 . S
O2 Fe1 1.918 . S
O2 Fe3 1.918 . S
Fe3 O2 1.918 . S
Fe3 O4 2.002 . S
Fe3 O13 1.976 . S
Fe3 O17 1.996 . S
Fe3 O20 1.997 . S
O4 Fe3 2.002 . S
O4 C21 1.295 . S
O5 Fe0 1.997 . S
O5 C21 1.235 . S
O6 Fe0 2.002 . S
O6 C7 1.295 . S
C7 O6 1.295 . S
C7 O9 1.235 . S
C8 O13 1.287 . S
C8 O14 1.255 . S
O9 Fe1 1.997 . S
O9 C7 1.235 . S
C10 O16 1.287 . S
C10 O17 1.255 . S
O11 Fe0 1.976 . S
O11 C18 1.287 . S
O12 Fe1 1.996 . S
O12 C18 1.255 . S
O13 Fe3 1.976 . S
O13 C8 1.287 . S
O14 Fe0 1.996 . S
O14 C8 1.255 . S
C15 O19 1.295 . S
C15 O20 1.235 . S
O16 Fe1 1.976 . S
O16 C10 1.287 . S
O17 Fe3 1.996 . S
O17 C10 1.255 . S
C18 O11 1.287 . S
C18 O12 1.255 . S
O19 Fe1 2.002 . S
O19 C15 1.295 . S
O20 Fe3 1.997 . S
O20 C15 1.235 . S
C21 O4 1.295 . S
C21 O5 1.235 . S
Fe22 O24 1.918 . S
Fe22 O27 1.997 . S
Fe22 O28 2.002 . S
Fe22 O33 1.976 . S
Fe22 O36 1.996 . S
Fe23 O24 1.918 . S
Fe23 O31 1.997 . S
Fe23 O34 1.996 . S
Fe23 O38 1.976 . S
Fe23 O41 2.002 . S
O24 Fe22 1.918 . S
O24 Fe23 1.918 . S
O24 Fe25 1.918 . S
Fe25 O24 1.918 . S
Fe25 O26 2.002 . S
Fe25 O35 1.976 . S
Fe25 O39 1.996 . S
Fe25 O42 1.997 . S
O26 Fe25 2.002 . S
O26 C43 1.295 . S
O27 Fe22 1.997 . S
O27 C43 1.235 . S
O28 Fe22 2.002 . S
O28 C29 1.295 . S
C29 O28 1.295 . S
C29 O31 1.235 . S
C30 O35 1.287 . S
C30 O36 1.255 . S
O31 Fe23 1.997 . S
O31 C29 1.235 . S
C32 O38 1.287 . S
C32 O39 1.255 . S
O33 Fe22 1.976 . S
O33 C40 1.287 . S
O34 Fe23 1.996 . S
O34 C40 1.255 . S
O35 Fe25 1.976 . S
O35 C30 1.287 . S
O36 Fe22 1.996 . S
O36 C30 1.255 . S
C37 O41 1.295 . S
C37 O42 1.235 . S
O38 Fe23 1.976 . S
O38 C32 1.287 . S
O39 Fe25 1.996 . S
O39 C32 1.255 . S
C40 O33 1.287 . S
C40 O34 1.255 . S
O41 Fe23 2.002 . S
O41 C37 1.295 . S
O42 Fe25 1.997 . S
O42 C37 1.235 . S
C43 O26 1.295 . S
C43 O27 1.235 . S
Fe44 O46 1.918 . S
Fe44 O49 1.997 . S
Fe44 O50 2.002 . S
Fe44 O55 1.976 . S
Fe44 O58 1.996 . S
Fe45 O46 1.918 . S
Fe45 O53 1.997 . S
Fe45 O56 1.996 . S
Fe45 O60 1.976 . S
Fe45 O63 2.002 . S
O46 Fe44 1.918 . S
O46 Fe45 1.918 . S
O46 Fe47 1.918 . S
Fe47 O46 1.918 . S
Fe47 O48 2.002 . S
Fe47 O57 1.976 . S
Fe47 O61 1.996 . S
Fe47 O64 1.997 . S
O48 Fe47 2.002 . S
O48 C65 1.295 . S
O49 Fe44 1.997 . S
O49 C65 1.235 . S
O50 Fe44 2.002 . S
O50 C51 1.295 . S
C51 O50 1.295 . S
C51 O53 1.235 . S
C52 O57 1.287 . S
C52 O58 1.255 . S
O53 Fe45 1.997 . S
O53 C51 1.235 . S
C54 O60 1.287 . S
C54 O61 1.255 . S
O55 Fe44 1.976 . S
O55 C62 1.287 . S
O56 Fe45 1.996 . S
O56 C62 1.255 . S
O57 Fe47 1.976 . S
O57 C52 1.287 . S
O58 Fe44 1.996 . S
O58 C52 1.255 . S
C59 O63 1.295 . S
C59 O64 1.235 . S
O60 Fe45 1.976 . S
O60 C54 1.287 . S
O61 Fe47 1.996 . S
O61 C54 1.255 . S
C62 O55 1.287 . S
C62 O56 1.255 . S
O63 Fe45 2.002 . S
O63 C59 1.295 . S
O64 Fe47 1.997 . S
O64 C59 1.235 . S
C65 O48 1.295 . S
C65 O49 1.235 . S
Fe66 O68 1.918 . S
Fe66 O71 1.997 . S
Fe66 O72 2.002 . S
Fe66 O77 1.976 . S
Fe66 O80 1.996 . S
Fe67 O68 1.918 . S
Fe67 O75 1.997 . S
Fe67 O78 1.996 . S
Fe67 O82 1.976 . S
Fe67 O85 2.002 . S
O68 Fe66 1.918 . S
O68 Fe67 1.918 . S
O68 Fe69 1.918 . S
Fe69 O68 1.918 . S
Fe69 O70 2.002 . S
Fe69 O79 1.976 . S
Fe69 O83 1.996 . S
Fe69 O86 1.997 . S
O70 Fe69 2.002 . S
O70 C87 1.295 . S
O71 Fe66 1.997 . S
O71 C87 1.235 . S
O72 Fe66 2.002 . S
O72 C73 1.295 . S
C73 O72 1.295 . S
C73 O75 1.235 . S
C74 O79 1.287 . S
C74 O80 1.255 . S
O75 Fe67 1.997 . S
O75 C73 1.235 . S
C76 O82 1.287 . S
C76 O83 1.255 . S
O77 Fe66 1.976 . S
O77 C84 1.287 . S
O78 Fe67 1.996 . S
O78 C84 1.255 . S
O79 Fe69 1.976 . S
O79 C74 1.287 . S
O80 Fe66 1.996 . S
O80 C74 1.255 . S
C81 O85 1.295 . S
C81 O86 1.235 . S
O82 Fe67 1.976 . S
O82 C76 1.287 . S
O83 Fe69 1.996 . S
O83 C76 1.255 . S
C84 O77 1.287 . S
C84 O78 1.255 . S
O85 Fe67 2.002 . S
O85 C81 1.295 . S
O86 Fe69 1.997 . S
O86 C81 1.235 . S
C87 O70 1.295 . S
C87 O71 1.235 . S
Fe88 O90 1.918 . S
Fe88 O93 1.997 . S
Fe88 O94 2.002 . S
Fe88 O99 1.976 . S
Fe88 O102 1.996 . S
Fe89 O90 1.918 . S
Fe89 O97 1.997 . S
Fe89 O100 1.996 . S
Fe89 O104 1.976 . S
Fe89 O107 2.002 . S
O90 Fe88 1.918 . S
O90 Fe89 1.918 . S
O90 Fe91 1.918 . S
Fe91 O90 1.918 . S
Fe91 O92 2.002 . S
Fe91 O101 1.976 . S
Fe91 O105 1.996 . S
Fe91 O108 1.997 . S
O92 Fe91 2.002 . S
O92 C109 1.295 . S
O93 Fe88 1.997 . S
O93 C109 1.235 . S
O94 Fe88 2.002 . S
O94 C95 1.295 . S
C95 O94 1.295 . S
C95 O97 1.235 . S
C96 O101 1.287 . S
C96 O102 1.255 . S
O97 Fe89 1.997 . S
O97 C95 1.235 . S
C98 O104 1.287 . S
C98 O105 1.255 . S
O99 Fe88 1.976 . S
O99 C106 1.287 . S
O100 Fe89 1.996 . S
O100 C106 1.255 . S
O101 Fe91 1.976 . S
O101 C96 1.287 . S
O102 Fe88 1.996 . S
O102 C96 1.255 . S
C103 O107 1.295 . S
C103 O108 1.235 . S
O104 Fe89 1.976 . S
O104 C98 1.287 . S
O105 Fe91 1.996 . S
O105 C98 1.255 . S
C106 O99 1.287 . S
C106 O100 1.255 . S
O107 Fe89 2.002 . S
O107 C103 1.295 . S
O108 Fe91 1.997 . S
O108 C103 1.235 . S
C109 O92 1.295 . S
C109 O93 1.235 . S
Fe110 O112 1.918 . S
Fe110 O115 1.997 . S
Fe110 O116 2.002 . S
Fe110 O121 1.976 . S
Fe110 O124 1.996 . S
Fe111 O112 1.918 . S
Fe111 O119 1.997 . S
Fe111 O122 1.996 . S
Fe111 O126 1.976 . S
Fe111 O129 2.002 . S
O112 Fe110 1.918 . S
O112 Fe111 1.918 . S
O112 Fe113 1.918 . S
Fe113 O112 1.918 . S
Fe113 O114 2.002 . S
Fe113 O123 1.976 . S
Fe113 O127 1.996 . S
Fe113 O130 1.997 . S
O114 Fe113 2.002 . S
O114 C131 1.295 . S
O115 Fe110 1.997 . S
O115 C131 1.235 . S
O116 Fe110 2.002 . S
O116 C117 1.295 . S
C117 O116 1.295 . S
C117 O119 1.235 . S
C118 O123 1.287 . S
C118 O124 1.255 . S
O119 Fe111 1.997 . S
O119 C117 1.235 . S
C120 O126 1.287 . S
C120 O127 1.255 . S
O121 Fe110 1.976 . S
O121 C128 1.287 . S
O122 Fe111 1.996 . S
O122 C128 1.255 . S
O123 Fe113 1.976 . S
O123 C118 1.287 . S
O124 Fe110 1.996 . S
O124 C118 1.255 . S
C125 O129 1.295 . S
C125 O130 1.235 . S
O126 Fe111 1.976 . S
O126 C120 1.287 . S
O127 Fe113 1.996 . S
O127 C120 1.255 . S
C128 O121 1.287 . S
C128 O122 1.255 . S
O129 Fe111 2.002 . S
O129 C125 1.295 . S
O130 Fe113 1.997 . S
O130 C125 1.235 . S
C131 O114 1.295 . S
C131 O115 1.235 . S
Fe132 O134 1.918 . S
Fe132 O137 1.997 . S
Fe132 O138 2.002 . S
Fe132 O143 1.976 . S
Fe132 O146 1.996 . S
Fe133 O134 1.918 . S
Fe133 O141 1.997 . S
Fe133 O144 1.996 . S
Fe133 O148 1.976 . S
Fe133 O151 2.002 . S
O134 Fe132 1.918 . S
O134 Fe133 1.918 . S
O134 Fe135 1.918 . S
Fe135 O134 1.918 . S
Fe135 O136 2.002 . S
Fe135 O145 1.976 . S
Fe135 O149 1.996 . S
Fe135 O152 1.997 . S
O136 Fe135 2.002 . S
O136 C153 1.295 . S
O137 Fe132 1.997 . S
O137 C153 1.235 . S
O138 Fe132 2.002 . S
O138 C139 1.295 . S
C139 O138 1.295 . S
C139 O141 1.235 . S
C140 O145 1.287 . S
C140 O146 1.255 . S
O141 Fe133 1.997 . S
O141 C139 1.235 . S
C142 O148 1.287 . S
C142 O149 1.255 . S
O143 Fe132 1.976 . S
O143 C150 1.287 . S
O144 Fe133 1.996 . S
O144 C150 1.255 . S
O145 Fe135 1.976 . S
O145 C140 1.287 . S
O146 Fe132 1.996 . S
O146 C140 1.255 . S
C147 O151 1.295 . S
C147 O152 1.235 . S
O148 Fe133 1.976 . S
O148 C142 1.287 . S
O149 Fe135 1.996 . S
O149 C142 1.255 . S
C150 O143 1.287 . S
C150 O144 1.255 . S
O151 Fe133 2.002 . S
O151 C147 1.295 . S
O152 Fe135 1.997 . S
O152 C147 1.235 . S
C153 O136 1.295 . S
C153 O137 1.235 . S
Fe154 O156 1.918 . S
Fe154 O159 1.997 . S
Fe154 O160 2.002 . S
Fe154 O165 1.976 . S
Fe154 O168 1.996 . S
Fe155 O156 1.918 . S
Fe155 O163 1.997 . S
Fe155 O166 1.996 . S
Fe155 O170 1.976 . S
Fe155 O173 2.002 . S
O156 Fe154 1.918 . S
O156 Fe155 1.918 . S
O156 Fe157 1.918 . S
Fe157 O156 1.918 . S
Fe157 O158 2.002 . S
Fe157 O167 1.976 . S
Fe157 O171 1.996 . S
Fe157 O174 1.997 . S
O158 Fe157 2.002 . S
O158 C175 1.295 . S
O159 Fe154 1.997 . S
O159 C175 1.235 . S
O160 Fe154 2.002 . S
O160 C161 1.295 . S
C161 O160 1.295 . S
C161 O163 1.235 . S
C162 O167 1.287 . S
C162 O168 1.255 . S
O163 Fe155 1.997 . S
O163 C161 1.235 . S
C164 O170 1.287 . S
C164 O171 1.255 . S
O165 Fe154 1.976 . S
O165 C172 1.287 . S
O166 Fe155 1.996 . S
O166 C172 1.255 . S
O167 Fe157 1.976 . S
O167 C162 1.287 . S
O168 Fe154 1.996 . S
O168 C162 1.255 . S
C169 O173 1.295 . S
C169 O174 1.235 . S
O170 Fe155 1.976 . S
O170 C164 1.287 . S
O171 Fe157 1.996 . S
O171 C164 1.255 . S
C172 O165 1.287 . S
C172 O166 1.255 . S
O173 Fe155 2.002 . S
O173 C169 1.295 . S
O174 Fe157 1.997 . S
O174 C169 1.235 . S
C175 O158 1.295 . S
C175 O159 1.235 . S
Fe176 O178 1.918 . S
Fe176 O181 1.997 . S
Fe176 O182 2.002 . S
Fe176 O187 1.976 . S
Fe176 O190 1.996 . S
Fe177 O178 1.918 . S
Fe177 O185 1.997 . S
Fe177 O188 1.996 . S
Fe177 O192 1.976 . S
Fe177 O195 2.002 . S
O178 Fe176 1.918 . S
O178 Fe177 1.918 . S
O178 Fe179 1.918 . S
Fe179 O178 1.918 . S
Fe179 O180 2.002 . S
Fe179 O189 1.976 . S
Fe179 O193 1.996 . S
Fe179 O196 1.997 . S
O180 Fe179 2.002 . S
O180 C197 1.295 . S
O181 Fe176 1.997 . S
O181 C197 1.235 . S
O182 Fe176 2.002 . S
O182 C183 1.295 . S
C183 O182 1.295 . S
C183 O185 1.235 . S
C184 O189 1.287 . S
C184 O190 1.255 . S
O185 Fe177 1.997 . S
O185 C183 1.235 . S
C186 O192 1.287 . S
C186 O193 1.255 . S
O187 Fe176 1.976 . S
O187 C194 1.287 . S
O188 Fe177 1.996 . S
O188 C194 1.255 . S
O189 Fe179 1.976 . S
O189 C184 1.287 . S
O190 Fe176 1.996 . S
O190 C184 1.255 . S
C191 O195 1.295 . S
C191 O196 1.235 . S
O192 Fe177 1.976 . S
O192 C186 1.287 . S
O193 Fe179 1.996 . S
O193 C186 1.255 . S
C194 O187 1.287 . S
C194 O188 1.255 . S
O195 Fe177 2.002 . S
O195 C191 1.295 . S
O196 Fe179 1.997 . S
O196 C191 1.235 . S
C197 O180 1.295 . S
C197 O181 1.235 . S
Fe198 O200 1.918 . S
Fe198 O203 1.997 . S
Fe198 O204 2.002 . S
Fe198 O209 1.976 . S
Fe198 O212 1.996 . S
Fe199 O200 1.918 . S
Fe199 O207 1.997 . S
Fe199 O210 1.996 . S
Fe199 O214 1.976 . S
Fe199 O217 2.002 . S
O200 Fe198 1.918 . S
O200 Fe199 1.918 . S
O200 Fe201 1.918 . S
Fe201 O200 1.918 . S
Fe201 O202 2.002 . S
Fe201 O211 1.976 . S
Fe201 O215 1.996 . S
Fe201 O218 1.997 . S
O202 Fe201 2.002 . S
O202 C219 1.295 . S
O203 Fe198 1.997 . S
O203 C219 1.235 . S
O204 Fe198 2.002 . S
O204 C205 1.295 . S
C205 O204 1.295 . S
C205 O207 1.235 . S
C206 O211 1.287 . S
C206 O212 1.255 . S
O207 Fe199 1.997 . S
O207 C205 1.235 . S
C208 O214 1.287 . S
C208 O215 1.255 . S
O209 Fe198 1.976 . S
O209 C216 1.287 . S
O210 Fe199 1.996 . S
O210 C216 1.255 . S
O211 Fe201 1.976 . S
O211 C206 1.287 . S
O212 Fe198 1.996 . S
O212 C206 1.255 . S
C213 O217 1.295 . S
C213 O218 1.235 . S
O214 Fe199 1.976 . S
O214 C208 1.287 . S
O215 Fe201 1.996 . S
O215 C208 1.255 . S
C216 O209 1.287 . S
C216 O210 1.255 . S
O217 Fe199 2.002 . S
O217 C213 1.295 . S
O218 Fe201 1.997 . S
O218 C213 1.235 . S
C219 O202 1.295 . S
C219 O203 1.235 . S
Fe220 O222 1.918 . S
Fe220 O225 1.997 . S
Fe220 O226 2.002 . S
Fe220 O231 1.976 . S
Fe220 O234 1.996 . S
Fe221 O222 1.918 . S
Fe221 O229 1.997 . S
Fe221 O232 1.996 . S
Fe221 O236 1.976 . S
Fe221 O239 2.002 . S
O222 Fe220 1.918 . S
O222 Fe221 1.918 . S
O222 Fe223 1.918 . S
Fe223 O222 1.918 . S
Fe223 O224 2.002 . S
Fe223 O233 1.976 . S
Fe223 O237 1.996 . S
Fe223 O240 1.997 . S
O224 Fe223 2.002 . S
O224 C241 1.295 . S
O225 Fe220 1.997 . S
O225 C241 1.235 . S
O226 Fe220 2.002 . S
O226 C227 1.295 . S
C227 O226 1.295 . S
C227 O229 1.235 . S
C228 O233 1.287 . S
C228 O234 1.255 . S
O229 Fe221 1.997 . S
O229 C227 1.235 . S
C230 O236 1.287 . S
C230 O237 1.255 . S
O231 Fe220 1.976 . S
O231 C238 1.287 . S
O232 Fe221 1.996 . S
O232 C238 1.255 . S
O233 Fe223 1.976 . S
O233 C228 1.287 . S
O234 Fe220 1.996 . S
O234 C228 1.255 . S
C235 O239 1.295 . S
C235 O240 1.235 . S
O236 Fe221 1.976 . S
O236 C230 1.287 . S
O237 Fe223 1.996 . S
O237 C230 1.255 . S
C238 O231 1.287 . S
C238 O232 1.255 . S
O239 Fe221 2.002 . S
O239 C235 1.295 . S
O240 Fe223 1.997 . S
O240 C235 1.235 . S
C241 O224 1.295 . S
C241 O225 1.235 . S
Fe242 O244 1.918 . S
Fe242 O247 1.997 . S
Fe242 O248 2.002 . S
Fe242 O253 1.976 . S
Fe242 O256 1.996 . S
Fe243 O244 1.918 . S
Fe243 O251 1.997 . S
Fe243 O254 1.996 . S
Fe243 O258 1.976 . S
Fe243 O261 2.002 . S
O244 Fe242 1.918 . S
O244 Fe243 1.918 . S
O244 Fe245 1.918 . S
Fe245 O244 1.918 . S
Fe245 O246 2.002 . S
Fe245 O255 1.976 . S
Fe245 O259 1.996 . S
Fe245 O262 1.997 . S
O246 Fe245 2.002 . S
O246 C263 1.295 . S
O247 Fe242 1.997 . S
O247 C263 1.235 . S
O248 Fe242 2.002 . S
O248 C249 1.295 . S
C249 O248 1.295 . S
C249 O251 1.235 . S
C250 O255 1.287 . S
C250 O256 1.255 . S
O251 Fe243 1.997 . S
O251 C249 1.235 . S
C252 O258 1.287 . S
C252 O259 1.255 . S
O253 Fe242 1.976 . S
O253 C260 1.287 . S
O254 Fe243 1.996 . S
O254 C260 1.255 . S
O255 Fe245 1.976 . S
O255 C250 1.287 . S
O256 Fe242 1.996 . S
O256 C250 1.255 . S
C257 O261 1.295 . S
C257 O262 1.235 . S
O258 Fe243 1.976 . S
O258 C252 1.287 . S
O259 Fe245 1.996 . S
O259 C252 1.255 . S
C260 O253 1.287 . S
C260 O254 1.255 . S
O261 Fe243 2.002 . S
O261 C257 1.295 . S
O262 Fe245 1.997 . S
O262 C257 1.235 . S
C263 O246 1.295 . S
C263 O247 1.235 . S
Fe264 O266 1.918 . S
Fe264 O269 1.997 . S
Fe264 O270 2.002 . S
Fe264 O275 1.976 . S
Fe264 O278 1.996 . S
Fe265 O266 1.918 . S
Fe265 O273 1.997 . S
Fe265 O276 1.996 . S
Fe265 O280 1.976 . S
Fe265 O283 2.002 . S
O266 Fe264 1.918 . S
O266 Fe265 1.918 . S
O266 Fe267 1.918 . S
Fe267 O266 1.918 . S
Fe267 O268 2.002 . S
Fe267 O277 1.976 . S
Fe267 O281 1.996 . S
Fe267 O284 1.997 . S
O268 Fe267 2.002 . S
O268 C285 1.295 . S
O269 Fe264 1.997 . S
O269 C285 1.235 . S
O270 Fe264 2.002 . S
O270 C271 1.295 . S
C271 O270 1.295 . S
C271 O273 1.235 . S
C272 O277 1.287 . S
C272 O278 1.255 . S
O273 Fe265 1.997 . S
O273 C271 1.235 . S
C274 O280 1.287 . S
C274 O281 1.255 . S
O275 Fe264 1.976 . S
O275 C282 1.287 . S
O276 Fe265 1.996 . S
O276 C282 1.255 . S
O277 Fe267 1.976 . S
O277 C272 1.287 . S
O278 Fe264 1.996 . S
O278 C272 1.255 . S
C279 O283 1.295 . S
C279 O284 1.235 . S
O280 Fe265 1.976 . S
O280 C274 1.287 . S
O281 Fe267 1.996 . S
O281 C274 1.255 . S
C282 O275 1.287 . S
C282 O276 1.255 . S
O283 Fe265 2.002 . S
O283 C279 1.295 . S
O284 Fe267 1.997 . S
O284 C279 1.235 . S
C285 O268 1.295 . S
C285 O269 1.235 . S
Fe286 O288 1.918 . S
Fe286 O291 1.997 . S
Fe286 O292 2.002 . S
Fe286 O297 1.976 . S
Fe286 O300 1.996 . S
Fe287 O288 1.918 . S
Fe287 O295 1.997 . S
Fe287 O298 1.996 . S
Fe287 O302 1.976 . S
Fe287 O305 2.002 . S
O288 Fe286 1.918 . S
O288 Fe287 1.918 . S
O288 Fe289 1.918 . S
Fe289 O288 1.918 . S
Fe289 O290 2.002 . S
Fe289 O299 1.976 . S
Fe289 O303 1.996 . S
Fe289 O306 1.997 . S
O290 Fe289 2.002 . S
O290 C307 1.295 . S
O291 Fe286 1.997 . S
O291 C307 1.235 . S
O292 Fe286 2.002 . S
O292 C293 1.295 . S
C293 O292 1.295 . S
C293 O295 1.235 . S
C294 O299 1.287 . S
C294 O300 1.255 . S
O295 Fe287 1.997 . S
O295 C293 1.235 . S
C296 O302 1.287 . S
C296 O303 1.255 . S
O297 Fe286 1.976 . S
O297 C304 1.287 . S
O298 Fe287 1.996 . S
O298 C304 1.255 . S
O299 Fe289 1.976 . S
O299 C294 1.287 . S
O300 Fe286 1.996 . S
O300 C294 1.255 . S
C301 O305 1.295 . S
C301 O306 1.235 . S
O302 Fe287 1.976 . S
O302 C296 1.287 . S
O303 Fe289 1.996 . S
O303 C296 1.255 . S
C304 O297 1.287 . S
C304 O298 1.255 . S
O305 Fe287 2.002 . S
O305 C301 1.295 . S
O306 Fe289 1.997 . S
O306 C301 1.235 . S
C307 O290 1.295 . S
C307 O291 1.235 . S
Fe308 O310 1.918 . S
Fe308 O313 1.997 . S
Fe308 O314 2.002 . S
Fe308 O319 1.976 . S
Fe308 O322 1.996 . S
Fe309 O310 1.918 . S
Fe309 O317 1.997 . S
Fe309 O320 1.996 . S
Fe309 O324 1.976 . S
Fe309 O327 2.002 . S
O310 Fe308 1.918 . S
O310 Fe309 1.918 . S
O310 Fe311 1.918 . S
Fe311 O310 1.918 . S
Fe311 O312 2.002 . S
Fe311 O321 1.976 . S
Fe311 O325 1.996 . S
Fe311 O328 1.997 . S
O312 Fe311 2.002 . S
O312 C329 1.295 . S
O313 Fe308 1.997 . S
O313 C329 1.235 . S
O314 Fe308 2.002 . S
O314 C315 1.295 . S
C315 O314 1.295 . S
C315 O317 1.235 . S
C316 O321 1.287 . S
C316 O322 1.255 . S
O317 Fe309 1.997 . S
O317 C315 1.235 . S
C318 O324 1.287 . S
C318 O325 1.255 . S
O319 Fe308 1.976 . S
O319 C326 1.287 . S
O320 Fe309 1.996 . S
O320 C326 1.255 . S
O321 Fe311 1.976 . S
O321 C316 1.287 . S
O322 Fe308 1.996 . S
O322 C316 1.255 . S
C323 O327 1.295 . S
C323 O328 1.235 . S
O324 Fe309 1.976 . S
O324 C318 1.287 . S
O325 Fe311 1.996 . S
O325 C318 1.255 . S
C326 O319 1.287 . S
C326 O320 1.255 . S
O327 Fe309 2.002 . S
O327 C323 1.295 . S
O328 Fe311 1.997 . S
O328 C323 1.235 . S
C329 O312 1.295 . S
C329 O313 1.235 . S
Fe330 O332 1.918 . S
Fe330 O335 1.997 . S
Fe330 O336 2.002 . S
Fe330 O341 1.976 . S
Fe330 O344 1.996 . S
Fe331 O332 1.918 . S
Fe331 O339 1.997 . S
Fe331 O342 1.996 . S
Fe331 O346 1.976 . S
Fe331 O349 2.002 . S
O332 Fe330 1.918 . S
O332 Fe331 1.918 . S
O332 Fe333 1.918 . S
Fe333 O332 1.918 . S
Fe333 O334 2.002 . S
Fe333 O343 1.976 . S
Fe333 O347 1.996 . S
Fe333 O350 1.997 . S
O334 Fe333 2.002 . S
O334 C351 1.295 . S
O335 Fe330 1.997 . S
O335 C351 1.235 . S
O336 Fe330 2.002 . S
O336 C337 1.295 . S
C337 O336 1.295 . S
C337 O339 1.235 . S
C338 O343 1.287 . S
C338 O344 1.255 . S
O339 Fe331 1.997 . S
O339 C337 1.235 . S
C340 O346 1.287 . S
C340 O347 1.255 . S
O341 Fe330 1.976 . S
O341 C348 1.287 . S
O342 Fe331 1.996 . S
O342 C348 1.255 . S
O343 Fe333 1.976 . S
O343 C338 1.287 . S
O344 Fe330 1.996 . S
O344 C338 1.255 . S
C345 O349 1.295 . S
C345 O350 1.235 . S
O346 Fe331 1.976 . S
O346 C340 1.287 . S
O347 Fe333 1.996 . S
O347 C340 1.255 . S
C348 O341 1.287 . S
C348 O342 1.255 . S
O349 Fe331 2.002 . S
O349 C345 1.295 . S
O350 Fe333 1.997 . S
O350 C345 1.235 . S
C351 O334 1.295 . S
C351 O335 1.235 . S
H352 C360 0.950 . S
H353 C365 0.950 . S
H354 C362 0.950 . S
H355 C364 0.950 . S
H356 C366 0.950 . S
H357 C368 0.950 . S
H358 C370 0.950 . S
H359 C371 0.950 . S
C360 H352 0.950 . S
C360 C361 1.386 . S
C360 C362 1.391 . S
C361 C360 1.386 . S
C361 C365 1.393 . S
C362 H354 0.950 . S
C362 C360 1.391 . S
C362 C363 1.400 . S
C363 C362 1.400 . S
C363 C364 1.398 . S
C363 C369 1.491 . S
C364 H355 0.950 . S
C364 C363 1.398 . S
C364 C365 1.391 . S
C365 H353 0.950 . S
C365 C361 1.393 . S
C365 C364 1.391 . S
C366 H356 0.950 . S
C366 C367 1.386 . S
C366 C368 1.391 . S
C367 C366 1.386 . S
C367 C371 1.393 . S
C368 H357 0.950 . S
C368 C366 1.391 . S
C368 C369 1.400 . S
C369 C363 1.491 . S
C369 C368 1.400 . S
C369 C370 1.398 . S
C370 H358 0.950 . S
C370 C369 1.398 . S
C370 C371 1.391 . S
C371 H359 0.950 . S
C371 C367 1.393 . S
C371 C370 1.391 . S
H372 C380 0.950 . S
H373 C385 0.950 . S
H374 C382 0.950 . S
H375 C384 0.950 . S
H376 C386 0.950 . S
H377 C388 0.950 . S
H378 C390 0.950 . S
H379 C391 0.950 . S
C380 H372 0.950 . S
C380 C381 1.386 . S
C380 C382 1.391 . S
C381 C380 1.386 . S
C381 C385 1.393 . S
C382 H374 0.950 . S
C382 C380 1.391 . S
C382 C383 1.400 . S
C383 C382 1.400 . S
C383 C384 1.398 . S
C383 C389 1.491 . S
C384 H375 0.950 . S
C384 C383 1.398 . S
C384 C385 1.391 . S
C385 H373 0.950 . S
C385 C381 1.393 . S
C385 C384 1.391 . S
C386 H376 0.950 . S
C386 C387 1.386 . S
C386 C388 1.391 . S
C387 C386 1.386 . S
C387 C391 1.393 . S
C388 H377 0.950 . S
C388 C386 1.391 . S
C388 C389 1.400 . S
C389 C383 1.491 . S
C389 C388 1.400 . S
C389 C390 1.398 . S
C390 H378 0.950 . S
C390 C389 1.398 . S
C390 C391 1.391 . S
C391 H379 0.950 . S
C391 C387 1.393 . S
C391 C390 1.391 . S
H392 C400 0.950 . S
H393 C405 0.950 . S
H394 C402 0.950 . S
H395 C404 0.950 . S
H396 C406 0.950 . S
H397 C408 0.950 . S
H398 C410 0.950 . S
H399 C411 0.950 . S
C400 H392 0.950 . S
C400 C401 1.386 . S
C400 C402 1.391 . S
C401 C400 1.386 . S
C401 C405 1.393 . S
C402 H394 0.950 . S
C402 C400 1.391 . S
C402 C403 1.400 . S
C403 C402 1.400 . S
C403 C404 1.398 . S
C403 C409 1.491 . S
C404 H395 0.950 . S
C404 C403 1.398 . S
C404 C405 1.391 . S
C405 H393 0.950 . S
C405 C401 1.393 . S
C405 C404 1.391 . S
C406 H396 0.950 . S
C406 C407 1.386 . S
C406 C408 1.391 . S
C407 C406 1.386 . S
C407 C411 1.393 . S
C408 H397 0.950 . S
C408 C406 1.391 . S
C408 C409 1.400 . S
C409 C403 1.491 . S
C409 C408 1.400 . S
C409 C410 1.398 . S
C410 H398 0.950 . S
C410 C409 1.398 . S
C410 C411 1.391 . S
C411 H399 0.950 . S
C411 C407 1.393 . S
C411 C410 1.391 . S
H412 C420 0.950 . S
H413 C425 0.950 . S
H414 C422 0.950 . S
H415 C424 0.950 . S
H416 C426 0.950 . S
H417 C428 0.950 . S
H418 C430 0.950 . S
H419 C431 0.950 . S
C420 H412 0.950 . S
C420 C421 1.386 . S
C420 C422 1.391 . S
C421 C420 1.386 . S
C421 C425 1.393 . S
C422 H414 0.950 . S
C422 C420 1.391 . S
C422 C423 1.400 . S
C423 C422 1.400 . S
C423 C424 1.398 . S
C423 C429 1.491 . S
C424 H415 0.950 . S
C424 C423 1.398 . S
C424 C425 1.391 . S
C425 H413 0.950 . S
C425 C421 1.393 . S
C425 C424 1.391 . S
C426 H416 0.950 . S
C426 C427 1.386 . S
C426 C428 1.391 . S
C427 C426 1.386 . S
C427 C431 1.393 . S
C428 H417 0.950 . S
C428 C426 1.391 . S
C428 C429 1.400 . S
C429 C423 1.491 . S
C429 C428 1.400 . S
C429 C430 1.398 . S
C430 H418 0.950 . S
C430 C429 1.398 . S
C430 C431 1.391 . S
C431 H419 0.950 . S
C431 C427 1.393 . S
C431 C430 1.391 . S
H432 C440 0.950 . S
H433 C445 0.950 . S
H434 C442 0.950 . S
H435 C444 0.950 . S
H436 C446 0.950 . S
H437 C448 0.950 . S
H438 C450 0.950 . S
H439 C451 0.950 . S
C440 H432 0.950 . S
C440 C441 1.386 . S
C440 C442 1.391 . S
C441 C440 1.386 . S
C441 C445 1.393 . S
C442 H434 0.950 . S
C442 C440 1.391 . S
C442 C443 1.400 . S
C443 C442 1.400 . S
C443 C444 1.398 . S
C443 C449 1.491 . S
C444 H435 0.950 . S
C444 C443 1.398 . S
C444 C445 1.391 . S
C445 H433 0.950 . S
C445 C441 1.393 . S
C445 C444 1.391 . S
C446 H436 0.950 . S
C446 C447 1.386 . S
C446 C448 1.391 . S
C447 C446 1.386 . S
C447 C451 1.393 . S
C448 H437 0.950 . S
C448 C446 1.391 . S
C448 C449 1.400 . S
C449 C443 1.491 . S
C449 C448 1.400 . S
C449 C450 1.398 . S
C450 H438 0.950 . S
C450 C449 1.398 . S
C450 C451 1.391 . S
C451 H439 0.950 . S
C451 C447 1.393 . S
C451 C450 1.391 . S
H452 C460 0.950 . S
H453 C465 0.950 . S
H454 C462 0.950 . S
H455 C464 0.950 . S
H456 C466 0.950 . S
H457 C468 0.950 . S
H458 C470 0.950 . S
H459 C471 0.950 . S
C460 H452 0.950 . S
C460 C461 1.386 . S
C460 C462 1.391 . S
C461 C460 1.386 . S
C461 C465 1.393 . S
C462 H454 0.950 . S
C462 C460 1.391 . S
C462 C463 1.400 . S
C463 C462 1.400 . S
C463 C464 1.398 . S
C463 C469 1.491 . S
C464 H455 0.950 . S
C464 C463 1.398 . S
C464 C465 1.391 . S
C465 H453 0.950 . S
C465 C461 1.393 . S
C465 C464 1.391 . S
C466 H456 0.950 . S
C466 C467 1.386 . S
C466 C468 1.391 . S
C467 C466 1.386 . S
C467 C471 1.393 . S
C468 H457 0.950 . S
C468 C466 1.391 . S
C468 C469 1.400 . S
C469 C463 1.491 . S
C469 C468 1.400 . S
C469 C470 1.398 . S
C470 H458 0.950 . S
C470 C469 1.398 . S
C470 C471 1.391 . S
C471 H459 0.950 . S
C471 C467 1.393 . S
C471 C470 1.391 . S
H472 C480 0.950 . S
H473 C485 0.950 . S
H474 C482 0.950 . S
H475 C484 0.950 . S
H476 C486 0.950 . S
H477 C488 0.950 . S
H478 C490 0.950 . S
H479 C491 0.950 . S
C480 H472 0.950 . S
C480 C481 1.386 . S
C480 C482 1.391 . S
C481 C480 1.386 . S
C481 C485 1.393 . S
C482 H474 0.950 . S
C482 C480 1.391 . S
C482 C483 1.400 . S
C483 C482 1.400 . S
C483 C484 1.398 . S
C483 C489 1.491 . S
C484 H475 0.950 . S
C484 C483 1.398 . S
C484 C485 1.391 . S
C485 H473 0.950 . S
C485 C481 1.393 . S
C485 C484 1.391 . S
C486 H476 0.950 . S
C486 C487 1.386 . S
C486 C488 1.391 . S
C487 C486 1.386 . S
C487 C491 1.393 . S
C488 H477 0.950 . S
C488 C486 1.391 . S
C488 C489 1.400 . S
C489 C483 1.491 . S
C489 C488 1.400 . S
C489 C490 1.398 . S
C490 H478 0.950 . S
C490 C489 1.398 . S
C490 C491 1.391 . S
C491 H479 0.950 . S
C491 C487 1.393 . S
C491 C490 1.391 . S
H492 C500 0.950 . S
H493 C505 0.950 . S
H494 C502 0.950 . S
H495 C504 0.950 . S
H496 C506 0.950 . S
H497 C508 0.950 . S
H498 C510 0.950 . S
H499 C511 0.950 . S
C500 H492 0.950 . S
C500 C501 1.386 . S
C500 C502 1.391 . S
C501 C500 1.386 . S
C501 C505 1.393 . S
C502 H494 0.950 . S
C502 C500 1.391 . S
C502 C503 1.400 . S
C503 C502 1.400 . S
C503 C504 1.398 . S
C503 C509 1.491 . S
C504 H495 0.950 . S
C504 C503 1.398 . S
C504 C505 1.391 . S
C505 H493 0.950 . S
C505 C501 1.393 . S
C505 C504 1.391 . S
C506 H496 0.950 . S
C506 C507 1.386 . S
C506 C508 1.391 . S
C507 C506 1.386 . S
C507 C511 1.393 . S
C508 H497 0.950 . S
C508 C506 1.391 . S
C508 C509 1.400 . S
C509 C503 1.491 . S
C509 C508 1.400 . S
C509 C510 1.398 . S
C510 H498 0.950 . S
C510 C509 1.398 . S
C510 C511 1.391 . S
C511 H499 0.950 . S
C511 C507 1.393 . S
C511 C510 1.391 . S
H512 C520 0.950 . S
H513 C525 0.950 . S
H514 C522 0.950 . S
H515 C524 0.950 . S
H516 C526 0.950 . S
H517 C528 0.950 . S
H518 C530 0.950 . S
H519 C531 0.950 . S
C520 H512 0.950 . S
C520 C521 1.386 . S
C520 C522 1.391 1_565 S
C521 C520 1.386 . S
C521 C525 1.393 . S
C522 H514 0.950 . S
C522 C520 1.391 1_545 S
C522 C523 1.400 . S
C523 C522 1.400 . S
C523 C524 1.398 . S
C523 C529 1.491 . S
C524 H515 0.950 . S
C524 C523 1.398 . S
C524 C525 1.391 1_545 S
C525 H513 0.950 . S
C525 C521 1.393 . S
C525 C524 1.391 1_565 S
C526 H516 0.950 . S
C526 C527 1.386 . S
C526 C528 1.391 . S
C527 C526 1.386 . S
C527 C531 1.393 . S
C528 H517 0.950 . S
C528 C526 1.391 . S
C528 C529 1.400 . S
C529 C523 1.491 . S
C529 C528 1.400 . S
C529 C530 1.398 . S
C530 H518 0.950 . S
C530 C529 1.398 . S
C530 C531 1.391 . S
C531 H519 0.950 . S
C531 C527 1.393 . S
C531 C530 1.391 . S
H532 C540 0.950 . S
H533 C545 0.950 . S
H534 C542 0.950 . S
H535 C544 0.950 . S
H536 C546 0.950 . S
H537 C548 0.950 . S
H538 C550 0.950 . S
H539 C551 0.950 . S
C540 H532 0.950 . S
C540 C541 1.386 . S
C540 C542 1.391 . S
C541 C540 1.386 . S
C541 C545 1.393 . S
C542 H534 0.950 . S
C542 C540 1.391 . S
C542 C543 1.400 . S
C543 C542 1.400 . S
C543 C544 1.398 . S
C543 C549 1.491 . S
C544 H535 0.950 . S
C544 C543 1.398 . S
C544 C545 1.391 . S
C545 H533 0.950 . S
C545 C541 1.393 . S
C545 C544 1.391 . S
C546 H536 0.950 . S
C546 C547 1.386 . S
C546 C548 1.391 1_655 S
C547 C546 1.386 . S
C547 C551 1.393 . S
C548 H537 0.950 . S
C548 C546 1.391 1_455 S
C548 C549 1.400 . S
C549 C543 1.491 . S
C549 C548 1.400 . S
C549 C550 1.398 . S
C550 H538 0.950 . S
C550 C549 1.398 . S
C550 C551 1.391 1_455 S
C551 H539 0.950 . S
C551 C547 1.393 . S
C551 C550 1.391 1_655 S
H552 C560 0.950 . S
H553 C565 0.950 . S
H554 C562 0.950 . S
H555 C564 0.950 . S
H556 C566 0.950 . S
H557 C568 0.950 . S
H558 C570 0.950 . S
H559 C571 0.950 . S
C560 H552 0.950 . S
C560 C561 1.386 . S
C560 C562 1.391 . S
C561 C560 1.386 . S
C561 C565 1.393 . S
C562 H554 0.950 . S
C562 C560 1.391 . S
C562 C563 1.400 . S
C563 C562 1.400 . S
C563 C564 1.398 . S
C563 C569 1.491 . S
C564 H555 0.950 . S
C564 C563 1.398 . S
C564 C565 1.391 . S
C565 H553 0.950 . S
C565 C561 1.393 . S
C565 C564 1.391 . S
C566 H556 0.950 . S
C566 C567 1.386 . S
C566 C568 1.391 1_545 S
C567 C566 1.386 . S
C567 C571 1.393 . S
C568 H557 0.950 . S
C568 C566 1.391 1_565 S
C568 C569 1.400 . S
C569 C563 1.491 . S
C569 C568 1.400 . S
C569 C570 1.398 . S
C570 H558 0.950 . S
C570 C569 1.398 . S
C570 C571 1.391 1_565 S
C571 H559 0.950 . S
C571 C567 1.393 . S
C571 C570 1.391 1_545 S
H572 C580 0.950 . S
H573 C585 0.950 . S
H574 C582 0.950 . S
H575 C584 0.950 . S
H576 C586 0.950 . S
H577 C588 0.950 . S
H578 C590 0.950 . S
H579 C591 0.950 . S
C580 H572 0.950 . S
C580 C581 1.386 . S
C580 C582 1.391 1_455 S
C581 C580 1.386 . S
C581 C585 1.393 . S
C582 H574 0.950 . S
C582 C580 1.391 1_655 S
C582 C583 1.400 . S
C583 C582 1.400 . S
C583 C584 1.398 . S
C583 C589 1.491 . S
C584 H575 0.950 . S
C584 C583 1.398 . S
C584 C585 1.391 1_655 S
C585 H573 0.950 . S
C585 C581 1.393 . S
C585 C584 1.391 1_455 S
C586 H576 0.950 . S
C586 C587 1.386 . S
C586 C588 1.391 . S
C587 C586 1.386 . S
C587 C591 1.393 . S
C588 H577 0.950 . S
C588 C586 1.391 . S
C588 C589 1.400 . S
C589 C583 1.491 . S
C589 C588 1.400 . S
C589 C590 1.398 . S
C590 H578 0.950 . S
C590 C589 1.398 . S
C590 C591 1.391 . S
C591 H579 0.950 . S
C591 C587 1.393 . S
C591 C590 1.391 . S
H592 C600 0.950 . S
H593 C605 0.950 . S
H594 C602 0.950 . S
H595 C604 0.950 . S
H596 C606 0.950 . S
H597 C608 0.950 . S
H598 C610 0.950 . S
H599 C611 0.950 . S
C600 H592 0.950 . S
C600 C601 1.386 . S
C600 C602 1.391 1_545 S
C601 C600 1.386 . S
C601 C605 1.393 . S
C602 H594 0.950 . S
C602 C600 1.391 1_565 S
C602 C603 1.400 . S
C603 C602 1.400 . S
C603 C604 1.398 . S
C603 C609 1.491 . S
C604 H595 0.950 . S
C604 C603 1.398 . S
C604 C605 1.391 1_565 S
C605 H593 0.950 . S
C605 C601 1.393 . S
C605 C604 1.391 1_545 S
C606 H596 0.950 . S
C606 C607 1.386 . S
C606 C608 1.391 . S
C607 C606 1.386 . S
C607 C611 1.393 . S
C608 H597 0.950 . S
C608 C606 1.391 . S
C608 C609 1.400 . S
C609 C603 1.491 . S
C609 C608 1.400 . S
C609 C610 1.398 . S
C610 H598 0.950 . S
C610 C609 1.398 . S
C610 C611 1.391 . S
C611 H599 0.950 . S
C611 C607 1.393 . S
C611 C610 1.391 . S
H612 C620 0.950 . S
H613 C625 0.950 . S
H614 C622 0.950 . S
H615 C624 0.950 . S
H616 C626 0.950 . S
H617 C628 0.950 . S
H618 C630 0.950 . S
H619 C631 0.950 . S
C620 H612 0.950 . S
C620 C621 1.386 . S
C620 C622 1.391 . S
C621 C620 1.386 . S
C621 C625 1.393 . S
C622 H614 0.950 . S
C622 C620 1.391 . S
C622 C623 1.400 . S
C623 C622 1.400 . S
C623 C624 1.398 . S
C623 C629 1.491 . S
C624 H615 0.950 . S
C624 C623 1.398 . S
C624 C625 1.391 . S
C625 H613 0.950 . S
C625 C621 1.393 . S
C625 C624 1.391 . S
C626 H616 0.950 . S
C626 C627 1.386 . S
C626 C628 1.391 1_455 S
C627 C626 1.386 . S
C627 C631 1.393 . S
C628 H617 0.950 . S
C628 C626 1.391 1_655 S
C628 C629 1.400 . S
C629 C623 1.491 . S
C629 C628 1.400 . S
C629 C630 1.398 . S
C630 H618 0.950 . S
C630 C629 1.398 . S
C630 C631 1.391 1_655 S
C631 H619 0.950 . S
C631 C627 1.393 . S
C631 C630 1.391 1_455 S
H632 C640 0.950 . S
H633 C645 0.950 . S
H634 C642 0.950 . S
H635 C644 0.950 . S
H636 C646 0.950 . S
H637 C648 0.950 . S
H638 C650 0.950 . S
H639 C651 0.950 . S
C640 H632 0.950 . S
C640 C641 1.386 . S
C640 C642 1.391 . S
C641 C640 1.386 . S
C641 C645 1.393 . S
C642 H634 0.950 . S
C642 C640 1.391 . S
C642 C643 1.400 . S
C643 C642 1.400 . S
C643 C644 1.398 . S
C643 C649 1.491 . S
C644 H635 0.950 . S
C644 C643 1.398 . S
C644 C645 1.391 . S
C645 H633 0.950 . S
C645 C641 1.393 . S
C645 C644 1.391 . S
C646 H636 0.950 . S
C646 C647 1.386 . S
C646 C648 1.391 1_565 S
C647 C646 1.386 . S
C647 C651 1.393 . S
C648 H637 0.950 . S
C648 C646 1.391 1_545 S
C648 C649 1.400 . S
C649 C643 1.491 . S
C649 C648 1.400 . S
C649 C650 1.398 . S
C650 H638 0.950 . S
C650 C649 1.398 . S
C650 C651 1.391 1_545 S
C651 H639 0.950 . S
C651 C647 1.393 . S
C651 C650 1.391 1_565 S
H652 C660 0.950 . S
H653 C665 0.950 . S
H654 C662 0.950 . S
H655 C664 0.950 . S
H656 C666 0.950 . S
H657 C668 0.950 . S
H658 C670 0.950 . S
H659 C671 0.950 . S
C660 H652 0.950 . S
C660 C661 1.386 . S
C660 C662 1.391 . S
C661 C660 1.386 . S
C661 C665 1.393 . S
C662 H654 0.950 . S
C662 C660 1.391 . S
C662 C663 1.400 . S
C663 C662 1.400 . S
C663 C664 1.398 . S
C663 C669 1.491 . S
C664 H655 0.950 . S
C664 C663 1.398 . S
C664 C665 1.391 . S
C665 H653 0.950 . S
C665 C661 1.393 . S
C665 C664 1.391 . S
C666 H656 0.950 . S
C666 C667 1.386 . S
C666 C668 1.391 1_655 S
C667 C666 1.386 . S
C667 C671 1.393 . S
C668 H657 0.950 . S
C668 C666 1.391 1_455 S
C668 C669 1.400 . S
C669 C663 1.491 . S
C669 C668 1.400 . S
C669 C670 1.398 . S
C670 H658 0.950 . S
C670 C669 1.398 . S
C670 C671 1.391 1_455 S
C671 H659 0.950 . S
C671 C667 1.393 . S
C671 C670 1.391 1_655 S
H672 C680 0.950 . S
H673 C685 0.950 . S
H674 C682 0.950 . S
H675 C684 0.950 . S
H676 C686 0.950 . S
H677 C688 0.950 . S
H678 C690 0.950 . S
H679 C691 0.950 . S
C680 H672 0.950 . S
C680 C681 1.386 . S
C680 C682 1.391 . S
C681 C680 1.386 . S
C681 C685 1.393 . S
C682 H674 0.950 . S
C682 C680 1.391 . S
C682 C683 1.400 . S
C683 C682 1.400 . S
C683 C684 1.398 . S
C683 C689 1.491 . S
C684 H675 0.950 . S
C684 C683 1.398 . S
C684 C685 1.391 . S
C685 H673 0.950 . S
C685 C681 1.393 . S
C685 C684 1.391 . S
C686 H676 0.950 . S
C686 C687 1.386 . S
C686 C688 1.391 . S
C687 C686 1.386 . S
C687 C691 1.393 . S
C688 H677 0.950 . S
C688 C686 1.391 . S
C688 C689 1.400 . S
C689 C683 1.491 . S
C689 C688 1.400 . S
C689 C690 1.398 . S
C690 H678 0.950 . S
C690 C689 1.398 . S
C690 C691 1.391 . S
C691 H679 0.950 . S
C691 C687 1.393 . S
C691 C690 1.391 . S
H692 C700 0.950 . S
H693 C705 0.950 . S
H694 C702 0.950 . S
H695 C704 0.950 . S
H696 C706 0.950 . S
H697 C708 0.950 . S
H698 C710 0.950 . S
H699 C711 0.950 . S
C700 H692 0.950 . S
C700 C701 1.386 . S
C700 C702 1.391 . S
C701 C700 1.386 . S
C701 C705 1.393 . S
C702 H694 0.950 . S
C702 C700 1.391 . S
C702 C703 1.400 . S
C703 C702 1.400 . S
C703 C704 1.398 . S
C703 C709 1.491 . S
C704 H695 0.950 . S
C704 C703 1.398 . S
C704 C705 1.391 . S
C705 H693 0.950 . S
C705 C701 1.393 . S
C705 C704 1.391 . S
C706 H696 0.950 . S
C706 C707 1.386 . S
C706 C708 1.391 . S
C707 C706 1.386 . S
C707 C711 1.393 . S
C708 H697 0.950 . S
C708 C706 1.391 . S
C708 C709 1.400 . S
C709 C703 1.491 . S
C709 C708 1.400 . S
C709 C710 1.398 . S
C710 H698 0.950 . S
C710 C709 1.398 . S
C710 C711 1.391 . S
C711 H699 0.950 . S
C711 C707 1.393 . S
C711 C710 1.391 . S
H712 C720 0.950 . S
H713 C725 0.950 . S
H714 C722 0.950 . S
H715 C724 0.950 . S
H716 C726 0.950 . S
H717 C728 0.950 . S
H718 C730 0.950 . S
H719 C731 0.950 . S
C720 H712 0.950 . S
C720 C721 1.386 . S
C720 C722 1.391 . S
C721 C720 1.386 . S
C721 C725 1.393 . S
C722 H714 0.950 . S
C722 C720 1.391 . S
C722 C723 1.400 . S
C723 C722 1.400 . S
C723 C724 1.398 . S
C723 C729 1.491 . S
C724 H715 0.950 . S
C724 C723 1.398 . S
C724 C725 1.391 . S
C725 H713 0.950 . S
C725 C721 1.393 . S
C725 C724 1.391 . S
C726 H716 0.950 . S
C726 C727 1.386 . S
C726 C728 1.391 . S
C727 C726 1.386 . S
C727 C731 1.393 . S
C728 H717 0.950 . S
C728 C726 1.391 . S
C728 C729 1.400 . S
C729 C723 1.491 . S
C729 C728 1.400 . S
C729 C730 1.398 . S
C730 H718 0.950 . S
C730 C729 1.398 . S
C730 C731 1.391 . S
C731 H719 0.950 . S
C731 C727 1.393 . S
C731 C730 1.391 . S
H732 C740 0.950 . S
H733 C745 0.950 . S
H734 C742 0.950 . S
H735 C744 0.950 . S
H736 C746 0.950 . S
H737 C748 0.950 . S
H738 C750 0.950 . S
H739 C751 0.950 . S
C740 H732 0.950 . S
C740 C741 1.386 . S
C740 C742 1.391 . S
C741 C740 1.386 . S
C741 C745 1.393 . S
C742 H734 0.950 . S
C742 C740 1.391 . S
C742 C743 1.400 . S
C743 C742 1.400 . S
C743 C744 1.398 . S
C743 C749 1.491 . S
C744 H735 0.950 . S
C744 C743 1.398 . S
C744 C745 1.391 . S
C745 H733 0.950 . S
C745 C741 1.393 . S
C745 C744 1.391 . S
C746 H736 0.950 . S
C746 C747 1.386 . S
C746 C748 1.391 . S
C747 C746 1.386 . S
C747 C751 1.393 . S
C748 H737 0.950 . S
C748 C746 1.391 . S
C748 C749 1.400 . S
C749 C743 1.491 . S
C749 C748 1.400 . S
C749 C750 1.398 . S
C750 H738 0.950 . S
C750 C749 1.398 . S
C750 C751 1.391 . S
C751 H739 0.950 . S
C751 C747 1.393 . S
C751 C750 1.391 . S
H752 C760 0.950 . S
H753 C765 0.950 . S
H754 C762 0.950 1_565 S
H755 C764 0.950 1_556 S
H756 C766 0.950 . S
H757 C768 0.950 1_545 S
H758 C770 0.950 1_554 S
H759 C771 0.950 . S
C760 H752 0.950 . S
C760 C761 1.386 . S
C760 C762 1.391 . S
C761 C760 1.386 . S
C761 C765 1.393 . S
C762 H754 0.950 1_545 S
C762 C760 1.391 . S
C762 C763 1.400 . S
C763 C762 1.400 . S
C763 C764 1.398 . S
C763 C769 1.491 1_544 S
C764 H755 0.950 1_554 S
C764 C763 1.398 . S
C764 C765 1.391 . S
C765 H753 0.950 . S
C765 C761 1.393 . S
C765 C764 1.391 . S
C766 H756 0.950 . S
C766 C767 1.386 . S
C766 C768 1.391 . S
C767 C766 1.386 . S
C767 C771 1.393 . S
C768 H757 0.950 1_565 S
C768 C766 1.391 . S
C768 C769 1.400 . S
C769 C763 1.491 1_566 S
C769 C768 1.400 . S
C769 C770 1.398 . S
C770 H758 0.950 1_556 S
C770 C769 1.398 . S
C770 C771 1.391 . S
C771 H759 0.950 . S
C771 C767 1.393 . S
C771 C770 1.391 . S
H772 C780 0.950 . S
H773 C785 0.950 . S
H774 C782 0.950 . S
H775 C784 0.950 . S
H776 C786 0.950 . S
H777 C788 0.950 . S
H778 C790 0.950 . S
H779 C791 0.950 . S
C780 H772 0.950 . S
C780 C781 1.386 . S
C780 C782 1.391 . S
C781 C780 1.386 . S
C781 C785 1.393 . S
C782 H774 0.950 . S
C782 C780 1.391 . S
C782 C783 1.400 . S
C783 C782 1.400 . S
C783 C784 1.398 . S
C783 C789 1.491 1_654 S
C784 H775 0.950 . S
C784 C783 1.398 . S
C784 C785 1.391 . S
C785 H773 0.950 . S
C785 C781 1.393 . S
C785 C784 1.391 . S
C786 H776 0.950 . S
C786 C787 1.386 . S
C786 C788 1.391 . S
C787 C786 1.386 . S
C787 C791 1.393 . S
C788 H777 0.950 . S
C788 C786 1.391 . S
C788 C789 1.400 . S
C789 C783 1.491 1_456 S
C789 C788 1.400 . S
C789 C790 1.398 . S
C790 H778 0.950 . S
C790 C789 1.398 . S
C790 C791 1.391 . S
C791 H779 0.950 . S
C791 C787 1.393 . S
C791 C790 1.391 . S
H792 C800 0.950 . S
H793 C805 0.950 . S
H794 C802 0.950 . S
H795 C804 0.950 . S
H796 C806 0.950 . S
H797 C808 0.950 . S
H798 C810 0.950 . S
H799 C811 0.950 . S
C800 H792 0.950 . S
C800 C801 1.386 . S
C800 C802 1.391 . S
C801 C800 1.386 . S
C801 C805 1.393 . S
C802 H794 0.950 . S
C802 C800 1.391 . S
C802 C803 1.400 . S
C803 C802 1.400 . S
C803 C804 1.398 . S
C803 C809 1.491 1_546 S
C804 H795 0.950 . S
C804 C803 1.398 . S
C804 C805 1.391 . S
C805 H793 0.950 . S
C805 C801 1.393 . S
C805 C804 1.391 . S
C806 H796 0.950 . S
C806 C807 1.386 . S
C806 C808 1.391 . S
C807 C806 1.386 . S
C807 C811 1.393 . S
C808 H797 0.950 . S
C808 C806 1.391 . S
C808 C809 1.400 . S
C809 C803 1.491 1_564 S
C809 C808 1.400 . S
C809 C810 1.398 . S
C810 H798 0.950 . S
C810 C809 1.398 . S
C810 C811 1.391 . S
C811 H799 0.950 . S
C811 C807 1.393 . S
C811 C810 1.391 . S
H812 C820 0.950 . S
H813 C825 0.950 . S
H814 C822 0.950 1_554 S
H815 C824 0.950 1_455 S
H816 C826 0.950 . S
H817 C828 0.950 1_556 S
H818 C830 0.950 1_655 S
H819 C831 0.950 . S
C820 H812 0.950 . S
C820 C821 1.386 . S
C820 C822 1.391 . S
C821 C820 1.386 . S
C821 C825 1.393 . S
C822 H814 0.950 1_556 S
C822 C820 1.391 . S
C822 C823 1.400 . S
C823 C822 1.400 . S
C823 C824 1.398 . S
C823 C829 1.491 1_656 S
C824 H815 0.950 1_655 S
C824 C823 1.398 . S
C824 C825 1.391 . S
C825 H813 0.950 . S
C825 C821 1.393 . S
C825 C824 1.391 . S
C826 H816 0.950 . S
C826 C827 1.386 . S
C826 C828 1.391 . S
C827 C826 1.386 . S
C827 C831 1.393 . S
C828 H817 0.950 1_554 S
C828 C826 1.391 . S
C828 C829 1.400 . S
C829 C823 1.491 1_454 S
C829 C828 1.400 . S
C829 C830 1.398 . S
C830 H818 0.950 1_455 S
C830 C829 1.398 . S
C830 C831 1.391 . S
C831 H819 0.950 . S
C831 C827 1.393 . S
C831 C830 1.391 . S
H832 C840 0.950 . S
H833 C845 0.950 . S
H834 C842 0.950 . S
H835 C844 0.950 . S
H836 C846 0.950 . S
H837 C848 0.950 . S
H838 C850 0.950 . S
H839 C851 0.950 . S
C840 H832 0.950 . S
C840 C841 1.386 . S
C840 C842 1.391 . S
C841 C840 1.386 . S
C841 C845 1.393 . S
C842 H834 0.950 . S
C842 C840 1.391 . S
C842 C843 1.400 . S
C843 C842 1.400 . S
C843 C844 1.398 . S
C843 C849 1.491 . S
C844 H835 0.950 . S
C844 C843 1.398 . S
C844 C845 1.391 . S
C845 H833 0.950 . S
C845 C841 1.393 . S
C845 C844 1.391 . S
C846 H836 0.950 . S
C846 C847 1.386 . S
C846 C848 1.391 1_556 S
C847 C846 1.386 . S
C847 C851 1.393 . S
C848 H837 0.950 . S
C848 C846 1.391 1_554 S
C848 C849 1.400 . S
C849 C843 1.491 . S
C849 C848 1.400 . S
C849 C850 1.398 . S
C850 H838 0.950 . S
C850 C849 1.398 . S
C850 C851 1.391 1_554 S
C851 H839 0.950 . S
C851 C847 1.393 . S
C851 C850 1.391 1_556 S
H852 C860 0.950 . S
H853 C865 0.950 . S
H854 C862 0.950 . S
H855 C864 0.950 . S
H856 C866 0.950 . S
H857 C868 0.950 . S
H858 C870 0.950 . S
H859 C871 0.950 . S
C860 H852 0.950 . S
C860 C861 1.386 . S
C860 C862 1.391 1_554 S
C861 C860 1.386 . S
C861 C865 1.393 . S
C862 H854 0.950 . S
C862 C860 1.391 1_556 S
C862 C863 1.400 . S
C863 C862 1.400 . S
C863 C864 1.398 . S
C863 C869 1.491 . S
C864 H855 0.950 . S
C864 C863 1.398 . S
C864 C865 1.391 1_556 S
C865 H853 0.950 . S
C865 C861 1.393 . S
C865 C864 1.391 1_554 S
C866 H856 0.950 . S
C866 C867 1.386 . S
C866 C868 1.391 . S
C867 C866 1.386 . S
C867 C871 1.393 . S
C868 H857 0.950 . S
C868 C866 1.391 . S
C868 C869 1.400 . S
C869 C863 1.491 . S
C869 C868 1.400 . S
C869 C870 1.398 . S
C870 H858 0.950 . S
C870 C869 1.398 . S
C870 C871 1.391 . S
C871 H859 0.950 . S
C871 C867 1.393 . S
C871 C870 1.391 . S
H872 C880 0.950 . S
H873 C885 0.950 . S
H874 C882 0.950 . S
H875 C884 0.950 . S
H876 C886 0.950 . S
H877 C888 0.950 . S
H878 C890 0.950 . S
H879 C891 0.950 . S
C880 H872 0.950 . S
C880 C881 1.386 . S
C880 C882 1.391 1_556 S
C881 C880 1.386 . S
C881 C885 1.393 . S
C882 H874 0.950 . S
C882 C880 1.391 1_554 S
C882 C883 1.400 . S
C883 C882 1.400 . S
C883 C884 1.398 . S
C883 C889 1.491 . S
C884 H875 0.950 . S
C884 C883 1.398 . S
C884 C885 1.391 1_554 S
C885 H873 0.950 . S
C885 C881 1.393 . S
C885 C884 1.391 1_556 S
C886 H876 0.950 . S
C886 C887 1.386 . S
C886 C888 1.391 . S
C887 C886 1.386 . S
C887 C891 1.393 . S
C888 H877 0.950 . S
C888 C886 1.391 . S
C888 C889 1.400 . S
C889 C883 1.491 . S
C889 C888 1.400 . S
C889 C890 1.398 . S
C890 H878 0.950 . S
C890 C889 1.398 . S
C890 C891 1.391 . S
C891 H879 0.950 . S
C891 C887 1.393 . S
C891 C890 1.391 . S
H892 C900 0.950 . S
H893 C905 0.950 . S
H894 C902 0.950 . S
H895 C904 0.950 . S
H896 C906 0.950 . S
H897 C908 0.950 . S
H898 C910 0.950 . S
H899 C911 0.950 . S
C900 H892 0.950 . S
C900 C901 1.386 . S
C900 C902 1.391 1_554 S
C901 C900 1.386 . S
C901 C905 1.393 . S
C902 H894 0.950 . S
C902 C900 1.391 1_556 S
C902 C903 1.400 . S
C903 C902 1.400 . S
C903 C904 1.398 . S
C903 C909 1.491 . S
C904 H895 0.950 . S
C904 C903 1.398 . S
C904 C905 1.391 1_556 S
C905 H893 0.950 . S
C905 C901 1.393 . S
C905 C904 1.391 1_554 S
C906 H896 0.950 . S
C906 C907 1.386 . S
C906 C908 1.391 . S
C907 C906 1.386 . S
C907 C911 1.393 . S
C908 H897 0.950 . S
C908 C906 1.391 . S
C908 C909 1.400 . S
C909 C903 1.491 . S
C909 C908 1.400 . S
C909 C910 1.398 . S
C910 H898 0.950 . S
C910 C909 1.398 . S
C910 C911 1.391 . S
C911 H899 0.950 . S
C911 C907 1.393 . S
C911 C910 1.391 . S
H912 C920 0.950 . S
H913 C925 0.950 . S
H914 C922 0.950 . S
H915 C924 0.950 . S
H916 C926 0.950 . S
H917 C928 0.950 . S
H918 C930 0.950 . S
H919 C931 0.950 . S
C920 H912 0.950 . S
C920 C921 1.386 . S
C920 C922 1.391 . S
C921 C920 1.386 . S
C921 C925 1.393 . S
C922 H914 0.950 . S
C922 C920 1.391 . S
C922 C923 1.400 . S
C923 C922 1.400 . S
C923 C924 1.398 . S
C923 C929 1.491 . S
C924 H915 0.950 . S
C924 C923 1.398 . S
C924 C925 1.391 . S
C925 H913 0.950 . S
C925 C921 1.393 . S
C925 C924 1.391 . S
C926 H916 0.950 . S
C926 C927 1.386 . S
C926 C928 1.391 1_554 S
C927 C926 1.386 . S
C927 C931 1.393 . S
C928 H917 0.950 . S
C928 C926 1.391 1_556 S
C928 C929 1.400 . S
C929 C923 1.491 . S
C929 C928 1.400 . S
C929 C930 1.398 . S
C930 H918 0.950 . S
C930 C929 1.398 . S
C930 C931 1.391 1_556 S
C931 H919 0.950 . S
C931 C927 1.393 . S
C931 C930 1.391 1_554 S
H932 C940 0.950 . S
H933 C945 0.950 . S
H934 C942 0.950 . S
H935 C944 0.950 . S
H936 C946 0.950 . S
H937 C948 0.950 . S
H938 C950 0.950 . S
H939 C951 0.950 . S
C940 H932 0.950 . S
C940 C941 1.386 . S
C940 C942 1.391 . S
C941 C940 1.386 . S
C941 C945 1.393 . S
C942 H934 0.950 . S
C942 C940 1.391 . S
C942 C943 1.400 . S
C943 C942 1.400 . S
C943 C944 1.398 . S
C943 C949 1.491 . S
C944 H935 0.950 . S
C944 C943 1.398 . S
C944 C945 1.391 . S
C945 H933 0.950 . S
C945 C941 1.393 . S
C945 C944 1.391 . S
C946 H936 0.950 . S
C946 C947 1.386 . S
C946 C948 1.391 1_556 S
C947 C946 1.386 . S
C947 C951 1.393 . S
C948 H937 0.950 . S
C948 C946 1.391 1_554 S
C948 C949 1.400 . S
C949 C943 1.491 . S
C949 C948 1.400 . S
C949 C950 1.398 . S
C950 H938 0.950 . S
C950 C949 1.398 . S
C950 C951 1.391 1_554 S
C951 H939 0.950 . S
C951 C947 1.393 . S
C951 C950 1.391 1_556 S
H952 C960 0.950 . S
H953 C965 0.950 . S
H954 C962 0.950 . S
H955 C964 0.950 . S
H956 C966 0.950 . S
H957 C968 0.950 . S
H958 C970 0.950 . S
H959 C971 0.950 . S
C960 H952 0.950 . S
C960 C961 1.386 . S
C960 C962 1.391 . S
C961 C960 1.386 . S
C961 C965 1.393 . S
C962 H954 0.950 . S
C962 C960 1.391 . S
C962 C963 1.400 . S
C963 C962 1.400 . S
C963 C964 1.398 . S
C963 C969 1.491 . S
C964 H955 0.950 . S
C964 C963 1.398 . S
C964 C965 1.391 . S
C965 H953 0.950 . S
C965 C961 1.393 . S
C965 C964 1.391 . S
C966 H956 0.950 . S
C966 C967 1.386 . S
C966 C968 1.391 1_554 S
C967 C966 1.386 . S
C967 C971 1.393 . S
C968 H957 0.950 . S
C968 C966 1.391 1_556 S
C968 C969 1.400 . S
C969 C963 1.491 . S
C969 C968 1.400 . S
C969 C970 1.398 . S
C970 H958 0.950 . S
C970 C969 1.398 . S
C970 C971 1.391 1_556 S
C971 H959 0.950 . S
C971 C967 1.393 . S
C971 C970 1.391 1_554 S
H972 C980 0.950 . S
H973 C985 0.950 . S
H974 C982 0.950 . S
H975 C984 0.950 . S
H976 C986 0.950 . S
H977 C988 0.950 . S
H978 C990 0.950 . S
H979 C991 0.950 . S
C980 H972 0.950 . S
C980 C981 1.386 . S
C980 C982 1.391 1_556 S
C981 C980 1.386 . S
C981 C985 1.393 . S
C982 H974 0.950 . S
C982 C980 1.391 1_554 S
C982 C983 1.400 . S
C983 C982 1.400 . S
C983 C984 1.398 . S
C983 C989 1.491 . S
C984 H975 0.950 . S
C984 C983 1.398 . S
C984 C985 1.391 1_554 S
C985 H973 0.950 . S
C985 C981 1.393 . S
C985 C984 1.391 1_556 S
C986 H976 0.950 . S
C986 C987 1.386 . S
C986 C988 1.391 . S
C987 C986 1.386 . S
C987 C991 1.393 . S
C988 H977 0.950 . S
C988 C986 1.391 . S
C988 C989 1.400 . S
C989 C983 1.491 . S
C989 C988 1.400 . S
C989 C990 1.398 . S
C990 H978 0.950 . S
C990 C989 1.398 . S
C990 C991 1.391 . S
C991 H979 0.950 . S
C991 C987 1.393 . S
C991 C990 1.391 . S
H992 C1000 0.950 . S
H993 C1005 0.950 . S
H994 C1002 0.950 . S
H995 C1004 0.950 . S
H996 C1006 0.950 . S
H997 C1008 0.950 . S
H998 C1010 0.950 . S
H999 C1011 0.950 . S
C1000 H992 0.950 . S
C1000 C1001 1.386 . S
C1000 C1002 1.391 . S
C1001 C1000 1.386 . S
C1001 C1005 1.393 . S
C1002 H994 0.950 . S
C1002 C1000 1.391 . S
C1002 C1003 1.400 . S
C1003 C1002 1.400 . S
C1003 C1004 1.398 . S
C1003 C1009 1.491 . S
C1004 H995 0.950 . S
C1004 C1003 1.398 . S
C1004 C1005 1.391 . S
C1005 H993 0.950 . S
C1005 C1001 1.393 . S
C1005 C1004 1.391 . S
C1006 H996 0.950 . S
C1006 C1007 1.386 . S
C1006 C1008 1.391 . S
C1007 C1006 1.386 . S
C1007 C1011 1.393 . S
C1008 H997 0.950 . S
C1008 C1006 1.391 . S
C1008 C1009 1.400 . S
C1009 C1003 1.491 . S
C1009 C1008 1.400 . S
C1009 C1010 1.398 . S
C1010 H998 0.950 . S
C1010 C1009 1.398 . S
C1010 C1011 1.391 . S
C1011 H999 0.950 . S
C1011 C1007 1.393 . S
C1011 C1010 1.391 . S
H1012 C1020 0.950 . S
H1013 C1025 0.950 . S
H1014 C1022 0.950 . S
H1015 C1024 0.950 . S
H1016 C1026 0.950 . S
H1017 C1028 0.950 . S
H1018 C1030 0.950 . S
H1019 C1031 0.950 . S
C1020 H1012 0.950 . S
C1020 C1021 1.386 . S
C1020 C1022 1.391 . S
C1021 C1020 1.386 . S
C1021 C1025 1.393 . S
C1022 H1014 0.950 . S
C1022 C1020 1.391 . S
C1022 C1023 1.400 . S
C1023 C1022 1.400 . S
C1023 C1024 1.398 . S
C1023 C1029 1.491 . S
C1024 H1015 0.950 . S
C1024 C1023 1.398 . S
C1024 C1025 1.391 . S
C1025 H1013 0.950 . S
C1025 C1021 1.393 . S
C1025 C1024 1.391 . S
C1026 H1016 0.950 . S
C1026 C1027 1.386 . S
C1026 C1028 1.391 . S
C1027 C1026 1.386 . S
C1027 C1031 1.393 . S
C1028 H1017 0.950 . S
C1028 C1026 1.391 . S
C1028 C1029 1.400 . S
C1029 C1023 1.491 . S
C1029 C1028 1.400 . S
C1029 C1030 1.398 . S
C1030 H1018 0.950 . S
C1030 C1029 1.398 . S
C1030 C1031 1.391 . S
C1031 H1019 0.950 . S
C1031 C1027 1.393 . S
C1031 C1030 1.391 . S
H1032 C1040 0.950 . S
H1033 C1045 0.950 . S
H1034 C1042 0.950 . S
H1035 C1044 0.950 . S
H1036 C1046 0.950 . S
H1037 C1048 0.950 . S
H1038 C1050 0.950 . S
H1039 C1051 0.950 . S
C1040 H1032 0.950 . S
C1040 C1041 1.386 . S
C1040 C1042 1.391 . S
C1041 C1040 1.386 . S
C1041 C1045 1.393 . S
C1042 H1034 0.950 . S
C1042 C1040 1.391 . S
C1042 C1043 1.400 . S
C1043 C1042 1.400 . S
C1043 C1044 1.398 . S
C1043 C1049 1.491 . S
C1044 H1035 0.950 . S
C1044 C1043 1.398 . S
C1044 C1045 1.391 . S
C1045 H1033 0.950 . S
C1045 C1041 1.393 . S
C1045 C1044 1.391 . S
C1046 H1036 0.950 . S
C1046 C1047 1.386 . S
C1046 C1048 1.391 . S
C1047 C1046 1.386 . S
C1047 C1051 1.393 . S
C1048 H1037 0.950 . S
C1048 C1046 1.391 . S
C1048 C1049 1.400 . S
C1049 C1043 1.491 . S
C1049 C1048 1.400 . S
C1049 C1050 1.398 . S
C1050 H1038 0.950 . S
C1050 C1049 1.398 . S
C1050 C1051 1.391 . S
C1051 H1039 0.950 . S
C1051 C1047 1.393 . S
C1051 C1050 1.391 . S
H1052 C1060 0.950 . S
H1053 C1065 0.950 . S
H1054 C1062 0.950 . S
H1055 C1064 0.950 . S
H1056 C1066 0.950 . S
H1057 C1068 0.950 . S
H1058 C1070 0.950 . S
H1059 C1071 0.950 . S
C1060 H1052 0.950 . S
C1060 C1061 1.386 . S
C1060 C1062 1.391 . S
C1061 C1060 1.386 . S
C1061 C1065 1.393 . S
C1062 H1054 0.950 . S
C1062 C1060 1.391 . S
C1062 C1063 1.400 . S
C1063 C1062 1.400 . S
C1063 C1064 1.398 . S
C1063 C1069 1.491 . S
C1064 H1055 0.950 . S
C1064 C1063 1.398 . S
C1064 C1065 1.391 . S
C1065 H1053 0.950 . S
C1065 C1061 1.393 . S
C1065 C1064 1.391 . S
C1066 H1056 0.950 . S
C1066 C1067 1.386 . S
C1066 C1068 1.391 . S
C1067 C1066 1.386 . S
C1067 C1071 1.393 . S
C1068 H1057 0.950 . S
C1068 C1066 1.391 . S
C1068 C1069 1.400 . S
C1069 C1063 1.491 . S
C1069 C1068 1.400 . S
C1069 C1070 1.398 . S
C1070 H1058 0.950 . S
C1070 C1069 1.398 . S
C1070 C1071 1.391 . S
C1071 H1059 0.950 . S
C1071 C1067 1.393 . S
C1071 C1070 1.391 . S
H1072 C1080 0.950 . S
H1073 C1085 0.950 . S
H1074 C1082 0.950 . S
H1075 C1084 0.950 . S
H1076 C1086 0.950 . S
H1077 C1088 0.950 . S
H1078 C1090 0.950 . S
H1079 C1091 0.950 . S
C1080 H1072 0.950 . S
C1080 C1081 1.386 . S
C1080 C1082 1.391 . S
C1081 C1080 1.386 . S
C1081 C1085 1.393 . S
C1082 H1074 0.950 . S
C1082 C1080 1.391 . S
C1082 C1083 1.400 . S
C1083 C1082 1.400 . S
C1083 C1084 1.398 . S
C1083 C1089 1.491 . S
C1084 H1075 0.950 . S
C1084 C1083 1.398 . S
C1084 C1085 1.391 . S
C1085 H1073 0.950 . S
C1085 C1081 1.393 . S
C1085 C1084 1.391 . S
C1086 H1076 0.950 . S
C1086 C1087 1.386 . S
C1086 C1088 1.391 . S
C1087 C1086 1.386 . S
C1087 C1091 1.393 . S
C1088 H1077 0.950 . S
C1088 C1086 1.391 . S
C1088 C1089 1.400 . S
C1089 C1083 1.491 . S
C1089 C1088 1.400 . S
C1089 C1090 1.398 . S
C1090 H1078 0.950 . S
C1090 C1089 1.398 . S
C1090 C1091 1.391 . S
C1091 H1079 0.950 . S
C1091 C1087 1.393 . S
C1091 C1090 1.391 . S
H1092 C1100 0.950 . S
H1093 C1105 0.950 . S
H1094 C1102 0.950 . S
H1095 C1104 0.950 . S
H1096 C1106 0.950 . S
H1097 C1108 0.950 . S
H1098 C1110 0.950 . S
H1099 C1111 0.950 . S
C1100 H1092 0.950 . S
C1100 C1101 1.386 . S
C1100 C1102 1.391 . S
C1101 C1100 1.386 . S
C1101 C1105 1.393 . S
C1102 H1094 0.950 . S
C1102 C1100 1.391 . S
C1102 C1103 1.400 . S
C1103 C1102 1.400 . S
C1103 C1104 1.398 . S
C1103 C1109 1.491 . S
C1104 H1095 0.950 . S
C1104 C1103 1.398 . S
C1104 C1105 1.391 . S
C1105 H1093 0.950 . S
C1105 C1101 1.393 . S
C1105 C1104 1.391 . S
C1106 H1096 0.950 . S
C1106 C1107 1.386 . S
C1106 C1108 1.391 . S
C1107 C1106 1.386 . S
C1107 C1111 1.393 . S
C1108 H1097 0.950 . S
C1108 C1106 1.391 . S
C1108 C1109 1.400 . S
C1109 C1103 1.491 . S
C1109 C1108 1.400 . S
C1109 C1110 1.398 . S
C1110 H1098 0.950 . S
C1110 C1109 1.398 . S
C1110 C1111 1.391 . S
C1111 H1099 0.950 . S
C1111 C1107 1.393 . S
C1111 C1110 1.391 . S
H1112 C1120 0.950 . S
H1113 C1125 0.950 . S
H1114 C1122 0.950 . S
H1115 C1124 0.950 . S
H1116 C1126 0.950 . S
H1117 C1128 0.950 . S
H1118 C1130 0.950 . S
H1119 C1131 0.950 . S
C1120 H1112 0.950 . S
C1120 C1121 1.386 . S
C1120 C1122 1.391 . S
C1121 C1120 1.386 . S
C1121 C1125 1.393 . S
C1122 H1114 0.950 . S
C1122 C1120 1.391 . S
C1122 C1123 1.400 . S
C1123 C1122 1.400 . S
C1123 C1124 1.398 . S
C1123 C1129 1.491 . S
C1124 H1115 0.950 . S
C1124 C1123 1.398 . S
C1124 C1125 1.391 . S
C1125 H1113 0.950 . S
C1125 C1121 1.393 . S
C1125 C1124 1.391 . S
C1126 H1116 0.950 . S
C1126 C1127 1.386 . S
C1126 C1128 1.391 . S
C1127 C1126 1.386 . S
C1127 C1131 1.393 . S
C1128 H1117 0.950 . S
C1128 C1126 1.391 . S
C1128 C1129 1.400 . S
C1129 C1123 1.491 . S
C1129 C1128 1.400 . S
C1129 C1130 1.398 . S
C1130 H1118 0.950 . S
C1130 C1129 1.398 . S
C1130 C1131 1.391 . S
C1131 H1119 0.950 . S
C1131 C1127 1.393 . S
C1131 C1130 1.391 . S
H1132 C1140 0.950 . S
H1133 C1145 0.950 . S
H1134 C1142 0.950 . S
H1135 C1144 0.950 . S
H1136 C1146 0.950 . S
H1137 C1148 0.950 . S
H1138 C1150 0.950 . S
H1139 C1151 0.950 . S
C1140 H1132 0.950 . S
C1140 C1141 1.386 . S
C1140 C1142 1.391 . S
C1141 C1140 1.386 . S
C1141 C1145 1.393 . S
C1142 H1134 0.950 . S
C1142 C1140 1.391 . S
C1142 C1143 1.400 . S
C1143 C1142 1.400 . S
C1143 C1144 1.398 . S
C1143 C1149 1.491 . S
C1144 H1135 0.950 . S
C1144 C1143 1.398 . S
C1144 C1145 1.391 . S
C1145 H1133 0.950 . S
C1145 C1141 1.393 . S
C1145 C1144 1.391 . S
C1146 H1136 0.950 . S
C1146 C1147 1.386 . S
C1146 C1148 1.391 . S
C1147 C1146 1.386 . S
C1147 C1151 1.393 . S
C1148 H1137 0.950 . S
C1148 C1146 1.391 . S
C1148 C1149 1.400 . S
C1149 C1143 1.491 . S
C1149 C1148 1.400 . S
C1149 C1150 1.398 . S
C1150 H1138 0.950 . S
C1150 C1149 1.398 . S
C1150 C1151 1.391 . S
C1151 H1139 0.950 . S
C1151 C1147 1.393 . S
C1151 C1150 1.391 . S
H1152 C1160 0.950 . S
H1153 C1165 0.950 . S
H1154 C1162 0.950 . S
H1155 C1164 0.950 . S
H1156 C1166 0.950 . S
H1157 C1168 0.950 . S
H1158 C1170 0.950 . S
H1159 C1171 0.950 . S
C1160 H1152 0.950 . S
C1160 C1161 1.386 . S
C1160 C1162 1.391 . S
C1161 C1160 1.386 . S
C1161 C1165 1.393 . S
C1162 H1154 0.950 . S
C1162 C1160 1.391 . S
C1162 C1163 1.400 . S
C1163 C1162 1.400 . S
C1163 C1164 1.398 . S
C1163 C1169 1.491 . S
C1164 H1155 0.950 . S
C1164 C1163 1.398 . S
C1164 C1165 1.391 . S
C1165 H1153 0.950 . S
C1165 C1161 1.393 . S
C1165 C1164 1.391 . S
C1166 H1156 0.950 . S
C1166 C1167 1.386 . S
C1166 C1168 1.391 . S
C1167 C1166 1.386 . S
C1167 C1171 1.393 . S
C1168 H1157 0.950 . S
C1168 C1166 1.391 . S
C1168 C1169 1.400 . S
C1169 C1163 1.491 . S
C1169 C1168 1.400 . S
C1169 C1170 1.398 . S
C1170 H1158 0.950 . S
C1170 C1169 1.398 . S
C1170 C1171 1.391 . S
C1171 H1159 0.950 . S
C1171 C1167 1.393 . S
C1171 C1170 1.391 . S
H1172 C1180 0.950 . S
H1173 C1185 0.950 . S
H1174 C1182 0.950 . S
H1175 C1184 0.950 . S
H1176 C1186 0.950 . S
H1177 C1188 0.950 . S
H1178 C1190 0.950 . S
H1179 C1191 0.950 . S
C1180 H1172 0.950 . S
C1180 C1181 1.386 . S
C1180 C1182 1.391 . S
C1181 C1180 1.386 . S
C1181 C1185 1.393 . S
C1182 H1174 0.950 . S
C1182 C1180 1.391 . S
C1182 C1183 1.400 . S
C1183 C1182 1.400 . S
C1183 C1184 1.398 . S
C1183 C1189 1.491 . S
C1184 H1175 0.950 . S
C1184 C1183 1.398 . S
C1184 C1185 1.391 . S
C1185 H1173 0.950 . S
C1185 C1181 1.393 . S
C1185 C1184 1.391 . S
C1186 H1176 0.950 . S
C1186 C1187 1.386 . S
C1186 C1188 1.391 . S
C1187 C1186 1.386 . S
C1187 C1191 1.393 . S
C1188 H1177 0.950 . S
C1188 C1186 1.391 . S
C1188 C1189 1.400 . S
C1189 C1183 1.491 . S
C1189 C1188 1.400 . S
C1189 C1190 1.398 . S
C1190 H1178 0.950 . S
C1190 C1189 1.398 . S
C1190 C1191 1.391 . S
C1191 H1179 0.950 . S
C1191 C1187 1.393 . S
C1191 C1190 1.391 . S
H1192 C1200 0.950 . S
H1193 C1205 0.950 . S
H1194 C1202 0.950 . S
H1195 C1204 0.950 . S
H1196 C1206 0.950 . S
H1197 C1208 0.950 . S
H1198 C1210 0.950 . S
H1199 C1211 0.950 . S
C1200 H1192 0.950 . S
C1200 C1201 1.386 . S
C1200 C1202 1.391 . S
C1201 C1200 1.386 . S
C1201 C1205 1.393 . S
C1202 H1194 0.950 . S
C1202 C1200 1.391 . S
C1202 C1203 1.400 . S
C1203 C1202 1.400 . S
C1203 C1204 1.398 . S
C1203 C1209 1.491 . S
C1204 H1195 0.950 . S
C1204 C1203 1.398 . S
C1204 C1205 1.391 . S
C1205 H1193 0.950 . S
C1205 C1201 1.393 . S
C1205 C1204 1.391 . S
C1206 H1196 0.950 . S
C1206 C1207 1.386 . S
C1206 C1208 1.391 . S
C1207 C1206 1.386 . S
C1207 C1211 1.393 . S
C1208 H1197 0.950 . S
C1208 C1206 1.391 . S
C1208 C1209 1.400 . S
C1209 C1203 1.491 . S
C1209 C1208 1.400 . S
C1209 C1210 1.398 . S
C1210 H1198 0.950 . S
C1210 C1209 1.398 . S
C1210 C1211 1.391 . S
C1211 H1199 0.950 . S
C1211 C1207 1.393 . S
C1211 C1210 1.391 . S
H1212 C1220 0.950 . S
H1213 C1225 0.950 . S
H1214 C1222 0.950 . S
H1215 C1224 0.950 . S
H1216 C1226 0.950 . S
H1217 C1228 0.950 . S
H1218 C1230 0.950 . S
H1219 C1231 0.950 . S
C1220 H1212 0.950 . S
C1220 C1221 1.386 . S
C1220 C1222 1.391 . S
C1221 C1220 1.386 . S
C1221 C1225 1.393 . S
C1222 H1214 0.950 . S
C1222 C1220 1.391 . S
C1222 C1223 1.400 . S
C1223 C1222 1.400 . S
C1223 C1224 1.398 . S
C1223 C1229 1.491 . S
C1224 H1215 0.950 . S
C1224 C1223 1.398 . S
C1224 C1225 1.391 . S
C1225 H1213 0.950 . S
C1225 C1221 1.393 . S
C1225 C1224 1.391 . S
C1226 H1216 0.950 . S
C1226 C1227 1.386 . S
C1226 C1228 1.391 . S
C1227 C1226 1.386 . S
C1227 C1231 1.393 . S
C1228 H1217 0.950 . S
C1228 C1226 1.391 . S
C1228 C1229 1.400 . S
C1229 C1223 1.491 . S
C1229 C1228 1.400 . S
C1229 C1230 1.398 . S
C1230 H1218 0.950 . S
C1230 C1229 1.398 . S
C1230 C1231 1.391 . S
C1231 H1219 0.950 . S
C1231 C1227 1.393 . S
C1231 C1230 1.391 . S
H1232 C1240 0.950 . S
H1233 C1245 0.950 . S
H1234 C1242 0.950 . S
H1235 C1244 0.950 . S
H1236 C1246 0.950 . S
H1237 C1248 0.950 . S
H1238 C1250 0.950 . S
H1239 C1251 0.950 . S
C1240 H1232 0.950 . S
C1240 C1241 1.386 . S
C1240 C1242 1.391 . S
C1241 C1240 1.386 . S
C1241 C1245 1.393 . S
C1242 H1234 0.950 . S
C1242 C1240 1.391 . S
C1242 C1243 1.400 . S
C1243 C1242 1.400 . S
C1243 C1244 1.398 . S
C1243 C1249 1.491 . S
C1244 H1235 0.950 . S
C1244 C1243 1.398 . S
C1244 C1245 1.391 . S
C1245 H1233 0.950 . S
C1245 C1241 1.393 . S
C1245 C1244 1.391 . S
C1246 H1236 0.950 . S
C1246 C1247 1.386 . S
C1246 C1248 1.391 . S
C1247 C1246 1.386 . S
C1247 C1251 1.393 . S
C1248 H1237 0.950 . S
C1248 C1246 1.391 . S
C1248 C1249 1.400 . S
C1249 C1243 1.491 . S
C1249 C1248 1.400 . S
C1249 C1250 1.398 . S
C1250 H1238 0.950 . S
C1250 C1249 1.398 . S
C1250 C1251 1.391 . S
C1251 H1239 0.950 . S
C1251 C1247 1.393 . S
C1251 C1250 1.391 . S
H1252 C1260 0.950 . S
H1253 C1265 0.950 . S
H1254 C1262 0.950 . S
H1255 C1264 0.950 . S
H1256 C1266 0.950 . S
H1257 C1268 0.950 . S
H1258 C1270 0.950 . S
H1259 C1271 0.950 . S
C1260 H1252 0.950 . S
C1260 C1261 1.386 . S
C1260 C1262 1.391 . S
C1261 C1260 1.386 . S
C1261 C1265 1.393 . S
C1262 H1254 0.950 . S
C1262 C1260 1.391 . S
C1262 C1263 1.400 . S
C1263 C1262 1.400 . S
C1263 C1264 1.398 . S
C1263 C1269 1.491 . S
C1264 H1255 0.950 . S
C1264 C1263 1.398 . S
C1264 C1265 1.391 . S
C1265 H1253 0.950 . S
C1265 C1261 1.393 . S
C1265 C1264 1.391 . S
C1266 H1256 0.950 . S
C1266 C1267 1.386 . S
C1266 C1268 1.391 . S
C1267 C1266 1.386 . S
C1267 C1271 1.393 . S
C1268 H1257 0.950 . S
C1268 C1266 1.391 . S
C1268 C1269 1.400 . S
C1269 C1263 1.491 . S
C1269 C1268 1.400 . S
C1269 C1270 1.398 . S
C1270 H1258 0.950 . S
C1270 C1269 1.398 . S
C1270 C1271 1.391 . S
C1271 H1259 0.950 . S
C1271 C1267 1.393 . S
C1271 C1270 1.391 . S
H1272 C1280 0.950 . S
H1273 C1285 0.950 . S
H1274 C1282 0.950 . S
H1275 C1284 0.950 . S
H1276 C1286 0.950 . S
H1277 C1288 0.950 . S
H1278 C1290 0.950 . S
H1279 C1291 0.950 . S
C1280 H1272 0.950 . S
C1280 C1281 1.386 . S
C1280 C1282 1.391 . S
C1281 C1280 1.386 . S
C1281 C1285 1.393 . S
C1282 H1274 0.950 . S
C1282 C1280 1.391 . S
C1282 C1283 1.400 . S
C1283 C1282 1.400 . S
C1283 C1284 1.398 . S
C1283 C1289 1.491 . S
C1284 H1275 0.950 . S
C1284 C1283 1.398 . S
C1284 C1285 1.391 . S
C1285 H1273 0.950 . S
C1285 C1281 1.393 . S
C1285 C1284 1.391 . S
C1286 H1276 0.950 . S
C1286 C1287 1.386 . S
C1286 C1288 1.391 . S
C1287 C1286 1.386 . S
C1287 C1291 1.393 . S
C1288 H1277 0.950 . S
C1288 C1286 1.391 . S
C1288 C1289 1.400 . S
C1289 C1283 1.491 . S
C1289 C1288 1.400 . S
C1289 C1290 1.398 . S
C1290 H1278 0.950 . S
C1290 C1289 1.398 . S
C1290 C1291 1.391 . S
C1291 H1279 0.950 . S
C1291 C1287 1.393 . S
C1291 C1290 1.391 . S
H1292 C1300 0.950 . S
H1293 C1305 0.950 . S
H1294 C1302 0.950 . S
H1295 C1304 0.950 . S
H1296 C1306 0.950 . S
H1297 C1308 0.950 . S
H1298 C1310 0.950 . S
H1299 C1311 0.950 . S
C1300 H1292 0.950 . S
C1300 C1301 1.386 . S
C1300 C1302 1.391 . S
C1301 C1300 1.386 . S
C1301 C1305 1.393 . S
C1302 H1294 0.950 . S
C1302 C1300 1.391 . S
C1302 C1303 1.400 . S
C1303 C1302 1.400 . S
C1303 C1304 1.398 . S
C1303 C1309 1.491 . S
C1304 H1295 0.950 . S
C1304 C1303 1.398 . S
C1304 C1305 1.391 . S
C1305 H1293 0.950 . S
C1305 C1301 1.393 . S
C1305 C1304 1.391 . S
C1306 H1296 0.950 . S
C1306 C1307 1.386 . S
C1306 C1308 1.391 . S
C1307 C1306 1.386 . S
C1307 C1311 1.393 . S
C1308 H1297 0.950 . S
C1308 C1306 1.391 . S
C1308 C1309 1.400 . S
C1309 C1303 1.491 . S
C1309 C1308 1.400 . S
C1309 C1310 1.398 . S
C1310 H1298 0.950 . S
C1310 C1309 1.398 . S
C1310 C1311 1.391 . S
C1311 H1299 0.950 . S
C1311 C1307 1.393 . S
C1311 C1310 1.391 . S
C361 C15 1.437 . S
C367 C257 1.447 . S
C381 C37 1.441 . S
C387 C183 1.448 . S
C401 C205 1.447 . S
C407 C65 1.436 . S
C421 C241 1.450 . S
C427 C73 1.434 . S
C441 C103 1.427 . S
C447 C307 1.452 . S
C461 C131 1.441 . S
C467 C323 1.458 . S
C481 C345 1.451 . S
C487 C147 1.442 . S
C501 C285 1.451 . S
C507 C161 1.433 . S
C521 C191 1.439 . S
C527 C81 1.448 . S
C541 C7 1.456 . S
C547 C219 1.447 . S
C561 C43 1.447 . S
C567 C227 1.435 . S
C581 C249 1.447 . S
C587 C59 1.450 . S
C601 C271 1.439 . S
C607 C117 1.455 . S
C621 C139 1.454 . S
C627 C301 1.449 . S
C641 C169 1.446 . S
C647 C329 1.432 . S
C661 C95 1.455 . S
C667 C337 1.448 . S
C681 C98 1.051 . S
C687 C10 1.079 . S
C701 C32 1.054 . S
C707 C118 1.019 . S
C721 C142 1.079 . S
C727 C52 1.050 . S
C741 C172 1.042 . S
C747 C84 1.033 . S
C761 C282 1.057 . S
C767 C186 1.073 . S
C781 C206 1.040 . S
C787 C296 1.034 . S
C801 C238 1.067 . S
C807 C316 1.062 . S
C821 C348 1.019 . S
C827 C260 1.054 . S
C841 C21 1.442 . S
C847 C294 1.463 . S
C861 C318 1.452 . S
C867 C29 1.448 . S
C881 C340 1.459 . S
C887 C51 1.455 . S
C901 C272 1.455 . S
C907 C87 1.447 . S
C921 C109 1.444 . S
C927 C252 1.461 . S
C941 C125 1.441 . S
C947 C194 1.451 . S
C961 C153 1.451 . S
C967 C216 1.464 . S
C981 C228 1.454 . S
C987 C175 1.435 . S
C1001 C128 1.464 . S
C1007 C197 1.450 . S
C1021 C150 1.451 . S
C1027 C213 1.448 . S
C1041 C235 1.448 . S
C1047 C164 1.464 . S
C1061 C106 1.456 . S
C1067 C263 1.433 . S
C1081 C76 1.459 . S
C1087 C279 1.449 . S
C1101 C293 1.440 . S
C1107 C18 1.459 . S
C1121 C30 1.465 . S
C1127 C315 1.445 . S
C1141 C351 1.434 . S
C1147 C54 1.455 . S
C1161 C162 1.170 . S
C1167 C8 1.152 . S
C1181 C96 1.163 . S
C1187 C40 1.163 . S
C1201 C120 1.158 . S
C1207 C62 1.167 . S
C1221 C140 1.164 . S
C1227 C74 1.160 . S
C1241 C184 1.151 . S
C1247 C338 1.171 . S
C1261 C274 1.165 . S
C1267 C208 1.161 . S
C1281 C304 1.159 . S
C1287 C230 1.166 . S
C1301 C250 1.166 . S
C1307 C326 1.156 . S
