# Generated by pormake.
# Topology smq, (6)-cn, num edge types: 1
# Building blocks:
#     Node 0, Type 0, BuildingBlock: IZENUY_clean_sbu_0, # of connection points: 6
#     Node 1, Type 0, BuildingBlock: IZENUY_clean_sbu_0, # of connection points: 6
#     Node 2, Type 0, BuildingBlock: IZENUY_clean_sbu_0, # of connection points: 6
#     Node 3, Type 0, BuildingBlock: IZENUY_clean_sbu_0, # of connection points: 6
#     Node 4, Type 0, BuildingBlock: IZENUY_clean_sbu_0, # of connection points: 6
#     Node 5, Type 0, BuildingBlock: IZENUY_clean_sbu_0, # of connection points: 6
#     Node 6, Type 0, BuildingBlock: IZENUY_clean_sbu_0, # of connection points: 6
#     Node 7, Type 0, BuildingBlock: IZENUY_clean_sbu_0, # of connection points: 6
#     Node 8, Type 0, BuildingBlock: IZENUY_clean_sbu_0, # of connection points: 6
#     Node 9, Type 0, BuildingBlock: IZENUY_clean_sbu_0, # of connection points: 6
#     Node 10, Type 0, BuildingBlock: IZENUY_clean_sbu_0, # of connection points: 6
#     Node 11, Type 0, BuildingBlock: IZENUY_clean_sbu_0, # of connection points: 6
#     Node 12, Type 0, BuildingBlock: IZENUY_clean_sbu_0, # of connection points: 6
#     Node 13, Type 0, BuildingBlock: IZENUY_clean_sbu_0, # of connection points: 6
#     Node 14, Type 0, BuildingBlock: IZENUY_clean_sbu_0, # of connection points: 6
#     Node 15, Type 0, BuildingBlock: IZENUY_clean_sbu_0, # of connection points: 6
#     Node 16, Type 0, BuildingBlock: IZENUY_clean_sbu_0, # of connection points: 6
#     Node 17, Type 0, BuildingBlock: IZENUY_clean_sbu_0, # of connection points: 6
#     Node 18, Type 0, BuildingBlock: IZENUY_clean_sbu_0, # of connection points: 6
#     Node 19, Type 0, BuildingBlock: IZENUY_clean_sbu_0, # of connection points: 6
#     Node 20, Type 0, BuildingBlock: IZENUY_clean_sbu_0, # of connection points: 6
#     Node 21, Type 0, BuildingBlock: IZENUY_clean_sbu_0, # of connection points: 6
#     Node 22, Type 0, BuildingBlock: IZENUY_clean_sbu_0, # of connection points: 6
#     Node 23, Type 0, BuildingBlock: IZENUY_clean_sbu_0, # of connection points: 6
#     Edge 24, Type (0, 0), BuildingBlock: AJUNOK_clean_linker_0, # of connection points: 2
#     Edge 25, Type (0, 0), BuildingBlock: AJUNOK_clean_linker_0, # of connection points: 2
#     Edge 26, Type (0, 0), BuildingBlock: AJUNOK_clean_linker_0, # of connection points: 2
#     Edge 27, Type (0, 0), BuildingBlock: AJUNOK_clean_linker_0, # of connection points: 2
#     Edge 28, Type (0, 0), BuildingBlock: AJUNOK_clean_linker_0, # of connection points: 2
#     Edge 29, Type (0, 0), BuildingBlock: AJUNOK_clean_linker_0, # of connection points: 2
#     Edge 30, Type (0, 0), BuildingBlock: AJUNOK_clean_linker_0, # of connection points: 2
#     Edge 31, Type (0, 0), BuildingBlock: AJUNOK_clean_linker_0, # of connection points: 2
#     Edge 32, Type (0, 0), BuildingBlock: AJUNOK_clean_linker_0, # of connection points: 2
#     Edge 33, Type (0, 0), BuildingBlock: AJUNOK_clean_linker_0, # of connection points: 2
#     Edge 34, Type (0, 0), BuildingBlock: AJUNOK_clean_linker_0, # of connection points: 2
#     Edge 35, Type (0, 0), BuildingBlock: AJUNOK_clean_linker_0, # of connection points: 2
#     Edge 36, Type (0, 0), BuildingBlock: AJUNOK_clean_linker_0, # of connection points: 2
#     Edge 37, Type (0, 0), BuildingBlock: AJUNOK_clean_linker_0, # of connection points: 2
#     Edge 38, Type (0, 0), BuildingBlock: AJUNOK_clean_linker_0, # of connection points: 2
#     Edge 39, Type (0, 0), BuildingBlock: AJUNOK_clean_linker_0, # of connection points: 2
#     Edge 40, Type (0, 0), BuildingBlock: AJUNOK_clean_linker_0, # of connection points: 2
#     Edge 41, Type (0, 0), BuildingBlock: AJUNOK_clean_linker_0, # of connection points: 2
#     Edge 42, Type (0, 0), BuildingBlock: AJUNOK_clean_linker_0, # of connection points: 2
#     Edge 43, Type (0, 0), BuildingBlock: AJUNOK_clean_linker_0, # of connection points: 2
#     Edge 44, Type (0, 0), BuildingBlock: AJUNOK_clean_linker_0, # of connection points: 2
#     Edge 45, Type (0, 0), BuildingBlock: AJUNOK_clean_linker_0, # of connection points: 2
#     Edge 46, Type (0, 0), BuildingBlock: AJUNOK_clean_linker_0, # of connection points: 2
#     Edge 47, Type (0, 0), BuildingBlock: AJUNOK_clean_linker_0, # of connection points: 2
#     Edge 48, Type (0, 0), BuildingBlock: AJUNOK_clean_linker_0, # of connection points: 2
#     Edge 49, Type (0, 0), BuildingBlock: AJUNOK_clean_linker_0, # of connection points: 2
#     Edge 50, Type (0, 0), BuildingBlock: AJUNOK_clean_linker_0, # of connection points: 2
#     Edge 51, Type (0, 0), BuildingBlock: AJUNOK_clean_linker_0, # of connection points: 2
#     Edge 52, Type (0, 0), BuildingBlock: AJUNOK_clean_linker_0, # of connection points: 2
#     Edge 53, Type (0, 0), BuildingBlock: AJUNOK_clean_linker_0, # of connection points: 2
#     Edge 54, Type (0, 0), BuildingBlock: AJUNOK_clean_linker_0, # of connection points: 2
#     Edge 55, Type (0, 0), BuildingBlock: AJUNOK_clean_linker_0, # of connection points: 2
#     Edge 56, Type (0, 0), BuildingBlock: AJUNOK_clean_linker_0, # of connection points: 2
#     Edge 57, Type (0, 0), BuildingBlock: AJUNOK_clean_linker_0, # of connection points: 2
#     Edge 58, Type (0, 0), BuildingBlock: AJUNOK_clean_linker_0, # of connection points: 2
#     Edge 59, Type (0, 0), BuildingBlock: AJUNOK_clean_linker_0, # of connection points: 2
#     Edge 60, Type (0, 0), BuildingBlock: AJUNOK_clean_linker_0, # of connection points: 2
#     Edge 61, Type (0, 0), BuildingBlock: AJUNOK_clean_linker_0, # of connection points: 2
#     Edge 62, Type (0, 0), BuildingBlock: AJUNOK_clean_linker_0, # of connection points: 2
#     Edge 63, Type (0, 0), BuildingBlock: AJUNOK_clean_linker_0, # of connection points: 2
#     Edge 64, Type (0, 0), BuildingBlock: AJUNOK_clean_linker_0, # of connection points: 2
#     Edge 65, Type (0, 0), BuildingBlock: AJUNOK_clean_linker_0, # of connection points: 2
#     Edge 66, Type (0, 0), BuildingBlock: AJUNOK_clean_linker_0, # of connection points: 2
#     Edge 67, Type (0, 0), BuildingBlock: AJUNOK_clean_linker_0, # of connection points: 2
#     Edge 68, Type (0, 0), BuildingBlock: AJUNOK_clean_linker_0, # of connection points: 2
#     Edge 69, Type (0, 0), BuildingBlock: AJUNOK_clean_linker_0, # of connection points: 2
#     Edge 70, Type (0, 0), BuildingBlock: AJUNOK_clean_linker_0, # of connection points: 2
#     Edge 71, Type (0, 0), BuildingBlock: AJUNOK_clean_linker_0, # of connection points: 2
#     Edge 72, Type (0, 0), BuildingBlock: AJUNOK_clean_linker_0, # of connection points: 2
#     Edge 73, Type (0, 0), BuildingBlock: AJUNOK_clean_linker_0, # of connection points: 2
#     Edge 74, Type (0, 0), BuildingBlock: AJUNOK_clean_linker_0, # of connection points: 2
#     Edge 75, Type (0, 0), BuildingBlock: AJUNOK_clean_linker_0, # of connection points: 2
#     Edge 76, Type (0, 0), BuildingBlock: AJUNOK_clean_linker_0, # of connection points: 2
#     Edge 77, Type (0, 0), BuildingBlock: AJUNOK_clean_linker_0, # of connection points: 2
#     Edge 78, Type (0, 0), BuildingBlock: AJUNOK_clean_linker_0, # of connection points: 2
#     Edge 79, Type (0, 0), BuildingBlock: AJUNOK_clean_linker_0, # of connection points: 2
#     Edge 80, Type (0, 0), BuildingBlock: AJUNOK_clean_linker_0, # of connection points: 2
#     Edge 81, Type (0, 0), BuildingBlock: AJUNOK_clean_linker_0, # of connection points: 2
#     Edge 82, Type (0, 0), BuildingBlock: AJUNOK_clean_linker_0, # of connection points: 2
#     Edge 83, Type (0, 0), BuildingBlock: AJUNOK_clean_linker_0, # of connection points: 2
#     Edge 84, Type (0, 0), BuildingBlock: AJUNOK_clean_linker_0, # of connection points: 2
#     Edge 85, Type (0, 0), BuildingBlock: AJUNOK_clean_linker_0, # of connection points: 2
#     Edge 86, Type (0, 0), BuildingBlock: AJUNOK_clean_linker_0, # of connection points: 2
#     Edge 87, Type (0, 0), BuildingBlock: AJUNOK_clean_linker_0, # of connection points: 2
#     Edge 88, Type (0, 0), BuildingBlock: AJUNOK_clean_linker_0, # of connection points: 2
#     Edge 89, Type (0, 0), BuildingBlock: AJUNOK_clean_linker_0, # of connection points: 2
#     Edge 90, Type (0, 0), BuildingBlock: AJUNOK_clean_linker_0, # of connection points: 2
#     Edge 91, Type (0, 0), BuildingBlock: AJUNOK_clean_linker_0, # of connection points: 2
#     Edge 92, Type (0, 0), BuildingBlock: AJUNOK_clean_linker_0, # of connection points: 2
#     Edge 93, Type (0, 0), BuildingBlock: AJUNOK_clean_linker_0, # of connection points: 2
#     Edge 94, Type (0, 0), BuildingBlock: AJUNOK_clean_linker_0, # of connection points: 2
#     Edge 95, Type (0, 0), BuildingBlock: AJUNOK_clean_linker_0, # of connection points: 2
# Relax obj value: 0.236
# Max RMSD: 0.214
# Mean RMSD: 0.213
data_MOF--net-smq--node1-IZENUY_clean_sbu_0--edge1-AJUNOK_clean_linker_0
_symmetry_space_group_name_H-M    P1
_symmetry_Int_Tables_number       1
_symmetry_cell_setting            triclinic
loop_
_symmetry_equiv_pos_as_xyz
'x, y, z'
_cell_length_a     33.597445
_cell_length_b     33.629361
_cell_length_c     33.614794
_cell_angle_alpha  89.905919
_cell_angle_beta   90.145991
_cell_angle_gamma 89.912989
loop_
_atom_site_label
_atom_site_type_symbol
_atom_site_fract_x
_atom_site_fract_y
_atom_site_fract_z
_atom_type_partial_charge
Fe0 Fe 1.00892 0.18233 0.32334 0.0
Fe1 Fe 0.01883 0.18331 0.23334 0.0
O2 O 0.01383 0.20945 0.27843 0.0
Fe3 Fe 0.01445 0.26209 0.27872 0.0
O4 O 0.05819 0.26221 0.31083 0.0
O5 O 0.03507 0.21884 0.35371 0.0
O6 O 0.05713 0.1587 0.31632 0.0
C7 C 0.06657 0.13943 0.2858 0.0
C8 C 0.95518 0.24168 0.3361 0.0
O9 O 0.04437 0.14009 0.25536 0.0
C10 C 0.97062 0.24894 0.21158 0.0
O11 O 0.98089 0.14114 0.30055 0.0
O12 O 0.97015 0.16173 0.2397 0.0
O13 O 0.97979 0.2665 0.32149 0.0
O14 O 0.96134 0.20487 0.33323 0.0
C15 C 0.07199 0.24175 0.21936 0.0
O16 O 0.99449 0.2213 0.20282 0.0
O17 O 0.9712 0.26509 0.24558 0.0
C18 C 0.95849 0.1434 0.27021 0.0
O19 O 0.06727 0.2049 0.22488 0.0
O20 O 0.0487 0.26652 0.23588 0.0
C21 C 0.06147 0.24333 0.34321 0.0
Fe22 Fe 0.34676 0.50836 0.81966 0.0
Fe23 Fe 0.34027 0.51948 0.73034 0.0
O24 O 0.31661 0.51356 0.77666 0.0
Fe25 Fe 0.26405 0.5139 0.77871 0.0
O26 O 0.2641 0.55573 0.81313 0.0
O27 O 0.31369 0.53686 0.85198 0.0
O28 O 0.37141 0.55615 0.80982 0.0
C29 C 0.38855 0.56404 0.77763 0.0
C30 C 0.28704 0.45493 0.83602 0.0
O31 O 0.38651 0.53884 0.7504 0.0
C32 C 0.27514 0.4736 0.70893 0.0
O33 O 0.38398 0.47694 0.79349 0.0
O34 O 0.35871 0.46949 0.73349 0.0
O35 O 0.26122 0.47741 0.81974 0.0
O36 O 0.3237 0.46208 0.83328 0.0
C37 C 0.28376 0.57562 0.72327 0.0
O38 O 0.29945 0.50072 0.70092 0.0
O39 O 0.26017 0.47178 0.74346 0.0
C40 C 0.37763 0.45546 0.76278 0.0
O41 O 0.32085 0.56952 0.7263 0.0
O42 O 0.25897 0.551 0.7381 0.0
C43 C 0.28516 0.56022 0.84408 0.0
Fe44 Fe 0.01439 0.76234 0.27876 0.0
Fe45 Fe 0.012 0.84395 0.32186 0.0
O46 O 0.01415 0.81509 0.27775 0.0
Fe47 Fe 0.01693 0.84019 0.23181 0.0
O48 O 0.99374 0.80134 0.20297 0.0
O49 O 0.96999 0.75931 0.24664 0.0
O50 O 0.9807 0.75918 0.32222 0.0
C51 C 0.95872 0.78486 0.33935 0.0
C52 C 0.07021 0.7825 0.21714 0.0
O53 O 0.96578 0.82152 0.33659 0.0
C54 C 0.06661 0.88508 0.27818 0.0
O55 O 0.05861 0.7612 0.31046 0.0
O56 O 0.04098 0.80899 0.35182 0.0
O57 O 0.06561 0.81928 0.22308 0.0
O58 O 0.04797 0.75744 0.23495 0.0
C59 C 0.95719 0.87918 0.26974 0.0
O60 O 0.05959 0.86757 0.31042 0.0
O61 O 0.0404 0.88475 0.25154 0.0
C62 C 0.06392 0.7808 0.34214 0.0
O63 O 0.98101 0.88353 0.29893 0.0
O64 O 0.96794 0.86033 0.23924 0.0
C65 C 0.96849 0.77566 0.21271 0.0
Fe66 Fe 0.67964 0.51575 0.8283 0.0
Fe67 Fe 0.67629 0.50643 0.7387 0.0
O68 O 0.70474 0.51207 0.78218 0.0
Fe69 Fe 0.75736 0.51304 0.77964 0.0
O70 O 0.76096 0.46973 0.81261 0.0
O71 O 0.71894 0.49182 0.85727 0.0
O72 O 0.6581 0.46641 0.82219 0.0
C73 C 0.63732 0.45706 0.79253 0.0
C74 C 0.73688 0.57189 0.83805 0.0
O75 O 0.63523 0.48017 0.76293 0.0
C76 C 0.73905 0.55586 0.71258 0.0
O77 O 0.63582 0.5419 0.80755 0.0
O78 O 0.65373 0.55468 0.74616 0.0
O79 O 0.76226 0.54886 0.82161 0.0
O80 O 0.70027 0.56411 0.83702 0.0
C81 C 0.73518 0.45436 0.72171 0.0
O82 O 0.71163 0.53108 0.70632 0.0
O83 O 0.75753 0.55591 0.74552 0.0
C84 C 0.63563 0.56454 0.77735 0.0
O85 O 0.69867 0.45857 0.72935 0.0
O86 O 0.76059 0.47798 0.73699 0.0
C87 C 0.74493 0.46697 0.8465 0.0
Fe88 Fe 0.01204 0.84729 0.78818 0.0
Fe89 Fe 0.01406 0.76821 0.74309 0.0
O90 O 0.01407 0.8208 0.74305 0.0
Fe91 Fe 0.01558 0.84799 0.69782 0.0
O92 O 0.04399 0.89021 0.71891 0.0
O93 O 0.06026 0.86874 0.77831 0.0
O94 O 0.03813 0.80996 0.81756 0.0
C95 C 0.06139 0.78227 0.80778 0.0
C96 C 0.95962 0.88904 0.73935 0.0
O97 O 0.05867 0.76548 0.77428 0.0
C98 C 0.96481 0.784 0.6793 0.0
O99 O 0.96445 0.82579 0.80025 0.0
O100 O 0.98142 0.76374 0.78756 0.0
O101 O 0.96708 0.86993 0.70812 0.0
O102 O 0.98499 0.88997 0.7672 0.0
C103 C 0.07061 0.79033 0.68298 0.0
O104 O 0.96894 0.76687 0.71254 0.0
O105 O 0.98899 0.81062 0.66845 0.0
C106 C 0.95913 0.78893 0.80505 0.0
O107 O 0.04751 0.7647 0.69898 0.0
O108 O 0.06305 0.82691 0.68518 0.0
C109 C 0.06883 0.88789 0.74735 0.0
Fe110 Fe 0.68051 0.51457 0.28894 0.0
Fe111 Fe 0.76033 0.50825 0.24554 0.0
O112 O 0.70777 0.51292 0.24438 0.0
Fe113 Fe 0.68132 0.51503 0.19878 0.0
O114 O 0.64154 0.54793 0.21792 0.0
O115 O 0.66321 0.56402 0.27729 0.0
O116 O 0.71965 0.53808 0.3183 0.0
C117 C 0.74977 0.55817 0.30864 0.0
C118 C 0.63507 0.46429 0.2418 0.0
O119 O 0.76624 0.55359 0.27514 0.0
C120 C 0.74067 0.45792 0.18399 0.0
O121 O 0.69774 0.46562 0.30217 0.0
O122 O 0.76117 0.47729 0.29154 0.0
O123 O 0.65487 0.4692 0.21048 0.0
O124 O 0.6359 0.49103 0.26814 0.0
C125 C 0.7442 0.56381 0.18307 0.0
O126 O 0.75848 0.46229 0.21685 0.0
O127 O 0.71648 0.48393 0.17154 0.0
C128 C 0.73377 0.45892 0.31017 0.0
O129 O 0.76768 0.53923 0.20012 0.0
O130 O 0.70698 0.55971 0.18478 0.0
C131 C 0.64483 0.57308 0.24588 0.0
Fe132 Fe 0.01894 0.19459 0.79689 0.0
Fe133 Fe 0.01535 0.26733 0.74313 0.0
O134 O 0.01424 0.21502 0.74904 0.0
Fe135 Fe 0.00986 0.18266 0.70769 0.0
O136 O 0.97951 0.14505 0.73482 0.0
O137 O 0.97036 0.17313 0.79317 0.0
O138 O 0.99563 0.23626 0.82228 0.0
C139 C 0.9699 0.26069 0.80994 0.0
C140 C 0.06676 0.14499 0.75272 0.0
O141 O 0.97109 0.27375 0.77459 0.0
C142 C 0.06303 0.24232 0.68141 0.0
O143 O 0.06782 0.21604 0.80212 0.0
O144 O 0.04889 0.27635 0.78608 0.0
O145 O 0.05777 0.15902 0.71915 0.0
O146 O 0.04242 0.14855 0.78079 0.0
C147 C 0.95785 0.24133 0.68599 0.0
O148 O 0.05964 0.26388 0.71204 0.0
O149 O 0.03805 0.21509 0.67391 0.0
C150 C 0.07286 0.25308 0.80393 0.0
O151 O 0.98199 0.26717 0.69939 0.0
O152 O 0.96303 0.20485 0.69309 0.0
C153 C 0.95911 0.14944 0.76649 0.0
Fe154 Fe 0.34453 0.51066 0.20022 0.0
Fe155 Fe 0.34444 0.51479 0.29043 0.0
O156 O 0.31753 0.51255 0.2455 0.0
Fe157 Fe 0.26476 0.51295 0.24622 0.0
O158 O 0.26009 0.47966 0.20229 0.0
O159 O 0.32212 0.46394 0.18721 0.0
O160 O 0.3859 0.48101 0.22133 0.0
C161 C 0.38333 0.45666 0.2501 0.0
C162 C 0.28088 0.5624 0.18265 0.0
O163 O 0.36487 0.46602 0.28128 0.0
C164 C 0.28716 0.56745 0.30834 0.0
O165 O 0.36791 0.55841 0.2104 0.0
O166 O 0.38768 0.54003 0.26914 0.0
O167 O 0.26289 0.55745 0.21524 0.0
O168 O 0.30789 0.53883 0.17143 0.0
C169 C 0.27815 0.46776 0.31245 0.0
O170 O 0.32369 0.56314 0.30092 0.0
O171 O 0.2614 0.54599 0.29058 0.0
C172 C 0.38697 0.5657 0.24172 0.0
O173 O 0.30684 0.49039 0.32068 0.0
O174 O 0.26228 0.46856 0.27822 0.0
C175 C 0.28536 0.45693 0.18542 0.0
Fe176 Fe 0.27899 0.01032 0.26191 0.0
Fe177 Fe 0.32166 0.01641 0.18039 0.0
O178 O 0.2779 0.01179 0.20924 0.0
Fe179 Fe 0.23224 1.00719 0.18402 0.0
O180 O 0.2016 0.02731 0.2236 0.0
O181 O 0.24384 0.05227 0.26635 0.0
O182 O 0.32044 0.04671 0.26578 0.0
C183 C 0.33643 0.06982 0.24025 0.0
C184 C 0.22151 0.951 0.23962 0.0
O185 O 0.33421 0.06277 0.20357 0.0
C186 C 0.281 0.96169 0.13658 0.0
O187 O 0.31316 0.96816 0.26212 0.0
O188 O 0.35335 0.98837 0.21454 0.0
O189 O 0.22716 0.95754 0.20313 0.0
O190 O 0.2375 0.97367 0.2656 0.0
C191 C 0.26662 0.0693 0.14634 0.0
O192 O 0.31232 0.96879 0.15573 0.0
O193 O 0.25289 0.98624 0.13856 0.0
C194 C 0.34486 0.96452 0.24231 0.0
O195 O 0.29696 0.04703 0.1417 0.0
O196 O 0.23686 0.05696 0.16546 0.0
C197 C 0.20897 0.0504 0.25205 0.0
Fe198 Fe 0.50256 0.73389 0.68175 0.0
Fe199 Fe 0.51079 0.77893 0.75995 0.0
O200 O 0.51136 0.77861 0.70728 0.0
Fe201 Fe 0.51901 0.82283 0.67983 0.0
O202 O 0.47087 0.81845 0.65539 0.0
O203 O 0.47938 0.75666 0.63796 0.0
O204 O 0.45366 0.73109 0.7037 0.0
C205 C 0.45021 0.72217 0.73988 0.0
C206 C 0.56627 0.76489 0.64238 0.0
O207 O 0.47443 0.73726 0.76484 0.0
C208 C 0.57241 0.83445 0.73955 0.0
O209 O 0.5247 0.70218 0.72022 0.0
O210 O 0.55247 0.7437 0.76253 0.0
O211 O 0.54714 0.79754 0.6397 0.0
O212 O 0.55116 0.73557 0.66003 0.0
C213 C 0.46684 0.84571 0.74121 0.0
O214 O 0.54735 0.82033 0.76428 0.0
O215 O 0.5667 0.83082 0.70282 0.0
C216 C 0.54994 0.70933 0.74723 0.0
O217 O 0.46879 0.81311 0.75999 0.0
O218 O 0.49311 0.8548 0.71575 0.0
C219 C 0.45948 0.7884 0.63658 0.0
Fe220 Fe 0.74612 0.01411 0.2632 0.0
Fe221 Fe 0.70496 0.01675 0.18105 0.0
O222 O 0.74868 0.01381 0.21061 0.0
Fe223 Fe 0.79532 0.00954 0.18713 0.0
O224 O 0.80398 0.96166 0.20998 0.0
O225 O 0.79022 0.98177 0.27055 0.0
O226 O 0.71574 0.96934 0.26294 0.0
C227 C 0.68389 0.96459 0.24338 0.0
C228 C 0.81143 0.06045 0.25136 0.0
O229 O 0.67403 0.98892 0.21625 0.0
C230 C 0.75932 0.06826 0.14365 0.0
O231 O 0.70178 0.04662 0.26495 0.0
O232 O 0.69115 0.06395 0.20271 0.0
O233 O 0.82281 0.03522 0.2261 0.0
O234 O 0.777 0.05879 0.26645 0.0
C235 C 0.748 0.9592 0.14243 0.0
O236 O 0.72873 0.04616 0.14097 0.0
O237 O 0.7888 0.05737 0.16416 0.0
C238 C 0.68626 0.06988 0.23938 0.0
O239 O 0.71547 0.96864 0.15827 0.0
O240 O 0.7766 0.98338 0.1434 0.0
C241 C 0.80715 0.95751 0.24712 0.0
Fe242 Fe 0.5115 0.24516 0.76176 0.0
Fe243 Fe 0.51818 0.20188 0.68081 0.0
O244 O 0.51362 0.24614 0.70916 0.0
Fe245 Fe 0.51043 0.29175 0.68344 0.0
O246 O 0.53146 0.32176 0.72276 0.0
O247 O 0.55379 0.27961 0.76723 0.0
O248 O 0.54723 0.20316 0.76628 0.0
C249 C 0.57109 0.1874 0.74136 0.0
C250 C 0.45319 0.3034 0.73887 0.0
O251 O 0.5648 0.18951 0.70443 0.0
C252 C 0.46307 0.24325 0.63759 0.0
O253 O 0.46868 0.21183 0.76104 0.0
O254 O 0.49041 0.17065 0.71535 0.0
O255 O 0.46077 0.30018 0.70216 0.0
O256 O 0.47552 0.28699 0.76489 0.0
C257 C 0.57175 0.25461 0.64648 0.0
O258 O 0.47048 0.21155 0.65614 0.0
O259 O 0.48841 0.27077 0.63847 0.0
C260 C 0.46547 0.17973 0.74183 0.0
O261 O 0.54832 0.22545 0.6415 0.0
O262 O 0.56036 0.28494 0.66526 0.0
C263 C 0.55302 0.31429 0.75247 0.0
Fe264 Fe 0.32675 0.00984 0.84479 0.0
Fe265 Fe 0.23639 0.01373 0.84438 0.0
O266 O 0.28141 0.01279 0.81767 0.0
Fe267 Fe 0.28079 0.01531 0.76499 0.0
O268 O 0.32485 0.98235 0.75927 0.0
O269 O 0.33991 0.96396 0.82063 0.0
O270 O 0.30589 0.97871 0.88517 0.0
C271 C 0.27687 0.95465 0.88251 0.0
C272 C 0.34447 0.06366 0.78289 0.0
O273 O 0.24602 0.96429 0.86337 0.0
C274 C 0.21907 0.06958 0.789 0.0
O275 O 0.31651 0.05673 0.86979 0.0
O276 O 0.25767 0.03784 0.88847 0.0
O277 O 0.31167 0.05974 0.76491 0.0
O278 O 0.35553 0.0393 0.80934 0.0
C279 C 0.2151 0.96909 0.77636 0.0
O280 O 0.22501 0.06256 0.82543 0.0
O281 O 0.23645 0.04866 0.76257 0.0
C282 C 0.28511 0.06352 0.8888 0.0
O283 O 0.20624 0.99059 0.80569 0.0
O284 O 0.2492 0.97109 0.76063 0.0
C285 C 0.34248 0.95903 0.78356 0.0
Fe286 Fe 0.51665 0.82267 0.34302 0.0
Fe287 Fe 0.51409 0.73267 0.3366 0.0
O288 O 0.51453 0.77941 0.31295 0.0
Fe289 Fe 0.51224 0.78238 0.26039 0.0
O290 O 0.54467 0.82697 0.25769 0.0
O291 O 0.56227 0.83816 0.32003 0.0
O292 O 0.54859 0.7994 0.38169 0.0
C293 C 0.57304 0.77087 0.37684 0.0
C294 C 0.46281 0.84414 0.2818 0.0
O295 O 0.56324 0.74128 0.35609 0.0
C296 C 0.45881 0.71845 0.28019 0.0
O297 O 0.46979 0.8098 0.36706 0.0
O298 O 0.49037 0.75064 0.38199 0.0
O299 O 0.46731 0.81255 0.26201 0.0
O300 O 0.48659 0.85342 0.30947 0.0
C301 C 0.56012 0.71737 0.26856 0.0
O302 O 0.46526 0.72248 0.31696 0.0
O303 O 0.47965 0.73775 0.25501 0.0
C304 C 0.46357 0.77681 0.38347 0.0
O305 O 0.53768 0.70565 0.2961 0.0
O306 O 0.55711 0.75208 0.25452 0.0
C307 C 0.56819 0.8422 0.28328 0.0
Fe308 Fe 0.74796 0.01282 0.7715 0.0
Fe309 Fe 0.69829 0.01083 0.84896 0.0
O310 O 0.74486 0.01129 0.82404 0.0
Fe311 Fe 0.78833 0.01147 0.85328 0.0
O312 O 0.80191 0.05953 0.83427 0.0
O313 O 0.79259 0.04599 0.77085 0.0
O314 O 0.71742 0.05794 0.76928 0.0
C315 C 0.68405 0.06332 0.78567 0.0
C316 C 0.8133 0.96664 0.78636 0.0
O317 O 0.6714 0.03889 0.81111 0.0
C318 C 0.74397 0.95512 0.88958 0.0
O319 O 0.70421 0.97905 0.76491 0.0
O320 O 0.68505 0.96453 0.82623 0.0
O321 O 0.81973 0.98711 0.817 0.0
O322 O 0.77996 0.96849 0.76882 0.0
C323 C 0.74007 0.06438 0.89282 0.0
O324 O 0.71654 0.98096 0.89133 0.0
O325 O 0.7762 0.96277 0.8722 0.0
C326 C 0.68532 0.95692 0.78954 0.0
O327 O 0.70933 0.05851 0.87223 0.0
O328 O 0.76547 0.03684 0.89558 0.0
C329 C 0.8098 0.06605 0.79819 0.0
Fe330 Fe 0.51038 0.20295 0.34447 0.0
Fe331 Fe 0.51572 0.29314 0.34087 0.0
O332 O 0.51252 0.24734 0.31593 0.0
Fe333 Fe 0.51248 0.24606 0.26316 0.0
O334 O 0.47931 0.20186 0.26062 0.0
O335 O 0.46309 0.18996 0.32306 0.0
O336 O 0.48172 0.22547 0.38566 0.0
C337 C 0.45802 0.25485 0.38314 0.0
C338 C 0.56223 0.18354 0.28183 0.0
O339 O 0.46766 0.28515 0.36333 0.0
C340 C 0.56648 0.30979 0.28167 0.0
O341 O 0.55858 0.21296 0.36705 0.0
O342 O 0.54275 0.27337 0.38402 0.0
O343 O 0.55743 0.21563 0.26276 0.0
O344 O 0.53757 0.17294 0.30817 0.0
C345 C 0.46653 0.31151 0.27487 0.0
O346 O 0.56334 0.30281 0.3183 0.0
O347 O 0.54479 0.29085 0.25703 0.0
C348 C 0.56744 0.245 0.38404 0.0
O349 O 0.48969 0.32158 0.30262 0.0
O350 O 0.46788 0.27707 0.25992 0.0
C351 C 0.45616 0.18641 0.28642 0.0
Fe352 Fe 0.26191 0.27943 0.01195 0.0
Fe353 Fe 0.18134 0.32407 0.00978 0.0
O354 O 0.20932 0.27934 0.01273 0.0
Fe355 Fe 0.1835 0.23402 0.01745 0.0
O356 O 0.20508 0.22568 0.06603 0.0
O357 O 0.26669 0.23715 0.04679 0.0
O358 O 0.26376 0.31188 0.05536 0.0
C359 C 0.24498 0.34409 0.06038 0.0
C360 C 0.24746 0.21179 0.9689 0.0
O361 O 0.21767 0.35435 0.03654 0.0
C362 C 0.14401 0.2716 0.95761 0.0
O363 O 0.26509 0.32177 0.97687 0.0
O364 O 0.20271 0.33654 0.96237 0.0
O365 O 0.22141 0.20366 0.99442 0.0
O366 O 0.264 0.24568 0.96873 0.0
C367 C 0.14078 0.28294 0.06665 0.0
O368 O 0.14052 0.30109 0.98098 0.0
O369 O 0.1626 0.24091 0.96863 0.0
C370 C 0.23923 0.33797 0.95425 0.0
O371 O 0.15887 0.31455 0.05834 0.0
O372 O 0.13998 0.25549 0.04135 0.0
C373 C 0.24217 0.22116 0.07075 0.0
Fe374 Fe 0.18601 0.79242 0.01483 0.0
Fe375 Fe 0.26304 0.7439 0.01527 0.0
O376 O 0.21044 0.74618 0.01222 0.0
Fe377 Fe 0.18153 0.70246 1.00775 0.0
O378 O 0.14249 0.72612 0.97665 0.0
O379 O 0.16606 0.78586 0.96564 0.0
O380 O 0.22604 0.82049 0.99138 0.0
C381 C 0.25367 0.80974 0.96847 0.0
C382 C 0.13918 0.74463 0.06281 0.0
O383 O 0.26871 0.77524 0.97091 0.0
C384 C 0.24119 0.68086 0.06291 0.0
O385 O 0.20596 0.80073 0.06401 0.0
O386 O 0.26789 0.78831 0.04807 0.0
O387 O 0.15653 0.71252 0.05473 0.0
O388 O 0.14102 0.77307 0.03838 0.0
C389 C 0.2425 0.68439 0.95775 0.0
O390 O 0.26066 0.71295 0.05994 0.0
O391 O 0.21569 0.67142 0.03683 0.0
C392 C 0.24256 0.80705 0.06905 0.0
O393 O 0.26696 0.69965 0.98243 0.0
O394 O 0.20557 0.6895 0.96171 0.0
C395 C 0.1463 0.75626 0.95409 0.0
Fe396 Fe 0.78161 0.75785 0.51355 0.0
Fe397 Fe 0.82522 0.67707 0.51034 0.0
O398 O 0.78056 0.70532 0.5118 0.0
Fe399 Fe 0.73484 0.67985 0.51201 0.0
O400 O 0.70661 0.71861 0.48669 0.0
O401 O 0.75128 0.76272 0.4685 0.0
O402 O 0.82622 0.76145 0.48109 0.0
C403 C 0.84175 0.73621 0.45735 0.0
C404 C 0.71842 0.73665 0.56663 0.0
O405 O 0.83905 0.69941 0.46383 0.0
C406 C 0.78123 0.63616 0.56459 0.0
O407 O 0.81149 0.7571 0.55913 0.0
O408 O 0.85502 0.71299 0.53843 0.0
O409 O 0.72229 0.69992 0.56001 0.0
O410 O 0.73676 0.76219 0.54552 0.0
C411 C 0.77579 0.63964 0.45502 0.0
O412 O 0.8135 0.65393 0.55803 0.0
O413 O 0.75463 0.6361 0.53789 0.0
C414 C 0.84433 0.73918 0.56308 0.0
O415 O 0.80374 0.63617 0.48032 0.0
O416 O 0.74532 0.65974 0.46334 0.0
C417 C 0.71742 0.74687 0.46461 0.0
Fe418 Fe 0.84647 0.23597 1.00504 0.0
Fe419 Fe 0.76671 0.27972 0.00965 0.0
O420 O 0.81938 0.28051 0.01006 0.0
Fe421 Fe 0.84558 0.32614 0.01488 0.0
O422 O 0.86829 0.31982 0.96614 0.0
O423 O 0.88791 0.25912 0.97844 0.0
O424 O 0.82403 0.22575 0.95716 0.0
C425 C 0.78722 0.21938 0.95329 0.0
C426 C 0.88771 0.27386 0.06409 0.0
O427 O 0.7625 0.23654 0.97604 0.0
C428 C 0.78649 0.33753 0.06879 0.0
O429 O 0.81013 0.2052 0.0305 0.0
O430 O 0.7647 0.24674 0.05317 0.0
O431 O 0.88838 0.3044 0.04194 0.0
O432 O 0.86906 0.24332 0.05329 0.0
C433 C 0.78266 0.34524 0.9635 0.0
O434 O 0.76201 0.32248 0.04404 0.0
O435 O 0.82349 0.33516 0.06296 0.0
C436 C 0.78269 0.21357 0.05464 0.0
O437 O 0.76569 0.31177 0.96563 0.0
O438 O 0.80751 0.35594 0.98962 0.0
C439 C 0.88631 0.28885 0.95538 0.0
Fe440 Fe 0.24627 0.26177 0.51351 0.0
Fe441 Fe 0.29041 0.34136 0.51306 0.0
O442 O 0.24565 0.31433 0.51211 0.0
Fe443 Fe 0.2 0.34093 0.51017 0.0
O444 O 0.17125 0.30355 0.53732 0.0
O445 O 0.21633 0.2613 0.55891 0.0
O446 O 0.2912 0.25837 0.54551 0.0
C447 C 0.30986 0.28398 0.56618 0.0
C448 C 0.18546 0.28189 0.45715 0.0
O449 O 0.30375 0.32068 0.56089 0.0
C450 C 0.24835 0.38136 0.45636 0.0
O451 O 0.27701 0.25834 0.46867 0.0
O452 O 0.31992 0.30412 0.4873 0.0
O453 O 0.18783 0.31874 0.46322 0.0
O454 O 0.20178 0.25703 0.48087 0.0
C455 C 0.24148 0.38299 0.5653 0.0
O456 O 0.27953 0.36228 0.46458 0.0
O457 O 0.2201 0.38313 0.48122 0.0
C458 C 0.31036 0.27545 0.46524 0.0
O459 O 0.26891 0.38374 0.53954 0.0
O460 O 0.21008 0.36396 0.55815 0.0
C461 C 0.18274 0.27788 0.56226 0.0
Fe462 Fe 0.8468 0.7037 1.0078 0.0
Fe463 Fe 0.84105 0.79341 0.01927 0.0
O464 O 0.81736 0.74708 0.01412 0.0
Fe465 Fe 0.76493 0.74445 0.01635 0.0
O466 O 0.76757 0.71197 0.05925 0.0
O467 O 0.81305 0.67104 0.03617 0.0
O468 O 0.87184 0.71174 0.0551 0.0
C469 C 0.88819 0.74376 0.06483 0.0
C470 C 0.78629 0.68867 0.95585 0.0
O471 O 0.88633 0.77305 0.04145 0.0
C472 C 0.7726 0.8127 0.9743 0.0
O473 O 0.88509 0.72945 0.97719 0.0
O474 O 0.86062 0.78957 0.96985 0.0
O475 O 0.7615 0.70203 0.98119 0.0
O476 O 0.82307 0.69252 0.96128 0.0
C477 C 0.7845 0.80413 0.07447 0.0
O478 O 0.8004 0.82231 0.9977 0.0
O479 O 0.75911 0.77767 0.97371 0.0
C480 C 0.8802 0.76076 0.9562 0.0
O481 O 0.82128 0.79921 0.06882 0.0
O482 O 0.75959 0.78683 0.05167 0.0
C483 C 0.78705 0.67997 0.06205 0.0
Fe484 Fe 0.78106 0.26169 0.51147 0.0
Fe485 Fe 0.82026 0.34508 0.51209 0.0
O486 O 0.77745 0.31426 0.51339 0.0
Fe487 Fe 0.7303 0.33667 0.51829 0.0
O488 O 0.72342 0.31304 0.56602 0.0
O489 O 0.73802 0.25301 0.54469 0.0
O490 O 0.81253 0.26059 0.55574 0.0
C491 C 0.84313 0.28159 0.5619 0.0
C492 C 0.71439 0.27364 0.46643 0.0
O493 O 0.85196 0.31012 0.53907 0.0
C494 C 0.76448 0.38261 0.46145 0.0
O495 O 0.8244 0.2619 0.47789 0.0
O496 O 0.83553 0.32519 0.4645 0.0
O497 O 0.70313 0.29747 0.49297 0.0
O498 O 0.74915 0.25914 0.4671 0.0
C499 C 0.77514 0.38151 0.56953 0.0
O500 O 0.79544 0.38503 0.48321 0.0
O501 O 0.73578 0.36051 0.47091 0.0
C502 C 0.83954 0.28885 0.45609 0.0
O503 O 0.80833 0.36635 0.56106 0.0
O504 O 0.74803 0.38077 0.54386 0.0
C505 C 0.72154 0.27581 0.56992 0.0
Fe506 Fe 0.29594 0.68398 0.50759 0.0
Fe507 Fe 0.24895 0.76164 0.50714 0.0
O508 O 0.25003 0.70912 0.51045 0.0
Fe509 Fe 0.20619 0.68029 0.51516 0.0
O510 O 0.2305 0.64337 0.54847 0.0
O511 O 0.29063 0.66747 0.55789 0.0
O512 O 0.32608 0.72451 0.52679 0.0
C513 C 0.31795 0.75353 0.5489 0.0
C514 C 0.24835 0.63488 0.463 0.0
O515 O 0.28299 0.76752 0.54967 0.0
C516 C 0.18387 0.74079 0.46068 0.0
O517 O 0.30179 0.70115 0.45723 0.0
O518 O 0.29141 0.76408 0.47117 0.0
O519 O 0.21676 0.65381 0.46896 0.0
O520 O 0.27576 0.63761 0.48827 0.0
C521 C 0.18926 0.74211 0.56553 0.0
O522 O 0.21571 0.76039 0.4644 0.0
O523 O 0.17512 0.71295 0.48445 0.0
C524 C 0.30819 0.73734 0.44992 0.0
O525 O 0.20666 0.76688 0.54257 0.0
O526 O 0.19203 0.70525 0.56001 0.0
C527 C 0.26051 0.64953 0.571 0.0
C528 C 0.1076 0.22488 0.15684 0.0
C529 C 0.09521 0.25424 0.18392 0.0
C530 C 0.12181 0.23489 0.11925 0.0
C531 C 0.12536 0.27476 0.10707 0.0
H532 H 0.10468 0.19356 0.1638 0.0
H533 H 0.12996 0.21081 0.09949 0.0
S534 S 0.10209 0.3634 0.16821 0.0
N535 N 0.09047 0.32532 0.19703 0.0
N536 N 0.11878 0.34409 0.12627 0.0
C537 C 0.11556 0.30467 0.13452 0.0
C538 C 0.10021 0.29444 0.17292 0.0
C539 C 0.24193 0.58649 0.66291 0.0
C540 C 0.27097 0.60077 0.68965 0.0
C541 C 0.23745 0.60322 0.62488 0.0
C542 C 0.26192 0.63467 0.61244 0.0
H543 H 0.22453 0.56038 0.6702 0.0
H544 H 0.21616 0.59013 0.60452 0.0
S545 S 0.33652 0.6879 0.67462 0.0
N546 N 0.32038 0.65147 0.70331 0.0
N547 N 0.3117 0.68361 0.63241 0.0
C548 C 0.28857 0.6514 0.64033 0.0
C549 C 0.29314 0.63429 0.67881 0.0
C550 C 0.91061 0.78823 0.11893 0.0
C551 C 0.90567 0.74923 0.10496 0.0
C552 C 0.92735 0.7957 0.156 0.0
C553 C 0.94023 0.76466 0.18102 0.0
H554 H 0.90213 0.81357 0.10084 0.0
H555 H 0.93232 0.82646 0.16421 0.0
S556 S 0.93078 0.65696 0.16055 0.0
N557 N 0.91179 0.67869 0.12061 0.0
N558 N 0.94471 0.69324 0.19064 0.0
C559 C 0.93358 0.72537 0.16876 0.0
C560 C 0.91601 0.71756 0.13063 0.0
C561 C 0.78595 0.4276 0.67306 0.0
C562 C 0.7461 0.43014 0.68614 0.0
C563 C 0.79566 0.41105 0.63577 0.0
C564 C 0.76576 0.39743 0.60976 0.0
H565 H 0.80976 0.43954 0.69121 0.0
H566 H 0.82657 0.41018 0.62673 0.0
S567 S 0.65707 0.39385 0.63093 0.0
N568 N 0.67699 0.4138 0.67101 0.0
N569 N 0.69481 0.38512 0.601 0.0
C570 C 0.726 0.39849 0.62314 0.0
C571 C 0.7163 0.4141 0.66128 0.0
C572 C 0.1175 0.79602 0.85243 0.0
C573 C 0.08927 0.7687 0.83863 0.0
C574 C 0.13634 0.79083 0.88914 0.0
C575 C 0.12712 0.75842 0.91418 0.0
H576 H 0.12339 0.82296 0.83575 0.0
H577 H 0.15735 0.81341 0.89844 0.0
S578 S 0.05592 0.67747 0.89051 0.0
N579 N 0.05372 0.70731 0.85146 0.0
N580 N 0.08908 0.6972 0.92103 0.0
C581 C 0.10008 0.72979 0.89985 0.0
C582 C 0.08108 0.73507 0.862 0.0
C583 C 0.75776 0.62143 0.3453 0.0
C584 C 0.76845 0.58141 0.34066 0.0
C585 C 0.76243 0.64052 0.3821 0.0
C586 C 0.77769 0.6202 0.41557 0.0
H587 H 0.74303 0.63719 0.32126 0.0
H588 H 0.75253 0.67103 0.38483 0.0
S589 S 0.8126 0.51574 0.4178 0.0
N590 N 0.79708 0.52265 0.37162 0.0
N591 N 0.80621 0.55871 0.44072 0.0
C592 C 0.79105 0.58101 0.41053 0.0
C593 C 0.78615 0.56153 0.37308 0.0
C594 C 0.92115 0.24126 0.86008 0.0
C595 C 0.93951 0.27238 0.83922 0.0
C596 C 0.90371 0.24737 0.89713 0.0
C597 C 0.90307 0.28521 0.91477 0.0
H598 H 0.92271 0.21121 0.84882 0.0
H599 H 0.89153 0.22181 0.91249 0.0
S600 S 0.94151 0.37818 0.86948 0.0
N601 N 0.95281 0.34327 0.83678 0.0
N602 N 0.91797 0.35552 0.90622 0.0
C603 C 0.9181 0.31751 0.89267 0.0
C604 C 0.93678 0.31096 0.85488 0.0
C605 C 0.25885 0.46597 0.38363 0.0
C606 C 0.26028 0.44631 0.34652 0.0
C607 C 0.25208 0.44519 0.41912 0.0
C608 C 0.2469 0.40392 0.4188 0.0
H609 H 0.26509 0.49751 0.38548 0.0
H610 H 0.25335 0.46112 0.44709 0.0
S611 S 0.24173 0.33916 0.32983 0.0
N612 N 0.25078 0.38393 0.31155 0.0
N613 N 0.23942 0.34444 0.37864 0.0
C614 C 0.24554 0.38421 0.38194 0.0
C615 C 0.25169 0.40555 0.34561 0.0
C616 C 0.17595 0.11064 0.28266 0.0
C617 C 0.1741 0.07083 0.27 0.0
C618 C 0.14078 0.13226 0.29053 0.0
C619 C 0.10296 0.11476 0.28554 0.0
H620 H 0.20433 0.12581 0.28401 0.0
H621 H 0.14309 0.16349 0.29809 0.0
S622 S 0.08225 0.00986 0.25998 0.0
N623 N 0.13122 0.01345 0.25874 0.0
N624 N 0.06593 0.05458 0.27197 0.0
C625 C 0.10095 0.07447 0.27571 0.0
C626 C 0.13636 0.05236 0.26844 0.0
C627 C 0.42111 0.67263 0.78847 0.0
C628 C 0.43172 0.683 0.74927 0.0
C629 C 0.40761 0.63404 0.79791 0.0
C630 C 0.40525 0.60412 0.76865 0.0
H631 H 0.42336 0.69446 0.81202 0.0
H632 H 0.39907 0.62762 0.8283 0.0
S633 S 0.43115 0.61539 0.66157 0.0
N634 N 0.43941 0.65949 0.68109 0.0
N635 N 0.4154 0.58774 0.69878 0.0
C636 C 0.4163 0.61412 0.72944 0.0
C637 C 0.42913 0.65328 0.71976 0.0
C638 C 0.90838 0.93258 0.289 0.0
C639 C 0.91658 0.89621 0.27017 0.0
C640 C 0.87099 0.95093 0.28453 0.0
C641 C 0.84087 0.93334 0.26125 0.0
H642 H 0.93155 0.94797 0.30529 0.0
H643 H 0.86667 0.98029 0.29695 0.0
S644 S 0.84465 0.83458 0.21315 0.0
N645 N 0.88919 0.84026 0.23323 0.0
N646 N 0.81977 0.87553 0.22388 0.0
C647 C 0.8477 0.89566 0.24512 0.0
C648 C 0.88537 0.87687 0.24987 0.0
C649 C 0.63086 0.38284 0.79843 0.0
C650 C 0.61324 0.42047 0.79225 0.0
C651 C 0.61041 0.34757 0.78834 0.0
C652 C 0.57191 0.34923 0.77182 0.0
H653 H 0.66148 0.38079 0.80841 0.0
H654 H 0.62572 0.31931 0.79091 0.0
S655 S 0.51132 0.44077 0.75565 0.0
N656 N 0.55416 0.4571 0.77314 0.0
N657 N 0.51572 0.39193 0.75426 0.0
C658 C 0.55326 0.38684 0.7686 0.0
C659 C 0.57395 0.4222 0.77874 0.0
C660 C 0.14742 0.96829 0.74674 0.0
C661 C 0.18206 0.9471 0.75768 0.0
C662 C 0.11106 0.94873 0.7402 0.0
C663 C 0.10809 0.90747 0.74536 0.0
H664 H 0.14792 1.0005 0.74564 0.0
H665 H 0.08468 0.96625 0.73397 0.0
S666 S 0.19074 0.83804 0.76924 0.0
N667 N 0.21177 0.88244 0.76961 0.0
N668 N 0.14342 0.84554 0.7579 0.0
C669 C 0.14302 0.88573 0.75368 0.0
C670 C 0.18009 0.90559 0.75968 0.0
C671 C 0.62401 0.68151 0.26732 0.0
C672 C 0.5861 0.68724 0.25078 0.0
C673 C 0.64356 0.64487 0.26375 0.0
C674 C 0.62585 0.61273 0.24348 0.0
H675 H 0.6372 0.70435 0.28583 0.0
H676 H 0.67201 0.64112 0.27856 0.0
S677 S 0.52813 0.61412 0.19219 0.0
N678 N 0.53248 0.65908 0.21145 0.0
N679 N 0.56961 0.59031 0.20388 0.0
C680 C 0.58926 0.61913 0.22423 0.0
C681 C 0.56923 0.65639 0.22821 0.0
C682 C 0.86113 0.09377 0.75043 0.0
C683 C 0.8465 0.08963 0.78956 0.0
C684 C 0.89818 0.11201 0.74282 0.0
C685 C 0.92217 0.12629 0.77411 0.0
H686 H 0.84404 0.08261 0.72549 0.0
H687 H 0.90777 0.11546 0.71228 0.0
S688 S 0.89919 0.12076 0.88214 0.0
N689 N 0.85998 0.10149 0.85996 0.0
N690 N 0.92972 0.1327 0.84581 0.0
C691 C 0.90828 0.12148 0.8133 0.0
C692 C 0.87046 0.10409 0.82097 0.0
C693 C 0.46278 0.37745 0.24263 0.0
C694 C 0.44282 0.34349 0.25693 0.0
C695 C 0.44277 0.41377 0.23775 0.0
C696 C 0.40257 0.41735 0.24829 0.0
H697 H 0.49464 0.37652 0.23769 0.0
H698 H 0.45947 0.4397 0.22847 0.0
S699 S 0.33629 0.33612 0.2823 0.0
N700 N 0.38017 0.3146 0.27723 0.0
N701 N 0.34251 0.38318 0.26958 0.0
C702 C 0.38181 0.38302 0.26017 0.0
C703 C 0.40198 0.3459 0.26407 0.0
C704 C 0.22996 0.17359 0.12567 0.0
C705 C 0.25497 0.18682 0.09504 0.0
C706 C 0.23478 0.13593 0.14243 0.0
C707 C 0.26481 0.10981 0.12924 0.0
H708 H 0.20518 0.19175 0.13549 0.0
H709 H 0.21399 0.12695 0.16532 0.0
S710 S 0.34116 0.13194 0.05286 0.0
N711 N 0.3132 0.17231 0.05441 0.0
N712 N 0.32238 0.10132 0.08635 0.0
C713 C 0.29183 0.12365 0.10056 0.0
C714 C 0.28694 0.16224 0.08341 0.0
C715 C 0.25516 0.84615 0.90458 0.0
C716 C 0.27061 0.84099 0.94305 0.0
C717 C 0.25869 0.88275 0.88476 0.0
C718 C 0.27787 0.91543 0.9027 0.0
H719 H 0.23774 0.82275 0.8909 0.0
H720 H 0.24501 0.88591 0.85569 0.0
S721 S 0.32408 0.91651 1.00292 0.0
N722 N 0.30633 0.87097 0.99817 0.0
N723 N 0.3139 0.9395 0.9606 0.0
C724 C 0.29531 0.90992 0.94033 0.0
C725 C 0.29133 0.87276 0.96063 0.0
C726 C 0.64042 0.74074 0.38516 0.0
C727 C 0.61283 0.77032 0.39639 0.0
C728 C 0.67684 0.73632 0.40482 0.0
C729 C 0.68767 0.76159 0.43608 0.0
H730 H 0.63328 0.71957 0.36198 0.0
H731 H 0.69552 0.71122 0.39721 0.0
S732 S 0.62883 0.84622 0.47484 0.0
N733 N 0.60075 0.82752 0.43904 0.0
N734 N 0.66967 0.8188 0.47603 0.0
C735 C 0.66188 0.79288 0.44609 0.0
C736 C 0.6244 0.79742 0.42615 0.0
C737 C 0.8004 0.14868 0.93677 0.0
C738 C 0.77489 0.18176 0.93406 0.0
C739 C 0.78805 0.1109 0.92484 0.0
C740 C 0.7499 0.10444 0.90871 0.0
H741 H 0.82987 0.15156 0.94961 0.0
H742 H 0.80902 0.0866 0.92802 0.0
S743 S 0.67205 0.18165 0.89381 0.0
N744 N 0.70969 0.20595 0.91405 0.0
N745 N 0.68682 0.13495 0.88973 0.0
C746 C 0.72414 0.13742 0.90518 0.0
C747 C 0.73656 0.176 0.91825 0.0
C748 C 0.34991 0.28007 0.40384 0.0
C749 C 0.34203 0.25995 0.4395 0.0
C750 C 0.38721 0.27714 0.38551 0.0
C751 C 0.41819 0.25412 0.40223 0.0
H752 H 0.32802 0.30036 0.39145 0.0
H753 H 0.39221 0.2942 0.35863 0.0
S754 S 0.4119 0.19503 0.49523 0.0
N755 N 0.3675 0.21577 0.49075 0.0
N756 N 0.43755 0.20944 0.45587 0.0
C757 C 0.40996 0.23223 0.43691 0.0
C758 C 0.37192 0.23547 0.45571 0.0
C759 C 0.80233 0.86497 0.11309 0.0
C760 C 0.77238 0.84031 0.09716 0.0
C761 C 0.79387 0.90319 0.12696 0.0
C762 C 0.7549 0.91851 0.12662 0.0
H763 H 0.83315 0.85547 0.11349 0.0
H764 H 0.81839 0.92088 0.13813 0.0
S765 S 0.66462 0.86501 0.09252 0.0
N766 N 0.70133 0.83331 0.08449 0.0
N767 N 0.68534 0.90496 0.11216 0.0
C768 C 0.72414 0.89358 0.11308 0.0
C769 C 0.73287 0.85459 0.0981 0.0
C770 C 0.62082 0.23459 0.59416 0.0
C771 C 0.61245 0.25392 0.63021 0.0
C772 C 0.65838 0.23823 0.57637 0.0
C773 C 0.68857 0.26102 0.59436 0.0
H774 H 0.59761 0.21863 0.57849 0.0
H775 H 0.66274 0.22579 0.54697 0.0
S776 S 0.68454 0.30889 0.69335 0.0
N777 N 0.6395 0.29041 0.68665 0.0
N778 N 0.70982 0.2975 0.65284 0.0
C779 C 0.68168 0.27717 0.63209 0.0
C780 C 0.64362 0.27356 0.65014 0.0
C781 C 0.35029 0.78418 0.60917 0.0
C782 C 0.35206 0.77295 0.56894 0.0
C783 C 0.38543 0.79251 0.63059 0.0
C784 C 0.42304 0.78965 0.6123 0.0
H785 H 0.32214 0.78362 0.62481 0.0
H786 H 0.3834 0.79841 0.6622 0.0
S787 S 0.44315 0.76787 0.50653 0.0
N788 N 0.3943 0.76488 0.51066 0.0
N789 N 0.45971 0.77932 0.55133 0.0
C790 C 0.42484 0.78144 0.57167 0.0
C791 C 0.38944 0.77351 0.54984 0.0
C792 C 0.92686 0.73867 0.90125 0.0
C793 C 0.89758 0.76505 0.91553 0.0
C794 C 0.94477 0.74451 0.86377 0.0
C795 C 0.93387 0.77681 0.83919 0.0
H796 H 0.93704 0.71422 0.91966 0.0
H797 H 0.96877 0.72489 0.85504 0.0
S798 S 0.85477 0.85095 0.85959 0.0
N799 N 0.85555 0.82227 0.89944 0.0
N800 N 0.88906 0.83268 0.82976 0.0
C801 C 0.90282 0.80163 0.85191 0.0
C802 C 0.88477 0.79595 0.88984 0.0
C803 C 0.78782 0.40522 0.39455 0.0
C804 C 0.75979 0.40713 0.42551 0.0
C805 C 0.77944 0.42192 0.357 0.0
C806 C 0.74264 0.44054 0.34934 0.0
H807 H 0.81557 0.3893 0.39886 0.0
H808 H 0.80145 0.41949 0.33364 0.0
S809 S 0.66212 0.45818 0.42322 0.0
N810 N 0.69604 0.43235 0.44771 0.0
N811 N 0.67999 0.46376 0.3779 0.0
C812 C 0.71532 0.44415 0.38102 0.0
C813 C 0.724 0.42744 0.41892 0.0
C814 C 0.13013 0.24511 0.84935 0.0
C815 C 0.09653 0.26724 0.83806 0.0
C816 C 0.14568 0.24777 0.88779 0.0
C817 C 0.12838 0.27289 0.91647 0.0
H818 H 0.14295 0.22363 0.82906 0.0
H819 H 0.17079 0.22894 0.89538 0.0
S820 S 0.04365 0.34166 0.9 0.0
N821 N 0.04896 0.31843 0.85708 0.0
N822 N 0.07889 0.32398 0.92948 0.0
C823 C 0.09702 0.29791 0.90455 0.0
C824 C 0.08097 0.29504 0.86523 0.0
C825 C 0.24045 0.60446 0.35388 0.0
C826 C 0.27691 0.58492 0.3475 0.0
C827 C 0.23048 0.61943 0.3917 0.0
C828 C 0.25624 0.61447 0.4246 0.0
H829 H 0.21988 0.60877 0.32938 0.0
H830 H 0.20282 0.63568 0.39495 0.0
S831 S 0.35259 0.56 0.42462 0.0
N832 N 0.33718 0.55833 0.37808 0.0
N833 N 0.31804 0.58506 0.44868 0.0
C834 C 0.29186 0.59321 0.4188 0.0
C835 C 0.30231 0.57884 0.38041 0.0
C836 C 0.88947 0.25241 0.13508 0.0
C837 C 0.90741 0.27355 0.10361 0.0
C838 C 0.90847 0.24803 0.17202 0.0
C839 C 0.94606 0.2647 0.17888 0.0
H840 H 0.86088 0.23818 0.13078 0.0
H841 H 0.89473 0.22948 0.19451 0.0
S842 S 1.00526 0.32409 0.10737 0.0
N843 N 0.96414 0.31303 0.08267 0.0
N844 N 1.00026 0.304 0.15197 0.0
C845 C 0.96363 0.28733 0.14841 0.0
C846 C 0.94412 0.29213 0.11083 0.0
C847 C 0.29101 0.44698 0.6426 0.0
C848 C 0.26456 0.44722 0.67512 0.0
C849 C 0.28254 0.42679 0.60768 0.0
C850 C 0.2472 0.40517 0.60307 0.0
H851 H 0.31901 0.46291 0.64374 0.0
H852 H 0.30439 0.42826 0.58407 0.0
S853 S 0.16869 0.39313 0.67992 0.0
N854 N 0.20199 0.42236 0.70128 0.0
N855 N 0.18596 0.3831 0.63502 0.0
C856 C 0.22062 0.40381 0.63562 0.0
C857 C 0.22937 0.42494 0.67177 0.0
C858 C 0.10078 0.78779 0.10906 0.0
C859 C 0.11963 0.75113 0.10197 0.0
C860 C 0.08588 0.79747 0.14652 0.0
C861 C 0.08904 0.77108 0.17895 0.0
H862 H 0.09779 0.80969 0.08557 0.0
H863 H 0.07094 0.82583 0.14972 0.0
S864 S 0.13459 0.67076 0.17664 0.0
N865 N 0.14007 0.68776 0.13083 0.0
N866 N 0.1112 0.70612 0.20144 0.0
C867 C 0.10687 0.73391 0.17238 0.0
C868 C 0.12242 0.72395 0.13395 0.0
C869 C 0.72439 0.58262 0.6454 0.0
C870 C 0.75113 0.58038 0.67772 0.0
C871 C 0.73498 0.59997 0.60934 0.0
C872 C 0.7728 0.61669 0.60351 0.0
H873 H 0.69475 0.57013 0.64753 0.0
H874 H 0.71288 0.60026 0.58581 0.0
S875 S 0.85295 0.6228 0.67971 0.0
N876 N 0.81661 0.59877 0.70243 0.0
N877 N 0.83648 0.63275 0.63439 0.0
C878 C 0.79957 0.61643 0.63602 0.0
C879 C 0.78873 0.59816 0.67314 0.0
C880 C 0.88632 0.96532 0.77585 0.0
C881 C 0.84888 0.94788 0.76808 0.0
C882 C 0.92178 0.94697 0.76454 0.0
C883 C 0.92159 0.91067 0.74423 0.0
H884 H 0.88848 0.99312 0.79199 0.0
H885 H 0.9497 0.96087 0.77276 0.0
S886 S 0.83207 0.85344 0.71413 0.0
N887 N 0.81385 0.89293 0.73702 0.0
N888 N 0.88102 0.85842 0.7149 0.0
C889 C 0.88453 0.89373 0.73412 0.0
C890 C 0.84804 0.91239 0.74616 0.0
C891 C 0.60329 0.35527 0.23435 0.0
C892 C 0.583 0.34924 0.27038 0.0
C893 C 0.61888 0.39294 0.22441 0.0
C894 C 0.61403 0.42606 0.2498 0.0
H895 H 0.60796 0.33059 0.21423 0.0
H896 H 0.63565 0.39582 0.19709 0.0
S897 S 0.55801 0.42695 0.34499 0.0
N898 N 0.55551 0.38051 0.3296 0.0
N899 N 0.58415 0.45056 0.31093 0.0
C900 C 0.59201 0.42061 0.28494 0.0
C901 C 0.57668 0.38245 0.2952 0.0
C902 C 0.16802 0.09454 0.73934 0.0
C903 C 0.1835 0.09416 0.77844 0.0
C904 C 0.13051 0.11144 0.73075 0.0
C905 C 0.10667 0.12759 0.76111 0.0
H906 H 0.18434 0.08056 0.71539 0.0
H907 H 0.11963 0.11075 0.7004 0.0
S908 S 0.13487 0.13765 0.86774 0.0
N909 N 0.1733 0.11564 0.84683 0.0
N910 N 0.10251 0.14434 0.83145 0.0
C911 C 0.1224 0.12851 0.8 0.0
C912 C 0.16086 0.11272 0.80842 0.0
C913 C 0.40875 0.61816 0.28868 0.0
C914 C 0.40439 0.60554 0.24912 0.0
C915 C 0.4237 0.65568 0.29781 0.0
C916 C 0.43605 0.68241 0.26797 0.0
H917 H 0.40035 0.59895 0.31316 0.0
H918 H 0.42684 0.66301 0.32893 0.0
S919 S 0.42804 0.66504 0.15918 0.0
N920 N 0.41092 0.62365 0.17937 0.0
N921 N 0.44048 0.69427 0.19666 0.0
C922 C 0.43069 0.67079 0.22804 0.0
C923 C 0.41462 0.6324 0.21863 0.0
C924 C 0.85468 0.11653 0.23509 0.0
C925 C 0.84136 0.08954 0.26391 0.0
C926 C 0.89217 0.1342 0.23805 0.0
C927 C 0.91811 0.12538 0.26991 0.0
H928 H 0.83704 0.12197 0.20861 0.0
H929 H 0.9013 0.15392 0.21426 0.0
S930 S 0.89495 0.05951 0.35552 0.0
N931 N 0.85502 0.05692 0.32685 0.0
N932 N 0.92574 0.09051 0.33308 0.0
C933 C 0.90393 0.10039 0.30045 0.0
C934 C 0.86549 0.08237 0.29728 0.0
C935 C 0.43612 0.36033 0.78376 0.0
C936 C 0.42665 0.33653 0.75058 0.0
C937 C 0.41958 0.39851 0.78827 0.0
C938 C 0.39273 0.41393 0.75997 0.0
H939 H 0.45879 0.35084 0.8047 0.0
H940 H 0.42928 0.41662 0.81307 0.0
S941 S 0.34998 0.35837 0.67417 0.0
N942 N 0.38321 0.32776 0.69354 0.0
N943 N 0.35144 0.39862 0.7021 0.0
C944 C 0.37982 0.3884 0.72917 0.0
C945 C 0.39682 0.34988 0.72455 0.0
C946 C 0.17203 0.92547 0.28979 0.0
C947 C 0.18535 0.92775 0.25009 0.0
C948 C 0.13367 0.91147 0.29896 0.0
C949 C 0.10687 0.90041 0.26871 0.0
H950 H 0.1908 0.93584 0.31386 0.0
H951 H 0.1245 0.91058 0.32979 0.0
S952 S 0.12791 0.89791 0.16008 0.0
N953 N 0.16955 0.91353 0.18062 0.0
N954 N 0.09698 0.8914 0.19746 0.0
C955 C 0.12016 0.90176 0.22902 0.0
C956 C 0.15954 0.9141 0.21986 0.0
C957 C 0.5515 0.63799 0.76644 0.0
C958 C 0.57164 0.67472 0.76366 0.0
C959 C 0.57209 0.6024 0.77354 0.0
C960 C 0.61356 0.60233 0.7776 0.0
H961 H 0.51965 0.63652 0.76138 0.0
H962 H 0.55577 0.57463 0.77367 0.0
S963 S 0.67996 0.6903 0.77658 0.0
N964 N 0.63501 0.70893 0.7689 0.0
N965 N 0.674 0.64173 0.7813 0.0
C966 C 0.63389 0.63886 0.777 0.0
C967 C 0.61281 0.67525 0.77043 0.0
C968 C 0.73963 0.91666 0.95226 0.0
C969 C 0.7405 0.91722 0.91066 0.0
C970 C 0.74618 0.88113 0.97293 0.0
C971 C 0.75321 0.84522 0.95252 0.0
H972 H 0.73698 0.94415 0.96883 0.0
H973 H 0.74846 0.88222 1.00509 0.0
S974 S 0.75037 0.83048 0.84351 0.0
N975 N 0.74336 0.87876 0.84957 0.0
N976 N 0.7549 0.81152 0.88872 0.0
C977 C 0.74999 0.84482 0.91101 0.0
C978 C 0.74397 0.88113 0.88993 0.0
C979 C 0.8042 0.16304 0.10274 0.0
C980 C 0.77245 0.18189 0.08313 0.0
C981 C 0.79928 0.1266 0.12187 0.0
C982 C 0.76227 0.10695 0.12225 0.0
H983 H 0.83382 0.17573 0.10168 0.0
H984 H 0.82532 0.11333 0.13558 0.0
S985 S 0.66884 0.14499 0.07665 0.0
N986 N 0.70231 0.17934 0.06593 0.0
N987 N 0.69244 0.11055 0.10281 0.0
C988 C 0.72967 0.12618 0.10388 0.0
C989 C 0.73486 0.16374 0.08422 0.0
C990 C 0.41537 0.28991 0.60519 0.0
C991 C 0.42376 0.25109 0.61856 0.0
C992 C 0.37807 0.30023 0.59005 0.0
C993 C 0.34716 0.27221 0.587 0.0
H994 H 0.43768 0.31307 0.60682 0.0
H995 H 0.3739 0.33053 0.57983 0.0
S996 S 0.35305 0.16634 0.61767 0.0
N997 N 0.39761 0.18432 0.62809 0.0
N998 N 0.32732 0.20369 0.59853 0.0
C999 C 0.35491 0.23313 0.59998 0.0
C1000 C 0.39313 0.22261 0.61601 0.0
C1001 C 0.28842 0.85194 0.10824 0.0
C1002 C 0.25363 0.84642 0.08557 0.0
C1003 C 0.2984 0.88973 0.12341 0.0
C1004 C 0.27441 0.92335 0.11555 0.0
H1005 H 0.30741 0.82678 0.11513 0.0
H1006 H 0.32432 0.89232 0.14237 0.0
S1007 S 0.18381 0.92562 0.05193 0.0
N1008 N 0.19747 0.87854 0.05264 0.0
N1009 N 0.21683 0.949 0.07964 0.0
C1010 C 0.24093 0.91838 0.09084 0.0
C1011 C 0.23039 0.88011 0.07625 0.0
C1012 C 0.66033 0.78157 0.58087 0.0
C1013 C 0.68412 0.74864 0.59152 0.0
C1014 C 0.62245 0.78735 0.59779 0.0
C1015 C 0.60706 0.76027 0.62578 0.0
H1016 H 0.67005 0.8018 0.55779 0.0
H1017 H 0.60463 0.81233 0.58782 0.0
S1018 S 0.66091 0.67303 0.66838 0.0
N1019 N 0.69184 0.69167 0.63526 0.0
N1020 N 0.6213 0.70205 0.66702 0.0
C1021 C 0.63198 0.72881 0.6386 0.0
C1022 C 0.67033 0.72317 0.62155 0.0
C1023 C 0.22952 0.14993 0.9342 0.0
C1024 C 0.25916 0.17821 0.94288 0.0
C1025 C 0.23876 0.113 0.91795 0.0
C1026 C 0.27802 0.10266 0.90821 0.0
H1027 H 0.19865 0.1558 0.9415 0.0
H1028 H 0.21456 0.09234 0.91304 0.0
S1029 S 0.367 0.16645 0.92338 0.0
N1030 N 0.32966 0.1937 0.94016 0.0
N1031 N 0.34717 0.12441 0.90744 0.0
C1032 C 0.30811 0.13115 0.91524 0.0
C1033 C 0.29864 0.16894 0.93281 0.0
C1034 C 0.35634 0.78653 0.41997 0.0
C1035 C 0.3457 0.74685 0.42822 0.0
C1036 C 0.3945 0.79622 0.4057 0.0
C1037 C 0.42384 0.76674 0.40013 0.0
H1038 H 0.33533 0.81037 0.42533 0.0
H1039 H 0.40122 0.82712 0.39959 0.0
S1040 S 0.41134 0.65812 0.41675 0.0
N1041 N 0.36779 0.67759 0.4279 0.0
N1042 N 0.43931 0.69608 0.40359 0.0
C1043 C 0.41345 0.72696 0.40793 0.0
C1044 C 0.37448 0.71695 0.42117 0.0
C1045 C 0.62921 0.21877 0.41829 0.0
C1046 C 0.60762 0.25073 0.40154 0.0
C1047 C 0.66669 0.22495 0.4363 0.0
C1048 C 0.68417 0.26293 0.43656 0.0
H1049 H 0.61623 0.18932 0.41924 0.0
H1050 H 0.68078 0.20061 0.45213 0.0
S1051 S 0.64337 0.35467 0.3908 0.0
N1052 N 0.60865 0.32085 0.38358 0.0
N1053 N 0.67966 0.33138 0.41437 0.0
C1054 C 0.6644 0.29404 0.41693 0.0
C1055 C 0.62595 0.28828 0.40024 0.0
C1056 C 0.14591 0.29626 0.39587 0.0
C1057 C 0.15745 0.2689 0.42564 0.0
C1058 C 0.1156 0.28747 0.36868 0.0
C1059 C 0.09516 0.25117 0.37051 0.0
H1060 H 0.15969 0.3253 0.3941 0.0
H1061 H 0.1073 0.30983 0.34694 0.0
S1062 S 0.1164 0.16759 0.43995 0.0
N1063 N 0.14799 0.20273 0.45323 0.0
N1064 N 0.09079 0.18613 0.40226 0.0
C1065 C 0.10749 0.22279 0.39896 0.0
C1066 C 0.13872 0.23162 0.42643 0.0
C1067 C 0.22883 0.64238 0.89775 0.0
C1068 C 0.25587 0.65518 0.92726 0.0
C1069 C 0.23864 0.61211 0.87086 0.0
C1070 C 0.27584 0.59296 0.87239 0.0
H1071 H 0.19942 0.65549 0.89562 0.0
H1072 H 0.2165 0.60319 0.84917 0.0
S1073 S 0.35871 0.6172 0.94176 0.0
N1074 N 0.32246 0.64766 0.95481 0.0
N1075 N 0.34099 0.59084 0.90434 0.0
C1076 C 0.3037 0.60623 0.90093 0.0
C1077 C 0.29375 0.63732 0.92823 0.0
C1078 C 0.91338 0.79889 0.39667 0.0
C1079 C 0.92673 0.77231 0.36707 0.0
C1080 C 0.88489 0.78758 0.42488 0.0
C1081 C 0.86843 0.74923 0.42464 0.0
H1082 H 0.92582 0.82851 0.39889 0.0
H1083 H 0.8767 0.8087 0.44775 0.0
S1084 S 0.88894 0.67017 0.3501 0.0
N1085 N 0.91849 0.70714 0.33712 0.0
N1086 N 0.86459 0.68585 0.38969 0.0
C1087 C 0.88005 0.72294 0.39402 0.0
C1088 C 0.90929 0.73444 0.36543 0.0
C1089 C 0.74947 0.44154 0.91615 0.0
C1090 C 0.75649 0.43538 0.87527 0.0
C1091 C 0.75719 0.41179 0.94431 0.0
C1092 C 0.77129 0.37432 0.9327 0.0
H1093 H 0.73807 0.46977 0.92667 0.0
H1094 H 0.75205 0.41814 0.97548 0.0
S1095 S 0.79587 0.3427 0.83013 0.0
N1096 N 0.77954 0.38882 0.82492 0.0
N1097 N 0.79341 0.33259 0.8782 0.0
C1098 C 0.7786 0.36748 0.89217 0.0
C1099 C 0.77142 0.3981 0.86337 0.0
C1100 C 0.13302 0.72802 0.61234 0.0
C1101 C 0.16127 0.75529 0.5973 0.0
C1102 C 0.10485 0.73907 0.64098 0.0
C1103 C 0.10357 0.77792 0.65605 0.0
H1104 H 0.13185 0.69782 0.60123 0.0
H1105 H 0.08319 0.7172 0.65043 0.0
S1106 S 0.17391 0.85953 0.63065 0.0
N1107 N 0.18812 0.82208 0.6023 0.0
N1108 N 0.13557 0.84301 0.65644 0.0
C1109 C 0.13272 0.80515 0.64263 0.0
C1110 C 0.16135 0.79386 0.61319 0.0
C1111 C 0.78999 0.58798 0.12915 0.0
C1112 C 0.7592 0.59544 0.15636 0.0
C1113 C 0.79915 0.61561 0.09901 0.0
C1114 C 0.77798 0.65175 0.09514 0.0
H1115 H 0.80585 0.55992 0.12999 0.0
H1116 H 0.82248 0.60814 0.07814 0.0
S1117 S 0.6977 0.68691 0.1627 0.0
N1118 N 0.70985 0.64256 0.17993 0.0
N1119 N 0.72694 0.69448 0.12404 0.0
C1120 C 0.74843 0.66018 0.1237 0.0
C1121 C 0.7391 0.63205 0.15407 0.0
C1122 C 0.87393 0.2332 0.60993 0.0
C1123 C 0.87046 0.2722 0.59533 0.0
C1124 C 0.90148 0.22375 0.63998 0.0
C1125 C 0.92641 0.25302 0.6569 0.0
H1126 H 0.85606 0.20956 0.59733 0.0
H1127 H 0.90368 0.19301 0.64941 0.0
S1128 S 0.92486 0.36082 0.63254 0.0
N1129 N 0.8915 0.34103 0.60244 0.0
N1130 N 0.94294 0.32347 0.65889 0.0
C1131 C 0.92175 0.29254 0.64379 0.0
C1132 C 0.89393 0.30205 0.61302 0.0
C1133 C 0.23868 0.43049 0.13356 0.0
C1134 C 0.27254 0.42525 0.15756 0.0
C1135 C 0.23009 0.40399 0.10246 0.0
C1136 C 0.25483 0.37098 0.09425 0.0
H1137 H 0.2196 0.45615 0.13769 0.0
H1138 H 0.20398 0.40984 0.0844 0.0
S1139 S 0.34478 0.34175 0.15188 0.0
N1140 N 0.3293 0.38309 0.17328 0.0
N1141 N 0.31303 0.3331 0.11534 0.0
C1142 C 0.28777 0.36444 0.11942 0.0
C1143 C 0.29663 0.3916 0.15087 0.0
C1144 C 0.37946 0.10328 0.29133 0.0
C1145 C 0.36316 0.10279 0.25283 0.0
C1146 C 0.40884 0.13093 0.30192 0.0
C1147 C 0.42337 0.15921 0.27444 0.0
H1148 H 0.37057 0.08127 0.31311 0.0
H1149 H 0.42108 0.12924 0.33172 0.0
S1150 S 0.38647 0.17425 0.17145 0.0
N1151 N 0.36072 0.13601 0.18827 0.0
N1152 N 0.41632 0.18738 0.20824 0.0
C1153 C 0.40605 0.16027 0.23642 0.0
C1154 C 0.37586 0.13231 0.22565 0.0
C1155 C 0.38058 0.89611 0.79426 0.0
C1156 C 0.37135 0.92871 0.76949 0.0
C1157 C 0.41112 0.86939 0.78471 0.0
C1158 C 0.43421 0.87434 0.7502 0.0
H1159 H 0.36438 0.89146 0.82171 0.0
H1160 H 0.41711 0.84507 0.80505 0.0
S1161 S 0.42092 0.95387 0.67428 0.0
N1162 N 0.38677 0.96363 0.70812 0.0
N1163 N 0.44431 0.91357 0.69004 0.0
C1164 C 0.42465 0.9063 0.72458 0.0
C1165 C 0.39317 0.93334 0.73418 0.0
C1166 C 0.62342 0.92359 0.22802 0.0
C1167 C 0.65633 0.93132 0.25306 0.0
C1168 C 0.596 0.89339 0.23677 0.0
C1169 C 0.60022 0.86988 0.27108 0.0
H1170 H 0.61837 0.94133 0.20156 0.0
H1171 H 0.57055 0.88948 0.21731 0.0
S1172 S 0.68298 0.87479 0.34443 0.0
N1173 N 0.69289 0.91053 0.31222 0.0
N1174 N 0.64138 0.85402 0.32864 0.0
C1175 C 0.63377 0.8761 0.29553 0.0
C1176 C 0.6618 0.9067 0.28655 0.0
C1177 C 0.625 0.10681 0.79932 0.0
C1178 C 0.65803 0.09774 0.77499 0.0
C1179 C 0.59831 0.13746 0.7896 0.0
C1180 C 0.60325 0.16019 0.75492 0.0
H1181 H 0.61917 0.08966 0.82598 0.0
H1182 H 0.57266 0.14211 0.8085 0.0
S1183 S 0.68716 0.15241 0.68357 0.0
N1184 N 0.69599 0.11694 0.7165 0.0
N1185 N 0.64562 0.17427 0.69804 0.0
C1186 C 0.63714 0.15292 0.73133 0.0
C1187 C 0.66457 0.12185 0.7414 0.0
C1188 C 0.91152 0.76394 0.58164 0.0
C1189 C 0.87334 0.75196 0.59356 0.0
C1190 C 0.94073 0.77405 0.60967 0.0
C1191 C 0.93336 0.77142 0.65083 0.0
H1192 H 0.9188 0.76569 0.55029 0.0
H1193 H 0.96958 0.78356 0.59894 0.0
S1194 S 0.83837 0.73997 0.69733 0.0
N1195 N 0.82952 0.73748 0.649 0.0
N1196 N 0.88491 0.75523 0.70202 0.0
C1197 C 0.89538 0.75882 0.66318 0.0
C1198 C 0.86523 0.74946 0.63446 0.0
C1199 C 0.79921 0.37741 0.13055 0.0
C1200 C 0.77234 0.36436 0.10097 0.0
C1201 C 0.7884 0.40652 0.15841 0.0
C1202 C 0.75044 0.42407 0.1575 0.0
H1203 H 0.82928 0.36578 0.13166 0.0
H1204 H 0.81045 0.41641 0.17976 0.0
S1205 S 0.6674 0.39738 0.0895 0.0
N1206 N 0.70476 0.36898 0.07508 0.0
N1207 N 0.68464 0.42374 0.12712 0.0
C1208 C 0.72265 0.40995 0.12945 0.0
C1209 C 0.7335 0.38006 0.10134 0.0
C1210 C 0.08673 0.24576 0.61109 0.0
C1211 C 0.09471 0.25068 0.65192 0.0
C1212 C 0.11585 0.25364 0.58234 0.0
C1213 C 0.15445 0.26543 0.59336 0.0
H1214 H 0.05741 0.23669 0.60118 0.0
H1215 H 0.10806 0.25075 0.55117 0.0
S1216 S 0.19128 0.28114 0.69608 0.0
N1217 N 0.14437 0.26762 0.70186 0.0
N1218 N 0.19951 0.28112 0.64762 0.0
C1219 C 0.16326 0.26949 0.63399 0.0
C1220 C 0.13327 0.26248 0.66332 0.0
C1221 C 0.29643 0.62373 0.14408 0.0
C1222 C 0.26877 0.59446 0.15526 0.0
C1223 C 0.28698 0.65243 0.11511 0.0
C1224 C 0.24994 0.65204 0.09543 0.0
H1225 H 0.32574 0.62419 0.1576 0.0
H1226 H 0.30932 0.67424 0.10723 0.0
S1227 S 0.1675 0.5807 0.11422 0.0
N1228 N 0.20296 0.56687 0.14541 0.0
N1229 N 0.18532 0.61946 0.08989 0.0
C1230 C 0.22198 0.62279 0.10675 0.0
C1231 C 0.23135 0.59433 0.13693 0.0
C1232 C 0.8954 0.30434 0.40895 0.0
C1233 C 0.86613 0.27759 0.4226 0.0
C1234 C 0.92305 0.29326 0.37969 0.0
C1235 C 0.92243 0.25504 0.36272 0.0
H1236 H 0.89794 0.33368 0.42195 0.0
H1237 H 0.94595 0.31434 0.37145 0.0
S1238 S 0.84783 0.1761 0.38339 0.0
N1239 N 0.83563 0.21269 0.41371 0.0
N1240 N 0.88699 0.192 0.35851 0.0
C1241 C 0.89179 0.22886 0.3744 0.0
C1242 C 0.86387 0.24005 0.40437 0.0
C1243 C 0.29094 0.3784 0.91922 0.0
C1244 C 0.25179 0.36395 0.92079 0.0
C1245 C 0.30215 0.40682 0.89091 0.0
C1246 C 0.27467 0.42213 0.86295 0.0
H1247 H 0.31286 0.36885 0.94093 0.0
H1248 H 0.33243 0.41781 0.89195 0.0
S1249 S 0.16997 0.38942 0.85041 0.0
N1250 N 0.18652 0.36365 0.8889 0.0
N1251 N 0.20764 0.41741 0.836 0.0
C1252 C 0.23596 0.40638 0.86279 0.0
C1253 C 0.22454 0.37722 0.89156 0.0
C1254 C 0.13217 0.72145 0.41039 0.0
C1255 C 0.15514 0.75133 0.42879 0.0
C1256 C 0.10378 0.7308 0.38099 0.0
C1257 C 0.09668 0.77046 0.3698 0.0
H1258 H 0.13617 0.69058 0.4188 0.0
H1259 H 0.08636 0.70704 0.36797 0.0
S1260 S 0.14954 0.85949 0.40785 0.0
N1261 N 0.16982 0.82197 0.43236 0.0
N1262 N 0.11569 0.83962 0.37829 0.0
C1263 C 0.1198 0.80047 0.38755 0.0
C1264 C 0.14926 0.7909 0.4167 0.0
C1265 C 0.7228 0.61896 0.89387 0.0
C1266 C 0.74958 0.60464 0.86486 0.0
C1267 C 0.73432 0.64728 0.92211 0.0
C1268 C 0.77308 0.66276 0.92252 0.0
H1269 H 0.69285 0.60725 0.89582 0.0
H1270 H 0.71299 0.65601 0.94459 0.0
S1271 S 0.8527 0.64018 0.84904 0.0
N1272 N 0.81526 0.61133 0.83571 0.0
N1273 N 0.83702 0.66513 0.88826 0.0
C1274 C 0.7995 0.65055 0.89216 0.0
C1275 C 0.78777 0.62137 0.86355 0.0
C1276 C 0.60422 0.87774 0.79136 0.0
C1277 C 0.60465 0.86201 0.75272 0.0
C1278 C 0.63081 0.90774 0.80275 0.0
C1279 C 0.65912 0.92368 0.77605 0.0
H1280 H 0.5823 0.86781 0.81275 0.0
H1281 H 0.62827 0.91919 0.83274 0.0
S1282 S 0.67633 0.8891 0.67283 0.0
N1283 N 0.63866 0.8619 0.68865 0.0
N1284 N 0.68822 0.91862 0.71021 0.0
C1285 C 0.66114 0.90702 0.73783 0.0
C1286 C 0.63413 0.87615 0.7262 0.0
C1287 C 0.61172 0.15529 0.23358 0.0
C1288 C 0.5957 0.15642 0.27213 0.0
C1289 C 0.64171 0.12796 0.2236 0.0
C1290 C 0.65727 0.10099 0.25191 0.0
H1291 H 0.60023 0.17484 0.21061 0.0
H1292 H 0.65229 0.12761 0.19318 0.0
S1293 S 0.62855 0.0955 0.35847 0.0
N1294 N 0.59975 0.13063 0.33966 0.0
N1295 N 0.65617 0.07965 0.32117 0.0
C1296 C 0.64271 0.10322 0.2911 0.0
C1297 C 0.61192 0.13076 0.3011 0.0
C1298 C 0.38542 0.1233 0.79858 0.0
C1299 C 0.37255 0.09492 0.77075 0.0
C1300 C 0.41477 0.15133 0.78881 0.0
C1301 C 0.43314 0.1511 0.75121 0.0
H1302 H 0.37283 0.12364 0.82819 0.0
H1303 H 0.42386 0.17258 0.81124 0.0
S1304 S 0.40992 0.08181 0.66819 0.0
N1305 N 0.37964 0.06814 0.7043 0.0
N1306 N 0.43569 0.11966 0.6859 0.0
C1307 C 0.42023 0.12269 0.7231 0.0
C1308 C 0.38971 0.09487 0.73287 0.0
C1309 C 0.40926 0.892 0.30093 0.0
C1310 C 0.43112 0.87269 0.27092 0.0
C1311 C 0.38046 0.92089 0.29155 0.0
C1312 C 0.37353 0.93237 0.2519 0.0
H1313 H 0.41447 0.88468 0.33192 0.0
H1314 H 0.36439 0.93514 0.31553 0.0
S1315 S 0.4227 0.89045 0.16243 0.0
N1316 N 0.4431 0.86616 0.20005 0.0
N1317 N 0.39039 0.92158 0.18239 0.0
C1318 C 0.39512 0.91308 0.22165 0.0
C1319 C 0.42353 0.88292 0.23116 0.0
loop_
_geom_bond_atom_site_label_1
_geom_bond_atom_site_label_2
_geom_bond_distance
_geom_bond_site_symmetry_2
_ccdc_geom_bond_type
Fe0 O2 1.918 . S
Fe0 O5 1.997 . S
Fe0 O6 2.002 . S
Fe0 O11 1.976 1_455 S
Fe0 O14 1.996 1_455 S
Fe1 O2 1.918 . S
Fe1 O9 1.997 . S
Fe1 O12 1.996 1_455 S
Fe1 O16 1.976 1_455 S
Fe1 O19 2.002 . S
O2 Fe0 1.918 . S
O2 Fe1 1.918 . S
O2 Fe3 1.918 . S
Fe3 O2 1.918 . S
Fe3 O4 2.002 . S
Fe3 O13 1.976 1_455 S
Fe3 O17 1.996 1_455 S
Fe3 O20 1.997 . S
O4 Fe3 2.002 . S
O4 C21 1.295 . S
O5 Fe0 1.997 . S
O5 C21 1.235 . S
O6 Fe0 2.002 . S
O6 C7 1.295 . S
C7 O6 1.295 . S
C7 O9 1.235 . S
C8 O13 1.287 . S
C8 O14 1.255 . S
O9 Fe1 1.997 . S
O9 C7 1.235 . S
C10 O16 1.287 . S
C10 O17 1.255 . S
O11 Fe0 1.976 1_655 S
O11 C18 1.287 . S
O12 Fe1 1.996 1_655 S
O12 C18 1.255 . S
O13 Fe3 1.976 1_655 S
O13 C8 1.287 . S
O14 Fe0 1.996 1_655 S
O14 C8 1.255 . S
C15 O19 1.295 . S
C15 O20 1.235 . S
O16 Fe1 1.976 1_655 S
O16 C10 1.287 . S
O17 Fe3 1.996 1_655 S
O17 C10 1.255 . S
C18 O11 1.287 . S
C18 O12 1.255 . S
O19 Fe1 2.002 . S
O19 C15 1.295 . S
O20 Fe3 1.997 . S
O20 C15 1.235 . S
C21 O4 1.295 . S
C21 O5 1.235 . S
Fe22 O24 1.918 . S
Fe22 O27 1.997 . S
Fe22 O28 2.002 . S
Fe22 O33 1.976 . S
Fe22 O36 1.996 . S
Fe23 O24 1.918 . S
Fe23 O31 1.997 . S
Fe23 O34 1.996 . S
Fe23 O38 1.976 . S
Fe23 O41 2.002 . S
O24 Fe22 1.918 . S
O24 Fe23 1.918 . S
O24 Fe25 1.918 . S
Fe25 O24 1.918 . S
Fe25 O26 2.002 . S
Fe25 O35 1.976 . S
Fe25 O39 1.996 . S
Fe25 O42 1.997 . S
O26 Fe25 2.002 . S
O26 C43 1.295 . S
O27 Fe22 1.997 . S
O27 C43 1.235 . S
O28 Fe22 2.002 . S
O28 C29 1.295 . S
C29 O28 1.295 . S
C29 O31 1.235 . S
C30 O35 1.287 . S
C30 O36 1.255 . S
O31 Fe23 1.997 . S
O31 C29 1.235 . S
C32 O38 1.287 . S
C32 O39 1.255 . S
O33 Fe22 1.976 . S
O33 C40 1.287 . S
O34 Fe23 1.996 . S
O34 C40 1.255 . S
O35 Fe25 1.976 . S
O35 C30 1.287 . S
O36 Fe22 1.996 . S
O36 C30 1.255 . S
C37 O41 1.295 . S
C37 O42 1.235 . S
O38 Fe23 1.976 . S
O38 C32 1.287 . S
O39 Fe25 1.996 . S
O39 C32 1.255 . S
C40 O33 1.287 . S
C40 O34 1.255 . S
O41 Fe23 2.002 . S
O41 C37 1.295 . S
O42 Fe25 1.997 . S
O42 C37 1.235 . S
C43 O26 1.295 . S
C43 O27 1.235 . S
Fe44 O46 1.918 . S
Fe44 O49 1.997 1_455 S
Fe44 O50 2.002 1_455 S
Fe44 O55 1.976 . S
Fe44 O58 1.996 . S
Fe45 O46 1.918 . S
Fe45 O53 1.997 1_455 S
Fe45 O56 1.996 . S
Fe45 O60 1.976 . S
Fe45 O63 2.002 1_455 S
O46 Fe44 1.918 . S
O46 Fe45 1.918 . S
O46 Fe47 1.918 . S
Fe47 O46 1.918 . S
Fe47 O48 2.002 1_455 S
Fe47 O57 1.976 . S
Fe47 O61 1.996 . S
Fe47 O64 1.997 1_455 S
O48 Fe47 2.002 1_655 S
O48 C65 1.295 . S
O49 Fe44 1.997 1_655 S
O49 C65 1.235 . S
O50 Fe44 2.002 1_655 S
O50 C51 1.295 . S
C51 O50 1.295 . S
C51 O53 1.235 . S
C52 O57 1.287 . S
C52 O58 1.255 . S
O53 Fe45 1.997 1_655 S
O53 C51 1.235 . S
C54 O60 1.287 . S
C54 O61 1.255 . S
O55 Fe44 1.976 . S
O55 C62 1.287 . S
O56 Fe45 1.996 . S
O56 C62 1.255 . S
O57 Fe47 1.976 . S
O57 C52 1.287 . S
O58 Fe44 1.996 . S
O58 C52 1.255 . S
C59 O63 1.295 . S
C59 O64 1.235 . S
O60 Fe45 1.976 . S
O60 C54 1.287 . S
O61 Fe47 1.996 . S
O61 C54 1.255 . S
C62 O55 1.287 . S
C62 O56 1.255 . S
O63 Fe45 2.002 1_655 S
O63 C59 1.295 . S
O64 Fe47 1.997 1_655 S
O64 C59 1.235 . S
C65 O48 1.295 . S
C65 O49 1.235 . S
Fe66 O68 1.918 . S
Fe66 O71 1.997 . S
Fe66 O72 2.002 . S
Fe66 O77 1.976 . S
Fe66 O80 1.996 . S
Fe67 O68 1.918 . S
Fe67 O75 1.997 . S
Fe67 O78 1.996 . S
Fe67 O82 1.976 . S
Fe67 O85 2.002 . S
O68 Fe66 1.918 . S
O68 Fe67 1.918 . S
O68 Fe69 1.918 . S
Fe69 O68 1.918 . S
Fe69 O70 2.002 . S
Fe69 O79 1.976 . S
Fe69 O83 1.996 . S
Fe69 O86 1.997 . S
O70 Fe69 2.002 . S
O70 C87 1.295 . S
O71 Fe66 1.997 . S
O71 C87 1.235 . S
O72 Fe66 2.002 . S
O72 C73 1.295 . S
C73 O72 1.295 . S
C73 O75 1.235 . S
C74 O79 1.287 . S
C74 O80 1.255 . S
O75 Fe67 1.997 . S
O75 C73 1.235 . S
C76 O82 1.287 . S
C76 O83 1.255 . S
O77 Fe66 1.976 . S
O77 C84 1.287 . S
O78 Fe67 1.996 . S
O78 C84 1.255 . S
O79 Fe69 1.976 . S
O79 C74 1.287 . S
O80 Fe66 1.996 . S
O80 C74 1.255 . S
C81 O85 1.295 . S
C81 O86 1.235 . S
O82 Fe67 1.976 . S
O82 C76 1.287 . S
O83 Fe69 1.996 . S
O83 C76 1.255 . S
C84 O77 1.287 . S
C84 O78 1.255 . S
O85 Fe67 2.002 . S
O85 C81 1.295 . S
O86 Fe69 1.997 . S
O86 C81 1.235 . S
C87 O70 1.295 . S
C87 O71 1.235 . S
Fe88 O90 1.918 . S
Fe88 O93 1.997 . S
Fe88 O94 2.002 . S
Fe88 O99 1.976 1_455 S
Fe88 O102 1.996 1_455 S
Fe89 O90 1.918 . S
Fe89 O97 1.997 . S
Fe89 O100 1.996 1_455 S
Fe89 O104 1.976 1_455 S
Fe89 O107 2.002 . S
O90 Fe88 1.918 . S
O90 Fe89 1.918 . S
O90 Fe91 1.918 . S
Fe91 O90 1.918 . S
Fe91 O92 2.002 . S
Fe91 O101 1.976 1_455 S
Fe91 O105 1.996 1_455 S
Fe91 O108 1.997 . S
O92 Fe91 2.002 . S
O92 C109 1.295 . S
O93 Fe88 1.997 . S
O93 C109 1.235 . S
O94 Fe88 2.002 . S
O94 C95 1.295 . S
C95 O94 1.295 . S
C95 O97 1.235 . S
C96 O101 1.287 . S
C96 O102 1.255 . S
O97 Fe89 1.997 . S
O97 C95 1.235 . S
C98 O104 1.287 . S
C98 O105 1.255 . S
O99 Fe88 1.976 1_655 S
O99 C106 1.287 . S
O100 Fe89 1.996 1_655 S
O100 C106 1.255 . S
O101 Fe91 1.976 1_655 S
O101 C96 1.287 . S
O102 Fe88 1.996 1_655 S
O102 C96 1.255 . S
C103 O107 1.295 . S
C103 O108 1.235 . S
O104 Fe89 1.976 1_655 S
O104 C98 1.287 . S
O105 Fe91 1.996 1_655 S
O105 C98 1.255 . S
C106 O99 1.287 . S
C106 O100 1.255 . S
O107 Fe89 2.002 . S
O107 C103 1.295 . S
O108 Fe91 1.997 . S
O108 C103 1.235 . S
C109 O92 1.295 . S
C109 O93 1.235 . S
Fe110 O112 1.918 . S
Fe110 O115 1.997 . S
Fe110 O116 2.002 . S
Fe110 O121 1.976 . S
Fe110 O124 1.996 . S
Fe111 O112 1.918 . S
Fe111 O119 1.997 . S
Fe111 O122 1.996 . S
Fe111 O126 1.976 . S
Fe111 O129 2.002 . S
O112 Fe110 1.918 . S
O112 Fe111 1.918 . S
O112 Fe113 1.918 . S
Fe113 O112 1.918 . S
Fe113 O114 2.002 . S
Fe113 O123 1.976 . S
Fe113 O127 1.996 . S
Fe113 O130 1.997 . S
O114 Fe113 2.002 . S
O114 C131 1.295 . S
O115 Fe110 1.997 . S
O115 C131 1.235 . S
O116 Fe110 2.002 . S
O116 C117 1.295 . S
C117 O116 1.295 . S
C117 O119 1.235 . S
C118 O123 1.287 . S
C118 O124 1.255 . S
O119 Fe111 1.997 . S
O119 C117 1.235 . S
C120 O126 1.287 . S
C120 O127 1.255 . S
O121 Fe110 1.976 . S
O121 C128 1.287 . S
O122 Fe111 1.996 . S
O122 C128 1.255 . S
O123 Fe113 1.976 . S
O123 C118 1.287 . S
O124 Fe110 1.996 . S
O124 C118 1.255 . S
C125 O129 1.295 . S
C125 O130 1.235 . S
O126 Fe111 1.976 . S
O126 C120 1.287 . S
O127 Fe113 1.996 . S
O127 C120 1.255 . S
C128 O121 1.287 . S
C128 O122 1.255 . S
O129 Fe111 2.002 . S
O129 C125 1.295 . S
O130 Fe113 1.997 . S
O130 C125 1.235 . S
C131 O114 1.295 . S
C131 O115 1.235 . S
Fe132 O134 1.918 . S
Fe132 O137 1.997 1_455 S
Fe132 O138 2.002 1_455 S
Fe132 O143 1.976 . S
Fe132 O146 1.996 . S
Fe133 O134 1.918 . S
Fe133 O141 1.997 1_455 S
Fe133 O144 1.996 . S
Fe133 O148 1.976 . S
Fe133 O151 2.002 1_455 S
O134 Fe132 1.918 . S
O134 Fe133 1.918 . S
O134 Fe135 1.918 . S
Fe135 O134 1.918 . S
Fe135 O136 2.002 1_455 S
Fe135 O145 1.976 . S
Fe135 O149 1.996 . S
Fe135 O152 1.997 1_455 S
O136 Fe135 2.002 1_655 S
O136 C153 1.295 . S
O137 Fe132 1.997 1_655 S
O137 C153 1.235 . S
O138 Fe132 2.002 1_655 S
O138 C139 1.295 . S
C139 O138 1.295 . S
C139 O141 1.235 . S
C140 O145 1.287 . S
C140 O146 1.255 . S
O141 Fe133 1.997 1_655 S
O141 C139 1.235 . S
C142 O148 1.287 . S
C142 O149 1.255 . S
O143 Fe132 1.976 . S
O143 C150 1.287 . S
O144 Fe133 1.996 . S
O144 C150 1.255 . S
O145 Fe135 1.976 . S
O145 C140 1.287 . S
O146 Fe132 1.996 . S
O146 C140 1.255 . S
C147 O151 1.295 . S
C147 O152 1.235 . S
O148 Fe133 1.976 . S
O148 C142 1.287 . S
O149 Fe135 1.996 . S
O149 C142 1.255 . S
C150 O143 1.287 . S
C150 O144 1.255 . S
O151 Fe133 2.002 1_655 S
O151 C147 1.295 . S
O152 Fe135 1.997 1_655 S
O152 C147 1.235 . S
C153 O136 1.295 . S
C153 O137 1.235 . S
Fe154 O156 1.918 . S
Fe154 O159 1.997 . S
Fe154 O160 2.002 . S
Fe154 O165 1.976 . S
Fe154 O168 1.996 . S
Fe155 O156 1.918 . S
Fe155 O163 1.997 . S
Fe155 O166 1.996 . S
Fe155 O170 1.976 . S
Fe155 O173 2.002 . S
O156 Fe154 1.918 . S
O156 Fe155 1.918 . S
O156 Fe157 1.918 . S
Fe157 O156 1.918 . S
Fe157 O158 2.002 . S
Fe157 O167 1.976 . S
Fe157 O171 1.996 . S
Fe157 O174 1.997 . S
O158 Fe157 2.002 . S
O158 C175 1.295 . S
O159 Fe154 1.997 . S
O159 C175 1.235 . S
O160 Fe154 2.002 . S
O160 C161 1.295 . S
C161 O160 1.295 . S
C161 O163 1.235 . S
C162 O167 1.287 . S
C162 O168 1.255 . S
O163 Fe155 1.997 . S
O163 C161 1.235 . S
C164 O170 1.287 . S
C164 O171 1.255 . S
O165 Fe154 1.976 . S
O165 C172 1.287 . S
O166 Fe155 1.996 . S
O166 C172 1.255 . S
O167 Fe157 1.976 . S
O167 C162 1.287 . S
O168 Fe154 1.996 . S
O168 C162 1.255 . S
C169 O173 1.295 . S
C169 O174 1.235 . S
O170 Fe155 1.976 . S
O170 C164 1.287 . S
O171 Fe157 1.996 . S
O171 C164 1.255 . S
C172 O165 1.287 . S
C172 O166 1.255 . S
O173 Fe155 2.002 . S
O173 C169 1.295 . S
O174 Fe157 1.997 . S
O174 C169 1.235 . S
C175 O158 1.295 . S
C175 O159 1.235 . S
Fe176 O178 1.918 . S
Fe176 O181 1.997 . S
Fe176 O182 2.002 . S
Fe176 O187 1.976 1_545 S
Fe176 O190 1.996 1_545 S
Fe177 O178 1.918 . S
Fe177 O185 1.997 . S
Fe177 O188 1.996 1_545 S
Fe177 O192 1.976 1_545 S
Fe177 O195 2.002 . S
O178 Fe176 1.918 . S
O178 Fe177 1.918 . S
O178 Fe179 1.918 . S
Fe179 O178 1.918 . S
Fe179 O180 2.002 . S
Fe179 O189 1.976 1_545 S
Fe179 O193 1.996 1_545 S
Fe179 O196 1.997 . S
O180 Fe179 2.002 . S
O180 C197 1.295 . S
O181 Fe176 1.997 . S
O181 C197 1.235 . S
O182 Fe176 2.002 . S
O182 C183 1.295 . S
C183 O182 1.295 . S
C183 O185 1.235 . S
C184 O189 1.287 . S
C184 O190 1.255 . S
O185 Fe177 1.997 . S
O185 C183 1.235 . S
C186 O192 1.287 . S
C186 O193 1.255 . S
O187 Fe176 1.976 1_565 S
O187 C194 1.287 . S
O188 Fe177 1.996 1_565 S
O188 C194 1.255 . S
O189 Fe179 1.976 1_565 S
O189 C184 1.287 . S
O190 Fe176 1.996 1_565 S
O190 C184 1.255 . S
C191 O195 1.295 . S
C191 O196 1.235 . S
O192 Fe177 1.976 1_565 S
O192 C186 1.287 . S
O193 Fe179 1.996 1_565 S
O193 C186 1.255 . S
C194 O187 1.287 . S
C194 O188 1.255 . S
O195 Fe177 2.002 . S
O195 C191 1.295 . S
O196 Fe179 1.997 . S
O196 C191 1.235 . S
C197 O180 1.295 . S
C197 O181 1.235 . S
Fe198 O200 1.918 . S
Fe198 O203 1.997 . S
Fe198 O204 2.002 . S
Fe198 O209 1.976 . S
Fe198 O212 1.996 . S
Fe199 O200 1.918 . S
Fe199 O207 1.997 . S
Fe199 O210 1.996 . S
Fe199 O214 1.976 . S
Fe199 O217 2.002 . S
O200 Fe198 1.918 . S
O200 Fe199 1.918 . S
O200 Fe201 1.918 . S
Fe201 O200 1.918 . S
Fe201 O202 2.002 . S
Fe201 O211 1.976 . S
Fe201 O215 1.996 . S
Fe201 O218 1.997 . S
O202 Fe201 2.002 . S
O202 C219 1.295 . S
O203 Fe198 1.997 . S
O203 C219 1.235 . S
O204 Fe198 2.002 . S
O204 C205 1.295 . S
C205 O204 1.295 . S
C205 O207 1.235 . S
C206 O211 1.287 . S
C206 O212 1.255 . S
O207 Fe199 1.997 . S
O207 C205 1.235 . S
C208 O214 1.287 . S
C208 O215 1.255 . S
O209 Fe198 1.976 . S
O209 C216 1.287 . S
O210 Fe199 1.996 . S
O210 C216 1.255 . S
O211 Fe201 1.976 . S
O211 C206 1.287 . S
O212 Fe198 1.996 . S
O212 C206 1.255 . S
C213 O217 1.295 . S
C213 O218 1.235 . S
O214 Fe199 1.976 . S
O214 C208 1.287 . S
O215 Fe201 1.996 . S
O215 C208 1.255 . S
C216 O209 1.287 . S
C216 O210 1.255 . S
O217 Fe199 2.002 . S
O217 C213 1.295 . S
O218 Fe201 1.997 . S
O218 C213 1.235 . S
C219 O202 1.295 . S
C219 O203 1.235 . S
Fe220 O222 1.918 . S
Fe220 O225 1.997 1_545 S
Fe220 O226 2.002 1_545 S
Fe220 O231 1.976 . S
Fe220 O234 1.996 . S
Fe221 O222 1.918 . S
Fe221 O229 1.997 1_545 S
Fe221 O232 1.996 . S
Fe221 O236 1.976 . S
Fe221 O239 2.002 1_545 S
O222 Fe220 1.918 . S
O222 Fe221 1.918 . S
O222 Fe223 1.918 . S
Fe223 O222 1.918 . S
Fe223 O224 2.002 1_545 S
Fe223 O233 1.976 . S
Fe223 O237 1.996 . S
Fe223 O240 1.997 1_545 S
O224 Fe223 2.002 1_565 S
O224 C241 1.295 . S
O225 Fe220 1.997 1_565 S
O225 C241 1.235 . S
O226 Fe220 2.002 1_565 S
O226 C227 1.295 . S
C227 O226 1.295 . S
C227 O229 1.235 . S
C228 O233 1.287 . S
C228 O234 1.255 . S
O229 Fe221 1.997 1_565 S
O229 C227 1.235 . S
C230 O236 1.287 . S
C230 O237 1.255 . S
O231 Fe220 1.976 . S
O231 C238 1.287 . S
O232 Fe221 1.996 . S
O232 C238 1.255 . S
O233 Fe223 1.976 . S
O233 C228 1.287 . S
O234 Fe220 1.996 . S
O234 C228 1.255 . S
C235 O239 1.295 . S
C235 O240 1.235 . S
O236 Fe221 1.976 . S
O236 C230 1.287 . S
O237 Fe223 1.996 . S
O237 C230 1.255 . S
C238 O231 1.287 . S
C238 O232 1.255 . S
O239 Fe221 2.002 1_565 S
O239 C235 1.295 . S
O240 Fe223 1.997 1_565 S
O240 C235 1.235 . S
C241 O224 1.295 . S
C241 O225 1.235 . S
Fe242 O244 1.918 . S
Fe242 O247 1.997 . S
Fe242 O248 2.002 . S
Fe242 O253 1.976 . S
Fe242 O256 1.996 . S
Fe243 O244 1.918 . S
Fe243 O251 1.997 . S
Fe243 O254 1.996 . S
Fe243 O258 1.976 . S
Fe243 O261 2.002 . S
O244 Fe242 1.918 . S
O244 Fe243 1.918 . S
O244 Fe245 1.918 . S
Fe245 O244 1.918 . S
Fe245 O246 2.002 . S
Fe245 O255 1.976 . S
Fe245 O259 1.996 . S
Fe245 O262 1.997 . S
O246 Fe245 2.002 . S
O246 C263 1.295 . S
O247 Fe242 1.997 . S
O247 C263 1.235 . S
O248 Fe242 2.002 . S
O248 C249 1.295 . S
C249 O248 1.295 . S
C249 O251 1.235 . S
C250 O255 1.287 . S
C250 O256 1.255 . S
O251 Fe243 1.997 . S
O251 C249 1.235 . S
C252 O258 1.287 . S
C252 O259 1.255 . S
O253 Fe242 1.976 . S
O253 C260 1.287 . S
O254 Fe243 1.996 . S
O254 C260 1.255 . S
O255 Fe245 1.976 . S
O255 C250 1.287 . S
O256 Fe242 1.996 . S
O256 C250 1.255 . S
C257 O261 1.295 . S
C257 O262 1.235 . S
O258 Fe243 1.976 . S
O258 C252 1.287 . S
O259 Fe245 1.996 . S
O259 C252 1.255 . S
C260 O253 1.287 . S
C260 O254 1.255 . S
O261 Fe243 2.002 . S
O261 C257 1.295 . S
O262 Fe245 1.997 . S
O262 C257 1.235 . S
C263 O246 1.295 . S
C263 O247 1.235 . S
Fe264 O266 1.918 . S
Fe264 O269 1.997 1_545 S
Fe264 O270 2.002 1_545 S
Fe264 O275 1.976 . S
Fe264 O278 1.996 . S
Fe265 O266 1.918 . S
Fe265 O273 1.997 1_545 S
Fe265 O276 1.996 . S
Fe265 O280 1.976 . S
Fe265 O283 2.002 1_545 S
O266 Fe264 1.918 . S
O266 Fe265 1.918 . S
O266 Fe267 1.918 . S
Fe267 O266 1.918 . S
Fe267 O268 2.002 1_545 S
Fe267 O277 1.976 . S
Fe267 O281 1.996 . S
Fe267 O284 1.997 1_545 S
O268 Fe267 2.002 1_565 S
O268 C285 1.295 . S
O269 Fe264 1.997 1_565 S
O269 C285 1.235 . S
O270 Fe264 2.002 1_565 S
O270 C271 1.295 . S
C271 O270 1.295 . S
C271 O273 1.235 . S
C272 O277 1.287 . S
C272 O278 1.255 . S
O273 Fe265 1.997 1_565 S
O273 C271 1.235 . S
C274 O280 1.287 . S
C274 O281 1.255 . S
O275 Fe264 1.976 . S
O275 C282 1.287 . S
O276 Fe265 1.996 . S
O276 C282 1.255 . S
O277 Fe267 1.976 . S
O277 C272 1.287 . S
O278 Fe264 1.996 . S
O278 C272 1.255 . S
C279 O283 1.295 . S
C279 O284 1.235 . S
O280 Fe265 1.976 . S
O280 C274 1.287 . S
O281 Fe267 1.996 . S
O281 C274 1.255 . S
C282 O275 1.287 . S
C282 O276 1.255 . S
O283 Fe265 2.002 1_565 S
O283 C279 1.295 . S
O284 Fe267 1.997 1_565 S
O284 C279 1.235 . S
C285 O268 1.295 . S
C285 O269 1.235 . S
Fe286 O288 1.918 . S
Fe286 O291 1.997 . S
Fe286 O292 2.002 . S
Fe286 O297 1.976 . S
Fe286 O300 1.996 . S
Fe287 O288 1.918 . S
Fe287 O295 1.997 . S
Fe287 O298 1.996 . S
Fe287 O302 1.976 . S
Fe287 O305 2.002 . S
O288 Fe286 1.918 . S
O288 Fe287 1.918 . S
O288 Fe289 1.918 . S
Fe289 O288 1.918 . S
Fe289 O290 2.002 . S
Fe289 O299 1.976 . S
Fe289 O303 1.996 . S
Fe289 O306 1.997 . S
O290 Fe289 2.002 . S
O290 C307 1.295 . S
O291 Fe286 1.997 . S
O291 C307 1.235 . S
O292 Fe286 2.002 . S
O292 C293 1.295 . S
C293 O292 1.295 . S
C293 O295 1.235 . S
C294 O299 1.287 . S
C294 O300 1.255 . S
O295 Fe287 1.997 . S
O295 C293 1.235 . S
C296 O302 1.287 . S
C296 O303 1.255 . S
O297 Fe286 1.976 . S
O297 C304 1.287 . S
O298 Fe287 1.996 . S
O298 C304 1.255 . S
O299 Fe289 1.976 . S
O299 C294 1.287 . S
O300 Fe286 1.996 . S
O300 C294 1.255 . S
C301 O305 1.295 . S
C301 O306 1.235 . S
O302 Fe287 1.976 . S
O302 C296 1.287 . S
O303 Fe289 1.996 . S
O303 C296 1.255 . S
C304 O297 1.287 . S
C304 O298 1.255 . S
O305 Fe287 2.002 . S
O305 C301 1.295 . S
O306 Fe289 1.997 . S
O306 C301 1.235 . S
C307 O290 1.295 . S
C307 O291 1.235 . S
Fe308 O310 1.918 . S
Fe308 O313 1.997 . S
Fe308 O314 2.002 . S
Fe308 O319 1.976 1_545 S
Fe308 O322 1.996 1_545 S
Fe309 O310 1.918 . S
Fe309 O317 1.997 . S
Fe309 O320 1.996 1_545 S
Fe309 O324 1.976 1_545 S
Fe309 O327 2.002 . S
O310 Fe308 1.918 . S
O310 Fe309 1.918 . S
O310 Fe311 1.918 . S
Fe311 O310 1.918 . S
Fe311 O312 2.002 . S
Fe311 O321 1.976 1_545 S
Fe311 O325 1.996 1_545 S
Fe311 O328 1.997 . S
O312 Fe311 2.002 . S
O312 C329 1.295 . S
O313 Fe308 1.997 . S
O313 C329 1.235 . S
O314 Fe308 2.002 . S
O314 C315 1.295 . S
C315 O314 1.295 . S
C315 O317 1.235 . S
C316 O321 1.287 . S
C316 O322 1.255 . S
O317 Fe309 1.997 . S
O317 C315 1.235 . S
C318 O324 1.287 . S
C318 O325 1.255 . S
O319 Fe308 1.976 1_565 S
O319 C326 1.287 . S
O320 Fe309 1.996 1_565 S
O320 C326 1.255 . S
O321 Fe311 1.976 1_565 S
O321 C316 1.287 . S
O322 Fe308 1.996 1_565 S
O322 C316 1.255 . S
C323 O327 1.295 . S
C323 O328 1.235 . S
O324 Fe309 1.976 1_565 S
O324 C318 1.287 . S
O325 Fe311 1.996 1_565 S
O325 C318 1.255 . S
C326 O319 1.287 . S
C326 O320 1.255 . S
O327 Fe309 2.002 . S
O327 C323 1.295 . S
O328 Fe311 1.997 . S
O328 C323 1.235 . S
C329 O312 1.295 . S
C329 O313 1.235 . S
Fe330 O332 1.918 . S
Fe330 O335 1.997 . S
Fe330 O336 2.002 . S
Fe330 O341 1.976 . S
Fe330 O344 1.996 . S
Fe331 O332 1.918 . S
Fe331 O339 1.997 . S
Fe331 O342 1.996 . S
Fe331 O346 1.976 . S
Fe331 O349 2.002 . S
O332 Fe330 1.918 . S
O332 Fe331 1.918 . S
O332 Fe333 1.918 . S
Fe333 O332 1.918 . S
Fe333 O334 2.002 . S
Fe333 O343 1.976 . S
Fe333 O347 1.996 . S
Fe333 O350 1.997 . S
O334 Fe333 2.002 . S
O334 C351 1.295 . S
O335 Fe330 1.997 . S
O335 C351 1.235 . S
O336 Fe330 2.002 . S
O336 C337 1.295 . S
C337 O336 1.295 . S
C337 O339 1.235 . S
C338 O343 1.287 . S
C338 O344 1.255 . S
O339 Fe331 1.997 . S
O339 C337 1.235 . S
C340 O346 1.287 . S
C340 O347 1.255 . S
O341 Fe330 1.976 . S
O341 C348 1.287 . S
O342 Fe331 1.996 . S
O342 C348 1.255 . S
O343 Fe333 1.976 . S
O343 C338 1.287 . S
O344 Fe330 1.996 . S
O344 C338 1.255 . S
C345 O349 1.295 . S
C345 O350 1.235 . S
O346 Fe331 1.976 . S
O346 C340 1.287 . S
O347 Fe333 1.996 . S
O347 C340 1.255 . S
C348 O341 1.287 . S
C348 O342 1.255 . S
O349 Fe331 2.002 . S
O349 C345 1.295 . S
O350 Fe333 1.997 . S
O350 C345 1.235 . S
C351 O334 1.295 . S
C351 O335 1.235 . S
Fe352 O354 1.918 . S
Fe352 O357 1.997 . S
Fe352 O358 2.002 . S
Fe352 O363 1.976 1_554 S
Fe352 O366 1.996 1_554 S
Fe353 O354 1.918 . S
Fe353 O361 1.997 . S
Fe353 O364 1.996 1_554 S
Fe353 O368 1.976 1_554 S
Fe353 O371 2.002 . S
O354 Fe352 1.918 . S
O354 Fe353 1.918 . S
O354 Fe355 1.918 . S
Fe355 O354 1.918 . S
Fe355 O356 2.002 . S
Fe355 O365 1.976 1_554 S
Fe355 O369 1.996 1_554 S
Fe355 O372 1.997 . S
O356 Fe355 2.002 . S
O356 C373 1.295 . S
O357 Fe352 1.997 . S
O357 C373 1.235 . S
O358 Fe352 2.002 . S
O358 C359 1.295 . S
C359 O358 1.295 . S
C359 O361 1.235 . S
C360 O365 1.287 . S
C360 O366 1.255 . S
O361 Fe353 1.997 . S
O361 C359 1.235 . S
C362 O368 1.287 . S
C362 O369 1.255 . S
O363 Fe352 1.976 1_556 S
O363 C370 1.287 . S
O364 Fe353 1.996 1_556 S
O364 C370 1.255 . S
O365 Fe355 1.976 1_556 S
O365 C360 1.287 . S
O366 Fe352 1.996 1_556 S
O366 C360 1.255 . S
C367 O371 1.295 . S
C367 O372 1.235 . S
O368 Fe353 1.976 1_556 S
O368 C362 1.287 . S
O369 Fe355 1.996 1_556 S
O369 C362 1.255 . S
C370 O363 1.287 . S
C370 O364 1.255 . S
O371 Fe353 2.002 . S
O371 C367 1.295 . S
O372 Fe355 1.997 . S
O372 C367 1.235 . S
C373 O356 1.295 . S
C373 O357 1.235 . S
Fe374 O376 1.918 . S
Fe374 O379 1.997 1_554 S
Fe374 O380 2.002 1_554 S
Fe374 O385 1.976 . S
Fe374 O388 1.996 . S
Fe375 O376 1.918 . S
Fe375 O383 1.997 1_554 S
Fe375 O386 1.996 . S
Fe375 O390 1.976 . S
Fe375 O393 2.002 1_554 S
O376 Fe374 1.918 . S
O376 Fe375 1.918 . S
O376 Fe377 1.918 . S
Fe377 O376 1.918 . S
Fe377 O378 2.002 1_554 S
Fe377 O387 1.976 . S
Fe377 O391 1.996 . S
Fe377 O394 1.997 1_554 S
O378 Fe377 2.002 1_556 S
O378 C395 1.295 . S
O379 Fe374 1.997 1_556 S
O379 C395 1.235 . S
O380 Fe374 2.002 1_556 S
O380 C381 1.295 . S
C381 O380 1.295 . S
C381 O383 1.235 . S
C382 O387 1.287 . S
C382 O388 1.255 . S
O383 Fe375 1.997 1_556 S
O383 C381 1.235 . S
C384 O390 1.287 . S
C384 O391 1.255 . S
O385 Fe374 1.976 . S
O385 C392 1.287 . S
O386 Fe375 1.996 . S
O386 C392 1.255 . S
O387 Fe377 1.976 . S
O387 C382 1.287 . S
O388 Fe374 1.996 . S
O388 C382 1.255 . S
C389 O393 1.295 . S
C389 O394 1.235 . S
O390 Fe375 1.976 . S
O390 C384 1.287 . S
O391 Fe377 1.996 . S
O391 C384 1.255 . S
C392 O385 1.287 . S
C392 O386 1.255 . S
O393 Fe375 2.002 1_556 S
O393 C389 1.295 . S
O394 Fe377 1.997 1_556 S
O394 C389 1.235 . S
C395 O378 1.295 . S
C395 O379 1.235 . S
Fe396 O398 1.918 . S
Fe396 O401 1.997 . S
Fe396 O402 2.002 . S
Fe396 O407 1.976 . S
Fe396 O410 1.996 . S
Fe397 O398 1.918 . S
Fe397 O405 1.997 . S
Fe397 O408 1.996 . S
Fe397 O412 1.976 . S
Fe397 O415 2.002 . S
O398 Fe396 1.918 . S
O398 Fe397 1.918 . S
O398 Fe399 1.918 . S
Fe399 O398 1.918 . S
Fe399 O400 2.002 . S
Fe399 O409 1.976 . S
Fe399 O413 1.996 . S
Fe399 O416 1.997 . S
O400 Fe399 2.002 . S
O400 C417 1.295 . S
O401 Fe396 1.997 . S
O401 C417 1.235 . S
O402 Fe396 2.002 . S
O402 C403 1.295 . S
C403 O402 1.295 . S
C403 O405 1.235 . S
C404 O409 1.287 . S
C404 O410 1.255 . S
O405 Fe397 1.997 . S
O405 C403 1.235 . S
C406 O412 1.287 . S
C406 O413 1.255 . S
O407 Fe396 1.976 . S
O407 C414 1.287 . S
O408 Fe397 1.996 . S
O408 C414 1.255 . S
O409 Fe399 1.976 . S
O409 C404 1.287 . S
O410 Fe396 1.996 . S
O410 C404 1.255 . S
C411 O415 1.295 . S
C411 O416 1.235 . S
O412 Fe397 1.976 . S
O412 C406 1.287 . S
O413 Fe399 1.996 . S
O413 C406 1.255 . S
C414 O407 1.287 . S
C414 O408 1.255 . S
O415 Fe397 2.002 . S
O415 C411 1.295 . S
O416 Fe399 1.997 . S
O416 C411 1.235 . S
C417 O400 1.295 . S
C417 O401 1.235 . S
Fe418 O420 1.918 . S
Fe418 O423 1.997 1_554 S
Fe418 O424 2.002 1_554 S
Fe418 O429 1.976 . S
Fe418 O432 1.996 . S
Fe419 O420 1.918 . S
Fe419 O427 1.997 1_554 S
Fe419 O430 1.996 . S
Fe419 O434 1.976 . S
Fe419 O437 2.002 1_554 S
O420 Fe418 1.918 . S
O420 Fe419 1.918 . S
O420 Fe421 1.918 . S
Fe421 O420 1.918 . S
Fe421 O422 2.002 1_554 S
Fe421 O431 1.976 . S
Fe421 O435 1.996 . S
Fe421 O438 1.997 1_554 S
O422 Fe421 2.002 1_556 S
O422 C439 1.295 . S
O423 Fe418 1.997 1_556 S
O423 C439 1.235 . S
O424 Fe418 2.002 1_556 S
O424 C425 1.295 . S
C425 O424 1.295 . S
C425 O427 1.235 . S
C426 O431 1.287 . S
C426 O432 1.255 . S
O427 Fe419 1.997 1_556 S
O427 C425 1.235 . S
C428 O434 1.287 . S
C428 O435 1.255 . S
O429 Fe418 1.976 . S
O429 C436 1.287 . S
O430 Fe419 1.996 . S
O430 C436 1.255 . S
O431 Fe421 1.976 . S
O431 C426 1.287 . S
O432 Fe418 1.996 . S
O432 C426 1.255 . S
C433 O437 1.295 . S
C433 O438 1.235 . S
O434 Fe419 1.976 . S
O434 C428 1.287 . S
O435 Fe421 1.996 . S
O435 C428 1.255 . S
C436 O429 1.287 . S
C436 O430 1.255 . S
O437 Fe419 2.002 1_556 S
O437 C433 1.295 . S
O438 Fe421 1.997 1_556 S
O438 C433 1.235 . S
C439 O422 1.295 . S
C439 O423 1.235 . S
Fe440 O442 1.918 . S
Fe440 O445 1.997 . S
Fe440 O446 2.002 . S
Fe440 O451 1.976 . S
Fe440 O454 1.996 . S
Fe441 O442 1.918 . S
Fe441 O449 1.997 . S
Fe441 O452 1.996 . S
Fe441 O456 1.976 . S
Fe441 O459 2.002 . S
O442 Fe440 1.918 . S
O442 Fe441 1.918 . S
O442 Fe443 1.918 . S
Fe443 O442 1.918 . S
Fe443 O444 2.002 . S
Fe443 O453 1.976 . S
Fe443 O457 1.996 . S
Fe443 O460 1.997 . S
O444 Fe443 2.002 . S
O444 C461 1.295 . S
O445 Fe440 1.997 . S
O445 C461 1.235 . S
O446 Fe440 2.002 . S
O446 C447 1.295 . S
C447 O446 1.295 . S
C447 O449 1.235 . S
C448 O453 1.287 . S
C448 O454 1.255 . S
O449 Fe441 1.997 . S
O449 C447 1.235 . S
C450 O456 1.287 . S
C450 O457 1.255 . S
O451 Fe440 1.976 . S
O451 C458 1.287 . S
O452 Fe441 1.996 . S
O452 C458 1.255 . S
O453 Fe443 1.976 . S
O453 C448 1.287 . S
O454 Fe440 1.996 . S
O454 C448 1.255 . S
C455 O459 1.295 . S
C455 O460 1.235 . S
O456 Fe441 1.976 . S
O456 C450 1.287 . S
O457 Fe443 1.996 . S
O457 C450 1.255 . S
C458 O451 1.287 . S
C458 O452 1.255 . S
O459 Fe441 2.002 . S
O459 C455 1.295 . S
O460 Fe443 1.997 . S
O460 C455 1.235 . S
C461 O444 1.295 . S
C461 O445 1.235 . S
Fe462 O464 1.918 . S
Fe462 O467 1.997 . S
Fe462 O468 2.002 . S
Fe462 O473 1.976 1_554 S
Fe462 O476 1.996 1_554 S
Fe463 O464 1.918 . S
Fe463 O471 1.997 . S
Fe463 O474 1.996 1_554 S
Fe463 O478 1.976 1_554 S
Fe463 O481 2.002 . S
O464 Fe462 1.918 . S
O464 Fe463 1.918 . S
O464 Fe465 1.918 . S
Fe465 O464 1.918 . S
Fe465 O466 2.002 . S
Fe465 O475 1.976 1_554 S
Fe465 O479 1.996 1_554 S
Fe465 O482 1.997 . S
O466 Fe465 2.002 . S
O466 C483 1.295 . S
O467 Fe462 1.997 . S
O467 C483 1.235 . S
O468 Fe462 2.002 . S
O468 C469 1.295 . S
C469 O468 1.295 . S
C469 O471 1.235 . S
C470 O475 1.287 . S
C470 O476 1.255 . S
O471 Fe463 1.997 . S
O471 C469 1.235 . S
C472 O478 1.287 . S
C472 O479 1.255 . S
O473 Fe462 1.976 1_556 S
O473 C480 1.287 . S
O474 Fe463 1.996 1_556 S
O474 C480 1.255 . S
O475 Fe465 1.976 1_556 S
O475 C470 1.287 . S
O476 Fe462 1.996 1_556 S
O476 C470 1.255 . S
C477 O481 1.295 . S
C477 O482 1.235 . S
O478 Fe463 1.976 1_556 S
O478 C472 1.287 . S
O479 Fe465 1.996 1_556 S
O479 C472 1.255 . S
C480 O473 1.287 . S
C480 O474 1.255 . S
O481 Fe463 2.002 . S
O481 C477 1.295 . S
O482 Fe465 1.997 . S
O482 C477 1.235 . S
C483 O466 1.295 . S
C483 O467 1.235 . S
Fe484 O486 1.918 . S
Fe484 O489 1.997 . S
Fe484 O490 2.002 . S
Fe484 O495 1.976 . S
Fe484 O498 1.996 . S
Fe485 O486 1.918 . S
Fe485 O493 1.997 . S
Fe485 O496 1.996 . S
Fe485 O500 1.976 . S
Fe485 O503 2.002 . S
O486 Fe484 1.918 . S
O486 Fe485 1.918 . S
O486 Fe487 1.918 . S
Fe487 O486 1.918 . S
Fe487 O488 2.002 . S
Fe487 O497 1.976 . S
Fe487 O501 1.996 . S
Fe487 O504 1.997 . S
O488 Fe487 2.002 . S
O488 C505 1.295 . S
O489 Fe484 1.997 . S
O489 C505 1.235 . S
O490 Fe484 2.002 . S
O490 C491 1.295 . S
C491 O490 1.295 . S
C491 O493 1.235 . S
C492 O497 1.287 . S
C492 O498 1.255 . S
O493 Fe485 1.997 . S
O493 C491 1.235 . S
C494 O500 1.287 . S
C494 O501 1.255 . S
O495 Fe484 1.976 . S
O495 C502 1.287 . S
O496 Fe485 1.996 . S
O496 C502 1.255 . S
O497 Fe487 1.976 . S
O497 C492 1.287 . S
O498 Fe484 1.996 . S
O498 C492 1.255 . S
C499 O503 1.295 . S
C499 O504 1.235 . S
O500 Fe485 1.976 . S
O500 C494 1.287 . S
O501 Fe487 1.996 . S
O501 C494 1.255 . S
C502 O495 1.287 . S
C502 O496 1.255 . S
O503 Fe485 2.002 . S
O503 C499 1.295 . S
O504 Fe487 1.997 . S
O504 C499 1.235 . S
C505 O488 1.295 . S
C505 O489 1.235 . S
Fe506 O508 1.918 . S
Fe506 O511 1.997 . S
Fe506 O512 2.002 . S
Fe506 O517 1.976 . S
Fe506 O520 1.996 . S
Fe507 O508 1.918 . S
Fe507 O515 1.997 . S
Fe507 O518 1.996 . S
Fe507 O522 1.976 . S
Fe507 O525 2.002 . S
O508 Fe506 1.918 . S
O508 Fe507 1.918 . S
O508 Fe509 1.918 . S
Fe509 O508 1.918 . S
Fe509 O510 2.002 . S
Fe509 O519 1.976 . S
Fe509 O523 1.996 . S
Fe509 O526 1.997 . S
O510 Fe509 2.002 . S
O510 C527 1.295 . S
O511 Fe506 1.997 . S
O511 C527 1.235 . S
O512 Fe506 2.002 . S
O512 C513 1.295 . S
C513 O512 1.295 . S
C513 O515 1.235 . S
C514 O519 1.287 . S
C514 O520 1.255 . S
O515 Fe507 1.997 . S
O515 C513 1.235 . S
C516 O522 1.287 . S
C516 O523 1.255 . S
O517 Fe506 1.976 . S
O517 C524 1.287 . S
O518 Fe507 1.996 . S
O518 C524 1.255 . S
O519 Fe509 1.976 . S
O519 C514 1.287 . S
O520 Fe506 1.996 . S
O520 C514 1.255 . S
C521 O525 1.295 . S
C521 O526 1.235 . S
O522 Fe507 1.976 . S
O522 C516 1.287 . S
O523 Fe509 1.996 . S
O523 C516 1.255 . S
C524 O517 1.287 . S
C524 O518 1.255 . S
O525 Fe507 2.002 . S
O525 C521 1.295 . S
O526 Fe509 1.997 . S
O526 C521 1.235 . S
C527 O510 1.295 . S
C527 O511 1.235 . S
C528 C529 1.369 . S
C528 C530 1.419 . S
C528 H532 0.930 . S
C529 C528 1.369 . S
C529 C538 1.429 . S
C530 C528 1.419 . S
C530 C531 1.363 . S
C530 H533 0.929 . S
C531 C530 1.363 . S
C531 C537 1.428 . S
H532 C528 0.930 . S
H533 C530 0.929 . S
S534 N535 1.613 . S
S534 N536 1.610 . S
N535 S534 1.613 . S
N535 C538 1.350 . S
N536 S534 1.610 . S
N536 C537 1.351 . S
C537 C531 1.428 . S
C537 N536 1.351 . S
C537 C538 1.434 . S
C538 C529 1.429 . S
C538 N535 1.350 . S
C538 C537 1.434 . S
C539 C540 1.369 . S
C539 C541 1.419 . S
C539 H543 0.930 . S
C540 C539 1.369 . S
C540 C549 1.429 . S
C541 C539 1.419 . S
C541 C542 1.363 . S
C541 H544 0.929 . S
C542 C541 1.363 . S
C542 C548 1.428 . S
H543 C539 0.930 . S
H544 C541 0.929 . S
S545 N546 1.613 . S
S545 N547 1.610 . S
N546 S545 1.613 . S
N546 C549 1.350 . S
N547 S545 1.610 . S
N547 C548 1.351 . S
C548 C542 1.428 . S
C548 N547 1.351 . S
C548 C549 1.434 . S
C549 C540 1.429 . S
C549 N546 1.350 . S
C549 C548 1.434 . S
C550 C551 1.369 . S
C550 C552 1.419 . S
C550 H554 0.930 . S
C551 C550 1.369 . S
C551 C560 1.429 . S
C552 C550 1.419 . S
C552 C553 1.363 . S
C552 H555 0.929 . S
C553 C552 1.363 . S
C553 C559 1.428 . S
H554 C550 0.930 . S
H555 C552 0.929 . S
S556 N557 1.614 . S
S556 N558 1.611 . S
N557 S556 1.614 . S
N557 C560 1.350 . S
N558 S556 1.611 . S
N558 C559 1.351 . S
C559 C553 1.428 . S
C559 N558 1.351 . S
C559 C560 1.434 . S
C560 C551 1.429 . S
C560 N557 1.350 . S
C560 C559 1.434 . S
C561 C562 1.369 . S
C561 C563 1.419 . S
C561 H565 0.930 . S
C562 C561 1.369 . S
C562 C571 1.429 . S
C563 C561 1.419 . S
C563 C564 1.363 . S
C563 H566 0.929 . S
C564 C563 1.363 . S
C564 C570 1.428 . S
H565 C561 0.930 . S
H566 C563 0.929 . S
S567 N568 1.613 . S
S567 N569 1.610 . S
N568 S567 1.613 . S
N568 C571 1.350 . S
N569 S567 1.610 . S
N569 C570 1.351 . S
C570 C564 1.428 . S
C570 N569 1.351 . S
C570 C571 1.434 . S
C571 C562 1.429 . S
C571 N568 1.350 . S
C571 C570 1.434 . S
C572 C573 1.369 . S
C572 C574 1.419 . S
C572 H576 0.930 . S
C573 C572 1.369 . S
C573 C582 1.429 . S
C574 C572 1.419 . S
C574 C575 1.363 . S
C574 H577 0.929 . S
C575 C574 1.363 . S
C575 C581 1.428 . S
H576 C572 0.930 . S
H577 C574 0.929 . S
S578 N579 1.613 . S
S578 N580 1.610 . S
N579 S578 1.613 . S
N579 C582 1.350 . S
N580 S578 1.610 . S
N580 C581 1.351 . S
C581 C575 1.428 . S
C581 N580 1.351 . S
C581 C582 1.434 . S
C582 C573 1.429 . S
C582 N579 1.350 . S
C582 C581 1.434 . S
C583 C584 1.369 . S
C583 C585 1.419 . S
C583 H587 0.930 . S
C584 C583 1.369 . S
C584 C593 1.429 . S
C585 C583 1.419 . S
C585 C586 1.363 . S
C585 H588 0.929 . S
C586 C585 1.363 . S
C586 C592 1.428 . S
H587 C583 0.930 . S
H588 C585 0.929 . S
S589 N590 1.613 . S
S589 N591 1.610 . S
N590 S589 1.613 . S
N590 C593 1.350 . S
N591 S589 1.610 . S
N591 C592 1.351 . S
C592 C586 1.428 . S
C592 N591 1.351 . S
C592 C593 1.434 . S
C593 C584 1.429 . S
C593 N590 1.350 . S
C593 C592 1.434 . S
C594 C595 1.369 . S
C594 C596 1.419 . S
C594 H598 0.930 . S
C595 C594 1.369 . S
C595 C604 1.429 . S
C596 C594 1.419 . S
C596 C597 1.363 . S
C596 H599 0.929 . S
C597 C596 1.363 . S
C597 C603 1.428 . S
H598 C594 0.930 . S
H599 C596 0.929 . S
S600 N601 1.613 . S
S600 N602 1.610 . S
N601 S600 1.613 . S
N601 C604 1.350 . S
N602 S600 1.610 . S
N602 C603 1.351 . S
C603 C597 1.428 . S
C603 N602 1.351 . S
C603 C604 1.434 . S
C604 C595 1.429 . S
C604 N601 1.350 . S
C604 C603 1.434 . S
C605 C606 1.369 . S
C605 C607 1.419 . S
C605 H609 0.930 . S
C606 C605 1.369 . S
C606 C615 1.429 . S
C607 C605 1.419 . S
C607 C608 1.363 . S
C607 H610 0.929 . S
C608 C607 1.363 . S
C608 C614 1.428 . S
H609 C605 0.930 . S
H610 C607 0.929 . S
S611 N612 1.613 . S
S611 N613 1.610 . S
N612 S611 1.613 . S
N612 C615 1.350 . S
N613 S611 1.610 . S
N613 C614 1.351 . S
C614 C608 1.428 . S
C614 N613 1.351 . S
C614 C615 1.434 . S
C615 C606 1.429 . S
C615 N612 1.350 . S
C615 C614 1.434 . S
C616 C617 1.369 . S
C616 C618 1.419 . S
C616 H620 0.930 . S
C617 C616 1.369 . S
C617 C626 1.429 . S
C618 C616 1.419 . S
C618 C619 1.363 . S
C618 H621 0.929 . S
C619 C618 1.363 . S
C619 C625 1.428 . S
H620 C616 0.930 . S
H621 C618 0.929 . S
S622 N623 1.613 . S
S622 N624 1.610 . S
N623 S622 1.613 . S
N623 C626 1.350 . S
N624 S622 1.610 . S
N624 C625 1.351 . S
C625 C619 1.428 . S
C625 N624 1.351 . S
C625 C626 1.434 . S
C626 C617 1.429 . S
C626 N623 1.350 . S
C626 C625 1.434 . S
C627 C628 1.369 . S
C627 C629 1.419 . S
C627 H631 0.930 . S
C628 C627 1.369 . S
C628 C637 1.429 . S
C629 C627 1.419 . S
C629 C630 1.363 . S
C629 H632 0.929 . S
C630 C629 1.363 . S
C630 C636 1.428 . S
H631 C627 0.930 . S
H632 C629 0.929 . S
S633 N634 1.613 . S
S633 N635 1.610 . S
N634 S633 1.613 . S
N634 C637 1.350 . S
N635 S633 1.610 . S
N635 C636 1.351 . S
C636 C630 1.428 . S
C636 N635 1.351 . S
C636 C637 1.434 . S
C637 C628 1.429 . S
C637 N634 1.350 . S
C637 C636 1.434 . S
C638 C639 1.369 . S
C638 C640 1.419 . S
C638 H642 0.930 . S
C639 C638 1.369 . S
C639 C648 1.429 . S
C640 C638 1.419 . S
C640 C641 1.363 . S
C640 H643 0.929 . S
C641 C640 1.363 . S
C641 C647 1.428 . S
H642 C638 0.930 . S
H643 C640 0.929 . S
S644 N645 1.613 . S
S644 N646 1.610 . S
N645 S644 1.613 . S
N645 C648 1.350 . S
N646 S644 1.610 . S
N646 C647 1.351 . S
C647 C641 1.428 . S
C647 N646 1.351 . S
C647 C648 1.434 . S
C648 C639 1.429 . S
C648 N645 1.350 . S
C648 C647 1.434 . S
C649 C650 1.369 . S
C649 C651 1.419 . S
C649 H653 0.930 . S
C650 C649 1.369 . S
C650 C659 1.429 . S
C651 C649 1.419 . S
C651 C652 1.363 . S
C651 H654 0.929 . S
C652 C651 1.363 . S
C652 C658 1.428 . S
H653 C649 0.930 . S
H654 C651 0.929 . S
S655 N656 1.613 . S
S655 N657 1.610 . S
N656 S655 1.613 . S
N656 C659 1.350 . S
N657 S655 1.610 . S
N657 C658 1.351 . S
C658 C652 1.428 . S
C658 N657 1.351 . S
C658 C659 1.434 . S
C659 C650 1.429 . S
C659 N656 1.350 . S
C659 C658 1.434 . S
C660 C661 1.369 . S
C660 C662 1.419 . S
C660 H664 0.930 . S
C661 C660 1.369 . S
C661 C670 1.429 . S
C662 C660 1.419 . S
C662 C663 1.363 . S
C662 H665 0.929 . S
C663 C662 1.363 . S
C663 C669 1.428 . S
H664 C660 0.930 . S
H665 C662 0.929 . S
S666 N667 1.613 . S
S666 N668 1.610 . S
N667 S666 1.613 . S
N667 C670 1.350 . S
N668 S666 1.610 . S
N668 C669 1.351 . S
C669 C663 1.428 . S
C669 N668 1.351 . S
C669 C670 1.434 . S
C670 C661 1.429 . S
C670 N667 1.350 . S
C670 C669 1.434 . S
C671 C672 1.369 . S
C671 C673 1.419 . S
C671 H675 0.930 . S
C672 C671 1.369 . S
C672 C681 1.429 . S
C673 C671 1.419 . S
C673 C674 1.363 . S
C673 H676 0.929 . S
C674 C673 1.363 . S
C674 C680 1.428 . S
H675 C671 0.930 . S
H676 C673 0.929 . S
S677 N678 1.613 . S
S677 N679 1.610 . S
N678 S677 1.613 . S
N678 C681 1.350 . S
N679 S677 1.610 . S
N679 C680 1.351 . S
C680 C674 1.428 . S
C680 N679 1.351 . S
C680 C681 1.434 . S
C681 C672 1.429 . S
C681 N678 1.350 . S
C681 C680 1.434 . S
C682 C683 1.369 . S
C682 C684 1.419 . S
C682 H686 0.930 . S
C683 C682 1.369 . S
C683 C692 1.429 . S
C684 C682 1.419 . S
C684 C685 1.363 . S
C684 H687 0.929 . S
C685 C684 1.363 . S
C685 C691 1.428 . S
H686 C682 0.930 . S
H687 C684 0.929 . S
S688 N689 1.613 . S
S688 N690 1.610 . S
N689 S688 1.613 . S
N689 C692 1.350 . S
N690 S688 1.610 . S
N690 C691 1.351 . S
C691 C685 1.428 . S
C691 N690 1.351 . S
C691 C692 1.434 . S
C692 C683 1.429 . S
C692 N689 1.350 . S
C692 C691 1.434 . S
C693 C694 1.369 . S
C693 C695 1.419 . S
C693 H697 0.930 . S
C694 C693 1.369 . S
C694 C703 1.429 . S
C695 C693 1.419 . S
C695 C696 1.363 . S
C695 H698 0.929 . S
C696 C695 1.363 . S
C696 C702 1.428 . S
H697 C693 0.930 . S
H698 C695 0.929 . S
S699 N700 1.613 . S
S699 N701 1.610 . S
N700 S699 1.613 . S
N700 C703 1.350 . S
N701 S699 1.610 . S
N701 C702 1.351 . S
C702 C696 1.428 . S
C702 N701 1.351 . S
C702 C703 1.434 . S
C703 C694 1.429 . S
C703 N700 1.350 . S
C703 C702 1.434 . S
C704 C705 1.369 . S
C704 C706 1.419 . S
C704 H708 0.930 . S
C705 C704 1.369 . S
C705 C714 1.429 . S
C706 C704 1.419 . S
C706 C707 1.363 . S
C706 H709 0.929 . S
C707 C706 1.363 . S
C707 C713 1.428 . S
H708 C704 0.930 . S
H709 C706 0.929 . S
S710 N711 1.613 . S
S710 N712 1.610 . S
N711 S710 1.613 . S
N711 C714 1.350 . S
N712 S710 1.610 . S
N712 C713 1.351 . S
C713 C707 1.428 . S
C713 N712 1.351 . S
C713 C714 1.434 . S
C714 C705 1.429 . S
C714 N711 1.350 . S
C714 C713 1.434 . S
C715 C716 1.369 . S
C715 C717 1.419 . S
C715 H719 0.930 . S
C716 C715 1.369 . S
C716 C725 1.429 . S
C717 C715 1.419 . S
C717 C718 1.363 . S
C717 H720 0.929 . S
C718 C717 1.363 . S
C718 C724 1.428 . S
H719 C715 0.930 . S
H720 C717 0.929 . S
S721 N722 1.613 . S
S721 N723 1.610 . S
N722 S721 1.613 . S
N722 C725 1.350 . S
N723 S721 1.610 . S
N723 C724 1.351 . S
C724 C718 1.428 . S
C724 N723 1.351 . S
C724 C725 1.434 . S
C725 C716 1.429 . S
C725 N722 1.350 . S
C725 C724 1.434 . S
C726 C727 1.369 . S
C726 C728 1.419 . S
C726 H730 0.930 . S
C727 C726 1.369 . S
C727 C736 1.429 . S
C728 C726 1.419 . S
C728 C729 1.363 . S
C728 H731 0.929 . S
C729 C728 1.363 . S
C729 C735 1.428 . S
H730 C726 0.930 . S
H731 C728 0.929 . S
S732 N733 1.613 . S
S732 N734 1.610 . S
N733 S732 1.613 . S
N733 C736 1.350 . S
N734 S732 1.610 . S
N734 C735 1.351 . S
C735 C729 1.428 . S
C735 N734 1.351 . S
C735 C736 1.434 . S
C736 C727 1.429 . S
C736 N733 1.350 . S
C736 C735 1.434 . S
C737 C738 1.369 . S
C737 C739 1.419 . S
C737 H741 0.930 . S
C738 C737 1.369 . S
C738 C747 1.429 . S
C739 C737 1.419 . S
C739 C740 1.363 . S
C739 H742 0.929 . S
C740 C739 1.363 . S
C740 C746 1.428 . S
H741 C737 0.930 . S
H742 C739 0.929 . S
S743 N744 1.613 . S
S743 N745 1.610 . S
N744 S743 1.613 . S
N744 C747 1.350 . S
N745 S743 1.610 . S
N745 C746 1.351 . S
C746 C740 1.428 . S
C746 N745 1.351 . S
C746 C747 1.434 . S
C747 C738 1.429 . S
C747 N744 1.350 . S
C747 C746 1.434 . S
C748 C749 1.369 . S
C748 C750 1.419 . S
C748 H752 0.930 . S
C749 C748 1.369 . S
C749 C758 1.429 . S
C750 C748 1.419 . S
C750 C751 1.363 . S
C750 H753 0.929 . S
C751 C750 1.363 . S
C751 C757 1.428 . S
H752 C748 0.930 . S
H753 C750 0.929 . S
S754 N755 1.613 . S
S754 N756 1.610 . S
N755 S754 1.613 . S
N755 C758 1.350 . S
N756 S754 1.610 . S
N756 C757 1.351 . S
C757 C751 1.428 . S
C757 N756 1.351 . S
C757 C758 1.434 . S
C758 C749 1.429 . S
C758 N755 1.350 . S
C758 C757 1.434 . S
C759 C760 1.369 . S
C759 C761 1.419 . S
C759 H763 0.930 . S
C760 C759 1.369 . S
C760 C769 1.429 . S
C761 C759 1.419 . S
C761 C762 1.363 . S
C761 H764 0.929 . S
C762 C761 1.363 . S
C762 C768 1.428 . S
H763 C759 0.930 . S
H764 C761 0.929 . S
S765 N766 1.613 . S
S765 N767 1.610 . S
N766 S765 1.613 . S
N766 C769 1.350 . S
N767 S765 1.610 . S
N767 C768 1.351 . S
C768 C762 1.428 . S
C768 N767 1.351 . S
C768 C769 1.434 . S
C769 C760 1.429 . S
C769 N766 1.350 . S
C769 C768 1.434 . S
C770 C771 1.369 . S
C770 C772 1.419 . S
C770 H774 0.930 . S
C771 C770 1.369 . S
C771 C780 1.429 . S
C772 C770 1.419 . S
C772 C773 1.363 . S
C772 H775 0.929 . S
C773 C772 1.363 . S
C773 C779 1.428 . S
H774 C770 0.930 . S
H775 C772 0.929 . S
S776 N777 1.613 . S
S776 N778 1.610 . S
N777 S776 1.613 . S
N777 C780 1.350 . S
N778 S776 1.610 . S
N778 C779 1.351 . S
C779 C773 1.428 . S
C779 N778 1.351 . S
C779 C780 1.434 . S
C780 C771 1.429 . S
C780 N777 1.350 . S
C780 C779 1.434 . S
C781 C782 1.369 . S
C781 C783 1.419 . S
C781 H785 0.930 . S
C782 C781 1.369 . S
C782 C791 1.429 . S
C783 C781 1.419 . S
C783 C784 1.363 . S
C783 H786 0.929 . S
C784 C783 1.363 . S
C784 C790 1.428 . S
H785 C781 0.930 . S
H786 C783 0.929 . S
S787 N788 1.613 . S
S787 N789 1.610 . S
N788 S787 1.613 . S
N788 C791 1.350 . S
N789 S787 1.610 . S
N789 C790 1.351 . S
C790 C784 1.428 . S
C790 N789 1.351 . S
C790 C791 1.434 . S
C791 C782 1.429 . S
C791 N788 1.350 . S
C791 C790 1.434 . S
C792 C793 1.369 . S
C792 C794 1.419 . S
C792 H796 0.930 . S
C793 C792 1.369 . S
C793 C802 1.429 . S
C794 C792 1.419 . S
C794 C795 1.363 . S
C794 H797 0.929 . S
C795 C794 1.363 . S
C795 C801 1.428 . S
H796 C792 0.930 . S
H797 C794 0.929 . S
S798 N799 1.613 . S
S798 N800 1.610 . S
N799 S798 1.613 . S
N799 C802 1.350 . S
N800 S798 1.610 . S
N800 C801 1.351 . S
C801 C795 1.428 . S
C801 N800 1.351 . S
C801 C802 1.434 . S
C802 C793 1.429 . S
C802 N799 1.350 . S
C802 C801 1.434 . S
C803 C804 1.369 . S
C803 C805 1.419 . S
C803 H807 0.930 . S
C804 C803 1.369 . S
C804 C813 1.429 . S
C805 C803 1.419 . S
C805 C806 1.363 . S
C805 H808 0.929 . S
C806 C805 1.363 . S
C806 C812 1.428 . S
H807 C803 0.930 . S
H808 C805 0.929 . S
S809 N810 1.613 . S
S809 N811 1.610 . S
N810 S809 1.613 . S
N810 C813 1.350 . S
N811 S809 1.610 . S
N811 C812 1.351 . S
C812 C806 1.428 . S
C812 N811 1.351 . S
C812 C813 1.434 . S
C813 C804 1.429 . S
C813 N810 1.350 . S
C813 C812 1.434 . S
C814 C815 1.369 . S
C814 C816 1.419 . S
C814 H818 0.930 . S
C815 C814 1.369 . S
C815 C824 1.429 . S
C816 C814 1.419 . S
C816 C817 1.363 . S
C816 H819 0.929 . S
C817 C816 1.363 . S
C817 C823 1.428 . S
H818 C814 0.930 . S
H819 C816 0.929 . S
S820 N821 1.613 . S
S820 N822 1.610 . S
N821 S820 1.613 . S
N821 C824 1.350 . S
N822 S820 1.610 . S
N822 C823 1.351 . S
C823 C817 1.428 . S
C823 N822 1.351 . S
C823 C824 1.434 . S
C824 C815 1.429 . S
C824 N821 1.350 . S
C824 C823 1.434 . S
C825 C826 1.369 . S
C825 C827 1.419 . S
C825 H829 0.930 . S
C826 C825 1.369 . S
C826 C835 1.429 . S
C827 C825 1.419 . S
C827 C828 1.363 . S
C827 H830 0.929 . S
C828 C827 1.363 . S
C828 C834 1.428 . S
H829 C825 0.930 . S
H830 C827 0.929 . S
S831 N832 1.613 . S
S831 N833 1.610 . S
N832 S831 1.613 . S
N832 C835 1.350 . S
N833 S831 1.610 . S
N833 C834 1.351 . S
C834 C828 1.428 . S
C834 N833 1.351 . S
C834 C835 1.434 . S
C835 C826 1.429 . S
C835 N832 1.350 . S
C835 C834 1.434 . S
C836 C837 1.369 . S
C836 C838 1.419 . S
C836 H840 0.930 . S
C837 C836 1.369 . S
C837 C846 1.429 . S
C838 C836 1.419 . S
C838 C839 1.363 . S
C838 H841 0.929 . S
C839 C838 1.363 . S
C839 C845 1.428 . S
H840 C836 0.930 . S
H841 C838 0.929 . S
S842 N843 1.613 1_455 S
S842 N844 1.610 1_455 S
N843 S842 1.613 1_655 S
N843 C846 1.350 . S
N844 S842 1.610 1_655 S
N844 C845 1.351 . S
C845 C839 1.428 . S
C845 N844 1.351 . S
C845 C846 1.434 . S
C846 C837 1.429 . S
C846 N843 1.350 . S
C846 C845 1.434 . S
C847 C848 1.369 . S
C847 C849 1.419 . S
C847 H851 0.930 . S
C848 C847 1.369 . S
C848 C857 1.429 . S
C849 C847 1.419 . S
C849 C850 1.363 . S
C849 H852 0.929 . S
C850 C849 1.363 . S
C850 C856 1.428 . S
H851 C847 0.930 . S
H852 C849 0.929 . S
S853 N854 1.613 . S
S853 N855 1.610 . S
N854 S853 1.613 . S
N854 C857 1.350 . S
N855 S853 1.610 . S
N855 C856 1.351 . S
C856 C850 1.428 . S
C856 N855 1.351 . S
C856 C857 1.434 . S
C857 C848 1.429 . S
C857 N854 1.350 . S
C857 C856 1.434 . S
C858 C859 1.369 . S
C858 C860 1.419 . S
C858 H862 0.930 . S
C859 C858 1.369 . S
C859 C868 1.429 . S
C860 C858 1.419 . S
C860 C861 1.363 . S
C860 H863 0.929 . S
C861 C860 1.363 . S
C861 C867 1.428 . S
H862 C858 0.930 . S
H863 C860 0.929 . S
S864 N865 1.613 . S
S864 N866 1.610 . S
N865 S864 1.613 . S
N865 C868 1.350 . S
N866 S864 1.610 . S
N866 C867 1.351 . S
C867 C861 1.428 . S
C867 N866 1.351 . S
C867 C868 1.434 . S
C868 C859 1.429 . S
C868 N865 1.350 . S
C868 C867 1.434 . S
C869 C870 1.369 . S
C869 C871 1.419 . S
C869 H873 0.930 . S
C870 C869 1.369 . S
C870 C879 1.429 . S
C871 C869 1.419 . S
C871 C872 1.363 . S
C871 H874 0.929 . S
C872 C871 1.363 . S
C872 C878 1.428 . S
H873 C869 0.930 . S
H874 C871 0.929 . S
S875 N876 1.613 . S
S875 N877 1.610 . S
N876 S875 1.613 . S
N876 C879 1.350 . S
N877 S875 1.610 . S
N877 C878 1.351 . S
C878 C872 1.428 . S
C878 N877 1.351 . S
C878 C879 1.434 . S
C879 C870 1.429 . S
C879 N876 1.350 . S
C879 C878 1.434 . S
C880 C881 1.369 . S
C880 C882 1.419 . S
C880 H884 0.930 . S
C881 C880 1.369 . S
C881 C890 1.429 . S
C882 C880 1.419 . S
C882 C883 1.363 . S
C882 H885 0.929 . S
C883 C882 1.363 . S
C883 C889 1.428 . S
H884 C880 0.930 . S
H885 C882 0.929 . S
S886 N887 1.613 . S
S886 N888 1.610 . S
N887 S886 1.613 . S
N887 C890 1.350 . S
N888 S886 1.610 . S
N888 C889 1.351 . S
C889 C883 1.428 . S
C889 N888 1.351 . S
C889 C890 1.434 . S
C890 C881 1.429 . S
C890 N887 1.350 . S
C890 C889 1.434 . S
C891 C892 1.369 . S
C891 C893 1.419 . S
C891 H895 0.930 . S
C892 C891 1.369 . S
C892 C901 1.429 . S
C893 C891 1.419 . S
C893 C894 1.363 . S
C893 H896 0.929 . S
C894 C893 1.363 . S
C894 C900 1.428 . S
H895 C891 0.930 . S
H896 C893 0.929 . S
S897 N898 1.613 . S
S897 N899 1.610 . S
N898 S897 1.613 . S
N898 C901 1.350 . S
N899 S897 1.610 . S
N899 C900 1.351 . S
C900 C894 1.428 . S
C900 N899 1.351 . S
C900 C901 1.434 . S
C901 C892 1.429 . S
C901 N898 1.350 . S
C901 C900 1.434 . S
C902 C903 1.369 . S
C902 C904 1.419 . S
C902 H906 0.930 . S
C903 C902 1.369 . S
C903 C912 1.429 . S
C904 C902 1.419 . S
C904 C905 1.363 . S
C904 H907 0.929 . S
C905 C904 1.363 . S
C905 C911 1.428 . S
H906 C902 0.930 . S
H907 C904 0.929 . S
S908 N909 1.613 . S
S908 N910 1.610 . S
N909 S908 1.613 . S
N909 C912 1.350 . S
N910 S908 1.610 . S
N910 C911 1.351 . S
C911 C905 1.428 . S
C911 N910 1.351 . S
C911 C912 1.434 . S
C912 C903 1.429 . S
C912 N909 1.350 . S
C912 C911 1.434 . S
C913 C914 1.369 . S
C913 C915 1.419 . S
C913 H917 0.930 . S
C914 C913 1.369 . S
C914 C923 1.429 . S
C915 C913 1.419 . S
C915 C916 1.363 . S
C915 H918 0.929 . S
C916 C915 1.363 . S
C916 C922 1.428 . S
H917 C913 0.930 . S
H918 C915 0.929 . S
S919 N920 1.613 . S
S919 N921 1.610 . S
N920 S919 1.613 . S
N920 C923 1.350 . S
N921 S919 1.610 . S
N921 C922 1.351 . S
C922 C916 1.428 . S
C922 N921 1.351 . S
C922 C923 1.434 . S
C923 C914 1.429 . S
C923 N920 1.350 . S
C923 C922 1.434 . S
C924 C925 1.369 . S
C924 C926 1.419 . S
C924 H928 0.930 . S
C925 C924 1.369 . S
C925 C934 1.429 . S
C926 C924 1.419 . S
C926 C927 1.363 . S
C926 H929 0.929 . S
C927 C926 1.363 . S
C927 C933 1.428 . S
H928 C924 0.930 . S
H929 C926 0.929 . S
S930 N931 1.613 . S
S930 N932 1.610 . S
N931 S930 1.613 . S
N931 C934 1.350 . S
N932 S930 1.610 . S
N932 C933 1.351 . S
C933 C927 1.428 . S
C933 N932 1.351 . S
C933 C934 1.434 . S
C934 C925 1.429 . S
C934 N931 1.350 . S
C934 C933 1.434 . S
C935 C936 1.369 . S
C935 C937 1.419 . S
C935 H939 0.930 . S
C936 C935 1.369 . S
C936 C945 1.429 . S
C937 C935 1.419 . S
C937 C938 1.363 . S
C937 H940 0.929 . S
C938 C937 1.363 . S
C938 C944 1.428 . S
H939 C935 0.930 . S
H940 C937 0.929 . S
S941 N942 1.613 . S
S941 N943 1.610 . S
N942 S941 1.613 . S
N942 C945 1.350 . S
N943 S941 1.610 . S
N943 C944 1.351 . S
C944 C938 1.428 . S
C944 N943 1.351 . S
C944 C945 1.434 . S
C945 C936 1.429 . S
C945 N942 1.350 . S
C945 C944 1.434 . S
C946 C947 1.369 . S
C946 C948 1.419 . S
C946 H950 0.930 . S
C947 C946 1.369 . S
C947 C956 1.429 . S
C948 C946 1.419 . S
C948 C949 1.363 . S
C948 H951 0.929 . S
C949 C948 1.363 . S
C949 C955 1.428 . S
H950 C946 0.930 . S
H951 C948 0.929 . S
S952 N953 1.613 . S
S952 N954 1.610 . S
N953 S952 1.613 . S
N953 C956 1.350 . S
N954 S952 1.610 . S
N954 C955 1.351 . S
C955 C949 1.428 . S
C955 N954 1.351 . S
C955 C956 1.434 . S
C956 C947 1.429 . S
C956 N953 1.350 . S
C956 C955 1.434 . S
C957 C958 1.369 . S
C957 C959 1.419 . S
C957 H961 0.930 . S
C958 C957 1.369 . S
C958 C967 1.429 . S
C959 C957 1.419 . S
C959 C960 1.363 . S
C959 H962 0.929 . S
C960 C959 1.363 . S
C960 C966 1.428 . S
H961 C957 0.930 . S
H962 C959 0.929 . S
S963 N964 1.613 . S
S963 N965 1.610 . S
N964 S963 1.613 . S
N964 C967 1.350 . S
N965 S963 1.610 . S
N965 C966 1.351 . S
C966 C960 1.428 . S
C966 N965 1.351 . S
C966 C967 1.434 . S
C967 C958 1.429 . S
C967 N964 1.350 . S
C967 C966 1.434 . S
C968 C969 1.369 . S
C968 C970 1.419 . S
C968 H972 0.930 . S
C969 C968 1.369 . S
C969 C978 1.429 . S
C970 C968 1.419 . S
C970 C971 1.363 . S
C970 H973 0.929 . S
C971 C970 1.363 . S
C971 C977 1.428 . S
H972 C968 0.930 . S
H973 C970 0.929 . S
S974 N975 1.613 . S
S974 N976 1.610 . S
N975 S974 1.613 . S
N975 C978 1.350 . S
N976 S974 1.610 . S
N976 C977 1.351 . S
C977 C971 1.428 . S
C977 N976 1.351 . S
C977 C978 1.434 . S
C978 C969 1.429 . S
C978 N975 1.350 . S
C978 C977 1.434 . S
C979 C980 1.369 . S
C979 C981 1.419 . S
C979 H983 0.930 . S
C980 C979 1.369 . S
C980 C989 1.429 . S
C981 C979 1.419 . S
C981 C982 1.363 . S
C981 H984 0.929 . S
C982 C981 1.363 . S
C982 C988 1.428 . S
H983 C979 0.930 . S
H984 C981 0.929 . S
S985 N986 1.613 . S
S985 N987 1.610 . S
N986 S985 1.613 . S
N986 C989 1.350 . S
N987 S985 1.610 . S
N987 C988 1.351 . S
C988 C982 1.428 . S
C988 N987 1.351 . S
C988 C989 1.434 . S
C989 C980 1.429 . S
C989 N986 1.350 . S
C989 C988 1.434 . S
C990 C991 1.369 . S
C990 C992 1.419 . S
C990 H994 0.930 . S
C991 C990 1.369 . S
C991 C1000 1.429 . S
C992 C990 1.419 . S
C992 C993 1.363 . S
C992 H995 0.929 . S
C993 C992 1.363 . S
C993 C999 1.428 . S
H994 C990 0.930 . S
H995 C992 0.929 . S
S996 N997 1.613 . S
S996 N998 1.610 . S
N997 S996 1.613 . S
N997 C1000 1.350 . S
N998 S996 1.610 . S
N998 C999 1.351 . S
C999 C993 1.428 . S
C999 N998 1.351 . S
C999 C1000 1.434 . S
C1000 C991 1.429 . S
C1000 N997 1.350 . S
C1000 C999 1.434 . S
C1001 C1002 1.369 . S
C1001 C1003 1.419 . S
C1001 H1005 0.930 . S
C1002 C1001 1.369 . S
C1002 C1011 1.429 . S
C1003 C1001 1.419 . S
C1003 C1004 1.363 . S
C1003 H1006 0.929 . S
C1004 C1003 1.363 . S
C1004 C1010 1.428 . S
H1005 C1001 0.930 . S
H1006 C1003 0.929 . S
S1007 N1008 1.613 . S
S1007 N1009 1.610 . S
N1008 S1007 1.613 . S
N1008 C1011 1.350 . S
N1009 S1007 1.610 . S
N1009 C1010 1.351 . S
C1010 C1004 1.428 . S
C1010 N1009 1.351 . S
C1010 C1011 1.434 . S
C1011 C1002 1.429 . S
C1011 N1008 1.350 . S
C1011 C1010 1.434 . S
C1012 C1013 1.369 . S
C1012 C1014 1.419 . S
C1012 H1016 0.930 . S
C1013 C1012 1.369 . S
C1013 C1022 1.429 . S
C1014 C1012 1.419 . S
C1014 C1015 1.363 . S
C1014 H1017 0.929 . S
C1015 C1014 1.363 . S
C1015 C1021 1.428 . S
H1016 C1012 0.930 . S
H1017 C1014 0.929 . S
S1018 N1019 1.613 . S
S1018 N1020 1.610 . S
N1019 S1018 1.613 . S
N1019 C1022 1.350 . S
N1020 S1018 1.610 . S
N1020 C1021 1.351 . S
C1021 C1015 1.428 . S
C1021 N1020 1.351 . S
C1021 C1022 1.434 . S
C1022 C1013 1.429 . S
C1022 N1019 1.350 . S
C1022 C1021 1.434 . S
C1023 C1024 1.369 . S
C1023 C1025 1.419 . S
C1023 H1027 0.930 . S
C1024 C1023 1.369 . S
C1024 C1033 1.429 . S
C1025 C1023 1.419 . S
C1025 C1026 1.363 . S
C1025 H1028 0.929 . S
C1026 C1025 1.363 . S
C1026 C1032 1.428 . S
H1027 C1023 0.930 . S
H1028 C1025 0.929 . S
S1029 N1030 1.613 . S
S1029 N1031 1.610 . S
N1030 S1029 1.613 . S
N1030 C1033 1.350 . S
N1031 S1029 1.610 . S
N1031 C1032 1.351 . S
C1032 C1026 1.428 . S
C1032 N1031 1.351 . S
C1032 C1033 1.434 . S
C1033 C1024 1.429 . S
C1033 N1030 1.350 . S
C1033 C1032 1.434 . S
C1034 C1035 1.369 . S
C1034 C1036 1.419 . S
C1034 H1038 0.930 . S
C1035 C1034 1.369 . S
C1035 C1044 1.429 . S
C1036 C1034 1.419 . S
C1036 C1037 1.363 . S
C1036 H1039 0.929 . S
C1037 C1036 1.363 . S
C1037 C1043 1.428 . S
H1038 C1034 0.930 . S
H1039 C1036 0.929 . S
S1040 N1041 1.613 . S
S1040 N1042 1.610 . S
N1041 S1040 1.613 . S
N1041 C1044 1.350 . S
N1042 S1040 1.610 . S
N1042 C1043 1.351 . S
C1043 C1037 1.428 . S
C1043 N1042 1.351 . S
C1043 C1044 1.434 . S
C1044 C1035 1.429 . S
C1044 N1041 1.350 . S
C1044 C1043 1.434 . S
C1045 C1046 1.369 . S
C1045 C1047 1.419 . S
C1045 H1049 0.930 . S
C1046 C1045 1.369 . S
C1046 C1055 1.429 . S
C1047 C1045 1.419 . S
C1047 C1048 1.363 . S
C1047 H1050 0.929 . S
C1048 C1047 1.363 . S
C1048 C1054 1.428 . S
H1049 C1045 0.930 . S
H1050 C1047 0.929 . S
S1051 N1052 1.613 . S
S1051 N1053 1.610 . S
N1052 S1051 1.613 . S
N1052 C1055 1.350 . S
N1053 S1051 1.610 . S
N1053 C1054 1.351 . S
C1054 C1048 1.428 . S
C1054 N1053 1.351 . S
C1054 C1055 1.434 . S
C1055 C1046 1.429 . S
C1055 N1052 1.350 . S
C1055 C1054 1.434 . S
C1056 C1057 1.369 . S
C1056 C1058 1.419 . S
C1056 H1060 0.930 . S
C1057 C1056 1.369 . S
C1057 C1066 1.429 . S
C1058 C1056 1.419 . S
C1058 C1059 1.363 . S
C1058 H1061 0.929 . S
C1059 C1058 1.363 . S
C1059 C1065 1.428 . S
H1060 C1056 0.930 . S
H1061 C1058 0.929 . S
S1062 N1063 1.613 . S
S1062 N1064 1.610 . S
N1063 S1062 1.613 . S
N1063 C1066 1.350 . S
N1064 S1062 1.610 . S
N1064 C1065 1.351 . S
C1065 C1059 1.428 . S
C1065 N1064 1.351 . S
C1065 C1066 1.434 . S
C1066 C1057 1.429 . S
C1066 N1063 1.350 . S
C1066 C1065 1.434 . S
C1067 C1068 1.369 . S
C1067 C1069 1.419 . S
C1067 H1071 0.930 . S
C1068 C1067 1.369 . S
C1068 C1077 1.429 . S
C1069 C1067 1.419 . S
C1069 C1070 1.363 . S
C1069 H1072 0.929 . S
C1070 C1069 1.363 . S
C1070 C1076 1.428 . S
H1071 C1067 0.930 . S
H1072 C1069 0.929 . S
S1073 N1074 1.613 . S
S1073 N1075 1.610 . S
N1074 S1073 1.613 . S
N1074 C1077 1.350 . S
N1075 S1073 1.610 . S
N1075 C1076 1.351 . S
C1076 C1070 1.428 . S
C1076 N1075 1.351 . S
C1076 C1077 1.434 . S
C1077 C1068 1.429 . S
C1077 N1074 1.350 . S
C1077 C1076 1.434 . S
C1078 C1079 1.369 . S
C1078 C1080 1.419 . S
C1078 H1082 0.930 . S
C1079 C1078 1.369 . S
C1079 C1088 1.429 . S
C1080 C1078 1.419 . S
C1080 C1081 1.363 . S
C1080 H1083 0.929 . S
C1081 C1080 1.363 . S
C1081 C1087 1.428 . S
H1082 C1078 0.930 . S
H1083 C1080 0.929 . S
S1084 N1085 1.613 . S
S1084 N1086 1.610 . S
N1085 S1084 1.613 . S
N1085 C1088 1.350 . S
N1086 S1084 1.610 . S
N1086 C1087 1.351 . S
C1087 C1081 1.428 . S
C1087 N1086 1.351 . S
C1087 C1088 1.434 . S
C1088 C1079 1.429 . S
C1088 N1085 1.350 . S
C1088 C1087 1.434 . S
C1089 C1090 1.369 . S
C1089 C1091 1.419 . S
C1089 H1093 0.930 . S
C1090 C1089 1.369 . S
C1090 C1099 1.429 . S
C1091 C1089 1.419 . S
C1091 C1092 1.363 . S
C1091 H1094 0.929 . S
C1092 C1091 1.363 . S
C1092 C1098 1.428 . S
H1093 C1089 0.930 . S
H1094 C1091 0.929 . S
S1095 N1096 1.613 . S
S1095 N1097 1.610 . S
N1096 S1095 1.613 . S
N1096 C1099 1.350 . S
N1097 S1095 1.610 . S
N1097 C1098 1.351 . S
C1098 C1092 1.428 . S
C1098 N1097 1.351 . S
C1098 C1099 1.434 . S
C1099 C1090 1.429 . S
C1099 N1096 1.350 . S
C1099 C1098 1.434 . S
C1100 C1101 1.369 . S
C1100 C1102 1.419 . S
C1100 H1104 0.930 . S
C1101 C1100 1.369 . S
C1101 C1110 1.429 . S
C1102 C1100 1.419 . S
C1102 C1103 1.363 . S
C1102 H1105 0.929 . S
C1103 C1102 1.363 . S
C1103 C1109 1.428 . S
H1104 C1100 0.930 . S
H1105 C1102 0.929 . S
S1106 N1107 1.613 . S
S1106 N1108 1.610 . S
N1107 S1106 1.613 . S
N1107 C1110 1.350 . S
N1108 S1106 1.610 . S
N1108 C1109 1.351 . S
C1109 C1103 1.428 . S
C1109 N1108 1.351 . S
C1109 C1110 1.434 . S
C1110 C1101 1.429 . S
C1110 N1107 1.350 . S
C1110 C1109 1.434 . S
C1111 C1112 1.369 . S
C1111 C1113 1.419 . S
C1111 H1115 0.930 . S
C1112 C1111 1.369 . S
C1112 C1121 1.429 . S
C1113 C1111 1.419 . S
C1113 C1114 1.363 . S
C1113 H1116 0.929 . S
C1114 C1113 1.363 . S
C1114 C1120 1.428 . S
H1115 C1111 0.930 . S
H1116 C1113 0.929 . S
S1117 N1118 1.613 . S
S1117 N1119 1.610 . S
N1118 S1117 1.613 . S
N1118 C1121 1.350 . S
N1119 S1117 1.610 . S
N1119 C1120 1.351 . S
C1120 C1114 1.428 . S
C1120 N1119 1.351 . S
C1120 C1121 1.434 . S
C1121 C1112 1.429 . S
C1121 N1118 1.350 . S
C1121 C1120 1.434 . S
C1122 C1123 1.369 . S
C1122 C1124 1.419 . S
C1122 H1126 0.930 . S
C1123 C1122 1.369 . S
C1123 C1132 1.429 . S
C1124 C1122 1.419 . S
C1124 C1125 1.363 . S
C1124 H1127 0.929 . S
C1125 C1124 1.363 . S
C1125 C1131 1.428 . S
H1126 C1122 0.930 . S
H1127 C1124 0.929 . S
S1128 N1129 1.613 . S
S1128 N1130 1.610 . S
N1129 S1128 1.613 . S
N1129 C1132 1.350 . S
N1130 S1128 1.610 . S
N1130 C1131 1.351 . S
C1131 C1125 1.428 . S
C1131 N1130 1.351 . S
C1131 C1132 1.434 . S
C1132 C1123 1.429 . S
C1132 N1129 1.350 . S
C1132 C1131 1.434 . S
C1133 C1134 1.369 . S
C1133 C1135 1.419 . S
C1133 H1137 0.930 . S
C1134 C1133 1.369 . S
C1134 C1143 1.429 . S
C1135 C1133 1.419 . S
C1135 C1136 1.363 . S
C1135 H1138 0.929 . S
C1136 C1135 1.363 . S
C1136 C1142 1.428 . S
H1137 C1133 0.930 . S
H1138 C1135 0.929 . S
S1139 N1140 1.613 . S
S1139 N1141 1.610 . S
N1140 S1139 1.613 . S
N1140 C1143 1.350 . S
N1141 S1139 1.610 . S
N1141 C1142 1.351 . S
C1142 C1136 1.428 . S
C1142 N1141 1.351 . S
C1142 C1143 1.434 . S
C1143 C1134 1.429 . S
C1143 N1140 1.350 . S
C1143 C1142 1.434 . S
C1144 C1145 1.369 . S
C1144 C1146 1.419 . S
C1144 H1148 0.930 . S
C1145 C1144 1.369 . S
C1145 C1154 1.429 . S
C1146 C1144 1.419 . S
C1146 C1147 1.363 . S
C1146 H1149 0.929 . S
C1147 C1146 1.363 . S
C1147 C1153 1.428 . S
H1148 C1144 0.930 . S
H1149 C1146 0.929 . S
S1150 N1151 1.613 . S
S1150 N1152 1.610 . S
N1151 S1150 1.613 . S
N1151 C1154 1.350 . S
N1152 S1150 1.610 . S
N1152 C1153 1.351 . S
C1153 C1147 1.428 . S
C1153 N1152 1.351 . S
C1153 C1154 1.434 . S
C1154 C1145 1.429 . S
C1154 N1151 1.350 . S
C1154 C1153 1.434 . S
C1155 C1156 1.369 . S
C1155 C1157 1.419 . S
C1155 H1159 0.930 . S
C1156 C1155 1.369 . S
C1156 C1165 1.429 . S
C1157 C1155 1.419 . S
C1157 C1158 1.363 . S
C1157 H1160 0.929 . S
C1158 C1157 1.363 . S
C1158 C1164 1.428 . S
H1159 C1155 0.930 . S
H1160 C1157 0.929 . S
S1161 N1162 1.613 . S
S1161 N1163 1.610 . S
N1162 S1161 1.613 . S
N1162 C1165 1.350 . S
N1163 S1161 1.610 . S
N1163 C1164 1.351 . S
C1164 C1158 1.428 . S
C1164 N1163 1.351 . S
C1164 C1165 1.434 . S
C1165 C1156 1.429 . S
C1165 N1162 1.350 . S
C1165 C1164 1.434 . S
C1166 C1167 1.369 . S
C1166 C1168 1.419 . S
C1166 H1170 0.930 . S
C1167 C1166 1.369 . S
C1167 C1176 1.429 . S
C1168 C1166 1.419 . S
C1168 C1169 1.363 . S
C1168 H1171 0.929 . S
C1169 C1168 1.363 . S
C1169 C1175 1.428 . S
H1170 C1166 0.930 . S
H1171 C1168 0.929 . S
S1172 N1173 1.613 . S
S1172 N1174 1.610 . S
N1173 S1172 1.613 . S
N1173 C1176 1.350 . S
N1174 S1172 1.610 . S
N1174 C1175 1.351 . S
C1175 C1169 1.428 . S
C1175 N1174 1.351 . S
C1175 C1176 1.434 . S
C1176 C1167 1.429 . S
C1176 N1173 1.350 . S
C1176 C1175 1.434 . S
C1177 C1178 1.369 . S
C1177 C1179 1.419 . S
C1177 H1181 0.930 . S
C1178 C1177 1.369 . S
C1178 C1187 1.429 . S
C1179 C1177 1.419 . S
C1179 C1180 1.363 . S
C1179 H1182 0.929 . S
C1180 C1179 1.363 . S
C1180 C1186 1.428 . S
H1181 C1177 0.930 . S
H1182 C1179 0.929 . S
S1183 N1184 1.613 . S
S1183 N1185 1.610 . S
N1184 S1183 1.613 . S
N1184 C1187 1.350 . S
N1185 S1183 1.610 . S
N1185 C1186 1.351 . S
C1186 C1180 1.428 . S
C1186 N1185 1.351 . S
C1186 C1187 1.434 . S
C1187 C1178 1.429 . S
C1187 N1184 1.350 . S
C1187 C1186 1.434 . S
C1188 C1189 1.369 . S
C1188 C1190 1.419 . S
C1188 H1192 0.930 . S
C1189 C1188 1.369 . S
C1189 C1198 1.429 . S
C1190 C1188 1.419 . S
C1190 C1191 1.363 . S
C1190 H1193 0.929 . S
C1191 C1190 1.363 . S
C1191 C1197 1.428 . S
H1192 C1188 0.930 . S
H1193 C1190 0.929 . S
S1194 N1195 1.613 . S
S1194 N1196 1.610 . S
N1195 S1194 1.613 . S
N1195 C1198 1.350 . S
N1196 S1194 1.610 . S
N1196 C1197 1.351 . S
C1197 C1191 1.428 . S
C1197 N1196 1.351 . S
C1197 C1198 1.434 . S
C1198 C1189 1.429 . S
C1198 N1195 1.350 . S
C1198 C1197 1.434 . S
C1199 C1200 1.369 . S
C1199 C1201 1.419 . S
C1199 H1203 0.930 . S
C1200 C1199 1.369 . S
C1200 C1209 1.429 . S
C1201 C1199 1.419 . S
C1201 C1202 1.363 . S
C1201 H1204 0.929 . S
C1202 C1201 1.363 . S
C1202 C1208 1.428 . S
H1203 C1199 0.930 . S
H1204 C1201 0.929 . S
S1205 N1206 1.613 . S
S1205 N1207 1.610 . S
N1206 S1205 1.613 . S
N1206 C1209 1.350 . S
N1207 S1205 1.610 . S
N1207 C1208 1.351 . S
C1208 C1202 1.428 . S
C1208 N1207 1.351 . S
C1208 C1209 1.434 . S
C1209 C1200 1.429 . S
C1209 N1206 1.350 . S
C1209 C1208 1.434 . S
C1210 C1211 1.369 . S
C1210 C1212 1.419 . S
C1210 H1214 0.930 . S
C1211 C1210 1.369 . S
C1211 C1220 1.429 . S
C1212 C1210 1.419 . S
C1212 C1213 1.363 . S
C1212 H1215 0.929 . S
C1213 C1212 1.363 . S
C1213 C1219 1.428 . S
H1214 C1210 0.930 . S
H1215 C1212 0.929 . S
S1216 N1217 1.613 . S
S1216 N1218 1.610 . S
N1217 S1216 1.613 . S
N1217 C1220 1.350 . S
N1218 S1216 1.610 . S
N1218 C1219 1.351 . S
C1219 C1213 1.428 . S
C1219 N1218 1.351 . S
C1219 C1220 1.434 . S
C1220 C1211 1.429 . S
C1220 N1217 1.350 . S
C1220 C1219 1.434 . S
C1221 C1222 1.369 . S
C1221 C1223 1.419 . S
C1221 H1225 0.930 . S
C1222 C1221 1.369 . S
C1222 C1231 1.429 . S
C1223 C1221 1.419 . S
C1223 C1224 1.363 . S
C1223 H1226 0.929 . S
C1224 C1223 1.363 . S
C1224 C1230 1.428 . S
H1225 C1221 0.930 . S
H1226 C1223 0.929 . S
S1227 N1228 1.613 . S
S1227 N1229 1.610 . S
N1228 S1227 1.613 . S
N1228 C1231 1.350 . S
N1229 S1227 1.610 . S
N1229 C1230 1.351 . S
C1230 C1224 1.428 . S
C1230 N1229 1.351 . S
C1230 C1231 1.434 . S
C1231 C1222 1.429 . S
C1231 N1228 1.350 . S
C1231 C1230 1.434 . S
C1232 C1233 1.369 . S
C1232 C1234 1.419 . S
C1232 H1236 0.930 . S
C1233 C1232 1.369 . S
C1233 C1242 1.429 . S
C1234 C1232 1.419 . S
C1234 C1235 1.363 . S
C1234 H1237 0.929 . S
C1235 C1234 1.363 . S
C1235 C1241 1.428 . S
H1236 C1232 0.930 . S
H1237 C1234 0.929 . S
S1238 N1239 1.613 . S
S1238 N1240 1.610 . S
N1239 S1238 1.613 . S
N1239 C1242 1.350 . S
N1240 S1238 1.610 . S
N1240 C1241 1.351 . S
C1241 C1235 1.428 . S
C1241 N1240 1.351 . S
C1241 C1242 1.434 . S
C1242 C1233 1.429 . S
C1242 N1239 1.350 . S
C1242 C1241 1.434 . S
C1243 C1244 1.369 . S
C1243 C1245 1.419 . S
C1243 H1247 0.930 . S
C1244 C1243 1.369 . S
C1244 C1253 1.429 . S
C1245 C1243 1.419 . S
C1245 C1246 1.363 . S
C1245 H1248 0.929 . S
C1246 C1245 1.363 . S
C1246 C1252 1.428 . S
H1247 C1243 0.930 . S
H1248 C1245 0.929 . S
S1249 N1250 1.613 . S
S1249 N1251 1.610 . S
N1250 S1249 1.613 . S
N1250 C1253 1.350 . S
N1251 S1249 1.610 . S
N1251 C1252 1.351 . S
C1252 C1246 1.428 . S
C1252 N1251 1.351 . S
C1252 C1253 1.434 . S
C1253 C1244 1.429 . S
C1253 N1250 1.350 . S
C1253 C1252 1.434 . S
C1254 C1255 1.369 . S
C1254 C1256 1.419 . S
C1254 H1258 0.930 . S
C1255 C1254 1.369 . S
C1255 C1264 1.429 . S
C1256 C1254 1.419 . S
C1256 C1257 1.363 . S
C1256 H1259 0.929 . S
C1257 C1256 1.363 . S
C1257 C1263 1.428 . S
H1258 C1254 0.930 . S
H1259 C1256 0.929 . S
S1260 N1261 1.613 . S
S1260 N1262 1.610 . S
N1261 S1260 1.613 . S
N1261 C1264 1.350 . S
N1262 S1260 1.610 . S
N1262 C1263 1.351 . S
C1263 C1257 1.428 . S
C1263 N1262 1.351 . S
C1263 C1264 1.434 . S
C1264 C1255 1.429 . S
C1264 N1261 1.350 . S
C1264 C1263 1.434 . S
C1265 C1266 1.369 . S
C1265 C1267 1.419 . S
C1265 H1269 0.930 . S
C1266 C1265 1.369 . S
C1266 C1275 1.429 . S
C1267 C1265 1.419 . S
C1267 C1268 1.363 . S
C1267 H1270 0.929 . S
C1268 C1267 1.363 . S
C1268 C1274 1.428 . S
H1269 C1265 0.930 . S
H1270 C1267 0.929 . S
S1271 N1272 1.613 . S
S1271 N1273 1.610 . S
N1272 S1271 1.613 . S
N1272 C1275 1.350 . S
N1273 S1271 1.610 . S
N1273 C1274 1.351 . S
C1274 C1268 1.428 . S
C1274 N1273 1.351 . S
C1274 C1275 1.434 . S
C1275 C1266 1.429 . S
C1275 N1272 1.350 . S
C1275 C1274 1.434 . S
C1276 C1277 1.369 . S
C1276 C1278 1.419 . S
C1276 H1280 0.930 . S
C1277 C1276 1.369 . S
C1277 C1286 1.429 . S
C1278 C1276 1.419 . S
C1278 C1279 1.363 . S
C1278 H1281 0.929 . S
C1279 C1278 1.363 . S
C1279 C1285 1.428 . S
H1280 C1276 0.930 . S
H1281 C1278 0.929 . S
S1282 N1283 1.613 . S
S1282 N1284 1.610 . S
N1283 S1282 1.613 . S
N1283 C1286 1.350 . S
N1284 S1282 1.610 . S
N1284 C1285 1.351 . S
C1285 C1279 1.428 . S
C1285 N1284 1.351 . S
C1285 C1286 1.434 . S
C1286 C1277 1.429 . S
C1286 N1283 1.350 . S
C1286 C1285 1.434 . S
C1287 C1288 1.369 . S
C1287 C1289 1.419 . S
C1287 H1291 0.930 . S
C1288 C1287 1.369 . S
C1288 C1297 1.429 . S
C1289 C1287 1.419 . S
C1289 C1290 1.363 . S
C1289 H1292 0.929 . S
C1290 C1289 1.363 . S
C1290 C1296 1.428 . S
H1291 C1287 0.930 . S
H1292 C1289 0.929 . S
S1293 N1294 1.613 . S
S1293 N1295 1.610 . S
N1294 S1293 1.613 . S
N1294 C1297 1.350 . S
N1295 S1293 1.610 . S
N1295 C1296 1.351 . S
C1296 C1290 1.428 . S
C1296 N1295 1.351 . S
C1296 C1297 1.434 . S
C1297 C1288 1.429 . S
C1297 N1294 1.350 . S
C1297 C1296 1.434 . S
C1298 C1299 1.369 . S
C1298 C1300 1.419 . S
C1298 H1302 0.930 . S
C1299 C1298 1.369 . S
C1299 C1308 1.429 . S
C1300 C1298 1.419 . S
C1300 C1301 1.363 . S
C1300 H1303 0.929 . S
C1301 C1300 1.363 . S
C1301 C1307 1.428 . S
H1302 C1298 0.930 . S
H1303 C1300 0.929 . S
S1304 N1305 1.613 . S
S1304 N1306 1.610 . S
N1305 S1304 1.613 . S
N1305 C1308 1.350 . S
N1306 S1304 1.610 . S
N1306 C1307 1.351 . S
C1307 C1301 1.428 . S
C1307 N1306 1.351 . S
C1307 C1308 1.434 . S
C1308 C1299 1.429 . S
C1308 N1305 1.350 . S
C1308 C1307 1.434 . S
C1309 C1310 1.369 . S
C1309 C1311 1.419 . S
C1309 H1313 0.930 . S
C1310 C1309 1.369 . S
C1310 C1319 1.429 . S
C1311 C1309 1.419 . S
C1311 C1312 1.363 . S
C1311 H1314 0.929 . S
C1312 C1311 1.363 . S
C1312 C1318 1.428 . S
H1313 C1309 0.930 . S
H1314 C1311 0.929 . S
S1315 N1316 1.613 . S
S1315 N1317 1.610 . S
N1316 S1315 1.613 . S
N1316 C1319 1.350 . S
N1317 S1315 1.610 . S
N1317 C1318 1.351 . S
C1318 C1312 1.428 . S
C1318 N1317 1.351 . S
C1318 C1319 1.434 . S
C1319 C1310 1.429 . S
C1319 N1316 1.350 . S
C1319 C1318 1.434 . S
C529 C15 1.287 . S
C531 C367 1.339 . S
C540 C37 1.284 . S
C542 C527 1.337 . S
C551 C469 1.339 . S
C553 C65 1.276 . S
C562 C81 1.268 . S
C564 C499 1.334 . S
C573 C95 1.276 . S
C575 C395 1.338 . S
C584 C117 1.271 . S
C586 C411 1.338 . S
C595 C139 1.275 . S
C597 C439 1.338 . S
C606 C169 1.264 . S
C608 C450 1.296 . S
C617 C197 1.278 . S
C619 C7 1.345 . S
C628 C205 1.280 . S
C630 C29 1.347 . S
C639 C59 1.334 . S
C641 C241 1.283 . S
C650 C73 1.339 . S
C652 C263 1.275 . S
C661 C279 1.281 . S
C663 C109 1.334 . S
C672 C301 1.283 . S
C674 C131 1.339 . S
C683 C329 1.284 . S
C685 C153 1.352 . S
C694 C345 1.287 . S
C696 C161 1.348 . S
C705 C373 1.269 . S
C707 C191 1.335 . S
C716 C381 1.274 . S
C718 C271 1.336 . S
C727 C293 1.338 . S
C729 C417 1.273 . S
C738 C425 1.283 . S
C740 C323 1.333 . S
C749 C458 1.256 . S
C751 C337 1.292 . S
C760 C477 1.268 . S
C762 C235 1.334 . S
C771 C257 1.344 . S
C773 C505 1.289 . S
C782 C513 1.272 . S
C784 C219 1.336 . S
C793 C480 1.312 . S
C795 C106 1.297 . S
C804 C494 1.317 . S
C806 C128 1.301 . S
C815 C150 1.301 . S
C817 C362 1.307 . S
C826 C164 1.294 . S
C828 C514 1.314 . S
C837 C426 1.317 . S
C839 C10 1.298 . S
C848 C32 1.325 . S
C850 C455 1.352 . S
C859 C382 1.310 . S
C861 C52 1.304 . S
C870 C76 1.306 . S
C872 C406 1.313 . S
C881 C316 1.299 . S
C883 C96 1.311 . S
C892 C340 1.295 . S
C894 C118 1.316 . S
C903 C274 1.289 . S
C905 C140 1.309 . S
C914 C172 1.303 . S
C916 C296 1.296 . S
C925 C228 1.288 . S
C927 C18 1.302 . S
C936 C250 1.283 . S
C938 C40 1.304 . S
C947 C184 1.295 . S
C949 C54 1.316 . S
C958 C216 1.297 . S
C960 C84 1.309 . S
C969 C318 1.314 . S
C971 C472 1.305 . S
C980 C436 1.306 . S
C982 C230 1.315 . S
C991 C252 1.355 . S
C993 C447 1.327 . S
C1002 C392 1.298 . S
C1004 C186 1.318 . S
C1013 C404 1.297 . S
C1015 C206 1.318 . S
C1024 C360 1.309 . S
C1026 C282 1.314 . S
C1035 C524 1.302 . S
C1037 C304 1.313 . S
C1046 C348 1.301 . S
C1048 C492 1.290 . S
C1057 C448 1.411 . S
C1059 C21 1.408 . S
C1068 C389 1.442 . S
C1070 C43 1.440 . S
C1079 C51 1.438 . S
C1081 C403 1.436 . S
C1090 C87 1.439 . S
C1092 C433 1.438 . S
C1101 C521 1.439 . S
C1103 C103 1.435 . S
C1112 C125 1.440 . S
C1114 C483 1.441 . S
C1123 C491 1.443 . S
C1125 C147 1.448 . S
C1134 C175 1.439 . S
C1136 C359 1.443 . S
C1145 C183 1.445 . S
C1147 C351 1.449 . S
C1156 C285 1.437 . S
C1158 C213 1.438 . S
C1167 C227 1.435 . S
C1169 C307 1.431 . S
C1178 C315 1.448 . S
C1180 C249 1.448 . S
C1189 C414 1.414 . S
C1191 C98 1.412 . S
C1200 C428 1.417 . S
C1202 C120 1.411 . S
C1211 C142 1.444 . S
C1213 C461 1.440 . S
C1222 C162 1.412 . S
C1224 C384 1.407 . S
C1233 C502 1.408 . S
C1235 C8 1.402 . S
C1244 C370 1.406 . S
C1246 C30 1.412 . S
C1255 C516 1.416 . S
C1257 C62 1.412 . S
C1266 C74 1.415 . S
C1268 C470 1.409 . S
C1277 C208 1.415 . S
C1279 C326 1.419 . S
C1288 C338 1.400 . S
C1290 C238 1.406 . S
C1299 C272 1.407 . S
C1301 C260 1.401 . S
C1310 C294 1.415 . S
C1312 C194 1.409 . S
