# Generated by pormake.
# Topology unc, (4)-cn, num edge types: 1
# Building blocks:
#     Node 0, Type 0, BuildingBlock: GALJAG_clean_sbu_0, # of connection points: 4
#     Node 1, Type 0, BuildingBlock: GALJAG_clean_sbu_0, # of connection points: 4
#     Node 2, Type 0, BuildingBlock: GALJAG_clean_sbu_0, # of connection points: 4
#     Node 3, Type 0, BuildingBlock: GALJAG_clean_sbu_0, # of connection points: 4
#     Edge 4, Type (0, 0), BuildingBlock: XUDNAN_clean_linker_2, # of connection points: 2
#     Edge 5, Type (0, 0), BuildingBlock: XUDNAN_clean_linker_2, # of connection points: 2
#     Edge 6, Type (0, 0), BuildingBlock: XUDNAN_clean_linker_2, # of connection points: 2
#     Edge 7, Type (0, 0), BuildingBlock: XUDNAN_clean_linker_2, # of connection points: 2
#     Edge 8, Type (0, 0), BuildingBlock: XUDNAN_clean_linker_2, # of connection points: 2
#     Edge 9, Type (0, 0), BuildingBlock: XUDNAN_clean_linker_2, # of connection points: 2
#     Edge 10, Type (0, 0), BuildingBlock: XUDNAN_clean_linker_2, # of connection points: 2
#     Edge 11, Type (0, 0), BuildingBlock: XUDNAN_clean_linker_2, # of connection points: 2
# Relax obj value: 0.013
# Max RMSD: 0.034
# Mean RMSD: 0.034
data_MOF--net-unc--node1-GALJAG_clean_sbu_0--edge1-XUDNAN_clean_linker_2
_symmetry_space_group_name_H-M    P1
_symmetry_Int_Tables_number       1
_symmetry_cell_setting            triclinic
loop_
_symmetry_equiv_pos_as_xyz
'x, y, z'
_cell_length_a     31.296156
_cell_length_b     31.305369
_cell_length_c     20.203111
_cell_angle_alpha  90.104184
_cell_angle_beta   89.891288
_cell_angle_gamma 90.074548
loop_
_atom_site_label
_atom_site_type_symbol
_atom_site_fract_x
_atom_site_fract_y
_atom_site_fract_z
_atom_type_partial_charge
In0 In 0.00704 0.6832 0.00105 0.0
O1 O 0.06354 0.72459 0.96964 0.0
O2 O 0.04665 0.72477 0.0715 0.0
C3 C 0.02156 0.63574 0.89098 0.0
C4 C 0.93487 0.7285 0.97919 0.0
C5 C 0.99212 0.62674 0.0995 0.0
O6 O 0.03389 0.6242 0.94749 0.0
O7 O 1.00404 0.67191 0.88974 0.0
O8 O 0.96322 0.64985 0.07508 0.0
O9 O 0.02898 0.63339 0.07631 0.0
C10 C 0.07101 0.739 0.02682 0.0
O11 O 0.93758 0.68879 0.96964 0.0
O12 O 0.96833 0.74554 0.00204 0.0
In13 In 0.32554 0.0092 0.25799 0.0
O14 O 0.28417 0.94855 0.25333 0.0
O15 O 0.28515 0.98939 0.16956 0.0
C16 C 0.38253 0.98823 0.35206 0.0
C17 C 0.2721 0.06409 0.3198 0.0
C18 C 0.38634 0.02875 0.16825 0.0
O19 O 0.36137 0.96022 0.32098 0.0
O20 O 0.37418 0.0263 0.33643 0.0
O21 O 0.36249 0.05707 0.1934 0.0
O22 O 0.37864 0.99119 0.18733 0.0
C23 C 0.27127 0.9554 0.19515 0.0
O24 O 0.28702 0.07159 0.26282 0.0
O25 O 0.28348 0.02894 0.34436 0.0
In26 In 0.99845 0.32715 0.50104 0.0
O27 O 0.05389 0.28698 0.54019 0.0
O28 O 0.04744 0.29325 0.43601 0.0
C29 C 0.99917 0.39289 0.58761 0.0
C30 C 0.93811 0.26716 0.5263 0.0
C31 C 0.98752 0.37935 0.39672 0.0
O32 O 0.03054 0.36774 0.58236 0.0
O33 O 0.96738 0.38328 0.5525 0.0
O34 O 0.95771 0.35652 0.41983 0.0
O35 O 0.02336 0.37422 0.42422 0.0
C36 C 0.0678 0.27703 0.48351 0.0
O37 O 0.95089 0.27599 0.46872 0.0
O38 O 0.95523 0.28909 0.5715 0.0
In39 In 0.68056 1.00042 0.75953 0.0
O40 O 0.69715 0.93017 0.76834 0.0
O41 O 0.73594 0.97391 0.82183 0.0
C42 C 0.62013 0.98507 0.6673 0.0
C43 C 0.73784 0.05109 0.6967 0.0
C44 C 0.62854 0.02392 0.8605 0.0
O45 O 0.64661 0.95707 0.68532 0.0
O46 O 0.62464 0.02097 0.6949 0.0
O47 O 0.64675 0.05098 0.82381 0.0
O48 O 0.63791 0.9857 0.84771 0.0
C49 C 0.72818 0.93543 0.80719 0.0
O50 O 0.72742 0.057 0.75642 0.0
O51 O 0.71998 0.0195 0.66957 0.0
H52 H 0.04943 0.57788 0.16842 0.0
H53 H 0.91374 0.59594 0.13466 0.0
H54 H 0.898 0.53288 0.20388 0.0
H55 H 0.04967 0.46431 0.16432 0.0
H56 H 0.08811 0.45835 0.22998 0.0
H57 H 0.08896 0.50542 0.17886 0.0
H58 H 0.08236 0.55347 0.283 0.0
H59 H 0.0821 0.50656 0.33449 0.0
H60 H 0.03906 0.54459 0.34036 0.0
H61 H 0.8972 0.46607 0.27239 0.0
H62 H 0.91089 0.40447 0.34552 0.0
H63 H 0.04693 0.43115 0.33744 0.0
C64 C 0.0164 0.56877 0.17613 0.0
C65 C 0.98278 0.59172 0.1462 0.0
C66 C 0.93997 0.57889 0.15742 0.0
C67 C 0.93072 0.543 0.19633 0.0
C68 C 0.96463 0.52057 0.2241 0.0
C69 C 0.00657 0.53329 0.21539 0.0
C70 C 0.03702 0.50402 0.25174 0.0
C71 C 0.06775 0.48171 0.20331 0.0
C72 C 0.06157 0.52863 0.3056 0.0
C73 C 0.00567 0.47263 0.28172 0.0
C74 C 0.9641 0.48257 0.26477 0.0
C75 C 0.92959 0.45807 0.28626 0.0
C76 C 0.9377 0.42301 0.32746 0.0
C77 C 0.97995 0.41302 0.34703 0.0
C78 C 0.01431 0.43793 0.32311 0.0
H79 H 0.42553 0.04377 0.43173 0.0
H80 H 0.41587 0.9094 0.38081 0.0
H81 H 0.47581 0.89346 0.45673 0.0
H82 H 0.53843 0.04904 0.44032 0.0
H83 H 0.53935 0.08541 0.50957 0.0
H84 H 0.49487 0.08579 0.45319 0.0
H85 H 0.4425 0.07346 0.5509 0.0
H86 H 0.48679 0.07336 0.60769 0.0
H87 H 0.45055 0.02859 0.60527 0.0
H88 H 0.53921 0.89321 0.53466 0.0
H89 H 0.59819 0.90796 0.61291 0.0
H90 H 0.56456 0.04239 0.61324 0.0
C91 C 0.43577 0.01091 0.43689 0.0
C92 C 0.41614 0.97777 0.40049 0.0
C93 C 0.43043 0.93522 0.40854 0.0
C94 C 0.46448 0.92591 0.45134 0.0
C95 C 0.48353 0.95951 0.48587 0.0
C96 C 0.46939 1.00109 0.4795 0.0
C97 C 0.4953 0.03152 0.52165 0.0
C98 C 0.51835 0.06489 0.4786 0.0
C99 C 0.4671 0.05298 0.57452 0.0
C100 C 0.52656 1.00067 0.55243 0.0
C101 C 0.5194 0.95928 0.53111 0.0
C102 C 0.54492 0.92545 0.55198 0.0
C103 C 0.57838 0.93414 0.5962 0.0
C104 C 0.58582 0.97628 0.61915 0.0
C105 C 0.55954 0.00983 0.59674 0.0
H106 H 0.05651 0.55531 0.88074 0.0
H107 H 0.98547 0.65078 0.77098 0.0
H108 H 0.97512 0.59942 0.67995 0.0
H109 H 0.10893 0.50603 0.73309 0.0
H110 H 0.10554 0.45299 0.76731 0.0
H111 H 0.1109 0.49849 0.82148 0.0
H112 H 0.04255 0.47511 0.88421 0.0
H113 H 0.03659 0.42994 0.82975 0.0
H114 H 0.99351 0.46766 0.83892 0.0
H115 H 0.96366 0.53611 0.60895 0.0
H116 H 0.95998 0.46616 0.55316 0.0
H117 H 0.04252 0.41161 0.70313 0.0
C118 C 0.03971 0.56567 0.83681 0.0
C119 C 0.0218 0.60705 0.83286 0.0
C120 C 0.99963 0.61934 0.77494 0.0
C121 C 0.99347 0.59035 0.72303 0.0
C122 C 0.01027 0.54941 0.72932 0.0
C123 C 0.03372 0.53721 0.78395 0.0
C124 C 0.04714 0.49072 0.77866 0.0
C125 C 0.09604 0.48684 0.77489 0.0
C126 C 0.02884 0.46432 0.83631 0.0
C127 C 0.02645 0.47849 0.71347 0.0
C128 C 1.00516 0.51291 0.68627 0.0
C129 C 0.98088 0.50911 0.62896 0.0
C130 C 0.97868 0.4692 0.59801 0.0
C131 C 1.00111 0.43372 0.62382 0.0
C132 C 0.02553 0.43846 0.68209 0.0
H133 H 0.44118 0.97172 0.11256 0.0
H134 H 0.41195 0.10706 0.1205 0.0
H135 H 0.47319 0.12177 0.04576 0.0
H136 H 0.5553 0.98211 0.11257 0.0
H137 H 0.56326 0.938 0.05644 0.0
H138 H 0.51745 0.93866 0.1105 0.0
H139 H 0.46714 0.93039 0.00942 0.0
H140 H 0.51279 0.92934 0.95514 0.0
H141 H 0.47096 0.96793 0.94209 0.0
H142 H 0.5379 0.12069 0.96809 0.0
H143 H 0.59806 0.10373 0.89249 0.0
H144 H 0.58378 0.96921 0.93891 0.0
C145 C 0.44753 1.00451 0.09861 0.0
C146 C 0.42182 0.03828 0.12219 0.0
C147 C 0.43126 0.08071 0.1028 0.0
C148 C 0.46601 0.08934 0.0606 0.0
C149 C 0.49093 0.05518 0.03858 0.0
C150 C 0.48193 0.01361 0.05693 0.0
C151 C 0.51293 0.98235 0.02616 0.0
C152 C 0.53876 0.95891 0.07962 0.0
C153 C 0.48955 0.95065 0.98049 0.0
C154 C 0.54078 0.01269 0.98715 0.0
C155 C 0.52783 0.0546 0.99491 0.0
C156 C 0.54838 0.08799 0.96199 0.0
C157 C 0.58256 0.0781 0.91935 0.0
C158 C 0.59569 0.03521 0.91015 0.0
C159 C 0.57474 1.00236 0.94528 0.0
H160 H 0.22105 0.89091 0.24538 0.0
H161 H 0.25857 0.95264 0.06207 0.0
H162 H 0.21336 0.90233 0.99915 0.0
H163 H 0.21607 0.78288 0.18258 0.0
H164 H 0.16932 0.76877 0.23001 0.0
H165 H 0.20578 0.80865 0.26087 0.0
H166 H 0.14358 0.86287 0.27052 0.0
H167 H 0.10692 0.82311 0.23993 0.0
H168 H 0.11122 0.87402 0.19888 0.0
H169 H 0.16549 0.84477 0.95584 0.0
H170 H 0.11313 0.78721 0.9354 0.0
H171 H 0.10317 0.76498 0.14686 0.0
C172 C 0.2198 0.89367 0.19199 0.0
C173 C 0.24343 0.92549 0.15847 0.0
C174 C 0.24066 0.9285 0.08868 0.0
C175 C 0.21522 0.89998 0.0525 0.0
C176 C 0.19236 0.86893 0.08691 0.0
C177 C 0.19397 0.86584 0.1551 0.0
C178 C 0.16482 0.83057 0.17995 0.0
C179 C 0.19055 0.79565 0.21544 0.0
C180 C 0.12954 0.84874 0.22497 0.0
C181 C 0.14668 0.81436 0.11506 0.0
C182 C 0.1634 0.83664 0.062 0.0
C183 C 0.15203 0.82719 0.99697 0.0
C184 C 0.12238 0.79437 0.98585 0.0
C185 C 0.10405 0.77176 0.03951 0.0
C186 C 0.11656 0.78186 0.1049 0.0
H187 H 0.22716 0.13241 0.27056 0.0
H188 H 0.25485 0.0637 0.4518 0.0
H189 H 0.20928 0.11377 0.51454 0.0
H190 H 0.22299 0.23914 0.34216 0.0
H191 H 0.17884 0.25591 0.29132 0.0
H192 H 0.21577 0.2163 0.26095 0.0
H193 H 0.15298 0.16391 0.24034 0.0
H194 H 0.1159 0.20339 0.27032 0.0
H195 H 0.11715 0.15109 0.30744 0.0
H196 H 0.1602 0.17057 0.55758 0.0
H197 H 0.10627 0.22691 0.57649 0.0
H198 H 0.10791 0.25697 0.36687 0.0
C199 C 0.22384 0.12819 0.32352 0.0
C200 C 0.24466 0.09437 0.35646 0.0
C201 C 0.23914 0.08942 0.42562 0.0
C202 C 0.2135 0.1178 0.46174 0.0
C203 C 0.19333 0.15079 0.42789 0.0
C204 C 0.19785 0.15593 0.36027 0.0
C205 C 0.17071 0.1926 0.33548 0.0
C206 C 0.19876 0.22809 0.30573 0.0
C207 C 0.1372 0.17679 0.28545 0.0
C208 C 0.15002 0.20698 0.39962 0.0
C209 C 0.16396 0.1828 0.45246 0.0
C210 C 0.14907 0.18978 0.51663 0.0
C211 C 0.11855 0.2219 0.52693 0.0
C212 C 0.10295 0.24626 0.4732 0.0
C213 C 0.11932 0.2389 0.40893 0.0
H214 H 0.78498 0.11851 0.74536 0.0
H215 H 0.75725 0.04792 0.5653 0.0
H216 H 0.80465 0.09608 0.50242 0.0
H217 H 0.789 0.22287 0.6715 0.0
H218 H 0.83271 0.2414 0.72198 0.0
H219 H 0.7966 0.20139 0.75337 0.0
H220 H 0.86041 0.15076 0.77554 0.0
H221 H 0.89673 0.19068 0.74445 0.0
H222 H 0.89658 0.13783 0.70891 0.0
H223 H 0.85368 0.15232 0.45845 0.0
H224 H 0.90404 0.21142 0.43695 0.0
H225 H 0.90165 0.24507 0.64547 0.0
C226 C 0.78899 0.11318 0.69274 0.0
C227 C 0.76739 0.07949 0.66017 0.0
C228 C 0.77351 0.07347 0.5913 0.0
C229 C 0.8003 0.10071 0.5551 0.0
C230 C 0.82094 0.13372 0.58851 0.0
C231 C 0.81588 0.13997 0.65581 0.0
C232 C 0.84222 0.17767 0.6796 0.0
C233 C 0.8134 0.21291 0.7083 0.0
C234 C 0.87599 0.16337 0.73011 0.0
C235 C 0.86275 0.19163 0.61511 0.0
C236 C 0.84984 0.16592 0.56319 0.0
C237 C 0.86413 0.17262 0.49871 0.0
C238 C 0.89266 0.20632 0.48698 0.0
C239 C 0.90678 0.2328 0.5395 0.0
C240 C 0.89145 0.22533 0.60435 0.0
H241 H 0.80403 0.93717 0.87619 0.0
H242 H 0.70734 0.85129 0.79827 0.0
H243 H 0.74737 0.78963 0.84145 0.0
H244 H 0.89308 0.87147 0.83542 0.0
H245 H 0.92319 0.88456 0.90869 0.0
H246 H 0.88554 0.92235 0.87573 0.0
H247 H 0.84686 0.9253 0.98916 0.0
H248 H 0.88433 0.88734 0.0224 0.0
H249 H 0.8278 0.87652 0.02627 0.0
H250 H 0.79841 0.73726 0.88882 0.0
H251 H 0.85959 0.69682 0.93284 0.0
H252 H 0.92449 0.8158 0.97916 0.0
C253 C 0.79117 0.90539 0.86881 0.0
C254 C 0.75251 0.89898 0.83411 0.0
C255 C 0.7369 0.85693 0.82469 0.0
C256 C 0.7593 0.8217 0.84929 0.0
C257 C 0.79734 0.829 0.88307 0.0
C258 C 0.81336 0.86971 0.89266 0.0
C259 C 0.85616 0.86834 0.92771 0.0
C260 C 0.89158 0.88782 0.88428 0.0
C261 C 0.85362 0.8907 0.99541 0.0
C262 C 0.86186 0.8205 0.93544 0.0
C263 C 0.82728 0.79852 0.90992 0.0
C264 C 0.82558 0.75408 0.90934 0.0
C265 C 0.86048 0.7314 0.9345 0.0
C266 C 0.8967 0.75315 0.95963 0.0
C267 C 0.89705 0.79832 0.96089 0.0
loop_
_geom_bond_atom_site_label_1
_geom_bond_atom_site_label_2
_geom_bond_distance
_geom_bond_site_symmetry_2
_ccdc_geom_bond_type
In0 O1 2.294 1_554 S
In0 O2 2.326 . S
In0 O6 2.266 1_554 S
In0 O7 2.326 1_454 S
In0 O8 2.266 1_455 S
In0 O9 2.326 . S
In0 O11 2.294 1_455 S
In0 O12 2.326 1_454 S
O1 In0 2.294 1_556 S
O1 C10 1.240 1_556 S
O2 In0 2.326 . S
O2 C10 1.252 . S
C3 O6 1.253 . S
C3 O7 1.259 1_455 S
C4 O11 1.240 1_556 S
C4 O12 1.252 . S
C5 O8 1.253 1_455 S
C5 O9 1.259 . S
O6 In0 2.266 1_556 S
O6 C3 1.253 . S
O7 In0 2.326 1_656 S
O7 C3 1.259 1_655 S
O8 In0 2.266 1_655 S
O8 C5 1.253 1_655 S
O9 In0 2.326 . S
O9 C5 1.259 . S
C10 O1 1.240 1_554 S
C10 O2 1.252 . S
O11 In0 2.294 1_655 S
O11 C4 1.240 1_554 S
O12 In0 2.326 1_656 S
O12 C4 1.252 . S
In13 O14 2.294 1_545 S
In13 O15 2.326 1_545 S
In13 O19 2.266 1_545 S
In13 O20 2.326 . S
In13 O21 2.266 . S
In13 O22 2.326 1_545 S
In13 O24 2.294 . S
In13 O25 2.326 . S
O14 In13 2.294 1_565 S
O14 C23 1.240 . S
O15 In13 2.326 1_565 S
O15 C23 1.252 . S
C16 O19 1.253 1_545 S
C16 O20 1.259 . S
C17 O24 1.240 . S
C17 O25 1.252 . S
C18 O21 1.253 . S
C18 O22 1.259 1_545 S
O19 In13 2.266 1_565 S
O19 C16 1.253 1_565 S
O20 In13 2.326 . S
O20 C16 1.259 . S
O21 In13 2.266 . S
O21 C18 1.253 . S
O22 In13 2.326 1_565 S
O22 C18 1.259 1_565 S
C23 O14 1.240 . S
C23 O15 1.252 . S
O24 In13 2.294 . S
O24 C17 1.240 . S
O25 In13 2.326 . S
O25 C17 1.252 . S
In26 O27 2.294 . S
In26 O28 2.326 . S
In26 O32 2.266 . S
In26 O33 2.326 1_455 S
In26 O34 2.266 1_455 S
In26 O35 2.326 . S
In26 O37 2.294 1_455 S
In26 O38 2.326 1_455 S
O27 In26 2.294 . S
O27 C36 1.240 . S
O28 In26 2.326 . S
O28 C36 1.252 . S
C29 O32 1.253 . S
C29 O33 1.259 1_455 S
C30 O37 1.240 . S
C30 O38 1.252 . S
C31 O34 1.253 1_455 S
C31 O35 1.259 . S
O32 In26 2.266 . S
O32 C29 1.253 . S
O33 In26 2.326 1_655 S
O33 C29 1.259 1_655 S
O34 In26 2.266 1_655 S
O34 C31 1.253 1_655 S
O35 In26 2.326 . S
O35 C31 1.259 . S
C36 O27 1.240 . S
C36 O28 1.252 . S
O37 In26 2.294 1_655 S
O37 C30 1.240 . S
O38 In26 2.326 1_655 S
O38 C30 1.252 . S
In39 O40 2.294 1_545 S
In39 O41 2.326 1_545 S
In39 O45 2.266 1_545 S
In39 O46 2.326 . S
In39 O47 2.266 . S
In39 O48 2.326 1_545 S
In39 O50 2.294 . S
In39 O51 2.326 . S
O40 In39 2.294 1_565 S
O40 C49 1.240 . S
O41 In39 2.326 1_565 S
O41 C49 1.252 . S
C42 O45 1.253 1_545 S
C42 O46 1.259 . S
C43 O50 1.240 . S
C43 O51 1.252 . S
C44 O47 1.253 . S
C44 O48 1.259 1_545 S
O45 In39 2.266 1_565 S
O45 C42 1.253 1_565 S
O46 In39 2.326 . S
O46 C42 1.259 . S
O47 In39 2.266 . S
O47 C44 1.253 . S
O48 In39 2.326 1_565 S
O48 C44 1.259 1_565 S
C49 O40 1.240 . S
C49 O41 1.252 . S
O50 In39 2.294 . S
O50 C43 1.240 . S
O51 In39 2.326 . S
O51 C43 1.252 . S
H52 C64 0.930 . S
H53 C66 0.930 . S
H54 C67 0.930 . S
H55 C71 0.959 . S
H56 C71 0.959 . S
H57 C71 0.961 . S
H58 C72 0.960 . S
H59 C72 0.961 . S
H60 C72 0.959 1_655 S
H61 C75 0.929 . S
H62 C76 0.931 . S
H63 C78 0.930 . S
C64 H52 0.930 . S
C64 C65 1.399 1_455 S
C64 C69 1.399 . S
C65 C64 1.399 1_655 S
C65 C66 1.376 . S
C66 H53 0.930 . S
C66 C65 1.376 . S
C66 C67 1.388 . S
C67 H54 0.930 . S
C67 C66 1.388 . S
C67 C68 1.390 . S
C68 C67 1.390 . S
C68 C69 1.394 1_655 S
C68 C74 1.465 . S
C69 C64 1.399 . S
C69 C68 1.394 1_455 S
C69 C70 1.516 . S
C70 C69 1.516 . S
C70 C71 1.502 . S
C70 C72 1.561 . S
C70 C73 1.526 . S
C71 H55 0.959 . S
C71 H56 0.959 . S
C71 H57 0.961 . S
C71 C70 1.502 . S
C72 H58 0.960 . S
C72 H59 0.961 . S
C72 H60 0.959 1_455 S
C72 C70 1.561 . S
C73 C70 1.526 . S
C73 C74 1.396 1_455 S
C73 C78 1.390 . S
C74 C68 1.465 . S
C74 C73 1.396 1_655 S
C74 C75 1.399 . S
C75 H61 0.929 . S
C75 C74 1.399 . S
C75 C76 1.385 . S
C76 H62 0.931 . S
C76 C75 1.385 . S
C76 C77 1.389 . S
C77 C76 1.389 . S
C77 C78 1.387 1_655 S
C78 H63 0.930 . S
C78 C73 1.390 . S
C78 C77 1.387 1_455 S
H79 C91 0.930 . S
H80 C93 0.930 . S
H81 C94 0.930 . S
H82 C98 0.959 . S
H83 C98 0.959 . S
H84 C98 0.961 . S
H85 C99 0.960 . S
H86 C99 0.961 . S
H87 C99 0.959 . S
H88 C102 0.929 . S
H89 C103 0.931 . S
H90 C105 0.930 . S
C91 H79 0.930 . S
C91 C92 1.399 1_545 S
C91 C96 1.399 . S
C92 C91 1.399 1_565 S
C92 C93 1.376 . S
C93 H80 0.930 . S
C93 C92 1.376 . S
C93 C94 1.388 . S
C94 H81 0.930 . S
C94 C93 1.388 . S
C94 C95 1.390 . S
C95 C94 1.390 . S
C95 C96 1.394 1_565 S
C95 C101 1.465 . S
C96 C91 1.399 . S
C96 C95 1.394 1_545 S
C96 C97 1.516 . S
C97 C96 1.516 . S
C97 C98 1.502 . S
C97 C99 1.561 . S
C97 C100 1.526 . S
C98 H82 0.959 . S
C98 H83 0.959 . S
C98 H84 0.961 . S
C98 C97 1.502 . S
C99 H85 0.960 . S
C99 H86 0.961 . S
C99 H87 0.959 . S
C99 C97 1.561 . S
C100 C97 1.526 . S
C100 C101 1.396 1_545 S
C100 C105 1.390 . S
C101 C95 1.465 . S
C101 C100 1.396 1_565 S
C101 C102 1.399 . S
C102 H88 0.929 . S
C102 C101 1.399 . S
C102 C103 1.385 . S
C103 H89 0.931 . S
C103 C102 1.385 . S
C103 C104 1.389 . S
C104 C103 1.389 . S
C104 C105 1.387 1_565 S
C105 H90 0.930 . S
C105 C100 1.390 . S
C105 C104 1.387 1_545 S
H106 C118 0.930 . S
H107 C120 0.930 . S
H108 C121 0.930 . S
H109 C125 0.959 . S
H110 C125 0.959 . S
H111 C125 0.961 . S
H112 C126 0.957 1_455 S
H113 C126 0.961 1_455 S
H114 C126 0.959 . S
H115 C129 0.929 . S
H116 C130 0.931 . S
H117 C132 0.930 . S
C118 H106 0.930 . S
C118 C119 1.399 1_455 S
C118 C123 1.399 . S
C119 C118 1.399 1_655 S
C119 C120 1.376 . S
C120 H107 0.930 . S
C120 C119 1.376 . S
C120 C121 1.388 . S
C121 H108 0.930 . S
C121 C120 1.388 . S
C121 C122 1.390 . S
C122 C121 1.390 . S
C122 C123 1.394 1_655 S
C122 C128 1.465 . S
C123 C118 1.399 . S
C123 C122 1.394 1_455 S
C123 C124 1.516 . S
C124 C123 1.516 . S
C124 C125 1.502 . S
C124 C126 1.561 1_455 S
C124 C127 1.526 . S
C125 H109 0.959 . S
C125 H110 0.959 . S
C125 H111 0.961 . S
C125 C124 1.502 . S
C126 H112 0.957 1_655 S
C126 H113 0.961 1_655 S
C126 H114 0.959 . S
C126 C124 1.561 1_655 S
C127 C124 1.526 . S
C127 C128 1.396 1_455 S
C127 C132 1.390 . S
C128 C122 1.465 . S
C128 C127 1.396 1_655 S
C128 C129 1.399 . S
C129 H115 0.929 . S
C129 C128 1.399 . S
C129 C130 1.385 . S
C130 H116 0.931 . S
C130 C129 1.385 . S
C130 C131 1.389 . S
C131 C130 1.389 . S
C131 C132 1.387 1_655 S
C132 H117 0.930 . S
C132 C127 1.390 . S
C132 C131 1.387 1_455 S
H133 C145 0.930 . S
H134 C147 0.930 . S
H135 C148 0.930 . S
H136 C152 0.959 . S
H137 C152 0.959 . S
H138 C152 0.961 . S
H139 C153 0.960 1_554 S
H140 C153 0.961 . S
H141 C153 0.959 . S
H142 C156 0.929 . S
H143 C157 0.931 . S
H144 C159 0.930 . S
C145 H133 0.930 . S
C145 C146 1.399 1_565 S
C145 C150 1.399 . S
C146 C145 1.399 1_545 S
C146 C147 1.376 . S
C147 H134 0.930 . S
C147 C146 1.376 . S
C147 C148 1.388 . S
C148 H135 0.930 . S
C148 C147 1.388 . S
C148 C149 1.390 . S
C149 C148 1.390 . S
C149 C150 1.394 1_545 S
C149 C155 1.465 1_554 S
C150 C145 1.399 . S
C150 C149 1.394 1_565 S
C150 C151 1.516 . S
C151 C150 1.516 . S
C151 C152 1.502 . S
C151 C153 1.561 1_554 S
C151 C154 1.526 1_554 S
C152 H136 0.959 . S
C152 H137 0.959 . S
C152 H138 0.961 . S
C152 C151 1.502 . S
C153 H139 0.960 1_556 S
C153 H140 0.961 . S
C153 H141 0.959 . S
C153 C151 1.561 1_556 S
C154 C151 1.526 1_556 S
C154 C155 1.396 1_565 S
C154 C159 1.390 . S
C155 C149 1.465 1_556 S
C155 C154 1.396 1_545 S
C155 C156 1.399 . S
C156 H142 0.929 . S
C156 C155 1.399 . S
C156 C157 1.385 . S
C157 H143 0.931 . S
C157 C156 1.385 . S
C157 C158 1.389 . S
C158 C157 1.389 . S
C158 C159 1.387 1_545 S
C159 H144 0.930 . S
C159 C154 1.390 . S
C159 C158 1.387 1_565 S
H160 C172 0.930 . S
H161 C174 0.930 . S
H162 C175 0.930 . S
H163 C179 0.959 . S
H164 C179 0.959 . S
H165 C179 0.961 . S
H166 C180 0.960 . S
H167 C180 0.961 . S
H168 C180 0.959 . S
H169 C183 0.929 . S
H170 C184 0.931 1_556 S
H171 C186 0.930 . S
C172 H160 0.930 . S
C172 C173 1.399 . S
C172 C177 1.399 . S
C173 C172 1.399 . S
C173 C174 1.376 . S
C174 H161 0.930 . S
C174 C173 1.376 . S
C174 C175 1.388 . S
C175 H162 0.930 . S
C175 C174 1.388 . S
C175 C176 1.390 . S
C176 C175 1.390 . S
C176 C177 1.394 . S
C176 C182 1.465 . S
C177 C172 1.399 . S
C177 C176 1.394 . S
C177 C178 1.516 . S
C178 C177 1.516 . S
C178 C179 1.502 . S
C178 C180 1.561 . S
C178 C181 1.526 . S
C179 H163 0.959 . S
C179 H164 0.959 . S
C179 H165 0.961 . S
C179 C178 1.502 . S
C180 H166 0.960 . S
C180 H167 0.961 . S
C180 H168 0.959 . S
C180 C178 1.561 . S
C181 C178 1.526 . S
C181 C182 1.396 . S
C181 C186 1.390 . S
C182 C176 1.465 . S
C182 C181 1.396 . S
C182 C183 1.399 . S
C183 H169 0.929 . S
C183 C182 1.399 . S
C183 C184 1.385 . S
C184 H170 0.931 1_554 S
C184 C183 1.385 . S
C184 C185 1.389 . S
C185 C184 1.389 . S
C185 C186 1.387 . S
C186 H171 0.930 . S
C186 C181 1.390 . S
C186 C185 1.387 . S
H187 C199 0.930 . S
H188 C201 0.930 . S
H189 C202 0.930 . S
H190 C206 0.959 . S
H191 C206 0.959 . S
H192 C206 0.961 . S
H193 C207 0.960 . S
H194 C207 0.961 . S
H195 C207 0.959 . S
H196 C210 0.929 . S
H197 C211 0.931 . S
H198 C213 0.930 . S
C199 H187 0.930 . S
C199 C200 1.399 . S
C199 C204 1.399 . S
C200 C199 1.399 . S
C200 C201 1.376 . S
C201 H188 0.930 . S
C201 C200 1.376 . S
C201 C202 1.388 . S
C202 H189 0.930 . S
C202 C201 1.388 . S
C202 C203 1.390 . S
C203 C202 1.390 . S
C203 C204 1.394 . S
C203 C209 1.465 . S
C204 C199 1.399 . S
C204 C203 1.394 . S
C204 C205 1.516 . S
C205 C204 1.516 . S
C205 C206 1.502 . S
C205 C207 1.561 . S
C205 C208 1.526 . S
C206 H190 0.959 . S
C206 H191 0.959 . S
C206 H192 0.961 . S
C206 C205 1.502 . S
C207 H193 0.960 . S
C207 H194 0.961 . S
C207 H195 0.959 . S
C207 C205 1.561 . S
C208 C205 1.526 . S
C208 C209 1.396 . S
C208 C213 1.390 . S
C209 C203 1.465 . S
C209 C208 1.396 . S
C209 C210 1.399 . S
C210 H196 0.929 . S
C210 C209 1.399 . S
C210 C211 1.385 . S
C211 H197 0.931 . S
C211 C210 1.385 . S
C211 C212 1.389 . S
C212 C211 1.389 . S
C212 C213 1.387 . S
C213 H198 0.930 . S
C213 C208 1.390 . S
C213 C212 1.387 . S
H214 C226 0.930 . S
H215 C228 0.930 . S
H216 C229 0.930 . S
H217 C233 0.959 . S
H218 C233 0.959 . S
H219 C233 0.961 . S
H220 C234 0.960 . S
H221 C234 0.961 . S
H222 C234 0.959 . S
H223 C237 0.929 . S
H224 C238 0.931 . S
H225 C240 0.930 . S
C226 H214 0.930 . S
C226 C227 1.399 . S
C226 C231 1.399 . S
C227 C226 1.399 . S
C227 C228 1.376 . S
C228 H215 0.930 . S
C228 C227 1.376 . S
C228 C229 1.388 . S
C229 H216 0.930 . S
C229 C228 1.388 . S
C229 C230 1.390 . S
C230 C229 1.390 . S
C230 C231 1.394 . S
C230 C236 1.465 . S
C231 C226 1.399 . S
C231 C230 1.394 . S
C231 C232 1.516 . S
C232 C231 1.516 . S
C232 C233 1.502 . S
C232 C234 1.561 . S
C232 C235 1.526 . S
C233 H217 0.959 . S
C233 H218 0.959 . S
C233 H219 0.961 . S
C233 C232 1.502 . S
C234 H220 0.960 . S
C234 H221 0.961 . S
C234 H222 0.959 . S
C234 C232 1.561 . S
C235 C232 1.526 . S
C235 C236 1.396 . S
C235 C240 1.390 . S
C236 C230 1.465 . S
C236 C235 1.396 . S
C236 C237 1.399 . S
C237 H223 0.929 . S
C237 C236 1.399 . S
C237 C238 1.385 . S
C238 H224 0.931 . S
C238 C237 1.385 . S
C238 C239 1.389 . S
C239 C238 1.389 . S
C239 C240 1.387 . S
C240 H225 0.930 . S
C240 C235 1.390 . S
C240 C239 1.387 . S
H241 C253 0.930 . S
H242 C255 0.930 . S
H243 C256 0.930 . S
H244 C260 0.959 . S
H245 C260 0.959 . S
H246 C260 0.961 . S
H247 C261 0.960 . S
H248 C261 0.961 1_554 S
H249 C261 0.959 1_554 S
H250 C264 0.929 . S
H251 C265 0.931 . S
H252 C267 0.930 . S
C253 H241 0.930 . S
C253 C254 1.399 . S
C253 C258 1.399 . S
C254 C253 1.399 . S
C254 C255 1.376 . S
C255 H242 0.930 . S
C255 C254 1.376 . S
C255 C256 1.388 . S
C256 H243 0.930 . S
C256 C255 1.388 . S
C256 C257 1.390 . S
C257 C256 1.390 . S
C257 C258 1.394 . S
C257 C263 1.465 . S
C258 C253 1.399 . S
C258 C257 1.394 . S
C258 C259 1.516 . S
C259 C258 1.516 . S
C259 C260 1.502 . S
C259 C261 1.561 . S
C259 C262 1.526 . S
C260 H244 0.959 . S
C260 H245 0.959 . S
C260 H246 0.961 . S
C260 C259 1.502 . S
C261 H247 0.960 . S
C261 H248 0.961 1_556 S
C261 H249 0.959 1_556 S
C261 C259 1.561 . S
C262 C259 1.526 . S
C262 C263 1.396 . S
C262 C267 1.390 . S
C263 C257 1.465 . S
C263 C262 1.396 . S
C263 C264 1.399 . S
C264 H250 0.929 . S
C264 C263 1.399 . S
C264 C265 1.385 . S
C265 H251 0.931 . S
C265 C264 1.385 . S
C265 C266 1.389 . S
C266 C265 1.389 . S
C266 C267 1.387 . S
C267 H252 0.930 . S
C267 C262 1.390 . S
C267 C266 1.387 . S
C65 C5 1.457 1_655 S
C77 C31 1.462 1_655 S
C92 C16 1.460 1_565 S
C104 C42 1.462 1_565 S
C119 C3 1.458 1_655 S
C131 C29 1.452 1_655 S
C146 C18 1.464 . S
C158 C44 1.457 . S
C173 C23 1.547 . S
C185 C10 1.550 . S
C200 C17 1.547 . S
C212 C36 1.546 . S
C227 C43 1.547 . S
C239 C30 1.550 . S
C254 C49 1.547 . S
C266 C4 1.551 . S
