# Generated by pormake.
# Topology umg, (4)-cn, num edge types: 1
# Building blocks:
#     Node 0, Type 0, BuildingBlock: ESEHIV_clean_sbu_0, # of connection points: 4
#     Node 1, Type 0, BuildingBlock: ESEHIV_clean_sbu_0, # of connection points: 4
#     Node 2, Type 0, BuildingBlock: ESEHIV_clean_sbu_0, # of connection points: 4
#     Node 3, Type 0, BuildingBlock: ESEHIV_clean_sbu_0, # of connection points: 4
#     Node 4, Type 0, BuildingBlock: ESEHIV_clean_sbu_0, # of connection points: 4
#     Node 5, Type 0, BuildingBlock: ESEHIV_clean_sbu_0, # of connection points: 4
#     Node 6, Type 0, BuildingBlock: ESEHIV_clean_sbu_0, # of connection points: 4
#     Node 7, Type 0, BuildingBlock: ESEHIV_clean_sbu_0, # of connection points: 4
#     Node 8, Type 0, BuildingBlock: ESEHIV_clean_sbu_0, # of connection points: 4
#     Node 9, Type 0, BuildingBlock: ESEHIV_clean_sbu_0, # of connection points: 4
#     Node 10, Type 0, BuildingBlock: ESEHIV_clean_sbu_0, # of connection points: 4
#     Node 11, Type 0, BuildingBlock: ESEHIV_clean_sbu_0, # of connection points: 4
#     Edge 12, Type (0, 0), BuildingBlock: ZUJKAS_clean_linker_0, # of connection points: 2
#     Edge 13, Type (0, 0), BuildingBlock: ZUJKAS_clean_linker_0, # of connection points: 2
#     Edge 14, Type (0, 0), BuildingBlock: ZUJKAS_clean_linker_0, # of connection points: 2
#     Edge 15, Type (0, 0), BuildingBlock: ZUJKAS_clean_linker_0, # of connection points: 2
#     Edge 16, Type (0, 0), BuildingBlock: ZUJKAS_clean_linker_0, # of connection points: 2
#     Edge 17, Type (0, 0), BuildingBlock: ZUJKAS_clean_linker_0, # of connection points: 2
#     Edge 18, Type (0, 0), BuildingBlock: ZUJKAS_clean_linker_0, # of connection points: 2
#     Edge 19, Type (0, 0), BuildingBlock: ZUJKAS_clean_linker_0, # of connection points: 2
#     Edge 20, Type (0, 0), BuildingBlock: ZUJKAS_clean_linker_0, # of connection points: 2
#     Edge 21, Type (0, 0), BuildingBlock: ZUJKAS_clean_linker_0, # of connection points: 2
#     Edge 22, Type (0, 0), BuildingBlock: ZUJKAS_clean_linker_0, # of connection points: 2
#     Edge 23, Type (0, 0), BuildingBlock: ZUJKAS_clean_linker_0, # of connection points: 2
#     Edge 24, Type (0, 0), BuildingBlock: ZUJKAS_clean_linker_0, # of connection points: 2
#     Edge 25, Type (0, 0), BuildingBlock: ZUJKAS_clean_linker_0, # of connection points: 2
#     Edge 26, Type (0, 0), BuildingBlock: ZUJKAS_clean_linker_0, # of connection points: 2
#     Edge 27, Type (0, 0), BuildingBlock: ZUJKAS_clean_linker_0, # of connection points: 2
#     Edge 28, Type (0, 0), BuildingBlock: ZUJKAS_clean_linker_0, # of connection points: 2
#     Edge 29, Type (0, 0), BuildingBlock: ZUJKAS_clean_linker_0, # of connection points: 2
#     Edge 30, Type (0, 0), BuildingBlock: ZUJKAS_clean_linker_0, # of connection points: 2
#     Edge 31, Type (0, 0), BuildingBlock: ZUJKAS_clean_linker_0, # of connection points: 2
#     Edge 32, Type (0, 0), BuildingBlock: ZUJKAS_clean_linker_0, # of connection points: 2
#     Edge 33, Type (0, 0), BuildingBlock: ZUJKAS_clean_linker_0, # of connection points: 2
#     Edge 34, Type (0, 0), BuildingBlock: ZUJKAS_clean_linker_0, # of connection points: 2
#     Edge 35, Type (0, 0), BuildingBlock: ZUJKAS_clean_linker_0, # of connection points: 2
# Relax obj value: 0.032
# Max RMSD: 0.100
# Mean RMSD: 0.081
data_MOF--net-umg--node1-ESEHIV_clean_sbu_0--edge1-ZUJKAS_clean_linker_0
_symmetry_space_group_name_H-M    P1
_symmetry_Int_Tables_number       1
_symmetry_cell_setting            triclinic
loop_
_symmetry_equiv_pos_as_xyz
'x, y, z'
_cell_length_a     37.451439
_cell_length_b     43.190142
_cell_length_c     115.31175
_cell_angle_alpha  90.050186
_cell_angle_beta   90.102211
_cell_angle_gamma 115.76532
loop_
_atom_site_label
_atom_site_type_symbol
_atom_site_fract_x
_atom_site_fract_y
_atom_site_fract_z
_atom_type_partial_charge
Cu0 Cu 0.318 0.5854 0.1042 0.0
N1 N 0.32956 0.61274 0.09095 0.0
N2 N 0.33631 0.62824 0.0723 0.0
C3 C 0.33026 0.6027 0.07993 0.0
C4 C 0.33964 0.65536 0.07882 0.0
C5 C 0.33542 0.6457 0.09031 0.0
O6 O 0.3454 0.55607 0.10241 0.0
C7 C 0.23717 0.5443 0.11282 0.0
O8 O 0.2523 0.53561 0.12183 0.0
H9 H 0.32502 0.57682 0.07754 0.0
H10 H 0.33577 0.66136 0.09767 0.0
N11 N 0.3399 0.61439 0.11697 0.0
N12 N 0.35089 0.63831 0.13463 0.0
C13 C 0.32456 0.61401 0.12758 0.0
C14 C 0.37703 0.63969 0.11735 0.0
C15 C 0.38387 0.65453 0.12818 0.0
C16 C 0.35956 0.54636 0.11098 0.0
O17 O 0.35017 0.55143 0.12156 0.0
H18 H 0.29485 0.59637 0.13009 0.0
H19 H 0.39792 0.64642 0.11026 0.0
O20 O 0.26003 0.56273 0.10485 0.0
H21 H 0.34463 0.68037 0.07553 0.0
H22 H 0.41142 0.67502 0.13118 0.0
Cu23 Cu 0.76551 0.27618 0.43412 0.0
N24 N 0.75045 0.22889 0.43457 0.0
N25 N 0.71173 0.1724 0.43578 0.0
C26 C 0.71546 0.20427 0.43821 0.0
C27 C 0.7458 0.1772 0.43045 0.0
C28 C 0.76954 0.21204 0.42969 0.0
O29 O 0.74799 0.28981 0.44823 0.0
C30 C 0.74388 0.31261 0.41642 0.0
O31 O 0.75726 0.33941 0.42337 0.0
H32 H 0.69227 0.2096 0.44194 0.0
H33 H 0.798 0.22426 0.42543 0.0
N34 N 0.82077 0.30012 0.43392 0.0
N35 N 0.88133 0.34396 0.43325 0.0
C36 C 0.84249 0.33304 0.43072 0.0
C37 C 0.84677 0.28986 0.43862 0.0
C38 C 0.88414 0.3168 0.4382 0.0
C39 C 0.71247 0.28256 0.45109 0.0
O40 O 0.68361 0.26655 0.44366 0.0
H41 H 0.82985 0.34931 0.42723 0.0
H42 H 0.83885 0.26501 0.44255 0.0
O43 O 0.7438 0.28457 0.4198 0.0
H44 H 0.75265 0.15703 0.42706 0.0
H45 H 0.91108 0.31667 0.44155 0.0
Cu46 Cu 0.50193 0.75424 0.74807 0.0
N47 N 0.5355 0.73263 0.74823 0.0
N48 N 0.55392 0.69004 0.74982 0.0
C49 C 0.52683 0.70147 0.75277 0.0
C50 C 0.58075 0.71516 0.74321 0.0
C51 C 0.56915 0.74125 0.74218 0.0
O52 O 0.46809 0.73862 0.76167 0.0
C53 C 0.44718 0.74978 0.72971 0.0
O54 O 0.43412 0.76699 0.73651 0.0
H55 H 0.49969 0.6865 0.75744 0.0
H56 H 0.58305 0.76396 0.73686 0.0
N57 N 0.5312 0.80215 0.74867 0.0
N58 N 0.54566 0.85814 0.74935 0.0
C59 C 0.51665 0.82573 0.74853 0.0
C60 C 0.57073 0.82028 0.74976 0.0
C61 C 0.57975 0.85477 0.75013 0.0
C62 C 0.4843 0.75088 0.77139 0.0
O63 O 0.52161 0.77369 0.77155 0.0
H64 H 0.48542 0.81922 0.74785 0.0
H65 H 0.59159 0.80926 0.75051 0.0
O66 O 0.47374 0.74133 0.73339 0.0
H67 H 0.60612 0.71424 0.73904 0.0
H68 H 0.60906 0.87564 0.75117 0.0
Cu69 Cu 0.74626 0.43978 0.10659 0.0
N70 N 0.74563 0.41914 0.09223 0.0
N71 N 0.74454 0.40796 0.07325 0.0
C72 C 0.7347 0.42494 0.08158 0.0
C73 C 0.76173 0.3906 0.07889 0.0
C74 C 0.76234 0.39753 0.09054 0.0
O75 O 0.70981 0.4613 0.10714 0.0
C76 C 0.82795 0.48393 0.10285 0.0
O77 O 0.81648 0.48473 0.09213 0.0
H78 H 0.72165 0.44241 0.07988 0.0
H79 H 0.77544 0.38849 0.09732 0.0
N80 N 0.72742 0.4051 0.11773 0.0
N81 N 0.713 0.37857 0.13492 0.0
C82 C 0.7324 0.40879 0.12931 0.0
C83 C 0.70416 0.3715 0.11593 0.0
C84 C 0.69527 0.35506 0.1265 0.0
C85 C 0.70672 0.48305 0.10025 0.0
O86 O 0.73241 0.49602 0.0918 0.0
H87 H 0.74908 0.43333 0.13352 0.0
H88 H 0.69401 0.35986 0.10752 0.0
O89 O 0.80176 0.46889 0.11057 0.0
H90 H 0.77374 0.37454 0.07485 0.0
H91 H 0.67727 0.32786 0.12784 0.0
Cu92 Cu 0.29822 0.75872 0.43267 0.0
N93 N 0.3137 0.80607 0.43314 0.0
N94 N 0.35259 0.8625 0.43459 0.0
C95 C 0.34859 0.83053 0.43697 0.0
C96 C 0.31881 0.85792 0.42909 0.0
C97 C 0.29495 0.82312 0.42819 0.0
O98 O 0.3163 0.74511 0.44669 0.0
C99 C 0.31893 0.72154 0.41509 0.0
O100 O 0.30617 0.69523 0.42221 0.0
H101 H 0.3715 0.82502 0.44084 0.0
H102 H 0.26662 0.81105 0.42381 0.0
N103 N 0.24293 0.73507 0.43265 0.0
N104 N 0.18223 0.69141 0.43223 0.0
C105 C 0.2209 0.70202 0.42961 0.0
C106 C 0.21731 0.74575 0.43733 0.0
C107 C 0.17984 0.7189 0.43707 0.0
C108 C 0.35193 0.75214 0.44938 0.0
O109 O 0.38036 0.76792 0.44185 0.0
H110 H 0.23325 0.68547 0.42618 0.0
H111 H 0.22557 0.77083 0.44114 0.0
O112 O 0.31898 0.74973 0.41831 0.0
H113 H 0.31219 0.87821 0.4257 0.0
H114 H 0.15313 0.71933 0.44046 0.0
Cu115 Cu 0.5544 0.27863 0.74973 0.0
N116 N 0.52146 0.3009 0.74926 0.0
N117 N 0.50305 0.34364 0.75023 0.0
C118 C 0.52922 0.33187 0.75386 0.0
C119 C 0.47772 0.31894 0.74314 0.0
C120 C 0.48932 0.29278 0.7425 0.0
O121 O 0.58483 0.29133 0.76403 0.0
C122 C 0.61121 0.28254 0.73204 0.0
O123 O 0.62221 0.2639 0.73885 0.0
H124 H 0.55513 0.34654 0.75908 0.0
H125 H 0.47658 0.27037 0.73696 0.0
N126 N 0.52404 0.2309 0.7499 0.0
N127 N 0.50831 0.17461 0.75036 0.0
C128 C 0.53787 0.20685 0.74985 0.0
C129 C 0.48436 0.21331 0.7506 0.0
C130 C 0.47457 0.17866 0.75083 0.0
C131 C 0.61317 0.32049 0.7663 0.0
O132 O 0.6263 0.34404 0.75816 0.0
H133 H 0.56906 0.21294 0.7498 0.0
H134 H 0.46388 0.22478 0.75109 0.0
O135 O 0.58529 0.292 0.73553 0.0
H136 H 0.45349 0.32022 0.73837 0.0
H137 H 0.44484 0.15812 0.75127 0.0
Cu138 Cu 0.49839 0.75244 0.58802 0.0
N139 N 0.5295 0.79987 0.58904 0.0
N140 N 0.54767 0.85649 0.58846 0.0
C141 C 0.52 0.82496 0.58538 0.0
C142 C 0.57585 0.85095 0.59418 0.0
C143 C 0.56448 0.81602 0.59455 0.0
O144 O 0.46965 0.74146 0.5734 0.0
C145 C 0.45029 0.75462 0.60685 0.0
O146 O 0.45247 0.78267 0.60184 0.0
H147 H 0.4929 0.82012 0.58079 0.0
H148 H 0.57996 0.8032 0.59888 0.0
N149 N 0.53111 0.73005 0.58767 0.0
N150 N 0.54988 0.68756 0.58835 0.0
C151 C 0.52119 0.69742 0.59095 0.0
C152 C 0.5673 0.7413 0.58288 0.0
C153 C 0.57899 0.71514 0.58329 0.0
C154 C 0.44124 0.74841 0.57042 0.0
O155 O 0.42661 0.76262 0.57795 0.0
H156 H 0.49269 0.68076 0.59463 0.0
H157 H 0.58344 0.76637 0.57901 0.0
O158 O 0.46568 0.73703 0.60186 0.0
H159 H 0.60193 0.87055 0.59826 0.0
H160 H 0.60646 0.71615 0.57995 0.0
Cu161 Cu 0.74774 0.44074 0.91681 0.0
N162 N 0.73612 0.41483 0.93052 0.0
N163 N 0.72439 0.40048 0.94925 0.0
C164 C 0.73528 0.42611 0.94138 0.0
C165 C 0.71748 0.37187 0.94308 0.0
C166 C 0.72464 0.38078 0.93155 0.0
O167 O 0.80481 0.47088 0.9158 0.0
C168 C 0.70742 0.48125 0.90864 0.0
O169 O 0.73024 0.48898 0.89943 0.0
H170 H 0.74211 0.45254 0.94347 0.0
H171 H 0.72137 0.36347 0.92443 0.0
N172 N 0.73731 0.41097 0.90411 0.0
N173 N 0.72187 0.38791 0.88633 0.0
C174 C 0.71764 0.40951 0.89415 0.0
C175 C 0.75454 0.38972 0.90251 0.0
C176 C 0.74495 0.37536 0.89164 0.0
C177 C 0.829 0.48092 0.92431 0.0
O178 O 0.81515 0.47561 0.93493 0.0
H179 H 0.70151 0.42462 0.89255 0.0
H180 H 0.77433 0.38622 0.90866 0.0
O181 O 0.71242 0.4633 0.91667 0.0
H182 H 0.70854 0.34644 0.94667 0.0
H183 H 0.75605 0.35847 0.88775 0.0
Cu184 Cu 0.31043 0.7513 0.27369 0.0
N185 N 0.25576 0.72856 0.27582 0.0
N186 N 0.19445 0.68591 0.27617 0.0
C187 C 0.23202 0.69629 0.2724 0.0
C188 C 0.19465 0.71292 0.28213 0.0
C189 C 0.23257 0.73913 0.28194 0.0
O190 O 0.32336 0.73325 0.25964 0.0
C191 C 0.32446 0.71536 0.29233 0.0
O192 O 0.29938 0.68795 0.28677 0.0
H193 H 0.24246 0.68058 0.26744 0.0
H194 H 0.24283 0.76373 0.28627 0.0
N195 N 0.32606 0.79836 0.27185 0.0
N196 N 0.36448 0.85488 0.27074 0.0
C197 C 0.36295 0.82371 0.27315 0.0
C198 C 0.30345 0.81397 0.26856 0.0
C199 C 0.32707 0.84882 0.26785 0.0
C200 C 0.30844 0.73813 0.25028 0.0
O201 O 0.28633 0.7548 0.25078 0.0
H202 H 0.38827 0.81923 0.27553 0.0
H203 H 0.27207 0.80086 0.26668 0.0
O204 O 0.33521 0.74476 0.28768 0.0
H205 H 0.16966 0.71325 0.28673 0.0
H206 H 0.31738 0.86817 0.26543 0.0
Cu207 Cu 0.57004 0.28147 0.5899 0.0
N208 N 0.53965 0.2339 0.59067 0.0
N209 N 0.52276 0.1775 0.58985 0.0
C210 C 0.54973 0.20933 0.58683 0.0
C211 C 0.49439 0.18232 0.5957 0.0
C212 C 0.50497 0.2171 0.59623 0.0
O213 O 0.59932 0.2932 0.57541 0.0
C214 C 0.61711 0.27924 0.60906 0.0
O215 O 0.61548 0.25137 0.60403 0.0
H216 H 0.57682 0.21477 0.58217 0.0
H217 H 0.48923 0.2294 0.60071 0.0
N218 N 0.53668 0.30323 0.58945 0.0
N219 N 0.51732 0.34539 0.58984 0.0
C220 C 0.5464 0.33603 0.59249 0.0
C221 C 0.50022 0.29135 0.58474 0.0
C222 C 0.48817 0.31731 0.58498 0.0
C223 C 0.62791 0.28653 0.57242 0.0
O224 O 0.6426 0.27222 0.57991 0.0
H225 H 0.57503 0.35316 0.59602 0.0
H226 H 0.48415 0.26598 0.58104 0.0
O227 O 0.60199 0.29686 0.60394 0.0
H228 H 0.46879 0.16232 0.5998 0.0
H229 H 0.46044 0.31581 0.58164 0.0
Cu230 Cu 0.32124 0.58609 0.91578 0.0
N231 N 0.34395 0.60975 0.92943 0.0
N232 N 0.35661 0.62323 0.94819 0.0
C233 C 0.33031 0.60211 0.94037 0.0
C234 C 0.38771 0.64504 0.94188 0.0
C235 C 0.37981 0.63664 0.93034 0.0
O236 O 0.26396 0.56087 0.91799 0.0
C237 C 0.36062 0.54361 0.91938 0.0
O238 O 0.34791 0.54221 0.93006 0.0
H239 H 0.30247 0.58065 0.94257 0.0
H240 H 0.3992 0.64877 0.92311 0.0
N241 N 0.33036 0.61846 0.90407 0.0
N242 N 0.34322 0.64435 0.88674 0.0
C243 C 0.33801 0.61584 0.8928 0.0
C244 C 0.33075 0.64954 0.90526 0.0
C245 C 0.33873 0.66559 0.89463 0.0
C246 C 0.23981 0.55169 0.90947 0.0
O247 O 0.25394 0.55549 0.89888 0.0
H248 H 0.33927 0.59326 0.88915 0.0
H249 H 0.32585 0.65988 0.91333 0.0
O250 O 0.34943 0.55871 0.91169 0.0
H251 H 0.41442 0.66549 0.94536 0.0
H252 H 0.34168 0.69122 0.89295 0.0
Cu253 Cu 0.75398 0.28645 0.27376 0.0
N254 N 0.80884 0.30827 0.27541 0.0
N255 N 0.87071 0.35 0.2758 0.0
C256 C 0.8323 0.3417 0.27341 0.0
C257 C 0.87131 0.32047 0.27939 0.0
C258 C 0.83305 0.29479 0.27917 0.0
O259 O 0.74035 0.30835 0.26091 0.0
C260 C 0.73895 0.31858 0.29328 0.0
O261 O 0.76008 0.34694 0.28753 0.0
H262 H 0.82126 0.35951 0.27026 0.0
H263 H 0.82344 0.26827 0.28172 0.0
N264 N 0.73837 0.24035 0.27006 0.0
N265 N 0.7014 0.18378 0.2682 0.0
C266 C 0.70502 0.21311 0.27336 0.0
C267 C 0.7566 0.2279 0.26264 0.0
C268 C 0.73388 0.19301 0.26147 0.0
C269 C 0.70856 0.2933 0.25506 0.0
O270 O 0.68155 0.26337 0.2586 0.0
H271 H 0.68305 0.21508 0.27901 0.0
H272 H 0.78402 0.24332 0.25819 0.0
O273 O 0.7309 0.28972 0.28851 0.0
H274 H 0.89733 0.31777 0.28228 0.0
H275 H 0.74057 0.17586 0.25599 0.0
H276 H 0.41665 0.64158 0.96373 0.0
H277 H 0.41158 0.6401 0.98485 0.0
H278 H 0.28446 0.60063 0.98218 0.0
H279 H 0.28938 0.60168 0.96098 0.0
H280 H 0.38412 0.67426 0.9989 0.0
H281 H 0.29502 0.53405 1.00498 0.0
H282 H 0.31806 0.55237 0.99134 0.0
H283 H 0.27211 0.55305 0.99547 0.0
C284 C 0.3876 0.63264 0.96762 0.0
C285 C 0.3534 0.62177 0.96067 0.0
C286 C 0.38473 0.63166 0.97971 0.0
C287 C 0.34761 0.61982 0.98513 0.0
C288 C 0.31335 0.60906 0.97821 0.0
H289 H 0.31479 0.66444 0.05689 0.0
H290 H 0.31714 0.66208 0.03575 0.0
C291 C 0.31619 0.60977 0.9661 0.0
C292 C 0.34521 0.62012 0.99799 0.0
H293 H 0.30431 0.56937 0.02162 0.0
C294 C 0.36674 0.65128 1.00386 0.0
C295 C 0.32297 0.59006 1.00449 0.0
C296 C 0.30104 0.55541 0.99877 0.0
C297 C 0.36638 0.65332 0.01601 0.0
C298 C 0.34304 0.62354 0.02249 0.0
C299 C 0.32186 0.59226 0.01664 0.0
C300 C 0.34058 0.62428 0.03534 0.0
C301 C 0.39174 0.68725 0.02178 0.0
C302 C 0.35173 0.603 0.04217 0.0
C303 C 0.35014 0.60413 0.05428 0.0
C304 C 0.33737 0.62659 0.05981 0.0
C305 C 0.32559 0.64743 0.05293 0.0
C306 C 0.32693 0.64611 0.04083 0.0
H307 H 0.41598 0.70437 0.016 0.0
H308 H 0.37308 0.70058 0.02392 0.0
H309 H 0.40508 0.68342 0.02995 0.0
H310 H 0.36223 0.58586 0.03812 0.0
H311 H 0.35961 0.5879 0.05932 0.0
H312 H 0.75604 0.37125 0.40441 0.0
H313 H 0.74627 0.37629 0.38359 0.0
H314 H 0.69984 0.26628 0.37991 0.0
H315 H 0.70914 0.26095 0.40062 0.0
H316 H 0.7835 0.35545 0.36639 0.0
H317 H 0.62046 0.28756 0.36118 0.0
H318 H 0.64403 0.3028 0.37507 0.0
H319 H 0.64074 0.26313 0.36911 0.0
C320 C 0.74297 0.34807 0.39921 0.0
C321 C 0.73344 0.3157 0.40419 0.0
C322 C 0.7375 0.35101 0.38731 0.0
C323 C 0.72189 0.32163 0.38021 0.0
C324 C 0.71115 0.28924 0.38523 0.0
H325 H 0.7051 0.26516 0.30856 0.0
H326 H 0.69868 0.26871 0.32955 0.0
C327 C 0.71678 0.28629 0.39709 0.0
C328 C 0.72042 0.32483 0.36741 0.0
H329 H 0.65903 0.29564 0.34389 0.0
C330 C 0.75621 0.34288 0.36147 0.0
C331 C 0.68482 0.30819 0.361 0.0
C332 C 0.64527 0.28959 0.36692 0.0
C333 C 0.75768 0.34348 0.34929 0.0
C334 C 0.72218 0.32618 0.34287 0.0
C335 C 0.6862 0.30889 0.34881 0.0
C336 C 0.72229 0.32418 0.33 0.0
C337 C 0.79751 0.36126 0.34344 0.0
C338 C 0.73641 0.35409 0.32321 0.0
C339 C 0.74032 0.35218 0.31119 0.0
C340 C 0.72983 0.32026 0.30572 0.0
C341 C 0.7136 0.29019 0.31248 0.0
C342 C 0.70988 0.29216 0.3245 0.0
H343 H 0.82239 0.36619 0.34955 0.0
H344 H 0.79989 0.34568 0.33608 0.0
H345 H 0.80101 0.38639 0.33999 0.0
H346 H 0.74531 0.37902 0.32724 0.0
H347 H 0.7526 0.37582 0.30625 0.0
H348 H 0.46506 0.71163 0.71384 0.0
H349 H 0.45256 0.70777 0.69297 0.0
H350 H 0.38974 0.77048 0.69655 0.0
H351 H 0.40227 0.77469 0.7175 0.0
H352 H 0.37982 0.68565 0.67928 0.0
H353 H 0.48301 0.82412 0.67389 0.0
H354 H 0.4819 0.8006 0.68693 0.0
H355 H 0.44362 0.81413 0.68422 0.0
C356 C 0.44815 0.7243 0.71024 0.0
C357 C 0.43501 0.74379 0.71734 0.0
C358 C 0.44096 0.72197 0.6983 0.0
C359 C 0.4207 0.73921 0.6932 0.0
C360 C 0.40586 0.75733 0.70031 0.0
H361 H 0.41336 0.78526 0.61978 0.0
H362 H 0.39888 0.77842 0.64054 0.0
C363 C 0.41291 0.75958 0.71228 0.0
C364 C 0.41759 0.73995 0.68039 0.0
H365 H 0.45378 0.79293 0.65704 0.0
C366 C 0.39569 0.70912 0.67439 0.0
C367 C 0.43834 0.77061 0.67406 0.0
C368 C 0.46332 0.80427 0.68004 0.0
C369 C 0.39416 0.70811 0.6622 0.0
C370 C 0.4159 0.73862 0.65585 0.0
C371 C 0.43702 0.76956 0.66189 0.0
C372 C 0.41922 0.73901 0.64299 0.0
C373 C 0.36911 0.67443 0.65626 0.0
C374 C 0.43481 0.7187 0.63739 0.0
C375 C 0.44283 0.72236 0.62549 0.0
C376 C 0.43599 0.74681 0.61898 0.0
C377 C 0.41904 0.76622 0.62453 0.0
C378 C 0.41078 0.76237 0.63641 0.0
H379 H 0.34471 0.65718 0.66197 0.0
H380 H 0.35609 0.67845 0.64807 0.0
H381 H 0.38789 0.66117 0.65418 0.0
H382 H 0.44251 0.70111 0.6423 0.0
H383 H 0.45614 0.70716 0.62152 0.0
H384 H 0.79609 0.407 0.0571 0.0
H385 H 0.78964 0.40845 0.03608 0.0
H386 H 0.67825 0.41436 0.04014 0.0
H387 H 0.68529 0.41384 0.06132 0.0
H388 H 0.73568 0.36354 0.02249 0.0
H389 H 0.73172 0.4895 0.01689 0.0
H390 H 0.74537 0.47661 0.03043 0.0
H391 H 0.69399 0.46097 0.02643 0.0
C392 C 0.77025 0.40868 0.05353 0.0
C393 C 0.74108 0.41013 0.06086 0.0
C394 C 0.76664 0.40963 0.0415 0.0
C395 C 0.73365 0.41184 0.03648 0.0
C396 C 0.70446 0.41347 0.04378 0.0
H397 H 0.67337 0.35284 0.96384 0.0
H398 H 0.67272 0.35582 0.98504 0.0
C399 C 0.70836 0.413 0.05587 0.0
C400 C 0.72935 0.41068 0.02362 0.0
H401 H 0.71792 0.45395 1.00016 0.0
C402 C 0.73183 0.38337 0.01762 0.0
C403 C 0.72478 0.43672 0.01722 0.0
C404 C 0.7242 0.46779 0.02305 0.0
C405 C 0.73016 0.38141 1.00546 0.0
C406 C 0.72441 0.40688 0.99907 0.0
C407 C 0.72186 0.43422 1.00505 0.0
C408 C 0.72242 0.40616 0.98617 0.0
C409 C 0.73597 0.35265 0.99961 0.0
C410 C 0.74922 0.43413 0.9797 0.0
C411 C 0.74916 0.43268 0.96757 0.0
C412 C 0.72244 0.40313 0.96168 0.0
C413 C 0.69479 0.37564 0.96816 0.0
C414 C 0.69449 0.3773 0.98027 0.0
H415 H 0.75131 0.34167 1.00539 0.0
H416 H 0.7066 0.33167 0.99735 0.0
H417 H 0.75351 0.36164 0.99152 0.0
H418 H 0.77095 0.45675 0.98404 0.0
H419 H 0.77093 0.45417 0.96281 0.0
H420 H 0.36623 0.76776 0.30742 0.0
H421 H 0.37369 0.76364 0.3283 0.0
H422 H 0.31299 0.65305 0.32612 0.0
H423 H 0.3046 0.65696 0.30522 0.0
H424 H 0.28083 0.67782 0.34228 0.0
H425 H 0.44327 0.73732 0.34876 0.0
H426 H 0.42757 0.76457 0.34062 0.0
H427 H 0.42072 0.72378 0.33467 0.0
C428 C 0.35518 0.74249 0.31132 0.0
C429 C 0.33468 0.71268 0.30462 0.0
C430 C 0.35972 0.74017 0.32328 0.0
C431 C 0.34435 0.70801 0.3288 0.0
C432 C 0.32527 0.67815 0.32206 0.0
H433 H 0.30774 0.66232 0.40354 0.0
H434 H 0.31683 0.6559 0.38276 0.0
C435 C 0.32055 0.68044 0.31009 0.0
C436 C 0.34444 0.70582 0.34167 0.0
H437 H 0.40389 0.73426 0.36562 0.0
C438 C 0.30782 0.6896 0.34738 0.0
C439 C 0.37963 0.72127 0.34834 0.0
C440 C 0.42004 0.7374 0.34278 0.0
C441 C 0.30525 0.68979 0.35953 0.0
C442 C 0.34031 0.70629 0.36617 0.0
C443 C 0.37705 0.72164 0.36051 0.0
C444 C 0.33893 0.71011 0.37893 0.0
C445 C 0.26488 0.67375 0.36514 0.0
C446 C 0.34971 0.74282 0.38372 0.0
C447 C 0.34461 0.74659 0.39555 0.0
C448 C 0.32881 0.7177 0.40287 0.0
C449 C 0.31987 0.68509 0.39815 0.0
C450 C 0.32485 0.68134 0.38627 0.0
H451 H 0.24055 0.66746 0.35872 0.0
H452 H 0.26079 0.64959 0.36954 0.0
H453 H 0.26227 0.69126 0.37179 0.0
H454 H 0.36074 0.76537 0.37822 0.0
H455 H 0.35206 0.77211 0.3989 0.0
H456 H 0.59693 0.32271 0.71612 0.0
H457 H 0.61058 0.3266 0.69533 0.0
H458 H 0.6687 0.26023 0.69923 0.0
H459 H 0.65493 0.25593 0.72009 0.0
H460 H 0.68285 0.3467 0.68201 0.0
H461 H 0.57659 0.20929 0.67601 0.0
H462 H 0.57819 0.23278 0.6891 0.0
H463 H 0.6154 0.21794 0.68648 0.0
C464 C 0.61307 0.30924 0.71261 0.0
C465 C 0.62447 0.28869 0.71978 0.0
C466 C 0.62092 0.31158 0.70071 0.0
C467 C 0.64011 0.29331 0.69571 0.0
C468 C 0.65334 0.27416 0.7029 0.0
H469 H 0.65193 0.24764 0.62243 0.0
H470 H 0.66447 0.25399 0.64331 0.0
C471 C 0.64561 0.27188 0.71484 0.0
C472 C 0.64381 0.29265 0.68291 0.0
H473 H 0.60798 0.24015 0.65935 0.0
C474 C 0.66675 0.32338 0.67703 0.0
C475 C 0.62274 0.26219 0.67645 0.0
C476 C 0.59657 0.22866 0.68228 0.0
C477 C 0.66907 0.32449 0.66485 0.0
C478 C 0.64713 0.29421 0.65838 0.0
C479 C 0.6249 0.26335 0.66429 0.0
C480 C 0.64489 0.29397 0.64549 0.0
C481 C 0.69519 0.35805 0.65906 0.0
C482 C 0.63036 0.31475 0.63968 0.0
C483 C 0.62341 0.31135 0.62771 0.0
C484 C 0.63032 0.28673 0.62132 0.0
C485 C 0.64623 0.26684 0.62708 0.0
C486 C 0.65338 0.2704 0.63903 0.0
H487 H 0.71927 0.37502 0.66495 0.0
H488 H 0.70869 0.35377 0.65101 0.0
H489 H 0.67706 0.37174 0.65673 0.0
H490 H 0.62266 0.33255 0.64448 0.0
H491 H 0.61089 0.32693 0.62358 0.0
H492 H 0.29018 0.75384 0.22894 0.0
H493 H 0.29727 0.73114 0.21022 0.0
H494 H 0.3467 0.66925 0.22696 0.0
H495 H 0.34045 0.69262 0.2459 0.0
H496 H 0.38762 0.70047 0.20742 0.0
H497 H 0.22735 0.63696 0.19742 0.0
H498 H 0.24365 0.68159 0.20079 0.0
H499 H 0.24606 0.65279 0.21173 0.0
C500 C 0.3025 0.73534 0.2287 0.0
C501 C 0.31444 0.72482 0.23895 0.0
C502 C 0.30627 0.72218 0.21796 0.0
C503 C 0.32151 0.69779 0.21719 0.0
C504 C 0.33443 0.68778 0.22737 0.0
H505 H 0.30297 0.59285 0.15053 0.0
H506 H 0.29646 0.60409 0.17106 0.0
C507 C 0.33091 0.70117 0.23817 0.0
C508 C 0.32466 0.68365 0.20568 0.0
H509 H 0.27135 0.64713 0.18121 0.0
C510 C 0.36213 0.6884 0.20174 0.0
C511 C 0.29129 0.66724 0.19834 0.0
C512 C 0.24978 0.659 0.20234 0.0
C513 C 0.36741 0.67877 0.19046 0.0
C514 C 0.33448 0.66475 0.18283 0.0
C515 C 0.29672 0.6584 0.18698 0.0
C516 C 0.33874 0.65768 0.17041 0.0
C517 C 0.40825 0.68378 0.18683 0.0
C518 C 0.36398 0.68419 0.16314 0.0
C519 C 0.36771 0.67784 0.15143 0.0
C520 C 0.34591 0.64492 0.14666 0.0
C521 C 0.31995 0.61854 0.15389 0.0
C522 C 0.31639 0.62489 0.16565 0.0
H523 H 0.42647 0.68378 0.19445 0.0
H524 H 0.40672 0.66336 0.18072 0.0
H525 H 0.42362 0.70902 0.18245 0.0
H526 H 0.38055 0.70997 0.1665 0.0
H527 H 0.38733 0.69889 0.14606 0.0
H528 H 0.7656 0.31705 0.46819 0.0
H529 H 0.7521 0.3211 0.4887 0.0
H530 H 0.62664 0.26553 0.48218 0.0
H531 H 0.63984 0.261 0.46159 0.0
H532 H 0.70614 0.34869 0.50029 0.0
H533 H 0.64874 0.20793 0.50725 0.0
H534 H 0.6757 0.22902 0.49439 0.0
H535 H 0.6244 0.22009 0.49591 0.0
C536 C 0.73506 0.3059 0.47107 0.0
C537 C 0.7038 0.28841 0.46324 0.0
C538 C 0.72743 0.30828 0.48281 0.0
C539 C 0.68845 0.29311 0.487 0.0
C540 C 0.65702 0.27688 0.47915 0.0
H541 H 0.60455 0.31668 0.55502 0.0
H542 H 0.62147 0.3201 0.53448 0.0
C543 C 0.66461 0.27453 0.46737 0.0
C544 C 0.681 0.29343 0.49964 0.0
H545 H 0.64469 0.24097 0.52314 0.0
C546 C 0.69268 0.32516 0.5053 0.0
C547 C 0.6641 0.26272 0.50618 0.0
C548 C 0.65279 0.22798 0.50068 0.0
C549 C 0.68728 0.32697 0.5173 0.0
C550 C 0.66938 0.2962 0.52378 0.0
C551 C 0.65826 0.26452 0.51815 0.0
C552 C 0.66128 0.29616 0.53639 0.0
C553 C 0.70137 0.3618 0.52297 0.0
C554 C 0.67783 0.28134 0.54432 0.0
C555 C 0.66812 0.27923 0.55611 0.0
C556 C 0.64135 0.29162 0.56017 0.0
C557 C 0.62538 0.30698 0.55221 0.0
C558 C 0.63517 0.30914 0.54045 0.0
H559 H 0.72362 0.38239 0.51755 0.0
H560 H 0.67573 0.36789 0.52419 0.0
H561 H 0.71462 0.36207 0.53161 0.0
H562 H 0.69792 0.27103 0.54135 0.0
H563 H 0.68083 0.26712 0.56197 0.0
H564 H 0.41719 0.69123 0.77562 0.0
H565 H 0.38755 0.66879 0.79458 0.0
H566 H 0.47416 0.76036 0.81112 0.0
H567 H 0.50437 0.78231 0.79237 0.0
H568 H 0.46979 0.70374 0.82161 0.0
H569 H 0.31805 0.69394 0.81573 0.0
H570 H 0.33228 0.67117 0.80505 0.0
H571 H 0.3579 0.71727 0.80579 0.0
C572 C 0.42946 0.70674 0.78329 0.0
C573 C 0.46316 0.73849 0.78251 0.0
C574 C 0.41243 0.69396 0.79412 0.0
C575 C 0.42843 0.71301 0.80429 0.0
C576 C 0.46134 0.74514 0.80342 0.0
H577 H 0.33598 0.69353 0.87347 0.0
H578 H 0.35551 0.70732 0.85332 0.0
C579 C 0.47856 0.75769 0.79267 0.0
C580 C 0.41282 0.69905 0.81595 0.0
H581 H 0.33079 0.67178 0.83323 0.0
C582 C 0.43935 0.69668 0.82414 0.0
C583 C 0.37319 0.69007 0.81928 0.0
C584 C 0.34373 0.69349 0.81105 0.0
C585 C 0.42765 0.6862 0.83558 0.0
C586 C 0.38789 0.67679 0.83888 0.0
C587 C 0.36116 0.67871 0.83067 0.0
C588 C 0.37417 0.66684 0.851 0.0
C589 C 0.45849 0.68666 0.84412 0.0
C590 C 0.37741 0.63905 0.85638 0.0
C591 C 0.36698 0.63143 0.86804 0.0
C592 C 0.35248 0.65117 0.87455 0.0
C593 C 0.34783 0.67816 0.86893 0.0
C594 C 0.35861 0.68591 0.85732 0.0
H595 H 0.48909 0.70292 0.84104 0.0
H596 H 0.4546 0.6964 0.85272 0.0
H597 H 0.45545 0.66012 0.84525 0.0
H598 H 0.38849 0.62344 0.85161 0.0
H599 H 0.3711 0.61049 0.87196 0.0
H600 H 0.65431 0.3274 0.14674 0.0
H601 H 0.65155 0.31639 0.16756 0.0
H602 H 0.76386 0.40488 0.17211 0.0
H603 H 0.76694 0.41604 0.15125 0.0
H604 H 0.70472 0.3027 0.18066 0.0
H605 H 0.69543 0.41992 0.19699 0.0
H606 H 0.68667 0.4067 0.18198 0.0
H607 H 0.73649 0.42825 0.18746 0.0
C608 C 0.67851 0.34452 0.15214 0.0
C609 C 0.71089 0.37262 0.14728 0.0
C610 C 0.67676 0.33829 0.16407 0.0
C611 C 0.7072 0.36008 0.17143 0.0
C612 C 0.73955 0.38819 0.16664 0.0
H613 H 0.76229 0.35107 0.24411 0.0
H614 H 0.7603 0.36812 0.22397 0.0
C615 C 0.74131 0.3945 0.1547 0.0
C616 C 0.70593 0.3522 0.184 0.0
H617 H 0.70537 0.38426 0.21109 0.0
C618 C 0.7046 0.32045 0.18731 0.0
C619 C 0.70597 0.37545 0.19267 0.0
C620 C 0.70586 0.40937 0.18963 0.0
C621 C 0.70392 0.3115 0.19904 0.0
C622 C 0.70384 0.33468 0.20771 0.0
C623 C 0.70529 0.3665 0.20442 0.0
C624 C 0.70297 0.32638 0.22022 0.0
C625 C 0.70426 0.27762 0.20204 0.0
C626 C 0.67073 0.29799 0.22491 0.0
C627 C 0.67174 0.28814 0.23641 0.0
C628 C 0.70498 0.30661 0.24347 0.0
C629 C 0.73629 0.33617 0.23892 0.0
C630 C 0.73523 0.34598 0.2274 0.0
H631 H 0.71395 0.26677 0.19461 0.0
H632 H 0.72421 0.28054 0.20952 0.0
H633 H 0.67387 0.25884 0.20448 0.0
H634 H 0.64518 0.28292 0.21958 0.0
H635 H 0.647 0.26539 0.23965 0.0
H636 H 0.38808 0.76779 0.56008 0.0
H637 H 0.37054 0.76393 0.53947 0.0
H638 H 0.44726 0.7153 0.53237 0.0
H639 H 0.46464 0.71869 0.5529 0.0
H640 H 0.42334 0.79412 0.52122 0.0
H641 H 0.34456 0.65263 0.51556 0.0
H642 H 0.35388 0.67303 0.52964 0.0
H643 H 0.39266 0.66733 0.52215 0.0
C644 C 0.40078 0.75581 0.55417 0.0
C645 C 0.42773 0.74351 0.55816 0.0
C646 C 0.39081 0.75372 0.54239 0.0
C647 C 0.40728 0.73901 0.53441 0.0
C648 C 0.43362 0.72618 0.5384 0.0
H649 H 0.42515 0.77364 0.4596 0.0
H650 H 0.4395 0.76921 0.48011 0.0
C651 C 0.44367 0.72831 0.55015 0.0
C652 C 0.39878 0.73889 0.52182 0.0
H653 H 0.36109 0.68625 0.49834 0.0
C654 C 0.40961 0.77054 0.51622 0.0
C655 C 0.38067 0.70808 0.51533 0.0
C656 C 0.3669 0.6733 0.52097 0.0
C657 C 0.40325 0.77225 0.50428 0.0
C658 C 0.38609 0.7415 0.49773 0.0
C659 C 0.37474 0.70981 0.50335 0.0
C660 C 0.37796 0.74173 0.48513 0.0
C661 C 0.41424 0.80695 0.49881 0.0
C662 C 0.33874 0.72657 0.48108 0.0
C663 C 0.33046 0.72891 0.46938 0.0
C664 C 0.36129 0.74632 0.46146 0.0
C665 C 0.40071 0.76017 0.46545 0.0
C666 C 0.40895 0.75787 0.47719 0.0
H667 H 0.41868 0.82706 0.50542 0.0
H668 H 0.44234 0.81479 0.49394 0.0
H669 H 0.39096 0.80585 0.49263 0.0
H670 H 0.3144 0.71383 0.48705 0.0
H671 H 0.29975 0.71778 0.46661 0.0
H672 H 0.71047 0.33265 0.87295 0.0
H673 H 0.69404 0.32497 0.85235 0.0
H674 H 0.68605 0.42152 0.85177 0.0
H675 H 0.70334 0.4299 0.8724 0.0
H676 H 0.622 0.36448 0.84013 0.0
H677 H 0.77111 0.3815 0.82603 0.0
H678 H 0.74947 0.35077 0.83747 0.0
H679 H 0.76222 0.39537 0.84007 0.0
C680 C 0.70554 0.35245 0.86847 0.0
C681 C 0.70877 0.38212 0.87437 0.0
C682 C 0.69609 0.34796 0.85667 0.0
C683 C 0.68957 0.37297 0.85049 0.0
C684 C 0.69127 0.40202 0.85639 0.0
H685 H 0.67194 0.38061 0.77474 0.0
H686 H 0.69148 0.39538 0.79507 0.0
C687 C 0.70092 0.40665 0.86821 0.0
C688 C 0.68091 0.36854 0.83787 0.0
H689 H 0.71964 0.3602 0.81188 0.0
C690 C 0.64341 0.36379 0.83393 0.0
C691 C 0.70908 0.36807 0.8298 0.0
C692 C 0.75038 0.3745 0.8335 0.0
C693 C 0.63286 0.35736 0.82217 0.0
C694 C 0.66046 0.35543 0.81418 0.0
C695 C 0.69843 0.3614 0.81805 0.0
C696 C 0.64989 0.34619 0.80183 0.0
C697 C 0.59222 0.35258 0.81837 0.0
C698 C 0.62084 0.31337 0.7989 0.0
C699 C 0.60983 0.30476 0.78733 0.0
C700 C 0.62765 0.32885 0.77842 0.0
C701 C 0.65758 0.36146 0.78137 0.0
C702 C 0.66874 0.36998 0.79298 0.0
H703 H 0.57828 0.36284 0.82488 0.0
H704 H 0.59374 0.3655 0.80994 0.0
H705 H 0.5728 0.32474 0.81723 0.0
H706 H 0.60642 0.29444 0.80559 0.0
H707 H 0.58677 0.27938 0.7854 0.0
H708 H 0.86209 0.47447 0.12287 0.0
H709 H 0.93169 0.48644 0.12596 0.0
H710 H 0.96014 0.52904 0.09156 0.0
H711 H 0.89099 0.51752 0.08844 0.0
H712 H 0.97487 0.45959 0.11303 0.0
H713 H 0.04718 0.60186 0.11107 0.0
H714 H 0.99447 0.57743 0.11318 0.0
H715 H 1.01543 0.5822 0.09889 0.0
C716 C 0.88328 0.48702 0.11604 0.0
C717 C 0.87082 0.49514 0.10541 0.0
C718 C 0.92307 0.49368 0.1178 0.0
C719 C 0.95135 0.50895 0.10904 0.0
C720 C 0.93915 0.51784 0.09854 0.0
H721 H 0.1964 0.55708 0.09517 0.0
H722 H 0.12699 0.54701 0.09486 0.0
C723 C 0.89944 0.5111 0.09676 0.0
C724 C 0.99303 0.51373 0.11053 0.0
H725 H 0.08964 0.57392 0.10937 0.0
C726 C 0.99998 0.48463 0.11236 0.0
C727 C 1.02585 0.54638 0.10963 0.0
C728 C 1.02047 0.57881 0.1082 0.0
C729 C 0.03873 0.48713 0.11289 0.0
C730 C 0.07157 0.51973 0.11178 0.0
C731 C 0.06457 0.54889 0.11017 0.0
C732 C 0.11342 0.52419 0.11193 0.0
C733 C 0.0441 0.45465 0.11421 0.0
C734 C 0.12915 0.51462 0.12163 0.0
C735 C 0.16898 0.52019 0.12182 0.0
C736 C 0.19408 0.53573 0.11234 0.0
C737 C 0.17807 0.54499 0.10262 0.0
C738 C 0.13831 0.53934 0.10243 0.0
H739 H 1.01662 0.4314 0.11197 0.0
H740 H 0.06857 0.45534 0.10863 0.0
H741 H 0.05169 0.45219 0.12336 0.0
H742 H 0.11087 0.50353 0.12917 0.0
H743 H 0.1803 0.51302 0.12949 0.0
H744 H 0.65676 0.15666 0.45278 0.0
H745 H 0.596 0.10317 0.45486 0.0
H746 H 0.62617 0.06281 0.42411 0.0
H747 H 0.68704 0.11579 0.42212 0.0
H748 H 0.53395 0.07542 0.44075 0.0
H749 H 0.59914 0.98338 0.44581 0.0
H750 H 0.62853 0.02927 0.44681 0.0
H751 H 0.61635 1.00836 0.43286 0.0
C752 C 0.65051 0.13625 0.44652 0.0
C753 C 0.67687 0.14038 0.43734 0.0
C754 C 0.61585 0.10568 0.44773 0.0
C755 C 0.6068 0.07864 0.43977 0.0
C756 C 0.63303 0.08279 0.43057 0.0
H757 H 0.37797 0.91956 0.4212 0.0
H758 H 0.43876 0.97245 0.42359 0.0
C759 C 0.66784 0.11319 0.42943 0.0
C760 C 0.56895 0.04688 0.44067 0.0
H761 H 0.53022 0.95922 0.44053 0.0
C762 C 0.53317 0.05002 0.44084 0.0
C763 C 0.56781 1.01369 0.44101 0.0
C764 C 0.60505 1.00845 0.44174 0.0
C765 C 0.49635 0.02094 0.44089 0.0
C766 C 0.49523 0.98777 0.44043 0.0
C767 C 0.531 0.98462 0.44072 0.0
C768 C 0.45742 0.95605 0.43927 0.0
C769 C 0.45908 0.02615 0.44151 0.0
C770 C 0.448 0.92874 0.44711 0.0
C771 C 0.41338 0.89823 0.44567 0.0
C772 C 0.38744 0.89443 0.43637 0.0
C773 C 0.39684 0.92189 0.42858 0.0
C774 C 0.43161 0.95223 0.42996 0.0
H775 H 0.46482 0.05108 0.44569 0.0
H776 H 0.44813 0.02654 0.43259 0.0
H777 H 0.43541 1.00516 0.44642 0.0
H778 H 0.46754 0.931 0.45433 0.0
H779 H 0.40684 0.87762 0.45185 0.0
H780 H 0.47766 0.37949 0.73578 0.0
H781 H 0.48624 0.43837 0.73827 0.0
H782 H 0.54297 0.44429 0.77132 0.0
H783 H 0.53454 0.38513 0.76886 0.0
H784 H 0.46043 0.46908 0.75516 0.0
H785 H 0.6251 0.5265 0.75384 0.0
H786 H 0.59445 0.48241 0.74982 0.0
H787 H 0.60245 0.49452 0.76485 0.0
C788 C 0.49147 0.39303 0.74366 0.0
C789 C 0.5056 0.37758 0.7521 0.0
C790 C 0.49652 0.42681 0.74504 0.0
C791 C 0.51582 0.44591 0.75489 0.0
C792 C 0.5288 0.43028 0.76353 0.0
H793 H 0.51842 0.64775 0.76791 0.0
H794 H 0.50977 0.5886 0.77051 0.0
C795 C 0.52391 0.39647 0.76212 0.0
C796 C 0.52283 0.48236 0.75587 0.0
H797 H 0.59598 0.56461 0.75654 0.0
C798 C 0.49004 0.49 0.75555 0.0
C799 C 0.56154 0.50957 0.75626 0.0
C800 C 0.59798 0.50301 0.75612 0.0
C801 C 0.49488 0.52411 0.75539 0.0
C802 C 0.53358 0.55132 0.7558 0.0
C803 C 0.56636 0.54368 0.75633 0.0
C804 C 0.5408 0.5878 0.75479 0.0
C805 C 0.45859 0.53068 0.7543 0.0
C806 C 0.56233 0.60737 0.74532 0.0
C807 C 0.56749 0.64115 0.74385 0.0
C808 C 0.55123 0.65612 0.75183 0.0
C809 C 0.53071 0.63678 0.76151 0.0
C810 C 0.52571 0.60298 0.763 0.0
H811 H 0.4321 0.50732 0.7515 0.0
H812 H 0.45196 0.53877 0.76285 0.0
H813 H 0.46367 0.55158 0.74799 0.0
H814 H 0.57426 0.59617 0.73888 0.0
H815 H 0.58307 0.65507 0.73624 0.0
H816 H 0.46231 0.11332 0.58887 0.0
H817 H 0.46771 0.05892 0.58751 0.0
H818 H 0.59497 0.11449 0.58567 0.0
H819 H 0.58999 0.16883 0.58733 0.0
H820 H 0.50417 0.03476 0.57005 0.0
H821 H 0.57565 0.04813 0.61322 0.0
H822 H 0.55061 0.0738 0.60891 0.0
H823 H 0.59962 0.08409 0.60366 0.0
C824 C 0.49146 0.11398 0.58822 0.0
C825 C 0.5257 0.14551 0.58828 0.0
C826 C 0.49447 0.08289 0.58737 0.0
C827 C 0.53176 0.0827 0.58665 0.0
C828 C 0.56593 0.11407 0.58639 0.0
H829 H 0.60937 0.91989 0.58736 0.0
H830 H 0.60583 0.97504 0.58607 0.0
C831 C 0.56297 0.14516 0.58721 0.0
C832 C 0.53497 0.04969 0.58637 0.0
H833 H 0.57039 1.00119 0.60163 0.0
C834 C 0.51858 0.02733 0.57695 0.0
C835 C 0.55385 0.04016 0.59539 0.0
C836 C 0.57068 0.06261 0.60593 0.0
C837 C 0.52103 0.99583 0.57623 0.0
C838 C 0.53971 0.9862 0.58529 0.0
C839 C 0.55622 1.00866 0.59468 0.0
C840 C 0.54175 0.95265 0.58537 0.0
C841 C 0.50426 0.97345 0.56568 0.0
C842 C 0.50693 0.92174 0.58545 0.0
C843 C 0.50887 0.8902 0.58621 0.0
C844 C 0.54571 0.88892 0.58702 0.0
C845 C 0.58055 0.91996 0.58686 0.0
C846 C 0.57858 0.95149 0.58607 0.0
H847 H 0.50144 0.98849 0.55821 0.0
H848 H 0.52311 0.96068 0.56306 0.0
H849 H 0.47424 0.95321 0.56773 0.0
H850 H 0.47816 0.92202 0.58522 0.0
H851 H 0.48144 0.86692 0.58654 0.0
H852 H 0.40386 0.55308 0.89934 0.0
H853 H 0.46121 0.54086 0.89617 0.0
H854 H 0.44773 0.49849 0.9306 0.0
H855 H 0.39037 0.51024 0.9338 0.0
H856 H 0.53162 0.56748 0.90897 0.0
H857 H 0.46044 0.42521 0.91106 0.0
H858 H 0.43243 0.44986 0.90902 0.0
H859 H 0.44901 0.44508 0.92327 0.0
C860 C 0.41262 0.54056 0.90616 0.0
C861 C 0.39231 0.53254 0.91682 0.0
C862 C 0.44557 0.53374 0.90435 0.0
C863 C 0.45863 0.51843 0.9131 0.0
C864 C 0.43785 0.50971 0.92363 0.0
H865 H 0.65527 0.46962 0.92655 0.0
H866 H 0.59627 0.48015 0.92706 0.0
C867 C 0.40506 0.51659 0.92546 0.0
C868 C 0.49529 0.51341 0.91154 0.0
H869 H 0.53098 0.45284 0.91264 0.0
C870 C 0.53145 0.54237 0.90964 0.0
C871 C 0.49513 0.48067 0.91245 0.0
C872 C 0.45713 0.44838 0.91395 0.0
C873 C 0.56753 0.53964 0.90903 0.0
C874 C 0.56744 0.50695 0.91015 0.0
C875 C 0.53116 0.47793 0.91183 0.0
C876 C 0.60461 0.50225 0.90988 0.0
C877 C 0.60557 0.57195 0.90761 0.0
C878 C 0.62924 0.51128 0.90006 0.0
C879 C 0.66327 0.50543 0.89976 0.0
C880 C 0.67323 0.49016 0.90924 0.0
C881 C 0.64867 0.48149 0.9191 0.0
C882 C 0.61477 0.4874 0.91939 0.0
H883 H 0.60168 0.59535 0.90982 0.0
H884 H 0.62943 0.57121 0.91317 0.0
H885 H 0.61535 0.57415 0.89845 0.0
H886 H 0.62169 0.52216 0.89252 0.0
H887 H 0.68123 0.51215 0.89199 0.0
H888 H 0.19906 0.62543 0.273 0.0
H889 H 0.14402 0.56817 0.27165 0.0
H890 H 0.0609 0.61184 0.27585 0.0
H891 H 0.11581 0.66943 0.27685 0.0
H892 H 0.08712 0.53578 0.2886 0.0
H893 H 1.01691 0.54886 0.24762 0.0
H894 H 0.06659 0.57863 0.25178 0.0
H895 H 1.02456 0.5819 0.25813 0.0
C896 C 0.16912 0.62304 0.2734 0.0
C897 C 0.16192 0.65216 0.27498 0.0
C898 C 0.13767 0.59021 0.27272 0.0
C899 C 0.09839 0.58579 0.27351 0.0
C900 C 0.09099 0.61473 0.27501 0.0
H901 H 0.86839 0.41179 0.27745 0.0
H902 H 0.92447 0.46861 0.27662 0.0
C903 C 0.12244 0.6476 0.27571 0.0
C904 C 0.06529 0.55075 0.27335 0.0
H905 H 0.98054 0.49891 0.2589 0.0
C906 C 0.06395 0.5276 0.28206 0.0
C907 C 0.0351 0.54024 0.26482 0.0
C908 C 0.0359 0.56356 0.25499 0.0
C909 C 0.03272 0.49442 0.28264 0.0
C910 C 1.0024 0.48395 0.27415 0.0
C911 C 1.00384 0.50703 0.26539 0.0
C912 C 0.96852 0.44935 0.27434 0.0
C913 C 1.03187 0.47118 0.29251 0.0
C914 C 0.97465 0.41968 0.27315 0.0
C915 C 0.94259 0.3871 0.27358 0.0
C916 C 0.90376 0.38359 0.27513 0.0
C917 C 0.89776 0.41347 0.27612 0.0
C918 C 0.92982 0.446 0.2757 0.0
H919 H 0.05172 0.48578 0.29974 0.0
H920 H 1.00133 0.45694 0.29593 0.0
H921 H 0.04204 0.45211 0.28932 0.0
H922 H 1.00423 0.42172 0.27184 0.0
H923 H 0.9482 0.36469 0.27259 0.0
H924 H 0.65325 0.46682 0.11804 0.0
H925 H 0.59406 0.47712 0.11923 0.0
H926 H 0.62177 0.52761 0.08601 0.0
H927 H 0.68129 0.51758 0.08475 0.0
H928 H 0.5892 0.54348 0.11759 0.0
H929 H 0.50462 0.45039 0.08302 0.0
H930 H 0.54639 0.44869 0.09037 0.0
H931 H 0.55441 0.48087 0.07955 0.0
C932 C 0.64695 0.48027 0.11099 0.0
C933 C 0.67212 0.49131 0.10128 0.0
C934 C 0.61303 0.48611 0.1117 0.0
C935 C 0.60317 0.50272 0.10265 0.0
C936 C 0.62851 0.51432 0.09303 0.0
H937 H 0.40079 0.54912 0.09101 0.0
H938 H 0.45938 0.53817 0.08894 0.0
C939 C 0.66269 0.50876 0.09236 0.0
C940 C 0.56648 0.508 0.10336 0.0
H941 H 0.47437 0.48283 0.09141 0.0
C942 C 0.56405 0.53022 0.11188 0.0
C943 C 0.5338 0.49084 0.09586 0.0
C944 C 0.53454 0.46614 0.08671 0.0
C945 C 0.53006 0.53605 0.11303 0.0
C946 C 0.49692 0.51832 0.10568 0.0
C947 C 0.49954 0.49629 0.09709 0.0
C948 C 0.45949 0.52253 0.10676 0.0
C949 C 0.53051 0.56189 0.12192 0.0
C950 C 0.43895 0.51617 0.11734 0.0
C951 C 0.40558 0.52262 0.11857 0.0
C952 C 0.39147 0.53503 0.1092 0.0
C953 C 0.41074 0.53955 0.09842 0.0
C954 C 0.44438 0.53339 0.09723 0.0
H955 H 0.56127 0.58037 0.12424 0.0
H956 H 0.51447 0.57661 0.11872 0.0
H957 H 0.51578 0.54817 0.12995 0.0
H958 H 0.44912 0.50673 0.12473 0.0
H959 H 0.39132 0.51854 0.12697 0.0
H960 H 0.94469 0.37584 0.4474 0.0
H961 H 0.99537 0.43518 0.44607 0.0
H962 H 0.93948 0.44963 0.41513 0.0
H963 H 0.8881 0.39036 0.4166 0.0
H964 H 0.04936 0.46869 0.43003 0.0
H965 H 0.94683 0.52971 0.43439 0.0
H966 H 0.93131 0.4845 0.43693 0.0
H967 H 0.93502 0.50052 0.42236 0.0
C968 C 0.94332 0.39157 0.44027 0.0
C969 C 0.91226 0.37846 0.43213 0.0
C970 C 0.97225 0.42555 0.43954 0.0
C971 C 0.97089 0.44715 0.43062 0.0
C972 C 0.94056 0.43382 0.42228 0.0
H973 H 0.17418 0.64416 0.41574 0.0
H974 H 0.12257 0.58487 0.4146 0.0
C975 C 0.91131 0.39991 0.42309 0.0
C976 C 1.00138 0.48349 0.43011 0.0
H977 H 1.01374 0.56666 0.42995 0.0
C978 C 0.04157 0.49012 0.43002 0.0
C979 C 0.99125 0.51149 0.43026 0.0
C980 C 0.94879 0.5063 0.43111 0.0
C981 C 0.07186 0.52386 0.43009 0.0
C982 C 0.06172 0.55186 0.4299 0.0
C983 C 1.02153 0.54523 0.42997 0.0
C984 C 0.09225 0.58821 0.43019 0.0
C985 C 0.11437 0.52909 0.43078 0.0
C986 C 0.09154 0.6103 0.43904 0.0
C987 C 0.12058 0.64429 0.43958 0.0
C988 C 0.15111 0.65691 0.43131 0.0
C989 C 0.15139 0.63498 0.42233 0.0
C990 C 0.12201 0.60106 0.42171 0.0
H991 H 0.11656 0.50585 0.43413 0.0
H992 H 0.12751 0.53437 0.42197 0.0
H993 H 0.13228 0.5512 0.43647 0.0
H994 H 0.06886 0.60105 0.44567 0.0
H995 H 0.11975 0.66041 0.44666 0.0
H996 H 0.45526 0.11283 0.75873 0.0
H997 H 0.46158 0.05886 0.75876 0.0
H998 H 0.57601 0.10947 0.74245 0.0
H999 H 0.56979 0.16345 0.74219 0.0
H1000 H 0.47295 0.02313 0.73933 0.0
H1001 H 0.59685 0.06182 0.77101 0.0
H1002 H 0.56708 0.08507 0.76936 0.0
H1003 H 0.60539 0.09083 0.75906 0.0
C1004 C 0.4817 0.11256 0.75508 0.0
C1005 C 0.51208 0.1427 0.7505 0.0
C1006 C 0.48532 0.08167 0.75516 0.0
C1007 C 0.51948 0.0803 0.75076 0.0
C1008 C 0.54975 0.11015 0.74611 0.0
H1009 H 0.59956 0.9212 0.74247 0.0
H1010 H 0.59216 0.97471 0.74278 0.0
C1011 C 0.54614 0.14104 0.74599 0.0
C1012 C 0.52303 0.04742 0.75076 0.0
H1013 H 0.57853 1.00857 0.76137 0.0
C1014 C 0.49588 0.01982 0.74419 0.0
C1015 C 0.55305 0.04329 0.75709 0.0
C1016 C 0.5821 0.07168 0.76462 0.0
C1017 C 0.49846 0.98837 0.74358 0.0
C1018 C 0.52851 0.98422 0.74991 0.0
C1019 C 0.55555 1.01181 0.75651 0.0
C1020 C 0.53265 0.95157 0.74973 0.0
C1021 C 0.46965 0.96021 0.73592 0.0
C1022 C 0.50183 0.92084 0.75367 0.0
C1023 C 0.50599 0.89019 0.7535 0.0
C1024 C 0.54123 0.88972 0.74951 0.0
C1025 C 0.5722 0.92067 0.7457 0.0
C1026 C 0.56796 0.95127 0.74583 0.0
H1027 H 0.45571 0.97042 0.72938 0.0
H1028 H 0.48457 0.94649 0.73133 0.0
H1029 H 0.44568 0.94131 0.74136 0.0
H1030 H 0.47469 0.92063 0.75698 0.0
H1031 H 0.48186 0.86701 0.7567 0.0
H1032 H 0.51191 0.64149 0.60525 0.0
H1033 H 0.50733 0.58341 0.60727 0.0
H1034 H 0.57797 0.59859 0.57643 0.0
H1035 H 0.58322 0.65671 0.57451 0.0
H1036 H 0.47502 0.52946 0.59323 0.0
H1037 H 0.63435 0.56229 0.59818 0.0
H1038 H 0.61552 0.59421 0.59911 0.0
H1039 H 0.62478 0.58023 0.58519 0.0
C1040 C 0.5266 0.63245 0.59894 0.0
C1041 C 0.54816 0.65377 0.58977 0.0
C1042 C 0.52406 0.59931 0.60012 0.0
C1043 C 0.54292 0.5868 0.59213 0.0
C1044 C 0.56419 0.60797 0.58291 0.0
H1045 H 0.48298 0.37481 0.57574 0.0
H1046 H 0.48805 0.43301 0.57715 0.0
C1047 C 0.56709 0.64121 0.5818 0.0
C1048 C 0.53882 0.55108 0.5931 0.0
H1049 H 0.59174 0.50363 0.59343 0.0
C1050 C 0.50056 0.52384 0.59339 0.0
C1051 C 0.5721 0.54367 0.59352 0.0
C1052 C 0.61397 0.57168 0.59411 0.0
C1053 C 0.49467 0.48944 0.59372 0.0
C1054 C 0.52794 0.482 0.59341 0.0
C1055 C 0.5662 0.50926 0.5935 0.0
C1056 C 0.52382 0.44621 0.59277 0.0
C1057 C 0.45283 0.46149 0.59451 0.0
C1058 C 0.54311 0.43445 0.60088 0.0
C1059 C 0.54067 0.40128 0.59999 0.0
C1060 C 0.51879 0.37917 0.59099 0.0
C1061 C 0.49938 0.39095 0.5829 0.0
C1062 C 0.50217 0.42422 0.58373 0.0
H1063 H 0.43262 0.47121 0.59846 0.0
H1064 H 0.44164 0.45219 0.58565 0.0
H1065 H 0.45149 0.43938 0.59971 0.0
H1066 H 0.56013 0.45098 0.60791 0.0
H1067 H 0.55574 0.39285 0.60638 0.0
H1068 H 0.20152 0.55157 0.92981 0.0
H1069 H 0.13172 0.53956 0.93231 0.0
H1070 H 0.11108 0.51724 0.8958 0.0
H1071 H 0.18052 0.5289 0.89323 0.0
H1072 H 0.09182 0.57393 0.92138 0.0
H1073 H 1.02012 0.43475 0.91081 0.0
H1074 H 0.07217 0.45751 0.91431 0.0
H1075 H 0.05466 0.46095 0.90006 0.0
C1076 C 0.18201 0.54357 0.92234 0.0
C1077 C 0.19672 0.54109 0.91132 0.0
C1078 C 0.14212 0.53687 0.92377 0.0
C1079 C 0.11599 0.52718 0.91427 0.0
C1080 C 0.13043 0.52409 0.90331 0.0
H1081 H 0.86755 0.48276 0.90388 0.0
H1082 H 0.93774 0.49639 0.90129 0.0
C1083 C 0.17028 0.5309 0.90185 0.0
C1084 C 0.07414 0.52185 0.91567 0.0
H1085 H 0.97781 0.4626 0.91218 0.0
C1086 C 0.06688 0.54953 0.91944 0.0
C1087 C 0.04157 0.49007 0.91307 0.0
C1088 C 0.04736 0.45899 0.90943 0.0
C1089 C 1.02804 0.54647 0.92049 0.0
C1090 C 0.99546 0.51469 0.91789 0.0
C1091 C 1.00274 0.48701 0.91412 0.0
C1092 C 0.95358 0.50924 0.9193 0.0
C1093 C 1.02223 0.57752 0.92413 0.0
C1094 C 0.93909 0.51222 0.93026 0.0
C1095 C 0.89899 0.50449 0.93177 0.0
C1096 C 0.87236 0.49346 0.92235 0.0
C1097 C 0.88718 0.4914 0.91131 0.0
C1098 C 0.92731 0.49901 0.90982 0.0
H1099 H 0.04942 0.60178 0.92272 0.0
H1100 H 0.99731 0.57894 0.9193 0.0
H1101 H 1.01509 0.57561 0.93352 0.0
H1102 H 0.95854 0.51948 0.93775 0.0
H1103 H 0.88868 0.50621 0.94041 0.0
H1104 H 0.37751 0.91041 0.25743 0.0
H1105 H 0.43598 0.96584 0.25759 0.0
H1106 H 0.48793 0.92954 0.28463 0.0
H1107 H 0.4296 0.87383 0.28441 0.0
H1108 H 0.46693 1.01279 0.27473 0.0
H1109 H 0.57666 0.9657 0.26112 0.0
H1110 H 0.52389 0.93936 0.26026 0.0
H1111 H 0.54946 0.94496 0.27388 0.0
C1112 C 0.40129 0.91424 0.26344 0.0
C1113 C 0.39896 0.88764 0.27088 0.0
C1114 C 0.43478 0.94591 0.2635 0.0
C1115 C 0.46663 0.95171 0.271 0.0
C1116 C 0.46418 0.92539 0.27856 0.0
H1117 H 0.65283 0.15697 0.28661 0.0
H1118 H 0.59597 0.10042 0.28778 0.0
C1119 C 0.43079 0.89358 0.27844 0.0
C1120 C 0.50198 0.98555 0.271 0.0
H1121 H 0.60229 0.02407 0.26701 0.0
C1122 C 0.49654 1.01528 0.27304 0.0
C1123 C 0.54053 0.98879 0.26864 0.0
C1124 C 0.54806 0.95806 0.26574 0.0
C1125 C 0.52854 0.04813 0.27281 0.0
C1126 C 0.56725 0.0513 0.27077 0.0
C1127 C 0.57268 0.02158 0.2687 0.0
C1128 C 0.60231 0.08528 0.27029 0.0
C1129 C 0.52037 0.07914 0.27443 0.0
C1130 C 0.62556 0.09515 0.26022 0.0
C1131 C 0.65826 0.12727 0.25958 0.0
C1132 C 0.66838 0.15023 0.26901 0.0
C1133 C 0.64539 0.14009 0.27915 0.0
C1134 C 0.61284 0.10782 0.27981 0.0
H1135 H 0.48875 0.07292 0.27276 0.0
H1136 H 0.52727 0.08835 0.28352 0.0
H1137 H 0.53909 0.1004 0.26858 0.0
H1138 H 0.61804 0.07818 0.25277 0.0
H1139 H 0.67505 0.13439 0.25161 0.0
loop_
_geom_bond_atom_site_label_1
_geom_bond_atom_site_label_2
_geom_bond_distance
_geom_bond_site_symmetry_2
_ccdc_geom_bond_type
Cu0 N1 1.999 . S
Cu0 O6 1.974 . S
Cu0 N11 1.985 . S
Cu0 O20 1.959 . S
N1 Cu0 1.999 . S
N1 C3 1.263 . S
N1 C5 1.389 . S
N2 C3 1.358 . S
N2 C4 1.400 . S
C3 N1 1.263 . S
C3 N2 1.358 . S
C3 H9 0.930 . S
C4 N2 1.400 . S
C4 C5 1.351 . S
C4 H21 0.930 . S
C5 N1 1.389 . S
C5 C4 1.351 . S
C5 H10 0.930 . S
O6 Cu0 1.974 . S
O6 C16 1.282 . S
C7 O8 1.261 . S
C7 O20 1.251 . S
O8 C7 1.261 . S
H9 C3 0.930 . S
H10 C5 0.930 . S
N11 Cu0 1.985 . S
N11 C13 1.335 . S
N11 C14 1.390 . S
N12 C13 1.345 . S
N12 C15 1.336 . S
C13 N11 1.335 . S
C13 N12 1.345 . S
C13 H18 0.930 . S
C14 N11 1.390 . S
C14 C15 1.346 . S
C14 H19 0.930 . S
C15 N12 1.336 . S
C15 C14 1.346 . S
C15 H22 0.929 . S
C16 O6 1.282 . S
C16 O17 1.216 . S
O17 C16 1.216 . S
H18 C13 0.930 . S
H19 C14 0.930 . S
O20 Cu0 1.959 . S
O20 C7 1.251 . S
H21 C4 0.930 . S
H22 C15 0.929 . S
Cu23 N24 1.999 . S
Cu23 O29 1.974 . S
Cu23 N34 1.985 . S
Cu23 O43 1.959 . S
N24 Cu23 1.999 . S
N24 C26 1.263 . S
N24 C28 1.389 . S
N25 C26 1.358 . S
N25 C27 1.400 . S
C26 N24 1.263 . S
C26 N25 1.358 . S
C26 H32 0.930 . S
C27 N25 1.400 . S
C27 C28 1.351 . S
C27 H44 0.930 . S
C28 N24 1.389 . S
C28 C27 1.351 . S
C28 H33 0.930 . S
O29 Cu23 1.974 . S
O29 C39 1.282 . S
C30 O31 1.261 . S
C30 O43 1.251 . S
O31 C30 1.261 . S
H32 C26 0.930 . S
H33 C28 0.930 . S
N34 Cu23 1.985 . S
N34 C36 1.335 . S
N34 C37 1.390 . S
N35 C36 1.345 . S
N35 C38 1.336 . S
C36 N34 1.335 . S
C36 N35 1.345 . S
C36 H41 0.930 . S
C37 N34 1.390 . S
C37 C38 1.346 . S
C37 H42 0.930 . S
C38 N35 1.336 . S
C38 C37 1.346 . S
C38 H45 0.929 . S
C39 O29 1.282 . S
C39 O40 1.216 . S
O40 C39 1.216 . S
H41 C36 0.930 . S
H42 C37 0.930 . S
O43 Cu23 1.959 . S
O43 C30 1.251 . S
H44 C27 0.930 . S
H45 C38 0.929 . S
Cu46 N47 1.999 . S
Cu46 O52 1.974 . S
Cu46 N57 1.985 . S
Cu46 O66 1.959 . S
N47 Cu46 1.999 . S
N47 C49 1.263 . S
N47 C51 1.389 . S
N48 C49 1.358 . S
N48 C50 1.400 . S
C49 N47 1.263 . S
C49 N48 1.358 . S
C49 H55 0.930 . S
C50 N48 1.400 . S
C50 C51 1.351 . S
C50 H67 0.930 . S
C51 N47 1.389 . S
C51 C50 1.351 . S
C51 H56 0.930 . S
O52 Cu46 1.974 . S
O52 C62 1.282 . S
C53 O54 1.261 . S
C53 O66 1.251 . S
O54 C53 1.261 . S
H55 C49 0.930 . S
H56 C51 0.930 . S
N57 Cu46 1.985 . S
N57 C59 1.335 . S
N57 C60 1.390 . S
N58 C59 1.345 . S
N58 C61 1.336 . S
C59 N57 1.335 . S
C59 N58 1.345 . S
C59 H64 0.930 . S
C60 N57 1.390 . S
C60 C61 1.346 . S
C60 H65 0.930 . S
C61 N58 1.336 . S
C61 C60 1.346 . S
C61 H68 0.929 . S
C62 O52 1.282 . S
C62 O63 1.216 . S
O63 C62 1.216 . S
H64 C59 0.930 . S
H65 C60 0.930 . S
O66 Cu46 1.959 . S
O66 C53 1.251 . S
H67 C50 0.930 . S
H68 C61 0.929 . S
Cu69 N70 1.999 . S
Cu69 O75 1.974 . S
Cu69 N80 1.985 . S
Cu69 O89 1.959 . S
N70 Cu69 1.999 . S
N70 C72 1.263 . S
N70 C74 1.389 . S
N71 C72 1.358 . S
N71 C73 1.400 . S
C72 N70 1.263 . S
C72 N71 1.358 . S
C72 H78 0.930 . S
C73 N71 1.400 . S
C73 C74 1.351 . S
C73 H90 0.930 . S
C74 N70 1.389 . S
C74 C73 1.351 . S
C74 H79 0.930 . S
O75 Cu69 1.974 . S
O75 C85 1.282 . S
C76 O77 1.261 . S
C76 O89 1.251 . S
O77 C76 1.261 . S
H78 C72 0.930 . S
H79 C74 0.930 . S
N80 Cu69 1.985 . S
N80 C82 1.335 . S
N80 C83 1.390 . S
N81 C82 1.345 . S
N81 C84 1.336 . S
C82 N80 1.335 . S
C82 N81 1.345 . S
C82 H87 0.930 . S
C83 N80 1.390 . S
C83 C84 1.346 . S
C83 H88 0.930 . S
C84 N81 1.336 . S
C84 C83 1.346 . S
C84 H91 0.929 . S
C85 O75 1.282 . S
C85 O86 1.216 . S
O86 C85 1.216 . S
H87 C82 0.930 . S
H88 C83 0.930 . S
O89 Cu69 1.959 . S
O89 C76 1.251 . S
H90 C73 0.930 . S
H91 C84 0.929 . S
Cu92 N93 1.999 . S
Cu92 O98 1.974 . S
Cu92 N103 1.985 . S
Cu92 O112 1.959 . S
N93 Cu92 1.999 . S
N93 C95 1.263 . S
N93 C97 1.389 . S
N94 C95 1.358 . S
N94 C96 1.400 . S
C95 N93 1.263 . S
C95 N94 1.358 . S
C95 H101 0.930 . S
C96 N94 1.400 . S
C96 C97 1.351 . S
C96 H113 0.930 . S
C97 N93 1.389 . S
C97 C96 1.351 . S
C97 H102 0.930 . S
O98 Cu92 1.974 . S
O98 C108 1.282 . S
C99 O100 1.261 . S
C99 O112 1.251 . S
O100 C99 1.261 . S
H101 C95 0.930 . S
H102 C97 0.930 . S
N103 Cu92 1.985 . S
N103 C105 1.335 . S
N103 C106 1.390 . S
N104 C105 1.345 . S
N104 C107 1.336 . S
C105 N103 1.335 . S
C105 N104 1.345 . S
C105 H110 0.930 . S
C106 N103 1.390 . S
C106 C107 1.346 . S
C106 H111 0.930 . S
C107 N104 1.336 . S
C107 C106 1.346 . S
C107 H114 0.929 . S
C108 O98 1.282 . S
C108 O109 1.216 . S
O109 C108 1.216 . S
H110 C105 0.930 . S
H111 C106 0.930 . S
O112 Cu92 1.959 . S
O112 C99 1.251 . S
H113 C96 0.930 . S
H114 C107 0.929 . S
Cu115 N116 1.999 . S
Cu115 O121 1.974 . S
Cu115 N126 1.985 . S
Cu115 O135 1.959 . S
N116 Cu115 1.999 . S
N116 C118 1.263 . S
N116 C120 1.389 . S
N117 C118 1.358 . S
N117 C119 1.400 . S
C118 N116 1.263 . S
C118 N117 1.358 . S
C118 H124 0.930 . S
C119 N117 1.400 . S
C119 C120 1.351 . S
C119 H136 0.930 . S
C120 N116 1.389 . S
C120 C119 1.351 . S
C120 H125 0.930 . S
O121 Cu115 1.974 . S
O121 C131 1.282 . S
C122 O123 1.261 . S
C122 O135 1.251 . S
O123 C122 1.261 . S
H124 C118 0.930 . S
H125 C120 0.930 . S
N126 Cu115 1.985 . S
N126 C128 1.335 . S
N126 C129 1.390 . S
N127 C128 1.345 . S
N127 C130 1.336 . S
C128 N126 1.335 . S
C128 N127 1.345 . S
C128 H133 0.930 . S
C129 N126 1.390 . S
C129 C130 1.346 . S
C129 H134 0.930 . S
C130 N127 1.336 . S
C130 C129 1.346 . S
C130 H137 0.929 . S
C131 O121 1.282 . S
C131 O132 1.216 . S
O132 C131 1.216 . S
H133 C128 0.930 . S
H134 C129 0.930 . S
O135 Cu115 1.959 . S
O135 C122 1.251 . S
H136 C119 0.930 . S
H137 C130 0.929 . S
Cu138 N139 1.999 . S
Cu138 O144 1.974 . S
Cu138 N149 1.985 . S
Cu138 O158 1.959 . S
N139 Cu138 1.999 . S
N139 C141 1.263 . S
N139 C143 1.389 . S
N140 C141 1.358 . S
N140 C142 1.400 . S
C141 N139 1.263 . S
C141 N140 1.358 . S
C141 H147 0.930 . S
C142 N140 1.400 . S
C142 C143 1.351 . S
C142 H159 0.930 . S
C143 N139 1.389 . S
C143 C142 1.351 . S
C143 H148 0.930 . S
O144 Cu138 1.974 . S
O144 C154 1.282 . S
C145 O146 1.261 . S
C145 O158 1.251 . S
O146 C145 1.261 . S
H147 C141 0.930 . S
H148 C143 0.930 . S
N149 Cu138 1.985 . S
N149 C151 1.335 . S
N149 C152 1.390 . S
N150 C151 1.345 . S
N150 C153 1.336 . S
C151 N149 1.335 . S
C151 N150 1.345 . S
C151 H156 0.930 . S
C152 N149 1.390 . S
C152 C153 1.346 . S
C152 H157 0.930 . S
C153 N150 1.336 . S
C153 C152 1.346 . S
C153 H160 0.929 . S
C154 O144 1.282 . S
C154 O155 1.216 . S
O155 C154 1.216 . S
H156 C151 0.930 . S
H157 C152 0.930 . S
O158 Cu138 1.959 . S
O158 C145 1.251 . S
H159 C142 0.930 . S
H160 C153 0.929 . S
Cu161 N162 1.999 . S
Cu161 O167 1.974 . S
Cu161 N172 1.985 . S
Cu161 O181 1.959 . S
N162 Cu161 1.999 . S
N162 C164 1.263 . S
N162 C166 1.389 . S
N163 C164 1.358 . S
N163 C165 1.400 . S
C164 N162 1.263 . S
C164 N163 1.358 . S
C164 H170 0.930 . S
C165 N163 1.400 . S
C165 C166 1.351 . S
C165 H182 0.930 . S
C166 N162 1.389 . S
C166 C165 1.351 . S
C166 H171 0.930 . S
O167 Cu161 1.974 . S
O167 C177 1.282 . S
C168 O169 1.261 . S
C168 O181 1.251 . S
O169 C168 1.261 . S
H170 C164 0.930 . S
H171 C166 0.930 . S
N172 Cu161 1.985 . S
N172 C174 1.335 . S
N172 C175 1.390 . S
N173 C174 1.345 . S
N173 C176 1.336 . S
C174 N172 1.335 . S
C174 N173 1.345 . S
C174 H179 0.930 . S
C175 N172 1.390 . S
C175 C176 1.346 . S
C175 H180 0.930 . S
C176 N173 1.336 . S
C176 C175 1.346 . S
C176 H183 0.929 . S
C177 O167 1.282 . S
C177 O178 1.216 . S
O178 C177 1.216 . S
H179 C174 0.930 . S
H180 C175 0.930 . S
O181 Cu161 1.959 . S
O181 C168 1.251 . S
H182 C165 0.930 . S
H183 C176 0.929 . S
Cu184 N185 1.999 . S
Cu184 O190 1.974 . S
Cu184 N195 1.985 . S
Cu184 O204 1.959 . S
N185 Cu184 1.999 . S
N185 C187 1.263 . S
N185 C189 1.389 . S
N186 C187 1.358 . S
N186 C188 1.400 . S
C187 N185 1.263 . S
C187 N186 1.358 . S
C187 H193 0.930 . S
C188 N186 1.400 . S
C188 C189 1.351 . S
C188 H205 0.930 . S
C189 N185 1.389 . S
C189 C188 1.351 . S
C189 H194 0.930 . S
O190 Cu184 1.974 . S
O190 C200 1.282 . S
C191 O192 1.261 . S
C191 O204 1.251 . S
O192 C191 1.261 . S
H193 C187 0.930 . S
H194 C189 0.930 . S
N195 Cu184 1.985 . S
N195 C197 1.335 . S
N195 C198 1.390 . S
N196 C197 1.345 . S
N196 C199 1.336 . S
C197 N195 1.335 . S
C197 N196 1.345 . S
C197 H202 0.930 . S
C198 N195 1.390 . S
C198 C199 1.346 . S
C198 H203 0.930 . S
C199 N196 1.336 . S
C199 C198 1.346 . S
C199 H206 0.929 . S
C200 O190 1.282 . S
C200 O201 1.216 . S
O201 C200 1.216 . S
H202 C197 0.930 . S
H203 C198 0.930 . S
O204 Cu184 1.959 . S
O204 C191 1.251 . S
H205 C188 0.930 . S
H206 C199 0.929 . S
Cu207 N208 1.999 . S
Cu207 O213 1.974 . S
Cu207 N218 1.985 . S
Cu207 O227 1.959 . S
N208 Cu207 1.999 . S
N208 C210 1.263 . S
N208 C212 1.389 . S
N209 C210 1.358 . S
N209 C211 1.400 . S
C210 N208 1.263 . S
C210 N209 1.358 . S
C210 H216 0.930 . S
C211 N209 1.400 . S
C211 C212 1.351 . S
C211 H228 0.930 . S
C212 N208 1.389 . S
C212 C211 1.351 . S
C212 H217 0.930 . S
O213 Cu207 1.974 . S
O213 C223 1.282 . S
C214 O215 1.261 . S
C214 O227 1.251 . S
O215 C214 1.261 . S
H216 C210 0.930 . S
H217 C212 0.930 . S
N218 Cu207 1.985 . S
N218 C220 1.335 . S
N218 C221 1.390 . S
N219 C220 1.345 . S
N219 C222 1.336 . S
C220 N218 1.335 . S
C220 N219 1.345 . S
C220 H225 0.930 . S
C221 N218 1.390 . S
C221 C222 1.346 . S
C221 H226 0.930 . S
C222 N219 1.336 . S
C222 C221 1.346 . S
C222 H229 0.929 . S
C223 O213 1.282 . S
C223 O224 1.216 . S
O224 C223 1.216 . S
H225 C220 0.930 . S
H226 C221 0.930 . S
O227 Cu207 1.959 . S
O227 C214 1.251 . S
H228 C211 0.930 . S
H229 C222 0.929 . S
Cu230 N231 1.999 . S
Cu230 O236 1.974 . S
Cu230 N241 1.985 . S
Cu230 O250 1.959 . S
N231 Cu230 1.999 . S
N231 C233 1.263 . S
N231 C235 1.389 . S
N232 C233 1.358 . S
N232 C234 1.400 . S
C233 N231 1.263 . S
C233 N232 1.358 . S
C233 H239 0.930 . S
C234 N232 1.400 . S
C234 C235 1.351 . S
C234 H251 0.930 . S
C235 N231 1.389 . S
C235 C234 1.351 . S
C235 H240 0.930 . S
O236 Cu230 1.974 . S
O236 C246 1.282 . S
C237 O238 1.261 . S
C237 O250 1.251 . S
O238 C237 1.261 . S
H239 C233 0.930 . S
H240 C235 0.930 . S
N241 Cu230 1.985 . S
N241 C243 1.335 . S
N241 C244 1.390 . S
N242 C243 1.345 . S
N242 C245 1.336 . S
C243 N241 1.335 . S
C243 N242 1.345 . S
C243 H248 0.930 . S
C244 N241 1.390 . S
C244 C245 1.346 . S
C244 H249 0.930 . S
C245 N242 1.336 . S
C245 C244 1.346 . S
C245 H252 0.929 . S
C246 O236 1.282 . S
C246 O247 1.216 . S
O247 C246 1.216 . S
H248 C243 0.930 . S
H249 C244 0.930 . S
O250 Cu230 1.959 . S
O250 C237 1.251 . S
H251 C234 0.930 . S
H252 C245 0.929 . S
Cu253 N254 1.999 . S
Cu253 O259 1.974 . S
Cu253 N264 1.985 . S
Cu253 O273 1.959 . S
N254 Cu253 1.999 . S
N254 C256 1.263 . S
N254 C258 1.389 . S
N255 C256 1.358 . S
N255 C257 1.400 . S
C256 N254 1.263 . S
C256 N255 1.358 . S
C256 H262 0.930 . S
C257 N255 1.400 . S
C257 C258 1.351 . S
C257 H274 0.930 . S
C258 N254 1.389 . S
C258 C257 1.351 . S
C258 H263 0.930 . S
O259 Cu253 1.974 . S
O259 C269 1.282 . S
C260 O261 1.261 . S
C260 O273 1.251 . S
O261 C260 1.261 . S
H262 C256 0.930 . S
H263 C258 0.930 . S
N264 Cu253 1.985 . S
N264 C266 1.335 . S
N264 C267 1.390 . S
N265 C266 1.345 . S
N265 C268 1.336 . S
C266 N264 1.335 . S
C266 N265 1.345 . S
C266 H271 0.930 . S
C267 N264 1.390 . S
C267 C268 1.346 . S
C267 H272 0.930 . S
C268 N265 1.336 . S
C268 C267 1.346 . S
C268 H275 0.929 . S
C269 O259 1.282 . S
C269 O270 1.216 . S
O270 C269 1.216 . S
H271 C266 0.930 . S
H272 C267 0.930 . S
O273 Cu253 1.959 . S
O273 C260 1.251 . S
H274 C257 0.930 . S
H275 C268 0.929 . S
H276 C284 0.929 . S
H277 C286 0.930 . S
H278 C288 0.930 . S
H279 C291 0.929 . S
H280 C294 0.930 . S
H281 C296 0.960 . S
H282 C296 0.960 . S
H283 C296 0.960 . S
C284 H276 0.929 . S
C284 C285 1.377 . S
C284 C286 1.384 . S
C285 C284 1.377 . S
C285 C291 1.390 . S
C286 H277 0.930 . S
C286 C284 1.384 . S
C286 C287 1.372 . S
C287 C286 1.372 . S
C287 C288 1.400 . S
C287 C292 1.490 . S
C288 H278 0.930 . S
C288 C287 1.400 . S
C288 C291 1.386 . S
H289 C305 0.930 . S
H290 C306 0.931 . S
C291 H279 0.929 . S
C291 C285 1.390 . S
C291 C288 1.386 . S
C292 C287 1.490 . S
C292 C294 1.395 . S
C292 C295 1.403 . S
H293 C299 0.930 . S
C294 H280 0.930 . S
C294 C292 1.395 . S
C294 C297 1.403 1_556 S
C295 C292 1.403 . S
C295 C296 1.524 . S
C295 C299 1.400 1_556 S
C296 H281 0.960 . S
C296 H282 0.960 . S
C296 H283 0.960 . S
C296 C295 1.524 . S
C297 C294 1.403 1_554 S
C297 C298 1.392 . S
C297 C301 1.495 . S
C298 C297 1.392 . S
C298 C299 1.385 . S
C298 C300 1.478 . S
C299 H293 0.930 . S
C299 C295 1.400 1_554 S
C299 C298 1.385 . S
C300 C298 1.478 . S
C300 C302 1.381 . S
C300 C306 1.383 . S
C301 C297 1.495 . S
C301 H307 0.959 . S
C301 H308 0.961 . S
C301 H309 0.960 . S
C302 C300 1.381 . S
C302 C303 1.394 . S
C302 H310 0.930 . S
C303 C302 1.394 . S
C303 C304 1.383 . S
C303 H311 0.929 . S
C304 C303 1.383 . S
C304 C305 1.377 . S
C305 H289 0.930 . S
C305 C304 1.377 . S
C305 C306 1.379 . S
C306 H290 0.931 . S
C306 C300 1.383 . S
C306 C305 1.379 . S
H307 C301 0.959 . S
H308 C301 0.961 . S
H309 C301 0.960 . S
H310 C302 0.930 . S
H311 C303 0.929 . S
H312 C320 0.929 . S
H313 C322 0.930 . S
H314 C324 0.930 . S
H315 C327 0.929 . S
H316 C330 0.930 . S
H317 C332 0.960 . S
H318 C332 0.960 . S
H319 C332 0.960 . S
C320 H312 0.929 . S
C320 C321 1.377 . S
C320 C322 1.384 . S
C321 C320 1.377 . S
C321 C327 1.390 . S
C322 H313 0.930 . S
C322 C320 1.384 . S
C322 C323 1.372 . S
C323 C322 1.372 . S
C323 C324 1.400 . S
C323 C328 1.490 . S
C324 H314 0.930 . S
C324 C323 1.400 . S
C324 C327 1.386 . S
H325 C341 0.930 . S
H326 C342 0.931 . S
C327 H315 0.929 . S
C327 C321 1.390 . S
C327 C324 1.386 . S
C328 C323 1.490 . S
C328 C330 1.395 . S
C328 C331 1.403 . S
H329 C335 0.930 . S
C330 H316 0.930 . S
C330 C328 1.395 . S
C330 C333 1.403 . S
C331 C328 1.403 . S
C331 C332 1.524 . S
C331 C335 1.400 . S
C332 H317 0.960 . S
C332 H318 0.960 . S
C332 H319 0.960 . S
C332 C331 1.524 . S
C333 C330 1.403 . S
C333 C334 1.392 . S
C333 C337 1.495 . S
C334 C333 1.392 . S
C334 C335 1.385 . S
C334 C336 1.478 . S
C335 H329 0.930 . S
C335 C331 1.400 . S
C335 C334 1.385 . S
C336 C334 1.478 . S
C336 C338 1.381 . S
C336 C342 1.383 . S
C337 C333 1.495 . S
C337 H343 0.959 . S
C337 H344 0.961 . S
C337 H345 0.960 . S
C338 C336 1.381 . S
C338 C339 1.394 . S
C338 H346 0.930 . S
C339 C338 1.394 . S
C339 C340 1.383 . S
C339 H347 0.929 . S
C340 C339 1.383 . S
C340 C341 1.377 . S
C341 H325 0.930 . S
C341 C340 1.377 . S
C341 C342 1.379 . S
C342 H326 0.931 . S
C342 C336 1.383 . S
C342 C341 1.379 . S
H343 C337 0.959 . S
H344 C337 0.961 . S
H345 C337 0.960 . S
H346 C338 0.930 . S
H347 C339 0.929 . S
H348 C356 0.929 . S
H349 C358 0.930 . S
H350 C360 0.930 . S
H351 C363 0.929 . S
H352 C366 0.930 . S
H353 C368 0.960 . S
H354 C368 0.960 . S
H355 C368 0.960 . S
C356 H348 0.929 . S
C356 C357 1.377 . S
C356 C358 1.384 . S
C357 C356 1.377 . S
C357 C363 1.390 . S
C358 H349 0.930 . S
C358 C356 1.384 . S
C358 C359 1.372 . S
C359 C358 1.372 . S
C359 C360 1.400 . S
C359 C364 1.490 . S
C360 H350 0.930 . S
C360 C359 1.400 . S
C360 C363 1.386 . S
H361 C377 0.930 . S
H362 C378 0.931 . S
C363 H351 0.929 . S
C363 C357 1.390 . S
C363 C360 1.386 . S
C364 C359 1.490 . S
C364 C366 1.395 . S
C364 C367 1.403 . S
H365 C371 0.930 . S
C366 H352 0.930 . S
C366 C364 1.395 . S
C366 C369 1.403 . S
C367 C364 1.403 . S
C367 C368 1.524 . S
C367 C371 1.400 . S
C368 H353 0.960 . S
C368 H354 0.960 . S
C368 H355 0.960 . S
C368 C367 1.524 . S
C369 C366 1.403 . S
C369 C370 1.392 . S
C369 C373 1.495 . S
C370 C369 1.392 . S
C370 C371 1.385 . S
C370 C372 1.478 . S
C371 H365 0.930 . S
C371 C367 1.400 . S
C371 C370 1.385 . S
C372 C370 1.478 . S
C372 C374 1.381 . S
C372 C378 1.383 . S
C373 C369 1.495 . S
C373 H379 0.959 . S
C373 H380 0.961 . S
C373 H381 0.960 . S
C374 C372 1.381 . S
C374 C375 1.394 . S
C374 H382 0.930 . S
C375 C374 1.394 . S
C375 C376 1.383 . S
C375 H383 0.929 . S
C376 C375 1.383 . S
C376 C377 1.377 . S
C377 H361 0.930 . S
C377 C376 1.377 . S
C377 C378 1.379 . S
C378 H362 0.931 . S
C378 C372 1.383 . S
C378 C377 1.379 . S
H379 C373 0.959 . S
H380 C373 0.961 . S
H381 C373 0.960 . S
H382 C374 0.930 . S
H383 C375 0.929 . S
H384 C392 0.929 . S
H385 C394 0.930 . S
H386 C396 0.930 . S
H387 C399 0.929 . S
H388 C402 0.930 . S
H389 C404 0.960 . S
H390 C404 0.960 . S
H391 C404 0.960 . S
C392 H384 0.929 . S
C392 C393 1.377 . S
C392 C394 1.384 . S
C393 C392 1.377 . S
C393 C399 1.390 . S
C394 H385 0.930 . S
C394 C392 1.384 . S
C394 C395 1.372 . S
C395 C394 1.372 . S
C395 C396 1.400 . S
C395 C400 1.490 . S
C396 H386 0.930 . S
C396 C395 1.400 . S
C396 C399 1.386 . S
H397 C413 0.930 . S
H398 C414 0.931 . S
C399 H387 0.929 . S
C399 C393 1.390 . S
C399 C396 1.386 . S
C400 C395 1.490 . S
C400 C402 1.395 . S
C400 C403 1.403 . S
H401 C407 0.930 . S
C402 H388 0.930 . S
C402 C400 1.395 . S
C402 C405 1.403 1_554 S
C403 C400 1.403 . S
C403 C404 1.524 . S
C403 C407 1.400 1_554 S
C404 H389 0.960 . S
C404 H390 0.960 . S
C404 H391 0.960 . S
C404 C403 1.524 . S
C405 C402 1.403 1_556 S
C405 C406 1.392 . S
C405 C409 1.495 . S
C406 C405 1.392 . S
C406 C407 1.385 . S
C406 C408 1.478 . S
C407 H401 0.930 . S
C407 C403 1.400 1_556 S
C407 C406 1.385 . S
C408 C406 1.478 . S
C408 C410 1.381 . S
C408 C414 1.383 . S
C409 C405 1.495 . S
C409 H415 0.959 . S
C409 H416 0.961 . S
C409 H417 0.960 . S
C410 C408 1.381 . S
C410 C411 1.394 . S
C410 H418 0.930 . S
C411 C410 1.394 . S
C411 C412 1.383 . S
C411 H419 0.929 . S
C412 C411 1.383 . S
C412 C413 1.377 . S
C413 H397 0.930 . S
C413 C412 1.377 . S
C413 C414 1.379 . S
C414 H398 0.931 . S
C414 C408 1.383 . S
C414 C413 1.379 . S
H415 C409 0.959 . S
H416 C409 0.961 . S
H417 C409 0.960 . S
H418 C410 0.930 . S
H419 C411 0.929 . S
H420 C428 0.929 . S
H421 C430 0.930 . S
H422 C432 0.930 . S
H423 C435 0.929 . S
H424 C438 0.930 . S
H425 C440 0.960 . S
H426 C440 0.960 . S
H427 C440 0.960 . S
C428 H420 0.929 . S
C428 C429 1.377 . S
C428 C430 1.384 . S
C429 C428 1.377 . S
C429 C435 1.390 . S
C430 H421 0.930 . S
C430 C428 1.384 . S
C430 C431 1.372 . S
C431 C430 1.372 . S
C431 C432 1.400 . S
C431 C436 1.490 . S
C432 H422 0.930 . S
C432 C431 1.400 . S
C432 C435 1.386 . S
H433 C449 0.930 . S
H434 C450 0.931 . S
C435 H423 0.929 . S
C435 C429 1.390 . S
C435 C432 1.386 . S
C436 C431 1.490 . S
C436 C438 1.395 . S
C436 C439 1.403 . S
H437 C443 0.930 . S
C438 H424 0.930 . S
C438 C436 1.395 . S
C438 C441 1.403 . S
C439 C436 1.403 . S
C439 C440 1.524 . S
C439 C443 1.400 . S
C440 H425 0.960 . S
C440 H426 0.960 . S
C440 H427 0.960 . S
C440 C439 1.524 . S
C441 C438 1.403 . S
C441 C442 1.392 . S
C441 C445 1.495 . S
C442 C441 1.392 . S
C442 C443 1.385 . S
C442 C444 1.478 . S
C443 H437 0.930 . S
C443 C439 1.400 . S
C443 C442 1.385 . S
C444 C442 1.478 . S
C444 C446 1.381 . S
C444 C450 1.383 . S
C445 C441 1.495 . S
C445 H451 0.959 . S
C445 H452 0.961 . S
C445 H453 0.960 . S
C446 C444 1.381 . S
C446 C447 1.394 . S
C446 H454 0.930 . S
C447 C446 1.394 . S
C447 C448 1.383 . S
C447 H455 0.929 . S
C448 C447 1.383 . S
C448 C449 1.377 . S
C449 H433 0.930 . S
C449 C448 1.377 . S
C449 C450 1.379 . S
C450 H434 0.931 . S
C450 C444 1.383 . S
C450 C449 1.379 . S
H451 C445 0.959 . S
H452 C445 0.961 . S
H453 C445 0.960 . S
H454 C446 0.930 . S
H455 C447 0.929 . S
H456 C464 0.929 . S
H457 C466 0.930 . S
H458 C468 0.930 . S
H459 C471 0.929 . S
H460 C474 0.930 . S
H461 C476 0.960 . S
H462 C476 0.960 . S
H463 C476 0.960 . S
C464 H456 0.929 . S
C464 C465 1.377 . S
C464 C466 1.384 . S
C465 C464 1.377 . S
C465 C471 1.390 . S
C466 H457 0.930 . S
C466 C464 1.384 . S
C466 C467 1.372 . S
C467 C466 1.372 . S
C467 C468 1.400 . S
C467 C472 1.490 . S
C468 H458 0.930 . S
C468 C467 1.400 . S
C468 C471 1.386 . S
H469 C485 0.930 . S
H470 C486 0.931 . S
C471 H459 0.929 . S
C471 C465 1.390 . S
C471 C468 1.386 . S
C472 C467 1.490 . S
C472 C474 1.395 . S
C472 C475 1.403 . S
H473 C479 0.930 . S
C474 H460 0.930 . S
C474 C472 1.395 . S
C474 C477 1.403 . S
C475 C472 1.403 . S
C475 C476 1.524 . S
C475 C479 1.400 . S
C476 H461 0.960 . S
C476 H462 0.960 . S
C476 H463 0.960 . S
C476 C475 1.524 . S
C477 C474 1.403 . S
C477 C478 1.392 . S
C477 C481 1.495 . S
C478 C477 1.392 . S
C478 C479 1.385 . S
C478 C480 1.478 . S
C479 H473 0.930 . S
C479 C475 1.400 . S
C479 C478 1.385 . S
C480 C478 1.478 . S
C480 C482 1.381 . S
C480 C486 1.383 . S
C481 C477 1.495 . S
C481 H487 0.959 . S
C481 H488 0.961 . S
C481 H489 0.960 . S
C482 C480 1.381 . S
C482 C483 1.394 . S
C482 H490 0.930 . S
C483 C482 1.394 . S
C483 C484 1.383 . S
C483 H491 0.929 . S
C484 C483 1.383 . S
C484 C485 1.377 . S
C485 H469 0.930 . S
C485 C484 1.377 . S
C485 C486 1.379 . S
C486 H470 0.931 . S
C486 C480 1.383 . S
C486 C485 1.379 . S
H487 C481 0.959 . S
H488 C481 0.961 . S
H489 C481 0.960 . S
H490 C482 0.930 . S
H491 C483 0.929 . S
H492 C500 0.929 . S
H493 C502 0.930 . S
H494 C504 0.930 . S
H495 C507 0.929 . S
H496 C510 0.930 . S
H497 C512 0.960 . S
H498 C512 0.960 . S
H499 C512 0.960 . S
C500 H492 0.929 . S
C500 C501 1.377 . S
C500 C502 1.384 . S
C501 C500 1.377 . S
C501 C507 1.390 . S
C502 H493 0.930 . S
C502 C500 1.384 . S
C502 C503 1.372 . S
C503 C502 1.372 . S
C503 C504 1.400 . S
C503 C508 1.490 . S
C504 H494 0.930 . S
C504 C503 1.400 . S
C504 C507 1.386 . S
H505 C521 0.930 . S
H506 C522 0.931 . S
C507 H495 0.929 . S
C507 C501 1.390 . S
C507 C504 1.386 . S
C508 C503 1.490 . S
C508 C510 1.395 . S
C508 C511 1.403 . S
H509 C515 0.930 . S
C510 H496 0.930 . S
C510 C508 1.395 . S
C510 C513 1.403 . S
C511 C508 1.403 . S
C511 C512 1.524 . S
C511 C515 1.400 . S
C512 H497 0.960 . S
C512 H498 0.960 . S
C512 H499 0.960 . S
C512 C511 1.524 . S
C513 C510 1.403 . S
C513 C514 1.392 . S
C513 C517 1.495 . S
C514 C513 1.392 . S
C514 C515 1.385 . S
C514 C516 1.478 . S
C515 H509 0.930 . S
C515 C511 1.400 . S
C515 C514 1.385 . S
C516 C514 1.478 . S
C516 C518 1.381 . S
C516 C522 1.383 . S
C517 C513 1.495 . S
C517 H523 0.959 . S
C517 H524 0.961 . S
C517 H525 0.960 . S
C518 C516 1.381 . S
C518 C519 1.394 . S
C518 H526 0.930 . S
C519 C518 1.394 . S
C519 C520 1.383 . S
C519 H527 0.929 . S
C520 C519 1.383 . S
C520 C521 1.377 . S
C521 H505 0.930 . S
C521 C520 1.377 . S
C521 C522 1.379 . S
C522 H506 0.931 . S
C522 C516 1.383 . S
C522 C521 1.379 . S
H523 C517 0.959 . S
H524 C517 0.961 . S
H525 C517 0.960 . S
H526 C518 0.930 . S
H527 C519 0.929 . S
H528 C536 0.929 . S
H529 C538 0.930 . S
H530 C540 0.930 . S
H531 C543 0.929 . S
H532 C546 0.930 . S
H533 C548 0.960 . S
H534 C548 0.960 . S
H535 C548 0.960 . S
C536 H528 0.929 . S
C536 C537 1.377 . S
C536 C538 1.384 . S
C537 C536 1.377 . S
C537 C543 1.390 . S
C538 H529 0.930 . S
C538 C536 1.384 . S
C538 C539 1.372 . S
C539 C538 1.372 . S
C539 C540 1.400 . S
C539 C544 1.490 . S
C540 H530 0.930 . S
C540 C539 1.400 . S
C540 C543 1.386 . S
H541 C557 0.930 . S
H542 C558 0.931 . S
C543 H531 0.929 . S
C543 C537 1.390 . S
C543 C540 1.386 . S
C544 C539 1.490 . S
C544 C546 1.395 . S
C544 C547 1.403 . S
H545 C551 0.930 . S
C546 H532 0.930 . S
C546 C544 1.395 . S
C546 C549 1.403 . S
C547 C544 1.403 . S
C547 C548 1.524 . S
C547 C551 1.400 . S
C548 H533 0.960 . S
C548 H534 0.960 . S
C548 H535 0.960 . S
C548 C547 1.524 . S
C549 C546 1.403 . S
C549 C550 1.392 . S
C549 C553 1.495 . S
C550 C549 1.392 . S
C550 C551 1.385 . S
C550 C552 1.478 . S
C551 H545 0.930 . S
C551 C547 1.400 . S
C551 C550 1.385 . S
C552 C550 1.478 . S
C552 C554 1.381 . S
C552 C558 1.383 . S
C553 C549 1.495 . S
C553 H559 0.959 . S
C553 H560 0.961 . S
C553 H561 0.960 . S
C554 C552 1.381 . S
C554 C555 1.394 . S
C554 H562 0.930 . S
C555 C554 1.394 . S
C555 C556 1.383 . S
C555 H563 0.929 . S
C556 C555 1.383 . S
C556 C557 1.377 . S
C557 H541 0.930 . S
C557 C556 1.377 . S
C557 C558 1.379 . S
C558 H542 0.931 . S
C558 C552 1.383 . S
C558 C557 1.379 . S
H559 C553 0.959 . S
H560 C553 0.961 . S
H561 C553 0.960 . S
H562 C554 0.930 . S
H563 C555 0.929 . S
H564 C572 0.929 . S
H565 C574 0.930 . S
H566 C576 0.930 . S
H567 C579 0.929 . S
H568 C582 0.930 . S
H569 C584 0.960 . S
H570 C584 0.960 . S
H571 C584 0.960 . S
C572 H564 0.929 . S
C572 C573 1.377 . S
C572 C574 1.384 . S
C573 C572 1.377 . S
C573 C579 1.390 . S
C574 H565 0.930 . S
C574 C572 1.384 . S
C574 C575 1.372 . S
C575 C574 1.372 . S
C575 C576 1.400 . S
C575 C580 1.490 . S
C576 H566 0.930 . S
C576 C575 1.400 . S
C576 C579 1.386 . S
H577 C593 0.930 . S
H578 C594 0.931 . S
C579 H567 0.929 . S
C579 C573 1.390 . S
C579 C576 1.386 . S
C580 C575 1.490 . S
C580 C582 1.395 . S
C580 C583 1.403 . S
H581 C587 0.930 . S
C582 H568 0.930 . S
C582 C580 1.395 . S
C582 C585 1.403 . S
C583 C580 1.403 . S
C583 C584 1.524 . S
C583 C587 1.400 . S
C584 H569 0.960 . S
C584 H570 0.960 . S
C584 H571 0.960 . S
C584 C583 1.524 . S
C585 C582 1.403 . S
C585 C586 1.392 . S
C585 C589 1.495 . S
C586 C585 1.392 . S
C586 C587 1.385 . S
C586 C588 1.478 . S
C587 H581 0.930 . S
C587 C583 1.400 . S
C587 C586 1.385 . S
C588 C586 1.478 . S
C588 C590 1.381 . S
C588 C594 1.383 . S
C589 C585 1.495 . S
C589 H595 0.959 . S
C589 H596 0.961 . S
C589 H597 0.960 . S
C590 C588 1.381 . S
C590 C591 1.394 . S
C590 H598 0.930 . S
C591 C590 1.394 . S
C591 C592 1.383 . S
C591 H599 0.929 . S
C592 C591 1.383 . S
C592 C593 1.377 . S
C593 H577 0.930 . S
C593 C592 1.377 . S
C593 C594 1.379 . S
C594 H578 0.931 . S
C594 C588 1.383 . S
C594 C593 1.379 . S
H595 C589 0.959 . S
H596 C589 0.961 . S
H597 C589 0.960 . S
H598 C590 0.930 . S
H599 C591 0.929 . S
H600 C608 0.929 . S
H601 C610 0.930 . S
H602 C612 0.930 . S
H603 C615 0.929 . S
H604 C618 0.930 . S
H605 C620 0.960 . S
H606 C620 0.960 . S
H607 C620 0.960 . S
C608 H600 0.929 . S
C608 C609 1.377 . S
C608 C610 1.384 . S
C609 C608 1.377 . S
C609 C615 1.390 . S
C610 H601 0.930 . S
C610 C608 1.384 . S
C610 C611 1.372 . S
C611 C610 1.372 . S
C611 C612 1.400 . S
C611 C616 1.490 . S
C612 H602 0.930 . S
C612 C611 1.400 . S
C612 C615 1.386 . S
H613 C629 0.930 . S
H614 C630 0.931 . S
C615 H603 0.929 . S
C615 C609 1.390 . S
C615 C612 1.386 . S
C616 C611 1.490 . S
C616 C618 1.395 . S
C616 C619 1.403 . S
H617 C623 0.930 . S
C618 H604 0.930 . S
C618 C616 1.395 . S
C618 C621 1.403 . S
C619 C616 1.403 . S
C619 C620 1.524 . S
C619 C623 1.400 . S
C620 H605 0.960 . S
C620 H606 0.960 . S
C620 H607 0.960 . S
C620 C619 1.524 . S
C621 C618 1.403 . S
C621 C622 1.392 . S
C621 C625 1.495 . S
C622 C621 1.392 . S
C622 C623 1.385 . S
C622 C624 1.478 . S
C623 H617 0.930 . S
C623 C619 1.400 . S
C623 C622 1.385 . S
C624 C622 1.478 . S
C624 C626 1.381 . S
C624 C630 1.383 . S
C625 C621 1.495 . S
C625 H631 0.959 . S
C625 H632 0.961 . S
C625 H633 0.960 . S
C626 C624 1.381 . S
C626 C627 1.394 . S
C626 H634 0.930 . S
C627 C626 1.394 . S
C627 C628 1.383 . S
C627 H635 0.929 . S
C628 C627 1.383 . S
C628 C629 1.377 . S
C629 H613 0.930 . S
C629 C628 1.377 . S
C629 C630 1.379 . S
C630 H614 0.931 . S
C630 C624 1.383 . S
C630 C629 1.379 . S
H631 C625 0.959 . S
H632 C625 0.961 . S
H633 C625 0.960 . S
H634 C626 0.930 . S
H635 C627 0.929 . S
H636 C644 0.929 . S
H637 C646 0.930 . S
H638 C648 0.930 . S
H639 C651 0.929 . S
H640 C654 0.930 . S
H641 C656 0.960 . S
H642 C656 0.960 . S
H643 C656 0.960 . S
C644 H636 0.929 . S
C644 C645 1.377 . S
C644 C646 1.384 . S
C645 C644 1.377 . S
C645 C651 1.390 . S
C646 H637 0.930 . S
C646 C644 1.384 . S
C646 C647 1.372 . S
C647 C646 1.372 . S
C647 C648 1.400 . S
C647 C652 1.490 . S
C648 H638 0.930 . S
C648 C647 1.400 . S
C648 C651 1.386 . S
H649 C665 0.930 . S
H650 C666 0.931 . S
C651 H639 0.929 . S
C651 C645 1.390 . S
C651 C648 1.386 . S
C652 C647 1.490 . S
C652 C654 1.395 . S
C652 C655 1.403 . S
H653 C659 0.930 . S
C654 H640 0.930 . S
C654 C652 1.395 . S
C654 C657 1.403 . S
C655 C652 1.403 . S
C655 C656 1.524 . S
C655 C659 1.400 . S
C656 H641 0.960 . S
C656 H642 0.960 . S
C656 H643 0.960 . S
C656 C655 1.524 . S
C657 C654 1.403 . S
C657 C658 1.392 . S
C657 C661 1.495 . S
C658 C657 1.392 . S
C658 C659 1.385 . S
C658 C660 1.478 . S
C659 H653 0.930 . S
C659 C655 1.400 . S
C659 C658 1.385 . S
C660 C658 1.478 . S
C660 C662 1.381 . S
C660 C666 1.383 . S
C661 C657 1.495 . S
C661 H667 0.959 . S
C661 H668 0.961 . S
C661 H669 0.960 . S
C662 C660 1.381 . S
C662 C663 1.394 . S
C662 H670 0.930 . S
C663 C662 1.394 . S
C663 C664 1.383 . S
C663 H671 0.929 . S
C664 C663 1.383 . S
C664 C665 1.377 . S
C665 H649 0.930 . S
C665 C664 1.377 . S
C665 C666 1.379 . S
C666 H650 0.931 . S
C666 C660 1.383 . S
C666 C665 1.379 . S
H667 C661 0.959 . S
H668 C661 0.961 . S
H669 C661 0.960 . S
H670 C662 0.930 . S
H671 C663 0.929 . S
H672 C680 0.929 . S
H673 C682 0.930 . S
H674 C684 0.930 . S
H675 C687 0.929 . S
H676 C690 0.930 . S
H677 C692 0.960 . S
H678 C692 0.960 . S
H679 C692 0.960 . S
C680 H672 0.929 . S
C680 C681 1.377 . S
C680 C682 1.384 . S
C681 C680 1.377 . S
C681 C687 1.390 . S
C682 H673 0.930 . S
C682 C680 1.384 . S
C682 C683 1.372 . S
C683 C682 1.372 . S
C683 C684 1.400 . S
C683 C688 1.490 . S
C684 H674 0.930 . S
C684 C683 1.400 . S
C684 C687 1.386 . S
H685 C701 0.930 . S
H686 C702 0.931 . S
C687 H675 0.929 . S
C687 C681 1.390 . S
C687 C684 1.386 . S
C688 C683 1.490 . S
C688 C690 1.395 . S
C688 C691 1.403 . S
H689 C695 0.930 . S
C690 H676 0.930 . S
C690 C688 1.395 . S
C690 C693 1.403 . S
C691 C688 1.403 . S
C691 C692 1.524 . S
C691 C695 1.400 . S
C692 H677 0.960 . S
C692 H678 0.960 . S
C692 H679 0.960 . S
C692 C691 1.524 . S
C693 C690 1.403 . S
C693 C694 1.392 . S
C693 C697 1.495 . S
C694 C693 1.392 . S
C694 C695 1.385 . S
C694 C696 1.478 . S
C695 H689 0.930 . S
C695 C691 1.400 . S
C695 C694 1.385 . S
C696 C694 1.478 . S
C696 C698 1.381 . S
C696 C702 1.383 . S
C697 C693 1.495 . S
C697 H703 0.959 . S
C697 H704 0.961 . S
C697 H705 0.960 . S
C698 C696 1.381 . S
C698 C699 1.394 . S
C698 H706 0.930 . S
C699 C698 1.394 . S
C699 C700 1.383 . S
C699 H707 0.929 . S
C700 C699 1.383 . S
C700 C701 1.377 . S
C701 H685 0.930 . S
C701 C700 1.377 . S
C701 C702 1.379 . S
C702 H686 0.931 . S
C702 C696 1.383 . S
C702 C701 1.379 . S
H703 C697 0.959 . S
H704 C697 0.961 . S
H705 C697 0.960 . S
H706 C698 0.930 . S
H707 C699 0.929 . S
H708 C716 0.929 . S
H709 C718 0.930 . S
H710 C720 0.930 . S
H711 C723 0.929 . S
H712 C726 0.930 . S
H713 C728 0.960 1_455 S
H714 C728 0.960 . S
H715 C728 0.960 . S
C716 H708 0.929 . S
C716 C717 1.377 . S
C716 C718 1.384 . S
C717 C716 1.377 . S
C717 C723 1.390 . S
C718 H709 0.930 . S
C718 C716 1.384 . S
C718 C719 1.372 . S
C719 C718 1.372 . S
C719 C720 1.400 . S
C719 C724 1.490 . S
C720 H710 0.930 . S
C720 C719 1.400 . S
C720 C723 1.386 . S
H721 C737 0.930 . S
H722 C738 0.931 . S
C723 H711 0.929 . S
C723 C717 1.390 . S
C723 C720 1.386 . S
C724 C719 1.490 . S
C724 C726 1.395 . S
C724 C727 1.403 . S
H725 C731 0.930 . S
C726 H712 0.930 . S
C726 C724 1.395 . S
C726 C729 1.403 1_655 S
C727 C724 1.403 . S
C727 C728 1.524 . S
C727 C731 1.400 1_655 S
C728 H713 0.960 1_655 S
C728 H714 0.960 . S
C728 H715 0.960 . S
C728 C727 1.524 . S
C729 C726 1.403 1_455 S
C729 C730 1.392 . S
C729 C733 1.495 . S
C730 C729 1.392 . S
C730 C731 1.385 . S
C730 C732 1.478 . S
C731 H725 0.930 . S
C731 C727 1.400 1_455 S
C731 C730 1.385 . S
C732 C730 1.478 . S
C732 C734 1.381 . S
C732 C738 1.383 . S
C733 C729 1.495 . S
C733 H739 0.959 1_455 S
C733 H740 0.961 . S
C733 H741 0.960 . S
C734 C732 1.381 . S
C734 C735 1.394 . S
C734 H742 0.930 . S
C735 C734 1.394 . S
C735 C736 1.383 . S
C735 H743 0.929 . S
C736 C735 1.383 . S
C736 C737 1.377 . S
C737 H721 0.930 . S
C737 C736 1.377 . S
C737 C738 1.379 . S
C738 H722 0.931 . S
C738 C732 1.383 . S
C738 C737 1.379 . S
H739 C733 0.959 1_655 S
H740 C733 0.961 . S
H741 C733 0.960 . S
H742 C734 0.930 . S
H743 C735 0.929 . S
H744 C752 0.929 . S
H745 C754 0.930 . S
H746 C756 0.930 . S
H747 C759 0.929 . S
H748 C762 0.930 . S
H749 C764 0.960 . S
H750 C764 0.960 1_545 S
H751 C764 0.960 1_545 S
C752 H744 0.929 . S
C752 C753 1.377 . S
C752 C754 1.384 . S
C753 C752 1.377 . S
C753 C759 1.390 . S
C754 H745 0.930 . S
C754 C752 1.384 . S
C754 C755 1.372 . S
C755 C754 1.372 . S
C755 C756 1.400 . S
C755 C760 1.490 . S
C756 H746 0.930 . S
C756 C755 1.400 . S
C756 C759 1.386 . S
H757 C773 0.930 . S
H758 C774 0.931 . S
C759 H747 0.929 . S
C759 C753 1.390 . S
C759 C756 1.386 . S
C760 C755 1.490 . S
C760 C762 1.395 . S
C760 C763 1.363 1_545 S
H761 C767 0.930 . S
C762 H748 0.930 . S
C762 C760 1.395 . S
C762 C765 1.403 . S
C763 C760 1.363 1_565 S
C763 C764 1.546 . S
C763 C767 1.419 . S
C764 H749 0.960 . S
C764 H750 0.960 1_565 S
C764 H751 0.960 1_565 S
C764 C763 1.546 . S
C765 C762 1.403 . S
C765 C766 1.392 1_545 S
C765 C769 1.495 . S
C766 C765 1.392 1_565 S
C766 C767 1.385 . S
C766 C768 1.478 . S
C767 H761 0.930 . S
C767 C763 1.419 . S
C767 C766 1.385 . S
C768 C766 1.478 . S
C768 C770 1.381 . S
C768 C774 1.383 . S
C769 C765 1.495 . S
C769 H775 0.959 . S
C769 H776 0.955 1_545 S
C769 H777 0.960 1_545 S
C770 C768 1.381 . S
C770 C771 1.394 . S
C770 H778 0.930 . S
C771 C770 1.394 . S
C771 C772 1.383 . S
C771 H779 0.929 . S
C772 C771 1.383 . S
C772 C773 1.377 . S
C773 H757 0.930 . S
C773 C772 1.377 . S
C773 C774 1.379 . S
C774 H758 0.931 . S
C774 C768 1.383 . S
C774 C773 1.379 . S
H775 C769 0.959 . S
H776 C769 0.955 1_565 S
H777 C769 0.960 1_565 S
H778 C770 0.930 . S
H779 C771 0.929 . S
H780 C788 0.929 . S
H781 C790 0.930 . S
H782 C792 0.930 . S
H783 C795 0.929 . S
H784 C798 0.930 . S
H785 C800 0.960 . S
H786 C800 0.960 . S
H787 C800 0.960 . S
C788 H780 0.929 . S
C788 C789 1.377 . S
C788 C790 1.384 . S
C789 C788 1.377 . S
C789 C795 1.390 . S
C790 H781 0.930 . S
C790 C788 1.384 . S
C790 C791 1.372 . S
C791 C790 1.372 . S
C791 C792 1.400 . S
C791 C796 1.490 . S
C792 H782 0.930 . S
C792 C791 1.400 . S
C792 C795 1.386 . S
H793 C809 0.930 . S
H794 C810 0.931 . S
C795 H783 0.929 . S
C795 C789 1.390 . S
C795 C792 1.386 . S
C796 C791 1.490 . S
C796 C798 1.395 . S
C796 C799 1.403 . S
H797 C803 0.930 . S
C798 H784 0.930 . S
C798 C796 1.395 . S
C798 C801 1.403 . S
C799 C796 1.403 . S
C799 C800 1.524 . S
C799 C803 1.400 . S
C800 H785 0.960 . S
C800 H786 0.960 . S
C800 H787 0.960 . S
C800 C799 1.524 . S
C801 C798 1.403 . S
C801 C802 1.392 . S
C801 C805 1.495 . S
C802 C801 1.392 . S
C802 C803 1.385 . S
C802 C804 1.478 . S
C803 H797 0.930 . S
C803 C799 1.400 . S
C803 C802 1.385 . S
C804 C802 1.478 . S
C804 C806 1.381 . S
C804 C810 1.383 . S
C805 C801 1.495 . S
C805 H811 0.959 . S
C805 H812 0.961 . S
C805 H813 0.960 . S
C806 C804 1.381 . S
C806 C807 1.394 . S
C806 H814 0.930 . S
C807 C806 1.394 . S
C807 C808 1.383 . S
C807 H815 0.929 . S
C808 C807 1.383 . S
C808 C809 1.377 . S
C809 H793 0.930 . S
C809 C808 1.377 . S
C809 C810 1.379 . S
C810 H794 0.931 . S
C810 C804 1.383 . S
C810 C809 1.379 . S
H811 C805 0.959 . S
H812 C805 0.961 . S
H813 C805 0.960 . S
H814 C806 0.930 . S
H815 C807 0.929 . S
H816 C824 0.929 . S
H817 C826 0.930 . S
H818 C828 0.930 . S
H819 C831 0.929 . S
H820 C834 0.903 1_545 S
H821 C836 0.960 . S
H822 C836 0.960 . S
H823 C836 0.960 . S
C824 H816 0.929 . S
C824 C825 1.377 . S
C824 C826 1.384 . S
C825 C824 1.377 . S
C825 C831 1.390 . S
C826 H817 0.930 . S
C826 C824 1.384 . S
C826 C827 1.372 . S
C827 C826 1.372 . S
C827 C828 1.400 . S
C827 C832 1.490 . S
C828 H818 0.930 . S
C828 C827 1.400 . S
C828 C831 1.386 . S
H829 C845 0.930 . S
H830 C846 0.931 . S
C831 H819 0.929 . S
C831 C825 1.390 . S
C831 C828 1.386 . S
C832 C827 1.490 . S
C832 C834 1.383 1_545 S
C832 C835 1.403 . S
H833 C839 0.930 . S
C834 H820 0.903 1_565 S
C834 C832 1.383 1_565 S
C834 C837 1.427 . S
C835 C832 1.403 . S
C835 C836 1.524 . S
C835 C839 1.400 1_545 S
C836 H821 0.960 . S
C836 H822 0.960 . S
C836 H823 0.960 . S
C836 C835 1.524 . S
C837 C834 1.427 . S
C837 C838 1.392 . S
C837 C841 1.495 . S
C838 C837 1.392 . S
C838 C839 1.385 . S
C838 C840 1.478 . S
C839 H833 0.930 . S
C839 C835 1.400 1_565 S
C839 C838 1.385 . S
C840 C838 1.478 . S
C840 C842 1.381 . S
C840 C846 1.383 . S
C841 C837 1.495 . S
C841 H847 0.959 . S
C841 H848 0.961 . S
C841 H849 0.960 . S
C842 C840 1.381 . S
C842 C843 1.394 . S
C842 H850 0.930 . S
C843 C842 1.394 . S
C843 C844 1.383 . S
C843 H851 0.929 . S
C844 C843 1.383 . S
C844 C845 1.377 . S
C845 H829 0.930 . S
C845 C844 1.377 . S
C845 C846 1.379 . S
C846 H830 0.931 . S
C846 C840 1.383 . S
C846 C845 1.379 . S
H847 C841 0.959 . S
H848 C841 0.961 . S
H849 C841 0.960 . S
H850 C842 0.930 . S
H851 C843 0.929 . S
H852 C860 0.929 . S
H853 C862 0.930 . S
H854 C864 0.930 . S
H855 C867 0.929 . S
H856 C870 0.930 . S
H857 C872 0.960 . S
H858 C872 0.960 . S
H859 C872 0.960 . S
C860 H852 0.929 . S
C860 C861 1.377 . S
C860 C862 1.384 . S
C861 C860 1.377 . S
C861 C867 1.390 . S
C862 H853 0.930 . S
C862 C860 1.384 . S
C862 C863 1.372 . S
C863 C862 1.372 . S
C863 C864 1.400 . S
C863 C868 1.490 . S
C864 H854 0.930 . S
C864 C863 1.400 . S
C864 C867 1.386 . S
H865 C881 0.930 . S
H866 C882 0.931 . S
C867 H855 0.929 . S
C867 C861 1.390 . S
C867 C864 1.386 . S
C868 C863 1.490 . S
C868 C870 1.395 . S
C868 C871 1.403 . S
H869 C875 0.930 . S
C870 H856 0.930 . S
C870 C868 1.395 . S
C870 C873 1.403 . S
C871 C868 1.403 . S
C871 C872 1.524 . S
C871 C875 1.400 . S
C872 H857 0.960 . S
C872 H858 0.960 . S
C872 H859 0.960 . S
C872 C871 1.524 . S
C873 C870 1.403 . S
C873 C874 1.392 . S
C873 C877 1.495 . S
C874 C873 1.392 . S
C874 C875 1.385 . S
C874 C876 1.478 . S
C875 H869 0.930 . S
C875 C871 1.400 . S
C875 C874 1.385 . S
C876 C874 1.478 . S
C876 C878 1.381 . S
C876 C882 1.383 . S
C877 C873 1.495 . S
C877 H883 0.959 . S
C877 H884 0.961 . S
C877 H885 0.960 . S
C878 C876 1.381 . S
C878 C879 1.394 . S
C878 H886 0.930 . S
C879 C878 1.394 . S
C879 C880 1.383 . S
C879 H887 0.929 . S
C880 C879 1.383 . S
C880 C881 1.377 . S
C881 H865 0.930 . S
C881 C880 1.377 . S
C881 C882 1.379 . S
C882 H866 0.931 . S
C882 C876 1.383 . S
C882 C881 1.379 . S
H883 C877 0.959 . S
H884 C877 0.961 . S
H885 C877 0.960 . S
H886 C878 0.930 . S
H887 C879 0.929 . S
H888 C896 0.929 . S
H889 C898 0.930 . S
H890 C900 0.930 . S
H891 C903 0.929 . S
H892 C906 0.930 . S
H893 C908 0.960 . S
H894 C908 0.960 . S
H895 C908 0.960 . S
C896 H888 0.929 . S
C896 C897 1.377 . S
C896 C898 1.384 . S
C897 C896 1.377 . S
C897 C903 1.390 . S
C898 H889 0.930 . S
C898 C896 1.384 . S
C898 C899 1.372 . S
C899 C898 1.372 . S
C899 C900 1.400 . S
C899 C904 1.490 . S
C900 H890 0.930 . S
C900 C899 1.400 . S
C900 C903 1.386 . S
H901 C917 0.930 . S
H902 C918 0.931 . S
C903 H891 0.929 . S
C903 C897 1.390 . S
C903 C900 1.386 . S
C904 C899 1.490 . S
C904 C906 1.395 . S
C904 C907 1.403 1_455 S
H905 C911 0.930 . S
C906 H892 0.930 . S
C906 C904 1.395 . S
C906 C909 1.403 . S
C907 C904 1.403 1_655 S
C907 C908 1.524 . S
C907 C911 1.400 . S
C908 H893 0.960 . S
C908 H894 0.960 . S
C908 H895 0.960 . S
C908 C907 1.524 . S
C909 C906 1.403 . S
C909 C910 1.392 1_455 S
C909 C913 1.495 . S
C910 C909 1.392 1_655 S
C910 C911 1.385 . S
C910 C912 1.478 . S
C911 H905 0.930 . S
C911 C907 1.400 . S
C911 C910 1.385 . S
C912 C910 1.478 . S
C912 C914 1.381 . S
C912 C918 1.383 . S
C913 C909 1.495 . S
C913 H919 0.959 . S
C913 H920 0.961 . S
C913 H921 0.960 . S
C914 C912 1.381 . S
C914 C915 1.394 . S
C914 H922 0.930 . S
C915 C914 1.394 . S
C915 C916 1.383 . S
C915 H923 0.929 . S
C916 C915 1.383 . S
C916 C917 1.377 . S
C917 H901 0.930 . S
C917 C916 1.377 . S
C917 C918 1.379 . S
C918 H902 0.931 . S
C918 C912 1.383 . S
C918 C917 1.379 . S
H919 C913 0.959 . S
H920 C913 0.961 . S
H921 C913 0.960 . S
H922 C914 0.930 . S
H923 C915 0.929 . S
H924 C932 0.929 . S
H925 C934 0.930 . S
H926 C936 0.930 . S
H927 C939 0.929 . S
H928 C942 0.930 . S
H929 C944 0.960 . S
H930 C944 0.960 . S
H931 C944 0.960 . S
C932 H924 0.929 . S
C932 C933 1.377 . S
C932 C934 1.384 . S
C933 C932 1.377 . S
C933 C939 1.390 . S
C934 H925 0.930 . S
C934 C932 1.384 . S
C934 C935 1.372 . S
C935 C934 1.372 . S
C935 C936 1.400 . S
C935 C940 1.490 . S
C936 H926 0.930 . S
C936 C935 1.400 . S
C936 C939 1.386 . S
H937 C953 0.930 . S
H938 C954 0.931 . S
C939 H927 0.929 . S
C939 C933 1.390 . S
C939 C936 1.386 . S
C940 C935 1.490 . S
C940 C942 1.395 . S
C940 C943 1.403 . S
H941 C947 0.930 . S
C942 H928 0.930 . S
C942 C940 1.395 . S
C942 C945 1.403 . S
C943 C940 1.403 . S
C943 C944 1.524 . S
C943 C947 1.400 . S
C944 H929 0.960 . S
C944 H930 0.960 . S
C944 H931 0.960 . S
C944 C943 1.524 . S
C945 C942 1.403 . S
C945 C946 1.392 . S
C945 C949 1.495 . S
C946 C945 1.392 . S
C946 C947 1.385 . S
C946 C948 1.478 . S
C947 H941 0.930 . S
C947 C943 1.400 . S
C947 C946 1.385 . S
C948 C946 1.478 . S
C948 C950 1.381 . S
C948 C954 1.383 . S
C949 C945 1.495 . S
C949 H955 0.959 . S
C949 H956 0.961 . S
C949 H957 0.960 . S
C950 C948 1.381 . S
C950 C951 1.394 . S
C950 H958 0.930 . S
C951 C950 1.394 . S
C951 C952 1.383 . S
C951 H959 0.929 . S
C952 C951 1.383 . S
C952 C953 1.377 . S
C953 H937 0.930 . S
C953 C952 1.377 . S
C953 C954 1.379 . S
C954 H938 0.931 . S
C954 C948 1.383 . S
C954 C953 1.379 . S
H955 C949 0.959 . S
H956 C949 0.961 . S
H957 C949 0.960 . S
H958 C950 0.930 . S
H959 C951 0.929 . S
H960 C968 0.929 . S
H961 C970 0.930 . S
H962 C972 0.930 . S
H963 C975 0.929 . S
H964 C978 0.930 . S
H965 C980 0.960 . S
H966 C980 0.960 . S
H967 C980 0.960 . S
C968 H960 0.929 . S
C968 C969 1.377 . S
C968 C970 1.384 . S
C969 C968 1.377 . S
C969 C975 1.390 . S
C970 H961 0.930 . S
C970 C968 1.384 . S
C970 C971 1.372 . S
C971 C970 1.372 . S
C971 C972 1.400 . S
C971 C976 1.490 . S
C972 H962 0.930 . S
C972 C971 1.400 . S
C972 C975 1.386 . S
H973 C989 0.930 . S
H974 C990 0.931 . S
C975 H963 0.929 . S
C975 C969 1.390 . S
C975 C972 1.386 . S
C976 C971 1.490 . S
C976 C978 1.395 1_655 S
C976 C979 1.403 . S
H977 C983 0.930 . S
C978 H964 0.930 . S
C978 C976 1.395 1_455 S
C978 C981 1.403 . S
C979 C976 1.403 . S
C979 C980 1.524 . S
C979 C983 1.400 . S
C980 H965 0.960 . S
C980 H966 0.960 . S
C980 H967 0.960 . S
C980 C979 1.524 . S
C981 C978 1.403 . S
C981 C982 1.392 . S
C981 C985 1.495 . S
C982 C981 1.392 . S
C982 C983 1.385 1_455 S
C982 C984 1.478 . S
C983 H977 0.930 . S
C983 C979 1.400 . S
C983 C982 1.385 1_655 S
C984 C982 1.478 . S
C984 C986 1.381 . S
C984 C990 1.383 . S
C985 C981 1.495 . S
C985 H991 0.959 . S
C985 H992 0.961 . S
C985 H993 0.960 . S
C986 C984 1.381 . S
C986 C987 1.394 . S
C986 H994 0.930 . S
C987 C986 1.394 . S
C987 C988 1.383 . S
C987 H995 0.929 . S
C988 C987 1.383 . S
C988 C989 1.377 . S
C989 H973 0.930 . S
C989 C988 1.377 . S
C989 C990 1.379 . S
C990 H974 0.931 . S
C990 C984 1.383 . S
C990 C989 1.379 . S
H991 C985 0.959 . S
H992 C985 0.961 . S
H993 C985 0.960 . S
H994 C986 0.930 . S
H995 C987 0.929 . S
H996 C1004 0.929 . S
H997 C1006 0.930 . S
H998 C1008 0.930 . S
H999 C1011 0.929 . S
H1000 C1014 0.930 . S
H1001 C1016 0.960 . S
H1002 C1016 0.960 . S
H1003 C1016 0.960 . S
C1004 H996 0.929 . S
C1004 C1005 1.377 . S
C1004 C1006 1.384 . S
C1005 C1004 1.377 . S
C1005 C1011 1.390 . S
C1006 H997 0.930 . S
C1006 C1004 1.384 . S
C1006 C1007 1.372 . S
C1007 C1006 1.372 . S
C1007 C1008 1.400 . S
C1007 C1012 1.490 . S
C1008 H998 0.930 . S
C1008 C1007 1.400 . S
C1008 C1011 1.386 . S
H1009 C1025 0.930 . S
H1010 C1026 0.931 . S
C1011 H999 0.929 . S
C1011 C1005 1.390 . S
C1011 C1008 1.386 . S
C1012 C1007 1.490 . S
C1012 C1014 1.395 . S
C1012 C1015 1.403 . S
H1013 C1019 0.930 . S
C1014 H1000 0.930 . S
C1014 C1012 1.395 . S
C1014 C1017 1.403 1_545 S
C1015 C1012 1.403 . S
C1015 C1016 1.524 . S
C1015 C1019 1.400 1_545 S
C1016 H1001 0.960 . S
C1016 H1002 0.960 . S
C1016 H1003 0.960 . S
C1016 C1015 1.524 . S
C1017 C1014 1.403 1_565 S
C1017 C1018 1.392 . S
C1017 C1021 1.495 . S
C1018 C1017 1.392 . S
C1018 C1019 1.385 . S
C1018 C1020 1.478 . S
C1019 H1013 0.930 . S
C1019 C1015 1.400 1_565 S
C1019 C1018 1.385 . S
C1020 C1018 1.478 . S
C1020 C1022 1.381 . S
C1020 C1026 1.383 . S
C1021 C1017 1.495 . S
C1021 H1027 0.959 . S
C1021 H1028 0.961 . S
C1021 H1029 0.960 . S
C1022 C1020 1.381 . S
C1022 C1023 1.394 . S
C1022 H1030 0.930 . S
C1023 C1022 1.394 . S
C1023 C1024 1.383 . S
C1023 H1031 0.929 . S
C1024 C1023 1.383 . S
C1024 C1025 1.377 . S
C1025 H1009 0.930 . S
C1025 C1024 1.377 . S
C1025 C1026 1.379 . S
C1026 H1010 0.931 . S
C1026 C1020 1.383 . S
C1026 C1025 1.379 . S
H1027 C1021 0.959 . S
H1028 C1021 0.961 . S
H1029 C1021 0.960 . S
H1030 C1022 0.930 . S
H1031 C1023 0.929 . S
H1032 C1040 0.929 . S
H1033 C1042 0.930 . S
H1034 C1044 0.930 . S
H1035 C1047 0.929 . S
H1036 C1050 0.930 . S
H1037 C1052 0.960 . S
H1038 C1052 0.960 . S
H1039 C1052 0.960 . S
C1040 H1032 0.929 . S
C1040 C1041 1.377 . S
C1040 C1042 1.384 . S
C1041 C1040 1.377 . S
C1041 C1047 1.390 . S
C1042 H1033 0.930 . S
C1042 C1040 1.384 . S
C1042 C1043 1.372 . S
C1043 C1042 1.372 . S
C1043 C1044 1.400 . S
C1043 C1048 1.490 . S
C1044 H1034 0.930 . S
C1044 C1043 1.400 . S
C1044 C1047 1.386 . S
H1045 C1061 0.930 . S
H1046 C1062 0.931 . S
C1047 H1035 0.929 . S
C1047 C1041 1.390 . S
C1047 C1044 1.386 . S
C1048 C1043 1.490 . S
C1048 C1050 1.395 . S
C1048 C1051 1.403 . S
H1049 C1055 0.930 . S
C1050 H1036 0.930 . S
C1050 C1048 1.395 . S
C1050 C1053 1.403 . S
C1051 C1048 1.403 . S
C1051 C1052 1.524 . S
C1051 C1055 1.400 . S
C1052 H1037 0.960 . S
C1052 H1038 0.960 . S
C1052 H1039 0.960 . S
C1052 C1051 1.524 . S
C1053 C1050 1.403 . S
C1053 C1054 1.392 . S
C1053 C1057 1.495 . S
C1054 C1053 1.392 . S
C1054 C1055 1.385 . S
C1054 C1056 1.478 . S
C1055 H1049 0.930 . S
C1055 C1051 1.400 . S
C1055 C1054 1.385 . S
C1056 C1054 1.478 . S
C1056 C1058 1.381 . S
C1056 C1062 1.383 . S
C1057 C1053 1.495 . S
C1057 H1063 0.959 . S
C1057 H1064 0.961 . S
C1057 H1065 0.960 . S
C1058 C1056 1.381 . S
C1058 C1059 1.394 . S
C1058 H1066 0.930 . S
C1059 C1058 1.394 . S
C1059 C1060 1.383 . S
C1059 H1067 0.929 . S
C1060 C1059 1.383 . S
C1060 C1061 1.377 . S
C1061 H1045 0.930 . S
C1061 C1060 1.377 . S
C1061 C1062 1.379 . S
C1062 H1046 0.931 . S
C1062 C1056 1.383 . S
C1062 C1061 1.379 . S
H1063 C1057 0.959 . S
H1064 C1057 0.961 . S
H1065 C1057 0.960 . S
H1066 C1058 0.930 . S
H1067 C1059 0.929 . S
H1068 C1076 0.929 . S
H1069 C1078 0.930 . S
H1070 C1080 0.930 . S
H1071 C1083 0.929 . S
H1072 C1086 0.930 . S
H1073 C1088 0.960 1_655 S
H1074 C1088 0.960 . S
H1075 C1088 0.960 . S
C1076 H1068 0.929 . S
C1076 C1077 1.377 . S
C1076 C1078 1.384 . S
C1077 C1076 1.377 . S
C1077 C1083 1.390 . S
C1078 H1069 0.930 . S
C1078 C1076 1.384 . S
C1078 C1079 1.372 . S
C1079 C1078 1.372 . S
C1079 C1080 1.400 . S
C1079 C1084 1.490 . S
C1080 H1070 0.930 . S
C1080 C1079 1.400 . S
C1080 C1083 1.386 . S
H1081 C1097 0.930 . S
H1082 C1098 0.931 . S
C1083 H1071 0.929 . S
C1083 C1077 1.390 . S
C1083 C1080 1.386 . S
C1084 C1079 1.490 . S
C1084 C1086 1.395 . S
C1084 C1087 1.403 . S
H1085 C1091 0.930 . S
C1086 H1072 0.930 . S
C1086 C1084 1.395 . S
C1086 C1089 1.403 1_455 S
C1087 C1084 1.403 . S
C1087 C1088 1.524 . S
C1087 C1091 1.400 1_455 S
C1088 H1073 0.960 1_455 S
C1088 H1074 0.960 . S
C1088 H1075 0.960 . S
C1088 C1087 1.524 . S
C1089 C1086 1.403 1_655 S
C1089 C1090 1.392 . S
C1089 C1093 1.495 . S
C1090 C1089 1.392 . S
C1090 C1091 1.385 . S
C1090 C1092 1.478 . S
C1091 H1085 0.930 . S
C1091 C1087 1.400 1_655 S
C1091 C1090 1.385 . S
C1092 C1090 1.478 . S
C1092 C1094 1.381 . S
C1092 C1098 1.383 . S
C1093 C1089 1.495 . S
C1093 H1099 0.959 1_655 S
C1093 H1100 0.961 . S
C1093 H1101 0.960 . S
C1094 C1092 1.381 . S
C1094 C1095 1.394 . S
C1094 H1102 0.930 . S
C1095 C1094 1.394 . S
C1095 C1096 1.383 . S
C1095 H1103 0.929 . S
C1096 C1095 1.383 . S
C1096 C1097 1.377 . S
C1097 H1081 0.930 . S
C1097 C1096 1.377 . S
C1097 C1098 1.379 . S
C1098 H1082 0.931 . S
C1098 C1092 1.383 . S
C1098 C1097 1.379 . S
H1099 C1093 0.959 1_455 S
H1100 C1093 0.961 . S
H1101 C1093 0.960 . S
H1102 C1094 0.930 . S
H1103 C1095 0.929 . S
H1104 C1112 0.929 . S
H1105 C1114 0.930 . S
H1106 C1116 0.930 . S
H1107 C1119 0.929 . S
H1108 C1122 0.924 . S
H1109 C1124 0.960 . S
H1110 C1124 0.960 . S
H1111 C1124 0.960 . S
C1112 H1104 0.929 . S
C1112 C1113 1.377 . S
C1112 C1114 1.384 . S
C1113 C1112 1.377 . S
C1113 C1119 1.390 . S
C1114 H1105 0.930 . S
C1114 C1112 1.384 . S
C1114 C1115 1.372 . S
C1115 C1114 1.372 . S
C1115 C1116 1.400 . S
C1115 C1120 1.490 . S
C1116 H1106 0.930 . S
C1116 C1115 1.400 . S
C1116 C1119 1.386 . S
H1117 C1133 0.930 . S
H1118 C1134 0.931 . S
C1119 H1107 0.929 . S
C1119 C1113 1.390 . S
C1119 C1116 1.386 . S
C1120 C1115 1.490 . S
C1120 C1122 1.410 . S
C1120 C1123 1.403 . S
H1121 C1127 0.930 . S
C1122 H1108 0.924 . S
C1122 C1120 1.410 . S
C1122 C1125 1.393 1_565 S
C1123 C1120 1.403 . S
C1123 C1124 1.524 . S
C1123 C1127 1.400 1_565 S
C1124 H1109 0.960 . S
C1124 H1110 0.960 . S
C1124 H1111 0.960 . S
C1124 C1123 1.524 . S
C1125 C1122 1.393 1_545 S
C1125 C1126 1.392 . S
C1125 C1129 1.495 . S
C1126 C1125 1.392 . S
C1126 C1127 1.385 . S
C1126 C1128 1.478 . S
C1127 H1121 0.930 . S
C1127 C1123 1.400 1_545 S
C1127 C1126 1.385 . S
C1128 C1126 1.478 . S
C1128 C1130 1.381 . S
C1128 C1134 1.383 . S
C1129 C1125 1.495 . S
C1129 H1135 0.959 . S
C1129 H1136 0.961 . S
C1129 H1137 0.960 . S
C1130 C1128 1.381 . S
C1130 C1131 1.394 . S
C1130 H1138 0.930 . S
C1131 C1130 1.394 . S
C1131 C1132 1.383 . S
C1131 H1139 0.929 . S
C1132 C1131 1.383 . S
C1132 C1133 1.377 . S
C1133 H1117 0.930 . S
C1133 C1132 1.377 . S
C1133 C1134 1.379 . S
C1134 H1118 0.931 . S
C1134 C1128 1.383 . S
C1134 C1133 1.379 . S
H1135 C1129 0.959 . S
H1136 C1129 0.961 . S
H1137 C1129 0.960 . S
H1138 C1130 0.930 . S
H1139 C1131 0.929 . S
C285 N232 1.633 . S
C304 N2 1.640 . S
C321 C30 1.663 . S
C340 C260 1.651 . S
C357 C53 1.671 . S
C376 C145 1.669 . S
C393 N71 1.628 . S
C412 N163 1.610 . S
C429 C191 1.672 . S
C448 C99 1.679 . S
C465 C122 1.671 . S
C484 C214 1.677 . S
C501 C200 1.673 . S
C520 N12 1.667 . S
C537 C39 1.664 . S
C556 C223 1.639 . S
C573 C62 1.671 . S
C592 N242 1.686 . S
C609 N81 1.676 . S
C628 C269 1.672 . S
C645 C154 1.656 . S
C664 C108 1.675 . S
C681 N173 1.676 . S
C700 C131 1.679 . S
C717 C76 1.070 . S
C736 C7 1.059 . S
C753 N25 1.014 . S
C772 N94 0.987 . S
C789 N117 0.962 . S
C808 N48 0.982 . S
C825 N209 1.009 . S
C844 N140 1.039 . S
C861 C237 1.072 . S
C880 C168 1.056 . S
C897 N186 0.966 . S
C916 N255 0.934 . S
C933 C85 2.037 . S
C952 C16 2.031 . S
C969 N35 1.902 . S
C988 N104 1.894 . S
C1005 N127 1.949 . S
C1024 N58 1.948 . S
C1041 N150 1.910 . S
C1060 N219 1.908 . S
C1077 C246 2.036 . S
C1096 C177 2.019 . S
C1113 N196 1.947 . S
C1132 N265 1.935 . S
