# Generated by pormake.
# Topology wlu, (5)-cn, num edge types: 1
# Building blocks:
#     Node 0, Type 0, BuildingBlock: BEQFEK_clean_sbu_0, # of connection points: 5
#     Node 1, Type 0, BuildingBlock: BEQFEK_clean_sbu_0, # of connection points: 5
#     Node 2, Type 0, BuildingBlock: BEQFEK_clean_sbu_0, # of connection points: 5
#     Node 3, Type 0, BuildingBlock: BEQFEK_clean_sbu_0, # of connection points: 5
#     Node 4, Type 0, BuildingBlock: BEQFEK_clean_sbu_0, # of connection points: 5
#     Node 5, Type 0, BuildingBlock: BEQFEK_clean_sbu_0, # of connection points: 5
#     Node 6, Type 0, BuildingBlock: BEQFEK_clean_sbu_0, # of connection points: 5
#     Node 7, Type 0, BuildingBlock: BEQFEK_clean_sbu_0, # of connection points: 5
#     Node 8, Type 0, BuildingBlock: BEQFEK_clean_sbu_0, # of connection points: 5
#     Node 9, Type 0, BuildingBlock: BEQFEK_clean_sbu_0, # of connection points: 5
#     Node 10, Type 0, BuildingBlock: BEQFEK_clean_sbu_0, # of connection points: 5
#     Node 11, Type 0, BuildingBlock: BEQFEK_clean_sbu_0, # of connection points: 5
#     Node 12, Type 0, BuildingBlock: BEQFEK_clean_sbu_0, # of connection points: 5
#     Node 13, Type 0, BuildingBlock: BEQFEK_clean_sbu_0, # of connection points: 5
#     Node 14, Type 0, BuildingBlock: BEQFEK_clean_sbu_0, # of connection points: 5
#     Node 15, Type 0, BuildingBlock: BEQFEK_clean_sbu_0, # of connection points: 5
#     Node 16, Type 0, BuildingBlock: BEQFEK_clean_sbu_0, # of connection points: 5
#     Node 17, Type 0, BuildingBlock: BEQFEK_clean_sbu_0, # of connection points: 5
#     Node 18, Type 0, BuildingBlock: BEQFEK_clean_sbu_0, # of connection points: 5
#     Node 19, Type 0, BuildingBlock: BEQFEK_clean_sbu_0, # of connection points: 5
#     Node 20, Type 0, BuildingBlock: BEQFEK_clean_sbu_0, # of connection points: 5
#     Node 21, Type 0, BuildingBlock: BEQFEK_clean_sbu_0, # of connection points: 5
#     Node 22, Type 0, BuildingBlock: BEQFEK_clean_sbu_0, # of connection points: 5
#     Node 23, Type 0, BuildingBlock: BEQFEK_clean_sbu_0, # of connection points: 5
#     Node 24, Type 0, BuildingBlock: BEQFEK_clean_sbu_0, # of connection points: 5
#     Node 25, Type 0, BuildingBlock: BEQFEK_clean_sbu_0, # of connection points: 5
#     Node 26, Type 0, BuildingBlock: BEQFEK_clean_sbu_0, # of connection points: 5
#     Node 27, Type 0, BuildingBlock: BEQFEK_clean_sbu_0, # of connection points: 5
#     Node 28, Type 0, BuildingBlock: BEQFEK_clean_sbu_0, # of connection points: 5
#     Node 29, Type 0, BuildingBlock: BEQFEK_clean_sbu_0, # of connection points: 5
#     Node 30, Type 0, BuildingBlock: BEQFEK_clean_sbu_0, # of connection points: 5
#     Node 31, Type 0, BuildingBlock: BEQFEK_clean_sbu_0, # of connection points: 5
#     Node 32, Type 0, BuildingBlock: BEQFEK_clean_sbu_0, # of connection points: 5
#     Node 33, Type 0, BuildingBlock: BEQFEK_clean_sbu_0, # of connection points: 5
#     Node 34, Type 0, BuildingBlock: BEQFEK_clean_sbu_0, # of connection points: 5
#     Node 35, Type 0, BuildingBlock: BEQFEK_clean_sbu_0, # of connection points: 5
#     Edge 36, Type (0, 0), BuildingBlock: OJICUG_clean_linker_0, # of connection points: 2
#     Edge 37, Type (0, 0), BuildingBlock: OJICUG_clean_linker_0, # of connection points: 2
#     Edge 38, Type (0, 0), BuildingBlock: OJICUG_clean_linker_0, # of connection points: 2
#     Edge 39, Type (0, 0), BuildingBlock: OJICUG_clean_linker_0, # of connection points: 2
#     Edge 40, Type (0, 0), BuildingBlock: OJICUG_clean_linker_0, # of connection points: 2
#     Edge 41, Type (0, 0), BuildingBlock: OJICUG_clean_linker_0, # of connection points: 2
#     Edge 42, Type (0, 0), BuildingBlock: OJICUG_clean_linker_0, # of connection points: 2
#     Edge 43, Type (0, 0), BuildingBlock: OJICUG_clean_linker_0, # of connection points: 2
#     Edge 44, Type (0, 0), BuildingBlock: OJICUG_clean_linker_0, # of connection points: 2
#     Edge 45, Type (0, 0), BuildingBlock: OJICUG_clean_linker_0, # of connection points: 2
#     Edge 46, Type (0, 0), BuildingBlock: OJICUG_clean_linker_0, # of connection points: 2
#     Edge 47, Type (0, 0), BuildingBlock: OJICUG_clean_linker_0, # of connection points: 2
#     Edge 48, Type (0, 0), BuildingBlock: OJICUG_clean_linker_0, # of connection points: 2
#     Edge 49, Type (0, 0), BuildingBlock: OJICUG_clean_linker_0, # of connection points: 2
#     Edge 50, Type (0, 0), BuildingBlock: OJICUG_clean_linker_0, # of connection points: 2
#     Edge 51, Type (0, 0), BuildingBlock: OJICUG_clean_linker_0, # of connection points: 2
#     Edge 52, Type (0, 0), BuildingBlock: OJICUG_clean_linker_0, # of connection points: 2
#     Edge 53, Type (0, 0), BuildingBlock: OJICUG_clean_linker_0, # of connection points: 2
#     Edge 54, Type (0, 0), BuildingBlock: OJICUG_clean_linker_0, # of connection points: 2
#     Edge 55, Type (0, 0), BuildingBlock: OJICUG_clean_linker_0, # of connection points: 2
#     Edge 56, Type (0, 0), BuildingBlock: OJICUG_clean_linker_0, # of connection points: 2
#     Edge 57, Type (0, 0), BuildingBlock: OJICUG_clean_linker_0, # of connection points: 2
#     Edge 58, Type (0, 0), BuildingBlock: OJICUG_clean_linker_0, # of connection points: 2
#     Edge 59, Type (0, 0), BuildingBlock: OJICUG_clean_linker_0, # of connection points: 2
#     Edge 60, Type (0, 0), BuildingBlock: OJICUG_clean_linker_0, # of connection points: 2
#     Edge 61, Type (0, 0), BuildingBlock: OJICUG_clean_linker_0, # of connection points: 2
#     Edge 62, Type (0, 0), BuildingBlock: OJICUG_clean_linker_0, # of connection points: 2
#     Edge 63, Type (0, 0), BuildingBlock: OJICUG_clean_linker_0, # of connection points: 2
#     Edge 64, Type (0, 0), BuildingBlock: OJICUG_clean_linker_0, # of connection points: 2
#     Edge 65, Type (0, 0), BuildingBlock: OJICUG_clean_linker_0, # of connection points: 2
#     Edge 66, Type (0, 0), BuildingBlock: OJICUG_clean_linker_0, # of connection points: 2
#     Edge 67, Type (0, 0), BuildingBlock: OJICUG_clean_linker_0, # of connection points: 2
#     Edge 68, Type (0, 0), BuildingBlock: OJICUG_clean_linker_0, # of connection points: 2
#     Edge 69, Type (0, 0), BuildingBlock: OJICUG_clean_linker_0, # of connection points: 2
#     Edge 70, Type (0, 0), BuildingBlock: OJICUG_clean_linker_0, # of connection points: 2
#     Edge 71, Type (0, 0), BuildingBlock: OJICUG_clean_linker_0, # of connection points: 2
#     Edge 72, Type (0, 0), BuildingBlock: OJICUG_clean_linker_0, # of connection points: 2
#     Edge 73, Type (0, 0), BuildingBlock: OJICUG_clean_linker_0, # of connection points: 2
#     Edge 74, Type (0, 0), BuildingBlock: OJICUG_clean_linker_0, # of connection points: 2
#     Edge 75, Type (0, 0), BuildingBlock: OJICUG_clean_linker_0, # of connection points: 2
#     Edge 76, Type (0, 0), BuildingBlock: OJICUG_clean_linker_0, # of connection points: 2
#     Edge 77, Type (0, 0), BuildingBlock: OJICUG_clean_linker_0, # of connection points: 2
#     Edge 78, Type (0, 0), BuildingBlock: OJICUG_clean_linker_0, # of connection points: 2
#     Edge 79, Type (0, 0), BuildingBlock: OJICUG_clean_linker_0, # of connection points: 2
#     Edge 80, Type (0, 0), BuildingBlock: OJICUG_clean_linker_0, # of connection points: 2
#     Edge 81, Type (0, 0), BuildingBlock: OJICUG_clean_linker_0, # of connection points: 2
#     Edge 82, Type (0, 0), BuildingBlock: OJICUG_clean_linker_0, # of connection points: 2
#     Edge 83, Type (0, 0), BuildingBlock: OJICUG_clean_linker_0, # of connection points: 2
#     Edge 84, Type (0, 0), BuildingBlock: OJICUG_clean_linker_0, # of connection points: 2
#     Edge 85, Type (0, 0), BuildingBlock: OJICUG_clean_linker_0, # of connection points: 2
#     Edge 86, Type (0, 0), BuildingBlock: OJICUG_clean_linker_0, # of connection points: 2
#     Edge 87, Type (0, 0), BuildingBlock: OJICUG_clean_linker_0, # of connection points: 2
#     Edge 88, Type (0, 0), BuildingBlock: OJICUG_clean_linker_0, # of connection points: 2
#     Edge 89, Type (0, 0), BuildingBlock: OJICUG_clean_linker_0, # of connection points: 2
#     Edge 90, Type (0, 0), BuildingBlock: OJICUG_clean_linker_0, # of connection points: 2
#     Edge 91, Type (0, 0), BuildingBlock: OJICUG_clean_linker_0, # of connection points: 2
#     Edge 92, Type (0, 0), BuildingBlock: OJICUG_clean_linker_0, # of connection points: 2
#     Edge 93, Type (0, 0), BuildingBlock: OJICUG_clean_linker_0, # of connection points: 2
#     Edge 94, Type (0, 0), BuildingBlock: OJICUG_clean_linker_0, # of connection points: 2
#     Edge 95, Type (0, 0), BuildingBlock: OJICUG_clean_linker_0, # of connection points: 2
#     Edge 96, Type (0, 0), BuildingBlock: OJICUG_clean_linker_0, # of connection points: 2
#     Edge 97, Type (0, 0), BuildingBlock: OJICUG_clean_linker_0, # of connection points: 2
#     Edge 98, Type (0, 0), BuildingBlock: OJICUG_clean_linker_0, # of connection points: 2
#     Edge 99, Type (0, 0), BuildingBlock: OJICUG_clean_linker_0, # of connection points: 2
#     Edge 100, Type (0, 0), BuildingBlock: OJICUG_clean_linker_0, # of connection points: 2
#     Edge 101, Type (0, 0), BuildingBlock: OJICUG_clean_linker_0, # of connection points: 2
#     Edge 102, Type (0, 0), BuildingBlock: OJICUG_clean_linker_0, # of connection points: 2
#     Edge 103, Type (0, 0), BuildingBlock: OJICUG_clean_linker_0, # of connection points: 2
#     Edge 104, Type (0, 0), BuildingBlock: OJICUG_clean_linker_0, # of connection points: 2
#     Edge 105, Type (0, 0), BuildingBlock: OJICUG_clean_linker_0, # of connection points: 2
#     Edge 106, Type (0, 0), BuildingBlock: OJICUG_clean_linker_0, # of connection points: 2
#     Edge 107, Type (0, 0), BuildingBlock: OJICUG_clean_linker_0, # of connection points: 2
#     Edge 108, Type (0, 0), BuildingBlock: OJICUG_clean_linker_0, # of connection points: 2
#     Edge 109, Type (0, 0), BuildingBlock: OJICUG_clean_linker_0, # of connection points: 2
#     Edge 110, Type (0, 0), BuildingBlock: OJICUG_clean_linker_0, # of connection points: 2
#     Edge 111, Type (0, 0), BuildingBlock: OJICUG_clean_linker_0, # of connection points: 2
#     Edge 112, Type (0, 0), BuildingBlock: OJICUG_clean_linker_0, # of connection points: 2
#     Edge 113, Type (0, 0), BuildingBlock: OJICUG_clean_linker_0, # of connection points: 2
#     Edge 114, Type (0, 0), BuildingBlock: OJICUG_clean_linker_0, # of connection points: 2
#     Edge 115, Type (0, 0), BuildingBlock: OJICUG_clean_linker_0, # of connection points: 2
#     Edge 116, Type (0, 0), BuildingBlock: OJICUG_clean_linker_0, # of connection points: 2
#     Edge 117, Type (0, 0), BuildingBlock: OJICUG_clean_linker_0, # of connection points: 2
#     Edge 118, Type (0, 0), BuildingBlock: OJICUG_clean_linker_0, # of connection points: 2
#     Edge 119, Type (0, 0), BuildingBlock: OJICUG_clean_linker_0, # of connection points: 2
#     Edge 120, Type (0, 0), BuildingBlock: OJICUG_clean_linker_0, # of connection points: 2
#     Edge 121, Type (0, 0), BuildingBlock: OJICUG_clean_linker_0, # of connection points: 2
#     Edge 122, Type (0, 0), BuildingBlock: OJICUG_clean_linker_0, # of connection points: 2
#     Edge 123, Type (0, 0), BuildingBlock: OJICUG_clean_linker_0, # of connection points: 2
#     Edge 124, Type (0, 0), BuildingBlock: OJICUG_clean_linker_0, # of connection points: 2
#     Edge 125, Type (0, 0), BuildingBlock: OJICUG_clean_linker_0, # of connection points: 2
# Relax obj value: 0.085
# Max RMSD: 0.148
# Mean RMSD: 0.148
data_MOF--net-wlu--node1-BEQFEK_clean_sbu_0--edge1-OJICUG_clean_linker_0
_symmetry_space_group_name_H-M    P1
_symmetry_Int_Tables_number       1
_symmetry_cell_setting            triclinic
loop_
_symmetry_equiv_pos_as_xyz
'x, y, z'
_cell_length_a     53.428968
_cell_length_b     53.455403
_cell_length_c     42.587846
_cell_angle_alpha  89.959028
_cell_angle_beta   90.003951
_cell_angle_gamma 119.99217
loop_
_atom_site_label
_atom_site_type_symbol
_atom_site_fract_x
_atom_site_fract_y
_atom_site_fract_z
_atom_type_partial_charge
Co0 Co 0.30148 0.21874 0.03891 0.0
Co1 Co 0.25893 0.15283 0.0289 0.0
C2 C 0.30524 0.18879 0.98196 0.0
O3 O 0.31581 0.21124 0.99921 0.0
O4 O 0.28306 0.16523 0.99023 0.0
C5 C 0.35465 0.27278 0.05357 0.0
O6 O 0.36936 0.26028 0.04486 0.0
C7 C 0.23945 0.09214 0.01458 0.0
C8 C 0.19392 0.0707 0.03005 0.0
C9 C 0.21408 0.06536 0.01561 0.0
N10 N 0.23416 0.11201 0.02739 0.0
N11 N 0.20694 0.09906 0.03665 0.0
C12 C 0.26874 0.09911 0.00318 0.0
H13 H 0.28567 0.11966 0.01369 0.0
H14 H 0.27316 0.08151 0.00932 0.0
H15 H 0.26974 0.10183 0.9773 0.0
C16 C 0.31193 0.19717 0.09881 0.0
N17 N 0.29858 0.19276 0.07086 0.0
N18 N 0.28185 0.16483 0.06629 0.0
C19 C 0.2846 0.15053 0.09101 0.0
C20 C 0.30398 0.17064 0.11238 0.0
C21 C 0.33025 0.22625 0.11344 0.0
H22 H 0.32133 0.24052 0.10792 0.0
H23 H 0.35252 0.23605 0.104 0.0
H24 H 0.33118 0.22461 0.13934 0.0
O25 O 0.26392 0.2163 0.03101 0.0
O26 O 0.23307 0.16941 0.0267 0.0
H27 H 0.24629 0.10941 0.0958 0.0
H28 H 0.27807 0.11111 0.11317 0.0
C29 C 0.26991 0.11831 0.0932 0.0
H30 H 0.27353 0.10954 0.07121 0.0
H31 H 0.19713 0.10968 0.04699 0.0
O32 O 0.32724 0.25888 0.05216 0.0
C33 C 0.23838 0.19541 0.0269 0.0
Co34 Co 0.77029 0.07682 0.04096 0.0
Co35 Co 0.83648 0.10407 0.02778 0.0
C36 C 0.79779 0.11003 0.98174 0.0
O37 O 0.77602 0.09521 0.99939 0.0
O38 O 0.82322 0.11621 0.98985 0.0
C39 C 0.71633 0.07581 0.05552 0.0
O40 O 0.72865 0.10268 0.04568 0.0
C41 C 0.89763 0.14487 0.01279 0.0
C42 C 0.91849 0.1208 0.03023 0.0
C43 C 0.92427 0.14594 0.01465 0.0
N44 N 0.87742 0.12018 0.02622 0.0
N45 N 0.89006 0.10597 0.03666 0.0
C46 C 0.89114 0.1671 1.00001 0.0
H47 H 0.87068 0.16414 0.0101 0.0
H48 H 0.90897 0.18918 0.00549 0.0
H49 H 0.8885 0.1646 0.97416 0.0
C50 C 0.79246 0.11176 0.09883 0.0
N51 N 0.79667 0.10229 0.07112 0.0
N52 N 0.8246 0.11454 0.06559 0.0
C53 C 0.83903 0.13269 0.0895 0.0
C54 C 0.81903 0.13166 0.11123 0.0
C55 C 0.76366 0.10043 0.1144 0.0
H56 H 0.74994 0.07699 0.10983 0.0
H57 H 0.75284 0.11192 0.10488 0.0
H58 H 0.766 0.1039 0.14016 0.0
O59 O 0.77395 0.04246 0.0358 0.0
O60 O 0.82049 0.06137 0.02508 0.0
H61 H 0.88115 0.13758 0.09264 0.0
H62 H 0.87828 0.16675 0.11063 0.0
C63 C 0.8712 0.15143 0.09065 0.0
H64 H 0.87892 0.16382 0.06847 0.0
H65 H 0.87917 0.08588 0.04775 0.0
O66 O 0.73028 0.06234 0.05477 0.0
C67 C 0.7954 0.03947 0.02874 0.0
Co68 Co 0.91433 0.69102 0.04232 0.0
Co69 Co 0.88571 0.72871 0.02879 0.0
C70 C 0.88059 0.68428 0.98315 0.0
O71 O 0.89624 0.67814 1.00048 0.0
O72 O 0.87353 0.70278 0.99156 0.0
C73 C 0.91702 0.63875 0.05443 0.0
O74 O 0.89136 0.62422 0.04139 0.0
C75 C 0.84831 0.75191 0.00849 0.0
C76 C 0.86143 0.78818 0.04163 0.0
C77 C 0.84297 0.77399 0.01682 0.0
N78 N 0.86857 0.75276 0.02792 0.0
N79 N 0.87654 0.7747 0.0474 0.0
C80 C 0.83666 0.73215 0.98075 0.0
H81 H 0.85484 0.733 0.96733 0.0
H82 H 0.82265 0.70964 0.98904 0.0
H83 H 0.82436 0.73832 0.96462 0.0
C84 C 0.8788 0.6772 0.09996 0.0
N85 N 0.88836 0.6912 0.07239 0.0
N86 N 0.87567 0.70642 0.06675 0.0
C87 C 0.85696 0.70194 0.09036 0.0
C88 C 0.85851 0.68341 0.11228 0.0
C89 C 0.88752 0.65669 0.11311 0.0
H90 H 0.91139 0.66681 0.11258 0.0
H91 H 0.87802 0.63696 0.09842 0.0
H92 H 0.87982 0.65002 0.13746 0.0
O93 O 0.94836 0.72951 0.03766 0.0
O94 O 0.92827 0.75577 0.0251 0.0
H95 H 0.85224 0.73882 0.09762 0.0
H96 H 0.82165 0.70561 0.11055 0.0
C97 C 0.83842 0.71557 0.09207 0.0
H98 H 0.82801 0.71375 0.069 0.0
H99 H 0.89231 0.78045 0.06471 0.0
O100 O 0.92937 0.66607 0.05641 0.0
C101 C 0.95058 0.75339 0.02956 0.0
Co102 Co 0.21671 0.29879 0.4646 0.0
Co103 Co 0.15093 0.26097 0.4793 0.0
C104 C 0.19006 0.30551 0.52444 0.0
O105 O 0.21151 0.31152 0.50661 0.0
O106 O 0.16431 0.28702 0.5165 0.0
C107 C 0.27013 0.3519 0.45008 0.0
O108 O 0.25777 0.36609 0.46094 0.0
C109 C 0.08979 0.24074 0.49357 0.0
C110 C 0.06938 0.19491 0.47943 0.0
C111 C 0.06335 0.21493 0.49289 0.0
N112 N 0.11017 0.2358 0.48152 0.0
N113 N 0.09782 0.20842 0.47303 0.0
C114 C 0.09595 0.27001 0.50397 0.0
H115 H 0.11623 0.28704 0.49304 0.0
H116 H 0.07784 0.27358 0.49757 0.0
H117 H 0.09885 0.27173 0.52983 0.0
C118 C 0.19382 0.30998 0.40609 0.0
N119 N 0.18999 0.29747 0.43452 0.0
N120 N 0.16216 0.28225 0.44072 0.0
C121 C 0.14742 0.28526 0.41661 0.0
C122 C 0.16705 0.30287 0.39385 0.0
C123 C 0.22269 0.32938 0.39147 0.0
H124 H 0.23282 0.35061 0.40345 0.0
H125 H 0.22096 0.33313 0.36619 0.0
H126 H 0.23684 0.31987 0.39428 0.0
O127 O 0.21338 0.26084 0.46941 0.0
O128 O 0.16736 0.23479 0.48324 0.0
H129 H 0.10784 0.27444 0.39194 0.0
H130 H 0.10752 0.27997 0.4338 0.0
C131 C 0.11521 0.27102 0.41509 0.0
H132 H 0.10556 0.24753 0.41943 0.0
H133 H 0.1089 0.19883 0.46328 0.0
O134 O 0.2564 0.32448 0.45025 0.0
C135 C 0.19195 0.23712 0.47831 0.0
Co136 Co 0.68879 0.91549 0.4645 0.0
Co137 Co 0.72659 0.88704 0.47782 0.0
C138 C 0.68326 0.88335 0.52434 0.0
O139 O 0.67638 0.89815 0.50659 0.0
O140 O 0.70188 0.87642 0.51598 0.0
C141 C 0.6364 0.91681 0.44953 0.0
O142 O 0.62194 0.88965 0.45842 0.0
C143 C 0.74697 0.84689 0.49634 0.0
C144 C 0.78517 0.86167 0.46561 0.0
C145 C 0.76916 0.84158 0.48853 0.0
N146 N 0.74964 0.8689 0.47852 0.0
N147 N 0.77258 0.87768 0.46034 0.0
C148 C 0.72501 0.83314 0.52194 0.0
H149 H 0.72664 0.85015 0.53809 0.0
H150 H 0.70302 0.82227 0.51155 0.0
H151 H 0.72822 0.81748 0.53589 0.0
C152 C 0.67449 0.87951 0.40713 0.0
N153 N 0.6884 0.88912 0.43472 0.0
N154 N 0.70337 0.8762 0.44061 0.0
C155 C 0.69869 0.85725 0.41728 0.0
C156 C 0.68015 0.85871 0.39535 0.0
C157 C 0.6581 0.8917 0.39086 0.0
H158 H 0.66815 0.91513 0.39572 0.0
H159 H 0.63547 0.88049 0.39942 0.0
H160 H 0.65774 0.88853 0.36507 0.0
O161 O 0.72734 0.94913 0.46871 0.0
O162 O 0.75453 0.92973 0.47964 0.0
H163 H 0.73362 0.84931 0.40987 0.0
H164 H 0.69862 0.81913 0.40004 0.0
C165 C 0.71054 0.83713 0.41684 0.0
H166 H 0.70912 0.82812 0.44065 0.0
H167 H 0.77964 0.89465 0.4443 0.0
O168 O 0.66381 0.93054 0.45087 0.0
C169 C 0.7517 0.95183 0.47559 0.0
Co170 Co 0.07541 0.77195 0.46787 0.0
Co171 Co 0.10195 0.83835 0.4791 0.0
C172 C 0.11065 0.80085 0.52499 0.0
O173 O 0.097 0.77838 0.50797 0.0
O174 O 0.11382 0.82514 0.5167 0.0
C175 C 0.07365 0.71791 0.45253 0.0
O176 O 0.10081 0.73034 0.46141 0.0
C177 C 0.13908 0.89869 0.49944 0.0
C178 C 0.12851 0.92235 0.46419 0.0
C179 C 0.14566 0.92624 0.49018 0.0
N180 N 0.11937 0.87948 0.47944 0.0
N181 N 0.11291 0.89376 0.45866 0.0
C182 C 0.14925 0.89038 0.5283 0.0
H183 H 0.13031 0.87362 0.54136 0.0
H184 H 0.16294 0.8811 0.52136 0.0
H185 H 0.16149 0.90895 0.54428 0.0
C186 C 0.10803 0.79313 0.40818 0.0
N187 N 0.09925 0.79773 0.43616 0.0
N188 N 0.11194 0.82569 0.44144 0.0
C189 C 0.13016 0.83972 0.41739 0.0
C190 C 0.12824 0.81951 0.39548 0.0
C191 C 0.09585 0.7642 0.39276 0.0
H192 H 0.07259 0.75067 0.39843 0.0
H193 H 0.10755 0.75329 0.40136 0.0
H194 H 0.09828 0.76637 0.36686 0.0
O195 O 0.04106 0.77586 0.4753 0.0
O196 O 0.05968 0.82292 0.48279 0.0
H197 H 0.13924 0.88256 0.40714 0.0
H198 H 0.16952 0.87702 0.40136 0.0
C199 C 0.15063 0.87161 0.41659 0.0
H200 H 0.15834 0.87979 0.44062 0.0
H201 H 0.09797 0.88397 0.44055 0.0
O202 O 0.06014 0.73179 0.45417 0.0
C203 C 0.03799 0.79749 0.48116 0.0
Co204 Co 0.69113 0.77253 0.96466 0.0
Co205 Co 0.72946 0.83864 0.97877 0.0
C206 C 0.68433 0.79896 0.02395 0.0
O207 O 0.6776 0.77738 0.00612 0.0
O208 O 0.70358 0.82444 0.01613 0.0
C209 C 0.63874 0.71891 0.94904 0.0
O210 O 0.62419 0.73124 0.95884 0.0
C211 C 0.75218 0.89896 0.99964 0.0
C212 C 0.78719 0.92275 0.96522 0.0
C213 C 0.7734 0.92658 0.99075 0.0
N214 N 0.75313 0.87982 0.97988 0.0
N215 N 0.77431 0.89419 0.9596 0.0
C216 C 0.73287 0.89052 0.02783 0.0
H217 H 0.73415 0.87325 0.04088 0.0
H218 H 0.71019 0.88184 0.02006 0.0
H219 H 0.73913 0.90891 0.04405 0.0
C220 C 0.67878 0.79506 0.90681 0.0
N221 N 0.69219 0.79907 0.93467 0.0
N222 N 0.70704 0.82687 0.94094 0.0
C223 C 0.70256 0.84138 0.91764 0.0
C224 C 0.68447 0.82163 0.89525 0.0
C225 C 0.6626 0.76657 0.89037 0.0
H226 H 0.67272 0.75325 0.89531 0.0
H227 H 0.63993 0.755 0.89879 0.0
H228 H 0.66244 0.76951 0.86458 0.0
O229 O 0.72919 0.77672 0.97052 0.0
O230 O 0.75684 0.82322 0.98149 0.0
H231 H 0.73618 0.88463 0.909 0.0
H232 H 0.70032 0.87888 0.90278 0.0
C233 C 0.71366 0.87321 0.91792 0.0
H234 H 0.71361 0.88061 0.94222 0.0
H235 H 0.77979 0.88447 0.94171 0.0
O236 O 0.66616 0.73272 0.95019 0.0
C237 C 0.75357 0.79808 0.97782 0.0
Co238 Co 0.21794 0.91584 0.96498 0.0
Co239 Co 0.15195 0.88738 0.97898 0.0
C240 C 0.19134 0.88271 0.0247 0.0
O241 O 0.21294 0.89829 0.00712 0.0
O242 O 0.16561 0.87523 0.01639 0.0
C243 C 0.27298 0.91841 0.95341 0.0
O244 O 0.26244 0.89363 0.9683 0.0
C245 C 0.091 0.84539 0.9928 0.0
C246 C 0.06998 0.87057 0.97998 0.0
C247 C 0.06433 0.84432 0.99263 0.0
N248 N 0.1111 0.87109 0.98126 0.0
N249 N 0.09837 0.88597 0.97354 0.0
C250 C 0.09769 0.82242 1.00235 0.0
H251 H 0.11825 0.82642 0.99146 0.0
H252 H 0.07995 0.80078 0.99525 0.0
H253 H 0.10031 0.82288 0.02823 0.0
C254 C 0.1959 0.88009 0.90763 0.0
N255 N 0.19156 0.88963 0.93523 0.0
N256 N 0.16363 0.87737 0.94069 0.0
C257 C 0.14929 0.85933 0.91666 0.0
C258 C 0.16931 0.86053 0.89488 0.0
C259 C 0.2251 0.88799 0.89497 0.0
H260 H 0.2389 0.91183 0.89407 0.0
H261 H 0.23529 0.87929 0.91091 0.0
H262 H 0.22407 0.87898 0.87131 0.0
O263 O 0.21381 0.95017 0.96918 0.0
O264 O 0.16768 0.92984 0.98268 0.0
H265 H 0.10752 0.85551 0.92002 0.0
H266 H 0.11008 0.83258 0.89047 0.0
C267 C 0.11708 0.84182 0.91431 0.0
H268 H 0.10892 0.82398 0.93167 0.0
H269 H 0.10917 0.90686 0.96433 0.0
O270 O 0.25771 0.93037 0.95041 0.0
C271 C 0.19215 0.95222 0.97778 0.0
Co272 Co 0.07328 0.29793 0.96332 0.0
Co273 Co 0.10326 0.2619 0.97774 0.0
C274 C 0.10708 0.30587 0.02291 0.0
O275 O 0.09114 0.31136 0.00529 0.0
O276 O 0.11482 0.28781 0.01481 0.0
C277 C 0.07086 0.34975 0.94954 0.0
O278 O 0.09722 0.36431 0.96086 0.0
C279 C 0.14365 0.24187 0.99644 0.0
C280 C 0.12816 0.20288 0.96691 0.0
C281 C 0.14865 0.21937 0.98926 0.0
N282 N 0.12144 0.23891 0.97879 0.0
N283 N 0.11222 0.21549 0.96135 0.0
C284 C 0.15768 0.26427 0.02155 0.0
H285 H 0.14081 0.2632 0.03754 0.0
H286 H 0.16881 0.28604 0.01063 0.0
H287 H 0.17318 0.26105 0.0358 0.0
C288 C 0.1083 0.31125 0.90518 0.0
N289 N 0.0994 0.29807 0.93327 0.0
N290 N 0.11298 0.28383 0.9396 0.0
C291 C 0.13181 0.28841 0.9161 0.0
C292 C 0.12927 0.30577 0.89343 0.0
C293 C 0.09788 0.32985 0.8905 0.0
H294 H 0.07411 0.31951 0.8931 0.0
H295 H 0.10819 0.35104 0.90257 0.0
H296 H 0.10352 0.33383 0.86527 0.0
O297 O 0.03977 0.25923 0.96795 0.0
O298 O 0.0607 0.23394 0.98144 0.0
H299 H 0.1385 0.25247 0.91137 0.0
H300 H 0.1677 0.28573 0.89613 0.0
C301 C 0.15152 0.2761 0.91525 0.0
H302 H 0.16272 0.27978 0.93816 0.0
H303 H 0.09496 0.20808 0.94565 0.0
O304 O 0.05782 0.32235 0.94909 0.0
C305 C 0.03808 0.23568 0.97648 0.0
Co306 Co 0.77058 0.68879 0.53744 0.0
Co307 Co 0.83644 0.73205 0.52832 0.0
C308 C 0.80106 0.68552 0.48098 0.0
O309 O 0.77835 0.67459 0.49789 0.0
O310 O 0.82439 0.7078 0.48961 0.0
C311 C 0.71506 0.63607 0.54975 0.0
O312 O 0.72563 0.62086 0.53721 0.0
C313 C 0.89731 0.75036 0.51694 0.0
C314 C 0.91852 0.79714 0.52672 0.0
C315 C 0.9241 0.77579 0.51632 0.0
N316 N 0.87726 0.75675 0.52677 0.0
N317 N 0.89007 0.7847 0.53269 0.0
C318 C 0.89037 0.7202 0.5096 0.0
H319 H 0.86946 0.70436 0.52046 0.0
H320 H 0.90771 0.71631 0.51835 0.0
H321 H 0.88831 0.71689 0.48381 0.0
C322 C 0.79175 0.67748 0.5971 0.0
N323 N 0.79637 0.69155 0.56956 0.0
N324 N 0.82429 0.70922 0.56579 0.0
C325 C 0.83834 0.70673 0.59092 0.0
C326 C 0.81814 0.68655 0.61157 0.0
C327 C 0.76277 0.65418 0.60814 0.0
H328 H 0.75461 0.63578 0.5916 0.0
H329 H 0.76361 0.64608 0.63183 0.0
H330 H 0.74743 0.66245 0.60844 0.0
O331 O 0.77295 0.72643 0.52949 0.0
O332 O 0.8198 0.75773 0.52585 0.0
H333 H 0.87854 0.74664 0.58886 0.0
H334 H 0.87643 0.72261 0.62006 0.0
C335 C 0.87037 0.72377 0.5954 0.0
H336 H 0.88076 0.71501 0.57977 0.0
H337 H 0.8793 0.79537 0.54024 0.0
O338 O 0.73048 0.66339 0.55114 0.0
C339 C 0.79369 0.75211 0.52569 0.0
Co340 Co 0.29793 0.07642 0.5433 0.0
Co341 Co 0.25876 0.1031 0.52958 0.0
C342 C 0.30407 0.10948 0.48413 0.0
O343 O 0.31114 0.09483 0.50189 0.0
O344 O 0.28462 0.11542 0.49206 0.0
C345 C 0.35039 0.07412 0.55632 0.0
O346 O 0.36514 0.09976 0.54328 0.0
C347 C 0.23986 0.14493 0.51556 0.0
C348 C 0.19354 0.11971 0.5279 0.0
C349 C 0.21429 0.14601 0.51549 0.0
N350 N 0.23411 0.11918 0.52704 0.0
N351 N 0.20644 0.10426 0.53445 0.0
C352 C 0.26961 0.16794 0.50634 0.0
H353 H 0.28607 0.16393 0.51748 0.0
H354 H 0.27343 0.18956 0.51339 0.0
H355 H 0.27203 0.16754 0.4805 0.0
C356 C 0.30994 0.11114 0.60122 0.0
N357 N 0.29648 0.10167 0.57339 0.0
N358 N 0.28039 0.11344 0.56783 0.0
C359 C 0.28345 0.13116 0.59195 0.0
C360 C 0.30224 0.13019 0.61391 0.0
C361 C 0.33133 0.10354 0.61427 0.0
H362 H 0.32184 0.07975 0.61425 0.0
H363 H 0.35081 0.11324 0.59916 0.0
H364 H 0.33823 0.11177 0.63841 0.0
O365 O 0.26 0.04194 0.53746 0.0
O366 O 0.2322 0.06058 0.52652 0.0
H367 H 0.27043 0.15754 0.618 0.0
H368 H 0.27759 0.16594 0.57672 0.0
C369 C 0.26825 0.14819 0.59421 0.0
H370 H 0.24502 0.13412 0.58864 0.0
H371 H 0.19626 0.08332 0.54354 0.0
O372 O 0.32305 0.06182 0.55796 0.0
C373 C 0.23557 0.03881 0.53011 0.0
Co374 Co 0.91441 0.21901 0.54173 0.0
Co375 Co 0.88429 0.15271 0.52796 0.0
C376 C 0.88035 0.19252 0.48241 0.0
O377 O 0.89652 0.21402 0.4998 0.0
O378 O 0.87244 0.16673 0.49073 0.0
C379 C 0.91578 0.27275 0.55571 0.0
O380 O 0.88886 0.26002 0.54594 0.0
C381 C 0.848 0.09241 0.50626 0.0
C382 C 0.85634 0.06841 0.54316 0.0
C383 C 0.84086 0.06472 0.51579 0.0
N384 N 0.86639 0.11144 0.52738 0.0
N385 N 0.87154 0.09693 0.54913 0.0
C386 C 0.83971 0.10103 0.47627 0.0
H387 H 0.85918 0.11911 0.4653 0.0
H388 H 0.82423 0.1086 0.48148 0.0
H389 H 0.82994 0.08295 0.45924 0.0
C390 C 0.87901 0.198 0.59937 0.0
N391 N 0.88815 0.19327 0.57171 0.0
N392 N 0.8744 0.16538 0.56575 0.0
C393 C 0.85524 0.15157 0.58913 0.0
C394 C 0.85756 0.17186 0.61116 0.0
C395 C 0.89201 0.22668 0.6155 0.0
H396 H 0.91546 0.2395 0.61044 0.0
H397 H 0.8813 0.2386 0.60697 0.0
H398 H 0.88893 0.224 0.64131 0.0
O399 O 0.94788 0.2138 0.53765 0.0
O400 O 0.92691 0.16754 0.52444 0.0
H401 H 0.84408 0.10816 0.59956 0.0
H402 H 0.81464 0.11519 0.60387 0.0
C403 C 0.83378 0.11992 0.58939 0.0
H404 H 0.82672 0.11206 0.56512 0.0
H405 H 0.88537 0.10655 0.56818 0.0
O406 O 0.92955 0.25909 0.55521 0.0
C407 C 0.94954 0.19187 0.52937 0.0
Co408 Co 0.96395 0.55375 0.37504 0.0
Co409 Co 0.92787 0.48754 0.3607 0.0
C410 C 0.97259 0.5274 0.31606 0.0
O411 O 0.97775 0.54891 0.33339 0.0
O412 O 0.95442 0.50163 0.32415 0.0
C413 C 0.01629 0.607 0.39068 0.0
O414 O 0.03031 0.59404 0.38113 0.0
C415 C 0.90461 0.42721 0.3396 0.0
C416 C 0.87055 0.40346 0.37501 0.0
C417 C 0.88353 0.39962 0.34874 0.0
N418 N 0.90437 0.44635 0.35992 0.0
N419 N 0.88375 0.43201 0.38079 0.0
C420 C 0.92296 0.43564 0.31065 0.0
H421 H 0.92195 0.4535 0.29859 0.0
H422 H 0.94576 0.44349 0.3174 0.0
H423 H 0.91563 0.41742 0.29393 0.0
C424 C 0.97666 0.53196 0.43342 0.0
N425 N 0.96358 0.52764 0.40529 0.0
N426 N 0.94952 0.49982 0.39897 0.0
C427 C 0.95418 0.48567 0.4225 0.0
C428 C 0.97154 0.50562 0.44511 0.0
C429 C 0.99202 0.56044 0.44999 0.0
H430 H 0.98166 0.57344 0.44449 0.0
H431 H 0.01489 0.57235 0.44222 0.0
H432 H 0.99165 0.55743 0.47581 0.0
O433 O 0.92532 0.54871 0.36967 0.0
O434 O 0.90029 0.50246 0.35634 0.0
H435 H 0.9216 0.44206 0.43155 0.0
H436 H 0.95792 0.44901 0.43733 0.0
C437 C 0.944 0.45401 0.42231 0.0
H438 H 0.94407 0.44661 0.39802 0.0
H439 H 0.87878 0.44175 0.39912 0.0
O440 O 0.98887 0.59374 0.38931 0.0
C441 C 0.90189 0.52678 0.36094 0.0
Co442 Co 0.4351 0.4104 0.37404 0.0
Co443 Co 0.50116 0.43718 0.3614 0.0
C444 C 0.4626 0.443 0.31487 0.0
O445 O 0.44065 0.42844 0.33235 0.0
O446 O 0.48789 0.44907 0.32336 0.0
C447 C 0.38005 0.40786 0.38639 0.0
O448 O 0.39085 0.43346 0.3733 0.0
C449 C 0.56201 0.48006 0.34889 0.0
C450 C 0.58331 0.4548 0.35999 0.0
C451 C 0.58887 0.48151 0.34882 0.0
N452 N 0.542 0.45379 0.35925 0.0
N453 N 0.55488 0.43886 0.36592 0.0
C454 C 0.55496 0.50304 0.34056 0.0
H455 H 0.53367 0.49778 0.3505 0.0
H456 H 0.57186 0.52432 0.34962 0.0
H457 H 0.55372 0.50427 0.31464 0.0
C458 C 0.457 0.44531 0.43195 0.0
N459 N 0.46139 0.43588 0.40429 0.0
N460 N 0.48934 0.44766 0.39922 0.0
C461 C 0.50365 0.46535 0.42349 0.0
C462 C 0.48357 0.46436 0.445 0.0
C463 C 0.42786 0.43752 0.44464 0.0
H464 H 0.41365 0.41372 0.4445 0.0
H465 H 0.41815 0.44721 0.42941 0.0
H466 H 0.42894 0.44564 0.4688 0.0
O467 O 0.43882 0.37601 0.36904 0.0
O468 O 0.48541 0.39458 0.35888 0.0
H469 H 0.54511 0.46841 0.42038 0.0
H470 H 0.54255 0.49083 0.4506 0.0
C471 C 0.53584 0.48227 0.42645 0.0
H472 H 0.54455 0.50063 0.40973 0.0
H473 H 0.54418 0.4176 0.37409 0.0
O474 O 0.39523 0.39571 0.38818 0.0
C475 C 0.46021 0.37282 0.36234 0.0
Co476 Co 0.58096 0.02664 0.37545 0.0
Co477 Co 0.55264 0.06422 0.36122 0.0
C478 C 0.54738 0.01981 0.31588 0.0
O479 O 0.56302 0.01391 0.33351 0.0
O480 O 0.54006 0.03821 0.32398 0.0
C481 C 0.58275 0.97393 0.38764 0.0
O482 O 0.55731 0.9597 0.37408 0.0
C483 C 0.51114 0.0838 0.34728 0.0
C484 C 0.53641 0.12976 0.36092 0.0
C485 C 0.51027 0.10949 0.3478 0.0
N486 N 0.53665 0.08905 0.35909 0.0
N487 N 0.55158 0.11652 0.36728 0.0
C488 C 0.48811 0.05437 0.3372 0.0
H489 H 0.49173 0.03755 0.34805 0.0
H490 H 0.46643 0.0506 0.34394 0.0
H491 H 0.48898 0.05253 0.31132 0.0
C492 C 0.54587 0.01374 0.43325 0.0
N493 N 0.55516 0.02727 0.40541 0.0
N494 N 0.54266 0.04266 0.39966 0.0
C495 C 0.52454 0.03895 0.42363 0.0
C496 C 0.52607 0.02055 0.44573 0.0
C497 C 0.55439 0.99313 0.44657 0.0
H498 H 0.57824 0.00308 0.44598 0.0
H499 H 0.54473 0.97332 0.432 0.0
H500 H 0.54674 0.98667 0.47097 0.0
O501 O 0.6154 0.06485 0.37094 0.0
O502 O 0.59523 0.09074 0.35722 0.0
H503 H 0.52001 0.07646 0.42042 0.0
H504 H 0.49643 0.05015 0.44905 0.0
C505 C 0.50647 0.05307 0.42553 0.0
H506 H 0.4892 0.04353 0.40751 0.0
H507 H 0.57235 0.12633 0.37679 0.0
O508 O 0.59531 0.00125 0.38978 0.0
C509 C 0.61756 0.08855 0.36215 0.0
Co510 Co 0.88579 0.63609 0.79695 0.0
Co511 Co 0.81988 0.59557 0.8101 0.0
C512 C 0.85831 0.6407 0.85631 0.0
O513 O 0.88021 0.64852 0.8386 0.0
O514 O 0.83311 0.62101 0.84807 0.0
C515 C 0.94074 0.68896 0.7844 0.0
O516 O 0.93037 0.70356 0.79883 0.0
C517 C 0.75881 0.57574 0.82388 0.0
C518 C 0.73828 0.5295 0.8115 0.0
C519 C 0.73233 0.54997 0.82387 0.0
N520 N 0.77912 0.57037 0.81251 0.0
N521 N 0.76669 0.54274 0.80506 0.0
C522 C 0.7651 0.60534 0.83307 0.0
H523 H 0.78541 0.62197 0.82182 0.0
H524 H 0.74704 0.6088 0.82611 0.0
H525 H 0.76802 0.60782 0.85889 0.0
C526 C 0.8628 0.64852 0.7395 0.0
N527 N 0.85887 0.63458 0.76702 0.0
N528 N 0.83103 0.6177 0.77211 0.0
C529 C 0.8163 0.62052 0.74786 0.0
C530 C 0.83601 0.64011 0.72636 0.0
C531 C 0.89166 0.6711 0.72732 0.0
H532 H 0.90627 0.66201 0.72565 0.0
H533 H 0.90112 0.68945 0.74398 0.0
H534 H 0.89027 0.67964 0.7041 0.0
O535 O 0.88304 0.59835 0.80237 0.0
O536 O 0.83659 0.56962 0.81267 0.0
H537 H 0.77572 0.58112 0.75076 0.0
H538 H 0.77707 0.60591 0.72093 0.0
C539 C 0.78409 0.60419 0.74497 0.0
H540 H 0.77477 0.61298 0.762 0.0
H541 H 0.77771 0.53281 0.79602 0.0
O542 O 0.92542 0.66169 0.78204 0.0
C543 C 0.862 0.5736 0.80927 0.0
Co544 Co 0.3553 0.24715 0.80042 0.0
Co545 Co 0.39737 0.22283 0.80997 0.0
C546 C 0.35088 0.21319 0.85697 0.0
O547 O 0.34035 0.22528 0.83997 0.0
O548 O 0.37293 0.21169 0.84841 0.0
C549 C 0.3034 0.251 0.78814 0.0
O550 O 0.28818 0.22527 0.80085 0.0
C551 C 0.41793 0.18295 0.82853 0.0
C552 C 0.45667 0.19796 0.79866 0.0
C553 C 0.44025 0.17767 0.82124 0.0
N554 N 0.42084 0.20502 0.81066 0.0
N555 N 0.44418 0.21402 0.79307 0.0
C556 C 0.39592 0.16948 0.85416 0.0
H557 H 0.37391 0.15907 0.84384 0.0
H558 H 0.39871 0.15356 0.86813 0.0
H559 H 0.39808 0.18661 0.87045 0.0
C560 C 0.34309 0.21414 0.74117 0.0
N561 N 0.35738 0.22363 0.76857 0.0
N562 N 0.3741 0.21234 0.77279 0.0
C563 C 0.37041 0.19471 0.74835 0.0
C564 C 0.35078 0.19547 0.72744 0.0
C565 C 0.32088 0.22117 0.72951 0.0
H566 H 0.32992 0.2449 0.72978 0.0
H567 H 0.30188 0.21104 0.74531 0.0
H568 H 0.31342 0.21299 0.70545 0.0
O569 O 0.39349 0.28151 0.80835 0.0
O570 O 0.42415 0.26512 0.8121 0.0
H571 H 0.37749 0.16288 0.72466 0.0
H572 H 0.38297 0.16536 0.76682 0.0
C573 C 0.38566 0.1778 0.74499 0.0
H574 H 0.40906 0.19298 0.74158 0.0
H575 H 0.45159 0.23119 0.77724 0.0
O576 O 0.33071 0.26278 0.78657 0.0
C577 C 0.41901 0.28595 0.81215 0.0
Co578 Co 0.73994 0.10742 0.79734 0.0
Co579 Co 0.76888 0.17335 0.8115 0.0
C580 C 0.77427 0.13429 0.85661 0.0
O581 O 0.75835 0.11281 0.83906 0.0
O582 O 0.78163 0.16003 0.84863 0.0
C583 C 0.73931 0.05395 0.78272 0.0
O584 O 0.76637 0.06678 0.79201 0.0
C585 C 0.80962 0.23429 0.8268 0.0
C586 C 0.78584 0.25535 0.80902 0.0
C587 C 0.81077 0.26093 0.82494 0.0
N588 N 0.78506 0.21423 0.81307 0.0
N589 N 0.77103 0.22697 0.80242 0.0
C590 C 0.83172 0.22771 0.83981 0.0
H591 H 0.82904 0.20747 0.82945 0.0
H592 H 0.85388 0.24566 0.83485 0.0
H593 H 0.82876 0.22462 0.86559 0.0
C594 C 0.77432 0.12931 0.73914 0.0
N595 N 0.76549 0.13361 0.76719 0.0
N596 N 0.77859 0.16147 0.77314 0.0
C597 C 0.79686 0.17579 0.74925 0.0
C598 C 0.79487 0.15576 0.72698 0.0
C599 C 0.7617 0.10063 0.72303 0.0
H600 H 0.73835 0.08739 0.72846 0.0
H601 H 0.77291 0.08913 0.73133 0.0
H602 H 0.76437 0.10327 0.69719 0.0
O603 O 0.70578 0.11146 0.80196 0.0
O604 O 0.72624 0.15751 0.81575 0.0
H605 H 0.80377 0.2186 0.74517 0.0
H606 H 0.83309 0.21445 0.7298 0.0
C607 C 0.81669 0.20779 0.74869 0.0
H608 H 0.82786 0.21499 0.77158 0.0
H609 H 0.75106 0.21618 0.79109 0.0
O610 O 0.72543 0.06748 0.7837 0.0
C611 C 0.70381 0.13307 0.81078 0.0
Co612 Co 0.35698 0.10564 0.29883 0.0
Co613 Co 0.3937 0.17183 0.31257 0.0
C614 C 0.34974 0.13216 0.35815 0.0
O615 O 0.34406 0.11056 0.34077 0.0
O616 O 0.36786 0.15786 0.34979 0.0
C617 C 0.30467 0.05164 0.28479 0.0
O618 O 0.29019 0.06395 0.2949 0.0
C619 C 0.41631 0.2322 0.33309 0.0
C620 C 0.45103 0.25592 0.29833 0.0
C621 C 0.43746 0.25979 0.32404 0.0
N622 N 0.41708 0.21302 0.31324 0.0
N623 N 0.43809 0.22736 0.29275 0.0
C624 C 0.39738 0.22381 0.36158 0.0
H625 H 0.39889 0.20661 0.37452 0.0
H626 H 0.37459 0.21505 0.35419 0.0
H627 H 0.40381 0.24225 0.37779 0.0
C628 C 0.34272 0.12705 0.24125 0.0
N629 N 0.35659 0.13152 0.2689 0.0
N630 N 0.3713 0.15942 0.27474 0.0
C631 C 0.36653 0.17352 0.25122 0.0
C632 C 0.34822 0.1534 0.2293 0.0
C633 C 0.32612 0.09833 0.22536 0.0
H634 H 0.33647 0.08516 0.22987 0.0
H635 H 0.30374 0.08683 0.23465 0.0
H636 H 0.32507 0.10088 0.19962 0.0
O637 O 0.39564 0.11062 0.30305 0.0
O638 O 0.42134 0.15689 0.31608 0.0
H639 H 0.40045 0.21647 0.2419 0.0
H640 H 0.36477 0.21086 0.2348 0.0
C641 C 0.37785 0.20538 0.25059 0.0
H642 H 0.37767 0.2133 0.2746 0.0
H643 H 0.44348 0.2176 0.27482 0.0
O644 O 0.3321 0.06563 0.28514 0.0
C645 C 0.41937 0.13243 0.31127 0.0
Co646 Co 0.88467 0.24895 0.2974 0.0
Co647 Co 0.81873 0.22197 0.31072 0.0
C648 C 0.85747 0.21611 0.35674 0.0
O649 O 0.87921 0.23077 0.33902 0.0
O650 O 0.83207 0.20999 0.34864 0.0
C651 C 0.93826 0.24968 0.28237 0.0
O652 O 0.9257 0.22262 0.29161 0.0
C653 C 0.75794 0.18054 0.32567 0.0
C654 C 0.73653 0.20448 0.30954 0.0
C655 C 0.73113 0.17912 0.32433 0.0
N656 N 0.77786 0.2056 0.31266 0.0
N657 N 0.76491 0.21975 0.30301 0.0
C658 C 0.76487 0.15835 0.33759 0.0
H659 H 0.78554 0.16195 0.32742 0.0
H660 H 0.74735 0.13629 0.3315 0.0
H661 H 0.76732 0.16021 0.36349 0.0
C662 C 0.8624 0.21402 0.23951 0.0
N663 N 0.85828 0.22347 0.26727 0.0
N664 N 0.83038 0.21129 0.27287 0.0
C665 C 0.81585 0.19318 0.24896 0.0
C666 C 0.83578 0.19416 0.22716 0.0
C667 C 0.89112 0.22541 0.22373 0.0
H668 H 0.90492 0.2488 0.22849 0.0
H669 H 0.90192 0.21377 0.23286 0.0
H670 H 0.88864 0.22215 0.19794 0.0
O671 O 0.88111 0.28334 0.30243 0.0
O672 O 0.83464 0.26469 0.31329 0.0
H673 H 0.77376 0.18847 0.24684 0.0
H674 H 0.77644 0.15976 0.22739 0.0
C675 C 0.78368 0.17455 0.24785 0.0
H676 H 0.77604 0.16153 0.26963 0.0
H677 H 0.77555 0.24006 0.29238 0.0
O678 O 0.92454 0.26336 0.28359 0.0
C679 C 0.85977 0.28649 0.30951 0.0
Co680 Co 0.74325 0.63448 0.29938 0.0
Co681 Co 0.76683 0.59208 0.31059 0.0
C682 C 0.77809 0.63937 0.35624 0.0
O683 O 0.76527 0.64913 0.33917 0.0
O684 O 0.77995 0.61743 0.34813 0.0
C685 C 0.74141 0.68753 0.28619 0.0
O686 O 0.76723 0.70236 0.29878 0.0
C687 C 0.80838 0.57274 0.32355 0.0
C688 C 0.78298 0.52635 0.31177 0.0
C689 C 0.80944 0.54718 0.32375 0.0
N690 N 0.78248 0.56695 0.31248 0.0
N691 N 0.76744 0.53923 0.30538 0.0
C692 C 0.83158 0.60255 0.33228 0.0
H693 H 0.82773 0.61892 0.32064 0.0
H694 H 0.85315 0.60608 0.32543 0.0
H695 H 0.83116 0.6054 0.35804 0.0
C696 C 0.77534 0.64427 0.2397 0.0
N697 N 0.76616 0.63098 0.26768 0.0
N698 N 0.77693 0.61387 0.27241 0.0
C699 C 0.79375 0.61616 0.24765 0.0
C700 C 0.79319 0.63545 0.22611 0.0
C701 C 0.76872 0.66652 0.22724 0.0
H702 H 0.74508 0.658 0.228 0.0
H703 H 0.77949 0.68601 0.24227 0.0
H704 H 0.77649 0.67298 0.20285 0.0
O705 O 0.70781 0.59699 0.3074 0.0
O706 O 0.72454 0.56695 0.31479 0.0
H707 H 0.79517 0.57689 0.24994 0.0
H708 H 0.81881 0.60219 0.22056 0.0
C709 C 0.80982 0.60005 0.24454 0.0
H710 H 0.82779 0.60867 0.26176 0.0
H711 H 0.74636 0.52899 0.29668 0.0
O712 O 0.72902 0.66016 0.285 0.0
C713 C 0.70362 0.57188 0.31339 0.0
Co714 Co 0.43631 0.02404 0.87416 0.0
Co715 Co 0.50236 0.06296 0.86139 0.0
C716 C 0.46418 0.01817 0.81533 0.0
O717 O 0.44233 0.0111 0.83289 0.0
O718 O 0.48951 0.03755 0.82351 0.0
C719 C 0.38303 0.97114 0.88997 0.0
O720 O 0.39619 0.95684 0.8822 0.0
C721 C 0.56342 0.08333 0.84682 0.0
C722 C 0.58417 0.12826 0.86414 0.0
C723 C 0.59 0.10888 0.84872 0.0
N724 N 0.54318 0.08782 0.86007 0.0
N725 N 0.55573 0.11466 0.87045 0.0
C726 C 0.55702 0.05461 0.83417 0.0
H727 H 0.5366 0.0371 0.84432 0.0
H728 H 0.5749 0.05042 0.83969 0.0
H729 H 0.55434 0.05439 0.80832 0.0
C730 C 0.45833 0.012 0.93293 0.0
N731 N 0.46254 0.02534 0.90496 0.0
N732 N 0.49046 0.04085 0.89939 0.0
C733 C 0.50488 0.03727 0.92344 0.0
C734 C 0.48489 0.01862 0.94539 0.0
C735 C 0.4296 0.99504 0.94879 0.0
H736 H 0.41569 0.00437 0.94322 0.0
H737 H 0.41893 0.97235 0.94056 0.0
H738 H 0.43212 0.99508 0.97466 0.0
O739 O 0.43966 0.06186 0.86795 0.0
O740 O 0.48633 0.08959 0.85794 0.0
H741 H 0.54714 0.07425 0.92663 0.0
H742 H 0.54406 0.042 0.94434 0.0
C743 C 0.53703 0.05045 0.92449 0.0
H744 H 0.54465 0.04582 0.90224 0.0
H745 H 0.54476 0.12384 0.8814 0.0
O746 O 0.39629 -0.00152 0.88766 0.0
C747 C 0.46112 0.08626 0.86085 0.0
Co748 Co 0.9636 0.40813 0.87584 0.0
Co749 Co 0.92832 0.43915 0.86224 0.0
C750 C 0.97155 0.44208 0.81648 0.0
O751 O 0.97673 0.42577 0.83383 0.0
O752 O 0.95402 0.45037 0.82497 0.0
C753 C 0.01515 0.40487 0.88793 0.0
O754 O 0.02963 0.43097 0.87591 0.0
C755 C 0.90754 0.47854 0.84194 0.0
C756 C 0.87111 0.46631 0.8747 0.0
C757 C 0.88592 0.48465 0.84998 0.0
N758 N 0.90577 0.45787 0.86139 0.0
N759 N 0.88381 0.45052 0.88071 0.0
C760 C 0.92763 0.48982 0.81441 0.0
H761 H 0.92568 0.4714 0.80052 0.0
H762 H 0.95023 0.50252 0.82296 0.0
H763 H 0.92271 0.5033 0.79866 0.0
C764 C 0.97831 0.4433 0.93378 0.0
N765 N 0.96463 0.43455 0.90595 0.0
N766 N 0.9506 0.44845 0.90015 0.0
C767 C 0.95577 0.46728 0.92379 0.0
C768 C 0.97333 0.46443 0.94598 0.0
C769 C -0.00292 0.43268 0.94761 0.0
H770 H 0.98626 0.40885 0.94553 0.0
H771 H 0.01777 0.44241 0.93453 0.0
H772 H 0.00221 0.43877 0.9726 0.0
O773 O 0.92456 0.37513 0.87175 0.0
O774 O 0.89988 0.3968 0.85863 0.0
H775 H 0.92033 0.47439 0.93104 0.0
H776 H 0.95445 0.50395 0.94362 0.0
C777 C 0.94367 0.48716 0.92533 0.0
H778 H 0.94596 0.49757 0.90214 0.0
H779 H 0.87743 0.43461 0.89797 0.0
O780 O 0.98778 0.39218 0.88943 0.0
C781 C 0.90116 0.37394 0.86351 0.0
Co782 Co 0.58306 0.55419 0.87331 0.0
Co783 Co 0.55341 0.488 0.85925 0.0
C784 C 0.54884 0.52764 0.81405 0.0
O785 O 0.56485 0.54918 0.83148 0.0
O786 O 0.54133 0.50191 0.82222 0.0
C787 C 0.58392 0.60755 0.88832 0.0
O788 O 0.55688 0.59461 0.87895 0.0
C789 C 0.51421 0.42734 0.84041 0.0
C790 C 0.52828 0.40422 0.87252 0.0
C791 C 0.50881 0.39993 0.84879 0.0
N792 N 0.53563 0.44682 0.8587 0.0
N793 N 0.54403 0.43284 0.87768 0.0
C794 C 0.50108 0.43529 0.81393 0.0
H795 H 0.51853 0.45169 0.79891 0.0
H796 H 0.4886 0.44503 0.82358 0.0
H797 H 0.48691 0.41648 0.79903 0.0
C798 C 0.54815 0.53245 0.93139 0.0
N799 N 0.55714 0.52816 0.90339 0.0
N800 N 0.54368 0.50032 0.89721 0.0
C801 C 0.52491 0.48609 0.92075 0.0
C802 C 0.52715 0.50604 0.94317 0.0
C803 C 0.56097 0.56099 0.94781 0.0
H804 H 0.58435 0.57412 0.94247 0.0
H805 H 0.54992 0.57272 0.93975 0.0
H806 H 0.5582 0.55809 0.97363 0.0
O807 O 0.61675 0.54931 0.86863 0.0
O808 O 0.59604 0.50305 0.8555 0.0
H809 H 0.51538 0.44274 0.92845 0.0
H810 H 0.48567 0.44866 0.93693 0.0
C811 C 0.50402 0.45429 0.92077 0.0
H812 H 0.49557 0.44698 0.89672 0.0
H813 H 0.56052 0.44289 0.89423 0.0
O814 O 0.59796 0.59417 0.88718 0.0
C815 C 0.61858 0.5275 0.86025 0.0
Co816 Co 0.63061 0.88787 0.70996 0.0
Co817 Co 0.59469 0.8217 0.69589 0.0
C818 C 0.63873 0.86163 0.65077 0.0
O819 O 0.644 0.88314 0.66812 0.0
O820 O 0.6208 0.83587 0.65905 0.0
C821 C 0.68284 0.9415 0.72451 0.0
O822 O 0.69707 0.92878 0.71487 0.0
C823 C 0.57211 0.76157 0.67468 0.0
C824 C 0.53805 0.73742 0.70998 0.0
C825 C 0.55123 0.73387 0.6837 0.0
N826 N 0.57157 0.78051 0.69507 0.0
N827 N 0.55097 0.76592 0.7159 0.0
C828 C 0.5905 0.77027 0.64575 0.0
H829 H 0.58884 0.78768 0.63348 0.0
H830 H 0.6134 0.77883 0.65255 0.0
H831 H 0.58371 0.75202 0.62918 0.0
C832 C 0.64421 0.86649 0.768 0.0
N833 N 0.63079 0.862 0.74007 0.0
N834 N 0.61671 0.83415 0.7339 0.0
C835 C 0.62166 0.82014 0.75736 0.0
C836 C 0.63925 0.84022 0.77974 0.0
C837 C 0.65975 0.89508 0.78433 0.0
H838 H 0.64922 0.90797 0.77908 0.0
H839 H 0.68247 0.90703 0.77609 0.0
H840 H 0.65982 0.89226 0.81015 0.0
O841 O 0.59191 0.88262 0.70518 0.0
O842 O 0.56688 0.83637 0.69186 0.0
H843 H 0.58912 0.77655 0.76659 0.0
H844 H 0.62546 0.78354 0.77227 0.0
C845 C 0.61149 0.78849 0.75729 0.0
H846 H 0.61149 0.78101 0.73301 0.0
H847 H 0.54581 0.77547 0.73426 0.0
O848 O 0.65541 0.92787 0.72376 0.0
C849 C 0.56846 0.86066 0.69659 0.0
Co850 Co 0.10458 0.74556 0.70693 0.0
Co851 Co 0.17038 0.76835 0.6974 0.0
C852 C 0.13469 0.77879 0.64993 0.0
O853 O 0.11217 0.76716 0.6671 0.0
O854 O 0.15816 0.78007 0.65845 0.0
C855 C 0.05013 0.74438 0.7196 0.0
O856 O 0.06198 0.77077 0.70837 0.0
C857 C 0.23103 0.81032 0.68448 0.0
C858 C 0.2525 0.78533 0.69617 0.0
C859 C 0.25779 0.81166 0.68408 0.0
N860 N 0.21118 0.7844 0.69574 0.0
N861 N 0.22415 0.76961 0.70281 0.0
C862 C 0.22398 0.83319 0.67562 0.0
H863 H 0.20361 0.82903 0.68714 0.0
H864 H 0.24177 0.85487 0.68253 0.0
H865 H 0.22079 0.83275 0.64984 0.0
C866 C 0.12596 0.77796 0.76668 0.0
N867 N 0.13044 0.76869 0.73895 0.0
N868 N 0.15837 0.77933 0.73477 0.0
C869 C 0.17257 0.79614 0.75965 0.0
C870 C 0.15245 0.79575 0.7807 0.0
C871 C 0.09692 0.77139 0.77856 0.0
H872 H 0.08163 0.74783 0.7772 0.0
H873 H 0.08874 0.78272 0.76363 0.0
H874 H 0.09772 0.77866 0.80306 0.0
O875 O 0.10688 0.71024 0.69928 0.0
O876 O 0.15377 0.72601 0.69531 0.0
H877 H 0.21302 0.79693 0.75818 0.0
H878 H 0.21116 0.82036 0.78765 0.0
C879 C 0.20469 0.81175 0.76349 0.0
H880 H 0.21457 0.82993 0.74655 0.0
H881 H 0.21353 0.74855 0.71156 0.0
O882 O 0.0645 0.73134 0.72026 0.0
C883 C 0.12771 0.70543 0.69538 0.0
Co884 Co 0.24947 0.36055 0.70924 0.0
Co885 Co 0.22006 0.39738 0.69465 0.0
C886 C 0.21489 0.35232 0.65007 0.0
O887 O 0.23085 0.34673 0.66758 0.0
O888 O 0.20769 0.37081 0.65805 0.0
C889 C 0.25072 0.30817 0.72409 0.0
O890 O 0.22418 0.29404 0.71317 0.0
C891 C 0.18258 0.42029 0.67345 0.0
C892 C 0.19431 0.45578 0.7073 0.0
C893 C 0.17655 0.44187 0.68191 0.0
N894 N 0.20255 0.42113 0.69336 0.0
N895 N 0.2097 0.44263 0.71325 0.0
C896 C 0.17176 0.40096 0.64531 0.0
H897 H 0.19028 0.40174 0.63269 0.0
H898 H 0.15723 0.37839 0.65308 0.0
H899 H 0.16019 0.40759 0.62867 0.0
C900 C 0.21516 0.34858 0.76779 0.0
N901 N 0.22394 0.36144 0.73952 0.0
N902 N 0.21042 0.37575 0.73307 0.0
C903 C 0.19167 0.37136 0.75659 0.0
C904 C 0.19429 0.35422 0.77947 0.0
C905 C 0.22555 0.33004 0.7827 0.0
H906 H 0.24922 0.33998 0.77948 0.0
H907 H 0.21462 0.30851 0.77135 0.0
H908 H 0.22053 0.32681 0.80811 0.0
O909 O 0.28331 0.39898 0.70367 0.0
O910 O 0.26267 0.42463 0.69051 0.0
H911 H 0.18429 0.40661 0.76385 0.0
H912 H 0.15417 0.37217 0.77461 0.0
C913 C 0.17178 0.38348 0.75723 0.0
H914 H 0.1624 0.38188 0.73358 0.0
H915 H 0.22503 0.44824 0.73103 0.0
O916 O 0.26444 0.3356 0.72382 0.0
C917 C 0.28519 0.42261 0.69505 0.0
Co918 Co 0.55128 0.96582 0.13083 0.0
Co919 Co 0.48529 0.92832 0.14513 0.0
C920 C 0.52444 0.97266 0.19045 0.0
O921 O 0.54602 0.97859 0.17285 0.0
O922 O 0.49876 0.95417 0.18237 0.0
C923 C 0.6047 0.01887 0.11602 0.0
O924 O 0.59197 0.03297 0.12607 0.0
C925 C 0.42436 0.9085 0.16049 0.0
C926 C 0.40315 0.86343 0.14359 0.0
C927 C 0.39763 0.88305 0.15895 0.0
N928 N 0.44438 0.90371 0.14709 0.0
N929 N 0.43153 0.87678 0.13697 0.0
C930 C 0.4311 0.93738 0.17296 0.0
H931 H 0.45156 0.9547 0.16269 0.0
H932 H 0.41334 0.94175 0.16743 0.0
H933 H 0.43384 0.9377 0.19881 0.0
C934 C 0.52887 0.97889 0.07313 0.0
N935 N 0.52482 0.96535 0.10094 0.0
N936 N 0.49695 0.95013 0.1069 0.0
C937 C 0.4824 0.95402 0.08321 0.0
C938 C 0.50225 0.97263 0.06113 0.0
C939 C 0.55751 0.99587 0.0571 0.0
H940 H 0.57111 0.98601 0.06174 0.0
H941 H 0.56863 0.01831 0.06615 0.0
H942 H 0.55484 -0.00338 0.03133 0.0
O943 O 0.54735 0.92749 0.13527 0.0
O944 O 0.50124 0.90162 0.14886 0.0
H945 H 0.43987 0.91734 0.08101 0.0
H946 H 0.44314 0.94945 0.06272 0.0
C947 C 0.45028 0.94119 0.08265 0.0
H948 H 0.44311 0.94636 0.10489 0.0
H949 H 0.44225 0.86737 0.12596 0.0
O950 O 0.59119 0.99145 0.11676 0.0
C951 C 0.52576 0.90376 0.14393 0.0
Co952 Co 0.02505 0.582 0.13067 0.0
Co953 Co 0.06435 0.55546 0.14499 0.0
C954 C 0.01926 0.54954 0.19043 0.0
O955 O 0.01216 0.56399 0.17239 0.0
O956 O 0.03864 0.54344 0.18264 0.0
C957 C 0.97215 0.58306 0.11632 0.0
O958 O 0.95762 0.55673 0.12773 0.0
C959 C 0.08373 0.514 0.1596 0.0
C960 C 0.12985 0.53908 0.14641 0.0
C961 C 0.10936 0.51298 0.15945 0.0
N962 N 0.08922 0.53953 0.14766 0.0
N963 N 0.11678 0.55436 0.13975 0.0
C964 C 0.05414 0.49108 0.16946 0.0
H965 H 0.03749 0.49484 0.15841 0.0
H966 H 0.0503 0.46937 0.16277 0.0
H967 H 0.05209 0.4919 0.19531 0.0
C968 C 0.01393 0.54767 0.07258 0.0
N969 N 0.02676 0.55676 0.10076 0.0
N970 N 0.04258 0.54476 0.10676 0.0
C971 C 0.03971 0.52704 0.08271 0.0
C972 C 0.02153 0.52843 0.06027 0.0
C973 C 0.99376 0.55631 0.0583 0.0
H974 H 0.00315 0.58002 0.06016 0.0
H975 H 0.973 0.54551 0.07126 0.0
H976 H 0.98913 0.54992 0.03331 0.0
O977 O 0.06284 0.61656 0.13607 0.0
O978 O 0.09075 0.59814 0.14757 0.0
H979 H 0.07798 0.52381 0.08553 0.0
H980 H 0.05153 0.49926 0.05763 0.0
C981 C 0.05457 0.50966 0.08094 0.0
H982 H 0.04572 0.49273 0.09937 0.0
H983 H 0.12677 0.57512 0.13021 0.0
O984 O -0.00042 0.59623 0.11604 0.0
C985 C 0.0873 0.61983 0.14353 0.0
Co986 Co 0.40807 0.43771 0.12849 0.0
Co987 Co 0.43563 0.50393 0.14244 0.0
C988 C 0.44112 0.46449 0.18784 0.0
O989 O 0.42634 0.4428 0.17012 0.0
O990 O 0.4473 0.4899 0.17983 0.0
C991 C 0.40805 0.38466 0.1133 0.0
O992 O 0.43487 0.39763 0.12341 0.0
C993 C 0.47323 0.56424 0.16339 0.0
C994 C 0.46148 0.58808 0.12961 0.0
C995 C 0.47935 0.59186 0.15488 0.0
N996 N 0.45304 0.54514 0.14367 0.0
N997 N 0.44594 0.55955 0.12376 0.0
C998 C 0.4844 0.55572 0.19126 0.0
H999 H 0.46596 0.53867 0.20465 0.0
H1000 H 0.49801 0.5467 0.1831 0.0
H1001 H 0.49701 0.57411 0.20733 0.0
C1002 C 0.44307 0.46039 0.0707 0.0
N1003 N 0.43359 0.46436 0.09854 0.0
N1004 N 0.44638 0.49217 0.10472 0.0
C1005 C 0.46526 0.50674 0.08138 0.0
C1006 C 0.46377 0.48701 0.05905 0.0
C1007 C 0.43095 0.4319 0.0543 0.0
H1008 H 0.40754 0.41842 0.05928 0.0
H1009 H 0.44225 0.42053 0.06273 0.0
H1010 H 0.43401 0.43482 0.02851 0.0
O1011 O 0.37395 0.44168 0.13413 0.0
O1012 O 0.3928 0.4882 0.14508 0.0
H1013 H 0.47421 0.54978 0.07286 0.0
H1014 H 0.50458 0.54453 0.06609 0.0
C1015 C 0.48568 0.53864 0.0815 0.0
H1016 H 0.49335 0.54613 0.10572 0.0
H1017 H 0.43057 0.54987 0.106 0.0
O1018 O 0.39383 0.39788 0.11413 0.0
C1019 C 0.37092 0.46306 0.14141 0.0
Co1020 Co 0.02334 0.43813 0.63073 0.0
Co1021 Co 0.06106 0.50424 0.64458 0.0
C1022 C 0.01674 0.46435 0.69027 0.0
O1023 O 0.01001 0.44276 0.67246 0.0
O1024 O 0.0357 0.48986 0.68223 0.0
C1025 C 0.97109 0.38452 0.61544 0.0
O1026 O 0.95664 0.39699 0.62511 0.0
C1027 C 0.0816 0.56447 0.66423 0.0
C1028 C 0.11933 0.58836 0.633 0.0
C1029 C 0.1036 0.59208 0.65654 0.0
N1030 N 0.08409 0.54542 0.64576 0.0
N1031 N 0.10676 0.55985 0.62728 0.0
C1032 C 0.06002 0.55589 0.6903 0.0
H1033 H 0.06181 0.54019 0.7058 0.0
H1034 H 0.03789 0.54508 0.68028 0.0
H1035 H 0.06354 0.57455 0.70483 0.0
C1036 C 0.01026 0.46031 0.57291 0.0
N1037 N 0.0237 0.46442 0.60079 0.0
N1038 N 0.03842 0.49224 0.60697 0.0
C1039 C 0.03392 0.50666 0.58361 0.0
C1040 C 0.01587 0.48683 0.56124 0.0
C1041 C -0.00571 0.4318 0.55646 0.0
H1042 H 0.00451 0.4186 0.56151 0.0
H1043 H 0.97159 0.42011 0.56479 0.0
H1044 H 0.99419 0.43472 0.53067 0.0
O1045 O 0.06173 0.44284 0.63602 0.0
O1046 O 0.08896 0.48942 0.64683 0.0
H1047 H 0.06815 0.54986 0.57615 0.0
H1048 H 0.03269 0.54446 0.56763 0.0
C1049 C 0.04521 0.53853 0.58374 0.0
H1050 H 0.04412 0.54578 0.60782 0.0
H1051 H 0.11364 0.55019 0.61073 0.0
O1052 O -0.00149 0.39826 0.6165 0.0
C1053 C 0.08605 0.46443 0.64307 0.0
Co1054 Co 0.55203 0.58343 0.62903 0.0
Co1055 Co 0.48611 0.557 0.64333 0.0
C1056 C 0.52523 0.5505 0.6884 0.0
O1057 O 0.54685 0.56505 0.67049 0.0
O1058 O 0.49981 0.54463 0.68067 0.0
C1059 C 0.6059 0.58424 0.61508 0.0
O1060 O 0.59425 0.55843 0.62782 0.0
C1061 C 0.42525 0.51526 0.65771 0.0
C1062 C 0.40416 0.5405 0.64544 0.0
C1063 C 0.39858 0.51419 0.65784 0.0
N1064 N 0.44528 0.54101 0.64619 0.0
N1065 N 0.43252 0.55594 0.63884 0.0
C1066 C 0.43195 0.49221 0.66688 0.0
H1067 H 0.45236 0.49617 0.65565 0.0
H1068 H 0.41409 0.47061 0.65988 0.0
H1069 H 0.43485 0.49263 0.69271 0.0
C1070 C 0.52867 0.54885 0.57111 0.0
N1071 N 0.52496 0.55827 0.5991 0.0
N1072 N 0.49714 0.54657 0.60494 0.0
C1073 C 0.48224 0.5289 0.58088 0.0
C1074 C 0.50179 0.52986 0.55864 0.0
C1075 C 0.55751 0.55646 0.5576 0.0
H1076 H 0.57204 0.5802 0.55824 0.0
H1077 H 0.56713 0.54613 0.57197 0.0
H1078 H 0.55599 0.54883 0.53315 0.0
O1079 O 0.5489 0.6181 0.63495 0.0
O1080 O 0.50252 0.59963 0.64634 0.0
H1081 H 0.44096 0.52613 0.58456 0.0
H1082 H 0.44261 0.50252 0.5552 0.0
C1083 C 0.44999 0.51196 0.57891 0.0
H1084 H 0.44165 0.49429 0.59649 0.0
H1085 H 0.44328 0.57686 0.62971 0.0
O1086 O 0.59168 0.59744 0.61405 0.0
C1087 C 0.5277 0.62134 0.64254 0.0
Co1088 Co 0.40653 0.96515 0.63055 0.0
Co1089 Co 0.43527 0.92785 0.64398 0.0
C1090 C 0.44143 0.97258 0.68926 0.0
O1091 O 0.42544 0.9783 0.67199 0.0
O1092 O 0.44857 0.95409 0.681 0.0
C1093 C 0.40501 0.01786 0.61797 0.0
O1094 O 0.43131 0.0321 0.6295 0.0
C1095 C 0.47683 0.90849 0.65779 0.0
C1096 C 0.45181 0.86253 0.64402 0.0
C1097 C 0.47777 0.88285 0.65743 0.0
N1098 N 0.4514 0.90317 0.6457 0.0
N1099 N 0.43663 0.87572 0.63738 0.0
C1100 C 0.4997 0.93792 0.66806 0.0
H1101 H 0.49641 0.95474 0.65668 0.0
H1102 H 0.52151 0.9416 0.66207 0.0
H1103 H 0.49826 0.93987 0.69385 0.0
C1104 C 0.44039 0.97748 0.57174 0.0
N1105 N 0.43163 0.96423 0.59981 0.0
N1106 N 0.44443 0.94908 0.60537 0.0
C1107 C 0.46226 0.95274 0.58113 0.0
C1108 C 0.46022 0.97083 0.55899 0.0
C1109 C 0.43138 -0.00227 0.55845 0.0
H1110 H 0.44204 0.01816 0.57196 0.0
H1111 H 0.43766 0.00307 0.53353 0.0
H1112 H 0.40764 0.98805 0.56054 0.0
O1113 O 0.37223 0.92695 0.63607 0.0
O1114 O 0.39281 0.90126 0.64901 0.0
H1115 H 0.46726 0.91551 0.58409 0.0
H1116 H 0.49067 0.94203 0.55556 0.0
C1117 C 0.48062 0.93894 0.5791 0.0
H1118 H 0.49785 0.94854 0.59714 0.0
H1119 H 0.41591 0.86586 0.62773 0.0
O1120 O 0.39182 0.99046 0.61696 0.0
C1121 C 0.37033 0.90335 0.64482 0.0
Co1122 Co 0.10366 0.35885 0.20847 0.0
Co1123 Co 0.16998 0.39513 0.19486 0.0
C1124 C 0.12998 0.35164 0.14896 0.0
O1125 O 0.1084 0.34599 0.16641 0.0
O1126 O 0.15573 0.36949 0.15744 0.0
C1127 C 0.04913 0.30672 0.22067 0.0
O1128 O 0.06081 0.29249 0.20816 0.0
C1129 C 0.23033 0.41773 0.17377 0.0
C1130 C 0.25426 0.45272 0.20813 0.0
C1131 C 0.25799 0.43913 0.18235 0.0
N1132 N 0.21128 0.41839 0.19395 0.0
N1133 N 0.22574 0.43956 0.21418 0.0
C1134 C 0.22169 0.39891 0.1452 0.0
H1135 H 0.20435 0.40044 0.13261 0.0
H1136 H 0.21303 0.37611 0.15247 0.0
H1137 H 0.23996 0.40542 0.1287 0.0
C1138 C 0.12468 0.34471 0.26645 0.0
N1139 N 0.12942 0.35832 0.23858 0.0
N1140 N 0.15735 0.37267 0.23276 0.0
C1141 C 0.1712 0.36774 0.25644 0.0
C1142 C 0.15092 0.35006 0.27868 0.0
C1143 C 0.09537 0.32574 0.28036 0.0
H1144 H 0.08219 0.3364 0.2784 0.0
H1145 H 0.08452 0.3051 0.26723 0.0
H1146 H 0.09648 0.32059 0.30533 0.0
O1147 O 0.10892 0.39762 0.20428 0.0
O1148 O 0.15532 0.423 0.19152 0.0
H1149 H 0.20929 0.36873 0.27548 0.0
H1150 H 0.21164 0.379 0.23455 0.0
C1151 C 0.20323 0.38014 0.258 0.0
H1152 H 0.21347 0.40316 0.26497 0.0
H1153 H 0.21609 0.44504 0.23216 0.0
O1154 O 0.06365 0.33408 0.2223 0.0
C1155 C 0.13093 0.42126 0.19621 0.0
Co1156 Co 0.63152 0.742 0.20882 0.0
Co1157 Co 0.59258 0.76917 0.19465 0.0
C1158 C 0.63807 0.7756 0.14964 0.0
O1159 O 0.6449 0.76078 0.16745 0.0
O1160 O 0.61859 0.78154 0.15737 0.0
C1161 C 0.68464 0.74217 0.22505 0.0
O1162 O 0.69859 0.76938 0.21627 0.0
C1163 C 0.5734 0.81081 0.17942 0.0
C1164 C 0.52791 0.78686 0.19507 0.0
C1165 C 0.54805 0.81234 0.1806 0.0
N1166 N 0.56807 0.78561 0.19224 0.0
N1167 N 0.54088 0.77145 0.20157 0.0
C1168 C 0.60265 0.83306 0.16787 0.0
H1169 H 0.61958 0.82924 0.17801 0.0
H1170 H 0.60724 0.85507 0.1743 0.0
H1171 H 0.60342 0.83155 0.14194 0.0
C1172 C 0.64256 0.77608 0.26716 0.0
N1173 N 0.62969 0.76702 0.239 0.0
N1174 N 0.6142 0.77938 0.23295 0.0
C1175 C 0.61735 0.7973 0.25689 0.0
C1176 C 0.63568 0.79594 0.27927 0.0
C1177 C 0.65931 0.7643 0.28346 0.0
H1178 H 0.64991 0.74104 0.2781 0.0
H1179 H 0.68207 0.77616 0.27533 0.0
H1180 H 0.65913 0.76693 0.3093 0.0
O1181 O 0.59366 0.7076 0.20259 0.0
O1182 O 0.56599 0.72641 0.19141 0.0
H1183 H 0.58026 0.80253 0.25857 0.0
H1184 H 0.61188 0.83138 0.27756 0.0
C1185 C 0.60413 0.81623 0.25742 0.0
H1186 H 0.60958 0.8289 0.23539 0.0
H1187 H 0.53106 0.75106 0.21203 0.0
O1188 O 0.65725 0.72782 0.22318 0.0
C1189 C 0.5693 0.70457 0.195 0.0
Co1190 Co 0.24861 0.88648 0.21038 0.0
Co1191 Co 0.21902 0.82054 0.19595 0.0
C1192 C 0.21474 0.8603 0.15077 0.0
O1193 O 0.23078 0.88178 0.16827 0.0
O1194 O 0.207 0.83454 0.15898 0.0
C1195 C 0.24941 0.93979 0.22531 0.0
O1196 O 0.22243 0.92693 0.21573 0.0
C1197 C 0.18251 0.76037 0.17453 0.0
C1198 C 0.19246 0.73657 0.21023 0.0
C1199 C 0.17598 0.73279 0.18368 0.0
N1200 N 0.20158 0.77945 0.1951 0.0
N1201 N 0.20766 0.7651 0.21615 0.0
C1202 C 0.17291 0.76884 0.14536 0.0
H1203 H 0.19195 0.78659 0.1334 0.0
H1204 H 0.15804 0.77687 0.15182 0.0
H1205 H 0.16204 0.75061 0.12865 0.0
C1206 C 0.21305 0.86454 0.26812 0.0
N1207 N 0.22237 0.86035 0.24028 0.0
N1208 N 0.20889 0.83255 0.23393 0.0
C1209 C 0.18974 0.81826 0.25716 0.0
C1210 C 0.19178 0.83811 0.2796 0.0
C1211 C 0.22569 0.89301 0.28465 0.0
H1212 H 0.24912 0.90617 0.27959 0.0
H1213 H 0.21472 0.90477 0.27641 0.0
H1214 H 0.22263 0.89001 0.31043 0.0
O1215 O 0.28245 0.88173 0.20604 0.0
O1216 O 0.26159 0.83563 0.19225 0.0
H1217 H 0.17904 0.77476 0.26632 0.0
H1218 H 0.14937 0.78133 0.27156 0.0
C1219 C 0.1685 0.78654 0.25683 0.0
H1220 H 0.16136 0.77913 0.23246 0.0
H1221 H 0.22211 0.77481 0.2347 0.0
O1222 O 0.26339 0.92636 0.22435 0.0
C1223 C 0.28418 0.85994 0.19733 0.0
C1224 C 0.35785 0.21115 0.91447 0.0
C1225 C 0.33906 0.20337 0.88865 0.0
H1226 H 0.36171 0.21314 0.96472 0.0
C1227 C 0.30911 0.18847 0.89372 0.0
H1228 H 0.38106 0.22286 0.91106 0.0
C1229 C 0.2981 0.18199 0.92426 0.0
C1230 C 0.31693 0.19131 0.95013 0.0
H1231 H 0.29428 0.18233 0.8741 0.0
H1232 H 0.27492 0.17112 0.92771 0.0
C1233 C 0.34686 0.20567 0.94505 0.0
C1234 C 0.81275 0.14249 0.93426 0.0
C1235 C 0.79255 0.11716 0.94983 0.0
H1236 H 0.82252 0.16829 0.89236 0.0
C1237 C 0.76698 0.09761 0.9343 0.0
H1238 H 0.83268 0.15784 0.94576 0.0
C1239 C 0.76168 0.10305 0.90378 0.0
C1240 C 0.78146 0.12855 0.88828 0.0
H1241 H 0.75117 0.07776 0.9456 0.0
H1242 H 0.7417 0.08747 0.89253 0.0
C1243 C 0.80698 0.14842 0.90383 0.0
C1244 C 0.88862 0.65743 0.9042 0.0
C1245 C 0.86327 0.65211 0.88862 0.0
H1246 H 0.91337 0.6709 0.94645 0.0
C1247 C 0.84291 0.65672 0.90461 0.0
H1248 H 0.90451 0.65372 0.89258 0.0
C1249 C 0.84834 0.66727 0.93551 0.0
C1250 C 0.87363 0.67221 0.9511 0.0
H1251 H 0.82314 0.65262 0.89308 0.0
H1252 H 0.83272 0.67129 0.94729 0.0
C1253 C 0.89354 0.66697 0.93518 0.0
C1254 C 0.17611 0.32343 0.57231 0.0
C1255 C 0.19585 0.31781 0.55642 0.0
H1256 H 0.16693 0.33942 0.61454 0.0
C1257 C 0.22118 0.3229 0.57187 0.0
H1258 H 0.15635 0.31954 0.56093 0.0
C1259 C 0.22669 0.33318 0.60261 0.0
C1260 C 0.20738 0.3394 0.61838 0.0
H1261 H 0.23661 0.31842 0.56037 0.0
H1262 H 0.24649 0.33691 0.61377 0.0
C1263 C 0.18211 0.33467 0.60291 0.0
C1264 C 0.65664 0.89235 0.60307 0.0
C1265 C 0.65121 0.86709 0.61892 0.0
H1266 H 0.67024 0.91673 0.56052 0.0
C1267 C 0.65619 0.84679 0.60336 0.0
H1268 H 0.65268 0.90821 0.61433 0.0
C1269 C 0.66687 0.85198 0.57254 0.0
C1270 C 0.67167 0.87702 0.55658 0.0
H1271 H 0.65203 0.82708 0.61507 0.0
H1272 H 0.67093 0.83628 0.56105 0.0
C1273 C 0.66638 0.89706 0.57213 0.0
C1274 C 0.13275 0.78074 0.56161 0.0
C1275 C 0.12022 0.79804 0.55655 0.0
H1276 H 0.1483 0.7621 0.59562 0.0
C1277 C 0.11476 0.811 0.58234 0.0
H1278 H 0.13709 0.77052 0.54205 0.0
C1279 C 0.12022 0.80541 0.61289 0.0
C1280 C 0.13231 0.78775 0.61797 0.0
H1281 H 0.10488 0.82425 0.57899 0.0
H1282 H 0.11453 0.81444 0.63257 0.0
C1283 C 0.13926 0.77607 0.59211 0.0
C1284 C 0.66636 0.76809 0.07141 0.0
C1285 C 0.67197 0.79353 0.05585 0.0
H1286 H 0.65207 0.74308 0.11347 0.0
C1287 C 0.66687 0.81368 0.07156 0.0
H1288 H 0.67043 0.75235 0.06001 0.0
C1289 C 0.65565 0.80802 0.10219 0.0
C1290 C 0.65052 0.78269 0.11779 0.0
H1291 H 0.67119 0.83352 0.06005 0.0
H1292 H 0.65133 0.8235 0.11378 0.0
C1293 C 0.65615 0.76294 0.10215 0.0
C1294 C 0.22212 0.89617 0.07239 0.0
C1295 C 0.19683 0.8761 0.05677 0.0
H1296 H 0.24706 0.9072 0.11455 0.0
C1297 C 0.17682 0.85081 0.07255 0.0
H1298 H 0.23777 0.91601 0.06095 0.0
C1299 C 0.18246 0.84545 0.10325 0.0
C1300 C 0.20767 0.86581 0.11891 0.0
H1301 H 0.15709 0.83508 0.06102 0.0
H1302 H 0.16706 0.82559 0.11482 0.0
C1303 C 0.22729 0.89127 0.10322 0.0
C1304 C 0.09418 0.32402 0.07039 0.0
C1305 C 0.11398 0.3184 0.05478 0.0
H1306 H 0.08344 0.33812 0.11259 0.0
C1307 C 0.13922 0.32342 0.07052 0.0
H1308 H 0.07439 0.32005 0.059 0.0
C1309 C 0.14472 0.33439 0.10122 0.0
C1310 C 0.12454 0.33948 0.11693 0.0
H1311 H 0.15478 0.31914 0.05901 0.0
H1312 H 0.16448 0.33854 0.11279 0.0
C1313 C 0.09921 0.33407 0.10122 0.0
C1314 C 0.80766 0.69268 0.42323 0.0
C1315 C 0.79913 0.67398 0.4492 0.0
H1316 H 0.807 0.6962 0.37303 0.0
C1317 C 0.78598 0.64411 0.44427 0.0
H1318 H 0.81757 0.7158 0.42657 0.0
C1319 C 0.7809 0.63303 0.41376 0.0
C1320 C 0.78785 0.6516 0.3878 0.0
H1321 H 0.77911 0.62935 0.46402 0.0
H1322 H 0.77006 0.60984 0.4105 0.0
C1323 C 0.80156 0.68153 0.39272 0.0
C1324 C 0.3208 0.14131 0.43618 0.0
C1325 C 0.31622 0.11633 0.45213 0.0
H1326 H 0.33576 0.16638 0.39372 0.0
C1327 C 0.3222 0.09669 0.43674 0.0
H1328 H 0.31621 0.15669 0.44755 0.0
C1329 C 0.33228 0.10165 0.40595 0.0
C1330 C 0.33738 0.12677 0.39006 0.0
H1331 H 0.31854 0.07709 0.44832 0.0
H1332 H 0.33666 0.08603 0.39479 0.0
C1333 C 0.33186 0.14677 0.40549 0.0
C1334 C 0.84786 0.1783 0.43507 0.0
C1335 C 0.87341 0.19814 0.45058 0.0
H1336 H 0.82229 0.16873 0.39304 0.0
C1337 C 0.89344 0.22339 0.43487 0.0
H1338 H 0.83214 0.15861 0.44669 0.0
C1339 C 0.88832 0.22862 0.40418 0.0
C1340 C 0.86268 0.20912 0.38872 0.0
H1341 H 0.91346 0.23891 0.44608 0.0
H1342 H 0.90428 0.2483 0.39273 0.0
C1343 C 0.84227 0.18402 0.40449 0.0
C1344 C 0.99125 0.55817 0.26845 0.0
C1345 C 0.98558 0.53289 0.28441 0.0
H1346 H 0.00555 0.58266 0.22603 0.0
C1347 C 0.99091 0.51267 0.26917 0.0
H1348 H 0.98706 0.57398 0.27944 0.0
C1349 C 0.00217 0.51798 0.23857 0.0
C1350 C 0.00718 0.54303 0.22248 0.0
H1351 H 0.98658 0.49294 0.28097 0.0
H1352 H 0.0065 0.50235 0.22732 0.0
C1353 C 0.00154 0.56298 0.23772 0.0
C1354 C 0.4282 0.43383 0.23548 0.0
C1355 C 0.4479 0.45932 0.21993 0.0
H1356 H 0.41716 0.40929 0.27791 0.0
C1357 C 0.47272 0.47995 0.23593 0.0
H1358 H 0.40872 0.41772 0.22387 0.0
C1359 C 0.47791 0.47479 0.26691 0.0
C1360 C 0.45775 0.44948 0.28254 0.0
H1361 H 0.48815 0.49985 0.22443 0.0
H1362 H 0.49734 0.49069 0.27878 0.0
C1363 C 0.43286 0.42916 0.26655 0.0
C1364 C 0.5096 0.99039 0.23777 0.0
C1365 C 0.5299 0.98535 0.22223 0.0
H1366 H 0.49948 0.00598 0.27974 0.0
C1367 C 0.55544 0.99138 0.23786 0.0
H1368 H 0.48969 0.98581 0.22622 0.0
C1369 C 0.56051 0.00186 0.2685 0.0
C1370 C 0.54055 0.00732 0.284 0.0
H1371 H 0.57132 0.98742 0.22661 0.0
H1372 H 0.58044 0.00621 0.27987 0.0
C1373 C 0.51515 0.00182 0.26829 0.0
C1374 C 0.47395 0.99041 0.73672 0.0
C1375 C 0.44851 0.98503 0.72115 0.0
H1376 H 0.49937 0.00592 0.77894 0.0
C1377 C 0.42856 0.99032 0.73691 0.0
H1378 H 0.48961 0.98637 0.72507 0.0
C1379 C 0.4336 0.00037 0.76769 0.0
C1380 C 0.45909 0.00616 0.78326 0.0
H1381 H 0.40861 0.98606 0.72567 0.0
H1382 H 0.41766 0.00413 0.77914 0.0
C1383 C 0.47948 0.00146 0.76743 0.0
C1384 C 0.00036 0.47965 0.73822 0.0
C1385 C 0.00458 0.45903 0.72227 0.0
H1386 H 0.98593 0.49021 0.78071 0.0
C1387 C -0.00163 0.43336 0.73773 0.0
H1388 H 0.00511 0.49967 0.7268 0.0
C1389 C 0.98846 0.42846 0.76861 0.0
C1390 C 0.98377 0.44875 0.78449 0.0
H1391 H 0.00175 0.41724 0.72615 0.0
H1392 H 0.9839 0.40842 0.77984 0.0
C1393 C 0.98951 0.4743 0.76897 0.0
C1394 C 0.51608 0.51316 0.76695 0.0
C1395 C 0.5417 0.53312 0.78226 0.0
H1396 H 0.4903 0.50328 0.72505 0.0
C1397 C 0.56164 0.55827 0.76635 0.0
H1398 H 0.50044 0.49354 0.77874 0.0
C1399 C 0.55637 0.56327 0.73562 0.0
C1400 C 0.53067 0.54364 0.72034 0.0
H1401 H 0.58171 0.57387 0.77742 0.0
H1402 H 0.57227 0.58288 0.724 0.0
C1403 C 0.51034 0.51866 0.73634 0.0
C1404 C 0.36572 0.34208 0.08937 0.0
C1405 C 0.3949 0.35592 0.09833 0.0
H1406 H 0.3304 0.30536 0.06807 0.0
C1407 C 0.4112 0.34247 0.09185 0.0
H1408 H 0.35252 0.35183 0.0939 0.0
C1409 C 0.39842 0.31561 0.07671 0.0
C1410 C 0.36914 0.30179 0.06799 0.0
H1411 H 0.4338 0.35271 0.09831 0.0
H1412 H 0.41135 0.30557 0.07219 0.0
C1413 C 0.35301 0.31538 0.07445 0.0
C1414 C 0.67371 0.0774 0.07835 0.0
C1415 C 0.68746 0.06171 0.0703 0.0
H1416 H 0.6367 0.07622 0.09959 0.0
C1417 C 0.67391 0.03218 0.07772 0.0
H1418 H 0.68374 0.10023 0.07309 0.0
C1419 C 0.64727 0.01859 0.09283 0.0
C1420 C 0.63347 0.03414 0.10106 0.0
H1421 H 0.68388 0.01943 0.07188 0.0
H1422 H 0.63752 0.99576 0.09807 0.0
C1423 C 0.64693 0.06372 0.09371 0.0
C1424 C 0.91494 0.59407 0.07631 0.0
C1425 C 0.9307 0.62378 0.0696 0.0
H1426 H 0.9156 0.55775 0.09696 0.0
C1427 C 0.95978 0.63979 0.07879 0.0
H1428 H 0.89242 0.58125 0.06968 0.0
C1429 C 0.97292 0.62646 0.09425 0.0
C1430 C 0.95727 0.59682 0.10114 0.0
H1431 H 0.97253 0.66273 0.07401 0.0
H1432 H -0.00457 0.63951 0.10086 0.0
C1433 C 0.92811 0.58069 0.09214 0.0
C1434 C 0.31114 0.39613 0.42533 0.0
C1435 C 0.29859 0.36706 0.43454 0.0
H1436 H 0.34679 0.43194 0.40225 0.0
C1437 C 0.31283 0.3517 0.42736 0.0
H1438 H 0.30051 0.40842 0.43036 0.0
C1439 C 0.33901 0.36501 0.41138 0.0
C1440 C 0.3516 0.39399 0.40198 0.0
H1441 H 0.30374 0.32926 0.43409 0.0
H1442 H 0.34937 0.35245 0.40637 0.0
C1443 C 0.33743 0.40949 0.40901 0.0
C1444 C 0.59314 0.91484 0.42375 0.0
C1445 C 0.62171 0.93092 0.43473 0.0
H1446 H 0.55835 0.91581 0.39965 0.0
C1447 C 0.6371 0.96091 0.42996 0.0
H1448 H 0.58085 0.89164 0.42692 0.0
C1449 C 0.62438 0.9746 0.41444 0.0
C1450 C 0.59595 0.95865 0.40314 0.0
H1451 H 0.65915 0.97394 0.43815 0.0
H1452 H 0.63699 -0.00221 0.41124 0.0
C1453 C 0.58038 0.92861 0.40792 0.0
C1454 C 0.06117 0.64883 0.41335 0.0
C1455 C 0.03159 0.63558 0.40601 0.0
H1456 H 0.09778 0.68528 0.43424 0.0
C1457 C 0.01612 0.64938 0.41462 0.0
H1458 H 0.07361 0.63862 0.40718 0.0
C1459 C 0.02982 0.67583 0.4301 0.0
C1460 C 0.05936 0.68918 0.43747 0.0
H1461 H 0.9933 0.63977 0.40943 0.0
H1462 H 0.01715 0.68582 0.43621 0.0
C1463 C 0.07494 0.67542 0.42903 0.0
C1464 C 0.62702 0.65035 0.91071 0.0
C1465 C 0.5975 0.63634 0.90314 0.0
H1466 H 0.66294 0.68704 0.93124 0.0
C1467 C 0.58129 0.64956 0.91109 0.0
H1468 H 0.64016 0.64077 0.90496 0.0
C1469 C 0.59445 0.67629 0.9265 0.0
C1470 C 0.62402 0.6902 0.93399 0.0
H1471 H 0.55845 0.63917 0.90572 0.0
H1472 H 0.58156 0.68611 0.9323 0.0
C1473 C 0.6401 0.67692 0.92588 0.0
C1474 C 0.31284 0.95902 0.92412 0.0
C1475 C 0.30121 0.93134 0.93735 0.0
H1476 H 0.34745 0.99295 0.89856 0.0
C1477 C 0.31628 0.91619 0.93399 0.0
H1478 H 0.30176 0.97126 0.92615 0.0
C1479 C 0.34261 0.92866 0.91776 0.0
C1480 C 0.3543 0.95653 0.90494 0.0
H1481 H 0.30772 0.89473 0.94374 0.0
H1482 H 0.35404 0.91676 0.91579 0.0
C1483 C 0.33905 0.97146 0.9082 0.0
C1484 C 0.07303 0.39397 0.92626 0.0
C1485 C 0.05707 0.36458 0.93438 0.0
H1486 H 0.07234 0.42987 0.90457 0.0
C1487 C 0.02762 0.3487 0.92658 0.0
H1488 H 0.09582 0.40666 0.93178 0.0
C1489 C 0.01433 0.36184 0.91111 0.0
C1490 C 0.03016 0.39117 0.90286 0.0
H1491 H 0.01471 0.326 0.93247 0.0
H1492 H 0.99153 0.34892 0.90562 0.0
C1493 C 0.05968 0.40716 0.91045 0.0
C1494 C 0.64667 0.58029 0.59079 0.0
C1495 C 0.63406 0.59703 0.5989 0.0
H1496 H 0.68215 0.5794 0.56822 0.0
C1497 C 0.64796 0.62624 0.59008 0.0
H1498 H 0.63628 0.55764 0.59705 0.0
C1499 C 0.67395 0.63857 0.57371 0.0
C1500 C 0.68665 0.62197 0.5655 0.0
H1501 H 0.6388 0.63973 0.59591 0.0
H1502 H 0.68413 0.66123 0.5675 0.0
C1503 C 0.67273 0.59265 0.57403 0.0
C1504 C 0.36189 0.01766 0.59592 0.0
C1505 C 0.39148 0.03309 0.60312 0.0
H1506 H 0.32594 0.01847 0.5754 0.0
C1507 C 0.40782 0.06235 0.59454 0.0
H1508 H 0.34869 0.99509 0.6022 0.0
C1509 C 0.39473 0.0758 0.57873 0.0
C1510 C 0.36508 0.06023 0.57164 0.0
H1511 H 0.43073 0.07469 0.5996 0.0
H1512 H 0.4077 0.09838 0.57238 0.0
C1513 C 0.34884 0.03108 0.58049 0.0
C1514 C 0.92671 0.34195 0.59302 0.0
C1515 C 0.95625 0.35572 0.60062 0.0
H1516 H 0.89061 0.30483 0.57238 0.0
C1517 C 0.97218 0.34221 0.59285 0.0
H1518 H 0.91393 0.35195 0.59856 0.0
C1519 C 0.95898 0.31553 0.57792 0.0
C1520 C 0.92949 0.30166 0.57025 0.0
H1521 H -0.00501 0.35222 0.59832 0.0
H1522 H 0.972 0.30577 0.57243 0.0
C1523 C 0.91343 0.31511 0.57784 0.0
C1524 C 0.98314 0.73369 0.7622 0.0
C1525 C 0.96887 0.70382 0.76811 0.0
H1526 H 0.02006 0.77009 0.74153 0.0
C1527 C 0.98113 0.68757 0.75711 0.0
H1528 H 0.97405 0.7467 0.77019 0.0
C1529 C 0.00718 0.70083 0.74084 0.0
C1530 C 0.02157 0.73065 0.73493 0.0
H1531 H 0.97067 0.6645 0.76118 0.0
H1532 H 0.01609 0.68763 0.73297 0.0
C1533 C 0.00926 0.747 0.74554 0.0
C1534 C 0.25963 0.25006 0.76511 0.0
C1535 C 0.28921 0.26531 0.77256 0.0
H1536 H 0.22418 0.25156 0.74334 0.0
C1537 C 0.30586 0.29439 0.76357 0.0
H1538 H 0.24633 0.22755 0.77154 0.0
C1539 C 0.29329 0.30802 0.74754 0.0
C1540 C 0.26379 0.29287 0.73986 0.0
H1541 H 0.32872 0.30676 0.76893 0.0
H1542 H 0.30681 0.33052 0.74111 0.0
C1543 C 0.24703 0.26371 0.74872 0.0
C1544 C 0.69575 0.01103 0.76132 0.0
C1545 C 0.72535 0.02492 0.76846 0.0
H1546 H 0.65936 0.97415 0.74174 0.0
C1547 C 0.74123 0.0113 0.76072 0.0
H1548 H 0.68285 0.0209 0.76694 0.0
C1549 C 0.72764 0.98428 0.74595 0.0
C1550 C 0.69798 0.97048 0.73889 0.0
H1551 H 0.76412 0.02159 0.76579 0.0
H1552 H 0.74028 0.97414 0.7403 0.0
C1553 C 0.68225 0.98417 0.74678 0.0
C1554 C 0.30577 0.00931 0.26234 0.0
C1555 C 0.28978 0.02275 0.27022 0.0
H1556 H 0.30565 0.97294 0.24186 0.0
C1557 C 0.26019 0.00884 0.26286 0.0
H1558 H 0.32861 0.01942 0.26764 0.0
C1559 C 0.24692 0.98199 0.24773 0.0
C1560 C 0.26305 0.96864 0.23996 0.0
H1561 H 0.24738 0.01879 0.26849 0.0
H1562 H 0.22407 0.97161 0.2424 0.0
C1563 C 0.29257 0.98261 0.24746 0.0
C1564 C 0.00756 0.30725 0.24608 0.0
C1565 C 0.02053 0.29143 0.2359 0.0
H1566 H 0.97177 0.30654 0.26893 0.0
C1567 C 0.00651 0.26154 0.24169 0.0
H1568 H 0.0178 0.33031 0.24207 0.0
C1569 C 0.97995 0.24781 0.25747 0.0
C1570 C 0.96701 0.26376 0.26743 0.0
H1571 H 0.01613 0.24885 0.2343 0.0
H1572 H 0.96942 0.22473 0.26149 0.0
C1573 C 0.98114 0.2936 0.26158 0.0
C1574 C 0.74236 0.7321 0.26545 0.0
C1575 C 0.72733 0.70215 0.27096 0.0
H1576 H 0.74076 0.76837 0.24613 0.0
C1577 C 0.69857 0.68569 0.26075 0.0
H1578 H 0.76461 0.74532 0.27288 0.0
C1579 C 0.68505 0.69877 0.24554 0.0
C1580 C 0.69994 0.72866 0.23995 0.0
H1581 H 0.68635 0.66256 0.26455 0.0
H1582 H 0.6628 0.68534 0.23817 0.0
C1583 C 0.7288 0.74524 0.24993 0.0
C1584 C 0.29622 0.14668 0.16504 0.0
C1585 C 0.31512 0.16569 0.14224 0.0
H1586 H 0.29203 0.1281 0.21077 0.0
C1587 C 0.34496 0.18102 0.14853 0.0
H1588 H 0.27311 0.13502 0.16101 0.0
C1589 C 0.35569 0.17755 0.17713 0.0
C1590 C 0.33681 0.15838 0.19977 0.0
H1591 H 0.36004 0.19563 0.13121 0.0
H1592 H 0.37878 0.1894 0.18132 0.0
C1593 C 0.307 0.14293 0.19351 0.0
C1594 C 0.84266 0.14832 0.16377 0.0
C1595 C 0.82402 0.14829 0.1406 0.0
H1596 H 0.86043 0.16247 0.20977 0.0
C1597 C 0.80878 0.16298 0.14625 0.0
H1598 H 0.85426 0.13675 0.16015 0.0
C1599 C 0.81212 0.17749 0.17461 0.0
C1600 C 0.83074 0.1775 0.1978 0.0
H1601 H 0.79434 0.16333 0.12861 0.0
H1602 H 0.80055 0.18909 0.17822 0.0
C1603 C 0.84599 0.16281 0.19214 0.0
C1604 C 0.7956 0.64286 0.16801 0.0
C1605 C 0.80989 0.64661 0.19678 0.0
H1606 H 0.79997 0.65164 0.11849 0.0
C1607 C 0.84014 0.66279 0.19773 0.0
H1608 H 0.77222 0.63049 0.16688 0.0
C1609 C 0.85589 0.67536 0.17033 0.0
C1610 C 0.84164 0.67158 0.1415 0.0
H1611 H 0.85152 0.66619 0.21978 0.0
H1612 H 0.87925 0.688 0.17159 0.0
C1613 C 0.81137 0.65517 0.14053 0.0
C1614 C 0.14965 0.33189 0.36486 0.0
C1615 C 0.16148 0.31366 0.36422 0.0
H1616 H 0.1378 0.35842 0.33806 0.0
C1617 C 0.17002 0.30758 0.33536 0.0
H1618 H 0.1432 0.33706 0.38692 0.0
C1619 C 0.16704 0.3198 0.30755 0.0
C1620 C 0.15551 0.3383 0.30821 0.0
H1621 H 0.17919 0.29354 0.33441 0.0
H1622 H 0.17348 0.31461 0.28549 0.0
C1623 C 0.14681 0.34423 0.33706 0.0
C1624 C 0.63895 0.82836 0.35934 0.0
C1625 C 0.6687 0.84213 0.36592 0.0
H1626 H 0.60507 0.80265 0.32673 0.0
C1627 C 0.68746 0.841 0.34371 0.0
H1628 H 0.62405 0.82882 0.37626 0.0
C1629 C 0.67667 0.82642 0.31533 0.0
C1630 C 0.64692 0.81256 0.30875 0.0
H1631 H 0.71051 0.85181 0.34809 0.0
H1632 H 0.69163 0.82608 0.29841 0.0
C1633 C 0.62813 0.8136 0.33102 0.0
C1634 C 0.15727 0.80755 0.35854 0.0
C1635 C 0.14465 0.82446 0.36583 0.0
H1636 H 0.18203 0.79858 0.3254 0.0
C1637 C 0.14731 0.84559 0.34439 0.0
H1638 H 0.15588 0.79136 0.37486 0.0
C1639 C 0.16233 0.84975 0.3162 0.0
C1640 C 0.17493 0.83283 0.30892 0.0
H1641 H 0.13746 0.85864 0.34924 0.0
H1642 H 0.16393 0.86608 0.29994 0.0
C1643 C 0.17218 0.81162 0.33028 0.0
C1644 C 0.63247 0.81394 0.83049 0.0
C1645 C 0.65084 0.83527 0.80921 0.0
H1646 H 0.62868 0.79349 0.87489 0.0
C1647 C 0.68031 0.85251 0.81659 0.0
H1648 H 0.60961 0.80068 0.82553 0.0
C1649 C 0.69124 0.84842 0.84477 0.0
C1650 C 0.67287 0.82702 0.86602 0.0
H1651 H 0.69497 0.86895 0.80039 0.0
H1652 H 0.71411 0.86162 0.84968 0.0
C1653 C 0.64337 0.80992 0.8587 0.0
C1654 C 0.14867 0.81357 0.86601 0.0
C1655 C 0.16413 0.84387 0.86548 0.0
H1656 H 0.13347 0.7745 0.83942 0.0
C1657 C 0.17611 0.85822 0.83702 0.0
H1658 H 0.13948 0.80207 0.88775 0.0
C1659 C 0.17304 0.84254 0.80961 0.0
C1660 C 0.15761 0.81227 0.81015 0.0
H1661 H 0.18799 0.8816 0.83607 0.0
H1662 H 0.18224 0.85403 0.78787 0.0
C1663 C 0.14549 0.79789 0.83855 0.0
C1664 C 0.19151 0.3493 0.83795 0.0
C1665 C 0.17747 0.34257 0.80872 0.0
H1666 H 0.18709 0.34251 0.88785 0.0
C1667 C 0.14761 0.32324 0.80742 0.0
H1668 H 0.21456 0.36415 0.83942 0.0
C1669 C 0.13202 0.3108 0.83497 0.0
C1670 C 0.14607 0.31751 0.86419 0.0
H1671 H 0.13645 0.31748 0.78507 0.0
H1672 H 0.10897 0.29596 0.83351 0.0
C1673 C 0.17593 0.33682 0.8655 0.0
C1674 C 0.84351 0.64972 0.66867 0.0
C1675 C 0.83034 0.65091 0.69675 0.0
H1676 H 0.85035 0.66065 0.61969 0.0
C1677 C 0.81333 0.66413 0.69674 0.0
H1678 H 0.85661 0.63947 0.66814 0.0
C1679 C 0.80984 0.67627 0.66913 0.0
C1680 C 0.82323 0.67527 0.64114 0.0
H1681 H 0.8032 0.66553 0.71819 0.0
H1682 H 0.79669 0.68646 0.6696 0.0
C1683 C 0.84014 0.66196 0.64112 0.0
C1684 C 0.34154 0.19301 0.66969 0.0
C1685 C 0.33878 0.17873 0.69828 0.0
H1686 H 0.33165 0.18862 0.62041 0.0
C1687 C 0.32305 0.14847 0.6992 0.0
H1688 H 0.35351 0.21639 0.66856 0.0
C1689 C 0.3104 0.1327 0.67187 0.0
C1690 C 0.31343 0.14695 0.64321 0.0
H1691 H 0.32029 0.13708 0.72113 0.0
H1692 H 0.29843 0.10932 0.67302 0.0
C1693 C 0.32888 0.17723 0.64234 0.0
C1694 C 0.82844 0.18441 0.64715 0.0
C1695 C 0.84095 0.16728 0.64048 0.0
H1696 H 0.80382 0.19407 0.67979 0.0
C1697 C 0.83856 0.14673 0.66253 0.0
H1698 H 0.82984 0.20028 0.63034 0.0
C1699 C 0.82407 0.14349 0.69088 0.0
C1700 C 0.81148 0.16054 0.69756 0.0
H1701 H 0.84836 0.13357 0.65809 0.0
H1702 H 0.82282 0.12769 0.7077 0.0
C1703 C 0.81376 0.18102 0.67544 0.0
C1704 C 0.02303 0.51356 0.51062 0.0
C1705 C 0.0045 0.49216 0.53178 0.0
H1706 H 0.0271 0.53418 0.46622 0.0
C1707 C 0.97506 0.47505 0.52417 0.0
H1708 H 0.04587 0.52674 0.51571 0.0
C1709 C 0.96438 0.47912 0.49582 0.0
C1710 C 0.9829 0.50052 0.47468 0.0
H1711 H 0.96025 0.45859 0.54027 0.0
H1712 H 0.94156 0.46587 0.49066 0.0
C1713 C 0.01232 0.5177 0.48231 0.0
C1714 C 0.50696 0.52724 0.5006 0.0
C1715 C 0.49594 0.51305 0.52935 0.0
H1716 H 0.51206 0.52273 0.45127 0.0
C1717 C 0.48108 0.48278 0.5303 0.0
H1718 H 0.51841 0.55061 0.49939 0.0
C1719 C 0.47761 0.46693 0.50293 0.0
C1720 C 0.4888 0.48113 0.47422 0.0
H1721 H 0.47267 0.47144 0.5523 0.0
H1722 H 0.46617 0.44355 0.50412 0.0
C1723 C 0.50355 0.51139 0.47325 0.0
C1724 C 0.47888 0.9921 0.47366 0.0
C1725 C 0.50911 0.00878 0.47489 0.0
H1726 H 0.43968 0.9662 0.49946 0.0
C1727 C 0.52321 0.01248 0.5038 0.0
H1728 H 0.46761 0.98871 0.45155 0.0
C1729 C 0.50735 -0.00049 0.53105 0.0
C1730 C 0.47712 0.9828 0.52982 0.0
H1731 H 0.54655 0.0253 0.50523 0.0
H1732 H 0.51863 0.00288 0.55315 0.0
C1733 C 0.46301 0.9791 0.50091 0.0
C1734 C 0.47779 0.96587 0.00907 0.0
C1735 C 0.4971 0.98436 0.03185 0.0
H1736 H 0.45931 0.96233 0.96347 0.0
C1737 C 0.51274 0.01424 0.0259 0.0
H1738 H 0.46585 0.94274 0.01289 0.0
C1739 C 0.50915 0.02544 0.99764 0.0
C1740 C 0.48987 0.00694 0.97483 0.0
H1741 H 0.5277 0.02896 0.04322 0.0
H1742 H 0.5211 0.04857 0.99381 0.0
C1743 C 0.4742 0.97707 0.9808 0.0
C1744 C 0.00395 0.51094 0.97429 0.0
C1745 C 0.98546 0.48092 0.97529 0.0
H1746 H 0.03037 0.54954 1.00074 0.0
C1747 C 0.97984 0.46648 0.00424 0.0
H1748 H 0.00888 0.52243 0.95214 0.0
C1749 C 0.99247 0.48183 0.03182 0.0
C1750 C 0.01066 0.51187 0.03084 0.0
H1751 H 0.96561 0.44331 0.00549 0.0
H1752 H 0.98752 0.47038 0.05399 0.0
C1753 C 0.01643 0.52632 1.0019 0.0
C1754 C 0.48317 0.51363 0.00838 0.0
C1755 C 0.48063 0.49249 0.02972 0.0
H1756 H 0.49946 0.53403 0.96384 0.0
C1757 C 0.49339 0.47572 0.02239 0.0
H1758 H 0.4732 0.52656 0.0133 0.0
C1759 C 0.50822 0.47984 0.99409 0.0
C1760 C 0.51067 0.50091 0.97271 0.0
H1761 H 0.49202 0.4595 0.03866 0.0
H1762 H 0.51813 0.46687 0.98913 0.0
C1763 C 0.49806 0.51779 0.9801 0.0
C1764 C 0.22454 0.03338 0.98058 0.0
C1765 C 0.20809 0.03652 0.00444 0.0
H1766 H 0.23254 0.00427 0.95358 0.0
C1767 C 0.1848 0.01144 0.0174 0.0
H1768 H 0.24149 0.05185 0.96855 0.0
C1769 C 0.17886 0.98405 0.00774 0.0
C1770 C 0.1963 0.98105 0.98514 0.0
H1771 H 0.17137 0.01291 0.03552 0.0
H1772 H 0.16124 0.96523 0.01882 0.0
C1773 C 0.21902 0.00597 0.97143 0.0
C1774 C 0.97824 0.17004 0.01697 0.0
C1775 C 0.95336 0.16815 0.00324 0.0
H1776 H 0.02452 0.1925 0.01893 0.0
C1777 C 0.95691 0.18701 0.97842 0.0
H1778 H 0.97645 0.15564 0.03585 0.0
C1779 C 0.9845 0.20843 0.96911 0.0
C1780 C 0.00923 0.2109 0.98367 0.0
H1781 H 0.93862 0.18534 0.96583 0.0
H1782 H 0.98649 0.2232 0.95056 0.0
C1783 C 0.00585 0.19105 0.00717 0.0
C1784 C 0.77212 0.76397 0.98622 0.0
C1785 C 0.77755 0.79258 0.98501 0.0
H1786 H 0.78795 0.73566 0.99838 0.0
C1787 C 0.80519 0.81517 0.99313 0.0
H1788 H 0.75098 0.74594 0.98064 0.0
C1789 C 0.82671 0.80915 1.00274 0.0
C1790 C 0.82102 0.7805 0.0043 0.0
H1791 H 0.81004 0.83741 0.99266 0.0
H1792 H 0.84772 0.8269 0.0093 0.0
C1793 C 0.79347 0.75801 0.99609 0.0
C1794 C 0.98181 0.17861 0.50005 0.0
C1795 C 0.97841 0.19583 0.52257 0.0
H1796 H 0.01128 0.17172 0.47253 0.0
C1797 C 0.00312 0.21861 0.53653 0.0
H1798 H 0.96316 0.16097 0.48877 0.0
C1799 C 0.03071 0.22457 0.52757 0.0
C1800 C 0.03426 0.20842 0.50374 0.0
H1801 H 0.00113 0.23198 0.55434 0.0
H1802 H 0.04903 0.24166 0.53964 0.0
C1803 C 0.00943 0.18493 0.49063 0.0
C1804 C 0.75853 0.76904 0.51409 0.0
C1805 C 0.78722 0.77547 0.51876 0.0
H1806 H 0.73037 0.78468 0.5 0.0
C1807 C 0.80971 0.8041 0.51469 0.0
H1808 H 0.74069 0.74716 0.51664 0.0
C1809 C 0.80368 0.82565 0.50554 0.0
C1810 C 0.77506 0.81909 0.50053 0.0
H1811 H 0.83206 0.80981 0.51797 0.0
H1812 H 0.82145 0.84744 0.50211 0.0
C1813 C 0.75255 0.79059 0.50484 0.0
C1814 C 0.18425 0.00502 0.5138 0.0
C1815 C 0.21151 0.00949 0.52282 0.0
H1816 H 0.14194 0.97496 0.49653 0.0
C1817 C 0.21638 0.98595 0.52233 0.0
H1818 H 0.17982 0.02271 0.51373 0.0
C1819 C 0.19484 0.95883 0.51224 0.0
C1820 C 0.16773 0.95443 0.50298 0.0
H1821 H 0.23721 0.98864 0.52869 0.0
H1822 H 0.19984 0.94158 0.51062 0.0
C1823 C 0.1626 0.97775 0.50386 0.0
C1824 C 0.81322 0.00564 0.01349 0.0
C1825 C 0.79032 0.0101 0.02199 0.0
H1826 H 0.82571 0.97549 0.99714 0.0
C1827 C 0.76195 0.98645 0.02159 0.0
H1828 H 0.83531 0.02339 0.01338 0.0
C1829 C 0.75652 0.95922 0.01206 0.0
C1830 C 0.77933 0.95482 0.00327 0.0
H1831 H 0.74372 0.98911 0.02758 0.0
H1832 H 0.7343 0.94193 0.01041 0.0
C1833 C 0.80774 0.97826 0.00412 0.0
C1834 C 0.98289 0.79921 1.00078 0.0
C1835 C 0.97959 0.77795 0.02239 0.0
H1836 H 0.01212 0.83617 0.97394 0.0
C1837 C 0.00439 0.77912 0.03519 0.0
H1838 H 0.96419 0.79881 0.99038 0.0
C1839 C 0.03195 0.80081 0.02612 0.0
C1840 C 0.03535 0.82133 0.00333 0.0
H1841 H 0.00249 0.76322 0.05225 0.0
H1842 H 0.05033 0.80147 0.03742 0.0
C1843 C 0.01043 0.82054 0.99125 0.0
C1844 C 0.22131 0.2303 0.01478 0.0
C1845 C 0.21492 0.20169 0.01988 0.0
H1846 H 0.20561 0.25825 1.00013 0.0
C1847 C 0.18628 0.17914 0.01607 0.0
H1848 H 0.24319 0.24819 0.01708 0.0
C1849 C 0.16467 0.18504 0.0068 0.0
C1850 C 0.17119 0.21359 1.00136 0.0
H1851 H 0.18063 0.15685 0.01967 0.0
H1852 H 0.14286 0.16723 0.0036 0.0
C1853 C 0.19971 0.23615 0.00535 0.0
C1854 C 0.95652 0.76241 0.48591 0.0
C1855 C 0.95309 0.78104 0.50653 0.0
H1856 H 0.98602 0.75288 0.46191 0.0
C1857 C 0.978 0.80604 0.51711 0.0
H1858 H 0.93818 0.74385 0.47572 0.0
C1859 C 0.00552 0.81185 0.50805 0.0
C1860 C 0.00885 0.79261 0.48849 0.0
H1861 H 0.97632 0.82111 0.53275 0.0
H1862 H 0.02421 0.83103 0.5171 0.0
C1863 C 0.98409 0.76789 0.47741 0.0
C1864 C 0.1845 0.17008 0.51695 0.0
C1865 C 0.20851 0.16911 0.50482 0.0
H1866 H 0.16022 0.19201 0.51781 0.0
C1867 C 0.22571 0.18956 0.48201 0.0
H1868 H 0.17053 0.15451 0.53429 0.0
C1869 C 0.22001 0.21135 0.47292 0.0
C1870 C 0.19648 0.21268 0.48573 0.0
H1871 H 0.24334 0.18874 0.47069 0.0
H1872 H 0.23403 0.22716 0.45579 0.0
C1873 C 0.17846 0.19151 0.50741 0.0
C1874 C 0.77204 0.00519 0.47982 0.0
C1875 C 0.77612 0.98121 0.48219 0.0
H1876 H 0.78867 0.04992 0.48948 0.0
C1877 C 0.80259 0.98541 0.49381 0.0
H1878 H 0.75186 0.0028 0.47128 0.0
C1879 C 0.82402 0.01281 0.50383 0.0
C1880 C 0.8195 0.03653 0.50217 0.0
H1881 H 0.80641 0.96741 0.49614 0.0
H1882 H 0.84394 0.01534 0.51342 0.0
C1883 C 0.79334 0.03242 0.48995 0.0
C1884 C 0.84261 0.32054 0.32611 0.0
C1885 C 0.86513 0.31595 0.31631 0.0
H1886 H 0.83089 0.35083 0.34389 0.0
C1887 C 0.89351 0.33957 0.3156 0.0
H1888 H 0.82053 0.30282 0.32709 0.0
C1889 C 0.8994 0.36686 0.32544 0.0
C1890 C 0.87701 0.37136 0.33569 0.0
H1891 H 0.91147 0.33683 0.30854 0.0
H1892 H 0.92168 0.38411 0.32623 0.0
C1893 C 0.84853 0.34798 0.33582 0.0
C1894 C 0.64264 0.50434 0.34963 0.0
C1895 C 0.61801 0.50509 0.33918 0.0
H1896 H 0.68872 0.52446 0.3494 0.0
C1897 C 0.62195 0.52757 0.31887 0.0
H1898 H 0.64065 0.48735 0.36509 0.0
C1899 C 0.64974 0.54927 0.31036 0.0
C1900 C 0.67417 0.54846 0.32113 0.0
H1901 H 0.60387 0.52843 0.30886 0.0
H1902 H 0.6521 0.56649 0.29501 0.0
C1903 C 0.6703 0.5256 0.34055 0.0
C1904 C 0.44573 0.10512 0.30471 0.0
C1905 C 0.44415 0.12827 0.31817 0.0
H1906 H 0.46836 0.08183 0.30193 0.0
C1907 C 0.46507 0.14581 0.34027 0.0
H1908 H 0.43012 0.09147 0.28724 0.0
C1909 C 0.4864 0.13954 0.34971 0.0
C1910 C 0.48749 0.11577 0.33704 0.0
H1911 H 0.46435 0.16374 0.35118 0.0
H1912 H 0.50173 0.15307 0.36745 0.0
C1913 C 0.4674 0.0992 0.31368 0.0
C1914 C 0.67231 0.55491 0.86649 0.0
C1915 C 0.64751 0.53161 0.85328 0.0
H1916 H 0.71825 0.57821 0.86909 0.0
C1917 C 0.65081 0.5138 0.83149 0.0
H1918 H 0.67042 0.56877 0.88373 0.0
C1919 C 0.67839 0.51992 0.82211 0.0
C1920 C 0.70329 0.54383 0.83451 0.0
H1921 H 0.63211 0.49574 0.8208 0.0
H1922 H 0.68014 0.50617 0.80462 0.0
C1923 C 0.69986 0.56071 0.85755 0.0
C1924 C 0.47394 0.16051 0.83842 0.0
C1925 C 0.44557 0.15478 0.83328 0.0
H1926 H 0.50122 0.14348 0.85167 0.0
C1927 C 0.42251 0.12661 0.83785 0.0
H1928 H 0.49214 0.18201 0.83468 0.0
C1929 C 0.42761 0.10473 0.84799 0.0
C1930 C 0.45597 0.11033 0.85303 0.0
H1931 H 0.40053 0.12118 0.83266 0.0
H1932 H 0.40928 0.08317 0.85081 0.0
C1933 C 0.47912 0.1385 0.84823 0.0
C1934 C 0.83543 0.31488 0.82262 0.0
C1935 C 0.83295 0.28986 0.83661 0.0
H1936 H 0.85862 0.36113 0.82053 0.0
C1937 C 0.85128 0.29308 0.86187 0.0
H1938 H 0.82143 0.31331 0.80341 0.0
C1939 C 0.87289 0.32051 0.87128 0.0
C1940 C 0.87604 0.34537 0.85639 0.0
H1941 H 0.84906 0.27466 0.87465 0.0
H1942 H 0.88732 0.32227 0.89012 0.0
C1943 C 0.85663 0.34234 0.83252 0.0
C1944 C 0.42093 0.29254 0.34587 0.0
C1945 C 0.4436 0.28804 0.33673 0.0
H1946 H 0.40842 0.32255 0.36173 0.0
C1947 C 0.47206 0.31139 0.3374 0.0
H1948 H 0.39867 0.2753 0.34441 0.0
C1949 C 0.47773 0.3388 0.34689 0.0
C1950 C 0.45496 0.34338 0.35567 0.0
H1951 H 0.48992 0.30854 0.33018 0.0
H1952 H 0.49984 0.35649 0.34659 0.0
C1953 C 0.42655 0.3198 0.3555 0.0
C1954 C 0.69883 0.13686 0.35948 0.0
C1955 C 0.70218 0.15639 0.33546 0.0
H1956 H 0.66944 0.09997 0.38663 0.0
C1957 C 0.67721 0.15472 0.32231 0.0
H1958 H 0.7172 0.13828 0.37163 0.0
C1959 C 0.6497 0.13344 0.33197 0.0
C1960 C 0.64649 0.11307 0.35475 0.0
H1961 H 0.67883 0.16957 0.30404 0.0
H1962 H 0.63097 0.13233 0.32075 0.0
C1963 C 0.6713 0.11515 0.36863 0.0
C1964 C 0.85275 0.55874 0.35758 0.0
C1965 C 0.83269 0.54161 0.33446 0.0
H1966 H 0.89036 0.56752 0.38402 0.0
C1967 C 0.83428 0.51802 0.3221 0.0
H1968 H 0.85141 0.576 0.36909 0.0
C1969 C 0.85606 0.51244 0.33164 0.0
C1970 C 0.87691 0.5305 0.35356 0.0
H1971 H 0.81896 0.5041 0.30456 0.0
H1972 H 0.85712 0.49459 0.32103 0.0
C1973 C 0.87484 0.5535 0.36668 0.0
C1974 C 0.62266 0.10045 0.81263 0.0
C1975 C 0.61908 0.11569 0.83747 0.0
H1976 H 0.65231 0.09391 0.78481 0.0
C1977 C 0.64391 0.13856 0.85137 0.0
H1978 H 0.6044 0.08395 0.79992 0.0
C1979 C 0.67151 0.14513 0.84167 0.0
C1980 C 0.67492 0.12875 0.81811 0.0
H1981 H 0.64206 0.15108 0.87028 0.0
H1982 H 0.69015 0.16229 0.85349 0.0
C1983 C 0.65026 0.10658 0.80343 0.0
C1984 C 0.84518 0.52209 0.82403 0.0
C1985 C 0.86784 0.54988 0.81649 0.0
H1986 H 0.83327 0.4796 0.84032 0.0
C1987 C 0.89649 0.55554 0.81858 0.0
H1988 H 0.82288 0.51703 0.82283 0.0
C1989 C 0.90238 0.53421 0.82888 0.0
C1990 C 0.87977 0.50659 0.83674 0.0
H1991 H 0.91452 0.5768 0.8134 0.0
H1992 H 0.9247 0.53978 0.83184 0.0
C1993 C 0.85111 0.50069 0.83414 0.0
C1994 C 0.43658 0.33832 0.82222 0.0
C1995 C 0.44263 0.31567 0.81897 0.0
H1996 H 0.45248 0.3824 0.83504 0.0
C1997 C 0.47099 0.3214 0.82434 0.0
H1998 H 0.41493 0.33465 0.81863 0.0
C1999 C 0.49261 0.349 0.83337 0.0
C2000 C 0.4864 0.37145 0.83693 0.0
H2001 H 0.47639 0.30446 0.82221 0.0
H2002 H 0.51418 0.35273 0.83785 0.0
C2003 C 0.45818 0.36583 0.83133 0.0
C2004 C 0.56159 0.67426 0.64988 0.0
C2005 C 0.53316 0.65072 0.64992 0.0
H2006 H 0.58968 0.71863 0.66146 0.0
C2007 C 0.51056 0.65523 0.65962 0.0
H2008 H 0.57959 0.67155 0.64295 0.0
C2009 C 0.51641 0.68249 0.66983 0.0
C2010 C 0.54489 0.7058 0.67031 0.0
H2011 H 0.48843 0.63756 0.66008 0.0
H2012 H 0.49868 0.68527 0.67776 0.0
C2013 C 0.5674 0.70141 0.66022 0.0
C2014 C 0.33899 0.85782 0.67455 0.0
C2015 C 0.34159 0.87877 0.65285 0.0
H2016 H 0.31059 0.82085 0.70192 0.0
C2017 C 0.31639 0.87707 0.64055 0.0
H2018 H 0.35802 0.85861 0.68455 0.0
C2019 C 0.28914 0.85514 0.65014 0.0
C2020 C 0.28646 0.83492 0.67297 0.0
H2021 H 0.31773 0.89268 0.62342 0.0
H2022 H 0.27043 0.85403 0.63916 0.0
C2023 C 0.31176 0.83625 0.6846 0.0
C2024 C 0.13769 0.48217 0.65884 0.0
C2025 C 0.11041 0.4594 0.64992 0.0
H2026 H 0.18014 0.49438 0.67571 0.0
C2027 C 0.10568 0.43103 0.65013 0.0
H2028 H 0.14202 0.50424 0.65914 0.0
C2029 C 0.1273 0.42542 0.65992 0.0
C2030 C 0.15444 0.44807 0.66911 0.0
H2031 H 0.08485 0.41286 0.64384 0.0
H2032 H 0.12226 0.40317 0.66147 0.0
C2033 C 0.15947 0.47652 0.66842 0.0
C2034 C 0.31616 0.84724 0.16669 0.0
C2035 C 0.31299 0.86397 0.19002 0.0
H2036 H 0.34529 0.84074 0.13814 0.0
C2037 C 0.33783 0.88625 0.20434 0.0
H2038 H 0.29741 0.82999 0.15512 0.0
C2039 C 0.36533 0.89215 0.195 0.0
C2040 C 0.36866 0.87653 0.17038 0.0
H2041 H 0.33599 0.89922 0.22275 0.0
H2042 H 0.38373 0.90877 0.20743 0.0
C2043 C 0.34367 0.85356 0.15687 0.0
C2044 C 0.13906 0.48873 0.15786 0.0
C2045 C 0.11533 0.49004 0.17034 0.0
H2046 H 0.16289 0.4663 0.15657 0.0
C2047 C 0.09845 0.46995 0.19358 0.0
H2048 H 0.15282 0.50406 0.14022 0.0
C2049 C 0.10402 0.44806 0.2026 0.0
C2050 C 0.12712 0.44625 0.1893 0.0
H2051 H 0.08109 0.47106 0.20519 0.0
H2052 H 0.09013 0.43244 0.21996 0.0
C2053 C 0.14498 0.46719 0.16734 0.0
C2054 C 0.55045 0.65188 0.1861 0.0
C2055 C 0.54529 0.67522 0.18751 0.0
H2056 H 0.53416 0.6077 0.17365 0.0
C2057 C 0.51777 0.67052 0.17933 0.0
H2058 H 0.57149 0.65474 0.19175 0.0
C2059 C 0.49612 0.6432 0.16943 0.0
C2060 C 0.50151 0.62007 0.16768 0.0
H2061 H 0.5131 0.68804 0.17998 0.0
H2062 H 0.47522 0.64024 0.16281 0.0
C2063 C 0.52892 0.62473 0.17601 0.0
C2064 C 0.14398 0.66981 0.68352 0.0
C2065 C 0.12138 0.6757 0.68829 0.0
H2066 H 0.15589 0.63857 0.66987 0.0
C2067 C 0.09271 0.65333 0.68392 0.0
H2068 H 0.16632 0.68653 0.68654 0.0
C2069 C 0.08683 0.62596 0.67421 0.0
C2070 C 0.10945 0.62025 0.66912 0.0
H2071 H 0.07479 0.65717 0.68701 0.0
H2072 H 0.06464 0.60962 0.66959 0.0
C2073 C 0.13806 0.64239 0.6739 0.0
C2074 C 0.31715 0.46844 0.66598 0.0
C2075 C 0.31408 0.44731 0.68768 0.0
H2076 H 0.34615 0.50549 0.63907 0.0
C2077 C 0.33902 0.44883 0.70053 0.0
H2078 H 0.29834 0.46779 0.65555 0.0
C2079 C 0.36649 0.47069 0.69143 0.0
C2080 C 0.36967 0.49107 0.66857 0.0
H2081 H 0.33732 0.43307 0.71768 0.0
H2082 H 0.38498 0.4716 0.70275 0.0
C2083 C 0.34461 0.48996 0.65644 0.0
C2084 C 0.54138 0.88729 0.7025 0.0
C2085 C 0.54361 0.8645 0.68905 0.0
H2086 H 0.51825 0.91012 0.70459 0.0
C2087 C 0.52335 0.8471 0.66632 0.0
H2088 H 0.55646 0.9008 0.72045 0.0
C2089 C 0.50209 0.85322 0.65623 0.0
C2090 C 0.50041 0.87667 0.66886 0.0
H2091 H 0.52461 0.82946 0.65541 0.0
H2092 H 0.48729 0.83985 0.63801 0.0
C2093 C 0.51976 0.89304 0.69286 0.0
C2094 C 0.30942 0.47419 0.16829 0.0
C2095 C 0.2862 0.44564 0.16905 0.0
H2096 H 0.35439 0.50232 0.15843 0.0
C2097 C 0.29084 0.42321 0.15933 0.0
H2098 H 0.30648 0.49188 0.17597 0.0
C2099 C 0.31803 0.42915 0.14899 0.0
C2100 C 0.34149 0.45763 0.14873 0.0
H2101 H 0.27377 0.40089 0.16086 0.0
H2102 H 0.32085 0.41115 0.14232 0.0
C2103 C 0.33679 0.48017 0.15815 0.0
C2104 C 0.51864 0.83689 0.1828 0.0
C2105 C 0.54205 0.83533 0.16977 0.0
H2106 H 0.49488 0.85937 0.18457 0.0
C2107 C 0.55855 0.85524 0.14618 0.0
H2108 H 0.50517 0.82178 0.20075 0.0
C2109 C 0.55291 0.87715 0.13732 0.0
C2110 C 0.53005 0.8791 0.15108 0.0
H2111 H 0.57562 0.85396 0.13412 0.0
H2112 H 0.56646 0.89258 0.11964 0.0
C2113 C 0.51261 0.85839 0.17344 0.0
C2114 C 0.13833 0.65394 0.1605 0.0
C2115 C 0.11125 0.64929 0.15051 0.0
H2116 H 0.18016 0.68425 0.17867 0.0
C2117 C 0.10634 0.6728 0.14985 0.0
H2118 H 0.14279 0.63629 0.16144 0.0
C2119 C 0.12759 0.70006 0.15994 0.0
C2120 C 0.15444 0.7046 0.17039 0.0
H2121 H 0.08564 0.67 0.14265 0.0
H2122 H 0.12246 0.71725 0.16076 0.0
C2123 C 0.15969 0.68134 0.17046 0.0
loop_
_geom_bond_atom_site_label_1
_geom_bond_atom_site_label_2
_geom_bond_distance
_geom_bond_site_symmetry_2
_ccdc_geom_bond_type
Co0 O3 1.970 1_554 S
Co0 N17 1.989 . S
Co0 O25 1.967 . S
Co0 O32 1.920 . S
Co1 O4 1.966 1_554 S
Co1 N10 2.022 . S
Co1 N18 1.993 . S
Co1 O26 1.941 . S
C2 O3 1.258 . S
C2 O4 1.263 . S
O3 Co0 1.970 1_556 S
O3 C2 1.258 . S
O4 Co1 1.966 1_556 S
O4 C2 1.263 . S
C5 O6 1.235 . S
C5 O32 1.289 . S
O6 C5 1.235 . S
C7 C9 1.400 . S
C7 N10 1.351 . S
C7 C12 1.501 1_554 S
C8 C9 1.387 . S
C8 N11 1.341 . S
C9 C7 1.400 . S
C9 C8 1.387 . S
N10 Co1 2.022 . S
N10 C7 1.351 . S
N10 N11 1.365 . S
N11 C8 1.341 . S
N11 N10 1.365 . S
N11 H31 0.862 . S
C12 C7 1.501 1_556 S
C12 H13 0.961 . S
C12 H14 0.961 . S
C12 H15 0.960 . S
H13 C12 0.961 . S
H14 C12 0.961 . S
H15 C12 0.960 . S
C16 N17 1.342 . S
C16 C20 1.401 . S
C16 C21 1.499 . S
N17 Co0 1.989 . S
N17 C16 1.342 . S
N17 N18 1.388 . S
N18 Co1 1.993 . S
N18 N17 1.388 . S
N18 C19 1.346 . S
C19 N18 1.346 . S
C19 C20 1.396 . S
C19 C29 1.510 . S
C20 C16 1.401 . S
C20 C19 1.396 . S
C21 C16 1.499 . S
C21 H22 0.959 . S
C21 H23 0.960 . S
C21 H24 0.961 . S
H22 C21 0.959 . S
H23 C21 0.960 . S
H24 C21 0.961 . S
O25 Co0 1.967 . S
O25 C33 1.258 . S
O26 Co1 1.941 . S
O26 C33 1.266 . S
H27 C29 0.959 . S
H28 C29 0.961 . S
C29 C19 1.510 . S
C29 H27 0.959 . S
C29 H28 0.961 . S
C29 H30 0.960 . S
H30 C29 0.960 . S
H31 N11 0.862 . S
O32 Co0 1.920 . S
O32 C5 1.289 . S
C33 O25 1.258 . S
C33 O26 1.266 . S
Co34 O37 1.970 1_554 S
Co34 N51 1.989 . S
Co34 O59 1.967 . S
Co34 O66 1.920 . S
Co35 O38 1.966 1_554 S
Co35 N44 2.022 . S
Co35 N52 1.993 . S
Co35 O60 1.941 . S
C36 O37 1.258 . S
C36 O38 1.263 . S
O37 Co34 1.970 1_556 S
O37 C36 1.258 . S
O38 Co35 1.966 1_556 S
O38 C36 1.263 . S
C39 O40 1.235 . S
C39 O66 1.289 . S
O40 C39 1.235 . S
C41 C43 1.400 . S
C41 N44 1.351 . S
C41 C46 1.501 1_554 S
C42 C43 1.387 . S
C42 N45 1.341 . S
C43 C41 1.400 . S
C43 C42 1.387 . S
N44 Co35 2.022 . S
N44 C41 1.351 . S
N44 N45 1.365 . S
N45 C42 1.341 . S
N45 N44 1.365 . S
N45 H65 0.862 . S
C46 C41 1.501 1_556 S
C46 H47 0.961 . S
C46 H48 0.961 . S
C46 H49 0.960 . S
H47 C46 0.961 . S
H48 C46 0.961 . S
H49 C46 0.960 . S
C50 N51 1.342 . S
C50 C54 1.401 . S
C50 C55 1.499 . S
N51 Co34 1.989 . S
N51 C50 1.342 . S
N51 N52 1.388 . S
N52 Co35 1.993 . S
N52 N51 1.388 . S
N52 C53 1.346 . S
C53 N52 1.346 . S
C53 C54 1.396 . S
C53 C63 1.510 . S
C54 C50 1.401 . S
C54 C53 1.396 . S
C55 C50 1.499 . S
C55 H56 0.959 . S
C55 H57 0.960 . S
C55 H58 0.961 . S
H56 C55 0.959 . S
H57 C55 0.960 . S
H58 C55 0.961 . S
O59 Co34 1.967 . S
O59 C67 1.258 . S
O60 Co35 1.941 . S
O60 C67 1.266 . S
H61 C63 0.959 . S
H62 C63 0.961 . S
C63 C53 1.510 . S
C63 H61 0.959 . S
C63 H62 0.961 . S
C63 H64 0.960 . S
H64 C63 0.960 . S
H65 N45 0.862 . S
O66 Co34 1.920 . S
O66 C39 1.289 . S
C67 O59 1.258 . S
C67 O60 1.266 . S
Co68 O71 1.970 1_554 S
Co68 N85 1.989 . S
Co68 O93 1.967 . S
Co68 O100 1.920 . S
Co69 O72 1.966 1_554 S
Co69 N78 2.022 . S
Co69 N86 1.993 . S
Co69 O94 1.941 . S
C70 O71 1.258 . S
C70 O72 1.263 . S
O71 Co68 1.970 1_556 S
O71 C70 1.258 . S
O72 Co69 1.966 1_556 S
O72 C70 1.263 . S
C73 O74 1.235 . S
C73 O100 1.289 . S
O74 C73 1.235 . S
C75 C77 1.400 . S
C75 N78 1.351 . S
C75 C80 1.501 1_554 S
C76 C77 1.387 . S
C76 N79 1.341 . S
C77 C75 1.400 . S
C77 C76 1.387 . S
N78 Co69 2.022 . S
N78 C75 1.351 . S
N78 N79 1.365 . S
N79 C76 1.341 . S
N79 N78 1.365 . S
N79 H99 0.862 . S
C80 C75 1.501 1_556 S
C80 H81 0.961 . S
C80 H82 0.961 . S
C80 H83 0.960 . S
H81 C80 0.961 . S
H82 C80 0.961 . S
H83 C80 0.960 . S
C84 N85 1.342 . S
C84 C88 1.401 . S
C84 C89 1.499 . S
N85 Co68 1.989 . S
N85 C84 1.342 . S
N85 N86 1.388 . S
N86 Co69 1.993 . S
N86 N85 1.388 . S
N86 C87 1.346 . S
C87 N86 1.346 . S
C87 C88 1.396 . S
C87 C97 1.510 . S
C88 C84 1.401 . S
C88 C87 1.396 . S
C89 C84 1.499 . S
C89 H90 0.959 . S
C89 H91 0.960 . S
C89 H92 0.961 . S
H90 C89 0.959 . S
H91 C89 0.960 . S
H92 C89 0.961 . S
O93 Co68 1.967 . S
O93 C101 1.258 . S
O94 Co69 1.941 . S
O94 C101 1.266 . S
H95 C97 0.959 . S
H96 C97 0.961 . S
C97 C87 1.510 . S
C97 H95 0.959 . S
C97 H96 0.961 . S
C97 H98 0.960 . S
H98 C97 0.960 . S
H99 N79 0.862 . S
O100 Co68 1.920 . S
O100 C73 1.289 . S
C101 O93 1.258 . S
C101 O94 1.266 . S
Co102 O105 1.970 . S
Co102 N119 1.989 . S
Co102 O127 1.967 . S
Co102 O134 1.920 . S
Co103 O106 1.966 . S
Co103 N112 2.022 . S
Co103 N120 1.993 . S
Co103 O128 1.941 . S
C104 O105 1.258 . S
C104 O106 1.263 . S
O105 Co102 1.970 . S
O105 C104 1.258 . S
O106 Co103 1.966 . S
O106 C104 1.263 . S
C107 O108 1.235 . S
C107 O134 1.289 . S
O108 C107 1.235 . S
C109 C111 1.400 . S
C109 N112 1.351 . S
C109 C114 1.501 . S
C110 C111 1.387 . S
C110 N113 1.341 . S
C111 C109 1.400 . S
C111 C110 1.387 . S
N112 Co103 2.022 . S
N112 C109 1.351 . S
N112 N113 1.365 . S
N113 C110 1.341 . S
N113 N112 1.365 . S
N113 H133 0.862 . S
C114 C109 1.501 . S
C114 H115 0.961 . S
C114 H116 0.961 . S
C114 H117 0.960 . S
H115 C114 0.961 . S
H116 C114 0.961 . S
H117 C114 0.960 . S
C118 N119 1.342 . S
C118 C122 1.401 . S
C118 C123 1.499 . S
N119 Co102 1.989 . S
N119 C118 1.342 . S
N119 N120 1.388 . S
N120 Co103 1.993 . S
N120 N119 1.388 . S
N120 C121 1.346 . S
C121 N120 1.346 . S
C121 C122 1.396 . S
C121 C131 1.510 . S
C122 C118 1.401 . S
C122 C121 1.396 . S
C123 C118 1.499 . S
C123 H124 0.959 . S
C123 H125 0.960 . S
C123 H126 0.961 . S
H124 C123 0.959 . S
H125 C123 0.960 . S
H126 C123 0.961 . S
O127 Co102 1.967 . S
O127 C135 1.258 . S
O128 Co103 1.941 . S
O128 C135 1.266 . S
H129 C131 0.959 . S
H130 C131 0.961 . S
C131 C121 1.510 . S
C131 H129 0.959 . S
C131 H130 0.961 . S
C131 H132 0.960 . S
H132 C131 0.960 . S
H133 N113 0.862 . S
O134 Co102 1.920 . S
O134 C107 1.289 . S
C135 O127 1.258 . S
C135 O128 1.266 . S
Co136 O139 1.970 . S
Co136 N153 1.989 . S
Co136 O161 1.967 . S
Co136 O168 1.920 . S
Co137 O140 1.966 . S
Co137 N146 2.022 . S
Co137 N154 1.993 . S
Co137 O162 1.941 . S
C138 O139 1.258 . S
C138 O140 1.263 . S
O139 Co136 1.970 . S
O139 C138 1.258 . S
O140 Co137 1.966 . S
O140 C138 1.263 . S
C141 O142 1.235 . S
C141 O168 1.289 . S
O142 C141 1.235 . S
C143 C145 1.400 . S
C143 N146 1.351 . S
C143 C148 1.501 . S
C144 C145 1.387 . S
C144 N147 1.341 . S
C145 C143 1.400 . S
C145 C144 1.387 . S
N146 Co137 2.022 . S
N146 C143 1.351 . S
N146 N147 1.365 . S
N147 C144 1.341 . S
N147 N146 1.365 . S
N147 H167 0.862 . S
C148 C143 1.501 . S
C148 H149 0.961 . S
C148 H150 0.961 . S
C148 H151 0.960 . S
H149 C148 0.961 . S
H150 C148 0.961 . S
H151 C148 0.960 . S
C152 N153 1.342 . S
C152 C156 1.401 . S
C152 C157 1.499 . S
N153 Co136 1.989 . S
N153 C152 1.342 . S
N153 N154 1.388 . S
N154 Co137 1.993 . S
N154 N153 1.388 . S
N154 C155 1.346 . S
C155 N154 1.346 . S
C155 C156 1.396 . S
C155 C165 1.510 . S
C156 C152 1.401 . S
C156 C155 1.396 . S
C157 C152 1.499 . S
C157 H158 0.959 . S
C157 H159 0.960 . S
C157 H160 0.961 . S
H158 C157 0.959 . S
H159 C157 0.960 . S
H160 C157 0.961 . S
O161 Co136 1.967 . S
O161 C169 1.258 . S
O162 Co137 1.941 . S
O162 C169 1.266 . S
H163 C165 0.959 . S
H164 C165 0.961 . S
C165 C155 1.510 . S
C165 H163 0.959 . S
C165 H164 0.961 . S
C165 H166 0.960 . S
H166 C165 0.960 . S
H167 N147 0.862 . S
O168 Co136 1.920 . S
O168 C141 1.289 . S
C169 O161 1.258 . S
C169 O162 1.266 . S
Co170 O173 1.970 . S
Co170 N187 1.989 . S
Co170 O195 1.967 . S
Co170 O202 1.920 . S
Co171 O174 1.966 . S
Co171 N180 2.022 . S
Co171 N188 1.993 . S
Co171 O196 1.941 . S
C172 O173 1.258 . S
C172 O174 1.263 . S
O173 Co170 1.970 . S
O173 C172 1.258 . S
O174 Co171 1.966 . S
O174 C172 1.263 . S
C175 O176 1.235 . S
C175 O202 1.289 . S
O176 C175 1.235 . S
C177 C179 1.400 . S
C177 N180 1.351 . S
C177 C182 1.501 . S
C178 C179 1.387 . S
C178 N181 1.341 . S
C179 C177 1.400 . S
C179 C178 1.387 . S
N180 Co171 2.022 . S
N180 C177 1.351 . S
N180 N181 1.365 . S
N181 C178 1.341 . S
N181 N180 1.365 . S
N181 H201 0.862 . S
C182 C177 1.501 . S
C182 H183 0.961 . S
C182 H184 0.961 . S
C182 H185 0.960 . S
H183 C182 0.961 . S
H184 C182 0.961 . S
H185 C182 0.960 . S
C186 N187 1.342 . S
C186 C190 1.401 . S
C186 C191 1.499 . S
N187 Co170 1.989 . S
N187 C186 1.342 . S
N187 N188 1.388 . S
N188 Co171 1.993 . S
N188 N187 1.388 . S
N188 C189 1.346 . S
C189 N188 1.346 . S
C189 C190 1.396 . S
C189 C199 1.510 . S
C190 C186 1.401 . S
C190 C189 1.396 . S
C191 C186 1.499 . S
C191 H192 0.959 . S
C191 H193 0.960 . S
C191 H194 0.961 . S
H192 C191 0.959 . S
H193 C191 0.960 . S
H194 C191 0.961 . S
O195 Co170 1.967 . S
O195 C203 1.258 . S
O196 Co171 1.941 . S
O196 C203 1.266 . S
H197 C199 0.959 . S
H198 C199 0.961 . S
C199 C189 1.510 . S
C199 H197 0.959 . S
C199 H198 0.961 . S
C199 H200 0.960 . S
H200 C199 0.960 . S
H201 N181 0.862 . S
O202 Co170 1.920 . S
O202 C175 1.289 . S
C203 O195 1.258 . S
C203 O196 1.266 . S
Co204 O207 1.970 1_556 S
Co204 N221 1.989 . S
Co204 O229 1.967 . S
Co204 O236 1.920 . S
Co205 O208 1.966 1_556 S
Co205 N214 2.022 . S
Co205 N222 1.993 . S
Co205 O230 1.941 . S
C206 O207 1.258 . S
C206 O208 1.263 . S
O207 Co204 1.970 1_554 S
O207 C206 1.258 . S
O208 Co205 1.966 1_554 S
O208 C206 1.263 . S
C209 O210 1.235 . S
C209 O236 1.289 . S
O210 C209 1.235 . S
C211 C213 1.400 . S
C211 N214 1.351 . S
C211 C216 1.501 1_556 S
C212 C213 1.387 . S
C212 N215 1.341 . S
C213 C211 1.400 . S
C213 C212 1.387 . S
N214 Co205 2.022 . S
N214 C211 1.351 . S
N214 N215 1.365 . S
N215 C212 1.341 . S
N215 N214 1.365 . S
N215 H235 0.862 . S
C216 C211 1.501 1_554 S
C216 H217 0.961 . S
C216 H218 0.961 . S
C216 H219 0.960 . S
H217 C216 0.961 . S
H218 C216 0.961 . S
H219 C216 0.960 . S
C220 N221 1.342 . S
C220 C224 1.401 . S
C220 C225 1.499 . S
N221 Co204 1.989 . S
N221 C220 1.342 . S
N221 N222 1.388 . S
N222 Co205 1.993 . S
N222 N221 1.388 . S
N222 C223 1.346 . S
C223 N222 1.346 . S
C223 C224 1.396 . S
C223 C233 1.510 . S
C224 C220 1.401 . S
C224 C223 1.396 . S
C225 C220 1.499 . S
C225 H226 0.959 . S
C225 H227 0.960 . S
C225 H228 0.961 . S
H226 C225 0.959 . S
H227 C225 0.960 . S
H228 C225 0.961 . S
O229 Co204 1.967 . S
O229 C237 1.258 . S
O230 Co205 1.941 . S
O230 C237 1.266 . S
H231 C233 0.959 . S
H232 C233 0.961 . S
C233 C223 1.510 . S
C233 H231 0.959 . S
C233 H232 0.961 . S
C233 H234 0.960 . S
H234 C233 0.960 . S
H235 N215 0.862 . S
O236 Co204 1.920 . S
O236 C209 1.289 . S
C237 O229 1.258 . S
C237 O230 1.266 . S
Co238 O241 1.970 1_556 S
Co238 N255 1.989 . S
Co238 O263 1.967 . S
Co238 O270 1.920 . S
Co239 O242 1.966 1_556 S
Co239 N248 2.022 . S
Co239 N256 1.993 . S
Co239 O264 1.941 . S
C240 O241 1.258 . S
C240 O242 1.263 . S
O241 Co238 1.970 1_554 S
O241 C240 1.258 . S
O242 Co239 1.966 1_554 S
O242 C240 1.263 . S
C243 O244 1.235 . S
C243 O270 1.289 . S
O244 C243 1.235 . S
C245 C247 1.400 . S
C245 N248 1.351 . S
C245 C250 1.501 1_556 S
C246 C247 1.387 . S
C246 N249 1.341 . S
C247 C245 1.400 . S
C247 C246 1.387 . S
N248 Co239 2.022 . S
N248 C245 1.351 . S
N248 N249 1.365 . S
N249 C246 1.341 . S
N249 N248 1.365 . S
N249 H269 0.862 . S
C250 C245 1.501 1_554 S
C250 H251 0.961 . S
C250 H252 0.961 . S
C250 H253 0.960 . S
H251 C250 0.961 . S
H252 C250 0.961 . S
H253 C250 0.960 . S
C254 N255 1.342 . S
C254 C258 1.401 . S
C254 C259 1.499 . S
N255 Co238 1.989 . S
N255 C254 1.342 . S
N255 N256 1.388 . S
N256 Co239 1.993 . S
N256 N255 1.388 . S
N256 C257 1.346 . S
C257 N256 1.346 . S
C257 C258 1.396 . S
C257 C267 1.510 . S
C258 C254 1.401 . S
C258 C257 1.396 . S
C259 C254 1.499 . S
C259 H260 0.959 . S
C259 H261 0.960 . S
C259 H262 0.961 . S
H260 C259 0.959 . S
H261 C259 0.960 . S
H262 C259 0.961 . S
O263 Co238 1.967 . S
O263 C271 1.258 . S
O264 Co239 1.941 . S
O264 C271 1.266 . S
H265 C267 0.959 . S
H266 C267 0.961 . S
C267 C257 1.510 . S
C267 H265 0.959 . S
C267 H266 0.961 . S
C267 H268 0.960 . S
H268 C267 0.960 . S
H269 N249 0.862 . S
O270 Co238 1.920 . S
O270 C243 1.289 . S
C271 O263 1.258 . S
C271 O264 1.266 . S
Co272 O275 1.970 1_556 S
Co272 N289 1.989 . S
Co272 O297 1.967 . S
Co272 O304 1.920 . S
Co273 O276 1.966 1_556 S
Co273 N282 2.022 . S
Co273 N290 1.993 . S
Co273 O298 1.941 . S
C274 O275 1.258 . S
C274 O276 1.263 . S
O275 Co272 1.970 1_554 S
O275 C274 1.258 . S
O276 Co273 1.966 1_554 S
O276 C274 1.263 . S
C277 O278 1.235 . S
C277 O304 1.289 . S
O278 C277 1.235 . S
C279 C281 1.400 . S
C279 N282 1.351 . S
C279 C284 1.501 1_556 S
C280 C281 1.387 . S
C280 N283 1.341 . S
C281 C279 1.400 . S
C281 C280 1.387 . S
N282 Co273 2.022 . S
N282 C279 1.351 . S
N282 N283 1.365 . S
N283 C280 1.341 . S
N283 N282 1.365 . S
N283 H303 0.862 . S
C284 C279 1.501 1_554 S
C284 H285 0.961 . S
C284 H286 0.961 . S
C284 H287 0.960 . S
H285 C284 0.961 . S
H286 C284 0.961 . S
H287 C284 0.960 . S
C288 N289 1.342 . S
C288 C292 1.401 . S
C288 C293 1.499 . S
N289 Co272 1.989 . S
N289 C288 1.342 . S
N289 N290 1.388 . S
N290 Co273 1.993 . S
N290 N289 1.388 . S
N290 C291 1.346 . S
C291 N290 1.346 . S
C291 C292 1.396 . S
C291 C301 1.510 . S
C292 C288 1.401 . S
C292 C291 1.396 . S
C293 C288 1.499 . S
C293 H294 0.959 . S
C293 H295 0.960 . S
C293 H296 0.961 . S
H294 C293 0.959 . S
H295 C293 0.960 . S
H296 C293 0.961 . S
O297 Co272 1.967 . S
O297 C305 1.258 . S
O298 Co273 1.941 . S
O298 C305 1.266 . S
H299 C301 0.959 . S
H300 C301 0.961 . S
C301 C291 1.510 . S
C301 H299 0.959 . S
C301 H300 0.961 . S
C301 H302 0.960 . S
H302 C301 0.960 . S
H303 N283 0.862 . S
O304 Co272 1.920 . S
O304 C277 1.289 . S
C305 O297 1.258 . S
C305 O298 1.266 . S
Co306 O309 1.970 . S
Co306 N323 1.989 . S
Co306 O331 1.967 . S
Co306 O338 1.920 . S
Co307 O310 1.966 . S
Co307 N316 2.022 . S
Co307 N324 1.993 . S
Co307 O332 1.941 . S
C308 O309 1.258 . S
C308 O310 1.263 . S
O309 Co306 1.970 . S
O309 C308 1.258 . S
O310 Co307 1.966 . S
O310 C308 1.263 . S
C311 O312 1.235 . S
C311 O338 1.289 . S
O312 C311 1.235 . S
C313 C315 1.400 . S
C313 N316 1.351 . S
C313 C318 1.501 . S
C314 C315 1.387 . S
C314 N317 1.341 . S
C315 C313 1.400 . S
C315 C314 1.387 . S
N316 Co307 2.022 . S
N316 C313 1.351 . S
N316 N317 1.365 . S
N317 C314 1.341 . S
N317 N316 1.365 . S
N317 H337 0.862 . S
C318 C313 1.501 . S
C318 H319 0.961 . S
C318 H320 0.961 . S
C318 H321 0.960 . S
H319 C318 0.961 . S
H320 C318 0.961 . S
H321 C318 0.960 . S
C322 N323 1.342 . S
C322 C326 1.401 . S
C322 C327 1.499 . S
N323 Co306 1.989 . S
N323 C322 1.342 . S
N323 N324 1.388 . S
N324 Co307 1.993 . S
N324 N323 1.388 . S
N324 C325 1.346 . S
C325 N324 1.346 . S
C325 C326 1.396 . S
C325 C335 1.510 . S
C326 C322 1.401 . S
C326 C325 1.396 . S
C327 C322 1.499 . S
C327 H328 0.959 . S
C327 H329 0.960 . S
C327 H330 0.961 . S
H328 C327 0.959 . S
H329 C327 0.960 . S
H330 C327 0.961 . S
O331 Co306 1.967 . S
O331 C339 1.258 . S
O332 Co307 1.941 . S
O332 C339 1.266 . S
H333 C335 0.959 . S
H334 C335 0.961 . S
C335 C325 1.510 . S
C335 H333 0.959 . S
C335 H334 0.961 . S
C335 H336 0.960 . S
H336 C335 0.960 . S
H337 N317 0.862 . S
O338 Co306 1.920 . S
O338 C311 1.289 . S
C339 O331 1.258 . S
C339 O332 1.266 . S
Co340 O343 1.970 . S
Co340 N357 1.989 . S
Co340 O365 1.967 . S
Co340 O372 1.920 . S
Co341 O344 1.966 . S
Co341 N350 2.022 . S
Co341 N358 1.993 . S
Co341 O366 1.941 . S
C342 O343 1.258 . S
C342 O344 1.263 . S
O343 Co340 1.970 . S
O343 C342 1.258 . S
O344 Co341 1.966 . S
O344 C342 1.263 . S
C345 O346 1.235 . S
C345 O372 1.289 . S
O346 C345 1.235 . S
C347 C349 1.400 . S
C347 N350 1.351 . S
C347 C352 1.501 . S
C348 C349 1.387 . S
C348 N351 1.341 . S
C349 C347 1.400 . S
C349 C348 1.387 . S
N350 Co341 2.022 . S
N350 C347 1.351 . S
N350 N351 1.365 . S
N351 C348 1.341 . S
N351 N350 1.365 . S
N351 H371 0.862 . S
C352 C347 1.501 . S
C352 H353 0.961 . S
C352 H354 0.961 . S
C352 H355 0.960 . S
H353 C352 0.961 . S
H354 C352 0.961 . S
H355 C352 0.960 . S
C356 N357 1.342 . S
C356 C360 1.401 . S
C356 C361 1.499 . S
N357 Co340 1.989 . S
N357 C356 1.342 . S
N357 N358 1.388 . S
N358 Co341 1.993 . S
N358 N357 1.388 . S
N358 C359 1.346 . S
C359 N358 1.346 . S
C359 C360 1.396 . S
C359 C369 1.510 . S
C360 C356 1.401 . S
C360 C359 1.396 . S
C361 C356 1.499 . S
C361 H362 0.959 . S
C361 H363 0.960 . S
C361 H364 0.961 . S
H362 C361 0.959 . S
H363 C361 0.960 . S
H364 C361 0.961 . S
O365 Co340 1.967 . S
O365 C373 1.258 . S
O366 Co341 1.941 . S
O366 C373 1.266 . S
H367 C369 0.959 . S
H368 C369 0.961 . S
C369 C359 1.510 . S
C369 H367 0.959 . S
C369 H368 0.961 . S
C369 H370 0.960 . S
H370 C369 0.960 . S
H371 N351 0.862 . S
O372 Co340 1.920 . S
O372 C345 1.289 . S
C373 O365 1.258 . S
C373 O366 1.266 . S
Co374 O377 1.970 . S
Co374 N391 1.989 . S
Co374 O399 1.967 . S
Co374 O406 1.920 . S
Co375 O378 1.966 . S
Co375 N384 2.022 . S
Co375 N392 1.993 . S
Co375 O400 1.941 . S
C376 O377 1.258 . S
C376 O378 1.263 . S
O377 Co374 1.970 . S
O377 C376 1.258 . S
O378 Co375 1.966 . S
O378 C376 1.263 . S
C379 O380 1.235 . S
C379 O406 1.289 . S
O380 C379 1.235 . S
C381 C383 1.400 . S
C381 N384 1.351 . S
C381 C386 1.501 . S
C382 C383 1.387 . S
C382 N385 1.341 . S
C383 C381 1.400 . S
C383 C382 1.387 . S
N384 Co375 2.022 . S
N384 C381 1.351 . S
N384 N385 1.365 . S
N385 C382 1.341 . S
N385 N384 1.365 . S
N385 H405 0.862 . S
C386 C381 1.501 . S
C386 H387 0.961 . S
C386 H388 0.961 . S
C386 H389 0.960 . S
H387 C386 0.961 . S
H388 C386 0.961 . S
H389 C386 0.960 . S
C390 N391 1.342 . S
C390 C394 1.401 . S
C390 C395 1.499 . S
N391 Co374 1.989 . S
N391 C390 1.342 . S
N391 N392 1.388 . S
N392 Co375 1.993 . S
N392 N391 1.388 . S
N392 C393 1.346 . S
C393 N392 1.346 . S
C393 C394 1.396 . S
C393 C403 1.510 . S
C394 C390 1.401 . S
C394 C393 1.396 . S
C395 C390 1.499 . S
C395 H396 0.959 . S
C395 H397 0.960 . S
C395 H398 0.961 . S
H396 C395 0.959 . S
H397 C395 0.960 . S
H398 C395 0.961 . S
O399 Co374 1.967 . S
O399 C407 1.258 . S
O400 Co375 1.941 . S
O400 C407 1.266 . S
H401 C403 0.959 . S
H402 C403 0.961 . S
C403 C393 1.510 . S
C403 H401 0.959 . S
C403 H402 0.961 . S
C403 H404 0.960 . S
H404 C403 0.960 . S
H405 N385 0.862 . S
O406 Co374 1.920 . S
O406 C379 1.289 . S
C407 O399 1.258 . S
C407 O400 1.266 . S
Co408 O411 1.970 . S
Co408 N425 1.989 . S
Co408 O433 1.967 . S
Co408 O440 1.920 . S
Co409 O412 1.966 . S
Co409 N418 2.022 . S
Co409 N426 1.993 . S
Co409 O434 1.941 . S
C410 O411 1.258 . S
C410 O412 1.263 . S
O411 Co408 1.970 . S
O411 C410 1.258 . S
O412 Co409 1.966 . S
O412 C410 1.263 . S
C413 O414 1.235 . S
C413 O440 1.289 1_455 S
O414 C413 1.235 . S
C415 C417 1.400 . S
C415 N418 1.351 . S
C415 C420 1.501 . S
C416 C417 1.387 . S
C416 N419 1.341 . S
C417 C415 1.400 . S
C417 C416 1.387 . S
N418 Co409 2.022 . S
N418 C415 1.351 . S
N418 N419 1.365 . S
N419 C416 1.341 . S
N419 N418 1.365 . S
N419 H439 0.862 . S
C420 C415 1.501 . S
C420 H421 0.961 . S
C420 H422 0.961 . S
C420 H423 0.960 . S
H421 C420 0.961 . S
H422 C420 0.961 . S
H423 C420 0.960 . S
C424 N425 1.342 . S
C424 C428 1.401 . S
C424 C429 1.499 . S
N425 Co408 1.989 . S
N425 C424 1.342 . S
N425 N426 1.388 . S
N426 Co409 1.993 . S
N426 N425 1.388 . S
N426 C427 1.346 . S
C427 N426 1.346 . S
C427 C428 1.396 . S
C427 C437 1.510 . S
C428 C424 1.401 . S
C428 C427 1.396 . S
C429 C424 1.499 . S
C429 H430 0.959 . S
C429 H431 0.960 1_655 S
C429 H432 0.961 . S
H430 C429 0.959 . S
H431 C429 0.960 1_455 S
H432 C429 0.961 . S
O433 Co408 1.967 . S
O433 C441 1.258 . S
O434 Co409 1.941 . S
O434 C441 1.266 . S
H435 C437 0.959 . S
H436 C437 0.961 . S
C437 C427 1.510 . S
C437 H435 0.959 . S
C437 H436 0.961 . S
C437 H438 0.960 . S
H438 C437 0.960 . S
H439 N419 0.862 . S
O440 Co408 1.920 . S
O440 C413 1.289 1_655 S
C441 O433 1.258 . S
C441 O434 1.266 . S
Co442 O445 1.970 . S
Co442 N459 1.989 . S
Co442 O467 1.967 . S
Co442 O474 1.920 . S
Co443 O446 1.966 . S
Co443 N452 2.022 . S
Co443 N460 1.993 . S
Co443 O468 1.941 . S
C444 O445 1.258 . S
C444 O446 1.263 . S
O445 Co442 1.970 . S
O445 C444 1.258 . S
O446 Co443 1.966 . S
O446 C444 1.263 . S
C447 O448 1.235 . S
C447 O474 1.289 . S
O448 C447 1.235 . S
C449 C451 1.400 . S
C449 N452 1.351 . S
C449 C454 1.501 . S
C450 C451 1.387 . S
C450 N453 1.341 . S
C451 C449 1.400 . S
C451 C450 1.387 . S
N452 Co443 2.022 . S
N452 C449 1.351 . S
N452 N453 1.365 . S
N453 C450 1.341 . S
N453 N452 1.365 . S
N453 H473 0.862 . S
C454 C449 1.501 . S
C454 H455 0.961 . S
C454 H456 0.961 . S
C454 H457 0.960 . S
H455 C454 0.961 . S
H456 C454 0.961 . S
H457 C454 0.960 . S
C458 N459 1.342 . S
C458 C462 1.401 . S
C458 C463 1.499 . S
N459 Co442 1.989 . S
N459 C458 1.342 . S
N459 N460 1.388 . S
N460 Co443 1.993 . S
N460 N459 1.388 . S
N460 C461 1.346 . S
C461 N460 1.346 . S
C461 C462 1.396 . S
C461 C471 1.510 . S
C462 C458 1.401 . S
C462 C461 1.396 . S
C463 C458 1.499 . S
C463 H464 0.959 . S
C463 H465 0.960 . S
C463 H466 0.961 . S
H464 C463 0.959 . S
H465 C463 0.960 . S
H466 C463 0.961 . S
O467 Co442 1.967 . S
O467 C475 1.258 . S
O468 Co443 1.941 . S
O468 C475 1.266 . S
H469 C471 0.959 . S
H470 C471 0.961 . S
C471 C461 1.510 . S
C471 H469 0.959 . S
C471 H470 0.961 . S
C471 H472 0.960 . S
H472 C471 0.960 . S
H473 N453 0.862 . S
O474 Co442 1.920 . S
O474 C447 1.289 . S
C475 O467 1.258 . S
C475 O468 1.266 . S
Co476 O479 1.970 . S
Co476 N493 1.989 . S
Co476 O501 1.967 . S
Co476 O508 1.920 . S
Co477 O480 1.966 . S
Co477 N486 2.022 . S
Co477 N494 1.993 . S
Co477 O502 1.941 . S
C478 O479 1.258 . S
C478 O480 1.263 . S
O479 Co476 1.970 . S
O479 C478 1.258 . S
O480 Co477 1.966 . S
O480 C478 1.263 . S
C481 O482 1.235 . S
C481 O508 1.289 1_565 S
O482 C481 1.235 . S
C483 C485 1.400 . S
C483 N486 1.351 . S
C483 C488 1.501 . S
C484 C485 1.387 . S
C484 N487 1.341 . S
C485 C483 1.400 . S
C485 C484 1.387 . S
N486 Co477 2.022 . S
N486 C483 1.351 . S
N486 N487 1.365 . S
N487 C484 1.341 . S
N487 N486 1.365 . S
N487 H507 0.862 . S
C488 C483 1.501 . S
C488 H489 0.961 . S
C488 H490 0.961 . S
C488 H491 0.960 . S
H489 C488 0.961 . S
H490 C488 0.961 . S
H491 C488 0.960 . S
C492 N493 1.342 . S
C492 C496 1.401 . S
C492 C497 1.499 . S
N493 Co476 1.989 . S
N493 C492 1.342 . S
N493 N494 1.388 . S
N494 Co477 1.993 . S
N494 N493 1.388 . S
N494 C495 1.346 . S
C495 N494 1.346 . S
C495 C496 1.396 . S
C495 C505 1.510 . S
C496 C492 1.401 . S
C496 C495 1.396 . S
C497 C492 1.499 . S
C497 H498 0.959 . S
C497 H499 0.960 1_545 S
C497 H500 0.961 . S
H498 C497 0.959 . S
H499 C497 0.960 1_565 S
H500 C497 0.961 . S
O501 Co476 1.967 . S
O501 C509 1.258 . S
O502 Co477 1.941 . S
O502 C509 1.266 . S
H503 C505 0.959 . S
H504 C505 0.961 . S
C505 C495 1.510 . S
C505 H503 0.959 . S
C505 H504 0.961 . S
C505 H506 0.960 . S
H506 C505 0.960 . S
H507 N487 0.862 . S
O508 Co476 1.920 . S
O508 C481 1.289 1_545 S
C509 O501 1.258 . S
C509 O502 1.266 . S
Co510 O513 1.970 . S
Co510 N527 1.989 . S
Co510 O535 1.967 . S
Co510 O542 1.920 . S
Co511 O514 1.966 . S
Co511 N520 2.022 . S
Co511 N528 1.993 . S
Co511 O536 1.941 . S
C512 O513 1.258 . S
C512 O514 1.263 . S
O513 Co510 1.970 . S
O513 C512 1.258 . S
O514 Co511 1.966 . S
O514 C512 1.263 . S
C515 O516 1.235 . S
C515 O542 1.289 . S
O516 C515 1.235 . S
C517 C519 1.400 . S
C517 N520 1.351 . S
C517 C522 1.501 . S
C518 C519 1.387 . S
C518 N521 1.341 . S
C519 C517 1.400 . S
C519 C518 1.387 . S
N520 Co511 2.022 . S
N520 C517 1.351 . S
N520 N521 1.365 . S
N521 C518 1.341 . S
N521 N520 1.365 . S
N521 H541 0.862 . S
C522 C517 1.501 . S
C522 H523 0.961 . S
C522 H524 0.961 . S
C522 H525 0.960 . S
H523 C522 0.961 . S
H524 C522 0.961 . S
H525 C522 0.960 . S
C526 N527 1.342 . S
C526 C530 1.401 . S
C526 C531 1.499 . S
N527 Co510 1.989 . S
N527 C526 1.342 . S
N527 N528 1.388 . S
N528 Co511 1.993 . S
N528 N527 1.388 . S
N528 C529 1.346 . S
C529 N528 1.346 . S
C529 C530 1.396 . S
C529 C539 1.510 . S
C530 C526 1.401 . S
C530 C529 1.396 . S
C531 C526 1.499 . S
C531 H532 0.959 . S
C531 H533 0.960 . S
C531 H534 0.961 . S
H532 C531 0.959 . S
H533 C531 0.960 . S
H534 C531 0.961 . S
O535 Co510 1.967 . S
O535 C543 1.258 . S
O536 Co511 1.941 . S
O536 C543 1.266 . S
H537 C539 0.959 . S
H538 C539 0.961 . S
C539 C529 1.510 . S
C539 H537 0.959 . S
C539 H538 0.961 . S
C539 H540 0.960 . S
H540 C539 0.960 . S
H541 N521 0.862 . S
O542 Co510 1.920 . S
O542 C515 1.289 . S
C543 O535 1.258 . S
C543 O536 1.266 . S
Co544 O547 1.970 . S
Co544 N561 1.989 . S
Co544 O569 1.967 . S
Co544 O576 1.920 . S
Co545 O548 1.966 . S
Co545 N554 2.022 . S
Co545 N562 1.993 . S
Co545 O570 1.941 . S
C546 O547 1.258 . S
C546 O548 1.263 . S
O547 Co544 1.970 . S
O547 C546 1.258 . S
O548 Co545 1.966 . S
O548 C546 1.263 . S
C549 O550 1.235 . S
C549 O576 1.289 . S
O550 C549 1.235 . S
C551 C553 1.400 . S
C551 N554 1.351 . S
C551 C556 1.501 . S
C552 C553 1.387 . S
C552 N555 1.341 . S
C553 C551 1.400 . S
C553 C552 1.387 . S
N554 Co545 2.022 . S
N554 C551 1.351 . S
N554 N555 1.365 . S
N555 C552 1.341 . S
N555 N554 1.365 . S
N555 H575 0.862 . S
C556 C551 1.501 . S
C556 H557 0.961 . S
C556 H558 0.961 . S
C556 H559 0.960 . S
H557 C556 0.961 . S
H558 C556 0.961 . S
H559 C556 0.960 . S
C560 N561 1.342 . S
C560 C564 1.401 . S
C560 C565 1.499 . S
N561 Co544 1.989 . S
N561 C560 1.342 . S
N561 N562 1.388 . S
N562 Co545 1.993 . S
N562 N561 1.388 . S
N562 C563 1.346 . S
C563 N562 1.346 . S
C563 C564 1.396 . S
C563 C573 1.510 . S
C564 C560 1.401 . S
C564 C563 1.396 . S
C565 C560 1.499 . S
C565 H566 0.959 . S
C565 H567 0.960 . S
C565 H568 0.961 . S
H566 C565 0.959 . S
H567 C565 0.960 . S
H568 C565 0.961 . S
O569 Co544 1.967 . S
O569 C577 1.258 . S
O570 Co545 1.941 . S
O570 C577 1.266 . S
H571 C573 0.959 . S
H572 C573 0.961 . S
C573 C563 1.510 . S
C573 H571 0.959 . S
C573 H572 0.961 . S
C573 H574 0.960 . S
H574 C573 0.960 . S
H575 N555 0.862 . S
O576 Co544 1.920 . S
O576 C549 1.289 . S
C577 O569 1.258 . S
C577 O570 1.266 . S
Co578 O581 1.970 . S
Co578 N595 1.989 . S
Co578 O603 1.967 . S
Co578 O610 1.920 . S
Co579 O582 1.966 . S
Co579 N588 2.022 . S
Co579 N596 1.993 . S
Co579 O604 1.941 . S
C580 O581 1.258 . S
C580 O582 1.263 . S
O581 Co578 1.970 . S
O581 C580 1.258 . S
O582 Co579 1.966 . S
O582 C580 1.263 . S
C583 O584 1.235 . S
C583 O610 1.289 . S
O584 C583 1.235 . S
C585 C587 1.400 . S
C585 N588 1.351 . S
C585 C590 1.501 . S
C586 C587 1.387 . S
C586 N589 1.341 . S
C587 C585 1.400 . S
C587 C586 1.387 . S
N588 Co579 2.022 . S
N588 C585 1.351 . S
N588 N589 1.365 . S
N589 C586 1.341 . S
N589 N588 1.365 . S
N589 H609 0.862 . S
C590 C585 1.501 . S
C590 H591 0.961 . S
C590 H592 0.961 . S
C590 H593 0.960 . S
H591 C590 0.961 . S
H592 C590 0.961 . S
H593 C590 0.960 . S
C594 N595 1.342 . S
C594 C598 1.401 . S
C594 C599 1.499 . S
N595 Co578 1.989 . S
N595 C594 1.342 . S
N595 N596 1.388 . S
N596 Co579 1.993 . S
N596 N595 1.388 . S
N596 C597 1.346 . S
C597 N596 1.346 . S
C597 C598 1.396 . S
C597 C607 1.510 . S
C598 C594 1.401 . S
C598 C597 1.396 . S
C599 C594 1.499 . S
C599 H600 0.959 . S
C599 H601 0.960 . S
C599 H602 0.961 . S
H600 C599 0.959 . S
H601 C599 0.960 . S
H602 C599 0.961 . S
O603 Co578 1.967 . S
O603 C611 1.258 . S
O604 Co579 1.941 . S
O604 C611 1.266 . S
H605 C607 0.959 . S
H606 C607 0.961 . S
C607 C597 1.510 . S
C607 H605 0.959 . S
C607 H606 0.961 . S
C607 H608 0.960 . S
H608 C607 0.960 . S
H609 N589 0.862 . S
O610 Co578 1.920 . S
O610 C583 1.289 . S
C611 O603 1.258 . S
C611 O604 1.266 . S
Co612 O615 1.970 . S
Co612 N629 1.989 . S
Co612 O637 1.967 . S
Co612 O644 1.920 . S
Co613 O616 1.966 . S
Co613 N622 2.022 . S
Co613 N630 1.993 . S
Co613 O638 1.941 . S
C614 O615 1.258 . S
C614 O616 1.263 . S
O615 Co612 1.970 . S
O615 C614 1.258 . S
O616 Co613 1.966 . S
O616 C614 1.263 . S
C617 O618 1.235 . S
C617 O644 1.289 . S
O618 C617 1.235 . S
C619 C621 1.400 . S
C619 N622 1.351 . S
C619 C624 1.501 . S
C620 C621 1.387 . S
C620 N623 1.341 . S
C621 C619 1.400 . S
C621 C620 1.387 . S
N622 Co613 2.022 . S
N622 C619 1.351 . S
N622 N623 1.365 . S
N623 C620 1.341 . S
N623 N622 1.365 . S
N623 H643 0.862 . S
C624 C619 1.501 . S
C624 H625 0.961 . S
C624 H626 0.961 . S
C624 H627 0.960 . S
H625 C624 0.961 . S
H626 C624 0.961 . S
H627 C624 0.960 . S
C628 N629 1.342 . S
C628 C632 1.401 . S
C628 C633 1.499 . S
N629 Co612 1.989 . S
N629 C628 1.342 . S
N629 N630 1.388 . S
N630 Co613 1.993 . S
N630 N629 1.388 . S
N630 C631 1.346 . S
C631 N630 1.346 . S
C631 C632 1.396 . S
C631 C641 1.510 . S
C632 C628 1.401 . S
C632 C631 1.396 . S
C633 C628 1.499 . S
C633 H634 0.959 . S
C633 H635 0.960 . S
C633 H636 0.961 . S
H634 C633 0.959 . S
H635 C633 0.960 . S
H636 C633 0.961 . S
O637 Co612 1.967 . S
O637 C645 1.258 . S
O638 Co613 1.941 . S
O638 C645 1.266 . S
H639 C641 0.959 . S
H640 C641 0.961 . S
C641 C631 1.510 . S
C641 H639 0.959 . S
C641 H640 0.961 . S
C641 H642 0.960 . S
H642 C641 0.960 . S
H643 N623 0.862 . S
O644 Co612 1.920 . S
O644 C617 1.289 . S
C645 O637 1.258 . S
C645 O638 1.266 . S
Co646 O649 1.970 . S
Co646 N663 1.989 . S
Co646 O671 1.967 . S
Co646 O678 1.920 . S
Co647 O650 1.966 . S
Co647 N656 2.022 . S
Co647 N664 1.993 . S
Co647 O672 1.941 . S
C648 O649 1.258 . S
C648 O650 1.263 . S
O649 Co646 1.970 . S
O649 C648 1.258 . S
O650 Co647 1.966 . S
O650 C648 1.263 . S
C651 O652 1.235 . S
C651 O678 1.289 . S
O652 C651 1.235 . S
C653 C655 1.400 . S
C653 N656 1.351 . S
C653 C658 1.501 . S
C654 C655 1.387 . S
C654 N657 1.341 . S
C655 C653 1.400 . S
C655 C654 1.387 . S
N656 Co647 2.022 . S
N656 C653 1.351 . S
N656 N657 1.365 . S
N657 C654 1.341 . S
N657 N656 1.365 . S
N657 H677 0.862 . S
C658 C653 1.501 . S
C658 H659 0.961 . S
C658 H660 0.961 . S
C658 H661 0.960 . S
H659 C658 0.961 . S
H660 C658 0.961 . S
H661 C658 0.960 . S
C662 N663 1.342 . S
C662 C666 1.401 . S
C662 C667 1.499 . S
N663 Co646 1.989 . S
N663 C662 1.342 . S
N663 N664 1.388 . S
N664 Co647 1.993 . S
N664 N663 1.388 . S
N664 C665 1.346 . S
C665 N664 1.346 . S
C665 C666 1.396 . S
C665 C675 1.510 . S
C666 C662 1.401 . S
C666 C665 1.396 . S
C667 C662 1.499 . S
C667 H668 0.959 . S
C667 H669 0.960 . S
C667 H670 0.961 . S
H668 C667 0.959 . S
H669 C667 0.960 . S
H670 C667 0.961 . S
O671 Co646 1.967 . S
O671 C679 1.258 . S
O672 Co647 1.941 . S
O672 C679 1.266 . S
H673 C675 0.959 . S
H674 C675 0.961 . S
C675 C665 1.510 . S
C675 H673 0.959 . S
C675 H674 0.961 . S
C675 H676 0.960 . S
H676 C675 0.960 . S
H677 N657 0.862 . S
O678 Co646 1.920 . S
O678 C651 1.289 . S
C679 O671 1.258 . S
C679 O672 1.266 . S
Co680 O683 1.970 . S
Co680 N697 1.989 . S
Co680 O705 1.967 . S
Co680 O712 1.920 . S
Co681 O684 1.966 . S
Co681 N690 2.022 . S
Co681 N698 1.993 . S
Co681 O706 1.941 . S
C682 O683 1.258 . S
C682 O684 1.263 . S
O683 Co680 1.970 . S
O683 C682 1.258 . S
O684 Co681 1.966 . S
O684 C682 1.263 . S
C685 O686 1.235 . S
C685 O712 1.289 . S
O686 C685 1.235 . S
C687 C689 1.400 . S
C687 N690 1.351 . S
C687 C692 1.501 . S
C688 C689 1.387 . S
C688 N691 1.341 . S
C689 C687 1.400 . S
C689 C688 1.387 . S
N690 Co681 2.022 . S
N690 C687 1.351 . S
N690 N691 1.365 . S
N691 C688 1.341 . S
N691 N690 1.365 . S
N691 H711 0.862 . S
C692 C687 1.501 . S
C692 H693 0.961 . S
C692 H694 0.961 . S
C692 H695 0.960 . S
H693 C692 0.961 . S
H694 C692 0.961 . S
H695 C692 0.960 . S
C696 N697 1.342 . S
C696 C700 1.401 . S
C696 C701 1.499 . S
N697 Co680 1.989 . S
N697 C696 1.342 . S
N697 N698 1.388 . S
N698 Co681 1.993 . S
N698 N697 1.388 . S
N698 C699 1.346 . S
C699 N698 1.346 . S
C699 C700 1.396 . S
C699 C709 1.510 . S
C700 C696 1.401 . S
C700 C699 1.396 . S
C701 C696 1.499 . S
C701 H702 0.959 . S
C701 H703 0.960 . S
C701 H704 0.961 . S
H702 C701 0.959 . S
H703 C701 0.960 . S
H704 C701 0.961 . S
O705 Co680 1.967 . S
O705 C713 1.258 . S
O706 Co681 1.941 . S
O706 C713 1.266 . S
H707 C709 0.959 . S
H708 C709 0.961 . S
C709 C699 1.510 . S
C709 H707 0.959 . S
C709 H708 0.961 . S
C709 H710 0.960 . S
H710 C709 0.960 . S
H711 N691 0.862 . S
O712 Co680 1.920 . S
O712 C685 1.289 . S
C713 O705 1.258 . S
C713 O706 1.266 . S
Co714 O717 1.970 . S
Co714 N731 1.989 . S
Co714 O739 1.967 . S
Co714 O746 1.920 . S
Co715 O718 1.966 . S
Co715 N724 2.022 . S
Co715 N732 1.993 . S
Co715 O740 1.941 . S
C716 O717 1.258 . S
C716 O718 1.263 . S
O717 Co714 1.970 . S
O717 C716 1.258 . S
O718 Co715 1.966 . S
O718 C716 1.263 . S
C719 O720 1.235 . S
C719 O746 1.289 1_565 S
O720 C719 1.235 . S
C721 C723 1.400 . S
C721 N724 1.351 . S
C721 C726 1.501 . S
C722 C723 1.387 . S
C722 N725 1.341 . S
C723 C721 1.400 . S
C723 C722 1.387 . S
N724 Co715 2.022 . S
N724 C721 1.351 . S
N724 N725 1.365 . S
N725 C722 1.341 . S
N725 N724 1.365 . S
N725 H745 0.862 . S
C726 C721 1.501 . S
C726 H727 0.961 . S
C726 H728 0.961 . S
C726 H729 0.960 . S
H727 C726 0.961 . S
H728 C726 0.961 . S
H729 C726 0.960 . S
C730 N731 1.342 . S
C730 C734 1.401 . S
C730 C735 1.499 . S
N731 Co714 1.989 . S
N731 C730 1.342 . S
N731 N732 1.388 . S
N732 Co715 1.993 . S
N732 N731 1.388 . S
N732 C733 1.346 . S
C733 N732 1.346 . S
C733 C734 1.396 . S
C733 C743 1.510 . S
C734 C730 1.401 . S
C734 C733 1.396 . S
C735 C730 1.499 . S
C735 H736 0.959 . S
C735 H737 0.960 1_545 S
C735 H738 0.961 . S
H736 C735 0.959 . S
H737 C735 0.960 1_565 S
H738 C735 0.961 . S
O739 Co714 1.967 . S
O739 C747 1.258 . S
O740 Co715 1.941 . S
O740 C747 1.266 . S
H741 C743 0.959 . S
H742 C743 0.961 . S
C743 C733 1.510 . S
C743 H741 0.959 . S
C743 H742 0.961 . S
C743 H744 0.960 . S
H744 C743 0.960 . S
H745 N725 0.862 . S
O746 Co714 1.920 . S
O746 C719 1.289 1_545 S
C747 O739 1.258 . S
C747 O740 1.266 . S
Co748 O751 1.970 . S
Co748 N765 1.989 . S
Co748 O773 1.967 . S
Co748 O780 1.920 . S
Co749 O752 1.966 . S
Co749 N758 2.022 . S
Co749 N766 1.993 . S
Co749 O774 1.941 . S
C750 O751 1.258 . S
C750 O752 1.263 . S
O751 Co748 1.970 . S
O751 C750 1.258 . S
O752 Co749 1.966 . S
O752 C750 1.263 . S
C753 O754 1.235 . S
C753 O780 1.289 1_455 S
O754 C753 1.235 . S
C755 C757 1.400 . S
C755 N758 1.351 . S
C755 C760 1.501 . S
C756 C757 1.387 . S
C756 N759 1.341 . S
C757 C755 1.400 . S
C757 C756 1.387 . S
N758 Co749 2.022 . S
N758 C755 1.351 . S
N758 N759 1.365 . S
N759 C756 1.341 . S
N759 N758 1.365 . S
N759 H779 0.862 . S
C760 C755 1.501 . S
C760 H761 0.961 . S
C760 H762 0.961 . S
C760 H763 0.960 . S
H761 C760 0.961 . S
H762 C760 0.961 . S
H763 C760 0.960 . S
C764 N765 1.342 . S
C764 C768 1.401 . S
C764 C769 1.499 . S
N765 Co748 1.989 . S
N765 C764 1.342 . S
N765 N766 1.388 . S
N766 Co749 1.993 . S
N766 N765 1.388 . S
N766 C767 1.346 . S
C767 N766 1.346 . S
C767 C768 1.396 . S
C767 C777 1.510 . S
C768 C764 1.401 . S
C768 C767 1.396 . S
C769 C764 1.499 . S
C769 H770 0.959 . S
C769 H771 0.960 1_655 S
C769 H772 0.961 . S
H770 C769 0.959 . S
H771 C769 0.960 1_455 S
H772 C769 0.961 . S
O773 Co748 1.967 . S
O773 C781 1.258 . S
O774 Co749 1.941 . S
O774 C781 1.266 . S
H775 C777 0.959 . S
H776 C777 0.961 . S
C777 C767 1.510 . S
C777 H775 0.959 . S
C777 H776 0.961 . S
C777 H778 0.960 . S
H778 C777 0.960 . S
H779 N759 0.862 . S
O780 Co748 1.920 . S
O780 C753 1.289 1_655 S
C781 O773 1.258 . S
C781 O774 1.266 . S
Co782 O785 1.970 . S
Co782 N799 1.989 . S
Co782 O807 1.967 . S
Co782 O814 1.920 . S
Co783 O786 1.966 . S
Co783 N792 2.022 . S
Co783 N800 1.993 . S
Co783 O808 1.941 . S
C784 O785 1.258 . S
C784 O786 1.263 . S
O785 Co782 1.970 . S
O785 C784 1.258 . S
O786 Co783 1.966 . S
O786 C784 1.263 . S
C787 O788 1.235 . S
C787 O814 1.289 . S
O788 C787 1.235 . S
C789 C791 1.400 . S
C789 N792 1.351 . S
C789 C794 1.501 . S
C790 C791 1.387 . S
C790 N793 1.341 . S
C791 C789 1.400 . S
C791 C790 1.387 . S
N792 Co783 2.022 . S
N792 C789 1.351 . S
N792 N793 1.365 . S
N793 C790 1.341 . S
N793 N792 1.365 . S
N793 H813 0.862 . S
C794 C789 1.501 . S
C794 H795 0.961 . S
C794 H796 0.961 . S
C794 H797 0.960 . S
H795 C794 0.961 . S
H796 C794 0.961 . S
H797 C794 0.960 . S
C798 N799 1.342 . S
C798 C802 1.401 . S
C798 C803 1.499 . S
N799 Co782 1.989 . S
N799 C798 1.342 . S
N799 N800 1.388 . S
N800 Co783 1.993 . S
N800 N799 1.388 . S
N800 C801 1.346 . S
C801 N800 1.346 . S
C801 C802 1.396 . S
C801 C811 1.510 . S
C802 C798 1.401 . S
C802 C801 1.396 . S
C803 C798 1.499 . S
C803 H804 0.959 . S
C803 H805 0.960 . S
C803 H806 0.961 . S
H804 C803 0.959 . S
H805 C803 0.960 . S
H806 C803 0.961 . S
O807 Co782 1.967 . S
O807 C815 1.258 . S
O808 Co783 1.941 . S
O808 C815 1.266 . S
H809 C811 0.959 . S
H810 C811 0.961 . S
C811 C801 1.510 . S
C811 H809 0.959 . S
C811 H810 0.961 . S
C811 H812 0.960 . S
H812 C811 0.960 . S
H813 N793 0.862 . S
O814 Co782 1.920 . S
O814 C787 1.289 . S
C815 O807 1.258 . S
C815 O808 1.266 . S
Co816 O819 1.970 . S
Co816 N833 1.989 . S
Co816 O841 1.967 . S
Co816 O848 1.920 . S
Co817 O820 1.966 . S
Co817 N826 2.022 . S
Co817 N834 1.993 . S
Co817 O842 1.941 . S
C818 O819 1.258 . S
C818 O820 1.263 . S
O819 Co816 1.970 . S
O819 C818 1.258 . S
O820 Co817 1.966 . S
O820 C818 1.263 . S
C821 O822 1.235 . S
C821 O848 1.289 . S
O822 C821 1.235 . S
C823 C825 1.400 . S
C823 N826 1.351 . S
C823 C828 1.501 . S
C824 C825 1.387 . S
C824 N827 1.341 . S
C825 C823 1.400 . S
C825 C824 1.387 . S
N826 Co817 2.022 . S
N826 C823 1.351 . S
N826 N827 1.365 . S
N827 C824 1.341 . S
N827 N826 1.365 . S
N827 H847 0.862 . S
C828 C823 1.501 . S
C828 H829 0.961 . S
C828 H830 0.961 . S
C828 H831 0.960 . S
H829 C828 0.961 . S
H830 C828 0.961 . S
H831 C828 0.960 . S
C832 N833 1.342 . S
C832 C836 1.401 . S
C832 C837 1.499 . S
N833 Co816 1.989 . S
N833 C832 1.342 . S
N833 N834 1.388 . S
N834 Co817 1.993 . S
N834 N833 1.388 . S
N834 C835 1.346 . S
C835 N834 1.346 . S
C835 C836 1.396 . S
C835 C845 1.510 . S
C836 C832 1.401 . S
C836 C835 1.396 . S
C837 C832 1.499 . S
C837 H838 0.959 . S
C837 H839 0.960 . S
C837 H840 0.961 . S
H838 C837 0.959 . S
H839 C837 0.960 . S
H840 C837 0.961 . S
O841 Co816 1.967 . S
O841 C849 1.258 . S
O842 Co817 1.941 . S
O842 C849 1.266 . S
H843 C845 0.959 . S
H844 C845 0.961 . S
C845 C835 1.510 . S
C845 H843 0.959 . S
C845 H844 0.961 . S
C845 H846 0.960 . S
H846 C845 0.960 . S
H847 N827 0.862 . S
O848 Co816 1.920 . S
O848 C821 1.289 . S
C849 O841 1.258 . S
C849 O842 1.266 . S
Co850 O853 1.970 . S
Co850 N867 1.989 . S
Co850 O875 1.967 . S
Co850 O882 1.920 . S
Co851 O854 1.966 . S
Co851 N860 2.022 . S
Co851 N868 1.993 . S
Co851 O876 1.941 . S
C852 O853 1.258 . S
C852 O854 1.263 . S
O853 Co850 1.970 . S
O853 C852 1.258 . S
O854 Co851 1.966 . S
O854 C852 1.263 . S
C855 O856 1.235 . S
C855 O882 1.289 . S
O856 C855 1.235 . S
C857 C859 1.400 . S
C857 N860 1.351 . S
C857 C862 1.501 . S
C858 C859 1.387 . S
C858 N861 1.341 . S
C859 C857 1.400 . S
C859 C858 1.387 . S
N860 Co851 2.022 . S
N860 C857 1.351 . S
N860 N861 1.365 . S
N861 C858 1.341 . S
N861 N860 1.365 . S
N861 H881 0.862 . S
C862 C857 1.501 . S
C862 H863 0.961 . S
C862 H864 0.961 . S
C862 H865 0.960 . S
H863 C862 0.961 . S
H864 C862 0.961 . S
H865 C862 0.960 . S
C866 N867 1.342 . S
C866 C870 1.401 . S
C866 C871 1.499 . S
N867 Co850 1.989 . S
N867 C866 1.342 . S
N867 N868 1.388 . S
N868 Co851 1.993 . S
N868 N867 1.388 . S
N868 C869 1.346 . S
C869 N868 1.346 . S
C869 C870 1.396 . S
C869 C879 1.510 . S
C870 C866 1.401 . S
C870 C869 1.396 . S
C871 C866 1.499 . S
C871 H872 0.959 . S
C871 H873 0.960 . S
C871 H874 0.961 . S
H872 C871 0.959 . S
H873 C871 0.960 . S
H874 C871 0.961 . S
O875 Co850 1.967 . S
O875 C883 1.258 . S
O876 Co851 1.941 . S
O876 C883 1.266 . S
H877 C879 0.959 . S
H878 C879 0.961 . S
C879 C869 1.510 . S
C879 H877 0.959 . S
C879 H878 0.961 . S
C879 H880 0.960 . S
H880 C879 0.960 . S
H881 N861 0.862 . S
O882 Co850 1.920 . S
O882 C855 1.289 . S
C883 O875 1.258 . S
C883 O876 1.266 . S
Co884 O887 1.970 . S
Co884 N901 1.989 . S
Co884 O909 1.967 . S
Co884 O916 1.920 . S
Co885 O888 1.966 . S
Co885 N894 2.022 . S
Co885 N902 1.993 . S
Co885 O910 1.941 . S
C886 O887 1.258 . S
C886 O888 1.263 . S
O887 Co884 1.970 . S
O887 C886 1.258 . S
O888 Co885 1.966 . S
O888 C886 1.263 . S
C889 O890 1.235 . S
C889 O916 1.289 . S
O890 C889 1.235 . S
C891 C893 1.400 . S
C891 N894 1.351 . S
C891 C896 1.501 . S
C892 C893 1.387 . S
C892 N895 1.341 . S
C893 C891 1.400 . S
C893 C892 1.387 . S
N894 Co885 2.022 . S
N894 C891 1.351 . S
N894 N895 1.365 . S
N895 C892 1.341 . S
N895 N894 1.365 . S
N895 H915 0.862 . S
C896 C891 1.501 . S
C896 H897 0.961 . S
C896 H898 0.961 . S
C896 H899 0.960 . S
H897 C896 0.961 . S
H898 C896 0.961 . S
H899 C896 0.960 . S
C900 N901 1.342 . S
C900 C904 1.401 . S
C900 C905 1.499 . S
N901 Co884 1.989 . S
N901 C900 1.342 . S
N901 N902 1.388 . S
N902 Co885 1.993 . S
N902 N901 1.388 . S
N902 C903 1.346 . S
C903 N902 1.346 . S
C903 C904 1.396 . S
C903 C913 1.510 . S
C904 C900 1.401 . S
C904 C903 1.396 . S
C905 C900 1.499 . S
C905 H906 0.959 . S
C905 H907 0.960 . S
C905 H908 0.961 . S
H906 C905 0.959 . S
H907 C905 0.960 . S
H908 C905 0.961 . S
O909 Co884 1.967 . S
O909 C917 1.258 . S
O910 Co885 1.941 . S
O910 C917 1.266 . S
H911 C913 0.959 . S
H912 C913 0.961 . S
C913 C903 1.510 . S
C913 H911 0.959 . S
C913 H912 0.961 . S
C913 H914 0.960 . S
H914 C913 0.960 . S
H915 N895 0.862 . S
O916 Co884 1.920 . S
O916 C889 1.289 . S
C917 O909 1.258 . S
C917 O910 1.266 . S
Co918 O921 1.970 . S
Co918 N935 1.989 . S
Co918 O943 1.967 . S
Co918 O950 1.920 . S
Co919 O922 1.966 . S
Co919 N928 2.022 . S
Co919 N936 1.993 . S
Co919 O944 1.941 . S
C920 O921 1.258 . S
C920 O922 1.263 . S
O921 Co918 1.970 . S
O921 C920 1.258 . S
O922 Co919 1.966 . S
O922 C920 1.263 . S
C923 O924 1.235 . S
C923 O950 1.289 1_545 S
O924 C923 1.235 . S
C925 C927 1.400 . S
C925 N928 1.351 . S
C925 C930 1.501 . S
C926 C927 1.387 . S
C926 N929 1.341 . S
C927 C925 1.400 . S
C927 C926 1.387 . S
N928 Co919 2.022 . S
N928 C925 1.351 . S
N928 N929 1.365 . S
N929 C926 1.341 . S
N929 N928 1.365 . S
N929 H949 0.862 . S
C930 C925 1.501 . S
C930 H931 0.961 . S
C930 H932 0.961 . S
C930 H933 0.960 . S
H931 C930 0.961 . S
H932 C930 0.961 . S
H933 C930 0.960 . S
C934 N935 1.342 . S
C934 C938 1.401 . S
C934 C939 1.499 . S
N935 Co918 1.989 . S
N935 C934 1.342 . S
N935 N936 1.388 . S
N936 Co919 1.993 . S
N936 N935 1.388 . S
N936 C937 1.346 . S
C937 N936 1.346 . S
C937 C938 1.396 . S
C937 C947 1.510 . S
C938 C934 1.401 . S
C938 C937 1.396 . S
C939 C934 1.499 . S
C939 H940 0.959 . S
C939 H941 0.960 1_565 S
C939 H942 0.961 . S
H940 C939 0.959 . S
H941 C939 0.960 1_545 S
H942 C939 0.961 . S
O943 Co918 1.967 . S
O943 C951 1.258 . S
O944 Co919 1.941 . S
O944 C951 1.266 . S
H945 C947 0.959 . S
H946 C947 0.961 . S
C947 C937 1.510 . S
C947 H945 0.959 . S
C947 H946 0.961 . S
C947 H948 0.960 . S
H948 C947 0.960 . S
H949 N929 0.862 . S
O950 Co918 1.920 . S
O950 C923 1.289 1_565 S
C951 O943 1.258 . S
C951 O944 1.266 . S
Co952 O955 1.970 . S
Co952 N969 1.989 . S
Co952 O977 1.967 . S
Co952 O984 1.920 . S
Co953 O956 1.966 . S
Co953 N962 2.022 . S
Co953 N970 1.993 . S
Co953 O978 1.941 . S
C954 O955 1.258 . S
C954 O956 1.263 . S
O955 Co952 1.970 . S
O955 C954 1.258 . S
O956 Co953 1.966 . S
O956 C954 1.263 . S
C957 O958 1.235 . S
C957 O984 1.289 1_655 S
O958 C957 1.235 . S
C959 C961 1.400 . S
C959 N962 1.351 . S
C959 C964 1.501 . S
C960 C961 1.387 . S
C960 N963 1.341 . S
C961 C959 1.400 . S
C961 C960 1.387 . S
N962 Co953 2.022 . S
N962 C959 1.351 . S
N962 N963 1.365 . S
N963 C960 1.341 . S
N963 N962 1.365 . S
N963 H983 0.862 . S
C964 C959 1.501 . S
C964 H965 0.961 . S
C964 H966 0.961 . S
C964 H967 0.960 . S
H965 C964 0.961 . S
H966 C964 0.961 . S
H967 C964 0.960 . S
C968 N969 1.342 . S
C968 C972 1.401 . S
C968 C973 1.499 . S
N969 Co952 1.989 . S
N969 C968 1.342 . S
N969 N970 1.388 . S
N970 Co953 1.993 . S
N970 N969 1.388 . S
N970 C971 1.346 . S
C971 N970 1.346 . S
C971 C972 1.396 . S
C971 C981 1.510 . S
C972 C968 1.401 . S
C972 C971 1.396 . S
C973 C968 1.499 . S
C973 H974 0.959 . S
C973 H975 0.960 1_455 S
C973 H976 0.961 . S
H974 C973 0.959 . S
H975 C973 0.960 1_655 S
H976 C973 0.961 . S
O977 Co952 1.967 . S
O977 C985 1.258 . S
O978 Co953 1.941 . S
O978 C985 1.266 . S
H979 C981 0.959 . S
H980 C981 0.961 . S
C981 C971 1.510 . S
C981 H979 0.959 . S
C981 H980 0.961 . S
C981 H982 0.960 . S
H982 C981 0.960 . S
H983 N963 0.862 . S
O984 Co952 1.920 . S
O984 C957 1.289 1_455 S
C985 O977 1.258 . S
C985 O978 1.266 . S
Co986 O989 1.970 . S
Co986 N1003 1.989 . S
Co986 O1011 1.967 . S
Co986 O1018 1.920 . S
Co987 O990 1.966 . S
Co987 N996 2.022 . S
Co987 N1004 1.993 . S
Co987 O1012 1.941 . S
C988 O989 1.258 . S
C988 O990 1.263 . S
O989 Co986 1.970 . S
O989 C988 1.258 . S
O990 Co987 1.966 . S
O990 C988 1.263 . S
C991 O992 1.235 . S
C991 O1018 1.289 . S
O992 C991 1.235 . S
C993 C995 1.400 . S
C993 N996 1.351 . S
C993 C998 1.501 . S
C994 C995 1.387 . S
C994 N997 1.341 . S
C995 C993 1.400 . S
C995 C994 1.387 . S
N996 Co987 2.022 . S
N996 C993 1.351 . S
N996 N997 1.365 . S
N997 C994 1.341 . S
N997 N996 1.365 . S
N997 H1017 0.862 . S
C998 C993 1.501 . S
C998 H999 0.961 . S
C998 H1000 0.961 . S
C998 H1001 0.960 . S
H999 C998 0.961 . S
H1000 C998 0.961 . S
H1001 C998 0.960 . S
C1002 N1003 1.342 . S
C1002 C1006 1.401 . S
C1002 C1007 1.499 . S
N1003 Co986 1.989 . S
N1003 C1002 1.342 . S
N1003 N1004 1.388 . S
N1004 Co987 1.993 . S
N1004 N1003 1.388 . S
N1004 C1005 1.346 . S
C1005 N1004 1.346 . S
C1005 C1006 1.396 . S
C1005 C1015 1.510 . S
C1006 C1002 1.401 . S
C1006 C1005 1.396 . S
C1007 C1002 1.499 . S
C1007 H1008 0.959 . S
C1007 H1009 0.960 . S
C1007 H1010 0.961 . S
H1008 C1007 0.959 . S
H1009 C1007 0.960 . S
H1010 C1007 0.961 . S
O1011 Co986 1.967 . S
O1011 C1019 1.258 . S
O1012 Co987 1.941 . S
O1012 C1019 1.266 . S
H1013 C1015 0.959 . S
H1014 C1015 0.961 . S
C1015 C1005 1.510 . S
C1015 H1013 0.959 . S
C1015 H1014 0.961 . S
C1015 H1016 0.960 . S
H1016 C1015 0.960 . S
H1017 N997 0.862 . S
O1018 Co986 1.920 . S
O1018 C991 1.289 . S
C1019 O1011 1.258 . S
C1019 O1012 1.266 . S
Co1020 O1023 1.970 . S
Co1020 N1037 1.989 . S
Co1020 O1045 1.967 . S
Co1020 O1052 1.920 . S
Co1021 O1024 1.966 . S
Co1021 N1030 2.022 . S
Co1021 N1038 1.993 . S
Co1021 O1046 1.941 . S
C1022 O1023 1.258 . S
C1022 O1024 1.263 . S
O1023 Co1020 1.970 . S
O1023 C1022 1.258 . S
O1024 Co1021 1.966 . S
O1024 C1022 1.263 . S
C1025 O1026 1.235 . S
C1025 O1052 1.289 1_655 S
O1026 C1025 1.235 . S
C1027 C1029 1.400 . S
C1027 N1030 1.351 . S
C1027 C1032 1.501 . S
C1028 C1029 1.387 . S
C1028 N1031 1.341 . S
C1029 C1027 1.400 . S
C1029 C1028 1.387 . S
N1030 Co1021 2.022 . S
N1030 C1027 1.351 . S
N1030 N1031 1.365 . S
N1031 C1028 1.341 . S
N1031 N1030 1.365 . S
N1031 H1051 0.862 . S
C1032 C1027 1.501 . S
C1032 H1033 0.961 . S
C1032 H1034 0.961 . S
C1032 H1035 0.960 . S
H1033 C1032 0.961 . S
H1034 C1032 0.961 . S
H1035 C1032 0.960 . S
C1036 N1037 1.342 . S
C1036 C1040 1.401 . S
C1036 C1041 1.499 . S
N1037 Co1020 1.989 . S
N1037 C1036 1.342 . S
N1037 N1038 1.388 . S
N1038 Co1021 1.993 . S
N1038 N1037 1.388 . S
N1038 C1039 1.346 . S
C1039 N1038 1.346 . S
C1039 C1040 1.396 . S
C1039 C1049 1.510 . S
C1040 C1036 1.401 . S
C1040 C1039 1.396 . S
C1041 C1036 1.499 . S
C1041 H1042 0.959 . S
C1041 H1043 0.960 1_455 S
C1041 H1044 0.961 . S
H1042 C1041 0.959 . S
H1043 C1041 0.960 1_655 S
H1044 C1041 0.961 . S
O1045 Co1020 1.967 . S
O1045 C1053 1.258 . S
O1046 Co1021 1.941 . S
O1046 C1053 1.266 . S
H1047 C1049 0.959 . S
H1048 C1049 0.961 . S
C1049 C1039 1.510 . S
C1049 H1047 0.959 . S
C1049 H1048 0.961 . S
C1049 H1050 0.960 . S
H1050 C1049 0.960 . S
H1051 N1031 0.862 . S
O1052 Co1020 1.920 . S
O1052 C1025 1.289 1_455 S
C1053 O1045 1.258 . S
C1053 O1046 1.266 . S
Co1054 O1057 1.970 . S
Co1054 N1071 1.989 . S
Co1054 O1079 1.967 . S
Co1054 O1086 1.920 . S
Co1055 O1058 1.966 . S
Co1055 N1064 2.022 . S
Co1055 N1072 1.993 . S
Co1055 O1080 1.941 . S
C1056 O1057 1.258 . S
C1056 O1058 1.263 . S
O1057 Co1054 1.970 . S
O1057 C1056 1.258 . S
O1058 Co1055 1.966 . S
O1058 C1056 1.263 . S
C1059 O1060 1.235 . S
C1059 O1086 1.289 . S
O1060 C1059 1.235 . S
C1061 C1063 1.400 . S
C1061 N1064 1.351 . S
C1061 C1066 1.501 . S
C1062 C1063 1.387 . S
C1062 N1065 1.341 . S
C1063 C1061 1.400 . S
C1063 C1062 1.387 . S
N1064 Co1055 2.022 . S
N1064 C1061 1.351 . S
N1064 N1065 1.365 . S
N1065 C1062 1.341 . S
N1065 N1064 1.365 . S
N1065 H1085 0.862 . S
C1066 C1061 1.501 . S
C1066 H1067 0.961 . S
C1066 H1068 0.961 . S
C1066 H1069 0.960 . S
H1067 C1066 0.961 . S
H1068 C1066 0.961 . S
H1069 C1066 0.960 . S
C1070 N1071 1.342 . S
C1070 C1074 1.401 . S
C1070 C1075 1.499 . S
N1071 Co1054 1.989 . S
N1071 C1070 1.342 . S
N1071 N1072 1.388 . S
N1072 Co1055 1.993 . S
N1072 N1071 1.388 . S
N1072 C1073 1.346 . S
C1073 N1072 1.346 . S
C1073 C1074 1.396 . S
C1073 C1083 1.510 . S
C1074 C1070 1.401 . S
C1074 C1073 1.396 . S
C1075 C1070 1.499 . S
C1075 H1076 0.959 . S
C1075 H1077 0.960 . S
C1075 H1078 0.961 . S
H1076 C1075 0.959 . S
H1077 C1075 0.960 . S
H1078 C1075 0.961 . S
O1079 Co1054 1.967 . S
O1079 C1087 1.258 . S
O1080 Co1055 1.941 . S
O1080 C1087 1.266 . S
H1081 C1083 0.959 . S
H1082 C1083 0.961 . S
C1083 C1073 1.510 . S
C1083 H1081 0.959 . S
C1083 H1082 0.961 . S
C1083 H1084 0.960 . S
H1084 C1083 0.960 . S
H1085 N1065 0.862 . S
O1086 Co1054 1.920 . S
O1086 C1059 1.289 . S
C1087 O1079 1.258 . S
C1087 O1080 1.266 . S
Co1088 O1091 1.970 . S
Co1088 N1105 1.989 . S
Co1088 O1113 1.967 . S
Co1088 O1120 1.920 . S
Co1089 O1092 1.966 . S
Co1089 N1098 2.022 . S
Co1089 N1106 1.993 . S
Co1089 O1114 1.941 . S
C1090 O1091 1.258 . S
C1090 O1092 1.263 . S
O1091 Co1088 1.970 . S
O1091 C1090 1.258 . S
O1092 Co1089 1.966 . S
O1092 C1090 1.263 . S
C1093 O1094 1.235 . S
C1093 O1120 1.289 1_545 S
O1094 C1093 1.235 . S
C1095 C1097 1.400 . S
C1095 N1098 1.351 . S
C1095 C1100 1.501 . S
C1096 C1097 1.387 . S
C1096 N1099 1.341 . S
C1097 C1095 1.400 . S
C1097 C1096 1.387 . S
N1098 Co1089 2.022 . S
N1098 C1095 1.351 . S
N1098 N1099 1.365 . S
N1099 C1096 1.341 . S
N1099 N1098 1.365 . S
N1099 H1119 0.862 . S
C1100 C1095 1.501 . S
C1100 H1101 0.961 . S
C1100 H1102 0.961 . S
C1100 H1103 0.960 . S
H1101 C1100 0.961 . S
H1102 C1100 0.961 . S
H1103 C1100 0.960 . S
C1104 N1105 1.342 . S
C1104 C1108 1.401 . S
C1104 C1109 1.499 . S
N1105 Co1088 1.989 . S
N1105 C1104 1.342 . S
N1105 N1106 1.388 . S
N1106 Co1089 1.993 . S
N1106 N1105 1.388 . S
N1106 C1107 1.346 . S
C1107 N1106 1.346 . S
C1107 C1108 1.396 . S
C1107 C1117 1.510 . S
C1108 C1104 1.401 . S
C1108 C1107 1.396 . S
C1109 C1104 1.499 . S
C1109 H1110 0.959 . S
C1109 H1111 0.960 1_565 S
C1109 H1112 0.961 . S
H1110 C1109 0.959 . S
H1111 C1109 0.960 1_545 S
H1112 C1109 0.961 . S
O1113 Co1088 1.967 . S
O1113 C1121 1.258 . S
O1114 Co1089 1.941 . S
O1114 C1121 1.266 . S
H1115 C1117 0.959 . S
H1116 C1117 0.961 . S
C1117 C1107 1.510 . S
C1117 H1115 0.959 . S
C1117 H1116 0.961 . S
C1117 H1118 0.960 . S
H1118 C1117 0.960 . S
H1119 N1099 0.862 . S
O1120 Co1088 1.920 . S
O1120 C1093 1.289 1_565 S
C1121 O1113 1.258 . S
C1121 O1114 1.266 . S
Co1122 O1125 1.970 . S
Co1122 N1139 1.989 . S
Co1122 O1147 1.967 . S
Co1122 O1154 1.920 . S
Co1123 O1126 1.966 . S
Co1123 N1132 2.022 . S
Co1123 N1140 1.993 . S
Co1123 O1148 1.941 . S
C1124 O1125 1.258 . S
C1124 O1126 1.263 . S
O1125 Co1122 1.970 . S
O1125 C1124 1.258 . S
O1126 Co1123 1.966 . S
O1126 C1124 1.263 . S
C1127 O1128 1.235 . S
C1127 O1154 1.289 . S
O1128 C1127 1.235 . S
C1129 C1131 1.400 . S
C1129 N1132 1.351 . S
C1129 C1134 1.501 . S
C1130 C1131 1.387 . S
C1130 N1133 1.341 . S
C1131 C1129 1.400 . S
C1131 C1130 1.387 . S
N1132 Co1123 2.022 . S
N1132 C1129 1.351 . S
N1132 N1133 1.365 . S
N1133 C1130 1.341 . S
N1133 N1132 1.365 . S
N1133 H1153 0.862 . S
C1134 C1129 1.501 . S
C1134 H1135 0.961 . S
C1134 H1136 0.961 . S
C1134 H1137 0.960 . S
H1135 C1134 0.961 . S
H1136 C1134 0.961 . S
H1137 C1134 0.960 . S
C1138 N1139 1.342 . S
C1138 C1142 1.401 . S
C1138 C1143 1.499 . S
N1139 Co1122 1.989 . S
N1139 C1138 1.342 . S
N1139 N1140 1.388 . S
N1140 Co1123 1.993 . S
N1140 N1139 1.388 . S
N1140 C1141 1.346 . S
C1141 N1140 1.346 . S
C1141 C1142 1.396 . S
C1141 C1151 1.510 . S
C1142 C1138 1.401 . S
C1142 C1141 1.396 . S
C1143 C1138 1.499 . S
C1143 H1144 0.959 . S
C1143 H1145 0.960 . S
C1143 H1146 0.961 . S
H1144 C1143 0.959 . S
H1145 C1143 0.960 . S
H1146 C1143 0.961 . S
O1147 Co1122 1.967 . S
O1147 C1155 1.258 . S
O1148 Co1123 1.941 . S
O1148 C1155 1.266 . S
H1149 C1151 0.959 . S
H1150 C1151 0.961 . S
C1151 C1141 1.510 . S
C1151 H1149 0.959 . S
C1151 H1150 0.961 . S
C1151 H1152 0.960 . S
H1152 C1151 0.960 . S
H1153 N1133 0.862 . S
O1154 Co1122 1.920 . S
O1154 C1127 1.289 . S
C1155 O1147 1.258 . S
C1155 O1148 1.266 . S
Co1156 O1159 1.970 . S
Co1156 N1173 1.989 . S
Co1156 O1181 1.967 . S
Co1156 O1188 1.920 . S
Co1157 O1160 1.966 . S
Co1157 N1166 2.022 . S
Co1157 N1174 1.993 . S
Co1157 O1182 1.941 . S
C1158 O1159 1.258 . S
C1158 O1160 1.263 . S
O1159 Co1156 1.970 . S
O1159 C1158 1.258 . S
O1160 Co1157 1.966 . S
O1160 C1158 1.263 . S
C1161 O1162 1.235 . S
C1161 O1188 1.289 . S
O1162 C1161 1.235 . S
C1163 C1165 1.400 . S
C1163 N1166 1.351 . S
C1163 C1168 1.501 . S
C1164 C1165 1.387 . S
C1164 N1167 1.341 . S
C1165 C1163 1.400 . S
C1165 C1164 1.387 . S
N1166 Co1157 2.022 . S
N1166 C1163 1.351 . S
N1166 N1167 1.365 . S
N1167 C1164 1.341 . S
N1167 N1166 1.365 . S
N1167 H1187 0.862 . S
C1168 C1163 1.501 . S
C1168 H1169 0.961 . S
C1168 H1170 0.961 . S
C1168 H1171 0.960 . S
H1169 C1168 0.961 . S
H1170 C1168 0.961 . S
H1171 C1168 0.960 . S
C1172 N1173 1.342 . S
C1172 C1176 1.401 . S
C1172 C1177 1.499 . S
N1173 Co1156 1.989 . S
N1173 C1172 1.342 . S
N1173 N1174 1.388 . S
N1174 Co1157 1.993 . S
N1174 N1173 1.388 . S
N1174 C1175 1.346 . S
C1175 N1174 1.346 . S
C1175 C1176 1.396 . S
C1175 C1185 1.510 . S
C1176 C1172 1.401 . S
C1176 C1175 1.396 . S
C1177 C1172 1.499 . S
C1177 H1178 0.959 . S
C1177 H1179 0.960 . S
C1177 H1180 0.961 . S
H1178 C1177 0.959 . S
H1179 C1177 0.960 . S
H1180 C1177 0.961 . S
O1181 Co1156 1.967 . S
O1181 C1189 1.258 . S
O1182 Co1157 1.941 . S
O1182 C1189 1.266 . S
H1183 C1185 0.959 . S
H1184 C1185 0.961 . S
C1185 C1175 1.510 . S
C1185 H1183 0.959 . S
C1185 H1184 0.961 . S
C1185 H1186 0.960 . S
H1186 C1185 0.960 . S
H1187 N1167 0.862 . S
O1188 Co1156 1.920 . S
O1188 C1161 1.289 . S
C1189 O1181 1.258 . S
C1189 O1182 1.266 . S
Co1190 O1193 1.970 . S
Co1190 N1207 1.989 . S
Co1190 O1215 1.967 . S
Co1190 O1222 1.920 . S
Co1191 O1194 1.966 . S
Co1191 N1200 2.022 . S
Co1191 N1208 1.993 . S
Co1191 O1216 1.941 . S
C1192 O1193 1.258 . S
C1192 O1194 1.263 . S
O1193 Co1190 1.970 . S
O1193 C1192 1.258 . S
O1194 Co1191 1.966 . S
O1194 C1192 1.263 . S
C1195 O1196 1.235 . S
C1195 O1222 1.289 . S
O1196 C1195 1.235 . S
C1197 C1199 1.400 . S
C1197 N1200 1.351 . S
C1197 C1202 1.501 . S
C1198 C1199 1.387 . S
C1198 N1201 1.341 . S
C1199 C1197 1.400 . S
C1199 C1198 1.387 . S
N1200 Co1191 2.022 . S
N1200 C1197 1.351 . S
N1200 N1201 1.365 . S
N1201 C1198 1.341 . S
N1201 N1200 1.365 . S
N1201 H1221 0.862 . S
C1202 C1197 1.501 . S
C1202 H1203 0.961 . S
C1202 H1204 0.961 . S
C1202 H1205 0.960 . S
H1203 C1202 0.961 . S
H1204 C1202 0.961 . S
H1205 C1202 0.960 . S
C1206 N1207 1.342 . S
C1206 C1210 1.401 . S
C1206 C1211 1.499 . S
N1207 Co1190 1.989 . S
N1207 C1206 1.342 . S
N1207 N1208 1.388 . S
N1208 Co1191 1.993 . S
N1208 N1207 1.388 . S
N1208 C1209 1.346 . S
C1209 N1208 1.346 . S
C1209 C1210 1.396 . S
C1209 C1219 1.510 . S
C1210 C1206 1.401 . S
C1210 C1209 1.396 . S
C1211 C1206 1.499 . S
C1211 H1212 0.959 . S
C1211 H1213 0.960 . S
C1211 H1214 0.961 . S
H1212 C1211 0.959 . S
H1213 C1211 0.960 . S
H1214 C1211 0.961 . S
O1215 Co1190 1.967 . S
O1215 C1223 1.258 . S
O1216 Co1191 1.941 . S
O1216 C1223 1.266 . S
H1217 C1219 0.959 . S
H1218 C1219 0.961 . S
C1219 C1209 1.510 . S
C1219 H1217 0.959 . S
C1219 H1218 0.961 . S
C1219 H1220 0.960 . S
H1220 C1219 0.960 . S
H1221 N1201 0.862 . S
O1222 Co1190 1.920 . S
O1222 C1195 1.289 . S
C1223 O1215 1.258 . S
C1223 O1216 1.266 . S
C1224 C1225 1.387 . S
C1224 H1228 0.950 . S
C1224 C1233 1.390 . S
C1225 C1224 1.387 . S
C1225 C1227 1.387 . S
H1226 C1233 0.950 . S
C1227 C1225 1.387 . S
C1227 C1229 1.390 . S
C1227 H1231 0.950 . S
H1228 C1224 0.950 . S
C1229 C1227 1.390 . S
C1229 C1230 1.387 . S
C1229 H1232 0.950 . S
C1230 C1229 1.387 . S
C1230 C1233 1.387 . S
H1231 C1227 0.950 . S
H1232 C1229 0.950 . S
C1233 C1224 1.390 . S
C1233 H1226 0.950 . S
C1233 C1230 1.387 . S
C1234 C1235 1.387 . S
C1234 H1238 0.950 . S
C1234 C1243 1.390 . S
C1235 C1234 1.387 . S
C1235 C1237 1.387 . S
H1236 C1243 0.950 . S
C1237 C1235 1.387 . S
C1237 C1239 1.390 . S
C1237 H1241 0.950 . S
H1238 C1234 0.950 . S
C1239 C1237 1.390 . S
C1239 C1240 1.387 . S
C1239 H1242 0.950 . S
C1240 C1239 1.387 . S
C1240 C1243 1.387 . S
H1241 C1237 0.950 . S
H1242 C1239 0.950 . S
C1243 C1234 1.390 . S
C1243 H1236 0.950 . S
C1243 C1240 1.387 . S
C1244 C1245 1.387 . S
C1244 H1248 0.950 . S
C1244 C1253 1.390 . S
C1245 C1244 1.387 . S
C1245 C1247 1.387 . S
H1246 C1253 0.950 . S
C1247 C1245 1.387 . S
C1247 C1249 1.390 . S
C1247 H1251 0.950 . S
H1248 C1244 0.950 . S
C1249 C1247 1.390 . S
C1249 C1250 1.387 . S
C1249 H1252 0.950 . S
C1250 C1249 1.387 . S
C1250 C1253 1.387 . S
H1251 C1247 0.950 . S
H1252 C1249 0.950 . S
C1253 C1244 1.390 . S
C1253 H1246 0.950 . S
C1253 C1250 1.387 . S
C1254 C1255 1.387 . S
C1254 H1258 0.950 . S
C1254 C1263 1.390 . S
C1255 C1254 1.387 . S
C1255 C1257 1.387 . S
H1256 C1263 0.950 . S
C1257 C1255 1.387 . S
C1257 C1259 1.390 . S
C1257 H1261 0.950 . S
H1258 C1254 0.950 . S
C1259 C1257 1.390 . S
C1259 C1260 1.387 . S
C1259 H1262 0.950 . S
C1260 C1259 1.387 . S
C1260 C1263 1.387 . S
H1261 C1257 0.950 . S
H1262 C1259 0.950 . S
C1263 C1254 1.390 . S
C1263 H1256 0.950 . S
C1263 C1260 1.387 . S
C1264 C1265 1.387 . S
C1264 H1268 0.950 . S
C1264 C1273 1.390 . S
C1265 C1264 1.387 . S
C1265 C1267 1.387 . S
H1266 C1273 0.950 . S
C1267 C1265 1.387 . S
C1267 C1269 1.390 . S
C1267 H1271 0.950 . S
H1268 C1264 0.950 . S
C1269 C1267 1.390 . S
C1269 C1270 1.387 . S
C1269 H1272 0.950 . S
C1270 C1269 1.387 . S
C1270 C1273 1.387 . S
H1271 C1267 0.950 . S
H1272 C1269 0.950 . S
C1273 C1264 1.390 . S
C1273 H1266 0.950 . S
C1273 C1270 1.387 . S
C1274 C1275 1.387 . S
C1274 H1278 0.950 . S
C1274 C1283 1.390 . S
C1275 C1274 1.387 . S
C1275 C1277 1.387 . S
H1276 C1283 0.950 . S
C1277 C1275 1.387 . S
C1277 C1279 1.390 . S
C1277 H1281 0.950 . S
H1278 C1274 0.950 . S
C1279 C1277 1.390 . S
C1279 C1280 1.387 . S
C1279 H1282 0.950 . S
C1280 C1279 1.387 . S
C1280 C1283 1.387 . S
H1281 C1277 0.950 . S
H1282 C1279 0.950 . S
C1283 C1274 1.390 . S
C1283 H1276 0.950 . S
C1283 C1280 1.387 . S
C1284 C1285 1.387 . S
C1284 H1288 0.950 . S
C1284 C1293 1.390 . S
C1285 C1284 1.387 . S
C1285 C1287 1.387 . S
H1286 C1293 0.950 . S
C1287 C1285 1.387 . S
C1287 C1289 1.390 . S
C1287 H1291 0.950 . S
H1288 C1284 0.950 . S
C1289 C1287 1.390 . S
C1289 C1290 1.387 . S
C1289 H1292 0.950 . S
C1290 C1289 1.387 . S
C1290 C1293 1.387 . S
H1291 C1287 0.950 . S
H1292 C1289 0.950 . S
C1293 C1284 1.390 . S
C1293 H1286 0.950 . S
C1293 C1290 1.387 . S
C1294 C1295 1.387 . S
C1294 H1298 0.950 . S
C1294 C1303 1.390 . S
C1295 C1294 1.387 . S
C1295 C1297 1.387 . S
H1296 C1303 0.950 . S
C1297 C1295 1.387 . S
C1297 C1299 1.390 . S
C1297 H1301 0.950 . S
H1298 C1294 0.950 . S
C1299 C1297 1.390 . S
C1299 C1300 1.387 . S
C1299 H1302 0.950 . S
C1300 C1299 1.387 . S
C1300 C1303 1.387 . S
H1301 C1297 0.950 . S
H1302 C1299 0.950 . S
C1303 C1294 1.390 . S
C1303 H1296 0.950 . S
C1303 C1300 1.387 . S
C1304 C1305 1.387 . S
C1304 H1308 0.950 . S
C1304 C1313 1.390 . S
C1305 C1304 1.387 . S
C1305 C1307 1.387 . S
H1306 C1313 0.950 . S
C1307 C1305 1.387 . S
C1307 C1309 1.390 . S
C1307 H1311 0.950 . S
H1308 C1304 0.950 . S
C1309 C1307 1.390 . S
C1309 C1310 1.387 . S
C1309 H1312 0.950 . S
C1310 C1309 1.387 . S
C1310 C1313 1.387 . S
H1311 C1307 0.950 . S
H1312 C1309 0.950 . S
C1313 C1304 1.390 . S
C1313 H1306 0.950 . S
C1313 C1310 1.387 . S
C1314 C1315 1.387 . S
C1314 H1318 0.950 . S
C1314 C1323 1.390 . S
C1315 C1314 1.387 . S
C1315 C1317 1.387 . S
H1316 C1323 0.950 . S
C1317 C1315 1.387 . S
C1317 C1319 1.390 . S
C1317 H1321 0.950 . S
H1318 C1314 0.950 . S
C1319 C1317 1.390 . S
C1319 C1320 1.387 . S
C1319 H1322 0.950 . S
C1320 C1319 1.387 . S
C1320 C1323 1.387 . S
H1321 C1317 0.950 . S
H1322 C1319 0.950 . S
C1323 C1314 1.390 . S
C1323 H1316 0.950 . S
C1323 C1320 1.387 . S
C1324 C1325 1.387 . S
C1324 H1328 0.950 . S
C1324 C1333 1.390 . S
C1325 C1324 1.387 . S
C1325 C1327 1.387 . S
H1326 C1333 0.950 . S
C1327 C1325 1.387 . S
C1327 C1329 1.390 . S
C1327 H1331 0.950 . S
H1328 C1324 0.950 . S
C1329 C1327 1.390 . S
C1329 C1330 1.387 . S
C1329 H1332 0.950 . S
C1330 C1329 1.387 . S
C1330 C1333 1.387 . S
H1331 C1327 0.950 . S
H1332 C1329 0.950 . S
C1333 C1324 1.390 . S
C1333 H1326 0.950 . S
C1333 C1330 1.387 . S
C1334 C1335 1.387 . S
C1334 H1338 0.950 . S
C1334 C1343 1.390 . S
C1335 C1334 1.387 . S
C1335 C1337 1.387 . S
H1336 C1343 0.950 . S
C1337 C1335 1.387 . S
C1337 C1339 1.390 . S
C1337 H1341 0.950 . S
H1338 C1334 0.950 . S
C1339 C1337 1.390 . S
C1339 C1340 1.387 . S
C1339 H1342 0.950 . S
C1340 C1339 1.387 . S
C1340 C1343 1.387 . S
H1341 C1337 0.950 . S
H1342 C1339 0.950 . S
C1343 C1334 1.390 . S
C1343 H1336 0.950 . S
C1343 C1340 1.387 . S
C1344 C1345 1.387 . S
C1344 H1348 0.950 . S
C1344 C1353 1.390 1_655 S
C1345 C1344 1.387 . S
C1345 C1347 1.387 . S
H1346 C1353 0.950 . S
C1347 C1345 1.387 . S
C1347 C1349 1.390 1_655 S
C1347 H1351 0.950 . S
H1348 C1344 0.950 . S
C1349 C1347 1.390 1_455 S
C1349 C1350 1.387 . S
C1349 H1352 0.950 . S
C1350 C1349 1.387 . S
C1350 C1353 1.387 . S
H1351 C1347 0.950 . S
H1352 C1349 0.950 . S
C1353 C1344 1.390 1_455 S
C1353 H1346 0.950 . S
C1353 C1350 1.387 . S
C1354 C1355 1.387 . S
C1354 H1358 0.950 . S
C1354 C1363 1.390 . S
C1355 C1354 1.387 . S
C1355 C1357 1.387 . S
H1356 C1363 0.950 . S
C1357 C1355 1.387 . S
C1357 C1359 1.390 . S
C1357 H1361 0.950 . S
H1358 C1354 0.950 . S
C1359 C1357 1.390 . S
C1359 C1360 1.387 . S
C1359 H1362 0.950 . S
C1360 C1359 1.387 . S
C1360 C1363 1.387 . S
H1361 C1357 0.950 . S
H1362 C1359 0.950 . S
C1363 C1354 1.390 . S
C1363 H1356 0.950 . S
C1363 C1360 1.387 . S
C1364 C1365 1.387 . S
C1364 H1368 0.950 . S
C1364 C1373 1.390 1_565 S
C1365 C1364 1.387 . S
C1365 C1367 1.387 . S
H1366 C1373 0.950 . S
C1367 C1365 1.387 . S
C1367 C1369 1.390 1_565 S
C1367 H1371 0.950 . S
H1368 C1364 0.950 . S
C1369 C1367 1.390 1_545 S
C1369 C1370 1.387 . S
C1369 H1372 0.950 . S
C1370 C1369 1.387 . S
C1370 C1373 1.387 . S
H1371 C1367 0.950 . S
H1372 C1369 0.950 . S
C1373 C1364 1.390 1_545 S
C1373 H1366 0.950 . S
C1373 C1370 1.387 . S
C1374 C1375 1.387 . S
C1374 H1378 0.950 . S
C1374 C1383 1.390 1_565 S
C1375 C1374 1.387 . S
C1375 C1377 1.387 . S
H1376 C1383 0.950 . S
C1377 C1375 1.387 . S
C1377 C1379 1.390 1_565 S
C1377 H1381 0.950 . S
H1378 C1374 0.950 . S
C1379 C1377 1.390 1_545 S
C1379 C1380 1.387 . S
C1379 H1382 0.950 . S
C1380 C1379 1.387 . S
C1380 C1383 1.387 . S
H1381 C1377 0.950 . S
H1382 C1379 0.950 . S
C1383 C1374 1.390 1_545 S
C1383 H1376 0.950 . S
C1383 C1380 1.387 . S
C1384 C1385 1.387 . S
C1384 H1388 0.950 . S
C1384 C1393 1.390 . S
C1385 C1384 1.387 . S
C1385 C1387 1.387 1_455 S
H1386 C1393 0.950 . S
C1387 C1385 1.387 1_655 S
C1387 C1389 1.390 . S
C1387 H1391 0.950 . S
H1388 C1384 0.950 . S
C1389 C1387 1.390 . S
C1389 C1390 1.387 . S
C1389 H1392 0.950 . S
C1390 C1389 1.387 . S
C1390 C1393 1.387 1_655 S
H1391 C1387 0.950 . S
H1392 C1389 0.950 . S
C1393 C1384 1.390 . S
C1393 H1386 0.950 . S
C1393 C1390 1.387 1_455 S
C1394 C1395 1.387 . S
C1394 H1398 0.950 . S
C1394 C1403 1.390 . S
C1395 C1394 1.387 . S
C1395 C1397 1.387 . S
H1396 C1403 0.950 . S
C1397 C1395 1.387 . S
C1397 C1399 1.390 . S
C1397 H1401 0.950 . S
H1398 C1394 0.950 . S
C1399 C1397 1.390 . S
C1399 C1400 1.387 . S
C1399 H1402 0.950 . S
C1400 C1399 1.387 . S
C1400 C1403 1.387 . S
H1401 C1397 0.950 . S
H1402 C1399 0.950 . S
C1403 C1394 1.390 . S
C1403 H1396 0.950 . S
C1403 C1400 1.387 . S
C1404 C1405 1.387 . S
C1404 H1408 0.950 . S
C1404 C1413 1.390 . S
C1405 C1404 1.387 . S
C1405 C1407 1.387 . S
H1406 C1413 0.950 . S
C1407 C1405 1.387 . S
C1407 C1409 1.390 . S
C1407 H1411 0.950 . S
H1408 C1404 0.950 . S
C1409 C1407 1.390 . S
C1409 C1410 1.387 . S
C1409 H1412 0.950 . S
C1410 C1409 1.387 . S
C1410 C1413 1.387 . S
H1411 C1407 0.950 . S
H1412 C1409 0.950 . S
C1413 C1404 1.390 . S
C1413 H1406 0.950 . S
C1413 C1410 1.387 . S
C1414 C1415 1.387 . S
C1414 H1418 0.950 . S
C1414 C1423 1.390 . S
C1415 C1414 1.387 . S
C1415 C1417 1.387 . S
H1416 C1423 0.950 . S
C1417 C1415 1.387 . S
C1417 C1419 1.390 . S
C1417 H1421 0.950 . S
H1418 C1414 0.950 . S
C1419 C1417 1.390 . S
C1419 C1420 1.387 . S
C1419 H1422 0.950 1_545 S
C1420 C1419 1.387 . S
C1420 C1423 1.387 . S
H1421 C1417 0.950 . S
H1422 C1419 0.950 1_565 S
C1423 C1414 1.390 . S
C1423 H1416 0.950 . S
C1423 C1420 1.387 . S
C1424 C1425 1.387 . S
C1424 H1428 0.950 . S
C1424 C1433 1.390 . S
C1425 C1424 1.387 . S
C1425 C1427 1.387 . S
H1426 C1433 0.950 . S
C1427 C1425 1.387 . S
C1427 C1429 1.390 . S
C1427 H1431 0.950 . S
H1428 C1424 0.950 . S
C1429 C1427 1.390 . S
C1429 C1430 1.387 . S
C1429 H1432 0.950 . S
C1430 C1429 1.387 . S
C1430 C1433 1.387 . S
H1431 C1427 0.950 . S
H1432 C1429 0.950 . S
C1433 C1424 1.390 . S
C1433 H1426 0.950 . S
C1433 C1430 1.387 . S
C1434 C1435 1.387 . S
C1434 H1438 0.950 . S
C1434 C1443 1.390 . S
C1435 C1434 1.387 . S
C1435 C1437 1.387 . S
H1436 C1443 0.950 . S
C1437 C1435 1.387 . S
C1437 C1439 1.390 . S
C1437 H1441 0.950 . S
H1438 C1434 0.950 . S
C1439 C1437 1.390 . S
C1439 C1440 1.387 . S
C1439 H1442 0.950 . S
C1440 C1439 1.387 . S
C1440 C1443 1.387 . S
H1441 C1437 0.950 . S
H1442 C1439 0.950 . S
C1443 C1434 1.390 . S
C1443 H1436 0.950 . S
C1443 C1440 1.387 . S
C1444 C1445 1.387 . S
C1444 H1448 0.950 . S
C1444 C1453 1.390 . S
C1445 C1444 1.387 . S
C1445 C1447 1.387 . S
H1446 C1453 0.950 . S
C1447 C1445 1.387 . S
C1447 C1449 1.390 . S
C1447 H1451 0.950 . S
H1448 C1444 0.950 . S
C1449 C1447 1.390 . S
C1449 C1450 1.387 . S
C1449 H1452 0.950 1_565 S
C1450 C1449 1.387 . S
C1450 C1453 1.387 . S
H1451 C1447 0.950 . S
H1452 C1449 0.950 1_545 S
C1453 C1444 1.390 . S
C1453 H1446 0.950 . S
C1453 C1450 1.387 . S
C1454 C1455 1.387 . S
C1454 H1458 0.950 . S
C1454 C1463 1.390 . S
C1455 C1454 1.387 . S
C1455 C1457 1.387 . S
H1456 C1463 0.950 . S
C1457 C1455 1.387 . S
C1457 C1459 1.390 . S
C1457 H1461 0.950 1_455 S
H1458 C1454 0.950 . S
C1459 C1457 1.390 . S
C1459 C1460 1.387 . S
C1459 H1462 0.950 . S
C1460 C1459 1.387 . S
C1460 C1463 1.387 . S
H1461 C1457 0.950 1_655 S
H1462 C1459 0.950 . S
C1463 C1454 1.390 . S
C1463 H1456 0.950 . S
C1463 C1460 1.387 . S
C1464 C1465 1.387 . S
C1464 H1468 0.950 . S
C1464 C1473 1.390 . S
C1465 C1464 1.387 . S
C1465 C1467 1.387 . S
H1466 C1473 0.950 . S
C1467 C1465 1.387 . S
C1467 C1469 1.390 . S
C1467 H1471 0.950 . S
H1468 C1464 0.950 . S
C1469 C1467 1.390 . S
C1469 C1470 1.387 . S
C1469 H1472 0.950 . S
C1470 C1469 1.387 . S
C1470 C1473 1.387 . S
H1471 C1467 0.950 . S
H1472 C1469 0.950 . S
C1473 C1464 1.390 . S
C1473 H1466 0.950 . S
C1473 C1470 1.387 . S
C1474 C1475 1.387 . S
C1474 H1478 0.950 . S
C1474 C1483 1.390 . S
C1475 C1474 1.387 . S
C1475 C1477 1.387 . S
H1476 C1483 0.950 . S
C1477 C1475 1.387 . S
C1477 C1479 1.390 . S
C1477 H1481 0.950 . S
H1478 C1474 0.950 . S
C1479 C1477 1.390 . S
C1479 C1480 1.387 . S
C1479 H1482 0.950 . S
C1480 C1479 1.387 . S
C1480 C1483 1.387 . S
H1481 C1477 0.950 . S
H1482 C1479 0.950 . S
C1483 C1474 1.390 . S
C1483 H1476 0.950 . S
C1483 C1480 1.387 . S
C1484 C1485 1.387 . S
C1484 H1488 0.950 . S
C1484 C1493 1.390 . S
C1485 C1484 1.387 . S
C1485 C1487 1.387 . S
H1486 C1493 0.950 . S
C1487 C1485 1.387 . S
C1487 C1489 1.390 . S
C1487 H1491 0.950 . S
H1488 C1484 0.950 . S
C1489 C1487 1.390 . S
C1489 C1490 1.387 . S
C1489 H1492 0.950 . S
C1490 C1489 1.387 . S
C1490 C1493 1.387 . S
H1491 C1487 0.950 . S
H1492 C1489 0.950 . S
C1493 C1484 1.390 . S
C1493 H1486 0.950 . S
C1493 C1490 1.387 . S
C1494 C1495 1.387 . S
C1494 H1498 0.950 . S
C1494 C1503 1.390 . S
C1495 C1494 1.387 . S
C1495 C1497 1.387 . S
H1496 C1503 0.950 . S
C1497 C1495 1.387 . S
C1497 C1499 1.390 . S
C1497 H1501 0.950 . S
H1498 C1494 0.950 . S
C1499 C1497 1.390 . S
C1499 C1500 1.387 . S
C1499 H1502 0.950 . S
C1500 C1499 1.387 . S
C1500 C1503 1.387 . S
H1501 C1497 0.950 . S
H1502 C1499 0.950 . S
C1503 C1494 1.390 . S
C1503 H1496 0.950 . S
C1503 C1500 1.387 . S
C1504 C1505 1.387 . S
C1504 H1508 0.950 . S
C1504 C1513 1.390 . S
C1505 C1504 1.387 . S
C1505 C1507 1.387 . S
H1506 C1513 0.950 . S
C1507 C1505 1.387 . S
C1507 C1509 1.390 . S
C1507 H1511 0.950 . S
H1508 C1504 0.950 . S
C1509 C1507 1.390 . S
C1509 C1510 1.387 . S
C1509 H1512 0.950 . S
C1510 C1509 1.387 . S
C1510 C1513 1.387 . S
H1511 C1507 0.950 . S
H1512 C1509 0.950 . S
C1513 C1504 1.390 . S
C1513 H1506 0.950 . S
C1513 C1510 1.387 . S
C1514 C1515 1.387 . S
C1514 H1518 0.950 . S
C1514 C1523 1.390 . S
C1515 C1514 1.387 . S
C1515 C1517 1.387 . S
H1516 C1523 0.950 . S
C1517 C1515 1.387 . S
C1517 C1519 1.390 . S
C1517 H1521 0.950 1_655 S
H1518 C1514 0.950 . S
C1519 C1517 1.390 . S
C1519 C1520 1.387 . S
C1519 H1522 0.950 . S
C1520 C1519 1.387 . S
C1520 C1523 1.387 . S
H1521 C1517 0.950 1_455 S
H1522 C1519 0.950 . S
C1523 C1514 1.390 . S
C1523 H1516 0.950 . S
C1523 C1520 1.387 . S
C1524 C1525 1.416 . S
C1524 H1528 0.952 . S
C1524 C1533 1.360 1_655 S
C1525 C1524 1.416 . S
C1525 C1527 1.387 . S
H1526 C1533 0.950 . S
C1527 C1525 1.387 . S
C1527 C1529 1.360 1_655 S
C1527 H1531 0.950 . S
H1528 C1524 0.952 . S
C1529 C1527 1.360 1_455 S
C1529 C1530 1.416 . S
C1529 H1532 0.952 . S
C1530 C1529 1.416 . S
C1530 C1533 1.387 . S
H1531 C1527 0.950 . S
H1532 C1529 0.952 . S
C1533 C1524 1.360 1_455 S
C1533 H1526 0.950 . S
C1533 C1530 1.387 . S
C1534 C1535 1.387 . S
C1534 H1538 0.950 . S
C1534 C1543 1.390 . S
C1535 C1534 1.387 . S
C1535 C1537 1.387 . S
H1536 C1543 0.950 . S
C1537 C1535 1.387 . S
C1537 C1539 1.390 . S
C1537 H1541 0.950 . S
H1538 C1534 0.950 . S
C1539 C1537 1.390 . S
C1539 C1540 1.387 . S
C1539 H1542 0.950 . S
C1540 C1539 1.387 . S
C1540 C1543 1.387 . S
H1541 C1537 0.950 . S
H1542 C1539 0.950 . S
C1543 C1534 1.390 . S
C1543 H1536 0.950 . S
C1543 C1540 1.387 . S
C1544 C1545 1.387 . S
C1544 H1548 0.950 . S
C1544 C1553 1.390 1_545 S
C1545 C1544 1.387 . S
C1545 C1547 1.387 . S
H1546 C1553 0.950 . S
C1547 C1545 1.387 . S
C1547 C1549 1.390 1_545 S
C1547 H1551 0.950 . S
H1548 C1544 0.950 . S
C1549 C1547 1.390 1_565 S
C1549 C1550 1.387 . S
C1549 H1552 0.950 . S
C1550 C1549 1.387 . S
C1550 C1553 1.387 . S
H1551 C1547 0.950 . S
H1552 C1549 0.950 . S
C1553 C1544 1.390 1_565 S
C1553 H1546 0.950 . S
C1553 C1550 1.387 . S
C1554 C1555 1.387 . S
C1554 H1558 0.950 . S
C1554 C1563 1.390 1_545 S
C1555 C1554 1.387 . S
C1555 C1557 1.387 . S
H1556 C1563 0.950 . S
C1557 C1555 1.387 . S
C1557 C1559 1.390 1_545 S
C1557 H1561 0.950 . S
H1558 C1554 0.950 . S
C1559 C1557 1.390 1_565 S
C1559 C1560 1.387 . S
C1559 H1562 0.950 . S
C1560 C1559 1.387 . S
C1560 C1563 1.387 . S
H1561 C1557 0.950 . S
H1562 C1559 0.950 . S
C1563 C1554 1.390 1_565 S
C1563 H1556 0.950 . S
C1563 C1560 1.387 . S
C1564 C1565 1.387 . S
C1564 H1568 0.950 . S
C1564 C1573 1.390 1_455 S
C1565 C1564 1.387 . S
C1565 C1567 1.387 . S
H1566 C1573 0.950 . S
C1567 C1565 1.387 . S
C1567 C1569 1.390 1_455 S
C1567 H1571 0.950 . S
H1568 C1564 0.950 . S
C1569 C1567 1.390 1_655 S
C1569 C1570 1.387 . S
C1569 H1572 0.950 . S
C1570 C1569 1.387 . S
C1570 C1573 1.387 . S
H1571 C1567 0.950 . S
H1572 C1569 0.950 . S
C1573 C1564 1.390 1_655 S
C1573 H1566 0.950 . S
C1573 C1570 1.387 . S
C1574 C1575 1.387 . S
C1574 H1578 0.950 . S
C1574 C1583 1.390 . S
C1575 C1574 1.387 . S
C1575 C1577 1.387 . S
H1576 C1583 0.950 . S
C1577 C1575 1.387 . S
C1577 C1579 1.390 . S
C1577 H1581 0.950 . S
H1578 C1574 0.950 . S
C1579 C1577 1.390 . S
C1579 C1580 1.387 . S
C1579 H1582 0.950 . S
C1580 C1579 1.387 . S
C1580 C1583 1.387 . S
H1581 C1577 0.950 . S
H1582 C1579 0.950 . S
C1583 C1574 1.390 . S
C1583 H1576 0.950 . S
C1583 C1580 1.387 . S
C1584 C1585 1.387 . S
C1584 H1588 0.950 . S
C1584 C1593 1.390 . S
C1585 C1584 1.387 . S
C1585 C1587 1.387 . S
H1586 C1593 0.950 . S
C1587 C1585 1.387 . S
C1587 C1589 1.390 . S
C1587 H1591 0.950 . S
H1588 C1584 0.950 . S
C1589 C1587 1.390 . S
C1589 C1590 1.387 . S
C1589 H1592 0.950 . S
C1590 C1589 1.387 . S
C1590 C1593 1.387 . S
H1591 C1587 0.950 . S
H1592 C1589 0.950 . S
C1593 C1584 1.390 . S
C1593 H1586 0.950 . S
C1593 C1590 1.387 . S
C1594 C1595 1.387 . S
C1594 H1598 0.950 . S
C1594 C1603 1.390 . S
C1595 C1594 1.387 . S
C1595 C1597 1.387 . S
H1596 C1603 0.950 . S
C1597 C1595 1.387 . S
C1597 C1599 1.390 . S
C1597 H1601 0.950 . S
H1598 C1594 0.950 . S
C1599 C1597 1.390 . S
C1599 C1600 1.387 . S
C1599 H1602 0.950 . S
C1600 C1599 1.387 . S
C1600 C1603 1.387 . S
H1601 C1597 0.950 . S
H1602 C1599 0.950 . S
C1603 C1594 1.390 . S
C1603 H1596 0.950 . S
C1603 C1600 1.387 . S
C1604 C1605 1.387 . S
C1604 H1608 0.950 . S
C1604 C1613 1.390 . S
C1605 C1604 1.387 . S
C1605 C1607 1.387 . S
H1606 C1613 0.950 . S
C1607 C1605 1.387 . S
C1607 C1609 1.390 . S
C1607 H1611 0.950 . S
H1608 C1604 0.950 . S
C1609 C1607 1.390 . S
C1609 C1610 1.387 . S
C1609 H1612 0.950 . S
C1610 C1609 1.387 . S
C1610 C1613 1.387 . S
H1611 C1607 0.950 . S
H1612 C1609 0.950 . S
C1613 C1604 1.390 . S
C1613 H1606 0.950 . S
C1613 C1610 1.387 . S
C1614 C1615 1.387 . S
C1614 H1618 0.950 . S
C1614 C1623 1.390 . S
C1615 C1614 1.387 . S
C1615 C1617 1.387 . S
H1616 C1623 0.950 . S
C1617 C1615 1.387 . S
C1617 C1619 1.390 . S
C1617 H1621 0.950 . S
H1618 C1614 0.950 . S
C1619 C1617 1.390 . S
C1619 C1620 1.387 . S
C1619 H1622 0.950 . S
C1620 C1619 1.387 . S
C1620 C1623 1.387 . S
H1621 C1617 0.950 . S
H1622 C1619 0.950 . S
C1623 C1614 1.390 . S
C1623 H1616 0.950 . S
C1623 C1620 1.387 . S
C1624 C1625 1.387 . S
C1624 H1628 0.950 . S
C1624 C1633 1.390 . S
C1625 C1624 1.387 . S
C1625 C1627 1.387 . S
H1626 C1633 0.950 . S
C1627 C1625 1.387 . S
C1627 C1629 1.390 . S
C1627 H1631 0.950 . S
H1628 C1624 0.950 . S
C1629 C1627 1.390 . S
C1629 C1630 1.387 . S
C1629 H1632 0.950 . S
C1630 C1629 1.387 . S
C1630 C1633 1.387 . S
H1631 C1627 0.950 . S
H1632 C1629 0.950 . S
C1633 C1624 1.390 . S
C1633 H1626 0.950 . S
C1633 C1630 1.387 . S
C1634 C1635 1.387 . S
C1634 H1638 0.950 . S
C1634 C1643 1.390 . S
C1635 C1634 1.387 . S
C1635 C1637 1.387 . S
H1636 C1643 0.950 . S
C1637 C1635 1.387 . S
C1637 C1639 1.390 . S
C1637 H1641 0.950 . S
H1638 C1634 0.950 . S
C1639 C1637 1.390 . S
C1639 C1640 1.387 . S
C1639 H1642 0.950 . S
C1640 C1639 1.387 . S
C1640 C1643 1.387 . S
H1641 C1637 0.950 . S
H1642 C1639 0.950 . S
C1643 C1634 1.390 . S
C1643 H1636 0.950 . S
C1643 C1640 1.387 . S
C1644 C1645 1.387 . S
C1644 H1648 0.950 . S
C1644 C1653 1.390 . S
C1645 C1644 1.387 . S
C1645 C1647 1.387 . S
H1646 C1653 0.950 . S
C1647 C1645 1.387 . S
C1647 C1649 1.390 . S
C1647 H1651 0.950 . S
H1648 C1644 0.950 . S
C1649 C1647 1.390 . S
C1649 C1650 1.387 . S
C1649 H1652 0.950 . S
C1650 C1649 1.387 . S
C1650 C1653 1.387 . S
H1651 C1647 0.950 . S
H1652 C1649 0.950 . S
C1653 C1644 1.390 . S
C1653 H1646 0.950 . S
C1653 C1650 1.387 . S
C1654 C1655 1.387 . S
C1654 H1658 0.950 . S
C1654 C1663 1.390 . S
C1655 C1654 1.387 . S
C1655 C1657 1.387 . S
H1656 C1663 0.950 . S
C1657 C1655 1.387 . S
C1657 C1659 1.390 . S
C1657 H1661 0.950 . S
H1658 C1654 0.950 . S
C1659 C1657 1.390 . S
C1659 C1660 1.387 . S
C1659 H1662 0.950 . S
C1660 C1659 1.387 . S
C1660 C1663 1.387 . S
H1661 C1657 0.950 . S
H1662 C1659 0.950 . S
C1663 C1654 1.390 . S
C1663 H1656 0.950 . S
C1663 C1660 1.387 . S
C1664 C1665 1.387 . S
C1664 H1668 0.950 . S
C1664 C1673 1.390 . S
C1665 C1664 1.387 . S
C1665 C1667 1.387 . S
H1666 C1673 0.950 . S
C1667 C1665 1.387 . S
C1667 C1669 1.390 . S
C1667 H1671 0.950 . S
H1668 C1664 0.950 . S
C1669 C1667 1.390 . S
C1669 C1670 1.387 . S
C1669 H1672 0.950 . S
C1670 C1669 1.387 . S
C1670 C1673 1.387 . S
H1671 C1667 0.950 . S
H1672 C1669 0.950 . S
C1673 C1664 1.390 . S
C1673 H1666 0.950 . S
C1673 C1670 1.387 . S
C1674 C1675 1.387 . S
C1674 H1678 0.950 . S
C1674 C1683 1.390 . S
C1675 C1674 1.387 . S
C1675 C1677 1.387 . S
H1676 C1683 0.950 . S
C1677 C1675 1.387 . S
C1677 C1679 1.390 . S
C1677 H1681 0.950 . S
H1678 C1674 0.950 . S
C1679 C1677 1.390 . S
C1679 C1680 1.387 . S
C1679 H1682 0.950 . S
C1680 C1679 1.387 . S
C1680 C1683 1.387 . S
H1681 C1677 0.950 . S
H1682 C1679 0.950 . S
C1683 C1674 1.390 . S
C1683 H1676 0.950 . S
C1683 C1680 1.387 . S
C1684 C1685 1.387 . S
C1684 H1688 0.950 . S
C1684 C1693 1.390 . S
C1685 C1684 1.387 . S
C1685 C1687 1.387 . S
H1686 C1693 0.950 . S
C1687 C1685 1.387 . S
C1687 C1689 1.390 . S
C1687 H1691 0.950 . S
H1688 C1684 0.950 . S
C1689 C1687 1.390 . S
C1689 C1690 1.387 . S
C1689 H1692 0.950 . S
C1690 C1689 1.387 . S
C1690 C1693 1.387 . S
H1691 C1687 0.950 . S
H1692 C1689 0.950 . S
C1693 C1684 1.390 . S
C1693 H1686 0.950 . S
C1693 C1690 1.387 . S
C1694 C1695 1.387 . S
C1694 H1698 0.950 . S
C1694 C1703 1.390 . S
C1695 C1694 1.387 . S
C1695 C1697 1.387 . S
H1696 C1703 0.950 . S
C1697 C1695 1.387 . S
C1697 C1699 1.390 . S
C1697 H1701 0.950 . S
H1698 C1694 0.950 . S
C1699 C1697 1.390 . S
C1699 C1700 1.387 . S
C1699 H1702 0.950 . S
C1700 C1699 1.387 . S
C1700 C1703 1.387 . S
H1701 C1697 0.950 . S
H1702 C1699 0.950 . S
C1703 C1694 1.390 . S
C1703 H1696 0.950 . S
C1703 C1700 1.387 . S
C1704 C1705 1.387 . S
C1704 H1708 0.950 . S
C1704 C1713 1.390 . S
C1705 C1704 1.387 . S
C1705 C1707 1.387 1_455 S
H1706 C1713 0.950 . S
C1707 C1705 1.387 1_655 S
C1707 C1709 1.390 . S
C1707 H1711 0.950 . S
H1708 C1704 0.950 . S
C1709 C1707 1.390 . S
C1709 C1710 1.387 . S
C1709 H1712 0.950 . S
C1710 C1709 1.387 . S
C1710 C1713 1.387 1_655 S
H1711 C1707 0.950 . S
H1712 C1709 0.950 . S
C1713 C1704 1.390 . S
C1713 H1706 0.950 . S
C1713 C1710 1.387 1_455 S
C1714 C1715 1.387 . S
C1714 H1718 0.950 . S
C1714 C1723 1.390 . S
C1715 C1714 1.387 . S
C1715 C1717 1.387 . S
H1716 C1723 0.950 . S
C1717 C1715 1.387 . S
C1717 C1719 1.390 . S
C1717 H1721 0.950 . S
H1718 C1714 0.950 . S
C1719 C1717 1.390 . S
C1719 C1720 1.387 . S
C1719 H1722 0.950 . S
C1720 C1719 1.387 . S
C1720 C1723 1.387 . S
H1721 C1717 0.950 . S
H1722 C1719 0.950 . S
C1723 C1714 1.390 . S
C1723 H1716 0.950 . S
C1723 C1720 1.387 . S
C1724 C1725 1.387 . S
C1724 H1728 0.950 . S
C1724 C1733 1.390 1_545 S
C1725 C1724 1.387 . S
C1725 C1727 1.387 . S
H1726 C1733 0.950 . S
C1727 C1725 1.387 . S
C1727 C1729 1.390 1_545 S
C1727 H1731 0.950 . S
H1728 C1724 0.950 . S
C1729 C1727 1.390 1_565 S
C1729 C1730 1.387 . S
C1729 H1732 0.950 . S
C1730 C1729 1.387 . S
C1730 C1733 1.387 . S
H1731 C1727 0.950 . S
H1732 C1729 0.950 . S
C1733 C1724 1.390 1_565 S
C1733 H1726 0.950 . S
C1733 C1730 1.387 . S
C1734 C1735 1.387 . S
C1734 H1738 0.950 . S
C1734 C1743 1.390 1_554 S
C1735 C1734 1.387 . S
C1735 C1737 1.387 1_565 S
H1736 C1743 0.950 . S
C1737 C1735 1.387 1_545 S
C1737 C1739 1.390 1_554 S
C1737 H1741 0.950 . S
H1738 C1734 0.950 . S
C1739 C1737 1.390 1_556 S
C1739 C1740 1.387 . S
C1739 H1742 0.950 . S
C1740 C1739 1.387 . S
C1740 C1743 1.387 1_545 S
H1741 C1737 0.950 . S
H1742 C1739 0.950 . S
C1743 C1734 1.390 1_556 S
C1743 H1736 0.950 . S
C1743 C1740 1.387 1_565 S
C1744 C1745 1.387 1_455 S
C1744 H1748 0.950 . S
C1744 C1753 1.390 . S
C1745 C1744 1.387 1_655 S
C1745 C1747 1.387 1_556 S
H1746 C1753 0.950 . S
C1747 C1745 1.387 1_554 S
C1747 C1749 1.390 . S
C1747 H1751 0.950 . S
H1748 C1744 0.950 . S
C1749 C1747 1.390 . S
C1749 C1750 1.387 1_655 S
C1749 H1752 0.950 . S
C1750 C1749 1.387 1_455 S
C1750 C1753 1.387 1_554 S
H1751 C1747 0.950 . S
H1752 C1749 0.950 . S
C1753 C1744 1.390 . S
C1753 H1746 0.950 . S
C1753 C1750 1.387 1_556 S
C1754 C1755 1.387 . S
C1754 H1758 0.950 . S
C1754 C1763 1.390 1_554 S
C1755 C1754 1.387 . S
C1755 C1757 1.387 . S
H1756 C1763 0.950 . S
C1757 C1755 1.387 . S
C1757 C1759 1.390 1_554 S
C1757 H1761 0.950 . S
H1758 C1754 0.950 . S
C1759 C1757 1.390 1_556 S
C1759 C1760 1.387 . S
C1759 H1762 0.950 . S
C1760 C1759 1.387 . S
C1760 C1763 1.387 . S
H1761 C1757 0.950 . S
H1762 C1759 0.950 . S
C1763 C1754 1.390 1_556 S
C1763 H1756 0.950 . S
C1763 C1760 1.387 . S
C1764 C1765 1.387 1_556 S
C1764 H1768 0.950 . S
C1764 C1773 1.390 . S
C1765 C1764 1.387 1_554 S
C1765 C1767 1.387 . S
H1766 C1773 0.950 1_565 S
C1767 C1765 1.387 . S
C1767 C1769 1.390 1_545 S
C1767 H1771 0.950 . S
H1768 C1764 0.950 . S
C1769 C1767 1.390 1_565 S
C1769 C1770 1.387 1_554 S
C1769 H1772 0.950 . S
C1770 C1769 1.387 1_556 S
C1770 C1773 1.387 1_565 S
H1771 C1767 0.950 . S
H1772 C1769 0.950 . S
C1773 C1764 1.390 . S
C1773 H1766 0.950 1_545 S
C1773 C1770 1.387 1_545 S
C1774 C1775 1.387 . S
C1774 H1778 0.950 . S
C1774 C1783 1.390 1_655 S
C1775 C1774 1.387 . S
C1775 C1777 1.387 1_554 S
H1776 C1783 0.950 . S
C1777 C1775 1.387 1_556 S
C1777 C1779 1.390 . S
C1777 H1781 0.950 . S
H1778 C1774 0.950 . S
C1779 C1777 1.390 . S
C1779 C1780 1.387 1_655 S
C1779 H1782 0.950 . S
C1780 C1779 1.387 1_455 S
C1780 C1783 1.387 1_556 S
H1781 C1777 0.950 . S
H1782 C1779 0.950 . S
C1783 C1774 1.390 1_455 S
C1783 H1776 0.950 . S
C1783 C1780 1.387 1_554 S
C1784 C1785 1.387 1_554 S
C1784 H1788 0.950 . S
C1784 C1793 1.390 . S
C1785 C1784 1.387 1_556 S
C1785 C1787 1.387 . S
H1786 C1793 0.950 . S
C1787 C1785 1.387 . S
C1787 C1789 1.390 . S
C1787 H1791 0.950 . S
H1788 C1784 0.950 . S
C1789 C1787 1.390 . S
C1789 C1790 1.387 1_556 S
C1789 H1792 0.950 . S
C1790 C1789 1.387 1_554 S
C1790 C1793 1.387 . S
H1791 C1787 0.950 . S
H1792 C1789 0.950 . S
C1793 C1784 1.390 . S
C1793 H1786 0.950 . S
C1793 C1790 1.387 . S
C1794 C1795 1.387 . S
C1794 H1798 0.950 . S
C1794 C1803 1.390 1_655 S
C1795 C1794 1.387 . S
C1795 C1797 1.387 1_655 S
H1796 C1803 0.950 . S
C1797 C1795 1.387 1_455 S
C1797 C1799 1.390 . S
C1797 H1801 0.950 . S
H1798 C1794 0.950 . S
C1799 C1797 1.390 . S
C1799 C1800 1.387 . S
C1799 H1802 0.950 . S
C1800 C1799 1.387 . S
C1800 C1803 1.387 . S
H1801 C1797 0.950 . S
H1802 C1799 0.950 . S
C1803 C1794 1.390 1_455 S
C1803 H1796 0.950 . S
C1803 C1800 1.387 . S
C1804 C1805 1.387 . S
C1804 H1808 0.950 . S
C1804 C1813 1.390 . S
C1805 C1804 1.387 . S
C1805 C1807 1.387 . S
H1806 C1813 0.950 . S
C1807 C1805 1.387 . S
C1807 C1809 1.390 . S
C1807 H1811 0.950 . S
H1808 C1804 0.950 . S
C1809 C1807 1.390 . S
C1809 C1810 1.387 . S
C1809 H1812 0.950 . S
C1810 C1809 1.387 . S
C1810 C1813 1.387 . S
H1811 C1807 0.950 . S
H1812 C1809 0.950 . S
C1813 C1804 1.390 . S
C1813 H1806 0.950 . S
C1813 C1810 1.387 . S
C1814 C1815 1.387 . S
C1814 H1818 0.950 . S
C1814 C1823 1.390 1_545 S
C1815 C1814 1.387 . S
C1815 C1817 1.387 1_545 S
H1816 C1823 0.950 . S
C1817 C1815 1.387 1_565 S
C1817 C1819 1.390 . S
C1817 H1821 0.950 1_565 S
H1818 C1814 0.950 . S
C1819 C1817 1.390 . S
C1819 C1820 1.387 . S
C1819 H1822 0.950 . S
C1820 C1819 1.387 . S
C1820 C1823 1.387 . S
H1821 C1817 0.950 1_545 S
H1822 C1819 0.950 . S
C1823 C1814 1.390 1_565 S
C1823 H1816 0.950 . S
C1823 C1820 1.387 . S
C1824 C1825 1.387 . S
C1824 H1828 0.950 . S
C1824 C1833 1.390 1_545 S
C1825 C1824 1.387 . S
C1825 C1827 1.387 1_545 S
H1826 C1833 0.950 1_556 S
C1827 C1825 1.387 1_565 S
C1827 C1829 1.399 . S
C1827 H1831 0.941 1_565 S
H1828 C1824 0.950 . S
C1829 C1827 1.399 . S
C1829 C1830 1.387 1_554 S
C1829 H1832 0.948 1_554 S
C1830 C1829 1.387 1_556 S
C1830 C1833 1.387 1_556 S
H1831 C1827 0.941 1_545 S
H1832 C1829 0.948 1_556 S
C1833 C1824 1.390 1_565 S
C1833 H1826 0.950 1_554 S
C1833 C1830 1.387 1_554 S
C1834 C1835 1.387 1_556 S
C1834 H1838 0.950 . S
C1834 C1843 1.390 1_655 S
C1835 C1834 1.387 1_554 S
C1835 C1837 1.387 1_655 S
H1836 C1843 0.950 . S
C1837 C1835 1.387 1_455 S
C1837 C1839 1.390 . S
C1837 H1841 0.950 . S
H1838 C1834 0.950 . S
C1839 C1837 1.390 . S
C1839 C1840 1.387 1_554 S
C1839 H1842 0.950 . S
C1840 C1839 1.387 1_556 S
C1840 C1843 1.387 . S
H1841 C1837 0.950 . S
H1842 C1839 0.950 . S
C1843 C1834 1.390 1_455 S
C1843 H1836 0.950 . S
C1843 C1840 1.387 . S
C1844 C1845 1.387 . S
C1844 H1848 0.950 . S
C1844 C1853 1.390 . S
C1845 C1844 1.387 . S
C1845 C1847 1.387 . S
H1846 C1853 0.950 1_556 S
C1847 C1845 1.387 . S
C1847 C1849 1.390 . S
C1847 H1851 0.950 . S
H1848 C1844 0.950 . S
C1849 C1847 1.390 . S
C1849 C1850 1.387 1_554 S
C1849 H1852 0.950 1_554 S
C1850 C1849 1.387 1_556 S
C1850 C1853 1.387 1_556 S
H1851 C1847 0.950 . S
H1852 C1849 0.950 1_556 S
C1853 C1844 1.390 . S
C1853 H1846 0.950 1_554 S
C1853 C1850 1.387 1_554 S
C1854 C1855 1.387 . S
C1854 H1858 0.950 . S
C1854 C1863 1.390 . S
C1855 C1854 1.387 . S
C1855 C1857 1.387 . S
H1856 C1863 0.951 . S
C1857 C1855 1.387 . S
C1857 C1859 1.390 1_655 S
C1857 H1861 0.950 . S
H1858 C1854 0.950 . S
C1859 C1857 1.390 1_455 S
C1859 C1860 1.387 . S
C1859 H1862 0.950 . S
C1860 C1859 1.387 . S
C1860 C1863 1.387 1_455 S
H1861 C1857 0.950 . S
H1862 C1859 0.950 . S
C1863 C1854 1.390 . S
C1863 H1856 0.951 . S
C1863 C1860 1.387 1_655 S
C1864 C1865 1.387 . S
C1864 H1868 0.950 . S
C1864 C1873 1.390 . S
C1865 C1864 1.387 . S
C1865 C1867 1.387 . S
H1866 C1873 0.950 . S
C1867 C1865 1.387 . S
C1867 C1869 1.390 . S
C1867 H1871 0.950 . S
H1868 C1864 0.950 . S
C1869 C1867 1.390 . S
C1869 C1870 1.387 . S
C1869 H1872 0.950 . S
C1870 C1869 1.387 . S
C1870 C1873 1.387 . S
H1871 C1867 0.950 . S
H1872 C1869 0.950 . S
C1873 C1864 1.390 . S
C1873 H1866 0.950 . S
C1873 C1870 1.387 . S
C1874 C1875 1.390 . S
C1874 H1878 0.950 . S
C1874 C1883 1.388 1_565 S
C1875 C1874 1.390 . S
C1875 C1877 1.387 . S
H1876 C1883 0.950 . S
C1877 C1875 1.387 . S
C1877 C1879 1.390 1_565 S
C1877 H1881 0.950 . S
H1878 C1874 0.950 . S
C1879 C1877 1.390 1_545 S
C1879 C1880 1.387 . S
C1879 H1882 0.950 . S
C1880 C1879 1.387 . S
C1880 C1883 1.387 . S
H1881 C1877 0.950 . S
H1882 C1879 0.950 . S
C1883 C1874 1.388 1_545 S
C1883 H1876 0.950 . S
C1883 C1880 1.387 . S
C1884 C1885 1.387 . S
C1884 H1888 0.950 . S
C1884 C1893 1.390 . S
C1885 C1884 1.387 . S
C1885 C1887 1.387 . S
H1886 C1893 0.950 . S
C1887 C1885 1.387 . S
C1887 C1889 1.390 . S
C1887 H1891 0.950 . S
H1888 C1884 0.950 . S
C1889 C1887 1.390 . S
C1889 C1890 1.387 . S
C1889 H1892 0.950 . S
C1890 C1889 1.387 . S
C1890 C1893 1.387 . S
H1891 C1887 0.950 . S
H1892 C1889 0.950 . S
C1893 C1884 1.390 . S
C1893 H1886 0.950 . S
C1893 C1890 1.387 . S
C1894 C1895 1.387 . S
C1894 H1898 0.950 . S
C1894 C1903 1.390 . S
C1895 C1894 1.387 . S
C1895 C1897 1.387 . S
H1896 C1903 0.950 . S
C1897 C1895 1.387 . S
C1897 C1899 1.390 . S
C1897 H1901 0.950 . S
H1898 C1894 0.950 . S
C1899 C1897 1.390 . S
C1899 C1900 1.387 . S
C1899 H1902 0.950 . S
C1900 C1899 1.387 . S
C1900 C1903 1.387 . S
H1901 C1897 0.950 . S
H1902 C1899 0.950 . S
C1903 C1894 1.390 . S
C1903 H1896 0.950 . S
C1903 C1900 1.387 . S
C1904 C1905 1.387 . S
C1904 H1908 0.950 . S
C1904 C1913 1.390 . S
C1905 C1904 1.387 . S
C1905 C1907 1.387 . S
H1906 C1913 0.950 . S
C1907 C1905 1.387 . S
C1907 C1909 1.390 . S
C1907 H1911 0.950 . S
H1908 C1904 0.950 . S
C1909 C1907 1.390 . S
C1909 C1910 1.387 . S
C1909 H1912 0.950 . S
C1910 C1909 1.387 . S
C1910 C1913 1.387 . S
H1911 C1907 0.950 . S
H1912 C1909 0.950 . S
C1913 C1904 1.390 . S
C1913 H1906 0.950 . S
C1913 C1910 1.387 . S
C1914 C1915 1.387 . S
C1914 H1918 0.950 . S
C1914 C1923 1.390 . S
C1915 C1914 1.387 . S
C1915 C1917 1.387 . S
H1916 C1923 0.950 . S
C1917 C1915 1.387 . S
C1917 C1919 1.390 . S
C1917 H1921 0.950 . S
H1918 C1914 0.950 . S
C1919 C1917 1.390 . S
C1919 C1920 1.387 . S
C1919 H1922 0.950 . S
C1920 C1919 1.387 . S
C1920 C1923 1.387 . S
H1921 C1917 0.950 . S
H1922 C1919 0.950 . S
C1923 C1914 1.390 . S
C1923 H1916 0.950 . S
C1923 C1920 1.387 . S
C1924 C1925 1.387 . S
C1924 H1928 0.950 . S
C1924 C1933 1.390 . S
C1925 C1924 1.387 . S
C1925 C1927 1.387 . S
H1926 C1933 0.950 . S
C1927 C1925 1.387 . S
C1927 C1929 1.390 . S
C1927 H1931 0.950 . S
H1928 C1924 0.950 . S
C1929 C1927 1.390 . S
C1929 C1930 1.387 . S
C1929 H1932 0.950 . S
C1930 C1929 1.387 . S
C1930 C1933 1.387 . S
H1931 C1927 0.950 . S
H1932 C1929 0.950 . S
C1933 C1924 1.390 . S
C1933 H1926 0.950 . S
C1933 C1930 1.387 . S
C1934 C1935 1.387 . S
C1934 H1938 0.950 . S
C1934 C1943 1.390 . S
C1935 C1934 1.387 . S
C1935 C1937 1.387 . S
H1936 C1943 0.950 . S
C1937 C1935 1.387 . S
C1937 C1939 1.390 . S
C1937 H1941 0.950 . S
H1938 C1934 0.950 . S
C1939 C1937 1.390 . S
C1939 C1940 1.387 . S
C1939 H1942 0.950 . S
C1940 C1939 1.387 . S
C1940 C1943 1.387 . S
H1941 C1937 0.950 . S
H1942 C1939 0.950 . S
C1943 C1934 1.390 . S
C1943 H1936 0.950 . S
C1943 C1940 1.387 . S
C1944 C1945 1.387 . S
C1944 H1948 0.950 . S
C1944 C1953 1.390 . S
C1945 C1944 1.387 . S
C1945 C1947 1.387 . S
H1946 C1953 0.950 . S
C1947 C1945 1.387 . S
C1947 C1949 1.390 . S
C1947 H1951 0.950 . S
H1948 C1944 0.950 . S
C1949 C1947 1.390 . S
C1949 C1950 1.387 . S
C1949 H1952 0.950 . S
C1950 C1949 1.387 . S
C1950 C1953 1.387 . S
H1951 C1947 0.950 . S
H1952 C1949 0.950 . S
C1953 C1944 1.390 . S
C1953 H1946 0.950 . S
C1953 C1950 1.387 . S
C1954 C1955 1.387 . S
C1954 H1958 0.950 . S
C1954 C1963 1.390 . S
C1955 C1954 1.387 . S
C1955 C1957 1.387 . S
H1956 C1963 0.950 . S
C1957 C1955 1.387 . S
C1957 C1959 1.390 . S
C1957 H1961 0.950 . S
H1958 C1954 0.950 . S
C1959 C1957 1.390 . S
C1959 C1960 1.387 . S
C1959 H1962 0.950 . S
C1960 C1959 1.387 . S
C1960 C1963 1.387 . S
H1961 C1957 0.950 . S
H1962 C1959 0.950 . S
C1963 C1954 1.390 . S
C1963 H1956 0.950 . S
C1963 C1960 1.387 . S
C1964 C1965 1.387 . S
C1964 H1968 0.950 . S
C1964 C1973 1.390 . S
C1965 C1964 1.387 . S
C1965 C1967 1.387 . S
H1966 C1973 0.950 . S
C1967 C1965 1.387 . S
C1967 C1969 1.390 . S
C1967 H1971 0.950 . S
H1968 C1964 0.950 . S
C1969 C1967 1.390 . S
C1969 C1970 1.387 . S
C1969 H1972 0.950 . S
C1970 C1969 1.387 . S
C1970 C1973 1.387 . S
H1971 C1967 0.950 . S
H1972 C1969 0.950 . S
C1973 C1964 1.390 . S
C1973 H1966 0.950 . S
C1973 C1970 1.387 . S
C1974 C1975 1.387 . S
C1974 H1978 0.950 . S
C1974 C1983 1.390 . S
C1975 C1974 1.387 . S
C1975 C1977 1.387 . S
H1976 C1983 0.950 . S
C1977 C1975 1.387 . S
C1977 C1979 1.390 . S
C1977 H1981 0.950 . S
H1978 C1974 0.950 . S
C1979 C1977 1.390 . S
C1979 C1980 1.387 . S
C1979 H1982 0.950 . S
C1980 C1979 1.387 . S
C1980 C1983 1.387 . S
H1981 C1977 0.950 . S
H1982 C1979 0.950 . S
C1983 C1974 1.390 . S
C1983 H1976 0.950 . S
C1983 C1980 1.387 . S
C1984 C1985 1.387 . S
C1984 H1988 0.950 . S
C1984 C1993 1.390 . S
C1985 C1984 1.387 . S
C1985 C1987 1.387 . S
H1986 C1993 0.950 . S
C1987 C1985 1.387 . S
C1987 C1989 1.390 . S
C1987 H1991 0.950 . S
H1988 C1984 0.950 . S
C1989 C1987 1.390 . S
C1989 C1990 1.387 . S
C1989 H1992 0.950 . S
C1990 C1989 1.387 . S
C1990 C1993 1.387 . S
H1991 C1987 0.950 . S
H1992 C1989 0.950 . S
C1993 C1984 1.390 . S
C1993 H1986 0.950 . S
C1993 C1990 1.387 . S
C1994 C1995 1.387 . S
C1994 H1998 0.950 . S
C1994 C2003 1.390 . S
C1995 C1994 1.387 . S
C1995 C1997 1.387 . S
H1996 C2003 0.950 . S
C1997 C1995 1.387 . S
C1997 C1999 1.390 . S
C1997 H2001 0.950 . S
H1998 C1994 0.950 . S
C1999 C1997 1.390 . S
C1999 C2000 1.387 . S
C1999 H2002 0.950 . S
C2000 C1999 1.387 . S
C2000 C2003 1.387 . S
H2001 C1997 0.950 . S
H2002 C1999 0.950 . S
C2003 C1994 1.390 . S
C2003 H1996 0.950 . S
C2003 C2000 1.387 . S
C2004 C2005 1.387 . S
C2004 H2008 0.950 . S
C2004 C2013 1.390 . S
C2005 C2004 1.387 . S
C2005 C2007 1.387 . S
H2006 C2013 0.950 . S
C2007 C2005 1.387 . S
C2007 C2009 1.390 . S
C2007 H2011 0.950 . S
H2008 C2004 0.950 . S
C2009 C2007 1.390 . S
C2009 C2010 1.387 . S
C2009 H2012 0.950 . S
C2010 C2009 1.387 . S
C2010 C2013 1.387 . S
H2011 C2007 0.950 . S
H2012 C2009 0.950 . S
C2013 C2004 1.390 . S
C2013 H2006 0.950 . S
C2013 C2010 1.387 . S
C2014 C2015 1.387 . S
C2014 H2018 0.950 . S
C2014 C2023 1.390 . S
C2015 C2014 1.387 . S
C2015 C2017 1.387 . S
H2016 C2023 0.950 . S
C2017 C2015 1.387 . S
C2017 C2019 1.390 . S
C2017 H2021 0.950 . S
H2018 C2014 0.950 . S
C2019 C2017 1.390 . S
C2019 C2020 1.387 . S
C2019 H2022 0.950 . S
C2020 C2019 1.387 . S
C2020 C2023 1.387 . S
H2021 C2017 0.950 . S
H2022 C2019 0.950 . S
C2023 C2014 1.390 . S
C2023 H2016 0.950 . S
C2023 C2020 1.387 . S
C2024 C2025 1.387 . S
C2024 H2028 0.950 . S
C2024 C2033 1.390 . S
C2025 C2024 1.387 . S
C2025 C2027 1.387 . S
H2026 C2033 0.950 . S
C2027 C2025 1.387 . S
C2027 C2029 1.390 . S
C2027 H2031 0.950 . S
H2028 C2024 0.950 . S
C2029 C2027 1.390 . S
C2029 C2030 1.387 . S
C2029 H2032 0.950 . S
C2030 C2029 1.387 . S
C2030 C2033 1.387 . S
H2031 C2027 0.950 . S
H2032 C2029 0.950 . S
C2033 C2024 1.390 . S
C2033 H2026 0.950 . S
C2033 C2030 1.387 . S
C2034 C2035 1.387 . S
C2034 H2038 0.950 . S
C2034 C2043 1.390 . S
C2035 C2034 1.387 . S
C2035 C2037 1.387 . S
H2036 C2043 0.950 . S
C2037 C2035 1.387 . S
C2037 C2039 1.390 . S
C2037 H2041 0.950 . S
H2038 C2034 0.950 . S
C2039 C2037 1.390 . S
C2039 C2040 1.387 . S
C2039 H2042 0.950 . S
C2040 C2039 1.387 . S
C2040 C2043 1.387 . S
H2041 C2037 0.950 . S
H2042 C2039 0.950 . S
C2043 C2034 1.390 . S
C2043 H2036 0.950 . S
C2043 C2040 1.387 . S
C2044 C2045 1.387 . S
C2044 H2048 0.950 . S
C2044 C2053 1.390 . S
C2045 C2044 1.387 . S
C2045 C2047 1.387 . S
H2046 C2053 0.950 . S
C2047 C2045 1.387 . S
C2047 C2049 1.390 . S
C2047 H2051 0.950 . S
H2048 C2044 0.950 . S
C2049 C2047 1.390 . S
C2049 C2050 1.387 . S
C2049 H2052 0.950 . S
C2050 C2049 1.387 . S
C2050 C2053 1.387 . S
H2051 C2047 0.950 . S
H2052 C2049 0.950 . S
C2053 C2044 1.390 . S
C2053 H2046 0.950 . S
C2053 C2050 1.387 . S
C2054 C2055 1.387 . S
C2054 H2058 0.950 . S
C2054 C2063 1.390 . S
C2055 C2054 1.387 . S
C2055 C2057 1.387 . S
H2056 C2063 0.950 . S
C2057 C2055 1.387 . S
C2057 C2059 1.390 . S
C2057 H2061 0.950 . S
H2058 C2054 0.950 . S
C2059 C2057 1.390 . S
C2059 C2060 1.387 . S
C2059 H2062 0.950 . S
C2060 C2059 1.387 . S
C2060 C2063 1.387 . S
H2061 C2057 0.950 . S
H2062 C2059 0.950 . S
C2063 C2054 1.390 . S
C2063 H2056 0.950 . S
C2063 C2060 1.387 . S
C2064 C2065 1.387 . S
C2064 H2068 0.950 . S
C2064 C2073 1.390 . S
C2065 C2064 1.387 . S
C2065 C2067 1.387 . S
H2066 C2073 0.950 . S
C2067 C2065 1.387 . S
C2067 C2069 1.390 . S
C2067 H2071 0.950 . S
H2068 C2064 0.950 . S
C2069 C2067 1.390 . S
C2069 C2070 1.387 . S
C2069 H2072 0.950 . S
C2070 C2069 1.387 . S
C2070 C2073 1.387 . S
H2071 C2067 0.950 . S
H2072 C2069 0.950 . S
C2073 C2064 1.390 . S
C2073 H2066 0.950 . S
C2073 C2070 1.387 . S
C2074 C2075 1.387 . S
C2074 H2078 0.950 . S
C2074 C2083 1.390 . S
C2075 C2074 1.387 . S
C2075 C2077 1.387 . S
H2076 C2083 0.950 . S
C2077 C2075 1.387 . S
C2077 C2079 1.390 . S
C2077 H2081 0.950 . S
H2078 C2074 0.950 . S
C2079 C2077 1.390 . S
C2079 C2080 1.387 . S
C2079 H2082 0.950 . S
C2080 C2079 1.387 . S
C2080 C2083 1.387 . S
H2081 C2077 0.950 . S
H2082 C2079 0.950 . S
C2083 C2074 1.390 . S
C2083 H2076 0.950 . S
C2083 C2080 1.387 . S
C2084 C2085 1.387 . S
C2084 H2088 0.950 . S
C2084 C2093 1.390 . S
C2085 C2084 1.387 . S
C2085 C2087 1.387 . S
H2086 C2093 0.950 . S
C2087 C2085 1.387 . S
C2087 C2089 1.390 . S
C2087 H2091 0.950 . S
H2088 C2084 0.950 . S
C2089 C2087 1.390 . S
C2089 C2090 1.387 . S
C2089 H2092 0.950 . S
C2090 C2089 1.387 . S
C2090 C2093 1.387 . S
H2091 C2087 0.950 . S
H2092 C2089 0.950 . S
C2093 C2084 1.390 . S
C2093 H2086 0.950 . S
C2093 C2090 1.387 . S
C2094 C2095 1.387 . S
C2094 H2098 0.950 . S
C2094 C2103 1.390 . S
C2095 C2094 1.387 . S
C2095 C2097 1.387 . S
H2096 C2103 0.950 . S
C2097 C2095 1.387 . S
C2097 C2099 1.390 . S
C2097 H2101 0.950 . S
H2098 C2094 0.950 . S
C2099 C2097 1.390 . S
C2099 C2100 1.387 . S
C2099 H2102 0.950 . S
C2100 C2099 1.387 . S
C2100 C2103 1.387 . S
H2101 C2097 0.950 . S
H2102 C2099 0.950 . S
C2103 C2094 1.390 . S
C2103 H2096 0.950 . S
C2103 C2100 1.387 . S
C2104 C2105 1.387 . S
C2104 H2108 0.950 . S
C2104 C2113 1.390 . S
C2105 C2104 1.387 . S
C2105 C2107 1.387 . S
H2106 C2113 0.950 . S
C2107 C2105 1.387 . S
C2107 C2109 1.390 . S
C2107 H2111 0.950 . S
H2108 C2104 0.950 . S
C2109 C2107 1.390 . S
C2109 C2110 1.387 . S
C2109 H2112 0.950 . S
C2110 C2109 1.387 . S
C2110 C2113 1.387 . S
H2111 C2107 0.950 . S
H2112 C2109 0.950 . S
C2113 C2104 1.390 . S
C2113 H2106 0.950 . S
C2113 C2110 1.387 . S
C2114 C2115 1.387 . S
C2114 H2118 0.950 . S
C2114 C2123 1.390 . S
C2115 C2114 1.387 . S
C2115 C2117 1.387 . S
H2116 C2123 0.950 . S
C2117 C2115 1.387 . S
C2117 C2119 1.390 . S
C2117 H2121 0.950 . S
H2118 C2114 0.950 . S
C2119 C2117 1.390 . S
C2119 C2120 1.387 . S
C2119 H2122 0.950 . S
C2120 C2119 1.387 . S
C2120 C2123 1.387 . S
H2121 C2117 0.950 . S
H2122 C2119 0.950 . S
C2123 C2114 1.390 . S
C2123 H2116 0.950 . S
C2123 C2120 1.387 . S
C1225 C546 1.605 . S
C1230 C2 1.605 . S
C1235 C36 1.605 . S
C1240 C580 1.605 . S
C1245 C512 1.605 . S
C1250 C70 1.605 . S
C1255 C104 1.605 . S
C1260 C886 1.605 . S
C1265 C818 1.605 . S
C1270 C138 1.605 . S
C1275 C172 1.605 . S
C1280 C852 1.605 . S
C1285 C206 1.605 . S
C1290 C1158 1.605 . S
C1295 C240 1.605 . S
C1300 C1192 1.605 . S
C1305 C274 1.605 . S
C1310 C1124 1.605 . S
C1315 C308 1.605 . S
C1320 C682 1.605 . S
C1325 C342 1.605 . S
C1330 C614 1.605 . S
C1335 C376 1.605 . S
C1340 C648 1.605 . S
C1345 C410 1.605 . S
C1350 C954 1.605 . S
C1355 C988 1.605 . S
C1360 C444 1.605 . S
C1365 C920 1.605 . S
C1370 C478 1.605 . S
C1375 C1090 1.605 . S
C1380 C716 1.605 . S
C1385 C1022 1.605 . S
C1390 C750 1.605 . S
C1395 C784 1.605 . S
C1400 C1056 1.605 . S
C1405 C991 1.369 . S
C1410 C5 1.369 . S
C1415 C39 1.368 . S
C1420 C923 1.367 . S
C1425 C73 1.367 . S
C1430 C957 1.368 . S
C1435 C107 1.367 . S
C1440 C447 1.368 . S
C1445 C141 1.368 . S
C1450 C481 1.367 . S
C1455 C413 1.367 . S
C1460 C175 1.367 . S
C1465 C787 1.367 . S
C1470 C209 1.367 . S
C1475 C243 1.368 . S
C1480 C719 1.368 . S
C1485 C277 1.369 . S
C1490 C753 1.368 . S
C1495 C1059 1.368 . S
C1500 C311 1.369 . S
C1505 C1093 1.367 . S
C1510 C345 1.368 . S
C1515 C1025 1.369 . S
C1520 C379 1.369 . S
C1525 C515 1.368 . S
C1530 C855 1.368 . S
C1535 C549 1.368 . S
C1540 C889 1.367 . S
C1545 C583 1.369 . S
C1550 C821 1.369 . S
C1555 C617 1.367 . S
C1560 C1195 1.367 . S
C1565 C1127 1.368 . S
C1570 C651 1.367 . S
C1575 C685 1.369 . S
C1580 C1161 1.369 . S
C1585 C20 1.604 . S
C1590 C632 1.604 . S
C1595 C54 1.604 . S
C1600 C666 1.604 . S
C1605 C700 1.603 . S
C1610 C88 1.603 . S
C1615 C122 1.604 . S
C1620 C1142 1.604 . S
C1625 C156 1.601 . S
C1630 C1176 1.601 . S
C1635 C190 1.602 . S
C1640 C1210 1.602 . S
C1645 C836 1.604 . S
C1650 C224 1.604 . S
C1655 C258 1.602 . S
C1660 C870 1.602 . S
C1665 C904 1.602 . S
C1670 C292 1.602 . S
C1675 C530 1.602 . S
C1680 C326 1.602 . S
C1685 C564 1.601 . S
C1690 C360 1.601 . S
C1695 C394 1.604 . S
C1700 C598 1.604 . S
C1705 C1040 1.601 . S
C1710 C428 1.601 . S
C1715 C1074 1.605 . S
C1720 C462 1.605 . S
C1725 C496 1.604 . S
C1730 C1108 1.604 . S
C1735 C938 1.604 . S
C1740 C734 1.604 . S
C1745 C768 1.602 . S
C1750 C972 1.602 . S
C1755 C1006 1.604 . S
C1760 C802 1.604 . S
C1765 C9 1.336 . S
C1770 C271 1.383 . S
C1775 C43 1.339 . S
C1780 C305 1.384 . S
C1785 C237 1.384 . S
C1790 C77 1.339 . S
C1795 C407 1.384 . S
C1800 C111 1.339 . S
C1805 C339 1.383 . S
C1810 C145 1.338 . S
C1815 C373 1.384 . S
C1820 C179 1.337 . S
C1825 C67 1.383 . S
C1830 C213 1.337 . S
C1835 C101 1.383 . S
C1840 C247 1.335 . S
C1845 C33 1.384 . S
C1850 C281 1.337 . S
C1855 C315 1.338 . S
C1860 C203 1.385 . S
C1865 C349 1.335 . S
C1870 C135 1.383 . S
C1875 C169 1.384 . S
C1880 C383 1.337 . S
C1885 C679 1.384 . S
C1890 C417 1.337 . S
C1895 C451 1.339 . S
C1900 C713 1.385 . S
C1905 C645 1.383 . S
C1910 C485 1.336 . S
C1915 C815 1.383 . S
C1920 C519 1.336 . S
C1925 C553 1.336 . S
C1930 C747 1.383 . S
C1935 C587 1.339 . S
C1940 C781 1.385 . S
C1945 C621 1.338 . S
C1950 C475 1.385 . S
C1955 C655 1.339 . S
C1960 C509 1.384 . S
C1965 C689 1.338 . S
C1970 C441 1.385 . S
C1975 C723 1.339 . S
C1980 C611 1.385 . S
C1985 C543 1.384 . S
C1990 C757 1.339 . S
C1995 C577 1.384 . S
C2000 C791 1.337 . S
C2005 C1087 1.383 . S
C2010 C825 1.338 . S
C2015 C1121 1.385 . S
C2020 C859 1.339 . S
C2025 C1053 1.385 . S
C2030 C893 1.338 . S
C2035 C1223 1.385 . S
C2040 C927 1.339 . S
C2045 C961 1.339 . S
C2050 C1155 1.384 . S
C2055 C1189 1.384 . S
C2060 C995 1.338 . S
C2065 C883 1.383 . S
C2070 C1029 1.337 . S
C2075 C917 1.383 . S
C2080 C1063 1.335 . S
C2085 C849 1.385 . S
C2090 C1097 1.339 . S
C2095 C1131 1.337 . S
C2100 C1019 1.383 . S
C2105 C1165 1.335 . S
C2110 C951 1.383 . S
C2115 C985 1.383 . S
C2120 C1199 1.337 . S
