# Generated by pormake.
# Topology ums, (4)-cn, num edge types: 1
# Building blocks:
#     Node 0, Type 0, BuildingBlock: NAHDIM_clean_sbu_0, # of connection points: 4
#     Node 1, Type 0, BuildingBlock: NAHDIM_clean_sbu_0, # of connection points: 4
#     Node 2, Type 0, BuildingBlock: NAHDIM_clean_sbu_0, # of connection points: 4
#     Node 3, Type 0, BuildingBlock: NAHDIM_clean_sbu_0, # of connection points: 4
#     Node 4, Type 0, BuildingBlock: NAHDIM_clean_sbu_0, # of connection points: 4
#     Node 5, Type 0, BuildingBlock: NAHDIM_clean_sbu_0, # of connection points: 4
#     Node 6, Type 0, BuildingBlock: NAHDIM_clean_sbu_0, # of connection points: 4
#     Node 7, Type 0, BuildingBlock: NAHDIM_clean_sbu_0, # of connection points: 4
#     Node 8, Type 0, BuildingBlock: NAHDIM_clean_sbu_0, # of connection points: 4
#     Node 9, Type 0, BuildingBlock: NAHDIM_clean_sbu_0, # of connection points: 4
#     Node 10, Type 0, BuildingBlock: NAHDIM_clean_sbu_0, # of connection points: 4
#     Node 11, Type 0, BuildingBlock: NAHDIM_clean_sbu_0, # of connection points: 4
#     Node 12, Type 0, BuildingBlock: NAHDIM_clean_sbu_0, # of connection points: 4
#     Node 13, Type 0, BuildingBlock: NAHDIM_clean_sbu_0, # of connection points: 4
#     Node 14, Type 0, BuildingBlock: NAHDIM_clean_sbu_0, # of connection points: 4
#     Node 15, Type 0, BuildingBlock: NAHDIM_clean_sbu_0, # of connection points: 4
#     Node 16, Type 0, BuildingBlock: NAHDIM_clean_sbu_0, # of connection points: 4
#     Node 17, Type 0, BuildingBlock: NAHDIM_clean_sbu_0, # of connection points: 4
#     Node 18, Type 0, BuildingBlock: NAHDIM_clean_sbu_0, # of connection points: 4
#     Node 19, Type 0, BuildingBlock: NAHDIM_clean_sbu_0, # of connection points: 4
#     Node 20, Type 0, BuildingBlock: NAHDIM_clean_sbu_0, # of connection points: 4
#     Node 21, Type 0, BuildingBlock: NAHDIM_clean_sbu_0, # of connection points: 4
#     Node 22, Type 0, BuildingBlock: NAHDIM_clean_sbu_0, # of connection points: 4
#     Node 23, Type 0, BuildingBlock: NAHDIM_clean_sbu_0, # of connection points: 4
#     Node 24, Type 0, BuildingBlock: NAHDIM_clean_sbu_0, # of connection points: 4
#     Node 25, Type 0, BuildingBlock: NAHDIM_clean_sbu_0, # of connection points: 4
#     Node 26, Type 0, BuildingBlock: NAHDIM_clean_sbu_0, # of connection points: 4
#     Node 27, Type 0, BuildingBlock: NAHDIM_clean_sbu_0, # of connection points: 4
#     Node 28, Type 0, BuildingBlock: NAHDIM_clean_sbu_0, # of connection points: 4
#     Node 29, Type 0, BuildingBlock: NAHDIM_clean_sbu_0, # of connection points: 4
#     Node 30, Type 0, BuildingBlock: NAHDIM_clean_sbu_0, # of connection points: 4
#     Node 31, Type 0, BuildingBlock: NAHDIM_clean_sbu_0, # of connection points: 4
#     Node 32, Type 0, BuildingBlock: NAHDIM_clean_sbu_0, # of connection points: 4
#     Node 33, Type 0, BuildingBlock: NAHDIM_clean_sbu_0, # of connection points: 4
#     Node 34, Type 0, BuildingBlock: NAHDIM_clean_sbu_0, # of connection points: 4
#     Node 35, Type 0, BuildingBlock: NAHDIM_clean_sbu_0, # of connection points: 4
#     Edge 36, Type (0, 0), None
#     Edge 37, Type (0, 0), None
#     Edge 38, Type (0, 0), None
#     Edge 39, Type (0, 0), None
#     Edge 40, Type (0, 0), None
#     Edge 41, Type (0, 0), None
#     Edge 42, Type (0, 0), None
#     Edge 43, Type (0, 0), None
#     Edge 44, Type (0, 0), None
#     Edge 45, Type (0, 0), None
#     Edge 46, Type (0, 0), None
#     Edge 47, Type (0, 0), None
#     Edge 48, Type (0, 0), None
#     Edge 49, Type (0, 0), None
#     Edge 50, Type (0, 0), None
#     Edge 51, Type (0, 0), None
#     Edge 52, Type (0, 0), None
#     Edge 53, Type (0, 0), None
#     Edge 54, Type (0, 0), None
#     Edge 55, Type (0, 0), None
#     Edge 56, Type (0, 0), None
#     Edge 57, Type (0, 0), None
#     Edge 58, Type (0, 0), None
#     Edge 59, Type (0, 0), None
#     Edge 60, Type (0, 0), None
#     Edge 61, Type (0, 0), None
#     Edge 62, Type (0, 0), None
#     Edge 63, Type (0, 0), None
#     Edge 64, Type (0, 0), None
#     Edge 65, Type (0, 0), None
#     Edge 66, Type (0, 0), None
#     Edge 67, Type (0, 0), None
#     Edge 68, Type (0, 0), None
#     Edge 69, Type (0, 0), None
#     Edge 70, Type (0, 0), None
#     Edge 71, Type (0, 0), None
#     Edge 72, Type (0, 0), None
#     Edge 73, Type (0, 0), None
#     Edge 74, Type (0, 0), None
#     Edge 75, Type (0, 0), None
#     Edge 76, Type (0, 0), None
#     Edge 77, Type (0, 0), None
#     Edge 78, Type (0, 0), None
#     Edge 79, Type (0, 0), None
#     Edge 80, Type (0, 0), None
#     Edge 81, Type (0, 0), None
#     Edge 82, Type (0, 0), None
#     Edge 83, Type (0, 0), None
#     Edge 84, Type (0, 0), None
#     Edge 85, Type (0, 0), None
#     Edge 86, Type (0, 0), None
#     Edge 87, Type (0, 0), None
#     Edge 88, Type (0, 0), None
#     Edge 89, Type (0, 0), None
#     Edge 90, Type (0, 0), None
#     Edge 91, Type (0, 0), None
#     Edge 92, Type (0, 0), None
#     Edge 93, Type (0, 0), None
#     Edge 94, Type (0, 0), None
#     Edge 95, Type (0, 0), None
#     Edge 96, Type (0, 0), None
#     Edge 97, Type (0, 0), None
#     Edge 98, Type (0, 0), None
#     Edge 99, Type (0, 0), None
#     Edge 100, Type (0, 0), None
#     Edge 101, Type (0, 0), None
#     Edge 102, Type (0, 0), None
#     Edge 103, Type (0, 0), None
#     Edge 104, Type (0, 0), None
#     Edge 105, Type (0, 0), None
#     Edge 106, Type (0, 0), None
#     Edge 107, Type (0, 0), None
# Relax obj value: 0.124
# Max RMSD: 0.125
# Mean RMSD: 0.120
data_MOF--net-ums--node1-NAHDIM_clean_sbu_0--edge1-none
_symmetry_space_group_name_H-M    P1
_symmetry_Int_Tables_number       1
_symmetry_cell_setting            triclinic
loop_
_symmetry_equiv_pos_as_xyz
'x, y, z'
_cell_length_a     48.254542
_cell_length_b     48.255939
_cell_length_c     10.38578
_cell_angle_alpha  89.999387
_cell_angle_beta   90.00032
_cell_angle_gamma 120.0012
loop_
_atom_site_label
_atom_site_type_symbol
_atom_site_fract_x
_atom_site_fract_y
_atom_site_fract_z
_atom_type_partial_charge
C0 C 0.18625 0.20717 0.15302 0.0
O1 O 0.19797 0.22616 0.05283 0.0
O2 O 0.17391 0.27118 0.06662 0.0
Zn3 Zn 0.14135 0.22977 0.15057 0.0
O4 O 0.12257 0.23907 0.30595 0.0
C5 C 0.09871 0.22742 0.96858 0.0
O6 O 0.11119 0.25655 0.01506 0.0
O7 O 0.16129 0.20386 0.2079 0.0
C8 C 0.09647 0.21832 0.35773 0.0
O9 O 0.08038 0.1894 0.30896 0.0
C10 C 0.19131 0.29721 0.12597 0.0
O11 O 0.19087 0.29766 0.25236 0.0
O12 O 0.10698 0.20834 0.01618 0.0
C13 C 0.74305 0.96913 0.15302 0.0
O14 O 0.72406 0.96187 0.05285 0.0
O15 O 0.67905 0.89278 0.0666 0.0
Zn16 Zn 0.72046 0.90163 0.15055 0.0
O17 O 0.71116 0.87355 0.30594 0.0
C18 C 0.72282 0.86134 0.96858 0.0
O19 O 0.69369 0.8447 0.01506 0.0
O20 O 0.74637 0.94748 0.20789 0.0
C21 C 0.73191 0.8682 0.35772 0.0
O22 O 0.76084 0.88104 0.30895 0.0
C23 C 0.65302 0.88415 0.12595 0.0
O24 O 0.65257 0.88327 0.25235 0.0
O25 O 0.7419 0.8887 0.01616 0.0
C26 C -0.0189 0.76398 0.15299 0.0
O27 O -0.01164 0.75225 0.05281 0.0
O28 O 0.05745 0.77632 0.06658 0.0
Zn29 Zn 0.0486 0.80888 0.15054 0.0
O30 O 0.07669 0.82766 0.30592 0.0
C31 C 0.0889 0.85152 0.96855 0.0
O32 O 0.10554 0.83904 0.01503 0.0
O33 O 0.00276 0.78894 0.20787 0.0
C34 C 0.08204 0.85375 0.35769 0.0
O35 O 0.06919 0.86984 0.30893 0.0
C36 C 0.06608 0.75892 0.12594 0.0
O37 O 0.06696 0.75934 0.25233 0.0
O38 O 0.06154 0.84324 0.01614 0.0
C39 C 0.20291 0.19123 0.20477 0.0
O40 O 0.22802 0.19394 0.14416 0.0
O41 O 0.2615 0.18946 0.45505 0.0
Zn42 Zn 0.22014 0.15633 0.37241 0.0
O43 O 0.22949 0.13669 0.22002 0.0
C44 C 0.21752 0.11358 0.55469 0.0
O45 O 0.24637 0.12534 0.50602 0.0
O46 O 0.19416 0.17591 0.31052 0.0
C47 C 0.2083 0.11143 0.16467 0.0
O48 O 0.17883 0.09649 0.20842 0.0
C49 C 0.28789 0.20397 0.39503 0.0
O50 O 0.28843 0.20015 0.27005 0.0
O51 O 0.19876 0.12249 0.50885 0.0
C52 C 0.75899 0.00172 0.20479 0.0
O53 O 0.75627 0.02412 0.14418 0.0
O54 O 0.76076 0.06208 0.45507 0.0
Zn55 Zn 0.79388 0.05386 0.37243 0.0
O56 O 0.81352 0.08285 0.22005 0.0
C57 C 0.83663 0.09399 0.55471 0.0
O58 O 0.82487 0.11108 0.50605 0.0
O59 O 0.77431 0.00831 0.31054 0.0
C60 C 0.83878 0.08692 0.16469 0.0
O61 O 0.85372 0.07239 0.20844 0.0
C62 C 0.74625 0.07397 0.39505 0.0
O63 O 0.75007 0.07833 0.27006 0.0
O64 O 0.82773 0.06633 0.50887 0.0
C65 C 0.94851 0.74732 0.20476 0.0
O66 O 0.9261 0.72221 0.14414 0.0
O67 O 0.88814 0.68873 0.45505 0.0
Zn68 Zn 0.89638 0.73008 0.37241 0.0
O69 O 0.86738 0.72073 0.22002 0.0
C70 C 0.85624 0.7327 0.55468 0.0
O71 O 0.83915 0.70386 0.50601 0.0
O72 O 0.94192 0.75606 0.31051 0.0
C73 C 0.86331 0.74192 0.16466 0.0
O74 O 0.87785 0.77139 0.20841 0.0
C75 C 0.87626 0.66233 0.39503 0.0
O76 O 0.87191 0.6618 0.27004 0.0
O77 O 0.8839 0.75146 0.50884 0.0
C78 C 0.75402 0.75301 0.87011 0.0
O79 O 0.7423 0.73403 0.97029 0.0
O80 O 0.76636 0.689 0.95651 0.0
Zn81 Zn 0.79892 0.73041 0.87256 0.0
O82 O 0.8177 0.72111 0.71718 0.0
C83 C 0.84156 0.73276 0.05455 0.0
O84 O 0.82908 0.70364 1.00808 0.0
O85 O 0.77898 0.75632 0.81523 0.0
C86 C 0.8438 0.74186 0.6654 0.0
O87 O 0.85989 0.77079 0.71417 0.0
C88 C 0.74896 0.66298 0.89716 0.0
O89 O 0.7494 0.66252 0.77077 0.0
O90 O 0.83329 0.75185 1.00696 0.0
C91 C 0.19722 -0.00894 0.8701 0.0
O92 O 0.21621 -0.00168 0.97027 0.0
O93 O 0.26122 0.06741 0.95653 0.0
Zn94 Zn 0.21981 0.05855 0.87258 0.0
O95 O 0.22911 0.08664 0.71719 0.0
C96 C 0.21746 0.09884 0.05456 0.0
O97 O 0.24659 0.11549 1.00807 0.0
O98 O 0.1939 0.01271 0.81524 0.0
C99 C 0.20836 0.09198 0.66541 0.0
O100 O 0.17943 0.07914 0.71418 0.0
C101 C 0.28725 0.07604 0.89718 0.0
O102 O 0.2877 0.07692 0.77078 0.0
O103 O 0.19838 0.07149 1.00697 0.0
C104 C 0.95917 0.19621 0.87014 0.0
O105 O 0.95191 0.20793 0.97032 0.0
O106 O 0.88282 0.18387 0.95654 0.0
Zn107 Zn 0.89167 0.15131 0.87259 0.0
O108 O 0.86358 0.13253 0.71721 0.0
C109 C 0.85137 0.10867 0.05458 0.0
O110 O 0.83473 0.12115 1.00811 0.0
O111 O 0.93751 0.17125 0.81525 0.0
C112 C 0.85823 0.10643 0.66543 0.0
O113 O 0.87108 0.09035 0.7142 0.0
C114 C 0.87419 0.20127 0.89719 0.0
O115 O 0.87331 0.20084 0.77079 0.0
O116 O 0.87873 0.11694 1.00698 0.0
C117 C 0.73736 0.76895 0.81836 0.0
O118 O 0.71226 0.76624 0.87897 0.0
O119 O 0.67878 0.77073 0.56808 0.0
Zn120 Zn 0.72013 0.80385 0.65072 0.0
O121 O 0.71078 0.82349 0.80311 0.0
C122 C 0.72275 0.8466 0.46844 0.0
O123 O 0.6939 0.83484 0.51711 0.0
O124 O 0.74611 0.78428 0.7126 0.0
C125 C 0.73197 0.84875 0.85846 0.0
O126 O 0.76145 0.86369 0.8147 0.0
C127 C 0.65238 0.75622 0.6281 0.0
O128 O 0.65185 0.76003 0.75308 0.0
O129 O 0.74151 0.8377 0.51428 0.0
C130 C 0.18129 0.95846 0.81834 0.0
O131 O 0.184 0.93606 0.87894 0.0
O132 O 0.17951 0.8981 0.56806 0.0
Zn133 Zn 0.14639 0.90633 0.6507 0.0
O134 O 0.12675 0.87734 0.80308 0.0
C135 C 0.10364 0.86619 0.46841 0.0
O136 O 0.1154 0.84911 0.51708 0.0
O137 O 0.16596 0.95188 0.71259 0.0
C138 C 0.10149 0.87326 0.85844 0.0
O139 O 0.08655 0.8878 0.81469 0.0
C140 C 0.19402 0.88621 0.62808 0.0
O141 O 0.1902 0.88186 0.75306 0.0
O142 O 0.11254 0.89386 0.51426 0.0
C143 C -0.00824 0.21287 0.81837 0.0
O144 O 0.01417 0.23798 0.87899 0.0
O145 O 0.05213 0.27146 0.56808 0.0
Zn146 Zn 0.0439 0.2301 0.65072 0.0
O147 O 0.07289 0.23945 0.80311 0.0
C148 C 0.08403 0.22749 0.46845 0.0
O149 O 0.10112 0.25633 0.51711 0.0
O150 O -0.00165 0.20413 0.71262 0.0
C151 C 0.07696 0.21826 0.85847 0.0
O152 O 0.06242 0.18879 0.81472 0.0
C153 C 0.06401 0.29785 0.6281 0.0
O154 O 0.06836 0.29838 0.75309 0.0
O155 O 0.05637 0.20873 0.51429 0.0
C156 C 0.84606 0.54708 0.66027 0.0
O157 O 0.84787 0.57141 0.72406 0.0
O158 O 0.84476 0.6061 0.40854 0.0
Zn159 Zn 0.81155 0.56489 0.4917 0.0
O160 O 0.79193 0.57447 0.64385 0.0
C161 C 0.76925 0.56254 0.30759 0.0
O162 O 0.78153 0.5916 0.35457 0.0
O163 O 0.8313 0.53896 0.55313 0.0
C164 C 0.76615 0.55357 0.69715 0.0
O165 O 0.75074 0.52426 0.65175 0.0
C166 C 0.86109 0.63231 0.46828 0.0
O167 O 0.85904 0.63296 0.5942 0.0
O168 O 0.77765 0.54354 0.35514 0.0
C169 C 0.40315 0.28904 0.66027 0.0
O170 O 0.37882 0.26651 0.72406 0.0
O171 O 0.34413 0.22871 0.40855 0.0
Zn172 Zn 0.38534 0.23672 0.4917 0.0
O173 O 0.37576 0.20751 0.64386 0.0
C174 C 0.38769 0.19677 0.3076 0.0
O175 O 0.35863 0.17998 0.35458 0.0
O176 O 0.41127 0.28239 0.55313 0.0
C177 C 0.39666 0.20263 0.69716 0.0
O178 O 0.42597 0.21653 0.65176 0.0
C179 C 0.31792 0.21883 0.46828 0.0
O180 O 0.31727 0.21613 0.5942 0.0
O181 O 0.40669 0.22417 0.35514 0.0
C182 C 0.66119 0.10417 0.6603 0.0
O183 O 0.68372 0.10237 0.7241 0.0
O184 O 0.72151 0.10547 0.40856 0.0
Zn185 Zn 0.71351 0.13868 0.49172 0.0
O186 O 0.74272 0.1583 0.64387 0.0
C187 C 0.75346 0.18098 0.30761 0.0
O188 O 0.77025 0.16871 0.35459 0.0
O189 O 0.66784 0.11893 0.55315 0.0
C190 C 0.7476 0.18408 0.69716 0.0
O191 O 0.73369 0.19949 0.65177 0.0
C192 C 0.73139 0.08914 0.46829 0.0
O193 O 0.73408 0.09118 0.59422 0.0
O194 O 0.72606 0.17258 0.35515 0.0
C195 C 0.86249 0.53069 0.70998 0.0
O196 O 0.88044 0.54155 0.81337 0.0
O197 O 0.92881 0.5204 0.78793 0.0
Zn198 Zn 0.88719 0.48747 0.70603 0.0
O199 O 0.89639 0.46874 0.55012 0.0
C200 C 0.88491 0.44435 0.88705 0.0
O201 O 0.91388 0.4564 0.83933 0.0
O202 O 0.86073 0.50694 0.65017 0.0
C203 C 0.87565 0.44278 0.4975 0.0
O204 O 0.84664 0.42671 0.54557 0.0
C205 C 0.95481 0.53616 0.72616 0.0
O206 O 0.95478 0.5336 0.60027 0.0
O207 O 0.8661 0.45317 0.84101 0.0
C208 C 0.41954 0.32185 0.70998 0.0
O209 O 0.40867 0.32894 0.81337 0.0
O210 O 0.42982 0.39846 0.78793 0.0
Zn211 Zn 0.46276 0.38978 0.70603 0.0
O212 O 0.48148 0.4177 0.55012 0.0
C213 C 0.50587 0.43061 0.88704 0.0
O214 O 0.49382 0.44753 0.83932 0.0
O215 O 0.44328 0.34384 0.65016 0.0
C216 C 0.50744 0.42292 0.49749 0.0
O217 O 0.52352 0.40999 0.54556 0.0
C218 C 0.41407 0.4087 0.72617 0.0
O219 O 0.41662 0.41123 0.60027 0.0
O220 O 0.49706 0.40299 0.84101 0.0
C221 C 0.62837 0.08774 0.71 0.0
O222 O 0.62129 0.0698 0.81341 0.0
O223 O 0.55176 0.02142 0.78794 0.0
Zn224 Zn 0.56045 0.06304 0.70603 0.0
O225 O 0.53252 0.05384 0.55012 0.0
C226 C 0.51961 0.06532 0.88704 0.0
O227 O 0.5027 0.03635 0.83933 0.0
O228 O 0.60639 0.0895 0.65017 0.0
C229 C 0.52731 0.07458 0.4975 0.0
O230 O 0.54023 0.10358 0.54557 0.0
C231 C 0.54153 -0.00458 0.72618 0.0
O232 O 0.53901 -0.00455 0.60028 0.0
O233 O 0.54723 0.08412 0.84101 0.0
C234 C 0.41845 0.08669 0.20758 0.0
O235 O 0.40692 0.06795 0.30856 0.0
O236 O 0.4296 0.02116 0.28792 0.0
Zn237 Zn 0.46242 0.06285 0.20607 0.0
O238 O 0.48122 0.05376 0.0501 0.0
C239 C 0.50561 0.06528 0.38704 0.0
O240 O 0.49364 0.03632 0.33932 0.0
O241 O 0.44284 0.08923 0.15032 0.0
C242 C 0.50716 0.07456 0.99751 0.0
O243 O 0.52317 0.10356 0.04562 0.0
C244 C 0.41388 -0.00484 0.22616 0.0
O245 O 0.4164 -0.00481 0.10024 0.0
O246 O 0.49671 0.08401 0.34102 0.0
C247 C 0.86354 0.32182 0.20759 0.0
O248 O 0.88228 0.32903 0.30857 0.0
O249 O 0.92907 0.3985 0.28793 0.0
Zn250 Zn 0.88738 0.38963 0.20608 0.0
O251 O 0.89647 0.41752 0.05011 0.0
C252 C 0.88495 0.43039 0.38705 0.0
O253 O 0.91391 0.44738 0.33932 0.0
O254 O 0.86099 0.34366 0.15033 0.0
C255 C 0.87567 0.42266 0.99751 0.0
O256 O 0.84667 0.40967 0.04563 0.0
C257 C 0.95507 0.40878 0.22617 0.0
O258 O 0.95503 0.41125 0.10025 0.0
O259 O 0.86621 0.40275 0.34103 0.0
C260 C 0.62841 0.53177 0.20758 0.0
O261 O 0.6212 0.5433 0.30856 0.0
O262 O 0.55173 0.52062 0.28792 0.0
Zn263 Zn 0.5606 0.4878 0.20607 0.0
O264 O 0.53271 0.469 0.0501 0.0
C265 C 0.51984 0.44462 0.38704 0.0
O266 O 0.50284 0.45658 0.33931 0.0
O267 O 0.60657 0.50739 0.15031 0.0
C268 C 0.52757 0.44306 0.9975 0.0
O269 O 0.54056 0.42706 0.04562 0.0
C270 C 0.54145 0.53634 0.22617 0.0
O271 O 0.53898 0.53383 0.10025 0.0
O272 O 0.54748 0.45351 0.34102 0.0
C273 C 0.40215 0.10317 0.15757 0.0
O274 O 0.3772 0.10063 0.21891 0.0
O275 O 0.34372 0.10527 0.90963 0.0
Zn276 Zn 0.38514 0.13859 0.99152 0.0
O277 O 0.37596 0.15845 0.1441 0.0
C278 C 0.3874 0.18079 0.80709 0.0
O279 O 0.35838 0.16862 0.85439 0.0
O280 O 0.411 0.11877 0.05244 0.0
C281 C 0.39693 0.18417 0.1976 0.0
O282 O 0.42624 0.19952 0.15225 0.0
C283 C 0.31734 0.09138 0.96997 0.0
O284 O 0.31691 0.09614 0.09426 0.0
O285 O 0.40637 0.17234 0.85445 0.0
C286 C 0.84705 0.28904 0.15758 0.0
O287 O 0.8496 0.26663 0.21893 0.0
O288 O 0.84497 0.22852 0.90964 0.0
Zn289 Zn 0.81164 0.23661 0.99153 0.0
O290 O 0.79178 0.20757 0.14411 0.0
C291 C 0.76944 0.19667 0.8071 0.0
O292 O 0.78161 0.17981 0.8544 0.0
O293 O 0.83146 0.28229 0.05245 0.0
C294 C 0.76606 0.20281 0.19761 0.0
O295 O 0.75071 0.21678 0.15226 0.0
C296 C 0.85885 0.21602 0.96998 0.0
O297 O 0.85408 0.21082 0.09427 0.0
O298 O 0.7779 0.22409 0.85446 0.0
C299 C 0.66119 0.54807 0.15756 0.0
O300 O 0.68361 0.57303 0.21892 0.0
O301 O 0.72172 0.60651 0.90962 0.0
Zn302 Zn 0.71363 0.56509 0.99151 0.0
O303 O 0.74267 0.57427 0.14409 0.0
C304 C 0.75357 0.56283 0.80709 0.0
O305 O 0.77042 0.59185 0.85438 0.0
O306 O 0.66794 0.53922 0.05244 0.0
C307 C 0.74742 0.5533 0.1976 0.0
O308 O 0.73345 0.52399 0.15224 0.0
C309 C 0.73421 0.63289 0.96995 0.0
O310 O 0.73941 0.63332 0.09424 0.0
O311 O 0.72614 0.54386 0.85444 0.0
C312 C 0.52182 0.8735 0.81555 0.0
O313 O 0.53335 0.89224 0.71457 0.0
O314 O 0.51067 0.93903 0.73521 0.0
Zn315 Zn 0.47785 0.89734 0.81706 0.0
O316 O 0.45905 0.90643 0.97303 0.0
C317 C 0.43466 0.89491 0.63609 0.0
O318 O 0.44663 0.92387 0.68381 0.0
O319 O 0.49743 0.87095 0.87281 0.0
C320 C 0.43311 0.88563 0.02562 0.0
O321 O 0.4171 0.85663 0.9775 0.0
C322 C 0.52639 0.96503 0.79699 0.0
O323 O 0.52388 0.96499 0.9229 0.0
O324 O 0.44356 0.87617 0.6821 0.0
C325 C 0.07673 0.63836 0.81554 0.0
O326 O 0.05799 0.63115 0.71456 0.0
O327 O 0.0112 0.56168 0.7352 0.0
Zn328 Zn 0.05289 0.57055 0.81705 0.0
O329 O 0.04381 0.54267 0.97302 0.0
C330 C 0.05533 0.5298 0.63609 0.0
O331 O 0.02637 0.5128 0.68381 0.0
O332 O 0.07928 0.61652 0.8728 0.0
C333 C 0.0646 0.53752 0.02561 0.0
O334 O 0.0936 0.55052 0.97749 0.0
C335 C -0.01479 0.55141 0.79697 0.0
O336 O -0.01476 0.54894 0.92289 0.0
O337 O 0.07406 0.55744 0.6821 0.0
C338 C 0.31186 0.42841 0.81555 0.0
O339 O 0.31907 0.41689 0.71457 0.0
O340 O 0.38855 0.43957 0.73521 0.0
Zn341 Zn 0.37967 0.47239 0.81706 0.0
O342 O 0.40756 0.49119 0.97303 0.0
C343 C 0.42043 0.51557 0.6361 0.0
O344 O 0.43742 0.50361 0.68383 0.0
O345 O 0.3337 0.4528 0.87282 0.0
C346 C 0.4127 0.51712 0.02563 0.0
O347 O 0.39971 0.53313 0.97751 0.0
C348 C 0.39882 0.42384 0.79698 0.0
O349 O 0.40128 0.42634 0.9229 0.0
O350 O 0.39279 0.50667 0.68211 0.0
C351 C 0.53812 0.85702 0.86556 0.0
O352 O 0.56308 0.85956 0.80422 0.0
O353 O 0.59655 0.85492 0.1135 0.0
Zn354 Zn 0.55514 0.8216 0.03161 0.0
O355 O 0.56431 0.80174 0.87903 0.0
C356 C 0.55287 0.7794 0.21603 0.0
O357 O 0.58189 0.79156 0.16874 0.0
O358 O 0.52927 0.84141 0.97068 0.0
C359 C 0.54335 0.77602 0.82553 0.0
O360 O 0.51403 0.76067 0.87088 0.0
C361 C 0.62293 0.86881 0.05316 0.0
O362 O 0.62336 0.86404 0.92887 0.0
O363 O 0.5339 0.78785 0.16868 0.0
C364 C 0.09322 0.67115 0.86555 0.0
O365 O 0.09067 0.69356 0.8042 0.0
O366 O 0.0953 0.73167 0.11348 0.0
Zn367 Zn 0.12863 0.72358 0.0316 0.0
O368 O 0.14849 0.75262 0.87901 0.0
C369 C 0.17083 0.76352 0.21602 0.0
O370 O 0.15867 0.78038 0.16873 0.0
O371 O 0.10882 0.6779 0.97067 0.0
C372 C 0.17421 0.75737 0.82551 0.0
O373 O 0.18956 0.74341 0.87086 0.0
C374 C 0.08142 0.74417 0.05315 0.0
O375 O 0.08619 0.74936 0.92886 0.0
O376 O 0.16238 0.73609 0.16866 0.0
C377 C 0.27907 0.41211 0.86557 0.0
O378 O 0.25666 0.38716 0.80421 0.0
O379 O 0.21855 0.35368 0.11351 0.0
Zn380 Zn 0.22664 0.39509 0.03162 0.0
O381 O 0.1976 0.38592 0.87904 0.0
C382 C 0.1867 0.39735 0.21604 0.0
O383 O 0.16985 0.36833 0.16875 0.0
O384 O 0.27232 0.42096 0.97069 0.0
C385 C 0.19285 0.40688 0.82553 0.0
O386 O 0.20681 0.43619 0.87088 0.0
C387 C 0.20606 0.3273 0.05318 0.0
O388 O 0.20086 0.32687 0.92889 0.0
O389 O 0.21413 0.41633 0.16868 0.0
C390 C 0.09421 0.41311 0.36286 0.0
O391 O 0.0924 0.38877 0.29907 0.0
O392 O 0.0955 0.35409 0.61458 0.0
Zn393 Zn 0.12871 0.3953 0.53143 0.0
O394 O 0.14834 0.38571 0.37927 0.0
C395 C 0.17101 0.39765 0.71554 0.0
O396 O 0.15874 0.36858 0.66856 0.0
O397 O 0.10897 0.42122 0.46999 0.0
C398 C 0.17412 0.40661 0.32598 0.0
O399 O 0.18953 0.43592 0.37137 0.0
C400 C 0.07918 0.32787 0.55485 0.0
O401 O 0.08123 0.32723 0.42893 0.0
O402 O 0.16262 0.41665 0.66799 0.0
C403 C 0.53712 0.67115 0.36286 0.0
O404 O 0.56146 0.69368 0.29907 0.0
O405 O 0.59614 0.73147 0.61458 0.0
Zn406 Zn 0.55493 0.72347 0.53143 0.0
O407 O 0.56451 0.75267 0.37927 0.0
C408 C 0.55258 0.76342 0.71553 0.0
O409 O 0.58164 0.78021 0.66855 0.0
O410 O 0.52901 0.6778 0.46999 0.0
C411 C 0.54361 0.75756 0.32597 0.0
O412 O 0.5143 0.74365 0.37137 0.0
C413 C 0.62236 0.74136 0.55485 0.0
O414 O 0.623 0.74406 0.42893 0.0
O415 O 0.53358 0.73602 0.66799 0.0
C416 C 0.27908 0.85601 0.36283 0.0
O417 O 0.25655 0.85782 0.29903 0.0
O418 O 0.21876 0.85472 0.61457 0.0
Zn419 Zn 0.22676 0.82151 0.53141 0.0
O420 O 0.19756 0.80189 0.37925 0.0
C421 C 0.18681 0.77921 0.71552 0.0
O422 O 0.17002 0.79148 0.66854 0.0
O423 O 0.27243 0.84125 0.46998 0.0
C424 C 0.19267 0.77611 0.32596 0.0
O425 O 0.20658 0.7607 0.37136 0.0
C426 C 0.20888 0.87105 0.55484 0.0
O427 O 0.20619 0.869 0.42891 0.0
O428 O 0.21421 0.78761 0.66797 0.0
C429 C 0.07778 0.42949 0.31315 0.0
O430 O 0.05983 0.41863 0.20976 0.0
O431 O 0.01146 0.43979 0.2352 0.0
Zn432 Zn 0.05308 0.47272 0.3171 0.0
O433 O 0.04388 0.49145 0.47301 0.0
C434 C 0.05536 0.51583 0.13608 0.0
O435 O 0.0264 0.50379 0.1838 0.0
O436 O 0.07954 0.45324 0.37296 0.0
C437 C 0.06463 0.5174 0.52563 0.0
O438 O 0.09363 0.53348 0.47755 0.0
C439 C -0.01453 0.42403 0.29698 0.0
O440 O -0.01451 0.42657 0.42288 0.0
O441 O 0.07417 0.50702 0.18211 0.0
C442 C 0.52074 0.63833 0.31315 0.0
O443 O 0.5316 0.63125 0.20976 0.0
O444 O 0.51044 0.56172 0.2352 0.0
Zn445 Zn 0.47751 0.57041 0.3171 0.0
O446 O 0.45878 0.54249 0.47302 0.0
C447 C 0.4344 0.52958 0.13609 0.0
O448 O 0.44644 0.51266 0.18381 0.0
O449 O 0.49699 0.61635 0.37296 0.0
C450 C 0.43282 0.53727 0.52564 0.0
O451 O 0.41675 0.55019 0.47757 0.0
C452 C 0.5262 0.55149 0.29698 0.0
O453 O 0.52366 0.54896 0.42288 0.0
O454 O 0.44321 0.5572 0.18212 0.0
C455 C 0.3119 0.87245 0.31313 0.0
O456 O 0.31898 0.89039 0.20972 0.0
O457 O 0.38851 0.93877 0.23519 0.0
Zn458 Zn 0.37983 0.89715 0.31709 0.0
O459 O 0.40775 0.90635 0.47301 0.0
C460 C 0.42066 0.89487 0.13608 0.0
O461 O 0.43758 0.92383 0.1838 0.0
O462 O 0.33388 0.87069 0.37296 0.0
C463 C 0.41296 0.88561 0.52563 0.0
O464 O 0.40004 0.85661 0.47756 0.0
C465 C 0.39873 0.96476 0.29697 0.0
O466 O 0.40125 0.96474 0.42287 0.0
O467 O 0.39304 0.87606 0.18212 0.0
loop_
_geom_bond_atom_site_label_1
_geom_bond_atom_site_label_2
_geom_bond_distance
_geom_bond_site_symmetry_2
_ccdc_geom_bond_type
C0 O1 1.160 . S
C0 O7 1.185 . S
O1 C0 1.160 . S
O2 Zn3 1.899 . S
O2 C10 1.284 . S
Zn3 O2 1.899 . S
Zn3 O4 2.032 . S
Zn3 O7 2.086 . S
Zn3 O12 1.977 1_554 S
O4 Zn3 2.032 . S
O4 C8 1.278 . S
C5 O6 1.203 . S
C5 O12 1.267 . S
O6 C5 1.203 . S
O7 C0 1.185 . S
O7 Zn3 2.086 . S
C8 O4 1.278 . S
C8 O9 1.211 . S
O9 C8 1.211 . S
C10 O2 1.284 . S
C10 O11 1.273 . S
O11 C10 1.273 . S
O12 Zn3 1.977 1_556 S
O12 C5 1.267 . S
C13 O14 1.160 . S
C13 O20 1.185 . S
O14 C13 1.160 . S
O15 Zn16 1.899 . S
O15 C23 1.284 . S
Zn16 O15 1.899 . S
Zn16 O17 2.032 . S
Zn16 O20 2.086 . S
Zn16 O25 1.977 1_554 S
O17 Zn16 2.032 . S
O17 C21 1.278 . S
C18 O19 1.203 . S
C18 O25 1.267 . S
O19 C18 1.203 . S
O20 C13 1.185 . S
O20 Zn16 2.086 . S
C21 O17 1.278 . S
C21 O22 1.211 . S
O22 C21 1.211 . S
C23 O15 1.284 . S
C23 O24 1.273 . S
O24 C23 1.273 . S
O25 Zn16 1.977 1_556 S
O25 C18 1.267 . S
C26 O27 1.160 . S
C26 O33 1.185 . S
O27 C26 1.160 . S
O28 Zn29 1.899 . S
O28 C36 1.284 . S
Zn29 O28 1.899 . S
Zn29 O30 2.032 . S
Zn29 O33 2.086 . S
Zn29 O38 1.977 1_554 S
O30 Zn29 2.032 . S
O30 C34 1.278 . S
C31 O32 1.203 . S
C31 O38 1.267 . S
O32 C31 1.203 . S
O33 C26 1.185 . S
O33 Zn29 2.086 . S
C34 O30 1.278 . S
C34 O35 1.211 . S
O35 C34 1.211 . S
C36 O28 1.284 . S
C36 O37 1.273 . S
O37 C36 1.273 . S
O38 Zn29 1.977 1_556 S
O38 C31 1.267 . S
C39 O40 1.160 . S
C39 O46 1.185 . S
O40 C39 1.160 . S
O41 Zn42 1.899 . S
O41 C49 1.284 . S
Zn42 O41 1.899 . S
Zn42 O43 2.032 . S
Zn42 O46 2.086 . S
Zn42 O51 1.977 . S
O43 Zn42 2.032 . S
O43 C47 1.278 . S
C44 O45 1.203 . S
C44 O51 1.267 . S
O45 C44 1.203 . S
O46 C39 1.185 . S
O46 Zn42 2.086 . S
C47 O43 1.278 . S
C47 O48 1.211 . S
O48 C47 1.211 . S
C49 O41 1.284 . S
C49 O50 1.273 . S
O50 C49 1.273 . S
O51 Zn42 1.977 . S
O51 C44 1.267 . S
C52 O53 1.160 . S
C52 O59 1.185 . S
O53 C52 1.160 . S
O54 Zn55 1.899 . S
O54 C62 1.284 . S
Zn55 O54 1.899 . S
Zn55 O56 2.032 . S
Zn55 O59 2.086 . S
Zn55 O64 1.977 . S
O56 Zn55 2.032 . S
O56 C60 1.278 . S
C57 O58 1.203 . S
C57 O64 1.267 . S
O58 C57 1.203 . S
O59 C52 1.185 . S
O59 Zn55 2.086 . S
C60 O56 1.278 . S
C60 O61 1.211 . S
O61 C60 1.211 . S
C62 O54 1.284 . S
C62 O63 1.273 . S
O63 C62 1.273 . S
O64 Zn55 1.977 . S
O64 C57 1.267 . S
C65 O66 1.160 . S
C65 O72 1.185 . S
O66 C65 1.160 . S
O67 Zn68 1.899 . S
O67 C75 1.284 . S
Zn68 O67 1.899 . S
Zn68 O69 2.032 . S
Zn68 O72 2.086 . S
Zn68 O77 1.977 . S
O69 Zn68 2.032 . S
O69 C73 1.278 . S
C70 O71 1.203 . S
C70 O77 1.267 . S
O71 C70 1.203 . S
O72 C65 1.185 . S
O72 Zn68 2.086 . S
C73 O69 1.278 . S
C73 O74 1.211 . S
O74 C73 1.211 . S
C75 O67 1.284 . S
C75 O76 1.273 . S
O76 C75 1.273 . S
O77 Zn68 1.977 . S
O77 C70 1.267 . S
C78 O79 1.160 . S
C78 O85 1.185 . S
O79 C78 1.160 . S
O80 Zn81 1.899 . S
O80 C88 1.284 . S
Zn81 O80 1.899 . S
Zn81 O82 2.032 . S
Zn81 O85 2.086 . S
Zn81 O90 1.977 1_556 S
O82 Zn81 2.032 . S
O82 C86 1.278 . S
C83 O84 1.203 . S
C83 O90 1.267 . S
O84 C83 1.203 . S
O85 C78 1.185 . S
O85 Zn81 2.086 . S
C86 O82 1.278 . S
C86 O87 1.211 . S
O87 C86 1.211 . S
C88 O80 1.284 . S
C88 O89 1.273 . S
O89 C88 1.273 . S
O90 Zn81 1.977 1_554 S
O90 C83 1.267 . S
C91 O92 1.160 . S
C91 O98 1.185 . S
O92 C91 1.160 . S
O93 Zn94 1.899 . S
O93 C101 1.284 . S
Zn94 O93 1.899 . S
Zn94 O95 2.032 . S
Zn94 O98 2.086 . S
Zn94 O103 1.977 1_556 S
O95 Zn94 2.032 . S
O95 C99 1.278 . S
C96 O97 1.203 . S
C96 O103 1.267 . S
O97 C96 1.203 . S
O98 C91 1.185 . S
O98 Zn94 2.086 . S
C99 O95 1.278 . S
C99 O100 1.211 . S
O100 C99 1.211 . S
C101 O93 1.284 . S
C101 O102 1.273 . S
O102 C101 1.273 . S
O103 Zn94 1.977 1_554 S
O103 C96 1.267 . S
C104 O105 1.160 . S
C104 O111 1.185 . S
O105 C104 1.160 . S
O106 Zn107 1.899 . S
O106 C114 1.284 . S
Zn107 O106 1.899 . S
Zn107 O108 2.032 . S
Zn107 O111 2.086 . S
Zn107 O116 1.977 1_556 S
O108 Zn107 2.032 . S
O108 C112 1.278 . S
C109 O110 1.203 . S
C109 O116 1.267 . S
O110 C109 1.203 . S
O111 C104 1.185 . S
O111 Zn107 2.086 . S
C112 O108 1.278 . S
C112 O113 1.211 . S
O113 C112 1.211 . S
C114 O106 1.284 . S
C114 O115 1.273 . S
O115 C114 1.273 . S
O116 Zn107 1.977 1_554 S
O116 C109 1.267 . S
C117 O118 1.160 . S
C117 O124 1.185 . S
O118 C117 1.160 . S
O119 Zn120 1.899 . S
O119 C127 1.284 . S
Zn120 O119 1.899 . S
Zn120 O121 2.032 . S
Zn120 O124 2.086 . S
Zn120 O129 1.977 . S
O121 Zn120 2.032 . S
O121 C125 1.278 . S
C122 O123 1.203 . S
C122 O129 1.267 . S
O123 C122 1.203 . S
O124 C117 1.185 . S
O124 Zn120 2.086 . S
C125 O121 1.278 . S
C125 O126 1.211 . S
O126 C125 1.211 . S
C127 O119 1.284 . S
C127 O128 1.273 . S
O128 C127 1.273 . S
O129 Zn120 1.977 . S
O129 C122 1.267 . S
C130 O131 1.160 . S
C130 O137 1.185 . S
O131 C130 1.160 . S
O132 Zn133 1.899 . S
O132 C140 1.284 . S
Zn133 O132 1.899 . S
Zn133 O134 2.032 . S
Zn133 O137 2.086 . S
Zn133 O142 1.977 . S
O134 Zn133 2.032 . S
O134 C138 1.278 . S
C135 O136 1.203 . S
C135 O142 1.267 . S
O136 C135 1.203 . S
O137 C130 1.185 . S
O137 Zn133 2.086 . S
C138 O134 1.278 . S
C138 O139 1.211 . S
O139 C138 1.211 . S
C140 O132 1.284 . S
C140 O141 1.273 . S
O141 C140 1.273 . S
O142 Zn133 1.977 . S
O142 C135 1.267 . S
C143 O144 1.160 . S
C143 O150 1.185 . S
O144 C143 1.160 . S
O145 Zn146 1.899 . S
O145 C153 1.284 . S
Zn146 O145 1.899 . S
Zn146 O147 2.032 . S
Zn146 O150 2.086 . S
Zn146 O155 1.977 . S
O147 Zn146 2.032 . S
O147 C151 1.278 . S
C148 O149 1.203 . S
C148 O155 1.267 . S
O149 C148 1.203 . S
O150 C143 1.185 . S
O150 Zn146 2.086 . S
C151 O147 1.278 . S
C151 O152 1.211 . S
O152 C151 1.211 . S
C153 O145 1.284 . S
C153 O154 1.273 . S
O154 C153 1.273 . S
O155 Zn146 1.977 . S
O155 C148 1.267 . S
C156 O157 1.160 . S
C156 O163 1.185 . S
O157 C156 1.160 . S
O158 Zn159 1.899 . S
O158 C166 1.284 . S
Zn159 O158 1.899 . S
Zn159 O160 2.032 . S
Zn159 O163 2.086 . S
Zn159 O168 1.977 . S
O160 Zn159 2.032 . S
O160 C164 1.278 . S
C161 O162 1.203 . S
C161 O168 1.267 . S
O162 C161 1.203 . S
O163 C156 1.185 . S
O163 Zn159 2.086 . S
C164 O160 1.278 . S
C164 O165 1.211 . S
O165 C164 1.211 . S
C166 O158 1.284 . S
C166 O167 1.273 . S
O167 C166 1.273 . S
O168 Zn159 1.977 . S
O168 C161 1.267 . S
C169 O170 1.160 . S
C169 O176 1.185 . S
O170 C169 1.160 . S
O171 Zn172 1.899 . S
O171 C179 1.284 . S
Zn172 O171 1.899 . S
Zn172 O173 2.032 . S
Zn172 O176 2.086 . S
Zn172 O181 1.977 . S
O173 Zn172 2.032 . S
O173 C177 1.278 . S
C174 O175 1.203 . S
C174 O181 1.267 . S
O175 C174 1.203 . S
O176 C169 1.185 . S
O176 Zn172 2.086 . S
C177 O173 1.278 . S
C177 O178 1.211 . S
O178 C177 1.211 . S
C179 O171 1.284 . S
C179 O180 1.273 . S
O180 C179 1.273 . S
O181 Zn172 1.977 . S
O181 C174 1.267 . S
C182 O183 1.160 . S
C182 O189 1.185 . S
O183 C182 1.160 . S
O184 Zn185 1.899 . S
O184 C192 1.284 . S
Zn185 O184 1.899 . S
Zn185 O186 2.032 . S
Zn185 O189 2.086 . S
Zn185 O194 1.977 . S
O186 Zn185 2.032 . S
O186 C190 1.278 . S
C187 O188 1.203 . S
C187 O194 1.267 . S
O188 C187 1.203 . S
O189 C182 1.185 . S
O189 Zn185 2.086 . S
C190 O186 1.278 . S
C190 O191 1.211 . S
O191 C190 1.211 . S
C192 O184 1.284 . S
C192 O193 1.273 . S
O193 C192 1.273 . S
O194 Zn185 1.977 . S
O194 C187 1.267 . S
C195 O196 1.160 . S
C195 O202 1.185 . S
O196 C195 1.160 . S
O197 Zn198 1.899 . S
O197 C205 1.284 . S
Zn198 O197 1.899 . S
Zn198 O199 2.032 . S
Zn198 O202 2.086 . S
Zn198 O207 1.977 . S
O199 Zn198 2.032 . S
O199 C203 1.278 . S
C200 O201 1.203 . S
C200 O207 1.267 . S
O201 C200 1.203 . S
O202 C195 1.185 . S
O202 Zn198 2.086 . S
C203 O199 1.278 . S
C203 O204 1.211 . S
O204 C203 1.211 . S
C205 O197 1.284 . S
C205 O206 1.273 . S
O206 C205 1.273 . S
O207 Zn198 1.977 . S
O207 C200 1.267 . S
C208 O209 1.160 . S
C208 O215 1.185 . S
O209 C208 1.160 . S
O210 Zn211 1.899 . S
O210 C218 1.284 . S
Zn211 O210 1.899 . S
Zn211 O212 2.032 . S
Zn211 O215 2.086 . S
Zn211 O220 1.977 . S
O212 Zn211 2.032 . S
O212 C216 1.278 . S
C213 O214 1.203 . S
C213 O220 1.267 . S
O214 C213 1.203 . S
O215 C208 1.185 . S
O215 Zn211 2.086 . S
C216 O212 1.278 . S
C216 O217 1.211 . S
O217 C216 1.211 . S
C218 O210 1.284 . S
C218 O219 1.273 . S
O219 C218 1.273 . S
O220 Zn211 1.977 . S
O220 C213 1.267 . S
C221 O222 1.160 . S
C221 O228 1.185 . S
O222 C221 1.160 . S
O223 Zn224 1.899 . S
O223 C231 1.284 . S
Zn224 O223 1.899 . S
Zn224 O225 2.032 . S
Zn224 O228 2.086 . S
Zn224 O233 1.977 . S
O225 Zn224 2.032 . S
O225 C229 1.278 . S
C226 O227 1.203 . S
C226 O233 1.267 . S
O227 C226 1.203 . S
O228 C221 1.185 . S
O228 Zn224 2.086 . S
C229 O225 1.278 . S
C229 O230 1.211 . S
O230 C229 1.211 . S
C231 O223 1.284 . S
C231 O232 1.273 . S
O232 C231 1.273 . S
O233 Zn224 1.977 . S
O233 C226 1.267 . S
C234 O235 1.160 . S
C234 O241 1.185 . S
O235 C234 1.160 . S
O236 Zn237 1.899 . S
O236 C244 1.284 . S
Zn237 O236 1.899 . S
Zn237 O238 2.032 . S
Zn237 O241 2.086 . S
Zn237 O246 1.977 . S
O238 Zn237 2.032 . S
O238 C242 1.278 . S
C239 O240 1.203 . S
C239 O246 1.267 . S
O240 C239 1.203 . S
O241 C234 1.185 . S
O241 Zn237 2.086 . S
C242 O238 1.278 . S
C242 O243 1.211 . S
O243 C242 1.211 . S
C244 O236 1.284 . S
C244 O245 1.273 . S
O245 C244 1.273 . S
O246 Zn237 1.977 . S
O246 C239 1.267 . S
C247 O248 1.160 . S
C247 O254 1.185 . S
O248 C247 1.160 . S
O249 Zn250 1.899 . S
O249 C257 1.284 . S
Zn250 O249 1.899 . S
Zn250 O251 2.032 . S
Zn250 O254 2.086 . S
Zn250 O259 1.977 . S
O251 Zn250 2.032 . S
O251 C255 1.278 . S
C252 O253 1.203 . S
C252 O259 1.267 . S
O253 C252 1.203 . S
O254 C247 1.185 . S
O254 Zn250 2.086 . S
C255 O251 1.278 . S
C255 O256 1.211 . S
O256 C255 1.211 . S
C257 O249 1.284 . S
C257 O258 1.273 . S
O258 C257 1.273 . S
O259 Zn250 1.977 . S
O259 C252 1.267 . S
C260 O261 1.160 . S
C260 O267 1.185 . S
O261 C260 1.160 . S
O262 Zn263 1.899 . S
O262 C270 1.284 . S
Zn263 O262 1.899 . S
Zn263 O264 2.032 . S
Zn263 O267 2.086 . S
Zn263 O272 1.977 . S
O264 Zn263 2.032 . S
O264 C268 1.278 . S
C265 O266 1.203 . S
C265 O272 1.267 . S
O266 C265 1.203 . S
O267 C260 1.185 . S
O267 Zn263 2.086 . S
C268 O264 1.278 . S
C268 O269 1.211 . S
O269 C268 1.211 . S
C270 O262 1.284 . S
C270 O271 1.273 . S
O271 C270 1.273 . S
O272 Zn263 1.977 . S
O272 C265 1.267 . S
C273 O274 1.160 . S
C273 O280 1.185 1_554 S
O274 C273 1.160 . S
O275 Zn276 1.899 . S
O275 C283 1.284 . S
Zn276 O275 1.899 . S
Zn276 O277 2.032 1_556 S
Zn276 O280 2.086 . S
Zn276 O285 1.977 . S
O277 Zn276 2.032 1_554 S
O277 C281 1.278 . S
C278 O279 1.203 . S
C278 O285 1.267 . S
O279 C278 1.203 . S
O280 C273 1.185 1_556 S
O280 Zn276 2.086 . S
C281 O277 1.278 . S
C281 O282 1.211 . S
O282 C281 1.211 . S
C283 O275 1.284 . S
C283 O284 1.273 1_556 S
O284 C283 1.273 1_554 S
O285 Zn276 1.977 . S
O285 C278 1.267 . S
C286 O287 1.160 . S
C286 O293 1.185 1_554 S
O287 C286 1.160 . S
O288 Zn289 1.899 . S
O288 C296 1.284 . S
Zn289 O288 1.899 . S
Zn289 O290 2.032 1_556 S
Zn289 O293 2.086 . S
Zn289 O298 1.977 . S
O290 Zn289 2.032 1_554 S
O290 C294 1.278 . S
C291 O292 1.203 . S
C291 O298 1.267 . S
O292 C291 1.203 . S
O293 C286 1.185 1_556 S
O293 Zn289 2.086 . S
C294 O290 1.278 . S
C294 O295 1.211 . S
O295 C294 1.211 . S
C296 O288 1.284 . S
C296 O297 1.273 1_556 S
O297 C296 1.273 1_554 S
O298 Zn289 1.977 . S
O298 C291 1.267 . S
C299 O300 1.160 . S
C299 O306 1.185 1_554 S
O300 C299 1.160 . S
O301 Zn302 1.899 . S
O301 C309 1.284 . S
Zn302 O301 1.899 . S
Zn302 O303 2.032 1_556 S
Zn302 O306 2.086 . S
Zn302 O311 1.977 . S
O303 Zn302 2.032 1_554 S
O303 C307 1.278 . S
C304 O305 1.203 . S
C304 O311 1.267 . S
O305 C304 1.203 . S
O306 C299 1.185 1_556 S
O306 Zn302 2.086 . S
C307 O303 1.278 . S
C307 O308 1.211 . S
O308 C307 1.211 . S
C309 O301 1.284 . S
C309 O310 1.273 1_556 S
O310 C309 1.273 1_554 S
O311 Zn302 1.977 . S
O311 C304 1.267 . S
C312 O313 1.160 . S
C312 O319 1.185 . S
O313 C312 1.160 . S
O314 Zn315 1.899 . S
O314 C322 1.284 . S
Zn315 O314 1.899 . S
Zn315 O316 2.032 . S
Zn315 O319 2.086 . S
Zn315 O324 1.977 . S
O316 Zn315 2.032 . S
O316 C320 1.278 . S
C317 O318 1.203 . S
C317 O324 1.267 . S
O318 C317 1.203 . S
O319 C312 1.185 . S
O319 Zn315 2.086 . S
C320 O316 1.278 . S
C320 O321 1.211 . S
O321 C320 1.211 . S
C322 O314 1.284 . S
C322 O323 1.273 . S
O323 C322 1.273 . S
O324 Zn315 1.977 . S
O324 C317 1.267 . S
C325 O326 1.160 . S
C325 O332 1.185 . S
O326 C325 1.160 . S
O327 Zn328 1.899 . S
O327 C335 1.284 . S
Zn328 O327 1.899 . S
Zn328 O329 2.032 . S
Zn328 O332 2.086 . S
Zn328 O337 1.977 . S
O329 Zn328 2.032 . S
O329 C333 1.278 . S
C330 O331 1.203 . S
C330 O337 1.267 . S
O331 C330 1.203 . S
O332 C325 1.185 . S
O332 Zn328 2.086 . S
C333 O329 1.278 . S
C333 O334 1.211 . S
O334 C333 1.211 . S
C335 O327 1.284 . S
C335 O336 1.273 . S
O336 C335 1.273 . S
O337 Zn328 1.977 . S
O337 C330 1.267 . S
C338 O339 1.160 . S
C338 O345 1.185 . S
O339 C338 1.160 . S
O340 Zn341 1.899 . S
O340 C348 1.284 . S
Zn341 O340 1.899 . S
Zn341 O342 2.032 . S
Zn341 O345 2.086 . S
Zn341 O350 1.977 . S
O342 Zn341 2.032 . S
O342 C346 1.278 . S
C343 O344 1.203 . S
C343 O350 1.267 . S
O344 C343 1.203 . S
O345 C338 1.185 . S
O345 Zn341 2.086 . S
C346 O342 1.278 . S
C346 O347 1.211 . S
O347 C346 1.211 . S
C348 O340 1.284 . S
C348 O349 1.273 . S
O349 C348 1.273 . S
O350 Zn341 1.977 . S
O350 C343 1.267 . S
C351 O352 1.160 . S
C351 O358 1.185 1_556 S
O352 C351 1.160 . S
O353 Zn354 1.899 . S
O353 C361 1.284 . S
Zn354 O353 1.899 . S
Zn354 O355 2.032 1_554 S
Zn354 O358 2.086 . S
Zn354 O363 1.977 . S
O355 Zn354 2.032 1_556 S
O355 C359 1.278 . S
C356 O357 1.203 . S
C356 O363 1.267 . S
O357 C356 1.203 . S
O358 C351 1.185 1_554 S
O358 Zn354 2.086 . S
C359 O355 1.278 . S
C359 O360 1.211 . S
O360 C359 1.211 . S
C361 O353 1.284 . S
C361 O362 1.273 1_554 S
O362 C361 1.273 1_556 S
O363 Zn354 1.977 . S
O363 C356 1.267 . S
C364 O365 1.160 . S
C364 O371 1.185 1_556 S
O365 C364 1.160 . S
O366 Zn367 1.899 . S
O366 C374 1.284 . S
Zn367 O366 1.899 . S
Zn367 O368 2.032 1_554 S
Zn367 O371 2.086 . S
Zn367 O376 1.977 . S
O368 Zn367 2.032 1_556 S
O368 C372 1.278 . S
C369 O370 1.203 . S
C369 O376 1.267 . S
O370 C369 1.203 . S
O371 C364 1.185 1_554 S
O371 Zn367 2.086 . S
C372 O368 1.278 . S
C372 O373 1.211 . S
O373 C372 1.211 . S
C374 O366 1.284 . S
C374 O375 1.273 1_554 S
O375 C374 1.273 1_556 S
O376 Zn367 1.977 . S
O376 C369 1.267 . S
C377 O378 1.160 . S
C377 O384 1.185 1_556 S
O378 C377 1.160 . S
O379 Zn380 1.899 . S
O379 C387 1.284 . S
Zn380 O379 1.899 . S
Zn380 O381 2.032 1_554 S
Zn380 O384 2.086 . S
Zn380 O389 1.977 . S
O381 Zn380 2.032 1_556 S
O381 C385 1.278 . S
C382 O383 1.203 . S
C382 O389 1.267 . S
O383 C382 1.203 . S
O384 C377 1.185 1_554 S
O384 Zn380 2.086 . S
C385 O381 1.278 . S
C385 O386 1.211 . S
O386 C385 1.211 . S
C387 O379 1.284 . S
C387 O388 1.273 1_554 S
O388 C387 1.273 1_556 S
O389 Zn380 1.977 . S
O389 C382 1.267 . S
C390 O391 1.160 . S
C390 O397 1.185 . S
O391 C390 1.160 . S
O392 Zn393 1.899 . S
O392 C400 1.284 . S
Zn393 O392 1.899 . S
Zn393 O394 2.032 . S
Zn393 O397 2.086 . S
Zn393 O402 1.977 . S
O394 Zn393 2.032 . S
O394 C398 1.278 . S
C395 O396 1.203 . S
C395 O402 1.267 . S
O396 C395 1.203 . S
O397 C390 1.185 . S
O397 Zn393 2.086 . S
C398 O394 1.278 . S
C398 O399 1.211 . S
O399 C398 1.211 . S
C400 O392 1.284 . S
C400 O401 1.273 . S
O401 C400 1.273 . S
O402 Zn393 1.977 . S
O402 C395 1.267 . S
C403 O404 1.160 . S
C403 O410 1.185 . S
O404 C403 1.160 . S
O405 Zn406 1.899 . S
O405 C413 1.284 . S
Zn406 O405 1.899 . S
Zn406 O407 2.032 . S
Zn406 O410 2.086 . S
Zn406 O415 1.977 . S
O407 Zn406 2.032 . S
O407 C411 1.278 . S
C408 O409 1.203 . S
C408 O415 1.267 . S
O409 C408 1.203 . S
O410 C403 1.185 . S
O410 Zn406 2.086 . S
C411 O407 1.278 . S
C411 O412 1.211 . S
O412 C411 1.211 . S
C413 O405 1.284 . S
C413 O414 1.273 . S
O414 C413 1.273 . S
O415 Zn406 1.977 . S
O415 C408 1.267 . S
C416 O417 1.160 . S
C416 O423 1.185 . S
O417 C416 1.160 . S
O418 Zn419 1.899 . S
O418 C426 1.284 . S
Zn419 O418 1.899 . S
Zn419 O420 2.032 . S
Zn419 O423 2.086 . S
Zn419 O428 1.977 . S
O420 Zn419 2.032 . S
O420 C424 1.278 . S
C421 O422 1.203 . S
C421 O428 1.267 . S
O422 C421 1.203 . S
O423 C416 1.185 . S
O423 Zn419 2.086 . S
C424 O420 1.278 . S
C424 O425 1.211 . S
O425 C424 1.211 . S
C426 O418 1.284 . S
C426 O427 1.273 . S
O427 C426 1.273 . S
O428 Zn419 1.977 . S
O428 C421 1.267 . S
C429 O430 1.160 . S
C429 O436 1.185 . S
O430 C429 1.160 . S
O431 Zn432 1.899 . S
O431 C439 1.284 . S
Zn432 O431 1.899 . S
Zn432 O433 2.032 . S
Zn432 O436 2.086 . S
Zn432 O441 1.977 . S
O433 Zn432 2.032 . S
O433 C437 1.278 . S
C434 O435 1.203 . S
C434 O441 1.267 . S
O435 C434 1.203 . S
O436 C429 1.185 . S
O436 Zn432 2.086 . S
C437 O433 1.278 . S
C437 O438 1.211 . S
O438 C437 1.211 . S
C439 O431 1.284 . S
C439 O440 1.273 . S
O440 C439 1.273 . S
O441 Zn432 1.977 . S
O441 C434 1.267 . S
C442 O443 1.160 . S
C442 O449 1.185 . S
O443 C442 1.160 . S
O444 Zn445 1.899 . S
O444 C452 1.284 . S
Zn445 O444 1.899 . S
Zn445 O446 2.032 . S
Zn445 O449 2.086 . S
Zn445 O454 1.977 . S
O446 Zn445 2.032 . S
O446 C450 1.278 . S
C447 O448 1.203 . S
C447 O454 1.267 . S
O448 C447 1.203 . S
O449 C442 1.185 . S
O449 Zn445 2.086 . S
C450 O446 1.278 . S
C450 O451 1.211 . S
O451 C450 1.211 . S
C452 O444 1.284 . S
C452 O453 1.273 . S
O453 C452 1.273 . S
O454 Zn445 1.977 . S
O454 C447 1.267 . S
C455 O456 1.160 . S
C455 O462 1.185 . S
O456 C455 1.160 . S
O457 Zn458 1.899 . S
O457 C465 1.284 . S
Zn458 O457 1.899 . S
Zn458 O459 2.032 . S
Zn458 O462 2.086 . S
Zn458 O467 1.977 . S
O459 Zn458 2.032 . S
O459 C463 1.278 . S
C460 O461 1.203 . S
C460 O467 1.267 . S
O461 C460 1.203 . S
O462 C455 1.185 . S
O462 Zn458 2.086 . S
C463 O459 1.278 . S
C463 O464 1.211 . S
O464 C463 1.211 . S
C465 O457 1.284 . S
C465 O466 1.273 . S
O466 C465 1.273 . S
O467 Zn458 1.977 . S
O467 C460 1.267 . S
C39 C0 1.381 . S
C52 C13 1.382 1_545 S
C65 C26 1.381 1_655 S
C78 C117 1.382 . S
C91 C130 1.382 1_545 S
C143 C104 1.381 1_455 S
C156 C195 1.315 . S
C169 C208 1.314 . S
C182 C221 1.314 . S
C234 C273 1.293 . S
C286 C247 1.293 . S
C260 C299 1.293 . S
C312 C351 1.293 . S
C325 C364 1.293 . S
C377 C338 1.293 . S
C429 C390 1.315 . S
C442 C403 1.314 . S
C455 C416 1.314 . S
C151 C5 1.237 . S
C18 C125 1.237 . S
C31 C138 1.238 . S
C99 C44 1.249 . S
C57 C112 1.248 . S
C86 C70 1.249 . S
C83 C73 1.237 . S
C96 C47 1.238 . S
C60 C109 1.238 . S
C21 C122 1.248 . S
C34 C135 1.248 . S
C148 C8 1.249 . S
C161 C307 1.188 . S
C281 C174 1.188 . S
C294 C187 1.188 . S
C200 C255 1.226 1_556 S
C268 C213 1.225 1_554 S
C226 C242 1.225 1_556 S
C239 C229 1.221 . S
C252 C203 1.221 . S
C216 C265 1.221 . S
C177 C278 1.268 . S
C190 C291 1.268 . S
C304 C164 1.268 . S
C463 C317 1.221 . S
C330 C437 1.221 . S
C343 C450 1.221 . S
C356 C411 1.268 . S
C424 C369 1.268 . S
C382 C398 1.268 . S
C385 C395 1.188 . S
C359 C408 1.188 . S
C372 C421 1.188 . S
C333 C434 1.225 1_556 S
C346 C447 1.225 1_556 S
C320 C460 1.225 1_556 S
C387 C10 1.524 . S
C23 C361 1.524 . S
C374 C36 1.524 . S
C49 C179 1.510 . S
C192 C62 1.509 . S
C75 C166 1.509 . S
C88 C309 1.524 . S
C283 C101 1.524 . S
C114 C296 1.524 . S
C127 C413 1.509 . S
C140 C426 1.509 . S
C400 C153 1.509 . S
C335 C205 1.467 1_455 S
C348 C218 1.467 . S
C322 C231 1.467 1_565 S
C244 C465 1.467 1_545 S
C439 C257 1.467 1_455 S
C270 C452 1.467 . S
