# Generated by pormake.
# Topology wgs, (5)-cn, num edge types: 1
# Building blocks:
#     Node 0, Type 0, BuildingBlock: XOMCOT_clean_sbu_1, # of connection points: 5
#     Node 1, Type 0, BuildingBlock: XOMCOT_clean_sbu_1, # of connection points: 5
#     Node 2, Type 0, BuildingBlock: XOMCOT_clean_sbu_1, # of connection points: 5
#     Node 3, Type 0, BuildingBlock: XOMCOT_clean_sbu_1, # of connection points: 5
#     Node 4, Type 0, BuildingBlock: XOMCOT_clean_sbu_1, # of connection points: 5
#     Node 5, Type 0, BuildingBlock: XOMCOT_clean_sbu_1, # of connection points: 5
#     Node 6, Type 0, BuildingBlock: XOMCOT_clean_sbu_1, # of connection points: 5
#     Node 7, Type 0, BuildingBlock: XOMCOT_clean_sbu_1, # of connection points: 5
#     Node 8, Type 0, BuildingBlock: XOMCOT_clean_sbu_1, # of connection points: 5
#     Node 9, Type 0, BuildingBlock: XOMCOT_clean_sbu_1, # of connection points: 5
#     Node 10, Type 0, BuildingBlock: XOMCOT_clean_sbu_1, # of connection points: 5
#     Node 11, Type 0, BuildingBlock: XOMCOT_clean_sbu_1, # of connection points: 5
#     Node 12, Type 0, BuildingBlock: XOMCOT_clean_sbu_1, # of connection points: 5
#     Node 13, Type 0, BuildingBlock: XOMCOT_clean_sbu_1, # of connection points: 5
#     Node 14, Type 0, BuildingBlock: XOMCOT_clean_sbu_1, # of connection points: 5
#     Node 15, Type 0, BuildingBlock: XOMCOT_clean_sbu_1, # of connection points: 5
#     Node 16, Type 0, BuildingBlock: XOMCOT_clean_sbu_1, # of connection points: 5
#     Node 17, Type 0, BuildingBlock: XOMCOT_clean_sbu_1, # of connection points: 5
#     Node 18, Type 0, BuildingBlock: XOMCOT_clean_sbu_1, # of connection points: 5
#     Node 19, Type 0, BuildingBlock: XOMCOT_clean_sbu_1, # of connection points: 5
#     Node 20, Type 0, BuildingBlock: XOMCOT_clean_sbu_1, # of connection points: 5
#     Node 21, Type 0, BuildingBlock: XOMCOT_clean_sbu_1, # of connection points: 5
#     Node 22, Type 0, BuildingBlock: XOMCOT_clean_sbu_1, # of connection points: 5
#     Node 23, Type 0, BuildingBlock: XOMCOT_clean_sbu_1, # of connection points: 5
#     Node 24, Type 0, BuildingBlock: XOMCOT_clean_sbu_1, # of connection points: 5
#     Node 25, Type 0, BuildingBlock: XOMCOT_clean_sbu_1, # of connection points: 5
#     Node 26, Type 0, BuildingBlock: XOMCOT_clean_sbu_1, # of connection points: 5
#     Node 27, Type 0, BuildingBlock: XOMCOT_clean_sbu_1, # of connection points: 5
#     Node 28, Type 0, BuildingBlock: XOMCOT_clean_sbu_1, # of connection points: 5
#     Node 29, Type 0, BuildingBlock: XOMCOT_clean_sbu_1, # of connection points: 5
#     Node 30, Type 0, BuildingBlock: XOMCOT_clean_sbu_1, # of connection points: 5
#     Node 31, Type 0, BuildingBlock: XOMCOT_clean_sbu_1, # of connection points: 5
#     Edge 32, Type (0, 0), BuildingBlock: XIVTED_clean_linker_0, # of connection points: 2
#     Edge 33, Type (0, 0), BuildingBlock: XIVTED_clean_linker_0, # of connection points: 2
#     Edge 34, Type (0, 0), BuildingBlock: XIVTED_clean_linker_0, # of connection points: 2
#     Edge 35, Type (0, 0), BuildingBlock: XIVTED_clean_linker_0, # of connection points: 2
#     Edge 36, Type (0, 0), BuildingBlock: XIVTED_clean_linker_0, # of connection points: 2
#     Edge 37, Type (0, 0), BuildingBlock: XIVTED_clean_linker_0, # of connection points: 2
#     Edge 38, Type (0, 0), BuildingBlock: XIVTED_clean_linker_0, # of connection points: 2
#     Edge 39, Type (0, 0), BuildingBlock: XIVTED_clean_linker_0, # of connection points: 2
#     Edge 40, Type (0, 0), BuildingBlock: XIVTED_clean_linker_0, # of connection points: 2
#     Edge 41, Type (0, 0), BuildingBlock: XIVTED_clean_linker_0, # of connection points: 2
#     Edge 42, Type (0, 0), BuildingBlock: XIVTED_clean_linker_0, # of connection points: 2
#     Edge 43, Type (0, 0), BuildingBlock: XIVTED_clean_linker_0, # of connection points: 2
#     Edge 44, Type (0, 0), BuildingBlock: XIVTED_clean_linker_0, # of connection points: 2
#     Edge 45, Type (0, 0), BuildingBlock: XIVTED_clean_linker_0, # of connection points: 2
#     Edge 46, Type (0, 0), BuildingBlock: XIVTED_clean_linker_0, # of connection points: 2
#     Edge 47, Type (0, 0), BuildingBlock: XIVTED_clean_linker_0, # of connection points: 2
#     Edge 48, Type (0, 0), BuildingBlock: XIVTED_clean_linker_0, # of connection points: 2
#     Edge 49, Type (0, 0), BuildingBlock: XIVTED_clean_linker_0, # of connection points: 2
#     Edge 50, Type (0, 0), BuildingBlock: XIVTED_clean_linker_0, # of connection points: 2
#     Edge 51, Type (0, 0), BuildingBlock: XIVTED_clean_linker_0, # of connection points: 2
#     Edge 52, Type (0, 0), BuildingBlock: XIVTED_clean_linker_0, # of connection points: 2
#     Edge 53, Type (0, 0), BuildingBlock: XIVTED_clean_linker_0, # of connection points: 2
#     Edge 54, Type (0, 0), BuildingBlock: XIVTED_clean_linker_0, # of connection points: 2
#     Edge 55, Type (0, 0), BuildingBlock: XIVTED_clean_linker_0, # of connection points: 2
#     Edge 56, Type (0, 0), BuildingBlock: XIVTED_clean_linker_0, # of connection points: 2
#     Edge 57, Type (0, 0), BuildingBlock: XIVTED_clean_linker_0, # of connection points: 2
#     Edge 58, Type (0, 0), BuildingBlock: XIVTED_clean_linker_0, # of connection points: 2
#     Edge 59, Type (0, 0), BuildingBlock: XIVTED_clean_linker_0, # of connection points: 2
#     Edge 60, Type (0, 0), BuildingBlock: XIVTED_clean_linker_0, # of connection points: 2
#     Edge 61, Type (0, 0), BuildingBlock: XIVTED_clean_linker_0, # of connection points: 2
#     Edge 62, Type (0, 0), BuildingBlock: XIVTED_clean_linker_0, # of connection points: 2
#     Edge 63, Type (0, 0), BuildingBlock: XIVTED_clean_linker_0, # of connection points: 2
#     Edge 64, Type (0, 0), BuildingBlock: XIVTED_clean_linker_0, # of connection points: 2
#     Edge 65, Type (0, 0), BuildingBlock: XIVTED_clean_linker_0, # of connection points: 2
#     Edge 66, Type (0, 0), BuildingBlock: XIVTED_clean_linker_0, # of connection points: 2
#     Edge 67, Type (0, 0), BuildingBlock: XIVTED_clean_linker_0, # of connection points: 2
#     Edge 68, Type (0, 0), BuildingBlock: XIVTED_clean_linker_0, # of connection points: 2
#     Edge 69, Type (0, 0), BuildingBlock: XIVTED_clean_linker_0, # of connection points: 2
#     Edge 70, Type (0, 0), BuildingBlock: XIVTED_clean_linker_0, # of connection points: 2
#     Edge 71, Type (0, 0), BuildingBlock: XIVTED_clean_linker_0, # of connection points: 2
#     Edge 72, Type (0, 0), BuildingBlock: XIVTED_clean_linker_0, # of connection points: 2
#     Edge 73, Type (0, 0), BuildingBlock: XIVTED_clean_linker_0, # of connection points: 2
#     Edge 74, Type (0, 0), BuildingBlock: XIVTED_clean_linker_0, # of connection points: 2
#     Edge 75, Type (0, 0), BuildingBlock: XIVTED_clean_linker_0, # of connection points: 2
#     Edge 76, Type (0, 0), BuildingBlock: XIVTED_clean_linker_0, # of connection points: 2
#     Edge 77, Type (0, 0), BuildingBlock: XIVTED_clean_linker_0, # of connection points: 2
#     Edge 78, Type (0, 0), BuildingBlock: XIVTED_clean_linker_0, # of connection points: 2
#     Edge 79, Type (0, 0), BuildingBlock: XIVTED_clean_linker_0, # of connection points: 2
#     Edge 80, Type (0, 0), BuildingBlock: XIVTED_clean_linker_0, # of connection points: 2
#     Edge 81, Type (0, 0), BuildingBlock: XIVTED_clean_linker_0, # of connection points: 2
#     Edge 82, Type (0, 0), BuildingBlock: XIVTED_clean_linker_0, # of connection points: 2
#     Edge 83, Type (0, 0), BuildingBlock: XIVTED_clean_linker_0, # of connection points: 2
#     Edge 84, Type (0, 0), BuildingBlock: XIVTED_clean_linker_0, # of connection points: 2
#     Edge 85, Type (0, 0), BuildingBlock: XIVTED_clean_linker_0, # of connection points: 2
#     Edge 86, Type (0, 0), BuildingBlock: XIVTED_clean_linker_0, # of connection points: 2
#     Edge 87, Type (0, 0), BuildingBlock: XIVTED_clean_linker_0, # of connection points: 2
#     Edge 88, Type (0, 0), BuildingBlock: XIVTED_clean_linker_0, # of connection points: 2
#     Edge 89, Type (0, 0), BuildingBlock: XIVTED_clean_linker_0, # of connection points: 2
#     Edge 90, Type (0, 0), BuildingBlock: XIVTED_clean_linker_0, # of connection points: 2
#     Edge 91, Type (0, 0), BuildingBlock: XIVTED_clean_linker_0, # of connection points: 2
#     Edge 92, Type (0, 0), BuildingBlock: XIVTED_clean_linker_0, # of connection points: 2
#     Edge 93, Type (0, 0), BuildingBlock: XIVTED_clean_linker_0, # of connection points: 2
#     Edge 94, Type (0, 0), BuildingBlock: XIVTED_clean_linker_0, # of connection points: 2
#     Edge 95, Type (0, 0), BuildingBlock: XIVTED_clean_linker_0, # of connection points: 2
#     Edge 96, Type (0, 0), BuildingBlock: XIVTED_clean_linker_0, # of connection points: 2
#     Edge 97, Type (0, 0), BuildingBlock: XIVTED_clean_linker_0, # of connection points: 2
#     Edge 98, Type (0, 0), BuildingBlock: XIVTED_clean_linker_0, # of connection points: 2
#     Edge 99, Type (0, 0), BuildingBlock: XIVTED_clean_linker_0, # of connection points: 2
#     Edge 100, Type (0, 0), BuildingBlock: XIVTED_clean_linker_0, # of connection points: 2
#     Edge 101, Type (0, 0), BuildingBlock: XIVTED_clean_linker_0, # of connection points: 2
#     Edge 102, Type (0, 0), BuildingBlock: XIVTED_clean_linker_0, # of connection points: 2
#     Edge 103, Type (0, 0), BuildingBlock: XIVTED_clean_linker_0, # of connection points: 2
#     Edge 104, Type (0, 0), BuildingBlock: XIVTED_clean_linker_0, # of connection points: 2
#     Edge 105, Type (0, 0), BuildingBlock: XIVTED_clean_linker_0, # of connection points: 2
#     Edge 106, Type (0, 0), BuildingBlock: XIVTED_clean_linker_0, # of connection points: 2
#     Edge 107, Type (0, 0), BuildingBlock: XIVTED_clean_linker_0, # of connection points: 2
#     Edge 108, Type (0, 0), BuildingBlock: XIVTED_clean_linker_0, # of connection points: 2
#     Edge 109, Type (0, 0), BuildingBlock: XIVTED_clean_linker_0, # of connection points: 2
#     Edge 110, Type (0, 0), BuildingBlock: XIVTED_clean_linker_0, # of connection points: 2
#     Edge 111, Type (0, 0), BuildingBlock: XIVTED_clean_linker_0, # of connection points: 2
# Relax obj value: 0.229
# Max RMSD: 0.261
# Mean RMSD: 0.261
data_MOF--net-wgs--node1-XOMCOT_clean_sbu_1--edge1-XIVTED_clean_linker_0
_symmetry_space_group_name_H-M    P1
_symmetry_Int_Tables_number       1
_symmetry_cell_setting            triclinic
loop_
_symmetry_equiv_pos_as_xyz
'x, y, z'
_cell_length_a     31.116405
_cell_length_b     31.097286
_cell_length_c     137.37864
_cell_angle_alpha  89.964812
_cell_angle_beta   90.026737
_cell_angle_gamma 89.750048
loop_
_atom_site_label
_atom_site_type_symbol
_atom_site_fract_x
_atom_site_fract_y
_atom_site_fract_z
_atom_type_partial_charge
C0 C 0.24196 0.06796 0.34693 0.0
C1 C 0.23961 0.06715 0.3569 0.0
N2 N 0.27987 0.06835 0.36048 0.0
N3 N 0.28348 0.07021 0.34419 0.0
C4 C 0.30603 0.06982 0.35262 0.0
H5 H 0.21505 0.06753 0.34194 0.0
Co6 Co 0.30007 0.07451 0.33116 0.0
C7 C 0.38976 0.10347 0.33319 0.0
O8 O 0.4035 0.06885 0.32866 0.0
N9 N 0.31561 0.07798 0.31802 0.0
C10 C 0.33769 0.1004 0.30351 0.0
C11 C 0.33284 0.11141 0.31316 0.0
C12 C 0.30992 0.04726 0.31118 0.0
N13 N 0.32324 0.05993 0.30226 0.0
O14 O 0.33212 0.02272 0.33234 0.0
H15 H 0.34099 0.142 0.3164 0.0
H16 H 0.29527 0.01652 0.3127 0.0
O17 O 0.34967 0.1086 0.33474 0.0
C18 C 0.3089 -0.01065 0.33262 0.0
O19 O 0.26691 -0.00665 0.33222 0.0
N20 N 0.26669 0.12429 0.32997 0.0
C21 C 0.20987 0.1935 0.32918 0.0
C22 C 0.24378 0.19301 0.3359 0.0
C23 C 0.27181 0.15809 0.33619 0.0
C24 C 0.23365 0.12386 0.32345 0.0
C25 C 0.20507 0.15856 0.32284 0.0
H26 H 0.29672 0.15761 0.34166 0.0
H27 H 0.22911 0.0962 0.3188 0.0
H28 H 0.34073 0.07148 0.353 0.0
H29 H 0.21053 0.0654 0.3612 0.0
H30 H 0.3511 0.12067 0.29788 0.0
H31 H 0.24887 0.21959 0.34085 0.0
H32 H 0.17914 0.15778 0.31758 0.0
C33 C 0.15416 -0.00395 0.59489 0.0
C34 C 0.15975 -0.01105 0.60467 0.0
N35 N 0.15541 0.02672 0.60939 0.0
N36 N 0.14596 0.03805 0.59336 0.0
C37 C 0.14694 0.05611 0.60234 0.0
H38 H 0.15624 0.97213 0.5892 0.0
Co39 Co 0.13913 0.05986 0.58076 0.0
C40 C 0.10675 0.14396 0.58865 0.0
O41 O 0.1452 0.16024 0.58995 0.0
N42 N 0.13369 0.08088 0.56793 0.0
C43 C 0.11797 0.1192 0.55469 0.0
C44 C 0.10791 0.11215 0.56433 0.0
C45 C 0.15836 0.0689 0.56028 0.0
N46 N 0.14973 0.09189 0.55216 0.0
O47 O 0.1894 0.09315 0.58241 0.0
H48 H 0.0837 0.1294 0.56841 0.0
H49 H 0.18311 0.04448 0.56068 0.0
O50 O 0.1026 0.10588 0.58539 0.0
C51 C 0.22204 0.07127 0.57991 0.0
O52 O 0.21683 0.03134 0.57705 0.0
N53 N 0.09106 0.02495 0.57908 0.0
C54 C 0.02461 0.96586 0.5774 0.0
C55 C 0.0242 -0.00318 0.58481 0.0
C56 C 0.05775 0.02603 0.58553 0.0
C57 C 0.09247 -0.00539 0.57192 0.0
C58 C 0.05911 0.96503 0.57085 0.0
H59 H 0.05752 0.04865 0.5915 0.0
H60 H 0.11992 -0.00722 0.56712 0.0
H61 H 0.14286 0.09015 0.60367 0.0
H62 H 0.16649 0.95818 0.60803 0.0
H63 H 0.10319 0.1427 0.54992 0.0
H64 H -0.00211 -0.00122 0.58995 0.0
H65 H 0.06059 0.94138 0.56508 0.0
C66 C 0.2255 0.89149 0.84741 0.0
C67 C 0.22556 0.89043 0.85739 0.0
N68 N 0.18456 0.88841 0.86047 0.0
N69 N 0.18467 0.88961 0.84415 0.0
C70 C 0.16021 0.88832 0.8523 0.0
H71 H 0.25354 0.89292 0.84278 0.0
Co72 Co 0.17168 0.88711 0.83084 0.0
C73 C 0.08404 0.85257 0.83027 0.0
O74 O 0.07221 0.88411 0.82448 0.0
N75 N 0.15994 0.88511 0.81743 0.0
C76 C 0.14492 0.86205 0.80252 0.0
C77 C 0.1485 0.85046 0.81215 0.0
C78 C 0.16345 0.91732 0.81084 0.0
N79 N 0.15445 0.90416 0.80167 0.0
O80 O 0.1374 0.93767 0.83191 0.0
H81 H 0.14347 0.81862 0.8151 0.0
H82 H 0.17355 0.9495 0.81272 0.0
O83 O 0.12237 0.85103 0.83352 0.0
C84 C 0.15872 0.97155 0.83361 0.0
O85 O 0.2006 0.96892 0.83466 0.0
N86 N 0.20696 0.83865 0.82975 0.0
C87 C 0.26442 0.77018 0.82865 0.0
C88 C 0.22922 0.76866 0.83499 0.0
C89 C 0.2008 0.8032 0.83543 0.0
C90 C 0.2416 0.84126 0.82371 0.0
C91 C 0.2705 0.80693 0.82291 0.0
H92 H 0.17435 0.80176 0.84052 0.0
H93 H 0.24677 0.87013 0.81948 0.0
H94 H 0.12549 0.88638 0.85224 0.0
H95 H 0.2536 0.89147 0.86205 0.0
H96 H 0.13583 0.84093 0.79662 0.0
H97 H 0.22317 0.74058 0.83945 0.0
H98 H 0.29737 0.80913 0.81793 0.0
C99 C 0.3109 0.97874 0.09648 0.0
C100 C 0.30976 0.98147 0.10646 0.0
N101 N 0.31324 0.94146 0.11014 0.0
N102 N 0.31563 0.93726 0.09384 0.0
C103 C 0.31639 0.91509 0.10233 0.0
H104 H 0.30929 0.00541 0.09143 0.0
Co105 Co 0.3223 0.92013 0.0809 0.0
C106 C 0.35253 0.83073 0.08373 0.0
O107 O 0.31734 0.81556 0.07974 0.0
N108 N 0.32862 0.90359 0.06776 0.0
C109 C 0.35464 0.87921 0.05371 0.0
C110 C 0.36331 0.88575 0.06343 0.0
C111 C 0.29963 0.90809 0.06049 0.0
N112 N 0.31438 0.89316 0.05187 0.0
O113 O 0.27042 0.8883 0.08173 0.0
H114 H 0.39316 0.87811 0.0671 0.0
H115 H 0.26857 0.923 0.0614 0.0
O116 O 0.35694 0.87115 0.08483 0.0
C117 C 0.23911 0.91335 0.07989 0.0
O118 O 0.24694 0.95418 0.07821 0.0
N119 N 0.37128 0.954 0.08001 0.0
C120 C 0.43898 0.01191 0.07919 0.0
C121 C 0.43919 0.97824 0.08599 0.0
C122 C 0.40493 0.94968 0.08631 0.0
C123 C 0.37 -0.01303 0.07348 0.0
C124 C 0.40386 0.01613 0.07286 0.0
H125 H 0.40494 0.92484 0.09181 0.0
H126 H 0.34231 -0.00912 0.06879 0.0
H127 H 0.32032 0.88055 0.10279 0.0
H128 H 0.30639 0.01063 0.11069 0.0
H129 H 0.37617 0.86478 0.04844 0.0
H130 H 0.46592 0.97356 0.09094 0.0
H131 H 0.40242 0.04189 0.06756 0.0
C132 C 0.23457 0.89906 0.19465 0.0
C133 C 0.23184 0.90042 0.18468 0.0
N134 N 0.27191 0.89814 0.18101 0.0
N135 N 0.27614 0.89539 0.1973 0.0
C136 C 0.29832 0.89551 0.18882 0.0
H137 H 0.20788 0.89975 0.19969 0.0
Co138 Co 0.29318 0.88873 0.21026 0.0
C139 C 0.38364 0.8617 0.20782 0.0
O140 O 0.39701 0.89598 0.21249 0.0
N141 N 0.3094 0.88274 0.22342 0.0
C142 C 0.33402 0.85816 0.2376 0.0
C143 C 0.32812 0.84879 0.22788 0.0
C144 C 0.30373 0.91193 0.23061 0.0
N145 N 0.31879 0.8981 0.23929 0.0
O146 O 0.32318 0.94165 0.20953 0.0
H147 H 0.33691 0.81906 0.22429 0.0
H148 H 0.288 0.94255 0.22957 0.0
O149 O 0.3436 0.85641 0.20632 0.0
C150 C 0.29782 0.97278 0.21127 0.0
O151 O 0.25705 0.9647 0.21293 0.0
N152 N 0.26135 0.83812 0.21096 0.0
C153 C 0.20457 0.7694 0.21049 0.0
C154 C 0.23909 0.77143 0.20397 0.0
C155 C 0.26707 0.80607 0.2043 0.0
C156 C 0.22821 0.83663 0.21745 0.0
C157 C 0.19961 0.80205 0.21743 0.0
H158 H 0.29204 0.80811 0.19888 0.0
H159 H 0.22327 0.86294 0.22247 0.0
H160 H 0.33293 0.8925 0.18837 0.0
H161 H 0.20262 0.90304 0.18044 0.0
H162 H 0.34894 0.83736 0.24295 0.0
H163 H 0.24425 0.74655 0.19857 0.0
H164 H 0.17324 0.80149 0.22257 0.0
C165 C 0.31457 -0.00842 0.44537 0.0
C166 C 0.31381 -0.01184 0.43539 0.0
N167 N 0.31586 0.02802 0.43158 0.0
N168 N 0.31762 0.03336 0.44786 0.0
C169 C 0.31777 0.05493 0.4393 0.0
H170 H 0.3137 0.96524 0.45051 0.0
Co171 Co 0.32269 0.05266 0.46067 0.0
C172 C 0.35106 0.1418 0.45603 0.0
O173 O 0.31377 0.15848 0.45849 0.0
N174 N 0.32711 0.07156 0.47366 0.0
C175 C 0.34783 0.10394 0.48732 0.0
C176 C 0.3582 0.09579 0.47774 0.0
C177 C 0.2989 0.06443 0.48098 0.0
N178 N 0.31051 0.08412 0.48934 0.0
O179 O 0.27054 0.08371 0.45925 0.0
H180 H 0.38661 0.10704 0.47402 0.0
H181 H 0.26989 0.04581 0.4802 0.0
O182 O 0.35682 0.10124 0.45644 0.0
C183 C 0.23942 0.05882 0.46114 0.0
O184 O 0.24748 0.01848 0.46336 0.0
N185 N 0.3723 0.01958 0.4621 0.0
C186 C 0.43989 0.96101 0.46312 0.0
C187 C 0.43988 -0.00613 0.45613 0.0
C188 C 0.40574 0.0228 0.45573 0.0
C189 C 0.37154 -0.01224 0.46893 0.0
C190 C 0.40543 0.95832 0.46965 0.0
H191 H 0.40542 0.04668 0.45002 0.0
H192 H 0.34406 -0.01537 0.47369 0.0
H193 H 0.32021 0.08954 0.43873 0.0
H194 H 0.31157 0.95864 0.43125 0.0
H195 H 0.36646 0.12274 0.49242 0.0
H196 H 0.46617 -0.00264 0.45103 0.0
H197 H 0.40432 0.93326 0.47513 0.0
C198 C 0.23414 0.05473 0.6952 0.0
C199 C 0.23793 0.0479 0.68538 0.0
N200 N 0.19941 0.05516 0.68119 0.0
N201 N 0.19346 0.06639 0.69729 0.0
C202 C 0.17286 0.06648 0.68859 0.0
H203 H 0.25945 0.05131 0.70055 0.0
Co204 Co 0.17707 0.07641 0.7102 0.0
C205 C 0.09058 0.10949 0.70372 0.0
O206 O 0.07259 0.07148 0.70304 0.0
N207 N 0.16164 0.0851 0.72332 0.0
C208 C 0.13503 0.10953 0.73732 0.0
C209 C 0.13999 0.11792 0.72751 0.0
C210 C 0.16994 0.05767 0.73074 0.0
N211 N 0.15373 0.07134 0.73933 0.0
O212 O 0.14256 0.02618 0.7099 0.0
H213 H 0.1282 0.14601 0.72369 0.0
H214 H 0.18801 0.02823 0.72988 0.0
O215 O 0.1298 0.11272 0.70623 0.0
C216 C 0.16503 -0.00683 0.71191 0.0
O217 O 0.20644 -0.00231 0.71345 0.0
N218 N 0.21285 0.12449 0.71053 0.0
C219 C 0.27083 0.1923 0.71014 0.0
C220 C 0.238 0.18946 0.7032 0.0
C221 C 0.20941 0.15536 0.70351 0.0
C222 C 0.24488 0.12626 0.7173 0.0
C223 C 0.274 0.16047 0.71734 0.0
H224 H 0.18508 0.15331 0.69792 0.0
H225 H 0.24812 0.10089 0.72264 0.0
H226 H 0.13905 0.07369 0.6877 0.0
H227 H 0.267 0.0385 0.6816 0.0
H228 H 0.11806 0.12958 0.74249 0.0
H229 H 0.23405 0.21375 0.69761 0.0
H230 H 0.29899 0.16171 0.72282 0.0
C231 C 0.14306 0.96669 0.94475 0.0
C232 C 0.14274 0.96972 0.93477 0.0
N233 N 0.13955 0.92977 0.93107 0.0
N234 N 0.13956 0.92507 0.94736 0.0
C235 C 0.13806 0.90317 0.93886 0.0
H236 H 0.14515 -0.0068 0.94982 0.0
Co237 Co 0.13629 0.90683 0.9603 0.0
C238 C 0.10544 0.81804 0.95701 0.0
O239 O 0.14185 0.8016 0.96014 0.0
N240 N 0.13369 0.8893 0.97337 0.0
C241 C 0.11123 0.86516 0.98772 0.0
C242 C 0.10065 0.87047 0.97806 0.0
C243 C 0.16377 0.89539 0.98034 0.0
N244 N 0.15104 0.88089 0.98916 0.0
O245 O 0.18736 0.8744 0.95852 0.0
H246 H 0.07041 0.86186 0.97471 0.0
H247 H 0.19394 0.91147 0.97906 0.0
O248 O 0.10055 0.8587 0.95659 0.0
C249 C 0.21951 0.89883 0.95962 0.0
O250 O 0.21313 0.93963 0.96164 0.0
N251 N 0.08768 0.9412 0.962 0.0
C252 C 0.02183 0.00157 0.96318 0.0
C253 C 0.01996 0.96808 0.95638 0.0
C254 C 0.05322 0.93818 0.9559 0.0
C255 C 0.09019 0.97358 0.96867 0.0
C256 C 0.05713 0.00391 0.96948 0.0
H257 H 0.05208 0.91374 0.95033 0.0
H258 H 0.11841 0.97644 0.97321 0.0
H259 H 0.13513 0.86856 0.93839 0.0
H260 H 0.14522 -0.00097 0.93056 0.0
H261 H 0.09103 0.8508 0.99323 0.0
H262 H -0.00709 0.96494 0.95146 0.0
H263 H 0.05955 0.0294 0.97482 0.0
C264 C 0.7154 0.89323 0.69459 0.0
C265 C 0.72087 0.89332 0.68467 0.0
N266 N 0.68182 0.89212 0.68045 0.0
N267 N 0.6731 0.89139 0.69665 0.0
C268 C 0.65329 0.89135 0.68788 0.0
H269 H 0.74068 0.89387 0.69999 0.0
Co270 Co 0.65174 0.88816 0.70933 0.0
C271 C 0.56285 0.86052 0.70539 0.0
O272 O 0.54763 0.89691 0.70884 0.0
N273 N 0.63111 0.88547 0.72216 0.0
C274 C 0.60366 0.86272 0.73618 0.0
C275 C 0.6114 0.85224 0.7266 0.0
C276 C 0.63529 0.91555 0.7292 0.0
N277 N 0.61872 0.90265 0.73781 0.0
O278 O 0.6216 0.94046 0.7073 0.0
H279 H 0.60379 0.82197 0.72314 0.0
H280 H 0.65146 0.94585 0.72813 0.0
O281 O 0.60332 0.85435 0.70498 0.0
C282 C 0.64714 0.97145 0.70876 0.0
O283 O 0.6871 0.96317 0.71125 0.0
N284 N 0.68398 0.83839 0.71133 0.0
C285 C 0.74289 0.77141 0.71293 0.0
C286 C 0.71042 0.77024 0.70587 0.0
C287 C 0.68124 0.80409 0.70518 0.0
C288 C 0.71518 0.84007 0.71829 0.0
C289 C 0.74477 0.80646 0.71931 0.0
H290 H 0.65782 0.80365 0.69937 0.0
H291 H 0.71786 0.86817 0.72288 0.0
H292 H 0.61878 0.88994 0.68695 0.0
H293 H 0.75123 0.89465 0.68084 0.0
H294 H 0.58814 0.84242 0.74151 0.0
H295 H 0.7077 0.74342 0.70088 0.0
H296 H 0.76952 0.80841 0.72484 0.0
C297 C 0.81298 0.97001 0.44317 0.0
C298 C 0.81226 0.97209 0.4332 0.0
N299 N 0.81426 0.93174 0.42968 0.0
N300 N 0.81593 0.92857 0.44598 0.0
C301 C 0.8161 0.90578 0.43759 0.0
H302 H 0.81219 -0.00293 0.44811 0.0
Co303 Co 0.82139 0.91286 0.45904 0.0
C304 C 0.84775 0.82257 0.45841 0.0
O305 O 0.81544 0.81318 0.46418 0.0
N306 N 0.82659 0.89826 0.47235 0.0
C307 C 0.8521 0.87674 0.48671 0.0
C308 C 0.86151 0.8824 0.47699 0.0
C309 C 0.79676 0.90262 0.47946 0.0
N310 N 0.81118 0.88939 0.48825 0.0
O311 O 0.76789 0.88378 0.45835 0.0
H312 H 0.89192 0.87532 0.47352 0.0
H313 H 0.76531 0.91626 0.47829 0.0
O314 O 0.85273 0.8611 0.45547 0.0
C315 C 0.73766 0.91046 0.45991 0.0
O316 O 0.74729 0.95107 0.46135 0.0
N317 N 0.87215 0.94398 0.45972 0.0
C318 C 0.94171 -0.00028 0.46003 0.0
C319 C 0.94191 0.96348 0.45395 0.0
C320 C 0.90668 0.93601 0.45387 0.0
C321 C 0.87114 0.97915 0.46562 0.0
C322 C 0.90586 0.00732 0.46597 0.0
H323 H 0.90671 0.90913 0.44889 0.0
H324 H 0.84285 -0.0143 0.46996 0.0
H325 H 0.81862 0.87109 0.43726 0.0
H326 H 0.81012 0.00106 0.42884 0.0
H327 H 0.87366 0.86383 0.49217 0.0
H328 H 0.96918 0.95622 0.44933 0.0
H329 H 0.90436 0.03513 0.4707 0.0
C330 C 0.73987 0.06274 0.19281 0.0
C331 C 0.73715 0.06211 0.18283 0.0
N332 N 0.77718 0.06502 0.17918 0.0
N333 N 0.78137 0.06658 0.19547 0.0
C334 C 0.80357 0.0673 0.187 0.0
H335 H 0.7132 0.06137 0.19784 0.0
Co336 Co 0.79802 0.07214 0.20846 0.0
C337 C 0.88781 0.10075 0.20622 0.0
O338 O 0.9018 0.06603 0.21068 0.0
N339 N 0.81363 0.07692 0.2216 0.0
C340 C 0.83618 0.10079 0.23596 0.0
C341 C 0.83151 0.11063 0.22623 0.0
C342 C 0.80729 0.04729 0.22865 0.0
N343 N 0.82093 0.06081 0.23749 0.0
O344 O 0.82985 0.0201 0.2075 0.0
H345 H 0.84023 0.14063 0.22279 0.0
H346 H 0.79189 0.01674 0.22737 0.0
O347 O 0.84766 0.10585 0.20474 0.0
C348 C 0.80627 -0.01292 0.20818 0.0
O349 O 0.76465 -0.0081 0.20935 0.0
N350 N 0.76476 0.12211 0.20939 0.0
C351 C 0.70767 0.19117 0.2096 0.0
C352 C 0.7418 0.18993 0.20295 0.0
C353 C 0.76995 0.15512 0.20295 0.0
C354 C 0.73171 0.12255 0.2159 0.0
C355 C 0.70298 0.15724 0.21623 0.0
H356 H 0.79489 0.15396 0.1975 0.0
H357 H 0.72714 0.09552 0.22075 0.0
H358 H 0.83813 0.07058 0.18656 0.0
H359 H 0.70799 0.05949 0.17858 0.0
H360 H 0.85003 0.12149 0.24144 0.0
H361 H 0.7468 0.21576 0.19778 0.0
H362 H 0.67689 0.15708 0.22144 0.0
C363 C 0.66154 -0.00612 0.94408 0.0
C364 C 0.66882 -0.01145 0.93431 0.0
N365 N 0.66467 0.02706 0.92991 0.0
N366 N 0.65284 0.03555 0.9459 0.0
C367 C 0.65493 0.05519 0.93711 0.0
H368 H 0.66227 0.9689 0.94956 0.0
Co369 Co 0.64184 0.05471 0.95853 0.0
C370 C 0.6174 0.14555 0.95531 0.0
O371 O 0.64987 0.15889 0.96061 0.0
N372 N 0.63227 0.07276 0.97147 0.0
C373 C 0.60714 0.10037 0.98533 0.0
C374 C 0.59877 0.09382 0.97555 0.0
C375 C 0.65994 0.0663 0.97892 0.0
N376 N 0.64597 0.08327 0.98738 0.0
O377 O 0.69606 0.08279 0.9586 0.0
H378 H 0.57022 0.10399 0.97167 0.0
H379 H 0.68972 0.04876 0.97825 0.0
O380 O 0.61268 0.1055 0.95373 0.0
C381 C 0.72591 0.05657 0.96081 0.0
O382 O 0.71624 0.01611 0.96244 0.0
N383 N 0.58949 0.02524 0.95841 0.0
C384 C 0.5147 0.97607 0.95727 0.0
C385 C 0.52581 0.00489 0.94982 0.0
C386 C 0.5626 0.02968 0.95062 0.0
C387 C 0.58049 -0.00362 0.96558 0.0
C388 C 0.54275 0.97211 0.96527 0.0
H389 H 0.57025 0.05141 0.94475 0.0
H390 H 0.60262 -0.00791 0.97158 0.0
H391 H 0.64985 0.08931 0.93602 0.0
H392 H 0.67601 0.95844 0.9307 0.0
H393 H 0.58667 0.11715 0.99045 0.0
H394 H 0.50679 0.00817 0.94327 0.0
H395 H 0.53578 0.95077 0.97128 0.0
C396 C 0.72152 0.06217 0.84338 0.0
C397 C 0.72921 0.05806 0.85316 0.0
N398 N 0.69154 0.06188 0.85793 0.0
N399 N 0.67922 0.06877 0.84191 0.0
C400 C 0.6616 0.06848 0.85092 0.0
H401 H 0.74522 0.06012 0.83763 0.0
Co402 Co 0.65578 0.07331 0.82946 0.0
C403 C 0.56825 0.10341 0.83407 0.0
O404 O 0.55196 0.06749 0.83069 0.0
N405 N 0.63316 0.07705 0.8168 0.0
C406 C 0.60471 0.10075 0.80293 0.0
C407 C 0.61331 0.11076 0.8125 0.0
C408 C 0.6365 0.04719 0.80969 0.0
N409 N 0.61933 0.06063 0.80117 0.0
O410 O 0.62498 0.02178 0.83168 0.0
H411 H 0.6064 0.14109 0.81604 0.0
H412 H 0.6527 0.01668 0.81061 0.0
O413 O 0.60887 0.10842 0.83426 0.0
C414 C 0.64973 -0.00975 0.82989 0.0
O415 O 0.68912 -0.00224 0.82693 0.0
N416 N 0.68869 0.12213 0.82728 0.0
C417 C 0.74733 0.18843 0.82501 0.0
C418 C 0.71677 0.18974 0.8325 0.0
C419 C 0.68772 0.15622 0.83352 0.0
C420 C 0.7183 0.12009 0.81998 0.0
C421 C 0.74767 0.15337 0.81862 0.0
H422 H 0.6656 0.15689 0.83958 0.0
H423 H 0.71969 0.09209 0.81533 0.0
H424 H 0.62749 0.07176 0.85228 0.0
H425 H 0.76027 0.05269 0.85651 0.0
H426 H 0.58904 0.12151 0.79768 0.0
H427 H 0.71524 0.21657 0.83752 0.0
H428 H 0.77094 0.1513 0.81278 0.0
C429 C 0.65701 0.96914 0.59527 0.0
C430 C 0.65904 0.97272 0.60522 0.0
N431 N 0.65614 0.93304 0.60908 0.0
N432 N 0.6524 0.92745 0.59284 0.0
C433 C 0.65268 0.90598 0.60142 0.0
H434 H 0.65727 -0.00459 0.5901 0.0
Co435 Co 0.64267 0.91012 0.58001 0.0
C436 C 0.61934 0.81846 0.58258 0.0
O437 O 0.65223 0.80551 0.57733 0.0
N438 N 0.63404 0.89378 0.56693 0.0
C439 C 0.60894 0.86751 0.55296 0.0
C440 C 0.60067 0.87314 0.56276 0.0
C441 C 0.66161 0.90092 0.5595 0.0
N442 N 0.64758 0.88482 0.55095 0.0
O443 O 0.69743 0.88273 0.5799 0.0
H444 H 0.57223 0.86265 0.5666 0.0
H445 H 0.69131 0.91829 0.56027 0.0
O446 O 0.61424 0.85837 0.58432 0.0
C447 C 0.72647 0.90992 0.57791 0.0
O448 O 0.71546 0.95029 0.57649 0.0
N449 N 0.5897 0.93901 0.58019 0.0
C450 C 0.51476 -0.01157 0.58172 0.0
C451 C 0.52562 0.95785 0.58884 0.0
C452 C 0.56244 0.93299 0.58783 0.0
C453 C 0.58079 0.96931 0.5733 0.0
C454 C 0.54299 -0.00624 0.57381 0.0
H455 H 0.56996 0.91012 0.5935 0.0
H456 H 0.60316 0.97475 0.5674 0.0
H457 H 0.64828 0.87159 0.60206 0.0
H458 H 0.66188 0.0023 0.60932 0.0
H459 H 0.58846 0.85121 0.54779 0.0
H460 H 0.50649 0.95336 0.59533 0.0
H461 H 0.5362 0.01644 0.56803 0.0
C462 C 0.73383 0.90177 0.34518 0.0
C463 C 0.73182 0.90251 0.35517 0.0
N464 N 0.772 0.89819 0.3587 0.0
N465 N 0.77503 0.89652 0.34239 0.0
C466 C 0.79775 0.895 0.35079 0.0
H467 H 0.70686 0.90389 0.34023 0.0
Co468 Co 0.79105 0.88963 0.32939 0.0
C469 C 0.8811 0.86069 0.33193 0.0
O470 O 0.89574 0.89595 0.32787 0.0
N471 N 0.80641 0.88323 0.31621 0.0
C472 C 0.83001 0.85758 0.30205 0.0
C473 C 0.8244 0.84878 0.3118 0.0
C474 C 0.80091 0.91219 0.30896 0.0
N475 N 0.81534 0.89767 0.30028 0.0
O476 O 0.82232 0.9419 0.33001 0.0
H477 H 0.83283 0.81906 0.31544 0.0
H478 H 0.78572 0.94311 0.30994 0.0
O479 O 0.84081 0.85586 0.33313 0.0
C480 C 0.79738 0.97343 0.3283 0.0
O481 O 0.7564 0.96599 0.32675 0.0
N482 N 0.7579 0.83994 0.32877 0.0
C483 C 0.70025 0.77191 0.32896 0.0
C484 C 0.73482 0.77296 0.3355 0.0
C485 C 0.76325 0.80729 0.33531 0.0
C486 C 0.72442 0.83968 0.32237 0.0
C487 C 0.69539 0.80552 0.32225 0.0
H488 H 0.78859 0.80837 0.34067 0.0
H489 H 0.71976 0.86651 0.31746 0.0
H490 H 0.83221 0.89035 0.35112 0.0
H491 H 0.70302 0.90606 0.35952 0.0
H492 H 0.84433 0.83627 0.29673 0.0
H493 H 0.73997 0.74734 0.34073 0.0
H494 H 0.66898 0.80581 0.31711 0.0
C495 C 0.81397 -0.01268 0.09455 0.0
C496 C 0.81385 -0.01581 0.10453 0.0
N497 N 0.81639 0.02413 0.10826 0.0
N498 N 0.81712 0.02901 0.09197 0.0
C499 C 0.81795 0.05085 0.10049 0.0
H500 H 0.81267 0.96084 0.08946 0.0
Co501 Co 0.82169 0.04711 0.07907 0.0
C502 C 0.85031 0.13681 0.08197 0.0
O503 O 0.81464 0.15192 0.07813 0.0
N504 N 0.82561 0.06464 0.06596 0.0
C505 C 0.84842 0.09086 0.05181 0.0
C506 C 0.85906 0.08343 0.06141 0.0
C507 C 0.79536 0.0605 0.05894 0.0
N508 N 0.80815 0.07654 0.05028 0.0
O509 O 0.7694 0.07815 0.0804 0.0
H510 H 0.88934 0.0912 0.06484 0.0
H511 H 0.76478 0.04514 0.06008 0.0
O512 O 0.85551 0.09636 0.08294 0.0
C513 C 0.73801 0.05321 0.0788 0.0
O514 O 0.74578 0.01252 0.07688 0.0
N515 N 0.8716 0.01419 0.07776 0.0
C516 C 0.94038 0.9569 0.07691 0.0
C517 C 0.93979 -0.00979 0.08377 0.0
C518 C 0.90508 0.01848 0.0841 0.0
C519 C 0.87133 0.98186 0.07106 0.0
C520 C 0.90583 0.95305 0.07042 0.0
H521 H 0.90444 0.04279 0.0897 0.0
H522 H 0.84389 0.97795 0.06631 0.0
H523 H 0.8207 0.08546 0.10099 0.0
H524 H 0.81174 0.95479 0.10872 0.0
H525 H 0.86865 0.10614 0.04643 0.0
H526 H 0.9661 -0.00538 0.08884 0.0
H527 H 0.90514 0.92763 0.06504 0.0
C528 C 0.75713 0.55865 0.84467 0.0
C529 C 0.75273 0.55646 0.8546 0.0
N530 N 0.79222 0.5559 0.8586 0.0
N531 N 0.7992 0.55992 0.84238 0.0
C532 C 0.82001 0.55757 0.85103 0.0
H533 H 0.73128 0.56059 0.83942 0.0
Co534 Co 0.81738 0.56827 0.82956 0.0
C535 C 0.91001 0.58447 0.8313 0.0
O536 O 0.91808 0.55281 0.82523 0.0
N537 N 0.83423 0.57593 0.81642 0.0
C538 C 0.86432 0.59916 0.80268 0.0
C539 C 0.85761 0.60789 0.81241 0.0
C540 C 0.82576 0.54921 0.80889 0.0
N541 N 0.8441 0.56222 0.8005 0.0
O542 O 0.8403 0.5117 0.82941 0.0
H543 H 0.8696 0.63549 0.81633 0.0
H544 H 0.80722 0.52011 0.8095 0.0
O545 O 0.87149 0.59196 0.83395 0.0
C546 C 0.81124 0.48492 0.82719 0.0
O547 O 0.7719 0.499 0.82569 0.0
N548 N 0.7928 0.62305 0.82976 0.0
C549 C 0.74593 0.69934 0.83155 0.0
C550 C 0.7784 0.68868 0.83825 0.0
C551 C 0.80184 0.6509 0.83714 0.0
C552 C 0.76127 0.63229 0.82319 0.0
C553 C 0.73796 0.67069 0.82384 0.0
H554 H 0.82572 0.64299 0.84257 0.0
H555 H 0.75361 0.6094 0.81753 0.0
H556 H 0.8546 0.55887 0.8518 0.0
H557 H 0.72274 0.55562 0.85859 0.0
H558 H 0.88251 0.6185 0.7976 0.0
H559 H 0.78509 0.7085 0.84453 0.0
H560 H 0.71383 0.67748 0.81837 0.0
C561 C 0.64717 0.48614 0.09536 0.0
C562 C 0.64776 0.48373 0.10534 0.0
N563 N 0.64427 0.52387 0.10893 0.0
N564 N 0.64281 0.52755 0.09263 0.0
C565 C 0.64172 0.55001 0.10107 0.0
H566 H 0.64885 0.4593 0.09037 0.0
Co567 Co 0.63677 0.54406 0.07962 0.0
C568 C 0.60771 0.63428 0.08255 0.0
O569 O 0.64344 0.6498 0.0789 0.0
N570 N 0.63143 0.55981 0.06643 0.0
C571 C 0.60777 0.58423 0.05216 0.0
C572 C 0.59815 0.57932 0.0619 0.0
C573 C 0.66049 0.55273 0.05928 0.0
N574 N 0.64719 0.5676 0.05053 0.0
O575 O 0.68903 0.57521 0.08045 0.0
H576 H 0.56865 0.58918 0.06542 0.0
H577 H 0.69052 0.536 0.06039 0.0
O578 O 0.60289 0.59377 0.08334 0.0
C579 C 0.72051 0.55009 0.07885 0.0
O580 O 0.71296 0.50905 0.07739 0.0
N581 N 0.58695 0.51113 0.07878 0.0
C582 C 0.51822 0.45428 0.07861 0.0
C583 C 0.5195 0.48829 0.08529 0.0
C584 C 0.55417 0.5163 0.08527 0.0
C585 C 0.58649 0.47815 0.07224 0.0
C586 C 0.55198 0.44955 0.07194 0.0
H587 H 0.55537 0.54117 0.09075 0.0
H588 H 0.6134 0.47355 0.06737 0.0
H589 H 0.6379 0.58457 0.10145 0.0
H590 H 0.65071 0.45467 0.10964 0.0
H591 H 0.58744 0.59935 0.04674 0.0
H592 H 0.49379 0.49333 0.09049 0.0
H593 H 0.55211 0.42355 0.0667 0.0
C594 C 0.72782 0.40653 0.34544 0.0
C595 C 0.7325 0.41225 0.35527 0.0
N596 N 0.69373 0.40779 0.35951 0.0
N597 N 0.68635 0.39824 0.3434 0.0
C598 C 0.66614 0.39914 0.35214 0.0
H599 H 0.75304 0.40865 0.34005 0.0
Co600 Co 0.66849 0.39136 0.33052 0.0
C601 C 0.5821 0.36004 0.33696 0.0
O602 O 0.56589 0.39885 0.33795 0.0
N603 N 0.65175 0.38573 0.31748 0.0
C604 C 0.62641 0.36265 0.30329 0.0
C605 C 0.63146 0.35293 0.31302 0.0
C606 C 0.65893 0.4147 0.31033 0.0
N607 N 0.64366 0.40167 0.3016 0.0
O608 O 0.63433 0.44175 0.33155 0.0
H609 H 0.6212 0.32371 0.31658 0.0
H610 H 0.6759 0.4445 0.31147 0.0
O611 O 0.62109 0.35505 0.33436 0.0
C612 C 0.65624 0.47571 0.3305 0.0
O613 O 0.69781 0.47265 0.32898 0.0
N614 N 0.70395 0.34303 0.32946 0.0
C615 C 0.7617 0.27467 0.3284 0.0
C616 C 0.72949 0.27544 0.33552 0.0
C617 C 0.70096 0.3099 0.33594 0.0
C618 C 0.73568 0.34349 0.32262 0.0
C619 C 0.76466 0.30919 0.32186 0.0
H620 H 0.67696 0.31032 0.34162 0.0
H621 H 0.73863 0.37067 0.31775 0.0
H622 H 0.63191 0.3949 0.35305 0.0
H623 H 0.76227 0.41923 0.35901 0.0
H624 H 0.61074 0.34266 0.29792 0.0
H625 H 0.72578 0.24915 0.34063 0.0
H626 H 0.78923 0.30974 0.31628 0.0
C627 C 0.81123 0.4858 0.59527 0.0
C628 C 0.81021 0.48964 0.60523 0.0
N629 N 0.81359 0.45004 0.60913 0.0
N630 N 0.81572 0.44401 0.59287 0.0
C631 C 0.81649 0.4228 0.60148 0.0
H632 H 0.8099 0.5119 0.59007 0.0
Co633 Co 0.82291 0.42548 0.58005 0.0
C634 C 0.8493 0.3352 0.58318 0.0
O635 O 0.81542 0.32143 0.57842 0.0
N636 N 0.82945 0.40766 0.56701 0.0
C637 C 0.8543 0.38075 0.55308 0.0
C638 C 0.8634 0.38805 0.56277 0.0
C639 C 0.80056 0.41247 0.55972 0.0
N640 N 0.81454 0.39598 0.55119 0.0
O641 O 0.76992 0.39565 0.58079 0.0
H642 H 0.89289 0.37952 0.56649 0.0
H643 H 0.77006 0.42859 0.56057 0.0
O644 O 0.85477 0.37542 0.58441 0.0
C645 C 0.73881 0.42064 0.57877 0.0
O646 O 0.74679 0.46138 0.57701 0.0
N647 N 0.87363 0.45707 0.57929 0.0
C648 C 0.94355 0.5125 0.57921 0.0
C649 C 0.94085 0.47919 0.58606 0.0
C650 C 0.90559 0.4519 0.586 0.0
C651 C 0.87552 0.48929 0.57257 0.0
C652 C 0.91063 0.51718 0.57232 0.0
H653 H 0.90323 0.42772 0.59161 0.0
H654 H 0.84925 0.4939 0.56751 0.0
H655 H 0.82054 0.38834 0.60214 0.0
H656 H 0.80723 0.51931 0.6093 0.0
H657 H 0.87514 0.36486 0.54789 0.0
H658 H 0.96584 0.47417 0.59144 0.0
H659 H 0.91155 0.54266 0.56695 0.0
C660 C 0.75004 0.40516 0.69456 0.0
C661 C 0.74476 0.40829 0.68465 0.0
N662 N 0.78388 0.40791 0.68047 0.0
N663 N 0.79228 0.40226 0.69664 0.0
C664 C 0.81228 0.40472 0.6879 0.0
H665 H 0.72466 0.40372 0.69992 0.0
Co666 Co 0.8126 0.39272 0.70927 0.0
C667 C 0.90408 0.37153 0.70496 0.0
O668 O 0.91819 0.40592 0.70947 0.0
N669 N 0.83199 0.38445 0.72217 0.0
C670 C 0.86714 0.36435 0.73557 0.0
C671 C 0.85985 0.35527 0.72587 0.0
C672 C 0.8217 0.40977 0.72984 0.0
N673 N 0.84298 0.39868 0.73802 0.0
O674 O 0.83879 0.44765 0.70911 0.0
H675 H 0.87452 0.32939 0.72178 0.0
H676 H 0.79983 0.43674 0.72942 0.0
O677 O 0.86382 0.36494 0.70431 0.0
C678 C 0.81167 0.47618 0.7116 0.0
O679 O 0.77185 0.46475 0.7134 0.0
N680 N 0.78491 0.33941 0.70943 0.0
C681 C 0.73634 0.26423 0.70842 0.0
C682 C 0.76538 0.27507 0.701 0.0
C683 C 0.78977 0.31213 0.70173 0.0
C684 C 0.7563 0.33031 0.71664 0.0
C685 C 0.73221 0.29242 0.71637 0.0
H686 H 0.81111 0.31993 0.6958 0.0
H687 H 0.75168 0.35271 0.72257 0.0
H688 H 0.84675 0.40246 0.68697 0.0
H689 H 0.71444 0.41046 0.68081 0.0
H690 H 0.88857 0.34716 0.74042 0.0
H691 H 0.76879 0.25581 0.69449 0.0
H692 H 0.71065 0.28556 0.72234 0.0
C693 C 0.81132 0.47406 0.9435 0.0
C694 C 0.81163 0.47108 0.93353 0.0
N695 N 0.81715 0.51079 0.92983 0.0
N696 N 0.81708 0.51539 0.94612 0.0
C697 C 0.81998 0.53724 0.93762 0.0
H698 H 0.80817 0.44764 0.94857 0.0
Co699 Co 0.82303 0.53228 0.95909 0.0
C700 C 0.85208 0.62186 0.95651 0.0
O701 O 0.81691 0.63659 0.96063 0.0
N702 N 0.82842 0.5485 0.97226 0.0
C703 C 0.85309 0.57282 0.98643 0.0
C704 C 0.86258 0.5664 0.97674 0.0
C705 C 0.79893 0.54385 0.97942 0.0
N706 N 0.81285 0.55874 0.98811 0.0
O707 O 0.7711 0.56419 0.95814 0.0
H708 H 0.89257 0.57422 0.97319 0.0
H709 H 0.76809 0.52891 0.97837 0.0
O710 O 0.85709 0.58152 0.95529 0.0
C711 C 0.7391 0.54024 0.95988 0.0
O712 O 0.74571 0.49916 0.9616 0.0
N713 N 0.87255 0.4986 0.96003 0.0
C714 C 0.94161 0.44163 0.96074 0.0
C715 C 0.94067 0.47513 0.95391 0.0
C716 C 0.90581 0.50323 0.95366 0.0
C717 C 0.8724 0.4658 0.96662 0.0
C718 C 0.90703 0.43716 0.96719 0.0
H719 H 0.90506 0.52798 0.94814 0.0
H720 H 0.84509 0.46164 0.97139 0.0
H721 H 0.82544 0.57152 0.93715 0.0
H722 H 0.80802 0.44193 0.92931 0.0
H723 H 0.87407 0.58726 0.99179 0.0
H724 H 0.96698 0.48004 0.94887 0.0
H725 H 0.90659 0.41157 0.97255 0.0
C726 C 0.7225 0.5647 0.19325 0.0
C727 C 0.72465 0.5643 0.18328 0.0
N728 N 0.68441 0.56726 0.17974 0.0
N729 N 0.68113 0.5685 0.19605 0.0
C730 C 0.65844 0.56935 0.18763 0.0
H731 H 0.74948 0.5631 0.19821 0.0
Co732 Co 0.66561 0.57336 0.20916 0.0
C733 C 0.57658 0.60374 0.20424 0.0
O734 O 0.56014 0.56492 0.20405 0.0
N735 N 0.651 0.57739 0.22236 0.0
C736 C 0.62803 0.60036 0.23677 0.0
C737 C 0.63238 0.61065 0.22707 0.0
C738 C 0.65788 0.54746 0.22935 0.0
N739 N 0.64403 0.56049 0.23821 0.0
O740 O 0.63301 0.52218 0.20816 0.0
H741 H 0.62279 0.6406 0.22368 0.0
H742 H 0.67353 0.51696 0.22799 0.0
O743 O 0.61645 0.6089 0.20594 0.0
C744 C 0.65663 0.4889 0.20861 0.0
O745 O 0.69835 0.49328 0.20961 0.0
N746 N 0.69966 0.6225 0.21016 0.0
C747 C 0.7577 0.69022 0.21028 0.0
C748 C 0.72298 0.69011 0.2038 0.0
C749 C 0.69433 0.656 0.20384 0.0
C750 C 0.73321 0.62193 0.21655 0.0
C751 C 0.76244 0.65597 0.21684 0.0
H752 H 0.66882 0.65579 0.19851 0.0
H753 H 0.7378 0.59458 0.22131 0.0
H754 H 0.62384 0.57242 0.18727 0.0
H755 H 0.75359 0.5617 0.17894 0.0
H756 H 0.61367 0.62059 0.2423 0.0
H757 H 0.71794 0.71629 0.19871 0.0
H758 H 0.78895 0.65506 0.22195 0.0
C759 C 0.653 0.4813 0.44529 0.0
C760 C 0.65842 0.487 0.43547 0.0
N761 N 0.65488 0.44849 0.43106 0.0
N762 N 0.64583 0.43942 0.44713 0.0
C763 C 0.64708 0.42001 0.43831 0.0
H764 H 0.65455 0.50606 0.4508 0.0
Co765 Co 0.63952 0.41925 0.45982 0.0
C766 C 0.60996 0.33066 0.45612 0.0
O767 O 0.64523 0.31486 0.46001 0.0
N768 N 0.63424 0.40003 0.47277 0.0
C769 C 0.61033 0.37381 0.48683 0.0
C770 C 0.60067 0.38065 0.47715 0.0
C771 C 0.66355 0.40501 0.47996 0.0
N772 N 0.65008 0.38908 0.48858 0.0
O773 O 0.69128 0.38741 0.45845 0.0
H774 H 0.57082 0.37249 0.47357 0.0
H775 H 0.6938 0.42127 0.47899 0.0
O776 O 0.60511 0.37125 0.4554 0.0
C777 C 0.72331 0.41116 0.4603 0.0
O778 O 0.71675 0.4517 0.46257 0.0
N779 N 0.59022 0.45291 0.46117 0.0
C780 C 0.52202 0.51072 0.46235 0.0
C781 C 0.52275 0.47881 0.45515 0.0
C782 C 0.55719 0.45025 0.45467 0.0
C783 C 0.59048 0.48405 0.46815 0.0
C784 C 0.55627 0.51307 0.46896 0.0
H785 H 0.55789 0.42689 0.44885 0.0
H786 H 0.61765 0.48676 0.47302 0.0
H787 H 0.64367 0.38571 0.43726 0.0
H788 H 0.66459 0.5173 0.43186 0.0
H789 H 0.58971 0.3586 0.49215 0.0
H790 H 0.49666 0.47558 0.44998 0.0
H791 H 0.55684 0.5374 0.47459 0.0
C792 C 0.22485 0.39386 0.19187 0.0
C793 C 0.22615 0.39409 0.18188 0.0
N794 N 0.18551 0.39346 0.17852 0.0
N795 N 0.18358 0.39249 0.19483 0.0
C796 C 0.16019 0.39287 0.18653 0.0
H797 H 0.25229 0.39423 0.1967 0.0
Co798 Co 0.16769 0.38965 0.20794 0.0
C799 C 0.07876 0.35871 0.20375 0.0
O800 O 0.06174 0.39731 0.20443 0.0
N801 N 0.15246 0.38746 0.22108 0.0
C802 C 0.12926 0.36624 0.23558 0.0
C803 C 0.13402 0.35477 0.22597 0.0
C804 C 0.15877 0.41831 0.22786 0.0
N805 N 0.14486 0.4063 0.23678 0.0
O806 O 0.1345 0.44055 0.20653 0.0
H807 H 0.12496 0.32434 0.22277 0.0
H808 H 0.17413 0.44867 0.22629 0.0
O809 O 0.11912 0.35343 0.20481 0.0
C810 C 0.15734 0.47409 0.20587 0.0
O811 O 0.19939 0.4705 0.20599 0.0
N812 N 0.20237 0.34099 0.20944 0.0
C813 C 0.26005 0.27282 0.21099 0.0
C814 C 0.22649 0.27164 0.20419 0.0
C815 C 0.19797 0.30604 0.20352 0.0
C816 C 0.23525 0.34315 0.21599 0.0
C817 C 0.26423 0.30899 0.21699 0.0
H818 H 0.17305 0.30505 0.19805 0.0
H819 H 0.23918 0.37167 0.2204 0.0
H820 H 0.12543 0.39208 0.18634 0.0
H821 H 0.25479 0.39527 0.17742 0.0
H822 H 0.11502 0.3466 0.24121 0.0
H823 H 0.22189 0.24402 0.19951 0.0
H824 H 0.28984 0.31098 0.22231 0.0
C825 C 0.31274 0.48023 0.94214 0.0
C826 C 0.31039 0.48189 0.93216 0.0
N827 N 0.31279 0.44145 0.92871 0.0
N828 N 0.31725 0.43897 0.945 0.0
C829 C 0.31655 0.4159 0.93664 0.0
H830 H 0.31182 0.50744 0.94704 0.0
Co831 Co 0.32403 0.42303 0.95803 0.0
C832 C 0.35754 0.33528 0.95288 0.0
O833 O 0.31959 0.31699 0.95313 0.0
N834 N 0.33008 0.40766 0.97121 0.0
C835 C 0.3545 0.38326 0.98541 0.0
C836 C 0.36371 0.38842 0.97566 0.0
C837 C 0.30115 0.41425 0.97841 0.0
N838 N 0.31494 0.39939 0.98712 0.0
O839 O 0.27378 0.38887 0.9572 0.0
H840 H 0.39317 0.37882 0.97208 0.0
H841 H 0.27079 0.43045 0.97734 0.0
O842 O 0.36108 0.37545 0.95446 0.0
C843 C 0.24103 0.41236 0.95876 0.0
O844 O 0.24642 0.45378 0.96018 0.0
N845 N 0.3718 0.4588 0.95891 0.0
C846 C 0.43905 0.5172 0.95981 0.0
C847 C 0.43916 0.48418 0.95287 0.0
C848 C 0.40522 0.45531 0.95253 0.0
C849 C 0.37045 0.49136 0.96555 0.0
C850 C 0.40421 0.52069 0.96622 0.0
H851 H 0.40545 0.43066 0.947 0.0
H852 H 0.34302 0.49463 0.97033 0.0
H853 H 0.31949 0.38124 0.93636 0.0
H854 H 0.30669 0.51062 0.92778 0.0
H855 H 0.37512 0.36819 0.99078 0.0
H856 H 0.46576 0.48004 0.94787 0.0
H857 H 0.40304 0.54585 0.97167 0.0
C858 C 0.22275 0.57055 0.69216 0.0
C859 C 0.22198 0.57041 0.68217 0.0
N860 N 0.26281 0.57118 0.67893 0.0
N861 N 0.26387 0.57192 0.69524 0.0
C862 C 0.28769 0.57173 0.687 0.0
H863 H 0.19507 0.57017 0.69692 0.0
Co864 Co 0.2795 0.57505 0.70834 0.0
C865 C 0.36881 0.60564 0.70614 0.0
O866 O 0.38406 0.56965 0.7098 0.0
N867 N 0.29452 0.57761 0.72149 0.0
C868 C 0.31635 0.59963 0.73603 0.0
C869 C 0.31092 0.61118 0.72644 0.0
C870 C 0.29007 0.54616 0.72821 0.0
N871 N 0.3032 0.55865 0.73716 0.0
O872 O 0.31286 0.52405 0.70705 0.0
H873 H 0.31817 0.64221 0.72329 0.0
H874 H 0.2766 0.51497 0.72657 0.0
O875 O 0.32839 0.61068 0.7051 0.0
C876 C 0.29207 0.48963 0.70563 0.0
O877 O 0.25003 0.49114 0.70487 0.0
N878 N 0.24497 0.62398 0.7097 0.0
C879 C 0.18852 0.69326 0.71121 0.0
C880 C 0.22188 0.6936 0.70436 0.0
C881 C 0.24977 0.65867 0.70372 0.0
C882 C 0.21214 0.62251 0.71627 0.0
C883 C 0.18378 0.65722 0.71725 0.0
H884 H 0.27459 0.65911 0.69823 0.0
H885 H 0.20789 0.59422 0.72074 0.0
H886 H 0.32246 0.57275 0.68692 0.0
H887 H 0.19358 0.56929 0.67762 0.0
H888 H 0.32935 0.61988 0.74171 0.0
H889 H 0.22695 0.72104 0.69964 0.0
H890 H 0.15831 0.65582 0.72261 0.0
C891 C 0.14977 0.49249 0.44236 0.0
C892 C 0.15045 0.4912 0.43237 0.0
N893 N 0.14698 0.53172 0.429 0.0
N894 N 0.14539 0.53358 0.44532 0.0
C895 C 0.14433 0.557 0.437 0.0
H896 H 0.15149 0.46509 0.4472 0.0
Co897 Co 0.13926 0.54789 0.45842 0.0
C898 C 0.11048 0.63754 0.45818 0.0
O899 O 0.14202 0.6472 0.46414 0.0
N900 N 0.13338 0.56097 0.47179 0.0
C901 C 0.10753 0.57998 0.48629 0.0
C902 C 0.09823 0.57566 0.47653 0.0
C903 C 0.1632 0.55589 0.47887 0.0
N904 N 0.1486 0.56764 0.48775 0.0
O905 O 0.19198 0.57848 0.45795 0.0
H906 H 0.06772 0.58279 0.47309 0.0
H907 H 0.19478 0.54272 0.47763 0.0
O908 O 0.10671 0.59918 0.45504 0.0
C909 C 0.22299 0.55254 0.45937 0.0
O910 O 0.21461 0.51148 0.46056 0.0
N911 N 0.08938 0.51543 0.45889 0.0
C912 C 0.02095 0.45835 0.459 0.0
C913 C 0.02008 0.49496 0.45302 0.0
C914 C 0.05475 0.52311 0.45304 0.0
C915 C 0.09114 0.47979 0.46465 0.0
C916 C 0.05698 0.45094 0.46489 0.0
H917 H 0.05416 0.5504 0.44817 0.0
H918 H 0.11953 0.47351 0.46898 0.0
H919 H 0.14052 0.5916 0.4368 0.0
H920 H 0.1535 0.46265 0.42791 0.0
H921 H 0.08581 0.59177 0.49184 0.0
H922 H -0.00738 0.5021 0.44844 0.0
H923 H 0.05895 0.42288 0.46955 0.0
C924 C 0.22644 0.56648 0.3447 0.0
C925 C 0.22825 0.56578 0.35469 0.0
N926 N 0.18795 0.56958 0.35816 0.0
N927 N 0.18524 0.57122 0.34185 0.0
C928 C 0.16232 0.57243 0.35022 0.0
H929 H 0.25353 0.56461 0.33979 0.0
Co930 Co 0.16936 0.57754 0.32882 0.0
C931 C 0.07934 0.60696 0.33141 0.0
O932 O 0.0642 0.57143 0.32758 0.0
N933 N 0.15422 0.58328 0.31563 0.0
C934 C 0.13145 0.6081 0.30132 0.0
C935 C 0.1363 0.6174 0.31107 0.0
C936 C 0.16038 0.55399 0.30849 0.0
N937 N 0.1465 0.56803 0.29971 0.0
O938 O 0.13777 0.52549 0.3296 0.0
H939 H 0.12752 0.64726 0.3146 0.0
H940 H 0.17569 0.52322 0.30964 0.0
O941 O 0.11973 0.6117 0.33244 0.0
C942 C 0.1624 0.49338 0.32828 0.0
O943 O 0.20352 0.49991 0.32674 0.0
N944 N 0.20271 0.62713 0.32809 0.0
C945 C 0.26111 0.69446 0.32848 0.0
C946 C 0.22621 0.69372 0.33491 0.0
C947 C 0.19739 0.65978 0.33461 0.0
C948 C 0.2363 0.62731 0.32171 0.0
C949 C 0.26572 0.66119 0.32169 0.0
H950 H 0.17195 0.65883 0.33995 0.0
H951 H 0.24088 0.60054 0.31679 0.0
H952 H 0.12779 0.57652 0.35051 0.0
H953 H 0.257 0.56252 0.35908 0.0
H954 H 0.11742 0.62907 0.29588 0.0
H955 H 0.22131 0.71915 0.34019 0.0
H956 H 0.29237 0.66079 0.31662 0.0
C957 C 0.1456 0.47794 0.09448 0.0
C958 C 0.14634 0.47949 0.10447 0.0
N959 N 0.14322 0.43904 0.10789 0.0
N960 N 0.14148 0.43676 0.09159 0.0
C961 C 0.14069 0.4136 0.09993 0.0
H962 H 0.14732 0.50517 0.08959 0.0
Co963 Co 0.13653 0.42074 0.07855 0.0
C964 C 0.10476 0.3318 0.08115 0.0
O965 O 0.14043 0.31558 0.07756 0.0
N966 N 0.13239 0.40549 0.06539 0.0
C967 C 0.10904 0.38332 0.05096 0.0
C968 C 0.0987 0.38815 0.06064 0.0
C969 C 0.16259 0.41126 0.05843 0.0
N970 N 0.14935 0.39786 0.04956 0.0
O971 O 0.18724 0.38708 0.07972 0.0
H972 H 0.06836 0.37992 0.06399 0.0
H973 H 0.19335 0.42602 0.05982 0.0
O974 O 0.10055 0.37239 0.08204 0.0
C975 C 0.22089 0.40981 0.07921 0.0
O976 O 0.21725 0.45159 0.07806 0.0
N977 N 0.08796 0.45585 0.07741 0.0
C978 C 0.02004 0.51415 0.07652 0.0
C979 C 0.01993 0.4806 0.08334 0.0
C980 C 0.05418 0.4518 0.08367 0.0
C981 C 0.08913 0.48869 0.07083 0.0
C982 C 0.05504 0.51798 0.07016 0.0
H983 H 0.05405 0.42697 0.08917 0.0
H984 H 0.11678 0.49238 0.06614 0.0
H985 H 0.13745 0.37898 0.10016 0.0
H986 H 0.14941 0.50814 0.10888 0.0
H987 H 0.08845 0.3698 0.04541 0.0
H988 H -0.00676 0.4762 0.08829 0.0
H989 H 0.05621 0.54356 0.06482 0.0
C990 C 0.2238 0.39619 0.8448 0.0
C991 C 0.22236 0.39822 0.85479 0.0
N992 N 0.26292 0.39649 0.8582 0.0
N993 N 0.26503 0.39262 0.8419 0.0
C994 C 0.28829 0.39348 0.85023 0.0
H995 H 0.19648 0.39651 0.83993 0.0
Co996 Co 0.28147 0.38586 0.82893 0.0
C997 C 0.37136 0.35692 0.83192 0.0
O998 O 0.38656 0.39216 0.82796 0.0
N999 N 0.29733 0.3798 0.81579 0.0
C1000 C 0.32177 0.35559 0.80158 0.0
C1001 C 0.31646 0.34615 0.81132 0.0
C1002 C 0.29085 0.40886 0.80861 0.0
N1003 N 0.30577 0.39525 0.7999 0.0
O1004 O 0.31307 0.43775 0.82969 0.0
H1005 H 0.32588 0.31658 0.81489 0.0
H1006 H 0.27464 0.43922 0.80968 0.0
O1007 O 0.33092 0.35196 0.83279 0.0
C1008 C 0.2891 0.47002 0.82802 0.0
O1009 O 0.24794 0.46389 0.8264 0.0
N1010 N 0.2482 0.33619 0.82816 0.0
C1011 C 0.19105 0.26773 0.82816 0.0
C1012 C 0.22496 0.26925 0.83487 0.0
C1013 C 0.25314 0.30376 0.83476 0.0
C1014 C 0.21542 0.33541 0.82157 0.0
C1015 C 0.18667 0.30096 0.82134 0.0
H1016 H 0.27788 0.30519 0.84026 0.0
H1017 H 0.21108 0.36202 0.81658 0.0
H1018 H 0.32297 0.39096 0.85046 0.0
H1019 H 0.1937 0.40108 0.85921 0.0
H1020 H 0.3368 0.33503 0.7962 0.0
H1021 H 0.22974 0.24389 0.84018 0.0
H1022 H 0.16081 0.30079 0.81606 0.0
C1023 C 0.3161 0.48519 0.59535 0.0
C1024 C 0.31483 0.48332 0.60533 0.0
N1025 N 0.31742 0.52369 0.60881 0.0
N1026 N 0.32009 0.5265 0.59252 0.0
C1027 C 0.3202 0.54941 0.60089 0.0
H1028 H 0.31467 0.45811 0.59043 0.0
Co1029 Co 0.32495 0.54296 0.5795 0.0
C1030 C 0.35961 0.63062 0.58359 0.0
O1031 O 0.32242 0.64965 0.58211 0.0
N1032 N 0.32887 0.55871 0.56639 0.0
C1033 C 0.35113 0.58244 0.55201 0.0
C1034 C 0.362 0.57708 0.56165 0.0
C1035 C 0.29848 0.5529 0.55949 0.0
N1036 N 0.31104 0.56722 0.55064 0.0
O1037 O 0.27524 0.578 0.58081 0.0
H1038 H 0.39227 0.58578 0.56497 0.0
H1039 H 0.268 0.5376 0.56091 0.0
O1040 O 0.36279 0.58987 0.58294 0.0
C1041 C 0.24115 0.55583 0.58049 0.0
O1042 O 0.24401 0.51393 0.57948 0.0
N1043 N 0.37246 0.50654 0.57818 0.0
C1044 C 0.43914 0.44701 0.57702 0.0
C1045 C 0.43994 0.47979 0.584 0.0
C1046 C 0.40635 0.50927 0.58446 0.0
C1047 C 0.37058 0.47437 0.57145 0.0
C1048 C 0.4041 0.4445 0.57063 0.0
H1049 H 0.40712 0.53364 0.59006 0.0
H1050 H 0.34286 0.47174 0.56674 0.0
H1051 H 0.3229 0.58407 0.60119 0.0
H1052 H 0.31161 0.45453 0.6097 0.0
H1053 H 0.37119 0.59686 0.54648 0.0
H1054 H 0.46677 0.48317 0.58896 0.0
H1055 H 0.40254 0.4196 0.56514 0.0
H1056 H 0.34214 0.94732 0.31707 0.0
H1057 H 0.3008 0.72724 0.34449 0.0
H1058 H 0.31503 0.93376 0.34764 0.0
H1059 H 0.28982 0.74439 0.31344 0.0
H1060 H 0.33527 0.79745 0.3457 0.0
H1061 H 0.35167 0.86904 0.31587 0.0
C1062 C 0.3399 0.92785 0.32359 0.0
C1063 C 0.32772 0.94634 0.33246 0.0
C1064 C 0.32624 0.78546 0.33859 0.0
C1065 C 0.33783 0.85769 0.33116 0.0
C1066 C 0.30653 0.74551 0.3379 0.0
C1067 C 0.29143 0.7308 0.32889 0.0
C1068 C 0.33035 0.811 0.33022 0.0
C1069 C 0.30051 0.75501 0.32054 0.0
C1070 C 0.34508 0.88334 0.3229 0.0
C1071 C 0.32447 0.92026 0.3407 0.0
N1072 N 0.31855 0.79454 0.32143 0.0
N1073 N 0.32894 0.87704 0.33983 0.0
H1074 H 0.27843 0.09477 0.56595 0.0
H1075 H 0.43968 0.96465 0.59082 0.0
H1076 H 0.26476 0.0778 0.5969 0.0
H1077 H 0.49513 0.06979 0.57446 0.0
H1078 H 0.37387 0.00524 0.5923 0.0
H1079 H 0.3568 0.09018 0.56777 0.0
C1080 C 0.2922 0.09234 0.57318 0.0
C1081 C 0.2657 0.08682 0.58131 0.0
C1082 C 0.40083 0.0197 0.58855 0.0
C1083 C 0.35406 0.07951 0.58335 0.0
C1084 C 0.43883 -0.00342 0.58771 0.0
C1085 C 0.47402 0.01368 0.5826 0.0
C1086 C 0.39683 0.05957 0.58394 0.0
C1087 C 0.469 0.05466 0.57833 0.0
C1088 C 0.33672 0.08959 0.57421 0.0
C1089 C 0.28452 0.08255 0.5905 0.0
N1090 N 0.43071 0.07588 0.57891 0.0
N1091 N 0.32773 0.07751 0.59125 0.0
H1092 H 0.10951 0.00719 0.81926 0.0
H1093 H 0.16613 0.21766 0.81281 0.0
H1094 H 0.16442 0.03239 0.84746 0.0
H1095 H 0.15052 0.23258 0.8438 0.0
H1096 H 0.13549 0.14566 0.81397 0.0
H1097 H 0.09494 0.08458 0.81733 0.0
C1098 C 0.11711 0.02897 0.82516 0.0
C1099 C 0.13856 0.01406 0.83348 0.0
C1100 C 0.13699 0.16523 0.82047 0.0
C1101 C 0.12313 0.10165 0.83128 0.0
C1102 C 0.15469 0.20635 0.8198 0.0
C1103 C 0.16184 0.23041 0.82826 0.0
C1104 C 0.12677 0.14837 0.82968 0.0
C1105 C 0.14659 0.21438 0.83715 0.0
C1106 C 0.10934 0.07303 0.82401 0.0
C1107 C 0.1482 0.04308 0.84091 0.0
N1108 N 0.13081 0.1739 0.83767 0.0
N1109 N 0.14075 0.08562 0.8396 0.0
H1110 H 0.18853 0.86647 0.09223 0.0
H1111 H -0.01555 0.93238 0.06063 0.0
H1112 H 0.19099 0.92557 0.06386 0.0
H1113 H -0.01724 0.91666 0.09183 0.0
H1114 H 0.05624 0.90015 0.06022 0.0
H1115 H 0.11031 0.85662 0.09052 0.0
C1116 C 0.17277 0.87592 0.08553 0.0
C1117 C 0.19563 0.89722 0.07821 0.0
C1118 C 0.0397 0.90281 0.06713 0.0
C1119 C 0.10741 0.88608 0.07618 0.0
C1120 C -0.00131 0.92101 0.06736 0.0
C1121 C 0.97832 0.92824 0.07631 0.0
C1122 C 0.06034 0.89202 0.07591 0.0
C1123 C -0.00189 0.91277 0.08481 0.0
C1124 C 0.12835 0.87048 0.08456 0.0
C1125 C 0.17417 0.90929 0.06968 0.0
N1126 N 0.03847 0.89612 0.08443 0.0
N1127 N 0.13115 0.90395 0.06893 0.0
H1128 H 0.28241 0.23217 0.22785 0.0
H1129 H 0.34814 0.02017 0.199 0.0
H1130 H 0.3009 0.22672 0.19676 0.0
H1131 H 0.28209 0.02459 0.22655 0.0
H1132 H 0.35945 0.09844 0.20005 0.0
H1133 H 0.3126 0.15966 0.22923 0.0
C1134 C 0.29408 0.21622 0.22136 0.0
C1135 C 0.28819 0.23479 0.21216 0.0
C1136 C 0.34361 0.08193 0.20598 0.0
C1137 C 0.32209 0.15206 0.21366 0.0
C1138 C 0.33728 0.0375 0.20539 0.0
C1139 C 0.31359 0.01661 0.21263 0.0
C1140 C 0.32659 0.10485 0.21393 0.0
C1141 C 0.29995 0.04 0.22076 0.0
C1142 C 0.31108 0.17482 0.22214 0.0
C1143 C 0.3039 0.21284 0.20396 0.0
N1144 N 0.30628 0.08301 0.22116 0.0
N1145 N 0.31942 0.17218 0.20488 0.0
H1146 H 0.19105 0.09149 0.44632 0.0
H1147 H 0.98038 0.0335 0.47616 0.0
H1148 H 0.18734 0.05819 0.47674 0.0
H1149 H -0.01057 0.03055 0.44482 0.0
H1150 H 0.05008 0.06919 0.47684 0.0
H1151 H 0.11207 0.09581 0.44624 0.0
C1152 C 0.17354 0.08675 0.45305 0.0
C1153 C 0.19507 0.07417 0.46153 0.0
C1154 C 0.03641 0.06148 0.4698 0.0
C1155 C 0.10582 0.07841 0.46151 0.0
C1156 C -0.00342 0.04125 0.46941 0.0
C1157 C 0.9797 0.0281 0.46043 0.0
C1158 C 0.0595 0.06841 0.46116 0.0
C1159 C 0.00202 0.03902 0.45191 0.0
C1160 C 0.12867 0.08889 0.453 0.0
C1161 C 0.17146 0.06771 0.47006 0.0
N1162 N 0.04117 0.05794 0.45249 0.0
N1163 N 0.12796 0.06937 0.46981 0.0
H1164 H 0.11236 0.94928 0.69947 0.0
H1165 H 0.16714 0.73388 0.72814 0.0
H1166 H 0.17572 0.94081 0.7273 0.0
H1167 H 0.14909 0.74121 0.69705 0.0
H1168 H 0.1395 0.8073 0.72963 0.0
H1169 H 0.09669 0.87176 0.7004 0.0
C1170 C 0.12156 0.93132 0.70591 0.0
C1171 C 0.14576 0.95076 0.71327 0.0
C1172 C 0.14053 0.7924 0.72251 0.0
C1173 C 0.12801 0.8633 0.71442 0.0
C1174 C 0.15607 0.75045 0.72166 0.0
C1175 C 0.16144 0.73206 0.71243 0.0
C1176 C 0.1305 0.81592 0.71407 0.0
C1177 C 0.14653 0.75488 0.70427 0.0
C1178 C 0.1128 0.88729 0.70643 0.0
C1179 C 0.15736 0.92654 0.72145 0.0
N1180 N 0.13252 0.79605 0.70525 0.0
N1181 N 0.14877 0.88391 0.72176 0.0
H1182 H 0.4946 0.89653 0.96536 0.0
H1183 H 0.2605 0.8992 0.94242 0.0
H1184 H 0.4398 -0.00082 0.94794 0.0
H1185 H 0.27772 0.87029 0.97284 0.0
H1186 H 0.3387 0.90377 0.94057 0.0
H1187 H 0.42496 0.85987 0.96481 0.0
C1188 C 0.4685 0.91139 0.96137 0.0
C1189 C 0.47373 0.95138 0.95668 0.0
C1190 C 0.32536 0.89456 0.94755 0.0
C1191 C 0.39529 0.90803 0.95558 0.0
C1192 C 0.28098 0.89162 0.94858 0.0
C1193 C 0.26328 0.88423 0.95777 0.0
C1194 C 0.3517 0.89028 0.95578 0.0
C1195 C 0.2907 0.87572 0.96563 0.0
C1196 C 0.42907 0.88999 0.96096 0.0
C1197 C 0.43854 0.9681 0.95145 0.0
N1198 N 0.33389 0.87974 0.96451 0.0
N1199 N 0.40107 0.9463 0.95103 0.0
H1200 H 0.65537 0.24614 0.71589 0.0
H1201 H 0.65334 0.01429 0.69185 0.0
H1202 H 0.75944 0.18865 0.69945 0.0
H1203 H 0.61792 0.02931 0.72196 0.0
H1204 H 0.66206 0.09238 0.69056 0.0
H1205 H 0.61641 0.1778 0.71475 0.0
C1206 C 0.67009 0.21965 0.71201 0.0
C1207 C 0.71102 0.22374 0.70773 0.0
C1208 C 0.65057 0.07868 0.69733 0.0
C1209 C 0.6653 0.14695 0.70595 0.0
C1210 C 0.64524 0.03439 0.69803 0.0
C1211 C 0.6348 0.01599 0.707 0.0
C1212 C 0.6456 0.10421 0.70567 0.0
C1213 C 0.6257 0.04287 0.71491 0.0
C1214 C 0.64744 0.18102 0.71126 0.0
C1215 C 0.72769 0.18818 0.70263 0.0
N1216 N 0.63209 0.08594 0.71413 0.0
N1217 N 0.7047 0.15154 0.70186 0.0
H1218 H 0.68565 0.86252 0.44809 0.0
H1219 H 0.48375 0.93675 0.47945 0.0
H1220 H 0.6898 0.92792 0.47573 0.0
H1221 H 0.48096 0.91871 0.44832 0.0
H1222 H 0.55486 0.90308 0.47993 0.0
H1223 H 0.60726 0.85454 0.44999 0.0
C1224 C 0.67019 0.87385 0.45468 0.0
C1225 C 0.69361 0.89633 0.46172 0.0
C1226 C 0.53818 0.90554 0.47302 0.0
C1227 C 0.6053 0.88708 0.46398 0.0
C1228 C 0.49757 0.92457 0.47276 0.0
C1229 C 0.47717 0.93157 0.4638 0.0
C1230 C 0.55837 0.89368 0.46427 0.0
C1231 C 0.49639 0.91501 0.45534 0.0
C1232 C 0.62571 0.86941 0.45576 0.0
C1233 C 0.67257 0.91073 0.47011 0.0
N1234 N 0.53641 0.89756 0.45575 0.0
N1235 N 0.62951 0.9062 0.47098 0.0
H1236 H 0.82821 0.94211 0.22425 0.0
H1237 H 0.79718 0.727 0.19467 0.0
H1238 H 0.8225 0.93389 0.19302 0.0
H1239 H 0.78513 0.73757 0.22584 0.0
H1240 H 0.83095 0.79772 0.19424 0.0
H1241 H 0.83717 0.86393 0.22514 0.0
C1242 C 0.83039 0.92377 0.21758 0.0
C1243 C 0.82459 0.94386 0.20856 0.0
C1244 C 0.8218 0.78425 0.20121 0.0
C1245 C 0.83343 0.85491 0.20947 0.0
C1246 C 0.80249 0.74396 0.20145 0.0
C1247 C 0.7874 0.72714 0.21028 0.0
C1248 C 0.82546 0.80806 0.20984 0.0
C1249 C 0.79589 0.74975 0.21888 0.0
C1250 C 0.83526 0.87924 0.21807 0.0
C1251 C 0.82705 0.91917 0.20009 0.0
N1252 N 0.81352 0.7896 0.21843 0.0
N1253 N 0.83057 0.87573 0.20075 0.0
H1254 H -0.0171 0.04587 0.94842 0.0
H1255 H 0.77142 0.04216 0.97713 0.0
H1256 H 0.9782 0.02623 0.97947 0.0
H1257 H 0.77965 0.10186 0.9489 0.0
H1258 H 0.84854 0.05061 0.97918 0.0
H1259 H 0.91248 0.08078 0.94912 0.0
C1260 C 0.96736 0.04988 0.95542 0.0
C1261 C -0.01439 0.03221 0.96387 0.0
C1262 C 0.83362 0.06299 0.97262 0.0
C1263 C 0.90511 0.07147 0.96472 0.0
C1264 C 0.78956 0.05816 0.97147 0.0
C1265 C 0.76966 0.07105 0.96281 0.0
C1266 C 0.85814 0.07912 0.96487 0.0
C1267 C 0.79424 0.09143 0.95566 0.0
C1268 C 0.92729 0.06998 0.95583 0.0
C1269 C 0.96485 0.03895 0.97278 0.0
N1270 N 0.83764 0.09379 0.95673 0.0
N1271 N 0.92511 0.05712 0.97294 0.0
H1272 H 0.77258 0.77559 0.83964 0.0
H1273 H 0.61795 0.93026 0.81759 0.0
H1274 H 0.66189 0.71708 0.82598 0.0
H1275 H 0.66053 0.95041 0.84705 0.0
H1276 H 0.62916 0.85255 0.81969 0.0
H1277 H 0.73178 0.84126 0.84163 0.0
C1278 C 0.73952 0.77591 0.8372 0.0
C1279 C 0.72085 0.73998 0.83269 0.0
C1280 C 0.6341 0.87381 0.82583 0.0
C1281 C 0.67445 0.8166 0.83464 0.0
C1282 C 0.62745 0.91793 0.82465 0.0
C1283 C 0.6381 0.94614 0.83221 0.0
C1284 C 0.65292 0.85873 0.83446 0.0
C1285 C 0.65163 0.92925 0.84113 0.0
C1286 C 0.71626 0.81373 0.83834 0.0
C1287 C 0.67818 0.7439 0.82933 0.0
N1288 N 0.65992 0.88656 0.84194 0.0
N1289 N 0.65662 0.78188 0.83021 0.0
H1290 H -0.01562 0.919 0.59154 0.0
H1291 H 0.77316 0.92763 0.56194 0.0
H1292 H 0.98043 0.9469 0.5608 0.0
H1293 H 0.78056 0.86455 0.58982 0.0
H1294 H 0.85079 0.9214 0.56029 0.0
H1295 H 0.91362 0.88566 0.59029 0.0
C1296 C 0.96891 0.91724 0.58449 0.0
C1297 C -0.01239 0.93665 0.57631 0.0
C1298 C 0.83562 0.90788 0.56668 0.0
C1299 C 0.90673 0.89904 0.57483 0.0
C1300 C 0.79129 0.91146 0.56761 0.0
C1301 C 0.77094 0.89691 0.57606 0.0
C1302 C 0.85987 0.89116 0.57444 0.0
C1303 C 0.79547 0.87622 0.58321 0.0
C1304 C 0.92865 0.89803 0.58376 0.0
C1305 C 0.96685 0.93273 0.5673 0.0
N1306 N 0.83903 0.87495 0.58237 0.0
N1307 N 0.92701 0.91525 0.56685 0.0
H1308 H 0.78597 0.02261 0.3124 0.0
H1309 H 0.80393 0.23068 0.3428 0.0
H1310 H 0.84392 0.02301 0.34088 0.0
H1311 H 0.78156 0.23061 0.31182 0.0
H1312 H 0.83276 0.15764 0.34161 0.0
H1313 H 0.7982 0.09958 0.31109 0.0
C1314 C 0.80232 0.03898 0.31828 0.0
C1315 C 0.81373 0.01694 0.32678 0.0
C1316 C 0.82267 0.17397 0.33503 0.0
C1317 C 0.82625 0.10529 0.32555 0.0
C1318 C 0.80604 0.21557 0.33571 0.0
C1319 C 0.78934 0.23613 0.32743 0.0
C1320 C 0.82177 0.15266 0.32602 0.0
C1321 C 0.79366 0.21568 0.3184 0.0
C1322 C 0.80932 0.08295 0.31755 0.0
C1323 C 0.83466 0.03927 0.33422 0.0
N1324 N 0.80851 0.17463 0.31797 0.0
N1325 N 0.83927 0.08268 0.33355 0.0
H1326 H 0.69047 0.09892 0.09199 0.0
H1327 H 0.47935 0.03817 0.06259 0.0
H1328 H 0.68611 0.04274 0.06334 0.0
H1329 H 0.48496 0.0498 0.09386 0.0
H1330 H 0.55074 0.07006 0.06151 0.0
H1331 H 0.61196 0.10951 0.09131 0.0
C1332 C 0.67309 0.09023 0.08545 0.0
C1333 C 0.69412 0.0695 0.07776 0.0
C1334 C 0.53589 0.06656 0.0686 0.0
C1335 C 0.60561 0.08154 0.07689 0.0
C1336 C 0.49508 0.04855 0.06921 0.0
C1337 C 0.47685 0.04024 0.07835 0.0
C1338 C 0.55858 0.07602 0.07717 0.0
C1339 C 0.49862 0.05446 0.0867 0.0
C1340 C 0.62852 0.09611 0.08507 0.0
C1341 C 0.67067 0.05846 0.06945 0.0
N1342 N 0.53881 0.07091 0.08593 0.0
N1343 N 0.62754 0.06423 0.06926 0.0
H1344 H 0.86055 0.42952 0.83797 0.0
H1345 H 0.76541 0.23193 0.80828 0.0
H1346 H 0.78434 0.4385 0.81183 0.0
H1347 H 0.79623 0.22782 0.83888 0.0
H1348 H 0.80057 0.30198 0.80712 0.0
H1349 H 0.8638 0.35087 0.83588 0.0
C1350 C 0.84558 0.41493 0.83167 0.0
C1351 C 0.82136 0.43984 0.82517 0.0
C1352 C 0.80055 0.28521 0.81403 0.0
C1353 C 0.82534 0.35121 0.82267 0.0
C1354 C 0.78068 0.24524 0.81468 0.0
C1355 C 0.77702 0.22485 0.82374 0.0
C1356 C 0.81671 0.30466 0.8225 0.0
C1357 C 0.79744 0.24329 0.83182 0.0
C1358 C 0.84737 0.37031 0.83048 0.0
C1359 C 0.80254 0.41996 0.8171 0.0
N1360 N 0.81579 0.28264 0.83106 0.0
N1361 N 0.80455 0.37668 0.81612 0.0
H1362 H 0.97665 0.53718 0.06005 0.0
H1363 H 0.76933 0.60076 0.09079 0.0
H1364 H 0.97658 0.5549 0.09119 0.0
H1365 H 0.77012 0.53486 0.06321 0.0
H1366 H 0.84728 0.61281 0.08912 0.0
H1367 H 0.90395 0.56722 0.05937 0.0
C1368 C 0.96185 0.54866 0.0667 0.0
C1369 C -0.01801 0.54253 0.07572 0.0
C1370 C 0.82997 0.5969 0.08331 0.0
C1371 C 0.899 0.57622 0.07501 0.0
C1372 C 0.78573 0.59015 0.08426 0.0
C1373 C 0.76393 0.56638 0.07718 0.0
C1374 C 0.85175 0.58024 0.07517 0.0
C1375 C 0.78617 0.55297 0.06886 0.0
C1376 C 0.92033 0.56558 0.06632 0.0
C1377 C 0.96147 0.55804 0.08413 0.0
N1378 N 0.82898 0.55976 0.06812 0.0
N1379 N 0.92063 0.57341 0.0836 0.0
H1380 H 0.66229 0.73389 0.34466 0.0
H1381 H 0.633 0.5207 0.31455 0.0
H1382 H 0.67192 0.72512 0.31341 0.0
H1383 H 0.63727 0.52709 0.34582 0.0
H1384 H 0.62203 0.59862 0.31389 0.0
H1385 H 0.62865 0.66309 0.34501 0.0
C1386 C 0.65656 0.71729 0.33785 0.0
C1387 C 0.67096 0.73465 0.32902 0.0
C1388 C 0.62403 0.58295 0.32092 0.0
C1389 C 0.63289 0.65372 0.32935 0.0
C1390 C 0.63003 0.53855 0.32128 0.0
C1391 C 0.63609 0.51809 0.33024 0.0
C1392 C 0.62521 0.6068 0.3296 0.0
C1393 C 0.63256 0.54213 0.33879 0.0
C1394 C 0.63724 0.67699 0.33805 0.0
C1395 C 0.66177 0.71254 0.32039 0.0
N1396 N 0.62815 0.58553 0.33826 0.0
N1397 N 0.64416 0.6727 0.32078 0.0
H1398 H 0.48133 0.40259 0.59132 0.0
H1399 H 0.69033 0.43632 0.56293 0.0
H1400 H 0.48349 0.42797 0.56047 0.0
H1401 H 0.68974 0.36814 0.59024 0.0
H1402 H 0.61452 0.42026 0.56082 0.0
H1403 H 0.55499 0.37542 0.59032 0.0
C1404 C 0.49699 0.40121 0.58428 0.0
C1405 C 0.47696 0.41856 0.576 0.0
C1406 C 0.63091 0.40785 0.56719 0.0
C1407 C 0.56113 0.38836 0.57483 0.0
C1408 C 0.67417 0.41721 0.5684 0.0
C1409 C 0.69573 0.40402 0.57683 0.0
C1410 C 0.60865 0.38666 0.57466 0.0
C1411 C 0.67377 0.37909 0.58368 0.0
C1412 C 0.53897 0.38562 0.5837 0.0
C1413 C 0.4981 0.41539 0.56704 0.0
N1414 N 0.63088 0.37217 0.58258 0.0
N1415 N 0.53956 0.40172 0.56673 0.0
H1416 H 0.78839 0.73315 0.69831 0.0
H1417 H 0.79987 0.52147 0.72807 0.0
H1418 H 0.76662 0.72736 0.72928 0.0
H1419 H 0.85004 0.53169 0.69895 0.0
H1420 H 0.80303 0.59942 0.72969 0.0
H1421 H 0.82581 0.66404 0.69914 0.0
C1422 C 0.79226 0.71757 0.70531 0.0
C1423 C 0.77351 0.7352 0.7137 0.0
C1424 C 0.81443 0.58482 0.72301 0.0
C1425 C 0.81578 0.65618 0.71471 0.0
C1426 C 0.81259 0.54035 0.7221 0.0
C1427 C 0.82418 0.52073 0.71333 0.0
C1428 C 0.82646 0.60976 0.71494 0.0
C1429 C 0.84067 0.54607 0.70581 0.0
C1430 C 0.81381 0.67828 0.7058 0.0
C1431 C 0.78019 0.71447 0.72263 0.0
N1432 N 0.84027 0.58962 0.70669 0.0
N1433 N 0.79995 0.67549 0.72286 0.0
H1434 H 0.68901 0.52882 0.9756 0.0
H1435 H 0.4836 0.55836 0.9454 0.0
H1436 H 0.69179 0.59103 0.94758 0.0
H1437 H 0.48199 0.53787 0.97645 0.0
H1438 H 0.55714 0.58501 0.94666 0.0
H1439 H 0.61295 0.54578 0.97703 0.0
C1440 C 0.67355 0.54696 0.96984 0.0
C1441 C 0.69613 0.55819 0.96142 0.0
C1442 C 0.54032 0.57595 0.95325 0.0
C1443 C 0.60877 0.57632 0.96279 0.0
C1444 C 0.49842 0.56058 0.95252 0.0
C1445 C 0.47732 0.54479 0.9608 0.0
C1446 C 0.56132 0.57461 0.96229 0.0
C1447 C 0.49739 0.5492 0.96987 0.0
C1448 C 0.63013 0.55677 0.97065 0.0
C1449 C 0.67503 0.5817 0.95415 0.0
N1450 N 0.53875 0.56268 0.97034 0.0
N1451 N 0.63199 0.58901 0.95488 0.0
H1452 H 0.66874 0.2298 0.19406 0.0
H1453 H 0.63466 0.44273 0.22448 0.0
H1454 H 0.68058 0.23817 0.22528 0.0
H1455 H 0.64109 0.43702 0.19322 0.0
H1456 H 0.62699 0.36441 0.22503 0.0
H1457 H 0.63469 0.3007 0.19388 0.0
C1458 C 0.66344 0.24635 0.2009 0.0
C1459 C 0.67848 0.22879 0.20968 0.0
C1460 C 0.62875 0.3803 0.21803 0.0
C1461 C 0.63991 0.30986 0.20952 0.0
C1462 C 0.63283 0.42491 0.21773 0.0
C1463 C 0.63847 0.44575 0.2088 0.0
C1464 C 0.63119 0.35668 0.20933 0.0
C1465 C 0.6366 0.42171 0.20023 0.0
C1466 C 0.64392 0.28672 0.2008 0.0
C1467 C 0.66987 0.25088 0.21835 0.0
N1468 N 0.63383 0.3782 0.2007 0.0
N1469 N 0.65196 0.29079 0.21804 0.0
H1470 H -0.01698 0.42427 0.47516 0.0
H1471 H 0.76954 0.37329 0.44576 0.0
H1472 H 0.97284 0.42754 0.44384 0.0
H1473 H 0.77604 0.41246 0.47579 0.0
H1474 H 0.8482 0.36422 0.4457 0.0
H1475 H 0.91253 0.39024 0.47597 0.0
C1476 C 0.96645 0.41681 0.46844 0.0
C1477 C -0.01685 0.42977 0.45943 0.0
C1478 C 0.83215 0.37343 0.45238 0.0
C1479 C 0.9025 0.39146 0.46031 0.0
C1480 C 0.78748 0.37835 0.45242 0.0
C1481 C 0.76697 0.39397 0.46077 0.0
C1482 C 0.85576 0.38402 0.46077 0.0
C1483 C 0.79112 0.40064 0.46921 0.0
C1484 C 0.92618 0.39754 0.46891 0.0
C1485 C 0.96037 0.41922 0.45095 0.0
N1486 N 0.8344 0.3961 0.46897 0.0
N1487 N 0.92075 0.40136 0.4516 0.0
H1488 H 0.16539 0.73678 0.1944 0.0
H1489 H 0.12267 0.51555 0.22134 0.0
H1490 H 0.17652 0.71825 0.22541 0.0
H1491 H 0.15226 0.53008 0.19091 0.0
H1492 H 0.11348 0.59386 0.22265 0.0
H1493 H 0.13126 0.66646 0.19303 0.0
C1494 C 0.15984 0.71816 0.20095 0.0
C1495 C 0.17485 0.73256 0.21 0.0
C1496 C 0.12051 0.57976 0.21561 0.0
C1497 C 0.13616 0.65228 0.20847 0.0
C1498 C 0.12543 0.53523 0.21486 0.0
C1499 C 0.13824 0.51699 0.20601 0.0
C1500 C 0.12855 0.60566 0.20744 0.0
C1501 C 0.14229 0.54337 0.19784 0.0
C1502 C 0.14028 0.67816 0.20016 0.0
C1503 C 0.1659 0.7079 0.21829 0.0
N1504 N 0.13798 0.58658 0.19877 0.0
N1505 N 0.14795 0.66836 0.21731 0.0
H1506 H -0.01495 0.41795 0.97717 0.0
H1507 H 0.19404 0.36212 0.94638 0.0
H1508 H -0.0137 0.40289 0.94596 0.0
H1509 H 0.19127 0.42286 0.97455 0.0
H1510 H 0.11642 0.34788 0.94786 0.0
H1511 H 0.05799 0.38868 0.97785 0.0
C1512 C 0.00018 0.40726 0.97049 0.0
C1513 C 0.98024 0.41395 0.96147 0.0
C1514 C 0.13324 0.36305 0.95383 0.0
C1515 C 0.06361 0.38118 0.96218 0.0
C1516 C 0.17732 0.37101 0.953 0.0
C1517 C 0.19842 0.39399 0.96032 0.0
C1518 C 0.11092 0.37783 0.96209 0.0
C1519 C 0.17577 0.40528 0.96874 0.0
C1520 C 0.04186 0.39077 0.97088 0.0
C1521 C 0.00123 0.39942 0.95303 0.0
N1522 N 0.13311 0.39746 0.96936 0.0
N1523 N 0.04223 0.3845 0.95357 0.0
H1524 H 0.31339 0.22592 0.69459 0.0
H1525 H 0.33259 0.45211 0.72097 0.0
H1526 H 0.29228 0.24511 0.7253 0.0
H1527 H 0.29731 0.43205 0.691 0.0
H1528 H 0.34959 0.375 0.72244 0.0
H1529 H 0.34107 0.29915 0.69337 0.0
C1530 C 0.31572 0.24523 0.70113 0.0
C1531 C 0.29938 0.23013 0.71 0.0
C1532 C 0.33955 0.38784 0.71546 0.0
C1533 C 0.33069 0.31359 0.70865 0.0
C1534 C 0.33007 0.43164 0.71461 0.0
C1535 C 0.31344 0.44777 0.70586 0.0
C1536 C 0.33268 0.36067 0.70745 0.0
C1537 C 0.30999 0.42037 0.69786 0.0
C1538 C 0.33152 0.2869 0.70043 0.0
C1539 C 0.30403 0.2559 0.7183 0.0
N1540 N 0.31916 0.37795 0.69886 0.0
N1541 N 0.31834 0.29695 0.71739 0.0
H1542 H 0.47759 0.5315 0.47882 0.0
H1543 H 0.27348 0.60367 0.44791 0.0
H1544 H 0.47985 0.5541 0.44784 0.0
H1545 H 0.27138 0.53445 0.47509 0.0
H1546 H 0.35157 0.61385 0.44989 0.0
H1547 H 0.40549 0.56286 0.4795 0.0
C1548 C 0.46342 0.54424 0.47221 0.0
C1549 C 0.48404 0.53916 0.46322 0.0
C1550 C 0.3336 0.59762 0.45554 0.0
C1551 C 0.40169 0.57438 0.46392 0.0
C1552 C 0.28928 0.59194 0.45442 0.0
C1553 C 0.26659 0.56778 0.46129 0.0
C1554 C 0.35456 0.5795 0.46365 0.0
C1555 C 0.28808 0.55291 0.4696 0.0
C1556 C 0.42224 0.56194 0.47259 0.0
C1557 C 0.46432 0.55633 0.45488 0.0
N1558 N 0.33097 0.55868 0.47051 0.0
N1559 N 0.42377 0.57244 0.45539 0.0
H1560 H 0.17143 0.23721 0.34412 0.0
H1561 H 0.16285 0.44406 0.31221 0.0
H1562 H 0.18429 0.23684 0.31287 0.0
H1563 H 0.12736 0.44342 0.34249 0.0
H1564 H 0.15384 0.36637 0.31163 0.0
H1565 H 0.13924 0.3089 0.34325 0.0
C1566 C 0.16669 0.25199 0.33706 0.0
C1567 C 0.18152 0.23169 0.32857 0.0
C1568 C 0.14682 0.38307 0.31836 0.0
C1569 C 0.14508 0.31366 0.32751 0.0
C1570 C 0.15175 0.42747 0.31866 0.0
C1571 C 0.14575 0.4497 0.3274 0.0
C1572 C 0.13752 0.36068 0.32699 0.0
C1573 C 0.13208 0.42704 0.33562 0.0
C1574 C 0.14813 0.2928 0.33655 0.0
C1575 C 0.17372 0.25161 0.31959 0.0
N1576 N 0.1294 0.38342 0.33528 0.0
N1577 N 0.15689 0.29195 0.31931 0.0
H1578 H 0.4793 0.41557 0.09409 0.0
H1579 H 0.26691 0.38656 0.06341 0.0
H1580 H 0.47151 0.42772 0.06287 0.0
H1581 H 0.27204 0.39267 0.09468 0.0
H1582 H 0.34498 0.3765 0.06296 0.0
H1583 H 0.40821 0.3826 0.09419 0.0
C1584 C 0.46285 0.41055 0.08724 0.0
C1585 C 0.48061 0.42544 0.07849 0.0
C1586 C 0.32899 0.37872 0.06995 0.0
C1587 C 0.39935 0.38809 0.07854 0.0
C1588 C 0.28452 0.38418 0.07019 0.0
C1589 C 0.26364 0.39045 0.07909 0.0
C1590 C 0.35245 0.38046 0.07868 0.0
C1591 C 0.2874 0.38777 0.0877 0.0
C1592 C 0.42237 0.39163 0.08729 0.0
C1593 C 0.45864 0.41715 0.06978 0.0
N1594 N 0.33082 0.38371 0.08728 0.0
N1595 N 0.41865 0.39986 0.07005 0.0
H1596 H 0.3417 0.51418 0.8404 0.0
H1597 H 0.28811 0.73033 0.81181 0.0
H1598 H 0.27574 0.52339 0.81288 0.0
H1599 H 0.30227 0.72224 0.84299 0.0
H1600 H 0.31553 0.65673 0.81041 0.0
H1601 H 0.35718 0.59178 0.83951 0.0
C1602 C 0.33171 0.53237 0.83405 0.0
C1603 C 0.30687 0.51313 0.82678 0.0
C1604 C 0.3138 0.67156 0.81754 0.0
C1605 C 0.32471 0.60052 0.82565 0.0
C1606 C 0.29839 0.71356 0.81833 0.0
C1607 C 0.29197 0.73173 0.82755 0.0
C1608 C 0.32269 0.64786 0.82601 0.0
C1609 C 0.3058 0.70874 0.83577 0.0
C1610 C 0.34045 0.57639 0.83355 0.0
C1611 C 0.29444 0.53757 0.81869 0.0
N1612 N 0.31976 0.66754 0.83484 0.0
N1613 N 0.30315 0.58017 0.81838 0.0
H1614 H 0.9817 0.55123 0.5948 0.0
H1615 H 0.19622 0.58292 0.56481 0.0
H1616 H -0.00801 0.53803 0.56363 0.0
H1617 H 0.18942 0.5702 0.59597 0.0
H1618 H 0.11805 0.59273 0.56424 0.0
H1619 H 0.05296 0.58383 0.59515 0.0
C1620 C -0.00125 0.55588 0.58801 0.0
C1621 C 0.9816 0.54083 0.57921 0.0
C1622 C 0.13374 0.58919 0.57124 0.0
C1623 C 0.06299 0.57792 0.57955 0.0
C1624 C 0.17825 0.58391 0.57156 0.0
C1625 C 0.19867 0.57581 0.58044 0.0
C1626 C 0.10985 0.58561 0.57988 0.0
C1627 C 0.17443 0.57661 0.589 0.0
C1628 C 0.0393 0.57462 0.58821 0.0
C1629 C 0.00434 0.54873 0.57059 0.0
N1630 N 0.13104 0.58067 0.5885 0.0
N1631 N 0.04436 0.56594 0.571 0.0
H1632 H 0.49669 0.35663 0.34201 0.0
H1633 H 0.4772 0.10498 0.33071 0.0
H1634 H 0.60433 0.27566 0.33419 0.0
H1635 H 0.37091 0.18352 0.34046 0.0
H1636 H 0.52504 0.16633 0.33288 0.0
H1637 H 0.45078 0.29295 0.34239 0.0
C1638 C 0.51077 0.32549 0.34045 0.0
C1639 C 0.55442 0.32163 0.33801 0.0
C1640 C 0.49129 0.17006 0.33461 0.0
C1641 C 0.50198 0.24857 0.33838 0.0
C1642 C 0.46393 0.13499 0.33338 0.0
C1643 C 0.41984 0.13907 0.33534 0.0
C1644 C 0.47447 0.20969 0.33777 0.0
C1645 C 0.40458 0.1788 0.33882 0.0
C1646 C 0.48453 0.28911 0.34066 0.0
C1647 C 0.57086 0.28033 0.33607 0.0
N1648 N 0.43176 0.21261 0.33985 0.0
N1649 N 0.54461 0.24555 0.33624 0.0
H1650 H 0.10128 0.22866 0.59432 0.0
H1651 H 0.85172 0.24756 0.58086 0.0
H1652 H 0.02309 0.12113 0.58548 0.0
H1653 H 0.92715 0.35378 0.59152 0.0
H1654 H 0.91288 0.19964 0.58372 0.0
H1655 H 0.03679 0.27403 0.59453 0.0
C1656 C 0.07057 0.21446 0.59252 0.0
C1657 C 0.06777 0.17105 0.58981 0.0
C1658 C 0.91594 0.23339 0.58551 0.0
C1659 C -0.00618 0.22286 0.58998 0.0
C1660 C 0.88095 0.26079 0.58389 0.0
C1661 C 0.88431 0.30492 0.58586 0.0
C1662 C 0.95473 0.25022 0.58909 0.0
C1663 C 0.92305 0.32011 0.58982 0.0
C1664 C 0.03373 0.24039 0.59263 0.0
C1665 C 0.02699 0.15443 0.58758 0.0
N1666 N 0.95681 0.29292 0.59121 0.0
N1667 N -0.00822 0.18039 0.58763 0.0
H1668 H 0.91992 0.63846 0.84688 0.0
H1669 H 0.02893 0.8197 0.81686 0.0
H1670 H 0.96966 0.61142 0.81822 0.0
H1671 H 0.07841 0.79735 0.84578 0.0
H1672 H -0.00994 0.75136 0.81781 0.0
H1673 H 0.9639 0.7042 0.84737 0.0
C1674 C 0.94074 0.64592 0.8408 0.0
C1675 C 0.94166 0.61928 0.83255 0.0
C1676 C 0.00918 0.76174 0.82396 0.0
C1677 C -0.01004 0.69477 0.8329 0.0
C1678 C 0.03093 0.8008 0.82348 0.0
C1679 C 0.05666 0.81417 0.83128 0.0
C1680 C 0.01225 0.7365 0.83239 0.0
C1681 C 0.05876 0.78808 0.83962 0.0
C1682 C 0.96555 0.68333 0.84107 0.0
C1683 C 0.96856 0.63068 0.82478 0.0
N1684 N 0.03645 0.75051 0.84001 0.0
N1685 N -0.009 0.66805 0.82506 0.0
H1686 H 0.43587 0.85329 0.08762 0.0
H1687 H 0.52443 0.61156 0.08634 0.0
H1688 H 0.35474 0.74248 0.08356 0.0
H1689 H 0.60581 0.72268 0.08302 0.0
H1690 H 0.46237 0.65901 0.08807 0.0
H1691 H 0.49831 0.80573 0.0887 0.0
C1692 C 0.43101 0.81893 0.08708 0.0
C1693 C 0.38986 0.80191 0.08545 0.0
C1694 C 0.49383 0.67304 0.08703 0.0
C1695 C 0.46153 0.74724 0.08664 0.0
C1696 C 0.52944 0.64595 0.08609 0.0
C1697 C 0.57056 0.66308 0.08449 0.0
C1698 C 0.49921 0.71773 0.08643 0.0
C1699 C 0.57476 0.708 0.08419 0.0
C1700 C 0.46681 0.79181 0.08765 0.0
C1701 C 0.3858 0.75707 0.08477 0.0
N1702 N 0.53951 0.73377 0.08512 0.0
N1703 N 0.42118 0.73132 0.08534 0.0
H1704 H 0.49027 0.60717 0.19999 0.0
H1705 H 0.47121 0.85976 0.21026 0.0
H1706 H 0.59896 0.68823 0.20641 0.0
H1707 H 0.3651 0.7818 0.20053 0.0
H1708 H 0.51912 0.7979 0.20821 0.0
H1709 H 0.44425 0.67117 0.19955 0.0
C1710 C 0.50454 0.63838 0.20124 0.0
C1711 C 0.54856 0.6422 0.20327 0.0
C1712 C 0.48539 0.79444 0.20644 0.0
C1713 C 0.49602 0.71564 0.20284 0.0
C1714 C 0.45801 0.82981 0.20761 0.0
C1715 C 0.41393 0.82603 0.20563 0.0
C1716 C 0.46858 0.75484 0.20335 0.0
C1717 C 0.39875 0.78633 0.20219 0.0
C1718 C 0.47825 0.67496 0.20098 0.0
C1719 C 0.56523 0.68359 0.20482 0.0
N1720 N 0.42592 0.75225 0.20124 0.0
N1721 N 0.53894 0.71858 0.20463 0.0
H1722 H 0.60851 0.24248 0.45598 0.0
H1723 H 0.35233 0.22979 0.45412 0.0
H1724 H 0.52686 0.35356 0.45182 0.0
H1725 H 0.43539 0.11825 0.45375 0.0
H1726 H 0.41567 0.27571 0.45256 0.0
H1727 H 0.54552 0.19629 0.45443 0.0
C1728 C 0.57744 0.25717 0.45464 0.0
C1729 C 0.57305 0.30203 0.45408 0.0
C1730 C 0.41996 0.24115 0.45272 0.0
C1731 C 0.50057 0.24931 0.45241 0.0
C1732 C 0.38378 0.2149 0.45361 0.0
C1733 C 0.38843 0.17003 0.45411 0.0
C1734 C 0.46116 0.22244 0.45241 0.0
C1735 C 0.43007 0.1526 0.4534 0.0
C1736 C 0.54143 0.23076 0.45376 0.0
C1737 C 0.5319 0.31919 0.45231 0.0
N1738 N 0.46475 0.1788 0.45268 0.0
N1739 N 0.49725 0.29286 0.45164 0.0
H1740 H 0.11718 0.19266 0.70597 0.0
H1741 H 0.88489 0.29475 0.69623 0.0
H1742 H 0.00584 0.11773 0.69819 0.0
H1743 H -0.00885 0.36593 0.70828 0.0
H1744 H 0.93149 0.23204 0.69457 0.0
H1745 H 0.07412 0.258 0.70463 0.0
C1746 C 0.08372 0.18986 0.7039 0.0
C1747 C 0.06507 0.14941 0.70225 0.0
C1748 C 0.94474 0.26146 0.6975 0.0
C1749 C 0.01544 0.22458 0.70072 0.0
C1750 C 0.91815 0.29747 0.69843 0.0
C1751 C 0.9339 0.33574 0.70251 0.0
C1752 C -0.01243 0.26356 0.70065 0.0
C1753 C 0.97748 0.33716 0.70514 0.0
C1754 C 0.05912 0.22732 0.70316 0.0
C1755 C 0.02155 0.14809 0.69958 0.0
N1756 N 0.00268 0.30149 0.70424 0.0
N1757 N -0.00183 0.18511 0.69895 0.0
H1758 H 0.9348 0.60024 0.95163 0.0
H1759 H 0.02137 0.84173 0.9543 0.0
H1760 H 0.85328 0.71005 0.95735 0.0
H1761 H 0.10398 0.72998 0.95563 0.0
H1762 H 0.95927 0.79463 0.9527 0.0
H1763 H -0.00359 0.64815 0.95033 0.0
C1764 C 0.92966 0.63447 0.95249 0.0
C1765 C 0.8887 0.65107 0.95466 0.0
C1766 C -0.009 0.78042 0.95327 0.0
C1767 C 0.95942 0.70615 0.95321 0.0
C1768 C 0.02659 0.8073 0.95414 0.0
C1769 C 0.06807 0.78981 0.95515 0.0
C1770 C -0.00319 0.73565 0.95334 0.0
C1771 C 0.07263 0.74489 0.95494 0.0
C1772 C 0.96499 0.66179 0.9518 0.0
C1773 C 0.88425 0.69577 0.95573 0.0
N1774 N 0.03743 0.71936 0.95409 0.0
N1775 N 0.91919 0.72173 0.95503 0.0
H1776 H 0.47468 0.86121 0.70479 0.0
H1777 H 0.45689 0.60552 0.70567 0.0
H1778 H 0.5841 0.77634 0.70192 0.0
H1779 H 0.347 0.68961 0.70253 0.0
H1780 H 0.50409 0.66772 0.70395 0.0
H1781 H 0.42718 0.79898 0.70354 0.0
C1782 C 0.48873 0.8296 0.70379 0.0
C1783 C 0.5335 0.82406 0.70351 0.0
C1784 C 0.46964 0.6725 0.70354 0.0
C1785 C 0.47933 0.7526 0.70218 0.0
C1786 C 0.44267 0.63698 0.70454 0.0
C1787 C 0.39789 0.64231 0.70429 0.0
C1788 C 0.45173 0.71377 0.70238 0.0
C1789 C 0.3813 0.68389 0.70277 0.0
C1790 C 0.46159 0.79406 0.70308 0.0
C1791 C 0.54985 0.78228 0.70218 0.0
N1792 N 0.40819 0.71803 0.70197 0.0
N1793 N 0.52281 0.74816 0.70167 0.0
H1794 H 0.87385 0.76207 0.47145 0.0
H1795 H 0.05644 0.64675 0.44253 0.0
H1796 H 0.90461 0.81468 0.44324 0.0
H1797 H 0.08029 0.69483 0.47147 0.0
H1798 H -0.009 0.69182 0.44172 0.0
H1799 H 0.93931 0.71808 0.47072 0.0
C1800 C 0.89387 0.76365 0.465 0.0
C1801 C 0.8838 0.79187 0.45736 0.0
C1802 C 0.011 0.69263 0.44818 0.0
C1803 C 0.9582 0.74151 0.4565 0.0
C1804 C 0.04814 0.66713 0.44864 0.0
C1805 C 0.07393 0.66754 0.45703 0.0
C1806 C -0.00102 0.71719 0.4563 0.0
C1807 C 0.06164 0.69407 0.46481 0.0
C1808 C 0.9313 0.7389 0.46465 0.0
C1809 C 0.91132 0.7932 0.44926 0.0
N1810 N 0.02462 0.71729 0.46433 0.0
N1811 N 0.9473 0.76808 0.449 0.0
H1812 H -0.00801 0.35624 0.20011 0.0
H1813 H 0.97553 0.10219 0.20824 0.0
H1814 H 0.10202 0.27383 0.20491 0.0
H1815 H 0.86791 0.1819 0.19976 0.0
H1816 H 0.02283 0.16424 0.20644 0.0
H1817 H 0.94627 0.2925 0.1994 0.0
C1818 C 0.0066 0.32478 0.20095 0.0
C1819 C 0.05092 0.32048 0.2026 0.0
C1820 C -0.01109 0.16806 0.20489 0.0
C1821 C -0.00128 0.24733 0.20186 0.0
C1822 C 0.96186 0.13259 0.20591 0.0
C1823 C 0.91757 0.13678 0.2042 0.0
C1824 C 0.97155 0.20817 0.20221 0.0
C1825 C 0.90177 0.17705 0.20118 0.0
C1826 C 0.98048 0.28836 0.20054 0.0
C1827 C 0.06805 0.27881 0.20361 0.0
N1828 N 0.92864 0.2112 0.20036 0.0
N1829 N 0.04191 0.24395 0.20329 0.0
H1830 H 0.44112 0.36141 0.95458 0.0
H1831 H 0.54033 0.12626 0.94671 0.0
H1832 H 0.36444 0.24929 0.94841 0.0
H1833 H 0.61214 0.23269 0.9585 0.0
H1834 H 0.47809 0.17343 0.9448 0.0
H1835 H 0.50584 0.31712 0.95365 0.0
C1836 C 0.43782 0.32753 0.95294 0.0
C1837 C 0.39708 0.30904 0.95162 0.0
C1838 C 0.50756 0.18657 0.94773 0.0
C1839 C 0.47146 0.25803 0.95056 0.0
C1840 C 0.5433 0.15968 0.94879 0.0
C1841 C 0.58161 0.17537 0.95286 0.0
C1842 C 0.51002 0.22963 0.95072 0.0
C1843 C 0.5833 0.21907 0.95538 0.0
C1844 C 0.4749 0.30223 0.95244 0.0
C1845 C 0.39506 0.26491 0.94953 0.0
N1846 N 0.54795 0.24459 0.95433 0.0
N1847 N 0.4317 0.2409 0.9491 0.0
H1848 H 0.59144 0.18729 0.83711 0.0
H1849 H 0.34944 0.27472 0.83701 0.0
H1850 H 0.48026 0.10514 0.83521 0.0
H1851 H 0.45966 0.35557 0.83196 0.0
H1852 H 0.39738 0.21334 0.83928 0.0
H1853 H 0.54394 0.24977 0.83819 0.0
C1854 C 0.55705 0.18224 0.83706 0.0
C1855 C 0.53984 0.1408 0.836 0.0
C1856 C 0.4111 0.24457 0.83775 0.0
C1857 C 0.48527 0.21245 0.83718 0.0
C1858 C 0.38374 0.27978 0.83649 0.0
C1859 C 0.40048 0.32047 0.83422 0.0
C1860 C 0.45564 0.24995 0.83679 0.0
C1861 C 0.44529 0.3248 0.83362 0.0
C1862 C 0.52995 0.21804 0.83762 0.0
C1863 C 0.49497 0.13645 0.83595 0.0
N1864 N 0.47131 0.28993 0.83485 0.0
N1865 N 0.46925 0.17184 0.83648 0.0
H1866 H 0.44333 0.60304 0.58304 0.0
H1867 H 0.54161 0.8376 0.59091 0.0
H1868 H 0.36608 0.71712 0.58732 0.0
H1869 H 0.61462 0.73142 0.5791 0.0
H1870 H 0.47943 0.7908 0.59243 0.0
H1871 H 0.50811 0.6468 0.58426 0.0
C1872 C 0.43991 0.63722 0.58434 0.0
C1873 C 0.39905 0.65645 0.58504 0.0
C1874 C 0.50914 0.77763 0.58957 0.0
C1875 C 0.47335 0.70672 0.58644 0.0
C1876 C 0.54487 0.80431 0.58874 0.0
C1877 C 0.58352 0.78862 0.58478 0.0
C1878 C 0.51192 0.73472 0.58649 0.0
C1879 C 0.58551 0.74503 0.58214 0.0
C1880 C 0.47699 0.66219 0.58499 0.0
C1881 C 0.39681 0.70094 0.58668 0.0
N1882 N 0.55014 0.71966 0.58299 0.0
N1883 N 0.43342 0.72456 0.5873 0.0
H1884 H 0.1016 0.69046 0.33515 0.0
H1885 H 0.85946 0.77739 0.3361 0.0
H1886 H -0.00893 0.6084 0.33173 0.0
H1887 H 0.96935 0.85931 0.33162 0.0
H1888 H 0.90754 0.71546 0.33737 0.0
H1889 H 0.05375 0.75241 0.3367 0.0
C1890 C 0.06725 0.68529 0.33485 0.0
C1891 C 0.05037 0.64403 0.33327 0.0
C1892 C 0.92115 0.74703 0.33618 0.0
C1893 C -0.00465 0.71516 0.33501 0.0
C1894 C 0.89373 0.78254 0.33551 0.0
C1895 C 0.91034 0.82374 0.33371 0.0
C1896 C 0.96561 0.75264 0.33511 0.0
C1897 C 0.95509 0.82817 0.33296 0.0
C1898 C 0.03996 0.72082 0.33568 0.0
C1899 C 0.00553 0.63958 0.33289 0.0
N1900 N 0.98116 0.79305 0.33364 0.0
N1901 N 0.97958 0.67472 0.33372 0.0
H1902 H 0.02122 0.35577 0.08451 0.0
H1903 H 0.93348 0.11455 0.08626 0.0
H1904 H 0.10266 0.24365 0.08187 0.0
H1905 H 0.85173 0.22514 0.08154 0.0
H1906 H -0.00464 0.16206 0.08745 0.0
H1907 H 0.95888 0.30889 0.08615 0.0
C1908 C 0.02614 0.3213 0.08439 0.0
C1909 C 0.06734 0.30364 0.08301 0.0
C1910 C 0.96385 0.17597 0.08622 0.0
C1911 C -0.00414 0.24978 0.08486 0.0
C1912 C 0.92835 0.14886 0.0856 0.0
C1913 C 0.8872 0.1658 0.08375 0.0
C1914 C 0.95831 0.22047 0.08505 0.0
C1915 C 0.88282 0.21061 0.08292 0.0
C1916 C -0.00957 0.29456 0.08528 0.0
C1917 C 0.07154 0.25869 0.08286 0.0
N1918 N 0.91795 0.23638 0.08354 0.0
N1919 N 0.03625 0.23332 0.08375 0.0
H1920 H 0.34705 0.02678 0.36896 0.0
H1921 H 0.27949 0.09783 0.42299 0.0
H1922 H 0.23841 0.10864 0.37516 0.0
H1923 H 0.35243 -0.01716 0.41689 0.0
H1924 H 0.27557 0.11252 0.40544 0.0
H1925 H 0.36095 0.02069 0.38655 0.0
C1926 C 0.32659 0.04394 0.37402 0.0
C1927 C 0.29135 0.06792 0.37064 0.0
C1928 C 0.29267 0.08422 0.40796 0.0
C1929 C 0.30697 0.06133 0.39067 0.0
C1930 C 0.29509 0.076 0.41796 0.0
C1931 C 0.31595 0.03888 0.42138 0.0
C1932 C 0.31183 0.05546 0.40135 0.0
C1933 C 0.33545 0.01145 0.41454 0.0
C1934 C 0.33429 0.04025 0.38404 0.0
C1935 C 0.26555 0.08935 0.3775 0.0
N1936 N 0.33293 0.02026 0.40486 0.0
N1937 N 0.27382 0.08554 0.38717 0.0
H1938 H 0.11809 0.08829 0.62086 0.0
H1939 H 0.23518 -0.00202 0.66881 0.0
H1940 H 0.20542 0.98027 0.62165 0.0
H1941 H 0.14188 0.10066 0.67014 0.0
H1942 H 0.22379 -0.00739 0.65138 0.0
H1943 H 0.12622 0.09584 0.63864 0.0
C1944 C 0.13907 0.06634 0.62475 0.0
C1945 C 0.1608 0.03334 0.61974 0.0
C1946 C 0.20561 0.01638 0.65542 0.0
C1947 C 0.17004 0.0416 0.64003 0.0
C1948 C 0.21227 0.01955 0.66542 0.0
C1949 C 0.1898 0.05011 0.67096 0.0
C1950 C 0.17626 0.0441 0.65079 0.0
C1951 C 0.15978 0.07657 0.66615 0.0
C1952 C 0.14346 0.07048 0.63489 0.0
C1953 C 0.18735 0.00566 0.62517 0.0
N1954 N 0.15406 0.07318 0.65631 0.0
N1955 N 0.19116 0.01044 0.63495 0.0
H1956 H 0.22166 0.84354 0.87504 0.0
H1957 H 0.10271 0.97518 0.91645 0.0
H1958 H 0.11746 0.93082 0.86875 0.0
H1959 H 0.17475 0.85948 0.92241 0.0
H1960 H 0.10739 0.95985 0.899 0.0
H1961 H 0.2048 0.84854 0.8924 0.0
C1962 C 0.19492 0.86347 0.87734 0.0
C1963 C 0.17104 0.88703 0.87049 0.0
C1964 C 0.12177 0.93753 0.90412 0.0
C1965 C 0.15185 0.89343 0.89035 0.0
C1966 C 0.11935 0.94641 0.91407 0.0
C1967 C 0.13871 0.91873 0.92087 0.0
C1968 C 0.14439 0.90105 0.90091 0.0
C1969 C 0.15931 0.88155 0.91741 0.0
C1970 C 0.1852 0.86621 0.88724 0.0
C1971 C 0.13647 0.91207 0.87381 0.0
N1972 N 0.16214 0.8741 0.90766 0.0
N1973 N 0.12829 0.91516 0.88354 0.0
H1974 H 0.3508 -0.01433 0.12475 0.0
H1975 H 0.22899 0.85918 0.16639 0.0
H1976 H 0.27637 0.87224 0.11876 0.0
H1977 H 0.33975 0.93744 0.17239 0.0
H1978 H 0.24396 0.86493 0.14894 0.0
H1979 H 0.34573 0.97039 0.14221 0.0
C1980 C 0.33355 0.95739 0.12714 0.0
C1981 C 0.31371 0.9303 0.12032 0.0
C1982 C 0.26529 0.88049 0.15406 0.0
C1983 C 0.30742 0.91279 0.14029 0.0
C1984 C 0.25662 0.87741 0.16401 0.0
C1985 C 0.28304 0.89812 0.17082 0.0
C1986 C 0.30018 0.9052 0.15086 0.0
C1987 C 0.31873 0.92092 0.16737 0.0
C1988 C 0.33087 0.94856 0.13708 0.0
C1989 C 0.2922 0.8938 0.12378 0.0
N1990 N 0.32592 0.92439 0.15762 0.0
N1991 N 0.28908 0.88643 0.13353 0.0
H1992 H 0.72785 0.8518 0.66647 0.0
H1993 H 0.61674 0.97898 0.62321 0.0
H1994 H 0.61694 0.93283 0.67092 0.0
H1995 H 0.69153 0.86414 0.61827 0.0
H1996 H 0.61836 0.96461 0.64072 0.0
H1997 H 0.71728 0.85737 0.64884 0.0
C1998 C 0.70112 0.87061 0.66371 0.0
C1999 C 0.67335 0.89212 0.67014 0.0
C2000 C 0.63412 0.94231 0.63582 0.0
C2001 C 0.66126 0.89897 0.64999 0.0
C2002 C 0.63344 0.95065 0.62584 0.0
C2003 C 0.65436 0.92287 0.61931 0.0
C2004 C 0.65657 0.9063 0.63935 0.0
C2005 C 0.67498 0.88626 0.62307 0.0
C2006 C 0.69497 0.87358 0.65366 0.0
C2007 C 0.63892 0.91565 0.66621 0.0
N2008 N 0.67609 0.87932 0.63287 0.0
N2009 N 0.63418 0.91895 0.65638 0.0
H2010 H 0.84316 0.93211 0.36709 0.0
H2011 H 0.77364 0.86432 0.42122 0.0
H2012 H 0.7278 0.86125 0.37342 0.0
H2013 H 0.85461 0.97293 0.415 0.0
H2014 H 0.76774 0.85037 0.40363 0.0
H2015 H 0.85894 0.935 0.38463 0.0
C2016 C 0.82153 0.91669 0.37217 0.0
C2017 C 0.78393 0.89682 0.36884 0.0
C2018 C 0.78712 0.87701 0.40614 0.0
C2019 C 0.80174 0.89971 0.38882 0.0
C2020 C 0.79068 0.88474 0.41615 0.0
C2021 C 0.81429 0.92002 0.41953 0.0
C2022 C 0.80795 0.90434 0.3995 0.0
C2023 C 0.8356 0.94576 0.41267 0.0
C2024 C 0.83036 0.91853 0.38216 0.0
C2025 C 0.75677 0.87747 0.37572 0.0
N2026 N 0.8319 0.93747 0.40299 0.0
N2027 N 0.76616 0.87942 0.38537 0.0
H2028 H 0.85552 0.97989 0.12273 0.0
H2029 H 0.73382 0.10494 0.16472 0.0
H2030 H 0.7788 0.09282 0.11704 0.0
H2031 H 0.84528 0.02626 0.17044 0.0
H2032 H 0.7484 0.09992 0.14725 0.0
H2033 H 0.85118 -0.00518 0.1402 0.0
C2034 C 0.83791 0.00797 0.12518 0.0
C2035 C 0.8172 0.03501 0.11845 0.0
C2036 C 0.76999 0.08413 0.15231 0.0
C2037 C 0.81181 0.05214 0.13844 0.0
C2038 C 0.76155 0.08681 0.16227 0.0
C2039 C 0.78826 0.06573 0.169 0.0
C2040 C 0.80494 0.05945 0.14902 0.0
C2041 C 0.82405 0.04305 0.16547 0.0
C2042 C 0.83567 0.01662 0.13514 0.0
C2043 C 0.7953 0.07128 0.12199 0.0
N2044 N 0.83102 0.03996 0.1557 0.0
N2045 N 0.79264 0.07847 0.13176 0.0
H2046 H 0.63036 0.10027 0.86926 0.0
H2047 H 0.71919 -0.01349 0.91769 0.0
H2048 H 0.73889 0.0137 0.87037 0.0
H2049 H 0.62197 0.08558 0.91863 0.0
H2050 H 0.72444 -0.00442 0.90015 0.0
H2051 H 0.62351 0.09425 0.88708 0.0
C2052 C 0.65255 0.07989 0.87323 0.0
C2053 C 0.68546 0.05771 0.86832 0.0
C2054 C 0.70196 0.01556 0.90415 0.0
C2055 C 0.67799 0.05083 0.88863 0.0
C2056 C 0.69887 0.01024 0.91418 0.0
C2057 C 0.6699 0.0351 0.91963 0.0
C2058 C 0.67569 0.04586 0.8994 0.0
C2059 C 0.64489 0.06593 0.9147 0.0
C2060 C 0.64884 0.07671 0.88339 0.0
C2061 C 0.71353 0.03198 0.87383 0.0
N2062 N 0.64811 0.07027 0.90483 0.0
N2063 N 0.70911 0.02926 0.88364 0.0
H2064 H 0.74944 0.59833 0.87277 0.0
H2065 H 0.85493 0.4639 0.91561 0.0
H2066 H 0.85576 0.51187 0.86787 0.0
H2067 H 0.78584 0.58204 0.92079 0.0
H2068 H 0.85428 0.47926 0.89812 0.0
H2069 H 0.76064 0.59171 0.89035 0.0
C2070 C 0.77533 0.5781 0.87542 0.0
C2071 C 0.80155 0.55534 0.86888 0.0
C2072 C 0.83963 0.50207 0.90308 0.0
C2073 C 0.81434 0.54726 0.889 0.0
C2074 C 0.83976 0.49319 0.91305 0.0
C2075 C 0.8201 0.52161 0.91964 0.0
C2076 C 0.81896 0.53928 0.89963 0.0
C2077 C 0.80142 0.5594 0.91596 0.0
C2078 C 0.78185 0.57451 0.88545 0.0
C2079 C 0.83497 0.53 0.87268 0.0
N2080 N 0.80076 0.56686 0.90618 0.0
N2081 N 0.84004 0.52611 0.8825 0.0
H2082 H 0.60594 0.48009 0.12352 0.0
H2083 H 0.7264 0.60751 0.16518 0.0
H2084 H 0.68059 0.59341 0.11754 0.0
H2085 H 0.61653 0.52795 0.17113 0.0
H2086 H 0.71133 0.60206 0.14773 0.0
H2087 H 0.61023 0.49581 0.14096 0.0
C2088 C 0.62307 0.50844 0.1259 0.0
C2089 C 0.64324 0.53534 0.1191 0.0
C2090 C 0.69018 0.58618 0.15284 0.0
C2091 C 0.6486 0.55338 0.13905 0.0
C2092 C 0.69889 0.58912 0.16278 0.0
C2093 C 0.6728 0.5679 0.16958 0.0
C2094 C 0.65558 0.5611 0.14962 0.0
C2095 C 0.63728 0.54487 0.16612 0.0
C2096 C 0.62529 0.51753 0.13584 0.0
C2097 C 0.66453 0.57197 0.12255 0.0
N2098 N 0.63007 0.54152 0.15636 0.0
N2099 N 0.66721 0.57959 0.1323 0.0
H2100 H 0.70712 0.49147 0.41881 0.0
H2101 H 0.63283 0.36746 0.3705 0.0
H2102 H 0.61621 0.38734 0.41981 0.0
H2103 H 0.73418 0.46134 0.37192 0.0
H2104 H 0.62218 0.37545 0.38821 0.0
H2105 H 0.71416 0.48157 0.40137 0.0
C2106 C 0.68844 0.46653 0.41534 0.0
C2107 C 0.66073 0.44047 0.42079 0.0
C2108 C 0.64673 0.3942 0.38461 0.0
C2109 C 0.66883 0.42857 0.40063 0.0
C2110 C 0.65258 0.38989 0.37452 0.0
C2111 C 0.68472 0.41348 0.36974 0.0
C2112 C 0.67294 0.42263 0.3899 0.0
C2113 C 0.70959 0.44191 0.37529 0.0
C2114 C 0.69262 0.4607 0.40534 0.0
C2115 C 0.63805 0.40801 0.41588 0.0
N2116 N 0.70318 0.44562 0.38502 0.0
N2117 N 0.64239 0.40309 0.40605 0.0
H2118 H 0.73811 0.3693 0.66624 0.0
H2119 H 0.85169 0.49609 0.6234 0.0
H2120 H 0.84904 0.44877 0.67119 0.0
H2121 H 0.77811 0.38129 0.61824 0.0
H2122 H 0.84882 0.48189 0.64092 0.0
H2123 H 0.74958 0.3755 0.64866 0.0
C2124 C 0.76497 0.38799 0.6636 0.0
C2125 C 0.79252 0.40884 0.67016 0.0
C2126 C 0.83363 0.45957 0.63596 0.0
C2127 C 0.80569 0.41634 0.65005 0.0
C2128 C 0.83503 0.46779 0.62597 0.0
C2129 C 0.81484 0.43994 0.61938 0.0
C2130 C 0.81114 0.42365 0.63942 0.0
C2131 C 0.79417 0.40343 0.62308 0.0
C2132 C 0.77166 0.39129 0.65358 0.0
C2133 C 0.8272 0.43215 0.66637 0.0
N2134 N 0.79234 0.39663 0.63287 0.0
N2135 N 0.83248 0.43578 0.65656 0.0
H2136 H 0.11732 0.4352 0.17052 0.0
H2137 H 0.17966 0.36794 0.11592 0.0
H2138 H 0.22517 0.35353 0.16352 0.0
H2139 H 0.10674 0.48193 0.1229 0.0
H2140 H 0.18484 0.35138 0.13338 0.0
H2141 H 0.10124 0.44176 0.15305 0.0
C2142 C 0.13716 0.41817 0.16531 0.0
C2143 C 0.17283 0.39414 0.16843 0.0
C2144 C 0.16741 0.37983 0.13107 0.0
C2145 C 0.15472 0.4013 0.14853 0.0
C2146 C 0.16425 0.38909 0.12112 0.0
C2147 C 0.14313 0.42655 0.11799 0.0
C2148 C 0.14871 0.40789 0.1379 0.0
C2149 C 0.1239 0.45309 0.12504 0.0
C2150 C 0.12819 0.42211 0.15536 0.0
C2151 C 0.19776 0.37289 0.16139 0.0
N2152 N 0.12718 0.44331 0.13465 0.0
N2153 N 0.1883 0.377 0.15177 0.0
H2154 H 0.33298 0.43531 0.86594 0.0
H2155 H 0.27346 0.37178 0.92091 0.0
H2156 H 0.22163 0.36041 0.87346 0.0
H2157 H 0.34823 0.48336 0.91348 0.0
H2158 H 0.26545 0.35577 0.90346 0.0
H2159 H 0.35026 0.44186 0.88335 0.0
C2160 C 0.31254 0.41981 0.87125 0.0
C2161 C 0.27563 0.39765 0.86829 0.0
C2162 C 0.28389 0.38356 0.90567 0.0
C2163 C 0.29519 0.40471 0.88813 0.0
C2164 C 0.28866 0.39249 0.9156 0.0
C2165 C 0.31119 0.42912 0.9186 0.0
C2166 C 0.30244 0.41106 0.89872 0.0
C2167 C 0.33009 0.45515 0.91144 0.0
C2168 C 0.32222 0.42373 0.88117 0.0
C2169 C 0.25002 0.37832 0.87547 0.0
N2170 N 0.3253 0.44566 0.90185 0.0
N2171 N 0.26024 0.38228 0.88505 0.0
H2172 H 0.35375 0.48114 0.62388 0.0
H2173 H 0.22366 0.61097 0.66383 0.0
H2174 H 0.27836 0.59342 0.6168 0.0
H2175 H 0.33186 0.53023 0.67113 0.0
H2176 H 0.24224 0.60449 0.64658 0.0
H2177 H 0.34567 0.49771 0.6412 0.0
C2178 C 0.33569 0.50946 0.626 0.0
C2179 C 0.31641 0.53581 0.61892 0.0
C2180 C 0.26224 0.58856 0.65195 0.0
C2181 C 0.3067 0.55482 0.63872 0.0
C2182 C 0.2515 0.59205 0.66178 0.0
C2183 C 0.2761 0.57082 0.66889 0.0
C2184 C 0.29742 0.56299 0.64917 0.0
C2185 C 0.31219 0.54718 0.66587 0.0
C2186 C 0.33128 0.51903 0.63587 0.0
C2187 C 0.29381 0.57242 0.62203 0.0
N2188 N 0.32143 0.54338 0.65622 0.0
N2189 N 0.28904 0.58053 0.63171 0.0
H2190 H 0.18552 0.60081 0.42074 0.0
H2191 H 0.11735 0.53408 0.36646 0.0
H2192 H 0.1073 0.49052 0.41425 0.0
H2193 H 0.23114 0.60712 0.37296 0.0
H2194 H 0.10151 0.53024 0.38398 0.0
H2195 H 0.19074 0.616 0.40318 0.0
C2196 C 0.16891 0.58029 0.41562 0.0
C2197 C 0.14631 0.54417 0.4189 0.0
C2198 C 0.12974 0.54743 0.38154 0.0
C2199 C 0.15188 0.56126 0.39892 0.0
C2200 C 0.13859 0.5498 0.37157 0.0
C2201 C 0.17581 0.57054 0.36829 0.0
C2202 C 0.15793 0.56658 0.38826 0.0
C2203 C 0.20249 0.59024 0.37521 0.0
C2204 C 0.17209 0.58873 0.40563 0.0
C2205 C 0.12553 0.51833 0.41198 0.0
N2206 N 0.19309 0.58775 0.38486 0.0
N2207 N 0.12884 0.52731 0.40233 0.0
H2208 H 0.31821 -0.01507 0.24174 0.0
H2209 H 0.3212 0.97276 0.30006 0.0
H2210 H 0.32051 0.86544 0.25772 0.0
H2211 H 0.32221 0.0914 0.28375 0.0
H2212 H 0.31959 0.93277 0.28474 0.0
H2213 H 0.31841 0.02416 0.2571 0.0
C2214 C 0.31841 0.96683 0.24847 0.0
C2215 C 0.3191 0.92164 0.24838 0.0
C2216 C 0.32019 0.96756 0.28452 0.0
C2217 C 0.31989 0.96669 0.26612 0.0
C2218 C 0.32087 -0.0095 0.29329 0.0
C2219 C 0.32193 0.0357 0.29326 0.0
C2220 C 0.32042 -0.01013 0.27562 0.0
C2221 C 0.32201 0.0567 0.28419 0.0
C2222 C 0.31882 -0.01066 0.25727 0.0
C2223 C 0.32031 0.90018 0.25739 0.0
N2224 N 0.32123 0.03367 0.27577 0.0
N2225 N 0.32058 0.92285 0.26588 0.0
H2226 H 0.18091 0.02065 0.54317 0.0
H2227 H 0.30378 0.15102 0.50185 0.0
H2228 H 0.16953 0.15818 0.5402 0.0
H2229 H 0.26364 0.01999 0.49747 0.0
H2230 H 0.26353 0.15274 0.51719 0.0
H2231 H 0.21988 0.01804 0.5276 0.0
C2232 C 0.1867 0.05025 0.53924 0.0
C2233 C 0.17189 0.08967 0.54295 0.0
C2234 C 0.2635 0.12363 0.51287 0.0
C2235 C 0.21678 0.08704 0.52526 0.0
C2236 C 0.28668 0.12254 0.50416 0.0
C2237 C 0.28706 0.0853 0.49839 0.0
C2238 C 0.24119 0.08691 0.51596 0.0
C2239 C 0.26391 0.04942 0.50167 0.0
C2240 C 0.20869 0.04874 0.53036 0.0
C2241 C 0.17999 0.12711 0.53754 0.0
N2242 N 0.2422 0.05096 0.51028 0.0
N2243 N 0.20221 0.12493 0.52903 0.0
H2244 H 0.16667 0.87413 0.7833 0.0
H2245 H 0.14575 0.105 0.75762 0.0
H2246 H 0.14556 -0.00883 0.7995 0.0
H2247 H 0.16299 -0.01476 0.74224 0.0
H2248 H 0.14646 0.06521 0.77304 0.0
H2249 H 0.16661 0.91546 0.76828 0.0
C2250 C 0.16175 0.90853 0.78373 0.0
C2251 C 0.15576 0.92898 0.79275 0.0
C2252 C 0.15021 0.04773 0.76628 0.0
C2253 C 0.15619 0.97705 0.7754 0.0
C2254 C 0.14962 0.07042 0.75745 0.0
C2255 C 0.15455 0.04863 0.74854 0.0
C2256 C 0.15566 0.00282 0.76622 0.0
C2257 C 0.15985 0.00373 0.74885 0.0
C2258 C 0.16197 0.93226 0.7751 0.0
C2259 C 0.15056 0.97396 0.79276 0.0
N2260 N 0.16022 -0.01752 0.7575 0.0
N2261 N 0.15076 -0.00355 0.78422 0.0
H2262 H 0.34839 0.89223 0.03359 0.0
H2263 H 0.11801 0.88126 1.00751 0.0
H2264 H 0.22783 0.89065 0.04908 0.0
H2265 H 0.23782 0.88528 0.99173 0.0
H2266 H 0.15797 0.88414 0.02277 0.0
H2267 H 0.30889 0.88916 1.01821 0.0
C2268 C 0.31366 0.89112 0.03378 0.0
C2269 C 0.29151 0.89184 0.04269 0.0
C2270 C 0.17558 0.88442 1.01597 0.0
C2271 C 0.24592 0.88858 0.02504 0.0
C2272 C 0.15272 0.8825 1.00723 0.0
C2273 C 0.17444 0.88293 0.99826 0.0
C2274 C 0.22066 0.88668 1.01582 0.0
C2275 C 0.21957 0.88534 0.99843 0.0
C2276 C 0.29107 0.88958 0.02497 0.0
C2277 C 0.24636 0.89085 0.04243 0.0
N2278 N 0.24112 0.88704 1.00705 0.0
N2279 N 0.22516 0.8892 0.03377 0.0
H2280 H 0.62013 0.97394 0.79858 0.0
H2281 H 0.62041 -0.01053 0.74031 0.0
H2282 H 0.61638 0.09404 0.78285 0.0
H2283 H 0.61617 0.86972 0.75616 0.0
H2284 H 0.6203 0.02838 0.75577 0.0
H2285 H 0.61993 0.93532 0.78311 0.0
C2286 C 0.61946 -0.00774 0.79188 0.0
C2287 C 0.61839 0.03742 0.79206 0.0
C2288 C 0.61934 -0.00642 0.75586 0.0
C2289 C 0.61781 -0.00678 0.77424 0.0
C2290 C 0.61966 0.97129 0.74703 0.0
C2291 C 0.61834 0.92613 0.74689 0.0
C2292 C 0.61786 0.97064 0.76467 0.0
C2293 C 0.61672 0.90445 0.75586 0.0
C2294 C 0.6191 0.97013 0.78303 0.0
C2295 C 0.61679 0.05929 0.7831 0.0
N2296 N 0.61663 0.92686 0.76437 0.0
N2297 N 0.61669 0.03702 0.77458 0.0
H2298 H 0.844 0.89166 0.50661 0.0
H2299 H 0.61342 0.88117 0.53268 0.0
H2300 H 0.72435 0.88559 0.49078 0.0
H2301 H 0.73395 0.8884 0.54811 0.0
H2302 H 0.65297 0.88197 0.51726 0.0
H2303 H 0.80386 0.88989 0.52186 0.0
C2304 C 0.80932 0.88978 0.50632 0.0
C2305 C 0.78768 0.88882 0.49734 0.0
C2306 C 0.67073 0.88347 0.52403 0.0
C2307 C 0.7412 0.8871 0.51488 0.0
C2308 C 0.64814 0.88281 0.53285 0.0
C2309 C 0.67025 0.88505 0.54175 0.0
C2310 C 0.71584 0.88618 0.52409 0.0
C2311 C 0.71535 0.88749 0.54147 0.0
C2312 C 0.78632 0.88899 0.51505 0.0
C2313 C 0.7425 0.887 0.49749 0.0
N2314 N 0.73653 0.88797 0.53282 0.0
N2315 N 0.72083 0.88614 0.5061 0.0
H2316 H 0.81499 0.86373 0.282 0.0
H2317 H 0.82126 0.09424 0.25582 0.0
H2318 H 0.81665 -0.01568 0.29751 0.0
H2319 H 0.81695 0.97404 0.24018 0.0
H2320 H 0.81988 0.05445 0.27113 0.0
H2321 H 0.81613 0.90334 0.26662 0.0
C2322 C 0.81572 0.8985 0.28219 0.0
C2323 C 0.81558 0.92061 0.29111 0.0
C2324 C 0.81921 0.03674 0.26435 0.0
C2325 C 0.81662 0.96635 0.27346 0.0
C2326 C 0.82024 0.0595 0.25557 0.0
C2327 C 0.81936 0.03761 0.24662 0.0
C2328 C 0.81738 -0.00839 0.26424 0.0
C2329 C 0.81728 -0.00755 0.24684 0.0
C2330 C 0.81615 0.92115 0.27339 0.0
C2331 C 0.81602 0.96581 0.29085 0.0
N2332 N 0.81646 0.97102 0.25549 0.0
N2333 N 0.81659 -0.01291 0.2822 0.0
H2334 H 0.73237 0.08389 0.9899 0.0
H2335 H 0.72102 0.0774 0.04817 0.0
H2336 H 0.61288 0.08496 1.00577 0.0
H2337 H 0.83922 0.07973 0.03177 0.0
H2338 H 0.68061 0.07985 0.0329 0.0
H2339 H 0.77156 0.08238 1.00524 0.0
C2340 C 0.7143 0.08343 0.99662 0.0
C2341 C 0.66916 0.08396 0.99651 0.0
C2342 C 0.71539 0.07984 0.03264 0.0
C2343 C 0.71412 0.0829 1.01425 0.0
C2344 C 0.73856 0.07813 0.04137 0.0
C2345 C 0.78376 0.07817 0.0413 0.0
C2346 C 0.73747 0.08151 0.02373 0.0
C2347 C 0.80454 0.08004 0.03224 0.0
C2348 C 0.73677 0.0829 1.00541 0.0
C2349 C 0.64762 0.08466 1.0055 0.0
N2350 N 0.78128 0.08153 0.02385 0.0
N2351 N 0.67027 0.08391 1.014 0.0
H2352 H 0.90985 0.55463 0.78767 0.0
H2353 H 0.77403 0.43519 0.74682 0.0
H2354 H 0.77815 0.51801 0.79245 0.0
H2355 H 0.91023 0.41412 0.75006 0.0
H2356 H 0.77382 0.47569 0.76219 0.0
H2357 H 0.90972 0.51364 0.77238 0.0
C2358 C 0.88083 0.53827 0.78545 0.0
C2359 C 0.84395 0.53969 0.79132 0.0
C2360 C 0.80369 0.46204 0.75954 0.0
C2361 C 0.84345 0.4931 0.77385 0.0
C2362 C 0.80385 0.43912 0.75078 0.0
C2363 C 0.84216 0.42114 0.74721 0.0
C2364 C 0.84233 0.46796 0.76465 0.0
C2365 C 0.87995 0.42705 0.75263 0.0
C2366 C 0.88087 0.51465 0.77678 0.0
C2367 C 0.8073 0.51748 0.78816 0.0
N2368 N 0.87919 0.45032 0.76103 0.0
N2369 N 0.80783 0.49539 0.7796 0.0
H2370 H 0.84571 0.55946 1.00649 0.0
H2371 H 0.61417 0.56829 0.03216 0.0
H2372 H 0.72603 0.56075 0.99062 0.0
H2373 H 0.7339 0.56416 0.04798 0.0
H2374 H 0.65445 0.56634 1.01688 0.0
H2375 H 0.80534 0.56191 0.02174 0.0
C2376 C 0.81097 0.5604 1.00618 0.0
C2377 C 0.78937 0.55977 0.9972 0.0
C2378 C 0.67193 0.56578 0.0237 0.0
C2379 C 0.74271 0.56232 1.01472 0.0
C2380 C 0.6489 0.56712 0.03244 0.0
C2381 C 0.67054 0.56624 0.04142 0.0
C2382 C 0.71707 0.56372 0.02389 0.0
C2383 C 0.7157 0.56419 0.04128 0.0
C2384 C 0.78788 0.56159 1.01492 0.0
C2385 C 0.74417 0.5605 0.99733 0.0
N2386 N 0.73737 0.56306 0.03268 0.0
N2387 N 0.72243 0.5618 1.00592 0.0
H2388 H 0.64662 0.47354 0.24068 0.0
H2389 H 0.65061 0.48816 0.29893 0.0
H2390 H 0.64496 0.59305 0.2566 0.0
H2391 H 0.63985 0.36855 0.28324 0.0
H2392 H 0.65213 0.52674 0.28348 0.0
H2393 H 0.64776 0.43434 0.2561 0.0
C2394 C 0.64675 0.49162 0.24739 0.0
C2395 C 0.64556 0.53681 0.24728 0.0
C2396 C 0.64943 0.49204 0.2834 0.0
C2397 C 0.64661 0.49194 0.26505 0.0
C2398 C 0.6488 0.46988 0.29226 0.0
C2399 C 0.64503 0.42486 0.29246 0.0
C2400 C 0.64649 0.46918 0.27461 0.0
C2401 C 0.64227 0.4032 0.28349 0.0
C2402 C 0.64715 0.46916 0.25622 0.0
C2403 C 0.64527 0.55832 0.25628 0.0
N2404 N 0.64312 0.42551 0.27496 0.0
N2405 N 0.64584 0.53574 0.26477 0.0
H2406 H 0.61677 0.38772 0.50691 0.0
H2407 H 0.8479 0.39215 0.53288 0.0
H2408 H 0.73676 0.39033 0.49122 0.0
H2409 H 0.72781 0.39584 0.54855 0.0
H2410 H 0.80785 0.38944 0.51757 0.0
H2411 H 0.65683 0.38855 0.52223 0.0
C2412 C 0.65151 0.38826 0.50667 0.0
C2413 C 0.6733 0.38914 0.49771 0.0
C2414 C 0.79024 0.39091 0.52436 0.0
C2415 C 0.71957 0.39038 0.5153 0.0
C2416 C 0.81314 0.39224 0.53313 0.0
C2417 C 0.79132 0.39444 0.54206 0.0
C2418 C 0.74506 0.39154 0.52449 0.0
C2419 C 0.74612 0.39492 0.54187 0.0
C2420 C 0.67442 0.38898 0.51544 0.0
C2421 C 0.71847 0.39033 0.4979 0.0
N2422 N 0.72458 0.39344 0.53325 0.0
N2423 N 0.74003 0.39088 0.50653 0.0
H2424 H 0.14837 0.49348 0.2389 0.0
H2425 H 0.14567 0.48138 0.29721 0.0
H2426 H 0.14511 0.3751 0.25529 0.0
H2427 H 0.14809 0.60097 0.28131 0.0
H2428 H 0.14678 0.44226 0.28185 0.0
H2429 H 0.14974 0.53366 0.25421 0.0
C2430 C 0.14818 0.47585 0.24569 0.0
C2431 C 0.14645 0.43068 0.24575 0.0
C2432 C 0.14715 0.47707 0.28169 0.0
C2433 C 0.14768 0.47666 0.26336 0.0
C2434 C 0.14684 0.49949 0.2905 0.0
C2435 C 0.14707 0.54464 0.29061 0.0
C2436 C 0.14769 0.49982 0.27285 0.0
C2437 C 0.14753 0.56623 0.28161 0.0
C2438 C 0.14873 0.49888 0.25444 0.0
C2439 C 0.14576 0.40979 0.25482 0.0
N2440 N 0.14789 0.54365 0.27311 0.0
N2441 N 0.14638 0.43288 0.26322 0.0
H2442 H 0.34832 0.39873 1.00546 0.0
H2443 H 0.11685 0.3986 0.03114 0.0
H2444 H 0.22829 0.40071 0.98975 0.0
H2445 H 0.23631 0.3998 0.0471 0.0
H2446 H 0.15732 0.3991 1.01595 0.0
H2447 H 0.30822 0.3987 0.02078 0.0
C2448 C 0.31357 0.39905 1.00521 0.0
C2449 C 0.29176 0.39988 0.99625 0.0
C2450 C 0.17474 0.39929 0.02277 0.0
C2451 C 0.24549 0.4001 1.01382 0.0
C2452 C 0.15158 0.39876 0.03149 0.0
C2453 C 0.17305 0.399 0.04049 0.0
C2454 C 0.21987 0.39997 0.02299 0.0
C2455 C 0.21824 0.39999 0.04039 0.0
C2456 C 0.29066 0.39925 1.01398 0.0
C2457 C 0.24659 0.40078 0.99643 0.0
N2458 N 0.24008 0.40032 0.0318 0.0
N2459 N 0.22505 0.40078 1.00505 0.0
H2460 H 0.30482 0.47133 0.73915 0.0
H2461 H 0.30363 0.482 0.79748 0.0
H2462 H 0.30076 0.58922 0.75569 0.0
H2463 H 0.30727 0.36271 0.78147 0.0
H2464 H 0.30213 0.52135 0.78215 0.0
H2465 H 0.30508 0.43064 0.75442 0.0
C2466 C 0.30375 0.48872 0.74597 0.0
C2467 C 0.30288 0.53393 0.74609 0.0
C2468 C 0.30319 0.48656 0.78196 0.0
C2469 C 0.30355 0.48741 0.76363 0.0
C2470 C 0.30376 0.46397 0.79075 0.0
C2471 C 0.30528 0.41881 0.79082 0.0
C2472 C 0.30415 0.46402 0.77311 0.0
C2473 C 0.30642 0.39744 0.7818 0.0
C2474 C 0.30415 0.46542 0.75469 0.0
C2475 C 0.30209 0.55455 0.75519 0.0
N2476 N 0.30574 0.4202 0.77332 0.0
N2477 N 0.30243 0.5312 0.76355 0.0
H2478 H 0.23527 0.5724 0.49015 0.0
H2479 H 0.22404 0.56244 0.5484 0.0
H2480 H 0.11646 0.56259 0.50618 0.0
H2481 H 0.34236 0.57034 0.53213 0.0
H2482 H 0.18405 0.56201 0.53311 0.0
H2483 H 0.27479 0.57135 0.50548 0.0
C2484 C 0.2174 0.56967 0.49687 0.0
C2485 C 0.17231 0.56732 0.49681 0.0
C2486 C 0.21878 0.56384 0.53288 0.0
C2487 C 0.21765 0.56671 0.51451 0.0
C2488 C 0.24174 0.56387 0.54164 0.0
C2489 C 0.28685 0.56651 0.54163 0.0
C2490 C 0.24094 0.5664 0.524 0.0
C2491 C 0.30772 0.56885 0.53257 0.0
C2492 C 0.24007 0.56936 0.50566 0.0
C2493 C 0.15109 0.56484 0.50583 0.0
N2494 N 0.28465 0.56872 0.52415 0.0
N2495 N 0.17391 0.56453 0.51429 0.0
loop_
_geom_bond_atom_site_label_1
_geom_bond_atom_site_label_2
_geom_bond_distance
_geom_bond_site_symmetry_2
_ccdc_geom_bond_type
C0 C1 1.351 . S
C0 N3 1.368 . S
C0 H5 0.931 . S
C1 C0 1.351 . S
C1 N2 1.373 . S
C1 H29 0.930 . S
N2 C1 1.373 . S
N2 C4 1.340 . S
N3 C0 1.368 . S
N3 C4 1.321 . S
N3 Co6 2.135 . S
C4 N2 1.340 . S
C4 N3 1.321 . S
C4 H28 0.930 . S
H5 C0 0.931 . S
Co6 N3 2.135 . S
Co6 N9 2.121 . S
Co6 O14 2.055 . S
Co6 O17 2.039 . S
Co6 N20 2.140 . S
C7 O8 1.227 . S
C7 O17 1.265 . S
O8 C7 1.227 . S
N9 Co6 2.121 . S
N9 C11 1.375 . S
N9 C12 1.313 . S
C10 C11 1.338 . S
C10 N13 1.377 . S
C10 H30 0.930 . S
C11 N9 1.375 . S
C11 C10 1.338 . S
C11 H15 0.931 . S
C12 N9 1.313 . S
C12 N13 1.344 . S
C12 H16 0.930 . S
N13 C10 1.377 . S
N13 C12 1.344 . S
O14 Co6 2.055 . S
O14 C18 1.253 . S
H15 C11 0.931 . S
H16 C12 0.930 . S
O17 Co6 2.039 . S
O17 C7 1.265 . S
C18 O14 1.253 . S
C18 O19 1.227 . S
O19 C18 1.227 . S
N20 Co6 2.140 . S
N20 C23 1.346 . S
N20 C24 1.345 . S
C21 C22 1.387 . S
C21 C25 1.391 . S
C22 C21 1.387 . S
C22 C23 1.369 . S
C22 H31 0.929 . S
C23 N20 1.346 . S
C23 C22 1.369 . S
C23 H26 0.928 . S
C24 N20 1.345 . S
C24 C25 1.371 . S
C24 H27 0.931 . S
C25 C21 1.391 . S
C25 C24 1.371 . S
C25 H32 0.930 . S
H26 C23 0.928 . S
H27 C24 0.931 . S
H28 C4 0.930 . S
H29 C1 0.930 . S
H30 C10 0.930 . S
H31 C22 0.929 . S
H32 C25 0.930 . S
C33 C34 1.351 . S
C33 N36 1.368 . S
C33 H38 0.931 . S
C34 C33 1.351 . S
C34 N35 1.373 . S
C34 H62 0.930 . S
N35 C34 1.373 . S
N35 C37 1.340 . S
N36 C33 1.368 . S
N36 C37 1.321 . S
N36 Co39 2.135 . S
C37 N35 1.340 . S
C37 N36 1.321 . S
C37 H61 0.930 . S
H38 C33 0.931 . S
Co39 N36 2.135 . S
Co39 N42 2.121 . S
Co39 O47 2.055 . S
Co39 O50 2.039 . S
Co39 N53 2.140 . S
C40 O41 1.227 . S
C40 O50 1.265 . S
O41 C40 1.227 . S
N42 Co39 2.121 . S
N42 C44 1.375 . S
N42 C45 1.313 . S
C43 C44 1.338 . S
C43 N46 1.377 . S
C43 H63 0.930 . S
C44 N42 1.375 . S
C44 C43 1.338 . S
C44 H48 0.931 . S
C45 N42 1.313 . S
C45 N46 1.344 . S
C45 H49 0.930 . S
N46 C43 1.377 . S
N46 C45 1.344 . S
O47 Co39 2.055 . S
O47 C51 1.253 . S
H48 C44 0.931 . S
H49 C45 0.930 . S
O50 Co39 2.039 . S
O50 C40 1.265 . S
C51 O47 1.253 . S
C51 O52 1.227 . S
O52 C51 1.227 . S
N53 Co39 2.140 . S
N53 C56 1.346 . S
N53 C57 1.345 . S
C54 C55 1.387 . S
C54 C58 1.391 1_545 S
C55 C54 1.387 . S
C55 C56 1.369 . S
C55 H64 0.920 1_455 S
C56 N53 1.346 . S
C56 C55 1.369 . S
C56 H59 0.928 . S
C57 N53 1.345 . S
C57 C58 1.372 1_545 S
C57 H60 0.931 . S
C58 C54 1.391 1_565 S
C58 C57 1.372 1_565 S
C58 H65 0.929 . S
H59 C56 0.928 . S
H60 C57 0.931 . S
H61 C37 0.930 . S
H62 C34 0.930 . S
H63 C43 0.930 . S
H64 C55 0.920 1_655 S
H65 C58 0.929 . S
C66 C67 1.351 . S
C66 N69 1.368 . S
C66 H71 0.931 . S
C67 C66 1.351 . S
C67 N68 1.373 . S
C67 H95 0.930 . S
N68 C67 1.373 . S
N68 C70 1.340 . S
N69 C66 1.368 . S
N69 C70 1.321 . S
N69 Co72 2.135 . S
C70 N68 1.340 . S
C70 N69 1.321 . S
C70 H94 0.930 . S
H71 C66 0.931 . S
Co72 N69 2.135 . S
Co72 N75 2.121 . S
Co72 O80 2.055 . S
Co72 O83 2.039 . S
Co72 N86 2.140 . S
C73 O74 1.227 . S
C73 O83 1.265 . S
O74 C73 1.227 . S
N75 Co72 2.121 . S
N75 C77 1.375 . S
N75 C78 1.313 . S
C76 C77 1.338 . S
C76 N79 1.377 . S
C76 H96 0.930 . S
C77 N75 1.375 . S
C77 C76 1.338 . S
C77 H81 0.931 . S
C78 N75 1.313 . S
C78 N79 1.344 . S
C78 H82 0.930 . S
N79 C76 1.377 . S
N79 C78 1.344 . S
O80 Co72 2.055 . S
O80 C84 1.253 . S
H81 C77 0.931 . S
H82 C78 0.930 . S
O83 Co72 2.039 . S
O83 C73 1.265 . S
C84 O80 1.253 . S
C84 O85 1.227 . S
O85 C84 1.227 . S
N86 Co72 2.140 . S
N86 C89 1.346 . S
N86 C90 1.345 . S
C87 C88 1.387 . S
C87 C91 1.391 . S
C88 C87 1.387 . S
C88 C89 1.369 . S
C88 H97 0.929 . S
C89 N86 1.346 . S
C89 C88 1.369 . S
C89 H92 0.928 . S
C90 N86 1.345 . S
C90 C91 1.371 . S
C90 H93 0.931 . S
C91 C87 1.391 . S
C91 C90 1.371 . S
C91 H98 0.930 . S
H92 C89 0.928 . S
H93 C90 0.931 . S
H94 C70 0.930 . S
H95 C67 0.930 . S
H96 C76 0.930 . S
H97 C88 0.929 . S
H98 C91 0.930 . S
C99 C100 1.351 . S
C99 N102 1.368 . S
C99 H104 0.931 . S
C100 C99 1.351 . S
C100 N101 1.373 . S
C100 H128 0.930 . S
N101 C100 1.373 . S
N101 C103 1.340 . S
N102 C99 1.368 . S
N102 C103 1.321 . S
N102 Co105 2.135 . S
C103 N101 1.340 . S
C103 N102 1.321 . S
C103 H127 0.930 . S
H104 C99 0.931 . S
Co105 N102 2.135 . S
Co105 N108 2.121 . S
Co105 O113 2.055 . S
Co105 O116 2.039 . S
Co105 N119 2.140 . S
C106 O107 1.227 . S
C106 O116 1.265 . S
O107 C106 1.227 . S
N108 Co105 2.121 . S
N108 C110 1.375 . S
N108 C111 1.313 . S
C109 C110 1.338 . S
C109 N112 1.377 . S
C109 H129 0.930 . S
C110 N108 1.375 . S
C110 C109 1.338 . S
C110 H114 0.931 . S
C111 N108 1.313 . S
C111 N112 1.344 . S
C111 H115 0.930 . S
N112 C109 1.377 . S
N112 C111 1.344 . S
O113 Co105 2.055 . S
O113 C117 1.253 . S
H114 C110 0.931 . S
H115 C111 0.930 . S
O116 Co105 2.039 . S
O116 C106 1.265 . S
C117 O113 1.253 . S
C117 O118 1.227 . S
O118 C117 1.227 . S
N119 Co105 2.140 . S
N119 C122 1.346 . S
N119 C123 1.345 . S
C120 C121 1.387 . S
C120 C124 1.391 1_565 S
C121 C120 1.387 . S
C121 C122 1.369 . S
C121 H130 0.929 . S
C122 N119 1.346 . S
C122 C121 1.369 . S
C122 H125 0.928 . S
C123 N119 1.345 . S
C123 C124 1.372 1_565 S
C123 H126 0.931 . S
C124 C120 1.391 1_545 S
C124 C123 1.372 1_545 S
C124 H131 0.929 . S
H125 C122 0.928 . S
H126 C123 0.931 . S
H127 C103 0.930 . S
H128 C100 0.930 . S
H129 C109 0.930 . S
H130 C121 0.929 . S
H131 C124 0.929 . S
C132 C133 1.351 . S
C132 N135 1.368 . S
C132 H137 0.931 . S
C133 C132 1.351 . S
C133 N134 1.373 . S
C133 H161 0.930 . S
N134 C133 1.373 . S
N134 C136 1.340 . S
N135 C132 1.368 . S
N135 C136 1.321 . S
N135 Co138 2.135 . S
C136 N134 1.340 . S
C136 N135 1.321 . S
C136 H160 0.930 . S
H137 C132 0.931 . S
Co138 N135 2.135 . S
Co138 N141 2.121 . S
Co138 O146 2.055 . S
Co138 O149 2.039 . S
Co138 N152 2.140 . S
C139 O140 1.227 . S
C139 O149 1.265 . S
O140 C139 1.227 . S
N141 Co138 2.121 . S
N141 C143 1.375 . S
N141 C144 1.313 . S
C142 C143 1.338 . S
C142 N145 1.377 . S
C142 H162 0.930 . S
C143 N141 1.375 . S
C143 C142 1.338 . S
C143 H147 0.931 . S
C144 N141 1.313 . S
C144 N145 1.344 . S
C144 H148 0.930 . S
N145 C142 1.377 . S
N145 C144 1.344 . S
O146 Co138 2.055 . S
O146 C150 1.253 . S
H147 C143 0.931 . S
H148 C144 0.930 . S
O149 Co138 2.039 . S
O149 C139 1.265 . S
C150 O146 1.253 . S
C150 O151 1.227 . S
O151 C150 1.227 . S
N152 Co138 2.140 . S
N152 C155 1.346 . S
N152 C156 1.345 . S
C153 C154 1.387 . S
C153 C157 1.391 . S
C154 C153 1.387 . S
C154 C155 1.369 . S
C154 H163 0.929 . S
C155 N152 1.346 . S
C155 C154 1.369 . S
C155 H158 0.928 . S
C156 N152 1.345 . S
C156 C157 1.371 . S
C156 H159 0.931 . S
C157 C153 1.391 . S
C157 C156 1.371 . S
C157 H164 0.930 . S
H158 C155 0.928 . S
H159 C156 0.931 . S
H160 C136 0.930 . S
H161 C133 0.930 . S
H162 C142 0.930 . S
H163 C154 0.929 . S
H164 C157 0.930 . S
C165 C166 1.351 . S
C165 N168 1.368 . S
C165 H170 0.931 . S
C166 C165 1.351 . S
C166 N167 1.373 . S
C166 H194 0.930 . S
N167 C166 1.373 . S
N167 C169 1.340 . S
N168 C165 1.368 . S
N168 C169 1.321 . S
N168 Co171 2.135 . S
C169 N167 1.340 . S
C169 N168 1.321 . S
C169 H193 0.930 . S
H170 C165 0.931 . S
Co171 N168 2.135 . S
Co171 N174 2.121 . S
Co171 O179 2.055 . S
Co171 O182 2.039 . S
Co171 N185 2.140 . S
C172 O173 1.227 . S
C172 O182 1.265 . S
O173 C172 1.227 . S
N174 Co171 2.121 . S
N174 C176 1.375 . S
N174 C177 1.313 . S
C175 C176 1.338 . S
C175 N178 1.377 . S
C175 H195 0.930 . S
C176 N174 1.375 . S
C176 C175 1.338 . S
C176 H180 0.931 . S
C177 N174 1.313 . S
C177 N178 1.344 . S
C177 H181 0.930 . S
N178 C175 1.377 . S
N178 C177 1.344 . S
O179 Co171 2.055 . S
O179 C183 1.253 . S
H180 C176 0.931 . S
H181 C177 0.930 . S
O182 Co171 2.039 . S
O182 C172 1.265 . S
C183 O179 1.253 . S
C183 O184 1.227 . S
O184 C183 1.227 . S
N185 Co171 2.140 . S
N185 C188 1.346 . S
N185 C189 1.345 . S
C186 C187 1.387 . S
C186 C190 1.391 1_545 S
C187 C186 1.387 . S
C187 C188 1.369 . S
C187 H196 0.929 . S
C188 N185 1.346 . S
C188 C187 1.369 . S
C188 H191 0.928 . S
C189 N185 1.345 . S
C189 C190 1.372 1_545 S
C189 H192 0.931 . S
C190 C186 1.391 1_565 S
C190 C189 1.372 1_565 S
C190 H197 0.929 . S
H191 C188 0.928 . S
H192 C189 0.931 . S
H193 C169 0.930 . S
H194 C166 0.930 . S
H195 C175 0.930 . S
H196 C187 0.929 . S
H197 C190 0.929 . S
C198 C199 1.351 . S
C198 N201 1.368 . S
C198 H203 0.931 . S
C199 C198 1.351 . S
C199 N200 1.373 . S
C199 H227 0.930 . S
N200 C199 1.373 . S
N200 C202 1.340 . S
N201 C198 1.368 . S
N201 C202 1.321 . S
N201 Co204 2.135 . S
C202 N200 1.340 . S
C202 N201 1.321 . S
C202 H226 0.930 . S
H203 C198 0.931 . S
Co204 N201 2.135 . S
Co204 N207 2.121 . S
Co204 O212 2.055 . S
Co204 O215 2.039 . S
Co204 N218 2.140 . S
C205 O206 1.227 . S
C205 O215 1.265 . S
O206 C205 1.227 . S
N207 Co204 2.121 . S
N207 C209 1.375 . S
N207 C210 1.313 . S
C208 C209 1.338 . S
C208 N211 1.377 . S
C208 H228 0.930 . S
C209 N207 1.375 . S
C209 C208 1.338 . S
C209 H213 0.931 . S
C210 N207 1.313 . S
C210 N211 1.344 . S
C210 H214 0.930 . S
N211 C208 1.377 . S
N211 C210 1.344 . S
O212 Co204 2.055 . S
O212 C216 1.253 . S
H213 C209 0.931 . S
H214 C210 0.930 . S
O215 Co204 2.039 . S
O215 C205 1.265 . S
C216 O212 1.253 . S
C216 O217 1.227 . S
O217 C216 1.227 . S
N218 Co204 2.140 . S
N218 C221 1.346 . S
N218 C222 1.345 . S
C219 C220 1.387 . S
C219 C223 1.391 . S
C220 C219 1.387 . S
C220 C221 1.369 . S
C220 H229 0.929 . S
C221 N218 1.346 . S
C221 C220 1.369 . S
C221 H224 0.928 . S
C222 N218 1.345 . S
C222 C223 1.371 . S
C222 H225 0.931 . S
C223 C219 1.391 . S
C223 C222 1.371 . S
C223 H230 0.930 . S
H224 C221 0.928 . S
H225 C222 0.931 . S
H226 C202 0.930 . S
H227 C199 0.930 . S
H228 C208 0.930 . S
H229 C220 0.929 . S
H230 C223 0.930 . S
C231 C232 1.351 . S
C231 N234 1.368 . S
C231 H236 0.931 . S
C232 C231 1.351 . S
C232 N233 1.373 . S
C232 H260 0.930 . S
N233 C232 1.373 . S
N233 C235 1.340 . S
N234 C231 1.368 . S
N234 C235 1.321 . S
N234 Co237 2.135 . S
C235 N233 1.340 . S
C235 N234 1.321 . S
C235 H259 0.930 . S
H236 C231 0.931 . S
Co237 N234 2.135 . S
Co237 N240 2.121 . S
Co237 O245 2.055 . S
Co237 O248 2.039 . S
Co237 N251 2.140 . S
C238 O239 1.227 . S
C238 O248 1.265 . S
O239 C238 1.227 . S
N240 Co237 2.121 . S
N240 C242 1.375 . S
N240 C243 1.313 . S
C241 C242 1.338 . S
C241 N244 1.377 . S
C241 H261 0.930 . S
C242 N240 1.375 . S
C242 C241 1.338 . S
C242 H246 0.931 . S
C243 N240 1.313 . S
C243 N244 1.344 . S
C243 H247 0.930 . S
N244 C241 1.377 . S
N244 C243 1.344 . S
O245 Co237 2.055 . S
O245 C249 1.253 . S
H246 C242 0.931 . S
H247 C243 0.930 . S
O248 Co237 2.039 . S
O248 C238 1.265 . S
C249 O245 1.253 . S
C249 O250 1.227 . S
O250 C249 1.227 . S
N251 Co237 2.140 . S
N251 C254 1.346 . S
N251 C255 1.345 . S
C252 C253 1.387 . S
C252 C256 1.391 1_565 S
C253 C252 1.387 . S
C253 C254 1.369 . S
C253 H262 0.920 1_455 S
C254 N251 1.346 . S
C254 C253 1.369 . S
C254 H257 0.928 . S
C255 N251 1.345 . S
C255 C256 1.372 1_565 S
C255 H258 0.931 . S
C256 C252 1.391 1_545 S
C256 C255 1.372 1_545 S
C256 H263 0.929 . S
H257 C254 0.928 . S
H258 C255 0.931 . S
H259 C235 0.930 . S
H260 C232 0.930 . S
H261 C241 0.930 . S
H262 C253 0.920 1_655 S
H263 C256 0.929 . S
C264 C265 1.351 . S
C264 N267 1.368 . S
C264 H269 0.931 . S
C265 C264 1.351 . S
C265 N266 1.373 . S
C265 H293 0.930 . S
N266 C265 1.373 . S
N266 C268 1.340 . S
N267 C264 1.368 . S
N267 C268 1.321 . S
N267 Co270 2.135 . S
C268 N266 1.340 . S
C268 N267 1.321 . S
C268 H292 0.930 . S
H269 C264 0.931 . S
Co270 N267 2.135 . S
Co270 N273 2.121 . S
Co270 O278 2.055 . S
Co270 O281 2.039 . S
Co270 N284 2.140 . S
C271 O272 1.227 . S
C271 O281 1.265 . S
O272 C271 1.227 . S
N273 Co270 2.121 . S
N273 C275 1.375 . S
N273 C276 1.313 . S
C274 C275 1.338 . S
C274 N277 1.377 . S
C274 H294 0.930 . S
C275 N273 1.375 . S
C275 C274 1.338 . S
C275 H279 0.931 . S
C276 N273 1.313 . S
C276 N277 1.344 . S
C276 H280 0.930 . S
N277 C274 1.377 . S
N277 C276 1.344 . S
O278 Co270 2.055 . S
O278 C282 1.253 . S
H279 C275 0.931 . S
H280 C276 0.930 . S
O281 Co270 2.039 . S
O281 C271 1.265 . S
C282 O278 1.253 . S
C282 O283 1.227 . S
O283 C282 1.227 . S
N284 Co270 2.140 . S
N284 C287 1.346 . S
N284 C288 1.345 . S
C285 C286 1.387 . S
C285 C289 1.391 . S
C286 C285 1.387 . S
C286 C287 1.369 . S
C286 H295 0.929 . S
C287 N284 1.346 . S
C287 C286 1.369 . S
C287 H290 0.928 . S
C288 N284 1.345 . S
C288 C289 1.371 . S
C288 H291 0.931 . S
C289 C285 1.391 . S
C289 C288 1.371 . S
C289 H296 0.930 . S
H290 C287 0.928 . S
H291 C288 0.931 . S
H292 C268 0.930 . S
H293 C265 0.930 . S
H294 C274 0.930 . S
H295 C286 0.929 . S
H296 C289 0.930 . S
C297 C298 1.351 . S
C297 N300 1.368 . S
C297 H302 0.931 . S
C298 C297 1.351 . S
C298 N299 1.373 . S
C298 H326 0.930 . S
N299 C298 1.373 . S
N299 C301 1.340 . S
N300 C297 1.368 . S
N300 C301 1.321 . S
N300 Co303 2.135 . S
C301 N299 1.340 . S
C301 N300 1.321 . S
C301 H325 0.930 . S
H302 C297 0.931 . S
Co303 N300 2.135 . S
Co303 N306 2.121 . S
Co303 O311 2.055 . S
Co303 O314 2.039 . S
Co303 N317 2.140 . S
C304 O305 1.227 . S
C304 O314 1.265 . S
O305 C304 1.227 . S
N306 Co303 2.121 . S
N306 C308 1.375 . S
N306 C309 1.313 . S
C307 C308 1.338 . S
C307 N310 1.377 . S
C307 H327 0.930 . S
C308 N306 1.375 . S
C308 C307 1.338 . S
C308 H312 0.931 . S
C309 N306 1.313 . S
C309 N310 1.344 . S
C309 H313 0.930 . S
N310 C307 1.377 . S
N310 C309 1.344 . S
O311 Co303 2.055 . S
O311 C315 1.253 . S
H312 C308 0.931 . S
H313 C309 0.930 . S
O314 Co303 2.039 . S
O314 C304 1.265 . S
C315 O311 1.253 . S
C315 O316 1.227 . S
O316 C315 1.227 . S
N317 Co303 2.140 . S
N317 C320 1.346 . S
N317 C321 1.345 . S
C318 C319 1.387 . S
C318 C322 1.391 1_565 S
C319 C318 1.387 . S
C319 C320 1.369 . S
C319 H328 0.920 1_655 S
C320 N317 1.346 . S
C320 C319 1.369 . S
C320 H323 0.928 . S
C321 N317 1.345 . S
C321 C322 1.372 1_565 S
C321 H324 0.931 . S
C322 C318 1.391 1_545 S
C322 C321 1.372 1_545 S
C322 H329 0.929 . S
H323 C320 0.928 . S
H324 C321 0.931 . S
H325 C301 0.930 . S
H326 C298 0.930 . S
H327 C307 0.930 . S
H328 C319 0.920 1_455 S
H329 C322 0.929 . S
C330 C331 1.351 . S
C330 N333 1.368 . S
C330 H335 0.931 . S
C331 C330 1.351 . S
C331 N332 1.373 . S
C331 H359 0.930 . S
N332 C331 1.373 . S
N332 C334 1.340 . S
N333 C330 1.368 . S
N333 C334 1.321 . S
N333 Co336 2.135 . S
C334 N332 1.340 . S
C334 N333 1.321 . S
C334 H358 0.930 . S
H335 C330 0.931 . S
Co336 N333 2.135 . S
Co336 N339 2.121 . S
Co336 O344 2.055 . S
Co336 O347 2.039 . S
Co336 N350 2.140 . S
C337 O338 1.227 . S
C337 O347 1.265 . S
O338 C337 1.227 . S
N339 Co336 2.121 . S
N339 C341 1.375 . S
N339 C342 1.313 . S
C340 C341 1.338 . S
C340 N343 1.377 . S
C340 H360 0.930 . S
C341 N339 1.375 . S
C341 C340 1.338 . S
C341 H345 0.931 . S
C342 N339 1.313 . S
C342 N343 1.344 . S
C342 H346 0.930 . S
N343 C340 1.377 . S
N343 C342 1.344 . S
O344 Co336 2.055 . S
O344 C348 1.253 . S
H345 C341 0.931 . S
H346 C342 0.930 . S
O347 Co336 2.039 . S
O347 C337 1.265 . S
C348 O344 1.253 . S
C348 O349 1.227 . S
O349 C348 1.227 . S
N350 Co336 2.140 . S
N350 C353 1.346 . S
N350 C354 1.345 . S
C351 C352 1.387 . S
C351 C355 1.391 . S
C352 C351 1.387 . S
C352 C353 1.369 . S
C352 H361 0.929 . S
C353 N350 1.346 . S
C353 C352 1.369 . S
C353 H356 0.928 . S
C354 N350 1.345 . S
C354 C355 1.371 . S
C354 H357 0.931 . S
C355 C351 1.391 . S
C355 C354 1.371 . S
C355 H362 0.930 . S
H356 C353 0.928 . S
H357 C354 0.931 . S
H358 C334 0.930 . S
H359 C331 0.930 . S
H360 C340 0.930 . S
H361 C352 0.929 . S
H362 C355 0.930 . S
C363 C364 1.351 . S
C363 N366 1.368 . S
C363 H368 0.931 . S
C364 C363 1.351 . S
C364 N365 1.373 . S
C364 H392 0.930 . S
N365 C364 1.373 . S
N365 C367 1.340 . S
N366 C363 1.368 . S
N366 C367 1.321 . S
N366 Co369 2.135 . S
C367 N365 1.340 . S
C367 N366 1.321 . S
C367 H391 0.930 . S
H368 C363 0.931 . S
Co369 N366 2.135 . S
Co369 N372 2.121 . S
Co369 O377 2.055 . S
Co369 O380 2.039 . S
Co369 N383 2.140 . S
C370 O371 1.227 . S
C370 O380 1.265 . S
O371 C370 1.227 . S
N372 Co369 2.121 . S
N372 C374 1.375 . S
N372 C375 1.313 . S
C373 C374 1.338 . S
C373 N376 1.377 . S
C373 H393 0.930 . S
C374 N372 1.375 . S
C374 C373 1.338 . S
C374 H378 0.931 . S
C375 N372 1.313 . S
C375 N376 1.344 . S
C375 H379 0.930 . S
N376 C373 1.377 . S
N376 C375 1.344 . S
O377 Co369 2.055 . S
O377 C381 1.253 . S
H378 C374 0.931 . S
H379 C375 0.930 . S
O380 Co369 2.039 . S
O380 C370 1.265 . S
C381 O377 1.253 . S
C381 O382 1.227 . S
O382 C381 1.227 . S
N383 Co369 2.140 . S
N383 C386 1.346 . S
N383 C387 1.345 . S
C384 C385 1.387 . S
C384 C388 1.391 1_545 S
C385 C384 1.387 . S
C385 C386 1.369 . S
C385 H394 0.929 . S
C386 N383 1.346 . S
C386 C385 1.369 . S
C386 H389 0.928 . S
C387 N383 1.345 . S
C387 C388 1.372 1_545 S
C387 H390 0.931 . S
C388 C384 1.391 1_565 S
C388 C387 1.372 1_565 S
C388 H395 0.929 . S
H389 C386 0.928 . S
H390 C387 0.931 . S
H391 C367 0.930 . S
H392 C364 0.930 . S
H393 C373 0.930 . S
H394 C385 0.929 . S
H395 C388 0.929 . S
C396 C397 1.351 . S
C396 N399 1.368 . S
C396 H401 0.931 . S
C397 C396 1.351 . S
C397 N398 1.373 . S
C397 H425 0.930 . S
N398 C397 1.373 . S
N398 C400 1.340 . S
N399 C396 1.368 . S
N399 C400 1.321 . S
N399 Co402 2.135 . S
C400 N398 1.340 . S
C400 N399 1.321 . S
C400 H424 0.930 . S
H401 C396 0.931 . S
Co402 N399 2.135 . S
Co402 N405 2.121 . S
Co402 O410 2.055 . S
Co402 O413 2.039 . S
Co402 N416 2.140 . S
C403 O404 1.227 . S
C403 O413 1.265 . S
O404 C403 1.227 . S
N405 Co402 2.121 . S
N405 C407 1.375 . S
N405 C408 1.313 . S
C406 C407 1.338 . S
C406 N409 1.377 . S
C406 H426 0.930 . S
C407 N405 1.375 . S
C407 C406 1.338 . S
C407 H411 0.931 . S
C408 N405 1.313 . S
C408 N409 1.344 . S
C408 H412 0.930 . S
N409 C406 1.377 . S
N409 C408 1.344 . S
O410 Co402 2.055 . S
O410 C414 1.253 . S
H411 C407 0.931 . S
H412 C408 0.930 . S
O413 Co402 2.039 . S
O413 C403 1.265 . S
C414 O410 1.253 . S
C414 O415 1.227 . S
O415 C414 1.227 . S
N416 Co402 2.140 . S
N416 C419 1.346 . S
N416 C420 1.345 . S
C417 C418 1.387 . S
C417 C421 1.391 . S
C418 C417 1.387 . S
C418 C419 1.369 . S
C418 H427 0.929 . S
C419 N416 1.346 . S
C419 C418 1.369 . S
C419 H422 0.928 . S
C420 N416 1.345 . S
C420 C421 1.371 . S
C420 H423 0.931 . S
C421 C417 1.391 . S
C421 C420 1.371 . S
C421 H428 0.930 . S
H422 C419 0.928 . S
H423 C420 0.931 . S
H424 C400 0.930 . S
H425 C397 0.930 . S
H426 C406 0.930 . S
H427 C418 0.929 . S
H428 C421 0.930 . S
C429 C430 1.351 . S
C429 N432 1.368 . S
C429 H434 0.931 . S
C430 C429 1.351 . S
C430 N431 1.373 . S
C430 H458 0.930 . S
N431 C430 1.373 . S
N431 C433 1.340 . S
N432 C429 1.368 . S
N432 C433 1.321 . S
N432 Co435 2.135 . S
C433 N431 1.340 . S
C433 N432 1.321 . S
C433 H457 0.930 . S
H434 C429 0.931 . S
Co435 N432 2.135 . S
Co435 N438 2.121 . S
Co435 O443 2.055 . S
Co435 O446 2.039 . S
Co435 N449 2.140 . S
C436 O437 1.227 . S
C436 O446 1.265 . S
O437 C436 1.227 . S
N438 Co435 2.121 . S
N438 C440 1.375 . S
N438 C441 1.313 . S
C439 C440 1.338 . S
C439 N442 1.377 . S
C439 H459 0.930 . S
C440 N438 1.375 . S
C440 C439 1.338 . S
C440 H444 0.931 . S
C441 N438 1.313 . S
C441 N442 1.344 . S
C441 H445 0.930 . S
N442 C439 1.377 . S
N442 C441 1.344 . S
O443 Co435 2.055 . S
O443 C447 1.253 . S
H444 C440 0.931 . S
H445 C441 0.930 . S
O446 Co435 2.039 . S
O446 C436 1.265 . S
C447 O443 1.253 . S
C447 O448 1.227 . S
O448 C447 1.227 . S
N449 Co435 2.140 . S
N449 C452 1.346 . S
N449 C453 1.345 . S
C450 C451 1.387 . S
C450 C454 1.391 1_565 S
C451 C450 1.387 . S
C451 C452 1.369 . S
C451 H460 0.929 . S
C452 N449 1.346 . S
C452 C451 1.369 . S
C452 H455 0.928 . S
C453 N449 1.345 . S
C453 C454 1.372 1_565 S
C453 H456 0.931 . S
C454 C450 1.391 1_545 S
C454 C453 1.372 1_545 S
C454 H461 0.929 . S
H455 C452 0.928 . S
H456 C453 0.931 . S
H457 C433 0.930 . S
H458 C430 0.930 . S
H459 C439 0.930 . S
H460 C451 0.929 . S
H461 C454 0.929 . S
C462 C463 1.351 . S
C462 N465 1.368 . S
C462 H467 0.931 . S
C463 C462 1.351 . S
C463 N464 1.373 . S
C463 H491 0.930 . S
N464 C463 1.373 . S
N464 C466 1.340 . S
N465 C462 1.368 . S
N465 C466 1.321 . S
N465 Co468 2.135 . S
C466 N464 1.340 . S
C466 N465 1.321 . S
C466 H490 0.930 . S
H467 C462 0.931 . S
Co468 N465 2.135 . S
Co468 N471 2.121 . S
Co468 O476 2.055 . S
Co468 O479 2.039 . S
Co468 N482 2.140 . S
C469 O470 1.227 . S
C469 O479 1.265 . S
O470 C469 1.227 . S
N471 Co468 2.121 . S
N471 C473 1.375 . S
N471 C474 1.313 . S
C472 C473 1.338 . S
C472 N475 1.377 . S
C472 H492 0.930 . S
C473 N471 1.375 . S
C473 C472 1.338 . S
C473 H477 0.931 . S
C474 N471 1.313 . S
C474 N475 1.344 . S
C474 H478 0.930 . S
N475 C472 1.377 . S
N475 C474 1.344 . S
O476 Co468 2.055 . S
O476 C480 1.253 . S
H477 C473 0.931 . S
H478 C474 0.930 . S
O479 Co468 2.039 . S
O479 C469 1.265 . S
C480 O476 1.253 . S
C480 O481 1.227 . S
O481 C480 1.227 . S
N482 Co468 2.140 . S
N482 C485 1.346 . S
N482 C486 1.345 . S
C483 C484 1.387 . S
C483 C487 1.391 . S
C484 C483 1.387 . S
C484 C485 1.369 . S
C484 H493 0.929 . S
C485 N482 1.346 . S
C485 C484 1.369 . S
C485 H488 0.928 . S
C486 N482 1.345 . S
C486 C487 1.371 . S
C486 H489 0.931 . S
C487 C483 1.391 . S
C487 C486 1.371 . S
C487 H494 0.930 . S
H488 C485 0.928 . S
H489 C486 0.931 . S
H490 C466 0.930 . S
H491 C463 0.930 . S
H492 C472 0.930 . S
H493 C484 0.929 . S
H494 C487 0.930 . S
C495 C496 1.351 . S
C495 N498 1.368 . S
C495 H500 0.931 . S
C496 C495 1.351 . S
C496 N497 1.373 . S
C496 H524 0.930 . S
N497 C496 1.373 . S
N497 C499 1.340 . S
N498 C495 1.368 . S
N498 C499 1.321 . S
N498 Co501 2.135 . S
C499 N497 1.340 . S
C499 N498 1.321 . S
C499 H523 0.930 . S
H500 C495 0.931 . S
Co501 N498 2.135 . S
Co501 N504 2.121 . S
Co501 O509 2.055 . S
Co501 O512 2.039 . S
Co501 N515 2.140 . S
C502 O503 1.227 . S
C502 O512 1.265 . S
O503 C502 1.227 . S
N504 Co501 2.121 . S
N504 C506 1.375 . S
N504 C507 1.313 . S
C505 C506 1.338 . S
C505 N508 1.377 . S
C505 H525 0.930 . S
C506 N504 1.375 . S
C506 C505 1.338 . S
C506 H510 0.931 . S
C507 N504 1.313 . S
C507 N508 1.344 . S
C507 H511 0.930 . S
N508 C505 1.377 . S
N508 C507 1.344 . S
O509 Co501 2.055 . S
O509 C513 1.253 . S
H510 C506 0.931 . S
H511 C507 0.930 . S
O512 Co501 2.039 . S
O512 C502 1.265 . S
C513 O509 1.253 . S
C513 O514 1.227 . S
O514 C513 1.227 . S
N515 Co501 2.140 . S
N515 C518 1.346 . S
N515 C519 1.345 . S
C516 C517 1.387 . S
C516 C520 1.391 1_545 S
C517 C516 1.387 . S
C517 C518 1.369 . S
C517 H526 0.920 1_655 S
C518 N515 1.346 . S
C518 C517 1.369 . S
C518 H521 0.928 . S
C519 N515 1.345 . S
C519 C520 1.372 1_545 S
C519 H522 0.931 . S
C520 C516 1.391 1_565 S
C520 C519 1.372 1_565 S
C520 H527 0.929 . S
H521 C518 0.928 . S
H522 C519 0.931 . S
H523 C499 0.930 . S
H524 C496 0.930 . S
H525 C505 0.930 . S
H526 C517 0.920 1_455 S
H527 C520 0.929 . S
C528 C529 1.351 . S
C528 N531 1.368 . S
C528 H533 0.931 . S
C529 C528 1.351 . S
C529 N530 1.373 . S
C529 H557 0.930 . S
N530 C529 1.373 . S
N530 C532 1.340 . S
N531 C528 1.368 . S
N531 C532 1.321 . S
N531 Co534 2.135 . S
C532 N530 1.340 . S
C532 N531 1.321 . S
C532 H556 0.930 . S
H533 C528 0.931 . S
Co534 N531 2.135 . S
Co534 N537 2.121 . S
Co534 O542 2.055 . S
Co534 O545 2.039 . S
Co534 N548 2.140 . S
C535 O536 1.227 . S
C535 O545 1.265 . S
O536 C535 1.227 . S
N537 Co534 2.121 . S
N537 C539 1.375 . S
N537 C540 1.313 . S
C538 C539 1.338 . S
C538 N541 1.377 . S
C538 H558 0.930 . S
C539 N537 1.375 . S
C539 C538 1.338 . S
C539 H543 0.931 . S
C540 N537 1.313 . S
C540 N541 1.344 . S
C540 H544 0.930 . S
N541 C538 1.377 . S
N541 C540 1.344 . S
O542 Co534 2.055 . S
O542 C546 1.253 . S
H543 C539 0.931 . S
H544 C540 0.930 . S
O545 Co534 2.039 . S
O545 C535 1.265 . S
C546 O542 1.253 . S
C546 O547 1.227 . S
O547 C546 1.227 . S
N548 Co534 2.140 . S
N548 C551 1.346 . S
N548 C552 1.345 . S
C549 C550 1.387 . S
C549 C553 1.391 . S
C550 C549 1.387 . S
C550 C551 1.369 . S
C550 H559 0.929 . S
C551 N548 1.346 . S
C551 C550 1.369 . S
C551 H554 0.928 . S
C552 N548 1.345 . S
C552 C553 1.371 . S
C552 H555 0.931 . S
C553 C549 1.391 . S
C553 C552 1.371 . S
C553 H560 0.930 . S
H554 C551 0.928 . S
H555 C552 0.931 . S
H556 C532 0.930 . S
H557 C529 0.930 . S
H558 C538 0.930 . S
H559 C550 0.929 . S
H560 C553 0.930 . S
C561 C562 1.351 . S
C561 N564 1.368 . S
C561 H566 0.931 . S
C562 C561 1.351 . S
C562 N563 1.373 . S
C562 H590 0.930 . S
N563 C562 1.373 . S
N563 C565 1.340 . S
N564 C561 1.368 . S
N564 C565 1.321 . S
N564 Co567 2.135 . S
C565 N563 1.340 . S
C565 N564 1.321 . S
C565 H589 0.930 . S
H566 C561 0.931 . S
Co567 N564 2.135 . S
Co567 N570 2.121 . S
Co567 O575 2.055 . S
Co567 O578 2.039 . S
Co567 N581 2.140 . S
C568 O569 1.227 . S
C568 O578 1.265 . S
O569 C568 1.227 . S
N570 Co567 2.121 . S
N570 C572 1.375 . S
N570 C573 1.313 . S
C571 C572 1.338 . S
C571 N574 1.377 . S
C571 H591 0.930 . S
C572 N570 1.375 . S
C572 C571 1.338 . S
C572 H576 0.931 . S
C573 N570 1.313 . S
C573 N574 1.344 . S
C573 H577 0.930 . S
N574 C571 1.377 . S
N574 C573 1.344 . S
O575 Co567 2.055 . S
O575 C579 1.253 . S
H576 C572 0.931 . S
H577 C573 0.930 . S
O578 Co567 2.039 . S
O578 C568 1.265 . S
C579 O575 1.253 . S
C579 O580 1.227 . S
O580 C579 1.227 . S
N581 Co567 2.140 . S
N581 C584 1.346 . S
N581 C585 1.345 . S
C582 C583 1.387 . S
C582 C586 1.391 . S
C583 C582 1.387 . S
C583 C584 1.369 . S
C583 H592 0.929 . S
C584 N581 1.346 . S
C584 C583 1.369 . S
C584 H587 0.928 . S
C585 N581 1.345 . S
C585 C586 1.371 . S
C585 H588 0.931 . S
C586 C582 1.391 . S
C586 C585 1.371 . S
C586 H593 0.930 . S
H587 C584 0.928 . S
H588 C585 0.931 . S
H589 C565 0.930 . S
H590 C562 0.930 . S
H591 C571 0.930 . S
H592 C583 0.929 . S
H593 C586 0.930 . S
C594 C595 1.351 . S
C594 N597 1.368 . S
C594 H599 0.931 . S
C595 C594 1.351 . S
C595 N596 1.373 . S
C595 H623 0.930 . S
N596 C595 1.373 . S
N596 C598 1.340 . S
N597 C594 1.368 . S
N597 C598 1.321 . S
N597 Co600 2.135 . S
C598 N596 1.340 . S
C598 N597 1.321 . S
C598 H622 0.930 . S
H599 C594 0.931 . S
Co600 N597 2.135 . S
Co600 N603 2.121 . S
Co600 O608 2.055 . S
Co600 O611 2.039 . S
Co600 N614 2.140 . S
C601 O602 1.227 . S
C601 O611 1.265 . S
O602 C601 1.227 . S
N603 Co600 2.121 . S
N603 C605 1.375 . S
N603 C606 1.313 . S
C604 C605 1.338 . S
C604 N607 1.377 . S
C604 H624 0.930 . S
C605 N603 1.375 . S
C605 C604 1.338 . S
C605 H609 0.931 . S
C606 N603 1.313 . S
C606 N607 1.344 . S
C606 H610 0.930 . S
N607 C604 1.377 . S
N607 C606 1.344 . S
O608 Co600 2.055 . S
O608 C612 1.253 . S
H609 C605 0.931 . S
H610 C606 0.930 . S
O611 Co600 2.039 . S
O611 C601 1.265 . S
C612 O608 1.253 . S
C612 O613 1.227 . S
O613 C612 1.227 . S
N614 Co600 2.140 . S
N614 C617 1.346 . S
N614 C618 1.345 . S
C615 C616 1.387 . S
C615 C619 1.391 . S
C616 C615 1.387 . S
C616 C617 1.369 . S
C616 H625 0.929 . S
C617 N614 1.346 . S
C617 C616 1.369 . S
C617 H620 0.928 . S
C618 N614 1.345 . S
C618 C619 1.371 . S
C618 H621 0.931 . S
C619 C615 1.391 . S
C619 C618 1.371 . S
C619 H626 0.930 . S
H620 C617 0.928 . S
H621 C618 0.931 . S
H622 C598 0.930 . S
H623 C595 0.930 . S
H624 C604 0.930 . S
H625 C616 0.929 . S
H626 C619 0.930 . S
C627 C628 1.351 . S
C627 N630 1.368 . S
C627 H632 0.931 . S
C628 C627 1.351 . S
C628 N629 1.373 . S
C628 H656 0.930 . S
N629 C628 1.373 . S
N629 C631 1.340 . S
N630 C627 1.368 . S
N630 C631 1.321 . S
N630 Co633 2.135 . S
C631 N629 1.340 . S
C631 N630 1.321 . S
C631 H655 0.930 . S
H632 C627 0.931 . S
Co633 N630 2.135 . S
Co633 N636 2.121 . S
Co633 O641 2.055 . S
Co633 O644 2.039 . S
Co633 N647 2.140 . S
C634 O635 1.227 . S
C634 O644 1.265 . S
O635 C634 1.227 . S
N636 Co633 2.121 . S
N636 C638 1.375 . S
N636 C639 1.313 . S
C637 C638 1.338 . S
C637 N640 1.377 . S
C637 H657 0.930 . S
C638 N636 1.375 . S
C638 C637 1.338 . S
C638 H642 0.931 . S
C639 N636 1.313 . S
C639 N640 1.344 . S
C639 H643 0.930 . S
N640 C637 1.377 . S
N640 C639 1.344 . S
O641 Co633 2.055 . S
O641 C645 1.253 . S
H642 C638 0.931 . S
H643 C639 0.930 . S
O644 Co633 2.039 . S
O644 C634 1.265 . S
C645 O641 1.253 . S
C645 O646 1.227 . S
O646 C645 1.227 . S
N647 Co633 2.140 . S
N647 C650 1.346 . S
N647 C651 1.345 . S
C648 C649 1.387 . S
C648 C652 1.391 . S
C649 C648 1.387 . S
C649 C650 1.369 . S
C649 H658 0.920 1_655 S
C650 N647 1.346 . S
C650 C649 1.369 . S
C650 H653 0.928 . S
C651 N647 1.345 . S
C651 C652 1.371 . S
C651 H654 0.931 . S
C652 C648 1.391 . S
C652 C651 1.371 . S
C652 H659 0.930 . S
H653 C650 0.928 . S
H654 C651 0.931 . S
H655 C631 0.930 . S
H656 C628 0.930 . S
H657 C637 0.930 . S
H658 C649 0.920 1_455 S
H659 C652 0.930 . S
C660 C661 1.351 . S
C660 N663 1.368 . S
C660 H665 0.931 . S
C661 C660 1.351 . S
C661 N662 1.373 . S
C661 H689 0.930 . S
N662 C661 1.373 . S
N662 C664 1.340 . S
N663 C660 1.368 . S
N663 C664 1.321 . S
N663 Co666 2.135 . S
C664 N662 1.340 . S
C664 N663 1.321 . S
C664 H688 0.930 . S
H665 C660 0.931 . S
Co666 N663 2.135 . S
Co666 N669 2.121 . S
Co666 O674 2.055 . S
Co666 O677 2.039 . S
Co666 N680 2.140 . S
C667 O668 1.227 . S
C667 O677 1.265 . S
O668 C667 1.227 . S
N669 Co666 2.121 . S
N669 C671 1.375 . S
N669 C672 1.313 . S
C670 C671 1.338 . S
C670 N673 1.377 . S
C670 H690 0.930 . S
C671 N669 1.375 . S
C671 C670 1.338 . S
C671 H675 0.931 . S
C672 N669 1.313 . S
C672 N673 1.344 . S
C672 H676 0.930 . S
N673 C670 1.377 . S
N673 C672 1.344 . S
O674 Co666 2.055 . S
O674 C678 1.253 . S
H675 C671 0.931 . S
H676 C672 0.930 . S
O677 Co666 2.039 . S
O677 C667 1.265 . S
C678 O674 1.253 . S
C678 O679 1.227 . S
O679 C678 1.227 . S
N680 Co666 2.140 . S
N680 C683 1.346 . S
N680 C684 1.345 . S
C681 C682 1.387 . S
C681 C685 1.391 . S
C682 C681 1.387 . S
C682 C683 1.369 . S
C682 H691 0.929 . S
C683 N680 1.346 . S
C683 C682 1.369 . S
C683 H686 0.928 . S
C684 N680 1.345 . S
C684 C685 1.371 . S
C684 H687 0.931 . S
C685 C681 1.391 . S
C685 C684 1.371 . S
C685 H692 0.930 . S
H686 C683 0.928 . S
H687 C684 0.931 . S
H688 C664 0.930 . S
H689 C661 0.930 . S
H690 C670 0.930 . S
H691 C682 0.929 . S
H692 C685 0.930 . S
C693 C694 1.351 . S
C693 N696 1.368 . S
C693 H698 0.931 . S
C694 C693 1.351 . S
C694 N695 1.373 . S
C694 H722 0.930 . S
N695 C694 1.373 . S
N695 C697 1.340 . S
N696 C693 1.368 . S
N696 C697 1.321 . S
N696 Co699 2.135 . S
C697 N695 1.340 . S
C697 N696 1.321 . S
C697 H721 0.930 . S
H698 C693 0.931 . S
Co699 N696 2.135 . S
Co699 N702 2.121 . S
Co699 O707 2.055 . S
Co699 O710 2.039 . S
Co699 N713 2.140 . S
C700 O701 1.227 . S
C700 O710 1.265 . S
O701 C700 1.227 . S
N702 Co699 2.121 . S
N702 C704 1.375 . S
N702 C705 1.313 . S
C703 C704 1.338 . S
C703 N706 1.377 . S
C703 H723 0.930 . S
C704 N702 1.375 . S
C704 C703 1.338 . S
C704 H708 0.931 . S
C705 N702 1.313 . S
C705 N706 1.344 . S
C705 H709 0.930 . S
N706 C703 1.377 . S
N706 C705 1.344 . S
O707 Co699 2.055 . S
O707 C711 1.253 . S
H708 C704 0.931 . S
H709 C705 0.930 . S
O710 Co699 2.039 . S
O710 C700 1.265 . S
C711 O707 1.253 . S
C711 O712 1.227 . S
O712 C711 1.227 . S
N713 Co699 2.140 . S
N713 C716 1.346 . S
N713 C717 1.345 . S
C714 C715 1.387 . S
C714 C718 1.391 . S
C715 C714 1.387 . S
C715 C716 1.369 . S
C715 H724 0.920 1_655 S
C716 N713 1.346 . S
C716 C715 1.369 . S
C716 H719 0.928 . S
C717 N713 1.345 . S
C717 C718 1.371 . S
C717 H720 0.931 . S
C718 C714 1.391 . S
C718 C717 1.371 . S
C718 H725 0.930 . S
H719 C716 0.928 . S
H720 C717 0.931 . S
H721 C697 0.930 . S
H722 C694 0.930 . S
H723 C703 0.930 . S
H724 C715 0.920 1_455 S
H725 C718 0.930 . S
C726 C727 1.351 . S
C726 N729 1.368 . S
C726 H731 0.931 . S
C727 C726 1.351 . S
C727 N728 1.373 . S
C727 H755 0.930 . S
N728 C727 1.373 . S
N728 C730 1.340 . S
N729 C726 1.368 . S
N729 C730 1.321 . S
N729 Co732 2.135 . S
C730 N728 1.340 . S
C730 N729 1.321 . S
C730 H754 0.930 . S
H731 C726 0.931 . S
Co732 N729 2.135 . S
Co732 N735 2.121 . S
Co732 O740 2.055 . S
Co732 O743 2.039 . S
Co732 N746 2.140 . S
C733 O734 1.227 . S
C733 O743 1.265 . S
O734 C733 1.227 . S
N735 Co732 2.121 . S
N735 C737 1.375 . S
N735 C738 1.313 . S
C736 C737 1.338 . S
C736 N739 1.377 . S
C736 H756 0.930 . S
C737 N735 1.375 . S
C737 C736 1.338 . S
C737 H741 0.931 . S
C738 N735 1.313 . S
C738 N739 1.344 . S
C738 H742 0.930 . S
N739 C736 1.377 . S
N739 C738 1.344 . S
O740 Co732 2.055 . S
O740 C744 1.253 . S
H741 C737 0.931 . S
H742 C738 0.930 . S
O743 Co732 2.039 . S
O743 C733 1.265 . S
C744 O740 1.253 . S
C744 O745 1.227 . S
O745 C744 1.227 . S
N746 Co732 2.140 . S
N746 C749 1.346 . S
N746 C750 1.345 . S
C747 C748 1.387 . S
C747 C751 1.391 . S
C748 C747 1.387 . S
C748 C749 1.369 . S
C748 H757 0.929 . S
C749 N746 1.346 . S
C749 C748 1.369 . S
C749 H752 0.928 . S
C750 N746 1.345 . S
C750 C751 1.371 . S
C750 H753 0.931 . S
C751 C747 1.391 . S
C751 C750 1.371 . S
C751 H758 0.930 . S
H752 C749 0.928 . S
H753 C750 0.931 . S
H754 C730 0.930 . S
H755 C727 0.930 . S
H756 C736 0.930 . S
H757 C748 0.929 . S
H758 C751 0.930 . S
C759 C760 1.351 . S
C759 N762 1.368 . S
C759 H764 0.931 . S
C760 C759 1.351 . S
C760 N761 1.373 . S
C760 H788 0.930 . S
N761 C760 1.373 . S
N761 C763 1.340 . S
N762 C759 1.368 . S
N762 C763 1.321 . S
N762 Co765 2.135 . S
C763 N761 1.340 . S
C763 N762 1.321 . S
C763 H787 0.930 . S
H764 C759 0.931 . S
Co765 N762 2.135 . S
Co765 N768 2.121 . S
Co765 O773 2.055 . S
Co765 O776 2.039 . S
Co765 N779 2.140 . S
C766 O767 1.227 . S
C766 O776 1.265 . S
O767 C766 1.227 . S
N768 Co765 2.121 . S
N768 C770 1.375 . S
N768 C771 1.313 . S
C769 C770 1.338 . S
C769 N772 1.377 . S
C769 H789 0.930 . S
C770 N768 1.375 . S
C770 C769 1.338 . S
C770 H774 0.931 . S
C771 N768 1.313 . S
C771 N772 1.344 . S
C771 H775 0.930 . S
N772 C769 1.377 . S
N772 C771 1.344 . S
O773 Co765 2.055 . S
O773 C777 1.253 . S
H774 C770 0.931 . S
H775 C771 0.930 . S
O776 Co765 2.039 . S
O776 C766 1.265 . S
C777 O773 1.253 . S
C777 O778 1.227 . S
O778 C777 1.227 . S
N779 Co765 2.140 . S
N779 C782 1.346 . S
N779 C783 1.345 . S
C780 C781 1.387 . S
C780 C784 1.391 . S
C781 C780 1.387 . S
C781 C782 1.369 . S
C781 H790 0.929 . S
C782 N779 1.346 . S
C782 C781 1.369 . S
C782 H785 0.928 . S
C783 N779 1.345 . S
C783 C784 1.371 . S
C783 H786 0.931 . S
C784 C780 1.391 . S
C784 C783 1.371 . S
C784 H791 0.930 . S
H785 C782 0.928 . S
H786 C783 0.931 . S
H787 C763 0.930 . S
H788 C760 0.930 . S
H789 C769 0.930 . S
H790 C781 0.929 . S
H791 C784 0.930 . S
C792 C793 1.351 . S
C792 N795 1.368 . S
C792 H797 0.931 . S
C793 C792 1.351 . S
C793 N794 1.373 . S
C793 H821 0.930 . S
N794 C793 1.373 . S
N794 C796 1.340 . S
N795 C792 1.368 . S
N795 C796 1.321 . S
N795 Co798 2.135 . S
C796 N794 1.340 . S
C796 N795 1.321 . S
C796 H820 0.930 . S
H797 C792 0.931 . S
Co798 N795 2.135 . S
Co798 N801 2.121 . S
Co798 O806 2.055 . S
Co798 O809 2.039 . S
Co798 N812 2.140 . S
C799 O800 1.227 . S
C799 O809 1.265 . S
O800 C799 1.227 . S
N801 Co798 2.121 . S
N801 C803 1.375 . S
N801 C804 1.313 . S
C802 C803 1.338 . S
C802 N805 1.377 . S
C802 H822 0.930 . S
C803 N801 1.375 . S
C803 C802 1.338 . S
C803 H807 0.931 . S
C804 N801 1.313 . S
C804 N805 1.344 . S
C804 H808 0.930 . S
N805 C802 1.377 . S
N805 C804 1.344 . S
O806 Co798 2.055 . S
O806 C810 1.253 . S
H807 C803 0.931 . S
H808 C804 0.930 . S
O809 Co798 2.039 . S
O809 C799 1.265 . S
C810 O806 1.253 . S
C810 O811 1.227 . S
O811 C810 1.227 . S
N812 Co798 2.140 . S
N812 C815 1.346 . S
N812 C816 1.345 . S
C813 C814 1.387 . S
C813 C817 1.391 . S
C814 C813 1.387 . S
C814 C815 1.369 . S
C814 H823 0.929 . S
C815 N812 1.346 . S
C815 C814 1.369 . S
C815 H818 0.928 . S
C816 N812 1.345 . S
C816 C817 1.371 . S
C816 H819 0.931 . S
C817 C813 1.391 . S
C817 C816 1.371 . S
C817 H824 0.930 . S
H818 C815 0.928 . S
H819 C816 0.931 . S
H820 C796 0.930 . S
H821 C793 0.930 . S
H822 C802 0.930 . S
H823 C814 0.929 . S
H824 C817 0.930 . S
C825 C826 1.351 . S
C825 N828 1.368 . S
C825 H830 0.931 . S
C826 C825 1.351 . S
C826 N827 1.373 . S
C826 H854 0.930 . S
N827 C826 1.373 . S
N827 C829 1.340 . S
N828 C825 1.368 . S
N828 C829 1.321 . S
N828 Co831 2.135 . S
C829 N827 1.340 . S
C829 N828 1.321 . S
C829 H853 0.930 . S
H830 C825 0.931 . S
Co831 N828 2.135 . S
Co831 N834 2.121 . S
Co831 O839 2.055 . S
Co831 O842 2.039 . S
Co831 N845 2.140 . S
C832 O833 1.227 . S
C832 O842 1.265 . S
O833 C832 1.227 . S
N834 Co831 2.121 . S
N834 C836 1.375 . S
N834 C837 1.313 . S
C835 C836 1.338 . S
C835 N838 1.377 . S
C835 H855 0.930 . S
C836 N834 1.375 . S
C836 C835 1.338 . S
C836 H840 0.931 . S
C837 N834 1.313 . S
C837 N838 1.344 . S
C837 H841 0.930 . S
N838 C835 1.377 . S
N838 C837 1.344 . S
O839 Co831 2.055 . S
O839 C843 1.253 . S
H840 C836 0.931 . S
H841 C837 0.930 . S
O842 Co831 2.039 . S
O842 C832 1.265 . S
C843 O839 1.253 . S
C843 O844 1.227 . S
O844 C843 1.227 . S
N845 Co831 2.140 . S
N845 C848 1.346 . S
N845 C849 1.345 . S
C846 C847 1.387 . S
C846 C850 1.391 . S
C847 C846 1.387 . S
C847 C848 1.369 . S
C847 H856 0.929 . S
C848 N845 1.346 . S
C848 C847 1.369 . S
C848 H851 0.928 . S
C849 N845 1.345 . S
C849 C850 1.371 . S
C849 H852 0.931 . S
C850 C846 1.391 . S
C850 C849 1.371 . S
C850 H857 0.930 . S
H851 C848 0.928 . S
H852 C849 0.931 . S
H853 C829 0.930 . S
H854 C826 0.930 . S
H855 C835 0.930 . S
H856 C847 0.929 . S
H857 C850 0.930 . S
C858 C859 1.351 . S
C858 N861 1.368 . S
C858 H863 0.931 . S
C859 C858 1.351 . S
C859 N860 1.373 . S
C859 H887 0.930 . S
N860 C859 1.373 . S
N860 C862 1.340 . S
N861 C858 1.368 . S
N861 C862 1.321 . S
N861 Co864 2.135 . S
C862 N860 1.340 . S
C862 N861 1.321 . S
C862 H886 0.930 . S
H863 C858 0.931 . S
Co864 N861 2.135 . S
Co864 N867 2.121 . S
Co864 O872 2.055 . S
Co864 O875 2.039 . S
Co864 N878 2.140 . S
C865 O866 1.227 . S
C865 O875 1.265 . S
O866 C865 1.227 . S
N867 Co864 2.121 . S
N867 C869 1.375 . S
N867 C870 1.313 . S
C868 C869 1.338 . S
C868 N871 1.377 . S
C868 H888 0.930 . S
C869 N867 1.375 . S
C869 C868 1.338 . S
C869 H873 0.931 . S
C870 N867 1.313 . S
C870 N871 1.344 . S
C870 H874 0.930 . S
N871 C868 1.377 . S
N871 C870 1.344 . S
O872 Co864 2.055 . S
O872 C876 1.253 . S
H873 C869 0.931 . S
H874 C870 0.930 . S
O875 Co864 2.039 . S
O875 C865 1.265 . S
C876 O872 1.253 . S
C876 O877 1.227 . S
O877 C876 1.227 . S
N878 Co864 2.140 . S
N878 C881 1.346 . S
N878 C882 1.345 . S
C879 C880 1.387 . S
C879 C883 1.391 . S
C880 C879 1.387 . S
C880 C881 1.369 . S
C880 H889 0.929 . S
C881 N878 1.346 . S
C881 C880 1.369 . S
C881 H884 0.928 . S
C882 N878 1.345 . S
C882 C883 1.371 . S
C882 H885 0.931 . S
C883 C879 1.391 . S
C883 C882 1.371 . S
C883 H890 0.930 . S
H884 C881 0.928 . S
H885 C882 0.931 . S
H886 C862 0.930 . S
H887 C859 0.930 . S
H888 C868 0.930 . S
H889 C880 0.929 . S
H890 C883 0.930 . S
C891 C892 1.351 . S
C891 N894 1.368 . S
C891 H896 0.931 . S
C892 C891 1.351 . S
C892 N893 1.373 . S
C892 H920 0.930 . S
N893 C892 1.373 . S
N893 C895 1.340 . S
N894 C891 1.368 . S
N894 C895 1.321 . S
N894 Co897 2.135 . S
C895 N893 1.340 . S
C895 N894 1.321 . S
C895 H919 0.930 . S
H896 C891 0.931 . S
Co897 N894 2.135 . S
Co897 N900 2.121 . S
Co897 O905 2.055 . S
Co897 O908 2.039 . S
Co897 N911 2.140 . S
C898 O899 1.227 . S
C898 O908 1.265 . S
O899 C898 1.227 . S
N900 Co897 2.121 . S
N900 C902 1.375 . S
N900 C903 1.313 . S
C901 C902 1.338 . S
C901 N904 1.377 . S
C901 H921 0.930 . S
C902 N900 1.375 . S
C902 C901 1.338 . S
C902 H906 0.931 . S
C903 N900 1.313 . S
C903 N904 1.344 . S
C903 H907 0.930 . S
N904 C901 1.377 . S
N904 C903 1.344 . S
O905 Co897 2.055 . S
O905 C909 1.253 . S
H906 C902 0.931 . S
H907 C903 0.930 . S
O908 Co897 2.039 . S
O908 C898 1.265 . S
C909 O905 1.253 . S
C909 O910 1.227 . S
O910 C909 1.227 . S
N911 Co897 2.140 . S
N911 C914 1.346 . S
N911 C915 1.345 . S
C912 C913 1.387 . S
C912 C916 1.391 . S
C913 C912 1.387 . S
C913 C914 1.369 . S
C913 H922 0.920 1_455 S
C914 N911 1.346 . S
C914 C913 1.369 . S
C914 H917 0.928 . S
C915 N911 1.345 . S
C915 C916 1.371 . S
C915 H918 0.931 . S
C916 C912 1.391 . S
C916 C915 1.371 . S
C916 H923 0.930 . S
H917 C914 0.928 . S
H918 C915 0.931 . S
H919 C895 0.930 . S
H920 C892 0.930 . S
H921 C901 0.930 . S
H922 C913 0.920 1_655 S
H923 C916 0.930 . S
C924 C925 1.351 . S
C924 N927 1.368 . S
C924 H929 0.931 . S
C925 C924 1.351 . S
C925 N926 1.373 . S
C925 H953 0.930 . S
N926 C925 1.373 . S
N926 C928 1.340 . S
N927 C924 1.368 . S
N927 C928 1.321 . S
N927 Co930 2.135 . S
C928 N926 1.340 . S
C928 N927 1.321 . S
C928 H952 0.930 . S
H929 C924 0.931 . S
Co930 N927 2.135 . S
Co930 N933 2.121 . S
Co930 O938 2.055 . S
Co930 O941 2.039 . S
Co930 N944 2.140 . S
C931 O932 1.227 . S
C931 O941 1.265 . S
O932 C931 1.227 . S
N933 Co930 2.121 . S
N933 C935 1.375 . S
N933 C936 1.313 . S
C934 C935 1.338 . S
C934 N937 1.377 . S
C934 H954 0.930 . S
C935 N933 1.375 . S
C935 C934 1.338 . S
C935 H939 0.931 . S
C936 N933 1.313 . S
C936 N937 1.344 . S
C936 H940 0.930 . S
N937 C934 1.377 . S
N937 C936 1.344 . S
O938 Co930 2.055 . S
O938 C942 1.253 . S
H939 C935 0.931 . S
H940 C936 0.930 . S
O941 Co930 2.039 . S
O941 C931 1.265 . S
C942 O938 1.253 . S
C942 O943 1.227 . S
O943 C942 1.227 . S
N944 Co930 2.140 . S
N944 C947 1.346 . S
N944 C948 1.345 . S
C945 C946 1.387 . S
C945 C949 1.391 . S
C946 C945 1.387 . S
C946 C947 1.369 . S
C946 H955 0.929 . S
C947 N944 1.346 . S
C947 C946 1.369 . S
C947 H950 0.928 . S
C948 N944 1.345 . S
C948 C949 1.371 . S
C948 H951 0.931 . S
C949 C945 1.391 . S
C949 C948 1.371 . S
C949 H956 0.930 . S
H950 C947 0.928 . S
H951 C948 0.931 . S
H952 C928 0.930 . S
H953 C925 0.930 . S
H954 C934 0.930 . S
H955 C946 0.929 . S
H956 C949 0.930 . S
C957 C958 1.351 . S
C957 N960 1.368 . S
C957 H962 0.931 . S
C958 C957 1.351 . S
C958 N959 1.373 . S
C958 H986 0.930 . S
N959 C958 1.373 . S
N959 C961 1.340 . S
N960 C957 1.368 . S
N960 C961 1.321 . S
N960 Co963 2.135 . S
C961 N959 1.340 . S
C961 N960 1.321 . S
C961 H985 0.930 . S
H962 C957 0.931 . S
Co963 N960 2.135 . S
Co963 N966 2.121 . S
Co963 O971 2.055 . S
Co963 O974 2.039 . S
Co963 N977 2.140 . S
C964 O965 1.227 . S
C964 O974 1.265 . S
O965 C964 1.227 . S
N966 Co963 2.121 . S
N966 C968 1.375 . S
N966 C969 1.313 . S
C967 C968 1.338 . S
C967 N970 1.377 . S
C967 H987 0.930 . S
C968 N966 1.375 . S
C968 C967 1.338 . S
C968 H972 0.931 . S
C969 N966 1.313 . S
C969 N970 1.344 . S
C969 H973 0.930 . S
N970 C967 1.377 . S
N970 C969 1.344 . S
O971 Co963 2.055 . S
O971 C975 1.253 . S
H972 C968 0.931 . S
H973 C969 0.930 . S
O974 Co963 2.039 . S
O974 C964 1.265 . S
C975 O971 1.253 . S
C975 O976 1.227 . S
O976 C975 1.227 . S
N977 Co963 2.140 . S
N977 C980 1.346 . S
N977 C981 1.345 . S
C978 C979 1.387 . S
C978 C982 1.391 . S
C979 C978 1.387 . S
C979 C980 1.369 . S
C979 H988 0.920 1_455 S
C980 N977 1.346 . S
C980 C979 1.369 . S
C980 H983 0.928 . S
C981 N977 1.345 . S
C981 C982 1.371 . S
C981 H984 0.931 . S
C982 C978 1.391 . S
C982 C981 1.371 . S
C982 H989 0.930 . S
H983 C980 0.928 . S
H984 C981 0.931 . S
H985 C961 0.930 . S
H986 C958 0.930 . S
H987 C967 0.930 . S
H988 C979 0.920 1_655 S
H989 C982 0.930 . S
C990 C991 1.351 . S
C990 N993 1.368 . S
C990 H995 0.931 . S
C991 C990 1.351 . S
C991 N992 1.373 . S
C991 H1019 0.930 . S
N992 C991 1.373 . S
N992 C994 1.340 . S
N993 C990 1.368 . S
N993 C994 1.321 . S
N993 Co996 2.135 . S
C994 N992 1.340 . S
C994 N993 1.321 . S
C994 H1018 0.930 . S
H995 C990 0.931 . S
Co996 N993 2.135 . S
Co996 N999 2.121 . S
Co996 O1004 2.055 . S
Co996 O1007 2.039 . S
Co996 N1010 2.140 . S
C997 O998 1.227 . S
C997 O1007 1.265 . S
O998 C997 1.227 . S
N999 Co996 2.121 . S
N999 C1001 1.375 . S
N999 C1002 1.313 . S
C1000 C1001 1.338 . S
C1000 N1003 1.377 . S
C1000 H1020 0.930 . S
C1001 N999 1.375 . S
C1001 C1000 1.338 . S
C1001 H1005 0.931 . S
C1002 N999 1.313 . S
C1002 N1003 1.344 . S
C1002 H1006 0.930 . S
N1003 C1000 1.377 . S
N1003 C1002 1.344 . S
O1004 Co996 2.055 . S
O1004 C1008 1.253 . S
H1005 C1001 0.931 . S
H1006 C1002 0.930 . S
O1007 Co996 2.039 . S
O1007 C997 1.265 . S
C1008 O1004 1.253 . S
C1008 O1009 1.227 . S
O1009 C1008 1.227 . S
N1010 Co996 2.140 . S
N1010 C1013 1.346 . S
N1010 C1014 1.345 . S
C1011 C1012 1.387 . S
C1011 C1015 1.391 . S
C1012 C1011 1.387 . S
C1012 C1013 1.369 . S
C1012 H1021 0.929 . S
C1013 N1010 1.346 . S
C1013 C1012 1.369 . S
C1013 H1016 0.928 . S
C1014 N1010 1.345 . S
C1014 C1015 1.371 . S
C1014 H1017 0.931 . S
C1015 C1011 1.391 . S
C1015 C1014 1.371 . S
C1015 H1022 0.930 . S
H1016 C1013 0.928 . S
H1017 C1014 0.931 . S
H1018 C994 0.930 . S
H1019 C991 0.930 . S
H1020 C1000 0.930 . S
H1021 C1012 0.929 . S
H1022 C1015 0.930 . S
C1023 C1024 1.351 . S
C1023 N1026 1.368 . S
C1023 H1028 0.931 . S
C1024 C1023 1.351 . S
C1024 N1025 1.373 . S
C1024 H1052 0.930 . S
N1025 C1024 1.373 . S
N1025 C1027 1.340 . S
N1026 C1023 1.368 . S
N1026 C1027 1.321 . S
N1026 Co1029 2.135 . S
C1027 N1025 1.340 . S
C1027 N1026 1.321 . S
C1027 H1051 0.930 . S
H1028 C1023 0.931 . S
Co1029 N1026 2.135 . S
Co1029 N1032 2.121 . S
Co1029 O1037 2.055 . S
Co1029 O1040 2.039 . S
Co1029 N1043 2.140 . S
C1030 O1031 1.227 . S
C1030 O1040 1.265 . S
O1031 C1030 1.227 . S
N1032 Co1029 2.121 . S
N1032 C1034 1.375 . S
N1032 C1035 1.313 . S
C1033 C1034 1.338 . S
C1033 N1036 1.377 . S
C1033 H1053 0.930 . S
C1034 N1032 1.375 . S
C1034 C1033 1.338 . S
C1034 H1038 0.931 . S
C1035 N1032 1.313 . S
C1035 N1036 1.344 . S
C1035 H1039 0.930 . S
N1036 C1033 1.377 . S
N1036 C1035 1.344 . S
O1037 Co1029 2.055 . S
O1037 C1041 1.253 . S
H1038 C1034 0.931 . S
H1039 C1035 0.930 . S
O1040 Co1029 2.039 . S
O1040 C1030 1.265 . S
C1041 O1037 1.253 . S
C1041 O1042 1.227 . S
O1042 C1041 1.227 . S
N1043 Co1029 2.140 . S
N1043 C1046 1.346 . S
N1043 C1047 1.345 . S
C1044 C1045 1.387 . S
C1044 C1048 1.391 . S
C1045 C1044 1.387 . S
C1045 C1046 1.369 . S
C1045 H1054 0.929 . S
C1046 N1043 1.346 . S
C1046 C1045 1.369 . S
C1046 H1049 0.928 . S
C1047 N1043 1.345 . S
C1047 C1048 1.371 . S
C1047 H1050 0.931 . S
C1048 C1044 1.391 . S
C1048 C1047 1.371 . S
C1048 H1055 0.930 . S
H1049 C1046 0.928 . S
H1050 C1047 0.931 . S
H1051 C1027 0.930 . S
H1052 C1024 0.930 . S
H1053 C1033 0.930 . S
H1054 C1045 0.929 . S
H1055 C1048 0.930 . S
H1056 C1062 0.930 . S
H1057 C1066 0.930 . S
H1058 C1071 0.929 . S
H1059 C1069 0.929 . S
H1060 C1064 0.929 . S
H1061 C1070 0.929 . S
C1062 H1056 0.930 . S
C1062 C1063 1.367 . S
C1062 C1070 1.378 . S
C1063 C1062 1.367 . S
C1063 C1071 1.433 . S
C1064 H1060 0.929 . S
C1064 C1066 1.378 . S
C1064 C1068 1.350 . S
C1065 C1068 1.463 . S
C1065 C1070 1.350 . S
C1065 N1073 1.427 . S
C1066 H1057 0.930 . S
C1066 C1064 1.378 . S
C1066 C1067 1.367 . S
C1067 C1066 1.367 . S
C1067 C1069 1.433 . S
C1068 C1064 1.350 . S
C1068 C1065 1.463 . S
C1068 N1072 1.427 . S
C1069 H1059 0.929 . S
C1069 C1067 1.433 . S
C1069 N1072 1.384 . S
C1070 H1061 0.929 . S
C1070 C1062 1.378 . S
C1070 C1065 1.350 . S
C1071 H1058 0.929 . S
C1071 C1063 1.433 . S
C1071 N1073 1.384 . S
N1072 C1068 1.427 . S
N1072 C1069 1.384 . S
N1073 C1065 1.427 . S
N1073 C1071 1.384 . S
H1074 C1080 0.930 . S
H1075 C1084 0.930 . S
H1076 C1089 0.929 1_565 S
H1077 C1087 0.929 . S
H1078 C1082 0.929 . S
H1079 C1088 0.929 . S
C1080 H1074 0.930 . S
C1080 C1081 1.367 . S
C1080 C1088 1.378 . S
C1081 C1080 1.367 . S
C1081 C1089 1.433 . S
C1082 H1078 0.929 . S
C1082 C1084 1.378 . S
C1082 C1086 1.350 1_565 S
C1083 C1086 1.463 . S
C1083 C1088 1.350 . S
C1083 N1091 1.427 . S
C1084 H1075 0.930 . S
C1084 C1082 1.378 . S
C1084 C1085 1.367 1_565 S
C1085 C1084 1.367 1_545 S
C1085 C1087 1.433 . S
C1086 C1082 1.350 1_545 S
C1086 C1083 1.463 . S
C1086 N1090 1.427 . S
C1087 H1077 0.929 . S
C1087 C1085 1.433 . S
C1087 N1090 1.384 . S
C1088 H1079 0.929 . S
C1088 C1080 1.378 . S
C1088 C1083 1.350 . S
C1089 H1076 0.929 1_545 S
C1089 C1081 1.433 . S
C1089 N1091 1.384 . S
N1090 C1086 1.427 . S
N1090 C1087 1.384 . S
N1091 C1083 1.427 . S
N1091 C1089 1.384 . S
H1092 C1098 0.930 . S
H1093 C1102 0.930 . S
H1094 C1107 0.929 . S
H1095 C1105 0.929 . S
H1096 C1100 0.929 . S
H1097 C1106 0.929 . S
C1098 H1092 0.930 . S
C1098 C1099 1.367 . S
C1098 C1106 1.378 . S
C1099 C1098 1.367 . S
C1099 C1107 1.433 . S
C1100 H1096 0.929 . S
C1100 C1102 1.378 . S
C1100 C1104 1.350 . S
C1101 C1104 1.463 . S
C1101 C1106 1.350 . S
C1101 N1109 1.427 . S
C1102 H1093 0.930 . S
C1102 C1100 1.378 . S
C1102 C1103 1.367 . S
C1103 C1102 1.367 . S
C1103 C1105 1.433 . S
C1104 C1100 1.350 . S
C1104 C1101 1.463 . S
C1104 N1108 1.427 . S
C1105 H1095 0.929 . S
C1105 C1103 1.433 . S
C1105 N1108 1.384 . S
C1106 H1097 0.929 . S
C1106 C1098 1.378 . S
C1106 C1101 1.350 . S
C1107 H1094 0.929 . S
C1107 C1099 1.433 . S
C1107 N1109 1.384 . S
N1108 C1104 1.427 . S
N1108 C1105 1.384 . S
N1109 C1101 1.427 . S
N1109 C1107 1.384 . S
H1110 C1116 0.930 . S
H1111 C1120 0.930 . S
H1112 C1125 0.929 . S
H1113 C1123 0.929 1_545 S
H1114 C1118 0.929 . S
H1115 C1124 0.929 . S
C1116 H1110 0.930 . S
C1116 C1117 1.367 . S
C1116 C1124 1.378 . S
C1117 C1116 1.367 . S
C1117 C1125 1.433 . S
C1118 H1114 0.929 . S
C1118 C1120 1.378 . S
C1118 C1122 1.350 . S
C1119 C1122 1.463 . S
C1119 C1124 1.350 . S
C1119 N1127 1.427 . S
C1120 H1111 0.930 . S
C1120 C1118 1.378 . S
C1120 C1121 1.367 . S
C1121 C1120 1.367 . S
C1121 C1123 1.433 . S
C1122 C1118 1.350 . S
C1122 C1119 1.463 . S
C1122 N1126 1.427 . S
C1123 H1113 0.929 1_565 S
C1123 C1121 1.433 . S
C1123 N1126 1.384 . S
C1124 H1115 0.929 . S
C1124 C1116 1.378 . S
C1124 C1119 1.350 . S
C1125 H1112 0.929 . S
C1125 C1117 1.433 . S
C1125 N1127 1.384 . S
N1126 C1122 1.427 . S
N1126 C1123 1.384 . S
N1127 C1119 1.427 . S
N1127 C1125 1.384 . S
H1128 C1134 0.930 . S
H1129 C1138 0.930 . S
H1130 C1143 0.929 . S
H1131 C1141 0.929 . S
H1132 C1136 0.929 . S
H1133 C1142 0.929 . S
C1134 H1128 0.930 . S
C1134 C1135 1.367 . S
C1134 C1142 1.378 . S
C1135 C1134 1.367 . S
C1135 C1143 1.433 . S
C1136 H1132 0.929 . S
C1136 C1138 1.378 . S
C1136 C1140 1.350 . S
C1137 C1140 1.463 . S
C1137 C1142 1.350 . S
C1137 N1145 1.427 . S
C1138 H1129 0.930 . S
C1138 C1136 1.378 . S
C1138 C1139 1.367 . S
C1139 C1138 1.367 . S
C1139 C1141 1.433 . S
C1140 C1136 1.350 . S
C1140 C1137 1.463 . S
C1140 N1144 1.427 . S
C1141 H1131 0.929 . S
C1141 C1139 1.433 . S
C1141 N1144 1.384 . S
C1142 H1133 0.929 . S
C1142 C1134 1.378 . S
C1142 C1137 1.350 . S
C1143 H1130 0.929 . S
C1143 C1135 1.433 . S
C1143 N1145 1.384 . S
N1144 C1140 1.427 . S
N1144 C1141 1.384 . S
N1145 C1137 1.427 . S
N1145 C1143 1.384 . S
H1146 C1152 0.930 . S
H1147 C1156 0.922 1_565 S
H1148 C1161 0.929 . S
H1149 C1159 0.929 . S
H1150 C1154 0.929 . S
H1151 C1160 0.929 . S
C1152 H1146 0.930 . S
C1152 C1153 1.367 . S
C1152 C1160 1.378 . S
C1153 C1152 1.367 . S
C1153 C1161 1.433 . S
C1154 H1150 0.929 . S
C1154 C1156 1.378 . S
C1154 C1158 1.350 . S
C1155 C1158 1.463 . S
C1155 C1160 1.350 . S
C1155 N1163 1.427 . S
C1156 H1147 0.922 1_545 S
C1156 C1154 1.378 . S
C1156 C1157 1.367 . S
C1157 C1156 1.367 . S
C1157 C1159 1.433 . S
C1158 C1154 1.350 . S
C1158 C1155 1.463 . S
C1158 N1162 1.427 . S
C1159 H1149 0.929 . S
C1159 C1157 1.433 . S
C1159 N1162 1.384 . S
C1160 H1151 0.929 . S
C1160 C1152 1.378 . S
C1160 C1155 1.350 . S
C1161 H1148 0.929 . S
C1161 C1153 1.433 . S
C1161 N1163 1.384 . S
N1162 C1158 1.427 . S
N1162 C1159 1.384 . S
N1163 C1155 1.427 . S
N1163 C1161 1.384 . S
H1164 C1170 0.930 . S
H1165 C1174 0.930 . S
H1166 C1179 0.929 . S
H1167 C1177 0.929 . S
H1168 C1172 0.929 . S
H1169 C1178 0.929 . S
C1170 H1164 0.930 . S
C1170 C1171 1.367 . S
C1170 C1178 1.378 . S
C1171 C1170 1.367 . S
C1171 C1179 1.433 . S
C1172 H1168 0.929 . S
C1172 C1174 1.378 . S
C1172 C1176 1.350 . S
C1173 C1176 1.463 . S
C1173 C1178 1.350 . S
C1173 N1181 1.427 . S
C1174 H1165 0.930 . S
C1174 C1172 1.378 . S
C1174 C1175 1.367 . S
C1175 C1174 1.367 . S
C1175 C1177 1.433 . S
C1176 C1172 1.350 . S
C1176 C1173 1.463 . S
C1176 N1180 1.427 . S
C1177 H1167 0.929 . S
C1177 C1175 1.433 . S
C1177 N1180 1.384 . S
C1178 H1169 0.929 . S
C1178 C1170 1.378 . S
C1178 C1173 1.350 . S
C1179 H1166 0.929 . S
C1179 C1171 1.433 . S
C1179 N1181 1.384 . S
N1180 C1176 1.427 . S
N1180 C1177 1.384 . S
N1181 C1173 1.427 . S
N1181 C1179 1.384 . S
H1182 C1188 0.930 . S
H1183 C1192 0.930 1_545 S
H1184 C1197 0.929 . S
H1185 C1195 0.929 . S
H1186 C1190 0.929 1_545 S
H1187 C1196 0.929 . S
C1188 H1182 0.930 . S
C1188 C1189 1.367 . S
C1188 C1196 1.378 . S
C1189 C1188 1.367 . S
C1189 C1197 1.433 1_565 S
C1190 H1186 0.929 1_565 S
C1190 C1192 1.378 . S
C1190 C1194 1.350 . S
C1191 C1194 1.463 . S
C1191 C1196 1.350 . S
C1191 N1199 1.427 1_565 S
C1192 H1183 0.930 1_565 S
C1192 C1190 1.378 . S
C1192 C1193 1.367 . S
C1193 C1192 1.367 . S
C1193 C1195 1.433 . S
C1194 C1190 1.350 . S
C1194 C1191 1.463 . S
C1194 N1198 1.427 . S
C1195 H1185 0.929 . S
C1195 C1193 1.433 . S
C1195 N1198 1.384 . S
C1196 H1187 0.929 . S
C1196 C1188 1.378 . S
C1196 C1191 1.350 . S
C1197 H1184 0.929 . S
C1197 C1189 1.433 1_545 S
C1197 N1199 1.384 . S
N1198 C1194 1.427 . S
N1198 C1195 1.384 . S
N1199 C1191 1.427 1_545 S
N1199 C1197 1.384 . S
H1200 C1206 0.930 . S
H1201 C1210 0.930 . S
H1202 C1215 0.929 . S
H1203 C1213 0.929 . S
H1204 C1208 0.929 . S
H1205 C1214 0.929 . S
C1206 H1200 0.930 . S
C1206 C1207 1.367 . S
C1206 C1214 1.378 . S
C1207 C1206 1.367 . S
C1207 C1215 1.433 . S
C1208 H1204 0.929 . S
C1208 C1210 1.378 . S
C1208 C1212 1.350 . S
C1209 C1212 1.463 . S
C1209 C1214 1.350 . S
C1209 N1217 1.427 . S
C1210 H1201 0.930 . S
C1210 C1208 1.378 . S
C1210 C1211 1.367 . S
C1211 C1210 1.367 . S
C1211 C1213 1.433 . S
C1212 C1208 1.350 . S
C1212 C1209 1.463 . S
C1212 N1216 1.427 . S
C1213 H1203 0.929 . S
C1213 C1211 1.433 . S
C1213 N1216 1.384 . S
C1214 H1205 0.929 . S
C1214 C1206 1.378 . S
C1214 C1209 1.350 . S
C1215 H1202 0.929 . S
C1215 C1207 1.433 . S
C1215 N1217 1.384 . S
N1216 C1212 1.427 . S
N1216 C1213 1.384 . S
N1217 C1209 1.427 . S
N1217 C1215 1.384 . S
H1218 C1224 0.930 . S
H1219 C1228 0.930 . S
H1220 C1233 0.929 . S
H1221 C1231 0.929 . S
H1222 C1226 0.929 . S
H1223 C1232 0.929 . S
C1224 H1218 0.930 . S
C1224 C1225 1.367 . S
C1224 C1232 1.378 . S
C1225 C1224 1.367 . S
C1225 C1233 1.433 . S
C1226 H1222 0.929 . S
C1226 C1228 1.378 . S
C1226 C1230 1.350 . S
C1227 C1230 1.463 . S
C1227 C1232 1.350 . S
C1227 N1235 1.427 . S
C1228 H1219 0.930 . S
C1228 C1226 1.378 . S
C1228 C1229 1.367 . S
C1229 C1228 1.367 . S
C1229 C1231 1.433 . S
C1230 C1226 1.350 . S
C1230 C1227 1.463 . S
C1230 N1234 1.427 . S
C1231 H1221 0.929 . S
C1231 C1229 1.433 . S
C1231 N1234 1.384 . S
C1232 H1223 0.929 . S
C1232 C1224 1.378 . S
C1232 C1227 1.350 . S
C1233 H1220 0.929 . S
C1233 C1225 1.433 . S
C1233 N1235 1.384 . S
N1234 C1230 1.427 . S
N1234 C1231 1.384 . S
N1235 C1227 1.427 . S
N1235 C1233 1.384 . S
H1236 C1242 0.930 . S
H1237 C1246 0.930 . S
H1238 C1251 0.929 . S
H1239 C1249 0.929 . S
H1240 C1244 0.929 . S
H1241 C1250 0.929 . S
C1242 H1236 0.930 . S
C1242 C1243 1.367 . S
C1242 C1250 1.378 . S
C1243 C1242 1.367 . S
C1243 C1251 1.433 . S
C1244 H1240 0.929 . S
C1244 C1246 1.378 . S
C1244 C1248 1.350 . S
C1245 C1248 1.463 . S
C1245 C1250 1.350 . S
C1245 N1253 1.427 . S
C1246 H1237 0.930 . S
C1246 C1244 1.378 . S
C1246 C1247 1.367 . S
C1247 C1246 1.367 . S
C1247 C1249 1.433 . S
C1248 C1244 1.350 . S
C1248 C1245 1.463 . S
C1248 N1252 1.427 . S
C1249 H1239 0.929 . S
C1249 C1247 1.433 . S
C1249 N1252 1.384 . S
C1250 H1241 0.929 . S
C1250 C1242 1.378 . S
C1250 C1245 1.350 . S
C1251 H1238 0.929 . S
C1251 C1243 1.433 . S
C1251 N1253 1.384 . S
N1252 C1248 1.427 . S
N1252 C1249 1.384 . S
N1253 C1245 1.427 . S
N1253 C1251 1.384 . S
H1254 C1260 0.930 . S
H1255 C1264 0.930 . S
H1256 C1269 0.929 . S
H1257 C1267 0.929 . S
H1258 C1262 0.929 . S
H1259 C1268 0.929 1_565 S
C1260 H1254 0.930 . S
C1260 C1261 1.367 1_565 S
C1260 C1268 1.378 1_565 S
C1261 C1260 1.367 1_545 S
C1261 C1269 1.433 . S
C1262 H1258 0.929 . S
C1262 C1264 1.378 . S
C1262 C1266 1.350 . S
C1263 C1266 1.463 . S
C1263 C1268 1.350 . S
C1263 N1271 1.427 . S
C1264 H1255 0.930 . S
C1264 C1262 1.378 . S
C1264 C1265 1.367 . S
C1265 C1264 1.367 . S
C1265 C1267 1.433 . S
C1266 C1262 1.350 . S
C1266 C1263 1.463 . S
C1266 N1270 1.427 . S
C1267 H1257 0.929 . S
C1267 C1265 1.433 . S
C1267 N1270 1.384 . S
C1268 H1259 0.929 1_545 S
C1268 C1260 1.378 1_545 S
C1268 C1263 1.350 . S
C1269 H1256 0.929 . S
C1269 C1261 1.433 . S
C1269 N1271 1.384 . S
N1270 C1266 1.427 . S
N1270 C1267 1.384 . S
N1271 C1263 1.427 . S
N1271 C1269 1.384 . S
H1272 C1278 0.930 . S
H1273 C1282 0.930 . S
H1274 C1287 0.929 . S
H1275 C1285 0.929 . S
H1276 C1280 0.929 . S
H1277 C1286 0.929 . S
C1278 H1272 0.930 . S
C1278 C1279 1.367 . S
C1278 C1286 1.378 . S
C1279 C1278 1.367 . S
C1279 C1287 1.433 . S
C1280 H1276 0.929 . S
C1280 C1282 1.378 . S
C1280 C1284 1.350 . S
C1281 C1284 1.463 . S
C1281 C1286 1.350 . S
C1281 N1289 1.427 . S
C1282 H1273 0.930 . S
C1282 C1280 1.378 . S
C1282 C1283 1.367 . S
C1283 C1282 1.367 . S
C1283 C1285 1.433 . S
C1284 C1280 1.350 . S
C1284 C1281 1.463 . S
C1284 N1288 1.427 . S
C1285 H1275 0.929 . S
C1285 C1283 1.433 . S
C1285 N1288 1.384 . S
C1286 H1277 0.929 . S
C1286 C1278 1.378 . S
C1286 C1281 1.350 . S
C1287 H1274 0.929 . S
C1287 C1279 1.433 . S
C1287 N1289 1.384 . S
N1288 C1284 1.427 . S
N1288 C1285 1.384 . S
N1289 C1281 1.427 . S
N1289 C1287 1.384 . S
H1290 C1296 0.930 . S
H1291 C1300 0.930 . S
H1292 C1305 0.929 . S
H1293 C1303 0.929 . S
H1294 C1298 0.929 1_545 S
H1295 C1304 0.929 . S
C1296 H1290 0.930 . S
C1296 C1297 1.367 . S
C1296 C1304 1.378 . S
C1297 C1296 1.367 . S
C1297 C1305 1.433 1_565 S
C1298 H1294 0.929 1_565 S
C1298 C1300 1.378 . S
C1298 C1302 1.350 . S
C1299 C1302 1.463 . S
C1299 C1304 1.350 . S
C1299 N1307 1.427 . S
C1300 H1291 0.930 . S
C1300 C1298 1.378 . S
C1300 C1301 1.367 . S
C1301 C1300 1.367 . S
C1301 C1303 1.433 . S
C1302 C1298 1.350 . S
C1302 C1299 1.463 . S
C1302 N1306 1.427 . S
C1303 H1293 0.929 . S
C1303 C1301 1.433 . S
C1303 N1306 1.384 . S
C1304 H1295 0.929 . S
C1304 C1296 1.378 . S
C1304 C1299 1.350 . S
C1305 H1292 0.929 . S
C1305 C1297 1.433 1_545 S
C1305 N1307 1.384 1_545 S
N1306 C1302 1.427 . S
N1306 C1303 1.384 . S
N1307 C1299 1.427 . S
N1307 C1305 1.384 1_565 S
H1308 C1314 0.930 . S
H1309 C1318 0.930 . S
H1310 C1323 0.929 . S
H1311 C1321 0.929 . S
H1312 C1316 0.929 . S
H1313 C1322 0.929 . S
C1314 H1308 0.930 . S
C1314 C1315 1.367 . S
C1314 C1322 1.378 . S
C1315 C1314 1.367 . S
C1315 C1323 1.433 . S
C1316 H1312 0.929 . S
C1316 C1318 1.378 . S
C1316 C1320 1.350 . S
C1317 C1320 1.463 . S
C1317 C1322 1.350 . S
C1317 N1325 1.427 . S
C1318 H1309 0.930 . S
C1318 C1316 1.378 . S
C1318 C1319 1.367 . S
C1319 C1318 1.367 . S
C1319 C1321 1.433 . S
C1320 C1316 1.350 . S
C1320 C1317 1.463 . S
C1320 N1324 1.427 . S
C1321 H1311 0.929 . S
C1321 C1319 1.433 . S
C1321 N1324 1.384 . S
C1322 H1313 0.929 . S
C1322 C1314 1.378 . S
C1322 C1317 1.350 . S
C1323 H1310 0.929 . S
C1323 C1315 1.433 . S
C1323 N1325 1.384 . S
N1324 C1320 1.427 . S
N1324 C1321 1.384 . S
N1325 C1317 1.427 . S
N1325 C1323 1.384 . S
H1326 C1332 0.930 . S
H1327 C1336 0.930 . S
H1328 C1341 0.929 1_565 S
H1329 C1339 0.929 . S
H1330 C1334 0.929 . S
H1331 C1340 0.929 . S
C1332 H1326 0.930 . S
C1332 C1333 1.367 . S
C1332 C1340 1.378 . S
C1333 C1332 1.367 . S
C1333 C1341 1.433 . S
C1334 H1330 0.929 . S
C1334 C1336 1.378 . S
C1334 C1338 1.350 1_565 S
C1335 C1338 1.463 . S
C1335 C1340 1.350 . S
C1335 N1343 1.427 . S
C1336 H1327 0.930 . S
C1336 C1334 1.378 . S
C1336 C1337 1.367 1_565 S
C1337 C1336 1.367 1_545 S
C1337 C1339 1.433 . S
C1338 C1334 1.350 1_545 S
C1338 C1335 1.463 . S
C1338 N1342 1.427 . S
C1339 H1329 0.929 . S
C1339 C1337 1.433 . S
C1339 N1342 1.384 . S
C1340 H1331 0.929 . S
C1340 C1332 1.378 . S
C1340 C1335 1.350 . S
C1341 H1328 0.929 1_545 S
C1341 C1333 1.433 . S
C1341 N1343 1.384 . S
N1342 C1338 1.427 . S
N1342 C1339 1.384 . S
N1343 C1335 1.427 . S
N1343 C1341 1.384 . S
H1344 C1350 0.930 . S
H1345 C1354 0.930 . S
H1346 C1359 0.929 . S
H1347 C1357 0.929 . S
H1348 C1352 0.929 . S
H1349 C1358 0.929 . S
C1350 H1344 0.930 . S
C1350 C1351 1.367 . S
C1350 C1358 1.378 . S
C1351 C1350 1.367 . S
C1351 C1359 1.433 . S
C1352 H1348 0.929 . S
C1352 C1354 1.378 . S
C1352 C1356 1.350 . S
C1353 C1356 1.463 . S
C1353 C1358 1.350 . S
C1353 N1361 1.427 . S
C1354 H1345 0.930 . S
C1354 C1352 1.378 . S
C1354 C1355 1.367 . S
C1355 C1354 1.367 . S
C1355 C1357 1.433 . S
C1356 C1352 1.350 . S
C1356 C1353 1.463 . S
C1356 N1360 1.427 . S
C1357 H1347 0.929 . S
C1357 C1355 1.433 . S
C1357 N1360 1.384 . S
C1358 H1349 0.929 . S
C1358 C1350 1.378 . S
C1358 C1353 1.350 . S
C1359 H1346 0.929 . S
C1359 C1351 1.433 . S
C1359 N1361 1.384 . S
N1360 C1356 1.427 . S
N1360 C1357 1.384 . S
N1361 C1353 1.427 . S
N1361 C1359 1.384 . S
H1362 C1368 0.930 . S
H1363 C1372 0.930 . S
H1364 C1377 0.929 . S
H1365 C1375 0.929 . S
H1366 C1370 0.929 . S
H1367 C1376 0.929 . S
C1368 H1362 0.930 . S
C1368 C1369 1.367 . S
C1368 C1376 1.378 . S
C1369 C1368 1.367 . S
C1369 C1377 1.433 . S
C1370 H1366 0.929 . S
C1370 C1372 1.378 . S
C1370 C1374 1.350 . S
C1371 C1374 1.463 . S
C1371 C1376 1.350 . S
C1371 N1379 1.427 . S
C1372 H1363 0.930 . S
C1372 C1370 1.378 . S
C1372 C1373 1.367 . S
C1373 C1372 1.367 . S
C1373 C1375 1.433 . S
C1374 C1370 1.350 . S
C1374 C1371 1.463 . S
C1374 N1378 1.427 . S
C1375 H1365 0.929 . S
C1375 C1373 1.433 . S
C1375 N1378 1.384 . S
C1376 H1367 0.929 . S
C1376 C1368 1.378 . S
C1376 C1371 1.350 . S
C1377 H1364 0.929 . S
C1377 C1369 1.433 . S
C1377 N1379 1.384 . S
N1378 C1374 1.427 . S
N1378 C1375 1.384 . S
N1379 C1371 1.427 . S
N1379 C1377 1.384 . S
H1380 C1386 0.930 . S
H1381 C1390 0.930 . S
H1382 C1395 0.929 . S
H1383 C1393 0.929 . S
H1384 C1388 0.929 . S
H1385 C1394 0.929 . S
C1386 H1380 0.930 . S
C1386 C1387 1.367 . S
C1386 C1394 1.378 . S
C1387 C1386 1.367 . S
C1387 C1395 1.433 . S
C1388 H1384 0.929 . S
C1388 C1390 1.378 . S
C1388 C1392 1.350 . S
C1389 C1392 1.463 . S
C1389 C1394 1.350 . S
C1389 N1397 1.427 . S
C1390 H1381 0.930 . S
C1390 C1388 1.378 . S
C1390 C1391 1.367 . S
C1391 C1390 1.367 . S
C1391 C1393 1.433 . S
C1392 C1388 1.350 . S
C1392 C1389 1.463 . S
C1392 N1396 1.427 . S
C1393 H1383 0.929 . S
C1393 C1391 1.433 . S
C1393 N1396 1.384 . S
C1394 H1385 0.929 . S
C1394 C1386 1.378 . S
C1394 C1389 1.350 . S
C1395 H1382 0.929 . S
C1395 C1387 1.433 . S
C1395 N1397 1.384 . S
N1396 C1392 1.427 . S
N1396 C1393 1.384 . S
N1397 C1389 1.427 . S
N1397 C1395 1.384 . S
H1398 C1404 0.930 . S
H1399 C1408 0.930 . S
H1400 C1413 0.929 . S
H1401 C1411 0.929 . S
H1402 C1406 0.929 . S
H1403 C1412 0.929 . S
C1404 H1398 0.930 . S
C1404 C1405 1.367 . S
C1404 C1412 1.378 . S
C1405 C1404 1.367 . S
C1405 C1413 1.433 . S
C1406 H1402 0.929 . S
C1406 C1408 1.378 . S
C1406 C1410 1.350 . S
C1407 C1410 1.463 . S
C1407 C1412 1.350 . S
C1407 N1415 1.427 . S
C1408 H1399 0.930 . S
C1408 C1406 1.378 . S
C1408 C1409 1.367 . S
C1409 C1408 1.367 . S
C1409 C1411 1.433 . S
C1410 C1406 1.350 . S
C1410 C1407 1.463 . S
C1410 N1414 1.427 . S
C1411 H1401 0.929 . S
C1411 C1409 1.433 . S
C1411 N1414 1.384 . S
C1412 H1403 0.929 . S
C1412 C1404 1.378 . S
C1412 C1407 1.350 . S
C1413 H1400 0.929 . S
C1413 C1405 1.433 . S
C1413 N1415 1.384 . S
N1414 C1410 1.427 . S
N1414 C1411 1.384 . S
N1415 C1407 1.427 . S
N1415 C1413 1.384 . S
H1416 C1422 0.930 . S
H1417 C1426 0.930 . S
H1418 C1431 0.929 . S
H1419 C1429 0.929 . S
H1420 C1424 0.929 . S
H1421 C1430 0.929 . S
C1422 H1416 0.930 . S
C1422 C1423 1.367 . S
C1422 C1430 1.378 . S
C1423 C1422 1.367 . S
C1423 C1431 1.433 . S
C1424 H1420 0.929 . S
C1424 C1426 1.378 . S
C1424 C1428 1.350 . S
C1425 C1428 1.463 . S
C1425 C1430 1.350 . S
C1425 N1433 1.427 . S
C1426 H1417 0.930 . S
C1426 C1424 1.378 . S
C1426 C1427 1.367 . S
C1427 C1426 1.367 . S
C1427 C1429 1.433 . S
C1428 C1424 1.350 . S
C1428 C1425 1.463 . S
C1428 N1432 1.427 . S
C1429 H1419 0.929 . S
C1429 C1427 1.433 . S
C1429 N1432 1.384 . S
C1430 H1421 0.929 . S
C1430 C1422 1.378 . S
C1430 C1425 1.350 . S
C1431 H1418 0.929 . S
C1431 C1423 1.433 . S
C1431 N1433 1.384 . S
N1432 C1428 1.427 . S
N1432 C1429 1.384 . S
N1433 C1425 1.427 . S
N1433 C1431 1.384 . S
H1434 C1440 0.930 . S
H1435 C1444 0.930 . S
H1436 C1449 0.929 . S
H1437 C1447 0.929 . S
H1438 C1442 0.929 . S
H1439 C1448 0.929 . S
C1440 H1434 0.930 . S
C1440 C1441 1.367 . S
C1440 C1448 1.378 . S
C1441 C1440 1.367 . S
C1441 C1449 1.433 . S
C1442 H1438 0.929 . S
C1442 C1444 1.378 . S
C1442 C1446 1.350 . S
C1443 C1446 1.463 . S
C1443 C1448 1.350 . S
C1443 N1451 1.427 . S
C1444 H1435 0.930 . S
C1444 C1442 1.378 . S
C1444 C1445 1.367 . S
C1445 C1444 1.367 . S
C1445 C1447 1.433 . S
C1446 C1442 1.350 . S
C1446 C1443 1.463 . S
C1446 N1450 1.427 . S
C1447 H1437 0.929 . S
C1447 C1445 1.433 . S
C1447 N1450 1.384 . S
C1448 H1439 0.929 . S
C1448 C1440 1.378 . S
C1448 C1443 1.350 . S
C1449 H1436 0.929 . S
C1449 C1441 1.433 . S
C1449 N1451 1.384 . S
N1450 C1446 1.427 . S
N1450 C1447 1.384 . S
N1451 C1443 1.427 . S
N1451 C1449 1.384 . S
H1452 C1458 0.930 . S
H1453 C1462 0.930 . S
H1454 C1467 0.929 . S
H1455 C1465 0.929 . S
H1456 C1460 0.929 . S
H1457 C1466 0.929 . S
C1458 H1452 0.930 . S
C1458 C1459 1.367 . S
C1458 C1466 1.378 . S
C1459 C1458 1.367 . S
C1459 C1467 1.433 . S
C1460 H1456 0.929 . S
C1460 C1462 1.378 . S
C1460 C1464 1.350 . S
C1461 C1464 1.463 . S
C1461 C1466 1.350 . S
C1461 N1469 1.427 . S
C1462 H1453 0.930 . S
C1462 C1460 1.378 . S
C1462 C1463 1.367 . S
C1463 C1462 1.367 . S
C1463 C1465 1.433 . S
C1464 C1460 1.350 . S
C1464 C1461 1.463 . S
C1464 N1468 1.427 . S
C1465 H1455 0.929 . S
C1465 C1463 1.433 . S
C1465 N1468 1.384 . S
C1466 H1457 0.929 . S
C1466 C1458 1.378 . S
C1466 C1461 1.350 . S
C1467 H1454 0.929 . S
C1467 C1459 1.433 . S
C1467 N1469 1.384 . S
N1468 C1464 1.427 . S
N1468 C1465 1.384 . S
N1469 C1461 1.427 . S
N1469 C1467 1.384 . S
H1470 C1476 0.930 . S
H1471 C1480 0.930 . S
H1472 C1485 0.929 . S
H1473 C1483 0.929 . S
H1474 C1478 0.929 . S
H1475 C1484 0.929 . S
C1476 H1470 0.930 . S
C1476 C1477 1.367 . S
C1476 C1484 1.378 . S
C1477 C1476 1.367 . S
C1477 C1485 1.433 . S
C1478 H1474 0.929 . S
C1478 C1480 1.378 . S
C1478 C1482 1.350 . S
C1479 C1482 1.463 . S
C1479 C1484 1.350 . S
C1479 N1487 1.427 . S
C1480 H1471 0.930 . S
C1480 C1478 1.378 . S
C1480 C1481 1.367 . S
C1481 C1480 1.367 . S
C1481 C1483 1.433 . S
C1482 C1478 1.350 . S
C1482 C1479 1.463 . S
C1482 N1486 1.427 . S
C1483 H1473 0.929 . S
C1483 C1481 1.433 . S
C1483 N1486 1.384 . S
C1484 H1475 0.929 . S
C1484 C1476 1.378 . S
C1484 C1479 1.350 . S
C1485 H1472 0.929 . S
C1485 C1477 1.433 . S
C1485 N1487 1.384 . S
N1486 C1482 1.427 . S
N1486 C1483 1.384 . S
N1487 C1479 1.427 . S
N1487 C1485 1.384 . S
H1488 C1494 0.930 . S
H1489 C1498 0.930 . S
H1490 C1503 0.929 . S
H1491 C1501 0.929 . S
H1492 C1496 0.929 . S
H1493 C1502 0.929 . S
C1494 H1488 0.930 . S
C1494 C1495 1.367 . S
C1494 C1502 1.378 . S
C1495 C1494 1.367 . S
C1495 C1503 1.433 . S
C1496 H1492 0.929 . S
C1496 C1498 1.378 . S
C1496 C1500 1.350 . S
C1497 C1500 1.463 . S
C1497 C1502 1.350 . S
C1497 N1505 1.427 . S
C1498 H1489 0.930 . S
C1498 C1496 1.378 . S
C1498 C1499 1.367 . S
C1499 C1498 1.367 . S
C1499 C1501 1.433 . S
C1500 C1496 1.350 . S
C1500 C1497 1.463 . S
C1500 N1504 1.427 . S
C1501 H1491 0.929 . S
C1501 C1499 1.433 . S
C1501 N1504 1.384 . S
C1502 H1493 0.929 . S
C1502 C1494 1.378 . S
C1502 C1497 1.350 . S
C1503 H1490 0.929 . S
C1503 C1495 1.433 . S
C1503 N1505 1.384 . S
N1504 C1500 1.427 . S
N1504 C1501 1.384 . S
N1505 C1497 1.427 . S
N1505 C1503 1.384 . S
H1506 C1512 0.930 . S
H1507 C1516 0.930 . S
H1508 C1521 0.929 . S
H1509 C1519 0.929 . S
H1510 C1514 0.929 . S
H1511 C1520 0.929 . S
C1512 H1506 0.930 . S
C1512 C1513 1.367 . S
C1512 C1520 1.378 . S
C1513 C1512 1.367 . S
C1513 C1521 1.433 . S
C1514 H1510 0.929 . S
C1514 C1516 1.378 . S
C1514 C1518 1.350 . S
C1515 C1518 1.463 . S
C1515 C1520 1.350 . S
C1515 N1523 1.427 . S
C1516 H1507 0.930 . S
C1516 C1514 1.378 . S
C1516 C1517 1.367 . S
C1517 C1516 1.367 . S
C1517 C1519 1.433 . S
C1518 C1514 1.350 . S
C1518 C1515 1.463 . S
C1518 N1522 1.427 . S
C1519 H1509 0.929 . S
C1519 C1517 1.433 . S
C1519 N1522 1.384 . S
C1520 H1511 0.929 . S
C1520 C1512 1.378 . S
C1520 C1515 1.350 . S
C1521 H1508 0.929 . S
C1521 C1513 1.433 . S
C1521 N1523 1.384 . S
N1522 C1518 1.427 . S
N1522 C1519 1.384 . S
N1523 C1515 1.427 . S
N1523 C1521 1.384 . S
H1524 C1530 0.930 . S
H1525 C1534 0.930 . S
H1526 C1539 0.929 . S
H1527 C1537 0.929 . S
H1528 C1532 0.929 . S
H1529 C1538 0.929 . S
C1530 H1524 0.930 . S
C1530 C1531 1.367 . S
C1530 C1538 1.378 . S
C1531 C1530 1.367 . S
C1531 C1539 1.433 . S
C1532 H1528 0.929 . S
C1532 C1534 1.378 . S
C1532 C1536 1.350 . S
C1533 C1536 1.463 . S
C1533 C1538 1.350 . S
C1533 N1541 1.427 . S
C1534 H1525 0.930 . S
C1534 C1532 1.378 . S
C1534 C1535 1.367 . S
C1535 C1534 1.367 . S
C1535 C1537 1.433 . S
C1536 C1532 1.350 . S
C1536 C1533 1.463 . S
C1536 N1540 1.427 . S
C1537 H1527 0.929 . S
C1537 C1535 1.433 . S
C1537 N1540 1.384 . S
C1538 H1529 0.929 . S
C1538 C1530 1.378 . S
C1538 C1533 1.350 . S
C1539 H1526 0.929 . S
C1539 C1531 1.433 . S
C1539 N1541 1.384 . S
N1540 C1536 1.427 . S
N1540 C1537 1.384 . S
N1541 C1533 1.427 . S
N1541 C1539 1.384 . S
H1542 C1548 0.930 . S
H1543 C1552 0.930 . S
H1544 C1557 0.929 . S
H1545 C1555 0.929 . S
H1546 C1550 0.929 . S
H1547 C1556 0.929 . S
C1548 H1542 0.930 . S
C1548 C1549 1.367 . S
C1548 C1556 1.378 . S
C1549 C1548 1.367 . S
C1549 C1557 1.433 . S
C1550 H1546 0.929 . S
C1550 C1552 1.378 . S
C1550 C1554 1.350 . S
C1551 C1554 1.463 . S
C1551 C1556 1.350 . S
C1551 N1559 1.427 . S
C1552 H1543 0.930 . S
C1552 C1550 1.378 . S
C1552 C1553 1.367 . S
C1553 C1552 1.367 . S
C1553 C1555 1.433 . S
C1554 C1550 1.350 . S
C1554 C1551 1.463 . S
C1554 N1558 1.427 . S
C1555 H1545 0.929 . S
C1555 C1553 1.433 . S
C1555 N1558 1.384 . S
C1556 H1547 0.929 . S
C1556 C1548 1.378 . S
C1556 C1551 1.350 . S
C1557 H1544 0.929 . S
C1557 C1549 1.433 . S
C1557 N1559 1.384 . S
N1558 C1554 1.427 . S
N1558 C1555 1.384 . S
N1559 C1551 1.427 . S
N1559 C1557 1.384 . S
H1560 C1566 0.930 . S
H1561 C1570 0.930 . S
H1562 C1575 0.929 . S
H1563 C1573 0.929 . S
H1564 C1568 0.929 . S
H1565 C1574 0.929 . S
C1566 H1560 0.930 . S
C1566 C1567 1.367 . S
C1566 C1574 1.378 . S
C1567 C1566 1.367 . S
C1567 C1575 1.433 . S
C1568 H1564 0.929 . S
C1568 C1570 1.378 . S
C1568 C1572 1.350 . S
C1569 C1572 1.463 . S
C1569 C1574 1.350 . S
C1569 N1577 1.427 . S
C1570 H1561 0.930 . S
C1570 C1568 1.378 . S
C1570 C1571 1.367 . S
C1571 C1570 1.367 . S
C1571 C1573 1.433 . S
C1572 C1568 1.350 . S
C1572 C1569 1.463 . S
C1572 N1576 1.427 . S
C1573 H1563 0.929 . S
C1573 C1571 1.433 . S
C1573 N1576 1.384 . S
C1574 H1565 0.929 . S
C1574 C1566 1.378 . S
C1574 C1569 1.350 . S
C1575 H1562 0.929 . S
C1575 C1567 1.433 . S
C1575 N1577 1.384 . S
N1576 C1572 1.427 . S
N1576 C1573 1.384 . S
N1577 C1569 1.427 . S
N1577 C1575 1.384 . S
H1578 C1584 0.930 . S
H1579 C1588 0.930 . S
H1580 C1593 0.929 . S
H1581 C1591 0.929 . S
H1582 C1586 0.929 . S
H1583 C1592 0.929 . S
C1584 H1578 0.930 . S
C1584 C1585 1.367 . S
C1584 C1592 1.378 . S
C1585 C1584 1.367 . S
C1585 C1593 1.433 . S
C1586 H1582 0.929 . S
C1586 C1588 1.378 . S
C1586 C1590 1.350 . S
C1587 C1590 1.463 . S
C1587 C1592 1.350 . S
C1587 N1595 1.427 . S
C1588 H1579 0.930 . S
C1588 C1586 1.378 . S
C1588 C1589 1.367 . S
C1589 C1588 1.367 . S
C1589 C1591 1.433 . S
C1590 C1586 1.350 . S
C1590 C1587 1.463 . S
C1590 N1594 1.427 . S
C1591 H1581 0.929 . S
C1591 C1589 1.433 . S
C1591 N1594 1.384 . S
C1592 H1583 0.929 . S
C1592 C1584 1.378 . S
C1592 C1587 1.350 . S
C1593 H1580 0.929 . S
C1593 C1585 1.433 . S
C1593 N1595 1.384 . S
N1594 C1590 1.427 . S
N1594 C1591 1.384 . S
N1595 C1587 1.427 . S
N1595 C1593 1.384 . S
H1596 C1602 0.930 . S
H1597 C1606 0.930 . S
H1598 C1611 0.929 . S
H1599 C1609 0.929 . S
H1600 C1604 0.929 . S
H1601 C1610 0.929 . S
C1602 H1596 0.930 . S
C1602 C1603 1.367 . S
C1602 C1610 1.378 . S
C1603 C1602 1.367 . S
C1603 C1611 1.433 . S
C1604 H1600 0.929 . S
C1604 C1606 1.378 . S
C1604 C1608 1.350 . S
C1605 C1608 1.463 . S
C1605 C1610 1.350 . S
C1605 N1613 1.427 . S
C1606 H1597 0.930 . S
C1606 C1604 1.378 . S
C1606 C1607 1.367 . S
C1607 C1606 1.367 . S
C1607 C1609 1.433 . S
C1608 C1604 1.350 . S
C1608 C1605 1.463 . S
C1608 N1612 1.427 . S
C1609 H1599 0.929 . S
C1609 C1607 1.433 . S
C1609 N1612 1.384 . S
C1610 H1601 0.929 . S
C1610 C1602 1.378 . S
C1610 C1605 1.350 . S
C1611 H1598 0.929 . S
C1611 C1603 1.433 . S
C1611 N1613 1.384 . S
N1612 C1608 1.427 . S
N1612 C1609 1.384 . S
N1613 C1605 1.427 . S
N1613 C1611 1.384 . S
H1614 C1620 0.930 . S
H1615 C1624 0.930 . S
H1616 C1629 0.929 . S
H1617 C1627 0.929 . S
H1618 C1622 0.929 . S
H1619 C1628 0.929 . S
C1620 H1614 0.930 . S
C1620 C1621 1.367 . S
C1620 C1628 1.378 . S
C1621 C1620 1.367 . S
C1621 C1629 1.433 . S
C1622 H1618 0.929 . S
C1622 C1624 1.378 . S
C1622 C1626 1.350 . S
C1623 C1626 1.463 . S
C1623 C1628 1.350 . S
C1623 N1631 1.427 . S
C1624 H1615 0.930 . S
C1624 C1622 1.378 . S
C1624 C1625 1.367 . S
C1625 C1624 1.367 . S
C1625 C1627 1.433 . S
C1626 C1622 1.350 . S
C1626 C1623 1.463 . S
C1626 N1630 1.427 . S
C1627 H1617 0.929 . S
C1627 C1625 1.433 . S
C1627 N1630 1.384 . S
C1628 H1619 0.929 . S
C1628 C1620 1.378 . S
C1628 C1623 1.350 . S
C1629 H1616 0.929 . S
C1629 C1621 1.433 . S
C1629 N1631 1.384 . S
N1630 C1626 1.427 . S
N1630 C1627 1.384 . S
N1631 C1623 1.427 . S
N1631 C1629 1.384 . S
H1632 C1638 0.930 . S
H1633 C1642 0.930 . S
H1634 C1647 0.929 . S
H1635 C1645 0.929 . S
H1636 C1640 0.929 . S
H1637 C1646 0.929 . S
C1638 H1632 0.930 . S
C1638 C1639 1.367 . S
C1638 C1646 1.378 . S
C1639 C1638 1.367 . S
C1639 C1647 1.433 . S
C1640 H1636 0.929 . S
C1640 C1642 1.378 . S
C1640 C1644 1.350 . S
C1641 C1644 1.463 . S
C1641 C1646 1.350 . S
C1641 N1649 1.427 . S
C1642 H1633 0.930 . S
C1642 C1640 1.378 . S
C1642 C1643 1.367 . S
C1643 C1642 1.367 . S
C1643 C1645 1.433 . S
C1644 C1640 1.350 . S
C1644 C1641 1.463 . S
C1644 N1648 1.427 . S
C1645 H1635 0.929 . S
C1645 C1643 1.433 . S
C1645 N1648 1.384 . S
C1646 H1637 0.929 . S
C1646 C1638 1.378 . S
C1646 C1641 1.350 . S
C1647 H1634 0.929 . S
C1647 C1639 1.433 . S
C1647 N1649 1.384 . S
N1648 C1644 1.427 . S
N1648 C1645 1.384 . S
N1649 C1641 1.427 . S
N1649 C1647 1.384 . S
H1650 C1656 0.930 . S
H1651 C1660 0.930 . S
H1652 C1665 0.929 . S
H1653 C1663 0.929 . S
H1654 C1658 0.929 . S
H1655 C1664 0.929 . S
C1656 H1650 0.930 . S
C1656 C1657 1.367 . S
C1656 C1664 1.378 . S
C1657 C1656 1.367 . S
C1657 C1665 1.433 . S
C1658 H1654 0.929 . S
C1658 C1660 1.378 . S
C1658 C1662 1.350 . S
C1659 C1662 1.463 1_455 S
C1659 C1664 1.350 . S
C1659 N1667 1.427 . S
C1660 H1651 0.930 . S
C1660 C1658 1.378 . S
C1660 C1661 1.367 . S
C1661 C1660 1.367 . S
C1661 C1663 1.433 . S
C1662 C1658 1.350 . S
C1662 C1659 1.463 1_655 S
C1662 N1666 1.427 . S
C1663 H1653 0.929 . S
C1663 C1661 1.433 . S
C1663 N1666 1.384 . S
C1664 H1655 0.929 . S
C1664 C1656 1.378 . S
C1664 C1659 1.350 . S
C1665 H1652 0.929 . S
C1665 C1657 1.433 . S
C1665 N1667 1.384 . S
N1666 C1662 1.427 . S
N1666 C1663 1.384 . S
N1667 C1659 1.427 . S
N1667 C1665 1.384 . S
H1668 C1674 0.930 . S
H1669 C1678 0.930 . S
H1670 C1683 0.929 . S
H1671 C1681 0.929 . S
H1672 C1676 0.929 . S
H1673 C1682 0.929 . S
C1674 H1668 0.930 . S
C1674 C1675 1.367 . S
C1674 C1682 1.378 . S
C1675 C1674 1.367 . S
C1675 C1683 1.433 . S
C1676 H1672 0.929 . S
C1676 C1678 1.378 . S
C1676 C1680 1.350 . S
C1677 C1680 1.463 1_655 S
C1677 C1682 1.350 . S
C1677 N1685 1.427 . S
C1678 H1669 0.930 . S
C1678 C1676 1.378 . S
C1678 C1679 1.367 . S
C1679 C1678 1.367 . S
C1679 C1681 1.433 . S
C1680 C1676 1.350 . S
C1680 C1677 1.463 1_455 S
C1680 N1684 1.427 . S
C1681 H1671 0.929 . S
C1681 C1679 1.433 . S
C1681 N1684 1.384 . S
C1682 H1673 0.929 . S
C1682 C1674 1.378 . S
C1682 C1677 1.350 . S
C1683 H1670 0.929 . S
C1683 C1675 1.433 . S
C1683 N1685 1.384 . S
N1684 C1680 1.427 . S
N1684 C1681 1.384 . S
N1685 C1677 1.427 . S
N1685 C1683 1.384 . S
H1686 C1692 0.930 . S
H1687 C1696 0.930 . S
H1688 C1701 0.929 . S
H1689 C1699 0.929 . S
H1690 C1694 0.929 . S
H1691 C1700 0.929 . S
C1692 H1686 0.930 . S
C1692 C1693 1.367 . S
C1692 C1700 1.378 . S
C1693 C1692 1.367 . S
C1693 C1701 1.433 . S
C1694 H1690 0.929 . S
C1694 C1696 1.378 . S
C1694 C1698 1.350 . S
C1695 C1698 1.463 . S
C1695 C1700 1.350 . S
C1695 N1703 1.427 . S
C1696 H1687 0.930 . S
C1696 C1694 1.378 . S
C1696 C1697 1.367 . S
C1697 C1696 1.367 . S
C1697 C1699 1.433 . S
C1698 C1694 1.350 . S
C1698 C1695 1.463 . S
C1698 N1702 1.427 . S
C1699 H1689 0.929 . S
C1699 C1697 1.433 . S
C1699 N1702 1.384 . S
C1700 H1691 0.929 . S
C1700 C1692 1.378 . S
C1700 C1695 1.350 . S
C1701 H1688 0.929 . S
C1701 C1693 1.433 . S
C1701 N1703 1.384 . S
N1702 C1698 1.427 . S
N1702 C1699 1.384 . S
N1703 C1695 1.427 . S
N1703 C1701 1.384 . S
H1704 C1710 0.930 . S
H1705 C1714 0.930 . S
H1706 C1719 0.929 . S
H1707 C1717 0.929 . S
H1708 C1712 0.929 . S
H1709 C1718 0.929 . S
C1710 H1704 0.930 . S
C1710 C1711 1.367 . S
C1710 C1718 1.378 . S
C1711 C1710 1.367 . S
C1711 C1719 1.433 . S
C1712 H1708 0.929 . S
C1712 C1714 1.378 . S
C1712 C1716 1.350 . S
C1713 C1716 1.463 . S
C1713 C1718 1.350 . S
C1713 N1721 1.427 . S
C1714 H1705 0.930 . S
C1714 C1712 1.378 . S
C1714 C1715 1.367 . S
C1715 C1714 1.367 . S
C1715 C1717 1.433 . S
C1716 C1712 1.350 . S
C1716 C1713 1.463 . S
C1716 N1720 1.427 . S
C1717 H1707 0.929 . S
C1717 C1715 1.433 . S
C1717 N1720 1.384 . S
C1718 H1709 0.929 . S
C1718 C1710 1.378 . S
C1718 C1713 1.350 . S
C1719 H1706 0.929 . S
C1719 C1711 1.433 . S
C1719 N1721 1.384 . S
N1720 C1716 1.427 . S
N1720 C1717 1.384 . S
N1721 C1713 1.427 . S
N1721 C1719 1.384 . S
H1722 C1728 0.930 . S
H1723 C1732 0.930 . S
H1724 C1737 0.929 . S
H1725 C1735 0.929 . S
H1726 C1730 0.929 . S
H1727 C1736 0.929 . S
C1728 H1722 0.930 . S
C1728 C1729 1.367 . S
C1728 C1736 1.378 . S
C1729 C1728 1.367 . S
C1729 C1737 1.433 . S
C1730 H1726 0.929 . S
C1730 C1732 1.378 . S
C1730 C1734 1.350 . S
C1731 C1734 1.463 . S
C1731 C1736 1.350 . S
C1731 N1739 1.427 . S
C1732 H1723 0.930 . S
C1732 C1730 1.378 . S
C1732 C1733 1.367 . S
C1733 C1732 1.367 . S
C1733 C1735 1.433 . S
C1734 C1730 1.350 . S
C1734 C1731 1.463 . S
C1734 N1738 1.427 . S
C1735 H1725 0.929 . S
C1735 C1733 1.433 . S
C1735 N1738 1.384 . S
C1736 H1727 0.929 . S
C1736 C1728 1.378 . S
C1736 C1731 1.350 . S
C1737 H1724 0.929 . S
C1737 C1729 1.433 . S
C1737 N1739 1.384 . S
N1738 C1734 1.427 . S
N1738 C1735 1.384 . S
N1739 C1731 1.427 . S
N1739 C1737 1.384 . S
H1740 C1746 0.930 . S
H1741 C1750 0.930 . S
H1742 C1755 0.929 1_655 S
H1743 C1753 0.929 1_455 S
H1744 C1748 0.929 . S
H1745 C1754 0.929 . S
C1746 H1740 0.930 . S
C1746 C1747 1.367 . S
C1746 C1754 1.378 . S
C1747 C1746 1.367 . S
C1747 C1755 1.433 . S
C1748 H1744 0.929 . S
C1748 C1750 1.378 . S
C1748 C1752 1.350 . S
C1749 C1752 1.463 1_455 S
C1749 C1754 1.350 . S
C1749 N1757 1.427 1_455 S
C1750 H1741 0.930 . S
C1750 C1748 1.378 . S
C1750 C1751 1.367 . S
C1751 C1750 1.367 . S
C1751 C1753 1.433 . S
C1752 C1748 1.350 . S
C1752 C1749 1.463 1_655 S
C1752 N1756 1.427 1_655 S
C1753 H1743 0.929 1_655 S
C1753 C1751 1.433 . S
C1753 N1756 1.384 1_655 S
C1754 H1745 0.929 . S
C1754 C1746 1.378 . S
C1754 C1749 1.350 . S
C1755 H1742 0.929 1_455 S
C1755 C1747 1.433 . S
C1755 N1757 1.384 1_455 S
N1756 C1752 1.427 1_455 S
N1756 C1753 1.384 1_455 S
N1757 C1749 1.427 1_655 S
N1757 C1755 1.384 1_655 S
H1758 C1764 0.930 . S
H1759 C1768 0.930 . S
H1760 C1773 0.929 . S
H1761 C1771 0.929 . S
H1762 C1766 0.929 . S
H1763 C1772 0.929 . S
C1764 H1758 0.930 . S
C1764 C1765 1.367 . S
C1764 C1772 1.378 . S
C1765 C1764 1.367 . S
C1765 C1773 1.433 . S
C1766 H1762 0.929 . S
C1766 C1768 1.378 . S
C1766 C1770 1.350 . S
C1767 C1770 1.463 1_655 S
C1767 C1772 1.350 . S
C1767 N1775 1.427 . S
C1768 H1759 0.930 . S
C1768 C1766 1.378 . S
C1768 C1769 1.367 . S
C1769 C1768 1.367 . S
C1769 C1771 1.433 . S
C1770 C1766 1.350 . S
C1770 C1767 1.463 1_455 S
C1770 N1774 1.427 . S
C1771 H1761 0.929 . S
C1771 C1769 1.433 . S
C1771 N1774 1.384 . S
C1772 H1763 0.929 . S
C1772 C1764 1.378 . S
C1772 C1767 1.350 . S
C1773 H1760 0.929 . S
C1773 C1765 1.433 . S
C1773 N1775 1.384 . S
N1774 C1770 1.427 . S
N1774 C1771 1.384 . S
N1775 C1767 1.427 . S
N1775 C1773 1.384 . S
H1776 C1782 0.930 . S
H1777 C1786 0.930 . S
H1778 C1791 0.929 . S
H1779 C1789 0.929 . S
H1780 C1784 0.929 . S
H1781 C1790 0.929 . S
C1782 H1776 0.930 . S
C1782 C1783 1.367 . S
C1782 C1790 1.378 . S
C1783 C1782 1.367 . S
C1783 C1791 1.433 . S
C1784 H1780 0.929 . S
C1784 C1786 1.378 . S
C1784 C1788 1.350 . S
C1785 C1788 1.463 . S
C1785 C1790 1.350 . S
C1785 N1793 1.427 . S
C1786 H1777 0.930 . S
C1786 C1784 1.378 . S
C1786 C1787 1.367 . S
C1787 C1786 1.367 . S
C1787 C1789 1.433 . S
C1788 C1784 1.350 . S
C1788 C1785 1.463 . S
C1788 N1792 1.427 . S
C1789 H1779 0.929 . S
C1789 C1787 1.433 . S
C1789 N1792 1.384 . S
C1790 H1781 0.929 . S
C1790 C1782 1.378 . S
C1790 C1785 1.350 . S
C1791 H1778 0.929 . S
C1791 C1783 1.433 . S
C1791 N1793 1.384 . S
N1792 C1788 1.427 . S
N1792 C1789 1.384 . S
N1793 C1785 1.427 . S
N1793 C1791 1.384 . S
H1794 C1800 0.930 . S
H1795 C1804 0.930 . S
H1796 C1809 0.929 . S
H1797 C1807 0.929 . S
H1798 C1802 0.929 . S
H1799 C1808 0.929 . S
C1800 H1794 0.930 . S
C1800 C1801 1.367 . S
C1800 C1808 1.378 . S
C1801 C1800 1.367 . S
C1801 C1809 1.433 . S
C1802 H1798 0.929 . S
C1802 C1804 1.378 . S
C1802 C1806 1.350 . S
C1803 C1806 1.463 1_655 S
C1803 C1808 1.350 . S
C1803 N1811 1.427 . S
C1804 H1795 0.930 . S
C1804 C1802 1.378 . S
C1804 C1805 1.367 . S
C1805 C1804 1.367 . S
C1805 C1807 1.433 . S
C1806 C1802 1.350 . S
C1806 C1803 1.463 1_455 S
C1806 N1810 1.427 . S
C1807 H1797 0.929 . S
C1807 C1805 1.433 . S
C1807 N1810 1.384 . S
C1808 H1799 0.929 . S
C1808 C1800 1.378 . S
C1808 C1803 1.350 . S
C1809 H1796 0.929 . S
C1809 C1801 1.433 . S
C1809 N1811 1.384 . S
N1810 C1806 1.427 . S
N1810 C1807 1.384 . S
N1811 C1803 1.427 . S
N1811 C1809 1.384 . S
H1812 C1818 0.930 1_655 S
H1813 C1822 0.930 1_455 S
H1814 C1827 0.929 . S
H1815 C1825 0.929 . S
H1816 C1820 0.929 . S
H1817 C1826 0.929 . S
C1818 H1812 0.930 1_455 S
C1818 C1819 1.367 . S
C1818 C1826 1.378 1_455 S
C1819 C1818 1.367 . S
C1819 C1827 1.433 . S
C1820 H1816 0.929 . S
C1820 C1822 1.378 1_455 S
C1820 C1824 1.350 1_455 S
C1821 C1824 1.463 1_455 S
C1821 C1826 1.350 1_455 S
C1821 N1829 1.427 . S
C1822 H1813 0.930 1_655 S
C1822 C1820 1.378 1_655 S
C1822 C1823 1.367 . S
C1823 C1822 1.367 . S
C1823 C1825 1.433 . S
C1824 C1820 1.350 1_655 S
C1824 C1821 1.463 1_655 S
C1824 N1828 1.427 . S
C1825 H1815 0.929 . S
C1825 C1823 1.433 . S
C1825 N1828 1.384 . S
C1826 H1817 0.929 . S
C1826 C1818 1.378 1_655 S
C1826 C1821 1.350 1_655 S
C1827 H1814 0.929 . S
C1827 C1819 1.433 . S
C1827 N1829 1.384 . S
N1828 C1824 1.427 . S
N1828 C1825 1.384 . S
N1829 C1821 1.427 . S
N1829 C1827 1.384 . S
H1830 C1836 0.930 . S
H1831 C1840 0.930 . S
H1832 C1845 0.929 . S
H1833 C1843 0.929 . S
H1834 C1838 0.929 . S
H1835 C1844 0.929 . S
C1836 H1830 0.930 . S
C1836 C1837 1.367 . S
C1836 C1844 1.378 . S
C1837 C1836 1.367 . S
C1837 C1845 1.433 . S
C1838 H1834 0.929 . S
C1838 C1840 1.378 . S
C1838 C1842 1.350 . S
C1839 C1842 1.463 . S
C1839 C1844 1.350 . S
C1839 N1847 1.427 . S
C1840 H1831 0.930 . S
C1840 C1838 1.378 . S
C1840 C1841 1.367 . S
C1841 C1840 1.367 . S
C1841 C1843 1.433 . S
C1842 C1838 1.350 . S
C1842 C1839 1.463 . S
C1842 N1846 1.427 . S
C1843 H1833 0.929 . S
C1843 C1841 1.433 . S
C1843 N1846 1.384 . S
C1844 H1835 0.929 . S
C1844 C1836 1.378 . S
C1844 C1839 1.350 . S
C1845 H1832 0.929 . S
C1845 C1837 1.433 . S
C1845 N1847 1.384 . S
N1846 C1842 1.427 . S
N1846 C1843 1.384 . S
N1847 C1839 1.427 . S
N1847 C1845 1.384 . S
H1848 C1854 0.930 . S
H1849 C1858 0.930 . S
H1850 C1863 0.929 . S
H1851 C1861 0.929 . S
H1852 C1856 0.929 . S
H1853 C1862 0.929 . S
C1854 H1848 0.930 . S
C1854 C1855 1.367 . S
C1854 C1862 1.378 . S
C1855 C1854 1.367 . S
C1855 C1863 1.433 . S
C1856 H1852 0.929 . S
C1856 C1858 1.378 . S
C1856 C1860 1.350 . S
C1857 C1860 1.463 . S
C1857 C1862 1.350 . S
C1857 N1865 1.427 . S
C1858 H1849 0.930 . S
C1858 C1856 1.378 . S
C1858 C1859 1.367 . S
C1859 C1858 1.367 . S
C1859 C1861 1.433 . S
C1860 C1856 1.350 . S
C1860 C1857 1.463 . S
C1860 N1864 1.427 . S
C1861 H1851 0.929 . S
C1861 C1859 1.433 . S
C1861 N1864 1.384 . S
C1862 H1853 0.929 . S
C1862 C1854 1.378 . S
C1862 C1857 1.350 . S
C1863 H1850 0.929 . S
C1863 C1855 1.433 . S
C1863 N1865 1.384 . S
N1864 C1860 1.427 . S
N1864 C1861 1.384 . S
N1865 C1857 1.427 . S
N1865 C1863 1.384 . S
H1866 C1872 0.930 . S
H1867 C1876 0.930 . S
H1868 C1881 0.929 . S
H1869 C1879 0.929 . S
H1870 C1874 0.929 . S
H1871 C1880 0.929 . S
C1872 H1866 0.930 . S
C1872 C1873 1.367 . S
C1872 C1880 1.378 . S
C1873 C1872 1.367 . S
C1873 C1881 1.433 . S
C1874 H1870 0.929 . S
C1874 C1876 1.378 . S
C1874 C1878 1.350 . S
C1875 C1878 1.463 . S
C1875 C1880 1.350 . S
C1875 N1883 1.427 . S
C1876 H1867 0.930 . S
C1876 C1874 1.378 . S
C1876 C1877 1.367 . S
C1877 C1876 1.367 . S
C1877 C1879 1.433 . S
C1878 C1874 1.350 . S
C1878 C1875 1.463 . S
C1878 N1882 1.427 . S
C1879 H1869 0.929 . S
C1879 C1877 1.433 . S
C1879 N1882 1.384 . S
C1880 H1871 0.929 . S
C1880 C1872 1.378 . S
C1880 C1875 1.350 . S
C1881 H1868 0.929 . S
C1881 C1873 1.433 . S
C1881 N1883 1.384 . S
N1882 C1878 1.427 . S
N1882 C1879 1.384 . S
N1883 C1875 1.427 . S
N1883 C1881 1.384 . S
H1884 C1890 0.930 . S
H1885 C1894 0.930 . S
H1886 C1899 0.929 . S
H1887 C1897 0.929 . S
H1888 C1892 0.929 . S
H1889 C1898 0.929 . S
C1890 H1884 0.930 . S
C1890 C1891 1.367 . S
C1890 C1898 1.378 . S
C1891 C1890 1.367 . S
C1891 C1899 1.433 1_455 S
C1892 H1888 0.929 . S
C1892 C1894 1.378 . S
C1892 C1896 1.350 . S
C1893 C1896 1.463 1_455 S
C1893 C1898 1.350 . S
C1893 N1901 1.427 1_455 S
C1894 H1885 0.930 . S
C1894 C1892 1.378 . S
C1894 C1895 1.367 . S
C1895 C1894 1.367 . S
C1895 C1897 1.433 1_655 S
C1896 C1892 1.350 . S
C1896 C1893 1.463 1_655 S
C1896 N1900 1.427 1_655 S
C1897 H1887 0.929 . S
C1897 C1895 1.433 1_455 S
C1897 N1900 1.384 . S
C1898 H1889 0.929 . S
C1898 C1890 1.378 . S
C1898 C1893 1.350 . S
C1899 H1886 0.929 . S
C1899 C1891 1.433 1_655 S
C1899 N1901 1.384 . S
N1900 C1896 1.427 1_455 S
N1900 C1897 1.384 . S
N1901 C1893 1.427 1_655 S
N1901 C1899 1.384 . S
H1902 C1908 0.930 . S
H1903 C1912 0.930 . S
H1904 C1917 0.929 . S
H1905 C1915 0.929 . S
H1906 C1910 0.929 . S
H1907 C1916 0.929 . S
C1908 H1902 0.930 . S
C1908 C1909 1.367 . S
C1908 C1916 1.378 . S
C1909 C1908 1.367 . S
C1909 C1917 1.433 . S
C1910 H1906 0.929 . S
C1910 C1912 1.378 . S
C1910 C1914 1.350 . S
C1911 C1914 1.463 1_455 S
C1911 C1916 1.350 . S
C1911 N1919 1.427 . S
C1912 H1903 0.930 . S
C1912 C1910 1.378 . S
C1912 C1913 1.367 . S
C1913 C1912 1.367 . S
C1913 C1915 1.433 . S
C1914 C1910 1.350 . S
C1914 C1911 1.463 1_655 S
C1914 N1918 1.427 . S
C1915 H1905 0.929 . S
C1915 C1913 1.433 . S
C1915 N1918 1.384 . S
C1916 H1907 0.929 . S
C1916 C1908 1.378 . S
C1916 C1911 1.350 . S
C1917 H1904 0.929 . S
C1917 C1909 1.433 . S
C1917 N1919 1.384 . S
N1918 C1914 1.427 . S
N1918 C1915 1.384 . S
N1919 C1911 1.427 . S
N1919 C1917 1.384 . S
H1920 C1926 0.930 . S
H1921 C1930 0.930 . S
H1922 C1935 0.929 . S
H1923 C1933 0.929 . S
H1924 C1928 0.929 . S
H1925 C1934 0.929 . S
C1926 H1920 0.930 . S
C1926 C1927 1.367 . S
C1926 C1934 1.378 . S
C1927 C1926 1.367 . S
C1927 C1935 1.433 . S
C1928 H1924 0.929 . S
C1928 C1930 1.378 . S
C1928 C1932 1.350 . S
C1929 C1932 1.463 . S
C1929 C1934 1.350 . S
C1929 N1937 1.427 . S
C1930 H1921 0.930 . S
C1930 C1928 1.378 . S
C1930 C1931 1.367 . S
C1931 C1930 1.367 . S
C1931 C1933 1.433 . S
C1932 C1928 1.350 . S
C1932 C1929 1.463 . S
C1932 N1936 1.427 . S
C1933 H1923 0.929 . S
C1933 C1931 1.433 . S
C1933 N1936 1.384 . S
C1934 H1925 0.929 . S
C1934 C1926 1.378 . S
C1934 C1929 1.350 . S
C1935 H1922 0.929 . S
C1935 C1927 1.433 . S
C1935 N1937 1.384 . S
N1936 C1932 1.427 . S
N1936 C1933 1.384 . S
N1937 C1929 1.427 . S
N1937 C1935 1.384 . S
H1938 C1944 0.930 . S
H1939 C1948 0.930 . S
H1940 C1953 0.929 . S
H1941 C1951 0.929 . S
H1942 C1946 0.929 . S
H1943 C1952 0.929 . S
C1944 H1938 0.930 . S
C1944 C1945 1.367 . S
C1944 C1952 1.378 . S
C1945 C1944 1.367 . S
C1945 C1953 1.433 . S
C1946 H1942 0.929 . S
C1946 C1948 1.378 . S
C1946 C1950 1.350 . S
C1947 C1950 1.463 . S
C1947 C1952 1.350 . S
C1947 N1955 1.427 . S
C1948 H1939 0.930 . S
C1948 C1946 1.378 . S
C1948 C1949 1.367 . S
C1949 C1948 1.367 . S
C1949 C1951 1.433 . S
C1950 C1946 1.350 . S
C1950 C1947 1.463 . S
C1950 N1954 1.427 . S
C1951 H1941 0.929 . S
C1951 C1949 1.433 . S
C1951 N1954 1.384 . S
C1952 H1943 0.929 . S
C1952 C1944 1.378 . S
C1952 C1947 1.350 . S
C1953 H1940 0.929 . S
C1953 C1945 1.433 . S
C1953 N1955 1.384 . S
N1954 C1950 1.427 . S
N1954 C1951 1.384 . S
N1955 C1947 1.427 . S
N1955 C1953 1.384 . S
H1956 C1962 0.930 . S
H1957 C1966 0.930 . S
H1958 C1971 0.929 . S
H1959 C1969 0.929 . S
H1960 C1964 0.929 . S
H1961 C1970 0.929 . S
C1962 H1956 0.930 . S
C1962 C1963 1.367 . S
C1962 C1970 1.378 . S
C1963 C1962 1.367 . S
C1963 C1971 1.433 . S
C1964 H1960 0.929 . S
C1964 C1966 1.378 . S
C1964 C1968 1.350 . S
C1965 C1968 1.463 . S
C1965 C1970 1.350 . S
C1965 N1973 1.427 . S
C1966 H1957 0.930 . S
C1966 C1964 1.378 . S
C1966 C1967 1.367 . S
C1967 C1966 1.367 . S
C1967 C1969 1.433 . S
C1968 C1964 1.350 . S
C1968 C1965 1.463 . S
C1968 N1972 1.427 . S
C1969 H1959 0.929 . S
C1969 C1967 1.433 . S
C1969 N1972 1.384 . S
C1970 H1961 0.929 . S
C1970 C1962 1.378 . S
C1970 C1965 1.350 . S
C1971 H1958 0.929 . S
C1971 C1963 1.433 . S
C1971 N1973 1.384 . S
N1972 C1968 1.427 . S
N1972 C1969 1.384 . S
N1973 C1965 1.427 . S
N1973 C1971 1.384 . S
H1974 C1980 0.930 . S
H1975 C1984 0.930 . S
H1976 C1989 0.929 . S
H1977 C1987 0.929 . S
H1978 C1982 0.929 . S
H1979 C1988 0.929 . S
C1980 H1974 0.930 . S
C1980 C1981 1.367 . S
C1980 C1988 1.378 . S
C1981 C1980 1.367 . S
C1981 C1989 1.433 . S
C1982 H1978 0.929 . S
C1982 C1984 1.378 . S
C1982 C1986 1.350 . S
C1983 C1986 1.463 . S
C1983 C1988 1.350 . S
C1983 N1991 1.427 . S
C1984 H1975 0.930 . S
C1984 C1982 1.378 . S
C1984 C1985 1.367 . S
C1985 C1984 1.367 . S
C1985 C1987 1.433 . S
C1986 C1982 1.350 . S
C1986 C1983 1.463 . S
C1986 N1990 1.427 . S
C1987 H1977 0.929 . S
C1987 C1985 1.433 . S
C1987 N1990 1.384 . S
C1988 H1979 0.929 . S
C1988 C1980 1.378 . S
C1988 C1983 1.350 . S
C1989 H1976 0.929 . S
C1989 C1981 1.433 . S
C1989 N1991 1.384 . S
N1990 C1986 1.427 . S
N1990 C1987 1.384 . S
N1991 C1983 1.427 . S
N1991 C1989 1.384 . S
H1992 C1998 0.930 . S
H1993 C2002 0.930 . S
H1994 C2007 0.929 . S
H1995 C2005 0.929 . S
H1996 C2000 0.929 . S
H1997 C2006 0.929 . S
C1998 H1992 0.930 . S
C1998 C1999 1.367 . S
C1998 C2006 1.378 . S
C1999 C1998 1.367 . S
C1999 C2007 1.433 . S
C2000 H1996 0.929 . S
C2000 C2002 1.378 . S
C2000 C2004 1.350 . S
C2001 C2004 1.463 . S
C2001 C2006 1.350 . S
C2001 N2009 1.427 . S
C2002 H1993 0.930 . S
C2002 C2000 1.378 . S
C2002 C2003 1.367 . S
C2003 C2002 1.367 . S
C2003 C2005 1.433 . S
C2004 C2000 1.350 . S
C2004 C2001 1.463 . S
C2004 N2008 1.427 . S
C2005 H1995 0.929 . S
C2005 C2003 1.433 . S
C2005 N2008 1.384 . S
C2006 H1997 0.929 . S
C2006 C1998 1.378 . S
C2006 C2001 1.350 . S
C2007 H1994 0.929 . S
C2007 C1999 1.433 . S
C2007 N2009 1.384 . S
N2008 C2004 1.427 . S
N2008 C2005 1.384 . S
N2009 C2001 1.427 . S
N2009 C2007 1.384 . S
H2010 C2016 0.930 . S
H2011 C2020 0.930 . S
H2012 C2025 0.929 . S
H2013 C2023 0.929 . S
H2014 C2018 0.929 . S
H2015 C2024 0.929 . S
C2016 H2010 0.930 . S
C2016 C2017 1.367 . S
C2016 C2024 1.378 . S
C2017 C2016 1.367 . S
C2017 C2025 1.433 . S
C2018 H2014 0.929 . S
C2018 C2020 1.378 . S
C2018 C2022 1.350 . S
C2019 C2022 1.463 . S
C2019 C2024 1.350 . S
C2019 N2027 1.427 . S
C2020 H2011 0.930 . S
C2020 C2018 1.378 . S
C2020 C2021 1.367 . S
C2021 C2020 1.367 . S
C2021 C2023 1.433 . S
C2022 C2018 1.350 . S
C2022 C2019 1.463 . S
C2022 N2026 1.427 . S
C2023 H2013 0.929 . S
C2023 C2021 1.433 . S
C2023 N2026 1.384 . S
C2024 H2015 0.929 . S
C2024 C2016 1.378 . S
C2024 C2019 1.350 . S
C2025 H2012 0.929 . S
C2025 C2017 1.433 . S
C2025 N2027 1.384 . S
N2026 C2022 1.427 . S
N2026 C2023 1.384 . S
N2027 C2019 1.427 . S
N2027 C2025 1.384 . S
H2028 C2034 0.930 . S
H2029 C2038 0.930 . S
H2030 C2043 0.929 . S
H2031 C2041 0.929 . S
H2032 C2036 0.929 . S
H2033 C2042 0.929 . S
C2034 H2028 0.930 . S
C2034 C2035 1.367 . S
C2034 C2042 1.378 . S
C2035 C2034 1.367 . S
C2035 C2043 1.433 . S
C2036 H2032 0.929 . S
C2036 C2038 1.378 . S
C2036 C2040 1.350 . S
C2037 C2040 1.463 . S
C2037 C2042 1.350 . S
C2037 N2045 1.427 . S
C2038 H2029 0.930 . S
C2038 C2036 1.378 . S
C2038 C2039 1.367 . S
C2039 C2038 1.367 . S
C2039 C2041 1.433 . S
C2040 C2036 1.350 . S
C2040 C2037 1.463 . S
C2040 N2044 1.427 . S
C2041 H2031 0.929 . S
C2041 C2039 1.433 . S
C2041 N2044 1.384 . S
C2042 H2033 0.929 . S
C2042 C2034 1.378 . S
C2042 C2037 1.350 . S
C2043 H2030 0.929 . S
C2043 C2035 1.433 . S
C2043 N2045 1.384 . S
N2044 C2040 1.427 . S
N2044 C2041 1.384 . S
N2045 C2037 1.427 . S
N2045 C2043 1.384 . S
H2046 C2052 0.930 . S
H2047 C2056 0.930 . S
H2048 C2061 0.929 . S
H2049 C2059 0.929 . S
H2050 C2054 0.929 . S
H2051 C2060 0.929 . S
C2052 H2046 0.930 . S
C2052 C2053 1.367 . S
C2052 C2060 1.378 . S
C2053 C2052 1.367 . S
C2053 C2061 1.433 . S
C2054 H2050 0.929 . S
C2054 C2056 1.378 . S
C2054 C2058 1.350 . S
C2055 C2058 1.463 . S
C2055 C2060 1.350 . S
C2055 N2063 1.427 . S
C2056 H2047 0.930 . S
C2056 C2054 1.378 . S
C2056 C2057 1.367 . S
C2057 C2056 1.367 . S
C2057 C2059 1.433 . S
C2058 C2054 1.350 . S
C2058 C2055 1.463 . S
C2058 N2062 1.427 . S
C2059 H2049 0.929 . S
C2059 C2057 1.433 . S
C2059 N2062 1.384 . S
C2060 H2051 0.929 . S
C2060 C2052 1.378 . S
C2060 C2055 1.350 . S
C2061 H2048 0.929 . S
C2061 C2053 1.433 . S
C2061 N2063 1.384 . S
N2062 C2058 1.427 . S
N2062 C2059 1.384 . S
N2063 C2055 1.427 . S
N2063 C2061 1.384 . S
H2064 C2070 0.930 . S
H2065 C2074 0.930 . S
H2066 C2079 0.929 . S
H2067 C2077 0.929 . S
H2068 C2072 0.929 . S
H2069 C2078 0.929 . S
C2070 H2064 0.930 . S
C2070 C2071 1.367 . S
C2070 C2078 1.378 . S
C2071 C2070 1.367 . S
C2071 C2079 1.433 . S
C2072 H2068 0.929 . S
C2072 C2074 1.378 . S
C2072 C2076 1.350 . S
C2073 C2076 1.463 . S
C2073 C2078 1.350 . S
C2073 N2081 1.427 . S
C2074 H2065 0.930 . S
C2074 C2072 1.378 . S
C2074 C2075 1.367 . S
C2075 C2074 1.367 . S
C2075 C2077 1.433 . S
C2076 C2072 1.350 . S
C2076 C2073 1.463 . S
C2076 N2080 1.427 . S
C2077 H2067 0.929 . S
C2077 C2075 1.433 . S
C2077 N2080 1.384 . S
C2078 H2069 0.929 . S
C2078 C2070 1.378 . S
C2078 C2073 1.350 . S
C2079 H2066 0.929 . S
C2079 C2071 1.433 . S
C2079 N2081 1.384 . S
N2080 C2076 1.427 . S
N2080 C2077 1.384 . S
N2081 C2073 1.427 . S
N2081 C2079 1.384 . S
H2082 C2088 0.930 . S
H2083 C2092 0.930 . S
H2084 C2097 0.929 . S
H2085 C2095 0.929 . S
H2086 C2090 0.929 . S
H2087 C2096 0.929 . S
C2088 H2082 0.930 . S
C2088 C2089 1.367 . S
C2088 C2096 1.378 . S
C2089 C2088 1.367 . S
C2089 C2097 1.433 . S
C2090 H2086 0.929 . S
C2090 C2092 1.378 . S
C2090 C2094 1.350 . S
C2091 C2094 1.463 . S
C2091 C2096 1.350 . S
C2091 N2099 1.427 . S
C2092 H2083 0.930 . S
C2092 C2090 1.378 . S
C2092 C2093 1.367 . S
C2093 C2092 1.367 . S
C2093 C2095 1.433 . S
C2094 C2090 1.350 . S
C2094 C2091 1.463 . S
C2094 N2098 1.427 . S
C2095 H2085 0.929 . S
C2095 C2093 1.433 . S
C2095 N2098 1.384 . S
C2096 H2087 0.929 . S
C2096 C2088 1.378 . S
C2096 C2091 1.350 . S
C2097 H2084 0.929 . S
C2097 C2089 1.433 . S
C2097 N2099 1.384 . S
N2098 C2094 1.427 . S
N2098 C2095 1.384 . S
N2099 C2091 1.427 . S
N2099 C2097 1.384 . S
H2100 C2106 0.930 . S
H2101 C2110 0.930 . S
H2102 C2115 0.929 . S
H2103 C2113 0.929 . S
H2104 C2108 0.929 . S
H2105 C2114 0.929 . S
C2106 H2100 0.930 . S
C2106 C2107 1.367 . S
C2106 C2114 1.378 . S
C2107 C2106 1.367 . S
C2107 C2115 1.433 . S
C2108 H2104 0.929 . S
C2108 C2110 1.378 . S
C2108 C2112 1.350 . S
C2109 C2112 1.463 . S
C2109 C2114 1.350 . S
C2109 N2117 1.427 . S
C2110 H2101 0.930 . S
C2110 C2108 1.378 . S
C2110 C2111 1.367 . S
C2111 C2110 1.367 . S
C2111 C2113 1.433 . S
C2112 C2108 1.350 . S
C2112 C2109 1.463 . S
C2112 N2116 1.427 . S
C2113 H2103 0.929 . S
C2113 C2111 1.433 . S
C2113 N2116 1.384 . S
C2114 H2105 0.929 . S
C2114 C2106 1.378 . S
C2114 C2109 1.350 . S
C2115 H2102 0.929 . S
C2115 C2107 1.433 . S
C2115 N2117 1.384 . S
N2116 C2112 1.427 . S
N2116 C2113 1.384 . S
N2117 C2109 1.427 . S
N2117 C2115 1.384 . S
H2118 C2124 0.930 . S
H2119 C2128 0.930 . S
H2120 C2133 0.929 . S
H2121 C2131 0.929 . S
H2122 C2126 0.929 . S
H2123 C2132 0.929 . S
C2124 H2118 0.930 . S
C2124 C2125 1.367 . S
C2124 C2132 1.378 . S
C2125 C2124 1.367 . S
C2125 C2133 1.433 . S
C2126 H2122 0.929 . S
C2126 C2128 1.378 . S
C2126 C2130 1.350 . S
C2127 C2130 1.463 . S
C2127 C2132 1.350 . S
C2127 N2135 1.427 . S
C2128 H2119 0.930 . S
C2128 C2126 1.378 . S
C2128 C2129 1.367 . S
C2129 C2128 1.367 . S
C2129 C2131 1.433 . S
C2130 C2126 1.350 . S
C2130 C2127 1.463 . S
C2130 N2134 1.427 . S
C2131 H2121 0.929 . S
C2131 C2129 1.433 . S
C2131 N2134 1.384 . S
C2132 H2123 0.929 . S
C2132 C2124 1.378 . S
C2132 C2127 1.350 . S
C2133 H2120 0.929 . S
C2133 C2125 1.433 . S
C2133 N2135 1.384 . S
N2134 C2130 1.427 . S
N2134 C2131 1.384 . S
N2135 C2127 1.427 . S
N2135 C2133 1.384 . S
H2136 C2142 0.930 . S
H2137 C2146 0.930 . S
H2138 C2151 0.929 . S
H2139 C2149 0.929 . S
H2140 C2144 0.929 . S
H2141 C2150 0.929 . S
C2142 H2136 0.930 . S
C2142 C2143 1.367 . S
C2142 C2150 1.378 . S
C2143 C2142 1.367 . S
C2143 C2151 1.433 . S
C2144 H2140 0.929 . S
C2144 C2146 1.378 . S
C2144 C2148 1.350 . S
C2145 C2148 1.463 . S
C2145 C2150 1.350 . S
C2145 N2153 1.427 . S
C2146 H2137 0.930 . S
C2146 C2144 1.378 . S
C2146 C2147 1.367 . S
C2147 C2146 1.367 . S
C2147 C2149 1.433 . S
C2148 C2144 1.350 . S
C2148 C2145 1.463 . S
C2148 N2152 1.427 . S
C2149 H2139 0.929 . S
C2149 C2147 1.433 . S
C2149 N2152 1.384 . S
C2150 H2141 0.929 . S
C2150 C2142 1.378 . S
C2150 C2145 1.350 . S
C2151 H2138 0.929 . S
C2151 C2143 1.433 . S
C2151 N2153 1.384 . S
N2152 C2148 1.427 . S
N2152 C2149 1.384 . S
N2153 C2145 1.427 . S
N2153 C2151 1.384 . S
H2154 C2160 0.930 . S
H2155 C2164 0.930 . S
H2156 C2169 0.929 . S
H2157 C2167 0.929 . S
H2158 C2162 0.929 . S
H2159 C2168 0.929 . S
C2160 H2154 0.930 . S
C2160 C2161 1.367 . S
C2160 C2168 1.378 . S
C2161 C2160 1.367 . S
C2161 C2169 1.433 . S
C2162 H2158 0.929 . S
C2162 C2164 1.378 . S
C2162 C2166 1.350 . S
C2163 C2166 1.463 . S
C2163 C2168 1.350 . S
C2163 N2171 1.427 . S
C2164 H2155 0.930 . S
C2164 C2162 1.378 . S
C2164 C2165 1.367 . S
C2165 C2164 1.367 . S
C2165 C2167 1.433 . S
C2166 C2162 1.350 . S
C2166 C2163 1.463 . S
C2166 N2170 1.427 . S
C2167 H2157 0.929 . S
C2167 C2165 1.433 . S
C2167 N2170 1.384 . S
C2168 H2159 0.929 . S
C2168 C2160 1.378 . S
C2168 C2163 1.350 . S
C2169 H2156 0.929 . S
C2169 C2161 1.433 . S
C2169 N2171 1.384 . S
N2170 C2166 1.427 . S
N2170 C2167 1.384 . S
N2171 C2163 1.427 . S
N2171 C2169 1.384 . S
H2172 C2178 0.930 . S
H2173 C2182 0.930 . S
H2174 C2187 0.929 . S
H2175 C2185 0.929 . S
H2176 C2180 0.929 . S
H2177 C2186 0.929 . S
C2178 H2172 0.930 . S
C2178 C2179 1.367 . S
C2178 C2186 1.378 . S
C2179 C2178 1.367 . S
C2179 C2187 1.433 . S
C2180 H2176 0.929 . S
C2180 C2182 1.378 . S
C2180 C2184 1.350 . S
C2181 C2184 1.463 . S
C2181 C2186 1.350 . S
C2181 N2189 1.427 . S
C2182 H2173 0.930 . S
C2182 C2180 1.378 . S
C2182 C2183 1.367 . S
C2183 C2182 1.367 . S
C2183 C2185 1.433 . S
C2184 C2180 1.350 . S
C2184 C2181 1.463 . S
C2184 N2188 1.427 . S
C2185 H2175 0.929 . S
C2185 C2183 1.433 . S
C2185 N2188 1.384 . S
C2186 H2177 0.929 . S
C2186 C2178 1.378 . S
C2186 C2181 1.350 . S
C2187 H2174 0.929 . S
C2187 C2179 1.433 . S
C2187 N2189 1.384 . S
N2188 C2184 1.427 . S
N2188 C2185 1.384 . S
N2189 C2181 1.427 . S
N2189 C2187 1.384 . S
H2190 C2196 0.930 . S
H2191 C2200 0.930 . S
H2192 C2205 0.929 . S
H2193 C2203 0.929 . S
H2194 C2198 0.929 . S
H2195 C2204 0.929 . S
C2196 H2190 0.930 . S
C2196 C2197 1.367 . S
C2196 C2204 1.378 . S
C2197 C2196 1.367 . S
C2197 C2205 1.433 . S
C2198 H2194 0.929 . S
C2198 C2200 1.378 . S
C2198 C2202 1.350 . S
C2199 C2202 1.463 . S
C2199 C2204 1.350 . S
C2199 N2207 1.427 . S
C2200 H2191 0.930 . S
C2200 C2198 1.378 . S
C2200 C2201 1.367 . S
C2201 C2200 1.367 . S
C2201 C2203 1.433 . S
C2202 C2198 1.350 . S
C2202 C2199 1.463 . S
C2202 N2206 1.427 . S
C2203 H2193 0.929 . S
C2203 C2201 1.433 . S
C2203 N2206 1.384 . S
C2204 H2195 0.929 . S
C2204 C2196 1.378 . S
C2204 C2199 1.350 . S
C2205 H2192 0.929 . S
C2205 C2197 1.433 . S
C2205 N2207 1.384 . S
N2206 C2202 1.427 . S
N2206 C2203 1.384 . S
N2207 C2199 1.427 . S
N2207 C2205 1.384 . S
H2208 C2214 0.930 . S
H2209 C2218 0.930 . S
H2210 C2223 0.929 . S
H2211 C2221 0.929 . S
H2212 C2216 0.929 . S
H2213 C2222 0.929 . S
C2214 H2208 0.930 . S
C2214 C2215 1.367 . S
C2214 C2222 1.378 1_565 S
C2215 C2214 1.367 . S
C2215 C2223 1.433 . S
C2216 H2212 0.929 . S
C2216 C2218 1.378 1_565 S
C2216 C2220 1.350 1_565 S
C2217 C2220 1.463 1_565 S
C2217 C2222 1.350 1_565 S
C2217 N2225 1.427 . S
C2218 H2209 0.930 . S
C2218 C2216 1.378 1_545 S
C2218 C2219 1.367 . S
C2219 C2218 1.367 . S
C2219 C2221 1.433 . S
C2220 C2216 1.350 1_545 S
C2220 C2217 1.463 1_545 S
C2220 N2224 1.427 . S
C2221 H2211 0.929 . S
C2221 C2219 1.433 . S
C2221 N2224 1.384 . S
C2222 H2213 0.929 . S
C2222 C2214 1.378 1_545 S
C2222 C2217 1.350 1_545 S
C2223 H2210 0.929 . S
C2223 C2215 1.433 . S
C2223 N2225 1.384 . S
N2224 C2220 1.427 . S
N2224 C2221 1.384 . S
N2225 C2217 1.427 . S
N2225 C2223 1.384 . S
H2226 C2232 0.930 . S
H2227 C2236 0.930 . S
H2228 C2241 0.929 . S
H2229 C2239 0.929 . S
H2230 C2234 0.929 . S
H2231 C2240 0.929 . S
C2232 H2226 0.930 . S
C2232 C2233 1.367 . S
C2232 C2240 1.378 . S
C2233 C2232 1.367 . S
C2233 C2241 1.433 . S
C2234 H2230 0.929 . S
C2234 C2236 1.378 . S
C2234 C2238 1.350 . S
C2235 C2238 1.463 . S
C2235 C2240 1.350 . S
C2235 N2243 1.427 . S
C2236 H2227 0.930 . S
C2236 C2234 1.378 . S
C2236 C2237 1.367 . S
C2237 C2236 1.367 . S
C2237 C2239 1.433 . S
C2238 C2234 1.350 . S
C2238 C2235 1.463 . S
C2238 N2242 1.427 . S
C2239 H2229 0.929 . S
C2239 C2237 1.433 . S
C2239 N2242 1.384 . S
C2240 H2231 0.929 . S
C2240 C2232 1.378 . S
C2240 C2235 1.350 . S
C2241 H2228 0.929 . S
C2241 C2233 1.433 . S
C2241 N2243 1.384 . S
N2242 C2238 1.427 . S
N2242 C2239 1.384 . S
N2243 C2235 1.427 . S
N2243 C2241 1.384 . S
H2244 C2250 0.930 . S
H2245 C2254 0.930 . S
H2246 C2259 0.929 . S
H2247 C2257 0.929 . S
H2248 C2252 0.929 . S
H2249 C2258 0.929 . S
C2250 H2244 0.930 . S
C2250 C2251 1.367 . S
C2250 C2258 1.378 . S
C2251 C2250 1.367 . S
C2251 C2259 1.433 . S
C2252 H2248 0.929 . S
C2252 C2254 1.378 . S
C2252 C2256 1.350 . S
C2253 C2256 1.463 1_565 S
C2253 C2258 1.350 . S
C2253 N2261 1.427 1_565 S
C2254 H2245 0.930 . S
C2254 C2252 1.378 . S
C2254 C2255 1.367 . S
C2255 C2254 1.367 . S
C2255 C2257 1.433 . S
C2256 C2252 1.350 . S
C2256 C2253 1.463 1_545 S
C2256 N2260 1.427 1_545 S
C2257 H2247 0.929 . S
C2257 C2255 1.433 . S
C2257 N2260 1.384 1_545 S
C2258 H2249 0.929 . S
C2258 C2250 1.378 . S
C2258 C2253 1.350 . S
C2259 H2246 0.929 . S
C2259 C2251 1.433 . S
C2259 N2261 1.384 1_565 S
N2260 C2256 1.427 1_565 S
N2260 C2257 1.384 1_565 S
N2261 C2253 1.427 1_545 S
N2261 C2259 1.384 1_545 S
H2262 C2268 0.930 . S
H2263 C2272 0.930 . S
H2264 C2277 0.929 . S
H2265 C2275 0.929 . S
H2266 C2270 0.929 . S
H2267 C2276 0.929 . S
C2268 H2262 0.930 . S
C2268 C2269 1.367 . S
C2268 C2276 1.378 . S
C2269 C2268 1.367 . S
C2269 C2277 1.433 . S
C2270 H2266 0.929 . S
C2270 C2272 1.378 . S
C2270 C2274 1.350 . S
C2271 C2274 1.463 1_554 S
C2271 C2276 1.350 . S
C2271 N2279 1.427 . S
C2272 H2263 0.930 . S
C2272 C2270 1.378 . S
C2272 C2273 1.367 . S
C2273 C2272 1.367 . S
C2273 C2275 1.433 . S
C2274 C2270 1.350 . S
C2274 C2271 1.463 1_556 S
C2274 N2278 1.427 . S
C2275 H2265 0.929 . S
C2275 C2273 1.433 . S
C2275 N2278 1.384 . S
C2276 H2267 0.929 . S
C2276 C2268 1.378 . S
C2276 C2271 1.350 . S
C2277 H2264 0.929 . S
C2277 C2269 1.433 . S
C2277 N2279 1.384 . S
N2278 C2274 1.427 . S
N2278 C2275 1.384 . S
N2279 C2271 1.427 . S
N2279 C2277 1.384 . S
H2280 C2286 0.930 . S
H2281 C2290 0.930 . S
H2282 C2295 0.929 . S
H2283 C2293 0.929 . S
H2284 C2288 0.918 1_545 S
H2285 C2294 0.918 1_565 S
C2286 H2280 0.930 . S
C2286 C2287 1.367 . S
C2286 C2294 1.385 . S
C2287 C2286 1.367 . S
C2287 C2295 1.433 . S
C2288 H2284 0.918 1_565 S
C2288 C2290 1.385 . S
C2288 C2292 1.353 . S
C2289 C2292 1.463 1_545 S
C2289 C2294 1.353 . S
C2289 N2297 1.427 . S
C2290 H2281 0.930 . S
C2290 C2288 1.385 . S
C2290 C2291 1.367 . S
C2291 C2290 1.367 . S
C2291 C2293 1.433 . S
C2292 C2288 1.353 . S
C2292 C2289 1.463 1_565 S
C2292 N2296 1.427 . S
C2293 H2283 0.929 . S
C2293 C2291 1.433 . S
C2293 N2296 1.384 . S
C2294 H2285 0.918 1_545 S
C2294 C2286 1.385 . S
C2294 C2289 1.353 . S
C2295 H2282 0.929 . S
C2295 C2287 1.433 . S
C2295 N2297 1.384 . S
N2296 C2292 1.427 . S
N2296 C2293 1.384 . S
N2297 C2289 1.427 . S
N2297 C2295 1.384 . S
H2298 C2304 0.930 . S
H2299 C2308 0.930 . S
H2300 C2313 0.929 . S
H2301 C2311 0.929 . S
H2302 C2306 0.929 . S
H2303 C2312 0.929 . S
C2304 H2298 0.930 . S
C2304 C2305 1.367 . S
C2304 C2312 1.378 . S
C2305 C2304 1.367 . S
C2305 C2313 1.433 . S
C2306 H2302 0.929 . S
C2306 C2308 1.378 . S
C2306 C2310 1.350 . S
C2307 C2310 1.463 . S
C2307 C2312 1.350 . S
C2307 N2315 1.427 . S
C2308 H2299 0.930 . S
C2308 C2306 1.378 . S
C2308 C2309 1.367 . S
C2309 C2308 1.367 . S
C2309 C2311 1.433 . S
C2310 C2306 1.350 . S
C2310 C2307 1.463 . S
C2310 N2314 1.427 . S
C2311 H2301 0.929 . S
C2311 C2309 1.433 . S
C2311 N2314 1.384 . S
C2312 H2303 0.929 . S
C2312 C2304 1.378 . S
C2312 C2307 1.350 . S
C2313 H2300 0.929 . S
C2313 C2305 1.433 . S
C2313 N2315 1.384 . S
N2314 C2310 1.427 . S
N2314 C2311 1.384 . S
N2315 C2307 1.427 . S
N2315 C2313 1.384 . S
H2316 C2322 0.930 . S
H2317 C2326 0.930 . S
H2318 C2331 0.940 . S
H2319 C2329 0.940 . S
H2320 C2324 0.929 . S
H2321 C2330 0.929 . S
C2322 H2316 0.930 . S
C2322 C2323 1.367 . S
C2322 C2330 1.378 . S
C2323 C2322 1.367 . S
C2323 C2331 1.433 . S
C2324 H2320 0.929 . S
C2324 C2326 1.378 . S
C2324 C2328 1.350 . S
C2325 C2328 1.463 1_565 S
C2325 C2330 1.350 . S
C2325 N2333 1.427 1_565 S
C2326 H2317 0.930 . S
C2326 C2324 1.378 . S
C2326 C2327 1.367 . S
C2327 C2326 1.367 . S
C2327 C2329 1.433 . S
C2328 C2324 1.350 . S
C2328 C2325 1.463 1_545 S
C2328 N2332 1.427 1_545 S
C2329 H2319 0.940 . S
C2329 C2327 1.433 . S
C2329 N2332 1.384 1_545 S
C2330 H2321 0.929 . S
C2330 C2322 1.378 . S
C2330 C2325 1.350 . S
C2331 H2318 0.940 . S
C2331 C2323 1.433 . S
C2331 N2333 1.384 1_565 S
N2332 C2328 1.427 1_565 S
N2332 C2329 1.384 1_565 S
N2333 C2325 1.427 1_545 S
N2333 C2331 1.384 1_545 S
H2334 C2340 0.930 . S
H2335 C2344 0.930 . S
H2336 C2349 0.929 . S
H2337 C2347 0.929 . S
H2338 C2342 0.929 . S
H2339 C2348 0.929 . S
C2340 H2334 0.930 . S
C2340 C2341 1.367 . S
C2340 C2348 1.378 . S
C2341 C2340 1.367 . S
C2341 C2349 1.433 . S
C2342 H2338 0.929 . S
C2342 C2344 1.378 . S
C2342 C2346 1.350 . S
C2343 C2346 1.463 1_556 S
C2343 C2348 1.350 . S
C2343 N2351 1.427 . S
C2344 H2335 0.930 . S
C2344 C2342 1.378 . S
C2344 C2345 1.367 . S
C2345 C2344 1.367 . S
C2345 C2347 1.433 . S
C2346 C2342 1.350 . S
C2346 C2343 1.463 1_554 S
C2346 N2350 1.427 . S
C2347 H2337 0.929 . S
C2347 C2345 1.433 . S
C2347 N2350 1.384 . S
C2348 H2339 0.929 . S
C2348 C2340 1.378 . S
C2348 C2343 1.350 . S
C2349 H2336 0.929 . S
C2349 C2341 1.433 . S
C2349 N2351 1.384 . S
N2350 C2346 1.427 . S
N2350 C2347 1.384 . S
N2351 C2343 1.427 . S
N2351 C2349 1.384 . S
H2352 C2358 0.930 . S
H2353 C2362 0.930 . S
H2354 C2367 0.929 . S
H2355 C2365 0.929 . S
H2356 C2360 0.929 . S
H2357 C2366 0.929 . S
C2358 H2352 0.930 . S
C2358 C2359 1.367 . S
C2358 C2366 1.378 . S
C2359 C2358 1.367 . S
C2359 C2367 1.433 . S
C2360 H2356 0.929 . S
C2360 C2362 1.378 . S
C2360 C2364 1.350 . S
C2361 C2364 1.463 . S
C2361 C2366 1.350 . S
C2361 N2369 1.427 . S
C2362 H2353 0.930 . S
C2362 C2360 1.378 . S
C2362 C2363 1.367 . S
C2363 C2362 1.367 . S
C2363 C2365 1.433 . S
C2364 C2360 1.350 . S
C2364 C2361 1.463 . S
C2364 N2368 1.427 . S
C2365 H2355 0.929 . S
C2365 C2363 1.433 . S
C2365 N2368 1.384 . S
C2366 H2357 0.929 . S
C2366 C2358 1.378 . S
C2366 C2361 1.350 . S
C2367 H2354 0.929 . S
C2367 C2359 1.433 . S
C2367 N2369 1.384 . S
N2368 C2364 1.427 . S
N2368 C2365 1.384 . S
N2369 C2361 1.427 . S
N2369 C2367 1.384 . S
H2370 C2376 0.930 . S
H2371 C2380 0.930 . S
H2372 C2385 0.929 . S
H2373 C2383 0.929 . S
H2374 C2378 0.929 1_556 S
H2375 C2384 0.929 1_554 S
C2376 H2370 0.930 . S
C2376 C2377 1.367 . S
C2376 C2384 1.378 . S
C2377 C2376 1.367 . S
C2377 C2385 1.433 . S
C2378 H2374 0.929 1_554 S
C2378 C2380 1.378 . S
C2378 C2382 1.350 . S
C2379 C2382 1.463 1_556 S
C2379 C2384 1.350 . S
C2379 N2387 1.427 . S
C2380 H2371 0.930 . S
C2380 C2378 1.378 . S
C2380 C2381 1.367 . S
C2381 C2380 1.367 . S
C2381 C2383 1.433 . S
C2382 C2378 1.350 . S
C2382 C2379 1.463 1_554 S
C2382 N2386 1.427 . S
C2383 H2373 0.929 . S
C2383 C2381 1.433 . S
C2383 N2386 1.384 . S
C2384 H2375 0.929 1_556 S
C2384 C2376 1.378 . S
C2384 C2379 1.350 . S
C2385 H2372 0.929 . S
C2385 C2377 1.433 . S
C2385 N2387 1.384 . S
N2386 C2382 1.427 . S
N2386 C2383 1.384 . S
N2387 C2379 1.427 . S
N2387 C2385 1.384 . S
H2388 C2394 0.930 . S
H2389 C2398 0.930 . S
H2390 C2403 0.929 . S
H2391 C2401 0.929 . S
H2392 C2396 0.929 . S
H2393 C2402 0.929 . S
C2394 H2388 0.930 . S
C2394 C2395 1.367 . S
C2394 C2402 1.378 . S
C2395 C2394 1.367 . S
C2395 C2403 1.433 . S
C2396 H2392 0.929 . S
C2396 C2398 1.378 . S
C2396 C2400 1.350 . S
C2397 C2400 1.463 . S
C2397 C2402 1.350 . S
C2397 N2405 1.427 . S
C2398 H2389 0.930 . S
C2398 C2396 1.378 . S
C2398 C2399 1.367 . S
C2399 C2398 1.367 . S
C2399 C2401 1.433 . S
C2400 C2396 1.350 . S
C2400 C2397 1.463 . S
C2400 N2404 1.427 . S
C2401 H2391 0.929 . S
C2401 C2399 1.433 . S
C2401 N2404 1.384 . S
C2402 H2393 0.929 . S
C2402 C2394 1.378 . S
C2402 C2397 1.350 . S
C2403 H2390 0.929 . S
C2403 C2395 1.433 . S
C2403 N2405 1.384 . S
N2404 C2400 1.427 . S
N2404 C2401 1.384 . S
N2405 C2397 1.427 . S
N2405 C2403 1.384 . S
H2406 C2412 0.930 . S
H2407 C2416 0.930 . S
H2408 C2421 0.929 . S
H2409 C2419 0.929 . S
H2410 C2414 0.929 . S
H2411 C2420 0.929 . S
C2412 H2406 0.930 . S
C2412 C2413 1.367 . S
C2412 C2420 1.378 . S
C2413 C2412 1.367 . S
C2413 C2421 1.433 . S
C2414 H2410 0.929 . S
C2414 C2416 1.378 . S
C2414 C2418 1.350 . S
C2415 C2418 1.463 . S
C2415 C2420 1.350 . S
C2415 N2423 1.427 . S
C2416 H2407 0.930 . S
C2416 C2414 1.378 . S
C2416 C2417 1.367 . S
C2417 C2416 1.367 . S
C2417 C2419 1.433 . S
C2418 C2414 1.350 . S
C2418 C2415 1.463 . S
C2418 N2422 1.427 . S
C2419 H2409 0.929 . S
C2419 C2417 1.433 . S
C2419 N2422 1.384 . S
C2420 H2411 0.929 . S
C2420 C2412 1.378 . S
C2420 C2415 1.350 . S
C2421 H2408 0.929 . S
C2421 C2413 1.433 . S
C2421 N2423 1.384 . S
N2422 C2418 1.427 . S
N2422 C2419 1.384 . S
N2423 C2415 1.427 . S
N2423 C2421 1.384 . S
H2424 C2430 0.930 . S
H2425 C2434 0.930 . S
H2426 C2439 0.929 . S
H2427 C2437 0.929 . S
H2428 C2432 0.929 . S
H2429 C2438 0.929 . S
C2430 H2424 0.930 . S
C2430 C2431 1.367 . S
C2430 C2438 1.378 . S
C2431 C2430 1.367 . S
C2431 C2439 1.433 . S
C2432 H2428 0.929 . S
C2432 C2434 1.378 . S
C2432 C2436 1.350 . S
C2433 C2436 1.463 . S
C2433 C2438 1.350 . S
C2433 N2441 1.427 . S
C2434 H2425 0.930 . S
C2434 C2432 1.378 . S
C2434 C2435 1.367 . S
C2435 C2434 1.367 . S
C2435 C2437 1.433 . S
C2436 C2432 1.350 . S
C2436 C2433 1.463 . S
C2436 N2440 1.427 . S
C2437 H2427 0.929 . S
C2437 C2435 1.433 . S
C2437 N2440 1.384 . S
C2438 H2429 0.929 . S
C2438 C2430 1.378 . S
C2438 C2433 1.350 . S
C2439 H2426 0.929 . S
C2439 C2431 1.433 . S
C2439 N2441 1.384 . S
N2440 C2436 1.427 . S
N2440 C2437 1.384 . S
N2441 C2433 1.427 . S
N2441 C2439 1.384 . S
H2442 C2448 0.930 . S
H2443 C2452 0.930 . S
H2444 C2457 0.929 . S
H2445 C2455 0.929 . S
H2446 C2450 0.929 . S
H2447 C2456 0.929 . S
C2448 H2442 0.930 . S
C2448 C2449 1.367 . S
C2448 C2456 1.378 . S
C2449 C2448 1.367 . S
C2449 C2457 1.433 . S
C2450 H2446 0.929 . S
C2450 C2452 1.378 . S
C2450 C2454 1.350 . S
C2451 C2454 1.463 1_556 S
C2451 C2456 1.350 . S
C2451 N2459 1.427 . S
C2452 H2443 0.930 . S
C2452 C2450 1.378 . S
C2452 C2453 1.367 . S
C2453 C2452 1.367 . S
C2453 C2455 1.433 . S
C2454 C2450 1.350 . S
C2454 C2451 1.463 1_554 S
C2454 N2458 1.427 . S
C2455 H2445 0.929 . S
C2455 C2453 1.433 . S
C2455 N2458 1.384 . S
C2456 H2447 0.929 . S
C2456 C2448 1.378 . S
C2456 C2451 1.350 . S
C2457 H2444 0.929 . S
C2457 C2449 1.433 . S
C2457 N2459 1.384 . S
N2458 C2454 1.427 . S
N2458 C2455 1.384 . S
N2459 C2451 1.427 . S
N2459 C2457 1.384 . S
H2460 C2466 0.930 . S
H2461 C2470 0.930 . S
H2462 C2475 0.929 . S
H2463 C2473 0.929 . S
H2464 C2468 0.929 . S
H2465 C2474 0.929 . S
C2466 H2460 0.930 . S
C2466 C2467 1.367 . S
C2466 C2474 1.378 . S
C2467 C2466 1.367 . S
C2467 C2475 1.433 . S
C2468 H2464 0.929 . S
C2468 C2470 1.378 . S
C2468 C2472 1.350 . S
C2469 C2472 1.463 . S
C2469 C2474 1.350 . S
C2469 N2477 1.427 . S
C2470 H2461 0.930 . S
C2470 C2468 1.378 . S
C2470 C2471 1.367 . S
C2471 C2470 1.367 . S
C2471 C2473 1.433 . S
C2472 C2468 1.350 . S
C2472 C2469 1.463 . S
C2472 N2476 1.427 . S
C2473 H2463 0.929 . S
C2473 C2471 1.433 . S
C2473 N2476 1.384 . S
C2474 H2465 0.929 . S
C2474 C2466 1.378 . S
C2474 C2469 1.350 . S
C2475 H2462 0.929 . S
C2475 C2467 1.433 . S
C2475 N2477 1.384 . S
N2476 C2472 1.427 . S
N2476 C2473 1.384 . S
N2477 C2469 1.427 . S
N2477 C2475 1.384 . S
H2478 C2484 0.930 . S
H2479 C2488 0.930 . S
H2480 C2493 0.929 . S
H2481 C2491 0.929 . S
H2482 C2486 0.929 . S
H2483 C2492 0.929 . S
C2484 H2478 0.930 . S
C2484 C2485 1.367 . S
C2484 C2492 1.378 . S
C2485 C2484 1.367 . S
C2485 C2493 1.433 . S
C2486 H2482 0.929 . S
C2486 C2488 1.378 . S
C2486 C2490 1.350 . S
C2487 C2490 1.463 . S
C2487 C2492 1.350 . S
C2487 N2495 1.427 . S
C2488 H2479 0.930 . S
C2488 C2486 1.378 . S
C2488 C2489 1.367 . S
C2489 C2488 1.367 . S
C2489 C2491 1.433 . S
C2490 C2486 1.350 . S
C2490 C2487 1.463 . S
C2490 N2494 1.427 . S
C2491 H2481 0.929 . S
C2491 C2489 1.433 . S
C2491 N2494 1.384 . S
C2492 H2483 0.929 . S
C2492 C2484 1.378 . S
C2492 C2487 1.350 . S
C2493 H2480 0.929 . S
C2493 C2485 1.433 . S
C2493 N2495 1.384 . S
N2494 C2490 1.427 . S
N2494 C2491 1.384 . S
N2495 C2487 1.427 . S
N2495 C2493 1.384 . S
C1063 C18 1.163 1_565 S
C1067 C945 1.133 . S
C1081 C51 1.158 . S
C1085 C450 1.114 1_545 S
C1099 C84 1.158 1_545 S
C1103 C1011 1.114 . S
C1117 C117 1.164 . S
C1121 C516 1.129 1_465 S
C1135 C813 1.116 . S
C1139 C150 1.160 1_545 S
C1153 C183 1.162 . S
C1157 C318 1.123 1_445 S
C1171 C216 1.162 1_565 S
C1175 C879 1.124 . S
C1189 C384 1.133 1_565 S
C1193 C249 1.164 . S
C1207 C681 1.132 . S
C1211 C282 1.164 1_545 S
C1225 C315 1.162 . S
C1229 C186 1.124 1_565 S
C1243 C348 1.160 1_565 S
C1247 C747 1.123 . S
C1261 C252 1.116 1_645 S
C1265 C381 1.158 . S
C1279 C549 1.115 . S
C1283 C414 1.158 1_565 S
C1297 C54 1.129 1_665 S
C1301 C447 1.162 . S
C1315 C480 1.161 1_545 S
C1319 C615 1.128 . S
C1333 C513 1.159 . S
C1337 C120 1.115 1_545 S
C1351 C546 1.161 . S
C1355 C417 1.119 . S
C1369 C978 1.121 1_655 S
C1373 C579 1.161 . S
C1387 C483 1.131 . S
C1391 C612 1.162 . S
C1405 C1044 1.120 . S
C1409 C645 1.159 . S
C1423 C285 1.132 . S
C1427 C678 1.164 . S
C1441 C711 1.159 . S
C1445 C846 1.121 . S
C1459 C351 1.133 . S
C1463 C744 1.163 . S
C1477 C912 1.121 1_655 S
C1481 C777 1.161 . S
C1495 C153 1.117 . S
C1499 C810 1.158 . S
C1513 C714 1.127 1_455 S
C1517 C843 1.163 . S
C1531 C219 1.117 . S
C1535 C876 1.159 . S
C1549 C780 1.113 . S
C1553 C909 1.158 . S
C1567 C21 1.123 . S
C1571 C942 1.160 . S
C1585 C582 1.116 . S
C1589 C975 1.158 . S
C1603 C1008 1.163 . S
C1607 C87 1.127 . S
C1621 C648 1.133 1_455 S
C1625 C1041 1.163 . S
C1639 C601 0.667 . S
C1643 C7 0.671 . S
C1657 C40 0.675 . S
C1661 C634 0.676 . S
C1675 C535 0.649 . S
C1679 C73 0.656 . S
C1693 C106 0.623 . S
C1697 C568 0.626 . S
C1711 C733 0.664 . S
C1715 C139 0.669 . S
C1729 C766 0.668 . S
C1733 C172 0.672 . S
C1747 C205 0.629 . S
C1751 C667 0.624 . S
C1765 C700 0.620 . S
C1769 C238 0.621 . S
C1783 C271 0.676 . S
C1787 C865 0.676 . S
C1801 C304 0.659 . S
C1805 C898 0.653 . S
C1819 C799 0.670 . S
C1823 C337 0.674 . S
C1837 C832 0.635 . S
C1841 C370 0.630 . S
C1855 C403 0.634 . S
C1859 C997 0.641 . S
C1873 C1030 0.628 . S
C1877 C436 0.633 . S
C1891 C931 0.620 . S
C1895 C469 0.620 . S
C1909 C964 0.625 . S
C1913 C502 0.630 . S
C1927 N2 1.555 . S
C1931 N167 1.558 . S
C1945 N35 1.566 . S
C1949 N200 1.552 . S
C1963 N68 1.561 . S
C1967 N233 1.562 . S
C1981 N101 1.553 . S
C1985 N134 1.566 . S
C1999 N266 1.567 . S
C2003 N431 1.553 . S
C2017 N464 1.552 . S
C2021 N299 1.562 . S
C2035 N497 1.562 . S
C2039 N332 1.561 . S
C2053 N398 1.566 . S
C2057 N365 1.551 . S
C2071 N530 1.565 . S
C2075 N695 1.556 . S
C2089 N563 1.553 . S
C2093 N728 1.567 . S
C2107 N761 1.551 . S
C2111 N596 1.566 . S
C2125 N662 1.562 . S
C2129 N629 1.560 . S
C2143 N794 1.561 . S
C2147 N959 1.552 . S
C2161 N992 1.563 . S
C2165 N827 1.552 . S
C2179 N1025 1.558 . S
C2183 N860 1.564 . S
C2197 N893 1.564 . S
C2201 N926 1.551 . S
C2215 N145 1.676 . S
C2219 N13 1.680 . S
C2233 N46 1.682 . S
C2237 N178 1.674 . S
C2251 N79 1.676 . S
C2255 N211 1.681 . S
C2269 N112 1.682 . S
C2273 N244 1.675 . S
C2287 N409 1.681 . S
C2291 N277 1.675 . S
C2305 N310 1.677 . S
C2309 N442 1.680 . S
C2323 N475 1.678 . S
C2327 N343 1.680 . S
C2341 N376 1.681 . S
C2345 N508 1.675 . S
C2359 N541 1.674 . S
C2363 N673 1.682 . S
C2377 N706 1.679 . S
C2381 N574 1.678 . S
C2395 N739 1.680 . S
C2399 N607 1.675 . S
C2413 N772 1.682 . S
C2417 N640 1.675 . S
C2431 N805 1.675 . S
C2435 N937 1.681 . S
C2449 N838 1.675 . S
C2453 N970 1.682 . S
C2467 N871 1.675 . S
C2471 N1003 1.681 . S
C2485 N904 1.681 . S
C2489 N1036 1.675 . S
