# Generated by pormake.
# Topology uka, (4)-cn, num edge types: 1
# Building blocks:
#     Node 0, Type 0, BuildingBlock: CEKHIL_clean_sbu_0, # of connection points: 4
#     Node 1, Type 0, BuildingBlock: CEKHIL_clean_sbu_0, # of connection points: 4
#     Node 2, Type 0, BuildingBlock: CEKHIL_clean_sbu_0, # of connection points: 4
#     Node 3, Type 0, BuildingBlock: CEKHIL_clean_sbu_0, # of connection points: 4
#     Node 4, Type 0, BuildingBlock: CEKHIL_clean_sbu_0, # of connection points: 4
#     Node 5, Type 0, BuildingBlock: CEKHIL_clean_sbu_0, # of connection points: 4
#     Node 6, Type 0, BuildingBlock: CEKHIL_clean_sbu_0, # of connection points: 4
#     Node 7, Type 0, BuildingBlock: CEKHIL_clean_sbu_0, # of connection points: 4
#     Node 8, Type 0, BuildingBlock: CEKHIL_clean_sbu_0, # of connection points: 4
#     Node 9, Type 0, BuildingBlock: CEKHIL_clean_sbu_0, # of connection points: 4
#     Node 10, Type 0, BuildingBlock: CEKHIL_clean_sbu_0, # of connection points: 4
#     Node 11, Type 0, BuildingBlock: CEKHIL_clean_sbu_0, # of connection points: 4
#     Node 12, Type 0, BuildingBlock: CEKHIL_clean_sbu_0, # of connection points: 4
#     Node 13, Type 0, BuildingBlock: CEKHIL_clean_sbu_0, # of connection points: 4
#     Node 14, Type 0, BuildingBlock: CEKHIL_clean_sbu_0, # of connection points: 4
#     Node 15, Type 0, BuildingBlock: CEKHIL_clean_sbu_0, # of connection points: 4
#     Node 16, Type 0, BuildingBlock: CEKHIL_clean_sbu_0, # of connection points: 4
#     Node 17, Type 0, BuildingBlock: CEKHIL_clean_sbu_0, # of connection points: 4
#     Node 18, Type 0, BuildingBlock: CEKHIL_clean_sbu_0, # of connection points: 4
#     Node 19, Type 0, BuildingBlock: CEKHIL_clean_sbu_0, # of connection points: 4
#     Node 20, Type 0, BuildingBlock: CEKHIL_clean_sbu_0, # of connection points: 4
#     Node 21, Type 0, BuildingBlock: CEKHIL_clean_sbu_0, # of connection points: 4
#     Node 22, Type 0, BuildingBlock: CEKHIL_clean_sbu_0, # of connection points: 4
#     Node 23, Type 0, BuildingBlock: CEKHIL_clean_sbu_0, # of connection points: 4
#     Node 24, Type 0, BuildingBlock: CEKHIL_clean_sbu_0, # of connection points: 4
#     Node 25, Type 0, BuildingBlock: CEKHIL_clean_sbu_0, # of connection points: 4
#     Node 26, Type 0, BuildingBlock: CEKHIL_clean_sbu_0, # of connection points: 4
#     Node 27, Type 0, BuildingBlock: CEKHIL_clean_sbu_0, # of connection points: 4
#     Node 28, Type 0, BuildingBlock: CEKHIL_clean_sbu_0, # of connection points: 4
#     Node 29, Type 0, BuildingBlock: CEKHIL_clean_sbu_0, # of connection points: 4
#     Node 30, Type 0, BuildingBlock: CEKHIL_clean_sbu_0, # of connection points: 4
#     Node 31, Type 0, BuildingBlock: CEKHIL_clean_sbu_0, # of connection points: 4
#     Edge 32, Type (0, 0), BuildingBlock: ZUJKAS_clean_linker_0, # of connection points: 2
#     Edge 33, Type (0, 0), BuildingBlock: ZUJKAS_clean_linker_0, # of connection points: 2
#     Edge 34, Type (0, 0), BuildingBlock: ZUJKAS_clean_linker_0, # of connection points: 2
#     Edge 35, Type (0, 0), BuildingBlock: ZUJKAS_clean_linker_0, # of connection points: 2
#     Edge 36, Type (0, 0), BuildingBlock: ZUJKAS_clean_linker_0, # of connection points: 2
#     Edge 37, Type (0, 0), BuildingBlock: ZUJKAS_clean_linker_0, # of connection points: 2
#     Edge 38, Type (0, 0), BuildingBlock: ZUJKAS_clean_linker_0, # of connection points: 2
#     Edge 39, Type (0, 0), BuildingBlock: ZUJKAS_clean_linker_0, # of connection points: 2
#     Edge 40, Type (0, 0), BuildingBlock: ZUJKAS_clean_linker_0, # of connection points: 2
#     Edge 41, Type (0, 0), BuildingBlock: ZUJKAS_clean_linker_0, # of connection points: 2
#     Edge 42, Type (0, 0), BuildingBlock: ZUJKAS_clean_linker_0, # of connection points: 2
#     Edge 43, Type (0, 0), BuildingBlock: ZUJKAS_clean_linker_0, # of connection points: 2
#     Edge 44, Type (0, 0), BuildingBlock: ZUJKAS_clean_linker_0, # of connection points: 2
#     Edge 45, Type (0, 0), BuildingBlock: ZUJKAS_clean_linker_0, # of connection points: 2
#     Edge 46, Type (0, 0), BuildingBlock: ZUJKAS_clean_linker_0, # of connection points: 2
#     Edge 47, Type (0, 0), BuildingBlock: ZUJKAS_clean_linker_0, # of connection points: 2
#     Edge 48, Type (0, 0), BuildingBlock: ZUJKAS_clean_linker_0, # of connection points: 2
#     Edge 49, Type (0, 0), BuildingBlock: ZUJKAS_clean_linker_0, # of connection points: 2
#     Edge 50, Type (0, 0), BuildingBlock: ZUJKAS_clean_linker_0, # of connection points: 2
#     Edge 51, Type (0, 0), BuildingBlock: ZUJKAS_clean_linker_0, # of connection points: 2
#     Edge 52, Type (0, 0), BuildingBlock: ZUJKAS_clean_linker_0, # of connection points: 2
#     Edge 53, Type (0, 0), BuildingBlock: ZUJKAS_clean_linker_0, # of connection points: 2
#     Edge 54, Type (0, 0), BuildingBlock: ZUJKAS_clean_linker_0, # of connection points: 2
#     Edge 55, Type (0, 0), BuildingBlock: ZUJKAS_clean_linker_0, # of connection points: 2
#     Edge 56, Type (0, 0), BuildingBlock: ZUJKAS_clean_linker_0, # of connection points: 2
#     Edge 57, Type (0, 0), BuildingBlock: ZUJKAS_clean_linker_0, # of connection points: 2
#     Edge 58, Type (0, 0), BuildingBlock: ZUJKAS_clean_linker_0, # of connection points: 2
#     Edge 59, Type (0, 0), BuildingBlock: ZUJKAS_clean_linker_0, # of connection points: 2
#     Edge 60, Type (0, 0), BuildingBlock: ZUJKAS_clean_linker_0, # of connection points: 2
#     Edge 61, Type (0, 0), BuildingBlock: ZUJKAS_clean_linker_0, # of connection points: 2
#     Edge 62, Type (0, 0), BuildingBlock: ZUJKAS_clean_linker_0, # of connection points: 2
#     Edge 63, Type (0, 0), BuildingBlock: ZUJKAS_clean_linker_0, # of connection points: 2
#     Edge 64, Type (0, 0), BuildingBlock: ZUJKAS_clean_linker_0, # of connection points: 2
#     Edge 65, Type (0, 0), BuildingBlock: ZUJKAS_clean_linker_0, # of connection points: 2
#     Edge 66, Type (0, 0), BuildingBlock: ZUJKAS_clean_linker_0, # of connection points: 2
#     Edge 67, Type (0, 0), BuildingBlock: ZUJKAS_clean_linker_0, # of connection points: 2
#     Edge 68, Type (0, 0), BuildingBlock: ZUJKAS_clean_linker_0, # of connection points: 2
#     Edge 69, Type (0, 0), BuildingBlock: ZUJKAS_clean_linker_0, # of connection points: 2
#     Edge 70, Type (0, 0), BuildingBlock: ZUJKAS_clean_linker_0, # of connection points: 2
#     Edge 71, Type (0, 0), BuildingBlock: ZUJKAS_clean_linker_0, # of connection points: 2
#     Edge 72, Type (0, 0), BuildingBlock: ZUJKAS_clean_linker_0, # of connection points: 2
#     Edge 73, Type (0, 0), BuildingBlock: ZUJKAS_clean_linker_0, # of connection points: 2
#     Edge 74, Type (0, 0), BuildingBlock: ZUJKAS_clean_linker_0, # of connection points: 2
#     Edge 75, Type (0, 0), BuildingBlock: ZUJKAS_clean_linker_0, # of connection points: 2
#     Edge 76, Type (0, 0), BuildingBlock: ZUJKAS_clean_linker_0, # of connection points: 2
#     Edge 77, Type (0, 0), BuildingBlock: ZUJKAS_clean_linker_0, # of connection points: 2
#     Edge 78, Type (0, 0), BuildingBlock: ZUJKAS_clean_linker_0, # of connection points: 2
#     Edge 79, Type (0, 0), BuildingBlock: ZUJKAS_clean_linker_0, # of connection points: 2
#     Edge 80, Type (0, 0), BuildingBlock: ZUJKAS_clean_linker_0, # of connection points: 2
#     Edge 81, Type (0, 0), BuildingBlock: ZUJKAS_clean_linker_0, # of connection points: 2
#     Edge 82, Type (0, 0), BuildingBlock: ZUJKAS_clean_linker_0, # of connection points: 2
#     Edge 83, Type (0, 0), BuildingBlock: ZUJKAS_clean_linker_0, # of connection points: 2
#     Edge 84, Type (0, 0), BuildingBlock: ZUJKAS_clean_linker_0, # of connection points: 2
#     Edge 85, Type (0, 0), BuildingBlock: ZUJKAS_clean_linker_0, # of connection points: 2
#     Edge 86, Type (0, 0), BuildingBlock: ZUJKAS_clean_linker_0, # of connection points: 2
#     Edge 87, Type (0, 0), BuildingBlock: ZUJKAS_clean_linker_0, # of connection points: 2
#     Edge 88, Type (0, 0), BuildingBlock: ZUJKAS_clean_linker_0, # of connection points: 2
#     Edge 89, Type (0, 0), BuildingBlock: ZUJKAS_clean_linker_0, # of connection points: 2
#     Edge 90, Type (0, 0), BuildingBlock: ZUJKAS_clean_linker_0, # of connection points: 2
#     Edge 91, Type (0, 0), BuildingBlock: ZUJKAS_clean_linker_0, # of connection points: 2
#     Edge 92, Type (0, 0), BuildingBlock: ZUJKAS_clean_linker_0, # of connection points: 2
#     Edge 93, Type (0, 0), BuildingBlock: ZUJKAS_clean_linker_0, # of connection points: 2
#     Edge 94, Type (0, 0), BuildingBlock: ZUJKAS_clean_linker_0, # of connection points: 2
#     Edge 95, Type (0, 0), BuildingBlock: ZUJKAS_clean_linker_0, # of connection points: 2
# Relax obj value: 0.116
# Max RMSD: 0.170
# Mean RMSD: 0.170
data_MOF--net-uka--node1-CEKHIL_clean_sbu_0--edge1-ZUJKAS_clean_linker_0
_symmetry_space_group_name_H-M    P1
_symmetry_Int_Tables_number       1
_symmetry_cell_setting            triclinic
loop_
_symmetry_equiv_pos_as_xyz
'x, y, z'
_cell_length_a     76.30126
_cell_length_b     76.326823
_cell_length_c     53.917144
_cell_angle_alpha  90.004767
_cell_angle_beta   89.989056
_cell_angle_gamma 90.012495
loop_
_atom_site_label
_atom_site_type_symbol
_atom_site_fract_x
_atom_site_fract_y
_atom_site_fract_z
_atom_type_partial_charge
Co0 Co 0.13024 0.25501 0.24979 0.0
O1 O 0.15021 0.24709 0.23125 0.0
O2 O 0.15023 0.26924 0.25788 0.0
C3 C 0.12138 0.22844 0.26283 0.0
O4 O 0.11281 0.26638 0.2733 0.0
Co5 Co 0.09236 0.24426 0.23529 0.0
O6 O 0.08576 0.25554 0.26712 0.0
C7 C 0.11114 0.27086 0.20582 0.0
C8 C 0.15899 0.25907 0.24303 0.0
C9 C 0.09653 0.26504 0.2792 0.0
O10 O 0.12337 0.27146 0.22221 0.0
O11 O 0.09859 0.25972 0.20648 0.0
O12 O 0.13408 0.23654 0.27398 0.0
O13 O 0.11568 0.23576 0.24275 0.0
Co14 Co 0.98955 0.88166 0.50624 0.0
O15 O 0.99794 0.90091 0.48661 0.0
O16 O 0.97532 0.90197 0.51242 0.0
C17 C 0.01574 0.87299 0.52103 0.0
O18 O 0.97773 0.86523 0.53067 0.0
Co19 Co 0.00031 0.84323 0.49504 0.0
O20 O 0.98938 0.83827 0.52772 0.0
C21 C 0.97427 0.86091 0.46329 0.0
C22 C 0.98585 0.91016 0.49743 0.0
C23 C 0.97952 0.84942 0.53847 0.0
O24 O 0.97351 0.87382 0.4786 0.0
O25 O 0.98528 0.84833 0.46536 0.0
O26 O 0.00761 0.88622 0.53085 0.0
O27 O 0.00879 0.86677 0.501 0.0
Co28 Co 0.36864 0.73606 0.75333 0.0
O29 O 0.34973 0.74433 0.73299 0.0
O30 O 0.34791 0.72257 0.76013 0.0
C31 C 0.37801 0.76236 0.76665 0.0
O32 O 0.38474 0.72466 0.77864 0.0
Co33 Co 0.40735 0.74554 0.7415 0.0
O34 O 0.41183 0.736 0.77518 0.0
C35 C 0.38884 0.71933 0.71105 0.0
C36 C 0.34011 0.73278 0.74431 0.0
C37 C 0.40051 0.7267 0.78656 0.0
O38 O 0.37611 0.71906 0.72668 0.0
O39 O 0.40164 0.73014 0.71244 0.0
O40 O 0.36448 0.75494 0.77681 0.0
O41 O 0.38403 0.7547 0.74703 0.0
Co42 Co 0.51209 0.11758 0.00595 0.0
O43 O 0.50239 0.10142 0.98232 0.0
O44 O 0.52475 0.09583 0.00737 0.0
C45 C 0.48632 0.12625 0.0223 0.0
O46 O 0.52514 0.13025 0.03349 0.0
Co47 Co 0.50383 0.15742 0.00474 0.0
O48 O 0.51309 0.1568 0.03913 0.0
C49 C 0.53026 0.1425 0.97024 0.0
C50 C 0.51369 0.0902 0.99084 0.0
C51 C 0.52319 0.14444 0.04605 0.0
O52 O 0.52878 0.12729 0.98036 0.0
O53 O 0.52073 0.15564 0.97635 0.0
O54 O 0.49355 0.11169 0.0294 0.0
O55 O 0.49397 0.13413 0.00407 0.0
Co56 Co 0.13228 0.73834 0.24008 0.0
O57 O 0.15153 0.74431 0.26143 0.0
O58 O 0.15173 0.72302 0.23343 0.0
C59 C 0.12582 0.76576 0.22771 0.0
O60 O 0.11563 0.72892 0.21376 0.0
Co61 Co 0.09437 0.7513 0.25004 0.0
O62 O 0.09054 0.74427 0.21505 0.0
C63 C 0.1084 0.72113 0.27824 0.0
C64 C 0.16019 0.73211 0.24994 0.0
C65 C 0.10077 0.73342 0.20444 0.0
O66 O 0.12268 0.72154 0.26556 0.0
O67 O 0.09609 0.7324 0.27574 0.0
O68 O 0.13873 0.75723 0.21768 0.0
O69 O 0.11863 0.75827 0.24667 0.0
Co70 Co 0.50846 0.87899 0.4854 0.0
O71 O 0.50138 0.89799 0.50644 0.0
O72 O 0.52343 0.89885 0.47964 0.0
C73 C 0.48144 0.87212 0.4719 0.0
O74 O 0.51914 0.86271 0.45969 0.0
Co75 Co 0.49609 0.84077 0.49401 0.0
O76 O 0.50535 0.83674 0.46012 0.0
C77 C 0.52502 0.85544 0.52431 0.0
C78 C 0.51365 0.90701 0.49564 0.0
C79 C 0.51609 0.8475 0.45036 0.0
O80 O 0.5247 0.86978 0.51178 0.0
O81 O 0.5141 0.84291 0.52095 0.0
O82 O 0.49009 0.88496 0.46192 0.0
O83 O 0.48866 0.86492 0.49105 0.0
Co84 Co 0.36808 0.25613 0.74053 0.0
O85 O 0.34948 0.24735 0.76107 0.0
O86 O 0.34752 0.27028 0.73593 0.0
C87 C 0.37656 0.23019 0.72478 0.0
O88 O 0.38377 0.26845 0.71553 0.0
Co89 Co 0.4069 0.24566 0.74941 0.0
O90 O 0.41104 0.25735 0.71712 0.0
C91 C 0.39014 0.27191 0.78193 0.0
C92 C 0.33989 0.25962 0.75132 0.0
C93 C 0.39951 0.26718 0.70719 0.0
O94 O 0.37641 0.2719 0.7681 0.0
O95 O 0.40305 0.26145 0.77861 0.0
O96 O 0.36302 0.23831 0.7158 0.0
O97 O 0.38329 0.237 0.74458 0.0
Co98 Co 0.98703 0.11498 0.98679 0.0
O99 O 0.99472 0.09703 0.00921 0.0
O100 O 0.9723 0.0947 0.98321 0.0
C101 C 0.01362 0.12187 0.97159 0.0
O102 O 0.97579 0.13009 0.96006 0.0
Co103 Co -0.00114 0.15368 0.99257 0.0
O104 O 0.99007 0.15579 0.9581 0.0
C105 C 0.97058 0.13969 0.02451 0.0
C106 C 0.98241 0.0874 -0.00036 0.0
C107 C 0.9792 0.14475 0.9493 0.0
O108 O 0.97098 0.125 0.01283 0.0
O109 O 0.98125 0.15227 0.02013 0.0
O110 O 0.0052 0.10829 0.96334 0.0
O111 O 0.00662 0.1296 0.9905 0.0
Co112 Co 0.86761 0.74127 0.7371 0.0
O113 O 0.84853 0.75009 0.75658 0.0
O114 O 0.84724 0.72684 0.73195 0.0
C115 C 0.87611 0.76707 0.72096 0.0
O116 O 0.88411 0.72888 0.71333 0.0
Co117 Co 0.90595 0.75265 0.74778 0.0
O118 O 0.91058 0.74174 0.71498 0.0
C119 C 0.88873 0.72663 0.78017 0.0
C120 C 0.83923 0.73764 0.74677 0.0
C121 C 0.89976 0.73112 0.70503 0.0
O122 O 0.87555 0.72595 0.76535 0.0
O123 O 0.90142 0.73748 0.77755 0.0
O124 O 0.86292 0.75862 0.71156 0.0
O125 O 0.88235 0.76071 0.74136 0.0
Co126 Co 0.01362 0.1191 0.48512 0.0
O127 O 0.00684 0.10329 0.51116 0.0
O128 O 0.02716 0.09795 0.48275 0.0
C129 C 0.98626 0.12611 0.47307 0.0
O130 O 0.02358 0.1314 0.45473 0.0
Co131 Co 0.00397 0.15856 0.4856 0.0
O132 O 0.01047 0.15751 0.45004 0.0
C133 C 0.03355 0.1457 0.51622 0.0
C134 C 0.01798 0.09239 0.50148 0.0
C135 C 0.02023 0.14524 0.44195 0.0
O136 O 0.03182 0.1302 0.50716 0.0
O137 O 0.02319 0.15838 0.51099 0.0
O138 O 0.99351 0.11166 0.46556 0.0
O139 O 0.99507 0.13497 0.48926 0.0
Co140 Co 0.6303 0.26135 0.23521 0.0
O141 O 0.64714 0.25267 0.25866 0.0
O142 O 0.65122 0.27527 0.23344 0.0
C143 C 0.62308 0.23503 0.21938 0.0
O144 O 0.61681 0.27364 0.20775 0.0
Co145 Co 0.59097 0.25116 0.2367 0.0
O146 O 0.59073 0.26057 0.20242 0.0
C147 C 0.60481 0.27789 0.27153 0.0
C148 C 0.65759 0.26464 0.24997 0.0
C149 C 0.60262 0.27118 0.19538 0.0
O150 O 0.61992 0.2774 0.26096 0.0
O151 O 0.5921 0.26776 0.2655 0.0
O152 O 0.63712 0.24306 0.21191 0.0
O153 O 0.61473 0.24239 0.23744 0.0
Co154 Co 0.48379 0.88141 0.98355 0.0
O155 O 0.48922 0.90018 0.006 0.0
O156 O 0.46825 0.90079 0.97754 0.0
C157 C 0.51154 0.87588 0.97165 0.0
O158 O 0.47491 0.86532 0.95619 0.0
Co159 Co 0.49729 0.84351 0.99166 0.0
O160 O 0.49073 0.84051 0.95634 0.0
C161 C 0.46675 0.85636 0.02028 0.0
C162 C 0.47706 0.90897 0.99462 0.0
C163 C 0.47977 0.85082 0.94613 0.0
O164 O 0.46693 0.8709 0.0082 0.0
O165 O 0.47827 0.84433 0.01732 0.0
O166 O 0.50283 0.88877 0.96196 0.0
O167 O 0.50391 0.86795 0.98991 0.0
Co168 Co 0.87032 0.26111 0.75776 0.0
O169 O 0.85363 0.2539 0.7331 0.0
O170 O 0.84959 0.27528 0.76037 0.0
C171 C 0.87711 0.23411 0.77152 0.0
O172 O 0.88376 0.27167 0.78674 0.0
Co173 Co 0.9095 0.25031 0.75548 0.0
O174 O 0.90965 0.25798 0.79063 0.0
C175 C 0.89644 0.27908 0.72354 0.0
C176 C 0.8433 0.26568 0.74255 0.0
C177 C 0.89787 0.26827 0.79889 0.0
O178 O 0.88126 0.27826 0.73388 0.0
O179 O 0.90892 0.26842 0.72854 0.0
O180 O 0.863 0.24192 0.77919 0.0
O181 O 0.88557 0.24204 0.75405 0.0
Co182 Co 0.49186 0.1189 0.50641 0.0
O183 O 0.50072 0.10131 0.4843 0.0
O184 O 0.47775 0.0981 0.50911 0.0
C185 C 0.51771 0.12666 0.52307 0.0
O186 O 0.47949 0.13357 0.53261 0.0
Co187 Co 0.50258 0.15795 0.50104 0.0
O188 O 0.49291 0.15971 0.53508 0.0
C189 C 0.4755 0.14308 0.4679 0.0
C190 C 0.48849 0.09124 0.49309 0.0
C191 C 0.48222 0.14833 0.54348 0.0
O192 O 0.47615 0.12842 0.47962 0.0
O193 O 0.48564 0.15602 0.47271 0.0
O194 O 0.50955 0.11279 0.53085 0.0
O195 O 0.51106 0.13415 0.50373 0.0
Co196 Co 0.62636 0.73402 0.25795 0.0
O197 O 0.64248 0.74079 0.23224 0.0
O198 O 0.64777 0.72103 0.26144 0.0
C199 C 0.61836 0.76124 0.26942 0.0
O200 O 0.6138 0.72437 0.28834 0.0
Co201 Co 0.58664 0.74273 0.2553 0.0
O202 O 0.58688 0.73614 0.29083 0.0
C203 C 0.60075 0.71287 0.22656 0.0
C204 C 0.65347 0.73007 0.24266 0.0
C205 C 0.59939 0.72723 0.30007 0.0
O206 O 0.61604 0.71514 0.23613 0.0
O207 O 0.58777 0.72309 0.23074 0.0
O208 O 0.63299 0.75453 0.27722 0.0
O209 O 0.61012 0.75215 0.25288 0.0
Co210 Co 0.00853 0.87644 0.01221 0.0
O211 O -0.00045 0.89434 0.9907 0.0
O212 O 0.0228 0.8971 0.0151 0.0
C213 C 0.9828 0.8686 0.02926 0.0
O214 O 0.02109 0.86147 0.03787 0.0
Co215 Co 0.99768 0.83745 0.00645 0.0
O216 O 0.00749 0.83543 0.0404 0.0
C217 C 0.0239 0.85275 0.97232 0.0
C218 C 0.01192 0.90424 -0.00046 0.0
C219 C 0.01828 0.84673 0.04873 0.0
O220 O 0.02388 0.86711 0.98481 0.0
O221 O 0.01362 0.83991 0.97706 0.0
O222 O 0.99107 0.8824 0.03709 0.0
O223 O 0.98928 0.86126 0.00968 0.0
Co224 Co 0.62751 0.76235 0.7588 0.0
O225 O 0.64493 0.75309 0.73674 0.0
O226 O 0.64839 0.7764 0.76083 0.0
C227 C 0.61978 0.7368 0.77634 0.0
O228 O 0.61305 0.77517 0.78479 0.0
Co229 Co 0.58837 0.75171 0.75432 0.0
O230 O 0.58678 0.76206 0.78798 0.0
C231 C 0.60308 0.77831 0.72026 0.0
C232 C 0.65512 0.76537 0.7451 0.0
C233 C 0.59829 0.7728 0.79587 0.0
O234 O 0.61786 0.77772 0.73169 0.0
O235 O 0.59014 0.7683 0.72556 0.0
O236 O 0.63374 0.74503 0.78365 0.0
O237 O 0.61216 0.74318 0.75691 0.0
Co238 Co 0.48369 0.37961 0.00929 0.0
O239 O 0.4922 0.39463 0.98332 0.0
O240 O 0.47115 0.40141 0.01004 0.0
C241 C 0.5102 0.37142 0.02346 0.0
O242 O 0.47199 0.36831 0.03916 0.0
Co243 Co 0.49132 0.33971 0.01055 0.0
O244 O 0.48347 0.34161 0.04549 0.0
C245 C 0.46379 0.35364 0.97719 0.0
C246 C 0.48121 0.40618 0.99178 0.0
C247 C 0.47406 0.35448 0.05247 0.0
O248 O 0.46577 0.3691 0.98626 0.0
O249 O 0.47341 0.34059 0.98335 0.0
O250 O 0.50347 0.38633 0.0301 0.0
O251 O 0.5015 0.36278 0.00694 0.0
Co252 Co 0.86735 0.23356 0.25885 0.0
O253 O 0.85002 0.242 0.23598 0.0
O254 O 0.84656 0.2195 0.26155 0.0
C255 C 0.87478 0.25984 0.27453 0.0
O256 O 0.88148 0.22159 0.28594 0.0
Co257 Co 0.90654 0.24402 0.25508 0.0
O258 O 0.90775 0.23463 0.28932 0.0
C259 C 0.89224 0.2166 0.2219 0.0
C260 C 0.83982 0.23 0.24516 0.0
C261 C 0.89606 0.22415 0.29737 0.0
O262 O 0.87731 0.21738 0.23293 0.0
O263 O 0.90509 0.22677 0.22708 0.0
O264 O 0.86084 0.25179 0.2823 0.0
O265 O 0.88271 0.25265 0.25594 0.0
Co266 Co 0.01213 0.6188 0.50886 0.0
O267 O 0.00294 0.60142 0.48659 0.0
O268 O 0.02552 0.59759 0.51191 0.0
C269 C 0.98623 0.62735 0.52474 0.0
O270 O 0.02479 0.63297 0.53531 0.0
Co271 Co 0.00288 0.65824 0.5038 0.0
O272 O 0.01294 0.65985 0.5376 0.0
C273 C 0.02976 0.64256 0.47097 0.0
C274 C 0.01472 0.59099 0.49577 0.0
C275 C 0.02302 0.64794 0.54599 0.0
O276 O 0.02848 0.62783 0.48242 0.0
O277 O 0.02002 0.6558 0.4758 0.0
O278 O 0.99387 0.61326 0.53278 0.0
O279 O 0.99351 0.63474 0.50578 0.0
Co280 Co 0.63025 0.24092 0.74052 0.0
O281 O 0.64968 0.25132 0.75775 0.0
O282 O 0.65117 0.22773 0.73378 0.0
C283 C 0.6192 0.26573 0.72435 0.0
O284 O 0.61365 0.22712 0.71856 0.0
Co285 Co 0.59173 0.24965 0.75444 0.0
O286 O 0.5862 0.23736 0.72293 0.0
C287 C 0.61251 0.22627 0.78649 0.0
C288 C 0.65923 0.23931 0.74728 0.0
C289 C 0.59747 0.22778 0.71194 0.0
O290 O 0.6247 0.22564 0.77003 0.0
O291 O 0.59915 0.23634 0.78477 0.0
O292 O 0.63257 0.25809 0.71413 0.0
O293 O 0.61433 0.25935 0.74549 0.0
Co294 Co 0.00468 0.38021 0.99474 0.0
O295 O 0.99682 0.39981 0.01411 0.0
O296 O 0.01904 0.40029 0.98757 0.0
C297 C 0.97817 0.37159 0.98112 0.0
O298 O 0.01597 0.36319 0.97057 0.0
Co299 Co 0.99377 0.34217 0.0081 0.0
O300 O 0.0048 0.33617 0.97585 0.0
C301 C 0.02058 0.36022 0.03799 0.0
C302 C 0.00895 0.40875 0.00287 0.0
C303 C 0.01437 0.34705 0.96407 0.0
O304 O 0.02109 0.37275 0.02207 0.0
O305 O 0.00943 0.3477 0.03698 0.0
O306 O 0.98628 0.38458 0.97063 0.0
O307 O 0.98537 0.36559 0.00111 0.0
Co308 Co 0.86442 0.75716 0.24492 0.0
O309 O 0.84438 0.74855 0.26265 0.0
O310 O 0.84473 0.77242 0.23919 0.0
C311 C 0.87253 0.73155 0.2277 0.0
O312 O 0.88211 0.76948 0.22282 0.0
Co313 Co 0.90194 0.74413 0.2574 0.0
O314 O 0.90775 0.75506 0.22498 0.0
C315 C 0.88483 0.77018 0.28985 0.0
C316 C 0.83582 0.76147 0.2527 0.0
C317 C 0.89774 0.76643 0.215 0.0
O318 O 0.87202 0.77149 0.27444 0.0
O319 O 0.89725 0.75903 0.28741 0.0
O320 O 0.85987 0.74071 0.21822 0.0
O321 O 0.87835 0.73703 0.24887 0.0
Co322 Co 0.49385 0.61814 0.49155 0.0
O323 O 0.50238 0.59788 0.50883 0.0
O324 O 0.47969 0.59814 0.48311 0.0
C325 C 0.52004 0.62759 0.47791 0.0
O326 O 0.48182 0.63598 0.4694 0.0
Co327 Co 0.50456 0.65573 0.50714 0.0
O328 O 0.49417 0.66243 0.4747 0.0
C329 C 0.47837 0.63625 0.53665 0.0
C330 C 0.49023 0.58922 0.49725 0.0
C331 C 0.48393 0.6521 0.46308 0.0
O332 O 0.47792 0.62413 0.5201 0.0
O333 O 0.48915 0.64911 0.53591 0.0
O334 O 0.51178 0.61517 0.46635 0.0
O335 O 0.51313 0.63263 0.49862 0.0
Co336 Co 0.37015 0.23887 0.2389 0.0
O337 O 0.35268 0.24566 0.26269 0.0
O338 O 0.34966 0.22446 0.23488 0.0
C339 C 0.37679 0.26619 0.22629 0.0
O340 O 0.38466 0.22859 0.21072 0.0
Co341 Co 0.40906 0.2502 0.24382 0.0
O342 O 0.41078 0.2421 0.20899 0.0
C343 C 0.39547 0.22077 0.27408 0.0
C344 C 0.34277 0.23384 0.2525 0.0
C345 C 0.39937 0.23173 0.19992 0.0
O346 O 0.38054 0.22168 0.26309 0.0
O347 O 0.40802 0.23155 0.27001 0.0
O348 O 0.36315 0.25816 0.21747 0.0
O349 O 0.38501 0.25816 0.24389 0.0
Co350 Co 0.50743 0.61767 0.99025 0.0
O351 O 0.49746 0.59743 0.0059 0.0
O352 O 0.52183 0.59756 0.98345 0.0
C353 C 0.48262 0.6278 0.97297 0.0
O354 O 0.52107 0.63544 0.97002 0.0
Co355 Co 0.49632 0.65527 0.00547 0.0
O356 O 0.50956 0.6623 0.97538 0.0
C357 C 0.52003 0.63503 0.03778 0.0
C358 C 0.51022 0.58868 0.99584 0.0
C359 C 0.51995 0.65177 0.9644 0.0
O360 O 0.52145 0.62318 0.02095 0.0
O361 O 0.50949 0.64803 0.03603 0.0
O362 O 0.49133 0.61515 0.96264 0.0
O363 O 0.488 0.63251 0.99473 0.0
Co364 Co 0.13035 0.76068 0.73821 0.0
O365 O 0.14794 0.75375 0.76172 0.0
O366 O 0.15055 0.77558 0.73483 0.0
C367 C 0.12431 0.73355 0.72422 0.0
O368 O 0.11568 0.77111 0.71033 0.0
Co369 Co 0.09172 0.74834 0.74263 0.0
O370 O 0.09015 0.75658 0.70785 0.0
C371 C 0.10469 0.77718 0.77449 0.0
C372 C 0.15765 0.76591 0.75195 0.0
C373 C 0.10125 0.76741 0.69912 0.0
O374 O 0.11953 0.77709 0.76316 0.0
O375 O 0.09247 0.7661 0.77002 0.0
O376 O 0.13783 0.74206 0.71594 0.0
O377 O 0.11595 0.74095 0.74225 0.0
Co378 Co 0.9906 0.37871 0.48485 0.0
O379 O 0.00041 0.39768 0.50364 0.0
O380 O 0.9758 0.39902 0.4818 0.0
C381 C 0.01536 0.37042 0.46552 0.0
O382 O 0.97696 0.36237 0.46219 0.0
Co383 Co 0.00268 0.34032 0.49333 0.0
O384 O 0.99059 0.33628 0.46126 0.0
C385 C 0.97796 0.35676 0.52856 0.0
C386 C 0.98734 0.40696 0.49553 0.0
C387 C 0.97922 0.34701 0.45291 0.0
O388 O 0.97697 0.37043 0.51467 0.0
O389 O 0.98837 0.34397 0.52411 0.0
O390 O 0.00642 0.38372 0.45747 0.0
O391 O 0.01026 0.36401 0.48652 0.0
Co392 Co 0.37192 0.7593 0.25717 0.0
O393 O 0.35494 0.74901 0.2352 0.0
O394 O 0.3501 0.77166 0.26003 0.0
C395 C 0.3819 0.73422 0.27397 0.0
O396 O 0.38542 0.77281 0.28348 0.0
Co397 Co 0.41179 0.75213 0.25169 0.0
O398 O 0.41302 0.76265 0.28523 0.0
C399 C 0.39458 0.77756 0.21834 0.0
C400 C 0.34397 0.76036 0.24424 0.0
C401 C 0.40054 0.77188 0.29394 0.0
O402 O 0.38008 0.7758 0.23027 0.0
O403 O 0.4083 0.7685 0.22308 0.0
O404 O 0.36732 0.74114 0.28155 0.0
O405 O 0.38884 0.74149 0.25462 0.0
Co406 Co 0.98743 0.62205 0.00637 0.0
O407 O 0.99736 0.60365 0.98656 0.0
O408 O 0.97422 0.60085 0.01117 0.0
C409 C 0.01263 0.63209 0.02261 0.0
O410 O 0.97414 0.63757 0.03059 0.0
Co411 Co 0.9963 0.66108 0.99582 0.0
O412 O 0.98419 0.66522 0.02788 0.0
C413 C 0.97252 0.64192 0.96245 0.0
C414 C 0.9854 0.5936 0.99613 0.0
C415 C 0.97483 0.65351 0.03833 0.0
O416 O 0.97172 0.62921 0.97806 0.0
O417 O 0.98288 0.655 0.96499 0.0
O418 O 0.00511 0.61826 0.03178 0.0
O419 O 0.00585 0.63804 0.00232 0.0
Co420 Co 0.12629 0.24041 0.7578 0.0
O421 O 0.14508 0.25045 0.73886 0.0
O422 O 0.14687 0.2261 0.7612 0.0
C423 C 0.11746 0.26519 0.77654 0.0
O424 O 0.11029 0.2266 0.78075 0.0
Co425 Co 0.08756 0.25132 0.74942 0.0
O426 O 0.08396 0.23972 0.78195 0.0
C427 C 0.10441 0.22634 0.71492 0.0
C428 C 0.15462 0.23767 0.74731 0.0
C429 C 0.09498 0.22865 0.79029 0.0
O430 O 0.11835 0.22629 0.7283 0.0
O431 O 0.09119 0.23618 0.71942 0.0
O432 O 0.13093 0.25661 0.7848 0.0
O433 O 0.11109 0.2597 0.7557 0.0
Co434 Co 0.50526 0.37729 0.5063 0.0
O435 O 0.49824 0.39524 0.48346 0.0
O436 O 0.52035 0.39734 0.51001 0.0
C437 C 0.47844 0.37087 0.52094 0.0
O438 O 0.51577 0.36199 0.53344 0.0
Co439 Co 0.49279 0.33884 0.49995 0.0
O440 O 0.50074 0.33668 0.53485 0.0
C441 C 0.52149 0.35245 0.46853 0.0
C442 C 0.5107 0.40465 0.49304 0.0
C443 C 0.51168 0.34747 0.54413 0.0
O444 O 0.52145 0.36692 0.48073 0.0
O445 O 0.5104 0.34013 0.47235 0.0
O446 O 0.48697 0.38436 0.52931 0.0
O447 O 0.48545 0.36306 0.50211 0.0
H448 H 0.04765 0.12636 0.42273 0.0
H449 H 0.06553 0.13396 0.38653 0.0
H450 H 0.03145 0.17759 0.37095 0.0
H451 H 0.01352 0.17024 0.40698 0.0
H452 H 0.05243 0.14698 0.32829 0.0
H453 H 0.08694 0.19175 0.39384 0.0
H454 H 0.07712 0.17146 0.40399 0.0
H455 H 0.06346 0.18975 0.39621 0.0
C456 C 0.0437 0.13733 0.41129 0.0
C457 C 0.02932 0.14788 0.41799 0.0
C458 C 0.05389 0.14157 0.39057 0.0
C459 C 0.04973 0.1563 0.37623 0.0
C460 C 0.03475 0.16613 0.38184 0.0
H461 H 0.08793 0.21677 0.25505 0.0
H462 H 0.07187 0.19567 0.28044 0.0
C463 C 0.02462 0.16196 0.40254 0.0
C464 C 0.0623 0.16312 0.35789 0.0
H465 H 0.09359 0.19456 0.35157 0.0
C466 C 0.06162 0.15723 0.33328 0.0
C467 C 0.07433 0.17629 0.36471 0.0
C468 C 0.07568 0.18272 0.39112 0.0
C469 C 0.07246 0.16468 0.315 0.0
C470 C 0.08388 0.17855 0.32159 0.0
C471 C 0.08488 0.18392 0.34647 0.0
C472 C 0.0942 0.1886 0.30316 0.0
C473 C 0.07155 0.15765 0.28889 0.0
C474 C 0.11211 0.1916 0.30732 0.0
C475 C 0.12115 0.20402 0.29332 0.0
C476 C 0.1125 0.2135 0.27467 0.0
C477 C 0.09492 0.20963 0.26929 0.0
C478 C 0.08577 0.19742 0.28365 0.0
H479 H 0.06727 0.14373 0.28872 0.0
H480 H 0.06178 0.16532 0.2782 0.0
H481 H 0.08442 0.15866 0.27938 0.0
H482 H 0.11889 0.18497 0.32227 0.0
H483 H 0.13476 0.20665 0.29769 0.0
H484 H 0.03057 0.84129 0.50992 0.0
H485 H 0.04953 0.82373 0.53686 0.0
H486 H 0.05109 0.8659 0.59002 0.0
H487 H 0.03196 0.88344 0.56347 0.0
H488 H 0.08365 0.82963 0.56174 0.0
H489 H 0.02668 0.82383 0.62563 0.0
H490 H 0.02451 0.83148 0.59412 0.0
H491 H 0.03289 0.84584 0.6177 0.0
C492 C 0.03519 0.84694 0.52715 0.0
C493 C 0.02953 0.8636 0.53483 0.0
C494 C 0.04607 0.83692 0.54244 0.0
C495 C 0.05144 0.84347 0.56552 0.0
C496 C 0.04686 0.86058 0.57238 0.0
H497 H 0.11682 0.79685 0.67987 0.0
H498 H 0.1064 0.81465 0.64511 0.0
C499 C 0.03594 0.87056 0.55719 0.0
C500 C 0.06013 0.8318 0.58357 0.0
H501 H 0.05332 0.81138 0.63896 0.0
C502 C 0.07709 0.8256 0.57865 0.0
C503 C 0.05135 0.82644 0.60538 0.0
C504 C 0.0328 0.83209 0.61103 0.0
C505 C 0.08562 0.81426 0.59528 0.0
C506 C 0.07694 0.80919 0.61731 0.0
C507 C 0.05995 0.81534 0.62205 0.0
C508 C 0.08494 0.79732 0.6358 0.0
C509 C 0.10367 0.80755 0.58898 0.0
C510 C 0.07641 0.78163 0.64193 0.0
C511 C 0.08218 0.77156 0.66188 0.0
C512 C 0.09661 0.77699 0.67617 0.0
C513 C 0.10568 0.79229 0.66923 0.0
C514 C 0.09981 0.80243 0.64928 0.0
H515 H 0.10679 0.80936 0.56901 0.0
H516 H 0.11354 0.81486 0.59999 0.0
H517 H 0.10489 0.79344 0.59367 0.0
H518 H 0.06489 0.77748 0.63174 0.0
H519 H 0.075 0.75976 0.66652 0.0
H520 H 0.49081 0.82511 0.91459 0.0
H521 H 0.4755 0.81368 0.87829 0.0
H522 H 0.43453 0.85194 0.88855 0.0
H523 H 0.44994 0.86372 0.9246 0.0
H524 H 0.44365 0.79887 0.88107 0.0
H525 H 0.44165 0.85386 0.81404 0.0
H526 H 0.45631 0.85358 0.84034 0.0
H527 H 0.43374 0.85983 0.84424 0.0
C528 C 0.47868 0.83129 0.90891 0.0
C529 C 0.4715 0.84522 0.92262 0.0
C530 C 0.46998 0.82478 0.88811 0.0
C531 C 0.45396 0.83205 0.8806 0.0
C532 C 0.44707 0.84638 0.89368 0.0
H533 H 0.36932 0.77821 0.81013 0.0
H534 H 0.38806 0.79675 0.8358 0.0
C535 C 0.45584 0.85301 0.91441 0.0
C536 C 0.44351 0.82331 0.86106 0.0
H537 H 0.42166 0.83009 0.80658 0.0
C538 C 0.43902 0.80566 0.86466 0.0
C539 C 0.43756 0.83217 0.8396 0.0
C540 C 0.4427 0.85086 0.83415 0.0
C541 C 0.42835 0.79676 0.84775 0.0
C542 C 0.42175 0.80584 0.82693 0.0
C543 C 0.42661 0.82331 0.82281 0.0
C544 C 0.40954 0.79721 0.80963 0.0
C545 C 0.4241 0.7777 0.85234 0.0
C546 C 0.41522 0.79199 0.78604 0.0
C547 C 0.40453 0.78139 0.77128 0.0
C548 C 0.38806 0.77589 0.78001 0.0
C549 C 0.382 0.78212 0.80299 0.0
C550 C 0.39267 0.7927 0.81768 0.0
H551 H 0.43311 0.7717 0.86613 0.0
H552 H 0.41053 0.77661 0.85958 0.0
H553 H 0.42485 0.77007 0.83483 0.0
H554 H 0.42823 0.79542 0.77959 0.0
H555 H 0.40949 0.77688 0.75358 0.0
H556 H 0.42624 0.23828 0.16782 0.0
H557 H 0.43667 0.21955 0.13429 0.0
H558 H 0.39418 0.18351 0.14777 0.0
H559 H 0.38344 0.20233 0.18122 0.0
H560 H 0.44745 0.18551 0.14322 0.0
H561 H 0.39505 0.18731 0.07162 0.0
H562 H 0.39685 0.20361 0.09579 0.0
H563 H 0.38786 0.1824 0.1026 0.0
C564 C 0.4189 0.22654 0.16341 0.0
C565 C 0.40409 0.22173 0.17736 0.0
C566 C 0.42488 0.21586 0.14421 0.0
C567 C 0.41618 0.20018 0.13852 0.0
C568 C 0.40093 0.19569 0.15161 0.0
H569 H 0.47114 0.11448 0.06506 0.0
H570 H 0.45182 0.13096 0.09283 0.0
C571 C 0.39486 0.20645 0.1708 0.0
C572 C 0.42423 0.18779 0.12076 0.0
H573 H 0.41831 0.16719 0.06516 0.0
C574 C 0.44107 0.18147 0.12617 0.0
C575 C 0.41584 0.1826 0.09857 0.0
C576 C 0.39796 0.18941 0.0916 0.0
C577 C 0.44988 0.17026 0.10984 0.0
C578 C 0.44148 0.16496 0.08772 0.0
C579 C 0.42458 0.17116 0.08231 0.0
C580 C 0.45066 0.15392 0.06936 0.0
C581 C 0.46835 0.16462 0.11604 0.0
C582 C 0.45572 0.16112 0.04655 0.0
C583 C 0.46669 0.15175 0.03063 0.0
C584 C 0.47275 0.13502 0.03732 0.0
C585 C 0.46679 0.12741 0.05951 0.0
C586 C 0.45579 0.13679 0.0754 0.0
H587 H 0.47413 0.17264 0.13117 0.0
H588 H 0.46822 0.15075 0.12219 0.0
H589 H 0.47696 0.16559 0.09948 0.0
H590 H 0.45185 0.17432 0.04158 0.0
H591 H 0.47095 0.15789 0.01356 0.0
H592 H 0.09531 0.78246 0.2399 0.0
H593 H 0.07766 0.80101 0.21257 0.0
H594 H 0.11874 0.79991 0.15768 0.0
H595 H 0.13636 0.78117 0.18464 0.0
H596 H 0.08324 0.83392 0.18409 0.0
H597 H 0.07536 0.77367 0.12717 0.0
H598 H 0.08418 0.7733 0.15821 0.0
H599 H 0.09767 0.78016 0.13271 0.0
C600 C 0.10075 0.78649 0.22225 0.0
C601 C 0.11703 0.78005 0.21415 0.0
C602 C 0.09068 0.79713 0.20672 0.0
C603 C 0.09683 0.80152 0.18303 0.0
C604 C 0.11373 0.79644 0.17584 0.0
H605 H 0.04834 0.86231 0.06567 0.0
H606 H 0.0667 0.85278 0.10032 0.0
C607 C 0.12377 0.78576 0.19127 0.0
C608 C 0.08479 0.80932 0.1647 0.0
H609 H 0.06302 0.79972 0.11121 0.0
C610 C 0.07878 0.82651 0.16812 0.0
C611 C 0.0788 0.79942 0.14422 0.0
C612 C 0.08418 0.78056 0.14037 0.0
C613 C 0.06708 0.83421 0.1512 0.0
C614 C 0.06149 0.82445 0.13035 0.0
C615 C 0.06739 0.80719 0.12719 0.0
C616 C 0.04947 0.83166 0.11141 0.0
C617 C 0.06057 0.85256 0.15599 0.0
C618 C 0.03373 0.82292 0.10616 0.0
C619 C 0.02336 0.82814 0.0862 0.0
C620 C 0.02854 0.84223 0.07109 0.0
C621 C 0.04398 0.85142 0.07698 0.0
C622 C 0.05443 0.84608 0.09689 0.0
H623 H 0.06235 0.85642 0.1757 0.0
H624 H 0.06809 0.86188 0.14433 0.0
H625 H 0.04649 0.85381 0.15111 0.0
H626 H 0.0297 0.81173 0.11715 0.0
H627 H 0.01144 0.82092 0.08236 0.0
H628 H 0.43188 0.77767 0.31674 0.0
H629 H 0.43745 0.79449 0.35415 0.0
H630 H 0.38227 0.80577 0.36105 0.0
H631 H 0.37653 0.78919 0.32295 0.0
H632 H 0.40147 0.83457 0.36833 0.0
H633 H 0.42915 0.78162 0.42528 0.0
H634 H 0.44038 0.78225 0.39613 0.0
H635 H 0.41726 0.7773 0.39698 0.0
C636 C 0.42085 0.78359 0.32622 0.0
C637 C 0.40374 0.78201 0.31687 0.0
C638 C 0.42406 0.79309 0.34779 0.0
C639 C 0.41021 0.80097 0.36077 0.0
C640 C 0.3931 0.79959 0.35146 0.0
H641 H 0.45817 0.84862 0.49111 0.0
H642 H 0.43508 0.83291 0.46871 0.0
C643 C 0.38987 0.79016 0.32968 0.0
C644 C 0.41411 0.81156 0.38309 0.0
H645 H 0.44023 0.81107 0.43422 0.0
C646 C 0.40957 0.82937 0.38313 0.0
C647 C 0.4241 0.8047 0.40291 0.0
C648 C 0.4278 0.78536 0.40546 0.0
C649 C 0.41632 0.84083 0.40111 0.0
C650 C 0.42834 0.83434 0.41887 0.0
C651 C 0.43135 0.81622 0.42031 0.0
C652 C 0.43973 0.84607 0.43373 0.0
C653 C 0.41087 0.85981 0.40035 0.0
C654 C 0.4498 0.85893 0.42169 0.0
C655 C 0.46274 0.86808 0.43453 0.0
C656 C 0.46619 0.86422 0.4595 0.0
C657 C 0.45579 0.85178 0.47182 0.0
C658 C 0.44259 0.84284 0.45906 0.0
H659 H 0.39702 0.86105 0.39426 0.0
H660 H 0.41232 0.86623 0.41872 0.0
H661 H 0.41907 0.86689 0.38661 0.0
H662 H 0.44835 0.86126 0.402 0.0
H663 H 0.47067 0.87749 0.42451 0.0
H664 H 0.40904 0.21623 0.73308 0.0
H665 H 0.42576 0.19752 0.70481 0.0
H666 H 0.38109 0.1942 0.65605 0.0
H667 H 0.36441 0.21322 0.68388 0.0
H668 H 0.42069 0.1636 0.68171 0.0
H669 H 0.41946 0.21927 0.6151 0.0
H670 H 0.41306 0.22166 0.64712 0.0
H671 H 0.39834 0.21174 0.62522 0.0
C672 C 0.40268 0.21129 0.71655 0.0
C673 C 0.38556 0.21647 0.71039 0.0
C674 C 0.41222 0.20055 0.70049 0.0
C675 C 0.40472 0.19478 0.6782 0.0
C676 C 0.38717 0.19878 0.67301 0.0
H677 H 0.45366 0.1311 0.56263 0.0
H678 H 0.435 0.14062 0.59706 0.0
C679 C 0.37768 0.20963 0.68892 0.0
C680 C 0.41579 0.18637 0.65917 0.0
H681 H 0.43342 0.19342 0.60193 0.0
C682 C 0.42345 0.17003 0.6642 0.0
C683 C 0.41951 0.19498 0.63655 0.0
C684 C 0.41231 0.21294 0.63066 0.0
C685 C 0.43477 0.16204 0.64702 0.0
C686 C 0.43833 0.17062 0.62435 0.0
C687 C 0.43059 0.18689 0.61935 0.0
C688 C 0.45061 0.16348 0.60573 0.0
C689 C 0.4432 0.14476 0.65347 0.0
C690 C 0.46556 0.17315 0.59935 0.0
C691 C 0.47612 0.16788 0.57964 0.0
C692 C 0.4719 0.15284 0.56583 0.0
C693 C 0.45728 0.14275 0.57289 0.0
C694 C 0.44665 0.1481 0.59264 0.0
H695 H 0.44181 0.14158 0.67348 0.0
H696 H 0.43687 0.13417 0.64258 0.0
H697 H 0.45735 0.14491 0.64863 0.0
H698 H 0.4688 0.18508 0.60926 0.0
H699 H 0.48738 0.17586 0.5749 0.0
H700 H 0.06649 0.23256 0.8204 0.0
H701 H 0.05683 0.21316 0.85364 0.0
H702 H 0.10137 0.17959 0.84069 0.0
H703 H 0.11137 0.19912 0.80761 0.0
H704 H 0.04782 0.1788 0.84773 0.0
H705 H 0.10194 0.18535 0.91606 0.0
H706 H 0.0989 0.20055 0.89076 0.0
H707 H 0.10875 0.17953 0.88524 0.0
C708 C 0.07433 0.22113 0.8247 0.0
C709 C 0.08966 0.21734 0.81125 0.0
C710 C 0.06881 0.21009 0.84375 0.0
C711 C 0.07847 0.19505 0.84975 0.0
C712 C 0.09392 0.19132 0.83667 0.0
H713 H 0.02881 0.10934 0.92942 0.0
H714 H 0.04732 0.12565 0.90048 0.0
C715 C 0.09954 0.20245 0.81766 0.0
C716 C 0.07159 0.18272 0.86852 0.0
H717 H 0.08022 0.16393 0.92469 0.0
C718 C 0.05492 0.17552 0.86453 0.0
C719 C 0.08087 0.17858 0.89045 0.0
C720 C 0.09855 0.1865 0.89608 0.0
C721 C 0.04715 0.16441 0.882 0.0
C722 C 0.05652 0.16004 0.90377 0.0
C723 C 0.07323 0.16715 0.90778 0.0
C724 C 0.0485 0.149 0.92316 0.0
C725 C 0.02873 0.1579 0.87738 0.0
C726 C 0.04397 0.15642 0.94607 0.0
C727 C 0.03353 0.14709 0.96274 0.0
C728 C 0.02741 0.13027 0.95661 0.0
C729 C 0.03314 0.12238 0.9345 0.0
C730 C 0.04367 0.13167 0.91793 0.0
H731 H 0.02205 0.16545 0.86252 0.0
H732 H 0.02922 0.14396 0.87155 0.0
H733 H 0.0207 0.15873 0.89453 0.0
H734 H 0.04768 0.16977 0.95045 0.0
H735 H 0.02948 0.15343 0.97977 0.0
H736 H 0.96309 0.87033 0.57253 0.0
H737 H 0.94665 0.86112 0.60922 0.0
H738 H 0.95651 0.807 0.59085 0.0
H739 H 0.9734 0.81606 0.55469 0.0
H740 H 0.91756 0.84264 0.6128 0.0
H741 H 0.96985 0.80729 0.66259 0.0
H742 H 0.97438 0.82133 0.63644 0.0
H743 H 0.96765 0.79893 0.6317 0.0
C744 C 0.96186 0.85646 0.5764 0.0
C745 C 0.96962 0.84392 0.56073 0.0
C746 C 0.95249 0.85123 0.5974 0.0
C747 C 0.95066 0.83339 0.60308 0.0
C748 C 0.95822 0.82086 0.5873 0.0
H749 H 0.87032 0.77652 0.67307 0.0
H750 H 0.8881 0.79591 0.64758 0.0
C751 C 0.96776 0.82606 0.56649 0.0
C752 C 0.94004 0.82772 0.62464 0.0
H753 H 0.9401 0.79915 0.67322 0.0
C754 C 0.92258 0.83338 0.6263 0.0
C755 C 0.94668 0.81602 0.64269 0.0
C756 C 0.96573 0.81072 0.64343 0.0
C757 C 0.91126 0.82673 0.64451 0.0
C758 C 0.91746 0.81369 0.66097 0.0
C759 C 0.93523 0.80894 0.66036 0.0
C760 C 0.90553 0.80363 0.67736 0.0
C761 C 0.89275 0.83363 0.64569 0.0
C762 C 0.90953 0.80124 0.70256 0.0
C763 C 0.89957 0.78981 0.71711 0.0
C764 C 0.88542 0.78064 0.70666 0.0
C765 C 0.88105 0.78352 0.6817 0.0
C766 C 0.89113 0.79475 0.66713 0.0
H767 H 0.89215 0.84748 0.63938 0.0
H768 H 0.88432 0.82581 0.63308 0.0
H769 H 0.88731 0.83283 0.66475 0.0
H770 H 0.92066 0.80787 0.71081 0.0
H771 H 0.90321 0.78781 0.73631 0.0
H772 H 0.97291 0.15909 0.47757 0.0
H773 H 0.95043 0.17257 0.4518 0.0
H774 H 0.94171 0.12316 0.41488 0.0
H775 H 0.96476 0.10974 0.44001 0.0
H776 H 0.94848 0.14781 0.38275 0.0
H777 H 0.89823 0.17346 0.44674 0.0
H778 H 0.91959 0.18063 0.45608 0.0
H779 H 0.9144 0.15758 0.45641 0.0
C780 C 0.96598 0.151 0.4643 0.0
C781 C 0.97074 0.13343 0.46054 0.0
C782 C 0.95295 0.15868 0.44977 0.0
C783 C 0.94419 0.14883 0.43161 0.0
C784 C 0.94824 0.13099 0.42886 0.0
H785 H 0.87759 0.19625 0.31605 0.0
H786 H 0.88632 0.1769 0.35017 0.0
C787 C 0.96143 0.12335 0.44317 0.0
C788 C 0.93298 0.15777 0.4131 0.0
H789 H 0.90076 0.18855 0.4069 0.0
C790 C 0.93775 0.15635 0.38803 0.0
C791 C 0.91894 0.16891 0.41991 0.0
C792 C 0.91239 0.17008 0.44625 0.0
C793 C 0.92961 0.16657 0.36984 0.0
C794 C 0.91653 0.17862 0.37694 0.0
C795 C 0.91098 0.17939 0.40169 0.0
C796 C 0.90978 0.19148 0.359 0.0
C797 C 0.93554 0.16502 0.34323 0.0
C798 C 0.91995 0.20619 0.35323 0.0
C799 C 0.91512 0.2172 0.33378 0.0
C800 C 0.9 0.21364 0.31973 0.0
C801 C 0.88935 0.19933 0.32643 0.0
C802 C 0.89425 0.18828 0.34593 0.0
H803 H 0.94398 0.15335 0.3402 0.0
H804 H 0.92404 0.16419 0.33067 0.0
H805 H 0.9431 0.1769 0.33805 0.0
H806 H 0.93201 0.20878 0.36322 0.0
H807 H 0.92352 0.2282 0.32933 0.0
H808 H 0.55476 0.12934 0.05686 0.0
H809 H 0.57492 0.1376 0.09032 0.0
H810 H 0.53671 0.17411 0.11852 0.0
H811 H 0.51659 0.1662 0.08501 0.0
H812 H 0.58099 0.18006 0.09543 0.0
H813 H 0.56176 0.14201 0.17918 0.0
H814 H 0.55952 0.13335 0.14809 0.0
H815 H 0.54468 0.14987 0.1589 0.0
C816 C 0.55051 0.13884 0.07051 0.0
C817 C 0.5342 0.14729 0.06819 0.0
C818 C 0.56201 0.1435 0.08958 0.0
C819 C 0.55717 0.15635 0.10682 0.0
C820 C 0.54054 0.16404 0.10542 0.0
H821 H 0.58983 0.22217 0.22202 0.0
H822 H 0.57651 0.20019 0.19518 0.0
C823 C 0.52914 0.1596 0.0862 0.0
C824 C 0.57019 0.16372 0.12405 0.0
H825 H 0.58079 0.16622 0.18532 0.0
C826 C 0.58128 0.17687 0.11504 0.0
C827 C 0.57025 0.1595 0.14948 0.0
C828 C 0.5585 0.14535 0.15966 0.0
C829 C 0.59176 0.18677 0.13113 0.0
C830 C 0.59152 0.18292 0.15685 0.0
C831 C 0.58102 0.1691 0.16563 0.0
C832 C 0.60041 0.19439 0.1751 0.0
C833 C 0.60197 0.202 0.12057 0.0
C834 C 0.61841 0.19801 0.17333 0.0
C835 C 0.62595 0.21096 0.18822 0.0
C836 C 0.6157 0.2201 0.20558 0.0
C837 C 0.59802 0.21549 0.20862 0.0
C838 C 0.59041 0.20284 0.19338 0.0
H839 H 0.5975 0.20553 0.10161 0.0
H840 H 0.60073 0.21376 0.13257 0.0
H841 H 0.61603 0.19842 0.11938 0.0
H842 H 0.62649 0.19126 0.15988 0.0
H843 H 0.6397 0.21405 0.18583 0.0
H844 H 0.52766 0.84452 0.98058 0.0
H845 H 0.54884 0.82981 0.95382 0.0
H846 H 0.55158 0.87574 0.90731 0.0
H847 H 0.52993 0.8903 0.93353 0.0
H848 H 0.54236 0.84753 0.88176 0.0
H849 H 0.60056 0.83112 0.93829 0.0
H850 H 0.5806 0.82424 0.95294 0.0
H851 H 0.5846 0.84723 0.94795 0.0
C852 C 0.53307 0.85163 0.96499 0.0
C853 C 0.52692 0.86843 0.95887 0.0
C854 C 0.54534 0.84327 0.94984 0.0
C855 C 0.55189 0.85172 0.92864 0.0
C856 C 0.54671 0.86899 0.9236 0.0
H857 H 0.61655 0.80086 0.81461 0.0
H858 H 0.60727 0.82066 0.84792 0.0
C859 C 0.53432 0.87728 0.93857 0.0
C860 C 0.56168 0.84163 0.90973 0.0
H861 H 0.59611 0.81365 0.90127 0.0
C862 C 0.5543 0.8404 0.88595 0.0
C863 C 0.57728 0.83236 0.91515 0.0
C864 C 0.58631 0.83394 0.93991 0.0
C865 C 0.56164 0.82958 0.86779 0.0
C866 C 0.57657 0.81949 0.87368 0.0
C867 C 0.5845 0.82127 0.89702 0.0
C868 C 0.58343 0.80645 0.85599 0.0
C869 C 0.55313 0.82873 0.84253 0.0
C870 C 0.57331 0.7917 0.85016 0.0
C871 C 0.57848 0.78044 0.83119 0.0
C872 C 0.59392 0.78371 0.8177 0.0
C873 C 0.60453 0.79802 0.82452 0.0
C874 C 0.5993 0.80932 0.84356 0.0
H875 H 0.54448 0.84019 0.83912 0.0
H876 H 0.56318 0.82815 0.82765 0.0
H877 H 0.54501 0.8167 0.84131 0.0
H878 H 0.56109 0.78923 0.8598 0.0
H879 H 0.57011 0.76942 0.8267 0.0
H880 H 0.86446 0.21839 0.81333 0.0
H881 H 0.88027 0.19828 0.8407 0.0
H882 H 0.92372 0.19747 0.78957 0.0
H883 H 0.90796 0.2174 0.76194 0.0
H884 H 0.9154 0.16381 0.81405 0.0
H885 H 0.923 0.22066 0.87787 0.0
H886 H 0.90092 0.2154 0.86896 0.0
H887 H 0.91614 0.22314 0.84604 0.0
C888 C 0.87722 0.21364 0.80765 0.0
C889 C 0.88512 0.21968 0.78572 0.0
C890 C 0.88622 0.20218 0.8233 0.0
C891 C 0.90321 0.19665 0.81724 0.0
C892 C 0.91061 0.20165 0.79452 0.0
H893 H 0.98689 0.17077 0.91639 0.0
H894 H 0.96866 0.18136 0.88239 0.0
C895 C 0.90162 0.21309 0.77884 0.0
C896 C 0.91408 0.18745 0.83574 0.0
H897 H 0.93504 0.19382 0.89082 0.0
C898 C 0.91966 0.17027 0.83092 0.0
C899 C 0.91979 0.19613 0.85744 0.0
C900 C 0.91482 0.21489 0.86291 0.0
C901 C 0.93083 0.16146 0.84746 0.0
C902 C 0.93637 0.17009 0.8693 0.0
C903 C 0.93073 0.18725 0.87405 0.0
C904 C 0.94835 0.1619 0.88744 0.0
C905 C 0.93697 0.14321 0.8412 0.0
C906 C 0.94312 0.1472 0.90118 0.0
C907 C 0.95354 0.14106 0.92066 0.0
C908 C 0.96924 0.14969 0.92685 0.0
C909 C 0.97477 0.16395 0.91232 0.0
C910 C 0.96441 0.17 0.89282 0.0
H911 H 0.93476 0.13999 0.82134 0.0
H912 H 0.95113 0.14165 0.84545 0.0
H913 H 0.9296 0.1336 0.8526 0.0
H914 H 0.93063 0.14095 0.89756 0.0
H915 H 0.94891 0.13005 0.93152 0.0
H916 H 0.61815 0.21194 0.67709 0.0
H917 H 0.60868 0.19532 0.64073 0.0
H918 H 0.55469 0.20258 0.66218 0.0
H919 H 0.56399 0.21965 0.6981 0.0
H920 H 0.59093 0.16551 0.6367 0.0
H921 H 0.55322 0.21823 0.59116 0.0
H922 H 0.5677 0.22238 0.61696 0.0
H923 H 0.54567 0.2147 0.62224 0.0
C924 C 0.60425 0.21003 0.67405 0.0
C925 C 0.59181 0.21721 0.69041 0.0
C926 C 0.59887 0.20056 0.65323 0.0
C927 C 0.58098 0.19805 0.64845 0.0
C928 C 0.56855 0.20482 0.66508 0.0
H929 H 0.52679 0.11859 0.57048 0.0
H930 H 0.54517 0.13569 0.59833 0.0
C931 C 0.5739 0.21446 0.68573 0.0
C932 C 0.57523 0.18786 0.62654 0.0
H933 H 0.54664 0.18879 0.57801 0.0
C934 C 0.58144 0.17067 0.62362 0.0
C935 C 0.56323 0.19475 0.6091 0.0
C936 C 0.55723 0.2136 0.60985 0.0
C937 C 0.5752 0.15986 0.60453 0.0
C938 C 0.56204 0.16627 0.58844 0.0
C939 C 0.55657 0.18377 0.59053 0.0
C940 C 0.55272 0.1548 0.57062 0.0
C941 C 0.58274 0.14168 0.60195 0.0
C942 C 0.55065 0.15994 0.54577 0.0
C943 C 0.5398 0.15036 0.52989 0.0
C944 C 0.53094 0.13545 0.53861 0.0
C945 C 0.53359 0.12993 0.56317 0.0
C946 C 0.54423 0.13963 0.57909 0.0
H947 H 0.5965 0.14122 0.60865 0.0
H948 H 0.57499 0.13245 0.61348 0.0
H949 H 0.58241 0.1371 0.58241 0.0
H950 H 0.557 0.17166 0.53888 0.0
H951 H 0.53796 0.1549 0.51104 0.0
H952 H 0.58515 0.77385 0.26317 0.0
H953 H 0.56939 0.7936 0.29091 0.0
H954 H 0.61645 0.80117 0.33394 0.0
H955 H 0.63219 0.78102 0.30667 0.0
H956 H 0.58957 0.78986 0.36176 0.0
H957 H 0.5674 0.84575 0.30437 0.0
H958 H 0.56182 0.82499 0.29092 0.0
H959 H 0.5845 0.83096 0.29447 0.0
C960 C 0.59225 0.78001 0.27821 0.0
C961 C 0.60983 0.7757 0.28297 0.0
C962 C 0.58325 0.79143 0.29394 0.0
C963 C 0.59178 0.79895 0.31439 0.0
C964 C 0.60964 0.79553 0.31822 0.0
H965 H 0.54178 0.86566 0.42572 0.0
H966 H 0.56038 0.85503 0.39194 0.0
C967 C 0.61861 0.78401 0.30263 0.0
C968 C 0.58154 0.80826 0.33363 0.0
H969 H 0.55208 0.84128 0.34296 0.0
C970 C 0.58157 0.80126 0.3577 0.0
C971 C 0.57118 0.82316 0.32835 0.0
C972 C 0.57133 0.83177 0.30317 0.0
C973 C 0.57107 0.80838 0.37644 0.0
C974 C 0.55999 0.82268 0.37082 0.0
C975 C 0.56042 0.83014 0.34704 0.0
C976 C 0.54772 0.82974 0.38948 0.0
C977 C 0.57185 0.80049 0.40208 0.0
C978 C 0.53417 0.81919 0.39869 0.0
C979 C 0.52355 0.82515 0.41799 0.0
C980 C 0.52627 0.84184 0.42839 0.0
C981 C 0.53939 0.85269 0.41829 0.0
C982 C 0.55001 0.84668 0.39895 0.0
H983 H 0.58402 0.79275 0.40489 0.0
H984 H 0.57117 0.81082 0.41655 0.0
H985 H 0.56051 0.79157 0.40467 0.0
H986 H 0.53206 0.80616 0.3913 0.0
H987 H 0.51348 0.8165 0.4251 0.0
H988 H 0.88391 0.79631 0.19485 0.0
H989 H 0.8959 0.81382 0.1609 0.0
H990 H 0.93862 0.77724 0.15304 0.0
H991 H 0.92698 0.75984 0.18727 0.0
H992 H 0.94984 0.81075 0.15509 0.0
H993 H 0.89583 0.80486 0.08672 0.0
H994 H 0.88882 0.81274 0.11648 0.0
H995 H 0.89747 0.79091 0.11366 0.0
C996 C 0.89579 0.79191 0.18577 0.0
C997 C 0.90454 0.77672 0.19384 0.0
C998 C 0.90254 0.80187 0.16625 0.0
C999 C 0.918 0.79669 0.15423 0.0
C1000 C 0.92664 0.78143 0.16204 0.0
H1001 H 0.9672 0.83685 0.02137 0.0
H1002 H 0.94998 0.81993 0.05126 0.0
C1003 C 0.91999 0.77154 0.18165 0.0
C1004 C 0.92582 0.80769 0.13454 0.0
H1005 H 0.91801 0.82595 0.07777 0.0
C1006 C 0.94289 0.81403 0.13816 0.0
C1007 C 0.91679 0.81179 0.11236 0.0
C1008 C 0.89878 0.80459 0.1069 0.0
C1009 C 0.95115 0.82449 0.12031 0.0
C1010 C 0.94189 0.82909 0.09854 0.0
C1011 C 0.92492 0.82259 0.0947 0.0
C1012 C 0.95001 0.8402 0.0793 0.0
C1013 C 0.96983 0.83026 0.12469 0.0
C1014 C 0.95504 0.85742 0.08487 0.0
C1015 C 0.96495 0.86706 0.06794 0.0
C1016 C 0.96987 0.85964 0.04513 0.0
C1017 C 0.96373 0.84285 0.03889 0.0
C1018 C 0.95388 0.83318 0.05591 0.0
H1019 H 0.97635 0.82226 0.13922 0.0
H1020 H 0.97766 0.82936 0.10736 0.0
H1021 H 0.96991 0.84412 0.13091 0.0
H1022 H 0.95187 0.86316 0.10269 0.0
H1023 H 0.96934 0.88005 0.07316 0.0
H1024 H 0.53493 0.63321 0.92668 0.0
H1025 H 0.55216 0.64464 0.89206 0.0
H1026 H 0.54744 0.69691 0.92184 0.0
H1027 H 0.52964 0.68567 0.95596 0.0
H1028 H 0.54105 0.69667 0.87369 0.0
H1029 H 0.60242 0.65978 0.89149 0.0
H1030 H 0.58364 0.64596 0.88737 0.0
H1031 H 0.58468 0.66054 0.91356 0.0
C1032 C 0.5377 0.64712 0.92595 0.0
C1033 C 0.531 0.65855 0.94409 0.0
C1034 C 0.54762 0.65361 0.90622 0.0
C1035 C 0.55136 0.67158 0.9046 0.0
C1036 C 0.54475 0.68298 0.92276 0.0
H1037 H 0.62898 0.72763 0.82331 0.0
H1038 H 0.61212 0.70987 0.85235 0.0
C1039 C 0.53459 0.67655 0.94226 0.0
C1040 C 0.56164 0.6787 0.88361 0.0
H1041 H 0.60124 0.67631 0.85433 0.0
C1042 C 0.55421 0.69221 0.86943 0.0
C1043 C 0.57885 0.67291 0.87821 0.0
C1044 C 0.58795 0.65912 0.89359 0.0
C1045 C 0.56361 0.70037 0.85033 0.0
C1046 C 0.5807 0.6944 0.84467 0.0
C1047 C 0.58804 0.68067 0.85853 0.0
C1048 C 0.59174 0.70332 0.82599 0.0
C1049 C 0.55542 0.71582 0.8372 0.0
C1050 C 0.5862 0.705 0.80127 0.0
C1051 C 0.59571 0.71536 0.78468 0.0
C1052 C 0.61105 0.72392 0.7925 0.0
C1053 C 0.61717 0.72124 0.81677 0.0
C1054 C 0.60756 0.71108 0.83339 0.0
H1055 H 0.54418 0.7213 0.84777 0.0
H1056 H 0.56517 0.72642 0.83424 0.0
H1057 H 0.55047 0.71154 0.81882 0.0
H1058 H 0.57426 0.69873 0.79503 0.0
H1059 H 0.5908 0.71707 0.76599 0.0
H1060 H 0.58013 0.26436 0.1573 0.0
H1061 H 0.57165 0.2842 0.12377 0.0
H1062 H 0.60837 0.32276 0.15042 0.0
H1063 H 0.6172 0.30288 0.18389 0.0
H1064 H 0.5673 0.33005 0.14631 0.0
H1065 H 0.60146 0.3069 0.06125 0.0
H1066 H 0.59318 0.29056 0.08236 0.0
H1067 H 0.61078 0.30457 0.09193 0.0
C1068 C 0.58664 0.27692 0.15578 0.0
C1069 C 0.59921 0.28213 0.17334 0.0
C1070 C 0.58187 0.28817 0.13654 0.0
C1071 C 0.58949 0.30482 0.13467 0.0
C1072 C 0.60252 0.30985 0.15153 0.0
H1073 H 0.53316 0.38781 0.05459 0.0
H1074 H 0.55599 0.37411 0.07995 0.0
C1075 C 0.6075 0.29849 0.1706 0.0
C1076 C 0.582 0.31763 0.11722 0.0
H1077 H 0.57762 0.32651 0.05561 0.0
C1078 C 0.56974 0.3296 0.1265 0.0
C1079 C 0.58523 0.31673 0.09152 0.0
C1080 C 0.59845 0.30408 0.08101 0.0
C1081 C 0.55974 0.34006 0.11052 0.0
C1082 C 0.56257 0.33887 0.08459 0.0
C1083 C 0.57551 0.32746 0.07546 0.0
C1084 C 0.5509 0.34782 0.06667 0.0
C1085 C 0.54543 0.35132 0.12153 0.0
C1086 C 0.54128 0.33777 0.04964 0.0
C1087 C 0.52859 0.34562 0.03473 0.0
C1088 C 0.52512 0.36362 0.03684 0.0
C1089 C 0.53538 0.37384 0.05292 0.0
C1090 C 0.54834 0.36602 0.06749 0.0
H1091 H 0.54241 0.34758 0.14099 0.0
H1092 H 0.54973 0.3652 0.12158 0.0
H1093 H 0.53319 0.35033 0.11048 0.0
H1094 H 0.54309 0.32371 0.04858 0.0
H1095 H 0.52102 0.33743 0.02232 0.0
H1096 H 0.90699 0.27471 0.26784 0.0
H1097 H 0.92237 0.29408 0.29667 0.0
H1098 H 0.87637 0.29637 0.34304 0.0
H1099 H 0.86101 0.27666 0.31464 0.0
H1100 H 0.91608 0.32767 0.31816 0.0
H1101 H 0.91399 0.27342 0.38708 0.0
H1102 H 0.90838 0.27026 0.3549 0.0
H1103 H 0.89305 0.2805 0.37564 0.0
C1104 C 0.90005 0.27954 0.28398 0.0
C1105 C 0.88294 0.27389 0.2893 0.0
C1106 C 0.90884 0.29066 0.30036 0.0
C1107 C 0.90058 0.29634 0.32216 0.0
C1108 C 0.88303 0.29184 0.32651 0.0
H1109 H 0.94999 0.36335 0.43436 0.0
H1110 H 0.93036 0.35261 0.40181 0.0
C1111 C 0.87429 0.28061 0.31025 0.0
C1112 C 0.91094 0.30535 0.34146 0.0
H1113 H 0.92785 0.29949 0.3994 0.0
C1114 C 0.91858 0.32162 0.33602 0.0
C1115 C 0.91433 0.29722 0.36454 0.0
C1116 C 0.90716 0.27933 0.37092 0.0
C1117 C 0.92971 0.32996 0.35309 0.0
C1118 C 0.93305 0.32182 0.37616 0.0
C1119 C 0.92518 0.30568 0.38169 0.0
C1120 C 0.94544 0.32918 0.39445 0.0
C1121 C 0.93827 0.34706 0.34604 0.0
C1122 C 0.96032 0.3195 0.4011 0.0
C1123 C 0.97144 0.32547 0.41977 0.0
C1124 C 0.96787 0.34125 0.43223 0.0
C1125 C 0.95313 0.35115 0.42511 0.0
C1126 C 0.94196 0.34511 0.40643 0.0
H1127 H 0.93711 0.34979 0.32586 0.0
H1128 H 0.93186 0.35792 0.35628 0.0
H1129 H 0.95237 0.34699 0.35116 0.0
H1130 H 0.9632 0.30715 0.39204 0.0
H1131 H 0.98274 0.31758 0.4246 0.0
H1132 H 0.88222 0.70438 0.68177 0.0
H1133 H 0.8932 0.68536 0.64869 0.0
H1134 H 0.94146 0.71472 0.64674 0.0
H1135 H 0.93078 0.73368 0.67988 0.0
H1136 H 0.90621 0.69282 0.59967 0.0
H1137 H 0.95656 0.66371 0.6614 0.0
H1138 H 0.93834 0.67634 0.67305 0.0
H1139 H 0.95719 0.68721 0.66023 0.0
C1140 C 0.89514 0.70688 0.67423 0.0
C1141 C 0.90573 0.72041 0.68376 0.0
C1142 C 0.90135 0.69602 0.65529 0.0
C1143 C 0.91822 0.6985 0.64565 0.0
C1144 C 0.92851 0.71243 0.65432 0.0
H1145 H 0.97289 0.66026 0.51825 0.0
H1146 H 0.95356 0.67613 0.5465 0.0
C1147 C 0.92236 0.72325 0.67325 0.0
C1148 C 0.92548 0.68613 0.62726 0.0
H1149 H 0.95931 0.65771 0.61832 0.0
C1150 C 0.91773 0.68499 0.60373 0.0
C1151 C 0.94027 0.67572 0.63287 0.0
C1152 C 0.9485 0.67563 0.65833 0.0
C1153 C 0.92486 0.67417 0.58523 0.0
C1154 C 0.94025 0.66451 0.59044 0.0
C1155 C 0.94757 0.6652 0.6143 0.0
C1156 C 0.94961 0.65419 0.57134 0.0
C1157 C 0.91586 0.67317 0.56037 0.0
C1158 C 0.95379 0.63658 0.57588 0.0
C1159 C 0.96509 0.62758 0.56002 0.0
C1160 C 0.9724 0.63605 0.53933 0.0
C1161 C 0.96747 0.65339 0.53406 0.0
C1162 C 0.95628 0.66244 0.55008 0.0
H1163 H 0.90174 0.67653 0.56189 0.0
H1164 H 0.92203 0.68272 0.54753 0.0
H1165 H 0.91708 0.65989 0.55213 0.0
H1166 H 0.94882 0.62999 0.59223 0.0
H1167 H 0.96858 0.61419 0.56447 0.0
H1168 H 0.50174 0.32246 0.57743 0.0
H1169 H 0.51808 0.31203 0.61342 0.0
H1170 H 0.55851 0.35023 0.59907 0.0
H1171 H 0.54205 0.36102 0.56329 0.0
H1172 H 0.54989 0.29729 0.61005 0.0
H1173 H 0.55322 0.35421 0.67369 0.0
H1174 H 0.53797 0.35314 0.64812 0.0
H1175 H 0.56042 0.35929 0.64283 0.0
C1176 C 0.51399 0.32882 0.58212 0.0
C1177 C 0.52069 0.34247 0.56736 0.0
C1178 C 0.52328 0.32289 0.60276 0.0
C1179 C 0.53944 0.33044 0.60906 0.0
C1180 C 0.54588 0.34446 0.59489 0.0
H1181 H 0.62608 0.27935 0.67879 0.0
H1182 H 0.60631 0.29644 0.65266 0.0
C1183 C 0.53652 0.35053 0.57432 0.0
C1184 C 0.55039 0.32231 0.62859 0.0
H1185 H 0.57338 0.3307 0.68168 0.0
C1186 C 0.55485 0.30458 0.62584 0.0
C1187 C 0.55678 0.33179 0.64927 0.0
C1188 C 0.55172 0.35062 0.65383 0.0
C1189 C 0.5659 0.29618 0.6428 0.0
C1190 C 0.57291 0.30586 0.66281 0.0
C1191 C 0.56809 0.32343 0.66609 0.0
C1192 C 0.58561 0.29781 0.68 0.0
C1193 C 0.57009 0.27702 0.63914 0.0
C1194 C 0.58069 0.29355 0.70431 0.0
C1195 C 0.59198 0.28377 0.71935 0.0
C1196 C 0.6083 0.27817 0.7102 0.0
C1197 C 0.61353 0.28335 0.68631 0.0
C1198 C 0.60228 0.2931 0.67135 0.0
H1199 H 0.56073 0.27059 0.62624 0.0
H1200 H 0.58346 0.27575 0.6312 0.0
H1201 H 0.56987 0.26992 0.65712 0.0
H1202 H 0.56786 0.29713 0.71125 0.0
H1203 H 0.58764 0.28002 0.73773 0.0
H1204 H 0.95849 0.38401 0.94309 0.0
H1205 H 0.93829 0.36745 0.91695 0.0
H1206 H 0.94583 0.32184 0.96299 0.0
H1207 H 0.9656 0.33854 0.98973 0.0
H1208 H 0.95004 0.34024 0.89105 0.0
H1209 H 0.89388 0.31856 0.94847 0.0
H1210 H 0.90842 0.33601 0.95791 0.0
H1211 H 0.91466 0.31349 0.9623 0.0
C1212 C 0.95549 0.37058 0.94802 0.0
C1213 C 0.96377 0.36248 0.96824 0.0
C1214 C 0.94391 0.36115 0.9331 0.0
C1215 C 0.94049 0.34343 0.93805 0.0
C1216 C 0.94798 0.33559 0.95909 0.0
H1217 H 0.9242 0.26221 0.83216 0.0
H1218 H 0.93223 0.2802 0.86784 0.0
C1219 C 0.95941 0.34511 0.97424 0.0
C1220 C 0.93145 0.33261 0.91917 0.0
H1221 H 0.89853 0.3029 0.91017 0.0
C1222 C 0.93862 0.33229 0.89521 0.0
C1223 C 0.91656 0.32223 0.92458 0.0
C1224 C 0.90781 0.3227 0.94966 0.0
C1225 C 0.93165 0.32152 0.8767 0.0
C1226 C 0.91728 0.31058 0.88239 0.0
C1227 C 0.90969 0.31121 0.90607 0.0
C1228 C 0.91052 0.29815 0.86379 0.0
C1229 C 0.93983 0.32171 0.8512 0.0
C1230 C 0.89533 0.30206 0.85029 0.0
C1231 C 0.89071 0.29186 0.82976 0.0
C1232 C 0.90128 0.27765 0.82244 0.0
C1233 C 0.91591 0.2732 0.83703 0.0
C1234 C 0.92048 0.28338 0.85751 0.0
H1235 H 0.94877 0.33306 0.84861 0.0
H1236 H 0.9475 0.30951 0.84848 0.0
H1237 H 0.92953 0.32216 0.83666 0.0
H1238 H 0.88755 0.31348 0.8549 0.0
H1239 H 0.8793 0.29559 0.81903 0.0
H1240 H 0.96104 0.63203 0.07409 0.0
H1241 H 0.9444 0.6407 0.11095 0.0
H1242 H 0.94804 0.69488 0.0887 0.0
H1243 H 0.96515 0.68642 0.05246 0.0
H1244 H 0.95493 0.69128 0.13672 0.0
H1245 H 0.89382 0.65501 0.11409 0.0
H1246 H 0.91304 0.64157 0.11641 0.0
H1247 H 0.91142 0.6576 0.09208 0.0
C1248 C 0.9582 0.64578 0.07701 0.0
C1249 C 0.96434 0.65854 0.06029 0.0
C1250 C 0.94863 0.6507 0.09803 0.0
C1251 C 0.94473 0.66841 0.1024 0.0
C1252 C 0.95089 0.68113 0.08573 0.0
H1253 H 0.86599 0.72268 0.17981 0.0
H1254 H 0.884 0.70466 0.15266 0.0
C1255 C 0.96065 0.67627 0.06497 0.0
C1256 C 0.93443 0.67398 0.12436 0.0
H1257 H 0.89412 0.67088 0.15153 0.0
C1258 C 0.94167 0.68673 0.14009 0.0
C1259 C 0.91712 0.66803 0.12866 0.0
C1260 C 0.90829 0.65492 0.11183 0.0
C1261 C 0.93186 0.69429 0.1593 0.0
C1262 C 0.91449 0.68847 0.16346 0.0
C1263 C 0.90749 0.67518 0.14842 0.0
C1264 C 0.90269 0.69754 0.18112 0.0
C1265 C 0.93984 0.70916 0.17394 0.0
C1266 C 0.90688 0.69908 0.2064 0.0
C1267 C 0.89668 0.70962 0.22199 0.0
C1268 C 0.88202 0.71854 0.21255 0.0
C1269 C 0.87726 0.71606 0.18763 0.0
C1270 C 0.88752 0.70571 0.17207 0.0
H1271 H 0.95183 0.71444 0.16492 0.0
H1272 H 0.93032 0.72005 0.17624 0.0
H1273 H 0.94356 0.70437 0.19264 0.0
H1274 H 0.9183 0.69253 0.21391 0.0
H1275 H 0.90056 0.71119 0.24119 0.0
H1276 H 0.56896 0.72497 0.32633 0.0
H1277 H 0.56397 0.70994 0.36532 0.0
H1278 H 0.61883 0.69651 0.36952 0.0
H1279 H 0.62388 0.71113 0.32969 0.0
H1280 H 0.60016 0.66897 0.37849 0.0
H1281 H 0.57267 0.72149 0.4359 0.0
H1282 H 0.5607 0.7211 0.40737 0.0
H1283 H 0.58386 0.72605 0.4071 0.0
C1284 C 0.58007 0.71906 0.33563 0.0
C1285 C 0.59682 0.71923 0.32481 0.0
C1286 C 0.57722 0.71062 0.35817 0.0
C1287 C 0.5911 0.70246 0.37075 0.0
C1288 C 0.60795 0.70288 0.36029 0.0
H1289 H 0.54186 0.65191 0.49887 0.0
H1290 H 0.56462 0.66912 0.47788 0.0
C1291 C 0.6108 0.71119 0.33749 0.0
C1292 C 0.58732 0.69191 0.39322 0.0
H1293 H 0.56056 0.69192 0.44379 0.0
C1294 C 0.59192 0.6741 0.39318 0.0
C1295 C 0.57714 0.69861 0.41301 0.0
C1296 C 0.57353 0.71793 0.41595 0.0
C1297 C 0.58497 0.66251 0.4108 0.0
C1298 C 0.5726 0.6688 0.42822 0.0
C1299 C 0.56963 0.68692 0.43 0.0
C1300 C 0.56082 0.65683 0.44207 0.0
C1301 C 0.59049 0.64355 0.40991 0.0
C1302 C 0.55116 0.64417 0.42901 0.0
C1303 C 0.53841 0.63422 0.44099 0.0
C1304 C 0.53471 0.63702 0.46617 0.0
C1305 C 0.54448 0.6495 0.47942 0.0
C1306 C 0.55748 0.65931 0.46747 0.0
H1307 H 0.60448 0.64242 0.40438 0.0
H1308 H 0.58868 0.63695 0.42808 0.0
H1309 H 0.58263 0.63657 0.39568 0.0
H1310 H 0.55293 0.64244 0.40924 0.0
H1311 H 0.53097 0.62483 0.43022 0.0
H1312 H 0.47969 0.33135 0.09018 0.0
H1313 H 0.46009 0.32491 0.12482 0.0
H1314 H 0.42555 0.36647 0.10171 0.0
H1315 H 0.44515 0.37319 0.06694 0.0
H1316 H 0.43902 0.35309 0.16409 0.0
H1317 H 0.40296 0.31174 0.09567 0.0
H1318 H 0.42624 0.31505 0.09213 0.0
H1319 H 0.41149 0.33298 0.08726 0.0
C1320 C 0.46812 0.33937 0.0927 0.0
C1321 C 0.46384 0.3526 0.07561 0.0
C1322 C 0.45702 0.33575 0.1126 0.0
C1323 C 0.44146 0.34523 0.11567 0.0
C1324 C 0.43761 0.35914 0.09962 0.0
H1325 H 0.36003 0.28806 0.19421 0.0
H1326 H 0.37291 0.3121 0.17038 0.0
C1327 C 0.4488 0.36289 0.07977 0.0
C1328 C 0.42826 0.33871 0.13332 0.0
H1329 H 0.39668 0.30741 0.13771 0.0
C1330 C 0.42947 0.34336 0.15839 0.0
C1331 C 0.41573 0.32625 0.12563 0.0
C1332 C 0.41387 0.32113 0.09872 0.0
C1333 C 0.41893 0.33513 0.1763 0.0
C1334 C 0.40741 0.32155 0.16886 0.0
C1335 C 0.40551 0.31776 0.14351 0.0
C1336 C 0.3987 0.30968 0.18682 0.0
C1337 C 0.42046 0.3409 0.20296 0.0
C1338 C 0.40876 0.30059 0.20443 0.0
C1339 C 0.40134 0.28706 0.21833 0.0
C1340 C 0.38387 0.28205 0.21436 0.0
C1341 C 0.37359 0.29157 0.19748 0.0
C1342 C 0.38092 0.30534 0.18393 0.0
H1343 H 0.42365 0.35508 0.20413 0.0
H1344 H 0.40818 0.33842 0.21344 0.0
H1345 H 0.43131 0.33361 0.21198 0.0
H1346 H 0.42261 0.30326 0.20651 0.0
H1347 H 0.40958 0.27995 0.2312 0.0
H1348 H 0.46285 0.65567 0.98872 0.0
H1349 H 0.44278 0.67348 0.96361 0.0
H1350 H 0.45351 0.64074 0.90015 0.0
H1351 H 0.47296 0.62274 0.92509 0.0
H1352 H 0.45064 0.69278 0.92457 0.0
H1353 H 0.40148 0.64427 0.89516 0.0
H1354 H 0.41665 0.64001 0.92014 0.0
H1355 H 0.42296 0.63613 0.88835 0.0
C1356 C 0.46063 0.65212 0.96953 0.0
C1357 C 0.46941 0.63779 0.95888 0.0
C1358 C 0.44918 0.66229 0.95523 0.0
C1359 C 0.44636 0.65824 0.93012 0.0
C1360 C 0.455 0.6438 0.91965 0.0
H1361 H 0.4337 0.72146 0.80402 0.0
H1362 H 0.44243 0.70648 0.84194 0.0
C1363 C 0.46628 0.6336 0.93391 0.0
C1364 C 0.43583 0.66991 0.91399 0.0
H1365 H 0.40617 0.66876 0.86673 0.0
C1366 C 0.44062 0.68763 0.9123 0.0
C1367 C 0.42244 0.66336 0.89838 0.0
C1368 C 0.41547 0.64494 0.90083 0.0
C1369 C 0.43337 0.69859 0.89413 0.0
C1370 C 0.42144 0.69147 0.87672 0.0
C1371 C 0.41562 0.67414 0.87969 0.0
C1372 C 0.41592 0.70124 0.85429 0.0
C1373 C 0.43882 0.71759 0.89354 0.0
C1374 C 0.39812 0.70274 0.84809 0.0
C1375 C 0.39308 0.71098 0.82606 0.0
C1376 C 0.40577 0.7179 0.80985 0.0
C1377 C 0.42358 0.71641 0.81617 0.0
C1378 C 0.42859 0.708 0.83801 0.0
H1379 H 0.44217 0.72234 0.91244 0.0
H1380 H 0.45071 0.71899 0.88186 0.0
H1381 H 0.42832 0.72606 0.88581 0.0
H1382 H 0.38812 0.69748 0.86026 0.0
H1383 H 0.37925 0.71197 0.82179 0.0
H1384 H 0.09235 0.71808 0.7304 0.0
H1385 H 0.07858 0.69673 0.703 0.0
H1386 H 0.12631 0.69308 0.66036 0.0
H1387 H 0.13996 0.71498 0.6872 0.0
H1388 H 0.09974 0.70126 0.63196 0.0
H1389 H 0.07971 0.64507 0.68985 0.0
H1390 H 0.07224 0.66526 0.70313 0.0
H1391 H 0.09542 0.66115 0.70036 0.0
C1392 C 0.10004 0.71247 0.71551 0.0
C1393 C 0.11713 0.71839 0.71068 0.0
C1394 C 0.09221 0.70008 0.70001 0.0
C1395 C 0.10146 0.69315 0.67976 0.0
C1396 C 0.11894 0.69822 0.67592 0.0
H1397 H 0.04947 0.62817 0.56632 0.0
H1398 H 0.06961 0.63685 0.59955 0.0
C1399 C 0.12671 0.71076 0.69123 0.0
C1400 C 0.09207 0.68299 0.6605 0.0
H1401 H 0.06286 0.64961 0.65195 0.0
C1402 C 0.092 0.68973 0.63627 0.0
C1403 C 0.08204 0.66788 0.66601 0.0
C1404 C 0.08251 0.65933 0.69121 0.0
C1405 C 0.08143 0.6824 0.61781 0.0
C1406 C 0.07038 0.66818 0.62385 0.0
C1407 C 0.07117 0.66072 0.64758 0.0
C1408 C 0.05716 0.66187 0.60602 0.0
C1409 C 0.08176 0.69026 0.59212 0.0
C1410 C 0.04326 0.67289 0.59934 0.0
C1411 C 0.0318 0.66805 0.58043 0.0
C1412 C 0.03401 0.65206 0.56785 0.0
C1413 C 0.04745 0.64063 0.57551 0.0
C1414 C 0.05895 0.64551 0.5945 0.0
H1415 H 0.09391 0.69795 0.58885 0.0
H1416 H 0.08077 0.6799 0.57773 0.0
H1417 H 0.0704 0.6992 0.58994 0.0
H1418 H 0.0416 0.68549 0.60829 0.0
H1419 H 0.02148 0.6771 0.57526 0.0
H1420 H 0.02211 0.37696 0.41681 0.0
H1421 H 0.03879 0.35872 0.3881 0.0
H1422 H 0.05293 0.32419 0.4482 0.0
H1423 H 0.03577 0.34214 0.477 0.0
H1424 H 0.0727 0.3484 0.38499 0.0
H1425 H 0.02917 0.29103 0.4001 0.0
H1426 H 0.02399 0.31258 0.41166 0.0
H1427 H 0.03958 0.29903 0.42772 0.0
C1428 C 0.02892 0.36559 0.424 0.0
C1429 C 0.02749 0.36085 0.44909 0.0
C1430 C 0.03845 0.35518 0.40756 0.0
C1431 C 0.04678 0.33991 0.41592 0.0
C1432 C 0.04623 0.33569 0.44126 0.0
H1433 H 0.11557 0.28027 0.31644 0.0
H1434 H 0.10455 0.29783 0.35102 0.0
C1435 C 0.03654 0.34602 0.4577 0.0
C1436 C 0.05533 0.3281 0.3978 0.0
H1437 H 0.0532 0.28696 0.37319 0.0
C1438 C 0.06853 0.33493 0.38246 0.0
C1439 C 0.04961 0.31064 0.39429 0.0
C1440 C 0.0347 0.30289 0.40912 0.0
C1441 C 0.07604 0.32484 0.36347 0.0
C1442 C 0.07053 0.30727 0.36025 0.0
C1443 C 0.0575 0.30038 0.37583 0.0
C1444 C 0.07734 0.29609 0.33993 0.0
C1445 C 0.08924 0.33335 0.34644 0.0
C1446 C 0.06565 0.2887 0.32277 0.0
C1447 C 0.07186 0.27839 0.30328 0.0
C1448 C 0.08992 0.27536 0.30046 0.0
C1449 C 0.1016 0.28254 0.31791 0.0
C1450 C 0.09534 0.29267 0.33761 0.0
H1451 H 0.08844 0.34788 0.34719 0.0
H1452 H 0.10264 0.3295 0.35225 0.0
H1453 H 0.08728 0.32911 0.32694 0.0
H1454 H 0.0517 0.29112 0.32425 0.0
H1455 H 0.06251 0.27308 0.29017 0.0
H1456 H 0.48658 0.6844 0.44125 0.0
H1457 H 0.46912 0.69598 0.40703 0.0
H1458 H 0.44067 0.64727 0.40262 0.0
H1459 H 0.45824 0.63539 0.43657 0.0
H1460 H 0.45024 0.66042 0.35631 0.0
H1461 H 0.41808 0.71133 0.41399 0.0
H1462 H 0.44158 0.71223 0.41481 0.0
H1463 H 0.43038 0.69345 0.42726 0.0
C1464 C 0.47662 0.67611 0.43304 0.0
C1465 C 0.47371 0.65901 0.44186 0.0
C1466 C 0.46662 0.68279 0.41352 0.0
C1467 C 0.45342 0.67258 0.40261 0.0
C1468 C 0.45076 0.65537 0.4109 0.0
H1469 H 0.36973 0.71707 0.31465 0.0
H1470 H 0.38668 0.69987 0.34433 0.0
C1471 C 0.4608 0.64864 0.43035 0.0
C1472 C 0.44221 0.67996 0.38281 0.0
H1473 H 0.41362 0.71316 0.37052 0.0
C1474 C 0.44215 0.6719 0.35939 0.0
C1475 C 0.43148 0.69476 0.38704 0.0
C1476 C 0.43021 0.70337 0.41219 0.0
C1477 C 0.43189 0.67851 0.33989 0.0
C1478 C 0.42168 0.69371 0.3439 0.0
C1479 C 0.42153 0.70155 0.36745 0.0
C1480 C 0.41108 0.70192 0.32406 0.0
C1481 C 0.43189 0.66903 0.31534 0.0
C1482 C 0.41908 0.70843 0.3025 0.0
C1483 C 0.40937 0.71814 0.28534 0.0
C1484 C 0.39157 0.72173 0.28974 0.0
C1485 C 0.38344 0.71459 0.31082 0.0
C1486 C 0.39311 0.70478 0.32781 0.0
H1487 H 0.43615 0.65519 0.31741 0.0
H1488 H 0.41868 0.66924 0.3067 0.0
H1489 H 0.44119 0.67562 0.30255 0.0
H1490 H 0.433 0.70668 0.29946 0.0
H1491 H 0.41599 0.72348 0.26928 0.0
H1492 H 0.02725 0.62305 0.06681 0.0
H1493 H 0.04537 0.64142 0.09364 0.0
H1494 H 0.04512 0.68228 0.03843 0.0
H1495 H 0.02708 0.6639 0.01126 0.0
H1496 H 0.07886 0.67618 0.0646 0.0
H1497 H 0.02125 0.68506 0.12642 0.0
H1498 H 0.02663 0.66267 0.1195 0.0
H1499 H 0.01934 0.67693 0.09509 0.0
C1500 C 0.03126 0.63583 0.06019 0.0
C1501 C 0.02556 0.64215 0.03709 0.0
C1502 C 0.04159 0.6463 0.07555 0.0
C1503 C 0.04631 0.66324 0.06809 0.0
C1504 C 0.04152 0.66923 0.04447 0.0
H1505 H 0.07372 0.74353 0.17457 0.0
H1506 H 0.06204 0.72812 0.13855 0.0
C1507 C 0.03119 0.65874 0.02904 0.0
C1508 C 0.05499 0.67514 0.08582 0.0
H1509 H 0.04845 0.69575 0.14109 0.0
C1510 C 0.07225 0.68058 0.08128 0.0
C1511 C 0.04614 0.68104 0.10726 0.0
C1512 C 0.02726 0.67628 0.11235 0.0
C1513 C 0.08112 0.69144 0.09816 0.0
C1514 C 0.0725 0.69673 0.12016 0.0
C1515 C 0.05507 0.69162 0.12427 0.0
C1516 C 0.08123 0.70726 0.13962 0.0
C1517 C 0.09954 0.69725 0.09221 0.0
C1518 C 0.09609 0.70079 0.15192 0.0
C1519 C 0.1029 0.70966 0.17245 0.0
C1520 C 0.09478 0.72498 0.18126 0.0
C1521 C 0.08022 0.7317 0.16839 0.0
C1522 C 0.07355 0.72293 0.14776 0.0
H1523 H 0.10223 0.69656 0.07198 0.0
H1524 H 0.10194 0.71086 0.09867 0.0
H1525 H 0.10897 0.68846 0.10174 0.0
H1526 H 0.10199 0.68851 0.14631 0.0
H1527 H 0.11409 0.70411 0.182 0.0
H1528 H 0.12402 0.2727 0.82497 0.0
H1529 H 0.10592 0.28994 0.85313 0.0
H1530 H 0.07128 0.30313 0.79271 0.0
H1531 H 0.08908 0.28534 0.76447 0.0
H1532 H 0.09593 0.32376 0.85523 0.0
H1533 H 0.03797 0.28072 0.8416 0.0
H1534 H 0.0594 0.27515 0.82995 0.0
H1535 H 0.046 0.29079 0.81374 0.0
C1536 C 0.11265 0.2794 0.81759 0.0
C1537 C 0.10784 0.27752 0.79258 0.0
C1538 C 0.10232 0.28926 0.83371 0.0
C1539 C 0.08706 0.29752 0.82512 0.0
C1540 C 0.08276 0.29649 0.79984 0.0
H1541 H 0.02904 0.36652 0.92682 0.0
H1542 H 0.04591 0.35587 0.89129 0.0
C1543 C 0.093 0.28644 0.78371 0.0
C1544 C 0.07539 0.30645 0.84304 0.0
H1545 H 0.03449 0.30474 0.86854 0.0
C1546 C 0.08245 0.31971 0.85807 0.0
C1547 C 0.0579 0.30092 0.84691 0.0
C1548 C 0.04987 0.28602 0.83239 0.0
C1549 C 0.07264 0.32733 0.87726 0.0
C1550 C 0.05509 0.32191 0.88097 0.0
C1551 C 0.0479 0.30895 0.86554 0.0
C1552 C 0.04432 0.32855 0.90184 0.0
C1553 C 0.08146 0.34049 0.89403 0.0
C1554 C 0.03726 0.31669 0.91904 0.0
C1555 C 0.02734 0.32269 0.93905 0.0
C1556 C 0.0244 0.34071 0.94238 0.0
C1557 C 0.03127 0.35257 0.92494 0.0
C1558 C 0.041 0.34652 0.9047 0.0
H1559 H 0.09597 0.33973 0.89273 0.0
H1560 H 0.07746 0.3539 0.88847 0.0
H1561 H 0.07759 0.33845 0.91367 0.0
H1562 H 0.03962 0.30275 0.91717 0.0
H1563 H 0.02226 0.3132 0.95215 0.0
H1564 H 0.4691 0.37854 0.56842 0.0
H1565 H 0.45066 0.36097 0.59572 0.0
H1566 H 0.43798 0.32666 0.5347 0.0
H1567 H 0.45705 0.34385 0.5074 0.0
H1568 H 0.41696 0.35036 0.5979 0.0
H1569 H 0.46116 0.29345 0.58273 0.0
H1570 H 0.46624 0.31507 0.57144 0.0
H1571 H 0.45077 0.30151 0.55515 0.0
C1572 C 0.46216 0.36743 0.56068 0.0
C1573 C 0.46471 0.36237 0.5359 0.0
C1574 C 0.4516 0.3574 0.57631 0.0
C1575 C 0.4433 0.34227 0.56737 0.0
C1576 C 0.44466 0.33802 0.54211 0.0
H1577 H 0.37813 0.28176 0.67202 0.0
H1578 H 0.38691 0.29937 0.63613 0.0
C1579 C 0.45545 0.3479 0.52652 0.0
C1580 C 0.43459 0.33029 0.58509 0.0
H1581 H 0.43766 0.28939 0.6102 0.0
C1582 C 0.42135 0.33697 0.6005 0.0
C1583 C 0.44058 0.31292 0.58864 0.0
C1584 C 0.45557 0.30532 0.57381 0.0
C1585 C 0.41428 0.32692 0.61989 0.0
C1586 C 0.42026 0.30954 0.62339 0.0
C1587 C 0.43306 0.30269 0.6074 0.0
C1588 C 0.41462 0.29866 0.64472 0.0
C1589 C 0.40119 0.33535 0.63716 0.0
C1590 C 0.42731 0.29193 0.66097 0.0
C1591 C 0.42239 0.28157 0.68109 0.0
C1592 C 0.40463 0.27788 0.68554 0.0
C1593 C 0.3919 0.28456 0.66921 0.0
C1594 C 0.39688 0.29471 0.64879 0.0
H1595 H 0.4014 0.34987 0.6357 0.0
H1596 H 0.38781 0.33084 0.63224 0.0
H1597 H 0.4038 0.33167 0.65673 0.0
H1598 H 0.44108 0.2948 0.65819 0.0
H1599 H 0.4325 0.27668 0.69337 0.0
H1600 H 0.32489 0.25235 0.28759 0.0
H1601 H 0.29311 0.25579 0.29053 0.0
H1602 H 0.28622 0.21772 0.23221 0.0
H1603 H 0.31792 0.214 0.22938 0.0
H1604 H 0.27443 0.26836 0.25061 0.0
H1605 H 0.24765 0.20435 0.28083 0.0
H1606 H 0.2704 0.21024 0.28491 0.0
H1607 H 0.26268 0.20249 0.25536 0.0
C1608 C 0.31659 0.24433 0.27588 0.0
C1609 C 0.32388 0.23301 0.2581 0.0
C1610 C 0.29845 0.24635 0.27757 0.0
C1611 C 0.28735 0.237 0.26163 0.0
C1612 C 0.29455 0.22485 0.24497 0.0
H1613 H 0.18046 0.23988 0.21317 0.0
H1614 H 0.21212 0.23617 0.21747 0.0
C1615 C 0.31269 0.22279 0.24331 0.0
C1616 C 0.26857 0.24156 0.26007 0.0
H1617 H 0.22745 0.22413 0.26158 0.0
C1618 C 0.26412 0.25876 0.25332 0.0
C1619 C 0.25521 0.22898 0.2635 0.0
C1620 C 0.25919 0.21052 0.27178 0.0
C1621 C 0.24665 0.26359 0.24904 0.0
C1622 C 0.23334 0.25089 0.2519 0.0
C1623 C 0.23775 0.23379 0.25918 0.0
C1624 C 0.2147 0.25495 0.24731 0.0
C1625 C 0.24266 0.28203 0.2407 0.0
C1626 C 0.20582 0.26711 0.26222 0.0
C1627 C 0.18774 0.26937 0.25966 0.0
C1628 C 0.1783 0.25934 0.24236 0.0
C1629 C 0.18738 0.24779 0.22667 0.0
C1630 C 0.20544 0.24559 0.22917 0.0
H1631 H 0.25454 0.28884 0.23368 0.0
H1632 H 0.23254 0.28206 0.2259 0.0
H1633 H 0.2375 0.28963 0.25666 0.0
H1634 H 0.21271 0.27427 0.27656 0.0
H1635 H 0.18108 0.27828 0.27213 0.0
H1636 H 0.96627 0.93321 0.52447 0.0
H1637 H 0.97119 0.96473 0.52843 0.0
H1638 H 0.01098 0.96219 0.47171 0.0
H1639 H 0.00634 0.93063 0.46787 0.0
H1640 H 0.02225 0.97721 0.5167 0.0
H1641 H 0.95979 0.00689 0.48411 0.0
H1642 H 0.95756 0.98997 0.50705 0.0
H1643 H 0.96591 0.98463 0.47683 0.0
C1644 C 0.97574 0.93943 0.51237 0.0
C1645 C 0.986 0.92945 0.49594 0.0
C1646 C 0.97852 0.95744 0.51466 0.0
C1647 C 0.99145 0.96573 0.50036 0.0
C1648 C 0.00098 0.95597 0.48295 0.0
H1649 H 0.03755 0.06608 0.48143 0.0
H1650 H 0.03235 0.03472 0.48595 0.0
C1651 C 0.99825 0.93797 0.4807 0.0
C1652 C 0.99616 0.98421 0.50502 0.0
H1653 H 0.98069 0.02601 0.50172 0.0
C1654 C 0.01317 0.98791 0.51345 0.0
C1655 C 0.98419 0.99804 0.50109 0.0
C1656 C 0.96587 0.99477 0.49159 0.0
C1657 C 0.01865 0.00517 0.51774 0.0
C1658 C 0.00685 0.01904 0.51312 0.0
C1659 C 0.98968 0.01531 0.50535 0.0
C1660 C 0.01234 0.03759 0.51413 0.0
C1661 C 0.03697 0.0084 0.52718 0.0
C1662 C 0.00309 0.04956 0.5289 0.0
C1663 C 0.00598 0.06752 0.52627 0.0
C1664 C 0.01805 0.07375 0.50864 0.0
C1665 C 0.02818 0.06168 0.49518 0.0
C1666 C 0.02527 0.04373 0.49782 0.0
H1667 H 0.04221 0.99677 0.5371 0.0
H1668 H 0.04575 0.01112 0.51122 0.0
H1669 H 0.03739 0.01986 0.53987 0.0
H1670 H 0.99304 0.04504 0.54158 0.0
H1671 H 0.998 0.07652 0.53694 0.0
H1672 H 0.31623 0.7145 0.77176 0.0
H1673 H 0.28459 0.71966 0.77358 0.0
H1674 H 0.28903 0.75759 0.71462 0.0
H1675 H 0.32056 0.75245 0.71252 0.0
H1676 H 0.27075 0.75305 0.78494 0.0
H1677 H 0.24603 0.72853 0.69458 0.0
H1678 H 0.26699 0.72206 0.70718 0.0
H1679 H 0.26459 0.7429 0.69202 0.0
C1680 C 0.31039 0.72359 0.75873 0.0
C1681 C 0.32086 0.73314 0.74206 0.0
C1682 C 0.29236 0.72658 0.75989 0.0
C1683 C 0.28453 0.73897 0.74421 0.0
C1684 C 0.2948 0.7478 0.72665 0.0
H1685 H 0.18233 0.78557 0.72814 0.0
H1686 H 0.21403 0.78091 0.72915 0.0
C1687 C 0.31283 0.74488 0.72553 0.0
C1688 C 0.266 0.74393 0.74772 0.0
H1689 H 0.22675 0.7467 0.71785 0.0
C1690 C 0.26106 0.75155 0.77038 0.0
C1691 C 0.2535 0.74202 0.7286 0.0
C1692 C 0.25796 0.73329 0.7043 0.0
C1693 C 0.24394 0.75766 0.77424 0.0
C1694 C 0.23151 0.75592 0.75501 0.0
C1695 C 0.23643 0.74819 0.73244 0.0
C1696 C 0.21306 0.76129 0.75807 0.0
C1697 C 0.23936 0.76622 0.79861 0.0
C1698 C 0.20219 0.75227 0.77468 0.0
C1699 C 0.1841 0.7549 0.77417 0.0
C1700 C 0.17664 0.76651 0.75691 0.0
C1701 C 0.1877 0.77652 0.74163 0.0
C1702 C 0.20579 0.77384 0.7421 0.0
H1703 H 0.25125 0.77036 0.80897 0.0
H1704 H 0.23085 0.77784 0.79564 0.0
H1705 H 0.23205 0.75674 0.8103 0.0
H1706 H 0.20756 0.74239 0.78694 0.0
H1707 H 0.1759 0.74701 0.78619 0.0
H1708 H 0.5315 0.06315 0.01216 0.0
H1709 H 0.52356 0.03214 0.01052 0.0
H1710 H 0.48347 0.04362 0.95658 0.0
H1711 H 0.4913 0.07468 0.95805 0.0
H1712 H 0.48723 0.02242 0.02323 0.0
H1713 H 0.50862 0.99822 0.93059 0.0
H1714 H 0.51857 0.017 0.94537 0.0
H1715 H 0.49728 0.01889 0.93155 0.0
C1716 C 0.52135 0.05903 -0.0006 0.0
C1717 C 0.51192 0.07136 0.98538 0.0
C1718 C 0.51679 0.04133 -0.00142 0.0
C1719 C 0.50292 0.03569 0.98352 0.0
C1720 C 0.4943 0.04776 0.96818 0.0
H1721 H 0.4572 0.93181 0.96759 0.0
H1722 H 0.46032 0.96371 0.96655 0.0
C1723 C 0.4988 0.06548 0.96906 0.0
C1724 C 0.49622 0.01766 0.98596 0.0
H1725 H 0.4924 0.97872 0.95556 0.0
C1726 C 0.48833 0.01283 0.00846 0.0
C1727 C 0.49745 0.00538 0.96649 0.0
C1728 C 0.50602 0.00999 0.94213 0.0
C1729 C 0.48179 0.99587 0.01214 0.0
C1730 C 0.48352 0.98339 0.99295 0.0
C1731 C 0.49103 0.98837 0.97021 0.0
C1732 C 0.47904 0.96474 0.99664 0.0
C1733 C 0.47306 0.99149 0.03646 0.0
C1734 C 0.48809 0.95489 0.01447 0.0
C1735 C 0.4863 0.93671 0.01517 0.0
C1736 C 0.47555 0.92809 0.99789 0.0
C1737 C 0.46557 0.93809 0.98116 0.0
C1738 C 0.46739 0.9563 0.98046 0.0
H1739 H 0.4678 0.00341 0.04564 0.0
H1740 H 0.46219 0.98199 0.03382 0.0
H1741 H 0.48286 0.98553 0.04912 0.0
H1742 H 0.49736 0.96112 0.02687 0.0
H1743 H 0.49417 0.92936 0.02826 0.0
H1744 H 0.18135 0.75072 0.28097 0.0
H1745 H 0.21323 0.75295 0.27883 0.0
H1746 H 0.21437 0.71263 0.22281 0.0
H1747 H 0.18238 0.71047 0.22454 0.0
H1748 H 0.24127 0.72914 0.28385 0.0
H1749 H 0.23581 0.75571 0.18803 0.0
H1750 H 0.21711 0.75339 0.20824 0.0
H1751 H 0.2261 0.73454 0.19289 0.0
C1752 C 0.18839 0.74207 0.26854 0.0
C1753 C 0.17936 0.73061 0.25264 0.0
C1754 C 0.2066 0.74339 0.26732 0.0
C1755 C 0.21604 0.73328 0.25021 0.0
C1756 C 0.20722 0.72082 0.23573 0.0
H1757 H 0.32719 0.73691 0.21421 0.0
H1758 H 0.29576 0.73039 0.21384 0.0
C1759 C 0.18898 0.71951 0.23689 0.0
C1760 C 0.2349 0.73673 0.24648 0.0
H1761 H 0.26429 0.75309 0.20465 0.0
C1762 C 0.24634 0.73429 0.26652 0.0
C1763 C 0.24137 0.74354 0.22384 0.0
C1764 C 0.22948 0.74711 0.20204 0.0
C1765 C 0.26414 0.73854 0.26454 0.0
C1766 C 0.27054 0.7456 0.24205 0.0
C1767 C 0.25922 0.74771 0.22184 0.0
C1768 C 0.28898 0.75108 0.23949 0.0
C1769 C 0.27602 0.73547 0.28649 0.0
C1770 C 0.29529 0.76538 0.25312 0.0
C1771 C 0.31317 0.76921 0.25327 0.0
C1772 C 0.32497 0.75874 0.23983 0.0
C1773 C 0.31841 0.74516 0.22483 0.0
C1774 C 0.3005 0.74139 0.22463 0.0
H1775 H 0.26993 0.72664 0.30042 0.0
H1776 H 0.28869 0.72972 0.28044 0.0
H1777 H 0.27885 0.74819 0.29564 0.0
H1778 H 0.28647 0.77315 0.2644 0.0
H1779 H 0.3178 0.7798 0.26492 0.0
H1780 H 0.49471 0.92729 0.52742 0.0
H1781 H 0.49121 0.95908 0.5256 0.0
H1782 H 0.53022 0.96192 0.46787 0.0
H1783 H 0.53394 0.93009 0.46964 0.0
H1784 H 0.53146 0.98956 0.50522 0.0
H1785 H 0.46542 0.97987 0.46393 0.0
H1786 H 0.46913 0.96855 0.49268 0.0
H1787 H 0.48152 0.96257 0.46564 0.0
C1788 C 0.50282 0.9347 0.5147 0.0
C1789 C 0.51443 0.9262 0.49843 0.0
C1790 C 0.50072 0.95282 0.51359 0.0
C1791 C 0.51014 0.96267 0.49616 0.0
C1792 C 0.52272 0.95443 0.48124 0.0
H1793 H 0.5087 0.07374 0.45958 0.0
H1794 H 0.51321 0.04206 0.45731 0.0
C1795 C 0.52486 0.93628 0.48235 0.0
C1796 C 0.50604 0.98136 0.4925 0.0
H1797 H 0.4733 0.00901 0.4744 0.0
C1798 C 0.51882 0.99387 0.49834 0.0
C1799 C 0.48953 0.98679 0.48337 0.0
C1800 C 0.47563 0.97377 0.47581 0.0
C1801 C 0.5153 0.01182 0.49608 0.0
C1802 C 0.49869 0.01727 0.48727 0.0
C1803 C 0.48601 0.00473 0.48108 0.0
C1804 C 0.49402 0.03598 0.48556 0.0
C1805 C 0.52916 0.02481 0.5039 0.0
C1806 C 0.48093 0.04284 0.50103 0.0
C1807 C 0.47818 0.06089 0.50219 0.0
C1808 C 0.48853 0.0723 0.4879 0.0
C1809 C 0.50067 0.06526 0.47101 0.0
C1810 C 0.50335 0.04721 0.46979 0.0
H1811 H 0.5396 0.01856 0.51523 0.0
H1812 H 0.53539 0.0305 0.48714 0.0
H1813 H 0.52329 0.03568 0.51478 0.0
H1814 H 0.47349 0.0343 0.51316 0.0
H1815 H 0.46869 0.06594 0.51531 0.0
H1816 H 0.17842 0.21539 0.76814 0.0
H1817 H 0.21031 0.21882 0.76858 0.0
H1818 H 0.20599 0.26356 0.72014 0.0
H1819 H 0.17412 0.26021 0.71944 0.0
H1820 H 0.23447 0.23954 0.70925 0.0
H1821 H 0.23197 0.26069 0.80795 0.0
H1822 H 0.22168 0.24004 0.80113 0.0
H1823 H 0.21274 0.25988 0.78847 0.0
C1824 C 0.18427 0.22576 0.75721 0.0
C1825 C 0.17379 0.23767 0.74399 0.0
C1826 C 0.20246 0.22775 0.75762 0.0
C1827 C 0.21035 0.24166 0.74483 0.0
C1828 C 0.20004 0.25284 0.73029 0.0
H1829 H 0.31619 0.28166 0.72982 0.0
H1830 H 0.28429 0.27838 0.72959 0.0
C1831 C 0.18187 0.25089 0.72991 0.0
C1832 C 0.22924 0.24517 0.74764 0.0
H1833 H 0.26004 0.25804 0.78978 0.0
C1834 C 0.2401 0.24361 0.7268 0.0
C1835 C 0.23641 0.25055 0.77061 0.0
C1836 C 0.22512 0.25305 0.79332 0.0
C1837 C 0.25811 0.247 0.72843 0.0
C1838 C 0.26528 0.25242 0.75138 0.0
C1839 C 0.25442 0.25396 0.77223 0.0
C1840 C 0.28417 0.25598 0.75418 0.0
C1841 C 0.26939 0.2444 0.70572 0.0
C1842 C 0.29444 0.24508 0.7692 0.0
C1843 C 0.31263 0.24699 0.76952 0.0
C1844 C 0.32075 0.25986 0.75485 0.0
C1845 C 0.3103 0.27155 0.74118 0.0
C1846 C 0.29211 0.26962 0.74089 0.0
H1847 H 0.26261 0.2365 0.69131 0.0
H1848 H 0.27261 0.25736 0.69758 0.0
H1849 H 0.28189 0.2378 0.71064 0.0
H1850 H 0.28847 0.23459 0.77977 0.0
H1851 H 0.32034 0.23785 0.78034 0.0
H1852 H 0.96199 0.06302 0.97648 0.0
H1853 H 0.96596 0.03123 0.97755 0.0
H1854 H 0.00607 0.03708 0.03328 0.0
H1855 H 0.00211 0.0688 0.03253 0.0
H1856 H 0.99874 0.01673 0.96478 0.0
H1857 H 0.97741 0.99513 0.05837 0.0
H1858 H 0.97066 0.01574 0.04496 0.0
H1859 H 0.99207 0.01355 0.05848 0.0
C1860 C 0.97128 0.05751 0.9895 0.0
C1861 C 0.98185 0.06839 0.00429 0.0
C1862 C 0.97357 0.03937 0.99 0.0
C1863 C 0.98629 0.03187 0.00548 0.0
C1864 C 0.99603 0.04262 0.02145 0.0
H1865 H 0.03211 0.92904 0.02215 0.0
H1866 H 0.02748 0.96075 0.02126 0.0
C1867 C 0.99378 0.06075 0.02092 0.0
C1868 C 0.99088 0.01319 0.00285 0.0
H1869 H 0.99408 0.97476 0.03469 0.0
C1870 C 0.99759 0.00749 0.97998 0.0
C1871 C 0.98953 0.00131 0.02282 0.0
C1872 C 0.98189 0.00666 0.04749 0.0
C1873 C 0.00324 0.99018 0.97664 0.0
C1874 C 0.00192 0.97832 0.99663 0.0
C1875 C 0.99519 0.98401 0.01948 0.0
C1876 C 0.00668 0.95969 0.99404 0.0
C1877 C 0.01086 0.9848 0.95197 0.0
C1878 C 0.99686 0.94875 0.97845 0.0
C1879 C -0.00053 0.93067 0.97891 0.0
C1880 C 0.01188 0.92327 0.99506 0.0
C1881 C 0.02247 0.93437 0.00949 0.0
C1882 C 0.0198 0.95246 0.00909 0.0
H1883 H 0.01499 0.99632 0.94081 0.0
H1884 H 0.02233 0.97603 0.95458 0.0
H1885 H 0.0008 0.97752 0.94126 0.0
H1886 H 0.98654 0.9541 0.96692 0.0
H1887 H 0.99111 0.92244 0.96758 0.0
H1888 H 0.81555 0.71748 0.72164 0.0
H1889 H 0.78374 0.72173 0.72031 0.0
H1890 H 0.7878 0.76172 0.77651 0.0
H1891 H 0.81955 0.75771 0.77783 0.0
H1892 H 0.75654 0.72146 0.75806 0.0
H1893 H 0.76657 0.78682 0.71489 0.0
H1894 H 0.78375 0.77061 0.71681 0.0
H1895 H 0.77805 0.78342 0.74358 0.0
C1896 C 0.80962 0.72692 0.73408 0.0
C1897 C 0.82003 0.73745 0.74958 0.0
C1898 C 0.79149 0.72935 0.73323 0.0
C1899 C 0.7836 0.74233 0.74786 0.0
C1900 C 0.79378 0.75191 0.7647 0.0
H1901 H 0.68064 0.78524 0.7667 0.0
H1902 H 0.71224 0.78002 0.7648 0.0
C1903 C 0.81188 0.74953 0.76552 0.0
C1904 C 0.76491 0.7466 0.74451 0.0
H1905 H 0.73744 0.77939 0.72604 0.0
C1906 C 0.75231 0.73405 0.75092 0.0
C1907 C 0.75957 0.76306 0.73509 0.0
C1908 C 0.77267 0.77673 0.72697 0.0
C1909 C 0.73437 0.73774 0.74888 0.0
C1910 C 0.72903 0.75427 0.73968 0.0
C1911 C 0.74165 0.76674 0.733 0.0
C1912 C 0.71034 0.75906 0.73792 0.0
C1913 C 0.7213 0.72412 0.75729 0.0
C1914 C 0.69901 0.74959 0.72245 0.0
C1915 C 0.68098 0.75251 0.72351 0.0
C1916 C 0.67407 0.76503 0.73995 0.0
C1917 C 0.68559 0.77546 0.75392 0.0
C1918 C 0.70362 0.77247 0.75292 0.0
H1919 H 0.72752 0.71384 0.76893 0.0
H1920 H 0.71051 0.73026 0.76804 0.0
H1921 H 0.71549 0.71765 0.74079 0.0
H1922 H 0.70406 0.73947 0.71031 0.0
H1923 H 0.67243 0.74439 0.71234 0.0
H1924 H 0.68319 0.28496 0.22948 0.0
H1925 H 0.71464 0.27892 0.22995 0.0
H1926 H 0.70633 0.23696 0.28219 0.0
H1927 H 0.67481 0.24273 0.28164 0.0
H1928 H 0.741 0.27569 0.26765 0.0
H1929 H 0.72669 0.21284 0.21948 0.0
H1930 H 0.71062 0.23005 0.22262 0.0
H1931 H 0.71549 0.21601 0.24846 0.0
C1932 C 0.68808 0.27473 0.24154 0.0
C1933 C 0.67653 0.2641 0.25518 0.0
C1934 C 0.70604 0.27128 0.24173 0.0
C1935 C 0.71263 0.2572 0.25557 0.0
C1936 C 0.70135 0.24762 0.27096 0.0
H1937 H 0.81469 0.20967 0.2668 0.0
H1938 H 0.78318 0.21548 0.26723 0.0
C1939 C 0.68339 0.25102 0.27075 0.0
C1940 C 0.731 0.25169 0.25225 0.0
H1941 H 0.7563 0.21843 0.22963 0.0
C1942 C 0.74438 0.2632 0.25934 0.0
C1943 C 0.73525 0.2354 0.24123 0.0
C1944 C 0.72129 0.22289 0.23229 0.0
C1945 C 0.76204 0.25871 0.25607 0.0
C1946 C 0.76629 0.24244 0.24501 0.0
C1947 C 0.75291 0.23091 0.23798 0.0
C1948 C 0.78465 0.23706 0.24131 0.0
C1949 C 0.77601 0.27125 0.2649 0.0
C1950 C 0.79562 0.24663 0.22547 0.0
C1951 C 0.8136 0.24335 0.22514 0.0
C1952 C 0.82079 0.23041 0.24062 0.0
C1953 C 0.80953 0.21979 0.25477 0.0
C1954 C 0.79155 0.22312 0.25511 0.0
H1955 H 0.77065 0.28128 0.27775 0.0
H1956 H 0.78673 0.2641 0.27446 0.0
H1957 H 0.78173 0.27814 0.24868 0.0
H1958 H 0.79039 0.2572 0.21429 0.0
H1959 H 0.82194 0.25164 0.21388 0.0
H1960 H 0.67946 0.26216 0.77357 0.0
H1961 H 0.71101 0.2668 0.76937 0.0
H1962 H 0.71409 0.22379 0.71769 0.0
H1963 H 0.68254 0.21886 0.72201 0.0
H1964 H 0.74149 0.22472 0.75254 0.0
H1965 H 0.73221 0.28917 0.70673 0.0
H1966 H 0.72138 0.28725 0.73617 0.0
H1967 H 0.71459 0.27363 0.71071 0.0
C1968 C 0.68688 0.25352 0.76158 0.0
C1969 C 0.67852 0.24025 0.74794 0.0
C1970 C 0.70486 0.2563 0.75904 0.0
C1971 C 0.71471 0.24595 0.7427 0.0
C1972 C 0.70661 0.23204 0.73016 0.0
H1973 H 0.82632 0.24609 0.70768 0.0
H1974 H 0.79462 0.24217 0.7038 0.0
C1975 C 0.68862 0.22921 0.73273 0.0
C1976 C 0.73343 0.24983 0.73844 0.0
H1977 H 0.76137 0.2819 0.71879 0.0
C1978 C 0.74587 0.23714 0.74494 0.0
C1979 C 0.73899 0.26602 0.72837 0.0
C1980 C 0.7261 0.27975 0.71985 0.0
C1981 C 0.76385 0.24048 0.74255 0.0
C1982 C 0.76943 0.25683 0.73302 0.0
C1983 C 0.75698 0.26939 0.72604 0.0
C1984 C 0.78818 0.26143 0.73177 0.0
C1985 C 0.77674 0.22674 0.75109 0.0
C1986 C 0.79489 0.27434 0.74765 0.0
C1987 C 0.81296 0.27671 0.7498 0.0
C1988 C 0.82454 0.26617 0.73609 0.0
C1989 C 0.81771 0.25428 0.71867 0.0
C1990 C 0.79963 0.25196 0.7165 0.0
H1991 H 0.77034 0.21635 0.76234 0.0
H1992 H 0.78282 0.22044 0.73466 0.0
H1993 H 0.78737 0.23277 0.76228 0.0
H1994 H 0.78619 0.28187 0.75943 0.0
H1995 H 0.81783 0.28604 0.76328 0.0
H1996 H 0.81379 0.78149 0.22456 0.0
H1997 H 0.78223 0.77716 0.21929 0.0
H1998 H 0.78276 0.73771 0.27654 0.0
H1999 H 0.8143 0.74174 0.28168 0.0
H2000 H 0.76884 0.72637 0.2309 0.0
H2001 H 0.73896 0.7893 0.26131 0.0
H2002 H 0.75655 0.79107 0.23927 0.0
H2003 H 0.76094 0.78297 0.26991 0.0
C2004 C 0.80709 0.77225 0.23651 0.0
C2005 C 0.81651 0.76187 0.25343 0.0
C2006 C 0.78907 0.7698 0.23346 0.0
C2007 C 0.78022 0.7571 0.24751 0.0
C2008 C 0.78941 0.74752 0.26547 0.0
H2009 H 0.67973 0.71107 0.26386 0.0
H2010 H 0.7111 0.71661 0.26027 0.0
C2011 C 0.8074 0.74989 0.26845 0.0
C2012 C 0.7618 0.75256 0.24201 0.0
H2013 H 0.72 0.76823 0.24386 0.0
C2014 C 0.75814 0.73552 0.23367 0.0
C2015 C 0.74797 0.76463 0.24531 0.0
C2016 C 0.7512 0.78299 0.25461 0.0
C2017 C 0.74091 0.73009 0.22898 0.0
C2018 C 0.72702 0.74195 0.23309 0.0
C2019 C 0.73073 0.75917 0.24066 0.0
C2020 C 0.70847 0.73646 0.23183 0.0
C2021 C 0.73776 0.7117 0.21972 0.0
C2022 C 0.69661 0.74553 0.21667 0.0
C2023 C 0.67863 0.74244 0.21876 0.0
C2024 C 0.67226 0.73034 0.23624 0.0
C2025 C 0.68424 0.72045 0.2502 0.0
C2026 C 0.7022 0.72355 0.2481 0.0
H2027 H 0.74948 0.70642 0.21002 0.0
H2028 H 0.73495 0.70303 0.23575 0.0
H2029 H 0.7264 0.7112 0.20687 0.0
H2030 H 0.70122 0.75556 0.20402 0.0
H2031 H 0.66971 0.75026 0.20773 0.0
H2032 H 0.50296 0.42054 0.95705 0.0
H2033 H 0.50868 0.45178 0.95073 0.0
H2034 H 0.46754 0.46459 0.00251 0.0
H2035 H 0.46157 0.43348 0.00871 0.0
H2036 H 0.46997 0.48746 0.96045 0.0
H2037 H 0.53389 0.47733 0.00839 0.0
H2038 H 0.52988 0.46425 0.98125 0.0
H2039 H 0.51681 0.46098 0.00855 0.0
C2040 C 0.49485 0.43002 0.96663 0.0
C2041 C 0.48201 0.42459 0.98369 0.0
C2042 C 0.49821 0.44783 0.96309 0.0
C2043 C 0.48881 0.46038 0.97663 0.0
C2044 C 0.47502 0.45504 0.99206 0.0
H2045 H 0.48778 0.56708 0.02041 0.0
H2046 H 0.48403 0.53562 0.0141 0.0
C2047 C 0.47163 0.43726 0.99558 0.0
C2048 C 0.49426 0.47891 0.97673 0.0
H2049 H 0.52624 0.50626 0.9983 0.0
C2050 C 0.48234 0.49159 0.96845 0.0
C2051 C 0.51044 0.48418 0.98723 0.0
C2052 C 0.52349 0.47104 0.99705 0.0
C2053 C 0.48602 0.50949 0.9709 0.0
C2054 C 0.50185 0.51474 0.98234 0.0
C2055 C 0.51409 0.50209 0.98969 0.0
C2056 C 0.50543 0.53329 0.98798 0.0
C2057 C 0.47284 0.52266 0.96151 0.0
C2058 C 0.51934 0.54208 0.97643 0.0
C2059 C 0.52163 0.56005 0.98016 0.0
C2060 C 0.51004 0.56939 0.99555 0.0
C2061 C 0.49683 0.56027 0.0083 0.0
C2062 C 0.49458 0.54234 0.00458 0.0
H2063 H 0.4639 0.51679 0.94753 0.0
H2064 H 0.46476 0.52736 0.97727 0.0
H2065 H 0.4795 0.53415 0.9531 0.0
H2066 H 0.52797 0.53519 0.96379 0.0
H2067 H 0.53195 0.56674 0.97012 0.0
H2068 H 0.0087 0.42643 0.52512 0.0
H2069 H 0.01175 0.45826 0.52523 0.0
H2070 H 0.96868 0.46264 0.47382 0.0
H2071 H 0.96557 0.4307 0.47347 0.0
H2072 H 0.00021 0.47898 0.45825 0.0
H2073 H 0.98214 0.49843 0.55408 0.0
H2074 H 0.99751 0.48064 0.55252 0.0
H2075 H 0.97569 0.47772 0.54066 0.0
C2076 C -0.00039 0.43417 0.51427 0.0
C2077 C 0.98696 0.42609 0.49918 0.0
C2078 C 0.00133 0.45236 0.51444 0.0
C2079 C 0.99039 0.46274 0.49961 0.0
C2080 C 0.9772 0.45479 0.48543 0.0
H2081 H 0.99254 0.57349 0.4648 0.0
H2082 H 0.98754 0.54189 0.46346 0.0
C2083 C 0.97541 0.43658 0.48533 0.0
C2084 C 0.99397 0.48166 0.49704 0.0
H2085 H 0.99742 0.51964 0.52991 0.0
C2086 C -0.00056 0.48794 0.47383 0.0
C2087 C 0.99305 0.4932 0.51747 0.0
C2088 C 0.98663 0.48722 0.54255 0.0
C2089 C 0.00447 0.50547 0.47064 0.0
C2090 C 0.00377 0.51695 0.49115 0.0
C2091 C 0.99808 0.5107 0.51428 0.0
C2092 C 0.00846 0.53564 0.48906 0.0
C2093 C 0.01092 0.51146 0.44558 0.0
C2094 C 0.0221 0.54251 0.50354 0.0
C2095 C 0.02498 0.56055 0.50438 0.0
C2096 C 0.01414 0.57199 0.49091 0.0
C2097 C 0.00112 0.56499 0.47535 0.0
C2098 C 0.99827 0.54694 0.4745 0.0
H2099 H 0.01467 0.50023 0.43358 0.0
H2100 H 0.00033 0.51882 0.4361 0.0
H2101 H 0.02239 0.52032 0.44755 0.0
H2102 H 0.03008 0.53394 0.5149 0.0
H2103 H 0.0351 0.56556 0.51655 0.0
H2104 H 0.02931 0.43137 0.97622 0.0
H2105 H 0.02628 0.46324 0.97417 0.0
H2106 H 0.98687 0.46144 0.03148 0.0
H2107 H 0.98964 0.42958 0.03346 0.0
H2108 H 0.97631 0.4784 0.98738 0.0
H2109 H 0.04053 0.50331 0.02109 0.0
H2110 H 0.04168 0.48683 0.99735 0.0
H2111 H 0.033 0.48131 0.02731 0.0
C2112 C 0.0203 0.4378 0.98881 0.0
C2113 C 0.00963 0.42799 0.00491 0.0
C2114 C 0.01862 0.456 0.98764 0.0
C2115 C 0.00638 0.46464 0.00271 0.0
C2116 C 0.99637 0.45496 0.01969 0.0
H2117 H 0.96551 0.56882 0.01932 0.0
H2118 H 0.96976 0.53712 0.01815 0.0
C2119 C 0.99802 0.43678 0.02084 0.0
C2120 C 0.0028 0.48348 -0.00077 0.0
H2121 H 0.021 0.52412 0.00395 0.0
C2122 C 0.98605 0.48843 0.99105 0.0
C2123 C 0.01562 0.49642 0.00376 0.0
C2124 C 0.03369 0.49178 0.01305 0.0
C2125 C 0.98175 0.50608 0.98729 0.0
C2126 C 0.99446 0.51907 0.99227 0.0
C2127 C 0.0113 0.51409 9e-05 0.0
C2128 C 0.99042 0.53796 0.99064 0.0
C2129 C 0.96373 0.51062 0.97773 0.0
C2130 C 0.00055 0.5489 0.97545 0.0
C2131 C 0.99825 0.56703 0.97622 0.0
C2132 C 0.98581 0.57449 0.9923 0.0
C2133 C 0.97513 0.56345 0.00665 0.0
C2134 C 0.97749 0.54532 0.00594 0.0
H2135 H 0.95764 0.49938 0.96788 0.0
H2136 H 0.95516 0.51406 0.99363 0.0
H2137 H 0.96421 0.52201 0.96494 0.0
H2138 H 0.01061 0.54344 0.96354 0.0
H2139 H 0.00666 0.57521 0.96492 0.0
H2140 H 0.49334 0.42269 0.45705 0.0
H2141 H 0.49114 0.4545 0.45302 0.0
H2142 H 0.52843 0.4609 0.51247 0.0
H2143 H 0.53092 0.42912 0.51636 0.0
H2144 H 0.47857 0.47416 0.49185 0.0
H2145 H 0.54404 0.49822 0.46319 0.0
H2146 H 0.53743 0.47563 0.45961 0.0
H2147 H 0.54484 0.48358 0.48922 0.0
C2148 C 0.50143 0.43087 0.46881 0.0
C2149 C 0.51218 0.42345 0.48718 0.0
C2150 C 0.50014 0.44902 0.46649 0.0
C2151 C 0.50964 0.46002 0.4824 0.0
C2152 C 0.52121 0.45264 0.49972 0.0
H2153 H 0.50909 0.56768 0.52731 0.0
H2154 H 0.51235 0.53595 0.52354 0.0
C2155 C 0.52257 0.43447 0.50199 0.0
C2156 C 0.50572 0.47896 0.48319 0.0
H2157 H 0.52451 0.51944 0.48066 0.0
C2158 C 0.48855 0.4841 0.48909 0.0
C2159 C 0.5188 0.49182 0.47971 0.0
C2160 C 0.53728 0.48707 0.47235 0.0
C2161 C 0.48422 0.50178 0.49247 0.0
C2162 C 0.49739 0.51461 0.48951 0.0
C2163 C 0.51448 0.50951 0.48309 0.0
C2164 C 0.49386 0.53344 0.49333 0.0
C2165 C 0.46576 0.50651 0.5 0.0
C2166 C 0.48206 0.54242 0.47796 0.0
C2167 C 0.48003 0.56053 0.48023 0.0
C2168 C 0.48997 0.56993 0.4977 0.0
C2169 C 0.50127 0.56079 0.51367 0.0
C2170 C 0.50321 0.54269 0.51148 0.0
H2171 H 0.45848 0.49501 0.50731 0.0
H2172 H 0.46579 0.51696 0.51434 0.0
H2173 H 0.45858 0.51151 0.48356 0.0
H2174 H 0.47492 0.53553 0.46359 0.0
H2175 H 0.47133 0.56726 0.46753 0.0
H2176 H 0.01884 0.34304 0.08211 0.0
H2177 H 0.04262 0.33776 0.11126 0.0
H2178 H 0.07726 0.36959 0.06692 0.0
H2179 H 0.05332 0.37506 0.03747 0.0
H2180 H 0.08972 0.33563 0.07603 0.0
H2181 H 0.06893 0.36643 0.16368 0.0
H2182 H 0.05109 0.35465 0.14983 0.0
H2183 H 0.06043 0.37318 0.13386 0.0
C2184 C 0.03139 0.34924 0.07879 0.0
C2185 C 0.03423 0.35938 0.05743 0.0
C2186 C 0.04494 0.34635 0.09561 0.0
C2187 C 0.06164 0.35348 0.09143 0.0
C2188 C 0.0644 0.36416 0.07061 0.0
H2189 H 0.12516 0.30393 0.20708 0.0
H2190 H 0.11958 0.32779 0.17755 0.0
C2191 C 0.05072 0.36726 0.05385 0.0
C2192 C 0.07641 0.3475 0.10705 0.0
H2193 H 0.08554 0.33901 0.1677 0.0
C2194 C 0.08923 0.33684 0.09607 0.0
C2195 C 0.07607 0.34938 0.13311 0.0
C2196 C 0.06349 0.36171 0.14577 0.0
C2197 C 0.10024 0.32633 0.11064 0.0
C2198 C 0.09817 0.32641 0.13669 0.0
C2199 C 0.08692 0.33872 0.14768 0.0
C2200 C 0.10455 0.31175 0.1522 0.0
C2201 C 0.11317 0.31436 0.09798 0.0
C2202 C 0.09813 0.29484 0.14755 0.0
C2203 C 0.10109 0.28133 0.16441 0.0
C2204 C 0.11058 0.28443 0.18629 0.0
C2205 C 0.11787 0.30114 0.1903 0.0
C2206 C 0.1147 0.31477 0.17349 0.0
H2207 H 0.11789 0.3202 0.08032 0.0
H2208 H 0.12461 0.31157 0.11008 0.0
H2209 H 0.10661 0.30179 0.09344 0.0
H2210 H 0.08994 0.29229 0.13154 0.0
H2211 H 0.09535 0.26861 0.16076 0.0
H2212 H 0.90305 0.76677 0.33302 0.0
H2213 H 0.90929 0.78952 0.36348 0.0
H2214 H 0.8767 0.82581 0.32314 0.0
H2215 H 0.87024 0.80296 0.29245 0.0
H2216 H 0.91153 0.83743 0.33159 0.0
H2217 H 0.88126 0.81434 0.41869 0.0
H2218 H 0.89275 0.79704 0.40305 0.0
H2219 H 0.87401 0.80702 0.38849 0.0
C2220 C 0.89688 0.77946 0.33087 0.0
C2221 C 0.88622 0.78307 0.31026 0.0
C2222 C 0.90035 0.79242 0.34843 0.0
C2223 C 0.8933 0.80929 0.34571 0.0
C2224 C 0.88211 0.81281 0.32568 0.0
H2225 H 0.94079 0.87395 0.46286 0.0
H2226 H 0.91761 0.86704 0.43274 0.0
C2227 C 0.87842 0.79973 0.30822 0.0
C2228 C 0.89968 0.8235 0.36206 0.0
H2229 H 0.90792 0.83173 0.42309 0.0
C2230 C 0.91031 0.83657 0.3516 0.0
C2231 C 0.89784 0.82259 0.38811 0.0
C2232 C 0.88568 0.80959 0.40024 0.0
C2233 C 0.92063 0.84748 0.36661 0.0
C2234 C 0.92037 0.8451 0.3926 0.0
C2235 C 0.90829 0.83339 0.40311 0.0
C2236 C 0.93453 0.852 0.4086 0.0
C2237 C 0.93251 0.86073 0.35449 0.0
C2238 C 0.9517 0.846 0.4048 0.0
C2239 C 0.96481 0.8497 0.422 0.0
C2240 C 0.96106 0.85957 0.44334 0.0
C2241 C 0.94408 0.86641 0.44649 0.0
C2242 C 0.93083 0.86246 0.42936 0.0
H2243 H 0.92706 0.86521 0.33647 0.0
H2244 H 0.93459 0.87229 0.36665 0.0
H2245 H 0.94543 0.85458 0.35078 0.0
H2246 H 0.95476 0.83762 0.38917 0.0
H2247 H 0.97777 0.84428 0.41904 0.0
H2248 H 0.4044 0.72233 0.66603 0.0
H2249 H 0.40975 0.69918 0.63593 0.0
H2250 H 0.38091 0.66265 0.68133 0.0
H2251 H 0.37532 0.68603 0.71173 0.0
H2252 H 0.41544 0.65214 0.66985 0.0
H2253 H 0.38078 0.6719 0.58467 0.0
H2254 H 0.39176 0.6903 0.59835 0.0
H2255 H 0.37437 0.67956 0.61511 0.0
C2256 C 0.39884 0.70949 0.66939 0.0
C2257 C 0.38953 0.70596 0.69128 0.0
C2258 C 0.40176 0.69629 0.65204 0.0
C2259 C 0.39553 0.67926 0.65624 0.0
C2260 C 0.38563 0.67578 0.67763 0.0
H2261 H 0.44616 0.62028 0.53665 0.0
H2262 H 0.42267 0.62412 0.56731 0.0
C2263 C 0.38245 0.68912 0.69492 0.0
C2264 C 0.4018 0.66499 0.63993 0.0
H2265 H 0.40921 0.65732 0.57858 0.0
C2266 C 0.41362 0.6528 0.64992 0.0
C2267 C 0.39915 0.66554 0.61401 0.0
C2268 C 0.38566 0.67742 0.60245 0.0
C2269 C 0.42448 0.64279 0.63443 0.0
C2270 C 0.42354 0.64523 0.60849 0.0
C2271 C 0.41015 0.65569 0.59852 0.0
C2272 C 0.4382 0.64016 0.59202 0.0
C2273 C 0.4377 0.63061 0.646 0.0
C2274 C 0.45471 0.64779 0.59589 0.0
C2275 C 0.468 0.64583 0.57839 0.0
C2276 C 0.46509 0.63615 0.55663 0.0
C2277 C 0.44882 0.62776 0.55331 0.0
C2278 C 0.43539 0.62993 0.57077 0.0
H2279 H 0.43277 0.6253 0.66388 0.0
H2280 H 0.4409 0.61953 0.63344 0.0
H2281 H 0.44993 0.63798 0.64993 0.0
H2282 H 0.45705 0.65607 0.61188 0.0
H2283 H 0.48039 0.65241 0.58154 0.0
H2284 H 0.59814 0.231 0.83204 0.0
H2285 H 0.59506 0.20939 0.86496 0.0
H2286 H 0.62453 0.17198 0.82187 0.0
H2287 H 0.62785 0.1938 0.78863 0.0
H2288 H 0.59072 0.16052 0.83721 0.0
H2289 H 0.62759 0.18687 0.91681 0.0
H2290 H 0.61524 0.20381 0.90179 0.0
H2291 H 0.63251 0.19284 0.8851 0.0
C2292 C 0.60432 0.21832 0.82975 0.0
C2293 C 0.61316 0.21406 0.80773 0.0
C2294 C 0.60269 0.20602 0.84869 0.0
C2295 C 0.60977 0.18916 0.84599 0.0
C2296 C 0.61917 0.185 0.82441 0.0
H2297 H 0.5546 0.119 0.95191 0.0
H2298 H 0.57836 0.12515 0.92227 0.0
C2299 C 0.62106 0.19747 0.8055 0.0
C2300 C 0.60494 0.17558 0.86434 0.0
H2301 H 0.6002 0.17138 0.92688 0.0
C2302 C 0.59333 0.16233 0.85682 0.0
C2303 C 0.60853 0.17785 0.88984 0.0
C2304 C 0.62181 0.19101 0.89883 0.0
C2305 C 0.58349 0.15289 0.8743 0.0
C2306 C 0.58546 0.15683 0.89974 0.0
C2307 C 0.59861 0.16852 0.9073 0.0
C2308 C 0.57153 0.15245 0.91771 0.0
C2309 C 0.56975 0.14014 0.86548 0.0
C2310 C 0.55988 0.16573 0.92468 0.0
C2311 C 0.54636 0.16232 0.94129 0.0
C2312 C 0.54418 0.14549 0.95149 0.0
C2313 C 0.55586 0.13209 0.94435 0.0
C2314 C 0.56945 0.13555 0.92751 0.0
H2315 H 0.57038 0.13796 0.84513 0.0
H2316 H 0.57145 0.12736 0.87502 0.0
H2317 H 0.55652 0.14517 0.87027 0.0
H2318 H 0.56124 0.17883 0.91715 0.0
H2319 H 0.53773 0.17301 0.94628 0.0
H2320 H 0.04898 0.61697 0.44734 0.0
H2321 H 0.07129 0.62119 0.41496 0.0
H2322 H 0.06382 0.6771 0.41941 0.0
H2323 H 0.04176 0.67312 0.45136 0.0
H2324 H 0.06543 0.63766 0.36891 0.0
H2325 H 0.11736 0.67227 0.42023 0.0
H2326 H 0.101 0.65893 0.43552 0.0
H2327 H 0.09633 0.68139 0.42756 0.0
C2328 C 0.05224 0.63016 0.44154 0.0
C2329 C 0.04351 0.64471 0.45183 0.0
C2330 C 0.06501 0.63253 0.42315 0.0
C2331 C 0.06946 0.64947 0.41523 0.0
C2332 C 0.06091 0.66394 0.42572 0.0
H2333 H 0.07751 0.71067 0.29849 0.0
H2334 H 0.0726 0.68778 0.32896 0.0
C2335 C 0.04811 0.66161 0.44378 0.0
C2336 C 0.08153 0.65246 0.3942 0.0
H2337 H 0.11326 0.68136 0.37674 0.0
C2338 C 0.07633 0.6467 0.37062 0.0
C2339 C 0.09605 0.66387 0.39643 0.0
C2340 C 0.10312 0.6693 0.42138 0.0
C2341 C 0.08375 0.65394 0.34915 0.0
C2342 C 0.09642 0.66736 0.35149 0.0
C2343 C 0.10328 0.67131 0.37497 0.0
C2344 C 0.09979 0.67982 0.33104 0.0
C2345 C 0.07703 0.64813 0.32418 0.0
C2346 C 0.11681 0.68319 0.32239 0.0
C2347 C 0.11971 0.69643 0.30483 0.0
C2348 C 0.10565 0.7067 0.29616 0.0
C2349 C 0.08866 0.70312 0.30485 0.0
C2350 C 0.08578 0.68986 0.32206 0.0
H2351 H 0.07292 0.63416 0.32468 0.0
H2352 H 0.06536 0.65606 0.31919 0.0
H2353 H 0.08711 0.64985 0.30952 0.0
H2354 H 0.12782 0.67574 0.32943 0.0
H2355 H 0.13296 0.69888 0.29851 0.0
H2356 H 0.62809 0.79841 0.69689 0.0
H2357 H 0.62332 0.82035 0.66423 0.0
H2358 H 0.56775 0.81023 0.66701 0.0
H2359 H 0.57227 0.7885 0.69927 0.0
H2360 H 0.60763 0.81379 0.6176 0.0
H2361 H 0.57041 0.86406 0.66871 0.0
H2362 H 0.58427 0.8482 0.68409 0.0
H2363 H 0.56214 0.84259 0.67551 0.0
C2364 C 0.61484 0.80097 0.69064 0.0
C2365 C 0.60056 0.79164 0.70063 0.0
C2366 C 0.61216 0.81354 0.67209 0.0
C2367 C 0.59515 0.81717 0.66366 0.0
C2368 C 0.58094 0.80795 0.67372 0.0
H2369 H 0.53538 0.82467 0.54495 0.0
H2370 H 0.55768 0.82002 0.57637 0.0
C2371 C 0.58359 0.79534 0.69198 0.0
C2372 C 0.59194 0.8292 0.64269 0.0
H2373 H 0.56238 0.8602 0.62488 0.0
C2374 C 0.59822 0.82438 0.61921 0.0
C2375 C 0.58004 0.84331 0.64482 0.0
C2376 C 0.57399 0.84997 0.66972 0.0
C2377 C 0.59111 0.83178 0.59765 0.0
C2378 C 0.57731 0.84405 0.5998 0.0
C2379 C 0.57274 0.85053 0.62326 0.0
C2380 C 0.56516 0.84731 0.57898 0.0
C2381 C 0.59749 0.82546 0.57275 0.0
C2382 C 0.5617 0.86431 0.57036 0.0
C2383 C 0.5488 0.86706 0.55226 0.0
C2384 C 0.53897 0.85287 0.54301 0.0
C2385 C 0.54259 0.83591 0.55174 0.0
C2386 C 0.55553 0.83318 0.56949 0.0
H2387 H 0.61152 0.8216 0.57365 0.0
H2388 H 0.58984 0.81374 0.56719 0.0
H2389 H 0.59586 0.83569 0.55828 0.0
H2390 H 0.56883 0.8754 0.57778 0.0
H2391 H 0.5463 0.88029 0.5459 0.0
H2392 H 0.41799 0.27742 0.81258 0.0
H2393 H 0.42101 0.29932 0.84496 0.0
H2394 H 0.36891 0.31836 0.82983 0.0
H2395 H 0.36562 0.29627 0.79695 0.0
H2396 H 0.41507 0.33899 0.83743 0.0
H2397 H 0.37333 0.30576 0.90807 0.0
H2398 H 0.38318 0.29303 0.88353 0.0
H2399 H 0.3661 0.30833 0.87639 0.0
C2400 C 0.40708 0.28616 0.81603 0.0
C2401 C 0.39153 0.28501 0.80212 0.0
C2402 C 0.40888 0.29874 0.83451 0.0
C2403 C 0.39521 0.31042 0.83964 0.0
C2404 C 0.37959 0.3094 0.82604 0.0
H2405 H 0.44198 0.37786 0.95512 0.0
H2406 H 0.41985 0.37232 0.92298 0.0
C2407 C 0.37776 0.29677 0.80733 0.0
C2408 C 0.39777 0.32329 0.85972 0.0
H2409 H 0.39498 0.32526 0.9227 0.0
C2410 C 0.41021 0.33655 0.85603 0.0
C2411 C 0.39127 0.32003 0.88378 0.0
C2412 C 0.37768 0.30605 0.88841 0.0
C2413 C 0.41784 0.34529 0.8762 0.0
C2414 C 0.41275 0.3406 0.90053 0.0
C2415 C 0.39886 0.32877 0.90399 0.0
C2416 C 0.4243 0.34434 0.92189 0.0
C2417 C 0.43257 0.35807 0.87149 0.0
C2418 C 0.43375 0.3304 0.93224 0.0
C2419 C 0.44632 0.33347 0.95041 0.0
C2420 C 0.44973 0.35059 0.95873 0.0
C2421 C 0.43978 0.36453 0.94897 0.0
C2422 C 0.42714 0.36141 0.93064 0.0
H2423 H 0.43545 0.35961 0.85141 0.0
H2424 H 0.42903 0.37109 0.87913 0.0
H2425 H 0.44467 0.3536 0.88102 0.0
H2426 H 0.4318 0.31713 0.92564 0.0
H2427 H 0.45355 0.32237 0.95762 0.0
H2428 H 0.8675 0.19659 0.19782 0.0
H2429 H 0.87265 0.17484 0.16502 0.0
H2430 H 0.92826 0.18435 0.17 0.0
H2431 H 0.92335 0.20587 0.20244 0.0
H2432 H 0.88882 0.18194 0.11937 0.0
H2433 H 0.9255 0.13075 0.16934 0.0
H2434 H 0.91171 0.14649 0.18508 0.0
H2435 H 0.93393 0.15203 0.17686 0.0
C2436 C 0.88083 0.19389 0.19208 0.0
C2437 C 0.89501 0.20304 0.20266 0.0
C2438 C 0.88373 0.18144 0.17343 0.0
C2439 C 0.90085 0.17774 0.1655 0.0
C2440 C 0.91497 0.18668 0.1763 0.0
H2441 H 0.96077 0.17068 0.04525 0.0
H2442 H 0.93883 0.17563 0.07713 0.0
C2443 C 0.91211 0.19917 0.19466 0.0
C2444 C 0.90429 0.16609 0.14416 0.0
H2445 H 0.93383 0.13524 0.12574 0.0
C2446 C 0.8982 0.1713 0.12077 0.0
C2447 C 0.91617 0.15193 0.146 0.0
C2448 C 0.92204 0.14485 0.17075 0.0
C2449 C 0.90538 0.16418 0.09906 0.0
C2450 C 0.91909 0.1518 0.10098 0.0
C2451 C 0.92355 0.145 0.1243 0.0
C2452 C 0.93109 0.14842 0.08 0.0
C2453 C 0.89909 0.17085 0.07429 0.0
C2454 C 0.9343 0.13138 0.07138 0.0
C2455 C 0.94699 0.12845 0.05306 0.0
C2456 C 0.95686 0.14251 0.04351 0.0
C2457 C 0.9535 0.15953 0.05224 0.0
C2458 C 0.94078 0.16243 0.07027 0.0
H2459 H 0.8851 0.17481 0.07524 0.0
H2460 H 0.90684 0.18258 0.06903 0.0
H2461 H 0.90067 0.16078 0.05958 0.0
H2462 H 0.92712 0.12037 0.07898 0.0
H2463 H 0.94928 0.11518 0.04674 0.0
H2464 H 0.94008 0.62663 0.95923 0.0
H2465 H 0.91815 0.63124 0.9265 0.0
H2466 H 0.95531 0.6626 0.88569 0.0
H2467 H 0.97705 0.65824 0.91817 0.0
H2468 H 0.90673 0.6657 0.91469 0.0
H2469 H 0.93223 0.63242 0.83128 0.0
H2470 H 0.93852 0.62612 0.86238 0.0
H2471 H 0.94922 0.6442 0.84715 0.0
C2472 C 0.94367 0.63413 0.94296 0.0
C2473 C 0.96022 0.6422 0.9413 0.0
C2474 C 0.93115 0.63674 0.92432 0.0
C2475 C 0.9352 0.64706 0.90355 0.0
C2476 C 0.95203 0.65429 0.90132 0.0
H2477 H 0.90708 0.72951 0.82322 0.0
H2478 H 0.91244 0.70668 0.85393 0.0
C2479 C 0.96439 0.65194 0.92002 0.0
C2480 C 0.92147 0.65271 0.88596 0.0
H2481 H 0.91586 0.65958 0.82401 0.0
C2482 C 0.90828 0.66388 0.89486 0.0
C2483 C 0.92331 0.65012 0.86014 0.0
C2484 C 0.93648 0.6374 0.84969 0.0
C2485 C 0.89832 0.67412 0.87851 0.0
C2486 C 0.90176 0.67315 0.85282 0.0
C2487 C 0.91343 0.66046 0.84379 0.0
C2488 C 0.8962 0.68727 0.83584 0.0
C2489 C 0.88512 0.68685 0.88889 0.0
C2490 C 0.88518 0.6839 0.81559 0.0
C2491 C 0.88194 0.69704 0.79805 0.0
C2492 C 0.89004 0.71355 0.80027 0.0
C2493 C 0.90069 0.71694 0.82096 0.0
C2494 C 0.90367 0.70394 0.83861 0.0
H2495 H 0.88019 0.68247 0.90727 0.0
H2496 H 0.89147 0.69982 0.89136 0.0
H2497 H 0.87385 0.68847 0.87607 0.0
H2498 H 0.87948 0.67103 0.81305 0.0
H2499 H 0.87377 0.69402 0.78218 0.0
H2500 H 0.0752 0.2179 0.68845 0.0
H2501 H 0.0725 0.19675 0.65498 0.0
H2502 H 0.12764 0.18501 0.6601 0.0
H2503 H 0.13058 0.2063 0.69406 0.0
H2504 H 0.1141 0.192 0.61031 0.0
H2505 H 0.07503 0.14226 0.66003 0.0
H2506 H 0.06696 0.16399 0.66564 0.0
H2507 H 0.08863 0.15811 0.67588 0.0
C2508 C 0.08682 0.21089 0.68257 0.0
C2509 C 0.10312 0.21383 0.69399 0.0
C2510 C 0.0852 0.19866 0.66356 0.0
C2511 C 0.0998 0.1891 0.65547 0.0
C2512 C 0.11619 0.19213 0.66639 0.0
H2513 H 0.05438 0.12196 0.54083 0.0
H2514 H 0.07669 0.12837 0.57236 0.0
C2515 C 0.11782 0.20431 0.6857 0.0
C2516 C 0.09761 0.17678 0.63458 0.0
H2517 H 0.06947 0.14486 0.61562 0.0
C2518 C 0.10479 0.18128 0.61151 0.0
C2519 C 0.08588 0.16251 0.63626 0.0
C2520 C 0.07883 0.1563 0.66087 0.0
C2521 C 0.09882 0.17326 0.58967 0.0
C2522 C 0.08518 0.16074 0.59112 0.0
C2523 C 0.0797 0.1547 0.61444 0.0
C2524 C 0.07407 0.15653 0.56942 0.0
C2525 C 0.10638 0.17905 0.56518 0.0
C2526 C 0.06524 0.1702 0.55737 0.0
C2527 C 0.05246 0.16662 0.53967 0.0
C2528 C 0.04812 0.14924 0.53365 0.0
C2529 C 0.0574 0.13549 0.54508 0.0
C2530 C 0.07019 0.13912 0.56301 0.0
H2531 H 0.12043 0.18257 0.5672 0.0
H2532 H 0.1051 0.16869 0.55083 0.0
H2533 H 0.09933 0.19092 0.55871 0.0
H2534 H 0.06763 0.18372 0.56249 0.0
H2535 H 0.04568 0.17754 0.53115 0.0
H2536 H 0.54649 0.37573 0.45203 0.0
H2537 H 0.56897 0.37061 0.42028 0.0
H2538 H 0.55004 0.31783 0.41053 0.0
H2539 H 0.52776 0.32266 0.44202 0.0
H2540 H 0.58844 0.32225 0.41497 0.0
H2541 H 0.55669 0.36525 0.34437 0.0
H2542 H 0.56117 0.37359 0.37499 0.0
H2543 H 0.54452 0.35729 0.37079 0.0
C2544 C 0.54714 0.36302 0.44315 0.0
C2545 C 0.53521 0.34964 0.44948 0.0
C2546 C 0.55999 0.36015 0.42505 0.0
C2547 C 0.5611 0.34386 0.41312 0.0
C2548 C 0.54942 0.33047 0.41965 0.0
H2549 H 0.57353 0.28639 0.29257 0.0
H2550 H 0.56802 0.30676 0.32625 0.0
C2551 C 0.5366 0.33331 0.43758 0.0
C2552 C 0.57373 0.34055 0.39291 0.0
H2553 H 0.5768 0.34434 0.33009 0.0
C2554 C 0.5864 0.32748 0.39649 0.0
C2555 C 0.57101 0.34752 0.36895 0.0
C2556 C 0.55762 0.36169 0.36431 0.0
C2557 C 0.5952 0.31994 0.37629 0.0
C2558 C 0.59115 0.32571 0.35207 0.0
C2559 C 0.57981 0.33999 0.34876 0.0
C2560 C 0.5951 0.31463 0.33033 0.0
C2561 C 0.60742 0.30472 0.38073 0.0
C2562 C 0.61221 0.31243 0.32133 0.0
C2563 C 0.61547 0.30064 0.30193 0.0
C2564 C 0.60166 0.29087 0.29145 0.0
C2565 C 0.58453 0.29351 0.3003 0.0
C2566 C 0.58131 0.30527 0.31946 0.0
H2567 H 0.60886 0.30162 0.40075 0.0
H2568 H 0.60247 0.2929 0.37098 0.0
H2569 H 0.62056 0.30782 0.37307 0.0
H2570 H 0.623 0.31962 0.32948 0.0
H2571 H 0.62881 0.29897 0.29546 0.0
H2572 H 0.45724 0.82505 0.04026 0.0
H2573 H 0.43505 0.81943 0.07151 0.0
H2574 H 0.42144 0.87426 0.07271 0.0
H2575 H 0.44392 0.88013 0.04111 0.0
H2576 H 0.42821 0.86056 0.11928 0.0
H2577 H 0.38172 0.81752 0.07059 0.0
H2578 H 0.40371 0.81048 0.06451 0.0
H2579 H 0.39666 0.83184 0.05426 0.0
C2580 C 0.44947 0.83596 0.0469 0.0
C2581 C 0.45246 0.85307 0.03829 0.0
C2582 C 0.43658 0.83266 0.06457 0.0
C2583 C 0.42633 0.84636 0.07405 0.0
C2584 C 0.42905 0.86347 0.06533 0.0
H2585 H 0.36781 0.79515 0.19471 0.0
H2586 H 0.37058 0.81683 0.16119 0.0
C2587 C 0.44192 0.86679 0.04736 0.0
C2588 C 0.41451 0.84267 0.09518 0.0
H2589 H 0.38654 0.81076 0.11489 0.0
C2590 C 0.41861 0.85011 0.11825 0.0
C2591 C 0.40162 0.82938 0.09383 0.0
C2592 C 0.39554 0.82201 0.06936 0.0
C2593 C 0.41189 0.84298 0.14025 0.0
C2594 C 0.40109 0.82795 0.13901 0.0
C2595 C 0.39514 0.82205 0.11586 0.0
C2596 C 0.39893 0.81624 0.16065 0.0
C2597 C 0.41744 0.85079 0.1647 0.0
C2598 C 0.41391 0.80859 0.1711 0.0
C2599 C 0.41239 0.79615 0.18983 0.0
C2600 C 0.39583 0.79101 0.19862 0.0
C2601 C 0.38076 0.79885 0.18837 0.0
C2602 C 0.38231 0.81126 0.16931 0.0
H2603 H 0.41974 0.86511 0.16289 0.0
H2604 H 0.40743 0.84851 0.17931 0.0
H2605 H 0.42993 0.84467 0.17069 0.0
H2606 H 0.42684 0.81191 0.16425 0.0
H2607 H 0.42429 0.7905 0.19733 0.0
H2608 H 0.95218 0.37972 0.5437 0.0
H2609 H 0.93111 0.37552 0.57771 0.0
H2610 H 0.95525 0.32606 0.59544 0.0
H2611 H 0.97621 0.32998 0.56194 0.0
H2612 H 0.91291 0.33096 0.58538 0.0
H2613 H 0.94634 0.37013 0.65851 0.0
H2614 H 0.94521 0.37732 0.62659 0.0
H2615 H 0.95962 0.35976 0.63504 0.0
C2616 C 0.95308 0.36801 0.55497 0.0
C2617 C 0.9659 0.35516 0.55001 0.0
C2618 C 0.94101 0.36565 0.5743 0.0
C2619 C 0.94167 0.35047 0.58886 0.0
C2620 C 0.95457 0.33784 0.58426 0.0
H2621 H 0.92791 0.28772 0.70311 0.0
H2622 H 0.93398 0.3098 0.67189 0.0
C2623 C 0.96657 0.34015 0.5651 0.0
C2624 C 0.92895 0.3471 0.60888 0.0
H2625 H 0.92724 0.34746 0.67198 0.0
C2626 C 0.91548 0.33504 0.60431 0.0
C2627 C 0.93244 0.35255 0.63337 0.0
C2628 C 0.94663 0.36573 0.63888 0.0
C2629 C 0.9066 0.32686 0.62393 0.0
C2630 C 0.91141 0.33095 0.64859 0.0
C2631 C 0.92361 0.34436 0.65303 0.0
C2632 C 0.9072 0.31887 0.66916 0.0
C2633 C 0.89346 0.31264 0.61824 0.0
C2634 C 0.89007 0.31675 0.67816 0.0
C2635 C 0.88647 0.30395 0.69612 0.0
C2636 C 0.89996 0.29309 0.70518 0.0
C2637 C 0.91714 0.29566 0.69644 0.0
C2638 C 0.92069 0.30841 0.6787 0.0
H2639 H 0.89169 0.31064 0.59798 0.0
H2640 H 0.89774 0.30008 0.62668 0.0
H2641 H 0.88058 0.31612 0.62643 0.0
H2642 H 0.8795 0.32479 0.67108 0.0
H2643 H 0.87312 0.30239 0.70257 0.0
H2644 H 0.42686 0.20971 0.29214 0.0
H2645 H 0.43228 0.18723 0.32304 0.0
H2646 H 0.37686 0.17662 0.32785 0.0
H2647 H 0.3712 0.19936 0.29662 0.0
H2648 H 0.39263 0.18284 0.37348 0.0
H2649 H 0.43097 0.13378 0.3219 0.0
H2650 H 0.43897 0.15536 0.31523 0.0
H2651 H 0.41691 0.1495 0.3066 0.0
C2652 C 0.41577 0.20254 0.29952 0.0
C2653 C 0.39858 0.20644 0.29202 0.0
C2654 C 0.41893 0.18949 0.31697 0.0
C2655 C 0.40501 0.18 0.32733 0.0
C2656 C 0.38779 0.18364 0.31975 0.0
H2657 H 0.4553 0.1179 0.44511 0.0
H2658 H 0.43316 0.12242 0.41265 0.0
C2659 C 0.3846 0.19666 0.30201 0.0
C2660 C 0.40871 0.168 0.34819 0.0
H2661 H 0.43941 0.13803 0.36568 0.0
C2662 C 0.40239 0.17258 0.37174 0.0
C2663 C 0.42109 0.15431 0.34592 0.0
C2664 C 0.42721 0.14783 0.32096 0.0
C2665 C 0.40986 0.16542 0.39322 0.0
C2666 C 0.42406 0.15365 0.39092 0.0
C2667 C 0.42875 0.14736 0.3674 0.0
C2668 C 0.43625 0.15058 0.41174 0.0
C2669 C 0.40335 0.17148 0.41819 0.0
C2670 C 0.44547 0.16488 0.42155 0.0
C2671 C 0.45819 0.16236 0.4397 0.0
C2672 C 0.462 0.14546 0.44848 0.0
C2673 C 0.45265 0.13109 0.43875 0.0
C2674 C 0.43997 0.13363 0.42031 0.0
H2675 H 0.38923 0.17499 0.41738 0.0
H2676 H 0.40528 0.16125 0.43257 0.0
H2677 H 0.41071 0.18338 0.42382 0.0
H2678 H 0.44309 0.17802 0.41474 0.0
H2679 H 0.46504 0.17374 0.4468 0.0
H2680 H 0.51596 0.65192 0.08186 0.0
H2681 H 0.53703 0.65408 0.11566 0.0
H2682 H 0.57211 0.61924 0.07701 0.0
H2683 H 0.55094 0.61689 0.04282 0.0
H2684 H 0.55585 0.62542 0.14556 0.0
H2685 H 0.59823 0.66844 0.08715 0.0
H2686 H 0.57544 0.6654 0.07923 0.0
H2687 H 0.59057 0.64761 0.07567 0.0
C2688 C 0.52803 0.6445 0.08061 0.0
C2689 C 0.53184 0.63438 0.05952 0.0
C2690 C 0.54001 0.64568 0.10001 0.0
C2691 C 0.55611 0.63689 0.0987 0.0
C2692 C 0.55974 0.62613 0.07826 0.0
H2693 H 0.62505 0.69194 0.20296 0.0
H2694 H 0.61904 0.66769 0.17411 0.0
C2695 C 0.54762 0.6248 0.05882 0.0
C2696 C 0.56938 0.64064 0.11791 0.0
H2697 H 0.60068 0.67125 0.13035 0.0
C2698 C 0.56611 0.63497 0.14221 0.0
C2699 C 0.58293 0.65285 0.11341 0.0
C2700 C 0.58714 0.65901 0.08749 0.0
C2701 C 0.5748 0.64263 0.16238 0.0
C2702 C 0.58663 0.65657 0.15806 0.0
C2703 C 0.59145 0.66069 0.13364 0.0
C2704 C 0.59085 0.66941 0.17776 0.0
C2705 C 0.57033 0.63658 0.18824 0.0
C2706 C 0.57702 0.67846 0.18912 0.0
C2707 C 0.58035 0.69231 0.20519 0.0
C2708 C 0.59764 0.69755 0.21029 0.0
C2709 C 0.61158 0.68821 0.1994 0.0
C2710 C 0.60819 0.67434 0.18302 0.0
H2711 H 0.56733 0.62233 0.18841 0.0
H2712 H 0.58121 0.6392 0.20142 0.0
H2713 H 0.55845 0.6436 0.19476 0.0
H2714 H 0.56353 0.67524 0.18481 0.0
H2715 H 0.56929 0.69909 0.21334 0.0
H2716 H 0.12796 0.80071 0.79503 0.0
H2717 H 0.12187 0.82243 0.82757 0.0
H2718 H 0.06775 0.80619 0.82892 0.0
H2719 H 0.07354 0.78474 0.79669 0.0
H2720 H 0.07401 0.8442 0.82958 0.0
H2721 H 0.11143 0.80655 0.90079 0.0
H2722 H 0.1218 0.81255 0.87199 0.0
H2723 H 0.10478 0.79636 0.87208 0.0
C2724 C 0.11474 0.80185 0.80218 0.0
C2725 C 0.10128 0.79082 0.79344 0.0
C2726 C 0.11131 0.81427 0.82072 0.0
C2727 C 0.09438 0.81583 0.83062 0.0
C2728 C 0.08089 0.80521 0.82142 0.0
H2729 H 0.03002 0.82337 0.94494 0.0
H2730 H 0.05119 0.81937 0.91175 0.0
C2731 C 0.08428 0.79283 0.8031 0.0
C2732 C 0.09043 0.82748 0.85177 0.0
H2733 H 0.09026 0.82639 0.91497 0.0
C2734 C 0.07802 0.84083 0.84828 0.0
C2735 C 0.09576 0.823 0.87605 0.0
C2736 C 0.10916 0.80883 0.88069 0.0
C2737 C 0.06949 0.84858 0.86856 0.0
C2738 C 0.07354 0.84276 0.89274 0.0
C2739 C 0.08722 0.83075 0.89631 0.0
C2740 C 0.06132 0.8458 0.91351 0.0
C2741 C 0.05502 0.86163 0.86398 0.0
C2742 C 0.06003 0.86207 0.92544 0.0
C2743 C 0.04782 0.86446 0.94458 0.0
C2744 C 0.03674 0.85061 0.95191 0.0
C2745 C 0.03823 0.83436 0.9398 0.0
C2746 C 0.0504 0.832 0.92088 0.0
H2747 H 0.05365 0.86497 0.84402 0.0
H2748 H 0.04237 0.85623 0.87073 0.0
H2749 H 0.05767 0.87385 0.87451 0.0
H2750 H 0.0684 0.87285 0.91995 0.0
H2751 H 0.04705 0.87713 0.95356 0.0
loop_
_geom_bond_atom_site_label_1
_geom_bond_atom_site_label_2
_geom_bond_distance
_geom_bond_site_symmetry_2
_ccdc_geom_bond_type
Co0 O1 2.216 . S
Co0 O2 2.091 . S
Co0 O4 2.004 . S
Co0 O10 2.021 . S
Co0 O12 2.137 . S
Co0 O13 2.244 . S
O1 Co0 2.216 . S
O1 C8 1.247 . S
O2 Co0 2.091 . S
O2 C8 1.261 . S
C3 O12 1.247 . S
C3 O13 1.272 . S
O4 Co0 2.004 . S
O4 C9 1.259 . S
Co5 O6 2.061 . S
Co5 O11 2.052 . S
Co5 O13 2.135 . S
O6 Co5 2.061 . S
O6 C9 1.235 . S
C7 O10 1.238 . S
C7 O11 1.241 . S
C8 O1 1.247 . S
C8 O2 1.261 . S
C9 O4 1.259 . S
C9 O6 1.235 . S
O10 Co0 2.021 . S
O10 C7 1.238 . S
O11 Co5 2.052 . S
O11 C7 1.241 . S
O12 Co0 2.137 . S
O12 C3 1.247 . S
O13 Co0 2.244 . S
O13 C3 1.272 . S
O13 Co5 2.135 . S
Co14 O15 2.216 . S
Co14 O16 2.091 . S
Co14 O18 2.004 . S
Co14 O24 2.021 . S
Co14 O26 2.137 . S
Co14 O27 2.244 . S
O15 Co14 2.216 . S
O15 C22 1.247 . S
O16 Co14 2.091 . S
O16 C22 1.261 . S
C17 O26 1.247 . S
C17 O27 1.272 . S
O18 Co14 2.004 . S
O18 C23 1.259 . S
Co19 O20 2.061 . S
Co19 O25 2.052 . S
Co19 O27 2.135 . S
O20 Co19 2.061 . S
O20 C23 1.235 . S
C21 O24 1.238 . S
C21 O25 1.241 . S
C22 O15 1.247 . S
C22 O16 1.261 . S
C23 O18 1.259 . S
C23 O20 1.235 . S
O24 Co14 2.021 . S
O24 C21 1.238 . S
O25 Co19 2.052 . S
O25 C21 1.241 . S
O26 Co14 2.137 . S
O26 C17 1.247 . S
O27 Co14 2.244 . S
O27 C17 1.272 . S
O27 Co19 2.135 . S
Co28 O29 2.216 . S
Co28 O30 2.091 . S
Co28 O32 2.004 . S
Co28 O38 2.021 . S
Co28 O40 2.137 . S
Co28 O41 2.244 . S
O29 Co28 2.216 . S
O29 C36 1.247 . S
O30 Co28 2.091 . S
O30 C36 1.261 . S
C31 O40 1.247 . S
C31 O41 1.272 . S
O32 Co28 2.004 . S
O32 C37 1.259 . S
Co33 O34 2.061 . S
Co33 O39 2.052 . S
Co33 O41 2.135 . S
O34 Co33 2.061 . S
O34 C37 1.235 . S
C35 O38 1.238 . S
C35 O39 1.241 . S
C36 O29 1.247 . S
C36 O30 1.261 . S
C37 O32 1.259 . S
C37 O34 1.235 . S
O38 Co28 2.021 . S
O38 C35 1.238 . S
O39 Co33 2.052 . S
O39 C35 1.241 . S
O40 Co28 2.137 . S
O40 C31 1.247 . S
O41 Co28 2.244 . S
O41 C31 1.272 . S
O41 Co33 2.135 . S
Co42 O43 2.216 . S
Co42 O44 2.091 . S
Co42 O46 2.004 . S
Co42 O52 2.021 . S
Co42 O54 2.137 . S
Co42 O55 2.244 . S
O43 Co42 2.216 . S
O43 C50 1.247 . S
O44 Co42 2.091 . S
O44 C50 1.261 . S
C45 O54 1.247 . S
C45 O55 1.272 . S
O46 Co42 2.004 . S
O46 C51 1.259 . S
Co47 O48 2.061 . S
Co47 O53 2.052 . S
Co47 O55 2.135 . S
O48 Co47 2.061 . S
O48 C51 1.235 . S
C49 O52 1.238 1_556 S
C49 O53 1.241 1_556 S
C50 O43 1.247 . S
C50 O44 1.261 . S
C51 O46 1.259 . S
C51 O48 1.235 . S
O52 Co42 2.021 . S
O52 C49 1.238 1_554 S
O53 Co47 2.052 . S
O53 C49 1.241 1_554 S
O54 Co42 2.137 . S
O54 C45 1.247 . S
O55 Co42 2.244 . S
O55 C45 1.272 . S
O55 Co47 2.135 . S
Co56 O57 2.216 . S
Co56 O58 2.091 . S
Co56 O60 2.004 . S
Co56 O66 2.021 . S
Co56 O68 2.137 . S
Co56 O69 2.244 . S
O57 Co56 2.216 . S
O57 C64 1.247 . S
O58 Co56 2.091 . S
O58 C64 1.261 . S
C59 O68 1.247 . S
C59 O69 1.272 . S
O60 Co56 2.004 . S
O60 C65 1.259 . S
Co61 O62 2.061 . S
Co61 O67 2.052 . S
Co61 O69 2.135 . S
O62 Co61 2.061 . S
O62 C65 1.235 . S
C63 O66 1.238 . S
C63 O67 1.241 . S
C64 O57 1.247 . S
C64 O58 1.261 . S
C65 O60 1.259 . S
C65 O62 1.235 . S
O66 Co56 2.021 . S
O66 C63 1.238 . S
O67 Co61 2.052 . S
O67 C63 1.241 . S
O68 Co56 2.137 . S
O68 C59 1.247 . S
O69 Co56 2.244 . S
O69 C59 1.272 . S
O69 Co61 2.135 . S
Co70 O71 2.216 . S
Co70 O72 2.091 . S
Co70 O74 2.004 . S
Co70 O80 2.021 . S
Co70 O82 2.137 . S
Co70 O83 2.244 . S
O71 Co70 2.216 . S
O71 C78 1.247 . S
O72 Co70 2.091 . S
O72 C78 1.261 . S
C73 O82 1.247 . S
C73 O83 1.272 . S
O74 Co70 2.004 . S
O74 C79 1.259 . S
Co75 O76 2.061 . S
Co75 O81 2.052 . S
Co75 O83 2.135 . S
O76 Co75 2.061 . S
O76 C79 1.235 . S
C77 O80 1.238 . S
C77 O81 1.241 . S
C78 O71 1.247 . S
C78 O72 1.261 . S
C79 O74 1.259 . S
C79 O76 1.235 . S
O80 Co70 2.021 . S
O80 C77 1.238 . S
O81 Co75 2.052 . S
O81 C77 1.241 . S
O82 Co70 2.137 . S
O82 C73 1.247 . S
O83 Co70 2.244 . S
O83 C73 1.272 . S
O83 Co75 2.135 . S
Co84 O85 2.216 . S
Co84 O86 2.091 . S
Co84 O88 2.004 . S
Co84 O94 2.021 . S
Co84 O96 2.137 . S
Co84 O97 2.244 . S
O85 Co84 2.216 . S
O85 C92 1.247 . S
O86 Co84 2.091 . S
O86 C92 1.261 . S
C87 O96 1.247 . S
C87 O97 1.272 . S
O88 Co84 2.004 . S
O88 C93 1.259 . S
Co89 O90 2.061 . S
Co89 O95 2.052 . S
Co89 O97 2.135 . S
O90 Co89 2.061 . S
O90 C93 1.235 . S
C91 O94 1.238 . S
C91 O95 1.241 . S
C92 O85 1.247 . S
C92 O86 1.261 . S
C93 O88 1.259 . S
C93 O90 1.235 . S
O94 Co84 2.021 . S
O94 C91 1.238 . S
O95 Co89 2.052 . S
O95 C91 1.241 . S
O96 Co84 2.137 . S
O96 C87 1.247 . S
O97 Co84 2.244 . S
O97 C87 1.272 . S
O97 Co89 2.135 . S
Co98 O99 2.216 . S
Co98 O100 2.091 . S
Co98 O102 2.004 . S
Co98 O108 2.021 . S
Co98 O110 2.137 . S
Co98 O111 2.244 . S
O99 Co98 2.216 . S
O99 C106 1.247 . S
O100 Co98 2.091 . S
O100 C106 1.261 . S
C101 O110 1.247 . S
C101 O111 1.272 . S
O102 Co98 2.004 . S
O102 C107 1.259 . S
Co103 O104 2.061 . S
Co103 O109 2.052 . S
Co103 O111 2.135 . S
O104 Co103 2.061 . S
O104 C107 1.235 . S
C105 O108 1.238 1_554 S
C105 O109 1.241 1_554 S
C106 O99 1.247 . S
C106 O100 1.261 . S
C107 O102 1.259 . S
C107 O104 1.235 . S
O108 Co98 2.021 . S
O108 C105 1.238 1_556 S
O109 Co103 2.052 . S
O109 C105 1.241 1_556 S
O110 Co98 2.137 . S
O110 C101 1.247 . S
O111 Co98 2.244 . S
O111 C101 1.272 . S
O111 Co103 2.135 . S
Co112 O113 2.216 . S
Co112 O114 2.091 . S
Co112 O116 2.004 . S
Co112 O122 2.021 . S
Co112 O124 2.137 . S
Co112 O125 2.244 . S
O113 Co112 2.216 . S
O113 C120 1.247 . S
O114 Co112 2.091 . S
O114 C120 1.261 . S
C115 O124 1.247 . S
C115 O125 1.272 . S
O116 Co112 2.004 . S
O116 C121 1.259 . S
Co117 O118 2.061 . S
Co117 O123 2.052 . S
Co117 O125 2.135 . S
O118 Co117 2.061 . S
O118 C121 1.235 . S
C119 O122 1.238 . S
C119 O123 1.241 . S
C120 O113 1.247 . S
C120 O114 1.261 . S
C121 O116 1.259 . S
C121 O118 1.235 . S
O122 Co112 2.021 . S
O122 C119 1.238 . S
O123 Co117 2.052 . S
O123 C119 1.241 . S
O124 Co112 2.137 . S
O124 C115 1.247 . S
O125 Co112 2.244 . S
O125 C115 1.272 . S
O125 Co117 2.135 . S
Co126 O127 2.216 . S
Co126 O128 2.091 . S
Co126 O130 2.004 . S
Co126 O136 2.021 . S
Co126 O138 2.137 . S
Co126 O139 2.244 . S
O127 Co126 2.216 . S
O127 C134 1.247 . S
O128 Co126 2.091 . S
O128 C134 1.261 . S
C129 O138 1.247 . S
C129 O139 1.272 . S
O130 Co126 2.004 . S
O130 C135 1.259 . S
Co131 O132 2.061 . S
Co131 O137 2.052 . S
Co131 O139 2.135 . S
O132 Co131 2.061 . S
O132 C135 1.235 . S
C133 O136 1.238 . S
C133 O137 1.241 . S
C134 O127 1.247 . S
C134 O128 1.261 . S
C135 O130 1.259 . S
C135 O132 1.235 . S
O136 Co126 2.021 . S
O136 C133 1.238 . S
O137 Co131 2.052 . S
O137 C133 1.241 . S
O138 Co126 2.137 . S
O138 C129 1.247 . S
O139 Co126 2.244 . S
O139 C129 1.272 . S
O139 Co131 2.135 . S
Co140 O141 2.216 . S
Co140 O142 2.091 . S
Co140 O144 2.004 . S
Co140 O150 2.021 . S
Co140 O152 2.137 . S
Co140 O153 2.244 . S
O141 Co140 2.216 . S
O141 C148 1.247 . S
O142 Co140 2.091 . S
O142 C148 1.261 . S
C143 O152 1.247 . S
C143 O153 1.272 . S
O144 Co140 2.004 . S
O144 C149 1.259 . S
Co145 O146 2.061 . S
Co145 O151 2.052 . S
Co145 O153 2.135 . S
O146 Co145 2.061 . S
O146 C149 1.235 . S
C147 O150 1.238 . S
C147 O151 1.241 . S
C148 O141 1.247 . S
C148 O142 1.261 . S
C149 O144 1.259 . S
C149 O146 1.235 . S
O150 Co140 2.021 . S
O150 C147 1.238 . S
O151 Co145 2.052 . S
O151 C147 1.241 . S
O152 Co140 2.137 . S
O152 C143 1.247 . S
O153 Co140 2.244 . S
O153 C143 1.272 . S
O153 Co145 2.135 . S
Co154 O155 2.216 . S
Co154 O156 2.091 . S
Co154 O158 2.004 . S
Co154 O164 2.021 . S
Co154 O166 2.137 . S
Co154 O167 2.244 . S
O155 Co154 2.216 . S
O155 C162 1.247 . S
O156 Co154 2.091 . S
O156 C162 1.261 . S
C157 O166 1.247 . S
C157 O167 1.272 . S
O158 Co154 2.004 . S
O158 C163 1.259 . S
Co159 O160 2.061 . S
Co159 O165 2.052 . S
Co159 O167 2.135 . S
O160 Co159 2.061 . S
O160 C163 1.235 . S
C161 O164 1.238 1_554 S
C161 O165 1.241 1_554 S
C162 O155 1.247 . S
C162 O156 1.261 . S
C163 O158 1.259 . S
C163 O160 1.235 . S
O164 Co154 2.021 . S
O164 C161 1.238 1_556 S
O165 Co159 2.052 . S
O165 C161 1.241 1_556 S
O166 Co154 2.137 . S
O166 C157 1.247 . S
O167 Co154 2.244 . S
O167 C157 1.272 . S
O167 Co159 2.135 . S
Co168 O169 2.216 . S
Co168 O170 2.091 . S
Co168 O172 2.004 . S
Co168 O178 2.021 . S
Co168 O180 2.137 . S
Co168 O181 2.244 . S
O169 Co168 2.216 . S
O169 C176 1.247 . S
O170 Co168 2.091 . S
O170 C176 1.261 . S
C171 O180 1.247 . S
C171 O181 1.272 . S
O172 Co168 2.004 . S
O172 C177 1.259 . S
Co173 O174 2.061 . S
Co173 O179 2.052 . S
Co173 O181 2.135 . S
O174 Co173 2.061 . S
O174 C177 1.235 . S
C175 O178 1.238 . S
C175 O179 1.241 . S
C176 O169 1.247 . S
C176 O170 1.261 . S
C177 O172 1.259 . S
C177 O174 1.235 . S
O178 Co168 2.021 . S
O178 C175 1.238 . S
O179 Co173 2.052 . S
O179 C175 1.241 . S
O180 Co168 2.137 . S
O180 C171 1.247 . S
O181 Co168 2.244 . S
O181 C171 1.272 . S
O181 Co173 2.135 . S
Co182 O183 2.216 . S
Co182 O184 2.091 . S
Co182 O186 2.004 . S
Co182 O192 2.021 . S
Co182 O194 2.137 . S
Co182 O195 2.244 . S
O183 Co182 2.216 . S
O183 C190 1.247 . S
O184 Co182 2.091 . S
O184 C190 1.261 . S
C185 O194 1.247 . S
C185 O195 1.272 . S
O186 Co182 2.004 . S
O186 C191 1.259 . S
Co187 O188 2.061 . S
Co187 O193 2.052 . S
Co187 O195 2.135 . S
O188 Co187 2.061 . S
O188 C191 1.235 . S
C189 O192 1.238 . S
C189 O193 1.241 . S
C190 O183 1.247 . S
C190 O184 1.261 . S
C191 O186 1.259 . S
C191 O188 1.235 . S
O192 Co182 2.021 . S
O192 C189 1.238 . S
O193 Co187 2.052 . S
O193 C189 1.241 . S
O194 Co182 2.137 . S
O194 C185 1.247 . S
O195 Co182 2.244 . S
O195 C185 1.272 . S
O195 Co187 2.135 . S
Co196 O197 2.216 . S
Co196 O198 2.091 . S
Co196 O200 2.004 . S
Co196 O206 2.021 . S
Co196 O208 2.137 . S
Co196 O209 2.244 . S
O197 Co196 2.216 . S
O197 C204 1.247 . S
O198 Co196 2.091 . S
O198 C204 1.261 . S
C199 O208 1.247 . S
C199 O209 1.272 . S
O200 Co196 2.004 . S
O200 C205 1.259 . S
Co201 O202 2.061 . S
Co201 O207 2.052 . S
Co201 O209 2.135 . S
O202 Co201 2.061 . S
O202 C205 1.235 . S
C203 O206 1.238 . S
C203 O207 1.241 . S
C204 O197 1.247 . S
C204 O198 1.261 . S
C205 O200 1.259 . S
C205 O202 1.235 . S
O206 Co196 2.021 . S
O206 C203 1.238 . S
O207 Co201 2.052 . S
O207 C203 1.241 . S
O208 Co196 2.137 . S
O208 C199 1.247 . S
O209 Co196 2.244 . S
O209 C199 1.272 . S
O209 Co201 2.135 . S
Co210 O211 2.216 . S
Co210 O212 2.091 . S
Co210 O214 2.004 . S
Co210 O220 2.021 . S
Co210 O222 2.137 . S
Co210 O223 2.244 . S
O211 Co210 2.216 . S
O211 C218 1.247 . S
O212 Co210 2.091 . S
O212 C218 1.261 . S
C213 O222 1.247 . S
C213 O223 1.272 . S
O214 Co210 2.004 . S
O214 C219 1.259 . S
Co215 O216 2.061 . S
Co215 O221 2.052 . S
Co215 O223 2.135 . S
O216 Co215 2.061 . S
O216 C219 1.235 . S
C217 O220 1.238 1_556 S
C217 O221 1.241 1_556 S
C218 O211 1.247 . S
C218 O212 1.261 . S
C219 O214 1.259 . S
C219 O216 1.235 . S
O220 Co210 2.021 . S
O220 C217 1.238 1_554 S
O221 Co215 2.052 . S
O221 C217 1.241 1_554 S
O222 Co210 2.137 . S
O222 C213 1.247 . S
O223 Co210 2.244 . S
O223 C213 1.272 . S
O223 Co215 2.135 . S
Co224 O225 2.216 . S
Co224 O226 2.091 . S
Co224 O228 2.004 . S
Co224 O234 2.021 . S
Co224 O236 2.137 . S
Co224 O237 2.244 . S
O225 Co224 2.216 . S
O225 C232 1.247 . S
O226 Co224 2.091 . S
O226 C232 1.261 . S
C227 O236 1.247 . S
C227 O237 1.272 . S
O228 Co224 2.004 . S
O228 C233 1.259 . S
Co229 O230 2.061 . S
Co229 O235 2.052 . S
Co229 O237 2.135 . S
O230 Co229 2.061 . S
O230 C233 1.235 . S
C231 O234 1.238 . S
C231 O235 1.241 . S
C232 O225 1.247 . S
C232 O226 1.261 . S
C233 O228 1.259 . S
C233 O230 1.235 . S
O234 Co224 2.021 . S
O234 C231 1.238 . S
O235 Co229 2.052 . S
O235 C231 1.241 . S
O236 Co224 2.137 . S
O236 C227 1.247 . S
O237 Co224 2.244 . S
O237 C227 1.272 . S
O237 Co229 2.135 . S
Co238 O239 2.216 . S
Co238 O240 2.091 . S
Co238 O242 2.004 . S
Co238 O248 2.021 . S
Co238 O250 2.137 . S
Co238 O251 2.244 . S
O239 Co238 2.216 . S
O239 C246 1.247 . S
O240 Co238 2.091 . S
O240 C246 1.261 . S
C241 O250 1.247 . S
C241 O251 1.272 . S
O242 Co238 2.004 . S
O242 C247 1.259 . S
Co243 O244 2.061 . S
Co243 O249 2.052 . S
Co243 O251 2.135 . S
O244 Co243 2.061 . S
O244 C247 1.235 . S
C245 O248 1.238 1_556 S
C245 O249 1.241 1_556 S
C246 O239 1.247 . S
C246 O240 1.261 . S
C247 O242 1.259 . S
C247 O244 1.235 . S
O248 Co238 2.021 . S
O248 C245 1.238 1_554 S
O249 Co243 2.052 . S
O249 C245 1.241 1_554 S
O250 Co238 2.137 . S
O250 C241 1.247 . S
O251 Co238 2.244 . S
O251 C241 1.272 . S
O251 Co243 2.135 . S
Co252 O253 2.216 . S
Co252 O254 2.091 . S
Co252 O256 2.004 . S
Co252 O262 2.021 . S
Co252 O264 2.137 . S
Co252 O265 2.244 . S
O253 Co252 2.216 . S
O253 C260 1.247 . S
O254 Co252 2.091 . S
O254 C260 1.261 . S
C255 O264 1.247 . S
C255 O265 1.272 . S
O256 Co252 2.004 . S
O256 C261 1.259 . S
Co257 O258 2.061 . S
Co257 O263 2.052 . S
Co257 O265 2.135 . S
O258 Co257 2.061 . S
O258 C261 1.235 . S
C259 O262 1.238 . S
C259 O263 1.241 . S
C260 O253 1.247 . S
C260 O254 1.261 . S
C261 O256 1.259 . S
C261 O258 1.235 . S
O262 Co252 2.021 . S
O262 C259 1.238 . S
O263 Co257 2.052 . S
O263 C259 1.241 . S
O264 Co252 2.137 . S
O264 C255 1.247 . S
O265 Co252 2.244 . S
O265 C255 1.272 . S
O265 Co257 2.135 . S
Co266 O267 2.216 . S
Co266 O268 2.091 . S
Co266 O270 2.004 . S
Co266 O276 2.021 . S
Co266 O278 2.137 . S
Co266 O279 2.244 . S
O267 Co266 2.216 . S
O267 C274 1.247 . S
O268 Co266 2.091 . S
O268 C274 1.261 . S
C269 O278 1.247 . S
C269 O279 1.272 . S
O270 Co266 2.004 . S
O270 C275 1.259 . S
Co271 O272 2.061 . S
Co271 O277 2.052 . S
Co271 O279 2.135 . S
O272 Co271 2.061 . S
O272 C275 1.235 . S
C273 O276 1.238 . S
C273 O277 1.241 . S
C274 O267 1.247 . S
C274 O268 1.261 . S
C275 O270 1.259 . S
C275 O272 1.235 . S
O276 Co266 2.021 . S
O276 C273 1.238 . S
O277 Co271 2.052 . S
O277 C273 1.241 . S
O278 Co266 2.137 . S
O278 C269 1.247 . S
O279 Co266 2.244 . S
O279 C269 1.272 . S
O279 Co271 2.135 . S
Co280 O281 2.216 . S
Co280 O282 2.091 . S
Co280 O284 2.004 . S
Co280 O290 2.021 . S
Co280 O292 2.137 . S
Co280 O293 2.244 . S
O281 Co280 2.216 . S
O281 C288 1.247 . S
O282 Co280 2.091 . S
O282 C288 1.261 . S
C283 O292 1.247 . S
C283 O293 1.272 . S
O284 Co280 2.004 . S
O284 C289 1.259 . S
Co285 O286 2.061 . S
Co285 O291 2.052 . S
Co285 O293 2.135 . S
O286 Co285 2.061 . S
O286 C289 1.235 . S
C287 O290 1.238 . S
C287 O291 1.241 . S
C288 O281 1.247 . S
C288 O282 1.261 . S
C289 O284 1.259 . S
C289 O286 1.235 . S
O290 Co280 2.021 . S
O290 C287 1.238 . S
O291 Co285 2.052 . S
O291 C287 1.241 . S
O292 Co280 2.137 . S
O292 C283 1.247 . S
O293 Co280 2.244 . S
O293 C283 1.272 . S
O293 Co285 2.135 . S
Co294 O295 2.216 . S
Co294 O296 2.091 . S
Co294 O298 2.004 . S
Co294 O304 2.021 . S
Co294 O306 2.137 . S
Co294 O307 2.244 . S
O295 Co294 2.216 . S
O295 C302 1.247 . S
O296 Co294 2.091 . S
O296 C302 1.261 . S
C297 O306 1.247 . S
C297 O307 1.272 . S
O298 Co294 2.004 . S
O298 C303 1.259 . S
Co299 O300 2.061 . S
Co299 O305 2.052 . S
Co299 O307 2.135 . S
O300 Co299 2.061 . S
O300 C303 1.235 . S
C301 O304 1.238 1_554 S
C301 O305 1.241 1_554 S
C302 O295 1.247 . S
C302 O296 1.261 . S
C303 O298 1.259 . S
C303 O300 1.235 . S
O304 Co294 2.021 . S
O304 C301 1.238 1_556 S
O305 Co299 2.052 . S
O305 C301 1.241 1_556 S
O306 Co294 2.137 . S
O306 C297 1.247 . S
O307 Co294 2.244 . S
O307 C297 1.272 . S
O307 Co299 2.135 . S
Co308 O309 2.216 . S
Co308 O310 2.091 . S
Co308 O312 2.004 . S
Co308 O318 2.021 . S
Co308 O320 2.137 . S
Co308 O321 2.244 . S
O309 Co308 2.216 . S
O309 C316 1.247 . S
O310 Co308 2.091 . S
O310 C316 1.261 . S
C311 O320 1.247 . S
C311 O321 1.272 . S
O312 Co308 2.004 . S
O312 C317 1.259 . S
Co313 O314 2.061 . S
Co313 O319 2.052 . S
Co313 O321 2.135 . S
O314 Co313 2.061 . S
O314 C317 1.235 . S
C315 O318 1.238 . S
C315 O319 1.241 . S
C316 O309 1.247 . S
C316 O310 1.261 . S
C317 O312 1.259 . S
C317 O314 1.235 . S
O318 Co308 2.021 . S
O318 C315 1.238 . S
O319 Co313 2.052 . S
O319 C315 1.241 . S
O320 Co308 2.137 . S
O320 C311 1.247 . S
O321 Co308 2.244 . S
O321 C311 1.272 . S
O321 Co313 2.135 . S
Co322 O323 2.216 . S
Co322 O324 2.091 . S
Co322 O326 2.004 . S
Co322 O332 2.021 . S
Co322 O334 2.137 . S
Co322 O335 2.244 . S
O323 Co322 2.216 . S
O323 C330 1.247 . S
O324 Co322 2.091 . S
O324 C330 1.261 . S
C325 O334 1.247 . S
C325 O335 1.272 . S
O326 Co322 2.004 . S
O326 C331 1.259 . S
Co327 O328 2.061 . S
Co327 O333 2.052 . S
Co327 O335 2.135 . S
O328 Co327 2.061 . S
O328 C331 1.235 . S
C329 O332 1.238 . S
C329 O333 1.241 . S
C330 O323 1.247 . S
C330 O324 1.261 . S
C331 O326 1.259 . S
C331 O328 1.235 . S
O332 Co322 2.021 . S
O332 C329 1.238 . S
O333 Co327 2.052 . S
O333 C329 1.241 . S
O334 Co322 2.137 . S
O334 C325 1.247 . S
O335 Co322 2.244 . S
O335 C325 1.272 . S
O335 Co327 2.135 . S
Co336 O337 2.216 . S
Co336 O338 2.091 . S
Co336 O340 2.004 . S
Co336 O346 2.021 . S
Co336 O348 2.137 . S
Co336 O349 2.244 . S
O337 Co336 2.216 . S
O337 C344 1.247 . S
O338 Co336 2.091 . S
O338 C344 1.261 . S
C339 O348 1.247 . S
C339 O349 1.272 . S
O340 Co336 2.004 . S
O340 C345 1.259 . S
Co341 O342 2.061 . S
Co341 O347 2.052 . S
Co341 O349 2.135 . S
O342 Co341 2.061 . S
O342 C345 1.235 . S
C343 O346 1.238 . S
C343 O347 1.241 . S
C344 O337 1.247 . S
C344 O338 1.261 . S
C345 O340 1.259 . S
C345 O342 1.235 . S
O346 Co336 2.021 . S
O346 C343 1.238 . S
O347 Co341 2.052 . S
O347 C343 1.241 . S
O348 Co336 2.137 . S
O348 C339 1.247 . S
O349 Co336 2.244 . S
O349 C339 1.272 . S
O349 Co341 2.135 . S
Co350 O351 2.216 . S
Co350 O352 2.091 . S
Co350 O354 2.004 . S
Co350 O360 2.021 . S
Co350 O362 2.137 . S
Co350 O363 2.244 . S
O351 Co350 2.216 . S
O351 C358 1.247 . S
O352 Co350 2.091 . S
O352 C358 1.261 . S
C353 O362 1.247 . S
C353 O363 1.272 . S
O354 Co350 2.004 . S
O354 C359 1.259 . S
Co355 O356 2.061 . S
Co355 O361 2.052 . S
Co355 O363 2.135 . S
O356 Co355 2.061 . S
O356 C359 1.235 . S
C357 O360 1.238 1_554 S
C357 O361 1.241 1_554 S
C358 O351 1.247 . S
C358 O352 1.261 . S
C359 O354 1.259 . S
C359 O356 1.235 . S
O360 Co350 2.021 . S
O360 C357 1.238 1_556 S
O361 Co355 2.052 . S
O361 C357 1.241 1_556 S
O362 Co350 2.137 . S
O362 C353 1.247 . S
O363 Co350 2.244 . S
O363 C353 1.272 . S
O363 Co355 2.135 . S
Co364 O365 2.216 . S
Co364 O366 2.091 . S
Co364 O368 2.004 . S
Co364 O374 2.021 . S
Co364 O376 2.137 . S
Co364 O377 2.244 . S
O365 Co364 2.216 . S
O365 C372 1.247 . S
O366 Co364 2.091 . S
O366 C372 1.261 . S
C367 O376 1.247 . S
C367 O377 1.272 . S
O368 Co364 2.004 . S
O368 C373 1.259 . S
Co369 O370 2.061 . S
Co369 O375 2.052 . S
Co369 O377 2.135 . S
O370 Co369 2.061 . S
O370 C373 1.235 . S
C371 O374 1.238 . S
C371 O375 1.241 . S
C372 O365 1.247 . S
C372 O366 1.261 . S
C373 O368 1.259 . S
C373 O370 1.235 . S
O374 Co364 2.021 . S
O374 C371 1.238 . S
O375 Co369 2.052 . S
O375 C371 1.241 . S
O376 Co364 2.137 . S
O376 C367 1.247 . S
O377 Co364 2.244 . S
O377 C367 1.272 . S
O377 Co369 2.135 . S
Co378 O379 2.216 . S
Co378 O380 2.091 . S
Co378 O382 2.004 . S
Co378 O388 2.021 . S
Co378 O390 2.137 . S
Co378 O391 2.244 . S
O379 Co378 2.216 . S
O379 C386 1.247 . S
O380 Co378 2.091 . S
O380 C386 1.261 . S
C381 O390 1.247 . S
C381 O391 1.272 . S
O382 Co378 2.004 . S
O382 C387 1.259 . S
Co383 O384 2.061 . S
Co383 O389 2.052 . S
Co383 O391 2.135 . S
O384 Co383 2.061 . S
O384 C387 1.235 . S
C385 O388 1.238 . S
C385 O389 1.241 . S
C386 O379 1.247 . S
C386 O380 1.261 . S
C387 O382 1.259 . S
C387 O384 1.235 . S
O388 Co378 2.021 . S
O388 C385 1.238 . S
O389 Co383 2.052 . S
O389 C385 1.241 . S
O390 Co378 2.137 . S
O390 C381 1.247 . S
O391 Co378 2.244 . S
O391 C381 1.272 . S
O391 Co383 2.135 . S
Co392 O393 2.216 . S
Co392 O394 2.091 . S
Co392 O396 2.004 . S
Co392 O402 2.021 . S
Co392 O404 2.137 . S
Co392 O405 2.244 . S
O393 Co392 2.216 . S
O393 C400 1.247 . S
O394 Co392 2.091 . S
O394 C400 1.261 . S
C395 O404 1.247 . S
C395 O405 1.272 . S
O396 Co392 2.004 . S
O396 C401 1.259 . S
Co397 O398 2.061 . S
Co397 O403 2.052 . S
Co397 O405 2.135 . S
O398 Co397 2.061 . S
O398 C401 1.235 . S
C399 O402 1.238 . S
C399 O403 1.241 . S
C400 O393 1.247 . S
C400 O394 1.261 . S
C401 O396 1.259 . S
C401 O398 1.235 . S
O402 Co392 2.021 . S
O402 C399 1.238 . S
O403 Co397 2.052 . S
O403 C399 1.241 . S
O404 Co392 2.137 . S
O404 C395 1.247 . S
O405 Co392 2.244 . S
O405 C395 1.272 . S
O405 Co397 2.135 . S
Co406 O407 2.216 . S
Co406 O408 2.091 . S
Co406 O410 2.004 . S
Co406 O416 2.021 . S
Co406 O418 2.137 . S
Co406 O419 2.244 . S
O407 Co406 2.216 . S
O407 C414 1.247 . S
O408 Co406 2.091 . S
O408 C414 1.261 . S
C409 O418 1.247 . S
C409 O419 1.272 . S
O410 Co406 2.004 . S
O410 C415 1.259 . S
Co411 O412 2.061 . S
Co411 O417 2.052 . S
Co411 O419 2.135 . S
O412 Co411 2.061 . S
O412 C415 1.235 . S
C413 O416 1.238 1_556 S
C413 O417 1.241 1_556 S
C414 O407 1.247 . S
C414 O408 1.261 . S
C415 O410 1.259 . S
C415 O412 1.235 . S
O416 Co406 2.021 . S
O416 C413 1.238 1_554 S
O417 Co411 2.052 . S
O417 C413 1.241 1_554 S
O418 Co406 2.137 . S
O418 C409 1.247 . S
O419 Co406 2.244 . S
O419 C409 1.272 . S
O419 Co411 2.135 . S
Co420 O421 2.216 . S
Co420 O422 2.091 . S
Co420 O424 2.004 . S
Co420 O430 2.021 . S
Co420 O432 2.137 . S
Co420 O433 2.244 . S
O421 Co420 2.216 . S
O421 C428 1.247 . S
O422 Co420 2.091 . S
O422 C428 1.261 . S
C423 O432 1.247 . S
C423 O433 1.272 . S
O424 Co420 2.004 . S
O424 C429 1.259 . S
Co425 O426 2.061 . S
Co425 O431 2.052 . S
Co425 O433 2.135 . S
O426 Co425 2.061 . S
O426 C429 1.235 . S
C427 O430 1.238 . S
C427 O431 1.241 . S
C428 O421 1.247 . S
C428 O422 1.261 . S
C429 O424 1.259 . S
C429 O426 1.235 . S
O430 Co420 2.021 . S
O430 C427 1.238 . S
O431 Co425 2.052 . S
O431 C427 1.241 . S
O432 Co420 2.137 . S
O432 C423 1.247 . S
O433 Co420 2.244 . S
O433 C423 1.272 . S
O433 Co425 2.135 . S
Co434 O435 2.216 . S
Co434 O436 2.091 . S
Co434 O438 2.004 . S
Co434 O444 2.021 . S
Co434 O446 2.137 . S
Co434 O447 2.244 . S
O435 Co434 2.216 . S
O435 C442 1.247 . S
O436 Co434 2.091 . S
O436 C442 1.261 . S
C437 O446 1.247 . S
C437 O447 1.272 . S
O438 Co434 2.004 . S
O438 C443 1.259 . S
Co439 O440 2.061 . S
Co439 O445 2.052 . S
Co439 O447 2.135 . S
O440 Co439 2.061 . S
O440 C443 1.235 . S
C441 O444 1.238 . S
C441 O445 1.241 . S
C442 O435 1.247 . S
C442 O436 1.261 . S
C443 O438 1.259 . S
C443 O440 1.235 . S
O444 Co434 2.021 . S
O444 C441 1.238 . S
O445 Co439 2.052 . S
O445 C441 1.241 . S
O446 Co434 2.137 . S
O446 C437 1.247 . S
O447 Co434 2.244 . S
O447 C437 1.272 . S
O447 Co439 2.135 . S
H448 C456 0.929 . S
H449 C458 0.930 . S
H450 C460 0.930 . S
H451 C463 0.929 . S
H452 C466 0.930 . S
H453 C468 0.960 . S
H454 C468 0.960 . S
H455 C468 0.960 . S
C456 H448 0.929 . S
C456 C457 1.377 . S
C456 C458 1.384 . S
C457 C456 1.377 . S
C457 C463 1.390 . S
C458 H449 0.930 . S
C458 C456 1.384 . S
C458 C459 1.372 . S
C459 C458 1.372 . S
C459 C460 1.400 . S
C459 C464 1.490 . S
C460 H450 0.930 . S
C460 C459 1.400 . S
C460 C463 1.386 . S
H461 C477 0.930 . S
H462 C478 0.931 . S
C463 H451 0.929 . S
C463 C457 1.390 . S
C463 C460 1.386 . S
C464 C459 1.490 . S
C464 C466 1.395 . S
C464 C467 1.403 . S
H465 C471 0.930 . S
C466 H452 0.930 . S
C466 C464 1.395 . S
C466 C469 1.403 . S
C467 C464 1.403 . S
C467 C468 1.524 . S
C467 C471 1.400 . S
C468 H453 0.960 . S
C468 H454 0.960 . S
C468 H455 0.960 . S
C468 C467 1.524 . S
C469 C466 1.403 . S
C469 C470 1.392 . S
C469 C473 1.495 . S
C470 C469 1.392 . S
C470 C471 1.385 . S
C470 C472 1.478 . S
C471 H465 0.930 . S
C471 C467 1.400 . S
C471 C470 1.385 . S
C472 C470 1.478 . S
C472 C474 1.381 . S
C472 C478 1.383 . S
C473 C469 1.495 . S
C473 H479 0.959 . S
C473 H480 0.961 . S
C473 H481 0.960 . S
C474 C472 1.381 . S
C474 C475 1.394 . S
C474 H482 0.930 . S
C475 C474 1.394 . S
C475 C476 1.383 . S
C475 H483 0.929 . S
C476 C475 1.383 . S
C476 C477 1.377 . S
C477 H461 0.930 . S
C477 C476 1.377 . S
C477 C478 1.379 . S
C478 H462 0.931 . S
C478 C472 1.383 . S
C478 C477 1.379 . S
H479 C473 0.959 . S
H480 C473 0.961 . S
H481 C473 0.960 . S
H482 C474 0.930 . S
H483 C475 0.929 . S
H484 C492 0.926 1_655 S
H485 C494 0.930 . S
H486 C496 0.930 . S
H487 C499 0.929 . S
H488 C502 0.930 . S
H489 C504 0.960 . S
H490 C504 0.960 . S
H491 C504 0.960 . S
C492 H484 0.926 1_455 S
C492 C493 1.360 1_455 S
C492 C494 1.403 . S
C493 C492 1.360 1_655 S
C493 C499 1.390 . S
C494 H485 0.930 . S
C494 C492 1.403 . S
C494 C495 1.372 . S
C495 C494 1.372 . S
C495 C496 1.400 . S
C495 C500 1.490 . S
C496 H486 0.930 . S
C496 C495 1.400 . S
C496 C499 1.386 1_455 S
H497 C513 0.930 . S
H498 C514 0.931 . S
C499 H487 0.929 . S
C499 C493 1.390 . S
C499 C496 1.386 1_655 S
C500 C495 1.490 . S
C500 C502 1.395 . S
C500 C503 1.403 . S
H501 C507 0.930 . S
C502 H488 0.930 . S
C502 C500 1.395 . S
C502 C505 1.403 . S
C503 C500 1.403 . S
C503 C504 1.524 . S
C503 C507 1.400 . S
C504 H489 0.960 . S
C504 H490 0.960 . S
C504 H491 0.960 . S
C504 C503 1.524 . S
C505 C502 1.403 . S
C505 C506 1.392 . S
C505 C509 1.495 . S
C506 C505 1.392 . S
C506 C507 1.385 . S
C506 C508 1.478 . S
C507 H501 0.930 . S
C507 C503 1.400 . S
C507 C506 1.385 . S
C508 C506 1.478 . S
C508 C510 1.381 . S
C508 C514 1.383 . S
C509 C505 1.495 . S
C509 H515 0.959 . S
C509 H516 0.961 . S
C509 H517 0.960 . S
C510 C508 1.381 . S
C510 C511 1.394 . S
C510 H518 0.930 . S
C511 C510 1.394 . S
C511 C512 1.383 . S
C511 H519 0.929 . S
C512 C511 1.383 . S
C512 C513 1.377 . S
C513 H497 0.930 . S
C513 C512 1.377 . S
C513 C514 1.379 . S
C514 H498 0.931 . S
C514 C508 1.383 . S
C514 C513 1.379 . S
H515 C509 0.959 . S
H516 C509 0.961 . S
H517 C509 0.960 . S
H518 C510 0.930 . S
H519 C511 0.929 . S
H520 C528 0.929 . S
H521 C530 0.930 . S
H522 C532 0.930 . S
H523 C535 0.929 . S
H524 C538 0.930 . S
H525 C540 0.960 . S
H526 C540 0.960 . S
H527 C540 0.960 . S
C528 H520 0.929 . S
C528 C529 1.377 . S
C528 C530 1.384 . S
C529 C528 1.377 . S
C529 C535 1.390 . S
C530 H521 0.930 . S
C530 C528 1.384 . S
C530 C531 1.372 . S
C531 C530 1.372 . S
C531 C532 1.400 . S
C531 C536 1.490 . S
C532 H522 0.930 . S
C532 C531 1.400 . S
C532 C535 1.386 . S
H533 C549 0.930 . S
H534 C550 0.931 . S
C535 H523 0.929 . S
C535 C529 1.390 . S
C535 C532 1.386 . S
C536 C531 1.490 . S
C536 C538 1.395 . S
C536 C539 1.403 . S
H537 C543 0.930 . S
C538 H524 0.930 . S
C538 C536 1.395 . S
C538 C541 1.403 . S
C539 C536 1.403 . S
C539 C540 1.524 . S
C539 C543 1.400 . S
C540 H525 0.960 . S
C540 H526 0.960 . S
C540 H527 0.960 . S
C540 C539 1.524 . S
C541 C538 1.403 . S
C541 C542 1.392 . S
C541 C545 1.495 . S
C542 C541 1.392 . S
C542 C543 1.385 . S
C542 C544 1.478 . S
C543 H537 0.930 . S
C543 C539 1.400 . S
C543 C542 1.385 . S
C544 C542 1.478 . S
C544 C546 1.381 . S
C544 C550 1.383 . S
C545 C541 1.495 . S
C545 H551 0.959 . S
C545 H552 0.961 . S
C545 H553 0.960 . S
C546 C544 1.381 . S
C546 C547 1.394 . S
C546 H554 0.930 . S
C547 C546 1.394 . S
C547 C548 1.383 . S
C547 H555 0.929 . S
C548 C547 1.383 . S
C548 C549 1.377 . S
C549 H533 0.930 . S
C549 C548 1.377 . S
C549 C550 1.379 . S
C550 H534 0.931 . S
C550 C544 1.383 . S
C550 C549 1.379 . S
H551 C545 0.959 . S
H552 C545 0.961 . S
H553 C545 0.960 . S
H554 C546 0.930 . S
H555 C547 0.929 . S
H556 C564 0.929 . S
H557 C566 0.930 . S
H558 C568 0.930 . S
H559 C571 0.929 . S
H560 C574 0.930 . S
H561 C576 0.960 . S
H562 C576 0.960 . S
H563 C576 0.960 . S
C564 H556 0.929 . S
C564 C565 1.377 . S
C564 C566 1.384 . S
C565 C564 1.377 . S
C565 C571 1.390 . S
C566 H557 0.930 . S
C566 C564 1.384 . S
C566 C567 1.372 . S
C567 C566 1.372 . S
C567 C568 1.400 . S
C567 C572 1.490 . S
C568 H558 0.930 . S
C568 C567 1.400 . S
C568 C571 1.386 . S
H569 C585 0.930 . S
H570 C586 0.931 . S
C571 H559 0.929 . S
C571 C565 1.390 . S
C571 C568 1.386 . S
C572 C567 1.490 . S
C572 C574 1.395 . S
C572 C575 1.403 . S
H573 C579 0.930 . S
C574 H560 0.930 . S
C574 C572 1.395 . S
C574 C577 1.403 . S
C575 C572 1.403 . S
C575 C576 1.524 . S
C575 C579 1.400 . S
C576 H561 0.960 . S
C576 H562 0.960 . S
C576 H563 0.960 . S
C576 C575 1.524 . S
C577 C574 1.403 . S
C577 C578 1.392 . S
C577 C581 1.495 . S
C578 C577 1.392 . S
C578 C579 1.385 . S
C578 C580 1.478 . S
C579 H573 0.930 . S
C579 C575 1.400 . S
C579 C578 1.385 . S
C580 C578 1.478 . S
C580 C582 1.381 . S
C580 C586 1.383 . S
C581 C577 1.495 . S
C581 H587 0.959 . S
C581 H588 0.961 . S
C581 H589 0.960 . S
C582 C580 1.381 . S
C582 C583 1.394 . S
C582 H590 0.930 . S
C583 C582 1.394 . S
C583 C584 1.383 . S
C583 H591 0.929 . S
C584 C583 1.383 . S
C584 C585 1.377 . S
C585 H569 0.930 . S
C585 C584 1.377 . S
C585 C586 1.379 . S
C586 H570 0.931 . S
C586 C580 1.383 . S
C586 C585 1.379 . S
H587 C581 0.959 . S
H588 C581 0.961 . S
H589 C581 0.960 . S
H590 C582 0.930 . S
H591 C583 0.929 . S
H592 C600 0.929 . S
H593 C602 0.930 . S
H594 C604 0.930 . S
H595 C607 0.929 . S
H596 C610 0.930 . S
H597 C612 0.960 . S
H598 C612 0.960 . S
H599 C612 0.960 . S
C600 H592 0.929 . S
C600 C601 1.377 . S
C600 C602 1.384 . S
C601 C600 1.377 . S
C601 C607 1.390 . S
C602 H593 0.930 . S
C602 C600 1.384 . S
C602 C603 1.372 . S
C603 C602 1.372 . S
C603 C604 1.400 . S
C603 C608 1.490 . S
C604 H594 0.930 . S
C604 C603 1.400 . S
C604 C607 1.386 . S
H605 C621 0.930 . S
H606 C622 0.931 . S
C607 H595 0.929 . S
C607 C601 1.390 . S
C607 C604 1.386 . S
C608 C603 1.490 . S
C608 C610 1.395 . S
C608 C611 1.403 . S
H609 C615 0.930 . S
C610 H596 0.930 . S
C610 C608 1.395 . S
C610 C613 1.403 . S
C611 C608 1.403 . S
C611 C612 1.524 . S
C611 C615 1.400 . S
C612 H597 0.960 . S
C612 H598 0.960 . S
C612 H599 0.960 . S
C612 C611 1.524 . S
C613 C610 1.403 . S
C613 C614 1.392 . S
C613 C617 1.495 . S
C614 C613 1.392 . S
C614 C615 1.385 . S
C614 C616 1.478 . S
C615 H609 0.930 . S
C615 C611 1.400 . S
C615 C614 1.385 . S
C616 C614 1.478 . S
C616 C618 1.381 . S
C616 C622 1.383 . S
C617 C613 1.495 . S
C617 H623 0.959 . S
C617 H624 0.961 . S
C617 H625 0.960 . S
C618 C616 1.381 . S
C618 C619 1.394 . S
C618 H626 0.930 . S
C619 C618 1.394 . S
C619 C620 1.383 . S
C619 H627 0.929 . S
C620 C619 1.383 . S
C620 C621 1.377 . S
C621 H605 0.930 . S
C621 C620 1.377 . S
C621 C622 1.379 . S
C622 H606 0.931 . S
C622 C616 1.383 . S
C622 C621 1.379 . S
H623 C617 0.959 . S
H624 C617 0.961 . S
H625 C617 0.960 . S
H626 C618 0.930 . S
H627 C619 0.929 . S
H628 C636 0.929 . S
H629 C638 0.930 . S
H630 C640 0.930 . S
H631 C643 0.929 . S
H632 C646 0.930 . S
H633 C648 0.960 . S
H634 C648 0.960 . S
H635 C648 0.960 . S
C636 H628 0.929 . S
C636 C637 1.377 . S
C636 C638 1.384 . S
C637 C636 1.377 . S
C637 C643 1.390 . S
C638 H629 0.930 . S
C638 C636 1.384 . S
C638 C639 1.372 . S
C639 C638 1.372 . S
C639 C640 1.400 . S
C639 C644 1.490 . S
C640 H630 0.930 . S
C640 C639 1.400 . S
C640 C643 1.386 . S
H641 C657 0.930 . S
H642 C658 0.931 . S
C643 H631 0.929 . S
C643 C637 1.390 . S
C643 C640 1.386 . S
C644 C639 1.490 . S
C644 C646 1.395 . S
C644 C647 1.403 . S
H645 C651 0.930 . S
C646 H632 0.930 . S
C646 C644 1.395 . S
C646 C649 1.403 . S
C647 C644 1.403 . S
C647 C648 1.524 . S
C647 C651 1.400 . S
C648 H633 0.960 . S
C648 H634 0.960 . S
C648 H635 0.960 . S
C648 C647 1.524 . S
C649 C646 1.403 . S
C649 C650 1.392 . S
C649 C653 1.495 . S
C650 C649 1.392 . S
C650 C651 1.385 . S
C650 C652 1.478 . S
C651 H645 0.930 . S
C651 C647 1.400 . S
C651 C650 1.385 . S
C652 C650 1.478 . S
C652 C654 1.381 . S
C652 C658 1.383 . S
C653 C649 1.495 . S
C653 H659 0.959 . S
C653 H660 0.961 . S
C653 H661 0.960 . S
C654 C652 1.381 . S
C654 C655 1.394 . S
C654 H662 0.930 . S
C655 C654 1.394 . S
C655 C656 1.383 . S
C655 H663 0.929 . S
C656 C655 1.383 . S
C656 C657 1.377 . S
C657 H641 0.930 . S
C657 C656 1.377 . S
C657 C658 1.379 . S
C658 H642 0.931 . S
C658 C652 1.383 . S
C658 C657 1.379 . S
H659 C653 0.959 . S
H660 C653 0.961 . S
H661 C653 0.960 . S
H662 C654 0.930 . S
H663 C655 0.929 . S
H664 C672 0.929 . S
H665 C674 0.930 . S
H666 C676 0.930 . S
H667 C679 0.929 . S
H668 C682 0.930 . S
H669 C684 0.960 . S
H670 C684 0.960 . S
H671 C684 0.960 . S
C672 H664 0.929 . S
C672 C673 1.377 . S
C672 C674 1.384 . S
C673 C672 1.377 . S
C673 C679 1.390 . S
C674 H665 0.930 . S
C674 C672 1.384 . S
C674 C675 1.372 . S
C675 C674 1.372 . S
C675 C676 1.400 . S
C675 C680 1.490 . S
C676 H666 0.930 . S
C676 C675 1.400 . S
C676 C679 1.386 . S
H677 C693 0.930 . S
H678 C694 0.931 . S
C679 H667 0.929 . S
C679 C673 1.390 . S
C679 C676 1.386 . S
C680 C675 1.490 . S
C680 C682 1.395 . S
C680 C683 1.403 . S
H681 C687 0.930 . S
C682 H668 0.930 . S
C682 C680 1.395 . S
C682 C685 1.403 . S
C683 C680 1.403 . S
C683 C684 1.524 . S
C683 C687 1.400 . S
C684 H669 0.960 . S
C684 H670 0.960 . S
C684 H671 0.960 . S
C684 C683 1.524 . S
C685 C682 1.403 . S
C685 C686 1.392 . S
C685 C689 1.495 . S
C686 C685 1.392 . S
C686 C687 1.385 . S
C686 C688 1.478 . S
C687 H681 0.930 . S
C687 C683 1.400 . S
C687 C686 1.385 . S
C688 C686 1.478 . S
C688 C690 1.381 . S
C688 C694 1.383 . S
C689 C685 1.495 . S
C689 H695 0.959 . S
C689 H696 0.961 . S
C689 H697 0.960 . S
C690 C688 1.381 . S
C690 C691 1.394 . S
C690 H698 0.930 . S
C691 C690 1.394 . S
C691 C692 1.383 . S
C691 H699 0.929 . S
C692 C691 1.383 . S
C692 C693 1.377 . S
C693 H677 0.930 . S
C693 C692 1.377 . S
C693 C694 1.379 . S
C694 H678 0.931 . S
C694 C688 1.383 . S
C694 C693 1.379 . S
H695 C689 0.959 . S
H696 C689 0.961 . S
H697 C689 0.960 . S
H698 C690 0.930 . S
H699 C691 0.929 . S
H700 C708 0.929 . S
H701 C710 0.930 . S
H702 C712 0.930 . S
H703 C715 0.929 . S
H704 C718 0.930 . S
H705 C720 0.960 . S
H706 C720 0.960 . S
H707 C720 0.960 . S
C708 H700 0.929 . S
C708 C709 1.377 . S
C708 C710 1.384 . S
C709 C708 1.377 . S
C709 C715 1.390 . S
C710 H701 0.930 . S
C710 C708 1.384 . S
C710 C711 1.372 . S
C711 C710 1.372 . S
C711 C712 1.400 . S
C711 C716 1.490 . S
C712 H702 0.930 . S
C712 C711 1.400 . S
C712 C715 1.386 . S
H713 C729 0.929 . S
H714 C730 0.931 . S
C715 H703 0.929 . S
C715 C709 1.390 . S
C715 C712 1.386 . S
C716 C711 1.490 . S
C716 C718 1.395 . S
C716 C719 1.403 . S
H717 C723 0.930 . S
C718 H704 0.930 . S
C718 C716 1.395 . S
C718 C721 1.403 . S
C719 C716 1.403 . S
C719 C720 1.524 . S
C719 C723 1.400 . S
C720 H705 0.960 . S
C720 H706 0.960 . S
C720 H707 0.960 . S
C720 C719 1.524 . S
C721 C718 1.403 . S
C721 C722 1.392 . S
C721 C725 1.495 . S
C722 C721 1.392 . S
C722 C723 1.385 . S
C722 C724 1.478 . S
C723 H717 0.930 . S
C723 C719 1.400 . S
C723 C722 1.385 . S
C724 C722 1.478 . S
C724 C726 1.433 . S
C724 C730 1.383 . S
C725 C721 1.495 . S
C725 H731 0.959 . S
C725 H732 0.961 . S
C725 H733 0.960 . S
C726 C724 1.433 . S
C726 C727 1.343 1_455 S
C726 H734 0.933 . S
C727 C726 1.343 1_655 S
C727 C728 1.383 . S
C727 H735 0.929 . S
C728 C727 1.383 . S
C728 C729 1.375 1_655 S
C729 H713 0.929 . S
C729 C728 1.375 1_455 S
C729 C730 1.382 . S
C730 H714 0.931 . S
C730 C724 1.383 . S
C730 C729 1.382 . S
H731 C725 0.959 . S
H732 C725 0.961 . S
H733 C725 0.960 . S
H734 C726 0.933 . S
H735 C727 0.929 . S
H736 C744 0.929 . S
H737 C746 0.930 . S
H738 C748 0.930 . S
H739 C751 0.929 . S
H740 C754 0.930 . S
H741 C756 0.960 . S
H742 C756 0.960 . S
H743 C756 0.960 . S
C744 H736 0.929 . S
C744 C745 1.377 . S
C744 C746 1.384 . S
C745 C744 1.377 . S
C745 C751 1.390 . S
C746 H737 0.930 . S
C746 C744 1.384 . S
C746 C747 1.372 . S
C747 C746 1.372 . S
C747 C748 1.400 . S
C747 C752 1.490 . S
C748 H738 0.930 . S
C748 C747 1.400 . S
C748 C751 1.386 . S
H749 C765 0.930 . S
H750 C766 0.931 . S
C751 H739 0.929 . S
C751 C745 1.390 . S
C751 C748 1.386 . S
C752 C747 1.490 . S
C752 C754 1.395 . S
C752 C755 1.403 . S
H753 C759 0.930 . S
C754 H740 0.930 . S
C754 C752 1.395 . S
C754 C757 1.403 . S
C755 C752 1.403 . S
C755 C756 1.524 . S
C755 C759 1.400 . S
C756 H741 0.960 . S
C756 H742 0.960 . S
C756 H743 0.960 . S
C756 C755 1.524 . S
C757 C754 1.403 . S
C757 C758 1.392 . S
C757 C761 1.495 . S
C758 C757 1.392 . S
C758 C759 1.385 . S
C758 C760 1.478 . S
C759 H753 0.930 . S
C759 C755 1.400 . S
C759 C758 1.385 . S
C760 C758 1.478 . S
C760 C762 1.381 . S
C760 C766 1.383 . S
C761 C757 1.495 . S
C761 H767 0.959 . S
C761 H768 0.961 . S
C761 H769 0.960 . S
C762 C760 1.381 . S
C762 C763 1.394 . S
C762 H770 0.930 . S
C763 C762 1.394 . S
C763 C764 1.383 . S
C763 H771 0.929 . S
C764 C763 1.383 . S
C764 C765 1.377 . S
C765 H749 0.930 . S
C765 C764 1.377 . S
C765 C766 1.379 . S
C766 H750 0.931 . S
C766 C760 1.383 . S
C766 C765 1.379 . S
H767 C761 0.959 . S
H768 C761 0.961 . S
H769 C761 0.960 . S
H770 C762 0.930 . S
H771 C763 0.929 . S
H772 C780 0.929 . S
H773 C782 0.930 . S
H774 C784 0.930 . S
H775 C787 0.932 . S
H776 C790 0.930 . S
H777 C792 0.960 . S
H778 C792 0.960 . S
H779 C792 0.960 . S
C780 H772 0.929 . S
C780 C781 1.377 . S
C780 C782 1.384 1_455 S
C781 C780 1.377 . S
C781 C787 1.390 1_455 S
C782 H773 0.930 . S
C782 C780 1.384 1_655 S
C782 C783 1.372 . S
C783 C782 1.372 . S
C783 C784 1.400 . S
C783 C788 1.490 . S
C784 H774 0.930 . S
C784 C783 1.400 . S
C784 C787 1.386 . S
H785 C801 0.930 . S
H786 C802 0.931 . S
C787 H775 0.932 . S
C787 C781 1.390 1_655 S
C787 C784 1.386 . S
C788 C783 1.490 . S
C788 C790 1.395 . S
C788 C791 1.403 . S
H789 C795 0.930 . S
C790 H776 0.930 . S
C790 C788 1.395 . S
C790 C793 1.403 . S
C791 C788 1.403 . S
C791 C792 1.524 . S
C791 C795 1.400 . S
C792 H777 0.960 . S
C792 H778 0.960 . S
C792 H779 0.960 . S
C792 C791 1.524 . S
C793 C790 1.403 . S
C793 C794 1.392 . S
C793 C797 1.495 . S
C794 C793 1.392 . S
C794 C795 1.385 . S
C794 C796 1.478 . S
C795 H789 0.930 . S
C795 C791 1.400 . S
C795 C794 1.385 . S
C796 C794 1.478 . S
C796 C798 1.381 . S
C796 C802 1.383 . S
C797 C793 1.495 . S
C797 H803 0.959 . S
C797 H804 0.961 . S
C797 H805 0.960 . S
C798 C796 1.381 . S
C798 C799 1.394 . S
C798 H806 0.930 . S
C799 C798 1.394 . S
C799 C800 1.383 . S
C799 H807 0.929 . S
C800 C799 1.383 . S
C800 C801 1.377 . S
C801 H785 0.930 . S
C801 C800 1.377 . S
C801 C802 1.379 . S
C802 H786 0.931 . S
C802 C796 1.383 . S
C802 C801 1.379 . S
H803 C797 0.959 . S
H804 C797 0.961 . S
H805 C797 0.960 . S
H806 C798 0.930 . S
H807 C799 0.929 . S
H808 C816 0.929 . S
H809 C818 0.930 . S
H810 C820 0.930 . S
H811 C823 0.929 . S
H812 C826 0.930 . S
H813 C828 0.960 . S
H814 C828 0.960 . S
H815 C828 0.960 . S
C816 H808 0.929 . S
C816 C817 1.377 . S
C816 C818 1.384 . S
C817 C816 1.377 . S
C817 C823 1.390 . S
C818 H809 0.930 . S
C818 C816 1.384 . S
C818 C819 1.372 . S
C819 C818 1.372 . S
C819 C820 1.400 . S
C819 C824 1.490 . S
C820 H810 0.930 . S
C820 C819 1.400 . S
C820 C823 1.386 . S
H821 C837 0.930 . S
H822 C838 0.931 . S
C823 H811 0.929 . S
C823 C817 1.390 . S
C823 C820 1.386 . S
C824 C819 1.490 . S
C824 C826 1.395 . S
C824 C827 1.403 . S
H825 C831 0.930 . S
C826 H812 0.930 . S
C826 C824 1.395 . S
C826 C829 1.403 . S
C827 C824 1.403 . S
C827 C828 1.524 . S
C827 C831 1.400 . S
C828 H813 0.960 . S
C828 H814 0.960 . S
C828 H815 0.960 . S
C828 C827 1.524 . S
C829 C826 1.403 . S
C829 C830 1.392 . S
C829 C833 1.495 . S
C830 C829 1.392 . S
C830 C831 1.385 . S
C830 C832 1.478 . S
C831 H825 0.930 . S
C831 C827 1.400 . S
C831 C830 1.385 . S
C832 C830 1.478 . S
C832 C834 1.381 . S
C832 C838 1.383 . S
C833 C829 1.495 . S
C833 H839 0.959 . S
C833 H840 0.961 . S
C833 H841 0.960 . S
C834 C832 1.381 . S
C834 C835 1.394 . S
C834 H842 0.930 . S
C835 C834 1.394 . S
C835 C836 1.383 . S
C835 H843 0.929 . S
C836 C835 1.383 . S
C836 C837 1.377 . S
C837 H821 0.930 . S
C837 C836 1.377 . S
C837 C838 1.379 . S
C838 H822 0.931 . S
C838 C832 1.383 . S
C838 C837 1.379 . S
H839 C833 0.959 . S
H840 C833 0.961 . S
H841 C833 0.960 . S
H842 C834 0.930 . S
H843 C835 0.929 . S
H844 C852 0.929 . S
H845 C854 0.930 . S
H846 C856 0.930 . S
H847 C859 0.929 . S
H848 C862 0.930 . S
H849 C864 0.960 . S
H850 C864 0.960 . S
H851 C864 0.960 . S
C852 H844 0.929 . S
C852 C853 1.377 . S
C852 C854 1.384 . S
C853 C852 1.377 . S
C853 C859 1.390 . S
C854 H845 0.930 . S
C854 C852 1.384 . S
C854 C855 1.372 . S
C855 C854 1.372 . S
C855 C856 1.400 . S
C855 C860 1.490 . S
C856 H846 0.930 . S
C856 C855 1.400 . S
C856 C859 1.386 . S
H857 C873 0.930 . S
H858 C874 0.931 . S
C859 H847 0.929 . S
C859 C853 1.390 . S
C859 C856 1.386 . S
C860 C855 1.490 . S
C860 C862 1.395 . S
C860 C863 1.403 . S
H861 C867 0.930 . S
C862 H848 0.930 . S
C862 C860 1.395 . S
C862 C865 1.403 . S
C863 C860 1.403 . S
C863 C864 1.524 . S
C863 C867 1.400 . S
C864 H849 0.960 . S
C864 H850 0.960 . S
C864 H851 0.960 . S
C864 C863 1.524 . S
C865 C862 1.403 . S
C865 C866 1.392 . S
C865 C869 1.495 . S
C866 C865 1.392 . S
C866 C867 1.385 . S
C866 C868 1.478 . S
C867 H861 0.930 . S
C867 C863 1.400 . S
C867 C866 1.385 . S
C868 C866 1.478 . S
C868 C870 1.381 . S
C868 C874 1.383 . S
C869 C865 1.495 . S
C869 H875 0.959 . S
C869 H876 0.961 . S
C869 H877 0.960 . S
C870 C868 1.381 . S
C870 C871 1.394 . S
C870 H878 0.930 . S
C871 C870 1.394 . S
C871 C872 1.383 . S
C871 H879 0.929 . S
C872 C871 1.383 . S
C872 C873 1.377 . S
C873 H857 0.930 . S
C873 C872 1.377 . S
C873 C874 1.379 . S
C874 H858 0.931 . S
C874 C868 1.383 . S
C874 C873 1.379 . S
H875 C869 0.959 . S
H876 C869 0.961 . S
H877 C869 0.960 . S
H878 C870 0.930 . S
H879 C871 0.929 . S
H880 C888 0.929 . S
H881 C890 0.930 . S
H882 C892 0.930 . S
H883 C895 0.929 . S
H884 C898 0.930 . S
H885 C900 0.960 . S
H886 C900 0.960 . S
H887 C900 0.960 . S
C888 H880 0.929 . S
C888 C889 1.377 . S
C888 C890 1.384 . S
C889 C888 1.377 . S
C889 C895 1.390 . S
C890 H881 0.930 . S
C890 C888 1.384 . S
C890 C891 1.372 . S
C891 C890 1.372 . S
C891 C892 1.400 . S
C891 C896 1.490 . S
C892 H882 0.930 . S
C892 C891 1.400 . S
C892 C895 1.386 . S
H893 C909 0.930 . S
H894 C910 0.931 . S
C895 H883 0.929 . S
C895 C889 1.390 . S
C895 C892 1.386 . S
C896 C891 1.490 . S
C896 C898 1.395 . S
C896 C899 1.403 . S
H897 C903 0.930 . S
C898 H884 0.930 . S
C898 C896 1.395 . S
C898 C901 1.403 . S
C899 C896 1.403 . S
C899 C900 1.524 . S
C899 C903 1.400 . S
C900 H885 0.960 . S
C900 H886 0.960 . S
C900 H887 0.960 . S
C900 C899 1.524 . S
C901 C898 1.403 . S
C901 C902 1.392 . S
C901 C905 1.495 . S
C902 C901 1.392 . S
C902 C903 1.385 . S
C902 C904 1.478 . S
C903 H897 0.930 . S
C903 C899 1.400 . S
C903 C902 1.385 . S
C904 C902 1.478 . S
C904 C906 1.381 . S
C904 C910 1.383 . S
C905 C901 1.495 . S
C905 H911 0.959 . S
C905 H912 0.961 . S
C905 H913 0.960 . S
C906 C904 1.381 . S
C906 C907 1.394 . S
C906 H914 0.930 . S
C907 C906 1.394 . S
C907 C908 1.383 . S
C907 H915 0.929 . S
C908 C907 1.383 . S
C908 C909 1.377 . S
C909 H893 0.930 . S
C909 C908 1.377 . S
C909 C910 1.379 . S
C910 H894 0.931 . S
C910 C904 1.383 . S
C910 C909 1.379 . S
H911 C905 0.959 . S
H912 C905 0.961 . S
H913 C905 0.960 . S
H914 C906 0.930 . S
H915 C907 0.929 . S
H916 C924 0.929 . S
H917 C926 0.930 . S
H918 C928 0.930 . S
H919 C931 0.929 . S
H920 C934 0.930 . S
H921 C936 0.960 . S
H922 C936 0.960 . S
H923 C936 0.960 . S
C924 H916 0.929 . S
C924 C925 1.377 . S
C924 C926 1.384 . S
C925 C924 1.377 . S
C925 C931 1.390 . S
C926 H917 0.930 . S
C926 C924 1.384 . S
C926 C927 1.372 . S
C927 C926 1.372 . S
C927 C928 1.400 . S
C927 C932 1.490 . S
C928 H918 0.930 . S
C928 C927 1.400 . S
C928 C931 1.386 . S
H929 C945 0.930 . S
H930 C946 0.931 . S
C931 H919 0.929 . S
C931 C925 1.390 . S
C931 C928 1.386 . S
C932 C927 1.490 . S
C932 C934 1.395 . S
C932 C935 1.403 . S
H933 C939 0.930 . S
C934 H920 0.930 . S
C934 C932 1.395 . S
C934 C937 1.403 . S
C935 C932 1.403 . S
C935 C936 1.524 . S
C935 C939 1.400 . S
C936 H921 0.960 . S
C936 H922 0.960 . S
C936 H923 0.960 . S
C936 C935 1.524 . S
C937 C934 1.403 . S
C937 C938 1.392 . S
C937 C941 1.495 . S
C938 C937 1.392 . S
C938 C939 1.385 . S
C938 C940 1.478 . S
C939 H933 0.930 . S
C939 C935 1.400 . S
C939 C938 1.385 . S
C940 C938 1.478 . S
C940 C942 1.381 . S
C940 C946 1.383 . S
C941 C937 1.495 . S
C941 H947 0.959 . S
C941 H948 0.961 . S
C941 H949 0.960 . S
C942 C940 1.381 . S
C942 C943 1.394 . S
C942 H950 0.930 . S
C943 C942 1.394 . S
C943 C944 1.383 . S
C943 H951 0.929 . S
C944 C943 1.383 . S
C944 C945 1.377 . S
C945 H929 0.930 . S
C945 C944 1.377 . S
C945 C946 1.379 . S
C946 H930 0.931 . S
C946 C940 1.383 . S
C946 C945 1.379 . S
H947 C941 0.959 . S
H948 C941 0.961 . S
H949 C941 0.960 . S
H950 C942 0.930 . S
H951 C943 0.929 . S
H952 C960 0.929 . S
H953 C962 0.930 . S
H954 C964 0.930 . S
H955 C967 0.929 . S
H956 C970 0.930 . S
H957 C972 0.960 . S
H958 C972 0.960 . S
H959 C972 0.960 . S
C960 H952 0.929 . S
C960 C961 1.377 . S
C960 C962 1.384 . S
C961 C960 1.377 . S
C961 C967 1.390 . S
C962 H953 0.930 . S
C962 C960 1.384 . S
C962 C963 1.372 . S
C963 C962 1.372 . S
C963 C964 1.400 . S
C963 C968 1.490 . S
C964 H954 0.930 . S
C964 C963 1.400 . S
C964 C967 1.386 . S
H965 C981 0.930 . S
H966 C982 0.931 . S
C967 H955 0.929 . S
C967 C961 1.390 . S
C967 C964 1.386 . S
C968 C963 1.490 . S
C968 C970 1.395 . S
C968 C971 1.403 . S
H969 C975 0.930 . S
C970 H956 0.930 . S
C970 C968 1.395 . S
C970 C973 1.403 . S
C971 C968 1.403 . S
C971 C972 1.524 . S
C971 C975 1.400 . S
C972 H957 0.960 . S
C972 H958 0.960 . S
C972 H959 0.960 . S
C972 C971 1.524 . S
C973 C970 1.403 . S
C973 C974 1.392 . S
C973 C977 1.495 . S
C974 C973 1.392 . S
C974 C975 1.385 . S
C974 C976 1.478 . S
C975 H969 0.930 . S
C975 C971 1.400 . S
C975 C974 1.385 . S
C976 C974 1.478 . S
C976 C978 1.381 . S
C976 C982 1.383 . S
C977 C973 1.495 . S
C977 H983 0.959 . S
C977 H984 0.961 . S
C977 H985 0.960 . S
C978 C976 1.381 . S
C978 C979 1.394 . S
C978 H986 0.930 . S
C979 C978 1.394 . S
C979 C980 1.383 . S
C979 H987 0.929 . S
C980 C979 1.383 . S
C980 C981 1.377 . S
C981 H965 0.930 . S
C981 C980 1.377 . S
C981 C982 1.379 . S
C982 H966 0.931 . S
C982 C976 1.383 . S
C982 C981 1.379 . S
H983 C977 0.959 . S
H984 C977 0.961 . S
H985 C977 0.960 . S
H986 C978 0.930 . S
H987 C979 0.929 . S
H988 C996 0.929 . S
H989 C998 0.930 . S
H990 C1000 0.930 . S
H991 C1003 0.929 . S
H992 C1006 0.930 . S
H993 C1008 0.960 . S
H994 C1008 0.960 . S
H995 C1008 0.960 . S
C996 H988 0.929 . S
C996 C997 1.377 . S
C996 C998 1.384 . S
C997 C996 1.377 . S
C997 C1003 1.390 . S
C998 H989 0.930 . S
C998 C996 1.384 . S
C998 C999 1.372 . S
C999 C998 1.372 . S
C999 C1000 1.400 . S
C999 C1004 1.490 . S
C1000 H990 0.930 . S
C1000 C999 1.400 . S
C1000 C1003 1.386 . S
H1001 C1017 0.930 . S
H1002 C1018 0.931 . S
C1003 H991 0.929 . S
C1003 C997 1.390 . S
C1003 C1000 1.386 . S
C1004 C999 1.490 . S
C1004 C1006 1.395 . S
C1004 C1007 1.403 . S
H1005 C1011 0.930 . S
C1006 H992 0.930 . S
C1006 C1004 1.395 . S
C1006 C1009 1.403 . S
C1007 C1004 1.403 . S
C1007 C1008 1.524 . S
C1007 C1011 1.400 . S
C1008 H993 0.960 . S
C1008 H994 0.960 . S
C1008 H995 0.960 . S
C1008 C1007 1.524 . S
C1009 C1006 1.403 . S
C1009 C1010 1.392 . S
C1009 C1013 1.495 . S
C1010 C1009 1.392 . S
C1010 C1011 1.385 . S
C1010 C1012 1.478 . S
C1011 H1005 0.930 . S
C1011 C1007 1.400 . S
C1011 C1010 1.385 . S
C1012 C1010 1.478 . S
C1012 C1014 1.381 . S
C1012 C1018 1.383 . S
C1013 C1009 1.495 . S
C1013 H1019 0.959 . S
C1013 H1020 0.961 . S
C1013 H1021 0.960 . S
C1014 C1012 1.381 . S
C1014 C1015 1.394 1_655 S
C1014 H1022 0.930 . S
C1015 C1014 1.394 1_455 S
C1015 C1016 1.383 . S
C1015 H1023 0.929 . S
C1016 C1015 1.383 . S
C1016 C1017 1.377 . S
C1017 H1001 0.930 . S
C1017 C1016 1.377 . S
C1017 C1018 1.379 1_455 S
C1018 H1002 0.931 . S
C1018 C1012 1.383 . S
C1018 C1017 1.379 1_655 S
H1019 C1013 0.959 . S
H1020 C1013 0.961 . S
H1021 C1013 0.960 . S
H1022 C1014 0.930 . S
H1023 C1015 0.929 . S
H1024 C1032 0.929 . S
H1025 C1034 0.930 . S
H1026 C1036 0.930 . S
H1027 C1039 0.929 . S
H1028 C1042 0.930 . S
H1029 C1044 0.960 . S
H1030 C1044 0.960 . S
H1031 C1044 0.960 . S
C1032 H1024 0.929 . S
C1032 C1033 1.377 . S
C1032 C1034 1.384 . S
C1033 C1032 1.377 . S
C1033 C1039 1.390 . S
C1034 H1025 0.930 . S
C1034 C1032 1.384 . S
C1034 C1035 1.372 . S
C1035 C1034 1.372 . S
C1035 C1036 1.400 . S
C1035 C1040 1.490 . S
C1036 H1026 0.930 . S
C1036 C1035 1.400 . S
C1036 C1039 1.386 . S
H1037 C1053 0.930 . S
H1038 C1054 0.931 . S
C1039 H1027 0.929 . S
C1039 C1033 1.390 . S
C1039 C1036 1.386 . S
C1040 C1035 1.490 . S
C1040 C1042 1.395 . S
C1040 C1043 1.403 . S
H1041 C1047 0.930 . S
C1042 H1028 0.930 . S
C1042 C1040 1.395 . S
C1042 C1045 1.403 . S
C1043 C1040 1.403 . S
C1043 C1044 1.524 . S
C1043 C1047 1.400 . S
C1044 H1029 0.960 . S
C1044 H1030 0.960 . S
C1044 H1031 0.960 . S
C1044 C1043 1.524 . S
C1045 C1042 1.403 . S
C1045 C1046 1.392 . S
C1045 C1049 1.495 . S
C1046 C1045 1.392 . S
C1046 C1047 1.385 . S
C1046 C1048 1.478 . S
C1047 H1041 0.930 . S
C1047 C1043 1.400 . S
C1047 C1046 1.385 . S
C1048 C1046 1.478 . S
C1048 C1050 1.381 . S
C1048 C1054 1.383 . S
C1049 C1045 1.495 . S
C1049 H1055 0.959 . S
C1049 H1056 0.961 . S
C1049 H1057 0.960 . S
C1050 C1048 1.381 . S
C1050 C1051 1.394 . S
C1050 H1058 0.930 . S
C1051 C1050 1.394 . S
C1051 C1052 1.383 . S
C1051 H1059 0.929 . S
C1052 C1051 1.383 . S
C1052 C1053 1.377 . S
C1053 H1037 0.930 . S
C1053 C1052 1.377 . S
C1053 C1054 1.379 . S
C1054 H1038 0.931 . S
C1054 C1048 1.383 . S
C1054 C1053 1.379 . S
H1055 C1049 0.959 . S
H1056 C1049 0.961 . S
H1057 C1049 0.960 . S
H1058 C1050 0.930 . S
H1059 C1051 0.929 . S
H1060 C1068 0.929 . S
H1061 C1070 0.930 . S
H1062 C1072 0.930 . S
H1063 C1075 0.929 . S
H1064 C1078 0.930 . S
H1065 C1080 0.960 . S
H1066 C1080 0.960 . S
H1067 C1080 0.960 . S
C1068 H1060 0.929 . S
C1068 C1069 1.377 . S
C1068 C1070 1.384 . S
C1069 C1068 1.377 . S
C1069 C1075 1.390 . S
C1070 H1061 0.930 . S
C1070 C1068 1.384 . S
C1070 C1071 1.372 . S
C1071 C1070 1.372 . S
C1071 C1072 1.400 . S
C1071 C1076 1.490 . S
C1072 H1062 0.930 . S
C1072 C1071 1.400 . S
C1072 C1075 1.386 . S
H1073 C1089 0.930 . S
H1074 C1090 0.931 . S
C1075 H1063 0.929 . S
C1075 C1069 1.390 . S
C1075 C1072 1.386 . S
C1076 C1071 1.490 . S
C1076 C1078 1.395 . S
C1076 C1079 1.403 . S
H1077 C1083 0.930 . S
C1078 H1064 0.930 . S
C1078 C1076 1.395 . S
C1078 C1081 1.403 . S
C1079 C1076 1.403 . S
C1079 C1080 1.524 . S
C1079 C1083 1.400 . S
C1080 H1065 0.960 . S
C1080 H1066 0.960 . S
C1080 H1067 0.960 . S
C1080 C1079 1.524 . S
C1081 C1078 1.403 . S
C1081 C1082 1.392 . S
C1081 C1085 1.495 . S
C1082 C1081 1.392 . S
C1082 C1083 1.385 . S
C1082 C1084 1.478 . S
C1083 H1077 0.930 . S
C1083 C1079 1.400 . S
C1083 C1082 1.385 . S
C1084 C1082 1.478 . S
C1084 C1086 1.381 . S
C1084 C1090 1.383 . S
C1085 C1081 1.495 . S
C1085 H1091 0.959 . S
C1085 H1092 0.961 . S
C1085 H1093 0.960 . S
C1086 C1084 1.381 . S
C1086 C1087 1.394 . S
C1086 H1094 0.930 . S
C1087 C1086 1.394 . S
C1087 C1088 1.383 . S
C1087 H1095 0.929 . S
C1088 C1087 1.383 . S
C1088 C1089 1.377 . S
C1089 H1073 0.930 . S
C1089 C1088 1.377 . S
C1089 C1090 1.379 . S
C1090 H1074 0.931 . S
C1090 C1084 1.383 . S
C1090 C1089 1.379 . S
H1091 C1085 0.959 . S
H1092 C1085 0.961 . S
H1093 C1085 0.960 . S
H1094 C1086 0.930 . S
H1095 C1087 0.929 . S
H1096 C1104 0.929 . S
H1097 C1106 0.930 . S
H1098 C1108 0.930 . S
H1099 C1111 0.929 . S
H1100 C1114 0.930 . S
H1101 C1116 0.960 . S
H1102 C1116 0.960 . S
H1103 C1116 0.960 . S
C1104 H1096 0.929 . S
C1104 C1105 1.377 . S
C1104 C1106 1.384 . S
C1105 C1104 1.377 . S
C1105 C1111 1.390 . S
C1106 H1097 0.930 . S
C1106 C1104 1.384 . S
C1106 C1107 1.372 . S
C1107 C1106 1.372 . S
C1107 C1108 1.400 . S
C1107 C1112 1.490 . S
C1108 H1098 0.930 . S
C1108 C1107 1.400 . S
C1108 C1111 1.386 . S
H1109 C1125 0.930 . S
H1110 C1126 0.931 . S
C1111 H1099 0.929 . S
C1111 C1105 1.390 . S
C1111 C1108 1.386 . S
C1112 C1107 1.490 . S
C1112 C1114 1.395 . S
C1112 C1115 1.403 . S
H1113 C1119 0.930 . S
C1114 H1100 0.930 . S
C1114 C1112 1.395 . S
C1114 C1117 1.403 . S
C1115 C1112 1.403 . S
C1115 C1116 1.524 . S
C1115 C1119 1.400 . S
C1116 H1101 0.960 . S
C1116 H1102 0.960 . S
C1116 H1103 0.960 . S
C1116 C1115 1.524 . S
C1117 C1114 1.403 . S
C1117 C1118 1.392 . S
C1117 C1121 1.495 . S
C1118 C1117 1.392 . S
C1118 C1119 1.385 . S
C1118 C1120 1.478 . S
C1119 H1113 0.930 . S
C1119 C1115 1.400 . S
C1119 C1118 1.385 . S
C1120 C1118 1.478 . S
C1120 C1122 1.381 . S
C1120 C1126 1.383 . S
C1121 C1117 1.495 . S
C1121 H1127 0.959 . S
C1121 H1128 0.961 . S
C1121 H1129 0.960 . S
C1122 C1120 1.381 . S
C1122 C1123 1.394 . S
C1122 H1130 0.930 . S
C1123 C1122 1.394 . S
C1123 C1124 1.383 . S
C1123 H1131 0.929 . S
C1124 C1123 1.383 . S
C1124 C1125 1.377 . S
C1125 H1109 0.930 . S
C1125 C1124 1.377 . S
C1125 C1126 1.379 . S
C1126 H1110 0.931 . S
C1126 C1120 1.383 . S
C1126 C1125 1.379 . S
H1127 C1121 0.959 . S
H1128 C1121 0.961 . S
H1129 C1121 0.960 . S
H1130 C1122 0.930 . S
H1131 C1123 0.929 . S
H1132 C1140 0.929 . S
H1133 C1142 0.930 . S
H1134 C1144 0.930 . S
H1135 C1147 0.929 . S
H1136 C1150 0.930 . S
H1137 C1152 0.960 . S
H1138 C1152 0.960 . S
H1139 C1152 0.960 . S
C1140 H1132 0.929 . S
C1140 C1141 1.377 . S
C1140 C1142 1.384 . S
C1141 C1140 1.377 . S
C1141 C1147 1.390 . S
C1142 H1133 0.930 . S
C1142 C1140 1.384 . S
C1142 C1143 1.372 . S
C1143 C1142 1.372 . S
C1143 C1144 1.400 . S
C1143 C1148 1.490 . S
C1144 H1134 0.930 . S
C1144 C1143 1.400 . S
C1144 C1147 1.386 . S
H1145 C1161 0.930 . S
H1146 C1162 0.931 . S
C1147 H1135 0.929 . S
C1147 C1141 1.390 . S
C1147 C1144 1.386 . S
C1148 C1143 1.490 . S
C1148 C1150 1.395 . S
C1148 C1151 1.403 . S
H1149 C1155 0.930 . S
C1150 H1136 0.930 . S
C1150 C1148 1.395 . S
C1150 C1153 1.403 . S
C1151 C1148 1.403 . S
C1151 C1152 1.524 . S
C1151 C1155 1.400 . S
C1152 H1137 0.960 . S
C1152 H1138 0.960 . S
C1152 H1139 0.960 . S
C1152 C1151 1.524 . S
C1153 C1150 1.403 . S
C1153 C1154 1.392 . S
C1153 C1157 1.495 . S
C1154 C1153 1.392 . S
C1154 C1155 1.385 . S
C1154 C1156 1.478 . S
C1155 H1149 0.930 . S
C1155 C1151 1.400 . S
C1155 C1154 1.385 . S
C1156 C1154 1.478 . S
C1156 C1158 1.381 . S
C1156 C1162 1.383 . S
C1157 C1153 1.495 . S
C1157 H1163 0.959 . S
C1157 H1164 0.961 . S
C1157 H1165 0.960 . S
C1158 C1156 1.381 . S
C1158 C1159 1.394 1_655 S
C1158 H1166 0.930 . S
C1159 C1158 1.394 1_455 S
C1159 C1160 1.383 . S
C1159 H1167 0.929 . S
C1160 C1159 1.383 . S
C1160 C1161 1.377 . S
C1161 H1145 0.930 . S
C1161 C1160 1.377 . S
C1161 C1162 1.379 1_455 S
C1162 H1146 0.931 . S
C1162 C1156 1.383 . S
C1162 C1161 1.379 1_655 S
H1163 C1157 0.959 . S
H1164 C1157 0.961 . S
H1165 C1157 0.960 . S
H1166 C1158 0.930 . S
H1167 C1159 0.929 . S
H1168 C1176 0.929 . S
H1169 C1178 0.930 . S
H1170 C1180 0.930 . S
H1171 C1183 0.929 . S
H1172 C1186 0.930 . S
H1173 C1188 0.960 . S
H1174 C1188 0.960 . S
H1175 C1188 0.960 . S
C1176 H1168 0.929 . S
C1176 C1177 1.377 . S
C1176 C1178 1.384 . S
C1177 C1176 1.377 . S
C1177 C1183 1.390 . S
C1178 H1169 0.930 . S
C1178 C1176 1.384 . S
C1178 C1179 1.372 . S
C1179 C1178 1.372 . S
C1179 C1180 1.400 . S
C1179 C1184 1.490 . S
C1180 H1170 0.930 . S
C1180 C1179 1.400 . S
C1180 C1183 1.386 . S
H1181 C1197 0.930 . S
H1182 C1198 0.931 . S
C1183 H1171 0.929 . S
C1183 C1177 1.390 . S
C1183 C1180 1.386 . S
C1184 C1179 1.490 . S
C1184 C1186 1.395 . S
C1184 C1187 1.403 . S
H1185 C1191 0.930 . S
C1186 H1172 0.930 . S
C1186 C1184 1.395 . S
C1186 C1189 1.403 . S
C1187 C1184 1.403 . S
C1187 C1188 1.524 . S
C1187 C1191 1.400 . S
C1188 H1173 0.960 . S
C1188 H1174 0.960 . S
C1188 H1175 0.960 . S
C1188 C1187 1.524 . S
C1189 C1186 1.403 . S
C1189 C1190 1.392 . S
C1189 C1193 1.495 . S
C1190 C1189 1.392 . S
C1190 C1191 1.385 . S
C1190 C1192 1.478 . S
C1191 H1185 0.930 . S
C1191 C1187 1.400 . S
C1191 C1190 1.385 . S
C1192 C1190 1.478 . S
C1192 C1194 1.381 . S
C1192 C1198 1.383 . S
C1193 C1189 1.495 . S
C1193 H1199 0.959 . S
C1193 H1200 0.961 . S
C1193 H1201 0.960 . S
C1194 C1192 1.381 . S
C1194 C1195 1.394 . S
C1194 H1202 0.930 . S
C1195 C1194 1.394 . S
C1195 C1196 1.383 . S
C1195 H1203 0.929 . S
C1196 C1195 1.383 . S
C1196 C1197 1.377 . S
C1197 H1181 0.930 . S
C1197 C1196 1.377 . S
C1197 C1198 1.379 . S
C1198 H1182 0.931 . S
C1198 C1192 1.383 . S
C1198 C1197 1.379 . S
H1199 C1193 0.959 . S
H1200 C1193 0.961 . S
H1201 C1193 0.960 . S
H1202 C1194 0.930 . S
H1203 C1195 0.929 . S
H1204 C1212 0.929 . S
H1205 C1214 0.930 . S
H1206 C1216 0.930 . S
H1207 C1219 0.932 . S
H1208 C1222 0.930 . S
H1209 C1224 0.960 . S
H1210 C1224 0.960 . S
H1211 C1224 0.960 . S
C1212 H1204 0.929 . S
C1212 C1213 1.377 . S
C1212 C1214 1.384 1_455 S
C1213 C1212 1.377 . S
C1213 C1219 1.405 . S
C1214 H1205 0.930 . S
C1214 C1212 1.384 1_655 S
C1214 C1215 1.372 . S
C1215 C1214 1.372 . S
C1215 C1216 1.400 . S
C1215 C1220 1.490 . S
C1216 H1206 0.930 . S
C1216 C1215 1.400 . S
C1216 C1219 1.368 1_655 S
H1217 C1233 0.930 . S
H1218 C1234 0.931 . S
C1219 H1207 0.932 . S
C1219 C1213 1.405 . S
C1219 C1216 1.368 1_455 S
C1220 C1215 1.490 . S
C1220 C1222 1.395 . S
C1220 C1223 1.403 . S
H1221 C1227 0.930 . S
C1222 H1208 0.930 . S
C1222 C1220 1.395 . S
C1222 C1225 1.403 . S
C1223 C1220 1.403 . S
C1223 C1224 1.524 . S
C1223 C1227 1.400 . S
C1224 H1209 0.960 . S
C1224 H1210 0.960 . S
C1224 H1211 0.960 . S
C1224 C1223 1.524 . S
C1225 C1222 1.403 . S
C1225 C1226 1.392 . S
C1225 C1229 1.495 . S
C1226 C1225 1.392 . S
C1226 C1227 1.385 . S
C1226 C1228 1.478 . S
C1227 H1221 0.930 . S
C1227 C1223 1.400 . S
C1227 C1226 1.385 . S
C1228 C1226 1.478 . S
C1228 C1230 1.381 . S
C1228 C1234 1.383 . S
C1229 C1225 1.495 . S
C1229 H1235 0.959 . S
C1229 H1236 0.961 . S
C1229 H1237 0.960 . S
C1230 C1228 1.381 . S
C1230 C1231 1.394 . S
C1230 H1238 0.930 . S
C1231 C1230 1.394 . S
C1231 C1232 1.383 . S
C1231 H1239 0.929 . S
C1232 C1231 1.383 . S
C1232 C1233 1.377 . S
C1233 H1217 0.930 . S
C1233 C1232 1.377 . S
C1233 C1234 1.379 . S
C1234 H1218 0.931 . S
C1234 C1228 1.383 . S
C1234 C1233 1.379 . S
H1235 C1229 0.959 . S
H1236 C1229 0.961 . S
H1237 C1229 0.960 . S
H1238 C1230 0.930 . S
H1239 C1231 0.929 . S
H1240 C1248 0.929 . S
H1241 C1250 0.930 . S
H1242 C1252 0.930 . S
H1243 C1255 0.929 . S
H1244 C1258 0.930 . S
H1245 C1260 0.960 . S
H1246 C1260 0.960 . S
H1247 C1260 0.960 . S
C1248 H1240 0.929 . S
C1248 C1249 1.377 . S
C1248 C1250 1.384 . S
C1249 C1248 1.377 . S
C1249 C1255 1.390 . S
C1250 H1241 0.930 . S
C1250 C1248 1.384 . S
C1250 C1251 1.372 . S
C1251 C1250 1.372 . S
C1251 C1252 1.400 . S
C1251 C1256 1.490 . S
C1252 H1242 0.930 . S
C1252 C1251 1.400 . S
C1252 C1255 1.386 . S
H1253 C1269 0.930 . S
H1254 C1270 0.931 . S
C1255 H1243 0.929 . S
C1255 C1249 1.390 . S
C1255 C1252 1.386 . S
C1256 C1251 1.490 . S
C1256 C1258 1.395 . S
C1256 C1259 1.403 . S
H1257 C1263 0.930 . S
C1258 H1244 0.930 . S
C1258 C1256 1.395 . S
C1258 C1261 1.403 . S
C1259 C1256 1.403 . S
C1259 C1260 1.524 . S
C1259 C1263 1.400 . S
C1260 H1245 0.960 . S
C1260 H1246 0.960 . S
C1260 H1247 0.960 . S
C1260 C1259 1.524 . S
C1261 C1258 1.403 . S
C1261 C1262 1.392 . S
C1261 C1265 1.495 . S
C1262 C1261 1.392 . S
C1262 C1263 1.385 . S
C1262 C1264 1.478 . S
C1263 H1257 0.930 . S
C1263 C1259 1.400 . S
C1263 C1262 1.385 . S
C1264 C1262 1.478 . S
C1264 C1266 1.381 . S
C1264 C1270 1.383 . S
C1265 C1261 1.495 . S
C1265 H1271 0.959 . S
C1265 H1272 0.961 . S
C1265 H1273 0.960 . S
C1266 C1264 1.381 . S
C1266 C1267 1.394 . S
C1266 H1274 0.930 . S
C1267 C1266 1.394 . S
C1267 C1268 1.383 . S
C1267 H1275 0.929 . S
C1268 C1267 1.383 . S
C1268 C1269 1.377 . S
C1269 H1253 0.930 . S
C1269 C1268 1.377 . S
C1269 C1270 1.379 . S
C1270 H1254 0.931 . S
C1270 C1264 1.383 . S
C1270 C1269 1.379 . S
H1271 C1265 0.959 . S
H1272 C1265 0.961 . S
H1273 C1265 0.960 . S
H1274 C1266 0.930 . S
H1275 C1267 0.929 . S
H1276 C1284 0.929 . S
H1277 C1286 0.930 . S
H1278 C1288 0.930 . S
H1279 C1291 0.929 . S
H1280 C1294 0.930 . S
H1281 C1296 0.960 . S
H1282 C1296 0.960 . S
H1283 C1296 0.960 . S
C1284 H1276 0.929 . S
C1284 C1285 1.377 . S
C1284 C1286 1.384 . S
C1285 C1284 1.377 . S
C1285 C1291 1.390 . S
C1286 H1277 0.930 . S
C1286 C1284 1.384 . S
C1286 C1287 1.372 . S
C1287 C1286 1.372 . S
C1287 C1288 1.400 . S
C1287 C1292 1.490 . S
C1288 H1278 0.930 . S
C1288 C1287 1.400 . S
C1288 C1291 1.386 . S
H1289 C1305 0.930 . S
H1290 C1306 0.931 . S
C1291 H1279 0.929 . S
C1291 C1285 1.390 . S
C1291 C1288 1.386 . S
C1292 C1287 1.490 . S
C1292 C1294 1.395 . S
C1292 C1295 1.403 . S
H1293 C1299 0.930 . S
C1294 H1280 0.930 . S
C1294 C1292 1.395 . S
C1294 C1297 1.403 . S
C1295 C1292 1.403 . S
C1295 C1296 1.524 . S
C1295 C1299 1.400 . S
C1296 H1281 0.960 . S
C1296 H1282 0.960 . S
C1296 H1283 0.960 . S
C1296 C1295 1.524 . S
C1297 C1294 1.403 . S
C1297 C1298 1.392 . S
C1297 C1301 1.495 . S
C1298 C1297 1.392 . S
C1298 C1299 1.385 . S
C1298 C1300 1.478 . S
C1299 H1293 0.930 . S
C1299 C1295 1.400 . S
C1299 C1298 1.385 . S
C1300 C1298 1.478 . S
C1300 C1302 1.381 . S
C1300 C1306 1.383 . S
C1301 C1297 1.495 . S
C1301 H1307 0.959 . S
C1301 H1308 0.961 . S
C1301 H1309 0.960 . S
C1302 C1300 1.381 . S
C1302 C1303 1.394 . S
C1302 H1310 0.930 . S
C1303 C1302 1.394 . S
C1303 C1304 1.383 . S
C1303 H1311 0.929 . S
C1304 C1303 1.383 . S
C1304 C1305 1.377 . S
C1305 H1289 0.930 . S
C1305 C1304 1.377 . S
C1305 C1306 1.379 . S
C1306 H1290 0.931 . S
C1306 C1300 1.383 . S
C1306 C1305 1.379 . S
H1307 C1301 0.959 . S
H1308 C1301 0.961 . S
H1309 C1301 0.960 . S
H1310 C1302 0.930 . S
H1311 C1303 0.929 . S
H1312 C1320 0.929 . S
H1313 C1322 0.930 . S
H1314 C1324 0.930 . S
H1315 C1327 0.929 . S
H1316 C1330 0.930 . S
H1317 C1332 0.960 . S
H1318 C1332 0.960 . S
H1319 C1332 0.960 . S
C1320 H1312 0.929 . S
C1320 C1321 1.377 . S
C1320 C1322 1.384 . S
C1321 C1320 1.377 . S
C1321 C1327 1.390 . S
C1322 H1313 0.930 . S
C1322 C1320 1.384 . S
C1322 C1323 1.372 . S
C1323 C1322 1.372 . S
C1323 C1324 1.400 . S
C1323 C1328 1.490 . S
C1324 H1314 0.930 . S
C1324 C1323 1.400 . S
C1324 C1327 1.386 . S
H1325 C1341 0.930 . S
H1326 C1342 0.931 . S
C1327 H1315 0.929 . S
C1327 C1321 1.390 . S
C1327 C1324 1.386 . S
C1328 C1323 1.490 . S
C1328 C1330 1.395 . S
C1328 C1331 1.403 . S
H1329 C1335 0.930 . S
C1330 H1316 0.930 . S
C1330 C1328 1.395 . S
C1330 C1333 1.403 . S
C1331 C1328 1.403 . S
C1331 C1332 1.524 . S
C1331 C1335 1.400 . S
C1332 H1317 0.960 . S
C1332 H1318 0.960 . S
C1332 H1319 0.960 . S
C1332 C1331 1.524 . S
C1333 C1330 1.403 . S
C1333 C1334 1.392 . S
C1333 C1337 1.495 . S
C1334 C1333 1.392 . S
C1334 C1335 1.385 . S
C1334 C1336 1.478 . S
C1335 H1329 0.930 . S
C1335 C1331 1.400 . S
C1335 C1334 1.385 . S
C1336 C1334 1.478 . S
C1336 C1338 1.381 . S
C1336 C1342 1.383 . S
C1337 C1333 1.495 . S
C1337 H1343 0.959 . S
C1337 H1344 0.961 . S
C1337 H1345 0.960 . S
C1338 C1336 1.381 . S
C1338 C1339 1.394 . S
C1338 H1346 0.930 . S
C1339 C1338 1.394 . S
C1339 C1340 1.383 . S
C1339 H1347 0.929 . S
C1340 C1339 1.383 . S
C1340 C1341 1.377 . S
C1341 H1325 0.930 . S
C1341 C1340 1.377 . S
C1341 C1342 1.379 . S
C1342 H1326 0.931 . S
C1342 C1336 1.383 . S
C1342 C1341 1.379 . S
H1343 C1337 0.959 . S
H1344 C1337 0.961 . S
H1345 C1337 0.960 . S
H1346 C1338 0.930 . S
H1347 C1339 0.929 . S
H1348 C1356 0.929 . S
H1349 C1358 0.930 . S
H1350 C1360 0.930 . S
H1351 C1363 0.929 . S
H1352 C1366 0.930 . S
H1353 C1368 0.960 . S
H1354 C1368 0.960 . S
H1355 C1368 0.960 . S
C1356 H1348 0.929 . S
C1356 C1357 1.377 . S
C1356 C1358 1.384 . S
C1357 C1356 1.377 . S
C1357 C1363 1.390 . S
C1358 H1349 0.930 . S
C1358 C1356 1.384 . S
C1358 C1359 1.372 . S
C1359 C1358 1.372 . S
C1359 C1360 1.400 . S
C1359 C1364 1.490 . S
C1360 H1350 0.930 . S
C1360 C1359 1.400 . S
C1360 C1363 1.386 . S
H1361 C1377 0.930 . S
H1362 C1378 0.931 . S
C1363 H1351 0.929 . S
C1363 C1357 1.390 . S
C1363 C1360 1.386 . S
C1364 C1359 1.490 . S
C1364 C1366 1.395 . S
C1364 C1367 1.403 . S
H1365 C1371 0.930 . S
C1366 H1352 0.930 . S
C1366 C1364 1.395 . S
C1366 C1369 1.403 . S
C1367 C1364 1.403 . S
C1367 C1368 1.524 . S
C1367 C1371 1.400 . S
C1368 H1353 0.960 . S
C1368 H1354 0.960 . S
C1368 H1355 0.960 . S
C1368 C1367 1.524 . S
C1369 C1366 1.403 . S
C1369 C1370 1.392 . S
C1369 C1373 1.495 . S
C1370 C1369 1.392 . S
C1370 C1371 1.385 . S
C1370 C1372 1.478 . S
C1371 H1365 0.930 . S
C1371 C1367 1.400 . S
C1371 C1370 1.385 . S
C1372 C1370 1.478 . S
C1372 C1374 1.381 . S
C1372 C1378 1.383 . S
C1373 C1369 1.495 . S
C1373 H1379 0.959 . S
C1373 H1380 0.961 . S
C1373 H1381 0.960 . S
C1374 C1372 1.381 . S
C1374 C1375 1.394 . S
C1374 H1382 0.930 . S
C1375 C1374 1.394 . S
C1375 C1376 1.383 . S
C1375 H1383 0.929 . S
C1376 C1375 1.383 . S
C1376 C1377 1.377 . S
C1377 H1361 0.930 . S
C1377 C1376 1.377 . S
C1377 C1378 1.379 . S
C1378 H1362 0.931 . S
C1378 C1372 1.383 . S
C1378 C1377 1.379 . S
H1379 C1373 0.959 . S
H1380 C1373 0.961 . S
H1381 C1373 0.960 . S
H1382 C1374 0.930 . S
H1383 C1375 0.929 . S
H1384 C1392 0.929 . S
H1385 C1394 0.930 . S
H1386 C1396 0.930 . S
H1387 C1399 0.929 . S
H1388 C1402 0.930 . S
H1389 C1404 0.960 . S
H1390 C1404 0.960 . S
H1391 C1404 0.960 . S
C1392 H1384 0.929 . S
C1392 C1393 1.377 . S
C1392 C1394 1.384 . S
C1393 C1392 1.377 . S
C1393 C1399 1.390 . S
C1394 H1385 0.930 . S
C1394 C1392 1.384 . S
C1394 C1395 1.372 . S
C1395 C1394 1.372 . S
C1395 C1396 1.400 . S
C1395 C1400 1.490 . S
C1396 H1386 0.930 . S
C1396 C1395 1.400 . S
C1396 C1399 1.386 . S
H1397 C1413 0.930 . S
H1398 C1414 0.931 . S
C1399 H1387 0.929 . S
C1399 C1393 1.390 . S
C1399 C1396 1.386 . S
C1400 C1395 1.490 . S
C1400 C1402 1.395 . S
C1400 C1403 1.403 . S
H1401 C1407 0.930 . S
C1402 H1388 0.930 . S
C1402 C1400 1.395 . S
C1402 C1405 1.403 . S
C1403 C1400 1.403 . S
C1403 C1404 1.524 . S
C1403 C1407 1.400 . S
C1404 H1389 0.960 . S
C1404 H1390 0.960 . S
C1404 H1391 0.960 . S
C1404 C1403 1.524 . S
C1405 C1402 1.403 . S
C1405 C1406 1.392 . S
C1405 C1409 1.495 . S
C1406 C1405 1.392 . S
C1406 C1407 1.385 . S
C1406 C1408 1.478 . S
C1407 H1401 0.930 . S
C1407 C1403 1.400 . S
C1407 C1406 1.385 . S
C1408 C1406 1.478 . S
C1408 C1410 1.381 . S
C1408 C1414 1.383 . S
C1409 C1405 1.495 . S
C1409 H1415 0.959 . S
C1409 H1416 0.961 . S
C1409 H1417 0.960 . S
C1410 C1408 1.381 . S
C1410 C1411 1.394 . S
C1410 H1418 0.930 . S
C1411 C1410 1.394 . S
C1411 C1412 1.383 . S
C1411 H1419 0.929 . S
C1412 C1411 1.383 . S
C1412 C1413 1.377 . S
C1413 H1397 0.930 . S
C1413 C1412 1.377 . S
C1413 C1414 1.379 . S
C1414 H1398 0.931 . S
C1414 C1408 1.383 . S
C1414 C1413 1.379 . S
H1415 C1409 0.959 . S
H1416 C1409 0.961 . S
H1417 C1409 0.960 . S
H1418 C1410 0.930 . S
H1419 C1411 0.929 . S
H1420 C1428 0.929 . S
H1421 C1430 0.926 1_655 S
H1422 C1432 0.930 . S
H1423 C1435 0.929 . S
H1424 C1438 0.930 . S
H1425 C1440 0.960 . S
H1426 C1440 0.960 . S
H1427 C1440 0.960 . S
C1428 H1420 0.929 . S
C1428 C1429 1.377 . S
C1428 C1430 1.370 1_655 S
C1429 C1428 1.377 . S
C1429 C1435 1.390 1_655 S
C1430 H1421 0.926 1_455 S
C1430 C1428 1.370 1_455 S
C1430 C1431 1.387 . S
C1431 C1430 1.387 . S
C1431 C1432 1.400 . S
C1431 C1436 1.490 . S
C1432 H1422 0.930 . S
C1432 C1431 1.400 . S
C1432 C1435 1.386 . S
H1433 C1449 0.930 . S
H1434 C1450 0.931 . S
C1435 H1423 0.929 . S
C1435 C1429 1.390 1_455 S
C1435 C1432 1.386 . S
C1436 C1431 1.490 . S
C1436 C1438 1.395 . S
C1436 C1439 1.403 . S
H1437 C1443 0.930 . S
C1438 H1424 0.930 . S
C1438 C1436 1.395 . S
C1438 C1441 1.403 . S
C1439 C1436 1.403 . S
C1439 C1440 1.524 . S
C1439 C1443 1.400 . S
C1440 H1425 0.960 . S
C1440 H1426 0.960 . S
C1440 H1427 0.960 . S
C1440 C1439 1.524 . S
C1441 C1438 1.403 . S
C1441 C1442 1.392 . S
C1441 C1445 1.495 . S
C1442 C1441 1.392 . S
C1442 C1443 1.385 . S
C1442 C1444 1.478 . S
C1443 H1437 0.930 . S
C1443 C1439 1.400 . S
C1443 C1442 1.385 . S
C1444 C1442 1.478 . S
C1444 C1446 1.381 . S
C1444 C1450 1.383 . S
C1445 C1441 1.495 . S
C1445 H1451 0.959 . S
C1445 H1452 0.961 . S
C1445 H1453 0.960 . S
C1446 C1444 1.381 . S
C1446 C1447 1.394 . S
C1446 H1454 0.930 . S
C1447 C1446 1.394 . S
C1447 C1448 1.383 . S
C1447 H1455 0.929 . S
C1448 C1447 1.383 . S
C1448 C1449 1.377 . S
C1449 H1433 0.930 . S
C1449 C1448 1.377 . S
C1449 C1450 1.379 . S
C1450 H1434 0.931 . S
C1450 C1444 1.383 . S
C1450 C1449 1.379 . S
H1451 C1445 0.959 . S
H1452 C1445 0.961 . S
H1453 C1445 0.960 . S
H1454 C1446 0.930 . S
H1455 C1447 0.929 . S
H1456 C1464 0.929 . S
H1457 C1466 0.930 . S
H1458 C1468 0.930 . S
H1459 C1471 0.929 . S
H1460 C1474 0.930 . S
H1461 C1476 0.960 . S
H1462 C1476 0.960 . S
H1463 C1476 0.960 . S
C1464 H1456 0.929 . S
C1464 C1465 1.377 . S
C1464 C1466 1.384 . S
C1465 C1464 1.377 . S
C1465 C1471 1.390 . S
C1466 H1457 0.930 . S
C1466 C1464 1.384 . S
C1466 C1467 1.372 . S
C1467 C1466 1.372 . S
C1467 C1468 1.400 . S
C1467 C1472 1.490 . S
C1468 H1458 0.930 . S
C1468 C1467 1.400 . S
C1468 C1471 1.386 . S
H1469 C1485 0.930 . S
H1470 C1486 0.931 . S
C1471 H1459 0.929 . S
C1471 C1465 1.390 . S
C1471 C1468 1.386 . S
C1472 C1467 1.490 . S
C1472 C1474 1.395 . S
C1472 C1475 1.403 . S
H1473 C1479 0.930 . S
C1474 H1460 0.930 . S
C1474 C1472 1.395 . S
C1474 C1477 1.403 . S
C1475 C1472 1.403 . S
C1475 C1476 1.524 . S
C1475 C1479 1.400 . S
C1476 H1461 0.960 . S
C1476 H1462 0.960 . S
C1476 H1463 0.960 . S
C1476 C1475 1.524 . S
C1477 C1474 1.403 . S
C1477 C1478 1.392 . S
C1477 C1481 1.495 . S
C1478 C1477 1.392 . S
C1478 C1479 1.385 . S
C1478 C1480 1.478 . S
C1479 H1473 0.930 . S
C1479 C1475 1.400 . S
C1479 C1478 1.385 . S
C1480 C1478 1.478 . S
C1480 C1482 1.381 . S
C1480 C1486 1.383 . S
C1481 C1477 1.495 . S
C1481 H1487 0.959 . S
C1481 H1488 0.961 . S
C1481 H1489 0.960 . S
C1482 C1480 1.381 . S
C1482 C1483 1.394 . S
C1482 H1490 0.930 . S
C1483 C1482 1.394 . S
C1483 C1484 1.383 . S
C1483 H1491 0.929 . S
C1484 C1483 1.383 . S
C1484 C1485 1.377 . S
C1485 H1469 0.930 . S
C1485 C1484 1.377 . S
C1485 C1486 1.379 . S
C1486 H1470 0.931 . S
C1486 C1480 1.383 . S
C1486 C1485 1.379 . S
H1487 C1481 0.959 . S
H1488 C1481 0.961 . S
H1489 C1481 0.960 . S
H1490 C1482 0.930 . S
H1491 C1483 0.929 . S
H1492 C1500 0.929 . S
H1493 C1502 0.930 . S
H1494 C1504 0.930 . S
H1495 C1507 0.929 . S
H1496 C1510 0.930 . S
H1497 C1512 0.960 . S
H1498 C1512 0.960 . S
H1499 C1512 0.960 . S
C1500 H1492 0.929 . S
C1500 C1501 1.377 . S
C1500 C1502 1.384 1_655 S
C1501 C1500 1.377 . S
C1501 C1507 1.390 . S
C1502 H1493 0.930 . S
C1502 C1500 1.384 1_455 S
C1502 C1503 1.372 . S
C1503 C1502 1.372 . S
C1503 C1504 1.400 . S
C1503 C1508 1.490 . S
C1504 H1494 0.930 . S
C1504 C1503 1.400 . S
C1504 C1507 1.386 1_455 S
H1505 C1521 0.930 . S
H1506 C1522 0.931 . S
C1507 H1495 0.929 . S
C1507 C1501 1.390 . S
C1507 C1504 1.386 1_655 S
C1508 C1503 1.490 . S
C1508 C1510 1.395 . S
C1508 C1511 1.403 . S
H1509 C1515 0.930 . S
C1510 H1496 0.930 . S
C1510 C1508 1.395 . S
C1510 C1513 1.403 . S
C1511 C1508 1.403 . S
C1511 C1512 1.524 . S
C1511 C1515 1.400 . S
C1512 H1497 0.960 . S
C1512 H1498 0.960 . S
C1512 H1499 0.960 . S
C1512 C1511 1.524 . S
C1513 C1510 1.403 . S
C1513 C1514 1.392 . S
C1513 C1517 1.495 . S
C1514 C1513 1.392 . S
C1514 C1515 1.385 . S
C1514 C1516 1.478 . S
C1515 H1509 0.930 . S
C1515 C1511 1.400 . S
C1515 C1514 1.385 . S
C1516 C1514 1.478 . S
C1516 C1518 1.381 . S
C1516 C1522 1.383 . S
C1517 C1513 1.495 . S
C1517 H1523 0.959 . S
C1517 H1524 0.961 . S
C1517 H1525 0.960 . S
C1518 C1516 1.381 . S
C1518 C1519 1.394 . S
C1518 H1526 0.930 . S
C1519 C1518 1.394 . S
C1519 C1520 1.383 . S
C1519 H1527 0.929 . S
C1520 C1519 1.383 . S
C1520 C1521 1.377 . S
C1521 H1505 0.930 . S
C1521 C1520 1.377 . S
C1521 C1522 1.379 . S
C1522 H1506 0.931 . S
C1522 C1516 1.383 . S
C1522 C1521 1.379 . S
H1523 C1517 0.959 . S
H1524 C1517 0.961 . S
H1525 C1517 0.960 . S
H1526 C1518 0.930 . S
H1527 C1519 0.929 . S
H1528 C1536 0.929 . S
H1529 C1538 0.930 . S
H1530 C1540 0.930 . S
H1531 C1543 0.929 . S
H1532 C1546 0.930 . S
H1533 C1548 0.960 . S
H1534 C1548 0.960 . S
H1535 C1548 0.960 . S
C1536 H1528 0.929 . S
C1536 C1537 1.377 . S
C1536 C1538 1.384 . S
C1537 C1536 1.377 . S
C1537 C1543 1.390 . S
C1538 H1529 0.930 . S
C1538 C1536 1.384 . S
C1538 C1539 1.372 . S
C1539 C1538 1.372 . S
C1539 C1540 1.400 . S
C1539 C1544 1.490 . S
C1540 H1530 0.930 . S
C1540 C1539 1.400 . S
C1540 C1543 1.386 . S
H1541 C1557 0.930 . S
H1542 C1558 0.931 . S
C1543 H1531 0.929 . S
C1543 C1537 1.390 . S
C1543 C1540 1.386 . S
C1544 C1539 1.490 . S
C1544 C1546 1.395 . S
C1544 C1547 1.403 . S
H1545 C1551 0.930 . S
C1546 H1532 0.930 . S
C1546 C1544 1.395 . S
C1546 C1549 1.403 . S
C1547 C1544 1.403 . S
C1547 C1548 1.524 . S
C1547 C1551 1.400 . S
C1548 H1533 0.960 . S
C1548 H1534 0.960 . S
C1548 H1535 0.960 . S
C1548 C1547 1.524 . S
C1549 C1546 1.403 . S
C1549 C1550 1.392 . S
C1549 C1553 1.495 . S
C1550 C1549 1.392 . S
C1550 C1551 1.385 . S
C1550 C1552 1.478 . S
C1551 H1545 0.930 . S
C1551 C1547 1.400 . S
C1551 C1550 1.385 . S
C1552 C1550 1.478 . S
C1552 C1554 1.381 . S
C1552 C1558 1.383 . S
C1553 C1549 1.495 . S
C1553 H1559 0.959 . S
C1553 H1560 0.961 . S
C1553 H1561 0.960 . S
C1554 C1552 1.381 . S
C1554 C1555 1.394 . S
C1554 H1562 0.930 . S
C1555 C1554 1.394 . S
C1555 C1556 1.383 . S
C1555 H1563 0.929 . S
C1556 C1555 1.383 . S
C1556 C1557 1.377 . S
C1557 H1541 0.930 . S
C1557 C1556 1.377 . S
C1557 C1558 1.379 . S
C1558 H1542 0.931 . S
C1558 C1552 1.383 . S
C1558 C1557 1.379 . S
H1559 C1553 0.959 . S
H1560 C1553 0.961 . S
H1561 C1553 0.960 . S
H1562 C1554 0.930 . S
H1563 C1555 0.929 . S
H1564 C1572 0.929 . S
H1565 C1574 0.930 . S
H1566 C1576 0.930 . S
H1567 C1579 0.929 . S
H1568 C1582 0.930 . S
H1569 C1584 0.960 . S
H1570 C1584 0.960 . S
H1571 C1584 0.960 . S
C1572 H1564 0.929 . S
C1572 C1573 1.377 . S
C1572 C1574 1.384 . S
C1573 C1572 1.377 . S
C1573 C1579 1.390 . S
C1574 H1565 0.930 . S
C1574 C1572 1.384 . S
C1574 C1575 1.372 . S
C1575 C1574 1.372 . S
C1575 C1576 1.400 . S
C1575 C1580 1.490 . S
C1576 H1566 0.930 . S
C1576 C1575 1.400 . S
C1576 C1579 1.386 . S
H1577 C1593 0.930 . S
H1578 C1594 0.931 . S
C1579 H1567 0.929 . S
C1579 C1573 1.390 . S
C1579 C1576 1.386 . S
C1580 C1575 1.490 . S
C1580 C1582 1.395 . S
C1580 C1583 1.403 . S
H1581 C1587 0.930 . S
C1582 H1568 0.930 . S
C1582 C1580 1.395 . S
C1582 C1585 1.403 . S
C1583 C1580 1.403 . S
C1583 C1584 1.524 . S
C1583 C1587 1.400 . S
C1584 H1569 0.960 . S
C1584 H1570 0.960 . S
C1584 H1571 0.960 . S
C1584 C1583 1.524 . S
C1585 C1582 1.403 . S
C1585 C1586 1.392 . S
C1585 C1589 1.495 . S
C1586 C1585 1.392 . S
C1586 C1587 1.385 . S
C1586 C1588 1.478 . S
C1587 H1581 0.930 . S
C1587 C1583 1.400 . S
C1587 C1586 1.385 . S
C1588 C1586 1.478 . S
C1588 C1590 1.381 . S
C1588 C1594 1.383 . S
C1589 C1585 1.495 . S
C1589 H1595 0.959 . S
C1589 H1596 0.961 . S
C1589 H1597 0.960 . S
C1590 C1588 1.381 . S
C1590 C1591 1.394 . S
C1590 H1598 0.930 . S
C1591 C1590 1.394 . S
C1591 C1592 1.383 . S
C1591 H1599 0.929 . S
C1592 C1591 1.383 . S
C1592 C1593 1.377 . S
C1593 H1577 0.930 . S
C1593 C1592 1.377 . S
C1593 C1594 1.379 . S
C1594 H1578 0.931 . S
C1594 C1588 1.383 . S
C1594 C1593 1.379 . S
H1595 C1589 0.959 . S
H1596 C1589 0.961 . S
H1597 C1589 0.960 . S
H1598 C1590 0.930 . S
H1599 C1591 0.929 . S
H1600 C1608 0.929 . S
H1601 C1610 0.930 . S
H1602 C1612 0.930 . S
H1603 C1615 0.929 . S
H1604 C1618 0.930 . S
H1605 C1620 0.960 . S
H1606 C1620 0.960 . S
H1607 C1620 0.960 . S
C1608 H1600 0.929 . S
C1608 C1609 1.377 . S
C1608 C1610 1.384 . S
C1609 C1608 1.377 . S
C1609 C1615 1.390 . S
C1610 H1601 0.930 . S
C1610 C1608 1.384 . S
C1610 C1611 1.372 . S
C1611 C1610 1.372 . S
C1611 C1612 1.400 . S
C1611 C1616 1.490 . S
C1612 H1602 0.930 . S
C1612 C1611 1.400 . S
C1612 C1615 1.386 . S
H1613 C1629 0.930 . S
H1614 C1630 0.931 . S
C1615 H1603 0.929 . S
C1615 C1609 1.390 . S
C1615 C1612 1.386 . S
C1616 C1611 1.490 . S
C1616 C1618 1.395 . S
C1616 C1619 1.403 . S
H1617 C1623 0.930 . S
C1618 H1604 0.930 . S
C1618 C1616 1.395 . S
C1618 C1621 1.403 . S
C1619 C1616 1.403 . S
C1619 C1620 1.524 . S
C1619 C1623 1.400 . S
C1620 H1605 0.960 . S
C1620 H1606 0.960 . S
C1620 H1607 0.960 . S
C1620 C1619 1.524 . S
C1621 C1618 1.403 . S
C1621 C1622 1.392 . S
C1621 C1625 1.495 . S
C1622 C1621 1.392 . S
C1622 C1623 1.385 . S
C1622 C1624 1.478 . S
C1623 H1617 0.930 . S
C1623 C1619 1.400 . S
C1623 C1622 1.385 . S
C1624 C1622 1.478 . S
C1624 C1626 1.381 . S
C1624 C1630 1.383 . S
C1625 C1621 1.495 . S
C1625 H1631 0.959 . S
C1625 H1632 0.961 . S
C1625 H1633 0.960 . S
C1626 C1624 1.381 . S
C1626 C1627 1.394 . S
C1626 H1634 0.930 . S
C1627 C1626 1.394 . S
C1627 C1628 1.383 . S
C1627 H1635 0.929 . S
C1628 C1627 1.383 . S
C1628 C1629 1.377 . S
C1629 H1613 0.930 . S
C1629 C1628 1.377 . S
C1629 C1630 1.379 . S
C1630 H1614 0.931 . S
C1630 C1624 1.383 . S
C1630 C1629 1.379 . S
H1631 C1625 0.959 . S
H1632 C1625 0.961 . S
H1633 C1625 0.960 . S
H1634 C1626 0.930 . S
H1635 C1627 0.929 . S
H1636 C1644 0.929 . S
H1637 C1646 0.930 . S
H1638 C1648 0.930 . S
H1639 C1651 0.929 . S
H1640 C1654 0.930 . S
H1641 C1656 0.960 . S
H1642 C1656 0.960 . S
H1643 C1656 0.971 . S
C1644 H1636 0.929 . S
C1644 C1645 1.377 . S
C1644 C1646 1.384 . S
C1645 C1644 1.377 . S
C1645 C1651 1.390 . S
C1646 H1637 0.930 . S
C1646 C1644 1.384 . S
C1646 C1647 1.372 . S
C1647 C1646 1.372 . S
C1647 C1648 1.400 . S
C1647 C1652 1.490 . S
C1648 H1638 0.930 . S
C1648 C1647 1.400 . S
C1648 C1651 1.386 . S
H1649 C1665 0.930 . S
H1650 C1666 0.931 . S
C1651 H1639 0.929 . S
C1651 C1645 1.390 . S
C1651 C1648 1.386 . S
C1652 C1647 1.490 . S
C1652 C1654 1.395 1_655 S
C1652 C1655 1.403 1_565 S
H1653 C1659 0.930 . S
C1654 H1640 0.930 . S
C1654 C1652 1.395 1_455 S
C1654 C1657 1.403 . S
C1655 C1652 1.403 1_545 S
C1655 C1656 1.524 . S
C1655 C1659 1.400 . S
C1656 H1641 0.960 . S
C1656 H1642 0.960 . S
C1656 H1643 0.971 . S
C1656 C1655 1.524 . S
C1657 C1654 1.403 . S
C1657 C1658 1.392 1_565 S
C1657 C1661 1.495 . S
C1658 C1657 1.392 1_545 S
C1658 C1659 1.385 1_455 S
C1658 C1660 1.478 . S
C1659 H1653 0.930 . S
C1659 C1655 1.400 . S
C1659 C1658 1.385 1_655 S
C1660 C1658 1.478 . S
C1660 C1662 1.381 . S
C1660 C1666 1.383 . S
C1661 C1657 1.495 . S
C1661 H1667 0.959 . S
C1661 H1668 0.961 . S
C1661 H1669 0.960 . S
C1662 C1660 1.381 . S
C1662 C1663 1.394 . S
C1662 H1670 0.930 . S
C1663 C1662 1.394 . S
C1663 C1664 1.383 . S
C1663 H1671 0.929 . S
C1664 C1663 1.383 . S
C1664 C1665 1.377 . S
C1665 H1649 0.930 . S
C1665 C1664 1.377 . S
C1665 C1666 1.379 . S
C1666 H1650 0.931 . S
C1666 C1660 1.383 . S
C1666 C1665 1.379 . S
H1667 C1661 0.959 . S
H1668 C1661 0.961 . S
H1669 C1661 0.960 . S
H1670 C1662 0.930 . S
H1671 C1663 0.929 . S
H1672 C1680 0.929 . S
H1673 C1682 0.930 . S
H1674 C1684 0.930 . S
H1675 C1687 0.929 . S
H1676 C1690 0.930 . S
H1677 C1692 0.960 . S
H1678 C1692 0.960 . S
H1679 C1692 0.960 . S
C1680 H1672 0.929 . S
C1680 C1681 1.377 . S
C1680 C1682 1.384 . S
C1681 C1680 1.377 . S
C1681 C1687 1.390 . S
C1682 H1673 0.930 . S
C1682 C1680 1.384 . S
C1682 C1683 1.372 . S
C1683 C1682 1.372 . S
C1683 C1684 1.400 . S
C1683 C1688 1.490 . S
C1684 H1674 0.930 . S
C1684 C1683 1.400 . S
C1684 C1687 1.386 . S
H1685 C1701 0.930 . S
H1686 C1702 0.931 . S
C1687 H1675 0.929 . S
C1687 C1681 1.390 . S
C1687 C1684 1.386 . S
C1688 C1683 1.490 . S
C1688 C1690 1.395 . S
C1688 C1691 1.403 . S
H1689 C1695 0.930 . S
C1690 H1676 0.930 . S
C1690 C1688 1.395 . S
C1690 C1693 1.403 . S
C1691 C1688 1.403 . S
C1691 C1692 1.524 . S
C1691 C1695 1.400 . S
C1692 H1677 0.960 . S
C1692 H1678 0.960 . S
C1692 H1679 0.960 . S
C1692 C1691 1.524 . S
C1693 C1690 1.403 . S
C1693 C1694 1.392 . S
C1693 C1697 1.495 . S
C1694 C1693 1.392 . S
C1694 C1695 1.385 . S
C1694 C1696 1.478 . S
C1695 H1689 0.930 . S
C1695 C1691 1.400 . S
C1695 C1694 1.385 . S
C1696 C1694 1.478 . S
C1696 C1698 1.381 . S
C1696 C1702 1.383 . S
C1697 C1693 1.495 . S
C1697 H1703 0.959 . S
C1697 H1704 0.961 . S
C1697 H1705 0.960 . S
C1698 C1696 1.381 . S
C1698 C1699 1.394 . S
C1698 H1706 0.930 . S
C1699 C1698 1.394 . S
C1699 C1700 1.383 . S
C1699 H1707 0.929 . S
C1700 C1699 1.383 . S
C1700 C1701 1.377 . S
C1701 H1685 0.930 . S
C1701 C1700 1.377 . S
C1701 C1702 1.379 . S
C1702 H1686 0.931 . S
C1702 C1696 1.383 . S
C1702 C1701 1.379 . S
H1703 C1697 0.959 . S
H1704 C1697 0.961 . S
H1705 C1697 0.960 . S
H1706 C1698 0.930 . S
H1707 C1699 0.929 . S
H1708 C1716 0.929 . S
H1709 C1718 0.930 . S
H1710 C1720 0.930 . S
H1711 C1723 0.929 1_556 S
H1712 C1726 0.930 . S
H1713 C1728 0.960 . S
H1714 C1728 0.960 1_554 S
H1715 C1728 0.960 1_545 S
C1716 H1708 0.929 . S
C1716 C1717 1.377 . S
C1716 C1718 1.384 . S
C1717 C1716 1.377 . S
C1717 C1723 1.390 . S
C1718 H1709 0.930 . S
C1718 C1716 1.384 . S
C1718 C1719 1.372 . S
C1719 C1718 1.372 . S
C1719 C1720 1.400 1_554 S
C1719 C1724 1.490 . S
C1720 H1710 0.930 . S
C1720 C1719 1.400 1_556 S
C1720 C1723 1.386 1_556 S
H1721 C1737 0.930 . S
H1722 C1738 0.931 . S
C1723 H1711 0.929 1_554 S
C1723 C1717 1.390 . S
C1723 C1720 1.386 1_554 S
C1724 C1719 1.490 . S
C1724 C1726 1.395 . S
C1724 C1727 1.389 1_544 S
H1725 C1731 0.930 . S
C1726 H1712 0.930 . S
C1726 C1724 1.395 . S
C1726 C1729 1.403 . S
C1727 C1724 1.389 1_566 S
C1727 C1728 1.527 . S
C1727 C1731 1.411 . S
C1728 H1713 0.960 . S
C1728 H1714 0.960 1_556 S
C1728 H1715 0.960 1_565 S
C1728 C1727 1.527 . S
C1729 C1726 1.403 . S
C1729 C1730 1.392 1_544 S
C1729 C1733 1.495 . S
C1730 C1729 1.392 1_566 S
C1730 C1731 1.385 . S
C1730 C1732 1.478 . S
C1731 H1725 0.930 . S
C1731 C1727 1.411 . S
C1731 C1730 1.385 . S
C1732 C1730 1.478 . S
C1732 C1734 1.381 1_556 S
C1732 C1738 1.383 . S
C1733 C1729 1.495 . S
C1733 H1739 0.959 . S
C1733 H1740 0.961 1_554 S
C1733 H1741 0.960 1_545 S
C1734 C1732 1.381 1_554 S
C1734 C1735 1.394 1_554 S
C1734 H1742 0.930 . S
C1735 C1734 1.394 1_556 S
C1735 C1736 1.383 . S
C1735 H1743 0.929 1_556 S
C1736 C1735 1.383 . S
C1736 C1737 1.377 . S
C1737 H1721 0.930 . S
C1737 C1736 1.377 . S
C1737 C1738 1.379 . S
C1738 H1722 0.931 . S
C1738 C1732 1.383 . S
C1738 C1737 1.379 . S
H1739 C1733 0.959 . S
H1740 C1733 0.961 1_556 S
H1741 C1733 0.960 1_565 S
H1742 C1734 0.930 . S
H1743 C1735 0.929 1_554 S
H1744 C1752 0.929 . S
H1745 C1754 0.930 . S
H1746 C1756 0.930 . S
H1747 C1759 0.929 . S
H1748 C1762 0.930 . S
H1749 C1764 0.960 . S
H1750 C1764 0.960 . S
H1751 C1764 0.960 . S
C1752 H1744 0.929 . S
C1752 C1753 1.377 . S
C1752 C1754 1.384 . S
C1753 C1752 1.377 . S
C1753 C1759 1.390 . S
C1754 H1745 0.930 . S
C1754 C1752 1.384 . S
C1754 C1755 1.372 . S
C1755 C1754 1.372 . S
C1755 C1756 1.400 . S
C1755 C1760 1.490 . S
C1756 H1746 0.930 . S
C1756 C1755 1.400 . S
C1756 C1759 1.386 . S
H1757 C1773 0.930 . S
H1758 C1774 0.931 . S
C1759 H1747 0.929 . S
C1759 C1753 1.390 . S
C1759 C1756 1.386 . S
C1760 C1755 1.490 . S
C1760 C1762 1.395 . S
C1760 C1763 1.403 . S
H1761 C1767 0.930 . S
C1762 H1748 0.930 . S
C1762 C1760 1.395 . S
C1762 C1765 1.403 . S
C1763 C1760 1.403 . S
C1763 C1764 1.524 . S
C1763 C1767 1.400 . S
C1764 H1749 0.960 . S
C1764 H1750 0.960 . S
C1764 H1751 0.960 . S
C1764 C1763 1.524 . S
C1765 C1762 1.403 . S
C1765 C1766 1.392 . S
C1765 C1769 1.495 . S
C1766 C1765 1.392 . S
C1766 C1767 1.385 . S
C1766 C1768 1.478 . S
C1767 H1761 0.930 . S
C1767 C1763 1.400 . S
C1767 C1766 1.385 . S
C1768 C1766 1.478 . S
C1768 C1770 1.381 . S
C1768 C1774 1.383 . S
C1769 C1765 1.495 . S
C1769 H1775 0.959 . S
C1769 H1776 0.961 . S
C1769 H1777 0.960 . S
C1770 C1768 1.381 . S
C1770 C1771 1.394 . S
C1770 H1778 0.930 . S
C1771 C1770 1.394 . S
C1771 C1772 1.383 . S
C1771 H1779 0.929 . S
C1772 C1771 1.383 . S
C1772 C1773 1.377 . S
C1773 H1757 0.930 . S
C1773 C1772 1.377 . S
C1773 C1774 1.379 . S
C1774 H1758 0.931 . S
C1774 C1768 1.383 . S
C1774 C1773 1.379 . S
H1775 C1769 0.959 . S
H1776 C1769 0.961 . S
H1777 C1769 0.960 . S
H1778 C1770 0.930 . S
H1779 C1771 0.929 . S
H1780 C1788 0.929 . S
H1781 C1790 0.930 . S
H1782 C1792 0.930 . S
H1783 C1795 0.929 . S
H1784 C1798 0.930 . S
H1785 C1800 0.960 . S
H1786 C1800 0.960 . S
H1787 C1800 0.960 . S
C1788 H1780 0.929 . S
C1788 C1789 1.377 . S
C1788 C1790 1.384 . S
C1789 C1788 1.377 . S
C1789 C1795 1.390 . S
C1790 H1781 0.930 . S
C1790 C1788 1.384 . S
C1790 C1791 1.372 . S
C1791 C1790 1.372 . S
C1791 C1792 1.400 . S
C1791 C1796 1.490 . S
C1792 H1782 0.930 . S
C1792 C1791 1.400 . S
C1792 C1795 1.386 . S
H1793 C1809 0.930 . S
H1794 C1810 0.931 . S
C1795 H1783 0.929 . S
C1795 C1789 1.390 . S
C1795 C1792 1.386 . S
C1796 C1791 1.490 . S
C1796 C1798 1.395 1_565 S
C1796 C1799 1.403 . S
H1797 C1803 0.930 . S
C1798 H1784 0.930 . S
C1798 C1796 1.395 1_545 S
C1798 C1801 1.403 . S
C1799 C1796 1.403 . S
C1799 C1800 1.524 . S
C1799 C1803 1.357 1_565 S
C1800 H1785 0.960 . S
C1800 H1786 0.960 . S
C1800 H1787 0.960 . S
C1800 C1799 1.524 . S
C1801 C1798 1.403 . S
C1801 C1802 1.392 . S
C1801 C1805 1.495 . S
C1802 C1801 1.392 . S
C1802 C1803 1.429 . S
C1802 C1804 1.478 . S
C1803 H1797 0.930 . S
C1803 C1799 1.357 1_545 S
C1803 C1802 1.429 . S
C1804 C1802 1.478 . S
C1804 C1806 1.381 . S
C1804 C1810 1.383 . S
C1805 C1801 1.495 . S
C1805 H1811 0.959 . S
C1805 H1812 0.961 . S
C1805 H1813 0.960 . S
C1806 C1804 1.381 . S
C1806 C1807 1.394 . S
C1806 H1814 0.930 . S
C1807 C1806 1.394 . S
C1807 C1808 1.383 . S
C1807 H1815 0.929 . S
C1808 C1807 1.383 . S
C1808 C1809 1.377 . S
C1809 H1793 0.930 . S
C1809 C1808 1.377 . S
C1809 C1810 1.379 . S
C1810 H1794 0.931 . S
C1810 C1804 1.383 . S
C1810 C1809 1.379 . S
H1811 C1805 0.959 . S
H1812 C1805 0.961 . S
H1813 C1805 0.960 . S
H1814 C1806 0.930 . S
H1815 C1807 0.929 . S
H1816 C1824 0.929 . S
H1817 C1826 0.930 . S
H1818 C1828 0.930 . S
H1819 C1831 0.929 . S
H1820 C1834 0.930 . S
H1821 C1836 0.960 . S
H1822 C1836 0.960 . S
H1823 C1836 0.960 . S
C1824 H1816 0.929 . S
C1824 C1825 1.377 . S
C1824 C1826 1.384 . S
C1825 C1824 1.377 . S
C1825 C1831 1.390 . S
C1826 H1817 0.930 . S
C1826 C1824 1.384 . S
C1826 C1827 1.372 . S
C1827 C1826 1.372 . S
C1827 C1828 1.400 . S
C1827 C1832 1.490 . S
C1828 H1818 0.930 . S
C1828 C1827 1.400 . S
C1828 C1831 1.386 . S
H1829 C1845 0.930 . S
H1830 C1846 0.931 . S
C1831 H1819 0.929 . S
C1831 C1825 1.390 . S
C1831 C1828 1.386 . S
C1832 C1827 1.490 . S
C1832 C1834 1.395 . S
C1832 C1835 1.403 . S
H1833 C1839 0.930 . S
C1834 H1820 0.930 . S
C1834 C1832 1.395 . S
C1834 C1837 1.403 . S
C1835 C1832 1.403 . S
C1835 C1836 1.524 . S
C1835 C1839 1.400 . S
C1836 H1821 0.960 . S
C1836 H1822 0.960 . S
C1836 H1823 0.960 . S
C1836 C1835 1.524 . S
C1837 C1834 1.403 . S
C1837 C1838 1.392 . S
C1837 C1841 1.495 . S
C1838 C1837 1.392 . S
C1838 C1839 1.385 . S
C1838 C1840 1.478 . S
C1839 H1833 0.930 . S
C1839 C1835 1.400 . S
C1839 C1838 1.385 . S
C1840 C1838 1.478 . S
C1840 C1842 1.381 . S
C1840 C1846 1.383 . S
C1841 C1837 1.495 . S
C1841 H1847 0.959 . S
C1841 H1848 0.961 . S
C1841 H1849 0.960 . S
C1842 C1840 1.381 . S
C1842 C1843 1.394 . S
C1842 H1850 0.930 . S
C1843 C1842 1.394 . S
C1843 C1844 1.383 . S
C1843 H1851 0.929 . S
C1844 C1843 1.383 . S
C1844 C1845 1.377 . S
C1845 H1829 0.930 . S
C1845 C1844 1.377 . S
C1845 C1846 1.379 . S
C1846 H1830 0.931 . S
C1846 C1840 1.383 . S
C1846 C1845 1.379 . S
H1847 C1841 0.959 . S
H1848 C1841 0.961 . S
H1849 C1841 0.960 . S
H1850 C1842 0.930 . S
H1851 C1843 0.929 . S
H1852 C1860 0.929 . S
H1853 C1862 0.930 . S
H1854 C1864 0.930 . S
H1855 C1867 0.929 1_554 S
H1856 C1870 0.930 . S
H1857 C1872 0.960 . S
H1858 C1872 0.960 1_556 S
H1859 C1872 0.960 1_545 S
C1860 H1852 0.929 . S
C1860 C1861 1.377 . S
C1860 C1862 1.384 . S
C1861 C1860 1.377 . S
C1861 C1867 1.390 . S
C1862 H1853 0.930 . S
C1862 C1860 1.384 . S
C1862 C1863 1.372 . S
C1863 C1862 1.372 . S
C1863 C1864 1.400 1_556 S
C1863 C1868 1.490 . S
C1864 H1854 0.930 . S
C1864 C1863 1.400 1_554 S
C1864 C1867 1.386 1_554 S
H1865 C1881 0.930 . S
H1866 C1882 0.931 . S
C1867 H1855 0.929 1_556 S
C1867 C1861 1.390 . S
C1867 C1864 1.386 1_556 S
C1868 C1863 1.490 . S
C1868 C1870 1.395 1_655 S
C1868 C1871 1.408 1_556 S
H1869 C1875 0.930 . S
C1870 H1856 0.930 . S
C1870 C1868 1.395 1_455 S
C1870 C1873 1.418 . S
C1871 C1868 1.408 1_554 S
C1871 C1872 1.523 1_545 S
C1871 C1875 1.395 1_545 S
C1872 H1857 0.960 . S
C1872 H1858 0.960 1_554 S
C1872 H1859 0.960 1_565 S
C1872 C1871 1.523 1_565 S
C1873 C1870 1.418 . S
C1873 C1874 1.378 1_546 S
C1873 C1877 1.496 . S
C1874 C1873 1.378 1_564 S
C1874 C1875 1.385 1_455 S
C1874 C1876 1.478 . S
C1875 H1869 0.930 . S
C1875 C1871 1.395 1_565 S
C1875 C1874 1.385 1_655 S
C1876 C1874 1.478 . S
C1876 C1878 1.381 1_554 S
C1876 C1882 1.383 . S
C1877 C1873 1.496 . S
C1877 H1883 0.959 . S
C1877 H1884 0.961 . S
C1877 H1885 0.960 1_545 S
C1878 C1876 1.381 1_556 S
C1878 C1879 1.394 1_556 S
C1878 H1886 0.930 . S
C1879 C1878 1.394 1_554 S
C1879 C1880 1.383 . S
C1879 H1887 0.929 1_554 S
C1880 C1879 1.383 . S
C1880 C1881 1.377 . S
C1881 H1865 0.930 . S
C1881 C1880 1.377 . S
C1881 C1882 1.379 . S
C1882 H1866 0.931 . S
C1882 C1876 1.383 . S
C1882 C1881 1.379 . S
H1883 C1877 0.959 . S
H1884 C1877 0.961 . S
H1885 C1877 0.960 1_565 S
H1886 C1878 0.930 . S
H1887 C1879 0.929 1_556 S
H1888 C1896 0.929 . S
H1889 C1898 0.930 . S
H1890 C1900 0.930 . S
H1891 C1903 0.929 . S
H1892 C1906 0.930 . S
H1893 C1908 0.960 . S
H1894 C1908 0.960 . S
H1895 C1908 0.960 . S
C1896 H1888 0.929 . S
C1896 C1897 1.377 . S
C1896 C1898 1.384 . S
C1897 C1896 1.377 . S
C1897 C1903 1.390 . S
C1898 H1889 0.930 . S
C1898 C1896 1.384 . S
C1898 C1899 1.372 . S
C1899 C1898 1.372 . S
C1899 C1900 1.400 . S
C1899 C1904 1.490 . S
C1900 H1890 0.930 . S
C1900 C1899 1.400 . S
C1900 C1903 1.386 . S
H1901 C1917 0.930 . S
H1902 C1918 0.931 . S
C1903 H1891 0.929 . S
C1903 C1897 1.390 . S
C1903 C1900 1.386 . S
C1904 C1899 1.490 . S
C1904 C1906 1.395 . S
C1904 C1907 1.403 . S
H1905 C1911 0.930 . S
C1906 H1892 0.930 . S
C1906 C1904 1.395 . S
C1906 C1909 1.403 . S
C1907 C1904 1.403 . S
C1907 C1908 1.524 . S
C1907 C1911 1.400 . S
C1908 H1893 0.960 . S
C1908 H1894 0.960 . S
C1908 H1895 0.960 . S
C1908 C1907 1.524 . S
C1909 C1906 1.403 . S
C1909 C1910 1.392 . S
C1909 C1913 1.495 . S
C1910 C1909 1.392 . S
C1910 C1911 1.385 . S
C1910 C1912 1.478 . S
C1911 H1905 0.930 . S
C1911 C1907 1.400 . S
C1911 C1910 1.385 . S
C1912 C1910 1.478 . S
C1912 C1914 1.381 . S
C1912 C1918 1.383 . S
C1913 C1909 1.495 . S
C1913 H1919 0.959 . S
C1913 H1920 0.961 . S
C1913 H1921 0.960 . S
C1914 C1912 1.381 . S
C1914 C1915 1.394 . S
C1914 H1922 0.930 . S
C1915 C1914 1.394 . S
C1915 C1916 1.383 . S
C1915 H1923 0.929 . S
C1916 C1915 1.383 . S
C1916 C1917 1.377 . S
C1917 H1901 0.930 . S
C1917 C1916 1.377 . S
C1917 C1918 1.379 . S
C1918 H1902 0.931 . S
C1918 C1912 1.383 . S
C1918 C1917 1.379 . S
H1919 C1913 0.959 . S
H1920 C1913 0.961 . S
H1921 C1913 0.960 . S
H1922 C1914 0.930 . S
H1923 C1915 0.929 . S
H1924 C1932 0.929 . S
H1925 C1934 0.930 . S
H1926 C1936 0.930 . S
H1927 C1939 0.929 . S
H1928 C1942 0.930 . S
H1929 C1944 0.960 . S
H1930 C1944 0.960 . S
H1931 C1944 0.960 . S
C1932 H1924 0.929 . S
C1932 C1933 1.377 . S
C1932 C1934 1.384 . S
C1933 C1932 1.377 . S
C1933 C1939 1.390 . S
C1934 H1925 0.930 . S
C1934 C1932 1.384 . S
C1934 C1935 1.372 . S
C1935 C1934 1.372 . S
C1935 C1936 1.400 . S
C1935 C1940 1.490 . S
C1936 H1926 0.930 . S
C1936 C1935 1.400 . S
C1936 C1939 1.386 . S
H1937 C1953 0.930 . S
H1938 C1954 0.931 . S
C1939 H1927 0.929 . S
C1939 C1933 1.390 . S
C1939 C1936 1.386 . S
C1940 C1935 1.490 . S
C1940 C1942 1.395 . S
C1940 C1943 1.403 . S
H1941 C1947 0.930 . S
C1942 H1928 0.930 . S
C1942 C1940 1.395 . S
C1942 C1945 1.403 . S
C1943 C1940 1.403 . S
C1943 C1944 1.524 . S
C1943 C1947 1.400 . S
C1944 H1929 0.960 . S
C1944 H1930 0.960 . S
C1944 H1931 0.960 . S
C1944 C1943 1.524 . S
C1945 C1942 1.403 . S
C1945 C1946 1.392 . S
C1945 C1949 1.495 . S
C1946 C1945 1.392 . S
C1946 C1947 1.385 . S
C1946 C1948 1.478 . S
C1947 H1941 0.930 . S
C1947 C1943 1.400 . S
C1947 C1946 1.385 . S
C1948 C1946 1.478 . S
C1948 C1950 1.381 . S
C1948 C1954 1.383 . S
C1949 C1945 1.495 . S
C1949 H1955 0.959 . S
C1949 H1956 0.961 . S
C1949 H1957 0.960 . S
C1950 C1948 1.381 . S
C1950 C1951 1.394 . S
C1950 H1958 0.930 . S
C1951 C1950 1.394 . S
C1951 C1952 1.383 . S
C1951 H1959 0.929 . S
C1952 C1951 1.383 . S
C1952 C1953 1.377 . S
C1953 H1937 0.930 . S
C1953 C1952 1.377 . S
C1953 C1954 1.379 . S
C1954 H1938 0.931 . S
C1954 C1948 1.383 . S
C1954 C1953 1.379 . S
H1955 C1949 0.959 . S
H1956 C1949 0.961 . S
H1957 C1949 0.960 . S
H1958 C1950 0.930 . S
H1959 C1951 0.929 . S
H1960 C1968 0.929 . S
H1961 C1970 0.930 . S
H1962 C1972 0.930 . S
H1963 C1975 0.929 . S
H1964 C1978 0.930 . S
H1965 C1980 0.960 . S
H1966 C1980 0.960 . S
H1967 C1980 0.960 . S
C1968 H1960 0.929 . S
C1968 C1969 1.377 . S
C1968 C1970 1.384 . S
C1969 C1968 1.377 . S
C1969 C1975 1.390 . S
C1970 H1961 0.930 . S
C1970 C1968 1.384 . S
C1970 C1971 1.372 . S
C1971 C1970 1.372 . S
C1971 C1972 1.400 . S
C1971 C1976 1.490 . S
C1972 H1962 0.930 . S
C1972 C1971 1.400 . S
C1972 C1975 1.386 . S
H1973 C1989 0.930 . S
H1974 C1990 0.931 . S
C1975 H1963 0.929 . S
C1975 C1969 1.390 . S
C1975 C1972 1.386 . S
C1976 C1971 1.490 . S
C1976 C1978 1.395 . S
C1976 C1979 1.403 . S
H1977 C1983 0.930 . S
C1978 H1964 0.930 . S
C1978 C1976 1.395 . S
C1978 C1981 1.403 . S
C1979 C1976 1.403 . S
C1979 C1980 1.524 . S
C1979 C1983 1.400 . S
C1980 H1965 0.960 . S
C1980 H1966 0.960 . S
C1980 H1967 0.960 . S
C1980 C1979 1.524 . S
C1981 C1978 1.403 . S
C1981 C1982 1.392 . S
C1981 C1985 1.495 . S
C1982 C1981 1.392 . S
C1982 C1983 1.385 . S
C1982 C1984 1.478 . S
C1983 H1977 0.930 . S
C1983 C1979 1.400 . S
C1983 C1982 1.385 . S
C1984 C1982 1.478 . S
C1984 C1986 1.381 . S
C1984 C1990 1.383 . S
C1985 C1981 1.495 . S
C1985 H1991 0.959 . S
C1985 H1992 0.961 . S
C1985 H1993 0.960 . S
C1986 C1984 1.381 . S
C1986 C1987 1.394 . S
C1986 H1994 0.930 . S
C1987 C1986 1.394 . S
C1987 C1988 1.383 . S
C1987 H1995 0.929 . S
C1988 C1987 1.383 . S
C1988 C1989 1.377 . S
C1989 H1973 0.930 . S
C1989 C1988 1.377 . S
C1989 C1990 1.379 . S
C1990 H1974 0.931 . S
C1990 C1984 1.383 . S
C1990 C1989 1.379 . S
H1991 C1985 0.959 . S
H1992 C1985 0.961 . S
H1993 C1985 0.960 . S
H1994 C1986 0.930 . S
H1995 C1987 0.929 . S
H1996 C2004 0.929 . S
H1997 C2006 0.930 . S
H1998 C2008 0.930 . S
H1999 C2011 0.929 . S
H2000 C2014 0.930 . S
H2001 C2016 0.960 . S
H2002 C2016 0.960 . S
H2003 C2016 0.960 . S
C2004 H1996 0.929 . S
C2004 C2005 1.377 . S
C2004 C2006 1.384 . S
C2005 C2004 1.377 . S
C2005 C2011 1.390 . S
C2006 H1997 0.930 . S
C2006 C2004 1.384 . S
C2006 C2007 1.372 . S
C2007 C2006 1.372 . S
C2007 C2008 1.400 . S
C2007 C2012 1.490 . S
C2008 H1998 0.930 . S
C2008 C2007 1.400 . S
C2008 C2011 1.386 . S
H2009 C2025 0.930 . S
H2010 C2026 0.931 . S
C2011 H1999 0.929 . S
C2011 C2005 1.390 . S
C2011 C2008 1.386 . S
C2012 C2007 1.490 . S
C2012 C2014 1.395 . S
C2012 C2015 1.403 . S
H2013 C2019 0.930 . S
C2014 H2000 0.930 . S
C2014 C2012 1.395 . S
C2014 C2017 1.403 . S
C2015 C2012 1.403 . S
C2015 C2016 1.524 . S
C2015 C2019 1.400 . S
C2016 H2001 0.960 . S
C2016 H2002 0.960 . S
C2016 H2003 0.960 . S
C2016 C2015 1.524 . S
C2017 C2014 1.403 . S
C2017 C2018 1.392 . S
C2017 C2021 1.495 . S
C2018 C2017 1.392 . S
C2018 C2019 1.385 . S
C2018 C2020 1.478 . S
C2019 H2013 0.930 . S
C2019 C2015 1.400 . S
C2019 C2018 1.385 . S
C2020 C2018 1.478 . S
C2020 C2022 1.381 . S
C2020 C2026 1.383 . S
C2021 C2017 1.495 . S
C2021 H2027 0.959 . S
C2021 H2028 0.961 . S
C2021 H2029 0.960 . S
C2022 C2020 1.381 . S
C2022 C2023 1.394 . S
C2022 H2030 0.930 . S
C2023 C2022 1.394 . S
C2023 C2024 1.383 . S
C2023 H2031 0.929 . S
C2024 C2023 1.383 . S
C2024 C2025 1.377 . S
C2025 H2009 0.930 . S
C2025 C2024 1.377 . S
C2025 C2026 1.379 . S
C2026 H2010 0.931 . S
C2026 C2020 1.383 . S
C2026 C2025 1.379 . S
H2027 C2021 0.959 . S
H2028 C2021 0.961 . S
H2029 C2021 0.960 . S
H2030 C2022 0.930 . S
H2031 C2023 0.929 . S
H2032 C2040 0.929 . S
H2033 C2042 0.930 1_556 S
H2034 C2044 0.930 . S
H2035 C2047 0.929 . S
H2036 C2050 0.930 . S
H2037 C2052 0.960 . S
H2038 C2052 0.960 . S
H2039 C2052 0.974 . S
C2040 H2032 0.929 . S
C2040 C2041 1.377 . S
C2040 C2042 1.384 . S
C2041 C2040 1.377 . S
C2041 C2047 1.390 . S
C2042 H2033 0.930 1_554 S
C2042 C2040 1.384 . S
C2042 C2043 1.372 . S
C2043 C2042 1.372 . S
C2043 C2044 1.400 . S
C2043 C2048 1.490 . S
C2044 H2034 0.930 . S
C2044 C2043 1.400 . S
C2044 C2047 1.386 . S
H2045 C2061 0.930 . S
H2046 C2062 0.931 1_554 S
C2047 H2035 0.929 . S
C2047 C2041 1.390 . S
C2047 C2044 1.386 . S
C2048 C2043 1.490 . S
C2048 C2050 1.395 . S
C2048 C2051 1.403 1_554 S
H2049 C2055 0.930 . S
C2050 H2036 0.930 . S
C2050 C2048 1.395 . S
C2050 C2053 1.403 . S
C2051 C2048 1.403 1_556 S
C2051 C2052 1.524 . S
C2051 C2055 1.400 . S
C2052 H2037 0.960 . S
C2052 H2038 0.960 . S
C2052 H2039 0.974 . S
C2052 C2051 1.524 . S
C2053 C2050 1.403 . S
C2053 C2054 1.392 1_554 S
C2053 C2057 1.495 . S
C2054 C2053 1.392 1_556 S
C2054 C2055 1.385 . S
C2054 C2056 1.478 . S
C2055 H2049 0.930 . S
C2055 C2051 1.400 . S
C2055 C2054 1.385 . S
C2056 C2054 1.478 . S
C2056 C2058 1.381 . S
C2056 C2062 1.383 . S
C2057 C2053 1.495 . S
C2057 H2063 0.959 . S
C2057 H2064 0.961 . S
C2057 H2065 0.960 1_554 S
C2058 C2056 1.381 . S
C2058 C2059 1.394 . S
C2058 H2066 0.930 . S
C2059 C2058 1.394 . S
C2059 C2060 1.383 . S
C2059 H2067 0.929 . S
C2060 C2059 1.383 . S
C2060 C2061 1.377 . S
C2061 H2045 0.930 . S
C2061 C2060 1.377 . S
C2061 C2062 1.379 . S
C2062 H2046 0.931 1_556 S
C2062 C2056 1.383 . S
C2062 C2061 1.379 . S
H2063 C2057 0.959 . S
H2064 C2057 0.961 . S
H2065 C2057 0.960 1_556 S
H2066 C2058 0.930 . S
H2067 C2059 0.929 . S
H2068 C2076 0.929 . S
H2069 C2078 0.951 . S
H2070 C2080 0.930 . S
H2071 C2083 0.929 . S
H2072 C2086 0.930 . S
H2073 C2088 0.960 . S
H2074 C2088 0.960 . S
H2075 C2088 0.960 . S
C2076 H2068 0.929 . S
C2076 C2077 1.377 . S
C2076 C2078 1.384 . S
C2077 C2076 1.377 . S
C2077 C2083 1.390 . S
C2078 H2069 0.951 . S
C2078 C2076 1.384 . S
C2078 C2079 1.372 . S
C2079 C2078 1.372 . S
C2079 C2080 1.400 . S
C2079 C2084 1.490 . S
C2080 H2070 0.930 . S
C2080 C2079 1.400 . S
C2080 C2083 1.386 . S
H2081 C2097 0.930 . S
H2082 C2098 0.931 . S
C2083 H2071 0.929 . S
C2083 C2077 1.390 . S
C2083 C2080 1.386 . S
C2084 C2079 1.490 . S
C2084 C2086 1.395 1_655 S
C2084 C2087 1.403 . S
H2085 C2091 0.929 . S
C2086 H2072 0.930 . S
C2086 C2084 1.395 1_455 S
C2086 C2089 1.403 . S
C2087 C2084 1.403 . S
C2087 C2088 1.524 . S
C2087 C2091 1.375 1_655 S
C2088 H2073 0.960 . S
C2088 H2074 0.960 . S
C2088 H2075 0.960 . S
C2088 C2087 1.524 . S
C2089 C2086 1.403 . S
C2089 C2090 1.392 . S
C2089 C2093 1.495 . S
C2090 C2089 1.392 . S
C2090 C2091 1.413 . S
C2090 C2092 1.478 . S
C2091 H2085 0.929 . S
C2091 C2087 1.375 1_455 S
C2091 C2090 1.413 . S
C2092 C2090 1.478 . S
C2092 C2094 1.381 . S
C2092 C2098 1.383 . S
C2093 C2089 1.495 . S
C2093 H2099 0.959 . S
C2093 H2100 0.961 . S
C2093 H2101 0.960 . S
C2094 C2092 1.381 . S
C2094 C2095 1.394 . S
C2094 H2102 0.930 . S
C2095 C2094 1.394 . S
C2095 C2096 1.383 . S
C2095 H2103 0.929 . S
C2096 C2095 1.383 . S
C2096 C2097 1.377 . S
C2097 H2081 0.930 . S
C2097 C2096 1.377 . S
C2097 C2098 1.379 . S
C2098 H2082 0.931 . S
C2098 C2092 1.383 . S
C2098 C2097 1.379 . S
H2099 C2093 0.959 . S
H2100 C2093 0.961 . S
H2101 C2093 0.960 . S
H2102 C2094 0.930 . S
H2103 C2095 0.929 . S
H2104 C2112 0.929 . S
H2105 C2114 0.930 . S
H2106 C2116 0.912 1_554 S
H2107 C2119 0.929 1_554 S
H2108 C2122 0.930 . S
H2109 C2124 0.960 . S
H2110 C2124 0.960 . S
H2111 C2124 0.976 . S
C2112 H2104 0.929 . S
C2112 C2113 1.377 . S
C2112 C2114 1.384 . S
C2113 C2112 1.377 . S
C2113 C2119 1.390 . S
C2114 H2105 0.930 . S
C2114 C2112 1.384 . S
C2114 C2115 1.372 . S
C2115 C2114 1.372 . S
C2115 C2116 1.412 . S
C2115 C2120 1.490 . S
C2116 H2106 0.912 1_556 S
C2116 C2115 1.412 . S
C2116 C2119 1.391 . S
H2117 C2133 0.930 . S
H2118 C2134 0.931 . S
C2119 H2107 0.929 1_556 S
C2119 C2113 1.390 . S
C2119 C2116 1.391 . S
C2120 C2115 1.490 . S
C2120 C2122 1.395 1_455 S
C2120 C2123 1.403 . S
H2121 C2127 0.930 . S
C2122 H2108 0.930 . S
C2122 C2120 1.395 1_655 S
C2122 C2125 1.403 1_556 S
C2123 C2120 1.403 . S
C2123 C2124 1.524 . S
C2123 C2127 1.400 1_556 S
C2124 H2109 0.960 . S
C2124 H2110 0.960 . S
C2124 H2111 0.976 . S
C2124 C2123 1.524 . S
C2125 C2122 1.403 1_554 S
C2125 C2126 1.392 . S
C2125 C2129 1.495 . S
C2126 C2125 1.392 . S
C2126 C2127 1.385 1_655 S
C2126 C2128 1.478 . S
C2127 H2121 0.930 . S
C2127 C2123 1.400 1_554 S
C2127 C2126 1.385 1_455 S
C2128 C2126 1.478 . S
C2128 C2130 1.381 1_554 S
C2128 C2134 1.383 . S
C2129 C2125 1.495 . S
C2129 H2135 0.959 . S
C2129 H2136 0.961 . S
C2129 H2137 0.960 1_554 S
C2130 C2128 1.381 1_556 S
C2130 C2131 1.394 1_556 S
C2130 H2138 0.930 . S
C2131 C2130 1.394 1_554 S
C2131 C2132 1.383 . S
C2131 H2139 0.929 1_554 S
C2132 C2131 1.383 . S
C2132 C2133 1.377 . S
C2133 H2117 0.930 . S
C2133 C2132 1.377 . S
C2133 C2134 1.379 . S
C2134 H2118 0.931 . S
C2134 C2128 1.383 . S
C2134 C2133 1.379 . S
H2135 C2129 0.959 . S
H2136 C2129 0.961 . S
H2137 C2129 0.960 1_556 S
H2138 C2130 0.930 . S
H2139 C2131 0.929 1_556 S
H2140 C2148 0.929 . S
H2141 C2150 0.930 . S
H2142 C2152 0.930 . S
H2143 C2155 0.929 . S
H2144 C2158 0.930 . S
H2145 C2160 0.960 . S
H2146 C2160 0.960 . S
H2147 C2160 0.960 . S
C2148 H2140 0.929 . S
C2148 C2149 1.377 . S
C2148 C2150 1.384 . S
C2149 C2148 1.377 . S
C2149 C2155 1.390 . S
C2150 H2141 0.930 . S
C2150 C2148 1.384 . S
C2150 C2151 1.372 . S
C2151 C2150 1.372 . S
C2151 C2152 1.400 . S
C2151 C2156 1.490 . S
C2152 H2142 0.930 . S
C2152 C2151 1.400 . S
C2152 C2155 1.386 . S
H2153 C2169 0.930 . S
H2154 C2170 0.931 . S
C2155 H2143 0.929 . S
C2155 C2149 1.390 . S
C2155 C2152 1.386 . S
C2156 C2151 1.490 . S
C2156 C2158 1.395 . S
C2156 C2159 1.403 . S
H2157 C2163 0.930 . S
C2158 H2144 0.930 . S
C2158 C2156 1.395 . S
C2158 C2161 1.403 . S
C2159 C2156 1.403 . S
C2159 C2160 1.524 . S
C2159 C2163 1.400 . S
C2160 H2145 0.960 . S
C2160 H2146 0.960 . S
C2160 H2147 0.960 . S
C2160 C2159 1.524 . S
C2161 C2158 1.403 . S
C2161 C2162 1.392 . S
C2161 C2165 1.495 . S
C2162 C2161 1.392 . S
C2162 C2163 1.385 . S
C2162 C2164 1.478 . S
C2163 H2157 0.930 . S
C2163 C2159 1.400 . S
C2163 C2162 1.385 . S
C2164 C2162 1.478 . S
C2164 C2166 1.381 . S
C2164 C2170 1.383 . S
C2165 C2161 1.495 . S
C2165 H2171 0.959 . S
C2165 H2172 0.961 . S
C2165 H2173 0.960 . S
C2166 C2164 1.381 . S
C2166 C2167 1.394 . S
C2166 H2174 0.930 . S
C2167 C2166 1.394 . S
C2167 C2168 1.383 . S
C2167 H2175 0.929 . S
C2168 C2167 1.383 . S
C2168 C2169 1.377 . S
C2169 H2153 0.930 . S
C2169 C2168 1.377 . S
C2169 C2170 1.379 . S
C2170 H2154 0.931 . S
C2170 C2164 1.383 . S
C2170 C2169 1.379 . S
H2171 C2165 0.959 . S
H2172 C2165 0.961 . S
H2173 C2165 0.960 . S
H2174 C2166 0.930 . S
H2175 C2167 0.929 . S
H2176 C2184 0.929 . S
H2177 C2186 0.930 . S
H2178 C2188 0.930 . S
H2179 C2191 0.929 . S
H2180 C2194 0.930 . S
H2181 C2196 0.960 . S
H2182 C2196 0.960 . S
H2183 C2196 0.960 . S
C2184 H2176 0.929 . S
C2184 C2185 1.377 . S
C2184 C2186 1.384 . S
C2185 C2184 1.377 . S
C2185 C2191 1.390 . S
C2186 H2177 0.930 . S
C2186 C2184 1.384 . S
C2186 C2187 1.372 . S
C2187 C2186 1.372 . S
C2187 C2188 1.400 . S
C2187 C2192 1.490 . S
C2188 H2178 0.930 . S
C2188 C2187 1.400 . S
C2188 C2191 1.386 . S
H2189 C2205 0.930 . S
H2190 C2206 0.931 . S
C2191 H2179 0.929 . S
C2191 C2185 1.390 . S
C2191 C2188 1.386 . S
C2192 C2187 1.490 . S
C2192 C2194 1.395 . S
C2192 C2195 1.403 . S
H2193 C2199 0.930 . S
C2194 H2180 0.930 . S
C2194 C2192 1.395 . S
C2194 C2197 1.403 . S
C2195 C2192 1.403 . S
C2195 C2196 1.524 . S
C2195 C2199 1.400 . S
C2196 H2181 0.960 . S
C2196 H2182 0.960 . S
C2196 H2183 0.960 . S
C2196 C2195 1.524 . S
C2197 C2194 1.403 . S
C2197 C2198 1.392 . S
C2197 C2201 1.495 . S
C2198 C2197 1.392 . S
C2198 C2199 1.385 . S
C2198 C2200 1.478 . S
C2199 H2193 0.930 . S
C2199 C2195 1.400 . S
C2199 C2198 1.385 . S
C2200 C2198 1.478 . S
C2200 C2202 1.381 . S
C2200 C2206 1.383 . S
C2201 C2197 1.495 . S
C2201 H2207 0.959 . S
C2201 H2208 0.961 . S
C2201 H2209 0.960 . S
C2202 C2200 1.381 . S
C2202 C2203 1.394 . S
C2202 H2210 0.930 . S
C2203 C2202 1.394 . S
C2203 C2204 1.383 . S
C2203 H2211 0.929 . S
C2204 C2203 1.383 . S
C2204 C2205 1.377 . S
C2205 H2189 0.930 . S
C2205 C2204 1.377 . S
C2205 C2206 1.379 . S
C2206 H2190 0.931 . S
C2206 C2200 1.383 . S
C2206 C2205 1.379 . S
H2207 C2201 0.959 . S
H2208 C2201 0.961 . S
H2209 C2201 0.960 . S
H2210 C2202 0.930 . S
H2211 C2203 0.929 . S
H2212 C2220 0.929 . S
H2213 C2222 0.930 . S
H2214 C2224 0.930 . S
H2215 C2227 0.929 . S
H2216 C2230 0.930 . S
H2217 C2232 0.960 . S
H2218 C2232 0.960 . S
H2219 C2232 0.960 . S
C2220 H2212 0.929 . S
C2220 C2221 1.377 . S
C2220 C2222 1.384 . S
C2221 C2220 1.377 . S
C2221 C2227 1.390 . S
C2222 H2213 0.930 . S
C2222 C2220 1.384 . S
C2222 C2223 1.372 . S
C2223 C2222 1.372 . S
C2223 C2224 1.400 . S
C2223 C2228 1.490 . S
C2224 H2214 0.930 . S
C2224 C2223 1.400 . S
C2224 C2227 1.386 . S
H2225 C2241 0.930 . S
H2226 C2242 0.931 . S
C2227 H2215 0.929 . S
C2227 C2221 1.390 . S
C2227 C2224 1.386 . S
C2228 C2223 1.490 . S
C2228 C2230 1.395 . S
C2228 C2231 1.403 . S
H2229 C2235 0.930 . S
C2230 H2216 0.930 . S
C2230 C2228 1.395 . S
C2230 C2233 1.403 . S
C2231 C2228 1.403 . S
C2231 C2232 1.524 . S
C2231 C2235 1.400 . S
C2232 H2217 0.960 . S
C2232 H2218 0.960 . S
C2232 H2219 0.960 . S
C2232 C2231 1.524 . S
C2233 C2230 1.403 . S
C2233 C2234 1.392 . S
C2233 C2237 1.495 . S
C2234 C2233 1.392 . S
C2234 C2235 1.385 . S
C2234 C2236 1.478 . S
C2235 H2229 0.930 . S
C2235 C2231 1.400 . S
C2235 C2234 1.385 . S
C2236 C2234 1.478 . S
C2236 C2238 1.381 . S
C2236 C2242 1.383 . S
C2237 C2233 1.495 . S
C2237 H2243 0.959 . S
C2237 H2244 0.961 . S
C2237 H2245 0.960 . S
C2238 C2236 1.381 . S
C2238 C2239 1.394 . S
C2238 H2246 0.930 . S
C2239 C2238 1.394 . S
C2239 C2240 1.383 . S
C2239 H2247 0.929 . S
C2240 C2239 1.383 . S
C2240 C2241 1.377 . S
C2241 H2225 0.930 . S
C2241 C2240 1.377 . S
C2241 C2242 1.379 . S
C2242 H2226 0.931 . S
C2242 C2236 1.383 . S
C2242 C2241 1.379 . S
H2243 C2237 0.959 . S
H2244 C2237 0.961 . S
H2245 C2237 0.960 . S
H2246 C2238 0.930 . S
H2247 C2239 0.929 . S
H2248 C2256 0.929 . S
H2249 C2258 0.930 . S
H2250 C2260 0.930 . S
H2251 C2263 0.929 . S
H2252 C2266 0.930 . S
H2253 C2268 0.960 . S
H2254 C2268 0.960 . S
H2255 C2268 0.960 . S
C2256 H2248 0.929 . S
C2256 C2257 1.377 . S
C2256 C2258 1.384 . S
C2257 C2256 1.377 . S
C2257 C2263 1.390 . S
C2258 H2249 0.930 . S
C2258 C2256 1.384 . S
C2258 C2259 1.372 . S
C2259 C2258 1.372 . S
C2259 C2260 1.400 . S
C2259 C2264 1.490 . S
C2260 H2250 0.930 . S
C2260 C2259 1.400 . S
C2260 C2263 1.386 . S
H2261 C2277 0.930 . S
H2262 C2278 0.931 . S
C2263 H2251 0.929 . S
C2263 C2257 1.390 . S
C2263 C2260 1.386 . S
C2264 C2259 1.490 . S
C2264 C2266 1.395 . S
C2264 C2267 1.403 . S
H2265 C2271 0.930 . S
C2266 H2252 0.930 . S
C2266 C2264 1.395 . S
C2266 C2269 1.403 . S
C2267 C2264 1.403 . S
C2267 C2268 1.524 . S
C2267 C2271 1.400 . S
C2268 H2253 0.960 . S
C2268 H2254 0.960 . S
C2268 H2255 0.960 . S
C2268 C2267 1.524 . S
C2269 C2266 1.403 . S
C2269 C2270 1.392 . S
C2269 C2273 1.495 . S
C2270 C2269 1.392 . S
C2270 C2271 1.385 . S
C2270 C2272 1.478 . S
C2271 H2265 0.930 . S
C2271 C2267 1.400 . S
C2271 C2270 1.385 . S
C2272 C2270 1.478 . S
C2272 C2274 1.381 . S
C2272 C2278 1.383 . S
C2273 C2269 1.495 . S
C2273 H2279 0.959 . S
C2273 H2280 0.961 . S
C2273 H2281 0.960 . S
C2274 C2272 1.381 . S
C2274 C2275 1.394 . S
C2274 H2282 0.930 . S
C2275 C2274 1.394 . S
C2275 C2276 1.383 . S
C2275 H2283 0.929 . S
C2276 C2275 1.383 . S
C2276 C2277 1.377 . S
C2277 H2261 0.930 . S
C2277 C2276 1.377 . S
C2277 C2278 1.379 . S
C2278 H2262 0.931 . S
C2278 C2272 1.383 . S
C2278 C2277 1.379 . S
H2279 C2273 0.959 . S
H2280 C2273 0.961 . S
H2281 C2273 0.960 . S
H2282 C2274 0.930 . S
H2283 C2275 0.929 . S
H2284 C2292 0.929 . S
H2285 C2294 0.930 . S
H2286 C2296 0.930 . S
H2287 C2299 0.929 . S
H2288 C2302 0.930 . S
H2289 C2304 0.960 . S
H2290 C2304 0.960 . S
H2291 C2304 0.960 . S
C2292 H2284 0.929 . S
C2292 C2293 1.377 . S
C2292 C2294 1.384 . S
C2293 C2292 1.377 . S
C2293 C2299 1.390 . S
C2294 H2285 0.930 . S
C2294 C2292 1.384 . S
C2294 C2295 1.372 . S
C2295 C2294 1.372 . S
C2295 C2296 1.400 . S
C2295 C2300 1.490 . S
C2296 H2286 0.930 . S
C2296 C2295 1.400 . S
C2296 C2299 1.386 . S
H2297 C2313 0.930 . S
H2298 C2314 0.931 . S
C2299 H2287 0.929 . S
C2299 C2293 1.390 . S
C2299 C2296 1.386 . S
C2300 C2295 1.490 . S
C2300 C2302 1.395 . S
C2300 C2303 1.403 . S
H2301 C2307 0.930 . S
C2302 H2288 0.930 . S
C2302 C2300 1.395 . S
C2302 C2305 1.403 . S
C2303 C2300 1.403 . S
C2303 C2304 1.524 . S
C2303 C2307 1.400 . S
C2304 H2289 0.960 . S
C2304 H2290 0.960 . S
C2304 H2291 0.960 . S
C2304 C2303 1.524 . S
C2305 C2302 1.403 . S
C2305 C2306 1.392 . S
C2305 C2309 1.495 . S
C2306 C2305 1.392 . S
C2306 C2307 1.385 . S
C2306 C2308 1.478 . S
C2307 H2301 0.930 . S
C2307 C2303 1.400 . S
C2307 C2306 1.385 . S
C2308 C2306 1.478 . S
C2308 C2310 1.381 . S
C2308 C2314 1.383 . S
C2309 C2305 1.495 . S
C2309 H2315 0.959 . S
C2309 H2316 0.961 . S
C2309 H2317 0.960 . S
C2310 C2308 1.381 . S
C2310 C2311 1.394 . S
C2310 H2318 0.930 . S
C2311 C2310 1.394 . S
C2311 C2312 1.383 . S
C2311 H2319 0.929 . S
C2312 C2311 1.383 . S
C2312 C2313 1.377 . S
C2313 H2297 0.930 . S
C2313 C2312 1.377 . S
C2313 C2314 1.379 . S
C2314 H2298 0.931 . S
C2314 C2308 1.383 . S
C2314 C2313 1.379 . S
H2315 C2309 0.959 . S
H2316 C2309 0.961 . S
H2317 C2309 0.960 . S
H2318 C2310 0.930 . S
H2319 C2311 0.929 . S
H2320 C2328 0.929 . S
H2321 C2330 0.930 . S
H2322 C2332 0.930 . S
H2323 C2335 0.929 . S
H2324 C2338 0.930 . S
H2325 C2340 0.960 . S
H2326 C2340 0.960 . S
H2327 C2340 0.960 . S
C2328 H2320 0.929 . S
C2328 C2329 1.377 . S
C2328 C2330 1.384 . S
C2329 C2328 1.377 . S
C2329 C2335 1.390 . S
C2330 H2321 0.930 . S
C2330 C2328 1.384 . S
C2330 C2331 1.372 . S
C2331 C2330 1.372 . S
C2331 C2332 1.400 . S
C2331 C2336 1.490 . S
C2332 H2322 0.930 . S
C2332 C2331 1.400 . S
C2332 C2335 1.386 . S
H2333 C2349 0.930 . S
H2334 C2350 0.931 . S
C2335 H2323 0.929 . S
C2335 C2329 1.390 . S
C2335 C2332 1.386 . S
C2336 C2331 1.490 . S
C2336 C2338 1.395 . S
C2336 C2339 1.403 . S
H2337 C2343 0.930 . S
C2338 H2324 0.930 . S
C2338 C2336 1.395 . S
C2338 C2341 1.403 . S
C2339 C2336 1.403 . S
C2339 C2340 1.524 . S
C2339 C2343 1.400 . S
C2340 H2325 0.960 . S
C2340 H2326 0.960 . S
C2340 H2327 0.960 . S
C2340 C2339 1.524 . S
C2341 C2338 1.403 . S
C2341 C2342 1.392 . S
C2341 C2345 1.495 . S
C2342 C2341 1.392 . S
C2342 C2343 1.385 . S
C2342 C2344 1.478 . S
C2343 H2337 0.930 . S
C2343 C2339 1.400 . S
C2343 C2342 1.385 . S
C2344 C2342 1.478 . S
C2344 C2346 1.381 . S
C2344 C2350 1.383 . S
C2345 C2341 1.495 . S
C2345 H2351 0.959 . S
C2345 H2352 0.961 . S
C2345 H2353 0.960 . S
C2346 C2344 1.381 . S
C2346 C2347 1.394 . S
C2346 H2354 0.930 . S
C2347 C2346 1.394 . S
C2347 C2348 1.383 . S
C2347 H2355 0.929 . S
C2348 C2347 1.383 . S
C2348 C2349 1.377 . S
C2349 H2333 0.930 . S
C2349 C2348 1.377 . S
C2349 C2350 1.379 . S
C2350 H2334 0.931 . S
C2350 C2344 1.383 . S
C2350 C2349 1.379 . S
H2351 C2345 0.959 . S
H2352 C2345 0.961 . S
H2353 C2345 0.960 . S
H2354 C2346 0.930 . S
H2355 C2347 0.929 . S
H2356 C2364 0.929 . S
H2357 C2366 0.930 . S
H2358 C2368 0.930 . S
H2359 C2371 0.929 . S
H2360 C2374 0.930 . S
H2361 C2376 0.960 . S
H2362 C2376 0.960 . S
H2363 C2376 0.960 . S
C2364 H2356 0.929 . S
C2364 C2365 1.377 . S
C2364 C2366 1.384 . S
C2365 C2364 1.377 . S
C2365 C2371 1.390 . S
C2366 H2357 0.930 . S
C2366 C2364 1.384 . S
C2366 C2367 1.372 . S
C2367 C2366 1.372 . S
C2367 C2368 1.400 . S
C2367 C2372 1.490 . S
C2368 H2358 0.930 . S
C2368 C2367 1.400 . S
C2368 C2371 1.386 . S
H2369 C2385 0.930 . S
H2370 C2386 0.931 . S
C2371 H2359 0.929 . S
C2371 C2365 1.390 . S
C2371 C2368 1.386 . S
C2372 C2367 1.490 . S
C2372 C2374 1.395 . S
C2372 C2375 1.403 . S
H2373 C2379 0.930 . S
C2374 H2360 0.930 . S
C2374 C2372 1.395 . S
C2374 C2377 1.403 . S
C2375 C2372 1.403 . S
C2375 C2376 1.524 . S
C2375 C2379 1.400 . S
C2376 H2361 0.960 . S
C2376 H2362 0.960 . S
C2376 H2363 0.960 . S
C2376 C2375 1.524 . S
C2377 C2374 1.403 . S
C2377 C2378 1.392 . S
C2377 C2381 1.495 . S
C2378 C2377 1.392 . S
C2378 C2379 1.385 . S
C2378 C2380 1.478 . S
C2379 H2373 0.930 . S
C2379 C2375 1.400 . S
C2379 C2378 1.385 . S
C2380 C2378 1.478 . S
C2380 C2382 1.381 . S
C2380 C2386 1.383 . S
C2381 C2377 1.495 . S
C2381 H2387 0.959 . S
C2381 H2388 0.961 . S
C2381 H2389 0.960 . S
C2382 C2380 1.381 . S
C2382 C2383 1.394 . S
C2382 H2390 0.930 . S
C2383 C2382 1.394 . S
C2383 C2384 1.383 . S
C2383 H2391 0.929 . S
C2384 C2383 1.383 . S
C2384 C2385 1.377 . S
C2385 H2369 0.930 . S
C2385 C2384 1.377 . S
C2385 C2386 1.379 . S
C2386 H2370 0.931 . S
C2386 C2380 1.383 . S
C2386 C2385 1.379 . S
H2387 C2381 0.959 . S
H2388 C2381 0.961 . S
H2389 C2381 0.960 . S
H2390 C2382 0.930 . S
H2391 C2383 0.929 . S
H2392 C2400 0.929 . S
H2393 C2402 0.930 . S
H2394 C2404 0.930 . S
H2395 C2407 0.929 . S
H2396 C2410 0.930 . S
H2397 C2412 0.960 . S
H2398 C2412 0.960 . S
H2399 C2412 0.960 . S
C2400 H2392 0.929 . S
C2400 C2401 1.377 . S
C2400 C2402 1.384 . S
C2401 C2400 1.377 . S
C2401 C2407 1.390 . S
C2402 H2393 0.930 . S
C2402 C2400 1.384 . S
C2402 C2403 1.372 . S
C2403 C2402 1.372 . S
C2403 C2404 1.400 . S
C2403 C2408 1.490 . S
C2404 H2394 0.930 . S
C2404 C2403 1.400 . S
C2404 C2407 1.386 . S
H2405 C2421 0.930 . S
H2406 C2422 0.931 . S
C2407 H2395 0.929 . S
C2407 C2401 1.390 . S
C2407 C2404 1.386 . S
C2408 C2403 1.490 . S
C2408 C2410 1.395 . S
C2408 C2411 1.403 . S
H2409 C2415 0.930 . S
C2410 H2396 0.930 . S
C2410 C2408 1.395 . S
C2410 C2413 1.403 . S
C2411 C2408 1.403 . S
C2411 C2412 1.524 . S
C2411 C2415 1.400 . S
C2412 H2397 0.960 . S
C2412 H2398 0.960 . S
C2412 H2399 0.960 . S
C2412 C2411 1.524 . S
C2413 C2410 1.403 . S
C2413 C2414 1.392 . S
C2413 C2417 1.495 . S
C2414 C2413 1.392 . S
C2414 C2415 1.385 . S
C2414 C2416 1.478 . S
C2415 H2409 0.930 . S
C2415 C2411 1.400 . S
C2415 C2414 1.385 . S
C2416 C2414 1.478 . S
C2416 C2418 1.381 . S
C2416 C2422 1.383 . S
C2417 C2413 1.495 . S
C2417 H2423 0.959 . S
C2417 H2424 0.961 . S
C2417 H2425 0.960 . S
C2418 C2416 1.381 . S
C2418 C2419 1.394 . S
C2418 H2426 0.930 . S
C2419 C2418 1.394 . S
C2419 C2420 1.383 . S
C2419 H2427 0.929 . S
C2420 C2419 1.383 . S
C2420 C2421 1.377 . S
C2421 H2405 0.930 . S
C2421 C2420 1.377 . S
C2421 C2422 1.379 . S
C2422 H2406 0.931 . S
C2422 C2416 1.383 . S
C2422 C2421 1.379 . S
H2423 C2417 0.959 . S
H2424 C2417 0.961 . S
H2425 C2417 0.960 . S
H2426 C2418 0.930 . S
H2427 C2419 0.929 . S
H2428 C2436 0.929 . S
H2429 C2438 0.930 . S
H2430 C2440 0.930 . S
H2431 C2443 0.929 . S
H2432 C2446 0.930 . S
H2433 C2448 0.960 . S
H2434 C2448 0.960 . S
H2435 C2448 0.960 . S
C2436 H2428 0.929 . S
C2436 C2437 1.377 . S
C2436 C2438 1.384 . S
C2437 C2436 1.377 . S
C2437 C2443 1.390 . S
C2438 H2429 0.930 . S
C2438 C2436 1.384 . S
C2438 C2439 1.372 . S
C2439 C2438 1.372 . S
C2439 C2440 1.400 . S
C2439 C2444 1.490 . S
C2440 H2430 0.930 . S
C2440 C2439 1.400 . S
C2440 C2443 1.386 . S
H2441 C2457 0.930 . S
H2442 C2458 0.931 . S
C2443 H2431 0.929 . S
C2443 C2437 1.390 . S
C2443 C2440 1.386 . S
C2444 C2439 1.490 . S
C2444 C2446 1.395 . S
C2444 C2447 1.403 . S
H2445 C2451 0.930 . S
C2446 H2432 0.930 . S
C2446 C2444 1.395 . S
C2446 C2449 1.403 . S
C2447 C2444 1.403 . S
C2447 C2448 1.524 . S
C2447 C2451 1.400 . S
C2448 H2433 0.960 . S
C2448 H2434 0.960 . S
C2448 H2435 0.960 . S
C2448 C2447 1.524 . S
C2449 C2446 1.403 . S
C2449 C2450 1.392 . S
C2449 C2453 1.495 . S
C2450 C2449 1.392 . S
C2450 C2451 1.385 . S
C2450 C2452 1.478 . S
C2451 H2445 0.930 . S
C2451 C2447 1.400 . S
C2451 C2450 1.385 . S
C2452 C2450 1.478 . S
C2452 C2454 1.381 . S
C2452 C2458 1.383 . S
C2453 C2449 1.495 . S
C2453 H2459 0.959 . S
C2453 H2460 0.961 . S
C2453 H2461 0.960 . S
C2454 C2452 1.381 . S
C2454 C2455 1.394 . S
C2454 H2462 0.930 . S
C2455 C2454 1.394 . S
C2455 C2456 1.383 . S
C2455 H2463 0.929 . S
C2456 C2455 1.383 . S
C2456 C2457 1.377 . S
C2457 H2441 0.930 . S
C2457 C2456 1.377 . S
C2457 C2458 1.379 . S
C2458 H2442 0.931 . S
C2458 C2452 1.383 . S
C2458 C2457 1.379 . S
H2459 C2453 0.959 . S
H2460 C2453 0.961 . S
H2461 C2453 0.960 . S
H2462 C2454 0.930 . S
H2463 C2455 0.929 . S
H2464 C2472 0.929 . S
H2465 C2474 0.930 . S
H2466 C2476 0.930 . S
H2467 C2479 0.929 . S
H2468 C2482 0.930 . S
H2469 C2484 0.960 . S
H2470 C2484 0.960 . S
H2471 C2484 0.960 . S
C2472 H2464 0.929 . S
C2472 C2473 1.377 . S
C2472 C2474 1.384 . S
C2473 C2472 1.377 . S
C2473 C2479 1.390 . S
C2474 H2465 0.930 . S
C2474 C2472 1.384 . S
C2474 C2475 1.372 . S
C2475 C2474 1.372 . S
C2475 C2476 1.400 . S
C2475 C2480 1.490 . S
C2476 H2466 0.930 . S
C2476 C2475 1.400 . S
C2476 C2479 1.386 . S
H2477 C2493 0.930 . S
H2478 C2494 0.931 . S
C2479 H2467 0.929 . S
C2479 C2473 1.390 . S
C2479 C2476 1.386 . S
C2480 C2475 1.490 . S
C2480 C2482 1.395 . S
C2480 C2483 1.403 . S
H2481 C2487 0.930 . S
C2482 H2468 0.930 . S
C2482 C2480 1.395 . S
C2482 C2485 1.403 . S
C2483 C2480 1.403 . S
C2483 C2484 1.524 . S
C2483 C2487 1.400 . S
C2484 H2469 0.960 . S
C2484 H2470 0.960 . S
C2484 H2471 0.960 . S
C2484 C2483 1.524 . S
C2485 C2482 1.403 . S
C2485 C2486 1.392 . S
C2485 C2489 1.495 . S
C2486 C2485 1.392 . S
C2486 C2487 1.385 . S
C2486 C2488 1.478 . S
C2487 H2481 0.930 . S
C2487 C2483 1.400 . S
C2487 C2486 1.385 . S
C2488 C2486 1.478 . S
C2488 C2490 1.381 . S
C2488 C2494 1.383 . S
C2489 C2485 1.495 . S
C2489 H2495 0.959 . S
C2489 H2496 0.961 . S
C2489 H2497 0.960 . S
C2490 C2488 1.381 . S
C2490 C2491 1.394 . S
C2490 H2498 0.930 . S
C2491 C2490 1.394 . S
C2491 C2492 1.383 . S
C2491 H2499 0.929 . S
C2492 C2491 1.383 . S
C2492 C2493 1.377 . S
C2493 H2477 0.930 . S
C2493 C2492 1.377 . S
C2493 C2494 1.379 . S
C2494 H2478 0.931 . S
C2494 C2488 1.383 . S
C2494 C2493 1.379 . S
H2495 C2489 0.959 . S
H2496 C2489 0.961 . S
H2497 C2489 0.960 . S
H2498 C2490 0.930 . S
H2499 C2491 0.929 . S
H2500 C2508 0.929 . S
H2501 C2510 0.930 . S
H2502 C2512 0.930 . S
H2503 C2515 0.929 . S
H2504 C2518 0.930 . S
H2505 C2520 0.960 . S
H2506 C2520 0.960 . S
H2507 C2520 0.960 . S
C2508 H2500 0.929 . S
C2508 C2509 1.377 . S
C2508 C2510 1.384 . S
C2509 C2508 1.377 . S
C2509 C2515 1.390 . S
C2510 H2501 0.930 . S
C2510 C2508 1.384 . S
C2510 C2511 1.372 . S
C2511 C2510 1.372 . S
C2511 C2512 1.400 . S
C2511 C2516 1.490 . S
C2512 H2502 0.930 . S
C2512 C2511 1.400 . S
C2512 C2515 1.386 . S
H2513 C2529 0.930 . S
H2514 C2530 0.931 . S
C2515 H2503 0.929 . S
C2515 C2509 1.390 . S
C2515 C2512 1.386 . S
C2516 C2511 1.490 . S
C2516 C2518 1.395 . S
C2516 C2519 1.403 . S
H2517 C2523 0.930 . S
C2518 H2504 0.930 . S
C2518 C2516 1.395 . S
C2518 C2521 1.403 . S
C2519 C2516 1.403 . S
C2519 C2520 1.524 . S
C2519 C2523 1.400 . S
C2520 H2505 0.960 . S
C2520 H2506 0.960 . S
C2520 H2507 0.960 . S
C2520 C2519 1.524 . S
C2521 C2518 1.403 . S
C2521 C2522 1.392 . S
C2521 C2525 1.495 . S
C2522 C2521 1.392 . S
C2522 C2523 1.385 . S
C2522 C2524 1.478 . S
C2523 H2517 0.930 . S
C2523 C2519 1.400 . S
C2523 C2522 1.385 . S
C2524 C2522 1.478 . S
C2524 C2526 1.381 . S
C2524 C2530 1.383 . S
C2525 C2521 1.495 . S
C2525 H2531 0.959 . S
C2525 H2532 0.961 . S
C2525 H2533 0.960 . S
C2526 C2524 1.381 . S
C2526 C2527 1.394 . S
C2526 H2534 0.930 . S
C2527 C2526 1.394 . S
C2527 C2528 1.383 . S
C2527 H2535 0.929 . S
C2528 C2527 1.383 . S
C2528 C2529 1.377 . S
C2529 H2513 0.930 . S
C2529 C2528 1.377 . S
C2529 C2530 1.379 . S
C2530 H2514 0.931 . S
C2530 C2524 1.383 . S
C2530 C2529 1.379 . S
H2531 C2525 0.959 . S
H2532 C2525 0.961 . S
H2533 C2525 0.960 . S
H2534 C2526 0.930 . S
H2535 C2527 0.929 . S
H2536 C2544 0.929 . S
H2537 C2546 0.930 . S
H2538 C2548 0.930 . S
H2539 C2551 0.929 . S
H2540 C2554 0.930 . S
H2541 C2556 0.960 . S
H2542 C2556 0.960 . S
H2543 C2556 0.960 . S
C2544 H2536 0.929 . S
C2544 C2545 1.377 . S
C2544 C2546 1.384 . S
C2545 C2544 1.377 . S
C2545 C2551 1.390 . S
C2546 H2537 0.930 . S
C2546 C2544 1.384 . S
C2546 C2547 1.372 . S
C2547 C2546 1.372 . S
C2547 C2548 1.400 . S
C2547 C2552 1.490 . S
C2548 H2538 0.930 . S
C2548 C2547 1.400 . S
C2548 C2551 1.386 . S
H2549 C2565 0.930 . S
H2550 C2566 0.931 . S
C2551 H2539 0.929 . S
C2551 C2545 1.390 . S
C2551 C2548 1.386 . S
C2552 C2547 1.490 . S
C2552 C2554 1.395 . S
C2552 C2555 1.403 . S
H2553 C2559 0.930 . S
C2554 H2540 0.930 . S
C2554 C2552 1.395 . S
C2554 C2557 1.403 . S
C2555 C2552 1.403 . S
C2555 C2556 1.524 . S
C2555 C2559 1.400 . S
C2556 H2541 0.960 . S
C2556 H2542 0.960 . S
C2556 H2543 0.960 . S
C2556 C2555 1.524 . S
C2557 C2554 1.403 . S
C2557 C2558 1.392 . S
C2557 C2561 1.495 . S
C2558 C2557 1.392 . S
C2558 C2559 1.385 . S
C2558 C2560 1.478 . S
C2559 H2553 0.930 . S
C2559 C2555 1.400 . S
C2559 C2558 1.385 . S
C2560 C2558 1.478 . S
C2560 C2562 1.381 . S
C2560 C2566 1.383 . S
C2561 C2557 1.495 . S
C2561 H2567 0.959 . S
C2561 H2568 0.961 . S
C2561 H2569 0.960 . S
C2562 C2560 1.381 . S
C2562 C2563 1.394 . S
C2562 H2570 0.930 . S
C2563 C2562 1.394 . S
C2563 C2564 1.383 . S
C2563 H2571 0.929 . S
C2564 C2563 1.383 . S
C2564 C2565 1.377 . S
C2565 H2549 0.930 . S
C2565 C2564 1.377 . S
C2565 C2566 1.379 . S
C2566 H2550 0.931 . S
C2566 C2560 1.383 . S
C2566 C2565 1.379 . S
H2567 C2561 0.959 . S
H2568 C2561 0.961 . S
H2569 C2561 0.960 . S
H2570 C2562 0.930 . S
H2571 C2563 0.929 . S
H2572 C2580 0.929 . S
H2573 C2582 0.930 . S
H2574 C2584 0.930 . S
H2575 C2587 0.929 . S
H2576 C2590 0.930 . S
H2577 C2592 0.960 . S
H2578 C2592 0.960 . S
H2579 C2592 0.960 . S
C2580 H2572 0.929 . S
C2580 C2581 1.377 . S
C2580 C2582 1.384 . S
C2581 C2580 1.377 . S
C2581 C2587 1.390 . S
C2582 H2573 0.930 . S
C2582 C2580 1.384 . S
C2582 C2583 1.372 . S
C2583 C2582 1.372 . S
C2583 C2584 1.400 . S
C2583 C2588 1.490 . S
C2584 H2574 0.930 . S
C2584 C2583 1.400 . S
C2584 C2587 1.386 . S
H2585 C2601 0.930 . S
H2586 C2602 0.931 . S
C2587 H2575 0.929 . S
C2587 C2581 1.390 . S
C2587 C2584 1.386 . S
C2588 C2583 1.490 . S
C2588 C2590 1.395 . S
C2588 C2591 1.403 . S
H2589 C2595 0.930 . S
C2590 H2576 0.930 . S
C2590 C2588 1.395 . S
C2590 C2593 1.403 . S
C2591 C2588 1.403 . S
C2591 C2592 1.524 . S
C2591 C2595 1.400 . S
C2592 H2577 0.960 . S
C2592 H2578 0.960 . S
C2592 H2579 0.960 . S
C2592 C2591 1.524 . S
C2593 C2590 1.403 . S
C2593 C2594 1.392 . S
C2593 C2597 1.495 . S
C2594 C2593 1.392 . S
C2594 C2595 1.385 . S
C2594 C2596 1.478 . S
C2595 H2589 0.930 . S
C2595 C2591 1.400 . S
C2595 C2594 1.385 . S
C2596 C2594 1.478 . S
C2596 C2598 1.381 . S
C2596 C2602 1.383 . S
C2597 C2593 1.495 . S
C2597 H2603 0.959 . S
C2597 H2604 0.961 . S
C2597 H2605 0.960 . S
C2598 C2596 1.381 . S
C2598 C2599 1.394 . S
C2598 H2606 0.930 . S
C2599 C2598 1.394 . S
C2599 C2600 1.383 . S
C2599 H2607 0.929 . S
C2600 C2599 1.383 . S
C2600 C2601 1.377 . S
C2601 H2585 0.930 . S
C2601 C2600 1.377 . S
C2601 C2602 1.379 . S
C2602 H2586 0.931 . S
C2602 C2596 1.383 . S
C2602 C2601 1.379 . S
H2603 C2597 0.959 . S
H2604 C2597 0.961 . S
H2605 C2597 0.960 . S
H2606 C2598 0.930 . S
H2607 C2599 0.929 . S
H2608 C2616 0.929 . S
H2609 C2618 0.930 . S
H2610 C2620 0.930 . S
H2611 C2623 0.929 . S
H2612 C2626 0.930 . S
H2613 C2628 0.960 . S
H2614 C2628 0.960 . S
H2615 C2628 0.960 . S
C2616 H2608 0.929 . S
C2616 C2617 1.377 . S
C2616 C2618 1.384 . S
C2617 C2616 1.377 . S
C2617 C2623 1.390 . S
C2618 H2609 0.930 . S
C2618 C2616 1.384 . S
C2618 C2619 1.372 . S
C2619 C2618 1.372 . S
C2619 C2620 1.400 . S
C2619 C2624 1.490 . S
C2620 H2610 0.930 . S
C2620 C2619 1.400 . S
C2620 C2623 1.386 . S
H2621 C2637 0.930 . S
H2622 C2638 0.931 . S
C2623 H2611 0.929 . S
C2623 C2617 1.390 . S
C2623 C2620 1.386 . S
C2624 C2619 1.490 . S
C2624 C2626 1.395 . S
C2624 C2627 1.403 . S
H2625 C2631 0.930 . S
C2626 H2612 0.930 . S
C2626 C2624 1.395 . S
C2626 C2629 1.403 . S
C2627 C2624 1.403 . S
C2627 C2628 1.524 . S
C2627 C2631 1.400 . S
C2628 H2613 0.960 . S
C2628 H2614 0.960 . S
C2628 H2615 0.960 . S
C2628 C2627 1.524 . S
C2629 C2626 1.403 . S
C2629 C2630 1.392 . S
C2629 C2633 1.495 . S
C2630 C2629 1.392 . S
C2630 C2631 1.385 . S
C2630 C2632 1.478 . S
C2631 H2625 0.930 . S
C2631 C2627 1.400 . S
C2631 C2630 1.385 . S
C2632 C2630 1.478 . S
C2632 C2634 1.381 . S
C2632 C2638 1.383 . S
C2633 C2629 1.495 . S
C2633 H2639 0.959 . S
C2633 H2640 0.961 . S
C2633 H2641 0.960 . S
C2634 C2632 1.381 . S
C2634 C2635 1.394 . S
C2634 H2642 0.930 . S
C2635 C2634 1.394 . S
C2635 C2636 1.383 . S
C2635 H2643 0.929 . S
C2636 C2635 1.383 . S
C2636 C2637 1.377 . S
C2637 H2621 0.930 . S
C2637 C2636 1.377 . S
C2637 C2638 1.379 . S
C2638 H2622 0.931 . S
C2638 C2632 1.383 . S
C2638 C2637 1.379 . S
H2639 C2633 0.959 . S
H2640 C2633 0.961 . S
H2641 C2633 0.960 . S
H2642 C2634 0.930 . S
H2643 C2635 0.929 . S
H2644 C2652 0.929 . S
H2645 C2654 0.930 . S
H2646 C2656 0.930 . S
H2647 C2659 0.929 . S
H2648 C2662 0.930 . S
H2649 C2664 0.960 . S
H2650 C2664 0.960 . S
H2651 C2664 0.960 . S
C2652 H2644 0.929 . S
C2652 C2653 1.377 . S
C2652 C2654 1.384 . S
C2653 C2652 1.377 . S
C2653 C2659 1.390 . S
C2654 H2645 0.930 . S
C2654 C2652 1.384 . S
C2654 C2655 1.372 . S
C2655 C2654 1.372 . S
C2655 C2656 1.400 . S
C2655 C2660 1.490 . S
C2656 H2646 0.930 . S
C2656 C2655 1.400 . S
C2656 C2659 1.386 . S
H2657 C2673 0.930 . S
H2658 C2674 0.931 . S
C2659 H2647 0.929 . S
C2659 C2653 1.390 . S
C2659 C2656 1.386 . S
C2660 C2655 1.490 . S
C2660 C2662 1.395 . S
C2660 C2663 1.403 . S
H2661 C2667 0.930 . S
C2662 H2648 0.930 . S
C2662 C2660 1.395 . S
C2662 C2665 1.403 . S
C2663 C2660 1.403 . S
C2663 C2664 1.524 . S
C2663 C2667 1.400 . S
C2664 H2649 0.960 . S
C2664 H2650 0.960 . S
C2664 H2651 0.960 . S
C2664 C2663 1.524 . S
C2665 C2662 1.403 . S
C2665 C2666 1.392 . S
C2665 C2669 1.495 . S
C2666 C2665 1.392 . S
C2666 C2667 1.385 . S
C2666 C2668 1.478 . S
C2667 H2661 0.930 . S
C2667 C2663 1.400 . S
C2667 C2666 1.385 . S
C2668 C2666 1.478 . S
C2668 C2670 1.381 . S
C2668 C2674 1.383 . S
C2669 C2665 1.495 . S
C2669 H2675 0.959 . S
C2669 H2676 0.961 . S
C2669 H2677 0.960 . S
C2670 C2668 1.381 . S
C2670 C2671 1.394 . S
C2670 H2678 0.930 . S
C2671 C2670 1.394 . S
C2671 C2672 1.383 . S
C2671 H2679 0.929 . S
C2672 C2671 1.383 . S
C2672 C2673 1.377 . S
C2673 H2657 0.930 . S
C2673 C2672 1.377 . S
C2673 C2674 1.379 . S
C2674 H2658 0.931 . S
C2674 C2668 1.383 . S
C2674 C2673 1.379 . S
H2675 C2669 0.959 . S
H2676 C2669 0.961 . S
H2677 C2669 0.960 . S
H2678 C2670 0.930 . S
H2679 C2671 0.929 . S
H2680 C2688 0.929 . S
H2681 C2690 0.930 . S
H2682 C2692 0.930 . S
H2683 C2695 0.929 . S
H2684 C2698 0.930 . S
H2685 C2700 0.960 . S
H2686 C2700 0.960 . S
H2687 C2700 0.960 . S
C2688 H2680 0.929 . S
C2688 C2689 1.377 . S
C2688 C2690 1.384 . S
C2689 C2688 1.377 . S
C2689 C2695 1.390 . S
C2690 H2681 0.930 . S
C2690 C2688 1.384 . S
C2690 C2691 1.372 . S
C2691 C2690 1.372 . S
C2691 C2692 1.400 . S
C2691 C2696 1.490 . S
C2692 H2682 0.930 . S
C2692 C2691 1.400 . S
C2692 C2695 1.386 . S
H2693 C2709 0.930 . S
H2694 C2710 0.931 . S
C2695 H2683 0.929 . S
C2695 C2689 1.390 . S
C2695 C2692 1.386 . S
C2696 C2691 1.490 . S
C2696 C2698 1.395 . S
C2696 C2699 1.403 . S
H2697 C2703 0.930 . S
C2698 H2684 0.930 . S
C2698 C2696 1.395 . S
C2698 C2701 1.403 . S
C2699 C2696 1.403 . S
C2699 C2700 1.524 . S
C2699 C2703 1.400 . S
C2700 H2685 0.960 . S
C2700 H2686 0.960 . S
C2700 H2687 0.960 . S
C2700 C2699 1.524 . S
C2701 C2698 1.403 . S
C2701 C2702 1.392 . S
C2701 C2705 1.495 . S
C2702 C2701 1.392 . S
C2702 C2703 1.385 . S
C2702 C2704 1.478 . S
C2703 H2697 0.930 . S
C2703 C2699 1.400 . S
C2703 C2702 1.385 . S
C2704 C2702 1.478 . S
C2704 C2706 1.381 . S
C2704 C2710 1.383 . S
C2705 C2701 1.495 . S
C2705 H2711 0.959 . S
C2705 H2712 0.961 . S
C2705 H2713 0.960 . S
C2706 C2704 1.381 . S
C2706 C2707 1.394 . S
C2706 H2714 0.930 . S
C2707 C2706 1.394 . S
C2707 C2708 1.383 . S
C2707 H2715 0.929 . S
C2708 C2707 1.383 . S
C2708 C2709 1.377 . S
C2709 H2693 0.930 . S
C2709 C2708 1.377 . S
C2709 C2710 1.379 . S
C2710 H2694 0.931 . S
C2710 C2704 1.383 . S
C2710 C2709 1.379 . S
H2711 C2705 0.959 . S
H2712 C2705 0.961 . S
H2713 C2705 0.960 . S
H2714 C2706 0.930 . S
H2715 C2707 0.929 . S
H2716 C2724 0.929 . S
H2717 C2726 0.930 . S
H2718 C2728 0.930 . S
H2719 C2731 0.929 . S
H2720 C2734 0.930 . S
H2721 C2736 0.960 . S
H2722 C2736 0.960 . S
H2723 C2736 0.960 . S
C2724 H2716 0.929 . S
C2724 C2725 1.377 . S
C2724 C2726 1.384 . S
C2725 C2724 1.377 . S
C2725 C2731 1.390 . S
C2726 H2717 0.930 . S
C2726 C2724 1.384 . S
C2726 C2727 1.372 . S
C2727 C2726 1.372 . S
C2727 C2728 1.400 . S
C2727 C2732 1.490 . S
C2728 H2718 0.930 . S
C2728 C2727 1.400 . S
C2728 C2731 1.386 . S
H2729 C2745 0.930 . S
H2730 C2746 0.931 . S
C2731 H2719 0.929 . S
C2731 C2725 1.390 . S
C2731 C2728 1.386 . S
C2732 C2727 1.490 . S
C2732 C2734 1.395 . S
C2732 C2735 1.403 . S
H2733 C2739 0.930 . S
C2734 H2720 0.930 . S
C2734 C2732 1.395 . S
C2734 C2737 1.403 . S
C2735 C2732 1.403 . S
C2735 C2736 1.524 . S
C2735 C2739 1.400 . S
C2736 H2721 0.960 . S
C2736 H2722 0.960 . S
C2736 H2723 0.960 . S
C2736 C2735 1.524 . S
C2737 C2734 1.403 . S
C2737 C2738 1.392 . S
C2737 C2741 1.495 . S
C2738 C2737 1.392 . S
C2738 C2739 1.385 . S
C2738 C2740 1.478 . S
C2739 H2733 0.930 . S
C2739 C2735 1.400 . S
C2739 C2738 1.385 . S
C2740 C2738 1.478 . S
C2740 C2742 1.381 . S
C2740 C2746 1.383 . S
C2741 C2737 1.495 . S
C2741 H2747 0.959 . S
C2741 H2748 0.961 . S
C2741 H2749 0.960 . S
C2742 C2740 1.381 . S
C2742 C2743 1.394 . S
C2742 H2750 0.930 . S
C2743 C2742 1.394 . S
C2743 C2744 1.383 . S
C2743 H2751 0.929 . S
C2744 C2743 1.383 . S
C2744 C2745 1.377 . S
C2745 H2729 0.930 . S
C2745 C2744 1.377 . S
C2745 C2746 1.379 . S
C2746 H2730 0.931 . S
C2746 C2740 1.383 . S
C2746 C2745 1.379 . S
H2747 C2741 0.959 . S
H2748 C2741 0.961 . S
H2749 C2741 0.960 . S
H2750 C2742 0.930 . S
H2751 C2743 0.929 . S
C457 C135 1.000 . S
C476 C3 1.061 . S
C493 C17 1.057 . S
C512 C373 1.046 . S
C529 C163 1.002 . S
C548 C31 1.056 . S
C565 C345 0.999 . S
C584 C45 1.052 . S
C601 C59 1.058 . S
C620 C219 1.046 . S
C637 C401 0.986 . S
C656 C73 1.044 . S
C673 C87 1.057 . S
C692 C191 1.041 . S
C709 C429 0.990 . S
C728 C101 1.045 . S
C745 C23 0.996 . S
C764 C115 1.049 . S
C781 C129 1.057 . S
C800 C261 0.964 . S
C817 C51 1.007 . S
C836 C143 1.047 . S
C853 C157 1.057 . S
C872 C233 0.942 . S
C889 C171 1.054 . S
C908 C107 1.047 . S
C925 C289 0.998 . S
C944 C185 1.046 . S
C961 C199 1.058 . S
C980 C79 0.959 . S
C997 C317 1.005 . S
C1016 C213 1.049 . S
C1033 C359 1.007 . S
C1052 C227 1.064 . S
C1069 C149 0.993 . S
C1088 C241 1.047 . S
C1105 C255 1.057 . S
C1124 C387 1.032 . S
C1141 C121 0.997 . S
C1160 C269 1.059 . S
C1177 C443 1.005 . S
C1196 C283 1.059 . S
C1213 C297 1.054 . S
C1232 C177 0.944 . S
C1249 C415 1.007 . S
C1268 C311 1.063 . S
C1285 C205 0.987 . S
C1304 C325 1.044 . S
C1321 C247 0.989 . S
C1340 C339 1.056 . S
C1357 C353 1.056 . S
C1376 C37 0.965 . S
C1393 C367 1.057 . S
C1412 C275 0.987 . S
C1429 C381 1.057 . S
C1448 C9 0.996 . S
C1465 C331 0.989 . S
C1484 C395 1.064 . S
C1501 C409 1.054 . S
C1520 C65 1.046 . S
C1537 C423 1.057 . S
C1556 C303 0.996 . S
C1573 C437 1.056 . S
C1592 C93 1.013 . S
C1609 C344 1.390 . S
C1628 C8 1.409 . S
C1645 C22 1.391 . S
C1664 C134 1.410 . S
C1681 C36 1.393 . S
C1700 C372 1.397 . S
C1717 C50 1.392 . S
C1736 C162 1.409 . S
C1753 C64 1.384 . S
C1772 C400 1.387 . S
C1789 C78 1.387 . S
C1808 C190 1.362 . S
C1825 C428 1.392 . S
C1844 C92 1.377 . S
C1861 C106 1.393 . S
C1880 C218 1.407 . S
C1897 C120 1.388 . S
C1916 C232 1.363 . S
C1933 C148 1.385 . S
C1952 C260 1.363 . S
C1969 C288 1.386 . S
C1988 C176 1.362 . S
C2005 C316 1.390 . S
C2024 C204 1.408 . S
C2041 C246 1.389 . S
C2060 C358 1.365 . S
C2077 C386 1.385 . S
C2096 C274 1.391 . S
C2113 C302 1.391 . S
C2132 C414 1.410 . S
C2149 C442 1.393 . S
C2168 C330 1.407 . S
C2185 C301 1.792 . S
C2204 C7 1.797 . S
C2221 C315 1.793 . S
C2240 C21 1.794 . S
C2257 C35 1.790 . S
C2276 C329 1.807 . S
C2293 C287 1.797 . S
C2312 C49 1.771 . S
C2329 C273 1.797 . S
C2348 C63 1.769 . S
C2365 C231 1.794 . S
C2384 C77 1.780 . S
C2401 C91 1.793 . S
C2420 C245 1.797 . S
C2437 C259 1.790 . S
C2456 C105 1.796 . S
C2473 C413 1.795 . S
C2492 C119 1.809 . S
C2509 C427 1.789 . S
C2528 C133 1.780 . S
C2545 C441 1.797 . S
C2564 C147 1.808 . S
C2581 C161 1.789 . S
C2600 C399 1.779 . S
C2617 C385 1.797 . S
C2636 C175 1.803 . S
C2653 C343 1.789 . S
C2672 C189 1.775 . S
C2689 C357 1.789 . S
C2708 C203 1.784 . S
C2725 C371 1.797 . S
C2744 C217 1.799 . S
