# Generated by pormake.
# Topology ths, (3)-cn, num edge types: 1
# Building blocks:
#     Node 0, Type 0, BuildingBlock: WUSLED_clean_sbu_0, # of connection points: 3
#     Node 1, Type 0, BuildingBlock: WUSLED_clean_sbu_0, # of connection points: 3
#     Node 2, Type 0, BuildingBlock: WUSLED_clean_sbu_0, # of connection points: 3
#     Node 3, Type 0, BuildingBlock: WUSLED_clean_sbu_0, # of connection points: 3
#     Node 4, Type 0, BuildingBlock: WUSLED_clean_sbu_0, # of connection points: 3
#     Node 5, Type 0, BuildingBlock: WUSLED_clean_sbu_0, # of connection points: 3
#     Node 6, Type 0, BuildingBlock: WUSLED_clean_sbu_0, # of connection points: 3
#     Node 7, Type 0, BuildingBlock: WUSLED_clean_sbu_0, # of connection points: 3
#     Edge 8, Type (0, 0), BuildingBlock: TEMPAE_clean_linker_10, # of connection points: 2
#     Edge 9, Type (0, 0), BuildingBlock: TEMPAE_clean_linker_10, # of connection points: 2
#     Edge 10, Type (0, 0), BuildingBlock: TEMPAE_clean_linker_10, # of connection points: 2
#     Edge 11, Type (0, 0), BuildingBlock: TEMPAE_clean_linker_10, # of connection points: 2
#     Edge 12, Type (0, 0), BuildingBlock: TEMPAE_clean_linker_10, # of connection points: 2
#     Edge 13, Type (0, 0), BuildingBlock: TEMPAE_clean_linker_10, # of connection points: 2
#     Edge 14, Type (0, 0), BuildingBlock: TEMPAE_clean_linker_10, # of connection points: 2
#     Edge 15, Type (0, 0), BuildingBlock: TEMPAE_clean_linker_10, # of connection points: 2
#     Edge 16, Type (0, 0), BuildingBlock: TEMPAE_clean_linker_10, # of connection points: 2
#     Edge 17, Type (0, 0), BuildingBlock: TEMPAE_clean_linker_10, # of connection points: 2
#     Edge 18, Type (0, 0), BuildingBlock: TEMPAE_clean_linker_10, # of connection points: 2
#     Edge 19, Type (0, 0), BuildingBlock: TEMPAE_clean_linker_10, # of connection points: 2
# Relax obj value: 0.000
# Max RMSD: 0.003
# Mean RMSD: 0.003
data_MOF--net-ths--node1-WUSLED_clean_sbu_0--edge1-TEMPAE_clean_linker_10
_symmetry_space_group_name_H-M    P1
_symmetry_Int_Tables_number       1
_symmetry_cell_setting            triclinic
loop_
_symmetry_equiv_pos_as_xyz
'x, y, z'
_cell_length_a     41.197052
_cell_length_b     41.078214
_cell_length_c     137.04772
_cell_angle_alpha  88.628996
_cell_angle_beta   90.529466
_cell_angle_gamma 89.960649
loop_
_atom_site_label
_atom_site_type_symbol
_atom_site_fract_x
_atom_site_fract_y
_atom_site_fract_z
_atom_type_partial_charge
C0 C 0.06273 0.82999 0.03766 0.0
C1 C 0.07465 0.85462 0.04366 0.0
C2 C 0.06325 0.89569 0.03087 0.0
C3 C 0.07498 0.88715 0.04028 0.0
C4 C 0.05114 0.87084 0.02495 0.0
C5 C 0.05092 0.8384 0.02831 0.0
U6 U 0.06428 0.76079 0.05729 0.0
O7 O 0.03699 0.71455 0.05764 0.0
O8 O 0.09023 0.71396 0.0573 0.0
C9 C 0.06336 0.69675 0.05691 0.0
C10 C 0.06277 0.79537 0.04087 0.0
C11 C 0.06211 0.66987 0.04986 0.0
C12 C 0.08508 0.6394 0.03649 0.0
C13 C 0.08518 0.66678 0.04243 0.0
C14 C 0.03844 0.61814 0.04513 0.0
C15 C 0.06195 0.61446 0.03785 0.0
C16 C 0.0386 0.64542 0.05106 0.0
C17 C 0.06781 0.78246 0.08474 0.0
C18 C 0.04572 0.75647 0.09943 0.0
C19 C 0.09139 0.79317 0.10071 0.0
C20 C 0.09091 0.79811 0.09057 0.0
C21 C 0.06862 0.77253 0.1053 0.0
C22 C 0.04535 0.76131 0.08926 0.0
C23 C 0.06658 0.79032 0.07412 0.0
O24 O 0.08972 0.78432 0.04496 0.0
O25 O 0.03653 0.785 0.04534 0.0
O26 O 0.03936 0.78395 0.06945 0.0
O27 O 0.0926 0.78323 0.06911 0.0
H28 H 0.08376 0.84868 0.05093 0.0
H29 H 0.08414 0.90567 0.04508 0.0
H30 H 0.04232 0.87637 0.01763 0.0
H31 H 0.04171 0.81977 0.02356 0.0
H32 H 0.10375 0.63734 0.03103 0.0
H33 H 0.10373 0.68513 0.04133 0.0
H34 H 0.01989 0.59982 0.04629 0.0
H35 H 0.0206 0.64712 0.05675 0.0
H36 H 0.02808 0.74012 0.1027 0.0
H37 H 0.1091 0.80627 0.10499 0.0
H38 H 0.1083 0.81473 0.08729 0.0
H39 H 0.02724 0.74884 0.08496 0.0
C40 C 0.49388 0.7608 0.28788 0.0
C41 C 0.4704 0.78158 0.29177 0.0
C42 C 0.42884 0.75999 0.28083 0.0
C43 C 0.43827 0.78118 0.28828 0.0
C44 C 0.45234 0.73879 0.27712 0.0
C45 C 0.48442 0.73928 0.28058 0.0
U46 U 0.56363 0.76227 0.30705 0.0
O47 O 0.61102 0.73754 0.30693 0.0
O48 O 0.60897 0.79092 0.30694 0.0
C49 C 0.62745 0.76495 0.30638 0.0
C50 C 0.52856 0.76209 0.2909 0.0
C51 C 0.65446 0.76672 0.29931 0.0
C52 C 0.68269 0.74771 0.28495 0.0
C53 C 0.65539 0.74725 0.29101 0.0
C54 C 0.70814 0.78756 0.29524 0.0
C55 C 0.70957 0.76769 0.28703 0.0
C56 C 0.68097 0.78702 0.3013 0.0
C57 C 0.54265 0.7585 0.33466 0.0
C58 C 0.56686 0.78222 0.34916 0.0
C59 C 0.53409 0.73356 0.35074 0.0
C60 C 0.52902 0.73396 0.34063 0.0
C61 C 0.55283 0.75784 0.35517 0.0
C62 C 0.56188 0.78253 0.33902 0.0
C63 C 0.5346 0.75942 0.32408 0.0
O64 O 0.5386 0.78887 0.29505 0.0
O65 O 0.54065 0.7355 0.29504 0.0
O66 O 0.5423 0.73346 0.31917 0.0
O67 O 0.54006 0.78682 0.31921 0.0
H68 H 0.47692 0.79849 0.29741 0.0
H69 H 0.42102 0.79809 0.29126 0.0
H70 H 0.44596 0.72171 0.27152 0.0
H71 H 0.50202 0.723 0.27747 0.0
H72 H 0.68274 0.73239 0.27862 0.0
H73 H 0.63527 0.73138 0.28929 0.0
H74 H 0.72846 0.80293 0.29716 0.0
H75 H 0.68095 0.80205 0.30769 0.0
H76 H 0.58172 0.80109 0.35231 0.0
H77 H 0.52255 0.71467 0.35513 0.0
H78 H 0.51385 0.71534 0.33748 0.0
H79 H 0.57276 0.8018 0.33462 0.0
C80 C 0.57071 0.32867 0.53774 0.0
C81 C 0.55168 0.35196 0.5424 0.0
C82 C 0.57019 0.39448 0.53097 0.0
C83 C 0.55134 0.3845 0.53903 0.0
C84 C 0.5895 0.37109 0.52642 0.0
C85 C 0.58969 0.33861 0.52976 0.0
U86 U 0.56967 0.25826 0.55702 0.0
O87 O 0.54393 0.21135 0.55673 0.0
O88 O 0.59718 0.21211 0.55727 0.0
C89 C 0.57089 0.19423 0.55646 0.0
C90 C 0.5706 0.29382 0.54079 0.0
C91 C 0.5721 0.16745 0.5494 0.0
C92 C 0.55232 0.14003 0.53492 0.0
C93 C 0.55226 0.16707 0.541 0.0
C94 C 0.59249 0.11373 0.54542 0.0
C95 C 0.57229 0.11288 0.53709 0.0
C96 C 0.59233 0.14064 0.55149 0.0
C97 C 0.56789 0.27834 0.58464 0.0
C98 C 0.59655 0.26535 0.59992 0.0
C99 C 0.53913 0.27749 0.60014 0.0
C100 C 0.53916 0.28194 0.58997 0.0
C101 C 0.56792 0.26958 0.60528 0.0
C102 C 0.59657 0.26974 0.58975 0.0
C103 C 0.56825 0.28679 0.57402 0.0
O104 O 0.59702 0.28295 0.54522 0.0
O105 O 0.54378 0.28245 0.54474 0.0
O106 O 0.54198 0.27996 0.56894 0.0
O107 O 0.59518 0.28099 0.56928 0.0
H108 H 0.53692 0.34501 0.54861 0.0
H109 H 0.53649 0.40191 0.54278 0.0
H110 H 0.604 0.37774 0.52013 0.0
H111 H 0.60446 0.32109 0.52602 0.0
H112 H 0.53675 0.1404 0.52851 0.0
H113 H 0.53643 0.18743 0.53919 0.0
H114 H 0.60786 0.09318 0.54741 0.0
H115 H 0.60765 0.14023 0.55797 0.0
H116 H 0.61929 0.25972 0.60362 0.0
H117 H 0.51653 0.28054 0.60399 0.0
H118 H 0.51673 0.28891 0.5863 0.0
H119 H 0.6193 0.26721 0.58593 0.0
C120 C 1.00029 0.26322 0.7884 0.0
C121 C 0.97647 0.24465 0.79326 0.0
C122 C 0.93513 0.26366 0.78154 0.0
C123 C 0.94425 0.2448 0.78984 0.0
C124 C 0.959 0.28259 0.77681 0.0
C125 C 0.99118 0.2823 0.78019 0.0
U126 U 0.06982 0.26026 0.80761 0.0
O127 O 0.11549 0.23228 0.80754 0.0
O128 O 0.1169 0.28565 0.80746 0.0
C129 C 0.13365 0.25852 0.80681 0.0
C130 C 0.03489 0.26222 0.79143 0.0
C131 C 0.16044 0.25797 0.79959 0.0
C132 C 0.1975 0.286 0.78841 0.0
C133 C 0.16995 0.28622 0.79435 0.0
C134 C 0.20638 0.22922 0.79268 0.0
C135 C 0.21636 0.25761 0.7876 0.0
C136 C 0.1789 0.22945 0.79862 0.0
C137 C 0.04886 0.25851 0.83524 0.0
C138 C 0.07164 0.28283 0.84986 0.0
C139 C 0.04086 0.23284 0.85126 0.0
C140 C 0.03607 0.23329 0.84113 0.0
C141 C 0.05841 0.25778 0.85578 0.0
C142 C 0.06697 0.28319 0.83971 0.0
C143 C 0.04081 0.25969 0.82465 0.0
O144 O 0.04629 0.28842 0.79558 0.0
O145 O 0.04534 0.23502 0.79564 0.0
O146 O 0.04671 0.23317 0.81978 0.0
O147 O 0.04798 0.28657 0.81972 0.0
H148 H 0.98279 0.22982 0.79963 0.0
H149 H 0.92643 0.23025 0.79373 0.0
H150 H 0.95299 0.29711 0.77034 0.0
H151 H 1.00913 0.29669 0.7763 0.0
H152 H 0.2046 0.30843 0.78471 0.0
H153 H 0.15662 0.30878 0.79501 0.0
H154 H 0.21995 0.20677 0.79213 0.0
H155 H 0.17249 0.20738 0.80263 0.0
H156 H 0.0856 0.30223 0.85309 0.0
H157 H 0.02994 0.21341 0.85558 0.0
H158 H 0.02171 0.21417 0.83791 0.0
H159 H 0.07714 0.30306 0.8354 0.0
C160 C 0.06989 0.19476 0.99763 0.0
C161 C 0.06164 0.16962 0.9913 0.0
C162 C 0.06878 0.12921 1.00456 0.0
C163 C 0.06109 0.13714 0.99473 0.0
C164 C 0.07744 0.15459 1.01079 0.0
C165 C 0.07795 0.18695 1.00736 0.0
U166 U 0.06996 0.26382 0.97793 0.0
O167 O 0.04338 0.31035 0.97763 0.0
O168 O 0.09663 0.31038 0.97792 0.0
C169 C 0.06997 0.32787 0.97837 0.0
C170 C 0.06981 0.2293 0.99436 0.0
C171 C 0.07002 0.3546 0.9855 0.0
C172 C 0.04361 0.38637 0.998 0.0
C173 C 0.04421 0.35921 0.99198 0.0
C174 C 0.09484 0.40451 0.99132 0.0
C175 C 0.06879 0.40955 0.99768 0.0
C176 C 0.09536 0.37746 0.98529 0.0
C177 C 0.07108 0.24234 0.95045 0.0
C178 C 0.04583 0.26509 0.93562 0.0
C179 C 0.09546 0.23391 0.93456 0.0
C180 C 0.09577 0.22931 0.94471 0.0
C181 C 0.07027 0.25152 0.92985 0.0
C182 C 0.04623 0.2606 0.9458 0.0
C183 C 0.07066 0.23441 0.96108 0.0
O184 O 0.09648 0.23997 0.99019 0.0
O185 O 0.04325 0.23988 0.98994 0.0
O186 O 0.04387 0.2409 0.96581 0.0
O187 O 0.09713 0.2412 0.96605 0.0
H188 H 0.05535 0.17514 0.98375 0.0
H189 H 0.05405 0.11832 0.98974 0.0
H190 H 0.08407 0.14945 0.01834 0.0
H191 H 0.08454 0.20597 1.01235 0.0
H192 H 0.02337 0.38925 1.00289 0.0
H193 H 0.02422 0.34213 0.99233 0.0
H194 H 0.11444 0.422 0.99078 0.0
H195 H 0.11535 0.37478 0.98029 0.0
H196 H 0.02627 0.2791 0.93226 0.0
H197 H 0.11445 0.22277 0.93036 0.0
H198 H 0.11503 0.21486 0.94808 0.0
H199 H 0.0268 0.27099 0.94999 0.0
C200 C 0.1332 0.76449 0.24654 0.0
C201 C 0.155 0.74044 0.24351 0.0
C202 C 0.19845 0.76379 0.2534 0.0
C203 C 0.18722 0.74006 0.24693 0.0
C204 C 0.17665 0.78805 0.25629 0.0
C205 C 0.14444 0.78831 0.25292 0.0
U206 U 0.06331 0.76294 0.22743 0.0
O207 O 0.0163 0.73761 0.22803 0.0
O208 O 0.01755 0.79099 0.22696 0.0
C209 C 0.99946 0.76482 0.22804 0.0
C210 C 0.09844 0.76456 0.24356 0.0
C211 C 0.9722 0.7667 0.23501 0.0
C212 C 0.94219 0.7463 0.24915 0.0
C213 C 0.96995 0.74591 0.24328 0.0
C214 C 0.91893 0.78877 0.23874 0.0
C215 C 0.91608 0.76743 0.24687 0.0
C216 C 0.94659 0.78833 0.23288 0.0
C217 C 0.08446 0.7589 0.1999 0.0
C218 C 0.05852 0.78166 0.18519 0.0
C219 C 0.09541 0.73609 0.18401 0.0
C220 C 0.1002 0.73604 0.19414 0.0
C221 C 0.07484 0.75917 0.17938 0.0
C222 C 0.06322 0.7815 0.19535 0.0
C223 C 0.09246 0.75993 0.21047 0.0
O224 O 0.0879 0.79089 0.23889 0.0
O225 O 0.08671 0.73754 0.23996 0.0
O226 O 0.08502 0.73399 0.21578 0.0
O227 O 0.08663 0.78737 0.21488 0.0
H228 H 0.14714 0.72175 0.23858 0.0
H229 H 0.20342 0.72124 0.24446 0.0
H230 H 0.18427 0.80647 0.26135 0.0
H231 H 0.12812 0.80698 0.25542 0.0
H232 H 0.94081 0.72936 0.25531 0.0
H233 H 0.98928 0.72887 0.24509 0.0
H234 H 0.89968 0.8058 0.23685 0.0
H235 H 0.94768 0.80457 0.22655 0.0
H236 H 0.0422 0.79951 0.18189 0.0
H237 H 0.10867 0.71867 0.17978 0.0
H238 H 0.11687 0.71853 0.19746 0.0
H239 H 0.05064 0.7994 0.19959 0.0
C240 C 0.56552 0.69273 0.49685 0.0
C241 C 0.58097 0.66823 0.49161 0.0
C242 C 0.56538 0.62728 0.50395 0.0
C243 C 0.58093 0.63585 0.49513 0.0
C244 C 0.54942 0.65191 0.50904 0.0
C245 C 0.54956 0.6842 0.50553 0.0
U246 U 0.56775 0.76216 0.47727 0.0
O247 O 0.54273 0.80954 0.47704 0.0
O248 O 0.59598 0.80781 0.4772 0.0
C249 C 0.56991 0.82619 0.47759 0.0
C250 C 0.56654 0.7274 0.49365 0.0
C251 C 0.57102 0.85337 0.48451 0.0
C252 C 0.55048 0.88223 0.49853 0.0
C253 C 0.55046 0.85476 0.49262 0.0
C254 C 0.59207 0.90693 0.48845 0.0
C255 C 0.57102 0.9089 0.49645 0.0
C256 C 0.592 0.87957 0.48256 0.0
C257 C 0.56769 0.74095 0.44978 0.0
C258 C 0.54313 0.76519 0.43505 0.0
C259 C 0.59123 0.73178 0.43382 0.0
C260 C 0.5916 0.72692 0.44397 0.0
C261 C 0.56676 0.75064 0.42921 0.0
C262 C 0.5436 0.76045 0.44522 0.0
C263 C 0.56718 0.73284 0.4604 0.0
O264 O 0.59348 0.73755 0.4895 0.0
O265 O 0.54025 0.73896 0.4893 0.0
O266 O 0.54072 0.74019 0.46517 0.0
O267 O 0.59395 0.73865 0.46535 0.0
H268 H 0.59344 0.67417 0.48488 0.0
H269 H 0.59371 0.61768 0.49105 0.0
H270 H 0.53667 0.64624 0.51574 0.0
H271 H 0.53737 0.70266 0.50967 0.0
H272 H 0.53378 0.88293 0.50458 0.0
H273 H 0.53397 0.83492 0.4943 0.0
H274 H 0.60867 0.92662 0.48671 0.0
H275 H 0.60808 0.8791 0.47635 0.0
H276 H 0.52416 0.78017 0.43176 0.0
H277 H 0.60958 0.71987 0.42956 0.0
H278 H 0.61025 0.71153 0.44727 0.0
H279 H 0.5248 0.77165 0.44948 0.0
C280 C 0.64013 0.2627 0.74687 0.0
C281 C 0.66351 0.24185 0.74297 0.0
C282 C 0.70502 0.26289 0.75403 0.0
C283 C 0.69559 0.24193 0.74652 0.0
C284 C 0.6816 0.28416 0.75775 0.0
C285 C 0.6496 0.28397 0.75423 0.0
U286 U 0.57026 0.26127 0.72769 0.0
O287 O 0.52419 0.23409 0.72809 0.0
O288 O 0.52357 0.28747 0.72773 0.0
C289 C 0.50642 0.26059 0.72866 0.0
C290 C 0.60553 0.26185 0.7438 0.0
C291 C 0.47984 0.2604 0.73596 0.0
C292 C 0.44077 0.23062 0.74606 0.0
C293 C 0.46814 0.23097 0.74006 0.0
C294 C 0.43626 0.28911 0.74413 0.0
C295 C 0.4242 0.25964 0.74809 0.0
C296 C 0.46359 0.28946 0.73812 0.0
C297 C 0.59043 0.26267 0.69997 0.0
C298 C 0.57786 0.23428 0.68494 0.0
C299 C 0.58909 0.29206 0.68429 0.0
C300 C 0.59358 0.29172 0.69443 0.0
C301 C 0.5816 0.26327 0.67938 0.0
C302 C 0.58232 0.23395 0.6951 0.0
C303 C 0.59877 0.26216 0.71057 0.0
O304 O 0.59404 0.2884 0.73948 0.0
O305 O 0.59501 0.23497 0.73981 0.0
O306 O 0.59277 0.23523 0.71562 0.0
O307 O 0.59212 0.28861 0.71539 0.0
H308 H 0.65695 0.22514 0.73728 0.0
H309 H 0.71279 0.22501 0.74353 0.0
H310 H 0.68798 0.30108 0.76339 0.0
H311 H 0.63205 0.3003 0.75735 0.0
H312 H 0.43243 0.20751 0.74907 0.0
H313 H 0.47971 0.20804 0.73848 0.0
H314 H 0.42392 0.31188 0.74541 0.0
H315 H 0.47148 0.31249 0.73495 0.0
H316 H 0.5725 0.21157 0.68142 0.0
H317 H 0.59172 0.31493 0.68028 0.0
H318 H 0.60018 0.3142 0.69791 0.0
H319 H 0.58017 0.21099 0.69909 0.0
C320 C 0.03848 0.45668 1.00474 0.0
C321 C 0.06759 0.43929 1.00376 0.0
C322 C 0.03718 0.48521 1.01021 0.0
C323 C 0.06565 0.49675 1.01487 0.0
C324 C 0.09507 0.47922 1.01396 0.0
C325 C 0.09569 0.4508 1.00842 0.0
C326 C 1.00535 0.50317 1.01096 0.0
C327 C 0.12593 0.49049 0.01884 0.0
C328 C 0.06985 0.58608 0.02189 0.0
C329 C 0.06279 0.58437 0.0319 0.0
C330 C 0.07085 0.55785 1.01627 0.0
C331 C 0.06463 0.52702 0.02073 0.0
C332 C 0.05749 0.5251 0.03082 0.0
C333 C 0.05672 0.55368 0.03627 0.0
C334 C 0.07851 0.56102 1.00554 0.0
C335 C 0.0508 0.49278 0.03588 0.0
H336 H 0.01674 0.4483 1.00107 0.0
H337 H 0.11821 0.43738 1.00781 0.0
H338 H 0.99838 0.50497 0.01872 0.0
H339 H 1.00798 0.52838 1.00799 0.0
H340 H 0.98538 0.49102 1.00694 0.0
H341 H 0.14681 0.47418 1.01743 0.0
H342 H 0.13208 0.51545 1.0162 0.0
H343 H 0.1224 0.49156 0.02684 0.0
H344 H 0.07421 0.6096 0.01841 0.0
H345 H 0.05181 0.5519 0.04401 0.0
H346 H 0.05814 0.5512 1.00115 0.0
H347 H 0.10038 0.54644 1.0039 0.0
H348 H 0.08286 0.58668 1.00317 0.0
H349 H 0.0299 0.48068 0.03233 0.0
H350 H 0.04538 0.49541 0.04375 0.0
H351 H 0.07209 0.47645 0.03521 0.0
C352 C 0.8869 0.76345 0.26299 0.0
C353 C 0.88565 0.76681 0.25277 0.0
C354 C 0.85836 0.76316 0.26858 0.0
C355 C 0.8277 0.76629 0.26387 0.0
C356 C 0.82625 0.76946 0.25356 0.0
C357 C 0.85513 0.76963 0.24816 0.0
C358 C 0.86104 0.75977 0.27955 0.0
C359 C 0.79415 0.77274 0.24822 0.0
C360 C 0.75184 0.73796 0.27745 0.0
C361 C 0.73932 0.76738 0.28084 0.0
C362 C 0.7805 0.73723 0.27193 0.0
C363 C 0.79715 0.76662 0.26971 0.0
C364 C 0.7845 0.79642 0.27304 0.0
C365 C 0.75584 0.79644 0.27855 0.0
C366 C 0.79314 0.70492 0.26856 0.0
C367 C 0.80129 0.82835 0.27079 0.0
H368 H 0.91027 0.76159 0.26666 0.0
H369 H 0.85374 0.77162 0.24027 0.0
H370 H 0.8505 0.78154 0.28297 0.0
H371 H 0.84693 0.73834 0.28217 0.0
H372 H 0.88659 0.75694 0.2821 0.0
H373 H 0.79711 0.77492 0.24019 0.0
H374 H 0.77867 0.75128 0.2499 0.0
H375 H 0.78101 0.79455 0.25073 0.0
H376 H 0.73959 0.71532 0.27928 0.0
H377 H 0.7462 0.81935 0.28101 0.0
H378 H 0.81783 0.70048 0.27161 0.0
H379 H 0.79518 0.70535 0.26049 0.0
H380 H 0.77723 0.68429 0.2708 0.0
H381 H 0.82645 0.82769 0.27374 0.0
H382 H 0.7884 0.8494 0.27391 0.0
H383 H 0.80297 0.83228 0.26277 0.0
C384 C 0.54004 0.4461 0.52635 0.0
C385 C 0.56948 0.42896 0.52721 0.0
C386 C 0.53896 0.47826 0.52257 0.0
C387 C 0.56802 0.49386 0.51959 0.0
C388 C 0.59784 0.47679 0.5205 0.0
C389 C 0.5982 0.44463 0.52427 0.0
C390 C 0.50664 0.49548 0.5217 0.0
C391 C 0.62942 0.49252 0.51748 0.0
C392 C 0.56285 0.56648 0.5017 0.0
C393 C 0.56611 0.59299 0.50792 0.0
C394 C 0.56341 0.53417 0.50539 0.0
C395 C 0.56728 0.52806 0.51555 0.0
C396 C 0.57062 0.55467 0.52187 0.0
C397 C 0.57006 0.58669 0.51799 0.0
C398 C 0.55975 0.50655 0.49839 0.0
C399 C 0.5749 0.54932 0.53274 0.0
H400 H 0.51767 0.43413 0.52848 0.0
H401 H 0.62112 0.4318 0.52501 0.0
H402 H 0.50722 0.51816 0.52594 0.0
H403 H 0.50177 0.50264 0.51397 0.0
H404 H 0.48627 0.48007 0.52437 0.0
H405 H 0.65054 0.47602 0.51865 0.0
H406 H 0.62824 0.49991 0.50964 0.0
H407 H 0.63353 0.51491 0.52168 0.0
H408 H 0.55938 0.57096 0.49394 0.0
H409 H 0.57316 0.60687 0.52286 0.0
H410 H 0.53819 0.49168 0.50035 0.0
H411 H 0.58124 0.4903 0.49895 0.0
H412 H 0.55704 0.51531 0.4907 0.0
H413 H 0.55405 0.53534 0.53572 0.0
H414 H 0.57689 0.57257 0.53668 0.0
H415 H 0.59709 0.53468 0.53427 0.0
C416 C 0.88588 0.29225 0.77445 0.0
C417 C 0.90104 0.26329 0.77771 0.0
C418 C 0.85408 0.2922 0.77061 0.0
C419 C 0.8369 0.26245 0.76995 0.0
C420 C 0.852 0.23314 0.77325 0.0
C421 C 0.88378 0.23393 0.7771 0.0
C422 C 0.83884 0.32404 0.76727 0.0
C423 C 0.83467 0.20088 0.77264 0.0
C424 C 0.74449 0.26559 0.76816 0.0
C425 C 0.7389 0.26235 0.75809 0.0
C426 C 0.77614 0.2656 0.7721 0.0
C427 C 0.80308 0.26206 0.76586 0.0
C428 C 0.79767 0.25847 0.75572 0.0
C429 C 0.76573 0.25872 0.75196 0.0
C430 C 0.78075 0.26947 0.78295 0.0
C431 C 0.82566 0.25459 0.74881 0.0
H432 H 0.89881 0.31511 0.77499 0.0
H433 H 0.89539 0.21138 0.77948 0.0
H434 H 0.83197 0.32297 0.75944 0.0
H435 H 0.81626 0.32834 0.7714 0.0
H436 H 0.85538 0.34507 0.76827 0.0
H437 H 0.84969 0.18029 0.77553 0.0
H438 H 0.81174 0.20161 0.77681 0.0
H439 H 0.8281 0.19611 0.76493 0.0
H440 H 0.72403 0.26781 0.77301 0.0
H441 H 0.76183 0.25659 0.74417 0.0
H442 H 0.79585 0.29126 0.78436 0.0
H443 H 0.79388 0.24808 0.78612 0.0
H444 H 0.75733 0.27206 0.78681 0.0
H445 H 0.84158 0.27634 0.74905 0.0
H446 H 0.81741 0.25132 0.74116 0.0
H447 H 0.84063 0.23324 0.75111 0.0
C448 C 0.388 0.28323 0.76089 0.0
C449 C 0.3939 0.2591 0.75403 0.0
C450 C 0.35926 0.28333 0.76636 0.0
C451 C 0.33568 0.25873 0.76497 0.0
C452 C 0.34149 0.23427 0.75809 0.0
C453 C 0.37044 0.23474 0.75272 0.0
C454 C 0.35414 0.30979 0.77365 0.0
C455 C 0.31701 0.20764 0.75635 0.0
C456 C 0.27467 0.24125 0.7852 0.0
C457 C 0.24684 0.25779 0.78173 0.0
C458 C 0.30362 0.24135 0.77984 0.0
C459 C 0.30501 0.25847 0.77075 0.0
C460 C 0.27708 0.27525 0.7672 0.0
C461 C 0.2484 0.27471 0.77272 0.0
C462 C 0.3328 0.2232 0.78391 0.0
C463 C 0.27747 0.29375 0.75755 0.0
H464 H 0.40606 0.30194 0.76205 0.0
H465 H 0.37444 0.21627 0.74734 0.0
H466 H 0.33158 0.32348 0.77182 0.0
H467 H 0.35105 0.29881 0.78106 0.0
H468 H 0.37472 0.32722 0.77386 0.0
H469 H 0.32519 0.19033 0.75077 0.0
H470 H 0.31246 0.19383 0.76326 0.0
H471 H 0.29354 0.21846 0.75391 0.0
H472 H 0.27401 0.22857 0.79222 0.0
H473 H 0.22702 0.28726 0.7699 0.0
H474 H 0.35337 0.24028 0.78488 0.0
H475 H 0.3407 0.20456 0.77871 0.0
H476 H 0.32775 0.21093 0.79105 0.0
H477 H 0.29666 0.31268 0.75765 0.0
H478 H 0.25383 0.30569 0.75583 0.0
H479 H 0.28338 0.27697 0.7516 0.0
C480 C 0.24704 0.7335 0.2603 0.0
C481 C 0.23254 0.76303 0.25726 0.0
C482 C 0.27882 0.73254 0.26417 0.0
C483 C 0.29674 0.7618 0.265 0.0
C484 C 0.28233 0.79166 0.26189 0.0
C485 C 0.25048 0.79191 0.25808 0.0
C486 C 0.29316 0.7002 0.26744 0.0
C487 C 0.30059 0.82339 0.26257 0.0
C488 C 0.36813 0.76415 0.28296 0.0
C489 C 0.39488 0.76033 0.27681 0.0
C490 C 0.33615 0.76465 0.27923 0.0
C491 C 0.3306 0.76118 0.26909 0.0
C492 C 0.35744 0.75728 0.26284 0.0
C493 C 0.38914 0.75698 0.26676 0.0
C494 C 0.30827 0.76885 0.28616 0.0
C495 C 0.35269 0.75356 0.25199 0.0
H496 H 0.23329 0.7111 0.25983 0.0
H497 H 0.23969 0.8148 0.25565 0.0
H498 H 0.3158 0.69552 0.26338 0.0
H499 H 0.29971 0.70077 0.2753 0.0
H500 H 0.27615 0.67964 0.26628 0.0
H501 H 0.28601 0.84452 0.25984 0.0
H502 H 0.30771 0.8276 0.27027 0.0
H503 H 0.32326 0.82222 0.25829 0.0
H504 H 0.37213 0.76634 0.29075 0.0
H505 H 0.40953 0.75458 0.26189 0.0
H506 H 0.29168 0.74765 0.28578 0.0
H507 H 0.29398 0.79081 0.284 0.0
H508 H 0.3166 0.77132 0.29384 0.0
H509 H 0.33702 0.73219 0.25057 0.0
H510 H 0.37602 0.75039 0.24812 0.0
H511 H 0.34011 0.77532 0.24883 0.0
C512 C 0.56737 0.93684 0.51262 0.0
C513 C 0.57021 0.93894 0.50242 0.0
C514 C 0.56713 0.965 0.51829 0.0
C515 C 0.56981 0.99613 0.51368 0.0
C516 C 0.5724 0.99843 0.50339 0.0
C517 C 0.5725 0.96992 0.4979 0.0
C518 C 0.56435 0.96142 0.52924 0.0
C519 C 0.5752 0.03107 0.49816 0.0
C520 C 0.54216 0.07113 0.52731 0.0
C521 C 0.57167 0.08345 0.53087 0.0
C522 C 0.54117 0.04279 0.52173 0.0
C523 C 0.5704 0.02628 0.51961 0.0
C524 C 0.60027 0.03873 0.52311 0.0
C525 C 0.60054 0.06706 0.52868 0.0
C526 C 0.50879 0.03034 0.51818 0.0
C527 C 0.63202 0.02209 0.52096 0.0
H528 H 0.56591 0.9131 0.51621 0.0
H529 H 0.5741 0.97195 0.49003 0.0
H530 H 0.58624 0.97167 0.5328 0.0
H531 H 0.54312 0.97538 0.53179 0.0
H532 H 0.56167 0.9356 0.5317 0.0
H533 H 0.57684 0.02875 0.49012 0.0
H534 H 0.55386 0.04642 0.4998 0.0
H535 H 0.59707 0.04406 0.50079 0.0
H536 H 0.51967 0.08329 0.52906 0.0
H537 H 0.62351 0.07656 0.53127 0.0
H538 H 0.50464 1.00532 0.52113 0.0
H539 H 0.50872 0.02897 0.51011 0.0
H540 H 0.4883 0.04606 0.52038 0.0
H541 H 0.63159 0.99662 0.52384 0.0
H542 H 0.65316 0.03476 0.52422 0.0
H543 H 0.63549 0.02105 0.51296 0.0
C544 C 0.03749 0.94318 0.02175 0.0
C545 C 0.06382 0.93023 0.02716 0.0
C546 C 0.03794 0.97537 0.01801 0.0
C547 C 0.06539 0.99529 0.01969 0.0
C548 C 0.09199 0.98246 0.02518 0.0
C549 C 0.09087 0.95018 0.02885 0.0
C550 C 1.00897 0.98809 1.01226 0.0
C551 C 0.12176 1.0028 0.02712 0.0
C552 C 0.07915 0.06908 1.00275 0.0
C553 C 0.0676 0.09476 1.00835 0.0
C554 C 0.07858 0.03667 1.00634 0.0
C555 C 0.06616 0.02961 1.01576 0.0
C556 C 0.05434 0.05537 0.02143 0.0
C557 C 0.05516 0.08751 0.01766 0.0
C558 C 0.09146 1.00997 1.00005 0.0
C559 C 0.04075 0.04897 0.03149 0.0
H560 H 0.01629 0.92818 0.02051 0.0
H561 H 0.1115 0.94034 0.0329 0.0
H562 H 0.99874 1.0097 1.01584 0.0
H563 H 0.01657 0.99604 1.00484 0.0
H564 H 0.98954 0.96952 1.01157 0.0
H565 H 0.14036 0.9893 0.03153 0.0
H566 H 0.13276 1.01084 0.02011 0.0
H567 H 0.11488 0.02504 0.03105 0.0
H568 H 0.08917 0.07437 0.9956 0.0
H569 H 0.04567 0.10701 0.022 0.0
H570 H 0.07221 0.99164 0.99877 0.0
H571 H 0.11183 0.99721 1.00387 0.0
H572 H 0.10015 0.0194 0.99288 0.0
H573 H 0.01982 0.03206 0.03105 0.0
H574 H 0.03262 0.07165 0.03499 0.0
H575 H 0.05939 0.03702 0.03625 0.0
C576 C 0.07191 0.79039 0.16336 0.0
C577 C 0.07145 0.76042 0.1685 0.0
C578 C 0.07046 0.79191 0.1531 0.0
C579 C 0.0684 0.76276 0.1478 0.0
C580 C 0.06734 0.73246 0.15294 0.0
C581 C 0.06893 0.73165 0.16321 0.0
C582 C 0.07179 0.82472 0.14791 0.0
C583 C 0.06493 0.70083 0.1476 0.0
C584 C 0.03906 0.76872 0.12131 0.0
C585 C 0.06841 0.76854 0.11617 0.0
C586 C 0.03865 0.76652 0.13157 0.0
C587 C 0.06828 0.764 0.13687 0.0
C588 C 0.09794 0.76327 0.13173 0.0
C589 C 0.09764 0.76557 0.12147 0.0
C590 C 1.00651 0.76748 0.13676 0.0
C591 C 0.13007 0.7604 0.13707 0.0
H592 H 0.07429 0.81273 0.16735 0.0
H593 H 0.06815 0.7084 0.16711 0.0
H594 H 0.09379 0.82622 0.14331 0.0
H595 H 0.05045 0.82786 0.14298 0.0
H596 H 0.07229 0.84515 0.15308 0.0
H597 H 0.06342 0.67937 0.15266 0.0
H598 H 0.04318 0.70112 0.14276 0.0
H599 H 0.08643 0.69793 0.14288 0.0
H600 H 0.01637 0.77141 0.1173 0.0
H601 H 0.12041 0.76494 0.11758 0.0
H602 H 1.00552 0.78916 0.14143 0.0
H603 H 1.00392 0.74569 0.14163 0.0
H604 H 0.98558 0.76844 0.13159 0.0
H605 H 0.13336 0.78141 0.14192 0.0
H606 H 0.15094 0.75956 0.132 0.0
H607 H 0.13043 0.73803 0.14177 0.0
C608 C 0.59373 0.75895 0.4129 0.0
C609 C 0.56532 0.75406 0.41833 0.0
C610 C 0.59283 0.76074 0.40263 0.0
C611 C 0.56281 0.75744 0.39762 0.0
C612 C 0.534 0.75293 0.40306 0.0
C613 C 0.53559 0.75135 0.41332 0.0
C614 C 0.62408 0.76582 0.39713 0.0
C615 C 0.50151 0.74914 0.39803 0.0
C616 C 0.55446 0.78719 0.37111 0.0
C617 C 0.55692 0.75803 0.36602 0.0
C618 C 0.55669 0.78744 0.38137 0.0
C619 C 0.56158 0.75784 0.3867 0.0
C620 C 0.56463 0.72841 0.3816 0.0
C621 C 0.56225 0.72886 0.37135 0.0
C622 C 0.55322 0.81933 0.38651 0.0
C623 C 0.57007 0.69633 0.38698 0.0
H624 H 0.61675 0.76148 0.41669 0.0
H625 H 0.51357 0.74712 0.41742 0.0
H626 H 0.62865 0.74472 0.39243 0.0
H627 H 0.6221 0.78772 0.39227 0.0
H628 H 0.64528 0.76882 0.4021 0.0
H629 H 0.48125 0.7468 0.40329 0.0
H630 H 0.49668 0.77041 0.39308 0.0
H631 H 0.5018 0.72721 0.39346 0.0
H632 H 0.54994 0.80979 0.36709 0.0
H633 H 0.56465 0.70627 0.36749 0.0
H634 H 0.57467 0.82346 0.39127 0.0
H635 H 0.5316 0.81846 0.39127 0.0
H636 H 0.55065 0.84036 0.38131 0.0
H637 H 0.59231 0.69761 0.39158 0.0
H638 H 0.57258 0.67571 0.38194 0.0
H639 H 0.54944 0.69119 0.39193 0.0
C640 C 0.55082 0.28925 0.62173 0.0
C641 C 0.56839 0.26705 0.61619 0.0
C642 C 0.55194 0.28803 0.63199 0.0
C643 C 0.57121 0.2641 0.6369 0.0
C644 C 0.58868 0.24135 0.63138 0.0
C645 C 0.58705 0.24308 0.62112 0.0
C646 C 0.53298 0.31281 0.63759 0.0
C647 C 0.60944 0.21539 0.63631 0.0
C648 C 0.60048 0.28163 0.66272 0.0
C649 C 0.57876 0.26338 0.66849 0.0
C650 C 0.59832 0.28199 0.65247 0.0
C651 C 0.57389 0.26358 0.6478 0.0
C652 C 0.55195 0.24498 0.65356 0.0
C653 C 0.55464 0.24509 0.66381 0.0
C654 C 0.62229 0.30207 0.64663 0.0
C655 C 0.52549 0.22509 0.64889 0.0
H656 H 0.53672 0.3082 0.61804 0.0
H657 H 0.60038 0.22553 0.61694 0.0
H658 H 0.51667 0.30032 0.64287 0.0
H659 H 0.54991 0.32807 0.64185 0.0
H660 H 0.51813 0.329 0.63271 0.0
H661 H 0.62087 0.19902 0.631 0.0
H662 H 0.62888 0.22693 0.64069 0.0
H663 H 0.59455 0.20047 0.64143 0.0
H664 H 0.61957 0.29538 0.66622 0.0
H665 H 0.53753 0.23117 0.66818 0.0
H666 H 0.60918 0.32032 0.64197 0.0
H667 H 0.63603 0.28617 0.6417 0.0
H668 H 0.63985 0.31504 0.65135 0.0
H669 H 0.50923 0.24125 0.64446 0.0
H670 H 0.51066 0.21158 0.65437 0.0
H671 H 0.53627 0.20736 0.64387 0.0
C672 C 0.0973 0.2607 0.91359 0.0
C673 C 0.06898 0.25464 0.91897 0.0
C674 C 0.09661 0.26228 0.90332 0.0
C675 C 0.06691 0.25759 0.89826 0.0
C676 C 0.03817 0.25187 0.90364 0.0
C677 C 0.03954 0.25051 0.9139 0.0
C678 C 0.12775 0.26867 0.89789 0.0
C679 C 1.00602 0.24659 0.89854 0.0
C680 C 0.05807 0.28702 0.87174 0.0
C681 C 0.062 0.25803 0.86665 0.0
C682 C 0.05993 0.28732 0.882 0.0
C683 C 0.06594 0.25794 0.88734 0.0
C684 C 0.07042 0.22869 0.88224 0.0
C685 C 0.06837 0.22909 0.87198 0.0
C686 C 0.05491 0.31901 0.88713 0.0
C687 C 0.07708 0.19686 0.88763 0.0
H688 H 0.12008 0.26433 0.91743 0.0
H689 H 0.01761 0.24537 0.91796 0.0
H690 H 0.13331 0.2478 0.89319 0.0
H691 H 0.12498 0.29049 0.89302 0.0
H692 H 0.14869 0.27254 0.90289 0.0
H693 H 0.98575 0.24332 0.90376 0.0
H694 H 1.00035 0.26763 0.89359 0.0
H695 H 1.00742 0.22469 0.89398 0.0
H696 H 0.05273 0.30944 0.86771 0.0
H697 H 0.07187 0.20664 0.86813 0.0
H698 H 0.07604 0.3241 0.89193 0.0
H699 H 0.03324 0.31714 0.89186 0.0
H700 H 0.05149 0.33992 0.88193 0.0
H701 H 0.09913 0.19909 0.89227 0.0
H702 H 0.0806 0.17638 0.88259 0.0
H703 H 0.05657 0.19083 0.89254 0.0
loop_
_geom_bond_atom_site_label_1
_geom_bond_atom_site_label_2
_geom_bond_distance
_geom_bond_site_symmetry_2
_ccdc_geom_bond_type
C0 C1 1.264 . S
C0 C5 1.479 . S
C0 C10 1.465 . S
C1 C0 1.264 . S
C1 C3 1.339 . S
C1 H28 0.931 . S
C2 C3 1.395 . S
C2 C4 1.320 . S
C3 C1 1.339 . S
C3 C2 1.395 . S
C3 H29 0.929 . S
C4 C2 1.320 . S
C4 C5 1.405 . S
C4 H30 0.930 . S
C5 C0 1.479 . S
C5 C4 1.405 . S
C5 H31 0.931 . S
U6 O7 2.454 . S
U6 O8 2.458 . S
U6 C9 2.984 . S
U6 C10 2.847 . S
U6 C23 2.882 . S
U6 O24 2.441 . S
U6 O25 2.420 . S
U6 O26 2.455 . S
U6 O27 2.449 . S
O7 U6 2.454 . S
O7 C9 1.353 . S
O8 U6 2.458 . S
O8 C9 1.286 . S
C9 U6 2.984 . S
C9 O7 1.353 . S
C9 O8 1.286 . S
C9 C11 1.363 . S
C10 C0 1.465 . S
C10 U6 2.847 . S
C10 O24 1.249 . S
C10 O25 1.202 . S
C11 C9 1.363 . S
C11 C13 1.408 . S
C11 C16 1.342 . S
C12 C13 1.310 . S
C12 C15 1.461 . S
C12 H32 0.932 . S
C13 C11 1.408 . S
C13 C12 1.310 . S
C13 H33 0.930 . S
C14 C15 1.474 . S
C14 C16 1.285 . S
C14 H34 0.929 . S
C15 C12 1.461 . S
C15 C14 1.474 . S
C16 C11 1.342 . S
C16 C14 1.285 . S
C16 H35 0.930 . S
C17 C20 1.424 . S
C17 C22 1.245 . S
C17 C23 1.428 . S
C18 C21 1.260 . S
C18 C22 1.477 . S
C18 H36 0.932 . S
C19 C20 1.384 . S
C19 C21 1.479 . S
C19 H37 0.929 . S
C20 C17 1.424 . S
C20 C19 1.384 . S
C20 H38 0.928 . S
C21 C18 1.260 . S
C21 C19 1.479 . S
C22 C17 1.245 . S
C22 C18 1.477 . S
C22 H39 0.932 . S
C23 U6 2.882 . S
C23 C17 1.428 . S
C23 O26 1.301 . S
C23 O27 1.282 . S
O24 U6 2.441 . S
O24 C10 1.249 . S
O25 U6 2.420 . S
O25 C10 1.202 . S
O26 U6 2.455 . S
O26 C23 1.301 . S
O27 U6 2.449 . S
O27 C23 1.282 . S
H28 C1 0.931 . S
H29 C3 0.929 . S
H30 C4 0.930 . S
H31 C5 0.931 . S
H32 C12 0.932 . S
H33 C13 0.930 . S
H34 C14 0.929 . S
H35 C16 0.930 . S
H36 C18 0.932 . S
H37 C19 0.929 . S
H38 C20 0.928 . S
H39 C22 0.932 . S
C40 C41 1.264 . S
C40 C45 1.479 . S
C40 C50 1.465 . S
C41 C40 1.264 . S
C41 C43 1.339 . S
C41 H68 0.931 . S
C42 C43 1.395 . S
C42 C44 1.320 . S
C43 C41 1.339 . S
C43 C42 1.395 . S
C43 H69 0.929 . S
C44 C42 1.320 . S
C44 C45 1.405 . S
C44 H70 0.930 . S
C45 C40 1.479 . S
C45 C44 1.405 . S
C45 H71 0.931 . S
U46 O47 2.454 . S
U46 O48 2.458 . S
U46 C49 2.984 . S
U46 C50 2.847 . S
U46 C63 2.882 . S
U46 O64 2.441 . S
U46 O65 2.420 . S
U46 O66 2.455 . S
U46 O67 2.449 . S
O47 U46 2.454 . S
O47 C49 1.353 . S
O48 U46 2.458 . S
O48 C49 1.286 . S
C49 U46 2.984 . S
C49 O47 1.353 . S
C49 O48 1.286 . S
C49 C51 1.363 . S
C50 C40 1.465 . S
C50 U46 2.847 . S
C50 O64 1.249 . S
C50 O65 1.202 . S
C51 C49 1.363 . S
C51 C53 1.408 . S
C51 C56 1.342 . S
C52 C53 1.310 . S
C52 C55 1.461 . S
C52 H72 0.932 . S
C53 C51 1.408 . S
C53 C52 1.310 . S
C53 H73 0.930 . S
C54 C55 1.474 . S
C54 C56 1.285 . S
C54 H74 0.929 . S
C55 C52 1.461 . S
C55 C54 1.474 . S
C56 C51 1.342 . S
C56 C54 1.285 . S
C56 H75 0.930 . S
C57 C60 1.424 . S
C57 C62 1.245 . S
C57 C63 1.428 . S
C58 C61 1.260 . S
C58 C62 1.477 . S
C58 H76 0.932 . S
C59 C60 1.384 . S
C59 C61 1.479 . S
C59 H77 0.929 . S
C60 C57 1.424 . S
C60 C59 1.384 . S
C60 H78 0.928 . S
C61 C58 1.260 . S
C61 C59 1.479 . S
C62 C57 1.245 . S
C62 C58 1.477 . S
C62 H79 0.932 . S
C63 U46 2.882 . S
C63 C57 1.428 . S
C63 O66 1.301 . S
C63 O67 1.282 . S
O64 U46 2.441 . S
O64 C50 1.249 . S
O65 U46 2.420 . S
O65 C50 1.202 . S
O66 U46 2.455 . S
O66 C63 1.301 . S
O67 U46 2.449 . S
O67 C63 1.282 . S
H68 C41 0.931 . S
H69 C43 0.929 . S
H70 C44 0.930 . S
H71 C45 0.931 . S
H72 C52 0.932 . S
H73 C53 0.930 . S
H74 C54 0.929 . S
H75 C56 0.930 . S
H76 C58 0.932 . S
H77 C59 0.929 . S
H78 C60 0.928 . S
H79 C62 0.932 . S
C80 C81 1.264 . S
C80 C85 1.479 . S
C80 C90 1.465 . S
C81 C80 1.264 . S
C81 C83 1.339 . S
C81 H108 0.931 . S
C82 C83 1.395 . S
C82 C84 1.320 . S
C83 C81 1.339 . S
C83 C82 1.395 . S
C83 H109 0.929 . S
C84 C82 1.320 . S
C84 C85 1.405 . S
C84 H110 0.930 . S
C85 C80 1.479 . S
C85 C84 1.405 . S
C85 H111 0.931 . S
U86 O87 2.454 . S
U86 O88 2.458 . S
U86 C89 2.984 . S
U86 C90 2.847 . S
U86 C103 2.882 . S
U86 O104 2.441 . S
U86 O105 2.420 . S
U86 O106 2.455 . S
U86 O107 2.449 . S
O87 U86 2.454 . S
O87 C89 1.353 . S
O88 U86 2.458 . S
O88 C89 1.286 . S
C89 U86 2.984 . S
C89 O87 1.353 . S
C89 O88 1.286 . S
C89 C91 1.363 . S
C90 C80 1.465 . S
C90 U86 2.847 . S
C90 O104 1.249 . S
C90 O105 1.202 . S
C91 C89 1.363 . S
C91 C93 1.408 . S
C91 C96 1.342 . S
C92 C93 1.310 . S
C92 C95 1.461 . S
C92 H112 0.932 . S
C93 C91 1.408 . S
C93 C92 1.310 . S
C93 H113 0.930 . S
C94 C95 1.474 . S
C94 C96 1.285 . S
C94 H114 0.929 . S
C95 C92 1.461 . S
C95 C94 1.474 . S
C96 C91 1.342 . S
C96 C94 1.285 . S
C96 H115 0.930 . S
C97 C100 1.424 . S
C97 C102 1.245 . S
C97 C103 1.428 . S
C98 C101 1.260 . S
C98 C102 1.477 . S
C98 H116 0.932 . S
C99 C100 1.384 . S
C99 C101 1.479 . S
C99 H117 0.929 . S
C100 C97 1.424 . S
C100 C99 1.384 . S
C100 H118 0.928 . S
C101 C98 1.260 . S
C101 C99 1.479 . S
C102 C97 1.245 . S
C102 C98 1.477 . S
C102 H119 0.932 . S
C103 U86 2.882 . S
C103 C97 1.428 . S
C103 O106 1.301 . S
C103 O107 1.282 . S
O104 U86 2.441 . S
O104 C90 1.249 . S
O105 U86 2.420 . S
O105 C90 1.202 . S
O106 U86 2.455 . S
O106 C103 1.301 . S
O107 U86 2.449 . S
O107 C103 1.282 . S
H108 C81 0.931 . S
H109 C83 0.929 . S
H110 C84 0.930 . S
H111 C85 0.931 . S
H112 C92 0.932 . S
H113 C93 0.930 . S
H114 C94 0.929 . S
H115 C96 0.930 . S
H116 C98 0.932 . S
H117 C99 0.929 . S
H118 C100 0.928 . S
H119 C102 0.932 . S
C120 C121 1.264 . S
C120 C125 1.479 . S
C120 C130 1.465 1_655 S
C121 C120 1.264 . S
C121 C123 1.339 . S
C121 H148 0.931 . S
C122 C123 1.395 . S
C122 C124 1.320 . S
C123 C121 1.339 . S
C123 C122 1.395 . S
C123 H149 0.929 . S
C124 C122 1.320 . S
C124 C125 1.405 . S
C124 H150 0.930 . S
C125 C120 1.479 . S
C125 C124 1.405 . S
C125 H151 0.931 . S
U126 O127 2.454 . S
U126 O128 2.458 . S
U126 C129 2.984 . S
U126 C130 2.847 . S
U126 C143 2.882 . S
U126 O144 2.441 . S
U126 O145 2.420 . S
U126 O146 2.455 . S
U126 O147 2.449 . S
O127 U126 2.454 . S
O127 C129 1.353 . S
O128 U126 2.458 . S
O128 C129 1.286 . S
C129 U126 2.984 . S
C129 O127 1.353 . S
C129 O128 1.286 . S
C129 C131 1.363 . S
C130 C120 1.465 1_455 S
C130 U126 2.847 . S
C130 O144 1.249 . S
C130 O145 1.202 . S
C131 C129 1.363 . S
C131 C133 1.408 . S
C131 C136 1.342 . S
C132 C133 1.310 . S
C132 C135 1.461 . S
C132 H152 0.932 . S
C133 C131 1.408 . S
C133 C132 1.310 . S
C133 H153 0.930 . S
C134 C135 1.474 . S
C134 C136 1.285 . S
C134 H154 0.929 . S
C135 C132 1.461 . S
C135 C134 1.474 . S
C136 C131 1.342 . S
C136 C134 1.285 . S
C136 H155 0.930 . S
C137 C140 1.424 . S
C137 C142 1.245 . S
C137 C143 1.428 . S
C138 C141 1.260 . S
C138 C142 1.477 . S
C138 H156 0.932 . S
C139 C140 1.384 . S
C139 C141 1.479 . S
C139 H157 0.929 . S
C140 C137 1.424 . S
C140 C139 1.384 . S
C140 H158 0.928 . S
C141 C138 1.260 . S
C141 C139 1.479 . S
C142 C137 1.245 . S
C142 C138 1.477 . S
C142 H159 0.932 . S
C143 U126 2.882 . S
C143 C137 1.428 . S
C143 O146 1.301 . S
C143 O147 1.282 . S
O144 U126 2.441 . S
O144 C130 1.249 . S
O145 U126 2.420 . S
O145 C130 1.202 . S
O146 U126 2.455 . S
O146 C143 1.301 . S
O147 U126 2.449 . S
O147 C143 1.282 . S
H148 C121 0.931 . S
H149 C123 0.929 . S
H150 C124 0.930 . S
H151 C125 0.931 . S
H152 C132 0.932 . S
H153 C133 0.930 . S
H154 C134 0.929 . S
H155 C136 0.930 . S
H156 C138 0.932 . S
H157 C139 0.929 . S
H158 C140 0.928 . S
H159 C142 0.932 . S
C160 C161 1.264 . S
C160 C165 1.479 . S
C160 C170 1.465 . S
C161 C160 1.264 . S
C161 C163 1.339 . S
C161 H188 0.931 . S
C162 C163 1.395 . S
C162 C164 1.320 . S
C163 C161 1.339 . S
C163 C162 1.395 . S
C163 H189 0.929 . S
C164 C162 1.320 . S
C164 C165 1.405 . S
C164 H190 0.930 . S
C165 C160 1.479 . S
C165 C164 1.405 . S
C165 H191 0.931 . S
U166 O167 2.454 . S
U166 O168 2.458 . S
U166 C169 2.984 . S
U166 C170 2.847 . S
U166 C183 2.882 . S
U166 O184 2.441 . S
U166 O185 2.420 . S
U166 O186 2.455 . S
U166 O187 2.449 . S
O167 U166 2.454 . S
O167 C169 1.353 . S
O168 U166 2.458 . S
O168 C169 1.286 . S
C169 U166 2.984 . S
C169 O167 1.353 . S
C169 O168 1.286 . S
C169 C171 1.363 . S
C170 C160 1.465 . S
C170 U166 2.847 . S
C170 O184 1.249 . S
C170 O185 1.202 . S
C171 C169 1.363 . S
C171 C173 1.408 . S
C171 C176 1.342 . S
C172 C173 1.310 . S
C172 C175 1.461 . S
C172 H192 0.932 . S
C173 C171 1.408 . S
C173 C172 1.310 . S
C173 H193 0.930 . S
C174 C175 1.474 . S
C174 C176 1.285 . S
C174 H194 0.929 . S
C175 C172 1.461 . S
C175 C174 1.474 . S
C176 C171 1.342 . S
C176 C174 1.285 . S
C176 H195 0.930 . S
C177 C180 1.424 . S
C177 C182 1.245 . S
C177 C183 1.428 . S
C178 C181 1.260 . S
C178 C182 1.477 . S
C178 H196 0.932 . S
C179 C180 1.384 . S
C179 C181 1.479 . S
C179 H197 0.929 . S
C180 C177 1.424 . S
C180 C179 1.384 . S
C180 H198 0.928 . S
C181 C178 1.260 . S
C181 C179 1.479 . S
C182 C177 1.245 . S
C182 C178 1.477 . S
C182 H199 0.932 . S
C183 U166 2.882 . S
C183 C177 1.428 . S
C183 O186 1.301 . S
C183 O187 1.282 . S
O184 U166 2.441 . S
O184 C170 1.249 . S
O185 U166 2.420 . S
O185 C170 1.202 . S
O186 U166 2.455 . S
O186 C183 1.301 . S
O187 U166 2.449 . S
O187 C183 1.282 . S
H188 C161 0.931 . S
H189 C163 0.929 . S
H190 C164 0.930 . S
H191 C165 0.931 . S
H192 C172 0.932 . S
H193 C173 0.930 . S
H194 C174 0.929 . S
H195 C176 0.930 . S
H196 C178 0.932 . S
H197 C179 0.929 . S
H198 C180 0.928 . S
H199 C182 0.932 . S
C200 C201 1.264 . S
C200 C205 1.479 . S
C200 C210 1.465 . S
C201 C200 1.264 . S
C201 C203 1.339 . S
C201 H228 0.931 . S
C202 C203 1.395 . S
C202 C204 1.320 . S
C203 C201 1.339 . S
C203 C202 1.395 . S
C203 H229 0.929 . S
C204 C202 1.320 . S
C204 C205 1.405 . S
C204 H230 0.930 . S
C205 C200 1.479 . S
C205 C204 1.405 . S
C205 H231 0.931 . S
U206 O207 2.454 . S
U206 O208 2.458 1_455 S
U206 C209 2.984 1_455 S
U206 C210 2.847 . S
U206 C223 2.882 . S
U206 O224 2.441 . S
U206 O225 2.420 . S
U206 O226 2.455 . S
U206 O227 2.449 . S
O207 U206 2.454 . S
O207 C209 1.353 1_455 S
O208 U206 2.458 1_655 S
O208 C209 1.286 . S
C209 U206 2.984 1_655 S
C209 O207 1.353 1_655 S
C209 O208 1.286 . S
C209 C211 1.363 . S
C210 C200 1.465 . S
C210 U206 2.847 . S
C210 O224 1.249 . S
C210 O225 1.202 . S
C211 C209 1.363 . S
C211 C213 1.408 . S
C211 C216 1.342 . S
C212 C213 1.310 . S
C212 C215 1.461 . S
C212 H232 0.932 . S
C213 C211 1.408 . S
C213 C212 1.310 . S
C213 H233 0.930 . S
C214 C215 1.474 . S
C214 C216 1.285 . S
C214 H234 0.929 . S
C215 C212 1.461 . S
C215 C214 1.474 . S
C216 C211 1.342 . S
C216 C214 1.285 . S
C216 H235 0.930 . S
C217 C220 1.424 . S
C217 C222 1.245 . S
C217 C223 1.428 . S
C218 C221 1.260 . S
C218 C222 1.477 . S
C218 H236 0.932 . S
C219 C220 1.384 . S
C219 C221 1.479 . S
C219 H237 0.929 . S
C220 C217 1.424 . S
C220 C219 1.384 . S
C220 H238 0.928 . S
C221 C218 1.260 . S
C221 C219 1.479 . S
C222 C217 1.245 . S
C222 C218 1.477 . S
C222 H239 0.934 1_455 S
C223 U206 2.882 . S
C223 C217 1.428 . S
C223 O226 1.301 . S
C223 O227 1.282 . S
O224 U206 2.441 . S
O224 C210 1.249 . S
O225 U206 2.420 . S
O225 C210 1.202 . S
O226 U206 2.455 . S
O226 C223 1.301 . S
O227 U206 2.449 . S
O227 C223 1.282 . S
H228 C201 0.931 . S
H229 C203 0.929 . S
H230 C204 0.930 . S
H231 C205 0.931 . S
H232 C212 0.932 . S
H233 C213 0.930 . S
H234 C214 0.929 . S
H235 C216 0.930 . S
H236 C218 0.932 . S
H237 C219 0.929 . S
H238 C220 0.928 . S
H239 C222 0.934 1_655 S
C240 C241 1.264 . S
C240 C245 1.479 . S
C240 C250 1.465 . S
C241 C240 1.264 . S
C241 C243 1.339 . S
C241 H268 0.931 . S
C242 C243 1.395 . S
C242 C244 1.320 . S
C243 C241 1.339 . S
C243 C242 1.395 . S
C243 H269 0.929 . S
C244 C242 1.320 . S
C244 C245 1.405 . S
C244 H270 0.930 . S
C245 C240 1.479 . S
C245 C244 1.405 . S
C245 H271 0.931 . S
U246 O247 2.454 . S
U246 O248 2.458 . S
U246 C249 2.984 . S
U246 C250 2.847 . S
U246 C263 2.882 . S
U246 O264 2.441 . S
U246 O265 2.420 . S
U246 O266 2.455 . S
U246 O267 2.449 . S
O247 U246 2.454 . S
O247 C249 1.353 . S
O248 U246 2.458 . S
O248 C249 1.286 . S
C249 U246 2.984 . S
C249 O247 1.353 . S
C249 O248 1.286 . S
C249 C251 1.363 . S
C250 C240 1.465 . S
C250 U246 2.847 . S
C250 O264 1.249 . S
C250 O265 1.202 . S
C251 C249 1.363 . S
C251 C253 1.408 . S
C251 C256 1.342 . S
C252 C253 1.310 . S
C252 C255 1.461 . S
C252 H272 0.932 . S
C253 C251 1.408 . S
C253 C252 1.310 . S
C253 H273 0.930 . S
C254 C255 1.474 . S
C254 C256 1.285 . S
C254 H274 0.929 . S
C255 C252 1.461 . S
C255 C254 1.474 . S
C256 C251 1.342 . S
C256 C254 1.285 . S
C256 H275 0.930 . S
C257 C260 1.424 . S
C257 C262 1.245 . S
C257 C263 1.428 . S
C258 C261 1.260 . S
C258 C262 1.477 . S
C258 H276 0.932 . S
C259 C260 1.384 . S
C259 C261 1.479 . S
C259 H277 0.929 . S
C260 C257 1.424 . S
C260 C259 1.384 . S
C260 H278 0.928 . S
C261 C258 1.260 . S
C261 C259 1.479 . S
C262 C257 1.245 . S
C262 C258 1.477 . S
C262 H279 0.932 . S
C263 U246 2.882 . S
C263 C257 1.428 . S
C263 O266 1.301 . S
C263 O267 1.282 . S
O264 U246 2.441 . S
O264 C250 1.249 . S
O265 U246 2.420 . S
O265 C250 1.202 . S
O266 U246 2.455 . S
O266 C263 1.301 . S
O267 U246 2.449 . S
O267 C263 1.282 . S
H268 C241 0.931 . S
H269 C243 0.929 . S
H270 C244 0.930 . S
H271 C245 0.931 . S
H272 C252 0.932 . S
H273 C253 0.930 . S
H274 C254 0.929 . S
H275 C256 0.930 . S
H276 C258 0.932 . S
H277 C259 0.929 . S
H278 C260 0.928 . S
H279 C262 0.932 . S
C280 C281 1.264 . S
C280 C285 1.479 . S
C280 C290 1.465 . S
C281 C280 1.264 . S
C281 C283 1.339 . S
C281 H308 0.931 . S
C282 C283 1.395 . S
C282 C284 1.320 . S
C283 C281 1.339 . S
C283 C282 1.395 . S
C283 H309 0.929 . S
C284 C282 1.320 . S
C284 C285 1.405 . S
C284 H310 0.930 . S
C285 C280 1.479 . S
C285 C284 1.405 . S
C285 H311 0.931 . S
U286 O287 2.454 . S
U286 O288 2.458 . S
U286 C289 2.984 . S
U286 C290 2.847 . S
U286 C303 2.882 . S
U286 O304 2.441 . S
U286 O305 2.420 . S
U286 O306 2.455 . S
U286 O307 2.449 . S
O287 U286 2.454 . S
O287 C289 1.353 . S
O288 U286 2.458 . S
O288 C289 1.286 . S
C289 U286 2.984 . S
C289 O287 1.353 . S
C289 O288 1.286 . S
C289 C291 1.363 . S
C290 C280 1.465 . S
C290 U286 2.847 . S
C290 O304 1.249 . S
C290 O305 1.202 . S
C291 C289 1.363 . S
C291 C293 1.408 . S
C291 C296 1.342 . S
C292 C293 1.310 . S
C292 C295 1.461 . S
C292 H312 0.932 . S
C293 C291 1.408 . S
C293 C292 1.310 . S
C293 H313 0.930 . S
C294 C295 1.474 . S
C294 C296 1.285 . S
C294 H314 0.929 . S
C295 C292 1.461 . S
C295 C294 1.474 . S
C296 C291 1.342 . S
C296 C294 1.285 . S
C296 H315 0.930 . S
C297 C300 1.424 . S
C297 C302 1.245 . S
C297 C303 1.428 . S
C298 C301 1.260 . S
C298 C302 1.477 . S
C298 H316 0.932 . S
C299 C300 1.384 . S
C299 C301 1.479 . S
C299 H317 0.929 . S
C300 C297 1.424 . S
C300 C299 1.384 . S
C300 H318 0.928 . S
C301 C298 1.260 . S
C301 C299 1.479 . S
C302 C297 1.245 . S
C302 C298 1.477 . S
C302 H319 0.932 . S
C303 U286 2.882 . S
C303 C297 1.428 . S
C303 O306 1.301 . S
C303 O307 1.282 . S
O304 U286 2.441 . S
O304 C290 1.249 . S
O305 U286 2.420 . S
O305 C290 1.202 . S
O306 U286 2.455 . S
O306 C303 1.301 . S
O307 U286 2.449 . S
O307 C303 1.282 . S
H308 C281 0.931 . S
H309 C283 0.929 . S
H310 C284 0.930 . S
H311 C285 0.931 . S
H312 C292 0.932 . S
H313 C293 0.930 . S
H314 C294 0.929 . S
H315 C296 0.930 . S
H316 C298 0.932 . S
H317 C299 0.929 . S
H318 C300 0.928 . S
H319 C302 0.932 . S
C320 C321 1.391 . S
C320 C322 1.394 1_556 S
C320 H336 0.931 . S
C321 C320 1.391 . S
C321 C325 1.376 . S
C322 C320 1.394 1_554 S
C322 C323 1.348 1_554 S
C322 C326 1.531 . S
C323 C322 1.348 1_556 S
C323 C324 1.507 . S
C323 C331 1.449 1_556 S
C324 C323 1.507 . S
C324 C325 1.392 . S
C324 C327 1.511 . S
C325 C321 1.376 . S
C325 C324 1.392 . S
C325 H337 0.929 . S
C326 C322 1.531 . S
C326 H338 0.960 . S
C326 H339 0.962 1_455 S
C326 H340 0.960 . S
C327 C324 1.511 . S
C327 H341 0.961 . S
C327 H342 0.961 . S
C327 H343 0.961 . S
C328 C329 1.370 . S
C328 C330 1.363 1_554 S
C328 H344 0.931 . S
C329 C328 1.370 . S
C329 C333 1.408 . S
C330 C328 1.363 1_556 S
C330 C331 1.370 1_556 S
C330 C334 1.524 . S
C331 C323 1.449 1_554 S
C331 C330 1.370 1_554 S
C331 C332 1.403 . S
C332 C331 1.403 . S
C332 C333 1.404 . S
C332 C335 1.539 . S
C333 C329 1.408 . S
C333 C332 1.404 . S
C333 H345 0.930 . S
C334 C330 1.524 . S
C334 H346 0.956 . S
C334 H347 0.961 . S
C334 H348 0.961 . S
C335 C332 1.539 . S
C335 H349 0.958 . S
C335 H350 0.961 . S
C335 H351 0.960 . S
H336 C320 0.931 . S
H337 C325 0.929 . S
H338 C326 0.960 . S
H339 C326 0.962 1_655 S
H340 C326 0.960 . S
H341 C327 0.961 . S
H342 C327 0.961 . S
H343 C327 0.961 . S
H344 C328 0.931 . S
H345 C333 0.930 . S
H346 C334 0.956 . S
H347 C334 0.961 . S
H348 C334 0.961 . S
H349 C335 0.958 . S
H350 C335 0.961 . S
H351 C335 0.960 . S
C352 C353 1.391 . S
C352 C354 1.394 . S
C352 H368 0.931 . S
C353 C352 1.391 . S
C353 C357 1.376 . S
C354 C352 1.394 . S
C354 C355 1.369 . S
C354 C358 1.531 . S
C355 C354 1.369 . S
C355 C356 1.410 . S
C355 C363 1.503 . S
C356 C355 1.410 . S
C356 C357 1.392 . S
C356 C359 1.511 . S
C357 C353 1.376 . S
C357 C356 1.392 . S
C357 H369 0.929 . S
C358 C354 1.531 . S
C358 H370 0.960 . S
C358 H371 0.962 . S
C358 H372 0.960 . S
C359 C356 1.511 . S
C359 H373 0.961 . S
C359 H374 0.961 . S
C359 H375 0.961 . S
C360 C361 1.370 . S
C360 C362 1.363 . S
C360 H376 0.931 . S
C361 C360 1.370 . S
C361 C365 1.408 . S
C362 C360 1.363 . S
C362 C363 1.370 . S
C362 C366 1.524 . S
C363 C355 1.503 . S
C363 C362 1.370 . S
C363 C364 1.403 . S
C364 C363 1.403 . S
C364 C365 1.404 . S
C364 C367 1.539 . S
C365 C361 1.408 . S
C365 C364 1.404 . S
C365 H377 0.930 . S
C366 C362 1.524 . S
C366 H378 0.956 . S
C366 H379 0.961 . S
C366 H380 0.961 . S
C367 C364 1.539 . S
C367 H381 0.958 . S
C367 H382 0.961 . S
C367 H383 0.960 . S
H368 C352 0.931 . S
H369 C357 0.929 . S
H370 C358 0.960 . S
H371 C358 0.962 . S
H372 C358 0.960 . S
H373 C359 0.961 . S
H374 C359 0.961 . S
H375 C359 0.961 . S
H376 C360 0.931 . S
H377 C365 0.930 . S
H378 C366 0.956 . S
H379 C366 0.961 . S
H380 C366 0.961 . S
H381 C367 0.958 . S
H382 C367 0.961 . S
H383 C367 0.960 . S
C384 C385 1.391 . S
C384 C386 1.394 . S
C384 H400 0.931 . S
C385 C384 1.391 . S
C385 C389 1.376 . S
C386 C384 1.394 . S
C386 C387 1.369 . S
C386 C390 1.531 . S
C387 C386 1.369 . S
C387 C388 1.410 . S
C387 C395 1.503 . S
C388 C387 1.410 . S
C388 C389 1.392 . S
C388 C391 1.511 . S
C389 C385 1.376 . S
C389 C388 1.392 . S
C389 H401 0.929 . S
C390 C386 1.531 . S
C390 H402 0.960 . S
C390 H403 0.962 . S
C390 H404 0.960 . S
C391 C388 1.511 . S
C391 H405 0.961 . S
C391 H406 0.961 . S
C391 H407 0.961 . S
C392 C393 1.370 . S
C392 C394 1.363 . S
C392 H408 0.931 . S
C393 C392 1.370 . S
C393 C397 1.408 . S
C394 C392 1.363 . S
C394 C395 1.370 . S
C394 C398 1.524 . S
C395 C387 1.503 . S
C395 C394 1.370 . S
C395 C396 1.403 . S
C396 C395 1.403 . S
C396 C397 1.404 . S
C396 C399 1.539 . S
C397 C393 1.408 . S
C397 C396 1.404 . S
C397 H409 0.930 . S
C398 C394 1.524 . S
C398 H410 0.956 . S
C398 H411 0.961 . S
C398 H412 0.961 . S
C399 C396 1.539 . S
C399 H413 0.958 . S
C399 H414 0.961 . S
C399 H415 0.960 . S
H400 C384 0.931 . S
H401 C389 0.929 . S
H402 C390 0.960 . S
H403 C390 0.962 . S
H404 C390 0.960 . S
H405 C391 0.961 . S
H406 C391 0.961 . S
H407 C391 0.961 . S
H408 C392 0.931 . S
H409 C397 0.930 . S
H410 C398 0.956 . S
H411 C398 0.961 . S
H412 C398 0.961 . S
H413 C399 0.958 . S
H414 C399 0.961 . S
H415 C399 0.960 . S
C416 C417 1.391 . S
C416 C418 1.394 . S
C416 H432 0.931 . S
C417 C416 1.391 . S
C417 C421 1.376 . S
C418 C416 1.394 . S
C418 C419 1.369 . S
C418 C422 1.531 . S
C419 C418 1.369 . S
C419 C420 1.410 . S
C419 C427 1.503 . S
C420 C419 1.410 . S
C420 C421 1.392 . S
C420 C423 1.511 . S
C421 C417 1.376 . S
C421 C420 1.392 . S
C421 H433 0.929 . S
C422 C418 1.531 . S
C422 H434 0.960 . S
C422 H435 0.962 . S
C422 H436 0.960 . S
C423 C420 1.511 . S
C423 H437 0.961 . S
C423 H438 0.961 . S
C423 H439 0.961 . S
C424 C425 1.370 . S
C424 C426 1.363 . S
C424 H440 0.931 . S
C425 C424 1.370 . S
C425 C429 1.408 . S
C426 C424 1.363 . S
C426 C427 1.370 . S
C426 C430 1.524 . S
C427 C419 1.503 . S
C427 C426 1.370 . S
C427 C428 1.403 . S
C428 C427 1.403 . S
C428 C429 1.404 . S
C428 C431 1.539 . S
C429 C425 1.408 . S
C429 C428 1.404 . S
C429 H441 0.930 . S
C430 C426 1.524 . S
C430 H442 0.956 . S
C430 H443 0.961 . S
C430 H444 0.961 . S
C431 C428 1.539 . S
C431 H445 0.958 . S
C431 H446 0.961 . S
C431 H447 0.960 . S
H432 C416 0.931 . S
H433 C421 0.929 . S
H434 C422 0.960 . S
H435 C422 0.962 . S
H436 C422 0.960 . S
H437 C423 0.961 . S
H438 C423 0.961 . S
H439 C423 0.961 . S
H440 C424 0.931 . S
H441 C429 0.930 . S
H442 C430 0.956 . S
H443 C430 0.961 . S
H444 C430 0.961 . S
H445 C431 0.958 . S
H446 C431 0.961 . S
H447 C431 0.960 . S
C448 C449 1.391 . S
C448 C450 1.394 . S
C448 H464 0.931 . S
C449 C448 1.391 . S
C449 C453 1.376 . S
C450 C448 1.394 . S
C450 C451 1.369 . S
C450 C454 1.531 . S
C451 C450 1.369 . S
C451 C452 1.410 . S
C451 C459 1.503 . S
C452 C451 1.410 . S
C452 C453 1.392 . S
C452 C455 1.511 . S
C453 C449 1.376 . S
C453 C452 1.392 . S
C453 H465 0.929 . S
C454 C450 1.531 . S
C454 H466 0.960 . S
C454 H467 0.962 . S
C454 H468 0.960 . S
C455 C452 1.511 . S
C455 H469 0.961 . S
C455 H470 0.961 . S
C455 H471 0.961 . S
C456 C457 1.370 . S
C456 C458 1.363 . S
C456 H472 0.931 . S
C457 C456 1.370 . S
C457 C461 1.408 . S
C458 C456 1.363 . S
C458 C459 1.370 . S
C458 C462 1.524 . S
C459 C451 1.503 . S
C459 C458 1.370 . S
C459 C460 1.403 . S
C460 C459 1.403 . S
C460 C461 1.404 . S
C460 C463 1.539 . S
C461 C457 1.408 . S
C461 C460 1.404 . S
C461 H473 0.930 . S
C462 C458 1.524 . S
C462 H474 0.956 . S
C462 H475 0.961 . S
C462 H476 0.961 . S
C463 C460 1.539 . S
C463 H477 0.958 . S
C463 H478 0.961 . S
C463 H479 0.960 . S
H464 C448 0.931 . S
H465 C453 0.929 . S
H466 C454 0.960 . S
H467 C454 0.962 . S
H468 C454 0.960 . S
H469 C455 0.961 . S
H470 C455 0.961 . S
H471 C455 0.961 . S
H472 C456 0.931 . S
H473 C461 0.930 . S
H474 C462 0.956 . S
H475 C462 0.961 . S
H476 C462 0.961 . S
H477 C463 0.958 . S
H478 C463 0.961 . S
H479 C463 0.960 . S
C480 C481 1.391 . S
C480 C482 1.394 . S
C480 H496 0.931 . S
C481 C480 1.391 . S
C481 C485 1.376 . S
C482 C480 1.394 . S
C482 C483 1.369 . S
C482 C486 1.531 . S
C483 C482 1.369 . S
C483 C484 1.410 . S
C483 C491 1.503 . S
C484 C483 1.410 . S
C484 C485 1.392 . S
C484 C487 1.511 . S
C485 C481 1.376 . S
C485 C484 1.392 . S
C485 H497 0.929 . S
C486 C482 1.531 . S
C486 H498 0.960 . S
C486 H499 0.962 . S
C486 H500 0.960 . S
C487 C484 1.511 . S
C487 H501 0.961 . S
C487 H502 0.961 . S
C487 H503 0.961 . S
C488 C489 1.370 . S
C488 C490 1.363 . S
C488 H504 0.931 . S
C489 C488 1.370 . S
C489 C493 1.408 . S
C490 C488 1.363 . S
C490 C491 1.370 . S
C490 C494 1.524 . S
C491 C483 1.503 . S
C491 C490 1.370 . S
C491 C492 1.403 . S
C492 C491 1.403 . S
C492 C493 1.404 . S
C492 C495 1.539 . S
C493 C489 1.408 . S
C493 C492 1.404 . S
C493 H505 0.930 . S
C494 C490 1.524 . S
C494 H506 0.956 . S
C494 H507 0.961 . S
C494 H508 0.961 . S
C495 C492 1.539 . S
C495 H509 0.958 . S
C495 H510 0.961 . S
C495 H511 0.960 . S
H496 C480 0.931 . S
H497 C485 0.929 . S
H498 C486 0.960 . S
H499 C486 0.962 . S
H500 C486 0.960 . S
H501 C487 0.961 . S
H502 C487 0.961 . S
H503 C487 0.961 . S
H504 C488 0.931 . S
H505 C493 0.930 . S
H506 C494 0.956 . S
H507 C494 0.961 . S
H508 C494 0.961 . S
H509 C495 0.958 . S
H510 C495 0.961 . S
H511 C495 0.960 . S
C512 C513 1.391 . S
C512 C514 1.394 . S
C512 H528 0.931 . S
C513 C512 1.391 . S
C513 C517 1.376 . S
C514 C512 1.394 . S
C514 C515 1.369 . S
C514 C518 1.531 . S
C515 C514 1.369 . S
C515 C516 1.410 . S
C515 C523 1.503 1_565 S
C516 C515 1.410 . S
C516 C517 1.392 . S
C516 C519 1.511 1_565 S
C517 C513 1.376 . S
C517 C516 1.392 . S
C517 H529 0.929 . S
C518 C514 1.531 . S
C518 H530 0.960 . S
C518 H531 0.962 . S
C518 H532 0.960 . S
C519 C516 1.511 1_545 S
C519 H533 0.961 . S
C519 H534 0.961 . S
C519 H535 0.961 . S
C520 C521 1.370 . S
C520 C522 1.363 . S
C520 H536 0.931 . S
C521 C520 1.370 . S
C521 C525 1.408 . S
C522 C520 1.363 . S
C522 C523 1.370 . S
C522 C526 1.524 . S
C523 C515 1.503 1_545 S
C523 C522 1.370 . S
C523 C524 1.403 . S
C524 C523 1.403 . S
C524 C525 1.404 . S
C524 C527 1.539 . S
C525 C521 1.408 . S
C525 C524 1.404 . S
C525 H537 0.930 . S
C526 C522 1.524 . S
C526 H538 0.956 1_545 S
C526 H539 0.961 . S
C526 H540 0.961 . S
C527 C524 1.539 . S
C527 H541 0.977 . S
C527 H542 0.961 . S
C527 H543 0.960 . S
H528 C512 0.931 . S
H529 C517 0.929 . S
H530 C518 0.960 . S
H531 C518 0.962 . S
H532 C518 0.960 . S
H533 C519 0.961 . S
H534 C519 0.961 . S
H535 C519 0.961 . S
H536 C520 0.931 . S
H537 C525 0.930 . S
H538 C526 0.956 1_565 S
H539 C526 0.961 . S
H540 C526 0.961 . S
H541 C527 0.977 . S
H542 C527 0.961 . S
H543 C527 0.960 . S
C544 C545 1.391 . S
C544 C546 1.425 . S
C544 H560 0.931 . S
C545 C544 1.391 . S
C545 C549 1.376 . S
C546 C544 1.425 . S
C546 C547 1.395 . S
C546 C550 1.477 1_554 S
C547 C546 1.395 . S
C547 C548 1.410 . S
C547 C555 1.503 1_564 S
C548 C547 1.410 . S
C548 C549 1.392 . S
C548 C551 1.511 1_565 S
C549 C545 1.376 . S
C549 C548 1.392 . S
C549 H561 0.929 . S
C550 C546 1.477 1_556 S
C550 H562 0.960 . S
C550 H563 0.962 . S
C550 H564 0.960 1_455 S
C551 C548 1.511 1_545 S
C551 H565 0.961 1_545 S
C551 H566 0.961 . S
C551 H567 0.961 . S
C552 C553 1.370 . S
C552 C554 1.363 . S
C552 H568 0.931 . S
C553 C552 1.370 . S
C553 C557 1.408 . S
C554 C552 1.363 . S
C554 C555 1.370 . S
C554 C558 1.524 1_545 S
C555 C547 1.503 1_546 S
C555 C554 1.370 . S
C555 C556 1.391 1_556 S
C556 C555 1.391 1_554 S
C556 C557 1.380 1_554 S
C556 C559 1.578 . S
C557 C553 1.408 . S
C557 C556 1.380 1_556 S
C557 H569 0.930 . S
C558 C554 1.524 1_565 S
C558 H570 0.956 . S
C558 H571 0.961 . S
C558 H572 0.961 1_565 S
C559 C556 1.578 . S
C559 H573 0.958 1_455 S
C559 H574 0.961 . S
C559 H575 0.960 . S
H560 C544 0.931 . S
H561 C549 0.929 . S
H562 C550 0.960 . S
H563 C550 0.962 . S
H564 C550 0.960 1_655 S
H565 C551 0.961 1_565 S
H566 C551 0.961 . S
H567 C551 0.961 . S
H568 C552 0.931 . S
H569 C557 0.930 . S
H570 C558 0.956 . S
H571 C558 0.961 . S
H572 C558 0.961 1_545 S
H573 C559 0.958 1_655 S
H574 C559 0.961 . S
H575 C559 0.960 . S
C576 C577 1.391 . S
C576 C578 1.394 . S
C576 H592 0.931 . S
C577 C576 1.391 . S
C577 C581 1.376 . S
C578 C576 1.394 . S
C578 C579 1.369 . S
C578 C582 1.531 . S
C579 C578 1.369 . S
C579 C580 1.410 . S
C579 C587 1.503 . S
C580 C579 1.410 . S
C580 C581 1.392 . S
C580 C583 1.511 . S
C581 C577 1.376 . S
C581 C580 1.392 . S
C581 H593 0.929 . S
C582 C578 1.531 . S
C582 H594 0.960 . S
C582 H595 0.962 1_455 S
C582 H596 0.960 . S
C583 C580 1.511 . S
C583 H597 0.961 . S
C583 H598 0.961 . S
C583 H599 0.961 . S
C584 C585 1.370 . S
C584 C586 1.363 . S
C584 H600 0.931 . S
C585 C584 1.370 . S
C585 C589 1.408 . S
C586 C584 1.363 . S
C586 C587 1.370 . S
C586 C590 1.524 . S
C587 C579 1.503 . S
C587 C586 1.370 . S
C587 C588 1.403 . S
C588 C587 1.403 . S
C588 C589 1.404 . S
C588 C591 1.539 . S
C589 C585 1.408 . S
C589 C588 1.404 . S
C589 H601 0.930 . S
C590 C586 1.524 . S
C590 H602 0.956 1_455 S
C590 H603 0.961 . S
C590 H604 0.961 1_455 S
C591 C588 1.539 . S
C591 H605 0.958 . S
C591 H606 0.961 . S
C591 H607 0.960 . S
H592 C576 0.931 . S
H593 C581 0.929 . S
H594 C582 0.960 . S
H595 C582 0.962 1_655 S
H596 C582 0.960 . S
H597 C583 0.961 . S
H598 C583 0.961 . S
H599 C583 0.961 . S
H600 C584 0.931 . S
H601 C589 0.930 . S
H602 C590 0.956 1_655 S
H603 C590 0.961 . S
H604 C590 0.961 1_655 S
H605 C591 0.958 . S
H606 C591 0.961 . S
H607 C591 0.960 . S
C608 C609 1.391 . S
C608 C610 1.394 . S
C608 H624 0.931 . S
C609 C608 1.391 . S
C609 C613 1.376 . S
C610 C608 1.394 . S
C610 C611 1.369 . S
C610 C614 1.531 . S
C611 C610 1.369 . S
C611 C612 1.410 . S
C611 C619 1.503 . S
C612 C611 1.410 . S
C612 C613 1.392 . S
C612 C615 1.511 . S
C613 C609 1.376 . S
C613 C612 1.392 . S
C613 H625 0.929 . S
C614 C610 1.531 . S
C614 H626 0.960 . S
C614 H627 0.962 . S
C614 H628 0.960 . S
C615 C612 1.511 . S
C615 H629 0.961 . S
C615 H630 0.961 . S
C615 H631 0.961 . S
C616 C617 1.370 . S
C616 C618 1.363 . S
C616 H632 0.931 . S
C617 C616 1.370 . S
C617 C621 1.408 . S
C618 C616 1.363 . S
C618 C619 1.370 . S
C618 C622 1.524 . S
C619 C611 1.503 . S
C619 C618 1.370 . S
C619 C620 1.403 . S
C620 C619 1.403 . S
C620 C621 1.404 . S
C620 C623 1.539 . S
C621 C617 1.408 . S
C621 C620 1.404 . S
C621 H633 0.930 . S
C622 C618 1.524 . S
C622 H634 0.956 . S
C622 H635 0.961 . S
C622 H636 0.961 . S
C623 C620 1.539 . S
C623 H637 0.958 . S
C623 H638 0.961 . S
C623 H639 0.960 . S
H624 C608 0.931 . S
H625 C613 0.929 . S
H626 C614 0.960 . S
H627 C614 0.962 . S
H628 C614 0.960 . S
H629 C615 0.961 . S
H630 C615 0.961 . S
H631 C615 0.961 . S
H632 C616 0.931 . S
H633 C621 0.930 . S
H634 C622 0.956 . S
H635 C622 0.961 . S
H636 C622 0.961 . S
H637 C623 0.958 . S
H638 C623 0.961 . S
H639 C623 0.960 . S
C640 C641 1.391 . S
C640 C642 1.394 . S
C640 H656 0.931 . S
C641 C640 1.391 . S
C641 C645 1.376 . S
C642 C640 1.394 . S
C642 C643 1.369 . S
C642 C646 1.531 . S
C643 C642 1.369 . S
C643 C644 1.410 . S
C643 C651 1.503 . S
C644 C643 1.410 . S
C644 C645 1.392 . S
C644 C647 1.511 . S
C645 C641 1.376 . S
C645 C644 1.392 . S
C645 H657 0.929 . S
C646 C642 1.531 . S
C646 H658 0.960 . S
C646 H659 0.962 . S
C646 H660 0.960 . S
C647 C644 1.511 . S
C647 H661 0.961 . S
C647 H662 0.961 . S
C647 H663 0.961 . S
C648 C649 1.370 . S
C648 C650 1.363 . S
C648 H664 0.931 . S
C649 C648 1.370 . S
C649 C653 1.408 . S
C650 C648 1.363 . S
C650 C651 1.370 . S
C650 C654 1.524 . S
C651 C643 1.503 . S
C651 C650 1.370 . S
C651 C652 1.403 . S
C652 C651 1.403 . S
C652 C653 1.404 . S
C652 C655 1.539 . S
C653 C649 1.408 . S
C653 C652 1.404 . S
C653 H665 0.930 . S
C654 C650 1.524 . S
C654 H666 0.956 . S
C654 H667 0.961 . S
C654 H668 0.961 . S
C655 C652 1.539 . S
C655 H669 0.958 . S
C655 H670 0.961 . S
C655 H671 0.960 . S
H656 C640 0.931 . S
H657 C645 0.929 . S
H658 C646 0.960 . S
H659 C646 0.962 . S
H660 C646 0.960 . S
H661 C647 0.961 . S
H662 C647 0.961 . S
H663 C647 0.961 . S
H664 C648 0.931 . S
H665 C653 0.930 . S
H666 C654 0.956 . S
H667 C654 0.961 . S
H668 C654 0.961 . S
H669 C655 0.958 . S
H670 C655 0.961 . S
H671 C655 0.960 . S
C672 C673 1.391 . S
C672 C674 1.394 . S
C672 H688 0.931 . S
C673 C672 1.391 . S
C673 C677 1.376 . S
C674 C672 1.394 . S
C674 C675 1.369 . S
C674 C678 1.531 . S
C675 C674 1.369 . S
C675 C676 1.410 . S
C675 C683 1.503 . S
C676 C675 1.410 . S
C676 C677 1.392 . S
C676 C679 1.511 . S
C677 C673 1.376 . S
C677 C676 1.392 . S
C677 H689 0.929 . S
C678 C674 1.531 . S
C678 H690 0.960 . S
C678 H691 0.962 . S
C678 H692 0.960 . S
C679 C676 1.511 . S
C679 H693 0.961 1_455 S
C679 H694 0.961 . S
C679 H695 0.961 1_455 S
C680 C681 1.370 . S
C680 C682 1.363 . S
C680 H696 0.931 . S
C681 C680 1.370 . S
C681 C685 1.408 . S
C682 C680 1.363 . S
C682 C683 1.370 . S
C682 C686 1.524 . S
C683 C675 1.503 . S
C683 C682 1.370 . S
C683 C684 1.403 . S
C684 C683 1.403 . S
C684 C685 1.404 . S
C684 C687 1.539 . S
C685 C681 1.408 . S
C685 C684 1.404 . S
C685 H697 0.930 . S
C686 C682 1.524 . S
C686 H698 0.956 . S
C686 H699 0.961 . S
C686 H700 0.961 . S
C687 C684 1.539 . S
C687 H701 0.958 . S
C687 H702 0.961 . S
C687 H703 0.960 . S
H688 C672 0.931 . S
H689 C677 0.929 . S
H690 C678 0.960 . S
H691 C678 0.962 . S
H692 C678 0.960 . S
H693 C679 0.961 1_655 S
H694 C679 0.961 . S
H695 C679 0.961 1_655 S
H696 C680 0.931 . S
H697 C685 0.930 . S
H698 C686 0.956 . S
H699 C686 0.961 . S
H700 C686 0.961 . S
H701 C687 0.958 . S
H702 C687 0.961 . S
H703 C687 0.960 . S
C321 C175 1.497 . S
C329 C15 1.499 . S
C353 C215 1.497 . S
C361 C55 1.504 . S
C385 C82 1.509 . S
C393 C242 1.511 . S
C417 C122 1.479 . S
C425 C282 1.503 . S
C449 C295 1.505 . S
C457 C135 1.505 . S
C481 C202 1.502 . S
C489 C42 1.487 . S
C513 C255 1.507 . S
C521 C95 1.517 . S
C545 C2 1.482 . S
C553 C162 1.478 . S
C577 C221 1.497 . S
C585 C21 1.496 . S
C609 C261 1.490 . S
C617 C61 1.486 . S
C641 C101 1.469 . S
C649 C301 1.503 . S
C673 C181 1.477 . S
C681 C141 1.481 . S
