# Generated by pormake.
# Topology kag, (6)-cn, num edge types: 1
# Building blocks:
#     Node 0, Type 0, BuildingBlock: BETGAK_clean_sbu_0, # of connection points: 6
#     Node 1, Type 0, BuildingBlock: BETGAK_clean_sbu_0, # of connection points: 6
#     Node 2, Type 0, BuildingBlock: BETGAK_clean_sbu_0, # of connection points: 6
#     Edge 3, Type (0, 0), BuildingBlock: UVAHIK_clean_linker_0, # of connection points: 2
#     Edge 4, Type (0, 0), BuildingBlock: UVAHIK_clean_linker_0, # of connection points: 2
#     Edge 5, Type (0, 0), BuildingBlock: UVAHIK_clean_linker_0, # of connection points: 2
#     Edge 6, Type (0, 0), BuildingBlock: UVAHIK_clean_linker_0, # of connection points: 2
#     Edge 7, Type (0, 0), BuildingBlock: UVAHIK_clean_linker_0, # of connection points: 2
#     Edge 8, Type (0, 0), BuildingBlock: UVAHIK_clean_linker_0, # of connection points: 2
#     Edge 9, Type (0, 0), BuildingBlock: UVAHIK_clean_linker_0, # of connection points: 2
#     Edge 10, Type (0, 0), BuildingBlock: UVAHIK_clean_linker_0, # of connection points: 2
#     Edge 11, Type (0, 0), BuildingBlock: UVAHIK_clean_linker_0, # of connection points: 2
# Relax obj value: 0.054
# Max RMSD: 0.166
# Mean RMSD: 0.088
data_MOF--net-kag--node1-BETGAK_clean_sbu_0--edge1-UVAHIK_clean_linker_0
_symmetry_space_group_name_H-M    P1
_symmetry_Int_Tables_number       1
_symmetry_cell_setting            triclinic
loop_
_symmetry_equiv_pos_as_xyz
'x, y, z'
_cell_length_a     40.009506
_cell_length_b     50.630424
_cell_length_c     18.896704
_cell_angle_alpha  95.32582
_cell_angle_beta   91.229226
_cell_angle_gamma 100.52873
loop_
_atom_site_label
_atom_site_type_symbol
_atom_site_fract_x
_atom_site_fract_y
_atom_site_fract_z
_atom_type_partial_charge
La0 La 1.04899 0.48733 0.02031 0.0
La1 La 0.05809 0.54586 1.00347 0.0
C2 C 1.03067 0.44066 0.05936 0.0
C3 C 1.00056 0.41847 0.05004 0.0
C4 C 0.99687 0.39915 0.99054 0.0
C5 C 0.96974 0.3772 0.98425 0.0
C6 C 0.94574 0.3739 0.03752 0.0
C7 C 0.94917 0.39341 0.09658 0.0
C8 C 0.97629 0.4154 0.10284 0.0
C9 C 0.05641 0.49949 0.8877 0.0
C10 C 0.98363 0.51478 1.0005 0.0
C11 C 0.07637 0.59265 0.96514 0.0
C12 C 0.10653 0.61479 0.97453 0.0
C13 C 0.10806 0.63579 0.02939 0.0
C14 C 0.13535 0.6576 0.03605 0.0
C15 C 0.16165 0.65912 0.98761 0.0
C16 C 0.16032 0.63802 0.93307 0.0
C17 C 0.13306 0.61611 0.92657 0.0
C18 C 1.05055 0.53351 0.13601 0.0
C19 C 0.12346 0.51845 0.02307 0.0
O20 O 1.04838 0.44573 1.00319 0.0
O21 O 1.02726 0.46285 0.09769 0.0
O22 O 0.06729 0.47968 0.91341 0.0
O23 O 1.03976 0.51036 0.93407 0.0
O24 O 0.99636 0.49468 0.02401 0.0
O25 O 1.00371 0.53583 0.97795 0.0
O26 O 0.05893 0.58748 0.02159 0.0
O27 O 0.0795 0.57051 0.92621 0.0
O28 O 1.03952 0.55326 0.11036 0.0
O29 O 0.06735 0.52284 0.08959 0.0
O30 O 0.11068 0.53852 0.9995 0.0
O31 O 0.10341 0.4974 0.04569 0.0
H32 H 1.01531 0.40063 0.94928 0.0
H33 H 0.96821 0.36235 0.93863 0.0
H34 H 0.93096 0.39161 0.13826 0.0
H35 H 0.97853 0.42979 0.14962 0.0
H36 H 0.08783 0.63566 0.06661 0.0
H37 H 0.13529 0.67371 0.07796 0.0
H38 H 0.18031 0.63849 0.8952 0.0
H39 H 0.13258 0.6004 0.88334 0.0
La40 La 0.59045 0.02148 0.99999 0.0
La41 La 0.51633 1.01173 0.02341 0.0
C42 C 0.64873 0.03973 0.95765 0.0
C43 C 0.67027 0.06692 0.96034 0.0
C44 C 0.70248 0.0717 0.99498 0.0
C45 C 0.72269 0.09749 1.00143 0.0
C46 C 0.71122 0.11908 0.97294 0.0
C47 C 0.67917 0.11421 0.93718 0.0
C48 C 0.65884 0.0884 0.93109 0.0
C49 C 0.57427 1.01466 0.13236 0.0
C50 C 0.55146 0.07161 0.02926 0.0
C51 C 0.45791 0.99352 0.06507 0.0
C52 C 0.43621 0.96639 0.06246 0.0
C53 C 0.40461 0.9614 0.02534 0.0
C54 C 0.38405 0.93576 0.01998 0.0
C55 C 0.39445 0.91447 0.05224 0.0
C56 C 0.42611 0.91956 0.08985 0.0
C57 C 0.44678 0.94521 0.09484 0.0
C58 C 0.53276 0.0186 0.89108 0.0
C59 C 0.55531 0.9616 0.99473 0.0
O60 O 0.64346 0.02996 0.01893 0.0
O61 O 0.62101 0.03502 0.91675 0.0
O62 O 0.59967 1.00642 0.10177 0.0
O63 O 0.56016 0.02765 0.09046 0.0
O64 O 0.57814 0.06227 1.00386 0.0
O65 O 0.52468 0.05517 0.05013 0.0
O66 O 0.46339 1.00323 1.00377 0.0
O67 O 0.48551 0.99824 0.10632 0.0
O68 O 0.50741 0.02695 0.92158 0.0
O69 O 0.54662 1.00551 0.93308 0.0
O70 O 0.52866 0.97097 0.02013 0.0
O71 O 0.58206 0.978 0.97362 0.0
H72 H 0.71191 0.05548 0.01776 0.0
H73 H 0.74745 0.1005 0.02844 0.0
H74 H 0.66949 0.13047 0.91522 0.0
H75 H 0.63403 0.08543 0.90436 0.0
H76 H 0.39593 0.97733 0.99967 0.0
H77 H 0.36019 0.93257 0.98946 0.0
H78 H 0.43483 0.90381 0.11612 0.0
H79 H 0.47107 0.94836 0.12377 0.0
La80 La 0.56322 0.54611 1.00288 0.0
La81 La 0.54373 0.48713 0.02099 0.0
C82 C 0.57182 0.59282 0.96065 0.0
C83 C 0.56226 0.61987 0.97252 0.0
C84 C 0.57757 0.63871 0.02865 0.0
C85 C 0.57291 0.66555 0.03276 0.0
C86 C 0.55289 0.67434 0.98078 0.0
C87 C 0.53654 0.65521 0.92618 0.0
C88 C 0.5413 0.62836 0.92196 0.0
C89 C 0.56552 0.5342 0.13673 0.0
C90 C 0.48544 0.52056 0.02191 0.0
C91 C 0.53507 0.44038 0.06297 0.0
C92 C 0.54466 0.41334 0.05124 0.0
C93 C 0.52955 0.39453 0.99487 0.0
C94 C 0.53418 0.36768 0.99088 0.0
C95 C 0.55395 0.35885 0.04323 0.0
C96 C 0.57011 0.37796 0.09808 0.0
C97 C 0.56539 0.40481 0.10218 0.0
C98 C 0.54143 0.49919 0.88717 0.0
C99 C 0.62152 0.51271 1.00214 0.0
O100 O 0.59079 0.58567 1.00998 0.0
O101 O 0.54896 0.57247 0.93228 0.0
O102 O 0.58451 0.55459 0.11246 0.0
O103 O 0.54392 0.5232 0.08872 0.0
O104 O 0.50718 0.54001 0.99613 0.0
O105 O 0.4961 0.5 0.04769 0.0
O106 O 0.51623 0.44754 0.01344 0.0
O107 O 0.55785 0.46072 0.09163 0.0
O108 O 0.52238 0.47881 0.91133 0.0
O109 O 0.56304 0.51003 0.9353 0.0
O110 O 0.59979 0.49326 0.02795 0.0
O111 O 0.61082 0.53323 0.9762 0.0
H112 H 0.59429 0.63306 0.06807 0.0
H113 H 0.58629 0.67966 0.07508 0.0
H114 H 0.5205 0.66106 0.88581 0.0
H115 H 0.52945 0.61445 0.87763 0.0
H116 H 0.51301 0.40021 0.95515 0.0
H117 H 0.52095 0.35359 0.94834 0.0
H118 H 0.58597 0.37207 0.13874 0.0
H119 H 0.57707 0.4187 0.1467 0.0
C120 C 0.0739 0.48879 0.76368 0.0
C121 C 0.05681 0.50412 0.8114 0.0
C122 C 0.07344 0.49217 0.69101 0.0
C123 C 1.02465 0.5176 0.55149 0.0
H124 H 0.10524 0.51466 0.44285 0.0
C125 C 1.03301 0.54406 0.26005 0.0
C126 C 1.05018 0.52882 0.21227 0.0
C127 C 1.03348 0.54063 0.33268 0.0
C128 C 0.08235 0.51518 0.47211 0.0
H129 H 1.02628 0.53536 0.82068 0.0
H130 H 1.02568 0.54152 0.69367 0.0
H131 H 0.10734 0.51047 0.57028 0.0
H132 H 0.08086 0.49768 0.20284 0.0
H133 H 0.08147 0.49143 0.32981 0.0
H134 H 0.99965 0.5223 0.45332 0.0
C135 C 1.03908 0.52657 0.71223 0.0
C136 C 0.08357 0.51282 0.54538 0.0
C137 C 1.03959 0.5232 0.78509 0.0
C138 C 0.06749 0.50977 0.23849 0.0
C139 C 0.06801 0.50634 0.31132 0.0
C140 C 1.02342 0.51995 0.47822 0.0
C141 C 0.05587 0.51099 0.66411 0.0
C142 C 0.05473 0.514 0.58614 0.0
C143 C 1.05114 0.52184 0.35951 0.0
C144 C 1.05227 0.51879 0.43746 0.0
H145 H 0.08737 0.4739 0.78237 0.0
H146 H 0.0863 0.47958 0.65569 0.0
H147 H 1.00176 0.51813 0.58076 0.0
H148 H 1.01947 0.55892 0.24142 0.0
H149 H 1.02057 0.55317 0.36805 0.0
C150 C 0.5874 1.00027 0.2511 0.0
C151 C 0.56825 1.01409 0.20931 0.0
C152 C 0.58324 1.00054 0.32446 0.0
C153 C 0.55242 0.03959 0.47686 0.0
H154 H 0.55539 0.97542 0.57224 0.0
C155 C 0.51986 0.03304 0.77229 0.0
C156 C 0.53888 0.01915 0.81417 0.0
C157 C 0.52408 0.03275 0.69896 0.0
C158 C 0.55496 0.99364 0.54667 0.0
H159 H 0.52927 0.03869 0.21129 0.0
H160 H 0.52167 0.039 0.33964 0.0
H161 H 0.56003 0.97368 0.44352 0.0
H162 H 0.5777 0.99441 0.81236 0.0
H163 H 0.58545 0.99409 0.68405 0.0
H164 H 0.54736 0.05955 0.57999 0.0
C165 C 0.54028 0.02821 0.31583 0.0
C166 C 0.55755 0.99263 0.47269 0.0
C167 C 0.54442 0.02789 0.24223 0.0
C168 C 0.56265 1.00526 0.78135 0.0
C169 C 0.56688 1.00493 0.70778 0.0
C170 C 0.54984 0.0406 0.55084 0.0
C171 C 0.55981 1.01467 0.35801 0.0
C172 C 0.55632 1.01559 0.43674 0.0
C173 C 0.54748 0.01855 0.66551 0.0
C174 C 0.55105 0.01763 0.58679 0.0
H175 H 0.60599 0.98946 0.22722 0.0
H176 H 0.59903 0.99016 0.35513 0.0
H177 H 0.55197 0.05781 0.45128 0.0
H178 H 0.5013 0.04391 0.79608 0.0
H179 H 0.50839 0.04318 0.66823 0.0
C180 C 0.56861 0.5238 0.78726 0.0
C181 C 0.54337 0.50381 0.81086 0.0
C182 C 0.57099 0.52723 0.71456 0.0
C183 C 0.54544 0.49107 0.53542 0.0
H184 H 0.56769 0.56257 0.47184 0.0
C185 C 0.53851 0.50961 0.23681 0.0
C186 C 0.56368 0.52963 0.21308 0.0
C187 C 0.53621 0.5062 0.30953 0.0
C188 C 0.56185 0.54241 0.4886 0.0
H189 H 0.50037 0.47214 0.7771 0.0
H190 H 0.5042 0.47825 0.6508 0.0
H191 H 0.56329 0.55758 0.59855 0.0
H192 H 0.60662 0.56137 0.24665 0.0
H193 H 0.60293 0.5553 0.373 0.0
H194 H 0.54401 0.4759 0.42548 0.0
C195 C 0.52261 0.49101 0.68795 0.0
C196 C 0.55932 0.53956 0.56147 0.0
C197 C 0.52025 0.48762 0.7605 0.0
C198 C 0.5868 0.54587 0.26335 0.0
C199 C 0.58452 0.5425 0.33592 0.0
C200 C 0.54798 0.49393 0.46255 0.0
C201 C 0.54816 0.51073 0.66378 0.0
C202 C 0.55105 0.51384 0.58599 0.0
C203 C 0.55904 0.52275 0.36022 0.0
C204 C 0.55623 0.51964 0.43802 0.0
H205 H 0.58679 0.53659 0.82487 0.0
H206 H 0.59118 0.54247 0.69806 0.0
H207 H 0.5396 0.47091 0.55218 0.0
H208 H 0.52033 0.49678 0.19929 0.0
H209 H 0.51607 0.49095 0.32611 0.0
C210 C 0.18276 0.54236 1.00235 0.0
C211 C 0.16096 0.52015 0.0262 0.0
C212 C 0.21805 0.5437 1.00389 0.0
C213 C 0.28686 0.51565 0.08784 0.0
H214 H 0.3384 0.54042 0.9275 0.0
C215 C 0.42567 0.50157 0.0523 0.0
C216 C 0.44878 0.52225 0.02522 0.0
C217 C 0.39101 0.50258 0.05418 0.0
C218 C 0.32452 0.53381 0.97319 0.0
H219 H 0.15942 0.48195 0.07059 0.0
H220 H 0.22081 0.48423 0.07284 0.0
H221 H 0.27729 0.53976 0.92759 0.0
H222 H 0.45335 0.56037 0.97919 0.0
H223 H 0.39282 0.56228 0.98323 0.0
H224 H 0.33399 0.50959 0.13338 0.0
C225 C 0.21067 0.50079 0.05369 0.0
C226 C 0.28941 0.53341 0.97322 0.0
C227 C 0.17538 0.49941 0.05203 0.0
C228 C 0.4363 0.54407 1.00035 0.0
C229 C 0.40153 0.54508 1.00226 0.0
C230 C 0.32194 0.51608 0.08787 0.0
C231 C 0.23248 0.52291 0.02946 0.0
C232 C 0.27007 0.52413 0.03031 0.0
C233 C 0.3784 0.52431 0.02912 0.0
C234 C 0.34123 0.52496 0.0303 0.0
H235 H 0.17261 0.55874 0.9822 0.0
H236 H 0.23406 0.5612 0.98564 0.0
H237 H 0.27293 0.50884 0.1333 0.0
H238 H 0.43425 0.48436 0.07158 0.0
H239 H 0.37397 0.48599 0.07414 0.0
C240 C 0.74952 0.157 0.04647 0.0
C241 C 0.73264 0.14657 0.98108 0.0
C242 C 0.77049 0.18248 0.05391 0.0
C243 C 0.79143 0.2467 0.96918 0.0
H244 H 0.87565 0.25517 0.08143 0.0
C245 C 0.90102 0.33924 0.96758 0.0
C246 C 0.91823 0.34954 0.03284 0.0
C247 C 0.87661 0.31544 0.96251 0.0
C248 C 0.85204 0.25327 0.05062 0.0
H249 H 0.72438 0.15484 0.87225 0.0
H250 H 0.76142 0.19918 0.88474 0.0
H251 H 0.83668 0.21195 0.06986 0.0
H252 H 0.92288 0.34294 0.14412 0.0
H253 H 0.88006 0.30167 0.13545 0.0
H254 H 0.80729 0.28803 0.9491 0.0
C255 C 0.75799 0.18787 0.93078 0.0
C256 C 0.82962 0.22845 0.04402 0.0
C257 C 0.73681 0.16242 0.9235 0.0
C258 C 0.90993 0.33573 0.09317 0.0
C259 C 0.88566 0.31189 0.08804 0.0
C260 C 0.81399 0.27153 0.97553 0.0
C261 C 0.77533 0.19816 0.99597 0.0
C262 C 0.79898 0.2248 1.00327 0.0
C263 C 0.86896 0.30129 0.02251 0.0
C264 C 0.84456 0.2751 0.01638 0.0
H265 H 0.74633 0.1455 0.09221 0.0
H266 H 0.78278 0.18994 0.10533 0.0
H267 H 0.76787 0.24478 0.9382 0.0
H268 H 0.90655 0.34951 0.92023 0.0
H269 H 0.86439 0.30774 0.91115 0.0
C270 C 0.58399 0.92131 0.97482 0.0
C271 C 0.55459 0.932 0.98983 0.0
C272 C 0.58334 0.89346 0.97305 0.0
C273 C 0.53293 0.83058 0.03325 0.0
H274 H 0.58587 0.7953 0.89759 0.0
C275 C 0.54961 0.71967 0.04595 0.0
C276 C 0.55068 0.70356 0.98149 0.0
C277 C 0.54945 0.74735 0.0466 0.0
C278 C 0.57063 0.80472 0.93542 0.0
H279 H 0.50118 0.92156 0.01314 0.0
H280 H 0.49986 0.87325 1.00855 0.0
H281 H 0.58645 0.84345 0.8976 0.0
H282 H 0.55234 0.70431 0.86696 0.0
H283 H 0.55091 0.75216 0.86795 0.0
H284 H 0.51636 0.79171 0.06974 0.0
C285 C 0.52371 0.88633 0.99982 0.0
C286 C 0.57135 0.83251 0.9361 0.0
C287 C 0.52442 0.91413 1.00201 0.0
C288 C 0.55105 0.71588 0.91765 0.0
C289 C 0.55078 0.74352 0.91828 0.0
C290 C 0.5321 0.80277 0.03239 0.0
C291 C 0.55321 0.87556 0.98582 0.0
C292 C 0.55251 0.84587 0.98503 0.0
C293 C 0.55026 0.75973 0.98278 0.0
C294 C 0.55095 0.78941 0.98348 0.0
H295 H 0.60771 0.93447 0.9656 0.0
H296 H 0.6067 0.88605 0.96303 0.0
H297 H 0.51842 0.84012 0.07241 0.0
H298 H 0.54894 0.71092 0.09618 0.0
H299 H 0.54937 0.75913 0.09741 0.0
C300 C 0.92426 0.49132 0.02263 0.0
C301 C 0.94615 0.51327 0.99782 0.0
C302 C 0.88903 0.49034 0.02219 0.0
C303 C 0.82471 0.5345 0.01669 0.0
H304 H 0.76143 0.46727 0.96686 0.0
C305 C 0.68121 0.53186 0.97178 0.0
C306 C 0.65825 0.51122 0.9994 0.0
C307 C 0.71599 0.53127 0.97124 0.0
C308 C 0.77875 0.48615 0.98168 0.0
H309 H 0.9479 0.55121 0.95204 0.0
H310 H 0.88662 0.54934 0.95047 0.0
H311 H 0.8226 0.46782 0.96586 0.0
H312 H 0.65407 0.47353 0.04743 0.0
H313 H 0.71496 0.47257 0.04672 0.0
H314 H 0.781 0.55286 0.03238 0.0
C315 C 0.89669 0.53306 0.97138 0.0
C316 C 0.81386 0.48648 0.98111 0.0
C317 C 0.93188 0.53405 0.97183 0.0
C318 C 0.67098 0.48975 0.02564 0.0
C319 C 0.7059 0.48913 0.02495 0.0
C320 C 0.78969 0.53417 0.01717 0.0
C321 C 0.87477 0.51129 0.99699 0.0
C322 C 0.83732 0.5107 0.99826 0.0
C323 C 0.72889 0.51004 0.99829 0.0
C324 C 0.76621 0.51004 0.99928 0.0
H325 H 0.93432 0.47497 0.04321 0.0
H326 H 0.87304 0.4734 0.04303 0.0
H327 H 0.84194 0.55342 0.03169 0.0
H328 H 0.6724 0.54869 0.95085 0.0
H329 H 0.73281 0.54747 0.94918 0.0
C330 C 0.20435 0.69498 0.05872 0.0
C331 C 0.18948 0.68323 0.9924 0.0
C332 C 0.22889 0.71869 0.06357 0.0
C333 C 0.25657 0.77861 0.96927 0.0
H334 H 0.3365 0.79025 0.0962 0.0
C335 C 0.33671 0.88442 0.04764 0.0
C336 C 0.37233 0.88715 0.04637 0.0
C337 C 0.3158 0.85892 0.04003 0.0
C338 C 0.3144 0.78723 0.0602 0.0
H339 H 0.18919 0.68705 0.87904 0.0
H340 H 0.23215 0.72831 0.88749 0.0
H341 H 0.29829 0.74627 0.08344 0.0
H342 H 0.41373 0.86482 0.0363 0.0
H343 H 0.37713 0.82028 0.02457 0.0
H344 H 0.27248 0.81954 0.94629 0.0
C345 C 0.22467 0.71924 0.93579 0.0
C346 C 0.2924 0.76213 0.05332 0.0
C347 C 0.2003 0.69544 0.93089 0.0
C348 C 0.38647 0.86357 0.03854 0.0
C349 C 0.36551 0.83801 0.03158 0.0
C350 C 0.27836 0.80373 0.97664 0.0
C351 C 0.23897 0.73131 1.00226 0.0
C352 C 0.26316 0.75758 1.00793 0.0
C353 C 0.32992 0.83542 0.03162 0.0
C354 C 0.30743 0.80839 0.02246 0.0
H355 H 0.19681 0.68594 0.10704 0.0
H356 H 0.23925 0.72756 0.11561 0.0
H357 H 0.23411 0.77586 0.93438 0.0
H358 H 0.32486 0.90202 0.05514 0.0
H359 H 0.2885 0.85759 0.04154 0.0
C360 C 0.55744 0.31354 0.97823 0.0
C361 C 0.5561 0.32963 0.04261 0.0
C362 C 0.55755 0.28586 0.97764 0.0
C363 C 0.53577 0.22843 0.0884 0.0
H364 H 0.5887 0.19313 0.95275 0.0
C365 C 0.52263 0.11184 0.04863 0.0
C366 C 0.55215 0.1012 0.03442 0.0
C367 C 0.52325 0.13968 0.05049 0.0
C368 C 0.57398 0.20264 0.99153 0.0
H369 H 0.55391 0.32884 0.15707 0.0
H370 H 0.55524 0.28097 0.1562 0.0
H371 H 0.59075 0.24153 0.95535 0.0
H372 H 0.60574 0.11175 0.01287 0.0
H373 H 0.607 0.16005 0.01747 0.0
H374 H 0.51973 0.18966 0.1259 0.0
C375 C 0.55563 0.28963 0.10588 0.0
C376 C 0.57481 0.23044 0.99235 0.0
C377 C 0.55541 0.31728 0.10645 0.0
C378 C 0.5824 0.11914 0.02324 0.0
C379 C 0.58308 0.14693 0.02548 0.0
C380 C 0.53504 0.20064 0.08776 0.0
C381 C 0.55642 0.27345 0.04144 0.0
C382 C 0.55571 0.24377 0.04078 0.0
C383 C 0.55347 0.15763 0.03859 0.0
C384 C 0.55414 0.18731 0.03932 0.0
H385 H 0.55836 0.32231 0.92802 0.0
H386 H 0.55785 0.2741 0.92686 0.0
H387 H 0.52033 0.23782 0.12585 0.0
H388 H 0.49884 0.09862 0.05711 0.0
H389 H 0.49982 0.14705 0.05985 0.0
loop_
_geom_bond_atom_site_label_1
_geom_bond_atom_site_label_2
_geom_bond_distance
_geom_bond_site_symmetry_2
_ccdc_geom_bond_type
La0 C2 2.928 . S
La0 O20 2.521 . S
La0 O21 2.628 1_556 S
La0 O22 2.554 . S
La0 O23 2.757 1_655 S
La0 O24 2.470 . S
La0 O29 2.482 1_556 S
La0 O31 2.503 1_655 S
La1 C11 2.928 . S
La1 O23 2.482 1_554 S
La1 O25 2.503 1_455 S
La1 O26 2.521 . S
La1 O27 2.628 1_554 S
La1 O28 2.554 . S
La1 O29 2.757 1_455 S
La1 O30 2.470 . S
C2 La0 2.928 . S
C2 C3 1.503 . S
C2 O20 1.261 . S
C2 O21 1.243 1_556 S
C3 C2 1.503 . S
C3 C4 1.394 . S
C3 C8 1.373 1_556 S
C4 C3 1.394 . S
C4 C5 1.380 . S
C4 H32 0.930 . S
C5 C4 1.380 . S
C5 C6 1.376 . S
C5 H33 0.930 . S
C6 C5 1.376 . S
C6 C7 1.370 1_556 S
C7 C6 1.370 1_554 S
C7 C8 1.396 . S
C7 H34 0.929 . S
C8 C3 1.373 1_554 S
C8 C7 1.396 . S
C8 H35 0.929 . S
C9 O22 1.237 1_455 S
C9 O23 1.293 . S
C10 O24 1.258 . S
C10 O25 1.256 1_556 S
C11 La1 2.928 . S
C11 C12 1.503 . S
C11 O26 1.261 . S
C11 O27 1.243 1_554 S
C12 C11 1.503 . S
C12 C13 1.394 . S
C12 C17 1.373 1_554 S
C13 C12 1.394 . S
C13 C14 1.380 . S
C13 H36 0.930 . S
C14 C13 1.380 . S
C14 C15 1.376 . S
C14 H37 0.930 . S
C15 C14 1.376 . S
C15 C16 1.370 1_554 S
C16 C15 1.370 1_556 S
C16 C17 1.396 . S
C16 H38 0.929 . S
C17 C12 1.373 1_556 S
C17 C16 1.396 . S
C17 H39 0.929 . S
C18 O28 1.240 . S
C18 O29 1.289 1_455 S
C19 O30 1.258 . S
C19 O31 1.256 1_554 S
O20 La0 2.521 . S
O20 C2 1.261 . S
O21 La0 2.628 1_554 S
O21 C2 1.243 1_554 S
O22 La0 2.554 . S
O22 C9 1.237 1_655 S
O23 La0 2.757 1_455 S
O23 La1 2.482 1_556 S
O23 C9 1.293 . S
O24 La0 2.470 . S
O24 C10 1.258 . S
O25 La1 2.503 1_655 S
O25 C10 1.256 1_554 S
O26 La1 2.521 . S
O26 C11 1.261 . S
O27 La1 2.628 1_556 S
O27 C11 1.243 1_556 S
O28 La1 2.554 . S
O28 C18 1.240 . S
O29 La0 2.482 1_554 S
O29 La1 2.757 1_655 S
O29 C18 1.289 1_655 S
O30 La1 2.470 . S
O30 C19 1.258 . S
O31 La0 2.503 1_455 S
O31 C19 1.256 1_556 S
H32 C4 0.930 . S
H33 C5 0.930 . S
H34 C7 0.929 . S
H35 C8 0.929 . S
H36 C13 0.930 . S
H37 C14 0.930 . S
H38 C16 0.929 . S
H39 C17 0.929 . S
La40 C42 2.927 1_554 S
La40 O60 2.521 . S
La40 O61 2.628 1_554 S
La40 O62 2.554 . S
La40 O63 2.757 1_545 S
La40 O64 2.470 . S
La40 O69 2.482 1_554 S
La40 O71 2.503 1_544 S
La41 C51 2.927 1_556 S
La41 O63 2.482 1_556 S
La41 O65 2.503 1_566 S
La41 O66 2.521 . S
La41 O67 2.628 1_556 S
La41 O68 2.554 . S
La41 O69 2.757 1_565 S
La41 O70 2.470 . S
C42 La40 2.927 1_556 S
C42 C43 1.503 . S
C42 O60 1.256 1_556 S
C42 O61 1.247 . S
C43 C42 1.503 . S
C43 C44 1.394 1_556 S
C43 C48 1.373 . S
C44 C43 1.394 1_554 S
C44 C45 1.380 . S
C44 H72 0.930 . S
C45 C44 1.380 . S
C45 C46 1.376 1_554 S
C45 H73 0.930 . S
C46 C45 1.376 1_556 S
C46 C47 1.370 . S
C47 C46 1.370 . S
C47 C48 1.396 . S
C47 H74 0.929 . S
C48 C43 1.373 . S
C48 C47 1.396 . S
C48 H75 0.929 . S
C49 O62 1.240 . S
C49 O63 1.289 1_545 S
C50 O64 1.258 . S
C50 O65 1.256 . S
C51 La41 2.927 1_554 S
C51 C52 1.504 . S
C51 O66 1.253 1_554 S
C51 O67 1.250 . S
C52 C51 1.504 . S
C52 C53 1.394 1_554 S
C52 C57 1.373 . S
C53 C52 1.394 1_556 S
C53 C54 1.380 . S
C53 H76 0.930 . S
C54 C53 1.380 . S
C54 C55 1.376 1_556 S
C54 H77 0.930 . S
C55 C54 1.376 1_554 S
C55 C56 1.370 . S
C56 C55 1.370 . S
C56 C57 1.396 . S
C56 H78 0.929 . S
C57 C52 1.373 . S
C57 C56 1.396 . S
C57 H79 0.929 . S
C58 O68 1.240 . S
C58 O69 1.289 1_565 S
C59 O70 1.258 . S
C59 O71 1.256 . S
O60 La40 2.521 . S
O60 C42 1.256 1_554 S
O61 La40 2.628 1_556 S
O61 C42 1.247 . S
O62 La40 2.554 . S
O62 C49 1.240 . S
O63 La40 2.757 1_565 S
O63 La41 2.482 1_554 S
O63 C49 1.289 1_565 S
O64 La40 2.470 . S
O64 C50 1.258 . S
O65 La41 2.503 1_544 S
O65 C50 1.256 . S
O66 La41 2.521 . S
O66 C51 1.253 1_556 S
O67 La41 2.628 1_554 S
O67 C51 1.250 . S
O68 La41 2.554 . S
O68 C58 1.240 . S
O69 La40 2.482 1_556 S
O69 La41 2.757 1_545 S
O69 C58 1.289 1_545 S
O70 La41 2.470 . S
O70 C59 1.258 . S
O71 La40 2.503 1_566 S
O71 C59 1.256 . S
H72 C44 0.930 . S
H73 C45 0.930 . S
H74 C47 0.929 . S
H75 C48 0.929 . S
H76 C53 0.930 . S
H77 C54 0.930 . S
H78 C56 0.929 . S
H79 C57 0.929 . S
La80 C82 2.928 . S
La80 O100 2.521 . S
La80 O101 2.628 1_554 S
La80 O102 2.554 . S
La80 O103 2.757 . S
La80 O104 2.470 . S
La80 O109 2.482 1_554 S
La80 O111 2.503 . S
La81 C91 2.928 . S
La81 O103 2.482 1_556 S
La81 O105 2.503 . S
La81 O106 2.521 . S
La81 O107 2.628 1_556 S
La81 O108 2.554 . S
La81 O109 2.757 . S
La81 O110 2.470 . S
C82 La80 2.928 . S
C82 C83 1.503 . S
C82 O100 1.261 . S
C82 O101 1.243 1_554 S
C83 C82 1.503 . S
C83 C84 1.394 . S
C83 C88 1.373 1_554 S
C84 C83 1.394 . S
C84 C85 1.380 . S
C84 H112 0.930 . S
C85 C84 1.380 . S
C85 C86 1.383 . S
C85 H113 0.930 . S
C86 C85 1.383 . S
C86 C87 1.364 1_554 S
C87 C86 1.364 1_556 S
C87 C88 1.396 . S
C87 H114 0.929 . S
C88 C83 1.373 1_556 S
C88 C87 1.396 . S
C88 H115 0.929 . S
C89 O102 1.240 . S
C89 O103 1.289 . S
C90 O104 1.258 . S
C90 O105 1.256 1_554 S
C91 La81 2.928 . S
C91 C92 1.503 . S
C91 O106 1.261 . S
C91 O107 1.243 1_556 S
C92 C91 1.503 . S
C92 C93 1.394 . S
C92 C97 1.373 1_556 S
C93 C92 1.394 . S
C93 C94 1.380 . S
C93 H116 0.930 . S
C94 C93 1.380 . S
C94 C95 1.379 . S
C94 H117 0.930 . S
C95 C94 1.379 . S
C95 C96 1.367 1_556 S
C96 C95 1.367 1_554 S
C96 C97 1.396 . S
C96 H118 0.929 . S
C97 C92 1.373 1_554 S
C97 C96 1.396 . S
C97 H119 0.929 . S
C98 O108 1.240 . S
C98 O109 1.289 . S
C99 O110 1.258 . S
C99 O111 1.256 1_556 S
O100 La80 2.521 . S
O100 C82 1.261 . S
O101 La80 2.628 1_556 S
O101 C82 1.243 1_556 S
O102 La80 2.554 . S
O102 C89 1.240 . S
O103 La80 2.757 . S
O103 La81 2.482 1_554 S
O103 C89 1.289 . S
O104 La80 2.470 . S
O104 C90 1.258 . S
O105 La81 2.503 . S
O105 C90 1.256 1_556 S
O106 La81 2.521 . S
O106 C91 1.261 . S
O107 La81 2.628 1_554 S
O107 C91 1.243 1_554 S
O108 La81 2.554 . S
O108 C98 1.240 . S
O109 La80 2.482 1_556 S
O109 La81 2.757 . S
O109 C98 1.289 . S
O110 La81 2.470 . S
O110 C99 1.258 . S
O111 La80 2.503 . S
O111 C99 1.256 1_554 S
H112 C84 0.930 . S
H113 C85 0.930 . S
H114 C87 0.929 . S
H115 C88 0.929 . S
H116 C93 0.930 . S
H117 C94 0.930 . S
H118 C96 0.929 . S
H119 C97 0.929 . S
C120 C121 1.349 . S
C120 C122 1.327 . S
C120 H145 0.950 . S
C121 C120 1.349 . S
C121 C137 1.349 1_455 S
C122 C120 1.327 . S
C122 C141 1.429 . S
C122 H146 0.950 . S
C123 C140 1.574 . S
C123 C142 1.368 1_655 S
C123 H147 0.949 . S
H124 C128 0.949 . S
C125 C126 1.358 . S
C125 C127 1.327 . S
C125 H148 0.950 . S
C126 C125 1.358 . S
C126 C138 1.340 1_655 S
C127 C125 1.327 . S
C127 C143 1.425 1_655 S
C127 H149 0.950 . S
C128 H124 0.949 . S
C128 C136 1.574 . S
C128 C144 1.383 . S
H129 C137 0.950 . S
H130 C135 0.950 . S
H131 C136 0.949 . S
H132 C138 0.950 . S
H133 C139 0.950 . S
H134 C140 0.949 . S
C135 H130 0.950 . S
C135 C137 1.327 . S
C135 C141 1.429 1_655 S
C136 C128 1.574 . S
C136 H131 0.949 . S
C136 C142 1.368 . S
C137 C121 1.349 1_655 S
C137 H129 0.950 . S
C137 C135 1.327 . S
C138 C126 1.340 1_455 S
C138 H132 0.950 . S
C138 C139 1.327 . S
C139 H133 0.950 . S
C139 C138 1.327 . S
C139 C143 1.432 . S
C140 C123 1.574 . S
C140 H134 0.949 . S
C140 C144 1.354 1_655 S
C141 C122 1.429 . S
C141 C135 1.429 1_455 S
C141 C142 1.523 . S
C142 C123 1.368 1_455 S
C142 C136 1.368 . S
C142 C141 1.523 . S
C143 C127 1.425 1_455 S
C143 C139 1.432 . S
C143 C144 1.523 . S
C144 C128 1.383 . S
C144 C140 1.354 1_455 S
C144 C143 1.523 . S
H145 C120 0.950 . S
H146 C122 0.950 . S
H147 C123 0.949 . S
H148 C125 0.950 . S
H149 C127 0.950 . S
C150 C151 1.328 1_565 S
C150 C152 1.327 . S
C150 H175 0.950 . S
C151 C150 1.328 1_545 S
C151 C167 1.368 . S
C152 C150 1.327 . S
C152 C171 1.417 1_565 S
C152 H176 0.950 . S
C153 C170 1.574 . S
C153 C172 1.377 . S
C153 H177 0.949 . S
H154 C158 0.949 . S
C155 C156 1.347 1_545 S
C155 C157 1.327 . S
C155 H178 0.950 . S
C156 C155 1.347 1_565 S
C156 C168 1.351 . S
C157 C155 1.327 . S
C157 C173 1.426 . S
C157 H179 0.950 . S
C158 H154 0.949 . S
C158 C166 1.574 . S
C158 C174 1.367 1_565 S
H159 C167 0.950 . S
H160 C165 0.950 . S
H161 C166 0.949 . S
H162 C168 0.950 . S
H163 C169 0.950 . S
H164 C170 0.949 . S
C165 H160 0.950 . S
C165 C167 1.327 . S
C165 C171 1.441 . S
C166 C158 1.574 . S
C166 H161 0.949 . S
C166 C172 1.359 1_565 S
C167 C151 1.368 . S
C167 H159 0.950 . S
C167 C165 1.327 . S
C168 C156 1.351 . S
C168 H162 0.950 . S
C168 C169 1.327 . S
C169 H163 0.950 . S
C169 C168 1.327 . S
C169 C173 1.432 1_565 S
C170 C153 1.574 . S
C170 H164 0.949 . S
C170 C174 1.369 . S
C171 C152 1.417 1_545 S
C171 C165 1.441 . S
C171 C172 1.522 . S
C172 C153 1.377 . S
C172 C166 1.359 1_545 S
C172 C171 1.522 . S
C173 C157 1.426 . S
C173 C169 1.432 1_545 S
C173 C174 1.522 . S
C174 C158 1.367 1_545 S
C174 C170 1.369 . S
C174 C173 1.522 . S
H175 C150 0.950 . S
H176 C152 0.950 . S
H177 C153 0.949 . S
H178 C155 0.950 . S
H179 C157 0.950 . S
C180 C181 1.349 . S
C180 C182 1.327 . S
C180 H205 0.950 . S
C181 C180 1.349 . S
C181 C197 1.349 . S
C182 C180 1.327 . S
C182 C201 1.429 . S
C182 H206 0.950 . S
C183 C200 1.574 . S
C183 C202 1.368 . S
C183 H207 0.949 . S
H184 C188 0.949 . S
C185 C186 1.349 . S
C185 C187 1.327 . S
C185 H208 0.950 . S
C186 C185 1.349 . S
C186 C198 1.349 . S
C187 C185 1.327 . S
C187 C203 1.429 . S
C187 H209 0.950 . S
C188 H184 0.949 . S
C188 C196 1.574 . S
C188 C204 1.368 . S
H189 C197 0.950 . S
H190 C195 0.950 . S
H191 C196 0.949 . S
H192 C198 0.950 . S
H193 C199 0.950 . S
H194 C200 0.949 . S
C195 H190 0.950 . S
C195 C197 1.327 . S
C195 C201 1.429 . S
C196 C188 1.574 . S
C196 H191 0.949 . S
C196 C202 1.368 . S
C197 C181 1.349 . S
C197 H189 0.950 . S
C197 C195 1.327 . S
C198 C186 1.349 . S
C198 H192 0.950 . S
C198 C199 1.327 . S
C199 H193 0.950 . S
C199 C198 1.327 . S
C199 C203 1.429 . S
C200 C183 1.574 . S
C200 H194 0.949 . S
C200 C204 1.368 . S
C201 C182 1.429 . S
C201 C195 1.429 . S
C201 C202 1.523 . S
C202 C183 1.368 . S
C202 C196 1.368 . S
C202 C201 1.523 . S
C203 C187 1.429 . S
C203 C199 1.429 . S
C203 C204 1.523 . S
C204 C188 1.368 . S
C204 C200 1.368 . S
C204 C203 1.523 . S
H205 C180 0.950 . S
H206 C182 0.950 . S
H207 C183 0.949 . S
H208 C185 0.950 . S
H209 C187 0.950 . S
C210 C211 1.349 . S
C210 C212 1.327 . S
C210 H235 0.950 . S
C211 C210 1.349 . S
C211 C227 1.349 1_556 S
C212 C210 1.327 . S
C212 C231 1.429 . S
C212 H236 0.950 . S
C213 C230 1.574 . S
C213 C232 1.368 1_554 S
C213 H237 0.949 . S
H214 C218 0.949 . S
C215 C216 1.349 1_554 S
C215 C217 1.327 . S
C215 H238 0.950 . S
C216 C215 1.349 1_556 S
C216 C228 1.349 . S
C217 C215 1.327 . S
C217 C233 1.429 1_554 S
C217 H239 0.950 . S
C218 H214 0.949 . S
C218 C226 1.574 . S
C218 C234 1.368 . S
H219 C227 0.950 . S
H220 C225 0.950 . S
H221 C226 0.949 . S
H222 C228 0.950 . S
H223 C229 0.950 . S
H224 C230 0.949 . S
C225 H220 0.950 . S
C225 C227 1.327 . S
C225 C231 1.429 1_554 S
C226 C218 1.574 . S
C226 H221 0.949 . S
C226 C232 1.368 . S
C227 C211 1.349 1_554 S
C227 H219 0.950 . S
C227 C225 1.327 . S
C228 C216 1.349 . S
C228 H222 0.950 . S
C228 C229 1.327 . S
C229 H223 0.950 . S
C229 C228 1.327 . S
C229 C233 1.429 . S
C230 C213 1.574 . S
C230 H224 0.949 . S
C230 C234 1.368 1_554 S
C231 C212 1.429 . S
C231 C225 1.429 1_556 S
C231 C232 1.523 . S
C232 C213 1.368 1_556 S
C232 C226 1.368 . S
C232 C231 1.523 . S
C233 C217 1.429 1_556 S
C233 C229 1.429 . S
C233 C234 1.523 . S
C234 C218 1.368 . S
C234 C230 1.368 1_556 S
C234 C233 1.523 . S
H235 C210 0.950 . S
H236 C212 0.950 . S
H237 C213 0.949 . S
H238 C215 0.950 . S
H239 C217 0.950 . S
C240 C241 1.349 1_554 S
C240 C242 1.327 . S
C240 H265 0.950 . S
C241 C240 1.349 1_556 S
C241 C257 1.349 . S
C242 C240 1.327 . S
C242 C261 1.429 1_554 S
C242 H266 0.950 . S
C243 C260 1.574 . S
C243 C262 1.368 . S
C243 H267 0.949 . S
H244 C248 0.949 . S
C245 C246 1.349 . S
C245 C247 1.327 . S
C245 H268 0.950 . S
C246 C245 1.349 . S
C246 C258 1.349 1_556 S
C247 C245 1.327 . S
C247 C263 1.429 . S
C247 H269 0.950 . S
C248 H244 0.949 . S
C248 C256 1.574 . S
C248 C264 1.368 1_554 S
H249 C257 0.950 . S
H250 C255 0.950 . S
H251 C256 0.949 . S
H252 C258 0.950 . S
H253 C259 0.950 . S
H254 C260 0.949 . S
C255 H250 0.950 . S
C255 C257 1.327 . S
C255 C261 1.429 . S
C256 C248 1.574 . S
C256 H251 0.949 . S
C256 C262 1.368 1_554 S
C257 C241 1.349 . S
C257 H249 0.950 . S
C257 C255 1.327 . S
C258 C246 1.349 1_554 S
C258 H252 0.950 . S
C258 C259 1.327 . S
C259 H253 0.950 . S
C259 C258 1.327 . S
C259 C263 1.429 1_554 S
C260 C243 1.574 . S
C260 H254 0.949 . S
C260 C264 1.368 . S
C261 C242 1.429 1_556 S
C261 C255 1.429 . S
C261 C262 1.523 . S
C262 C243 1.368 . S
C262 C256 1.368 1_556 S
C262 C261 1.523 . S
C263 C247 1.429 . S
C263 C259 1.429 1_556 S
C263 C264 1.523 . S
C264 C248 1.368 1_556 S
C264 C260 1.368 . S
C264 C263 1.523 . S
H265 C240 0.950 . S
H266 C242 0.950 . S
H267 C243 0.949 . S
H268 C245 0.950 . S
H269 C247 0.950 . S
C270 C271 1.349 . S
C270 C272 1.327 . S
C270 H295 0.950 . S
C271 C270 1.349 . S
C271 C287 1.349 1_556 S
C272 C270 1.327 . S
C272 C291 1.429 . S
C272 H296 0.950 . S
C273 C290 1.574 . S
C273 C292 1.368 1_554 S
C273 H297 0.949 . S
H274 C278 0.949 . S
C275 C276 1.345 1_554 S
C275 C277 1.327 . S
C275 H298 0.950 . S
C276 C275 1.345 1_556 S
C276 C288 1.354 . S
C277 C275 1.327 . S
C277 C293 1.417 1_554 S
C277 H299 0.950 . S
C278 H274 0.949 . S
C278 C286 1.574 . S
C278 C294 1.368 . S
H279 C287 0.950 . S
H280 C285 0.950 . S
H281 C286 0.949 . S
H282 C288 0.950 . S
H283 C289 0.950 . S
H284 C290 0.949 . S
C285 H280 0.950 . S
C285 C287 1.327 . S
C285 C291 1.429 1_554 S
C286 C278 1.574 . S
C286 H281 0.949 . S
C286 C292 1.368 . S
C287 C271 1.349 1_554 S
C287 H279 0.950 . S
C287 C285 1.327 . S
C288 C276 1.354 . S
C288 H282 0.950 . S
C288 C289 1.327 . S
C289 H283 0.950 . S
C289 C288 1.327 . S
C289 C293 1.439 . S
C290 C273 1.574 . S
C290 H284 0.949 . S
C290 C294 1.368 1_554 S
C291 C272 1.429 . S
C291 C285 1.429 1_556 S
C291 C292 1.523 . S
C292 C273 1.368 1_556 S
C292 C286 1.368 . S
C292 C291 1.523 . S
C293 C277 1.417 1_556 S
C293 C289 1.439 . S
C293 C294 1.525 . S
C294 C278 1.368 . S
C294 C290 1.368 1_556 S
C294 C293 1.525 . S
H295 C270 0.950 . S
H296 C272 0.950 . S
H297 C273 0.949 . S
H298 C275 0.950 . S
H299 C277 0.950 . S
C300 C301 1.349 1_556 S
C300 C302 1.327 . S
C300 H325 0.950 . S
C301 C300 1.349 1_554 S
C301 C317 1.349 . S
C302 C300 1.327 . S
C302 C321 1.429 1_556 S
C302 H326 0.950 . S
C303 C320 1.574 . S
C303 C322 1.368 . S
C303 H327 0.949 . S
H304 C308 0.949 . S
C305 C306 1.349 . S
C305 C307 1.327 . S
C305 H328 0.950 . S
C306 C305 1.349 . S
C306 C318 1.349 1_554 S
C307 C305 1.327 . S
C307 C323 1.429 . S
C307 H329 0.950 . S
C308 H304 0.949 . S
C308 C316 1.574 . S
C308 C324 1.368 1_556 S
H309 C317 0.950 . S
H310 C315 0.950 . S
H311 C316 0.949 . S
H312 C318 0.950 . S
H313 C319 0.950 . S
H314 C320 0.949 . S
C315 H310 0.950 . S
C315 C317 1.327 . S
C315 C321 1.429 . S
C316 C308 1.574 . S
C316 H311 0.949 . S
C316 C322 1.368 1_556 S
C317 C301 1.349 . S
C317 H309 0.950 . S
C317 C315 1.327 . S
C318 C306 1.349 1_556 S
C318 H312 0.950 . S
C318 C319 1.327 . S
C319 H313 0.950 . S
C319 C318 1.327 . S
C319 C323 1.429 1_556 S
C320 C303 1.574 . S
C320 H314 0.949 . S
C320 C324 1.368 . S
C321 C302 1.429 1_554 S
C321 C315 1.429 . S
C321 C322 1.523 . S
C322 C303 1.368 . S
C322 C316 1.368 1_554 S
C322 C321 1.523 . S
C323 C307 1.429 . S
C323 C319 1.429 1_554 S
C323 C324 1.523 . S
C324 C308 1.368 1_554 S
C324 C320 1.368 . S
C324 C323 1.523 . S
H325 C300 0.950 . S
H326 C302 0.950 . S
H327 C303 0.949 . S
H328 C305 0.950 . S
H329 C307 0.950 . S
C330 C331 1.349 . S
C330 C332 1.327 . S
C330 H355 0.950 . S
C331 C330 1.349 . S
C331 C347 1.349 1_554 S
C332 C330 1.327 . S
C332 C351 1.429 . S
C332 H356 0.950 . S
C333 C350 1.574 . S
C333 C352 1.368 1_556 S
C333 H357 0.949 . S
H334 C338 0.949 . S
C335 C336 1.349 1_556 S
C335 C337 1.327 . S
C335 H358 0.950 . S
C336 C335 1.349 1_554 S
C336 C348 1.349 . S
C337 C335 1.327 . S
C337 C353 1.429 1_556 S
C337 H359 0.950 . S
C338 H334 0.949 . S
C338 C346 1.574 . S
C338 C354 1.368 . S
H339 C347 0.950 . S
H340 C345 0.950 . S
H341 C346 0.949 . S
H342 C348 0.950 . S
H343 C349 0.950 . S
H344 C350 0.949 . S
C345 H340 0.950 . S
C345 C347 1.327 . S
C345 C351 1.429 1_556 S
C346 C338 1.574 . S
C346 H341 0.949 . S
C346 C352 1.368 . S
C347 C331 1.349 1_556 S
C347 H339 0.950 . S
C347 C345 1.327 . S
C348 C336 1.349 . S
C348 H342 0.950 . S
C348 C349 1.327 . S
C349 H343 0.950 . S
C349 C348 1.327 . S
C349 C353 1.429 . S
C350 C333 1.574 . S
C350 H344 0.949 . S
C350 C354 1.368 1_556 S
C351 C332 1.429 . S
C351 C345 1.429 1_554 S
C351 C352 1.523 . S
C352 C333 1.368 1_554 S
C352 C346 1.368 . S
C352 C351 1.523 . S
C353 C337 1.429 1_554 S
C353 C349 1.429 . S
C353 C354 1.523 . S
C354 C338 1.368 . S
C354 C350 1.368 1_554 S
C354 C353 1.523 . S
H355 C330 0.950 . S
H356 C332 0.950 . S
H357 C333 0.949 . S
H358 C335 0.950 . S
H359 C337 0.950 . S
C360 C361 1.342 1_556 S
C360 C362 1.327 . S
C360 H385 0.950 . S
C361 C360 1.342 1_554 S
C361 C377 1.357 . S
C362 C360 1.327 . S
C362 C381 1.429 1_556 S
C362 H386 0.950 . S
C363 C380 1.574 . S
C363 C382 1.368 . S
C363 H387 0.949 . S
H364 C368 0.949 . S
C365 C366 1.349 . S
C365 C367 1.327 . S
C365 H388 0.950 . S
C366 C365 1.349 . S
C366 C378 1.349 1_554 S
C367 C365 1.327 . S
C367 C383 1.429 . S
C367 H389 0.950 . S
C368 H364 0.949 . S
C368 C376 1.574 . S
C368 C384 1.368 1_556 S
H369 C377 0.950 . S
H370 C375 0.950 . S
H371 C376 0.949 . S
H372 C378 0.950 . S
H373 C379 0.950 . S
H374 C380 0.949 . S
C375 H370 0.950 . S
C375 C377 1.327 . S
C375 C381 1.429 . S
C376 C368 1.574 . S
C376 H371 0.949 . S
C376 C382 1.368 1_556 S
C377 C361 1.357 . S
C377 H369 0.950 . S
C377 C375 1.327 . S
C378 C366 1.349 1_556 S
C378 H372 0.950 . S
C378 C379 1.327 . S
C379 H373 0.950 . S
C379 C378 1.327 . S
C379 C383 1.429 1_556 S
C380 C363 1.574 . S
C380 H374 0.949 . S
C380 C384 1.368 . S
C381 C362 1.429 1_554 S
C381 C375 1.429 . S
C381 C382 1.523 . S
C382 C363 1.368 . S
C382 C376 1.368 1_554 S
C382 C381 1.523 . S
C383 C367 1.429 . S
C383 C379 1.429 1_554 S
C383 C384 1.523 . S
C384 C368 1.368 1_554 S
C384 C380 1.368 . S
C384 C383 1.523 . S
H385 C360 0.950 . S
H386 C362 0.950 . S
H387 C363 0.949 . S
H388 C365 0.950 . S
H389 C367 0.950 . S
C121 C9 1.452 . S
C126 C18 1.452 1_655 S
C151 C49 1.451 . S
C156 C58 1.448 . S
C181 C98 1.453 . S
C186 C89 1.453 . S
C211 C19 2.601 1_556 S
C216 C90 2.566 1_556 S
C241 C46 0.847 . S
C246 C6 0.846 . S
C271 C59 1.912 . S
C276 C86 1.889 1_556 S
C301 C10 2.601 1_554 S
C306 C99 2.566 1_554 S
C331 C15 0.846 . S
C336 C55 0.847 . S
C361 C95 1.889 1_554 S
C366 C50 1.913 . S
