# Generated by pormake.
# Topology smb, (6)-cn, num edge types: 1
# Building blocks:
#     Node 0, Type 0, BuildingBlock: OJICUG_clean_sbu_0, # of connection points: 6
#     Node 1, Type 0, BuildingBlock: OJICUG_clean_sbu_0, # of connection points: 6
#     Node 2, Type 0, BuildingBlock: OJICUG_clean_sbu_0, # of connection points: 6
#     Node 3, Type 0, BuildingBlock: OJICUG_clean_sbu_0, # of connection points: 6
#     Node 4, Type 0, BuildingBlock: OJICUG_clean_sbu_0, # of connection points: 6
#     Node 5, Type 0, BuildingBlock: OJICUG_clean_sbu_0, # of connection points: 6
#     Node 6, Type 0, BuildingBlock: OJICUG_clean_sbu_0, # of connection points: 6
#     Node 7, Type 0, BuildingBlock: OJICUG_clean_sbu_0, # of connection points: 6
#     Node 8, Type 0, BuildingBlock: OJICUG_clean_sbu_0, # of connection points: 6
#     Edge 9, Type (0, 0), BuildingBlock: XUDNAN_clean_linker_2, # of connection points: 2
#     Edge 10, Type (0, 0), BuildingBlock: XUDNAN_clean_linker_2, # of connection points: 2
#     Edge 11, Type (0, 0), BuildingBlock: XUDNAN_clean_linker_2, # of connection points: 2
#     Edge 12, Type (0, 0), BuildingBlock: XUDNAN_clean_linker_2, # of connection points: 2
#     Edge 13, Type (0, 0), BuildingBlock: XUDNAN_clean_linker_2, # of connection points: 2
#     Edge 14, Type (0, 0), BuildingBlock: XUDNAN_clean_linker_2, # of connection points: 2
#     Edge 15, Type (0, 0), BuildingBlock: XUDNAN_clean_linker_2, # of connection points: 2
#     Edge 16, Type (0, 0), BuildingBlock: XUDNAN_clean_linker_2, # of connection points: 2
#     Edge 17, Type (0, 0), BuildingBlock: XUDNAN_clean_linker_2, # of connection points: 2
#     Edge 18, Type (0, 0), BuildingBlock: XUDNAN_clean_linker_2, # of connection points: 2
#     Edge 19, Type (0, 0), BuildingBlock: XUDNAN_clean_linker_2, # of connection points: 2
#     Edge 20, Type (0, 0), BuildingBlock: XUDNAN_clean_linker_2, # of connection points: 2
#     Edge 21, Type (0, 0), BuildingBlock: XUDNAN_clean_linker_2, # of connection points: 2
#     Edge 22, Type (0, 0), BuildingBlock: XUDNAN_clean_linker_2, # of connection points: 2
#     Edge 23, Type (0, 0), BuildingBlock: XUDNAN_clean_linker_2, # of connection points: 2
#     Edge 24, Type (0, 0), BuildingBlock: XUDNAN_clean_linker_2, # of connection points: 2
#     Edge 25, Type (0, 0), BuildingBlock: XUDNAN_clean_linker_2, # of connection points: 2
#     Edge 26, Type (0, 0), BuildingBlock: XUDNAN_clean_linker_2, # of connection points: 2
#     Edge 27, Type (0, 0), BuildingBlock: XUDNAN_clean_linker_2, # of connection points: 2
#     Edge 28, Type (0, 0), BuildingBlock: XUDNAN_clean_linker_2, # of connection points: 2
#     Edge 29, Type (0, 0), BuildingBlock: XUDNAN_clean_linker_2, # of connection points: 2
#     Edge 30, Type (0, 0), BuildingBlock: XUDNAN_clean_linker_2, # of connection points: 2
#     Edge 31, Type (0, 0), BuildingBlock: XUDNAN_clean_linker_2, # of connection points: 2
#     Edge 32, Type (0, 0), BuildingBlock: XUDNAN_clean_linker_2, # of connection points: 2
#     Edge 33, Type (0, 0), BuildingBlock: XUDNAN_clean_linker_2, # of connection points: 2
#     Edge 34, Type (0, 0), BuildingBlock: XUDNAN_clean_linker_2, # of connection points: 2
#     Edge 35, Type (0, 0), BuildingBlock: XUDNAN_clean_linker_2, # of connection points: 2
# Relax obj value: 0.341
# Max RMSD: 0.254
# Mean RMSD: 0.254
data_MOF--net-smb--node1-OJICUG_clean_sbu_0--edge1-XUDNAN_clean_linker_2
_symmetry_space_group_name_H-M    P1
_symmetry_Int_Tables_number       1
_symmetry_cell_setting            triclinic
loop_
_symmetry_equiv_pos_as_xyz
'x, y, z'
_cell_length_a     40.291007
_cell_length_b     40.374317
_cell_length_c     28.485179
_cell_angle_alpha  90.295146
_cell_angle_beta   89.520821
_cell_angle_gamma 120.28867
loop_
_atom_site_label
_atom_site_type_symbol
_atom_site_fract_x
_atom_site_fract_y
_atom_site_fract_z
_atom_type_partial_charge
Sc0 Sc 0.33865 0.15588 0.01024 0.0
Sc1 Sc 0.416 0.19536 0.92905 0.0
Sc2 Sc 0.43408 0.20191 0.05008 0.0
O3 O 0.39622 0.18434 -0.00352 0.0
C4 C 0.36982 0.21885 0.09033 0.0
C5 C 0.34601 0.21056 0.92597 0.0
C6 C 0.47213 0.2736 0.98075 0.0
C7 C 0.34703 0.10969 0.92392 0.0
C8 C 0.36924 0.11961 0.08458 0.0
C9 C 0.47586 0.17592 0.97554 0.0
O10 O 0.34322 0.19646 0.06278 0.0
O11 O 0.37657 0.2137 0.90873 0.0
O12 O 0.46753 0.25873 0.02129 0.0
O13 O 0.32869 0.11237 0.95896 0.0
O14 O 0.40386 0.14687 0.083 0.0
O15 O 0.45857 0.17905 0.94029 0.0
O16 O 0.34207 0.11907 0.06179 0.0
O17 O 0.37828 0.13752 0.90861 0.0
O18 O 0.47 0.18339 0.01705 0.0
O19 O 0.32906 0.19041 0.96179 0.0
O20 O 0.40301 0.2225 0.09006 0.0
O21 O 0.45585 0.25417 0.94425 0.0
Sc22 Sc 0.83234 0.15644 0.01881 0.0
Sc23 Sc 0.79653 0.19503 0.93535 0.0
Sc24 Sc 0.7825 0.20237 0.05596 0.0
O25 O 0.8039 0.18476 0.0033 0.0
C26 C 0.76257 0.12015 0.09089 0.0
C27 C 0.77866 0.10891 0.93366 0.0
C28 C 0.71612 0.1757 0.97966 0.0
C29 C 0.88195 0.21074 0.93421 0.0
C30 C 0.86351 0.21967 0.09727 0.0
C31 C 0.81731 0.27364 0.98681 0.0
O32 O 0.79124 0.12061 0.07145 0.0
O33 O 0.77747 0.13681 0.91499 0.0
O34 O 0.72903 0.18492 0.02108 0.0
O35 O 0.87729 0.18948 0.9692 0.0
O36 O 0.83328 0.22215 0.09787 0.0
O37 O 0.81398 0.25399 0.9502 0.0
O38 O 0.86854 0.19817 0.06916 0.0
O39 O 0.8553 0.21488 0.91723 0.0
O40 O 0.80776 0.25911 0.02763 0.0
O41 O 0.79788 0.11207 0.97018 0.0
O42 O 0.755 0.14691 0.08712 0.0
O43 O 0.73693 0.17715 0.94516 0.0
Sc44 Sc 0.82878 0.64396 0.01127 0.0
Sc45 Sc 0.79232 0.56562 0.93231 0.0
Sc46 Sc 0.77989 0.54915 0.05358 0.0
O47 O 0.80043 0.58632 -0.00096 0.0
C48 C 0.86005 0.61481 0.09371 0.0
C49 C 0.87835 0.6347 0.93023 0.0
C50 C 0.8129 0.50942 0.98643 0.0
C51 C 0.77772 0.63534 0.92162 0.0
C52 C 0.75856 0.61239 0.08273 0.0
C53 C 0.71219 0.50824 0.97962 0.0
O54 O 0.86376 0.64098 0.06598 0.0
O55 O 0.85102 0.60382 0.91364 0.0
O56 O 0.80393 0.51571 0.02706 0.0
O57 O 0.79718 0.65354 0.95741 0.0
O58 O 0.75361 0.57878 0.08367 0.0
O59 O 0.73261 0.52537 0.94395 0.0
O60 O 0.78549 0.64 0.05998 0.0
O61 O 0.77432 0.60387 0.90803 0.0
O62 O 0.72586 0.51291 0.02063 0.0
O63 O 0.87458 0.65279 0.96453 0.0
O64 O 0.83112 0.58115 0.09347 0.0
O65 O 0.8091 0.52456 0.94943 0.0
Sc66 Sc -0.00014 0.48842 0.35595 0.0
Sc67 Sc 0.08859 0.53368 0.2941 0.0
Sc68 Sc 0.08644 0.53543 0.41778 0.0
O69 O 0.05834 0.5192 0.35583 0.0
C70 C 0.01663 0.5494 0.43594 0.0
C71 C 0.01904 0.54731 0.27165 0.0
C72 C 0.13688 0.60952 0.35471 0.0
C73 C 0.02138 0.44822 0.27441 0.0
C74 C 0.01886 0.45087 0.44106 0.0
C75 C 0.13745 0.51003 0.35891 0.0
O76 O -0.00587 0.52499 0.4064 0.0
O77 O 0.05271 0.55331 0.26337 0.0
O78 O 0.12492 0.59259 0.39386 0.0
O79 O -0.00089 0.44919 0.30536 0.0
O80 O 0.05123 0.48035 0.44896 0.0
O81 O 0.12768 0.51602 0.31891 0.0
O82 O -0.00323 0.44867 0.40826 0.0
O83 O 0.05449 0.47665 0.26546 0.0
O84 O 0.12503 0.51585 0.39739 0.0
O85 O -0.00281 0.52443 0.30323 0.0
O86 O 0.05053 0.55638 0.44338 0.0
O87 O 0.12675 0.59218 0.31552 0.0
Sc88 Sc 0.49754 0.49462 0.34547 0.0
Sc89 Sc 0.44688 0.53057 0.28336 0.0
Sc90 Sc 0.45229 0.53703 0.40652 0.0
O91 O 0.46558 0.52075 0.34508 0.0
C92 C 0.44138 0.45514 0.43177 0.0
C93 C 0.43455 0.44761 0.26667 0.0
C94 C 0.37436 0.50606 0.35072 0.0
C95 C 0.53229 0.55068 0.25855 0.0
C96 C 0.53808 0.55774 0.4251 0.0
C97 C 0.47202 0.60781 0.33938 0.0
O98 O 0.4616 0.45383 0.39815 0.0
O99 O 0.425 0.47271 0.25967 0.0
O100 O 0.39308 0.51256 0.38851 0.0
O101 O 0.5357 0.53278 0.2929 0.0
O102 O 0.50959 0.56249 0.4314 0.0
O103 O 0.46702 0.58923 0.30146 0.0
O104 O 0.53814 0.53379 0.39612 0.0
O105 O 0.5015 0.55045 0.24877 0.0
O106 O 0.4663 0.59254 0.3798 0.0
O107 O 0.4613 0.4528 0.29446 0.0
O108 O 0.43707 0.48376 0.43951 0.0
O109 O 0.39004 0.51258 0.31032 0.0
Sc110 Sc 0.49581 0.98682 0.35227 0.0
Sc111 Sc 0.45077 0.90053 0.28685 0.0
Sc112 Sc 0.4529 0.89815 0.41015 0.0
O113 O 0.46644 0.92848 0.34973 0.0
C114 C 0.53605 0.96656 0.43324 0.0
C115 C 0.53601 0.96862 0.26808 0.0
C116 C 0.47621 0.84942 0.34306 0.0
C117 C 0.43494 0.96849 0.27076 0.0
C118 C 0.43807 0.96689 0.43645 0.0
C119 C 0.37677 0.84971 0.35094 0.0
O120 O 0.5348 0.99054 0.40589 0.0
O121 O 0.5063 0.93765 0.25572 0.0
O122 O 0.46894 0.858 0.38337 0.0
O123 O 0.45979 0.99064 0.30019 0.0
O124 O 0.43554 0.93466 0.44383 0.0
O125 O 0.3935 0.85961 0.31116 0.0
O126 O 0.45739 0.98889 0.4029 0.0
O127 O 0.42786 0.93478 0.2619 0.0
O128 O 0.39431 0.86206 0.38958 0.0
O129 O 0.53686 0.98906 0.30252 0.0
O130 O 0.5097 0.93176 0.43669 0.0
O131 O 0.47199 0.86334 0.30527 0.0
Sc132 Sc 0.67001 0.82651 0.67867 0.0
Sc133 Sc 0.75267 0.87783 0.60662 0.0
Sc134 Sc 0.76141 0.87777 0.72929 0.0
O135 O 0.728 0.86068 0.67149 0.0
C136 C 0.68982 0.88405 0.7637 0.0
C137 C 0.67995 0.88817 0.60188 0.0
C138 C 0.80289 0.95332 0.66709 0.0
C139 C 0.68787 0.79145 0.58778 0.0
C140 C 0.69978 0.79114 0.7549 0.0
C141 C 0.80909 0.85658 0.65778 0.0
O142 O 0.66574 0.85915 0.73582 0.0
O143 O 0.71264 0.89526 0.58686 0.0
O144 O 0.79473 0.93576 0.70597 0.0
O145 O 0.66726 0.78969 0.62268 0.0
O146 O 0.73142 0.82221 0.75995 0.0
O147 O 0.79457 0.86175 0.62115 0.0
O148 O 0.67441 0.78703 0.72551 0.0
O149 O 0.71886 0.82167 0.57677 0.0
O150 O 0.80072 0.86213 0.69912 0.0
O151 O 0.66099 0.86368 0.63365 0.0
O152 O 0.72518 0.89434 0.76441 0.0
O153 O 0.79071 0.93638 0.62799 0.0
Sc154 Sc 0.15863 0.82454 0.66925 0.0
Sc155 Sc 0.1158 0.86626 0.60294 0.0
Sc156 Sc 0.10796 0.86219 0.72538 0.0
O157 O 0.1277 0.85132 0.66579 0.0
C158 C 0.09542 0.78108 0.74777 0.0
C159 C 0.10085 0.78205 0.58665 0.0
C160 C 0.03749 0.83801 0.65611 0.0
C161 C 0.20099 0.88615 0.58773 0.0
C162 C 0.19224 0.88004 0.754 0.0
C163 C 0.13546 0.93852 0.66842 0.0
O164 O 0.12535 0.78681 0.72584 0.0
O165 O 0.10183 0.812 0.57101 0.0
O166 O 0.05322 0.84783 0.69615 0.0
O167 O 0.19703 0.85908 0.61409 0.0
O168 O 0.16002 0.87758 0.7625 0.0
O169 O 0.12746 0.92168 0.6287 0.0
O170 O 0.19857 0.86562 0.71771 0.0
O171 O 0.17457 0.89388 0.58139 0.0
O172 O 0.13231 0.92135 0.70692 0.0
O173 O 0.11898 0.78172 0.62266 0.0
O174 O 0.08262 0.80402 0.74717 0.0
O175 O 0.05604 0.84052 0.61889 0.0
Sc176 Sc 0.16703 0.32076 0.67621 0.0
Sc177 Sc 0.12037 0.23431 0.61025 0.0
Sc178 Sc 0.12034 0.23212 0.7338 0.0
O179 O 0.13599 0.26239 0.67336 0.0
C180 C 0.20594 0.29821 0.75587 0.0
C181 C 0.20587 0.30097 0.59032 0.0
C182 C 0.14268 0.18159 0.66933 0.0
C183 C 0.10563 0.30413 0.59661 0.0
C184 C 0.10932 0.30208 0.76149 0.0
C185 C 0.04482 0.18615 0.67191 0.0
O186 O 0.20804 0.32176 0.72503 0.0
O187 O 0.17737 0.268 0.58162 0.0
O188 O 0.13807 0.19344 0.7088 0.0
O189 O 0.12819 0.32453 0.62904 0.0
O190 O 0.10159 0.2677 0.76539 0.0
O191 O 0.06186 0.19713 0.63249 0.0
O192 O 0.1328 0.32548 0.73159 0.0
O193 O 0.10151 0.27213 0.58349 0.0
O194 O 0.06228 0.19596 0.7109 0.0
O195 O 0.20506 0.3231 0.62159 0.0
O196 O 0.17637 0.26565 0.76301 0.0
O197 O 0.13648 0.19275 0.63041 0.0
H198 H 0.27694 0.04487 0.93626 0.0
H199 H 0.3849 0.08975 0.85987 0.0
H200 H 0.36044 0.02771 0.81991 0.0
H201 H 0.25561 0.94278 0.94502 0.0
H202 H 0.20505 0.92439 0.93591 0.0
H203 H 0.2336 0.9695 0.96579 0.0
H204 H 0.21218 0.00319 0.90583 0.0
H205 H 0.18334 0.95826 0.87646 0.0
H206 H 0.21927 -0.00099 0.84397 0.0
H207 H 0.3216 0.9659 0.77916 0.0
H208 H 0.26942 0.91161 0.73642 0.0
H209 H 0.18732 0.90598 0.84037 0.0
C210 C 0.29575 0.04139 0.91192 0.0
C211 C 0.33269 0.07213 0.90114 0.0
C212 C 0.35629 0.06664 0.86853 0.0
C213 C 0.3429 0.03133 0.84608 0.0
C214 C 0.30607 0.00172 0.85696 0.0
C215 C 0.28281 0.00638 0.88912 0.0
C216 C 0.24263 0.97209 0.8897 0.0
C217 C 0.23372 0.95094 0.93692 0.0
C218 C 0.21263 0.98386 0.87827 0.0
C219 C 0.24631 0.94862 0.8507 0.0
C220 C 0.2834 0.96558 0.8332 0.0
C221 C 0.29263 0.95174 0.79321 0.0
C222 C 0.26281 0.92087 0.76916 0.0
C223 C 0.22436 0.90481 0.78503 0.0
C224 C 0.21649 0.91761 0.82758 0.0
H225 H 0.9036 0.23278 0.8433 0.0
H226 H 0.94816 0.24313 0.98398 0.0
H227 H 0.01405 0.28508 0.95418 0.0
H228 H 0.9729 0.22022 0.79003 0.0
H229 H 0.9759 0.24552 0.73675 0.0
H230 H 0.93231 0.22375 0.77071 0.0
H231 H 0.93543 0.28948 0.77562 0.0
H232 H 0.97973 0.31165 0.74236 0.0
H233 H 0.97764 0.3305 0.79912 0.0
H234 H 0.07426 0.31672 0.9093 0.0
H235 H 0.1242 0.32633 0.85132 0.0
H236 H 0.04216 0.29595 0.73916 0.0
C237 C 0.92728 0.2446 0.86779 0.0
C238 C 0.92106 0.23496 0.91577 0.0
C239 C 0.95255 0.25006 0.94692 0.0
C240 C 0.98994 0.27442 0.93047 0.0
C241 C -0.0047 0.2833 0.88282 0.0
C242 C 0.96489 0.26842 0.85176 0.0
C243 C 0.97887 0.27684 0.80143 0.0
C244 C 0.96416 0.23938 0.77311 0.0
C245 C 0.96722 0.30373 0.77828 0.0
C246 C 0.02186 0.29697 0.80898 0.0
C247 C 0.03077 0.30166 0.85629 0.0
C248 C 0.06795 0.31442 0.87218 0.0
C249 C 0.09624 0.32016 0.83912 0.0
C250 C 0.08692 0.31308 0.79113 0.0
C251 C 0.05002 0.30329 0.77562 0.0
H252 H 0.73168 0.79398 0.83887 0.0
H253 H 0.65881 0.71477 0.73131 0.0
H254 H 0.66481 0.66287 0.76887 0.0
H255 H 0.79724 0.76624 0.8385 0.0
H256 H 0.80719 0.77152 0.90052 0.0
H257 H 0.78997 0.79977 0.87273 0.0
H258 H 0.7325 0.77407 0.93099 0.0
H259 H 0.75005 0.74635 0.95994 0.0
H260 H 0.70152 0.72305 0.93823 0.0
H261 H 0.68903 0.62403 0.80893 0.0
H262 H 0.72459 0.59918 0.85216 0.0
H263 H 0.78266 0.70514 0.93228 0.0
C264 C 0.71585 0.76536 0.82414 0.0
C265 C 0.69477 0.75819 0.78234 0.0
C266 C 0.6747 0.7206 0.76373 0.0
C267 C 0.6781 0.69107 0.78472 0.0
C268 C 0.70115 0.69978 0.82443 0.0
C269 C 0.71907 0.73589 0.84445 0.0
C270 C 0.74576 0.7394 0.88357 0.0
C271 C 0.78748 0.77109 0.87316 0.0
C272 C 0.73159 0.7461 0.931 0.0
C273 C 0.74143 0.70011 0.88122 0.0
C274 C 0.71528 0.67749 0.84732 0.0
C275 C 0.70892 0.64116 0.83623 0.0
C276 C 0.72959 0.6275 0.86071 0.0
C277 C 0.75647 0.65027 0.89569 0.0
C278 C 0.76212 0.68691 0.90611 0.0
H279 H 0.02797 0.71902 0.72734 0.0
H280 H 0.11498 0.77052 0.83437 0.0
H281 H 0.06915 0.7259 0.8933 0.0
H282 H 0.95933 0.71715 0.78496 0.0
H283 H 0.91938 0.67177 0.76662 0.0
H284 H 0.961 0.69609 0.72962 0.0
H285 H 0.97006 0.63707 0.72909 0.0
H286 H 0.92738 0.61162 0.76492 0.0
H287 H 0.97196 0.61588 0.78382 0.0
H288 H 0.01117 0.69403 0.94213 0.0
H289 H 0.94634 0.6681 0.97673 0.0
H290 H 0.89616 0.63416 0.83838 0.0
C291 C 0.03777 0.71884 0.76259 0.0
C292 C 0.07467 0.74712 0.77675 0.0
C293 C 0.08686 0.74804 0.8232 0.0
C294 C 0.061 0.72291 0.85675 0.0
C295 C 0.02357 0.69695 0.84264 0.0
C296 C 0.01226 0.69378 0.79622 0.0
C297 C 0.96919 0.66854 0.79139 0.0
C298 C 0.95123 0.68969 0.76675 0.0
C299 C 0.95906 0.63104 0.76581 0.0
C300 C 0.95773 0.66133 0.84253 0.0
C301 C 0.9895 0.67731 0.87153 0.0
C302 C 0.98608 0.67998 0.91996 0.0
C303 C 0.94932 0.66582 0.9392 0.0
C304 C 0.91666 0.64913 0.90997 0.0
C305 C 0.92086 0.64612 0.86133 0.0
H306 H 0.26176 0.28389 0.73082 0.0
H307 H 0.22129 0.32649 0.84399 0.0
H308 H 0.2635 0.31844 0.8994 0.0
H309 H 0.25527 0.21103 0.78802 0.0
H310 H 0.29717 0.21112 0.76518 0.0
H311 H 0.27465 0.2316 0.73127 0.0
H312 H 0.33851 0.29658 0.72641 0.0
H313 H 0.36184 0.27598 0.75911 0.0
H314 H 0.36407 0.31941 0.77949 0.0
H315 H 0.29389 0.28942 0.94422 0.0
H316 H 0.31847 0.24905 0.97536 0.0
H317 H 0.34102 0.22553 0.8336 0.0
C318 C 0.26398 0.29388 0.76667 0.0
C319 C 0.23966 0.30698 0.78335 0.0
C320 C 0.24095 0.31767 0.83078 0.0
C321 C 0.26465 0.31298 0.86236 0.0
C322 C 0.28667 0.29763 0.84559 0.0
C323 C 0.28731 0.28904 0.79858 0.0
C324 C 0.30835 0.26718 0.79088 0.0
C325 C 0.28229 0.22794 0.76749 0.0
C326 C 0.3454 0.29123 0.76229 0.0
C327 C 0.31717 0.26262 0.84112 0.0
C328 C 0.30479 0.28076 0.87202 0.0
C329 C 0.30492 0.27622 0.92043 0.0
C330 C 0.31837 0.25284 0.93773 0.0
C331 C 0.33166 0.23452 0.90668 0.0
C332 C 0.33162 0.23993 0.85789 0.0
H333 H 0.69416 0.94989 0.74069 0.0
H334 H 0.66535 0.86882 0.85385 0.0
H335 H 0.67185 0.9179 0.91093 0.0
H336 H 0.76753 0.01894 0.78968 0.0
H337 H 0.76358 0.05926 0.77043 0.0
H338 H 0.74184 0.01584 0.73673 0.0
H339 H 0.67527 0.01085 0.74316 0.0
H340 H 0.69708 0.05523 0.77579 0.0
H341 H 0.65642 0.01291 0.80004 0.0
H342 H 0.70128 0.97757 0.95505 0.0
H343 H 0.744 0.04304 0.98417 0.0
H344 H 0.75561 0.08761 0.84301 0.0
C345 C 0.68656 0.94205 0.77718 0.0
C346 C 0.67816 0.90578 0.79333 0.0
C347 C 0.67054 0.89632 0.84124 0.0
C348 C 0.67435 0.92408 0.87373 0.0
C349 C 0.68582 0.96086 0.85731 0.0
C350 C 0.69093 0.96974 0.80991 0.0
C351 C 0.71071 0.01264 0.80198 0.0
C352 C 0.7481 0.02748 0.77304 0.0
C353 C 0.68322 0.02355 0.77889 0.0
C354 C 0.719 0.02659 0.85214 0.0
C355 C 0.70363 -0.00373 0.88348 0.0
C356 C 0.7123 0.00159 0.93109 0.0
C357 C 0.73714 0.03878 0.94713 0.0
C358 C 0.75307 0.07014 0.9156 0.0
C359 C 0.74327 0.06405 0.86776 0.0
H360 H 0.85864 0.24922 0.18088 0.0
H361 H 0.94036 0.25134 0.07921 0.0
H362 H -0.0069 0.30663 0.12046 0.0
H363 H 0.8934 0.34354 0.1857 0.0
H364 H 0.88599 0.34695 0.24762 0.0
H365 H 0.85641 0.30272 0.2171 0.0
H366 H 0.87585 0.26631 0.27528 0.0
H367 H 0.90505 0.31045 0.30676 0.0
H368 H 0.92602 0.28304 0.28505 0.0
H369 H 0.03391 0.36924 0.1631 0.0
H370 H 0.06001 0.42993 0.20799 0.0
H371 H 0.95075 0.38447 0.28155 0.0
C372 C 0.88784 0.26049 0.16834 0.0
C373 C 0.89559 0.24621 0.12712 0.0
C374 C 0.934 0.26173 0.11122 0.0
C375 C 0.96409 0.29315 0.13433 0.0
C376 C 0.95519 0.3079 0.17368 0.0
C377 C 0.91805 0.29143 0.19117 0.0
C378 C 0.91505 0.31468 0.23081 0.0
C379 C 0.88602 0.32774 0.21958 0.0
C380 C 0.90491 0.29228 0.27723 0.0
C381 C 0.95572 0.34797 0.23108 0.0
C382 C 0.97874 0.34353 0.19847 0.0
C383 C 0.01644 0.37262 0.18962 0.0
C384 C 0.03091 0.40706 0.21495 0.0
C385 C 0.00747 0.41198 0.24833 0.0
C386 C 0.96966 0.38169 0.25666 0.0
H387 H 0.54791 0.52925 0.17531 0.0
H388 H 0.59328 0.62035 0.27854 0.0
H389 H 0.65528 0.65348 0.23524 0.0
H390 H 0.62676 0.52081 0.16818 0.0
H391 H 0.62452 0.51064 0.10622 0.0
H392 H 0.58138 0.49913 0.13799 0.0
H393 H 0.56762 0.54011 0.08031 0.0
H394 H 0.61069 0.5514 0.04791 0.0
H395 H 0.60382 0.58946 0.07 0.0
H396 H 0.71472 0.67135 0.18743 0.0
H397 H 0.76706 0.67002 0.14218 0.0
H398 H 0.68274 0.56538 0.0735 0.0
C399 C 0.57052 0.55695 0.18744 0.0
C400 C 0.56613 0.57304 0.22915 0.0
C401 C 0.5964 0.60835 0.2458 0.0
C402 C 0.63148 0.6273 0.22143 0.0
C403 C 0.63554 0.61029 0.18074 0.0
C404 C 0.60576 0.57588 0.16382 0.0
C405 C 0.61893 0.56062 0.1237 0.0
C406 C 0.61253 0.52046 0.13475 0.0
C407 C 0.59909 0.56041 0.07776 0.0
C408 C 0.66111 0.59059 0.12248 0.0
C409 C 0.67009 0.61969 0.15451 0.0
C410 C 0.70796 0.64909 0.16166 0.0
C411 C 0.73744 0.64816 0.13603 0.0
C412 C 0.72856 0.6175 0.10493 0.0
C413 C 0.69001 0.58907 0.09731 0.0
H414 H 0.38816 0.06593 0.066 0.0
H415 H 0.33479 0.10289 0.17 0.0
H416 H 0.33531 0.05727 0.22733 0.0
H417 H 0.34093 0.96099 0.10868 0.0
H418 H 0.38435 0.96023 0.09531 0.0
H419 H 0.37068 0.98818 0.05969 0.0
H420 H 0.43712 0.04846 0.07485 0.0
H421 H 0.45076 0.02114 0.11111 0.0
H422 H 0.45222 0.06343 0.13444 0.0
H423 H 0.35708 0.02223 0.27693 0.0
H424 H 0.39204 0.99369 0.31415 0.0
H425 H 0.42752 0.97528 0.17726 0.0
C426 C 0.37494 0.06283 0.10021 0.0
C427 C 0.36088 0.08696 0.11399 0.0
C428 C 0.34489 0.08373 0.15911 0.0
C429 C 0.3451 0.05798 0.19166 0.0
C430 C 0.36072 0.03548 0.17779 0.0
C431 C 0.37448 0.03691 0.13271 0.0
C432 C 0.39406 0.01343 0.12832 0.0
C433 C 0.37112 0.97863 0.09609 0.0
C434 C 0.436 0.03811 0.11121 0.0
C435 C 0.39195 0.00114 0.17877 0.0
C436 C 0.37211 0.01369 0.20662 0.0
C437 C 0.37134 0.01092 0.25538 0.0
C438 C 0.39149 -0.0049 0.2762 0.0
C439 C 0.41167 0.98203 0.24814 0.0
C440 C 0.41123 0.98422 0.19897 0.0
H441 H 0.6878 0.07751 0.07101 0.0
H442 H 0.77461 0.0882 0.16834 0.0
H443 H 0.72367 0.03939 0.21991 0.0
H444 H 0.62574 0.07587 0.14841 0.0
H445 H 0.58191 0.04101 0.12023 0.0
H446 H 0.62462 0.06871 0.08577 0.0
H447 H 0.62024 0.0066 0.05317 0.0
H448 H 0.57685 0.97844 0.08695 0.0
H449 H 0.61684 0.97059 0.09325 0.0
H450 H 0.66459 0.00391 0.2682 0.0
H451 H 0.60108 0.97812 0.30676 0.0
H452 H 0.55207 0.98675 0.17591 0.0
C453 C 0.69593 0.06822 0.10231 0.0
C454 C 0.7346 0.08594 0.11613 0.0
C455 C 0.74488 0.07419 0.15734 0.0
C456 C 0.71621 0.0466 0.1866 0.0
C457 C 0.67789 0.03076 0.17311 0.0
C458 C 0.66778 0.04044 0.13126 0.0
C459 C 0.62474 0.02296 0.12723 0.0
C460 C 0.61365 0.05399 0.12003 0.0
C461 C 0.60873 0.99285 0.08782 0.0
C462 C 0.61232 0.00437 0.1749 0.0
C463 C 0.64334 0.00871 0.2006 0.0
C464 C 0.6399 -0.001 0.24795 0.0
C465 C 0.60397 0.98475 0.2696 0.0
C466 C 0.57216 0.98015 0.24369 0.0
C467 C 0.57604 0.98914 0.19569 0.0
H468 H 0.9471 0.53736 0.27606 0.0
H469 H 0.05731 0.60428 0.20549 0.0
H470 H 0.03083 0.63783 0.16023 0.0
H471 H 0.89109 0.52115 0.17839 0.0
H472 H 0.85319 0.52347 0.20953 0.0
H473 H 0.88278 0.50913 0.23988 0.0
H474 H 0.90024 0.5633 0.30105 0.0
H475 H 0.87099 0.57815 0.27034 0.0
H476 H 0.92088 0.61221 0.28145 0.0
H477 H 0.98981 0.65939 0.11761 0.0
H478 H 0.9371 0.66195 0.07688 0.0
H479 H 0.8552 0.58065 0.17688 0.0
C480 C 0.96606 0.55945 0.25165 0.0
C481 C 0.00433 0.56822 0.24443 0.0
C482 C 0.02784 0.59704 0.21161 0.0
C483 C 0.01316 0.61648 0.18608 0.0
C484 C 0.97514 0.60691 0.19412 0.0
C485 C 0.95198 0.57891 0.22608 0.0
C486 C 0.91116 0.57091 0.22532 0.0
C487 C 0.88293 0.5287 0.21249 0.0
C488 C 0.90019 0.58181 0.27234 0.0
C489 C 0.91446 0.59781 0.1867 0.0
C490 C 0.95167 0.61902 0.16966 0.0
C491 C 0.96073 0.64344 0.1312 0.0
C492 C 0.9307 0.64492 0.10848 0.0
C493 C 0.89224 0.62159 0.12403 0.0
C494 C 0.88443 0.59904 0.16463 0.0
H495 H 0.4086 0.2528 0.17004 0.0
H496 H 0.3194 0.24501 0.07857 0.0
H497 H 0.32054 0.29923 0.12094 0.0
H498 H 0.37895 0.28511 0.27867 0.0
H499 H 0.42848 0.31639 0.29451 0.0
H500 H 0.41456 0.27228 0.26352 0.0
H501 H 0.46536 0.31067 0.19909 0.0
H502 H 0.47894 0.35484 0.2292 0.0
H503 H 0.46357 0.3489 0.16896 0.0
H504 H 0.34008 0.36123 0.16383 0.0
H505 H 0.37286 0.42263 0.20718 0.0
H506 H 0.44924 0.38866 0.26946 0.0
C507 C 0.3884 0.26167 0.15989 0.0
C508 C 0.3639 0.2448 0.12118 0.0
C509 C 0.33808 0.25732 0.10858 0.0
C510 C 0.33863 0.28814 0.13234 0.0
C511 C 0.36467 0.30546 0.16892 0.0
C512 C 0.38857 0.29214 0.18316 0.0
C513 C 0.41671 0.31782 0.21989 0.0
C514 C 0.40921 0.29663 0.26694 0.0
C515 C 0.45859 0.334 0.20325 0.0
C516 C 0.40621 0.34873 0.2226 0.0
C517 C 0.37585 0.341 0.19349 0.0
C518 C 0.36332 0.36718 0.1875 0.0
C519 C 0.38231 0.40208 0.21201 0.0
C520 C 0.41364 0.41049 0.2418 0.0
C521 C 0.42524 0.38311 0.24734 0.0
H522 H 0.62827 0.71995 0.60729 0.0
H523 H 0.72099 0.78265 0.50716 0.0
H524 H 0.69996 0.72281 0.46232 0.0
H525 H 0.6281 0.62754 0.60121 0.0
H526 H 0.57644 0.60025 0.60606 0.0
H527 H 0.60297 0.64635 0.63443 0.0
H528 H 0.5624 0.66998 0.59076 0.0
H529 H 0.53552 0.62393 0.56322 0.0
H530 H 0.5594 0.66659 0.52762 0.0
H531 H 0.66322 0.65852 0.42277 0.0
H532 H 0.61055 0.5987 0.38851 0.0
H533 H 0.54333 0.5789 0.51546 0.0
C534 C 0.64461 0.72117 0.57631 0.0
C535 C 0.67617 0.75602 0.56067 0.0
C536 C 0.69663 0.75625 0.51982 0.0
C537 C 0.68517 0.72233 0.49441 0.0
C538 C 0.65365 0.68846 0.51077 0.0
C539 C 0.63371 0.68778 0.55083 0.0
C540 C 0.59815 0.64916 0.55822 0.0
C541 C 0.60165 0.62968 0.60261 0.0
C542 C 0.56176 0.65265 0.55999 0.0
C543 C 0.59976 0.62879 0.51445 0.0
C544 C 0.63258 0.65137 0.48813 0.0
C545 C 0.63793 0.64018 0.44357 0.0
C546 C 0.60806 0.60609 0.42448 0.0
C547 C 0.57337 0.58438 0.44984 0.0
C548 C 0.57005 0.59485 0.49604 0.0
H549 H 0.41174 0.94228 0.52426 0.0
H550 H 0.40587 0.00939 0.40981 0.0
H551 H 0.3485 0.00606 0.44614 0.0
H552 H 0.32207 0.8774 0.52469 0.0
H553 H 0.31422 0.86898 0.58695 0.0
H554 H 0.36156 0.88759 0.56295 0.0
H555 H 0.38837 0.94663 0.61811 0.0
H556 H 0.34115 0.92764 0.64375 0.0
H557 H 0.36587 0.97552 0.61992 0.0
H558 H 0.28357 0.98055 0.48192 0.0
H559 H 0.21977 0.94026 0.51866 0.0
H560 H 0.26785 0.8884 0.60809 0.0
C561 C 0.39944 0.95787 0.50816 0.0
C562 C 0.41292 0.97595 0.46441 0.0
C563 C 0.39609 -0.00428 0.44373 0.0
C564 C 0.36345 0.9939 0.46409 0.0
C565 C 0.34877 0.9729 0.50538 0.0
C566 C 0.36687 0.95607 0.52789 0.0
C567 C 0.34233 0.92976 0.56696 0.0
C568 C 0.33459 0.88853 0.55989 0.0
C569 C 0.36051 0.94587 0.61504 0.0
C570 C 0.30639 0.93188 0.56038 0.0
C571 C 0.31085 0.95763 0.52567 0.0
C572 C 0.28006 0.96117 0.51013 0.0
C573 C 0.24388 0.93788 0.53082 0.0
C574 C 0.23885 0.91102 0.56598 0.0
C575 C 0.27072 0.90858 0.58122 0.0
H576 H 0.0908 0.31196 0.50474 0.0
H577 H 0.06258 0.32425 0.64847 0.0
H578 H 0.02226 0.34994 0.62072 0.0
H579 H 0.10619 0.39875 0.46871 0.0
H580 H 0.0872 0.38453 0.41034 0.0
H581 H 0.10581 0.35849 0.44048 0.0
H582 H 0.04081 0.29537 0.42898 0.0
H583 H 0.02184 0.32148 0.39906 0.0
H584 H -0.00307 0.29242 0.44945 0.0
H585 H -0.00347 0.38535 0.58031 0.0
H586 H 0.99051 0.43158 0.52963 0.0
H587 H 0.0339 0.39683 0.41135 0.0
C588 C 0.07501 0.31895 0.52998 0.0
C589 C 0.07933 0.31605 0.5785 0.0
C590 C 0.05943 0.32643 0.61104 0.0
C591 C 0.03617 0.34061 0.59562 0.0
C592 C 0.03318 0.34428 0.54753 0.0
C593 C 0.05211 0.33387 0.51507 0.0
C594 C 0.04925 0.34661 0.46613 0.0
C595 C 0.08947 0.37371 0.44524 0.0
C596 C 0.0258 0.31189 0.43401 0.0
C597 C 0.02764 0.36754 0.47664 0.0
C598 C 0.01775 0.36497 0.52365 0.0
C599 C 0.00276 0.38652 0.54313 0.0
C600 C -0.00075 0.41254 0.51424 0.0
C601 C 0.01041 0.41631 0.46665 0.0
C602 C 0.02346 0.39274 0.44725 0.0
H603 H 0.27521 0.36384 0.60957 0.0
H604 H 0.21978 0.26652 0.51484 0.0
H605 H 0.28174 0.2891 0.47348 0.0
H606 H 0.32853 0.43051 0.52721 0.0
H607 H 0.36978 0.45778 0.5641 0.0
H608 H 0.32305 0.42982 0.59016 0.0
H609 H 0.34871 0.39431 0.64086 0.0
H610 H 0.39552 0.42185 0.61391 0.0
H611 H 0.37085 0.37018 0.6126 0.0
H612 H 0.3469 0.32746 0.43576 0.0
H613 H 0.4057 0.38098 0.40063 0.0
H614 H 0.41824 0.45165 0.52168 0.0
C615 C 0.27603 0.34685 0.58054 0.0
C616 C 0.24259 0.31351 0.56532 0.0
C617 C 0.24506 0.29223 0.52711 0.0
C618 C 0.2802 0.30459 0.50374 0.0
C619 C 0.3126 0.33785 0.51958 0.0
C620 C 0.31068 0.35861 0.55717 0.0
C621 C 0.34802 0.39573 0.56405 0.0
C622 C 0.34196 0.43047 0.56115 0.0
C623 C 0.36689 0.39548 0.61062 0.0
C624 C 0.37063 0.39392 0.5226 0.0
C625 C 0.35028 0.35982 0.49808 0.0
C626 C 0.36351 0.35384 0.45524 0.0
C627 C 0.3971 0.38429 0.43567 0.0
C628 C 0.41638 0.42022 0.45875 0.0
C629 C 0.40422 0.4242 0.50383 0.0
H630 H 0.60079 0.96672 0.41037 0.0
H631 H 0.54212 0.98834 0.52355 0.0
H632 H 0.58532 0.98414 0.58091 0.0
H633 H 0.60215 0.89623 0.45695 0.0
H634 H 0.64887 0.9048 0.43911 0.0
H635 H 0.62552 0.92439 0.40534 0.0
H636 H 0.68349 0.99306 0.41491 0.0
H637 H 0.70806 0.97369 0.44746 0.0
H638 H 0.70174 0.0112 0.47268 0.0
H639 H 0.61686 0.95648 0.62474 0.0
H640 H 0.64288 0.91656 0.65305 0.0
H641 H 0.68336 0.91338 0.51255 0.0
C642 C 0.59917 0.97323 0.44697 0.0
C643 C 0.5693 0.97882 0.46303 0.0
C644 C 0.56584 0.98516 0.51105 0.0
C645 C 0.59017 0.98271 0.54372 0.0
C646 C 0.6177 0.97414 0.52738 0.0
C647 C 0.62321 0.97063 0.47991 0.0
C648 C 0.64951 0.95445 0.47201 0.0
C649 C 0.63032 0.91781 0.44161 0.0
C650 C 0.688 0.98493 0.45051 0.0
C651 C 0.65457 0.94573 0.52208 0.0
C652 C 0.63674 0.95812 0.55352 0.0
C653 C 0.63222 0.94796 0.6008 0.0
C654 C 0.64642 0.92476 0.61638 0.0
C655 C 0.66495 0.91213 0.58474 0.0
C656 C 0.6698 0.92338 0.53735 0.0
H657 H 0.03645 0.61842 0.40282 0.0
H658 H 0.97834 0.5407 0.5181 0.0
H659 H 0.98066 0.59386 0.56425 0.0
H660 H 0.10279 0.68593 0.46442 0.0
H661 H 0.1078 0.72733 0.43422 0.0
H662 H 0.08911 0.6826 0.40369 0.0
H663 H 0.02728 0.68378 0.38274 0.0
H664 H 0.04621 0.72931 0.41237 0.0
H665 H -0.00034 0.68982 0.42858 0.0
H666 H 0.00623 0.65509 0.60441 0.0
H667 H 0.04908 0.72015 0.6349 0.0
H668 H 0.09165 0.76041 0.4943 0.0
C669 C 0.0221 0.61247 0.43667 0.0
C670 C 0.00625 0.57584 0.4569 0.0
C671 C 0.98948 0.56862 0.50198 0.0
C672 C 0.99076 0.59864 0.52824 0.0
C673 C 0.0089 0.63532 0.50856 0.0
C674 C 0.02368 0.64228 0.46331 0.0
C675 C 0.04832 0.68486 0.45362 0.0
C676 C 0.08939 0.69576 0.43813 0.0
C677 C 0.02921 0.6977 0.41718 0.0
C678 C 0.04798 0.7007 0.50167 0.0
C679 C 0.02423 0.67167 0.53244 0.0
C680 C 0.02377 0.67819 0.5804 0.0
C681 C 0.04852 0.71504 0.59744 0.0
C682 C 0.07326 0.74484 0.56661 0.0
C683 C 0.07222 0.738 0.51808 0.0
H684 H 0.5223 0.17086 0.04135 0.0
H685 H 0.49733 0.15743 0.89213 0.0
H686 H 0.55171 0.14668 0.87856 0.0
H687 H 0.61962 0.22486 0.0308 0.0
H688 H 0.63094 0.20423 0.07971 0.0
H689 H 0.58619 0.20388 0.07907 0.0
H690 H 0.54877 0.12996 0.0893 0.0
H691 H 0.59358 0.13008 0.09021 0.0
H692 H 0.55699 0.10049 0.04856 0.0
H693 H 0.61354 0.14635 0.87971 0.0
H694 H 0.67826 0.15694 0.89537 0.0
H695 H 0.66275 0.1708 0.04385 0.0
C696 C 0.52758 0.16473 0.00592 0.0
C697 C 0.50551 0.16505 0.96781 0.0
C698 C 0.51379 0.15734 0.92194 0.0
C699 C 0.54451 0.15099 0.91389 0.0
C700 C 0.56638 0.15203 0.9521 0.0
C701 C 0.55808 0.15837 -0.00271 0.0
C702 C 0.58817 0.16189 0.0316 0.0
C703 C 0.60736 0.20104 0.05673 0.0
C704 C 0.57084 0.12862 0.06701 0.0
C705 C 0.61575 0.15857 -0.00175 0.0
C706 C 0.60229 0.15207 0.95272 0.0
C707 C 0.6241 0.15079 0.91532 0.0
C708 C 0.66092 0.15699 0.92459 0.0
C709 C 0.67572 0.16482 0.97085 0.0
C710 C 0.6523 0.16469 0.00814 0.0
H711 H 0.81168 0.45994 0.05273 0.0
H712 H 0.84443 0.4962 0.90816 0.0
H713 H 0.85984 0.44497 0.89665 0.0
H714 H 0.88317 0.42711 0.0733 0.0
H715 H 0.84875 0.38712 0.10813 0.0
H716 H 0.84783 0.43132 0.10797 0.0
H717 H 0.77628 0.39402 0.08314 0.0
H718 H 0.77701 0.34993 0.08301 0.0
H719 H 0.76281 0.36471 0.03096 0.0
H720 H 0.86099 0.38417 0.89652 0.0
H721 H 0.84784 0.31814 0.9081 0.0
H722 H 0.81497 0.32175 0.05284 0.0
C723 C 0.82321 0.45788 0.01908 0.0
C724 C 0.82679 0.48204 0.98138 0.0
C725 C 0.84132 0.47794 0.93759 0.0
C726 C 0.85046 0.44911 0.93076 0.0
C727 C 0.84532 0.42491 0.96818 0.0
C728 C 0.83237 0.42921 0.01165 0.0
C729 C 0.82491 0.39672 0.0443 0.0
C730 C 0.85284 0.41146 0.08588 0.0
C731 C 0.78276 0.37508 0.0613 0.0
C732 C 0.83356 0.37242 0.01153 0.0
C733 C 0.84607 0.38955 0.96811 0.0
C734 C 0.85206 0.37079 0.93066 0.0
C735 C 0.84429 0.33321 0.93751 0.0
C736 C 0.8304 0.31478 0.98138 0.0
C737 C 0.82607 0.33518 0.01907 0.0
H738 H 0.66064 0.46231 0.04627 0.0
H739 H 0.67045 0.49243 0.89859 0.0
H740 H 0.60295 0.44213 0.88701 0.0
H741 H 0.61374 0.36744 0.03106 0.0
H742 H 0.58272 0.35485 0.08186 0.0
H743 H 0.628 0.39888 0.08134 0.0
H744 H 0.59323 0.4366 0.09924 0.0
H745 H 0.54734 0.39279 0.09916 0.0
H746 H 0.55555 0.43181 0.06113 0.0
H747 H 0.54022 0.38235 0.88796 0.0
H748 H 0.48767 0.31617 0.90052 0.0
H749 H 0.51878 0.3243 0.04754 0.0
C750 C 0.64834 0.45911 0.01173 0.0
C751 C 0.67084 0.48115 0.9733 0.0
C752 C 0.65378 0.47576 0.92856 0.0
C753 C 0.61535 0.44754 0.92173 0.0
C754 C 0.59436 0.42537 0.96008 0.0
C755 C 0.61018 0.43102 0.00432 0.0
C756 C 0.58363 0.39991 0.03805 0.0
C757 C 0.60319 0.37905 0.05925 0.0
C758 C 0.56906 0.41626 0.07666 0.0
C759 C 0.5517 0.37433 0.00495 0.0
C760 C 0.55783 0.39014 0.96054 0.0
C761 C 0.53457 0.37 0.92278 0.0
C762 C 0.50496 0.33229 0.93025 0.0
C763 C 0.4993 0.31498 0.97501 0.0
C764 C 0.52217 0.33683 0.01306 0.0
H765 H 0.32951 0.51529 0.28669 0.0
H766 H 0.32648 0.46831 0.42441 0.0
H767 H 0.26012 0.45481 0.4361 0.0
H768 H 0.2863 0.56526 0.31937 0.0
H769 H 0.25893 0.55765 0.26662 0.0
H770 H 0.30267 0.55606 0.26437 0.0
H771 H 0.26613 0.48778 0.22842 0.0
H772 H 0.22215 0.48926 0.23016 0.0
H773 H 0.22438 0.45051 0.25821 0.0
H774 H 0.19942 0.45628 0.43853 0.0
H775 H 0.14823 0.47238 0.43126 0.0
H776 H 0.1904 0.51866 0.29214 0.0
C777 C 0.31436 0.50089 0.31856 0.0
C778 C 0.33298 0.49267 0.35453 0.0
C779 C 0.31268 0.47485 0.39638 0.0
C780 C 0.27491 0.46684 0.40322 0.0
C781 C 0.25784 0.47666 0.36781 0.0
C782 C 0.27675 0.49302 0.32611 0.0
C783 C 0.25387 0.50521 0.29624 0.0
C784 C 0.27681 0.5486 0.2861 0.0
C785 C 0.24086 0.48178 0.25055 0.0
C786 C 0.22011 0.49488 0.32866 0.0
C787 C 0.22259 0.47778 0.36937 0.0
C788 C 0.19673 0.46897 0.40645 0.0
C789 C 0.16795 0.47848 0.40215 0.0
C790 C 0.16541 0.49673 0.36111 0.0
C791 C 0.19129 0.50415 0.32356 0.0
H792 H 0.46578 0.79487 0.40776 0.0
H793 H 0.51252 0.8379 0.26891 0.0
H794 H 0.52476 0.78449 0.25767 0.0
H795 H 0.53036 0.75525 0.43582 0.0
H796 H 0.49188 0.71426 0.46523 0.0
H797 H 0.49326 0.7596 0.46606 0.0
H798 H 0.42451 0.72667 0.43165 0.0
H799 H 0.423 0.68143 0.43036 0.0
H800 H 0.4148 0.70034 0.37732 0.0
H801 H 0.5227 0.72234 0.25613 0.0
H802 H 0.50776 0.65555 0.26519 0.0
H803 H 0.46269 0.65231 0.40517 0.0
C804 C 0.47972 0.79371 0.37562 0.0
C805 C 0.48826 0.82053 0.33926 0.0
C806 C 0.50564 0.81759 0.29722 0.0
C807 C 0.51295 0.7875 0.2906 0.0
C808 C 0.50295 0.76076 0.32644 0.0
C809 C 0.48703 0.76369 0.36834 0.0
C810 C 0.47518 0.72893 0.39908 0.0
C811 C 0.49911 0.74019 0.44422 0.0
C812 C 0.43181 0.70813 0.41021 0.0
C813 C 0.48527 0.70528 0.36696 0.0
C814 C 0.50182 0.72447 0.32557 0.0
C815 C 0.5105 0.70727 0.28873 0.0
C816 C 0.50164 0.66924 0.29409 0.0
C817 C 0.48417 0.64883 0.33594 0.0
C818 C 0.47664 0.66742 0.37312 0.0
H819 H 0.33432 0.7933 0.28715 0.0
H820 H 0.32627 0.84139 0.42045 0.0
H821 H 0.25902 0.78928 0.42924 0.0
H822 H 0.23132 0.7536 0.25035 0.0
H823 H 0.22897 0.71126 0.2257 0.0
H824 H 0.27379 0.75626 0.22514 0.0
H825 H 0.30678 0.7242 0.26808 0.0
H826 H 0.2622 0.67931 0.26897 0.0
H827 H 0.2871 0.70004 0.3231 0.0
H828 H 0.19737 0.72797 0.42993 0.0
H829 H 0.1454 0.66064 0.42296 0.0
H830 H 0.19261 0.6514 0.28931 0.0
C831 C 0.31794 0.79351 0.31737 0.0
C832 C 0.33531 0.82141 0.35297 0.0
C833 C 0.31343 0.82022 0.39276 0.0
C834 C 0.27515 0.79092 0.3979 0.0
C835 C 0.25918 0.76311 0.36291 0.0
C836 C 0.27976 0.76418 0.32328 0.0
C837 C 0.25746 0.72829 0.29386 0.0
C838 C 0.24728 0.73794 0.24592 0.0
C839 C 0.27971 0.7067 0.28822 0.0
C840 C 0.22196 0.70618 0.32426 0.0
C841 C 0.22324 0.72713 0.36346 0.0
C842 C 0.19562 0.71153 0.39896 0.0
C843 C 0.16636 0.67323 0.39482 0.0
C844 C 0.16497 0.65098 0.35549 0.0
C845 C 0.19257 0.66802 0.31925 0.0
H846 H -0.00872 0.84292 0.72321 0.0
H847 H -0.0082 0.80792 0.57887 0.0
H848 H 0.9274 0.79924 0.56768 0.0
H849 H 0.88356 0.77999 0.74393 0.0
H850 H 0.88275 0.81702 0.77866 0.0
H851 H 0.92467 0.81185 0.77879 0.0
H852 H 0.96679 0.8831 0.75432 0.0
H853 H 0.92517 0.88842 0.75336 0.0
H854 H 0.95514 0.8997 0.70174 0.0
H855 H 0.87036 0.80664 0.5671 0.0
H856 H 0.8221 0.82628 0.5785 0.0
H857 H 0.85829 0.85639 0.72329 0.0
C858 C 0.97731 0.8321 0.68975 0.0
C859 C -0.00342 0.82624 0.65189 0.0
C860 C 0.97761 0.81273 0.60838 0.0
C861 C 0.94092 0.80747 0.60173 0.0
C862 C 0.9235 0.81535 0.63911 0.0
C863 C 0.94075 0.8268 0.68253 0.0
C864 C 0.91815 0.83801 0.71502 0.0
C865 C 0.90128 0.81004 0.75655 0.0
C866 C 0.94279 0.87977 0.73206 0.0
C867 C 0.88695 0.83346 0.68205 0.0
C868 C 0.89009 0.8196 0.63878 0.0
C869 C 0.86694 0.81661 0.60115 0.0
C870 C 0.83991 0.82823 0.60786 0.0
C871 C 0.83651 0.84289 0.65181 0.0
C872 C 0.85991 0.84486 0.6895 0.0
H873 H 0.11959 0.98002 0.60602 0.0
H874 H 0.17903 0.9896 0.73624 0.0
H875 H 0.19568 0.0571 0.74372 0.0
H876 H 0.18383 0.08087 0.56465 0.0
H877 H 0.1439 0.08406 0.542 0.0
H878 H 0.14218 0.03856 0.54242 0.0
H879 H 0.07819 0.00852 0.58947 0.0
H880 H 0.07973 0.05379 0.58923 0.0
H881 H 0.07623 0.0302 0.64414 0.0
H882 H 0.19896 0.11982 0.74274 0.0
H883 H 0.18652 0.17334 0.73497 0.0
H884 H 0.12451 0.12379 0.60572 0.0
C885 C 0.13702 -0.00331 0.63538 0.0
C886 C 0.14824 0.97974 0.6704 0.0
C887 C 0.17013 0.00207 0.70903 0.0
C888 C 0.17999 0.0405 0.71339 0.0
C889 C 0.16776 0.05614 0.67884 0.0
C890 C 0.14677 0.03502 0.64053 0.0
C891 C 0.13347 0.05736 0.61131 0.0
C892 C 0.15196 0.06571 0.56218 0.0
C893 C 0.0893 0.03621 0.60841 0.0
C894 C 0.149 0.09372 0.6402 0.0
C895 C 0.1693 0.09263 0.67851 0.0
C896 C 0.18367 0.12132 0.71252 0.0
C897 C 0.17629 0.15147 0.70793 0.0
C898 C 0.15465 0.15262 0.66968 0.0
C899 C 0.14176 0.12393 0.63477 0.0
H900 H 0.85647 -0.00326 0.60078 0.0
H901 H 0.81074 0.00296 0.73674 0.0
H902 H 0.8631 0.06991 0.74559 0.0
H903 H 0.94837 0.03995 0.63332 0.0
H904 H 0.96981 0.06646 0.58013 0.0
H905 H 0.92381 0.02324 0.57807 0.0
H906 H 0.8939 0.06002 0.53944 0.0
H907 H 0.9401 0.1035 0.54085 0.0
H908 H 0.89881 0.1024 0.56745 0.0
H909 H 0.92603 0.12931 0.74772 0.0
H910 H -0.00518 0.17813 0.74195 0.0
H911 H 0.00081 0.13438 0.60464 0.0
C912 C 0.85665 0.01285 0.6314 0.0
C913 C 0.8296 -0.00501 0.66794 0.0
C914 C 0.83127 0.01632 0.70834 0.0
C915 C 0.86074 0.0544 0.71352 0.0
C916 C 0.88819 0.07071 0.67791 0.0
C917 C 0.88623 0.05081 0.63732 0.0
C918 C 0.92227 0.07278 0.60774 0.0
C919 C 0.94222 0.0492 0.59938 0.0
C920 C 0.91322 0.08543 0.5611 0.0
C921 C 0.94571 0.10683 0.63945 0.0
C922 C 0.92517 0.10551 0.67924 0.0
C923 C 0.94212 0.13126 0.71621 0.0
C924 C 0.98124 0.15865 0.71282 0.0
C925 C 0.00293 0.16 0.67277 0.0
C926 C 0.98464 0.13442 0.63518 0.0
loop_
_geom_bond_atom_site_label_1
_geom_bond_atom_site_label_2
_geom_bond_distance
_geom_bond_site_symmetry_2
_ccdc_geom_bond_type
Sc0 O3 2.025 . S
Sc0 O10 2.105 . S
Sc0 O13 2.105 1_554 S
Sc0 O16 2.105 . S
Sc0 O19 2.105 1_554 S
Sc1 O3 2.025 1_556 S
Sc1 O11 2.105 . S
Sc1 O15 2.105 . S
Sc1 O17 2.105 . S
Sc1 O21 2.105 . S
Sc2 O3 2.025 . S
Sc2 O12 2.105 . S
Sc2 O14 2.105 . S
Sc2 O18 2.105 . S
Sc2 O20 2.105 . S
O3 Sc0 2.025 . S
O3 Sc1 2.025 1_554 S
O3 Sc2 2.025 . S
C4 O10 1.268 . S
C4 O20 1.268 . S
C5 O11 1.268 . S
C5 O19 1.268 . S
C6 O12 1.268 1_556 S
C6 O21 1.268 . S
C7 O13 1.268 . S
C7 O17 1.268 . S
C8 O14 1.268 . S
C8 O16 1.268 . S
C9 O15 1.268 . S
C9 O18 1.268 1_556 S
O10 Sc0 2.105 . S
O10 C4 1.268 . S
O11 Sc1 2.105 . S
O11 C5 1.268 . S
O12 Sc2 2.105 . S
O12 C6 1.268 1_554 S
O13 Sc0 2.105 1_556 S
O13 C7 1.268 . S
O14 Sc2 2.105 . S
O14 C8 1.268 . S
O15 Sc1 2.105 . S
O15 C9 1.268 . S
O16 Sc0 2.105 . S
O16 C8 1.268 . S
O17 Sc1 2.105 . S
O17 C7 1.268 . S
O18 Sc2 2.105 . S
O18 C9 1.268 1_554 S
O19 Sc0 2.105 1_556 S
O19 C5 1.268 . S
O20 Sc2 2.105 . S
O20 C4 1.268 . S
O21 Sc1 2.105 . S
O21 C6 1.268 . S
Sc22 O25 2.025 . S
Sc22 O32 2.105 . S
Sc22 O35 2.105 1_554 S
Sc22 O38 2.105 . S
Sc22 O41 2.105 1_554 S
Sc23 O25 2.025 1_556 S
Sc23 O33 2.105 . S
Sc23 O37 2.105 . S
Sc23 O39 2.105 . S
Sc23 O43 2.105 . S
Sc24 O25 2.025 . S
Sc24 O34 2.105 . S
Sc24 O36 2.105 . S
Sc24 O40 2.105 . S
Sc24 O42 2.105 . S
O25 Sc22 2.025 . S
O25 Sc23 2.025 1_554 S
O25 Sc24 2.025 . S
C26 O32 1.268 . S
C26 O42 1.268 . S
C27 O33 1.268 . S
C27 O41 1.268 . S
C28 O34 1.268 1_556 S
C28 O43 1.268 . S
C29 O35 1.268 . S
C29 O39 1.268 . S
C30 O36 1.268 . S
C30 O38 1.268 . S
C31 O37 1.268 . S
C31 O40 1.268 1_556 S
O32 Sc22 2.105 . S
O32 C26 1.268 . S
O33 Sc23 2.105 . S
O33 C27 1.268 . S
O34 Sc24 2.105 . S
O34 C28 1.268 1_554 S
O35 Sc22 2.105 1_556 S
O35 C29 1.268 . S
O36 Sc24 2.105 . S
O36 C30 1.268 . S
O37 Sc23 2.105 . S
O37 C31 1.268 . S
O38 Sc22 2.105 . S
O38 C30 1.268 . S
O39 Sc23 2.105 . S
O39 C29 1.268 . S
O40 Sc24 2.105 . S
O40 C31 1.268 1_554 S
O41 Sc22 2.105 1_556 S
O41 C27 1.268 . S
O42 Sc24 2.105 . S
O42 C26 1.268 . S
O43 Sc23 2.105 . S
O43 C28 1.268 . S
Sc44 O47 2.025 . S
Sc44 O54 2.105 . S
Sc44 O57 2.105 1_554 S
Sc44 O60 2.105 . S
Sc44 O63 2.105 1_554 S
Sc45 O47 2.025 1_556 S
Sc45 O55 2.105 . S
Sc45 O59 2.105 . S
Sc45 O61 2.105 . S
Sc45 O65 2.105 . S
Sc46 O47 2.025 . S
Sc46 O56 2.105 . S
Sc46 O58 2.105 . S
Sc46 O62 2.105 . S
Sc46 O64 2.105 . S
O47 Sc44 2.025 . S
O47 Sc45 2.025 1_554 S
O47 Sc46 2.025 . S
C48 O54 1.268 . S
C48 O64 1.268 . S
C49 O55 1.268 . S
C49 O63 1.268 . S
C50 O56 1.268 1_556 S
C50 O65 1.268 . S
C51 O57 1.268 . S
C51 O61 1.268 . S
C52 O58 1.268 . S
C52 O60 1.268 . S
C53 O59 1.268 . S
C53 O62 1.268 1_556 S
O54 Sc44 2.105 . S
O54 C48 1.268 . S
O55 Sc45 2.105 . S
O55 C49 1.268 . S
O56 Sc46 2.105 . S
O56 C50 1.268 1_554 S
O57 Sc44 2.105 1_556 S
O57 C51 1.268 . S
O58 Sc46 2.105 . S
O58 C52 1.268 . S
O59 Sc45 2.105 . S
O59 C53 1.268 . S
O60 Sc44 2.105 . S
O60 C52 1.268 . S
O61 Sc45 2.105 . S
O61 C51 1.268 . S
O62 Sc46 2.105 . S
O62 C53 1.268 1_554 S
O63 Sc44 2.105 1_556 S
O63 C49 1.268 . S
O64 Sc46 2.105 . S
O64 C48 1.268 . S
O65 Sc45 2.105 . S
O65 C50 1.268 . S
Sc66 O69 2.025 . S
Sc66 O76 2.105 . S
Sc66 O79 2.105 . S
Sc66 O82 2.105 . S
Sc66 O85 2.105 . S
Sc67 O69 2.025 . S
Sc67 O77 2.105 . S
Sc67 O81 2.105 . S
Sc67 O83 2.105 . S
Sc67 O87 2.105 . S
Sc68 O69 2.025 . S
Sc68 O78 2.105 . S
Sc68 O80 2.105 . S
Sc68 O84 2.105 . S
Sc68 O86 2.105 . S
O69 Sc66 2.025 . S
O69 Sc67 2.025 . S
O69 Sc68 2.025 . S
C70 O76 1.268 . S
C70 O86 1.268 . S
C71 O77 1.268 . S
C71 O85 1.268 . S
C72 O78 1.268 . S
C72 O87 1.268 . S
C73 O79 1.268 . S
C73 O83 1.268 . S
C74 O80 1.268 . S
C74 O82 1.268 . S
C75 O81 1.268 . S
C75 O84 1.268 . S
O76 Sc66 2.105 . S
O76 C70 1.268 . S
O77 Sc67 2.105 . S
O77 C71 1.268 . S
O78 Sc68 2.105 . S
O78 C72 1.268 . S
O79 Sc66 2.105 . S
O79 C73 1.268 . S
O80 Sc68 2.105 . S
O80 C74 1.268 . S
O81 Sc67 2.105 . S
O81 C75 1.268 . S
O82 Sc66 2.105 . S
O82 C74 1.268 . S
O83 Sc67 2.105 . S
O83 C73 1.268 . S
O84 Sc68 2.105 . S
O84 C75 1.268 . S
O85 Sc66 2.105 . S
O85 C71 1.268 . S
O86 Sc68 2.105 . S
O86 C70 1.268 . S
O87 Sc67 2.105 . S
O87 C72 1.268 . S
Sc88 O91 2.025 . S
Sc88 O98 2.105 . S
Sc88 O101 2.105 . S
Sc88 O104 2.105 . S
Sc88 O107 2.105 . S
Sc89 O91 2.025 . S
Sc89 O99 2.105 . S
Sc89 O103 2.105 . S
Sc89 O105 2.105 . S
Sc89 O109 2.105 . S
Sc90 O91 2.025 . S
Sc90 O100 2.105 . S
Sc90 O102 2.105 . S
Sc90 O106 2.105 . S
Sc90 O108 2.105 . S
O91 Sc88 2.025 . S
O91 Sc89 2.025 . S
O91 Sc90 2.025 . S
C92 O98 1.268 . S
C92 O108 1.268 . S
C93 O99 1.268 . S
C93 O107 1.268 . S
C94 O100 1.268 . S
C94 O109 1.268 . S
C95 O101 1.268 . S
C95 O105 1.268 . S
C96 O102 1.268 . S
C96 O104 1.268 . S
C97 O103 1.268 . S
C97 O106 1.268 . S
O98 Sc88 2.105 . S
O98 C92 1.268 . S
O99 Sc89 2.105 . S
O99 C93 1.268 . S
O100 Sc90 2.105 . S
O100 C94 1.268 . S
O101 Sc88 2.105 . S
O101 C95 1.268 . S
O102 Sc90 2.105 . S
O102 C96 1.268 . S
O103 Sc89 2.105 . S
O103 C97 1.268 . S
O104 Sc88 2.105 . S
O104 C96 1.268 . S
O105 Sc89 2.105 . S
O105 C95 1.268 . S
O106 Sc90 2.105 . S
O106 C97 1.268 . S
O107 Sc88 2.105 . S
O107 C93 1.268 . S
O108 Sc90 2.105 . S
O108 C92 1.268 . S
O109 Sc89 2.105 . S
O109 C94 1.268 . S
Sc110 O113 2.025 . S
Sc110 O120 2.105 . S
Sc110 O123 2.105 . S
Sc110 O126 2.105 . S
Sc110 O129 2.105 . S
Sc111 O113 2.025 . S
Sc111 O121 2.105 . S
Sc111 O125 2.105 . S
Sc111 O127 2.105 . S
Sc111 O131 2.105 . S
Sc112 O113 2.025 . S
Sc112 O122 2.105 . S
Sc112 O124 2.105 . S
Sc112 O128 2.105 . S
Sc112 O130 2.105 . S
O113 Sc110 2.025 . S
O113 Sc111 2.025 . S
O113 Sc112 2.025 . S
C114 O120 1.268 . S
C114 O130 1.268 . S
C115 O121 1.268 . S
C115 O129 1.268 . S
C116 O122 1.268 . S
C116 O131 1.268 . S
C117 O123 1.268 . S
C117 O127 1.268 . S
C118 O124 1.268 . S
C118 O126 1.268 . S
C119 O125 1.268 . S
C119 O128 1.268 . S
O120 Sc110 2.105 . S
O120 C114 1.268 . S
O121 Sc111 2.105 . S
O121 C115 1.268 . S
O122 Sc112 2.105 . S
O122 C116 1.268 . S
O123 Sc110 2.105 . S
O123 C117 1.268 . S
O124 Sc112 2.105 . S
O124 C118 1.268 . S
O125 Sc111 2.105 . S
O125 C119 1.268 . S
O126 Sc110 2.105 . S
O126 C118 1.268 . S
O127 Sc111 2.105 . S
O127 C117 1.268 . S
O128 Sc112 2.105 . S
O128 C119 1.268 . S
O129 Sc110 2.105 . S
O129 C115 1.268 . S
O130 Sc112 2.105 . S
O130 C114 1.268 . S
O131 Sc111 2.105 . S
O131 C116 1.268 . S
Sc132 O135 2.025 . S
Sc132 O142 2.105 . S
Sc132 O145 2.105 . S
Sc132 O148 2.105 . S
Sc132 O151 2.105 . S
Sc133 O135 2.025 . S
Sc133 O143 2.105 . S
Sc133 O147 2.105 . S
Sc133 O149 2.105 . S
Sc133 O153 2.105 . S
Sc134 O135 2.025 . S
Sc134 O144 2.105 . S
Sc134 O146 2.105 . S
Sc134 O150 2.105 . S
Sc134 O152 2.105 . S
O135 Sc132 2.025 . S
O135 Sc133 2.025 . S
O135 Sc134 2.025 . S
C136 O142 1.268 . S
C136 O152 1.268 . S
C137 O143 1.268 . S
C137 O151 1.268 . S
C138 O144 1.268 . S
C138 O153 1.268 . S
C139 O145 1.268 . S
C139 O149 1.268 . S
C140 O146 1.268 . S
C140 O148 1.268 . S
C141 O147 1.268 . S
C141 O150 1.268 . S
O142 Sc132 2.105 . S
O142 C136 1.268 . S
O143 Sc133 2.105 . S
O143 C137 1.268 . S
O144 Sc134 2.105 . S
O144 C138 1.268 . S
O145 Sc132 2.105 . S
O145 C139 1.268 . S
O146 Sc134 2.105 . S
O146 C140 1.268 . S
O147 Sc133 2.105 . S
O147 C141 1.268 . S
O148 Sc132 2.105 . S
O148 C140 1.268 . S
O149 Sc133 2.105 . S
O149 C139 1.268 . S
O150 Sc134 2.105 . S
O150 C141 1.268 . S
O151 Sc132 2.105 . S
O151 C137 1.268 . S
O152 Sc134 2.105 . S
O152 C136 1.268 . S
O153 Sc133 2.105 . S
O153 C138 1.268 . S
Sc154 O157 2.025 . S
Sc154 O164 2.105 . S
Sc154 O167 2.105 . S
Sc154 O170 2.105 . S
Sc154 O173 2.105 . S
Sc155 O157 2.025 . S
Sc155 O165 2.105 . S
Sc155 O169 2.105 . S
Sc155 O171 2.105 . S
Sc155 O175 2.105 . S
Sc156 O157 2.025 . S
Sc156 O166 2.105 . S
Sc156 O168 2.105 . S
Sc156 O172 2.105 . S
Sc156 O174 2.105 . S
O157 Sc154 2.025 . S
O157 Sc155 2.025 . S
O157 Sc156 2.025 . S
C158 O164 1.268 . S
C158 O174 1.268 . S
C159 O165 1.268 . S
C159 O173 1.268 . S
C160 O166 1.268 . S
C160 O175 1.268 . S
C161 O167 1.268 . S
C161 O171 1.268 . S
C162 O168 1.268 . S
C162 O170 1.268 . S
C163 O169 1.268 . S
C163 O172 1.268 . S
O164 Sc154 2.105 . S
O164 C158 1.268 . S
O165 Sc155 2.105 . S
O165 C159 1.268 . S
O166 Sc156 2.105 . S
O166 C160 1.268 . S
O167 Sc154 2.105 . S
O167 C161 1.268 . S
O168 Sc156 2.105 . S
O168 C162 1.268 . S
O169 Sc155 2.105 . S
O169 C163 1.268 . S
O170 Sc154 2.105 . S
O170 C162 1.268 . S
O171 Sc155 2.105 . S
O171 C161 1.268 . S
O172 Sc156 2.105 . S
O172 C163 1.268 . S
O173 Sc154 2.105 . S
O173 C159 1.268 . S
O174 Sc156 2.105 . S
O174 C158 1.268 . S
O175 Sc155 2.105 . S
O175 C160 1.268 . S
Sc176 O179 2.025 . S
Sc176 O186 2.105 . S
Sc176 O189 2.105 . S
Sc176 O192 2.105 . S
Sc176 O195 2.105 . S
Sc177 O179 2.025 . S
Sc177 O187 2.105 . S
Sc177 O191 2.105 . S
Sc177 O193 2.105 . S
Sc177 O197 2.105 . S
Sc178 O179 2.025 . S
Sc178 O188 2.105 . S
Sc178 O190 2.105 . S
Sc178 O194 2.105 . S
Sc178 O196 2.105 . S
O179 Sc176 2.025 . S
O179 Sc177 2.025 . S
O179 Sc178 2.025 . S
C180 O186 1.268 . S
C180 O196 1.268 . S
C181 O187 1.268 . S
C181 O195 1.268 . S
C182 O188 1.268 . S
C182 O197 1.268 . S
C183 O189 1.268 . S
C183 O193 1.268 . S
C184 O190 1.268 . S
C184 O192 1.268 . S
C185 O191 1.268 . S
C185 O194 1.268 . S
O186 Sc176 2.105 . S
O186 C180 1.268 . S
O187 Sc177 2.105 . S
O187 C181 1.268 . S
O188 Sc178 2.105 . S
O188 C182 1.268 . S
O189 Sc176 2.105 . S
O189 C183 1.268 . S
O190 Sc178 2.105 . S
O190 C184 1.268 . S
O191 Sc177 2.105 . S
O191 C185 1.268 . S
O192 Sc176 2.105 . S
O192 C184 1.268 . S
O193 Sc177 2.105 . S
O193 C183 1.268 . S
O194 Sc178 2.105 . S
O194 C185 1.268 . S
O195 Sc176 2.105 . S
O195 C181 1.268 . S
O196 Sc178 2.105 . S
O196 C180 1.268 . S
O197 Sc177 2.105 . S
O197 C182 1.268 . S
H198 C210 0.930 . S
H199 C212 0.930 . S
H200 C213 0.930 . S
H201 C217 0.959 . S
H202 C217 0.959 . S
H203 C217 0.961 . S
H204 C218 0.960 . S
H205 C218 0.961 . S
H206 C218 0.959 . S
H207 C221 0.929 1_545 S
H208 C222 0.931 . S
H209 C224 0.930 . S
C210 H198 0.930 . S
C210 C211 1.399 . S
C210 C215 1.399 . S
C211 C210 1.399 . S
C211 C212 1.376 . S
C212 H199 0.930 . S
C212 C211 1.376 . S
C212 C213 1.388 . S
C213 H200 0.930 . S
C213 C212 1.388 . S
C213 C214 1.390 . S
C214 C213 1.390 . S
C214 C215 1.394 . S
C214 C220 1.465 . S
C215 C210 1.399 . S
C215 C214 1.394 . S
C215 C216 1.516 1_545 S
C216 C215 1.516 1_565 S
C216 C217 1.502 . S
C216 C218 1.561 . S
C216 C219 1.526 . S
C217 H201 0.959 . S
C217 H202 0.959 . S
C217 H203 0.961 . S
C217 C216 1.502 . S
C218 H204 0.960 . S
C218 H205 0.961 . S
C218 H206 0.959 . S
C218 C216 1.561 . S
C219 C216 1.526 . S
C219 C220 1.396 1_565 S
C219 C224 1.390 . S
C220 C214 1.465 . S
C220 C219 1.396 1_545 S
C220 C221 1.399 1_545 S
C221 H207 0.929 1_565 S
C221 C220 1.399 1_565 S
C221 C222 1.385 . S
C222 H208 0.931 . S
C222 C221 1.385 . S
C222 C223 1.389 . S
C223 C222 1.389 . S
C223 C224 1.387 . S
C224 H209 0.930 . S
C224 C219 1.390 . S
C224 C223 1.387 . S
H225 C237 0.930 . S
H226 C239 0.930 . S
H227 C240 0.930 . S
H228 C244 0.959 . S
H229 C244 0.959 1_455 S
H230 C244 0.961 . S
H231 C245 0.960 . S
H232 C245 0.961 . S
H233 C245 0.959 . S
H234 C248 0.929 . S
H235 C249 0.931 . S
H236 C251 0.930 . S
C237 H225 0.930 . S
C237 C238 1.399 . S
C237 C242 1.399 . S
C238 C237 1.399 . S
C238 C239 1.376 . S
C239 H226 0.930 . S
C239 C238 1.376 . S
C239 C240 1.388 . S
C240 H227 0.930 . S
C240 C239 1.388 . S
C240 C241 1.390 . S
C241 C240 1.390 . S
C241 C242 1.394 . S
C241 C247 1.465 1_655 S
C242 C237 1.399 . S
C242 C241 1.394 . S
C242 C243 1.516 1_655 S
C243 C242 1.516 1_455 S
C243 C244 1.502 1_455 S
C243 C245 1.561 . S
C243 C246 1.526 . S
C244 H228 0.959 . S
C244 H229 0.959 1_655 S
C244 H230 0.961 . S
C244 C243 1.502 1_655 S
C245 H231 0.960 . S
C245 H232 0.961 . S
C245 H233 0.959 . S
C245 C243 1.561 . S
C246 C243 1.526 . S
C246 C247 1.396 . S
C246 C251 1.390 . S
C247 C241 1.465 1_455 S
C247 C246 1.396 . S
C247 C248 1.399 . S
C248 H234 0.929 . S
C248 C247 1.399 . S
C248 C249 1.385 . S
C249 H235 0.931 . S
C249 C248 1.385 . S
C249 C250 1.389 . S
C250 C249 1.389 . S
C250 C251 1.387 . S
C251 H236 0.930 . S
C251 C246 1.390 . S
C251 C250 1.387 . S
H252 C264 0.930 . S
H253 C266 0.930 . S
H254 C267 0.930 . S
H255 C271 0.959 . S
H256 C271 0.959 . S
H257 C271 0.961 . S
H258 C272 0.960 . S
H259 C272 0.961 . S
H260 C272 0.959 . S
H261 C275 0.929 . S
H262 C276 0.931 . S
H263 C278 0.930 . S
C264 H252 0.930 . S
C264 C265 1.399 . S
C264 C269 1.399 . S
C265 C264 1.399 . S
C265 C266 1.376 . S
C266 H253 0.930 . S
C266 C265 1.376 . S
C266 C267 1.388 . S
C267 H254 0.930 . S
C267 C266 1.388 . S
C267 C268 1.390 . S
C268 C267 1.390 . S
C268 C269 1.394 . S
C268 C274 1.465 . S
C269 C264 1.399 . S
C269 C268 1.394 . S
C269 C270 1.516 . S
C270 C269 1.516 . S
C270 C271 1.502 . S
C270 C272 1.561 . S
C270 C273 1.526 . S
C271 H255 0.959 . S
C271 H256 0.959 . S
C271 H257 0.961 . S
C271 C270 1.502 . S
C272 H258 0.960 . S
C272 H259 0.961 . S
C272 H260 0.959 . S
C272 C270 1.561 . S
C273 C270 1.526 . S
C273 C274 1.396 . S
C273 C278 1.390 . S
C274 C268 1.465 . S
C274 C273 1.396 . S
C274 C275 1.399 . S
C275 H261 0.929 . S
C275 C274 1.399 . S
C275 C276 1.385 . S
C276 H262 0.931 . S
C276 C275 1.385 . S
C276 C277 1.389 . S
C277 C276 1.389 . S
C277 C278 1.387 . S
C278 H263 0.930 . S
C278 C273 1.390 . S
C278 C277 1.387 . S
H279 C291 0.930 . S
H280 C293 0.930 . S
H281 C294 0.930 . S
H282 C298 0.959 . S
H283 C298 0.959 . S
H284 C298 0.961 . S
H285 C299 0.960 . S
H286 C299 0.961 . S
H287 C299 0.959 . S
H288 C302 0.929 1_455 S
H289 C303 0.931 . S
H290 C305 0.930 . S
C291 H279 0.930 . S
C291 C292 1.399 . S
C291 C296 1.399 . S
C292 C291 1.399 . S
C292 C293 1.376 . S
C293 H280 0.930 . S
C293 C292 1.376 . S
C293 C294 1.388 . S
C294 H281 0.930 . S
C294 C293 1.388 . S
C294 C295 1.390 . S
C295 C294 1.390 . S
C295 C296 1.394 . S
C295 C301 1.465 1_455 S
C296 C291 1.399 . S
C296 C295 1.394 . S
C296 C297 1.516 1_455 S
C297 C296 1.516 1_655 S
C297 C298 1.502 . S
C297 C299 1.561 . S
C297 C300 1.526 . S
C298 H282 0.959 . S
C298 H283 0.959 . S
C298 H284 0.961 . S
C298 C297 1.502 . S
C299 H285 0.960 . S
C299 H286 0.961 . S
C299 H287 0.959 . S
C299 C297 1.561 . S
C300 C297 1.526 . S
C300 C301 1.396 . S
C300 C305 1.390 . S
C301 C295 1.465 1_655 S
C301 C300 1.396 . S
C301 C302 1.399 . S
C302 H288 0.929 1_655 S
C302 C301 1.399 . S
C302 C303 1.385 . S
C303 H289 0.931 . S
C303 C302 1.385 . S
C303 C304 1.389 . S
C304 C303 1.389 . S
C304 C305 1.387 . S
C305 H290 0.930 . S
C305 C300 1.390 . S
C305 C304 1.387 . S
H306 C318 0.930 . S
H307 C320 0.930 . S
H308 C321 0.930 . S
H309 C325 0.959 . S
H310 C325 0.959 . S
H311 C325 0.961 . S
H312 C326 0.960 . S
H313 C326 0.961 . S
H314 C326 0.959 . S
H315 C329 0.929 . S
H316 C330 0.931 . S
H317 C332 0.930 . S
C318 H306 0.930 . S
C318 C319 1.399 . S
C318 C323 1.399 . S
C319 C318 1.399 . S
C319 C320 1.376 . S
C320 H307 0.930 . S
C320 C319 1.376 . S
C320 C321 1.388 . S
C321 H308 0.930 . S
C321 C320 1.388 . S
C321 C322 1.390 . S
C322 C321 1.390 . S
C322 C323 1.394 . S
C322 C328 1.465 . S
C323 C318 1.399 . S
C323 C322 1.394 . S
C323 C324 1.516 . S
C324 C323 1.516 . S
C324 C325 1.502 . S
C324 C326 1.561 . S
C324 C327 1.526 . S
C325 H309 0.959 . S
C325 H310 0.959 . S
C325 H311 0.961 . S
C325 C324 1.502 . S
C326 H312 0.960 . S
C326 H313 0.961 . S
C326 H314 0.959 . S
C326 C324 1.561 . S
C327 C324 1.526 . S
C327 C328 1.396 . S
C327 C332 1.390 . S
C328 C322 1.465 . S
C328 C327 1.396 . S
C328 C329 1.399 . S
C329 H315 0.929 . S
C329 C328 1.399 . S
C329 C330 1.385 . S
C330 H316 0.931 . S
C330 C329 1.385 . S
C330 C331 1.389 . S
C331 C330 1.389 . S
C331 C332 1.387 . S
C332 H317 0.930 . S
C332 C327 1.390 . S
C332 C331 1.387 . S
H333 C345 0.930 . S
H334 C347 0.930 . S
H335 C348 0.930 . S
H336 C352 0.959 . S
H337 C352 0.959 . S
H338 C352 0.961 . S
H339 C353 0.960 . S
H340 C353 0.961 1_545 S
H341 C353 0.959 . S
H342 C356 0.929 . S
H343 C357 0.931 . S
H344 C359 0.930 . S
C345 H333 0.930 . S
C345 C346 1.399 . S
C345 C350 1.399 . S
C346 C345 1.399 . S
C346 C347 1.376 . S
C347 H334 0.930 . S
C347 C346 1.376 . S
C347 C348 1.388 . S
C348 H335 0.930 . S
C348 C347 1.388 . S
C348 C349 1.390 . S
C349 C348 1.390 . S
C349 C350 1.394 . S
C349 C355 1.465 1_565 S
C350 C345 1.399 . S
C350 C349 1.394 . S
C350 C351 1.516 1_565 S
C351 C350 1.516 1_545 S
C351 C352 1.502 . S
C351 C353 1.561 1_545 S
C351 C354 1.526 . S
C352 H336 0.959 . S
C352 H337 0.959 . S
C352 H338 0.961 . S
C352 C351 1.502 . S
C353 H339 0.960 . S
C353 H340 0.961 1_565 S
C353 H341 0.959 . S
C353 C351 1.561 1_565 S
C354 C351 1.526 . S
C354 C355 1.396 . S
C354 C359 1.390 . S
C355 C349 1.465 1_545 S
C355 C354 1.396 . S
C355 C356 1.399 . S
C356 H342 0.929 . S
C356 C355 1.399 . S
C356 C357 1.385 . S
C357 H343 0.931 . S
C357 C356 1.385 . S
C357 C358 1.389 . S
C358 C357 1.389 . S
C358 C359 1.387 . S
C359 H344 0.930 . S
C359 C354 1.390 . S
C359 C358 1.387 . S
H360 C372 0.930 . S
H361 C374 0.930 . S
H362 C375 0.930 . S
H363 C379 0.959 . S
H364 C379 0.959 . S
H365 C379 0.961 . S
H366 C380 0.960 . S
H367 C380 0.961 . S
H368 C380 0.959 . S
H369 C383 0.930 1_455 S
H370 C384 0.931 . S
H371 C386 0.930 . S
C372 H360 0.930 . S
C372 C373 1.399 . S
C372 C377 1.399 . S
C373 C372 1.399 . S
C373 C374 1.376 . S
C374 H361 0.930 . S
C374 C373 1.376 . S
C374 C375 1.388 . S
C375 H362 0.930 . S
C375 C374 1.388 . S
C375 C376 1.390 . S
C376 C375 1.390 . S
C376 C377 1.394 . S
C376 C382 1.465 . S
C377 C372 1.399 . S
C377 C376 1.394 . S
C377 C378 1.516 . S
C378 C377 1.516 . S
C378 C379 1.502 . S
C378 C380 1.561 . S
C378 C381 1.526 . S
C379 H363 0.959 . S
C379 H364 0.959 . S
C379 H365 0.961 . S
C379 C378 1.502 . S
C380 H366 0.960 . S
C380 H367 0.961 . S
C380 H368 0.959 . S
C380 C378 1.561 . S
C381 C378 1.526 . S
C381 C382 1.396 . S
C381 C386 1.390 . S
C382 C376 1.465 . S
C382 C381 1.396 . S
C382 C383 1.399 . S
C383 H369 0.930 1_655 S
C383 C382 1.399 . S
C383 C384 1.385 1_655 S
C384 H370 0.931 . S
C384 C383 1.385 1_455 S
C384 C385 1.389 . S
C385 C384 1.389 . S
C385 C386 1.387 1_455 S
C386 H371 0.930 . S
C386 C381 1.390 . S
C386 C385 1.387 1_655 S
H387 C399 0.930 . S
H388 C401 0.930 . S
H389 C402 0.930 . S
H390 C406 0.959 . S
H391 C406 0.959 . S
H392 C406 0.961 . S
H393 C407 0.960 . S
H394 C407 0.961 . S
H395 C407 0.959 . S
H396 C410 0.929 . S
H397 C411 0.931 . S
H398 C413 0.930 . S
C399 H387 0.930 . S
C399 C400 1.399 . S
C399 C404 1.399 . S
C400 C399 1.399 . S
C400 C401 1.376 . S
C401 H388 0.930 . S
C401 C400 1.376 . S
C401 C402 1.388 . S
C402 H389 0.930 . S
C402 C401 1.388 . S
C402 C403 1.390 . S
C403 C402 1.390 . S
C403 C404 1.394 . S
C403 C409 1.465 . S
C404 C399 1.399 . S
C404 C403 1.394 . S
C404 C405 1.516 . S
C405 C404 1.516 . S
C405 C406 1.502 . S
C405 C407 1.561 . S
C405 C408 1.526 . S
C406 H390 0.959 . S
C406 H391 0.959 . S
C406 H392 0.961 . S
C406 C405 1.502 . S
C407 H393 0.960 . S
C407 H394 0.961 . S
C407 H395 0.959 . S
C407 C405 1.561 . S
C408 C405 1.526 . S
C408 C409 1.396 . S
C408 C413 1.390 . S
C409 C403 1.465 . S
C409 C408 1.396 . S
C409 C410 1.399 . S
C410 H396 0.929 . S
C410 C409 1.399 . S
C410 C411 1.385 . S
C411 H397 0.931 . S
C411 C410 1.385 . S
C411 C412 1.389 . S
C412 C411 1.389 . S
C412 C413 1.387 . S
C413 H398 0.930 . S
C413 C408 1.390 . S
C413 C412 1.387 . S
H414 C426 0.930 . S
H415 C428 0.930 . S
H416 C429 0.930 . S
H417 C433 0.959 . S
H418 C433 0.959 . S
H419 C433 0.961 . S
H420 C434 0.960 . S
H421 C434 0.961 1_565 S
H422 C434 0.959 . S
H423 C437 0.929 . S
H424 C438 0.931 . S
H425 C440 0.930 . S
C426 H414 0.930 . S
C426 C427 1.399 . S
C426 C431 1.399 . S
C427 C426 1.399 . S
C427 C428 1.376 . S
C428 H415 0.930 . S
C428 C427 1.376 . S
C428 C429 1.388 . S
C429 H416 0.930 . S
C429 C428 1.388 . S
C429 C430 1.390 . S
C430 C429 1.390 . S
C430 C431 1.394 . S
C430 C436 1.465 . S
C431 C426 1.399 . S
C431 C430 1.394 . S
C431 C432 1.516 . S
C432 C431 1.516 . S
C432 C433 1.502 1_545 S
C432 C434 1.561 . S
C432 C435 1.526 . S
C433 H417 0.959 . S
C433 H418 0.959 . S
C433 H419 0.961 . S
C433 C432 1.502 1_565 S
C434 H420 0.960 . S
C434 H421 0.961 1_545 S
C434 H422 0.959 . S
C434 C432 1.561 . S
C435 C432 1.526 . S
C435 C436 1.396 . S
C435 C440 1.390 1_545 S
C436 C430 1.465 . S
C436 C435 1.396 . S
C436 C437 1.399 . S
C437 H423 0.929 . S
C437 C436 1.399 . S
C437 C438 1.385 . S
C438 H424 0.931 . S
C438 C437 1.385 . S
C438 C439 1.389 1_545 S
C439 C438 1.389 1_565 S
C439 C440 1.387 . S
C440 H425 0.930 . S
C440 C435 1.390 1_565 S
C440 C439 1.387 . S
H441 C453 0.930 . S
H442 C455 0.930 . S
H443 C456 0.930 . S
H444 C460 0.959 . S
H445 C460 0.959 1_565 S
H446 C460 0.961 . S
H447 C461 0.960 . S
H448 C461 0.961 . S
H449 C461 0.959 . S
H450 C464 0.929 . S
H451 C465 0.931 . S
H452 C467 0.930 . S
C453 H441 0.930 . S
C453 C454 1.399 . S
C453 C458 1.399 . S
C454 C453 1.399 . S
C454 C455 1.376 . S
C455 H442 0.930 . S
C455 C454 1.376 . S
C455 C456 1.388 . S
C456 H443 0.930 . S
C456 C455 1.388 . S
C456 C457 1.390 . S
C457 C456 1.390 . S
C457 C458 1.394 . S
C457 C463 1.465 . S
C458 C453 1.399 . S
C458 C457 1.394 . S
C458 C459 1.516 . S
C459 C458 1.516 . S
C459 C460 1.502 . S
C459 C461 1.561 1_545 S
C459 C462 1.526 . S
C460 H444 0.959 . S
C460 H445 0.959 1_545 S
C460 H446 0.961 . S
C460 C459 1.502 . S
C461 H447 0.960 . S
C461 H448 0.961 . S
C461 H449 0.959 . S
C461 C459 1.561 1_565 S
C462 C459 1.526 . S
C462 C463 1.396 . S
C462 C467 1.390 1_545 S
C463 C457 1.465 . S
C463 C462 1.396 . S
C463 C464 1.399 . S
C464 H450 0.929 . S
C464 C463 1.399 . S
C464 C465 1.385 . S
C465 H451 0.931 . S
C465 C464 1.385 . S
C465 C466 1.389 1_545 S
C466 C465 1.389 1_565 S
C466 C467 1.387 . S
C467 H452 0.930 . S
C467 C462 1.390 1_565 S
C467 C466 1.387 . S
H468 C480 0.930 . S
H469 C482 0.930 . S
H470 C483 0.930 . S
H471 C487 0.959 . S
H472 C487 0.959 . S
H473 C487 0.961 . S
H474 C488 0.960 . S
H475 C488 0.961 . S
H476 C488 0.959 . S
H477 C491 0.929 . S
H478 C492 0.931 . S
H479 C494 0.930 . S
C480 H468 0.930 . S
C480 C481 1.399 1_655 S
C480 C485 1.399 . S
C481 C480 1.399 1_455 S
C481 C482 1.376 . S
C482 H469 0.930 . S
C482 C481 1.376 . S
C482 C483 1.388 1_455 S
C483 H470 0.930 . S
C483 C482 1.388 1_655 S
C483 C484 1.390 . S
C484 C483 1.390 . S
C484 C485 1.394 . S
C484 C490 1.465 . S
C485 C480 1.399 . S
C485 C484 1.394 . S
C485 C486 1.516 . S
C486 C485 1.516 . S
C486 C487 1.502 . S
C486 C488 1.561 . S
C486 C489 1.526 . S
C487 H471 0.959 . S
C487 H472 0.959 . S
C487 H473 0.961 . S
C487 C486 1.502 . S
C488 H474 0.960 . S
C488 H475 0.961 . S
C488 H476 0.959 . S
C488 C486 1.561 . S
C489 C486 1.526 . S
C489 C490 1.396 . S
C489 C494 1.390 . S
C490 C484 1.465 . S
C490 C489 1.396 . S
C490 C491 1.399 . S
C491 H477 0.929 . S
C491 C490 1.399 . S
C491 C492 1.385 . S
C492 H478 0.931 . S
C492 C491 1.385 . S
C492 C493 1.389 . S
C493 C492 1.389 . S
C493 C494 1.387 . S
C494 H479 0.930 . S
C494 C489 1.390 . S
C494 C493 1.387 . S
H495 C507 0.930 . S
H496 C509 0.930 . S
H497 C510 0.930 . S
H498 C514 0.959 . S
H499 C514 0.959 . S
H500 C514 0.961 . S
H501 C515 0.960 . S
H502 C515 0.961 . S
H503 C515 0.959 . S
H504 C518 0.929 . S
H505 C519 0.931 . S
H506 C521 0.930 . S
C507 H495 0.930 . S
C507 C508 1.399 . S
C507 C512 1.399 . S
C508 C507 1.399 . S
C508 C509 1.376 . S
C509 H496 0.930 . S
C509 C508 1.376 . S
C509 C510 1.388 . S
C510 H497 0.930 . S
C510 C509 1.388 . S
C510 C511 1.390 . S
C511 C510 1.390 . S
C511 C512 1.394 . S
C511 C517 1.465 . S
C512 C507 1.399 . S
C512 C511 1.394 . S
C512 C513 1.516 . S
C513 C512 1.516 . S
C513 C514 1.502 . S
C513 C515 1.561 . S
C513 C516 1.526 . S
C514 H498 0.959 . S
C514 H499 0.959 . S
C514 H500 0.961 . S
C514 C513 1.502 . S
C515 H501 0.960 . S
C515 H502 0.961 . S
C515 H503 0.959 . S
C515 C513 1.561 . S
C516 C513 1.526 . S
C516 C517 1.396 . S
C516 C521 1.390 . S
C517 C511 1.465 . S
C517 C516 1.396 . S
C517 C518 1.399 . S
C518 H504 0.929 . S
C518 C517 1.399 . S
C518 C519 1.385 . S
C519 H505 0.931 . S
C519 C518 1.385 . S
C519 C520 1.389 . S
C520 C519 1.389 . S
C520 C521 1.387 . S
C521 H506 0.930 . S
C521 C516 1.390 . S
C521 C520 1.387 . S
H522 C534 0.930 . S
H523 C536 0.930 . S
H524 C537 0.930 . S
H525 C541 0.959 . S
H526 C541 0.959 . S
H527 C541 0.961 . S
H528 C542 0.960 . S
H529 C542 0.961 . S
H530 C542 0.959 . S
H531 C545 0.929 . S
H532 C546 0.931 . S
H533 C548 0.930 . S
C534 H522 0.930 . S
C534 C535 1.399 . S
C534 C539 1.399 . S
C535 C534 1.399 . S
C535 C536 1.376 . S
C536 H523 0.930 . S
C536 C535 1.376 . S
C536 C537 1.388 . S
C537 H524 0.930 . S
C537 C536 1.388 . S
C537 C538 1.390 . S
C538 C537 1.390 . S
C538 C539 1.394 . S
C538 C544 1.465 . S
C539 C534 1.399 . S
C539 C538 1.394 . S
C539 C540 1.516 . S
C540 C539 1.516 . S
C540 C541 1.502 . S
C540 C542 1.561 . S
C540 C543 1.526 . S
C541 H525 0.959 . S
C541 H526 0.959 . S
C541 H527 0.961 . S
C541 C540 1.502 . S
C542 H528 0.960 . S
C542 H529 0.961 . S
C542 H530 0.959 . S
C542 C540 1.561 . S
C543 C540 1.526 . S
C543 C544 1.396 . S
C543 C548 1.390 . S
C544 C538 1.465 . S
C544 C543 1.396 . S
C544 C545 1.399 . S
C545 H531 0.929 . S
C545 C544 1.399 . S
C545 C546 1.385 . S
C546 H532 0.931 . S
C546 C545 1.385 . S
C546 C547 1.389 . S
C547 C546 1.389 . S
C547 C548 1.387 . S
C548 H533 0.930 . S
C548 C543 1.390 . S
C548 C547 1.387 . S
H549 C561 0.930 . S
H550 C563 0.930 . S
H551 C564 0.930 . S
H552 C568 0.959 . S
H553 C568 0.959 . S
H554 C568 0.956 1_545 S
H555 C569 0.960 1_545 S
H556 C569 0.961 1_545 S
H557 C569 0.959 . S
H558 C572 0.929 . S
H559 C573 0.931 . S
H560 C575 0.930 . S
C561 H549 0.930 . S
C561 C562 1.399 . S
C561 C566 1.399 . S
C562 C561 1.399 . S
C562 C563 1.376 . S
C563 H550 0.930 . S
C563 C562 1.376 . S
C563 C564 1.388 . S
C564 H551 0.930 . S
C564 C563 1.388 . S
C564 C565 1.390 . S
C565 C564 1.390 . S
C565 C566 1.394 . S
C565 C571 1.465 . S
C566 C561 1.399 . S
C566 C565 1.394 . S
C566 C567 1.516 . S
C567 C566 1.516 . S
C567 C568 1.502 . S
C567 C569 1.561 . S
C567 C570 1.526 . S
C568 H552 0.959 . S
C568 H553 0.959 . S
C568 H554 0.956 1_565 S
C568 C567 1.502 . S
C569 H555 0.960 1_565 S
C569 H556 0.961 1_565 S
C569 H557 0.959 . S
C569 C567 1.561 . S
C570 C567 1.526 . S
C570 C571 1.396 . S
C570 C575 1.390 . S
C571 C565 1.465 . S
C571 C570 1.396 . S
C571 C572 1.399 . S
C572 H558 0.929 . S
C572 C571 1.399 . S
C572 C573 1.385 . S
C573 H559 0.931 . S
C573 C572 1.385 . S
C573 C574 1.389 . S
C574 C573 1.389 . S
C574 C575 1.387 . S
C575 H560 0.930 . S
C575 C570 1.390 . S
C575 C574 1.387 . S
H576 C588 0.930 . S
H577 C590 0.930 . S
H578 C591 0.930 . S
H579 C595 0.959 . S
H580 C595 0.959 1_655 S
H581 C595 0.961 1_655 S
H582 C596 0.960 . S
H583 C596 0.961 1_655 S
H584 C596 0.959 . S
H585 C599 0.929 . S
H586 C600 0.931 . S
H587 C602 0.930 . S
C588 H576 0.930 . S
C588 C589 1.399 . S
C588 C593 1.399 . S
C589 C588 1.399 . S
C589 C590 1.376 . S
C590 H577 0.930 . S
C590 C589 1.376 . S
C590 C591 1.388 . S
C591 H578 0.930 . S
C591 C590 1.388 . S
C591 C592 1.390 . S
C592 C591 1.390 . S
C592 C593 1.394 . S
C592 C598 1.465 . S
C593 C588 1.399 . S
C593 C592 1.394 . S
C593 C594 1.516 . S
C594 C593 1.516 . S
C594 C595 1.502 . S
C594 C596 1.561 . S
C594 C597 1.526 . S
C595 H579 0.959 . S
C595 H580 0.959 1_455 S
C595 H581 0.961 1_455 S
C595 C594 1.502 . S
C596 H582 0.960 . S
C596 H583 0.961 1_455 S
C596 H584 0.959 . S
C596 C594 1.561 . S
C597 C594 1.526 . S
C597 C598 1.396 . S
C597 C602 1.390 . S
C598 C592 1.465 . S
C598 C597 1.396 . S
C598 C599 1.399 . S
C599 H585 0.929 . S
C599 C598 1.399 . S
C599 C600 1.385 . S
C600 H586 0.931 . S
C600 C599 1.385 . S
C600 C601 1.389 . S
C601 C600 1.389 . S
C601 C602 1.387 . S
C602 H587 0.930 . S
C602 C597 1.390 . S
C602 C601 1.387 . S
H603 C615 0.930 . S
H604 C617 0.930 . S
H605 C618 0.930 . S
H606 C622 0.959 . S
H607 C622 0.959 . S
H608 C622 0.961 . S
H609 C623 0.960 . S
H610 C623 0.961 . S
H611 C623 0.959 . S
H612 C626 0.929 . S
H613 C627 0.931 . S
H614 C629 0.930 . S
C615 H603 0.930 . S
C615 C616 1.399 . S
C615 C620 1.399 . S
C616 C615 1.399 . S
C616 C617 1.376 . S
C617 H604 0.930 . S
C617 C616 1.376 . S
C617 C618 1.388 . S
C618 H605 0.930 . S
C618 C617 1.388 . S
C618 C619 1.390 . S
C619 C618 1.390 . S
C619 C620 1.394 . S
C619 C625 1.465 . S
C620 C615 1.399 . S
C620 C619 1.394 . S
C620 C621 1.516 . S
C621 C620 1.516 . S
C621 C622 1.502 . S
C621 C623 1.561 . S
C621 C624 1.526 . S
C622 H606 0.959 . S
C622 H607 0.959 . S
C622 H608 0.961 . S
C622 C621 1.502 . S
C623 H609 0.960 . S
C623 H610 0.961 . S
C623 H611 0.959 . S
C623 C621 1.561 . S
C624 C621 1.526 . S
C624 C625 1.396 . S
C624 C629 1.390 . S
C625 C619 1.465 . S
C625 C624 1.396 . S
C625 C626 1.399 . S
C626 H612 0.929 . S
C626 C625 1.399 . S
C626 C627 1.385 . S
C627 H613 0.931 . S
C627 C626 1.385 . S
C627 C628 1.389 . S
C628 C627 1.389 . S
C628 C629 1.387 . S
C629 H614 0.930 . S
C629 C624 1.390 . S
C629 C628 1.387 . S
H630 C642 0.930 . S
H631 C644 0.930 . S
H632 C645 0.930 . S
H633 C649 0.959 . S
H634 C649 0.959 1_545 S
H635 C649 0.961 1_545 S
H636 C650 0.960 1_545 S
H637 C650 0.961 1_545 S
H638 C650 0.959 . S
H639 C653 0.929 . S
H640 C654 0.931 . S
H641 C656 0.930 . S
C642 H630 0.930 . S
C642 C643 1.399 . S
C642 C647 1.399 . S
C643 C642 1.399 . S
C643 C644 1.376 . S
C644 H631 0.930 . S
C644 C643 1.376 . S
C644 C645 1.388 . S
C645 H632 0.930 . S
C645 C644 1.388 . S
C645 C646 1.390 . S
C646 C645 1.390 . S
C646 C647 1.394 . S
C646 C652 1.465 . S
C647 C642 1.399 . S
C647 C646 1.394 . S
C647 C648 1.516 . S
C648 C647 1.516 . S
C648 C649 1.502 . S
C648 C650 1.561 . S
C648 C651 1.526 . S
C649 H633 0.959 . S
C649 H634 0.959 1_565 S
C649 H635 0.961 1_565 S
C649 C648 1.502 . S
C650 H636 0.960 1_565 S
C650 H637 0.961 1_565 S
C650 H638 0.959 . S
C650 C648 1.561 . S
C651 C648 1.526 . S
C651 C652 1.396 . S
C651 C656 1.390 . S
C652 C646 1.465 . S
C652 C651 1.396 . S
C652 C653 1.399 . S
C653 H639 0.929 . S
C653 C652 1.399 . S
C653 C654 1.385 . S
C654 H640 0.931 . S
C654 C653 1.385 . S
C654 C655 1.389 . S
C655 C654 1.389 . S
C655 C656 1.387 . S
C656 H641 0.930 . S
C656 C651 1.390 . S
C656 C655 1.387 . S
H657 C669 0.930 . S
H658 C671 0.930 . S
H659 C672 0.930 . S
H660 C676 0.959 . S
H661 C676 0.959 . S
H662 C676 0.961 . S
H663 C677 0.960 . S
H664 C677 0.961 . S
H665 C677 0.959 . S
H666 C680 0.929 . S
H667 C681 0.931 . S
H668 C683 0.930 . S
C669 H657 0.930 . S
C669 C670 1.399 . S
C669 C674 1.399 . S
C670 C669 1.399 . S
C670 C671 1.376 . S
C671 H658 0.930 . S
C671 C670 1.376 . S
C671 C672 1.388 . S
C672 H659 0.930 . S
C672 C671 1.388 . S
C672 C673 1.390 . S
C673 C672 1.390 . S
C673 C674 1.394 . S
C673 C679 1.465 . S
C674 C669 1.399 . S
C674 C673 1.394 . S
C674 C675 1.516 . S
C675 C674 1.516 . S
C675 C676 1.502 . S
C675 C677 1.561 . S
C675 C678 1.526 . S
C676 H660 0.959 . S
C676 H661 0.959 . S
C676 H662 0.961 . S
C676 C675 1.502 . S
C677 H663 0.960 . S
C677 H664 0.961 . S
C677 H665 0.959 . S
C677 C675 1.561 . S
C678 C675 1.526 . S
C678 C679 1.396 . S
C678 C683 1.390 . S
C679 C673 1.465 . S
C679 C678 1.396 . S
C679 C680 1.399 . S
C680 H666 0.929 . S
C680 C679 1.399 . S
C680 C681 1.385 . S
C681 H667 0.931 . S
C681 C680 1.385 . S
C681 C682 1.389 . S
C682 C681 1.389 . S
C682 C683 1.387 . S
C683 H668 0.930 . S
C683 C678 1.390 . S
C683 C682 1.387 . S
H684 C696 0.930 . S
H685 C698 0.930 . S
H686 C699 0.930 . S
H687 C703 0.959 . S
H688 C703 0.959 . S
H689 C703 0.961 . S
H690 C704 0.960 . S
H691 C704 0.961 . S
H692 C704 0.959 . S
H693 C707 0.929 . S
H694 C708 0.931 . S
H695 C710 0.930 . S
C696 H684 0.930 . S
C696 C697 1.399 . S
C696 C701 1.399 . S
C697 C696 1.399 . S
C697 C698 1.376 . S
C698 H685 0.930 . S
C698 C697 1.376 . S
C698 C699 1.388 . S
C699 H686 0.930 . S
C699 C698 1.388 . S
C699 C700 1.390 . S
C700 C699 1.390 . S
C700 C701 1.394 . S
C700 C706 1.465 . S
C701 C696 1.399 . S
C701 C700 1.394 . S
C701 C702 1.516 . S
C702 C701 1.516 . S
C702 C703 1.502 1_556 S
C702 C704 1.561 . S
C702 C705 1.526 . S
C703 H687 0.959 . S
C703 H688 0.959 . S
C703 H689 0.961 . S
C703 C702 1.502 1_554 S
C704 H690 0.960 . S
C704 H691 0.961 . S
C704 H692 0.959 . S
C704 C702 1.561 . S
C705 C702 1.526 . S
C705 C706 1.396 . S
C705 C710 1.390 . S
C706 C700 1.465 . S
C706 C705 1.396 . S
C706 C707 1.399 . S
C707 H693 0.929 . S
C707 C706 1.399 . S
C707 C708 1.385 . S
C708 H694 0.931 . S
C708 C707 1.385 . S
C708 C709 1.389 . S
C709 C708 1.389 . S
C709 C710 1.387 . S
C710 H695 0.930 . S
C710 C705 1.390 . S
C710 C709 1.387 . S
H711 C723 0.928 1_554 S
H712 C725 0.930 . S
H713 C726 0.930 . S
H714 C730 0.959 . S
H715 C730 0.959 1_554 S
H716 C730 0.961 1_554 S
H717 C731 0.960 . S
H718 C731 0.961 . S
H719 C731 0.959 . S
H720 C734 0.929 . S
H721 C735 0.931 . S
H722 C737 0.927 1_554 S
C723 H711 0.928 1_556 S
C723 C724 1.401 . S
C723 C728 1.399 . S
C724 C723 1.401 . S
C724 C725 1.376 . S
C725 H712 0.930 . S
C725 C724 1.376 . S
C725 C726 1.388 . S
C726 H713 0.930 . S
C726 C725 1.388 . S
C726 C727 1.390 . S
C727 C726 1.390 . S
C727 C728 1.394 . S
C727 C733 1.465 . S
C728 C723 1.399 . S
C728 C727 1.394 . S
C728 C729 1.516 1_556 S
C729 C728 1.516 1_554 S
C729 C730 1.502 1_554 S
C729 C731 1.561 . S
C729 C732 1.526 1_554 S
C730 H714 0.959 . S
C730 H715 0.959 1_556 S
C730 H716 0.961 1_556 S
C730 C729 1.502 1_556 S
C731 H717 0.960 . S
C731 H718 0.961 . S
C731 H719 0.959 . S
C731 C729 1.561 . S
C732 C729 1.526 1_556 S
C732 C733 1.396 . S
C732 C737 1.390 . S
C733 C727 1.465 . S
C733 C732 1.396 . S
C733 C734 1.399 . S
C734 H720 0.929 . S
C734 C733 1.399 . S
C734 C735 1.385 . S
C735 H721 0.931 . S
C735 C734 1.385 . S
C735 C736 1.389 . S
C736 C735 1.389 . S
C736 C737 1.389 . S
C737 H722 0.927 1_556 S
C737 C732 1.390 . S
C737 C736 1.389 . S
H738 C750 0.930 . S
H739 C752 0.930 . S
H740 C753 0.930 . S
H741 C757 0.959 . S
H742 C757 0.959 . S
H743 C757 0.961 . S
H744 C758 0.960 . S
H745 C758 0.961 . S
H746 C758 0.959 . S
H747 C761 0.929 . S
H748 C762 0.931 . S
H749 C764 0.930 . S
C750 H738 0.930 . S
C750 C751 1.399 1_554 S
C750 C755 1.399 . S
C751 C750 1.399 1_556 S
C751 C752 1.376 . S
C752 H739 0.930 . S
C752 C751 1.376 . S
C752 C753 1.388 . S
C753 H740 0.930 . S
C753 C752 1.388 . S
C753 C754 1.390 . S
C754 C753 1.390 . S
C754 C755 1.394 1_556 S
C754 C760 1.465 . S
C755 C750 1.399 . S
C755 C754 1.394 1_554 S
C755 C756 1.516 . S
C756 C755 1.516 . S
C756 C757 1.502 . S
C756 C758 1.561 . S
C756 C759 1.526 . S
C757 H741 0.959 . S
C757 H742 0.959 . S
C757 H743 0.961 . S
C757 C756 1.502 . S
C758 H744 0.960 . S
C758 H745 0.961 . S
C758 H746 0.959 . S
C758 C756 1.561 . S
C759 C756 1.526 . S
C759 C760 1.396 1_554 S
C759 C764 1.390 . S
C760 C754 1.465 . S
C760 C759 1.396 1_556 S
C760 C761 1.399 . S
C761 H747 0.929 . S
C761 C760 1.399 . S
C761 C762 1.385 . S
C762 H748 0.931 . S
C762 C761 1.385 . S
C762 C763 1.389 . S
C763 C762 1.389 . S
C763 C764 1.387 1_556 S
C764 H749 0.930 . S
C764 C759 1.390 . S
C764 C763 1.387 1_554 S
H765 C777 0.930 . S
H766 C779 0.930 . S
H767 C780 0.930 . S
H768 C784 0.959 . S
H769 C784 0.959 . S
H770 C784 0.961 . S
H771 C785 0.960 . S
H772 C785 0.961 . S
H773 C785 0.959 . S
H774 C788 0.929 . S
H775 C789 0.931 . S
H776 C791 0.930 . S
C777 H765 0.930 . S
C777 C778 1.399 . S
C777 C782 1.399 . S
C778 C777 1.399 . S
C778 C779 1.376 . S
C779 H766 0.930 . S
C779 C778 1.376 . S
C779 C780 1.388 . S
C780 H767 0.930 . S
C780 C779 1.388 . S
C780 C781 1.390 . S
C781 C780 1.390 . S
C781 C782 1.394 . S
C781 C787 1.465 . S
C782 C777 1.399 . S
C782 C781 1.394 . S
C782 C783 1.516 . S
C783 C782 1.516 . S
C783 C784 1.502 . S
C783 C785 1.561 . S
C783 C786 1.526 . S
C784 H768 0.959 . S
C784 H769 0.959 . S
C784 H770 0.961 . S
C784 C783 1.502 . S
C785 H771 0.960 . S
C785 H772 0.961 . S
C785 H773 0.959 . S
C785 C783 1.561 . S
C786 C783 1.526 . S
C786 C787 1.396 . S
C786 C791 1.390 . S
C787 C781 1.465 . S
C787 C786 1.396 . S
C787 C788 1.399 . S
C788 H774 0.929 . S
C788 C787 1.399 . S
C788 C789 1.385 . S
C789 H775 0.931 . S
C789 C788 1.385 . S
C789 C790 1.389 . S
C790 C789 1.389 . S
C790 C791 1.387 . S
C791 H776 0.930 . S
C791 C786 1.390 . S
C791 C790 1.387 . S
H792 C804 0.930 . S
H793 C806 0.930 . S
H794 C807 0.930 . S
H795 C811 0.959 . S
H796 C811 0.959 . S
H797 C811 0.961 . S
H798 C812 0.960 . S
H799 C812 0.961 . S
H800 C812 0.959 . S
H801 C815 0.929 . S
H802 C816 0.931 . S
H803 C818 0.930 . S
C804 H792 0.930 . S
C804 C805 1.399 . S
C804 C809 1.399 . S
C805 C804 1.399 . S
C805 C806 1.376 . S
C806 H793 0.930 . S
C806 C805 1.376 . S
C806 C807 1.388 . S
C807 H794 0.930 . S
C807 C806 1.388 . S
C807 C808 1.390 . S
C808 C807 1.390 . S
C808 C809 1.394 . S
C808 C814 1.465 . S
C809 C804 1.399 . S
C809 C808 1.394 . S
C809 C810 1.516 . S
C810 C809 1.516 . S
C810 C811 1.502 . S
C810 C812 1.561 . S
C810 C813 1.526 . S
C811 H795 0.959 . S
C811 H796 0.959 . S
C811 H797 0.961 . S
C811 C810 1.502 . S
C812 H798 0.960 . S
C812 H799 0.961 . S
C812 H800 0.959 . S
C812 C810 1.561 . S
C813 C810 1.526 . S
C813 C814 1.396 . S
C813 C818 1.390 . S
C814 C808 1.465 . S
C814 C813 1.396 . S
C814 C815 1.399 . S
C815 H801 0.929 . S
C815 C814 1.399 . S
C815 C816 1.385 . S
C816 H802 0.931 . S
C816 C815 1.385 . S
C816 C817 1.389 . S
C817 C816 1.389 . S
C817 C818 1.387 . S
C818 H803 0.930 . S
C818 C813 1.390 . S
C818 C817 1.387 . S
H819 C831 0.930 . S
H820 C833 0.930 . S
H821 C834 0.930 . S
H822 C838 0.959 . S
H823 C838 0.959 . S
H824 C838 0.961 . S
H825 C839 0.960 . S
H826 C839 0.961 . S
H827 C839 0.959 . S
H828 C842 0.929 . S
H829 C843 0.931 . S
H830 C845 0.930 . S
C831 H819 0.930 . S
C831 C832 1.399 . S
C831 C836 1.399 . S
C832 C831 1.399 . S
C832 C833 1.376 . S
C833 H820 0.930 . S
C833 C832 1.376 . S
C833 C834 1.388 . S
C834 H821 0.930 . S
C834 C833 1.388 . S
C834 C835 1.390 . S
C835 C834 1.390 . S
C835 C836 1.394 . S
C835 C841 1.465 . S
C836 C831 1.399 . S
C836 C835 1.394 . S
C836 C837 1.516 . S
C837 C836 1.516 . S
C837 C838 1.502 . S
C837 C839 1.561 . S
C837 C840 1.526 . S
C838 H822 0.959 . S
C838 H823 0.959 . S
C838 H824 0.961 . S
C838 C837 1.502 . S
C839 H825 0.960 . S
C839 H826 0.961 . S
C839 H827 0.959 . S
C839 C837 1.561 . S
C840 C837 1.526 . S
C840 C841 1.396 . S
C840 C845 1.390 . S
C841 C835 1.465 . S
C841 C840 1.396 . S
C841 C842 1.399 . S
C842 H828 0.929 . S
C842 C841 1.399 . S
C842 C843 1.385 . S
C843 H829 0.931 . S
C843 C842 1.385 . S
C843 C844 1.389 . S
C844 C843 1.389 . S
C844 C845 1.387 . S
C845 H830 0.930 . S
C845 C840 1.390 . S
C845 C844 1.387 . S
H846 C858 0.930 . S
H847 C860 0.930 . S
H848 C861 0.930 1_455 S
H849 C865 0.959 . S
H850 C865 0.959 . S
H851 C865 0.961 . S
H852 C866 0.960 . S
H853 C866 0.961 . S
H854 C866 0.959 . S
H855 C869 0.929 . S
H856 C870 0.931 . S
H857 C872 0.930 . S
C858 H846 0.930 . S
C858 C859 1.399 1_655 S
C858 C863 1.399 . S
C859 C858 1.399 1_455 S
C859 C860 1.376 . S
C860 H847 0.930 . S
C860 C859 1.376 . S
C860 C861 1.388 1_455 S
C861 H848 0.930 1_655 S
C861 C860 1.388 1_655 S
C861 C862 1.390 . S
C862 C861 1.390 . S
C862 C863 1.394 . S
C862 C868 1.465 . S
C863 C858 1.399 . S
C863 C862 1.394 . S
C863 C864 1.516 . S
C864 C863 1.516 . S
C864 C865 1.502 . S
C864 C866 1.561 . S
C864 C867 1.526 . S
C865 H849 0.959 . S
C865 H850 0.959 . S
C865 H851 0.961 . S
C865 C864 1.502 . S
C866 H852 0.960 . S
C866 H853 0.961 . S
C866 H854 0.959 . S
C866 C864 1.561 . S
C867 C864 1.526 . S
C867 C868 1.396 . S
C867 C872 1.390 . S
C868 C862 1.465 . S
C868 C867 1.396 . S
C868 C869 1.399 . S
C869 H855 0.929 . S
C869 C868 1.399 . S
C869 C870 1.385 . S
C870 H856 0.931 . S
C870 C869 1.385 . S
C870 C871 1.389 . S
C871 C870 1.389 . S
C871 C872 1.387 . S
C872 H857 0.930 . S
C872 C867 1.390 . S
C872 C871 1.387 . S
H873 C885 0.930 . S
H874 C887 0.930 . S
H875 C888 0.930 . S
H876 C892 0.959 . S
H877 C892 0.959 . S
H878 C892 0.961 . S
H879 C893 0.960 . S
H880 C893 0.961 . S
H881 C893 0.959 . S
H882 C896 0.929 . S
H883 C897 0.931 . S
H884 C899 0.930 . S
C885 H873 0.930 . S
C885 C886 1.399 1_545 S
C885 C890 1.399 . S
C886 C885 1.399 1_565 S
C886 C887 1.376 . S
C887 H874 0.930 . S
C887 C886 1.376 . S
C887 C888 1.388 1_565 S
C888 H875 0.930 . S
C888 C887 1.388 1_545 S
C888 C889 1.390 . S
C889 C888 1.390 . S
C889 C890 1.394 . S
C889 C895 1.465 . S
C890 C885 1.399 . S
C890 C889 1.394 . S
C890 C891 1.516 . S
C891 C890 1.516 . S
C891 C892 1.502 . S
C891 C893 1.561 . S
C891 C894 1.526 . S
C892 H876 0.959 . S
C892 H877 0.959 . S
C892 H878 0.961 . S
C892 C891 1.502 . S
C893 H879 0.960 . S
C893 H880 0.961 . S
C893 H881 0.959 . S
C893 C891 1.561 . S
C894 C891 1.526 . S
C894 C895 1.396 . S
C894 C899 1.390 . S
C895 C889 1.465 . S
C895 C894 1.396 . S
C895 C896 1.399 . S
C896 H882 0.929 . S
C896 C895 1.399 . S
C896 C897 1.385 . S
C897 H883 0.931 . S
C897 C896 1.385 . S
C897 C898 1.389 . S
C898 C897 1.389 . S
C898 C899 1.387 . S
C899 H884 0.930 . S
C899 C894 1.390 . S
C899 C898 1.387 . S
H900 C912 0.930 . S
H901 C914 0.930 . S
H902 C915 0.930 . S
H903 C919 0.959 . S
H904 C919 0.959 . S
H905 C919 0.961 . S
H906 C920 0.960 . S
H907 C920 0.961 . S
H908 C920 0.959 . S
H909 C923 0.929 . S
H910 C924 0.931 . S
H911 C926 0.933 . S
C912 H900 0.930 . S
C912 C913 1.399 1_545 S
C912 C917 1.399 . S
C913 C912 1.399 1_565 S
C913 C914 1.376 . S
C914 H901 0.930 . S
C914 C913 1.376 . S
C914 C915 1.388 1_565 S
C915 H902 0.930 . S
C915 C914 1.388 1_545 S
C915 C916 1.390 . S
C916 C915 1.390 . S
C916 C917 1.394 . S
C916 C922 1.465 . S
C917 C912 1.399 . S
C917 C916 1.394 . S
C917 C918 1.516 . S
C918 C917 1.516 . S
C918 C919 1.502 . S
C918 C920 1.561 . S
C918 C921 1.526 . S
C919 H903 0.959 . S
C919 H904 0.959 . S
C919 H905 0.961 . S
C919 C918 1.502 . S
C920 H906 0.960 . S
C920 H907 0.961 . S
C920 H908 0.959 . S
C920 C918 1.561 . S
C921 C918 1.526 . S
C921 C922 1.396 . S
C921 C926 1.390 . S
C922 C916 1.465 . S
C922 C921 1.396 . S
C922 C923 1.399 . S
C923 H909 0.929 . S
C923 C922 1.399 . S
C923 C924 1.385 1_655 S
C924 H910 0.931 . S
C924 C923 1.385 1_455 S
C924 C925 1.389 . S
C925 C924 1.389 . S
C925 C926 1.387 1_455 S
C926 H911 0.933 . S
C926 C921 1.390 . S
C926 C925 1.387 1_655 S
C211 C7 1.139 . S
C223 C162 1.172 . S
C238 C29 1.159 . S
C250 C184 1.167 . S
C265 C140 1.222 . S
C277 C51 1.195 . S
C292 C158 1.205 . S
C304 C49 1.204 . S
C319 C180 1.167 . S
C331 C5 1.144 . S
C346 C136 1.176 . S
C358 C27 1.164 . S
C373 C30 1.208 . S
C385 C73 1.161 . S
C400 C95 1.216 . S
C412 C52 1.200 . S
C427 C8 1.167 . S
C439 C117 1.164 . S
C454 C26 1.190 . S
C466 C115 1.185 . S
C481 C71 1.208 . S
C493 C48 1.207 . S
C508 C4 1.176 . S
C520 C93 1.143 . S
C535 C139 1.166 . S
C547 C96 1.211 . S
C562 C118 1.181 . S
C574 C161 1.138 . S
C589 C183 1.148 . S
C601 C74 1.167 . S
C616 C181 1.188 . S
C628 C92 1.209 . S
C643 C114 1.166 . S
C655 C137 1.142 . S
C670 C70 1.218 . S
C682 C159 1.217 . S
C697 C9 1.091 . S
C709 C28 1.081 . S
C724 C50 1.075 . S
C736 C31 1.082 . S
C751 C53 1.153 . S
C763 C6 1.138 . S
C778 C94 1.176 . S
C790 C75 1.175 . S
C805 C116 1.110 . S
C817 C97 1.126 . S
C832 C119 1.109 . S
C844 C72 1.126 . S
C859 C160 1.073 . S
C871 C141 1.075 . S
C886 C163 1.077 . S
C898 C182 1.087 . S
C913 C138 1.134 . S
C925 C185 1.118 . S
