# Generated by pormake.
# Topology lcy-e, (6)-cn, num edge types: 1
# Building blocks:
#     Node 0, Type 0, BuildingBlock: CUKXOW_clean_sbu_0, # of connection points: 6
#     Node 1, Type 0, BuildingBlock: CUKXOW_clean_sbu_0, # of connection points: 6
#     Node 2, Type 0, BuildingBlock: CUKXOW_clean_sbu_0, # of connection points: 6
#     Node 3, Type 0, BuildingBlock: CUKXOW_clean_sbu_0, # of connection points: 6
#     Node 4, Type 0, BuildingBlock: CUKXOW_clean_sbu_0, # of connection points: 6
#     Node 5, Type 0, BuildingBlock: CUKXOW_clean_sbu_0, # of connection points: 6
#     Node 6, Type 0, BuildingBlock: CUKXOW_clean_sbu_0, # of connection points: 6
#     Node 7, Type 0, BuildingBlock: CUKXOW_clean_sbu_0, # of connection points: 6
#     Node 8, Type 0, BuildingBlock: CUKXOW_clean_sbu_0, # of connection points: 6
#     Node 9, Type 0, BuildingBlock: CUKXOW_clean_sbu_0, # of connection points: 6
#     Node 10, Type 0, BuildingBlock: CUKXOW_clean_sbu_0, # of connection points: 6
#     Node 11, Type 0, BuildingBlock: CUKXOW_clean_sbu_0, # of connection points: 6
#     Edge 12, Type (0, 0), BuildingBlock: MIFKUJ_clean_linker_0, # of connection points: 2
#     Edge 13, Type (0, 0), BuildingBlock: MIFKUJ_clean_linker_0, # of connection points: 2
#     Edge 14, Type (0, 0), BuildingBlock: MIFKUJ_clean_linker_0, # of connection points: 2
#     Edge 15, Type (0, 0), BuildingBlock: MIFKUJ_clean_linker_0, # of connection points: 2
#     Edge 16, Type (0, 0), BuildingBlock: MIFKUJ_clean_linker_0, # of connection points: 2
#     Edge 17, Type (0, 0), BuildingBlock: MIFKUJ_clean_linker_0, # of connection points: 2
#     Edge 18, Type (0, 0), BuildingBlock: MIFKUJ_clean_linker_0, # of connection points: 2
#     Edge 19, Type (0, 0), BuildingBlock: MIFKUJ_clean_linker_0, # of connection points: 2
#     Edge 20, Type (0, 0), BuildingBlock: MIFKUJ_clean_linker_0, # of connection points: 2
#     Edge 21, Type (0, 0), BuildingBlock: MIFKUJ_clean_linker_0, # of connection points: 2
#     Edge 22, Type (0, 0), BuildingBlock: MIFKUJ_clean_linker_0, # of connection points: 2
#     Edge 23, Type (0, 0), BuildingBlock: MIFKUJ_clean_linker_0, # of connection points: 2
#     Edge 24, Type (0, 0), BuildingBlock: MIFKUJ_clean_linker_0, # of connection points: 2
#     Edge 25, Type (0, 0), BuildingBlock: MIFKUJ_clean_linker_0, # of connection points: 2
#     Edge 26, Type (0, 0), BuildingBlock: MIFKUJ_clean_linker_0, # of connection points: 2
#     Edge 27, Type (0, 0), BuildingBlock: MIFKUJ_clean_linker_0, # of connection points: 2
#     Edge 28, Type (0, 0), BuildingBlock: MIFKUJ_clean_linker_0, # of connection points: 2
#     Edge 29, Type (0, 0), BuildingBlock: MIFKUJ_clean_linker_0, # of connection points: 2
#     Edge 30, Type (0, 0), BuildingBlock: MIFKUJ_clean_linker_0, # of connection points: 2
#     Edge 31, Type (0, 0), BuildingBlock: MIFKUJ_clean_linker_0, # of connection points: 2
#     Edge 32, Type (0, 0), BuildingBlock: MIFKUJ_clean_linker_0, # of connection points: 2
#     Edge 33, Type (0, 0), BuildingBlock: MIFKUJ_clean_linker_0, # of connection points: 2
#     Edge 34, Type (0, 0), BuildingBlock: MIFKUJ_clean_linker_0, # of connection points: 2
#     Edge 35, Type (0, 0), BuildingBlock: MIFKUJ_clean_linker_0, # of connection points: 2
#     Edge 36, Type (0, 0), BuildingBlock: MIFKUJ_clean_linker_0, # of connection points: 2
#     Edge 37, Type (0, 0), BuildingBlock: MIFKUJ_clean_linker_0, # of connection points: 2
#     Edge 38, Type (0, 0), BuildingBlock: MIFKUJ_clean_linker_0, # of connection points: 2
#     Edge 39, Type (0, 0), BuildingBlock: MIFKUJ_clean_linker_0, # of connection points: 2
#     Edge 40, Type (0, 0), BuildingBlock: MIFKUJ_clean_linker_0, # of connection points: 2
#     Edge 41, Type (0, 0), BuildingBlock: MIFKUJ_clean_linker_0, # of connection points: 2
#     Edge 42, Type (0, 0), BuildingBlock: MIFKUJ_clean_linker_0, # of connection points: 2
#     Edge 43, Type (0, 0), BuildingBlock: MIFKUJ_clean_linker_0, # of connection points: 2
#     Edge 44, Type (0, 0), BuildingBlock: MIFKUJ_clean_linker_0, # of connection points: 2
#     Edge 45, Type (0, 0), BuildingBlock: MIFKUJ_clean_linker_0, # of connection points: 2
#     Edge 46, Type (0, 0), BuildingBlock: MIFKUJ_clean_linker_0, # of connection points: 2
#     Edge 47, Type (0, 0), BuildingBlock: MIFKUJ_clean_linker_0, # of connection points: 2
# Relax obj value: 0.155
# Max RMSD: 0.258
# Mean RMSD: 0.230
data_MOF--net-lcy-e--node1-CUKXOW_clean_sbu_0--edge1-MIFKUJ_clean_linker_0
_symmetry_space_group_name_H-M    P1
_symmetry_Int_Tables_number       1
_symmetry_cell_setting            triclinic
loop_
_symmetry_equiv_pos_as_xyz
'x, y, z'
_cell_length_a     45.252024
_cell_length_b     48.76913
_cell_length_c     48.854795
_cell_angle_alpha  89.997245
_cell_angle_beta   91.212272
_cell_angle_gamma 88.933808
loop_
_atom_site_label
_atom_site_type_symbol
_atom_site_fract_x
_atom_site_fract_y
_atom_site_fract_z
_atom_type_partial_charge
Tb0 Tb 0.15992 0.18594 0.43123 0.0
C1 C 0.09946 0.15439 0.42988 0.0
Tb2 Tb 0.11186 0.203 0.47166 0.0
O3 O 0.16559 0.14638 0.45102 0.0
O4 O 0.15255 0.18084 0.4737 0.0
O5 O 0.12343 0.16051 0.4157 0.0
C6 C 0.0752 0.20618 0.51355 0.0
O7 O 0.09287 0.16642 0.45344 0.0
C8 C 0.11347 0.23191 0.42649 0.0
C9 C 0.168 0.23839 0.47038 0.0
O10 O 0.06916 0.21464 0.48884 0.0
O11 O 0.10173 0.19567 0.51455 0.0
O12 O 0.10393 0.24181 0.44944 0.0
O13 O 0.11887 0.20674 0.42931 0.0
O14 O 0.14644 0.22962 0.48582 0.0
O15 O 0.1751 0.22608 0.44698 0.0
C16 C 0.20411 0.18141 0.39598 0.0
O17 O 0.20646 0.17859 0.42231 0.0
O18 O 0.17665 0.18685 0.38927 0.0
C19 C 0.15655 0.15516 0.47449 0.0
Tb20 Tb 0.09463 0.90707 0.70776 0.0
C21 C 0.1121 0.84421 0.69711 0.0
Tb22 Tb 0.06671 0.86302 0.74199 0.0
O23 O 0.11599 0.92399 0.74461 0.0
O24 O 0.10815 0.8826 0.74179 0.0
O25 O 0.11469 0.87017 0.68872 0.0
C26 C 0.05974 0.82632 0.78137 0.0
O27 O 0.09559 0.83704 0.71801 0.0
C28 C 0.03522 0.87958 0.69878 0.0
C29 C 0.04345 0.92285 0.74831 0.0
O30 O 0.04979 0.82386 0.75631 0.0
O31 O 0.07321 0.84941 0.78413 0.0
O32 O 0.02348 0.87019 0.72093 0.0
O33 O 0.06277 0.87694 0.70116 0.0
O34 O 0.04983 0.89983 0.7616 0.0
O35 O 0.05597 0.92861 0.72473 0.0
C36 C 0.10901 0.94384 0.67043 0.0
O37 O 0.12787 0.92999 0.68566 0.0
O38 O 0.08241 0.93617 0.67555 0.0
C39 C 0.11799 0.90081 0.75758 0.0
Tb40 Tb 0.4255 0.80854 0.96346 0.0
C41 C 0.36291 0.82049 0.93237 0.0
Tb42 Tb 0.3685 0.78189 0.98341 0.0
O43 O 0.43837 0.77082 0.94098 0.0
O44 O 0.39519 0.77946 0.94868 0.0
O45 O 0.39011 0.82971 0.93802 0.0
C46 C 0.33067 0.74194 0.9919 0.0
O47 O 0.35208 0.79895 0.94507 0.0
C48 C 0.37863 0.83116 1.00214 0.0
C49 C 0.42781 0.77194 0.01853 0.0
O50 O 0.32473 0.76794 0.9952 0.0
O51 O 0.3578 0.73866 0.98434 0.0
O52 O 0.35227 0.82087 1.00061 0.0
O53 O 0.39743 0.81269 0.99698 0.0
O54 O 0.40079 0.7636 0.01209 0.0
O55 O 0.44088 0.79142 1.00392 0.0
C56 C 0.46824 0.8436 0.95042 0.0
O57 O 0.47176 0.81742 0.95443 0.0
O58 O 0.44058 0.85009 0.95381 0.0
C59 C 0.41183 0.76112 0.93939 0.0
Tb60 Tb 0.4581 0.12893 0.15739 0.0
C61 C 0.43378 0.19081 0.15364 0.0
Tb62 Tb 0.48755 0.17356 0.19194 0.0
O63 O 0.43991 0.11175 0.19474 0.0
O64 O 0.44672 0.15347 0.19146 0.0
O65 O 0.4351 0.16624 0.14158 0.0
C66 C 0.50271 0.19698 0.23955 0.0
O67 O 0.44977 0.19691 0.17586 0.0
C68 C 0.50802 0.16837 0.1423 0.0
C69 C 0.51396 0.11209 0.19371 0.0
O70 O 0.50533 0.20836 0.2156 0.0
O71 O 0.4917 0.17284 0.23643 0.0
O72 O 0.51014 0.19084 0.15667 0.0
O73 O 0.49868 0.14972 0.15752 0.0
O74 O 0.51387 0.13725 0.20419 0.0
O75 O 0.4956 0.10474 0.17357 0.0
C76 C 0.43759 0.09319 0.12031 0.0
O77 O 0.42684 0.09778 0.14427 0.0
O78 O 0.45959 0.10948 0.1167 0.0
C79 C 0.43891 0.13501 0.20757 0.0
Tb80 Tb 0.61354 0.32987 0.55293 0.0
C81 C 0.67912 0.33867 0.57453 0.0
Tb82 Tb 0.66441 0.29465 0.53018 0.0
O83 O 0.62045 0.31413 0.59393 0.0
O84 O 0.63145 0.28951 0.56049 0.0
O85 O 0.65309 0.35112 0.56891 0.0
C86 C 0.69888 0.25125 0.51756 0.0
O87 O 0.6864 0.31436 0.56425 0.0
C88 C 0.65703 0.34463 0.5091 0.0
C89 C 0.60063 0.28766 0.50411 0.0
O90 O 0.69076 0.27085 0.50084 0.0
O91 O 0.68831 0.25661 0.5415 0.0
O92 O 0.68258 0.33185 0.51064 0.0
O93 O 0.63784 0.32842 0.51699 0.0
O94 O 0.62775 0.2772 0.50697 0.0
O95 O 0.591 0.30886 0.5188 0.0
C96 C 0.56497 0.35997 0.56185 0.0
O97 O 0.56754 0.33359 0.56489 0.0
O98 O 0.59003 0.36969 0.55387 0.0
C99 C 0.63315 0.29147 0.58643 0.0
Tb100 Tb 0.92591 0.41309 0.82715 0.0
C101 C 0.89703 0.35486 0.82574 0.0
Tb102 Tb 0.94794 0.37087 0.78675 0.0
O103 O 0.88395 0.41995 0.80556 0.0
O104 O 0.9209 0.40704 0.78391 0.0
O105 O 0.90571 0.37513 0.84229 0.0
C106 C 0.95646 0.3349 0.74644 0.0
O107 O 0.90746 0.35243 0.8007 0.0
C108 C 0.97881 0.37471 0.83277 0.0
C109 C 0.97921 0.42746 0.78691 0.0
O110 O 0.95976 0.32949 0.77233 0.0
O111 O 0.94869 0.36039 0.7434 0.0
O112 O 0.99022 0.36784 0.80958 0.0
O113 O 0.95123 0.37664 0.82985 0.0
O114 O 0.97397 0.40471 0.77299 0.0
O115 O 0.96392 0.43438 0.80903 0.0
C116 C 0.9191 0.44981 0.86767 0.0
O117 O 0.94417 0.43953 0.85976 0.0
O118 O 0.89809 0.43906 0.85309 0.0
C119 C 0.8931 0.41067 0.78238 0.0
Tb120 Tb 0.85099 0.69814 0.09999 0.0
C121 C 0.9131 0.66869 0.09899 0.0
Tb122 Tb 0.89663 0.71913 0.06002 0.0
O123 O 0.84728 0.65898 0.07869 0.0
O124 O 0.85901 0.69415 0.05747 0.0
O125 O 0.88962 0.67379 0.11439 0.0
C126 C 0.93258 0.72335 0.01792 0.0
O127 O 0.91831 0.68241 0.07623 0.0
C128 C 0.89207 0.7469 0.10588 0.0
C129 C 0.83703 0.7506 0.0621 0.0
O130 O 0.93903 0.73076 0.04284 0.0
O131 O 0.90597 0.71407 0.01677 0.0
O132 O 0.90004 0.75779 0.08293 0.0
O133 O 0.88973 0.72144 0.10275 0.0
O134 O 0.85884 0.74317 0.04598 0.0
O135 O 0.83242 0.7382 0.08589 0.0
C136 C 0.80752 0.69098 0.13528 0.0
O137 O 0.8048 0.69095 0.10883 0.0
O138 O 0.83502 0.69517 0.14217 0.0
C139 C 0.85691 0.66838 0.05583 0.0
Tb140 Tb 0.55079 0.64972 0.34054 0.0
C141 C 0.55507 0.58978 0.36539 0.0
Tb142 Tb 0.50829 0.60681 0.31819 0.0
O143 O 0.53083 0.65007 0.38036 0.0
O144 O 0.50485 0.64083 0.34561 0.0
O145 O 0.56988 0.61285 0.36102 0.0
C146 C 0.4641 0.57208 0.30864 0.0
O147 O 0.52906 0.58499 0.35312 0.0
C148 C 0.55705 0.61324 0.29051 0.0
C149 C 0.51003 0.66234 0.28686 0.0
O150 O 0.49146 0.56798 0.302 0.0
O151 O 0.46178 0.59554 0.32101 0.0
O152 O 0.53233 0.60547 0.27928 0.0
O153 O 0.55381 0.61473 0.31586 0.0
O154 O 0.49306 0.64154 0.29334 0.0
O155 O 0.53466 0.66771 0.30113 0.0
C156 C 0.58746 0.69178 0.3482 0.0
O157 O 0.55904 0.69258 0.35096 0.0
O158 O 0.59553 0.66698 0.34141 0.0
C159 C 0.50548 0.64129 0.37169 0.0
Tb160 Tb 0.17163 0.41766 0.13936 0.0
C161 C 0.15048 0.41148 0.07836 0.0
Tb162 Tb 0.19492 0.45775 0.09868 0.0
O163 O 0.12741 0.43507 0.13378 0.0
O164 O 0.1643 0.46006 0.1308 0.0
O165 O 0.15193 0.3992 0.10269 0.0
C166 C 0.19856 0.49871 0.06278 0.0
O167 O 0.16419 0.43466 0.07305 0.0
C168 C 0.23008 0.41558 0.10909 0.0
C169 C 0.21971 0.46142 0.15775 0.0
O170 O 0.2181 0.47918 0.06642 0.0
O171 O 0.17698 0.49517 0.07936 0.0
O172 O 0.23939 0.43954 0.10196 0.0
O173 O 0.20225 0.41549 0.10742 0.0
O174 O 0.21297 0.47594 0.13554 0.0
O175 O 0.20873 0.43668 0.16176 0.0
C176 C 0.16228 0.3843 0.18138 0.0
O177 O 0.15468 0.40996 0.17987 0.0
O178 O 0.17512 0.37698 0.15889 0.0
C179 C 0.1365 0.4594 0.1281 0.0
Tb180 Tb 0.71764 0.08067 0.85764 0.0
C181 C 0.68819 0.09126 0.91602 0.0
Tb182 Tb 0.74249 0.05063 0.9091 0.0
O183 O 0.69369 0.04352 0.84466 0.0
O184 O 0.70329 0.05035 0.88512 0.0
O185 O 0.69238 0.10123 0.89084 0.0
C186 C 0.75373 1.00674 0.94081 0.0
O187 O 0.70257 0.06906 0.92551 0.0
C188 C 0.76403 0.09953 0.90042 0.0
C189 C 0.77514 0.04212 0.85251 0.0
O190 O 0.7572 0.03212 0.94846 0.0
O191 O 0.74417 1.0064 0.91562 0.0
O192 O 0.7641 0.08788 0.92448 0.0
O193 O 0.7561 0.08221 0.88274 0.0
O194 O 0.77041 0.03271 0.87749 0.0
O195 O 0.7594 0.06313 0.84198 0.0
C196 C 0.70404 0.11465 0.81563 0.0
O197 O 0.70428 0.08808 0.8149 0.0
O198 O 0.71083 0.12235 0.84046 0.0
C199 C 0.69324 0.03278 0.86893 0.0
Tb200 Tb 0.83816 0.93731 0.40125 0.0
C201 C 0.84474 0.91525 0.34111 0.0
Tb202 Tb 0.79922 0.96302 0.35696 0.0
O203 O 0.81662 0.89824 0.39668 0.0
O204 O 0.7926 0.93471 0.38919 0.0
O205 O 0.85733 0.91596 0.36603 0.0
C206 C 0.7583 0.97381 0.31792 0.0
O207 O 0.82138 0.93074 0.33396 0.0
C208 C 0.8481 0.98961 0.36869 0.0
C209 C 0.79554 0.98835 0.41412 0.0
O210 O 0.78097 0.98872 0.32377 0.0
O211 O 0.75872 0.95261 0.33396 0.0
O212 O 0.82369 1.00141 0.3601 0.0
O213 O 0.84499 0.96403 0.36813 0.0
O214 O 0.77936 0.98184 0.39234 0.0
O215 O 0.82146 0.97598 0.41948 0.0
C216 C 0.87187 0.92584 0.44558 0.0
O217 O 0.84324 0.92643 0.44447 0.0
O218 O 0.88184 0.93171 0.42151 0.0
C219 C 0.79187 0.9088 0.38755 0.0
Tb220 Tb 0.29748 0.57527 0.66021 0.0
C221 C 0.31863 0.57676 0.5983 0.0
Tb222 Tb 0.26764 0.53691 0.61782 0.0
O223 O 0.33886 0.55282 0.65679 0.0
O224 O 0.29893 0.53263 0.65046 0.0
O225 O 0.31835 0.59016 0.62234 0.0
C226 C 0.25683 0.4953 0.58325 0.0
O227 O 0.30169 0.55524 0.59313 0.0
C228 C 0.24149 0.58517 0.62536 0.0
C229 C 0.24414 0.53663 0.67661 0.0
O230 O 0.28281 0.50323 0.5913 0.0
O231 O 0.237 0.51113 0.59427 0.0
O232 O 0.22756 0.56378 0.6164 0.0
O233 O 0.26851 0.57938 0.6263 0.0
O234 O 0.2508 0.52078 0.65556 0.0
O235 O 0.25719 0.56066 0.68054 0.0
C236 C 0.31315 0.60804 0.7022 0.0
O237 O 0.31807 0.58184 0.70052 0.0
O238 O 0.29922 0.61616 0.67992 0.0
C239 C 0.32676 0.53017 0.64898 0.0
H240 H 0.21849 0.26206 0.45042 0.0
H241 H 0.23945 0.30652 0.46399 0.0
H242 H 0.1698 0.31829 0.52186 0.0
H243 H 0.14931 0.27433 0.50919 0.0
H244 H 0.17968 0.36384 0.48333 0.0
H245 H 0.23133 0.30009 0.54623 0.0
H246 H 0.26509 0.26112 0.55699 0.0
H247 H 0.33521 0.3011 0.51569 0.0
H248 H 0.30167 0.34009 0.50424 0.0
H249 H 0.20424 0.4699 0.57646 0.0
H250 H 0.19433 0.42735 0.55202 0.0
H251 H 0.28536 0.42244 0.5274 0.0
H252 H 0.29565 0.46443 0.55335 0.0
H253 H 0.27078 0.37455 0.54024 0.0
H254 H 0.22448 0.43999 0.48132 0.0
H255 H 0.19301 0.47966 0.46758 0.0
H256 H 0.11623 0.43832 0.49536 0.0
H257 H 0.14728 0.39854 0.50962 0.0
C258 C 0.20786 0.27404 0.46621 0.0
C259 C 0.18229 0.26443 0.47878 0.0
C260 C 0.21983 0.29941 0.47391 0.0
C261 C 0.2061 0.3157 0.49391 0.0
C262 C 0.18071 0.3061 0.50637 0.0
C263 C 0.16912 0.28077 0.49912 0.0
C264 C 0.2173 0.34308 0.50195 0.0
C265 C 0.19961 0.36628 0.49577 0.0
C266 C 0.24387 0.34635 0.51725 0.0
C267 C 0.26386 0.32279 0.52398 0.0
C268 C 0.25382 0.3004 0.53911 0.0
C269 C 0.27294 0.27834 0.54541 0.0
C270 C 0.30223 0.27856 0.53691 0.0
C271 C 0.31249 0.30089 0.52216 0.0
C272 C 0.29343 0.32296 0.51575 0.0
C273 C 0.22208 0.45988 0.56563 0.0
C274 C 0.25065 0.47058 0.56662 0.0
C275 C 0.21636 0.43558 0.55144 0.0
C276 C 0.23888 0.42177 0.53716 0.0
C277 C 0.2675 0.43262 0.53805 0.0
C278 C 0.27336 0.4567 0.55277 0.0
C279 C 0.2326 0.39552 0.52243 0.0
C280 C 0.25118 0.37248 0.52731 0.0
C281 C 0.20713 0.39248 0.50533 0.0
C282 C 0.18827 0.41632 0.49669 0.0
C283 C 0.20091 0.43941 0.48465 0.0
C284 C 0.18314 0.46192 0.47676 0.0
C285 C 0.15265 0.46153 0.48064 0.0
C286 C 0.13985 0.4386 0.49237 0.0
C287 C 0.15753 0.41604 0.50033 0.0
H288 H 0.13893 0.47897 0.47451 0.0
H289 H 0.31701 0.26149 0.54184 0.0
H290 H 0.79917 0.06001 0.80425 0.0
H291 H 0.84544 0.04407 0.7836 0.0
H292 H 0.85726 0.98374 0.8476 0.0
H293 H 0.81148 0.99937 0.86822 0.0
H294 H 0.90708 0.01238 0.84072 0.0
H295 H 0.83596 0.96591 0.78254 0.0
H296 H 0.79334 0.96357 0.75036 0.0
H297 H 0.83808 0.01442 0.69331 0.0
H298 H 0.88083 0.01735 0.72533 0.0
H299 H 0.01424 0.91774 0.79638 0.0
H300 H 0.97015 0.94246 0.81091 0.0
H301 H 0.97171 0.99259 0.73825 0.0
H302 H 0.01583 0.9673 0.72311 0.0
H303 H 0.91689 0.97589 0.74653 0.0
H304 H 0.98975 0.01914 0.80213 0.0
H305 H 0.03265 0.02212 0.83387 0.0
H306 H 0.98522 0.97934 0.8954 0.0
H307 H 0.94215 0.97576 0.8639 0.0
C308 C 0.81143 0.04313 0.81373 0.0
C309 C 0.80151 0.0311 0.83801 0.0
C310 C 0.83793 0.03403 0.80189 0.0
C311 C 0.85498 0.01271 0.81407 0.0
C312 C 0.84469 1.00033 0.83789 0.0
C313 C 0.81833 0.0093 0.84963 0.0
C314 C 0.88401 1.0036 0.80284 0.0
C315 C 0.90915 1.00421 0.82018 0.0
C316 C 0.88709 0.99391 0.77569 0.0
C317 C 0.86142 0.99213 0.75646 0.0
C318 C 0.83659 0.9768 0.76324 0.0
C319 C 0.81244 0.97532 0.74501 0.0
C320 C 0.81296 0.98891 0.71985 0.0
C321 C 0.83768 1.00395 0.71283 0.0
C322 C 0.86188 1.00551 0.731 0.0
C323 C 1.00557 0.93425 0.78355 0.0
C324 C 0.01884 0.94055 0.75858 0.0
C325 C 0.98026 0.94849 0.79199 0.0
C326 C 0.96761 0.9697 0.77589 0.0
C327 C 0.98102 0.97639 0.75111 0.0
C328 C 0.00643 0.96204 0.74258 0.0
C329 C 0.93982 0.98394 0.78472 0.0
C330 C 0.91494 0.98437 0.76695 0.0
C331 C 0.93697 0.99481 0.81146 0.0
C332 C 0.96278 0.99703 0.83056 0.0
C333 C 0.98853 0.01021 0.82236 0.0
C334 C 0.01287 0.01203 0.84033 0.0
C335 C 0.01168 1.00089 0.86662 0.0
C336 C 0.98611 0.98795 0.87503 0.0
C337 C 0.96171 0.98606 0.85714 0.0
H338 H 0.03055 1.00231 0.88049 0.0
H339 H 0.79424 0.98774 0.70576 0.0
H340 H 0.34266 0.68796 0.98528 0.0
H341 H 0.30895 0.64992 0.9893 0.0
H342 H 0.23784 0.70659 0.00812 0.0
H343 H 0.272 0.74504 1.00457 0.0
H344 H 0.23976 0.66397 0.04266 0.0
H345 H 0.23834 0.67401 0.94625 0.0
H346 H 0.25942 0.68053 0.90063 0.0
H347 H 0.3062 0.60342 0.90799 0.0
H348 H 0.2858 0.59658 0.95383 0.0
H349 H 0.16022 0.54199 0.05554 0.0
H350 H 0.1708 0.58609 0.0341 0.0
H351 H 0.25683 0.55497 0.0116 0.0
H352 H 0.24609 0.51082 0.03239 0.0
H353 H 0.23431 0.59003 0.97302 0.0
H354 H 0.24685 0.58798 0.0729 0.0
H355 H 0.22831 0.58134 0.11953 0.0
H356 H 0.16164 0.64381 0.10516 0.0
H357 H 0.17966 0.6506 0.05831 0.0
C358 C 0.31983 0.69236 0.99021 0.0
C359 C 0.30986 0.71937 0.99466 0.0
C360 C 0.3005 0.67062 0.99223 0.0
C361 C 0.27072 0.67547 0.99841 0.0
C362 C 0.26069 0.70247 1.00306 0.0
C363 C 0.28015 0.72434 1.0011 0.0
C364 C 0.25094 0.65189 1.00168 0.0
C365 C 0.23781 0.64818 0.02711 0.0
C366 C 0.24868 0.63115 0.98148 0.0
C367 C 0.26056 0.63483 0.95359 0.0
C368 C 0.25321 0.65847 0.93821 0.0
C369 C 0.26505 0.66223 0.91229 0.0
C370 C 0.28414 0.64242 0.90143 0.0
C371 C 0.29137 0.61874 0.91641 0.0
C372 C 0.27962 0.61489 0.94235 0.0
C373 C 0.18108 0.54442 0.04541 0.0
C374 C 0.20257 0.52326 0.04591 0.0
C375 C 0.18709 0.56958 0.03322 0.0
C376 C 0.2148 0.57393 0.02171 0.0
C377 C 0.23533 0.55206 0.02039 0.0
C378 C 0.22925 0.5269 0.0324 0.0
C379 C 0.22419 0.60184 0.01427 0.0
C380 C 0.23541 0.6063 0.98812 0.0
C381 C 0.22481 0.62329 0.0338 0.0
C382 C 0.21437 0.61958 0.06208 0.0
C383 C 0.22817 0.60021 0.07968 0.0
C384 C 0.21776 0.59642 0.10612 0.0
C385 C 0.19376 0.61209 0.11527 0.0
C386 C 0.1802 0.63166 0.09802 0.0
C387 C 0.1905 0.6355 0.07154 0.0
H388 H 0.18571 0.60911 0.13574 0.0
H389 H 0.29332 0.64543 0.88142 0.0
H390 H 0.56649 0.12439 0.21837 0.0
H391 H 0.60641 0.0928 0.23243 0.0
H392 H 0.55501 0.02427 0.20463 0.0
H393 H 0.5149 0.05597 0.18973 0.0
H394 H 0.58387 0.02293 0.26251 0.0
H395 H 0.60445 0.03267 0.16737 0.0
H396 H 0.61092 0.05819 0.1244 0.0
H397 H 0.68278 0.10213 0.16132 0.0
H398 H 0.67644 0.07718 0.20467 0.0
H399 H 0.71095 0.94337 0.30164 0.0
H400 H 0.6684 0.95877 0.2733 0.0
H401 H 0.70829 0.03786 0.26384 0.0
H402 H 0.75113 0.02217 0.29107 0.0
H403 H 0.6815 0.02514 0.21824 0.0
H404 H 0.65543 0.02371 0.31416 0.0
H405 H 0.64884 1.00167 0.35902 0.0
H406 H 0.58737 0.94566 0.32258 0.0
H407 H 0.59388 0.9672 0.27742 0.0
C408 C 0.56355 0.10261 0.21527 0.0
C409 C 0.53752 0.09264 0.20297 0.0
C410 C 0.58645 0.08463 0.2232 0.0
C411 C 0.58363 0.05632 0.21938 0.0
C412 C 0.55753 0.04612 0.20759 0.0
C413 C 0.53473 0.06421 0.1991 0.0
C414 C 0.60813 0.03774 0.22831 0.0
C415 C 0.60505 0.02274 0.2525 0.0
C416 C 0.6358 0.03815 0.21545 0.0
C417 C 0.63982 0.05316 0.18936 0.0
C418 C 0.62146 0.04794 0.16642 0.0
C419 C 0.62515 0.06227 0.14197 0.0
C420 C 0.64722 0.08179 0.14014 0.0
C421 C 0.66569 0.087 0.16276 0.0
C422 C 0.66208 0.07274 0.18727 0.0
C423 C 0.71073 0.96387 0.2931 0.0
C424 C 0.73412 0.98169 0.29868 0.0
C425 C 0.6864 0.9727 0.27704 0.0
C426 C 0.68484 0.99967 0.26684 0.0
C427 C 0.70891 0.01698 0.27144 0.0
C428 C 0.73335 0.00804 0.28712 0.0
C429 C 0.6576 0.01079 0.25299 0.0
C430 C 0.66017 0.02459 0.22792 0.0
C431 C 0.62952 0.0096 0.26526 0.0
C432 C 0.62541 0.99682 0.2924 0.0
C433 C 0.64065 1.00658 0.31571 0.0
C434 C 0.63692 0.9942 0.34118 0.0
C435 C 0.61778 0.97222 0.34363 0.0
C436 C 0.60224 0.96264 0.32063 0.0
C437 C 0.60594 0.97493 0.2951 0.0
H438 H 0.61493 0.96264 0.36337 0.0
H439 H 0.65005 0.09284 0.12118 0.0
H440 H 0.72557 0.23857 0.46935 0.0
H441 H 0.74459 0.19366 0.45471 0.0
H442 H 0.72161 0.15918 0.53262 0.0
H443 H 0.7039 0.20431 0.54768 0.0
H444 H 0.76959 0.13574 0.51816 0.0
H445 H 0.67689 0.15311 0.47239 0.0
H446 H 0.64033 0.17893 0.44391 0.0
H447 H 0.69812 0.17398 0.37543 0.0
H448 H 0.73523 0.14847 0.40363 0.0
H449 H 0.73949 0.00819 0.42149 0.0
H450 H 0.72454 0.05149 0.44273 0.0
H451 H 0.81599 0.06854 0.46169 0.0
H452 H 0.83078 0.02454 0.44168 0.0
H453 H 0.73242 0.10003 0.42912 0.0
H454 H 0.82346 0.11353 0.51346 0.0
H455 H 0.85381 0.08496 0.54532 0.0
H456 H 0.7881 0.02256 0.54265 0.0
H457 H 0.75721 0.05089 0.51106 0.0
C458 C 0.72501 0.22147 0.48346 0.0
C459 C 0.71317 0.22492 0.50961 0.0
C460 C 0.73566 0.19571 0.47502 0.0
C461 C 0.73398 0.17269 0.49228 0.0
C462 C 0.72316 0.17645 0.51882 0.0
C463 C 0.71298 0.20229 0.52742 0.0
C464 C 0.74239 0.14459 0.48241 0.0
C465 C 0.76149 0.12797 0.49866 0.0
C466 C 0.7313 0.13393 0.4573 0.0
C467 C 0.70896 0.14911 0.44021 0.0
C468 C 0.68188 0.15768 0.45131 0.0
C469 C 0.66105 0.17225 0.43521 0.0
C470 C 0.66693 0.17815 0.4079 0.0
C471 C 0.69362 0.16943 0.3966 0.0
C472 C 0.71455 0.1549 0.41263 0.0
C473 C 0.75634 0.02091 0.43074 0.0
C474 C 0.78628 0.01278 0.43017 0.0
C475 C 0.7478 0.04583 0.44272 0.0
C476 C 0.76901 0.06351 0.45405 0.0
C477 C 0.79898 0.05519 0.45377 0.0
C478 C 0.80747 0.02995 0.44229 0.0
C479 C 0.7598 0.09111 0.46478 0.0
C480 C 0.74059 0.10771 0.44863 0.0
C481 C 0.7699 0.1013 0.49045 0.0
C482 C 0.78818 0.08423 0.50967 0.0
C483 C 0.81545 0.09376 0.51975 0.0
C484 C 0.83275 0.0776 0.53775 0.0
C485 C 0.82293 0.05193 0.54593 0.0
C486 C 0.79574 0.0424 0.53622 0.0
C487 C 0.77834 0.05849 0.51824 0.0
H488 H 0.83637 0.03944 0.55985 0.0
H489 H 0.65078 0.18943 0.39547 0.0
H490 H 0.01637 0.4167 0.74475 0.0
H491 H 0.06093 0.44037 0.73249 0.0
H492 H 0.04557 0.50018 0.79572 0.0
H493 H 1.00052 0.4761 0.80874 0.0
H494 H 0.06608 0.52112 0.73969 0.0
H495 H 0.09315 0.45888 0.81233 0.0
H496 H 0.09279 0.41433 0.83617 0.0
H497 H 0.13379 0.37551 0.76742 0.0
H498 H 0.13383 0.41975 0.74293 0.0
H499 H 0.21375 0.56669 0.7154 0.0
H500 H 0.16969 0.55295 0.74019 0.0
H501 H 0.17413 0.47332 0.70196 0.0
H502 H 0.21806 0.4866 0.67777 0.0
H503 H 0.15937 0.46724 0.75317 0.0
H504 H 0.12699 0.52643 0.6786 0.0
H505 H 0.12597 0.56965 0.65234 0.0
H506 H 0.09425 0.61324 0.72254 0.0
H507 H 0.09556 0.57031 0.74937 0.0
C508 C 0.02202 0.43504 0.75606 0.0
C509 C 1.00462 0.44432 0.77793 0.0
C510 C 0.0477 0.44859 0.74891 0.0
C511 C 0.05678 0.47199 0.76321 0.0
C512 C 0.03898 0.48217 0.78434 0.0
C513 C 0.01323 0.46835 0.79178 0.0
C514 C 0.08586 0.4843 0.75674 0.0
C515 C 0.0866 0.50969 0.74322 0.0
C516 C 0.11262 0.46917 0.7608 0.0
C517 C 0.11331 0.44262 0.77571 0.0
C518 C 0.10191 0.44081 0.80221 0.0
C519 C 0.10177 0.41562 0.81585 0.0
C520 C 0.11322 0.3921 0.8033 0.0
C521 C 0.12491 0.39375 0.77712 0.0
C522 C 0.12502 0.41889 0.76335 0.0
C523 C 0.20561 0.54611 0.71263 0.0
C524 C 0.21955 0.52784 0.69443 0.0
C525 C 0.18021 0.53832 0.72667 0.0
C526 C 0.16812 0.51214 0.72275 0.0
C527 C 0.18279 0.49362 0.70544 0.0
C528 C 0.20802 0.50134 0.69148 0.0
C529 C 0.13974 0.50397 0.73561 0.0
C530 C 0.13906 0.47912 0.75018 0.0
C531 C 0.11306 0.51955 0.73233 0.0
C532 C 0.11171 0.54524 0.71608 0.0
C533 C 0.11997 0.54527 0.68848 0.0
C534 C 0.11934 0.5697 0.67349 0.0
C535 C 0.11014 0.59419 0.68579 0.0
C536 C 0.10144 0.59426 0.71307 0.0
C537 C 0.10212 0.56989 0.72818 0.0
H538 H 0.1097 0.61309 0.67416 0.0
H539 H 0.11308 0.3726 0.81388 0.0
H540 H 0.76572 1.00263 0.99618 0.0
H541 H 0.774 0.96032 0.02288 0.0
H542 H 0.76383 0.91249 0.94902 0.0
H543 H 0.75445 0.95433 0.9228 0.0
H544 H 0.73632 0.88835 0.98674 0.0
H545 H 0.83348 0.92722 0.9817 0.0
H546 H 0.87104 0.96273 0.98853 0.0
H547 H 0.85745 0.96102 0.07524 0.0
H548 H 0.81953 0.92571 0.06886 0.0
H549 H 0.82121 0.76703 0.01075 0.0
H550 H 0.80049 0.81156 0.99657 0.0
H551 H 0.79542 0.83631 0.0811 0.0
H552 H 0.8158 0.79128 0.09549 0.0
H553 H 0.82556 0.87379 0.04601 0.0
H554 H 0.73337 0.82772 0.04902 0.0
H555 H 0.69869 0.79033 0.03956 0.0
H556 H 0.70608 0.80385 0.95315 0.0
H557 H 0.74116 0.84106 0.96207 0.0
C558 C 0.7653 0.98303 0.98576 0.0
C559 C 0.75954 0.98176 0.95743 0.0
C560 C 0.77014 0.95885 1.00098 0.0
C561 C 0.76985 0.93304 0.988 0.0
C562 C 0.76405 0.93198 0.95966 0.0
C563 C 0.75884 0.95599 0.94462 0.0
C564 C 0.77559 0.90696 1.00347 0.0
C565 C 0.75595 0.88521 0.99957 0.0
C566 C 0.80072 0.90285 0.02093 0.0
C567 C 0.82342 0.92411 0.02477 0.0
C568 C 0.83834 0.93459 1.0022 0.0
C569 C 0.85972 0.95464 1.00599 0.0
C570 C 0.86655 0.9642 0.03229 0.0
C571 C 0.85208 0.95365 0.05487 0.0
C572 C 0.83065 0.93362 0.05118 0.0
C573 C 0.81505 0.78172 0.02636 0.0
C574 C 0.81988 0.77562 0.05422 0.0
C575 C 0.80323 0.80717 0.01823 0.0
C576 C 0.79635 0.82727 0.03776 0.0
C577 C 0.80047 0.82105 0.0657 0.0
C578 C 0.81183 0.79527 0.0739 0.0
C579 C 0.78677 0.85517 0.02851 0.0
C580 C 0.80567 0.87719 0.03357 0.0
C581 C 0.76128 0.8594 0.01169 0.0
C582 C 0.74006 0.83709 1.00623 0.0
C583 C 0.72778 0.82259 0.028 0.0
C584 C 0.70801 0.80144 0.02273 0.0
C585 C 0.70022 0.79469 0.99577 0.0
C586 C 0.71214 0.8091 0.97402 0.0
C587 C 0.73194 0.83025 0.97918 0.0
H588 H 0.68491 0.77831 0.99173 0.0
H589 H 0.88312 0.97971 0.03519 0.0
H590 H 0.46393 0.53188 0.26991 0.0
H591 H 0.42069 0.51004 0.24907 0.0
H592 H 0.36431 0.55225 0.30615 0.0
H593 H 0.4074 0.57507 0.32615 0.0
H594 H 0.37785 0.47776 0.26116 0.0
H595 H 0.30105 0.5728 0.27536 0.0
H596 H 0.30481 0.62293 0.28097 0.0
H597 H 0.38703 0.62152 0.23863 0.0
H598 H 0.38355 0.57148 0.23247 0.0
H599 H 0.23566 0.44162 0.20875 0.0
H600 H 0.27506 0.45821 0.2393 0.0
H601 H 0.29448 0.52143 0.18089 0.0
H602 H 0.25468 0.50573 0.15094 0.0
H603 H 0.29847 0.54212 0.2286 0.0
H604 H 0.33537 0.4596 0.18709 0.0
H605 H 0.33408 0.41058 0.17476 0.0
H606 H 0.33795 0.38858 0.25988 0.0
H607 H 0.33874 0.43752 0.27273 0.0
C608 C 0.44234 0.53616 0.27824 0.0
C609 C 0.4389 0.55541 0.29937 0.0
C610 C 0.41762 0.52361 0.26637 0.0
C611 C 0.38908 0.52991 0.27561 0.0
C612 C 0.38597 0.54756 0.29818 0.0
C613 C 0.41061 0.56049 0.3097 0.0
C614 C 0.36261 0.5199 0.26021 0.0
C615 C 0.36041 0.49181 0.25419 0.0
C616 C 0.34008 0.53822 0.25047 0.0
C617 C 0.34218 0.56837 0.25376 0.0
C618 C 0.31987 0.58322 0.26718 0.0
C619 C 0.32196 0.61161 0.27046 0.0
C620 C 0.3462 0.62538 0.26025 0.0
C621 C 0.36833 0.61082 0.24662 0.0
C622 C 0.36631 0.58244 0.24324 0.0
C623 C 0.24815 0.45922 0.20257 0.0
C624 C 0.24203 0.47229 0.17735 0.0
C625 C 0.2708 0.4686 0.21998 0.0
C626 C 0.28812 0.49085 0.21226 0.0
C627 C 0.28147 0.50427 0.1874 0.0
C628 C 0.25866 0.49519 0.17022 0.0
C629 C 0.31363 0.49998 0.22951 0.0
C630 C 0.31568 0.52796 0.23586 0.0
C631 C 0.33652 0.48169 0.23855 0.0
C632 C 0.33681 0.45223 0.23088 0.0
C633 C 0.3358 0.44431 0.20318 0.0
C634 C 0.33515 0.41654 0.19609 0.0
C635 C 0.33586 0.39648 0.21653 0.0
C636 C 0.33735 0.40415 0.24408 0.0
C637 C 0.33791 0.4319 0.25128 0.0
H638 H 0.33532 0.375 0.21101 0.0
H639 H 0.3478 0.64735 0.26285 0.0
H640 H 0.5114 0.25099 0.25318 0.0
H641 H 0.5228 0.26944 0.29893 0.0
H642 H 0.52539 0.18718 0.33177 0.0
H643 H 0.51241 0.16912 0.28671 0.0
H644 H 0.49886 0.21648 0.36568 0.0
H645 H 0.58981 0.22792 0.31785 0.0
H646 H 0.62169 0.24434 0.28117 0.0
H647 H 0.59819 0.32772 0.30048 0.0
H648 H 0.56589 0.31177 0.33708 0.0
H649 H 0.60143 0.23711 0.48006 0.0
H650 H 0.57867 0.22446 0.43595 0.0
H651 H 0.53873 0.30513 0.42897 0.0
H652 H 0.56065 0.31771 0.47348 0.0
H653 H 0.58025 0.28138 0.38286 0.0
H654 H 0.49215 0.2666 0.43477 0.0
H655 H 0.46422 0.24711 0.47271 0.0
H656 H 0.48769 0.16569 0.44645 0.0
H657 H 0.51615 0.18473 0.40858 0.0
C658 C 0.51451 0.23697 0.27024 0.0
C659 C 0.51109 0.20867 0.26646 0.0
C660 C 0.52115 0.24747 0.29637 0.0
C661 C 0.52533 0.22973 0.31897 0.0
C662 C 0.52213 0.20142 0.3149 0.0
C663 C 0.51486 0.19106 0.28905 0.0
C664 C 0.53279 0.24026 0.34696 0.0
C665 C 0.51683 0.23053 0.36929 0.0
C666 C 0.55585 0.25903 0.35199 0.0
C667 C 0.57517 0.26864 0.32996 0.0
C668 C 0.59127 0.24975 0.31412 0.0
C669 C 0.60944 0.25897 0.29338 0.0
C670 C 0.61189 0.28705 0.28844 0.0
C671 C 0.59623 0.30598 0.30429 0.0
C672 C 0.578 0.29686 0.32504 0.0
C673 C 0.58716 0.25191 0.46947 0.0
C674 C 0.58265 0.27833 0.48032 0.0
C675 C 0.57427 0.24469 0.44427 0.0
C676 C 0.55714 0.26392 0.42924 0.0
C677 C 0.55184 0.29003 0.44035 0.0
C678 C 0.56417 0.29707 0.46587 0.0
C679 C 0.54664 0.2572 0.40114 0.0
C680 C 0.56209 0.26759 0.37895 0.0
C681 C 0.52362 0.2386 0.39627 0.0
C682 C 0.50654 0.22711 0.41902 0.0
C683 C 0.49163 0.24455 0.43726 0.0
C684 C 0.47563 0.23358 0.45871 0.0
C685 C 0.47425 0.20518 0.46204 0.0
C686 C 0.48881 0.18769 0.44388 0.0
C687 C 0.50485 0.19856 0.4224 0.0
H688 H 0.46184 0.19673 0.47865 0.0
H689 H 0.62598 0.29415 0.27237 0.0
H690 H 0.08896 0.19471 0.5668 0.0
H691 H 0.06207 0.21026 0.60716 0.0
H692 H 0.99453 0.24714 0.5548 0.0
H693 H 0.02109 0.23136 0.51431 0.0
H694 H 0.02889 0.28231 0.59561 0.0
H695 H 0.96826 0.20187 0.58747 0.0
H696 H 0.95909 0.15231 0.58352 0.0
H697 H 0.00763 0.13767 0.65874 0.0
H698 H 0.01713 0.18718 0.66308 0.0
H699 H 0.93928 0.34152 0.69355 0.0
H700 H 0.95375 0.31347 0.6545 0.0
H701 H 1.00254 0.25845 0.70876 0.0
H702 H 0.98712 0.28612 0.74818 0.0
H703 H 0.977 0.23049 0.66704 0.0
H704 H 0.03781 0.30911 0.67653 0.0
H705 H 0.04864 0.3582 0.68192 0.0
H706 H 1.00472 0.37577 0.60497 0.0
H707 H 0.99322 0.3268 0.59931 0.0
C708 C 0.06804 0.20561 0.56393 0.0
C709 C 0.05703 0.2119 0.53754 0.0
C710 C 0.05272 0.21439 0.58694 0.0
C711 C 0.0263 0.22961 0.58381 0.0
C712 C 0.01476 0.23512 0.55749 0.0
C713 C 0.02993 0.22615 0.53447 0.0
C714 C 0.01304 0.24291 0.60779 0.0
C715 C 0.01706 0.27112 0.61102 0.0
C716 C 0.9988 0.22795 0.62826 0.0
C717 C 0.99362 0.19816 0.62546 0.0
C718 C 0.97716 0.18805 0.60305 0.0
C719 C 0.97176 0.15999 0.60082 0.0
C720 C 0.98276 0.14185 0.62087 0.0
C721 C 0.99909 0.15175 0.64324 0.0
C722 C 1.00443 0.17981 0.64563 0.0
C723 C 0.95274 0.32321 0.69716 0.0
C724 C 0.96248 0.31608 0.7237 0.0
C725 C 0.96103 0.30725 0.67487 0.0
C726 C 0.97978 0.28426 0.6787 0.0
C727 C 0.98818 0.2762 0.70539 0.0
C728 C 0.97947 0.29201 0.72783 0.0
C729 C 0.99235 0.27011 0.65467 0.0
C730 C 0.98859 0.24176 0.65155 0.0
C731 C 0.00736 0.28486 0.63439 0.0
C732 C 0.0144 0.31432 0.63763 0.0
C733 C 0.03027 0.32347 0.66085 0.0
C734 C 0.03655 0.35126 0.66395 0.0
C735 C 0.02731 0.3701 0.64384 0.0
C736 C 0.01183 0.36116 0.62055 0.0
C737 C 1.00544 0.33338 0.61738 0.0
H738 H 0.0322 0.39161 0.64627 0.0
H739 H 0.97868 0.12012 0.61905 0.0
H740 H 0.02766 0.77953 0.77985 0.0
H741 H 0.0128 0.7522 0.8192 0.0
H742 H 0.06402 0.80378 0.87318 0.0
H743 H 0.0794 0.83076 0.83397 0.0
H744 H 0.06514 0.75009 0.89069 0.0
H745 H 0.99343 0.81939 0.86144 0.0
H746 H 0.96014 0.84305 0.82812 0.0
H747 H 0.91252 0.76866 0.81515 0.0
H748 H 0.94584 0.74445 0.84815 0.0
H749 H 0.98388 0.75158 0.01445 0.0
H750 H 0.01189 0.75995 0.97296 0.0
H751 H 0.95219 0.70871 0.92671 0.0
H752 H 0.92379 0.70097 0.96787 0.0
H753 H 0.95674 0.7567 0.90335 0.0
H754 H 0.02495 0.68958 0.93996 0.0
H755 H 0.05753 0.66838 0.97542 0.0
H756 H 0.11151 0.73986 0.97662 0.0
H757 H 0.07894 0.76174 0.94154 0.0
C758 C 0.03622 0.78461 0.80006 0.0
C759 C 0.05422 0.80744 0.80404 0.0
C760 C 0.02778 0.76902 0.82246 0.0
C761 C 0.03705 0.77626 0.84908 0.0
C762 C 0.05672 0.79787 0.8528 0.0
C763 C 0.06525 0.81338 0.83042 0.0
C764 C 0.02335 0.76384 0.87321 0.0
C765 C 0.04146 0.75146 0.89357 0.0
C766 C 0.99244 0.76551 0.87673 0.0
C767 C 0.97233 0.78004 0.85698 0.0
C768 C 0.97601 0.80803 0.85131 0.0
C769 C 0.95712 0.82155 0.83251 0.0
C770 C 0.93429 0.80734 0.81945 0.0
C771 C 0.93026 0.77961 0.82523 0.0
C772 C 0.94913 0.76599 0.84398 0.0
C773 C 0.97709 0.74183 0.99547 0.0
C774 C 0.95159 0.72594 0.99414 0.0
C775 C 0.99318 0.74644 0.97185 0.0
C776 C 0.98418 0.73483 0.94677 0.0
C777 C 0.95946 0.7179 0.94583 0.0
C778 C 0.94325 0.71354 0.96931 0.0
C779 C 0.99841 0.7427 0.921 0.0
C780 C 0.98037 0.75459 0.90036 0.0
C781 C 0.02935 0.74071 0.91746 0.0
C782 C 0.04933 0.7274 0.93823 0.0
C783 C 0.04364 0.70087 0.9479 0.0
C784 C 0.06212 0.68872 0.96794 0.0
C785 C 0.08653 0.70278 0.9783 0.0
C786 C 0.09257 0.729 0.96858 0.0
C787 C 0.07412 0.74127 0.9486 0.0
H788 H 0.10079 0.69335 0.99383 0.0
H789 H 0.91968 0.81784 0.80492 0.0
H790 H 0.54559 0.69744 0.25853 0.0
H791 H 0.53649 0.71747 0.21306 0.0
H792 H 0.45036 0.68113 0.20966 0.0
H793 H 0.45952 0.66071 0.25475 0.0
H794 H 0.47681 0.67205 0.1633 0.0
H795 H 0.46292 0.75313 0.21959 0.0
H796 H 0.47856 0.78729 0.25395 0.0
H797 H 0.55236 0.80815 0.20473 0.0
H798 H 0.53732 0.77391 0.1702 0.0
H799 H 0.40277 0.737 0.05458 0.0
H800 H 0.42109 0.72117 0.09871 0.0
H801 H 0.50149 0.76569 0.08827 0.0
H802 H 0.48242 0.78291 0.04367 0.0
H803 H 0.48527 0.7705 0.13985 0.0
H804 H 0.49833 0.69307 0.08209 0.0
H805 H 0.48477 0.65856 0.04738 0.0
H806 H 0.41616 0.62959 0.0988 0.0
H807 H 0.42904 0.66417 0.13368 0.0
C808 C 0.52447 0.69409 0.24836 0.0
C809 C 0.50324 0.6775 0.26064 0.0
C810 C 0.51927 0.70561 0.2222 0.0
C811 C 0.49257 0.70111 0.20765 0.0
C812 C 0.47118 0.68499 0.22017 0.0
C813 C 0.47641 0.67339 0.24619 0.0
C814 C 0.48708 0.71203 0.17904 0.0
C815 C 0.47836 0.69366 0.15835 0.0
C816 C 0.49034 0.74003 0.17187 0.0
C817 C 0.49916 0.76079 0.19246 0.0
C818 C 0.48258 0.7649 0.21618 0.0
C819 C 0.49132 0.78429 0.23567 0.0
C820 C 0.51648 0.79983 0.23156 0.0
C821 C 0.5329 0.79608 0.2079 0.0
C822 C 0.52426 0.77672 0.18835 0.0
C823 C 0.42451 0.74348 0.06127 0.0
C824 C 0.44114 0.76119 0.04501 0.0
C825 C 0.4351 0.73414 0.08677 0.0
C826 C 0.4631 0.74152 0.09696 0.0
C827 C 0.47989 0.7594 0.08099 0.0
C828 C 0.46904 0.76913 0.05532 0.0
C829 C 0.47405 0.7306 0.12435 0.0
C830 C 0.48391 0.74887 0.14475 0.0
C831 C 0.47221 0.70238 0.13126 0.0
C832 C 0.46455 0.68135 0.11044 0.0
C833 C 0.48024 0.67944 0.08594 0.0
C834 C 0.47269 0.65985 0.06624 0.0
C835 C 0.44959 0.64192 0.07086 0.0
C836 C 0.43405 0.64349 0.09524 0.0
C837 C 0.4415 0.66306 0.115 0.0
H838 H 0.44376 0.62678 0.05557 0.0
H839 H 0.52322 0.81481 0.24668 0.0
H840 H 0.12743 0.21123 0.37681 0.0
H841 H 0.13644 0.23668 0.33474 0.0
H842 H 0.11451 0.31244 0.37578 0.0
H843 H 0.10678 0.28707 0.41843 0.0
H844 H 0.08678 0.3041 0.32186 0.0
H845 H 0.18035 0.29875 0.36893 0.0
H846 H 0.22231 0.27506 0.39217 0.0
H847 H 0.24418 0.23434 0.31718 0.0
H848 H 0.20118 0.25628 0.29392 0.0
H849 H 0.13821 0.40055 0.22886 0.0
H850 H 0.12989 0.37317 0.26953 0.0
H851 H 0.16683 0.30186 0.22956 0.0
H852 H 0.17585 0.32961 0.18858 0.0
H853 H 0.18687 0.3065 0.28233 0.0
H854 H 0.09263 0.30886 0.23605 0.0
H855 H 0.04942 0.33044 0.21253 0.0
H856 H 0.03003 0.37678 0.2849 0.0
H857 H 0.07338 0.35576 0.30875 0.0
C858 C 0.12505 0.23334 0.37698 0.0
C859 C 0.11713 0.2473 0.40094 0.0
C860 C 0.12992 0.24779 0.35292 0.0
C861 C 0.1264 0.27638 0.35234 0.0
C862 C 0.11742 0.29034 0.37597 0.0
C863 C 0.11305 0.27589 0.40023 0.0
C864 C 0.13242 0.29167 0.32704 0.0
C865 C 0.1087 0.30492 0.31334 0.0
C866 C 0.16096 0.29196 0.31572 0.0
C867 C 0.18702 0.27877 0.32977 0.0
C868 C 0.19365 0.28426 0.3575 0.0
C869 C 0.21764 0.27107 0.37073 0.0
C870 C 0.23566 0.25287 0.35628 0.0
C871 C 0.22992 0.24805 0.32851 0.0
C872 C 0.20561 0.26074 0.31532 0.0
C873 C 0.14453 0.37902 0.22866 0.0
C874 C 0.15744 0.36708 0.20554 0.0
C875 C 0.13965 0.36338 0.2519 0.0
C876 C 0.14724 0.33539 0.2524 0.0
C877 C 0.16062 0.32342 0.22948 0.0
C878 C 0.16566 0.33919 0.20612 0.0
C879 C 0.14121 0.31895 0.27709 0.0
C880 C 0.16492 0.30552 0.29074 0.0
C881 C 0.11264 0.31833 0.28835 0.0
C882 C 0.08641 0.33089 0.27412 0.0
C883 C 0.07928 0.3238 0.24689 0.0
C884 C 0.05474 0.33591 0.23351 0.0
C885 C 0.03703 0.35501 0.24719 0.0
C886 C 0.04378 0.36199 0.27432 0.0
C887 C 0.06831 0.34996 0.28779 0.0
H888 H 0.01804 0.36437 0.23679 0.0
H889 H 0.25408 0.24255 0.36661 0.0
H890 H 0.05862 0.88291 0.6481 0.0
H891 H 0.03263 0.89018 0.60442 0.0
H892 H 0.95019 0.8996 0.64667 0.0
H893 H 0.97619 0.89073 0.69043 0.0
H894 H 0.94085 0.86904 0.60596 0.0
H895 H 0.99005 0.95907 0.60927 0.0
H896 H 0.0306 0.99224 0.60948 0.0
H897 H 0.07292 0.94759 0.54495 0.0
H898 H 0.03219 0.91463 0.5439 0.0
H899 H 0.85258 0.92402 0.49766 0.0
H900 H 0.88144 0.91481 0.53951 0.0
H901 H 0.96002 0.90353 0.49188 0.0
H902 H 0.93124 0.91417 0.44994 0.0
H903 H 0.97299 0.93236 0.53351 0.0
H904 H 0.92233 0.84844 0.52353 0.0
H905 H 0.87974 0.81822 0.51663 0.0
H906 H 0.84178 0.84829 0.5909 0.0
H907 H 0.88396 0.87899 0.59806 0.0
C908 C 0.03496 0.88675 0.64808 0.0
C909 C 0.01938 0.88615 0.67267 0.0
C910 C 0.02009 0.89124 0.62302 0.0
C911 C 0.98934 0.89598 0.62197 0.0
C912 C 0.97389 0.89599 0.64673 0.0
C913 C 0.98872 0.89097 0.67179 0.0
C914 C 0.97299 0.89906 0.59514 0.0
C915 C 0.94768 0.88327 0.59035 0.0
C916 C 0.98248 0.91643 0.57389 0.0
C917 C 0.00836 0.93429 0.57677 0.0
C918 C 0.00826 0.95613 0.59547 0.0
C919 C 0.03114 0.975 0.59554 0.0
C920 C 0.05438 0.97194 0.57728 0.0
C921 C 0.05493 0.9499 0.55908 0.0
C922 C 0.03191 0.93123 0.55864 0.0
C923 C 0.87601 0.91949 0.49612 0.0
C924 C 0.88971 0.91974 0.47058 0.0
C925 C 0.89247 0.91395 0.52006 0.0
C926 C 0.92289 0.90785 0.51896 0.0
C927 C 0.93657 0.908 0.49334 0.0
C928 C 0.92016 0.91407 0.46938 0.0
C929 C 0.94059 0.90289 0.54467 0.0
C930 C 0.96618 0.91813 0.54915 0.0
C931 C 0.9316 0.88468 0.56538 0.0
C932 C 0.90621 0.86619 0.5612 0.0
C933 C 0.9048 0.84876 0.53829 0.0
C934 C 0.88075 0.83152 0.53435 0.0
C935 C 0.85804 0.83138 0.55328 0.0
C936 C 0.85937 0.84844 0.57623 0.0
C937 C 0.88337 0.86574 0.58026 0.0
H938 H 0.83943 0.81802 0.55019 0.0
H939 H 0.07183 0.98675 0.57693 0.0
H940 H 0.3477 0.59225 0.74559 0.0
H941 H 0.36201 0.61877 0.78585 0.0
H942 H 0.31253 0.68872 0.75416 0.0
H943 H 0.29883 0.66219 0.71308 0.0
H944 H 0.36104 0.70632 0.77659 0.0
H945 H 0.28639 0.64807 0.80765 0.0
H946 H 0.25942 0.60541 0.81554 0.0
H947 H 0.33361 0.57245 0.86177 0.0
H948 H 0.36116 0.6148 0.85392 0.0
H949 H 0.3561 0.74218 0.9308 0.0
H950 H 0.33703 0.71651 0.89145 0.0
H951 H 0.42419 0.71355 0.85751 0.0
H952 H 0.44364 0.73859 0.8974 0.0
H953 H 0.35056 0.66561 0.86892 0.0
H954 H 0.41354 0.72862 0.78791 0.0
H955 H 0.43124 0.77581 0.78217 0.0
H956 H 0.36607 0.8057 0.83801 0.0
H957 H 0.34779 0.75881 0.84383 0.0
C958 C 0.33986 0.6133 0.74712 0.0
C959 C 0.32199 0.62506 0.72618 0.0
C960 C 0.34793 0.62846 0.77032 0.0
C961 C 0.33794 0.6557 0.77355 0.0
C962 C 0.32049 0.66773 0.75235 0.0
C963 C 0.31259 0.65256 0.72888 0.0
C964 C 0.34597 0.67135 0.79901 0.0
C965 C 0.35876 0.6973 0.79671 0.0
C966 C 0.34219 0.66026 0.82557 0.0
C967 C 0.32596 0.63451 0.82993 0.0
C968 C 0.29707 0.63162 0.81926 0.0
C969 C 0.28165 0.60752 0.8238 0.0
C970 C 0.29483 0.58621 0.83909 0.0
C971 C 0.32346 0.58895 0.84988 0.0
C972 C 0.33897 0.61301 0.84543 0.0
C973 C 0.37141 0.73544 0.91537 0.0
C974 C 0.4015 0.74218 0.91747 0.0
C975 C 0.3604 0.72089 0.89275 0.0
C976 C 0.37907 0.7133 0.87135 0.0
C977 C 0.4093 0.71936 0.87368 0.0
C978 C 0.42045 0.7335 0.89659 0.0
C979 C 0.36679 0.69978 0.84626 0.0
C980 C 0.35304 0.67439 0.84871 0.0
C981 C 0.36865 0.71185 0.82 0.0
C982 C 0.37956 0.74012 0.81654 0.0
C983 C 0.40298 0.74527 0.79892 0.0
C984 C 0.4131 0.77197 0.79566 0.0
C985 C 0.39986 0.79372 0.8098 0.0
C986 C 0.37642 0.78883 0.82718 0.0
C987 C 0.36622 0.76218 0.83051 0.0
H988 H 0.40772 0.81437 0.80722 0.0
H989 H 0.28283 0.56759 0.84262 0.0
H990 H 0.53071 0.20605 0.10736 0.0
H991 H 0.55901 0.19701 0.06583 0.0
H992 H 0.5485 0.11007 0.0773 0.0
H993 H 0.52039 0.11898 0.11866 0.0
H994 H 0.60588 0.12341 0.06868 0.0
H995 H 0.51033 0.14371 0.02736 0.0
H996 H 0.46558 0.17222 0.01852 0.0
H997 H 0.5186 0.23598 0.98569 0.0
H998 H 0.56375 0.20799 0.99471 0.0
H999 H 0.65299 0.06283 0.94913 0.0
H1000 H 0.62056 0.0804 0.98439 0.0
H1001 H 0.63875 0.16328 0.95998 0.0
H1002 H 0.67128 0.1455 0.92381 0.0
H1003 H 0.58022 0.15736 0.97525 0.0
H1004 H 0.67554 0.13546 0.01334 0.0
H1005 H 0.72037 0.10738 0.02314 0.0
H1006 H 0.66836 0.04755 0.06372 0.0
H1007 H 0.62311 0.07495 0.05365 0.0
C1008 C 0.53423 0.18504 0.10082 0.0
C1009 C 0.5233 0.16323 0.11621 0.0
C1010 C 0.55031 0.1799 0.07706 0.0
C1011 C 0.55582 0.15285 0.06835 0.0
C1012 C 0.54454 0.1311 0.08357 0.0
C1013 C 0.52834 0.13623 0.10715 0.0
C1014 C 0.57451 0.1469 0.04421 0.0
C1015 C 0.60009 0.1306 0.04821 0.0
C1016 C 0.56758 0.15715 0.01766 0.0
C1017 C 0.54045 0.17388 0.01199 0.0
C1018 C 0.51248 0.16391 0.01846 0.0
C1019 C 0.48703 0.17995 0.01338 0.0
C1020 C 0.48925 0.20594 1.00164 0.0
C1021 C 0.51692 0.21588 0.99484 0.0
C1022 C 0.54244 0.19992 0.99991 0.0
C1023 C 0.64987 0.08484 0.95096 0.0
C1024 C 0.665 0.10282 0.93391 0.0
C1025 C 0.63134 0.09486 0.97123 0.0
C1026 C 0.62778 0.12317 0.9754 0.0
C1027 C 0.64136 0.14133 0.95731 0.0
C1028 C 0.65985 0.1312 0.93662 0.0
C1029 C 0.61118 0.1332 0.99963 0.0
C1030 C 0.58613 0.15034 0.99574 0.0
C1031 C 0.61862 0.1238 0.02644 0.0
C1032 C 0.64584 0.10717 0.03246 0.0
C1033 C 0.6736 0.11618 0.0241 0.0
C1034 C 0.6991 0.10039 0.02973 0.0
C1035 C 0.69721 0.07565 0.04397 0.0
C1036 C 0.6698 0.06668 0.05264 0.0
C1037 C 0.6442 0.08233 0.04696 0.0
H1038 H 0.71699 0.06348 0.04834 0.0
H1039 H 0.46952 0.21834 0.99774 0.0
H1040 H 0.64501 0.302 0.63935 0.0
H1041 H 0.6615 0.27077 0.67531 0.0
H1042 H 0.66781 0.20502 0.61652 0.0
H1043 H 0.65002 0.23661 0.57995 0.0
H1044 H 0.63955 0.18926 0.66183 0.0
H1045 H 0.72975 0.23642 0.64622 0.0
H1046 H 0.76005 0.27741 0.64022 0.0
H1047 H 0.74099 0.30345 0.72202 0.0
H1048 H 0.70996 0.26299 0.72831 0.0
H1049 H 0.69869 0.09878 0.76255 0.0
H1050 H 0.69159 0.12743 0.72194 0.0
H1051 H 0.69044 0.19978 0.77279 0.0
H1052 H 0.69883 0.17095 0.81362 0.0
H1053 H 0.71965 0.21048 0.72901 0.0
H1054 H 0.62557 0.1707 0.74358 0.0
H1055 H 0.59016 0.13373 0.751 0.0
H1056 H 0.61239 0.09789 0.67366 0.0
H1057 H 0.64823 0.13448 0.66595 0.0
C1058 C 0.65009 0.28094 0.63385 0.0
C1059 C 0.6462 0.2718 0.60671 0.0
C1060 C 0.65983 0.2631 0.65454 0.0
C1061 C 0.66649 0.23555 0.64875 0.0
C1062 C 0.66307 0.22626 0.62151 0.0
C1063 C 0.6531 0.2443 0.60058 0.0
C1064 C 0.67507 0.21651 0.67169 0.0
C1065 C 0.65756 0.19354 0.67613 0.0
C1066 C 0.69778 0.22272 0.69113 0.0
C1067 C 0.71731 0.24666 0.68767 0.0
C1068 C 0.73187 0.25093 0.66289 0.0
C1069 C 0.74916 0.27411 0.65943 0.0
C1070 C 0.75239 0.29305 0.68069 0.0
C1071 C 0.73844 0.28878 0.70553 0.0
C1072 C 0.72099 0.26571 0.70906 0.0
C1073 C 0.69684 0.1208 0.76513 0.0
C1074 C 0.699 0.13258 0.79134 0.0
C1075 C 0.69266 0.13722 0.74183 0.0
C1076 C 0.68983 0.16588 0.74411 0.0
C1077 C 0.6924 0.17776 0.77034 0.0
C1078 C 0.69702 0.16128 0.79371 0.0
C1079 C 0.68402 0.18326 0.71919 0.0
C1080 C 0.70196 0.20596 0.71448 0.0
C1081 C 0.66131 0.17722 0.69975 0.0
C1082 C 0.63982 0.15515 0.70434 0.0
C1083 C 0.62308 0.15481 0.72826 0.0
C1084 C 0.6029 0.13395 0.7325 0.0
C1085 C 0.5991 0.11343 0.71285 0.0
C1086 C 0.61541 0.11377 0.68889 0.0
C1087 C 0.63564 0.13457 0.68456 0.0
H1088 H 0.58346 0.0973 0.71617 0.0
H1089 H 0.76571 0.31101 0.67794 0.0
H1090 H 0.1679 0.40483 0.02637 0.0
H1091 H 0.13684 0.39474 0.98633 0.0
H1092 H 0.06215 0.38374 0.03846 0.0
H1093 H 0.09384 0.39277 0.07894 0.0
H1094 H 0.05906 0.34955 0.99528 0.0
H1095 H 0.07293 0.44509 0.00783 0.0
H1096 H 0.1013 0.48708 0.01604 0.0
H1097 H 0.14618 0.4749 0.94032 0.0
H1098 H 0.11844 0.43255 0.93187 0.0
H1099 H 0.95631 0.37859 0.88399 0.0
H1100 H 0.98393 0.38219 0.92756 0.0
H1101 H 0.0659 0.38147 0.88405 0.0
H1102 H 0.03841 0.37755 0.84047 0.0
H1103 H 0.06141 0.42283 0.92483 0.0
H1104 H 0.04633 0.32512 0.91456 0.0
H1105 H 0.01568 0.28428 0.90787 0.0
H1106 H 0.96876 0.30348 0.98112 0.0
H1107 H 0.99888 0.34468 0.98804 0.0
C1108 C 0.14504 0.39953 0.02932 0.0
C1109 C 0.13315 0.39963 0.05561 0.0
C1110 C 0.12724 0.39397 1.00644 0.0
C1111 C 0.09694 0.38931 0.0093 0.0
C1112 C 0.08542 0.3875 0.03575 0.0
C1113 C 0.1035 0.39254 0.05884 0.0
C1114 C 0.07727 0.38851 0.98455 0.0
C1115 C 0.05926 0.36576 0.98007 0.0
C1116 C 0.07745 0.40969 0.96465 0.0
C1117 C 0.09376 0.4355 0.96933 0.0
C1118 C 0.08896 0.45128 0.99299 0.0
C1119 C 0.10494 0.47515 0.9977 0.0
C1120 C 0.12558 0.48362 0.97874 0.0
C1121 C 0.1302 0.4683 0.955 0.0
C1122 C 0.11434 0.44436 0.95023 0.0
C1123 C 0.98022 0.37919 0.88377 0.0
C1124 C 0.9953 0.37759 0.85894 0.0
C1125 C 0.99594 0.38117 0.90863 0.0
C1126 C 0.02695 0.38184 0.90902 0.0
C1127 C 0.04198 0.38087 0.88418 0.0
C1128 C 0.02629 0.37855 0.85934 0.0
C1129 C 0.04383 0.3836 0.9353 0.0
C1130 C 0.06117 0.40669 0.94011 0.0
C1131 C 0.04254 0.36303 0.95567 0.0
C1132 C 0.02465 0.33813 0.95166 0.0
C1133 C 0.02932 0.32075 0.92912 0.0
C1134 C 0.01207 0.29752 0.92531 0.0
C1135 C 0.99023 0.29133 0.94402 0.0
C1136 C 0.98566 0.30832 0.96663 0.0
C1137 C 1.00282 0.3316 0.97051 0.0
H1138 H 0.97689 0.27333 0.94103 0.0
H1139 H 0.13796 0.50209 0.98244 0.0
H1140 H 0.84464 0.92469 0.28666 0.0
H1141 H 0.85485 0.89206 0.25024 0.0
H1142 H 0.87971 0.83047 0.31022 0.0
H1143 H 0.86988 0.86363 0.34719 0.0
H1144 H 0.91464 0.82726 0.26445 0.0
H1145 H 0.8127 0.82816 0.28258 0.0
H1146 H 0.76354 0.84821 0.29191 0.0
H1147 H 0.76056 0.88562 0.2123 0.0
H1148 H 0.80994 0.86612 0.20263 0.0
H1149 H 0.89091 0.72564 0.15749 0.0
H1150 H 0.88466 0.75078 0.20064 0.0
H1151 H 0.87586 0.82669 0.1557 0.0
H1152 H 0.88281 0.80175 0.1126 0.0
H1153 H 0.83098 0.81611 0.1982 0.0
H1154 H 0.93756 0.81595 0.18417 0.0
H1155 H 0.9857 0.79282 0.17705 0.0
H1156 H 0.97707 0.74853 0.25234 0.0
H1157 H 0.92864 0.77113 0.2597 0.0
C1158 C 0.85273 0.90433 0.29217 0.0
C1159 C 0.85623 0.89662 0.31978 0.0
C1160 C 0.85844 0.88565 0.27131 0.0
C1161 C 0.8673 0.8586 0.27748 0.0
C1162 C 0.87266 0.8512 0.305 0.0
C1163 C 0.86718 0.87014 0.32608 0.0
C1164 C 0.86924 0.83817 0.25493 0.0
C1165 C 0.89618 0.82443 0.25027 0.0
C1166 C 0.84509 0.83428 0.23645 0.0
C1167 C 0.81516 0.84581 0.24194 0.0
C1168 C 0.80166 0.8408 0.26711 0.0
C1169 C 0.77373 0.85205 0.27246 0.0
C1170 C 0.75896 0.86822 0.25273 0.0
C1171 C 0.77204 0.8731 0.22757 0.0
C1172 C 0.79999 0.86191 0.22213 0.0
C1173 C 0.88763 0.74769 0.15687 0.0
C1174 C 0.88751 0.76183 0.13179 0.0
C1175 C 0.88411 0.76199 0.18149 0.0
C1176 C 0.87992 0.79058 0.18133 0.0
C1177 C 0.87912 0.80463 0.15623 0.0
C1178 C 0.8832 0.79041 0.13168 0.0
C1179 C 0.87662 0.80604 0.20729 0.0
C1180 C 0.84929 0.81873 0.2126 0.0
C1181 C 0.90015 0.80836 0.22666 0.0
C1182 C 0.92934 0.79498 0.22232 0.0
C1183 C 0.9458 0.80109 0.19908 0.0
C1184 C 0.97317 0.78812 0.19502 0.0
C1185 C 0.9844 0.76915 0.21418 0.0
C1186 C 0.96833 0.76319 0.23749 0.0
C1187 C 0.94093 0.77608 0.24162 0.0
H1188 H 1.00559 0.75912 0.21101 0.0
H1189 H 0.73735 0.87695 0.25691 0.0
H1190 H 0.35199 0.6239 0.59341 0.0
H1191 H 0.38234 0.63706 0.5544 0.0
H1192 H 0.3587 0.5625 0.51259 0.0
H1193 H 0.32933 0.54912 0.55102 0.0
H1194 H 0.4147 0.57005 0.50669 0.0
H1195 H 0.32696 0.62655 0.49593 0.0
H1196 H 0.28954 0.66085 0.51 0.0
H1197 H 0.35683 0.72131 0.51909 0.0
H1198 H 0.39474 0.68723 0.50543 0.0
H1199 H 0.46422 0.60029 0.37304 0.0
H1200 H 0.42987 0.59123 0.41017 0.0
H1201 H 0.45844 0.66449 0.45163 0.0
H1202 H 0.49215 0.67369 0.4145 0.0
H1203 H 0.40019 0.65858 0.45791 0.0
H1204 H 0.48776 0.60132 0.46746 0.0
H1205 H 0.52457 0.56632 0.45364 0.0
H1206 H 0.45645 0.50646 0.44666 0.0
H1207 H 0.41913 0.54122 0.4599 0.0
C1208 C 0.35336 0.61032 0.57592 0.0
C1209 C 0.33787 0.58555 0.57547 0.0
C1210 C 0.3706 0.61793 0.55352 0.0
C1211 C 0.37267 0.60092 0.53023 0.0
C1212 C 0.3576 0.57606 0.53012 0.0
C1213 C 0.34054 0.56852 0.55227 0.0
C1214 C 0.39041 0.60846 0.50582 0.0
C1215 C 0.41122 0.58932 0.4959 0.0
C1216 C 0.38645 0.63375 0.49179 0.0
C1217 C 0.36372 0.65426 0.49997 0.0
C1218 C 0.33381 0.6471 0.50115 0.0
C1219 C 0.31251 0.66651 0.50901 0.0
C1220 C 0.32082 0.69322 0.51552 0.0
C1221 C 0.35044 0.70059 0.5141 0.0
C1222 C 0.37184 0.68125 0.50629 0.0
C1223 C 0.46226 0.61498 0.38949 0.0
C1224 C 0.48046 0.63798 0.39053 0.0
C1225 C 0.44299 0.60957 0.41102 0.0
C1226 C 0.44171 0.62702 0.43402 0.0
C1227 C 0.45886 0.6507 0.43426 0.0
C1228 C 0.47815 0.65595 0.41295 0.0
C1229 C 0.42415 0.62001 0.45865 0.0
C1230 C 0.40355 0.63929 0.46868 0.0
C1231 C 0.42818 0.59476 0.47273 0.0
C1232 C 0.45059 0.57396 0.46441 0.0
C1233 C 0.48057 0.58077 0.4627 0.0
C1234 C 0.50154 0.56097 0.45501 0.0
C1235 C 0.49283 0.5342 0.44928 0.0
C1236 C 0.46314 0.52721 0.45109 0.0
C1237 C 0.44208 0.54696 0.45866 0.0
H1238 H 0.50908 0.51882 0.4436 0.0
H1239 H 0.30429 0.70822 0.5216 0.0
H1240 H 0.2614 0.16953 0.40926 0.0
H1241 H 0.30265 0.16312 0.37843 0.0
H1242 H 0.24433 0.18012 0.30918 0.0
H1243 H 0.20269 0.18582 0.34014 0.0
H1244 H 0.27775 0.13996 0.29672 0.0
H1245 H 0.29845 0.22861 0.33395 0.0
H1246 H 0.30624 0.26343 0.36994 0.0
H1247 H 0.37856 0.2154 0.40391 0.0
H1248 H 0.37108 0.18027 0.36819 0.0
H1249 H 0.42187 0.18466 0.22802 0.0
H1250 H 0.3835 0.19371 0.26149 0.0
H1251 H 0.37443 0.10669 0.27398 0.0
H1252 H 0.41222 0.09754 0.23983 0.0
H1253 H 0.37422 0.18448 0.31318 0.0
H1254 H 0.30251 0.09187 0.28178 0.0
H1255 H 0.29342 0.0627 0.24131 0.0
H1256 H 0.31958 0.12794 0.18854 0.0
H1257 H 0.32842 0.1576 0.22865 0.0
C1258 C 0.2574 0.17201 0.38745 0.0
C1259 C 0.22891 0.17826 0.37705 0.0
C1260 C 0.28108 0.16856 0.36983 0.0
C1261 C 0.27687 0.1717 0.34143 0.0
C1262 C 0.24825 0.17769 0.331 0.0
C1263 C 0.22447 0.18101 0.34867 0.0
C1264 C 0.30209 0.16773 0.32264 0.0
C1265 C 0.29879 0.14977 0.30036 0.0
C1266 C 0.32954 0.18078 0.32696 0.0
C1267 C 0.33395 0.2017 0.34862 0.0
C1268 C 0.31582 0.22539 0.34926 0.0
C1269 C 0.32023 0.2452 0.36955 0.0
C1270 C 0.34277 0.24155 0.38928 0.0
C1271 C 0.36105 0.21816 0.38867 0.0
C1272 C 0.35678 0.19833 0.36837 0.0
C1273 C 0.41195 0.16747 0.23816 0.0
C1274 C 0.41967 0.14038 0.23106 0.0
C1275 C 0.39006 0.17267 0.25733 0.0
C1276 C 0.37559 0.15088 0.26982 0.0
C1277 C 0.38478 0.12382 0.26412 0.0
C1278 C 0.4065 0.11861 0.24476 0.0
C1279 C 0.3499 0.15649 0.28759 0.0
C1280 C 0.35315 0.17468 0.30964 0.0
C1281 C 0.32211 0.14437 0.28253 0.0
C1282 C 0.31642 0.12683 0.25825 0.0
C1283 C 0.3062 0.10001 0.26153 0.0
C1284 C 0.30111 0.08339 0.23866 0.0
C1285 C 0.30601 0.09343 0.21238 0.0
C1286 C 0.31589 0.12015 0.20891 0.0
C1287 C 0.32097 0.13687 0.23171 0.0
H1288 H 0.30209 0.08051 0.19471 0.0
H1289 H 0.34613 0.2569 0.40499 0.0
H1290 H 0.14475 0.10155 0.47057 0.0
H1291 H 0.13706 0.06912 0.50742 0.0
H1292 H 0.14653 0.13417 0.56677 0.0
H1293 H 0.15362 0.16712 0.52939 0.0
H1294 H 0.17244 0.05223 0.54464 0.0
H1295 H 0.10569 0.11715 0.62413 0.0
H1296 H 0.06608 0.15266 0.62468 0.0
H1297 H 0.03927 0.13074 0.5429 0.0
H1298 H 0.07833 0.09488 0.54197 0.0
H1299 H 0.16336 0.96417 0.65882 0.0
H1300 H 0.17357 1.00453 0.63085 0.0
H1301 H 0.07988 0.01713 0.61604 0.0
H1302 H 0.06981 0.97752 0.64444 0.0
H1303 H 0.10007 0.06274 0.61882 0.0
H1304 H 0.12952 0.98311 0.56867 0.0
H1305 H 0.15628 0.93959 0.55991 0.0
H1306 H 0.2392 0.9805 0.5684 0.0
H1307 H 0.21288 0.02424 0.57752 0.0
C1308 C 0.14503 0.109 0.49147 0.0
C1309 C 0.14988 0.13675 0.49725 0.0
C1310 C 0.14072 0.09042 0.51253 0.0
C1311 C 0.1415 0.09909 0.5399 0.0
C1312 C 0.14567 0.12703 0.54578 0.0
C1313 C 0.14968 0.14582 0.52451 0.0
C1314 C 0.13879 0.07843 0.56197 0.0
C1315 C 0.1567 0.05463 0.56096 0.0
C1316 C 0.11782 0.08116 0.58287 0.0
C1317 C 0.09526 0.10362 0.58286 0.0
C1318 C 0.09141 0.11999 0.60624 0.0
C1319 C 0.06897 0.14008 0.60666 0.0
C1320 C 0.05016 0.14382 0.58387 0.0
C1321 C 0.05389 0.12776 0.56052 0.0
C1322 C 0.07623 0.10763 0.56 0.0
C1323 C 0.14506 0.97553 0.64937 0.0
C1324 C 0.11584 0.96738 0.65304 0.0
C1325 C 0.15086 0.99857 0.6334 0.0
C1326 C 0.12752 0.01348 0.62054 0.0
C1327 C 0.09834 1.00583 0.6253 0.0
C1328 C 0.09257 0.98298 0.64126 0.0
C1329 C 0.13312 0.03615 0.60105 0.0
C1330 C 0.11608 0.06049 0.60273 0.0
C1331 C 0.15333 0.03307 0.57949 0.0
C1332 C 0.16927 1.00683 0.57415 0.0
C1333 C 0.15346 0.98277 0.56888 0.0
C1334 C 0.16854 0.95808 0.56381 0.0
C1335 C 0.19943 0.95726 0.5637 0.0
C1336 C 0.21528 0.98115 0.56857 0.0
C1337 C 0.2003 1.0059 0.57369 0.0
H1338 H 0.21107 0.93812 0.55976 0.0
H1339 H 0.03272 0.15922 0.58423 0.0
H1340 H 0.13722 0.85087 0.77666 0.0
H1341 H 0.18016 0.84088 0.8064 0.0
H1342 H 0.19537 0.92751 0.81542 0.0
H1343 H 0.15257 0.9376 0.78517 0.0
H1344 H 0.24641 0.90031 0.80509 0.0
H1345 H 0.1675 0.88958 0.86797 0.0
H1346 H 0.12007 0.87189 0.88373 0.0
H1347 H 0.15442 0.78941 0.87908 0.0
H1348 H 0.20194 0.80656 0.8629 0.0
H1349 H 0.35272 0.87481 0.91809 0.0
H1350 H 0.31237 0.89233 0.88767 0.0
H1351 H 0.28952 0.80933 0.86685 0.0
H1352 H 0.32941 0.79199 0.89666 0.0
H1353 H 0.24199 0.8389 0.88575 0.0
H1354 H 0.31879 0.84822 0.82047 0.0
H1355 H 0.36631 0.86442 0.80352 0.0
H1356 H 0.33621 0.94798 0.81186 0.0
H1357 H 0.28862 0.93225 0.82931 0.0
C1358 C 0.1494 0.86782 0.78533 0.0
C1359 C 0.1414 0.89504 0.77865 0.0
C1360 C 0.17402 0.86209 0.80234 0.0
C1361 C 0.19103 0.88344 0.81336 0.0
C1362 C 0.1827 0.91068 0.80716 0.0
C1363 C 0.15807 0.91643 0.79005 0.0
C1364 C 0.21782 0.87717 0.83081 0.0
C1365 C 0.24534 0.88731 0.82304 0.0
C1366 C 0.21667 0.85974 0.85394 0.0
C1367 C 0.18825 0.84937 0.86406 0.0
C1368 C 0.1649 0.86766 0.87016 0.0
C1369 C 0.138 0.85773 0.87917 0.0
C1370 C 0.13423 0.82955 0.88237 0.0
C1371 C 0.15738 0.81123 0.87659 0.0
C1372 C 0.18432 0.82105 0.86754 0.0
C1373 C 0.3396 0.86045 0.90635 0.0
C1374 C 0.34403 0.83207 0.90991 0.0
C1375 C 0.31643 0.87042 0.88915 0.0
C1376 C 0.29757 0.85209 0.87532 0.0
C1377 C 0.30339 0.82386 0.8776 0.0
C1378 C 0.32633 0.81399 0.89458 0.0
C1379 C 0.27058 0.86175 0.85984 0.0
C1380 C 0.243 0.85221 0.868 0.0
C1381 C 0.27174 0.87956 0.83706 0.0
C1382 C 0.30028 0.88907 0.82653 0.0
C1383 C 0.3224 0.87006 0.81896 0.0
C1384 C 0.34933 0.87915 0.8092 0.0
C1385 C 0.35432 0.90722 0.8067 0.0
C1386 C 0.33234 0.92624 0.81387 0.0
C1387 C 0.30538 0.91725 0.82369 0.0
H1388 H 0.37518 0.91422 0.79913 0.0
H1389 H 0.11342 0.82191 0.88941 0.0
H1390 H 0.45893 0.07903 0.06988 0.0
H1391 H 0.44978 0.03615 0.04463 0.0
H1392 H 0.39089 0.01054 0.10758 0.0
H1393 H 0.3993 0.05324 0.13237 0.0
H1394 H 0.43885 0.97181 0.09369 0.0
H1395 H 0.35946 0.02808 0.05347 0.0
H1396 H 0.3395 0.06848 0.02843 0.0
H1397 H 0.39233 0.04741 0.95926 0.0
H1398 H 0.41292 0.00705 0.98408 0.0
H1399 H 0.34003 0.87337 0.01217 0.0
H1400 H 0.35188 0.91995 0.02716 0.0
H1401 H 0.44497 0.89964 0.02425 0.0
H1402 H 0.4332 0.85291 0.00998 0.0
H1403 H 0.3834 0.96218 1.00559 0.0
H1404 H 0.4794 0.93108 0.07759 0.0
H1405 H 0.49834 0.89052 0.10313 0.0
H1406 H 0.4099 0.86133 0.11038 0.0
H1407 H 0.39044 0.90188 0.08519 0.0
C1408 C 0.44364 0.06443 0.07799 0.0
C1409 C 0.42979 0.06943 0.10304 0.0
C1410 C 0.43852 0.03998 0.06364 0.0
C1411 C 0.41982 0.02017 0.0744 0.0
C1412 C 0.40549 0.02552 0.09904 0.0
C1413 C 0.41021 0.05 0.11308 0.0
C1414 C 0.41589 0.99327 0.06086 0.0
C1415 C 0.42697 0.96971 0.0743 0.0
C1416 C 0.40034 0.99058 0.03564 0.0
C1417 C 0.38797 0.01476 0.02073 0.0
C1418 C 0.36703 0.03222 0.03302 0.0
C1419 C 0.35556 0.05507 0.01885 0.0
C1420 C 0.36471 0.06056 0.9923 0.0
C1421 C 0.3853 0.04316 0.97984 0.0
C1422 C 0.39686 0.02029 0.99394 0.0
C1423 C 0.363 0.87891 0.01468 0.0
C1424 C 0.38569 0.85954 0.0101 0.0
C1425 C 0.36975 0.90556 0.02303 0.0
C1426 C 0.3993 0.91323 0.02702 0.0
C1427 C 0.42201 0.89411 0.02158 0.0
C1428 C 0.41526 0.86744 0.01338 0.0
C1429 C 0.40616 0.94064 0.03855 0.0
C1430 C 0.3957 0.96429 0.02475 0.0
C1431 C 0.42224 0.94346 0.06354 0.0
C1432 C 0.43353 0.91936 0.07933 0.0
C1433 C 0.46401 0.91606 0.08478 0.0
C1434 C 0.47483 0.89307 0.09915 0.0
C1435 C 0.45534 0.87332 0.1083 0.0
C1436 C 0.42497 0.8766 0.10321 0.0
C1437 C 0.41404 0.89957 0.08888 0.0
H1438 H 0.46377 0.8555 0.11937 0.0
H1439 H 0.35579 0.07825 0.98135 0.0
H1440 H 0.84035 0.43657 0.7735 0.0
H1441 H 0.80453 0.42938 0.73627 0.0
H1442 H 0.86422 0.37079 0.69948 0.0
H1443 H 0.90039 0.37883 0.73634 0.0
H1444 H 0.83675 0.39984 0.66074 0.0
H1445 H 0.80633 0.35138 0.74034 0.0
H1446 H 0.79454 0.34796 0.78921 0.0
H1447 H 0.72172 0.40475 0.77734 0.0
H1448 H 0.73368 0.40919 0.72852 0.0
H1449 H 0.73566 0.32101 0.58476 0.0
H1450 H 0.77099 0.33786 0.61839 0.0
H1451 H 0.70862 0.40073 0.64258 0.0
H1452 H 0.67231 0.38354 0.60875 0.0
H1453 H 0.73607 0.3726 0.68704 0.0
H1454 H 0.76644 0.41819 0.60527 0.0
H1455 H 0.78034 0.42058 0.55681 0.0
H1456 H 0.85382 0.36552 0.57285 0.0
H1457 H 0.84011 0.36249 0.62134 0.0
C1458 C 0.84605 0.42242 0.75727 0.0
C1459 C 0.87338 0.40817 0.75789 0.0
C1460 C 0.82543 0.41821 0.73605 0.0
C1461 C 0.83129 0.39907 0.71529 0.0
C1462 C 0.85906 0.38563 0.71525 0.0
C1463 C 0.8799 0.39024 0.73633 0.0
C1464 C 0.80805 0.39223 0.69439 0.0
C1465 C 0.81482 0.3937 0.66654 0.0
C1466 C 0.77921 0.38453 0.70183 0.0
C1467 C 0.77112 0.38087 0.73085 0.0
C1468 C 0.78788 0.36324 0.74817 0.0
C1469 C 0.78121 0.36117 0.77588 0.0
C1470 C 0.75743 0.3762 0.78639 0.0
C1471 C 0.74017 0.39318 0.76917 0.0
C1472 C 0.74693 0.39553 0.74149 0.0
C1473 C 0.72925 0.33857 0.59698 0.0
C1474 C 0.70099 0.35099 0.59386 0.0
C1475 C 0.74969 0.34824 0.61622 0.0
C1476 C 0.74267 0.37076 0.63279 0.0
C1477 C 0.71455 0.38337 0.62987 0.0
C1478 C 0.6939 0.37366 0.61043 0.0
C1479 C 0.76477 0.38039 0.65346 0.0
C1480 C 0.75786 0.37915 0.68128 0.0
C1481 C 0.79361 0.38791 0.646 0.0
C1482 C 0.80213 0.38999 0.61691 0.0
C1483 C 0.78546 0.40646 0.59843 0.0
C1484 C 0.79332 0.40795 0.57096 0.0
C1485 C 0.81792 0.39318 0.56175 0.0
C1486 C 0.83477 0.37695 0.58001 0.0
C1487 C 0.82699 0.37537 0.6075 0.0
H1488 H 0.82396 0.39434 0.54046 0.0
H1489 H 0.75236 0.37473 0.80787 0.0
H1490 H 0.86708 0.47053 0.88603 0.0
H1491 H 0.85933 0.50959 0.9165 0.0
H1492 H 0.95367 0.5195 0.92446 0.0
H1493 H 0.96152 0.47978 0.89432 0.0
H1494 H 0.92858 0.52708 0.97263 0.0
H1495 H 0.91075 0.56205 0.88262 0.0
H1496 H 0.88886 0.56363 0.83599 0.0
H1497 H 0.80208 0.57218 0.86919 0.0
H1498 H 0.82341 0.57027 0.91605 0.0
H1499 H 0.90922 0.66327 0.02856 0.0
H1500 H 0.92256 0.62769 0.99542 0.0
H1501 H 0.83408 0.59665 0.99778 0.0
H1502 H 0.82096 0.63175 0.03161 0.0
H1503 H 0.86021 0.60252 0.94275 0.0
H1504 H 0.87897 0.565 0.03286 0.0
H1505 H 0.90136 0.56118 0.07915 0.0
H1506 H 0.98795 0.55731 0.04497 0.0
H1507 H 0.96611 0.56183 0.99843 0.0
C1508 C 0.88619 0.4809 0.89442 0.0
C1509 C 0.9149 0.47221 0.88772 0.0
C1510 C 0.88173 0.50338 0.91169 0.0
C1511 C 0.90588 0.51795 0.92235 0.0
C1512 C 0.93467 0.50874 0.91637 0.0
C1513 C 0.93915 0.48606 0.89917 0.0
C1514 C 0.90085 0.54276 0.93963 0.0
C1515 C 0.91411 0.54383 0.96586 0.0
C1516 C 0.88161 0.56452 0.93102 0.0
C1517 C 0.86868 0.56579 0.90286 0.0
C1518 C 0.88698 0.56407 0.87999 0.0
C1519 C 0.87468 0.56506 0.85351 0.0
C1520 C 0.8441 0.56794 0.84963 0.0
C1521 C 0.82576 0.56992 0.87223 0.0
C1522 C 0.83795 0.56892 0.89875 0.0
C1523 C 0.89239 0.64943 0.02147 0.0
C1524 C 0.86384 0.65066 0.03221 0.0
C1525 C 0.90016 0.62886 1.00277 0.0
C1526 C 0.87933 0.60949 0.99422 0.0
C1527 C 0.85046 0.61143 1.00407 0.0
C1528 C 0.84295 0.63153 0.02326 0.0
C1529 C 0.88768 0.58659 0.97573 0.0
C1530 C 0.87503 0.58593 0.9493 0.0
C1531 C 0.90766 0.56536 0.98409 0.0
C1532 C 0.9209 0.56418 0.01214 0.0
C1533 C 0.90281 0.56388 0.0352 0.0
C1534 C 0.91539 0.56142 0.06149 0.0
C1535 C 0.94603 0.55887 0.06498 0.0
C1536 C 0.9642 0.55916 0.04221 0.0
C1537 C 0.95173 0.56178 0.01588 0.0
H1538 H 0.95572 0.55672 0.08534 0.0
H1539 H 0.83461 0.5687 0.82911 0.0
H1540 H 0.75003 0.68433 0.12108 0.0
H1541 H 0.70903 0.67427 0.15084 0.0
H1542 H 0.76811 0.67594 0.22128 0.0
H1543 H 0.8096 0.68594 0.19128 0.0
H1544 H 0.73203 0.63146 0.22164 0.0
H1545 H 0.72123 0.72733 0.2088 0.0
H1546 H 0.71674 0.7713 0.18418 0.0
H1547 H 0.63605 0.74526 0.1453 0.0
H1548 H 0.64028 0.70088 0.16931 0.0
H1549 H 0.61161 0.62238 0.31239 0.0
H1550 H 0.6551 0.63901 0.28905 0.0
H1551 H 0.60559 0.64104 0.21259 0.0
H1552 H 0.5617 0.62504 0.23613 0.0
H1553 H 0.63886 0.68681 0.21957 0.0
H1554 H 0.65414 0.58878 0.2272 0.0
H1555 H 0.65834 0.5448 0.25203 0.0
H1556 H 0.73058 0.57565 0.30061 0.0
H1557 H 0.72654 0.61997 0.2763 0.0
C1558 C 0.75431 0.68272 0.14293 0.0
C1559 C 0.78296 0.68597 0.15392 0.0
C1560 C 0.73081 0.67706 0.15992 0.0
C1561 C 0.73542 0.67464 0.18831 0.0
C1562 C 0.76407 0.67782 0.19942 0.0
C1563 C 0.78769 0.6836 0.18233 0.0
C1564 C 0.71024 0.66803 0.20602 0.0
C1565 C 0.71186 0.64385 0.22159 0.0
C1566 C 0.68371 0.68395 0.20553 0.0
C1567 C 0.68123 0.71058 0.19075 0.0
C1568 C 0.70272 0.73078 0.19474 0.0
C1569 C 0.70016 0.75585 0.18094 0.0
C1570 C 0.67616 0.76105 0.16313 0.0
C1571 C 0.65464 0.7412 0.1591 0.0
C1572 C 0.65709 0.71609 0.17284 0.0
C1573 C 0.60998 0.62656 0.29064 0.0
C1574 C 0.58337 0.62245 0.27602 0.0
C1575 C 0.63488 0.6359 0.2773 0.0
C1576 C 0.63371 0.64103 0.24901 0.0
C1577 C 0.607 0.63718 0.23442 0.0
C1578 C 0.58204 0.62784 0.2478 0.0
C1579 C 0.66046 0.64994 0.23456 0.0
C1580 C 0.65914 0.67458 0.21971 0.0
C1581 C 0.68726 0.63446 0.23564 0.0
C1582 C 0.68983 0.60777 0.25013 0.0
C1583 C 0.67077 0.58625 0.24332 0.0
C1584 C 0.67315 0.56125 0.25727 0.0
C1585 C 0.69466 0.55746 0.27794 0.0
C1586 C 0.7139 0.57864 0.28463 0.0
C1587 C 0.71159 0.60369 0.27076 0.0
H1588 H 0.69646 0.5381 0.28872 0.0
H1589 H 0.67421 0.78049 0.15249 0.0
H1590 H 0.69519 0.38402 0.49085 0.0
H1591 H 0.68203 0.42741 0.46728 0.0
H1592 H 0.58961 0.40872 0.47297 0.0
H1593 H 0.60255 0.3658 0.49634 0.0
H1594 H 0.60309 0.4253 0.42157 0.0
H1595 H 0.62107 0.45644 0.51419 0.0
H1596 H 0.65113 0.46211 0.55643 0.0
H1597 H 0.71591 0.50575 0.51153 0.0
H1598 H 0.68642 0.49998 0.46891 0.0
H1599 H 0.52673 0.54647 0.3877 0.0
H1600 H 0.54802 0.50717 0.4122 0.0
H1601 H 0.63464 0.54189 0.4075 0.0
H1602 H 0.61324 0.58187 0.38297 0.0
H1603 H 0.62963 0.51753 0.45591 0.0
H1604 H 0.61147 0.4889 0.3639 0.0
H1605 H 0.58267 0.4828 0.32098 0.0
H1606 H 0.52048 0.43362 0.36327 0.0
H1607 H 0.54868 0.43974 0.40653 0.0
C1608 C 0.6721 0.3893 0.48715 0.0
C1609 C 0.64996 0.37144 0.49552 0.0
C1610 C 0.66457 0.41414 0.47374 0.0
C1611 C 0.63474 0.42152 0.46831 0.0
C1612 C 0.61274 0.40362 0.47677 0.0
C1613 C 0.62022 0.37906 0.49029 0.0
C1614 C 0.62605 0.44742 0.45334 0.0
C1615 C 0.60872 0.44545 0.42925 0.0
C1616 C 0.63411 0.47383 0.46269 0.0
C1617 C 0.65171 0.4775 0.48832 0.0
C1618 C 0.64184 0.46705 0.51328 0.0
C1619 C 0.65875 0.47032 0.5373 0.0
C1620 C 0.68546 0.48421 0.53665 0.0
C1621 C 0.69525 0.49495 0.51199 0.0
C1622 C 0.67844 0.4917 0.4879 0.0
C1623 C 0.55033 0.54597 0.39191 0.0
C1624 C 0.56826 0.56737 0.38297 0.0
C1625 C 0.56254 0.5233 0.40597 0.0
C1626 C 0.59313 0.52101 0.41133 0.0
C1627 C 0.61101 0.54291 0.40354 0.0
C1628 C 0.59873 0.56584 0.3895 0.0
C1629 C 0.60606 0.49542 0.42441 0.0
C1630 C 0.6242 0.4974 0.44807 0.0
C1631 C 0.599 0.46889 0.41454 0.0
C1632 C 0.5821 0.46495 0.3885 0.0
C1633 C 0.59156 0.47692 0.36408 0.0
C1634 C 0.57535 0.47345 0.33969 0.0
C1635 C 0.54973 0.45788 0.33941 0.0
C1636 C 0.54032 0.44569 0.36352 0.0
C1637 C 0.55643 0.44912 0.38798 0.0
H1638 H 0.53721 0.45522 0.32051 0.0
H1639 H 0.69853 0.48671 0.55526 0.0
H1640 H 0.21364 0.36227 0.11504 0.0
H1641 H 0.24616 0.32181 0.12082 0.0
H1642 H 0.32239 0.37366 0.11988 0.0
H1643 H 0.28999 0.414 0.11376 0.0
H1644 H 0.33075 0.33068 0.08762 0.0
H1645 H 0.2993 0.34543 0.17902 0.0
H1646 H 0.26392 0.35253 0.21615 0.0
H1647 H 0.22678 0.27366 0.19985 0.0
H1648 H 0.26177 0.26621 0.16234 0.0
H1649 H 0.44011 0.24587 0.15435 0.0
H1650 H 0.40261 0.28124 0.14367 0.0
H1651 H 0.34009 0.21877 0.12216 0.0
H1652 H 0.37801 0.18305 0.1322 0.0
H1653 H 0.32202 0.26374 0.16338 0.0
H1654 H 0.35938 0.24959 0.07264 0.0
H1655 H 0.39885 0.24455 0.03888 0.0
H1656 H 0.42878 0.32553 0.05789 0.0
H1657 H 0.38977 0.33088 0.09211 0.0
C1658 C 0.23733 0.36499 0.11625 0.0
C1659 C 0.24934 0.39121 0.11387 0.0
C1660 C 0.25589 0.34189 0.11959 0.0
C1661 C 0.28676 0.34467 0.12083 0.0
C1662 C 0.29869 0.37095 0.11879 0.0
C1663 C 0.28016 0.394 0.11538 0.0
C1664 C 0.30675 0.32022 0.12369 0.0
C1665 C 0.32888 0.31616 0.10429 0.0
C1666 C 0.30412 0.30099 0.14521 0.0
C1667 C 0.28295 0.30538 0.16767 0.0
C1668 C 0.28342 0.32969 0.18318 0.0
C1669 C 0.26348 0.33376 0.20433 0.0
C1670 C 0.24309 0.31357 0.21033 0.0
C1671 C 0.24259 0.28928 0.19516 0.0
C1672 C 0.26249 0.28511 0.17397 0.0
C1673 C 0.4185 0.23966 0.14696 0.0
C1674 C 0.41198 0.21175 0.14395 0.0
C1675 C 0.39712 0.25987 0.14094 0.0
C1676 C 0.36861 0.25258 0.13225 0.0
C1677 C 0.36201 0.22474 0.12888 0.0
C1678 C 0.3837 0.20442 0.13436 0.0
C1679 C 0.34585 0.27438 0.12734 0.0
C1680 C 0.3234 0.27804 0.14646 0.0
C1681 C 0.34851 0.29356 0.1059 0.0
C1682 C 0.37179 0.29053 0.08511 0.0
C1683 C 0.37453 0.26623 0.06979 0.0
C1684 C 0.3968 0.26334 0.05054 0.0
C1685 C 0.41635 0.28468 0.04628 0.0
C1686 C 0.41363 0.309 0.06122 0.0
C1687 C 0.39142 0.31199 0.08053 0.0
H1688 H 0.43358 0.2824 0.03138 0.0
H1689 H 0.22776 0.3167 0.22679 0.0
H1690 H 0.86881 0.31652 0.79476 0.0
H1691 H 0.8428 0.27634 0.80993 0.0
H1692 H 0.855 0.30152 0.89398 0.0
H1693 H 0.88204 0.34187 0.87877 0.0
H1694 H 0.86909 0.24919 0.88931 0.0
H1695 H 0.78284 0.30169 0.86068 0.0
H1696 H 0.75033 0.32968 0.83024 0.0
H1697 H 0.75329 0.2667 0.76888 0.0
H1698 H 0.78549 0.23813 0.79919 0.0
H1699 H 0.7811 0.13922 0.93672 0.0
H1700 H 0.8004 0.18466 0.92649 0.0
H1701 H 0.79271 0.16748 0.84002 0.0
H1702 H 0.77297 0.1223 0.85022 0.0
H1703 H 0.77415 0.21766 0.84897 0.0
H1704 H 0.86054 0.16534 0.87662 0.0
H1705 H 0.89159 0.13606 0.90719 0.0
H1706 H 0.8894 0.19831 0.96932 0.0
H1707 H 0.85799 0.22783 0.93923 0.0
C1708 C 0.86576 0.31382 0.81652 0.0
C1709 C 0.87772 0.33253 0.83554 0.0
C1710 C 0.85053 0.29079 0.82519 0.0
C1711 C 0.84647 0.2858 0.85316 0.0
C1712 C 0.8577 0.30483 0.87226 0.0
C1713 C 0.87302 0.32803 0.86355 0.0
C1714 C 0.83248 0.25976 0.86221 0.0
C1715 C 0.848 0.24261 0.88091 0.0
C1716 C 0.8054 0.2505 0.8507 0.0
C1717 C 0.78676 0.2679 0.83211 0.0
C1718 C 0.77673 0.29391 0.84062 0.0
C1719 C 0.75824 0.30982 0.82343 0.0
C1720 C 0.74986 0.30006 0.79756 0.0
C1721 C 0.75981 0.27426 0.7889 0.0
C1722 C 0.77805 0.25814 0.80614 0.0
C1723 C 0.78355 0.14517 0.91554 0.0
C1724 C 0.77555 0.12715 0.89429 0.0
C1725 C 0.79474 0.17113 0.90969 0.0
C1726 C 0.79848 0.17956 0.88243 0.0
C1727 C 0.79013 0.16161 0.86121 0.0
C1728 C 0.77885 0.13572 0.86706 0.0
C1729 C 0.81085 0.20705 0.87592 0.0
C1730 C 0.79509 0.22438 0.85761 0.0
C1731 C 0.83778 0.21638 0.88765 0.0
C1732 C 0.85663 0.19866 0.90579 0.0
C1733 C 0.86647 0.17269 0.89689 0.0
C1734 C 0.88418 0.15607 0.91411 0.0
C1735 C 0.89239 0.16528 0.94022 0.0
C1736 C 0.88297 0.19118 0.94912 0.0
C1737 C 0.86523 0.20787 0.93198 0.0
H1738 H 0.9061 0.15239 0.95352 0.0
H1739 H 0.73562 0.31246 0.78425 0.0
H1740 H 0.14937 0.51385 0.13484 0.0
H1741 H 0.11382 0.55259 0.13533 0.0
H1742 H 0.04308 0.49745 0.11516 0.0
H1743 H 0.07817 0.4589 0.11562 0.0
H1744 H 0.07785 0.57605 0.10002 0.0
H1745 H 0.98054 0.5148 0.14481 0.0
H1746 H 0.9735 0.47623 0.17652 0.0
H1747 H 0.05715 0.49223 0.21588 0.0
H1748 H 0.06451 0.53113 0.18468 0.0
H1749 H 0.94453 0.63808 0.06375 0.0
H1750 H 0.98528 0.60662 0.07375 0.0
H1751 H 0.97298 0.61824 0.16036 0.0
H1752 H 0.93132 0.65022 0.15025 0.0
H1753 H 0.98511 0.56723 0.15153 0.0
H1754 H 0.03163 0.64896 0.12407 0.0
H1755 H 0.04045 0.68938 0.09523 0.0
H1756 H 0.06243 0.63686 0.02785 0.0
H1757 H 0.05334 0.59611 0.05614 0.0
C1758 C 0.12623 0.51015 0.13042 0.0
C1759 C 0.11637 0.48341 0.12555 0.0
C1760 C 0.10594 0.53223 0.13074 0.0
C1761 C 0.0756 0.52784 0.12606 0.0
C1762 C 0.06616 0.50128 0.11976 0.0
C1763 C 0.08627 0.47927 0.1198 0.0
C1764 C 0.0536 0.55082 0.12749 0.0
C1765 C 0.05769 0.57423 0.11145 0.0
C1766 C 0.02764 0.54889 0.14308 0.0
C1767 C 0.02314 0.5258 0.16227 0.0
C1768 C 0.99734 0.51021 0.16034 0.0
C1769 C 0.99332 0.48825 0.1782 0.0
C1770 C 0.01489 0.48175 0.19816 0.0
C1771 C 0.04049 0.49724 0.20036 0.0
C1772 C 0.04461 0.51923 0.18257 0.0
C1773 C 0.95035 0.63398 0.085 0.0
C1774 C 0.93496 0.6469 0.10626 0.0
C1775 C 0.97388 0.61604 0.09069 0.0
C1776 C 0.98288 0.61056 0.11778 0.0
C1777 C 0.96667 0.62239 0.13924 0.0
C1778 C 0.94279 0.64048 0.13351 0.0
C1779 C 0.00881 0.59196 0.12316 0.0
C1780 C 1.00548 0.56933 0.14047 0.0
C1781 C 0.03581 0.59497 0.10928 0.0
C1782 C 0.04171 0.61946 0.09225 0.0
C1783 C 0.03823 0.64602 0.10308 0.0
C1784 C 0.04328 0.66899 0.08682 0.0
C1785 C 0.05198 0.66569 0.05972 0.0
C1786 C 0.05572 0.63939 0.04885 0.0
C1787 C 0.05067 0.61634 0.06501 0.0
H1788 H 0.05584 0.68349 0.04715 0.0
H1789 H 0.01175 0.46472 0.21194 0.0
H1790 H 0.73174 0.91984 0.38693 0.0
H1791 H 0.6924 0.88708 0.37561 0.0
H1792 H 0.75842 0.82685 0.35279 0.0
H1793 H 0.79731 0.85909 0.36425 0.0
H1794 H 0.70916 0.82555 0.31827 0.0
H1795 H 0.7321 0.82673 0.41628 0.0
H1796 H 0.73662 0.84926 0.46134 0.0
H1797 H 0.64477 0.87297 0.45687 0.0
H1798 H 0.63983 0.85086 0.41158 0.0
H1799 H 0.64645 0.69497 0.33719 0.0
H1800 H 0.67748 0.73569 0.34021 0.0
H1801 H 0.60284 0.78367 0.36788 0.0
H1802 H 0.57192 0.74308 0.36503 0.0
H1803 H 0.65129 0.79537 0.39764 0.0
H1804 H 0.62539 0.79087 0.30347 0.0
H1805 H 0.6185 0.76859 0.25858 0.0
H1806 H 0.71203 0.75312 0.25449 0.0
H1807 H 0.71946 0.77501 0.2996 0.0
C1808 C 0.73766 0.89978 0.37901 0.0
C1809 C 0.7675 0.89181 0.37682 0.0
C1810 C 0.71526 0.88106 0.37263 0.0
C1811 C 0.72248 0.85432 0.36367 0.0
C1812 C 0.75225 0.84723 0.35973 0.0
C1813 C 0.77447 0.86566 0.36644 0.0
C1814 C 0.69977 0.83271 0.36075 0.0
C1815 C 0.69655 0.81891 0.33563 0.0
C1816 C 0.68275 0.82437 0.38318 0.0
C1817 C 0.68568 0.83744 0.41045 0.0
C1818 C 0.71293 0.83692 0.42483 0.0
C1819 C 0.71556 0.84958 0.45041 0.0
C1820 C 0.69102 0.86261 0.46192 0.0
C1821 C 0.66378 0.86292 0.4479 0.0
C1822 C 0.66104 0.85032 0.42229 0.0
C1823 C 0.63676 0.71419 0.34403 0.0
C1824 C 0.6068 0.71586 0.35088 0.0
C1825 C 0.65443 0.73749 0.3456 0.0
C1826 C 0.64244 0.7629 0.35402 0.0
C1827 C 0.61262 0.76439 0.36132 0.0
C1828 C 0.59496 0.74116 0.35963 0.0
C1829 C 0.66101 0.78786 0.35529 0.0
C1830 C 0.66351 0.80222 0.38012 0.0
C1831 C 0.67704 0.79692 0.3325 0.0
C1832 C 0.67294 0.78434 0.30505 0.0
C1833 C 0.64449 0.78258 0.29308 0.0
C1834 C 0.64048 0.77004 0.2676 0.0
C1835 C 0.66478 0.75936 0.25375 0.0
C1836 C 0.6932 0.76136 0.26527 0.0
C1837 C 0.69734 0.77388 0.29079 0.0
H1838 H 0.66149 0.7496 0.23409 0.0
H1839 H 0.6931 0.8724 0.48173 0.0
H1840 H 0.51268 0.34057 0.57911 0.0
H1841 H 0.46778 0.36676 0.58968 0.0
H1842 H 0.51042 0.44152 0.56679 0.0
H1843 H 0.55567 0.41532 0.55654 0.0
H1844 H 0.48441 0.44686 0.61479 0.0
H1845 H 0.45599 0.41166 0.52644 0.0
H1846 H 0.44692 0.37615 0.4915 0.0
H1847 H 0.38261 0.33935 0.54266 0.0
H1848 H 0.39168 0.37437 0.57815 0.0
H1849 H 0.37027 0.5405 0.61421 0.0
H1850 H 0.40531 0.50794 0.59481 0.0
H1851 H 0.35757 0.44092 0.62932 0.0
H1852 H 0.32133 0.47395 0.64828 0.0
H1853 H 0.38392 0.42879 0.57706 0.0
H1854 H 0.41253 0.46344 0.66535 0.0
H1855 H 0.42067 0.49945 0.69997 0.0
H1856 H 0.4845 0.53684 0.64872 0.0
H1857 H 0.47639 0.50128 0.61358 0.0
C1858 C 0.51241 0.36258 0.57617 0.0
C1859 C 0.53766 0.37597 0.5671 0.0
C1860 C 0.48665 0.3775 0.58204 0.0
C1861 C 0.48556 0.40609 0.57876 0.0
C1862 C 0.51072 0.41946 0.56941 0.0
C1863 C 0.53654 0.40452 0.56356 0.0
C1864 C 0.4589 0.42224 0.58673 0.0
C1865 C 0.46255 0.44307 0.60622 0.0
C1866 C 0.4301 0.41666 0.57637 0.0
C1867 C 0.42479 0.39547 0.55511 0.0
C1868 C 0.44014 0.39583 0.53038 0.0
C1869 C 0.43496 0.37581 0.51045 0.0
C1870 C 0.41428 0.35545 0.5149 0.0
C1871 C 0.39868 0.35509 0.53928 0.0
C1872 C 0.40384 0.37502 0.5593 0.0
C1873 C 0.36671 0.5188 0.6171 0.0
C1874 C 0.34336 0.50967 0.63302 0.0
C1875 C 0.38681 0.50021 0.60602 0.0
C1876 C 0.38448 0.47209 0.61121 0.0
C1877 C 0.35982 0.4626 0.62526 0.0
C1878 C 0.3392 0.48139 0.63606 0.0
C1879 C 0.40975 0.45358 0.6046 0.0
C1880 C 0.40584 0.43235 0.5856 0.0
C1881 C 0.4384 0.4586 0.61547 0.0
C1882 C 0.44369 0.47979 0.63675 0.0
C1883 C 0.42817 0.47943 0.66139 0.0
C1884 C 0.43279 0.49976 0.68111 0.0
C1885 C 0.45305 0.52045 0.67653 0.0
C1886 C 0.4688 0.52081 0.65224 0.0
C1887 C 0.46423 0.50056 0.63242 0.0
H1888 H 0.45659 0.53618 0.69182 0.0
H1889 H 0.41027 0.34 0.49943 0.0
H1890 H 0.18323 0.60035 0.63015 0.0
H1891 H 0.16308 0.64669 0.63815 0.0
H1892 H 0.25137 0.67872 0.63845 0.0
H1893 H 0.27145 0.63256 0.63107 0.0
H1894 H 0.22217 0.70117 0.67825 0.0
H1895 H 0.2025 0.68734 0.58269 0.0
H1896 H 0.18337 0.66321 0.54184 0.0
H1897 H 0.09517 0.66982 0.57221 0.0
H1898 H 0.11383 0.69369 0.61343 0.0
H1899 H 0.16854 0.8407 0.67702 0.0
H1900 H 0.19331 0.79894 0.65949 0.0
H1901 H 0.11221 0.75468 0.66692 0.0
H1902 H 0.0878 0.79581 0.68448 0.0
H1903 H 0.1414 0.74106 0.61973 0.0
H1904 H 0.1624 0.75151 0.71684 0.0
H1905 H 0.18169 0.77575 0.75756 0.0
H1906 H 0.26835 0.77567 0.72341 0.0
H1907 H 0.24943 0.75183 0.68224 0.0
C1908 C 0.19823 0.61734 0.63187 0.0
C1909 C 0.22886 0.6129 0.63 0.0
C1910 C 0.18675 0.64383 0.63633 0.0
C1911 C 0.20567 0.66637 0.63854 0.0
C1912 C 0.23629 0.66177 0.63683 0.0
C1913 C 0.24774 0.63535 0.63261 0.0
C1914 C 0.19373 0.69469 0.64297 0.0
C1915 C 0.20488 0.71003 0.66512 0.0
C1916 C 0.17094 0.7063 0.62608 0.0
C1917 C 0.1596 0.6921 0.60125 0.0
C1918 C 0.17905 0.68349 0.58074 0.0
C1919 C 0.16829 0.66988 0.55751 0.0
C1920 C 0.13809 0.66493 0.55446 0.0
C1921 C 0.11857 0.67365 0.57461 0.0
C1922 C 0.12922 0.68724 0.59789 0.0
C1923 C 0.15598 0.82217 0.67428 0.0
C1924 C 0.12636 0.82136 0.68221 0.0
C1925 C 0.17012 0.79834 0.66446 0.0
C1926 C 0.15463 0.77362 0.66214 0.0
C1927 C 0.1246 0.77344 0.66852 0.0
C1928 C 0.11071 0.79695 0.67865 0.0
C1929 C 0.1697 0.74728 0.65507 0.0
C1930 C 0.15905 0.73229 0.63252 0.0
C1931 C 0.19302 0.73603 0.67152 0.0
C1932 C 0.20441 0.75024 0.6963 0.0
C1933 C 0.1855 0.7569 0.71789 0.0
C1934 C 0.19638 0.77053 0.74107 0.0
C1935 C 0.22621 0.77734 0.74302 0.0
C1936 C 0.24524 0.77046 0.72183 0.0
C1937 C 0.23445 0.7569 0.69857 0.0
H1938 H 0.23459 0.78788 0.76099 0.0
H1939 H 0.1298 0.65439 0.53646 0.0
H1940 H 0.52749 0.83277 0.94805 0.0
H1941 H 0.56664 0.86413 0.93561 0.0
H1942 H 0.50142 0.92864 0.92192 0.0
H1943 H 0.46238 0.89753 0.9354 0.0
H1944 H 0.5799 0.88919 0.8917 0.0
H1945 H 0.53045 0.99108 0.93341 0.0
H1946 H 0.49749 1.0066 0.97016 0.0
H1947 H 0.52175 0.93538 0.0178 0.0
H1948 H 0.55517 0.91965 0.98153 0.0
H1949 H 0.65657 1.00201 0.83635 0.0
H1950 H 0.61948 0.96939 0.85093 0.0
H1951 H 0.64634 0.98175 0.93522 0.0
H1952 H 0.68283 0.01484 0.92075 0.0
H1953 H 0.58886 0.98195 0.9323 0.0
H1954 H 0.66467 0.92203 0.89927 0.0
H1955 H 0.70063 0.90393 0.8663 0.0
H1956 H 0.63007 0.88717 0.80893 0.0
H1957 H 0.59369 0.90551 0.84144 0.0
C1958 C 0.52154 0.8537 0.94254 0.0
C1959 C 0.49188 0.86273 0.94284 0.0
C1960 C 0.54395 0.87162 0.93529 0.0
C1961 C 0.53725 0.89899 0.92804 0.0
C1962 C 0.50745 0.90788 0.92796 0.0
C1963 C 0.48506 0.89003 0.93554 0.0
C1964 C 0.56139 0.918 0.92037 0.0
C1965 C 0.58176 0.90947 0.90061 0.0
C1966 C 0.56445 0.94436 0.93228 0.0
C1967 C 0.54509 0.95407 0.9546 0.0
C1968 C 0.52888 0.97882 0.95179 0.0
C1969 C 0.5101 0.98763 0.97253 0.0
C1970 C 0.50744 0.97193 0.99625 0.0
C1971 C 0.52374 0.94747 0.99937 0.0
C1972 C 0.5426 0.9386 0.97873 0.0
C1973 C 0.65477 0.99754 0.85796 0.0
C1974 C 0.67278 0.01094 0.87735 0.0
C1975 C 0.63354 0.97883 0.86632 0.0
C1976 C 0.63006 0.97282 0.89425 0.0
C1977 C 0.64837 0.98598 0.91359 0.0
C1978 C 0.66946 1.00478 0.90525 0.0
C1979 C 0.60709 0.95324 0.90337 0.0
C1980 C 0.58694 0.96168 0.92338 0.0
C1981 C 0.60471 0.9265 0.89227 0.0
C1982 C 0.62648 0.91538 0.87269 0.0
C1983 C 0.65684 0.91466 0.87955 0.0
C1984 C 0.67729 0.90433 0.86095 0.0
C1985 C 0.66765 0.89446 0.83551 0.0
C1986 C 0.63751 0.89485 0.82863 0.0
C1987 C 0.61696 0.90518 0.84714 0.0
H1988 H 0.68352 0.88647 0.82114 0.0
H1989 H 0.4928 0.97874 0.01223 0.0
H1990 H 0.90376 0.96711 0.37451 0.0
H1991 H 0.95028 0.99139 0.38163 0.0
H1992 H 0.90184 0.06843 0.38382 0.0
H1993 H 0.8556 0.04429 0.37575 0.0
H1994 H 0.94701 0.07482 0.35417 0.0
H1995 H 0.93258 0.03458 0.44222 0.0
H1996 H 0.92532 0.99796 0.4761 0.0
H1997 H 0.00798 0.96015 0.4544 0.0
H1998 H 0.0155 0.99627 0.41999 0.0
H1999 H 0.04032 0.15996 0.43312 0.0
H2000 H 1.00243 0.12794 0.41846 0.0
H2001 H 0.06961 0.07291 0.38779 0.0
H2002 H 0.10814 0.10562 0.40202 0.0
H2003 H 0.02074 0.05111 0.42735 0.0
H2004 H 0.03522 0.09755 0.34163 0.0
H2005 H 0.04108 0.13841 0.31266 0.0
H2006 H 0.95533 0.16852 0.33555 0.0
H2007 H 0.94915 0.12804 0.36501 0.0
C2008 C 0.90312 0.98922 0.37663 0.0
C2009 C 0.87612 1.00386 0.37447 0.0
C2010 C 0.92971 1.0031 0.38081 0.0
C2011 C 0.92973 0.03183 0.38344 0.0
C2012 C 0.90258 0.04632 0.38168 0.0
C2013 C 0.87611 0.03251 0.37717 0.0
C2014 C 0.95785 0.04707 0.38742 0.0
C2015 C 0.963 0.06957 0.37027 0.0
C2016 C 0.97925 0.04006 0.40803 0.0
C2017 C 0.97443 0.01797 0.42827 0.0
C2018 C 0.94905 0.01828 0.44442 0.0
C2019 C 0.94491 0.99765 0.46377 0.0
C2020 C 0.96617 0.97675 0.46738 0.0
C2021 C 0.99152 0.97634 0.45155 0.0
C2022 C 0.99573 0.99688 0.43211 0.0
C2023 C 0.04713 0.14114 0.42307 0.0
C2024 C 0.07721 0.13527 0.4187 0.0
C2025 C 0.02541 0.12287 0.41471 0.0
C2026 C 0.03319 0.09805 0.40213 0.0
C2027 C 0.06321 0.092 0.39752 0.0
C2028 C 0.08511 0.11071 0.40544 0.0
C2029 C 0.00942 0.07877 0.39434 0.0
C2030 C 1.00498 0.05575 0.41088 0.0
C2031 C 0.9883 0.08559 0.3736 0.0
C2032 C 0.99182 0.10983 0.35567 0.0
C2033 C 0.01771 0.11298 0.34066 0.0
C2034 C 0.02107 0.13606 0.32411 0.0
C2035 C 0.99861 0.15607 0.3223 0.0
C2036 C 0.97271 0.15301 0.33698 0.0
C2037 C 0.96926 0.12998 0.35357 0.0
H2038 H 1.00126 0.17393 0.30949 0.0
H2039 H 0.96309 0.96098 0.48256 0.0
loop_
_geom_bond_atom_site_label_1
_geom_bond_atom_site_label_2
_geom_bond_distance
_geom_bond_site_symmetry_2
_ccdc_geom_bond_type
Tb0 O3 2.453 . S
Tb0 O4 2.596 . S
Tb0 O5 2.374 . S
Tb0 O13 2.343 . S
Tb0 O15 2.353 . S
Tb0 O17 2.427 . S
Tb0 O18 2.513 . S
C1 O5 1.251 . S
C1 O7 1.263 . S
Tb2 O4 2.343 . S
Tb2 O7 2.353 . S
Tb2 O10 2.427 . S
Tb2 O11 2.513 . S
Tb2 O12 2.453 . S
Tb2 O13 2.596 . S
Tb2 O14 2.374 . S
O3 Tb0 2.453 . S
O3 C19 1.245 . S
O4 Tb0 2.596 . S
O4 Tb2 2.343 . S
O4 C19 1.259 . S
O5 Tb0 2.374 . S
O5 C1 1.251 . S
C6 O10 1.275 . S
C6 O11 1.246 . S
O7 C1 1.263 . S
O7 Tb2 2.353 . S
C8 O12 1.245 . S
C8 O13 1.259 . S
C9 O14 1.250 . S
C9 O15 1.263 . S
O10 Tb2 2.427 . S
O10 C6 1.275 . S
O11 Tb2 2.513 . S
O11 C6 1.246 . S
O12 Tb2 2.453 . S
O12 C8 1.245 . S
O13 Tb0 2.343 . S
O13 Tb2 2.596 . S
O13 C8 1.259 . S
O14 Tb2 2.374 . S
O14 C9 1.250 . S
O15 Tb0 2.353 . S
O15 C9 1.263 . S
C16 O17 1.275 . S
C16 O18 1.246 . S
O17 Tb0 2.427 . S
O17 C16 1.275 . S
O18 Tb0 2.513 . S
O18 C16 1.246 . S
C19 O3 1.245 . S
C19 O4 1.259 . S
Tb20 O23 2.453 . S
Tb20 O24 2.596 . S
Tb20 O25 2.374 . S
Tb20 O33 2.343 . S
Tb20 O35 2.353 . S
Tb20 O37 2.427 . S
Tb20 O38 2.513 . S
C21 O25 1.251 . S
C21 O27 1.263 . S
Tb22 O24 2.343 . S
Tb22 O27 2.353 . S
Tb22 O30 2.427 . S
Tb22 O31 2.513 . S
Tb22 O32 2.453 . S
Tb22 O33 2.596 . S
Tb22 O34 2.374 . S
O23 Tb20 2.453 . S
O23 C39 1.245 . S
O24 Tb20 2.596 . S
O24 Tb22 2.343 . S
O24 C39 1.259 . S
O25 Tb20 2.374 . S
O25 C21 1.251 . S
C26 O30 1.275 . S
C26 O31 1.246 . S
O27 C21 1.263 . S
O27 Tb22 2.353 . S
C28 O32 1.245 . S
C28 O33 1.259 . S
C29 O34 1.250 . S
C29 O35 1.263 . S
O30 Tb22 2.427 . S
O30 C26 1.275 . S
O31 Tb22 2.513 . S
O31 C26 1.246 . S
O32 Tb22 2.453 . S
O32 C28 1.245 . S
O33 Tb20 2.343 . S
O33 Tb22 2.596 . S
O33 C28 1.259 . S
O34 Tb22 2.374 . S
O34 C29 1.250 . S
O35 Tb20 2.353 . S
O35 C29 1.263 . S
C36 O37 1.275 . S
C36 O38 1.246 . S
O37 Tb20 2.427 . S
O37 C36 1.275 . S
O38 Tb20 2.513 . S
O38 C36 1.246 . S
C39 O23 1.245 . S
C39 O24 1.259 . S
Tb40 O43 2.453 . S
Tb40 O44 2.596 . S
Tb40 O45 2.374 . S
Tb40 O53 2.343 . S
Tb40 O55 2.353 . S
Tb40 O57 2.427 . S
Tb40 O58 2.513 . S
C41 O45 1.251 . S
C41 O47 1.263 . S
Tb42 O44 2.343 . S
Tb42 O47 2.353 . S
Tb42 O50 2.427 . S
Tb42 O51 2.513 . S
Tb42 O52 2.453 1_556 S
Tb42 O53 2.596 . S
Tb42 O54 2.374 1_556 S
O43 Tb40 2.453 . S
O43 C59 1.245 . S
O44 Tb40 2.596 . S
O44 Tb42 2.343 . S
O44 C59 1.259 . S
O45 Tb40 2.374 . S
O45 C41 1.251 . S
C46 O50 1.275 . S
C46 O51 1.246 . S
O47 C41 1.263 . S
O47 Tb42 2.353 . S
C48 O52 1.245 1_556 S
C48 O53 1.259 . S
C49 O54 1.250 1_556 S
C49 O55 1.263 . S
O50 Tb42 2.427 . S
O50 C46 1.275 . S
O51 Tb42 2.513 . S
O51 C46 1.246 . S
O52 Tb42 2.453 1_554 S
O52 C48 1.245 1_554 S
O53 Tb40 2.343 . S
O53 Tb42 2.596 . S
O53 C48 1.259 . S
O54 Tb42 2.374 1_554 S
O54 C49 1.250 1_554 S
O55 Tb40 2.353 . S
O55 C49 1.263 . S
C56 O57 1.275 . S
C56 O58 1.246 . S
O57 Tb40 2.427 . S
O57 C56 1.275 . S
O58 Tb40 2.513 . S
O58 C56 1.246 . S
C59 O43 1.245 . S
C59 O44 1.259 . S
Tb60 O63 2.453 . S
Tb60 O64 2.596 . S
Tb60 O65 2.374 . S
Tb60 O73 2.343 . S
Tb60 O75 2.353 . S
Tb60 O77 2.427 . S
Tb60 O78 2.513 . S
C61 O65 1.251 . S
C61 O67 1.263 . S
Tb62 O64 2.343 . S
Tb62 O67 2.353 . S
Tb62 O70 2.427 . S
Tb62 O71 2.513 . S
Tb62 O72 2.453 . S
Tb62 O73 2.596 . S
Tb62 O74 2.374 . S
O63 Tb60 2.453 . S
O63 C79 1.245 . S
O64 Tb60 2.596 . S
O64 Tb62 2.343 . S
O64 C79 1.259 . S
O65 Tb60 2.374 . S
O65 C61 1.251 . S
C66 O70 1.275 . S
C66 O71 1.246 . S
O67 C61 1.263 . S
O67 Tb62 2.353 . S
C68 O72 1.245 . S
C68 O73 1.259 . S
C69 O74 1.250 . S
C69 O75 1.263 . S
O70 Tb62 2.427 . S
O70 C66 1.275 . S
O71 Tb62 2.513 . S
O71 C66 1.246 . S
O72 Tb62 2.453 . S
O72 C68 1.245 . S
O73 Tb60 2.343 . S
O73 Tb62 2.596 . S
O73 C68 1.259 . S
O74 Tb62 2.374 . S
O74 C69 1.250 . S
O75 Tb60 2.353 . S
O75 C69 1.263 . S
C76 O77 1.275 . S
C76 O78 1.246 . S
O77 Tb60 2.427 . S
O77 C76 1.275 . S
O78 Tb60 2.513 . S
O78 C76 1.246 . S
C79 O63 1.245 . S
C79 O64 1.259 . S
Tb80 O83 2.453 . S
Tb80 O84 2.596 . S
Tb80 O85 2.374 . S
Tb80 O93 2.343 . S
Tb80 O95 2.353 . S
Tb80 O97 2.427 . S
Tb80 O98 2.513 . S
C81 O85 1.251 . S
C81 O87 1.263 . S
Tb82 O84 2.343 . S
Tb82 O87 2.353 . S
Tb82 O90 2.427 . S
Tb82 O91 2.513 . S
Tb82 O92 2.453 . S
Tb82 O93 2.596 . S
Tb82 O94 2.374 . S
O83 Tb80 2.453 . S
O83 C99 1.245 . S
O84 Tb80 2.596 . S
O84 Tb82 2.343 . S
O84 C99 1.259 . S
O85 Tb80 2.374 . S
O85 C81 1.251 . S
C86 O90 1.275 . S
C86 O91 1.246 . S
O87 C81 1.263 . S
O87 Tb82 2.353 . S
C88 O92 1.245 . S
C88 O93 1.259 . S
C89 O94 1.250 . S
C89 O95 1.263 . S
O90 Tb82 2.427 . S
O90 C86 1.275 . S
O91 Tb82 2.513 . S
O91 C86 1.246 . S
O92 Tb82 2.453 . S
O92 C88 1.245 . S
O93 Tb80 2.343 . S
O93 Tb82 2.596 . S
O93 C88 1.259 . S
O94 Tb82 2.374 . S
O94 C89 1.250 . S
O95 Tb80 2.353 . S
O95 C89 1.263 . S
C96 O97 1.275 . S
C96 O98 1.246 . S
O97 Tb80 2.427 . S
O97 C96 1.275 . S
O98 Tb80 2.513 . S
O98 C96 1.246 . S
C99 O83 1.245 . S
C99 O84 1.259 . S
Tb100 O103 2.453 . S
Tb100 O104 2.596 . S
Tb100 O105 2.374 . S
Tb100 O113 2.343 . S
Tb100 O115 2.353 . S
Tb100 O117 2.427 . S
Tb100 O118 2.513 . S
C101 O105 1.251 . S
C101 O107 1.263 . S
Tb102 O104 2.343 . S
Tb102 O107 2.353 . S
Tb102 O110 2.427 . S
Tb102 O111 2.513 . S
Tb102 O112 2.453 . S
Tb102 O113 2.596 . S
Tb102 O114 2.374 . S
O103 Tb100 2.453 . S
O103 C119 1.245 . S
O104 Tb100 2.596 . S
O104 Tb102 2.343 . S
O104 C119 1.259 . S
O105 Tb100 2.374 . S
O105 C101 1.251 . S
C106 O110 1.275 . S
C106 O111 1.246 . S
O107 C101 1.263 . S
O107 Tb102 2.353 . S
C108 O112 1.245 . S
C108 O113 1.259 . S
C109 O114 1.250 . S
C109 O115 1.263 . S
O110 Tb102 2.427 . S
O110 C106 1.275 . S
O111 Tb102 2.513 . S
O111 C106 1.246 . S
O112 Tb102 2.453 . S
O112 C108 1.245 . S
O113 Tb100 2.343 . S
O113 Tb102 2.596 . S
O113 C108 1.259 . S
O114 Tb102 2.374 . S
O114 C109 1.250 . S
O115 Tb100 2.353 . S
O115 C109 1.263 . S
C116 O117 1.275 . S
C116 O118 1.246 . S
O117 Tb100 2.427 . S
O117 C116 1.275 . S
O118 Tb100 2.513 . S
O118 C116 1.246 . S
C119 O103 1.245 . S
C119 O104 1.259 . S
Tb120 O123 2.453 . S
Tb120 O124 2.596 . S
Tb120 O125 2.374 . S
Tb120 O133 2.343 . S
Tb120 O135 2.353 . S
Tb120 O137 2.427 . S
Tb120 O138 2.513 . S
C121 O125 1.251 . S
C121 O127 1.263 . S
Tb122 O124 2.343 . S
Tb122 O127 2.353 . S
Tb122 O130 2.427 . S
Tb122 O131 2.513 . S
Tb122 O132 2.453 . S
Tb122 O133 2.596 . S
Tb122 O134 2.374 . S
O123 Tb120 2.453 . S
O123 C139 1.245 . S
O124 Tb120 2.596 . S
O124 Tb122 2.343 . S
O124 C139 1.259 . S
O125 Tb120 2.374 . S
O125 C121 1.251 . S
C126 O130 1.275 . S
C126 O131 1.246 . S
O127 C121 1.263 . S
O127 Tb122 2.353 . S
C128 O132 1.245 . S
C128 O133 1.259 . S
C129 O134 1.250 . S
C129 O135 1.263 . S
O130 Tb122 2.427 . S
O130 C126 1.275 . S
O131 Tb122 2.513 . S
O131 C126 1.246 . S
O132 Tb122 2.453 . S
O132 C128 1.245 . S
O133 Tb120 2.343 . S
O133 Tb122 2.596 . S
O133 C128 1.259 . S
O134 Tb122 2.374 . S
O134 C129 1.250 . S
O135 Tb120 2.353 . S
O135 C129 1.263 . S
C136 O137 1.275 . S
C136 O138 1.246 . S
O137 Tb120 2.427 . S
O137 C136 1.275 . S
O138 Tb120 2.513 . S
O138 C136 1.246 . S
C139 O123 1.245 . S
C139 O124 1.259 . S
Tb140 O143 2.453 . S
Tb140 O144 2.596 . S
Tb140 O145 2.374 . S
Tb140 O153 2.343 . S
Tb140 O155 2.353 . S
Tb140 O157 2.427 . S
Tb140 O158 2.513 . S
C141 O145 1.251 . S
C141 O147 1.263 . S
Tb142 O144 2.343 . S
Tb142 O147 2.353 . S
Tb142 O150 2.427 . S
Tb142 O151 2.513 . S
Tb142 O152 2.453 . S
Tb142 O153 2.596 . S
Tb142 O154 2.374 . S
O143 Tb140 2.453 . S
O143 C159 1.245 . S
O144 Tb140 2.596 . S
O144 Tb142 2.343 . S
O144 C159 1.259 . S
O145 Tb140 2.374 . S
O145 C141 1.251 . S
C146 O150 1.275 . S
C146 O151 1.246 . S
O147 C141 1.263 . S
O147 Tb142 2.353 . S
C148 O152 1.245 . S
C148 O153 1.259 . S
C149 O154 1.250 . S
C149 O155 1.263 . S
O150 Tb142 2.427 . S
O150 C146 1.275 . S
O151 Tb142 2.513 . S
O151 C146 1.246 . S
O152 Tb142 2.453 . S
O152 C148 1.245 . S
O153 Tb140 2.343 . S
O153 Tb142 2.596 . S
O153 C148 1.259 . S
O154 Tb142 2.374 . S
O154 C149 1.250 . S
O155 Tb140 2.353 . S
O155 C149 1.263 . S
C156 O157 1.275 . S
C156 O158 1.246 . S
O157 Tb140 2.427 . S
O157 C156 1.275 . S
O158 Tb140 2.513 . S
O158 C156 1.246 . S
C159 O143 1.245 . S
C159 O144 1.259 . S
Tb160 O163 2.453 . S
Tb160 O164 2.596 . S
Tb160 O165 2.374 . S
Tb160 O173 2.343 . S
Tb160 O175 2.353 . S
Tb160 O177 2.427 . S
Tb160 O178 2.513 . S
C161 O165 1.251 . S
C161 O167 1.263 . S
Tb162 O164 2.343 . S
Tb162 O167 2.353 . S
Tb162 O170 2.427 . S
Tb162 O171 2.513 . S
Tb162 O172 2.453 . S
Tb162 O173 2.596 . S
Tb162 O174 2.374 . S
O163 Tb160 2.453 . S
O163 C179 1.245 . S
O164 Tb160 2.596 . S
O164 Tb162 2.343 . S
O164 C179 1.259 . S
O165 Tb160 2.374 . S
O165 C161 1.251 . S
C166 O170 1.275 . S
C166 O171 1.246 . S
O167 C161 1.263 . S
O167 Tb162 2.353 . S
C168 O172 1.245 . S
C168 O173 1.259 . S
C169 O174 1.250 . S
C169 O175 1.263 . S
O170 Tb162 2.427 . S
O170 C166 1.275 . S
O171 Tb162 2.513 . S
O171 C166 1.246 . S
O172 Tb162 2.453 . S
O172 C168 1.245 . S
O173 Tb160 2.343 . S
O173 Tb162 2.596 . S
O173 C168 1.259 . S
O174 Tb162 2.374 . S
O174 C169 1.250 . S
O175 Tb160 2.353 . S
O175 C169 1.263 . S
C176 O177 1.275 . S
C176 O178 1.246 . S
O177 Tb160 2.427 . S
O177 C176 1.275 . S
O178 Tb160 2.513 . S
O178 C176 1.246 . S
C179 O163 1.245 . S
C179 O164 1.259 . S
Tb180 O183 2.453 . S
Tb180 O184 2.596 . S
Tb180 O185 2.374 . S
Tb180 O193 2.343 . S
Tb180 O195 2.353 . S
Tb180 O197 2.427 . S
Tb180 O198 2.513 . S
C181 O185 1.251 . S
C181 O187 1.263 . S
Tb182 O184 2.343 . S
Tb182 O187 2.353 . S
Tb182 O190 2.427 . S
Tb182 O191 2.513 1_545 S
Tb182 O192 2.453 . S
Tb182 O193 2.596 . S
Tb182 O194 2.374 . S
O183 Tb180 2.453 . S
O183 C199 1.245 . S
O184 Tb180 2.596 . S
O184 Tb182 2.343 . S
O184 C199 1.259 . S
O185 Tb180 2.374 . S
O185 C181 1.251 . S
C186 O190 1.275 1_565 S
C186 O191 1.246 . S
O187 C181 1.263 . S
O187 Tb182 2.353 . S
C188 O192 1.245 . S
C188 O193 1.259 . S
C189 O194 1.250 . S
C189 O195 1.263 . S
O190 Tb182 2.427 . S
O190 C186 1.275 1_545 S
O191 Tb182 2.513 1_565 S
O191 C186 1.246 . S
O192 Tb182 2.453 . S
O192 C188 1.245 . S
O193 Tb180 2.343 . S
O193 Tb182 2.596 . S
O193 C188 1.259 . S
O194 Tb182 2.374 . S
O194 C189 1.250 . S
O195 Tb180 2.353 . S
O195 C189 1.263 . S
C196 O197 1.275 . S
C196 O198 1.246 . S
O197 Tb180 2.427 . S
O197 C196 1.275 . S
O198 Tb180 2.513 . S
O198 C196 1.246 . S
C199 O183 1.245 . S
C199 O184 1.259 . S
Tb200 O203 2.453 . S
Tb200 O204 2.596 . S
Tb200 O205 2.374 . S
Tb200 O213 2.343 . S
Tb200 O215 2.353 . S
Tb200 O217 2.427 . S
Tb200 O218 2.513 . S
C201 O205 1.251 . S
C201 O207 1.263 . S
Tb202 O204 2.343 . S
Tb202 O207 2.353 . S
Tb202 O210 2.427 . S
Tb202 O211 2.513 . S
Tb202 O212 2.453 . S
Tb202 O213 2.596 . S
Tb202 O214 2.374 . S
O203 Tb200 2.453 . S
O203 C219 1.245 . S
O204 Tb200 2.596 . S
O204 Tb202 2.343 . S
O204 C219 1.259 . S
O205 Tb200 2.374 . S
O205 C201 1.251 . S
C206 O210 1.275 . S
C206 O211 1.246 . S
O207 C201 1.263 . S
O207 Tb202 2.353 . S
C208 O212 1.245 . S
C208 O213 1.259 . S
C209 O214 1.250 . S
C209 O215 1.263 . S
O210 Tb202 2.427 . S
O210 C206 1.275 . S
O211 Tb202 2.513 . S
O211 C206 1.246 . S
O212 Tb202 2.453 . S
O212 C208 1.245 . S
O213 Tb200 2.343 . S
O213 Tb202 2.596 . S
O213 C208 1.259 . S
O214 Tb202 2.374 . S
O214 C209 1.250 . S
O215 Tb200 2.353 . S
O215 C209 1.263 . S
C216 O217 1.275 . S
C216 O218 1.246 . S
O217 Tb200 2.427 . S
O217 C216 1.275 . S
O218 Tb200 2.513 . S
O218 C216 1.246 . S
C219 O203 1.245 . S
C219 O204 1.259 . S
Tb220 O223 2.453 . S
Tb220 O224 2.596 . S
Tb220 O225 2.374 . S
Tb220 O233 2.343 . S
Tb220 O235 2.353 . S
Tb220 O237 2.427 . S
Tb220 O238 2.513 . S
C221 O225 1.251 . S
C221 O227 1.263 . S
Tb222 O224 2.343 . S
Tb222 O227 2.353 . S
Tb222 O230 2.427 . S
Tb222 O231 2.513 . S
Tb222 O232 2.453 . S
Tb222 O233 2.596 . S
Tb222 O234 2.374 . S
O223 Tb220 2.453 . S
O223 C239 1.245 . S
O224 Tb220 2.596 . S
O224 Tb222 2.343 . S
O224 C239 1.259 . S
O225 Tb220 2.374 . S
O225 C221 1.251 . S
C226 O230 1.275 . S
C226 O231 1.246 . S
O227 C221 1.263 . S
O227 Tb222 2.353 . S
C228 O232 1.245 . S
C228 O233 1.259 . S
C229 O234 1.250 . S
C229 O235 1.263 . S
O230 Tb222 2.427 . S
O230 C226 1.275 . S
O231 Tb222 2.513 . S
O231 C226 1.246 . S
O232 Tb222 2.453 . S
O232 C228 1.245 . S
O233 Tb220 2.343 . S
O233 Tb222 2.596 . S
O233 C228 1.259 . S
O234 Tb222 2.374 . S
O234 C229 1.250 . S
O235 Tb220 2.353 . S
O235 C229 1.263 . S
C236 O237 1.275 . S
C236 O238 1.246 . S
O237 Tb220 2.427 . S
O237 C236 1.275 . S
O238 Tb220 2.513 . S
O238 C236 1.246 . S
C239 O223 1.245 . S
C239 O224 1.259 . S
H240 C258 0.951 . S
H241 C260 0.951 . S
H242 C262 0.950 . S
H243 C263 0.950 . S
H244 C265 0.950 . S
H245 C268 0.950 . S
H246 C269 0.950 . S
H247 C271 0.950 . S
H248 C272 0.950 . S
H249 C273 0.951 . S
H250 C275 0.951 . S
H251 C277 0.950 . S
H252 C278 0.950 . S
H253 C280 0.950 . S
H254 C283 0.950 . S
H255 C284 0.950 . S
H256 C286 0.950 . S
H257 C287 0.950 . S
C258 H240 0.951 . S
C258 C259 1.366 . S
C258 C260 1.388 . S
C259 C258 1.366 . S
C259 C263 1.385 . S
C260 H241 0.951 . S
C260 C258 1.388 . S
C260 C261 1.366 . S
C261 C260 1.366 . S
C261 C262 1.414 . S
C261 C264 1.499 . S
C262 H242 0.950 . S
C262 C261 1.414 . S
C262 C263 1.374 . S
C263 H243 0.950 . S
C263 C259 1.385 . S
C263 C262 1.374 . S
C264 C261 1.499 . S
C264 C265 1.373 . S
C264 C266 1.389 . S
C265 H244 0.950 . S
C265 C264 1.373 . S
C265 C281 1.377 . S
C266 C264 1.389 . S
C266 C267 1.524 . S
C266 C280 1.377 . S
C267 C266 1.524 . S
C267 C268 1.397 . S
C267 C272 1.363 . S
C268 H245 0.950 . S
C268 C267 1.397 . S
C268 C269 1.334 . S
C269 H246 0.950 . S
C269 C268 1.334 . S
C269 C270 1.287 . S
C270 C269 1.287 . S
C270 C271 1.524 . S
C270 H289 0.913 . S
C271 H247 0.950 . S
C271 C270 1.524 . S
C271 C272 1.415 . S
C272 H248 0.950 . S
C272 C267 1.363 . S
C272 C271 1.415 . S
C273 H249 0.951 . S
C273 C274 1.366 . S
C273 C275 1.388 . S
C274 C273 1.366 . S
C274 C278 1.385 . S
C275 H250 0.951 . S
C275 C273 1.388 . S
C275 C276 1.366 . S
C276 C275 1.366 . S
C276 C277 1.414 . S
C276 C279 1.499 . S
C277 H251 0.950 . S
C277 C276 1.414 . S
C277 C278 1.374 . S
C278 H252 0.950 . S
C278 C274 1.385 . S
C278 C277 1.374 . S
C279 C276 1.499 . S
C279 C280 1.373 . S
C279 C281 1.389 . S
C280 H253 0.950 . S
C280 C266 1.377 . S
C280 C279 1.373 . S
C281 C265 1.377 . S
C281 C279 1.389 . S
C281 C282 1.524 . S
C282 C281 1.524 . S
C282 C283 1.397 . S
C282 C287 1.363 . S
C283 H254 0.950 . S
C283 C282 1.397 . S
C283 C284 1.334 . S
C284 H255 0.950 . S
C284 C283 1.334 . S
C284 C285 1.287 . S
C285 C284 1.287 . S
C285 C286 1.524 . S
C285 H288 0.999 . S
C286 H256 0.950 . S
C286 C285 1.524 . S
C286 C287 1.415 . S
C287 H257 0.950 . S
C287 C282 1.363 . S
C287 C286 1.415 . S
H288 C285 0.999 . S
H289 C270 0.913 . S
H290 C308 0.951 . S
H291 C310 0.951 . S
H292 C312 0.950 . S
H293 C313 0.950 . S
H294 C315 0.950 . S
H295 C318 0.950 . S
H296 C319 0.950 . S
H297 C321 0.950 . S
H298 C322 0.949 . S
H299 C323 0.951 . S
H300 C325 0.951 . S
H301 C327 0.950 . S
H302 C328 0.950 . S
H303 C330 0.950 . S
H304 C333 0.950 . S
H305 C334 0.950 1_455 S
H306 C336 0.950 . S
H307 C337 0.950 . S
C308 H290 0.951 . S
C308 C309 1.366 . S
C308 C310 1.388 . S
C309 C308 1.366 . S
C309 C313 1.385 1_545 S
C310 H291 0.951 . S
C310 C308 1.388 . S
C310 C311 1.366 1_545 S
C311 C310 1.366 1_565 S
C311 C312 1.414 . S
C311 C314 1.499 . S
C312 H292 0.950 . S
C312 C311 1.414 . S
C312 C313 1.374 . S
C313 H293 0.950 . S
C313 C309 1.385 1_565 S
C313 C312 1.374 . S
C314 C311 1.499 . S
C314 C315 1.373 . S
C314 C316 1.389 . S
C315 H294 0.950 . S
C315 C314 1.373 . S
C315 C331 1.377 . S
C316 C314 1.389 . S
C316 C317 1.524 . S
C316 C330 1.377 . S
C317 C316 1.524 . S
C317 C318 1.397 . S
C317 C322 1.365 1_565 S
C318 H295 0.950 . S
C318 C317 1.397 . S
C318 C319 1.334 . S
C319 H296 0.950 . S
C319 C318 1.334 . S
C319 C320 1.287 . S
C320 C319 1.287 . S
C320 C321 1.524 1_565 S
C320 H339 0.913 . S
C321 H297 0.950 . S
C321 C320 1.524 1_545 S
C321 C322 1.415 . S
C322 H298 0.949 . S
C322 C317 1.365 1_545 S
C322 C321 1.415 . S
C323 H299 0.951 . S
C323 C324 1.366 1_655 S
C323 C325 1.388 . S
C324 C323 1.366 1_455 S
C324 C328 1.385 1_455 S
C325 H300 0.951 . S
C325 C323 1.388 . S
C325 C326 1.366 . S
C326 C325 1.366 . S
C326 C327 1.414 . S
C326 C329 1.499 . S
C327 H301 0.950 . S
C327 C326 1.414 . S
C327 C328 1.374 . S
C328 H302 0.950 . S
C328 C324 1.385 1_655 S
C328 C327 1.374 . S
C329 C326 1.499 . S
C329 C330 1.373 . S
C329 C331 1.389 . S
C330 H303 0.950 . S
C330 C316 1.377 . S
C330 C329 1.373 . S
C331 C315 1.377 . S
C331 C329 1.389 . S
C331 C332 1.524 . S
C332 C331 1.524 . S
C332 C333 1.397 . S
C332 C337 1.363 . S
C333 H304 0.950 . S
C333 C332 1.397 . S
C333 C334 1.334 . S
C334 H305 0.950 1_655 S
C334 C333 1.334 . S
C334 C335 1.287 . S
C335 C334 1.287 . S
C335 C336 1.524 . S
C335 H338 0.999 . S
C336 H306 0.950 . S
C336 C335 1.524 . S
C336 C337 1.415 . S
C337 H307 0.950 . S
C337 C332 1.363 . S
C337 C336 1.415 . S
H338 C335 0.999 . S
H339 C320 0.913 . S
H340 C358 0.933 1_554 S
H341 C360 0.951 . S
H342 C362 0.950 . S
H343 C363 0.950 . S
H344 C365 0.950 . S
H345 C368 0.950 . S
H346 C369 0.950 . S
H347 C371 0.950 . S
H348 C372 0.950 . S
H349 C373 0.951 . S
H350 C375 0.951 . S
H351 C377 0.950 . S
H352 C378 0.950 . S
H353 C380 0.950 . S
H354 C383 0.950 . S
H355 C384 0.950 . S
H356 C386 0.950 . S
H357 C387 0.950 1_556 S
C358 H340 0.933 1_556 S
C358 C359 1.398 . S
C358 C360 1.375 1_556 S
C359 C358 1.398 . S
C359 C363 1.385 . S
C360 H341 0.951 . S
C360 C358 1.375 1_554 S
C360 C361 1.366 1_554 S
C361 C360 1.366 1_556 S
C361 C362 1.414 . S
C361 C364 1.499 1_556 S
C362 H342 0.950 . S
C362 C361 1.414 . S
C362 C363 1.374 . S
C363 H343 0.950 . S
C363 C359 1.385 . S
C363 C362 1.374 . S
C364 C361 1.499 1_554 S
C364 C365 1.373 . S
C364 C366 1.389 . S
C365 H344 0.950 . S
C365 C364 1.373 . S
C365 C381 1.377 . S
C366 C364 1.389 . S
C366 C367 1.524 . S
C366 C380 1.377 . S
C367 C366 1.524 . S
C367 C368 1.397 1_554 S
C367 C372 1.363 . S
C368 H345 0.950 . S
C368 C367 1.397 1_556 S
C368 C369 1.334 . S
C369 H346 0.950 . S
C369 C368 1.334 . S
C369 C370 1.287 . S
C370 C369 1.287 . S
C370 C371 1.524 1_556 S
C370 H389 0.913 . S
C371 H347 0.950 . S
C371 C370 1.524 1_554 S
C371 C372 1.415 . S
C372 H348 0.950 . S
C372 C367 1.363 . S
C372 C371 1.415 . S
C373 H349 0.951 . S
C373 C374 1.366 . S
C373 C375 1.388 . S
C374 C373 1.366 . S
C374 C378 1.385 . S
C375 H350 0.951 . S
C375 C373 1.388 . S
C375 C376 1.366 . S
C376 C375 1.366 . S
C376 C377 1.414 . S
C376 C379 1.499 . S
C377 H351 0.950 . S
C377 C376 1.414 . S
C377 C378 1.374 . S
C378 H352 0.950 . S
C378 C374 1.385 . S
C378 C377 1.374 . S
C379 C376 1.499 . S
C379 C380 1.373 . S
C379 C381 1.389 . S
C380 H353 0.950 . S
C380 C366 1.377 . S
C380 C379 1.373 . S
C381 C365 1.377 . S
C381 C379 1.389 . S
C381 C382 1.524 . S
C382 C381 1.524 . S
C382 C383 1.397 . S
C382 C387 1.363 . S
C383 H354 0.950 . S
C383 C382 1.397 . S
C383 C384 1.334 . S
C384 H355 0.950 . S
C384 C383 1.334 . S
C384 C385 1.287 . S
C385 C384 1.287 . S
C385 C386 1.524 . S
C385 H388 0.999 . S
C386 H356 0.950 . S
C386 C385 1.524 . S
C386 C387 1.415 . S
C387 H357 0.950 1_554 S
C387 C382 1.363 . S
C387 C386 1.415 . S
H388 C385 0.999 . S
H389 C370 0.913 . S
H390 C408 0.951 . S
H391 C410 0.951 . S
H392 C412 0.950 . S
H393 C413 0.950 . S
H394 C415 0.950 . S
H395 C418 0.950 . S
H396 C419 0.950 . S
H397 C421 0.950 . S
H398 C422 0.950 . S
H399 C423 0.951 . S
H400 C425 0.951 . S
H401 C427 0.950 . S
H402 C428 0.950 . S
H403 C430 0.950 . S
H404 C433 0.950 . S
H405 C434 0.950 . S
H406 C436 0.950 . S
H407 C437 0.950 . S
C408 H390 0.951 . S
C408 C409 1.366 . S
C408 C410 1.388 . S
C409 C408 1.366 . S
C409 C413 1.385 . S
C410 H391 0.951 . S
C410 C408 1.388 . S
C410 C411 1.366 . S
C411 C410 1.366 . S
C411 C412 1.414 . S
C411 C414 1.499 . S
C412 H392 0.950 . S
C412 C411 1.414 . S
C412 C413 1.374 . S
C413 H393 0.950 . S
C413 C409 1.385 . S
C413 C412 1.374 . S
C414 C411 1.499 . S
C414 C415 1.373 . S
C414 C416 1.389 . S
C415 H394 0.950 . S
C415 C414 1.373 . S
C415 C431 1.377 . S
C416 C414 1.389 . S
C416 C417 1.524 . S
C416 C430 1.377 . S
C417 C416 1.524 . S
C417 C418 1.397 . S
C417 C422 1.363 . S
C418 H395 0.950 . S
C418 C417 1.397 . S
C418 C419 1.334 . S
C419 H396 0.950 . S
C419 C418 1.334 . S
C419 C420 1.287 . S
C420 C419 1.287 . S
C420 C421 1.524 . S
C420 H439 0.913 . S
C421 H397 0.950 . S
C421 C420 1.524 . S
C421 C422 1.415 . S
C422 H398 0.950 . S
C422 C417 1.363 . S
C422 C421 1.415 . S
C423 H399 0.951 . S
C423 C424 1.366 . S
C423 C425 1.388 . S
C424 C423 1.366 . S
C424 C428 1.385 1_565 S
C425 H400 0.951 . S
C425 C423 1.388 . S
C425 C426 1.346 1_565 S
C426 C425 1.346 1_545 S
C426 C427 1.424 . S
C426 C429 1.509 . S
C427 H401 0.950 . S
C427 C426 1.424 . S
C427 C428 1.374 . S
C428 H402 0.950 . S
C428 C424 1.385 1_545 S
C428 C427 1.374 . S
C429 C426 1.509 . S
C429 C430 1.373 . S
C429 C431 1.389 . S
C430 H403 0.950 . S
C430 C416 1.377 . S
C430 C429 1.373 . S
C431 C415 1.377 . S
C431 C429 1.389 . S
C431 C432 1.524 1_545 S
C432 C431 1.524 1_565 S
C432 C433 1.397 . S
C432 C437 1.363 . S
C433 H404 0.950 . S
C433 C432 1.397 . S
C433 C434 1.334 . S
C434 H405 0.950 . S
C434 C433 1.334 . S
C434 C435 1.287 . S
C435 C434 1.287 . S
C435 C436 1.524 . S
C435 H438 0.999 . S
C436 H406 0.950 . S
C436 C435 1.524 . S
C436 C437 1.415 . S
C437 H407 0.950 . S
C437 C432 1.363 . S
C437 C436 1.415 . S
H438 C435 0.999 . S
H439 C420 0.913 . S
H440 C458 0.951 . S
H441 C460 0.951 . S
H442 C462 0.950 . S
H443 C463 0.950 . S
H444 C465 0.950 . S
H445 C468 0.950 . S
H446 C469 0.950 . S
H447 C471 0.950 . S
H448 C472 0.950 . S
H449 C473 0.951 . S
H450 C475 0.951 . S
H451 C477 0.950 . S
H452 C478 0.950 . S
H453 C480 0.950 . S
H454 C483 0.950 . S
H455 C484 0.950 . S
H456 C486 0.950 . S
H457 C487 0.950 . S
C458 H440 0.951 . S
C458 C459 1.366 . S
C458 C460 1.388 . S
C459 C458 1.366 . S
C459 C463 1.385 . S
C460 H441 0.951 . S
C460 C458 1.388 . S
C460 C461 1.366 . S
C461 C460 1.366 . S
C461 C462 1.414 . S
C461 C464 1.499 . S
C462 H442 0.950 . S
C462 C461 1.414 . S
C462 C463 1.374 . S
C463 H443 0.950 . S
C463 C459 1.385 . S
C463 C462 1.374 . S
C464 C461 1.499 . S
C464 C465 1.373 . S
C464 C466 1.389 . S
C465 H444 0.950 . S
C465 C464 1.373 . S
C465 C481 1.377 . S
C466 C464 1.389 . S
C466 C467 1.524 . S
C466 C480 1.377 . S
C467 C466 1.524 . S
C467 C468 1.397 . S
C467 C472 1.363 . S
C468 H445 0.950 . S
C468 C467 1.397 . S
C468 C469 1.334 . S
C469 H446 0.950 . S
C469 C468 1.334 . S
C469 C470 1.287 . S
C470 C469 1.287 . S
C470 C471 1.524 . S
C470 H489 0.913 . S
C471 H447 0.950 . S
C471 C470 1.524 . S
C471 C472 1.415 . S
C472 H448 0.950 . S
C472 C467 1.363 . S
C472 C471 1.415 . S
C473 H449 0.951 . S
C473 C474 1.366 . S
C473 C475 1.388 . S
C474 C473 1.366 . S
C474 C478 1.385 . S
C475 H450 0.951 . S
C475 C473 1.388 . S
C475 C476 1.366 . S
C476 C475 1.366 . S
C476 C477 1.414 . S
C476 C479 1.499 . S
C477 H451 0.950 . S
C477 C476 1.414 . S
C477 C478 1.374 . S
C478 H452 0.950 . S
C478 C474 1.385 . S
C478 C477 1.374 . S
C479 C476 1.499 . S
C479 C480 1.373 . S
C479 C481 1.389 . S
C480 H453 0.950 . S
C480 C466 1.377 . S
C480 C479 1.373 . S
C481 C465 1.377 . S
C481 C479 1.389 . S
C481 C482 1.524 . S
C482 C481 1.524 . S
C482 C483 1.397 . S
C482 C487 1.363 . S
C483 H454 0.950 . S
C483 C482 1.397 . S
C483 C484 1.334 . S
C484 H455 0.950 . S
C484 C483 1.334 . S
C484 C485 1.287 . S
C485 C484 1.287 . S
C485 C486 1.524 . S
C485 H488 0.999 . S
C486 H456 0.950 . S
C486 C485 1.524 . S
C486 C487 1.415 . S
C487 H457 0.950 . S
C487 C482 1.363 . S
C487 C486 1.415 . S
H488 C485 0.999 . S
H489 C470 0.913 . S
H490 C508 0.951 . S
H491 C510 0.951 . S
H492 C512 0.950 . S
H493 C513 0.950 1_655 S
H494 C515 0.950 . S
H495 C518 0.950 . S
H496 C519 0.950 . S
H497 C521 0.950 . S
H498 C522 0.950 . S
H499 C523 0.951 . S
H500 C525 0.951 . S
H501 C527 0.950 . S
H502 C528 0.950 . S
H503 C530 0.950 . S
H504 C533 0.950 . S
H505 C534 0.950 . S
H506 C536 0.950 . S
H507 C537 0.950 . S
C508 H490 0.951 . S
C508 C509 1.366 . S
C508 C510 1.388 . S
C509 C508 1.366 . S
C509 C513 1.385 . S
C510 H491 0.951 . S
C510 C508 1.388 . S
C510 C511 1.366 . S
C511 C510 1.366 . S
C511 C512 1.414 . S
C511 C514 1.499 . S
C512 H492 0.950 . S
C512 C511 1.414 . S
C512 C513 1.374 . S
C513 H493 0.950 1_455 S
C513 C509 1.385 . S
C513 C512 1.374 . S
C514 C511 1.499 . S
C514 C515 1.373 . S
C514 C516 1.389 . S
C515 H494 0.950 . S
C515 C514 1.373 . S
C515 C531 1.377 . S
C516 C514 1.389 . S
C516 C517 1.524 . S
C516 C530 1.377 . S
C517 C516 1.524 . S
C517 C518 1.397 . S
C517 C522 1.363 . S
C518 H495 0.950 . S
C518 C517 1.397 . S
C518 C519 1.334 . S
C519 H496 0.950 . S
C519 C518 1.334 . S
C519 C520 1.287 . S
C520 C519 1.287 . S
C520 C521 1.524 . S
C520 H539 0.913 . S
C521 H497 0.950 . S
C521 C520 1.524 . S
C521 C522 1.415 . S
C522 H498 0.950 . S
C522 C517 1.363 . S
C522 C521 1.415 . S
C523 H499 0.951 . S
C523 C524 1.366 . S
C523 C525 1.388 . S
C524 C523 1.366 . S
C524 C528 1.385 . S
C525 H500 0.951 . S
C525 C523 1.388 . S
C525 C526 1.366 . S
C526 C525 1.366 . S
C526 C527 1.414 . S
C526 C529 1.499 . S
C527 H501 0.950 . S
C527 C526 1.414 . S
C527 C528 1.374 . S
C528 H502 0.950 . S
C528 C524 1.385 . S
C528 C527 1.374 . S
C529 C526 1.499 . S
C529 C530 1.373 . S
C529 C531 1.389 . S
C530 H503 0.950 . S
C530 C516 1.377 . S
C530 C529 1.373 . S
C531 C515 1.377 . S
C531 C529 1.389 . S
C531 C532 1.524 . S
C532 C531 1.524 . S
C532 C533 1.397 . S
C532 C537 1.363 . S
C533 H504 0.950 . S
C533 C532 1.397 . S
C533 C534 1.334 . S
C534 H505 0.950 . S
C534 C533 1.334 . S
C534 C535 1.287 . S
C535 C534 1.287 . S
C535 C536 1.524 . S
C535 H538 0.999 . S
C536 H506 0.950 . S
C536 C535 1.524 . S
C536 C537 1.415 . S
C537 H507 0.950 . S
C537 C532 1.363 . S
C537 C536 1.415 . S
H538 C535 0.999 . S
H539 C520 0.913 . S
H540 C558 0.951 . S
H541 C560 0.951 1_554 S
H542 C562 0.950 . S
H543 C563 0.950 . S
H544 C565 0.950 . S
H545 C568 0.950 1_556 S
H546 C569 0.950 . S
H547 C571 0.950 . S
H548 C572 0.950 . S
H549 C573 0.951 . S
H550 C575 0.951 1_556 S
H551 C577 0.950 . S
H552 C578 0.950 . S
H553 C580 0.950 . S
H554 C583 0.950 1_554 S
H555 C584 0.950 . S
H556 C586 0.950 . S
H557 C587 0.950 . S
C558 H540 0.951 . S
C558 C559 1.366 . S
C558 C560 1.388 . S
C559 C558 1.366 . S
C559 C563 1.385 . S
C560 H541 0.951 1_556 S
C560 C558 1.388 . S
C560 C561 1.366 . S
C561 C560 1.366 . S
C561 C562 1.414 . S
C561 C564 1.499 . S
C562 H542 0.950 . S
C562 C561 1.414 . S
C562 C563 1.374 . S
C563 H543 0.950 . S
C563 C559 1.385 . S
C563 C562 1.374 . S
C564 C561 1.499 . S
C564 C565 1.373 . S
C564 C566 1.389 1_556 S
C565 H544 0.950 . S
C565 C564 1.373 . S
C565 C581 1.377 . S
C566 C564 1.389 1_554 S
C566 C567 1.524 . S
C566 C580 1.377 . S
C567 C566 1.524 . S
C567 C568 1.397 . S
C567 C572 1.363 . S
C568 H545 0.950 1_554 S
C568 C567 1.397 . S
C568 C569 1.334 . S
C569 H546 0.950 . S
C569 C568 1.334 . S
C569 C570 1.287 . S
C570 C569 1.287 . S
C570 C571 1.524 . S
C570 H589 0.913 . S
C571 H547 0.950 . S
C571 C570 1.524 . S
C571 C572 1.415 . S
C572 H548 0.950 . S
C572 C567 1.363 . S
C572 C571 1.415 . S
C573 H549 0.951 . S
C573 C574 1.366 . S
C573 C575 1.388 . S
C574 C573 1.366 . S
C574 C578 1.385 . S
C575 H550 0.951 1_554 S
C575 C573 1.388 . S
C575 C576 1.366 . S
C576 C575 1.366 . S
C576 C577 1.414 . S
C576 C579 1.499 . S
C577 H551 0.950 . S
C577 C576 1.414 . S
C577 C578 1.374 . S
C578 H552 0.950 . S
C578 C574 1.385 . S
C578 C577 1.374 . S
C579 C576 1.499 . S
C579 C580 1.373 . S
C579 C581 1.389 1_554 S
C580 H553 0.950 . S
C580 C566 1.377 . S
C580 C579 1.373 . S
C581 C565 1.377 . S
C581 C579 1.389 1_556 S
C581 C582 1.524 . S
C582 C581 1.524 . S
C582 C583 1.397 . S
C582 C587 1.363 . S
C583 H554 0.950 1_556 S
C583 C582 1.397 . S
C583 C584 1.334 . S
C584 H555 0.950 . S
C584 C583 1.334 . S
C584 C585 1.287 . S
C585 C584 1.287 . S
C585 C586 1.524 . S
C585 H588 0.999 . S
C586 H556 0.950 . S
C586 C585 1.524 . S
C586 C587 1.415 . S
C587 H557 0.950 . S
C587 C582 1.363 . S
C587 C586 1.415 . S
H588 C585 0.999 . S
H589 C570 0.913 . S
H590 C608 0.951 . S
H591 C610 0.951 . S
H592 C612 0.950 . S
H593 C613 0.950 . S
H594 C615 0.950 . S
H595 C618 0.950 . S
H596 C619 0.950 . S
H597 C621 0.950 . S
H598 C622 0.950 . S
H599 C623 0.951 . S
H600 C625 0.951 . S
H601 C627 0.950 . S
H602 C628 0.950 . S
H603 C630 0.950 . S
H604 C633 0.950 . S
H605 C634 0.950 . S
H606 C636 0.950 . S
H607 C637 0.950 . S
C608 H590 0.951 . S
C608 C609 1.366 . S
C608 C610 1.388 . S
C609 C608 1.366 . S
C609 C613 1.385 . S
C610 H591 0.951 . S
C610 C608 1.388 . S
C610 C611 1.366 . S
C611 C610 1.366 . S
C611 C612 1.414 . S
C611 C614 1.499 . S
C612 H592 0.950 . S
C612 C611 1.414 . S
C612 C613 1.374 . S
C613 H593 0.950 . S
C613 C609 1.385 . S
C613 C612 1.374 . S
C614 C611 1.499 . S
C614 C615 1.373 . S
C614 C616 1.389 . S
C615 H594 0.950 . S
C615 C614 1.373 . S
C615 C631 1.377 . S
C616 C614 1.389 . S
C616 C617 1.524 . S
C616 C630 1.377 . S
C617 C616 1.524 . S
C617 C618 1.397 . S
C617 C622 1.363 . S
C618 H595 0.950 . S
C618 C617 1.397 . S
C618 C619 1.334 . S
C619 H596 0.950 . S
C619 C618 1.334 . S
C619 C620 1.287 . S
C620 C619 1.287 . S
C620 C621 1.524 . S
C620 H639 0.913 . S
C621 H597 0.950 . S
C621 C620 1.524 . S
C621 C622 1.415 . S
C622 H598 0.950 . S
C622 C617 1.363 . S
C622 C621 1.415 . S
C623 H599 0.951 . S
C623 C624 1.366 . S
C623 C625 1.388 . S
C624 C623 1.366 . S
C624 C628 1.385 . S
C625 H600 0.951 . S
C625 C623 1.388 . S
C625 C626 1.366 . S
C626 C625 1.366 . S
C626 C627 1.414 . S
C626 C629 1.499 . S
C627 H601 0.950 . S
C627 C626 1.414 . S
C627 C628 1.374 . S
C628 H602 0.950 . S
C628 C624 1.385 . S
C628 C627 1.374 . S
C629 C626 1.499 . S
C629 C630 1.373 . S
C629 C631 1.389 . S
C630 H603 0.950 . S
C630 C616 1.377 . S
C630 C629 1.373 . S
C631 C615 1.377 . S
C631 C629 1.389 . S
C631 C632 1.524 . S
C632 C631 1.524 . S
C632 C633 1.397 . S
C632 C637 1.363 . S
C633 H604 0.950 . S
C633 C632 1.397 . S
C633 C634 1.334 . S
C634 H605 0.950 . S
C634 C633 1.334 . S
C634 C635 1.287 . S
C635 C634 1.287 . S
C635 C636 1.524 . S
C635 H638 0.999 . S
C636 H606 0.950 . S
C636 C635 1.524 . S
C636 C637 1.415 . S
C637 H607 0.950 . S
C637 C632 1.363 . S
C637 C636 1.415 . S
H638 C635 0.999 . S
H639 C620 0.913 . S
H640 C658 0.951 . S
H641 C660 0.951 . S
H642 C662 0.950 . S
H643 C663 0.950 . S
H644 C665 0.950 . S
H645 C668 0.950 . S
H646 C669 0.950 . S
H647 C671 0.950 . S
H648 C672 0.950 . S
H649 C673 0.951 . S
H650 C675 0.951 . S
H651 C677 0.950 . S
H652 C678 0.950 . S
H653 C680 0.950 . S
H654 C683 0.950 . S
H655 C684 0.950 . S
H656 C686 0.950 . S
H657 C687 0.950 . S
C658 H640 0.951 . S
C658 C659 1.366 . S
C658 C660 1.388 . S
C659 C658 1.366 . S
C659 C663 1.385 . S
C660 H641 0.951 . S
C660 C658 1.388 . S
C660 C661 1.366 . S
C661 C660 1.366 . S
C661 C662 1.414 . S
C661 C664 1.499 . S
C662 H642 0.950 . S
C662 C661 1.414 . S
C662 C663 1.374 . S
C663 H643 0.950 . S
C663 C659 1.385 . S
C663 C662 1.374 . S
C664 C661 1.499 . S
C664 C665 1.373 . S
C664 C666 1.389 . S
C665 H644 0.950 . S
C665 C664 1.373 . S
C665 C681 1.377 . S
C666 C664 1.389 . S
C666 C667 1.524 . S
C666 C680 1.377 . S
C667 C666 1.524 . S
C667 C668 1.397 . S
C667 C672 1.363 . S
C668 H645 0.950 . S
C668 C667 1.397 . S
C668 C669 1.334 . S
C669 H646 0.950 . S
C669 C668 1.334 . S
C669 C670 1.287 . S
C670 C669 1.287 . S
C670 C671 1.524 . S
C670 H689 0.913 . S
C671 H647 0.950 . S
C671 C670 1.524 . S
C671 C672 1.415 . S
C672 H648 0.950 . S
C672 C667 1.363 . S
C672 C671 1.415 . S
C673 H649 0.951 . S
C673 C674 1.366 . S
C673 C675 1.388 . S
C674 C673 1.366 . S
C674 C678 1.385 . S
C675 H650 0.951 . S
C675 C673 1.388 . S
C675 C676 1.366 . S
C676 C675 1.366 . S
C676 C677 1.414 . S
C676 C679 1.499 . S
C677 H651 0.950 . S
C677 C676 1.414 . S
C677 C678 1.374 . S
C678 H652 0.950 . S
C678 C674 1.385 . S
C678 C677 1.374 . S
C679 C676 1.499 . S
C679 C680 1.373 . S
C679 C681 1.389 . S
C680 H653 0.950 . S
C680 C666 1.377 . S
C680 C679 1.373 . S
C681 C665 1.377 . S
C681 C679 1.389 . S
C681 C682 1.524 . S
C682 C681 1.524 . S
C682 C683 1.397 . S
C682 C687 1.363 . S
C683 H654 0.950 . S
C683 C682 1.397 . S
C683 C684 1.334 . S
C684 H655 0.950 . S
C684 C683 1.334 . S
C684 C685 1.287 . S
C685 C684 1.287 . S
C685 C686 1.524 . S
C685 H688 0.999 . S
C686 H656 0.950 . S
C686 C685 1.524 . S
C686 C687 1.415 . S
C687 H657 0.950 . S
C687 C682 1.363 . S
C687 C686 1.415 . S
H688 C685 0.999 . S
H689 C670 0.913 . S
H690 C708 0.951 . S
H691 C710 0.951 . S
H692 C712 0.950 . S
H693 C713 0.950 . S
H694 C715 0.950 . S
H695 C718 0.950 . S
H696 C719 0.950 . S
H697 C721 0.950 . S
H698 C722 0.950 1_455 S
H699 C723 0.951 . S
H700 C725 0.951 . S
H701 C727 0.952 1_455 S
H702 C728 0.950 . S
H703 C730 0.950 . S
H704 C733 0.950 . S
H705 C734 0.950 . S
H706 C736 0.950 . S
H707 C737 0.950 . S
C708 H690 0.951 . S
C708 C709 1.366 . S
C708 C710 1.388 . S
C709 C708 1.366 . S
C709 C713 1.385 . S
C710 H691 0.951 . S
C710 C708 1.388 . S
C710 C711 1.366 . S
C711 C710 1.366 . S
C711 C712 1.414 . S
C711 C714 1.499 . S
C712 H692 0.950 . S
C712 C711 1.414 . S
C712 C713 1.374 . S
C713 H693 0.950 . S
C713 C709 1.385 . S
C713 C712 1.374 . S
C714 C711 1.499 . S
C714 C715 1.373 . S
C714 C716 1.389 . S
C715 H694 0.950 . S
C715 C714 1.373 . S
C715 C731 1.377 . S
C716 C714 1.389 . S
C716 C717 1.524 1_455 S
C716 C730 1.377 1_455 S
C717 C716 1.524 1_655 S
C717 C718 1.397 . S
C717 C722 1.363 . S
C718 H695 0.950 . S
C718 C717 1.397 . S
C718 C719 1.334 . S
C719 H696 0.950 . S
C719 C718 1.334 . S
C719 C720 1.287 . S
C720 C719 1.287 . S
C720 C721 1.524 . S
C720 H739 0.913 . S
C721 H697 0.950 . S
C721 C720 1.524 . S
C721 C722 1.415 . S
C722 H698 0.950 1_655 S
C722 C717 1.363 . S
C722 C721 1.415 . S
C723 H699 0.951 . S
C723 C724 1.366 . S
C723 C725 1.388 . S
C724 C723 1.366 . S
C724 C728 1.385 . S
C725 H700 0.951 . S
C725 C723 1.388 . S
C725 C726 1.366 . S
C726 C725 1.366 . S
C726 C727 1.414 . S
C726 C729 1.499 1_655 S
C727 H701 0.952 1_655 S
C727 C726 1.414 . S
C727 C728 1.374 . S
C728 H702 0.950 . S
C728 C724 1.385 . S
C728 C727 1.374 . S
C729 C726 1.499 1_455 S
C729 C730 1.373 1_455 S
C729 C731 1.389 . S
C730 H703 0.950 . S
C730 C716 1.377 1_655 S
C730 C729 1.373 1_655 S
C731 C715 1.377 . S
C731 C729 1.389 . S
C731 C732 1.524 . S
C732 C731 1.524 . S
C732 C733 1.397 . S
C732 C737 1.363 . S
C733 H704 0.950 . S
C733 C732 1.397 . S
C733 C734 1.334 . S
C734 H705 0.950 . S
C734 C733 1.334 . S
C734 C735 1.287 . S
C735 C734 1.287 . S
C735 C736 1.524 . S
C735 H738 0.999 . S
C736 H706 0.950 . S
C736 C735 1.524 . S
C736 C737 1.415 . S
C737 H707 0.950 . S
C737 C732 1.363 . S
C737 C736 1.415 . S
H738 C735 0.999 . S
H739 C720 0.913 . S
H740 C758 0.951 . S
H741 C760 0.951 . S
H742 C762 0.950 . S
H743 C763 0.950 . S
H744 C765 0.950 . S
H745 C768 0.950 . S
H746 C769 0.950 . S
H747 C771 0.950 . S
H748 C772 0.950 . S
H749 C773 0.951 1_554 S
H750 C775 0.951 . S
H751 C777 0.950 . S
H752 C778 0.950 . S
H753 C780 0.950 . S
H754 C783 0.950 . S
H755 C784 0.950 . S
H756 C786 0.950 . S
H757 C787 0.950 . S
C758 H740 0.951 . S
C758 C759 1.366 . S
C758 C760 1.388 . S
C759 C758 1.366 . S
C759 C763 1.385 . S
C760 H741 0.951 . S
C760 C758 1.388 . S
C760 C761 1.366 . S
C761 C760 1.366 . S
C761 C762 1.414 . S
C761 C764 1.499 . S
C762 H742 0.950 . S
C762 C761 1.414 . S
C762 C763 1.374 . S
C763 H743 0.950 . S
C763 C759 1.385 . S
C763 C762 1.374 . S
C764 C761 1.499 . S
C764 C765 1.373 . S
C764 C766 1.389 1_455 S
C765 H744 0.950 . S
C765 C764 1.373 . S
C765 C781 1.377 . S
C766 C764 1.389 1_655 S
C766 C767 1.524 . S
C766 C780 1.377 . S
C767 C766 1.524 . S
C767 C768 1.397 . S
C767 C772 1.363 . S
C768 H745 0.950 . S
C768 C767 1.397 . S
C768 C769 1.334 . S
C769 H746 0.950 . S
C769 C768 1.334 . S
C769 C770 1.287 . S
C770 C769 1.287 . S
C770 C771 1.524 . S
C770 H789 0.913 . S
C771 H747 0.950 . S
C771 C770 1.524 . S
C771 C772 1.415 . S
C772 H748 0.950 . S
C772 C767 1.363 . S
C772 C771 1.415 . S
C773 H749 0.951 1_556 S
C773 C774 1.366 . S
C773 C775 1.388 . S
C774 C773 1.366 . S
C774 C778 1.385 . S
C775 H750 0.951 . S
C775 C773 1.388 . S
C775 C776 1.366 . S
C776 C775 1.366 . S
C776 C777 1.414 . S
C776 C779 1.499 . S
C777 H751 0.950 . S
C777 C776 1.414 . S
C777 C778 1.374 . S
C778 H752 0.950 . S
C778 C774 1.385 . S
C778 C777 1.374 . S
C779 C776 1.499 . S
C779 C780 1.373 . S
C779 C781 1.389 1_655 S
C780 H753 0.950 . S
C780 C766 1.377 . S
C780 C779 1.373 . S
C781 C765 1.377 . S
C781 C779 1.389 1_455 S
C781 C782 1.524 . S
C782 C781 1.524 . S
C782 C783 1.397 . S
C782 C787 1.363 . S
C783 H754 0.950 . S
C783 C782 1.397 . S
C783 C784 1.334 . S
C784 H755 0.950 . S
C784 C783 1.334 . S
C784 C785 1.287 . S
C785 C784 1.287 . S
C785 C786 1.524 . S
C785 H788 0.999 . S
C786 H756 0.950 . S
C786 C785 1.524 . S
C786 C787 1.415 . S
C787 H757 0.950 . S
C787 C782 1.363 . S
C787 C786 1.415 . S
H788 C785 0.999 . S
H789 C770 0.913 . S
H790 C808 0.951 . S
H791 C810 0.951 . S
H792 C812 0.950 . S
H793 C813 0.950 . S
H794 C815 0.950 . S
H795 C818 0.950 . S
H796 C819 0.950 . S
H797 C821 0.950 . S
H798 C822 0.950 . S
H799 C823 0.951 . S
H800 C825 0.951 . S
H801 C827 0.950 . S
H802 C828 0.950 . S
H803 C830 0.950 . S
H804 C833 0.950 . S
H805 C834 0.950 . S
H806 C836 0.950 . S
H807 C837 0.950 . S
C808 H790 0.951 . S
C808 C809 1.366 . S
C808 C810 1.388 . S
C809 C808 1.366 . S
C809 C813 1.385 . S
C810 H791 0.951 . S
C810 C808 1.388 . S
C810 C811 1.366 . S
C811 C810 1.366 . S
C811 C812 1.414 . S
C811 C814 1.499 . S
C812 H792 0.950 . S
C812 C811 1.414 . S
C812 C813 1.374 . S
C813 H793 0.950 . S
C813 C809 1.385 . S
C813 C812 1.374 . S
C814 C811 1.499 . S
C814 C815 1.373 . S
C814 C816 1.389 . S
C815 H794 0.950 . S
C815 C814 1.373 . S
C815 C831 1.377 . S
C816 C814 1.389 . S
C816 C817 1.524 . S
C816 C830 1.377 . S
C817 C816 1.524 . S
C817 C818 1.397 . S
C817 C822 1.363 . S
C818 H795 0.950 . S
C818 C817 1.397 . S
C818 C819 1.334 . S
C819 H796 0.950 . S
C819 C818 1.334 . S
C819 C820 1.287 . S
C820 C819 1.287 . S
C820 C821 1.524 . S
C820 H839 0.913 . S
C821 H797 0.950 . S
C821 C820 1.524 . S
C821 C822 1.415 . S
C822 H798 0.950 . S
C822 C817 1.363 . S
C822 C821 1.415 . S
C823 H799 0.951 . S
C823 C824 1.366 . S
C823 C825 1.388 . S
C824 C823 1.366 . S
C824 C828 1.385 . S
C825 H800 0.951 . S
C825 C823 1.388 . S
C825 C826 1.366 . S
C826 C825 1.366 . S
C826 C827 1.414 . S
C826 C829 1.499 . S
C827 H801 0.950 . S
C827 C826 1.414 . S
C827 C828 1.374 . S
C828 H802 0.950 . S
C828 C824 1.385 . S
C828 C827 1.374 . S
C829 C826 1.499 . S
C829 C830 1.373 . S
C829 C831 1.389 . S
C830 H803 0.950 . S
C830 C816 1.377 . S
C830 C829 1.373 . S
C831 C815 1.377 . S
C831 C829 1.389 . S
C831 C832 1.524 . S
C832 C831 1.524 . S
C832 C833 1.397 . S
C832 C837 1.363 . S
C833 H804 0.950 . S
C833 C832 1.397 . S
C833 C834 1.334 . S
C834 H805 0.950 . S
C834 C833 1.334 . S
C834 C835 1.287 . S
C835 C834 1.287 . S
C835 C836 1.524 . S
C835 H838 0.999 . S
C836 H806 0.950 . S
C836 C835 1.524 . S
C836 C837 1.415 . S
C837 H807 0.950 . S
C837 C832 1.363 . S
C837 C836 1.415 . S
H838 C835 0.999 . S
H839 C820 0.913 . S
H840 C858 0.951 . S
H841 C860 0.951 . S
H842 C862 0.950 . S
H843 C863 0.950 . S
H844 C865 0.950 . S
H845 C868 0.950 . S
H846 C869 0.950 . S
H847 C871 0.950 . S
H848 C872 0.950 . S
H849 C873 0.951 . S
H850 C875 0.951 . S
H851 C877 0.950 . S
H852 C878 0.950 . S
H853 C880 0.950 . S
H854 C883 0.950 . S
H855 C884 0.950 . S
H856 C886 0.950 . S
H857 C887 0.950 . S
C858 H840 0.951 . S
C858 C859 1.366 . S
C858 C860 1.388 . S
C859 C858 1.366 . S
C859 C863 1.385 . S
C860 H841 0.951 . S
C860 C858 1.388 . S
C860 C861 1.366 . S
C861 C860 1.366 . S
C861 C862 1.414 . S
C861 C864 1.499 . S
C862 H842 0.950 . S
C862 C861 1.414 . S
C862 C863 1.374 . S
C863 H843 0.950 . S
C863 C859 1.385 . S
C863 C862 1.374 . S
C864 C861 1.499 . S
C864 C865 1.373 . S
C864 C866 1.389 . S
C865 H844 0.950 . S
C865 C864 1.373 . S
C865 C881 1.377 . S
C866 C864 1.389 . S
C866 C867 1.524 . S
C866 C880 1.377 . S
C867 C866 1.524 . S
C867 C868 1.397 . S
C867 C872 1.363 . S
C868 H845 0.950 . S
C868 C867 1.397 . S
C868 C869 1.334 . S
C869 H846 0.950 . S
C869 C868 1.334 . S
C869 C870 1.287 . S
C870 C869 1.287 . S
C870 C871 1.524 . S
C870 H889 0.913 . S
C871 H847 0.950 . S
C871 C870 1.524 . S
C871 C872 1.415 . S
C872 H848 0.950 . S
C872 C867 1.363 . S
C872 C871 1.415 . S
C873 H849 0.951 . S
C873 C874 1.366 . S
C873 C875 1.388 . S
C874 C873 1.366 . S
C874 C878 1.385 . S
C875 H850 0.951 . S
C875 C873 1.388 . S
C875 C876 1.366 . S
C876 C875 1.366 . S
C876 C877 1.414 . S
C876 C879 1.499 . S
C877 H851 0.950 . S
C877 C876 1.414 . S
C877 C878 1.374 . S
C878 H852 0.950 . S
C878 C874 1.385 . S
C878 C877 1.374 . S
C879 C876 1.499 . S
C879 C880 1.373 . S
C879 C881 1.389 . S
C880 H853 0.950 . S
C880 C866 1.377 . S
C880 C879 1.373 . S
C881 C865 1.377 . S
C881 C879 1.389 . S
C881 C882 1.524 . S
C882 C881 1.524 . S
C882 C883 1.397 . S
C882 C887 1.363 . S
C883 H854 0.950 . S
C883 C882 1.397 . S
C883 C884 1.334 . S
C884 H855 0.950 . S
C884 C883 1.334 . S
C884 C885 1.287 . S
C885 C884 1.287 . S
C885 C886 1.524 . S
C885 H888 0.999 . S
C886 H856 0.950 . S
C886 C885 1.524 . S
C886 C887 1.415 . S
C887 H857 0.950 . S
C887 C882 1.363 . S
C887 C886 1.415 . S
H888 C885 0.999 . S
H889 C870 0.913 . S
H890 C908 0.951 . S
H891 C910 0.951 . S
H892 C912 0.950 . S
H893 C913 0.950 . S
H894 C915 0.950 . S
H895 C918 0.950 1_655 S
H896 C919 0.950 . S
H897 C921 0.950 . S
H898 C922 0.950 . S
H899 C923 0.951 . S
H900 C925 0.951 . S
H901 C927 0.950 . S
H902 C928 0.950 . S
H903 C930 0.950 . S
H904 C933 0.950 . S
H905 C934 0.950 . S
H906 C936 0.950 . S
H907 C937 0.950 . S
C908 H890 0.951 . S
C908 C909 1.366 . S
C908 C910 1.388 . S
C909 C908 1.366 . S
C909 C913 1.385 1_455 S
C910 H891 0.951 . S
C910 C908 1.388 . S
C910 C911 1.366 1_455 S
C911 C910 1.366 1_655 S
C911 C912 1.414 . S
C911 C914 1.499 . S
C912 H892 0.950 . S
C912 C911 1.414 . S
C912 C913 1.374 . S
C913 H893 0.950 . S
C913 C909 1.385 1_655 S
C913 C912 1.374 . S
C914 C911 1.499 . S
C914 C915 1.373 . S
C914 C916 1.389 . S
C915 H894 0.950 . S
C915 C914 1.373 . S
C915 C931 1.377 . S
C916 C914 1.389 . S
C916 C917 1.524 1_655 S
C916 C930 1.377 . S
C917 C916 1.524 1_455 S
C917 C918 1.397 . S
C917 C922 1.363 . S
C918 H895 0.950 1_455 S
C918 C917 1.397 . S
C918 C919 1.334 . S
C919 H896 0.950 . S
C919 C918 1.334 . S
C919 C920 1.287 . S
C920 C919 1.287 . S
C920 C921 1.524 . S
C920 H939 0.913 . S
C921 H897 0.950 . S
C921 C920 1.524 . S
C921 C922 1.415 . S
C922 H898 0.950 . S
C922 C917 1.363 . S
C922 C921 1.415 . S
C923 H899 0.951 . S
C923 C924 1.366 . S
C923 C925 1.388 . S
C924 C923 1.366 . S
C924 C928 1.385 . S
C925 H900 0.951 . S
C925 C923 1.388 . S
C925 C926 1.366 . S
C926 C925 1.366 . S
C926 C927 1.414 . S
C926 C929 1.499 . S
C927 H901 0.950 . S
C927 C926 1.414 . S
C927 C928 1.374 . S
C928 H902 0.950 . S
C928 C924 1.385 . S
C928 C927 1.374 . S
C929 C926 1.499 . S
C929 C930 1.373 . S
C929 C931 1.389 . S
C930 H903 0.950 . S
C930 C916 1.377 . S
C930 C929 1.373 . S
C931 C915 1.377 . S
C931 C929 1.389 . S
C931 C932 1.524 . S
C932 C931 1.524 . S
C932 C933 1.397 . S
C932 C937 1.363 . S
C933 H904 0.950 . S
C933 C932 1.397 . S
C933 C934 1.334 . S
C934 H905 0.950 . S
C934 C933 1.334 . S
C934 C935 1.287 . S
C935 C934 1.287 . S
C935 C936 1.524 . S
C935 H938 0.999 . S
C936 H906 0.950 . S
C936 C935 1.524 . S
C936 C937 1.415 . S
C937 H907 0.950 . S
C937 C932 1.363 . S
C937 C936 1.415 . S
H938 C935 0.999 . S
H939 C920 0.913 . S
H940 C958 0.951 . S
H941 C960 0.951 . S
H942 C962 0.950 . S
H943 C963 0.950 . S
H944 C965 0.950 . S
H945 C968 0.950 . S
H946 C969 0.950 . S
H947 C971 0.950 . S
H948 C972 0.950 . S
H949 C973 0.951 . S
H950 C975 0.951 . S
H951 C977 0.950 . S
H952 C978 0.950 . S
H953 C980 0.950 . S
H954 C983 0.950 . S
H955 C984 0.950 . S
H956 C986 0.950 . S
H957 C987 0.950 . S
C958 H940 0.951 . S
C958 C959 1.366 . S
C958 C960 1.388 . S
C959 C958 1.366 . S
C959 C963 1.385 . S
C960 H941 0.951 . S
C960 C958 1.388 . S
C960 C961 1.366 . S
C961 C960 1.366 . S
C961 C962 1.414 . S
C961 C964 1.499 . S
C962 H942 0.950 . S
C962 C961 1.414 . S
C962 C963 1.374 . S
C963 H943 0.950 . S
C963 C959 1.385 . S
C963 C962 1.374 . S
C964 C961 1.499 . S
C964 C965 1.373 . S
C964 C966 1.389 . S
C965 H944 0.950 . S
C965 C964 1.373 . S
C965 C981 1.377 . S
C966 C964 1.389 . S
C966 C967 1.524 . S
C966 C980 1.377 . S
C967 C966 1.524 . S
C967 C968 1.397 . S
C967 C972 1.363 . S
C968 H945 0.950 . S
C968 C967 1.397 . S
C968 C969 1.334 . S
C969 H946 0.950 . S
C969 C968 1.334 . S
C969 C970 1.287 . S
C970 C969 1.287 . S
C970 C971 1.524 . S
C970 H989 0.913 . S
C971 H947 0.950 . S
C971 C970 1.524 . S
C971 C972 1.415 . S
C972 H948 0.950 . S
C972 C967 1.363 . S
C972 C971 1.415 . S
C973 H949 0.951 . S
C973 C974 1.366 . S
C973 C975 1.388 . S
C974 C973 1.366 . S
C974 C978 1.385 . S
C975 H950 0.951 . S
C975 C973 1.388 . S
C975 C976 1.366 . S
C976 C975 1.366 . S
C976 C977 1.414 . S
C976 C979 1.499 . S
C977 H951 0.950 . S
C977 C976 1.414 . S
C977 C978 1.374 . S
C978 H952 0.950 . S
C978 C974 1.385 . S
C978 C977 1.374 . S
C979 C976 1.499 . S
C979 C980 1.373 . S
C979 C981 1.389 . S
C980 H953 0.950 . S
C980 C966 1.377 . S
C980 C979 1.373 . S
C981 C965 1.377 . S
C981 C979 1.389 . S
C981 C982 1.524 . S
C982 C981 1.524 . S
C982 C983 1.397 . S
C982 C987 1.363 . S
C983 H954 0.950 . S
C983 C982 1.397 . S
C983 C984 1.334 . S
C984 H955 0.950 . S
C984 C983 1.334 . S
C984 C985 1.287 . S
C985 C984 1.287 . S
C985 C986 1.524 . S
C985 H988 0.999 . S
C986 H956 0.950 . S
C986 C985 1.524 . S
C986 C987 1.415 . S
C987 H957 0.950 . S
C987 C982 1.363 . S
C987 C986 1.415 . S
H988 C985 0.999 . S
H989 C970 0.913 . S
H990 C1008 0.951 . S
H991 C1010 0.951 . S
H992 C1012 0.950 . S
H993 C1013 0.950 . S
H994 C1015 0.950 . S
H995 C1018 0.950 . S
H996 C1019 0.950 . S
H997 C1021 0.950 . S
H998 C1022 0.950 . S
H999 C1023 0.951 . S
H1000 C1025 0.951 . S
H1001 C1027 0.950 . S
H1002 C1028 0.950 . S
H1003 C1030 0.989 . S
H1004 C1033 0.950 . S
H1005 C1034 0.950 . S
H1006 C1036 0.950 . S
H1007 C1037 0.950 . S
C1008 H990 0.951 . S
C1008 C1009 1.366 . S
C1008 C1010 1.388 . S
C1009 C1008 1.366 . S
C1009 C1013 1.385 . S
C1010 H991 0.951 . S
C1010 C1008 1.388 . S
C1010 C1011 1.366 . S
C1011 C1010 1.366 . S
C1011 C1012 1.414 . S
C1011 C1014 1.499 . S
C1012 H992 0.950 . S
C1012 C1011 1.414 . S
C1012 C1013 1.374 . S
C1013 H993 0.950 . S
C1013 C1009 1.385 . S
C1013 C1012 1.374 . S
C1014 C1011 1.499 . S
C1014 C1015 1.373 . S
C1014 C1016 1.389 . S
C1015 H994 0.950 . S
C1015 C1014 1.373 . S
C1015 C1031 1.377 . S
C1016 C1014 1.389 . S
C1016 C1017 1.524 . S
C1016 C1030 1.344 1_554 S
C1017 C1016 1.524 . S
C1017 C1018 1.397 . S
C1017 C1022 1.363 1_554 S
C1018 H995 0.950 . S
C1018 C1017 1.397 . S
C1018 C1019 1.334 . S
C1019 H996 0.950 . S
C1019 C1018 1.334 . S
C1019 C1020 1.287 . S
C1020 C1019 1.287 . S
C1020 C1021 1.524 1_554 S
C1020 H1039 0.913 1_554 S
C1021 H997 0.950 . S
C1021 C1020 1.524 1_556 S
C1021 C1022 1.415 . S
C1022 H998 0.950 . S
C1022 C1017 1.363 1_556 S
C1022 C1021 1.415 . S
C1023 H999 0.951 . S
C1023 C1024 1.366 . S
C1023 C1025 1.388 . S
C1024 C1023 1.366 . S
C1024 C1028 1.385 . S
C1025 H1000 0.951 . S
C1025 C1023 1.388 . S
C1025 C1026 1.366 . S
C1026 C1025 1.366 . S
C1026 C1027 1.414 . S
C1026 C1029 1.499 1_556 S
C1027 H1001 0.950 . S
C1027 C1026 1.414 . S
C1027 C1028 1.374 . S
C1028 H1002 0.950 . S
C1028 C1024 1.385 . S
C1028 C1027 1.374 . S
C1029 C1026 1.499 1_554 S
C1029 C1030 1.368 1_554 S
C1029 C1031 1.389 . S
C1030 H1003 0.989 . S
C1030 C1016 1.344 1_556 S
C1030 C1029 1.368 1_556 S
C1031 C1015 1.377 . S
C1031 C1029 1.389 . S
C1031 C1032 1.524 . S
C1032 C1031 1.524 . S
C1032 C1033 1.397 . S
C1032 C1037 1.363 . S
C1033 H1004 0.950 . S
C1033 C1032 1.397 . S
C1033 C1034 1.334 . S
C1034 H1005 0.950 . S
C1034 C1033 1.334 . S
C1034 C1035 1.287 . S
C1035 C1034 1.287 . S
C1035 C1036 1.524 . S
C1035 H1038 0.999 . S
C1036 H1006 0.950 . S
C1036 C1035 1.524 . S
C1036 C1037 1.415 . S
C1037 H1007 0.950 . S
C1037 C1032 1.363 . S
C1037 C1036 1.415 . S
H1038 C1035 0.999 . S
H1039 C1020 0.913 1_556 S
H1040 C1058 0.951 . S
H1041 C1060 0.951 . S
H1042 C1062 0.950 . S
H1043 C1063 0.950 . S
H1044 C1065 0.950 . S
H1045 C1068 0.950 . S
H1046 C1069 0.950 . S
H1047 C1071 0.950 . S
H1048 C1072 0.950 . S
H1049 C1073 0.951 . S
H1050 C1075 0.951 . S
H1051 C1077 0.950 . S
H1052 C1078 0.950 . S
H1053 C1080 0.950 . S
H1054 C1083 0.950 . S
H1055 C1084 0.950 . S
H1056 C1086 0.950 . S
H1057 C1087 0.950 . S
C1058 H1040 0.951 . S
C1058 C1059 1.366 . S
C1058 C1060 1.388 . S
C1059 C1058 1.366 . S
C1059 C1063 1.385 . S
C1060 H1041 0.951 . S
C1060 C1058 1.388 . S
C1060 C1061 1.366 . S
C1061 C1060 1.366 . S
C1061 C1062 1.414 . S
C1061 C1064 1.499 . S
C1062 H1042 0.950 . S
C1062 C1061 1.414 . S
C1062 C1063 1.374 . S
C1063 H1043 0.950 . S
C1063 C1059 1.385 . S
C1063 C1062 1.374 . S
C1064 C1061 1.499 . S
C1064 C1065 1.373 . S
C1064 C1066 1.389 . S
C1065 H1044 0.950 . S
C1065 C1064 1.373 . S
C1065 C1081 1.377 . S
C1066 C1064 1.389 . S
C1066 C1067 1.524 . S
C1066 C1080 1.377 . S
C1067 C1066 1.524 . S
C1067 C1068 1.397 . S
C1067 C1072 1.363 . S
C1068 H1045 0.950 . S
C1068 C1067 1.397 . S
C1068 C1069 1.334 . S
C1069 H1046 0.950 . S
C1069 C1068 1.334 . S
C1069 C1070 1.287 . S
C1070 C1069 1.287 . S
C1070 C1071 1.524 . S
C1070 H1089 0.913 . S
C1071 H1047 0.950 . S
C1071 C1070 1.524 . S
C1071 C1072 1.415 . S
C1072 H1048 0.950 . S
C1072 C1067 1.363 . S
C1072 C1071 1.415 . S
C1073 H1049 0.951 . S
C1073 C1074 1.366 . S
C1073 C1075 1.388 . S
C1074 C1073 1.366 . S
C1074 C1078 1.385 . S
C1075 H1050 0.951 . S
C1075 C1073 1.388 . S
C1075 C1076 1.366 . S
C1076 C1075 1.366 . S
C1076 C1077 1.414 . S
C1076 C1079 1.499 . S
C1077 H1051 0.950 . S
C1077 C1076 1.414 . S
C1077 C1078 1.374 . S
C1078 H1052 0.950 . S
C1078 C1074 1.385 . S
C1078 C1077 1.374 . S
C1079 C1076 1.499 . S
C1079 C1080 1.373 . S
C1079 C1081 1.389 . S
C1080 H1053 0.950 . S
C1080 C1066 1.377 . S
C1080 C1079 1.373 . S
C1081 C1065 1.377 . S
C1081 C1079 1.389 . S
C1081 C1082 1.524 . S
C1082 C1081 1.524 . S
C1082 C1083 1.397 . S
C1082 C1087 1.363 . S
C1083 H1054 0.950 . S
C1083 C1082 1.397 . S
C1083 C1084 1.334 . S
C1084 H1055 0.950 . S
C1084 C1083 1.334 . S
C1084 C1085 1.287 . S
C1085 C1084 1.287 . S
C1085 C1086 1.524 . S
C1085 H1088 0.999 . S
C1086 H1056 0.950 . S
C1086 C1085 1.524 . S
C1086 C1087 1.415 . S
C1087 H1057 0.950 . S
C1087 C1082 1.363 . S
C1087 C1086 1.415 . S
H1088 C1085 0.999 . S
H1089 C1070 0.913 . S
H1090 C1108 0.951 . S
H1091 C1110 0.951 1_556 S
H1092 C1112 0.950 . S
H1093 C1113 0.950 . S
H1094 C1115 0.950 . S
H1095 C1118 0.950 . S
H1096 C1119 0.950 . S
H1097 C1121 0.950 . S
H1098 C1122 0.950 . S
H1099 C1123 0.951 . S
H1100 C1125 0.951 . S
H1101 C1127 0.950 . S
H1102 C1128 0.950 . S
H1103 C1130 0.950 . S
H1104 C1133 0.950 . S
H1105 C1134 0.950 . S
H1106 C1136 0.950 . S
H1107 C1137 0.950 . S
C1108 H1090 0.951 . S
C1108 C1109 1.366 . S
C1108 C1110 1.388 . S
C1109 C1108 1.366 . S
C1109 C1113 1.385 . S
C1110 H1091 0.951 1_554 S
C1110 C1108 1.388 . S
C1110 C1111 1.366 . S
C1111 C1110 1.366 . S
C1111 C1112 1.414 . S
C1111 C1114 1.499 1_554 S
C1112 H1092 0.950 . S
C1112 C1111 1.414 . S
C1112 C1113 1.374 . S
C1113 H1093 0.950 . S
C1113 C1109 1.385 . S
C1113 C1112 1.374 . S
C1114 C1111 1.499 1_556 S
C1114 C1115 1.373 . S
C1114 C1116 1.389 . S
C1115 H1094 0.950 . S
C1115 C1114 1.373 . S
C1115 C1131 1.377 . S
C1116 C1114 1.389 . S
C1116 C1117 1.524 . S
C1116 C1130 1.377 . S
C1117 C1116 1.524 . S
C1117 C1118 1.397 . S
C1117 C1122 1.363 . S
C1118 H1095 0.950 . S
C1118 C1117 1.397 . S
C1118 C1119 1.334 . S
C1119 H1096 0.950 . S
C1119 C1118 1.334 . S
C1119 C1120 1.287 . S
C1120 C1119 1.287 . S
C1120 C1121 1.524 . S
C1120 H1139 0.913 . S
C1121 H1097 0.950 . S
C1121 C1120 1.524 . S
C1121 C1122 1.415 . S
C1122 H1098 0.950 . S
C1122 C1117 1.363 . S
C1122 C1121 1.415 . S
C1123 H1099 0.951 . S
C1123 C1124 1.366 . S
C1123 C1125 1.388 . S
C1124 C1123 1.366 . S
C1124 C1128 1.385 1_655 S
C1125 H1100 0.951 . S
C1125 C1123 1.388 . S
C1125 C1126 1.366 1_655 S
C1126 C1125 1.366 1_455 S
C1126 C1127 1.414 . S
C1126 C1129 1.499 . S
C1127 H1101 0.950 . S
C1127 C1126 1.414 . S
C1127 C1128 1.374 . S
C1128 H1102 0.950 . S
C1128 C1124 1.385 1_455 S
C1128 C1127 1.374 . S
C1129 C1126 1.499 . S
C1129 C1130 1.373 . S
C1129 C1131 1.389 . S
C1130 H1103 0.950 . S
C1130 C1116 1.377 . S
C1130 C1129 1.373 . S
C1131 C1115 1.377 . S
C1131 C1129 1.389 . S
C1131 C1132 1.524 . S
C1132 C1131 1.524 . S
C1132 C1133 1.397 . S
C1132 C1137 1.363 1_455 S
C1133 H1104 0.950 . S
C1133 C1132 1.397 . S
C1133 C1134 1.334 1_455 S
C1134 H1105 0.950 . S
C1134 C1133 1.334 1_655 S
C1134 C1135 1.287 . S
C1135 C1134 1.287 . S
C1135 C1136 1.524 . S
C1135 H1138 0.999 . S
C1136 H1106 0.950 . S
C1136 C1135 1.524 . S
C1136 C1137 1.415 . S
C1137 H1107 0.950 . S
C1137 C1132 1.363 1_655 S
C1137 C1136 1.415 . S
H1138 C1135 0.999 . S
H1139 C1120 0.913 . S
H1140 C1158 0.951 . S
H1141 C1160 0.951 . S
H1142 C1162 0.950 . S
H1143 C1163 0.950 . S
H1144 C1165 0.950 . S
H1145 C1168 0.950 . S
H1146 C1169 0.950 . S
H1147 C1171 0.950 . S
H1148 C1172 0.950 . S
H1149 C1173 0.951 . S
H1150 C1175 0.951 . S
H1151 C1177 0.950 . S
H1152 C1178 0.950 . S
H1153 C1180 0.950 . S
H1154 C1183 0.950 . S
H1155 C1184 0.950 . S
H1156 C1186 0.950 . S
H1157 C1187 0.950 . S
C1158 H1140 0.951 . S
C1158 C1159 1.366 . S
C1158 C1160 1.388 . S
C1159 C1158 1.366 . S
C1159 C1163 1.385 . S
C1160 H1141 0.951 . S
C1160 C1158 1.388 . S
C1160 C1161 1.366 . S
C1161 C1160 1.366 . S
C1161 C1162 1.414 . S
C1161 C1164 1.499 . S
C1162 H1142 0.950 . S
C1162 C1161 1.414 . S
C1162 C1163 1.374 . S
C1163 H1143 0.950 . S
C1163 C1159 1.385 . S
C1163 C1162 1.374 . S
C1164 C1161 1.499 . S
C1164 C1165 1.373 . S
C1164 C1166 1.389 . S
C1165 H1144 0.950 . S
C1165 C1164 1.373 . S
C1165 C1181 1.377 . S
C1166 C1164 1.389 . S
C1166 C1167 1.524 . S
C1166 C1180 1.377 . S
C1167 C1166 1.524 . S
C1167 C1168 1.397 . S
C1167 C1172 1.363 . S
C1168 H1145 0.950 . S
C1168 C1167 1.397 . S
C1168 C1169 1.334 . S
C1169 H1146 0.950 . S
C1169 C1168 1.334 . S
C1169 C1170 1.287 . S
C1170 C1169 1.287 . S
C1170 C1171 1.524 . S
C1170 H1189 0.913 . S
C1171 H1147 0.950 . S
C1171 C1170 1.524 . S
C1171 C1172 1.415 . S
C1172 H1148 0.950 . S
C1172 C1167 1.363 . S
C1172 C1171 1.415 . S
C1173 H1149 0.951 . S
C1173 C1174 1.366 . S
C1173 C1175 1.388 . S
C1174 C1173 1.366 . S
C1174 C1178 1.385 . S
C1175 H1150 0.951 . S
C1175 C1173 1.388 . S
C1175 C1176 1.366 . S
C1176 C1175 1.366 . S
C1176 C1177 1.414 . S
C1176 C1179 1.499 . S
C1177 H1151 0.950 . S
C1177 C1176 1.414 . S
C1177 C1178 1.374 . S
C1178 H1152 0.950 . S
C1178 C1174 1.385 . S
C1178 C1177 1.374 . S
C1179 C1176 1.499 . S
C1179 C1180 1.373 . S
C1179 C1181 1.389 . S
C1180 H1153 0.950 . S
C1180 C1166 1.377 . S
C1180 C1179 1.373 . S
C1181 C1165 1.377 . S
C1181 C1179 1.389 . S
C1181 C1182 1.524 . S
C1182 C1181 1.524 . S
C1182 C1183 1.397 . S
C1182 C1187 1.363 . S
C1183 H1154 0.950 . S
C1183 C1182 1.397 . S
C1183 C1184 1.334 . S
C1184 H1155 0.950 . S
C1184 C1183 1.334 . S
C1184 C1185 1.287 . S
C1185 C1184 1.287 . S
C1185 C1186 1.524 . S
C1185 H1188 0.999 . S
C1186 H1156 0.950 . S
C1186 C1185 1.524 . S
C1186 C1187 1.415 . S
C1187 H1157 0.950 . S
C1187 C1182 1.363 . S
C1187 C1186 1.415 . S
H1188 C1185 0.999 . S
H1189 C1170 0.913 . S
H1190 C1208 0.951 . S
H1191 C1210 0.951 . S
H1192 C1212 0.950 . S
H1193 C1213 0.950 . S
H1194 C1215 0.950 . S
H1195 C1218 0.950 . S
H1196 C1219 0.950 . S
H1197 C1221 0.950 . S
H1198 C1222 0.950 . S
H1199 C1223 0.951 . S
H1200 C1225 0.951 . S
H1201 C1227 0.950 . S
H1202 C1228 0.950 . S
H1203 C1230 0.950 . S
H1204 C1233 0.950 . S
H1205 C1234 0.950 . S
H1206 C1236 0.950 . S
H1207 C1237 0.950 . S
C1208 H1190 0.951 . S
C1208 C1209 1.366 . S
C1208 C1210 1.388 . S
C1209 C1208 1.366 . S
C1209 C1213 1.385 . S
C1210 H1191 0.951 . S
C1210 C1208 1.388 . S
C1210 C1211 1.366 . S
C1211 C1210 1.366 . S
C1211 C1212 1.414 . S
C1211 C1214 1.499 . S
C1212 H1192 0.950 . S
C1212 C1211 1.414 . S
C1212 C1213 1.374 . S
C1213 H1193 0.950 . S
C1213 C1209 1.385 . S
C1213 C1212 1.374 . S
C1214 C1211 1.499 . S
C1214 C1215 1.373 . S
C1214 C1216 1.389 . S
C1215 H1194 0.950 . S
C1215 C1214 1.373 . S
C1215 C1231 1.377 . S
C1216 C1214 1.389 . S
C1216 C1217 1.524 . S
C1216 C1230 1.377 . S
C1217 C1216 1.524 . S
C1217 C1218 1.397 . S
C1217 C1222 1.363 . S
C1218 H1195 0.950 . S
C1218 C1217 1.397 . S
C1218 C1219 1.334 . S
C1219 H1196 0.950 . S
C1219 C1218 1.334 . S
C1219 C1220 1.287 . S
C1220 C1219 1.287 . S
C1220 C1221 1.524 . S
C1220 H1239 0.913 . S
C1221 H1197 0.950 . S
C1221 C1220 1.524 . S
C1221 C1222 1.415 . S
C1222 H1198 0.950 . S
C1222 C1217 1.363 . S
C1222 C1221 1.415 . S
C1223 H1199 0.951 . S
C1223 C1224 1.366 . S
C1223 C1225 1.388 . S
C1224 C1223 1.366 . S
C1224 C1228 1.385 . S
C1225 H1200 0.951 . S
C1225 C1223 1.388 . S
C1225 C1226 1.366 . S
C1226 C1225 1.366 . S
C1226 C1227 1.414 . S
C1226 C1229 1.499 . S
C1227 H1201 0.950 . S
C1227 C1226 1.414 . S
C1227 C1228 1.374 . S
C1228 H1202 0.950 . S
C1228 C1224 1.385 . S
C1228 C1227 1.374 . S
C1229 C1226 1.499 . S
C1229 C1230 1.373 . S
C1229 C1231 1.389 . S
C1230 H1203 0.950 . S
C1230 C1216 1.377 . S
C1230 C1229 1.373 . S
C1231 C1215 1.377 . S
C1231 C1229 1.389 . S
C1231 C1232 1.524 . S
C1232 C1231 1.524 . S
C1232 C1233 1.397 . S
C1232 C1237 1.363 . S
C1233 H1204 0.950 . S
C1233 C1232 1.397 . S
C1233 C1234 1.334 . S
C1234 H1205 0.950 . S
C1234 C1233 1.334 . S
C1234 C1235 1.287 . S
C1235 C1234 1.287 . S
C1235 C1236 1.524 . S
C1235 H1238 0.999 . S
C1236 H1206 0.950 . S
C1236 C1235 1.524 . S
C1236 C1237 1.415 . S
C1237 H1207 0.950 . S
C1237 C1232 1.363 . S
C1237 C1236 1.415 . S
H1238 C1235 0.999 . S
H1239 C1220 0.913 . S
H1240 C1258 0.951 . S
H1241 C1260 0.951 . S
H1242 C1262 0.950 . S
H1243 C1263 0.950 . S
H1244 C1265 0.950 . S
H1245 C1268 0.950 . S
H1246 C1269 0.950 . S
H1247 C1271 0.950 . S
H1248 C1272 0.950 . S
H1249 C1273 0.951 . S
H1250 C1275 0.951 . S
H1251 C1277 0.950 . S
H1252 C1278 0.950 . S
H1253 C1280 0.950 . S
H1254 C1283 0.950 . S
H1255 C1284 0.950 . S
H1256 C1286 0.950 . S
H1257 C1287 0.950 . S
C1258 H1240 0.951 . S
C1258 C1259 1.366 . S
C1258 C1260 1.388 . S
C1259 C1258 1.366 . S
C1259 C1263 1.385 . S
C1260 H1241 0.951 . S
C1260 C1258 1.388 . S
C1260 C1261 1.366 . S
C1261 C1260 1.366 . S
C1261 C1262 1.414 . S
C1261 C1264 1.499 . S
C1262 H1242 0.950 . S
C1262 C1261 1.414 . S
C1262 C1263 1.374 . S
C1263 H1243 0.950 . S
C1263 C1259 1.385 . S
C1263 C1262 1.374 . S
C1264 C1261 1.499 . S
C1264 C1265 1.373 . S
C1264 C1266 1.389 . S
C1265 H1244 0.950 . S
C1265 C1264 1.373 . S
C1265 C1281 1.377 . S
C1266 C1264 1.389 . S
C1266 C1267 1.524 . S
C1266 C1280 1.377 . S
C1267 C1266 1.524 . S
C1267 C1268 1.397 . S
C1267 C1272 1.363 . S
C1268 H1245 0.950 . S
C1268 C1267 1.397 . S
C1268 C1269 1.334 . S
C1269 H1246 0.950 . S
C1269 C1268 1.334 . S
C1269 C1270 1.287 . S
C1270 C1269 1.287 . S
C1270 C1271 1.524 . S
C1270 H1289 0.913 . S
C1271 H1247 0.950 . S
C1271 C1270 1.524 . S
C1271 C1272 1.415 . S
C1272 H1248 0.950 . S
C1272 C1267 1.363 . S
C1272 C1271 1.415 . S
C1273 H1249 0.951 . S
C1273 C1274 1.366 . S
C1273 C1275 1.388 . S
C1274 C1273 1.366 . S
C1274 C1278 1.385 . S
C1275 H1250 0.951 . S
C1275 C1273 1.388 . S
C1275 C1276 1.366 . S
C1276 C1275 1.366 . S
C1276 C1277 1.414 . S
C1276 C1279 1.499 . S
C1277 H1251 0.950 . S
C1277 C1276 1.414 . S
C1277 C1278 1.374 . S
C1278 H1252 0.950 . S
C1278 C1274 1.385 . S
C1278 C1277 1.374 . S
C1279 C1276 1.499 . S
C1279 C1280 1.373 . S
C1279 C1281 1.389 . S
C1280 H1253 0.950 . S
C1280 C1266 1.377 . S
C1280 C1279 1.373 . S
C1281 C1265 1.377 . S
C1281 C1279 1.389 . S
C1281 C1282 1.524 . S
C1282 C1281 1.524 . S
C1282 C1283 1.397 . S
C1282 C1287 1.363 . S
C1283 H1254 0.950 . S
C1283 C1282 1.397 . S
C1283 C1284 1.334 . S
C1284 H1255 0.950 . S
C1284 C1283 1.334 . S
C1284 C1285 1.287 . S
C1285 C1284 1.287 . S
C1285 C1286 1.524 . S
C1285 H1288 0.999 . S
C1286 H1256 0.950 . S
C1286 C1285 1.524 . S
C1286 C1287 1.415 . S
C1287 H1257 0.950 . S
C1287 C1282 1.363 . S
C1287 C1286 1.415 . S
H1288 C1285 0.999 . S
H1289 C1270 0.913 . S
H1290 C1308 0.951 . S
H1291 C1310 0.951 . S
H1292 C1312 0.950 . S
H1293 C1313 0.950 . S
H1294 C1315 0.950 . S
H1295 C1318 0.950 . S
H1296 C1319 0.950 . S
H1297 C1321 0.950 1_655 S
H1298 C1322 0.950 . S
H1299 C1323 0.951 . S
H1300 C1325 0.951 1_545 S
H1301 C1327 0.950 . S
H1302 C1328 0.950 . S
H1303 C1330 0.950 . S
H1304 C1333 0.950 . S
H1305 C1334 0.950 . S
H1306 C1336 0.950 1_545 S
H1307 C1337 0.950 . S
C1308 H1290 0.951 . S
C1308 C1309 1.366 . S
C1308 C1310 1.388 . S
C1309 C1308 1.366 . S
C1309 C1313 1.385 . S
C1310 H1291 0.951 . S
C1310 C1308 1.388 . S
C1310 C1311 1.366 . S
C1311 C1310 1.366 . S
C1311 C1312 1.414 . S
C1311 C1314 1.499 . S
C1312 H1292 0.950 . S
C1312 C1311 1.414 . S
C1312 C1313 1.374 . S
C1313 H1293 0.950 . S
C1313 C1309 1.385 . S
C1313 C1312 1.374 . S
C1314 C1311 1.499 . S
C1314 C1315 1.373 . S
C1314 C1316 1.389 . S
C1315 H1294 0.950 . S
C1315 C1314 1.373 . S
C1315 C1331 1.377 . S
C1316 C1314 1.389 . S
C1316 C1317 1.524 . S
C1316 C1330 1.377 . S
C1317 C1316 1.524 . S
C1317 C1318 1.397 . S
C1317 C1322 1.363 . S
C1318 H1295 0.950 . S
C1318 C1317 1.397 . S
C1318 C1319 1.334 . S
C1319 H1296 0.950 . S
C1319 C1318 1.334 . S
C1319 C1320 1.287 . S
C1320 C1319 1.287 . S
C1320 C1321 1.524 . S
C1320 H1339 0.940 . S
C1321 H1297 0.950 1_455 S
C1321 C1320 1.524 . S
C1321 C1322 1.415 . S
C1322 H1298 0.950 . S
C1322 C1317 1.363 . S
C1322 C1321 1.415 . S
C1323 H1299 0.951 . S
C1323 C1324 1.366 . S
C1323 C1325 1.388 . S
C1324 C1323 1.366 . S
C1324 C1328 1.385 . S
C1325 H1300 0.951 1_565 S
C1325 C1323 1.388 . S
C1325 C1326 1.366 . S
C1326 C1325 1.366 . S
C1326 C1327 1.414 . S
C1326 C1329 1.499 1_565 S
C1327 H1301 0.950 . S
C1327 C1326 1.414 . S
C1327 C1328 1.374 . S
C1328 H1302 0.950 . S
C1328 C1324 1.385 . S
C1328 C1327 1.374 . S
C1329 C1326 1.499 1_545 S
C1329 C1330 1.373 . S
C1329 C1331 1.389 . S
C1330 H1303 0.950 . S
C1330 C1316 1.377 . S
C1330 C1329 1.373 . S
C1331 C1315 1.377 . S
C1331 C1329 1.389 . S
C1331 C1332 1.524 . S
C1332 C1331 1.524 . S
C1332 C1333 1.397 1_545 S
C1332 C1337 1.363 . S
C1333 H1304 0.950 . S
C1333 C1332 1.397 1_565 S
C1333 C1334 1.334 . S
C1334 H1305 0.950 . S
C1334 C1333 1.334 . S
C1334 C1335 1.287 . S
C1335 C1334 1.287 . S
C1335 C1336 1.524 . S
C1335 H1338 0.999 . S
C1336 H1306 0.950 1_565 S
C1336 C1335 1.524 . S
C1336 C1337 1.415 1_565 S
C1337 H1307 0.950 . S
C1337 C1332 1.363 . S
C1337 C1336 1.415 1_545 S
H1338 C1335 0.999 . S
H1339 C1320 0.940 . S
H1340 C1358 0.951 . S
H1341 C1360 0.951 . S
H1342 C1362 0.950 . S
H1343 C1363 0.950 . S
H1344 C1365 0.950 . S
H1345 C1368 0.950 . S
H1346 C1369 0.950 . S
H1347 C1371 0.950 . S
H1348 C1372 0.950 . S
H1349 C1373 0.951 . S
H1350 C1375 0.951 . S
H1351 C1377 0.950 . S
H1352 C1378 0.950 . S
H1353 C1380 0.950 . S
H1354 C1383 0.950 . S
H1355 C1384 0.950 . S
H1356 C1386 0.950 . S
H1357 C1387 0.950 . S
C1358 H1340 0.951 . S
C1358 C1359 1.366 . S
C1358 C1360 1.388 . S
C1359 C1358 1.366 . S
C1359 C1363 1.385 . S
C1360 H1341 0.951 . S
C1360 C1358 1.388 . S
C1360 C1361 1.366 . S
C1361 C1360 1.366 . S
C1361 C1362 1.414 . S
C1361 C1364 1.499 . S
C1362 H1342 0.950 . S
C1362 C1361 1.414 . S
C1362 C1363 1.374 . S
C1363 H1343 0.950 . S
C1363 C1359 1.385 . S
C1363 C1362 1.374 . S
C1364 C1361 1.499 . S
C1364 C1365 1.373 . S
C1364 C1366 1.389 . S
C1365 H1344 0.950 . S
C1365 C1364 1.373 . S
C1365 C1381 1.377 . S
C1366 C1364 1.389 . S
C1366 C1367 1.524 . S
C1366 C1380 1.377 . S
C1367 C1366 1.524 . S
C1367 C1368 1.397 . S
C1367 C1372 1.363 . S
C1368 H1345 0.950 . S
C1368 C1367 1.397 . S
C1368 C1369 1.334 . S
C1369 H1346 0.950 . S
C1369 C1368 1.334 . S
C1369 C1370 1.287 . S
C1370 C1369 1.287 . S
C1370 C1371 1.524 . S
C1370 H1389 0.913 . S
C1371 H1347 0.950 . S
C1371 C1370 1.524 . S
C1371 C1372 1.415 . S
C1372 H1348 0.950 . S
C1372 C1367 1.363 . S
C1372 C1371 1.415 . S
C1373 H1349 0.951 . S
C1373 C1374 1.366 . S
C1373 C1375 1.388 . S
C1374 C1373 1.366 . S
C1374 C1378 1.385 . S
C1375 H1350 0.951 . S
C1375 C1373 1.388 . S
C1375 C1376 1.366 . S
C1376 C1375 1.366 . S
C1376 C1377 1.414 . S
C1376 C1379 1.499 . S
C1377 H1351 0.950 . S
C1377 C1376 1.414 . S
C1377 C1378 1.374 . S
C1378 H1352 0.950 . S
C1378 C1374 1.385 . S
C1378 C1377 1.374 . S
C1379 C1376 1.499 . S
C1379 C1380 1.373 . S
C1379 C1381 1.389 . S
C1380 H1353 0.950 . S
C1380 C1366 1.377 . S
C1380 C1379 1.373 . S
C1381 C1365 1.377 . S
C1381 C1379 1.389 . S
C1381 C1382 1.524 . S
C1382 C1381 1.524 . S
C1382 C1383 1.397 . S
C1382 C1387 1.363 . S
C1383 H1354 0.950 . S
C1383 C1382 1.397 . S
C1383 C1384 1.334 . S
C1384 H1355 0.950 . S
C1384 C1383 1.334 . S
C1384 C1385 1.287 . S
C1385 C1384 1.287 . S
C1385 C1386 1.524 . S
C1385 H1388 0.999 . S
C1386 H1356 0.950 . S
C1386 C1385 1.524 . S
C1386 C1387 1.415 . S
C1387 H1357 0.950 . S
C1387 C1382 1.363 . S
C1387 C1386 1.415 . S
H1388 C1385 0.999 . S
H1389 C1370 0.913 . S
H1390 C1408 0.951 . S
H1391 C1410 0.951 . S
H1392 C1412 0.950 1_565 S
H1393 C1413 0.950 . S
H1394 C1415 0.950 . S
H1395 C1418 0.950 1_565 S
H1396 C1419 0.950 . S
H1397 C1421 0.950 . S
H1398 C1422 0.950 1_565 S
H1399 C1423 0.951 . S
H1400 C1425 0.951 . S
H1401 C1427 0.950 1_556 S
H1402 C1428 0.950 . S
H1403 C1430 0.950 . S
H1404 C1433 0.950 . S
H1405 C1434 0.950 . S
H1406 C1436 0.950 . S
H1407 C1437 0.950 . S
C1408 H1390 0.951 . S
C1408 C1409 1.366 . S
C1408 C1410 1.388 . S
C1409 C1408 1.366 . S
C1409 C1413 1.385 . S
C1410 H1391 0.951 . S
C1410 C1408 1.388 . S
C1410 C1411 1.366 . S
C1411 C1410 1.366 . S
C1411 C1412 1.414 . S
C1411 C1414 1.499 1_545 S
C1412 H1392 0.950 1_545 S
C1412 C1411 1.414 . S
C1412 C1413 1.374 . S
C1413 H1393 0.950 . S
C1413 C1409 1.385 . S
C1413 C1412 1.374 . S
C1414 C1411 1.499 1_565 S
C1414 C1415 1.373 . S
C1414 C1416 1.389 . S
C1415 H1394 0.950 . S
C1415 C1414 1.373 . S
C1415 C1431 1.377 . S
C1416 C1414 1.389 . S
C1416 C1417 1.524 . S
C1416 C1430 1.377 . S
C1417 C1416 1.524 . S
C1417 C1418 1.397 1_565 S
C1417 C1422 1.363 1_565 S
C1418 H1395 0.950 1_545 S
C1418 C1417 1.397 1_545 S
C1418 C1419 1.334 . S
C1419 H1396 0.950 . S
C1419 C1418 1.334 . S
C1419 C1420 1.287 . S
C1420 C1419 1.287 . S
C1420 C1421 1.524 . S
C1420 H1439 0.913 . S
C1421 H1397 0.950 . S
C1421 C1420 1.524 . S
C1421 C1422 1.415 . S
C1422 H1398 0.950 1_545 S
C1422 C1417 1.363 1_545 S
C1422 C1421 1.415 . S
C1423 H1399 0.951 . S
C1423 C1424 1.366 . S
C1423 C1425 1.388 . S
C1424 C1423 1.366 . S
C1424 C1428 1.385 1_554 S
C1425 H1400 0.951 . S
C1425 C1423 1.388 . S
C1425 C1426 1.366 . S
C1426 C1425 1.366 . S
C1426 C1427 1.414 . S
C1426 C1429 1.499 . S
C1427 H1401 0.950 1_554 S
C1427 C1426 1.414 . S
C1427 C1428 1.374 1_554 S
C1428 H1402 0.950 . S
C1428 C1424 1.385 1_556 S
C1428 C1427 1.374 1_556 S
C1429 C1426 1.499 . S
C1429 C1430 1.373 . S
C1429 C1431 1.389 . S
C1430 H1403 0.950 . S
C1430 C1416 1.377 . S
C1430 C1429 1.373 . S
C1431 C1415 1.377 . S
C1431 C1429 1.389 . S
C1431 C1432 1.524 . S
C1432 C1431 1.524 . S
C1432 C1433 1.397 . S
C1432 C1437 1.363 . S
C1433 H1404 0.950 . S
C1433 C1432 1.397 . S
C1433 C1434 1.334 . S
C1434 H1405 0.950 . S
C1434 C1433 1.334 . S
C1434 C1435 1.287 . S
C1435 C1434 1.287 . S
C1435 C1436 1.524 . S
C1435 H1438 0.999 . S
C1436 H1406 0.950 . S
C1436 C1435 1.524 . S
C1436 C1437 1.415 . S
C1437 H1407 0.950 . S
C1437 C1432 1.363 . S
C1437 C1436 1.415 . S
H1438 C1435 0.999 . S
H1439 C1420 0.913 . S
H1440 C1458 0.951 . S
H1441 C1460 0.951 . S
H1442 C1462 0.950 . S
H1443 C1463 0.950 . S
H1444 C1465 0.950 . S
H1445 C1468 0.950 . S
H1446 C1469 0.950 . S
H1447 C1471 0.950 . S
H1448 C1472 0.950 . S
H1449 C1473 0.951 . S
H1450 C1475 0.951 . S
H1451 C1477 0.950 . S
H1452 C1478 0.950 . S
H1453 C1480 0.950 . S
H1454 C1483 0.950 . S
H1455 C1484 0.950 . S
H1456 C1486 0.950 . S
H1457 C1487 0.950 . S
C1458 H1440 0.951 . S
C1458 C1459 1.366 . S
C1458 C1460 1.388 . S
C1459 C1458 1.366 . S
C1459 C1463 1.385 . S
C1460 H1441 0.951 . S
C1460 C1458 1.388 . S
C1460 C1461 1.366 . S
C1461 C1460 1.366 . S
C1461 C1462 1.414 . S
C1461 C1464 1.499 . S
C1462 H1442 0.950 . S
C1462 C1461 1.414 . S
C1462 C1463 1.374 . S
C1463 H1443 0.950 . S
C1463 C1459 1.385 . S
C1463 C1462 1.374 . S
C1464 C1461 1.499 . S
C1464 C1465 1.373 . S
C1464 C1466 1.389 . S
C1465 H1444 0.950 . S
C1465 C1464 1.373 . S
C1465 C1481 1.377 . S
C1466 C1464 1.389 . S
C1466 C1467 1.524 . S
C1466 C1480 1.377 . S
C1467 C1466 1.524 . S
C1467 C1468 1.397 . S
C1467 C1472 1.363 . S
C1468 H1445 0.950 . S
C1468 C1467 1.397 . S
C1468 C1469 1.334 . S
C1469 H1446 0.950 . S
C1469 C1468 1.334 . S
C1469 C1470 1.287 . S
C1470 C1469 1.287 . S
C1470 C1471 1.524 . S
C1470 H1489 0.913 . S
C1471 H1447 0.950 . S
C1471 C1470 1.524 . S
C1471 C1472 1.415 . S
C1472 H1448 0.950 . S
C1472 C1467 1.363 . S
C1472 C1471 1.415 . S
C1473 H1449 0.951 . S
C1473 C1474 1.366 . S
C1473 C1475 1.388 . S
C1474 C1473 1.366 . S
C1474 C1478 1.385 . S
C1475 H1450 0.951 . S
C1475 C1473 1.388 . S
C1475 C1476 1.366 . S
C1476 C1475 1.366 . S
C1476 C1477 1.414 . S
C1476 C1479 1.499 . S
C1477 H1451 0.950 . S
C1477 C1476 1.414 . S
C1477 C1478 1.374 . S
C1478 H1452 0.950 . S
C1478 C1474 1.385 . S
C1478 C1477 1.374 . S
C1479 C1476 1.499 . S
C1479 C1480 1.373 . S
C1479 C1481 1.389 . S
C1480 H1453 0.950 . S
C1480 C1466 1.377 . S
C1480 C1479 1.373 . S
C1481 C1465 1.377 . S
C1481 C1479 1.389 . S
C1481 C1482 1.524 . S
C1482 C1481 1.524 . S
C1482 C1483 1.397 . S
C1482 C1487 1.363 . S
C1483 H1454 0.950 . S
C1483 C1482 1.397 . S
C1483 C1484 1.334 . S
C1484 H1455 0.950 . S
C1484 C1483 1.334 . S
C1484 C1485 1.287 . S
C1485 C1484 1.287 . S
C1485 C1486 1.524 . S
C1485 H1488 0.999 . S
C1486 H1456 0.950 . S
C1486 C1485 1.524 . S
C1486 C1487 1.415 . S
C1487 H1457 0.950 . S
C1487 C1482 1.363 . S
C1487 C1486 1.415 . S
H1488 C1485 0.999 . S
H1489 C1470 0.913 . S
H1490 C1508 0.951 . S
H1491 C1510 0.951 . S
H1492 C1512 0.950 . S
H1493 C1513 0.950 . S
H1494 C1515 0.950 . S
H1495 C1518 0.950 . S
H1496 C1519 0.950 . S
H1497 C1521 0.950 . S
H1498 C1522 0.950 . S
H1499 C1523 0.949 1_554 S
H1500 C1525 0.951 . S
H1501 C1527 0.950 . S
H1502 C1528 0.950 . S
H1503 C1530 0.950 . S
H1504 C1533 0.950 . S
H1505 C1534 0.950 . S
H1506 C1536 0.950 . S
H1507 C1537 0.950 . S
C1508 H1490 0.951 . S
C1508 C1509 1.366 . S
C1508 C1510 1.388 . S
C1509 C1508 1.366 . S
C1509 C1513 1.385 . S
C1510 H1491 0.951 . S
C1510 C1508 1.388 . S
C1510 C1511 1.366 . S
C1511 C1510 1.366 . S
C1511 C1512 1.414 . S
C1511 C1514 1.499 . S
C1512 H1492 0.950 . S
C1512 C1511 1.414 . S
C1512 C1513 1.374 . S
C1513 H1493 0.950 . S
C1513 C1509 1.385 . S
C1513 C1512 1.374 . S
C1514 C1511 1.499 . S
C1514 C1515 1.373 . S
C1514 C1516 1.389 . S
C1515 H1494 0.950 . S
C1515 C1514 1.373 . S
C1515 C1531 1.377 . S
C1516 C1514 1.389 . S
C1516 C1517 1.524 . S
C1516 C1530 1.377 . S
C1517 C1516 1.524 . S
C1517 C1518 1.397 . S
C1517 C1522 1.363 . S
C1518 H1495 0.950 . S
C1518 C1517 1.397 . S
C1518 C1519 1.334 . S
C1519 H1496 0.950 . S
C1519 C1518 1.334 . S
C1519 C1520 1.287 . S
C1520 C1519 1.287 . S
C1520 C1521 1.524 . S
C1520 H1539 0.913 . S
C1521 H1497 0.950 . S
C1521 C1520 1.524 . S
C1521 C1522 1.415 . S
C1522 H1498 0.950 . S
C1522 C1517 1.363 . S
C1522 C1521 1.415 . S
C1523 H1499 0.949 1_556 S
C1523 C1524 1.359 1_556 S
C1523 C1525 1.396 . S
C1524 C1523 1.359 1_554 S
C1524 C1528 1.385 . S
C1525 H1500 0.951 . S
C1525 C1523 1.396 . S
C1525 C1526 1.366 . S
C1526 C1525 1.366 . S
C1526 C1527 1.414 . S
C1526 C1529 1.499 . S
C1527 H1501 0.950 . S
C1527 C1526 1.414 . S
C1527 C1528 1.374 1_556 S
C1528 H1502 0.950 . S
C1528 C1524 1.385 . S
C1528 C1527 1.374 1_554 S
C1529 C1526 1.499 . S
C1529 C1530 1.373 . S
C1529 C1531 1.389 . S
C1530 H1503 0.950 . S
C1530 C1516 1.377 . S
C1530 C1529 1.373 . S
C1531 C1515 1.377 . S
C1531 C1529 1.389 . S
C1531 C1532 1.524 . S
C1532 C1531 1.524 . S
C1532 C1533 1.397 1_556 S
C1532 C1537 1.363 . S
C1533 H1504 0.950 . S
C1533 C1532 1.397 1_554 S
C1533 C1534 1.334 . S
C1534 H1505 0.950 . S
C1534 C1533 1.334 . S
C1534 C1535 1.287 . S
C1535 C1534 1.287 . S
C1535 C1536 1.524 1_655 S
C1535 H1538 0.999 1_655 S
C1536 H1506 0.950 . S
C1536 C1535 1.524 1_455 S
C1536 C1537 1.415 1_454 S
C1537 H1507 0.950 . S
C1537 C1532 1.363 . S
C1537 C1536 1.415 1_656 S
H1538 C1535 0.999 1_455 S
H1539 C1520 0.913 . S
H1540 C1558 0.951 . S
H1541 C1560 0.951 . S
H1542 C1562 0.950 . S
H1543 C1563 0.950 . S
H1544 C1565 0.950 . S
H1545 C1568 0.950 . S
H1546 C1569 0.950 . S
H1547 C1571 0.950 . S
H1548 C1572 0.950 . S
H1549 C1573 0.951 . S
H1550 C1575 0.951 . S
H1551 C1577 0.950 . S
H1552 C1578 0.950 . S
H1553 C1580 0.950 . S
H1554 C1583 0.950 . S
H1555 C1584 0.950 . S
H1556 C1586 0.950 . S
H1557 C1587 0.950 . S
C1558 H1540 0.951 . S
C1558 C1559 1.366 . S
C1558 C1560 1.388 . S
C1559 C1558 1.366 . S
C1559 C1563 1.385 . S
C1560 H1541 0.951 . S
C1560 C1558 1.388 . S
C1560 C1561 1.366 . S
C1561 C1560 1.366 . S
C1561 C1562 1.414 . S
C1561 C1564 1.499 . S
C1562 H1542 0.950 . S
C1562 C1561 1.414 . S
C1562 C1563 1.374 . S
C1563 H1543 0.950 . S
C1563 C1559 1.385 . S
C1563 C1562 1.374 . S
C1564 C1561 1.499 . S
C1564 C1565 1.373 . S
C1564 C1566 1.389 . S
C1565 H1544 0.950 . S
C1565 C1564 1.373 . S
C1565 C1581 1.377 . S
C1566 C1564 1.389 . S
C1566 C1567 1.524 . S
C1566 C1580 1.377 . S
C1567 C1566 1.524 . S
C1567 C1568 1.397 . S
C1567 C1572 1.363 . S
C1568 H1545 0.950 . S
C1568 C1567 1.397 . S
C1568 C1569 1.334 . S
C1569 H1546 0.950 . S
C1569 C1568 1.334 . S
C1569 C1570 1.287 . S
C1570 C1569 1.287 . S
C1570 C1571 1.524 . S
C1570 H1589 0.913 . S
C1571 H1547 0.950 . S
C1571 C1570 1.524 . S
C1571 C1572 1.415 . S
C1572 H1548 0.950 . S
C1572 C1567 1.363 . S
C1572 C1571 1.415 . S
C1573 H1549 0.951 . S
C1573 C1574 1.366 . S
C1573 C1575 1.388 . S
C1574 C1573 1.366 . S
C1574 C1578 1.385 . S
C1575 H1550 0.951 . S
C1575 C1573 1.388 . S
C1575 C1576 1.366 . S
C1576 C1575 1.366 . S
C1576 C1577 1.414 . S
C1576 C1579 1.499 . S
C1577 H1551 0.950 . S
C1577 C1576 1.414 . S
C1577 C1578 1.374 . S
C1578 H1552 0.950 . S
C1578 C1574 1.385 . S
C1578 C1577 1.374 . S
C1579 C1576 1.499 . S
C1579 C1580 1.373 . S
C1579 C1581 1.389 . S
C1580 H1553 0.950 . S
C1580 C1566 1.377 . S
C1580 C1579 1.373 . S
C1581 C1565 1.377 . S
C1581 C1579 1.389 . S
C1581 C1582 1.524 . S
C1582 C1581 1.524 . S
C1582 C1583 1.397 . S
C1582 C1587 1.363 . S
C1583 H1554 0.950 . S
C1583 C1582 1.397 . S
C1583 C1584 1.334 . S
C1584 H1555 0.950 . S
C1584 C1583 1.334 . S
C1584 C1585 1.287 . S
C1585 C1584 1.287 . S
C1585 C1586 1.524 . S
C1585 H1588 0.999 . S
C1586 H1556 0.950 . S
C1586 C1585 1.524 . S
C1586 C1587 1.415 . S
C1587 H1557 0.950 . S
C1587 C1582 1.363 . S
C1587 C1586 1.415 . S
H1588 C1585 0.999 . S
H1589 C1570 0.913 . S
H1590 C1608 0.951 . S
H1591 C1610 0.951 . S
H1592 C1612 0.950 . S
H1593 C1613 0.950 . S
H1594 C1615 0.950 . S
H1595 C1618 0.950 . S
H1596 C1619 0.950 . S
H1597 C1621 0.950 . S
H1598 C1622 0.950 . S
H1599 C1623 0.951 . S
H1600 C1625 0.951 . S
H1601 C1627 0.950 . S
H1602 C1628 0.950 . S
H1603 C1630 0.950 . S
H1604 C1633 0.950 . S
H1605 C1634 0.950 . S
H1606 C1636 0.950 . S
H1607 C1637 0.950 . S
C1608 H1590 0.951 . S
C1608 C1609 1.366 . S
C1608 C1610 1.388 . S
C1609 C1608 1.366 . S
C1609 C1613 1.385 . S
C1610 H1591 0.951 . S
C1610 C1608 1.388 . S
C1610 C1611 1.366 . S
C1611 C1610 1.366 . S
C1611 C1612 1.414 . S
C1611 C1614 1.499 . S
C1612 H1592 0.950 . S
C1612 C1611 1.414 . S
C1612 C1613 1.374 . S
C1613 H1593 0.950 . S
C1613 C1609 1.385 . S
C1613 C1612 1.374 . S
C1614 C1611 1.499 . S
C1614 C1615 1.373 . S
C1614 C1616 1.389 . S
C1615 H1594 0.950 . S
C1615 C1614 1.373 . S
C1615 C1631 1.377 . S
C1616 C1614 1.389 . S
C1616 C1617 1.524 . S
C1616 C1630 1.377 . S
C1617 C1616 1.524 . S
C1617 C1618 1.397 . S
C1617 C1622 1.363 . S
C1618 H1595 0.950 . S
C1618 C1617 1.397 . S
C1618 C1619 1.334 . S
C1619 H1596 0.950 . S
C1619 C1618 1.334 . S
C1619 C1620 1.287 . S
C1620 C1619 1.287 . S
C1620 C1621 1.524 . S
C1620 H1639 0.913 . S
C1621 H1597 0.950 . S
C1621 C1620 1.524 . S
C1621 C1622 1.415 . S
C1622 H1598 0.950 . S
C1622 C1617 1.363 . S
C1622 C1621 1.415 . S
C1623 H1599 0.951 . S
C1623 C1624 1.366 . S
C1623 C1625 1.388 . S
C1624 C1623 1.366 . S
C1624 C1628 1.385 . S
C1625 H1600 0.951 . S
C1625 C1623 1.388 . S
C1625 C1626 1.366 . S
C1626 C1625 1.366 . S
C1626 C1627 1.414 . S
C1626 C1629 1.499 . S
C1627 H1601 0.950 . S
C1627 C1626 1.414 . S
C1627 C1628 1.374 . S
C1628 H1602 0.950 . S
C1628 C1624 1.385 . S
C1628 C1627 1.374 . S
C1629 C1626 1.499 . S
C1629 C1630 1.373 . S
C1629 C1631 1.389 . S
C1630 H1603 0.950 . S
C1630 C1616 1.377 . S
C1630 C1629 1.373 . S
C1631 C1615 1.377 . S
C1631 C1629 1.389 . S
C1631 C1632 1.524 . S
C1632 C1631 1.524 . S
C1632 C1633 1.397 . S
C1632 C1637 1.363 . S
C1633 H1604 0.950 . S
C1633 C1632 1.397 . S
C1633 C1634 1.334 . S
C1634 H1605 0.950 . S
C1634 C1633 1.334 . S
C1634 C1635 1.287 . S
C1635 C1634 1.287 . S
C1635 C1636 1.524 . S
C1635 H1638 0.999 . S
C1636 H1606 0.950 . S
C1636 C1635 1.524 . S
C1636 C1637 1.415 . S
C1637 H1607 0.950 . S
C1637 C1632 1.363 . S
C1637 C1636 1.415 . S
H1638 C1635 0.999 . S
H1639 C1620 0.913 . S
H1640 C1658 0.951 . S
H1641 C1660 0.951 . S
H1642 C1662 0.950 . S
H1643 C1663 0.950 . S
H1644 C1665 0.950 . S
H1645 C1668 0.950 . S
H1646 C1669 0.950 . S
H1647 C1671 0.950 . S
H1648 C1672 0.950 . S
H1649 C1673 0.951 . S
H1650 C1675 0.951 . S
H1651 C1677 0.950 . S
H1652 C1678 0.950 . S
H1653 C1680 0.950 . S
H1654 C1683 0.950 . S
H1655 C1684 0.950 . S
H1656 C1686 0.950 . S
H1657 C1687 0.950 . S
C1658 H1640 0.951 . S
C1658 C1659 1.366 . S
C1658 C1660 1.388 . S
C1659 C1658 1.366 . S
C1659 C1663 1.385 . S
C1660 H1641 0.951 . S
C1660 C1658 1.388 . S
C1660 C1661 1.366 . S
C1661 C1660 1.366 . S
C1661 C1662 1.414 . S
C1661 C1664 1.499 . S
C1662 H1642 0.950 . S
C1662 C1661 1.414 . S
C1662 C1663 1.374 . S
C1663 H1643 0.950 . S
C1663 C1659 1.385 . S
C1663 C1662 1.374 . S
C1664 C1661 1.499 . S
C1664 C1665 1.373 . S
C1664 C1666 1.389 . S
C1665 H1644 0.950 . S
C1665 C1664 1.373 . S
C1665 C1681 1.377 . S
C1666 C1664 1.389 . S
C1666 C1667 1.524 . S
C1666 C1680 1.377 . S
C1667 C1666 1.524 . S
C1667 C1668 1.397 . S
C1667 C1672 1.363 . S
C1668 H1645 0.950 . S
C1668 C1667 1.397 . S
C1668 C1669 1.334 . S
C1669 H1646 0.950 . S
C1669 C1668 1.334 . S
C1669 C1670 1.287 . S
C1670 C1669 1.287 . S
C1670 C1671 1.524 . S
C1670 H1689 0.913 . S
C1671 H1647 0.950 . S
C1671 C1670 1.524 . S
C1671 C1672 1.415 . S
C1672 H1648 0.950 . S
C1672 C1667 1.363 . S
C1672 C1671 1.415 . S
C1673 H1649 0.951 . S
C1673 C1674 1.366 . S
C1673 C1675 1.388 . S
C1674 C1673 1.366 . S
C1674 C1678 1.385 . S
C1675 H1650 0.951 . S
C1675 C1673 1.388 . S
C1675 C1676 1.366 . S
C1676 C1675 1.366 . S
C1676 C1677 1.414 . S
C1676 C1679 1.499 . S
C1677 H1651 0.950 . S
C1677 C1676 1.414 . S
C1677 C1678 1.374 . S
C1678 H1652 0.950 . S
C1678 C1674 1.385 . S
C1678 C1677 1.374 . S
C1679 C1676 1.499 . S
C1679 C1680 1.373 . S
C1679 C1681 1.389 . S
C1680 H1653 0.950 . S
C1680 C1666 1.377 . S
C1680 C1679 1.373 . S
C1681 C1665 1.377 . S
C1681 C1679 1.389 . S
C1681 C1682 1.524 . S
C1682 C1681 1.524 . S
C1682 C1683 1.397 . S
C1682 C1687 1.363 . S
C1683 H1654 0.950 . S
C1683 C1682 1.397 . S
C1683 C1684 1.334 . S
C1684 H1655 0.950 . S
C1684 C1683 1.334 . S
C1684 C1685 1.287 . S
C1685 C1684 1.287 . S
C1685 C1686 1.524 . S
C1685 H1688 0.999 . S
C1686 H1656 0.950 . S
C1686 C1685 1.524 . S
C1686 C1687 1.415 . S
C1687 H1657 0.950 . S
C1687 C1682 1.363 . S
C1687 C1686 1.415 . S
H1688 C1685 0.999 . S
H1689 C1670 0.913 . S
H1690 C1708 0.951 . S
H1691 C1710 0.951 . S
H1692 C1712 0.950 . S
H1693 C1713 0.950 . S
H1694 C1715 0.950 . S
H1695 C1718 0.950 . S
H1696 C1719 0.950 . S
H1697 C1721 0.950 . S
H1698 C1722 0.950 . S
H1699 C1723 0.951 . S
H1700 C1725 0.951 . S
H1701 C1727 0.950 . S
H1702 C1728 0.950 . S
H1703 C1730 0.950 . S
H1704 C1733 0.950 . S
H1705 C1734 0.950 . S
H1706 C1736 0.950 . S
H1707 C1737 0.950 . S
C1708 H1690 0.951 . S
C1708 C1709 1.366 . S
C1708 C1710 1.388 . S
C1709 C1708 1.366 . S
C1709 C1713 1.385 . S
C1710 H1691 0.951 . S
C1710 C1708 1.388 . S
C1710 C1711 1.366 . S
C1711 C1710 1.366 . S
C1711 C1712 1.414 . S
C1711 C1714 1.499 . S
C1712 H1692 0.950 . S
C1712 C1711 1.414 . S
C1712 C1713 1.374 . S
C1713 H1693 0.950 . S
C1713 C1709 1.385 . S
C1713 C1712 1.374 . S
C1714 C1711 1.499 . S
C1714 C1715 1.373 . S
C1714 C1716 1.389 . S
C1715 H1694 0.950 . S
C1715 C1714 1.373 . S
C1715 C1731 1.377 . S
C1716 C1714 1.389 . S
C1716 C1717 1.524 . S
C1716 C1730 1.377 . S
C1717 C1716 1.524 . S
C1717 C1718 1.397 . S
C1717 C1722 1.363 . S
C1718 H1695 0.950 . S
C1718 C1717 1.397 . S
C1718 C1719 1.334 . S
C1719 H1696 0.950 . S
C1719 C1718 1.334 . S
C1719 C1720 1.287 . S
C1720 C1719 1.287 . S
C1720 C1721 1.524 . S
C1720 H1739 0.913 . S
C1721 H1697 0.950 . S
C1721 C1720 1.524 . S
C1721 C1722 1.415 . S
C1722 H1698 0.950 . S
C1722 C1717 1.363 . S
C1722 C1721 1.415 . S
C1723 H1699 0.951 . S
C1723 C1724 1.366 . S
C1723 C1725 1.388 . S
C1724 C1723 1.366 . S
C1724 C1728 1.385 . S
C1725 H1700 0.951 . S
C1725 C1723 1.388 . S
C1725 C1726 1.366 . S
C1726 C1725 1.366 . S
C1726 C1727 1.414 . S
C1726 C1729 1.499 . S
C1727 H1701 0.950 . S
C1727 C1726 1.414 . S
C1727 C1728 1.374 . S
C1728 H1702 0.950 . S
C1728 C1724 1.385 . S
C1728 C1727 1.374 . S
C1729 C1726 1.499 . S
C1729 C1730 1.373 . S
C1729 C1731 1.389 . S
C1730 H1703 0.950 . S
C1730 C1716 1.377 . S
C1730 C1729 1.373 . S
C1731 C1715 1.377 . S
C1731 C1729 1.389 . S
C1731 C1732 1.524 . S
C1732 C1731 1.524 . S
C1732 C1733 1.397 . S
C1732 C1737 1.363 . S
C1733 H1704 0.950 . S
C1733 C1732 1.397 . S
C1733 C1734 1.334 . S
C1734 H1705 0.950 . S
C1734 C1733 1.334 . S
C1734 C1735 1.287 . S
C1735 C1734 1.287 . S
C1735 C1736 1.524 . S
C1735 H1738 0.999 . S
C1736 H1706 0.950 . S
C1736 C1735 1.524 . S
C1736 C1737 1.415 . S
C1737 H1707 0.950 . S
C1737 C1732 1.363 . S
C1737 C1736 1.415 . S
H1738 C1735 0.999 . S
H1739 C1720 0.913 . S
H1740 C1758 0.951 . S
H1741 C1760 0.951 . S
H1742 C1762 0.950 . S
H1743 C1763 0.950 . S
H1744 C1765 0.950 . S
H1745 C1768 0.950 . S
H1746 C1769 0.950 . S
H1747 C1771 0.950 . S
H1748 C1772 0.950 . S
H1749 C1773 0.951 . S
H1750 C1775 0.951 . S
H1751 C1777 0.950 1_455 S
H1752 C1778 0.950 . S
H1753 C1780 0.950 . S
H1754 C1783 0.950 . S
H1755 C1784 0.950 . S
H1756 C1786 0.950 1_556 S
H1757 C1787 0.950 . S
C1758 H1740 0.951 . S
C1758 C1759 1.366 . S
C1758 C1760 1.388 . S
C1759 C1758 1.366 . S
C1759 C1763 1.385 . S
C1760 H1741 0.951 . S
C1760 C1758 1.388 . S
C1760 C1761 1.366 . S
C1761 C1760 1.366 . S
C1761 C1762 1.414 . S
C1761 C1764 1.499 . S
C1762 H1742 0.950 . S
C1762 C1761 1.414 . S
C1762 C1763 1.374 . S
C1763 H1743 0.950 . S
C1763 C1759 1.385 . S
C1763 C1762 1.374 . S
C1764 C1761 1.499 . S
C1764 C1765 1.373 . S
C1764 C1766 1.389 . S
C1765 H1744 0.950 . S
C1765 C1764 1.373 . S
C1765 C1781 1.377 . S
C1766 C1764 1.389 . S
C1766 C1767 1.524 . S
C1766 C1780 1.377 . S
C1767 C1766 1.524 . S
C1767 C1768 1.397 . S
C1767 C1772 1.363 . S
C1768 H1745 0.950 . S
C1768 C1767 1.397 . S
C1768 C1769 1.334 . S
C1769 H1746 0.950 . S
C1769 C1768 1.334 . S
C1769 C1770 1.287 . S
C1770 C1769 1.287 . S
C1770 C1771 1.524 . S
C1770 H1789 0.913 . S
C1771 H1747 0.950 . S
C1771 C1770 1.524 . S
C1771 C1772 1.415 . S
C1772 H1748 0.950 . S
C1772 C1767 1.363 . S
C1772 C1771 1.415 . S
C1773 H1749 0.951 . S
C1773 C1774 1.366 . S
C1773 C1775 1.388 . S
C1774 C1773 1.366 . S
C1774 C1778 1.385 . S
C1775 H1750 0.951 . S
C1775 C1773 1.388 . S
C1775 C1776 1.366 . S
C1776 C1775 1.366 . S
C1776 C1777 1.414 . S
C1776 C1779 1.499 1_655 S
C1777 H1751 0.950 1_655 S
C1777 C1776 1.414 . S
C1777 C1778 1.374 . S
C1778 H1752 0.950 . S
C1778 C1774 1.385 . S
C1778 C1777 1.374 . S
C1779 C1776 1.499 1_455 S
C1779 C1780 1.373 . S
C1779 C1781 1.389 . S
C1780 H1753 0.950 . S
C1780 C1766 1.377 . S
C1780 C1779 1.373 . S
C1781 C1765 1.377 . S
C1781 C1779 1.389 . S
C1781 C1782 1.524 . S
C1782 C1781 1.524 . S
C1782 C1783 1.397 . S
C1782 C1787 1.363 . S
C1783 H1754 0.950 . S
C1783 C1782 1.397 . S
C1783 C1784 1.334 . S
C1784 H1755 0.950 . S
C1784 C1783 1.334 . S
C1784 C1785 1.287 . S
C1785 C1784 1.287 . S
C1785 C1786 1.524 . S
C1785 H1788 0.999 1_554 S
C1786 H1756 0.950 1_554 S
C1786 C1785 1.524 . S
C1786 C1787 1.415 . S
C1787 H1757 0.950 . S
C1787 C1782 1.363 . S
C1787 C1786 1.415 . S
H1788 C1785 0.999 1_556 S
H1789 C1770 0.913 . S
H1790 C1808 0.951 . S
H1791 C1810 0.951 . S
H1792 C1812 0.950 . S
H1793 C1813 0.950 . S
H1794 C1815 0.950 . S
H1795 C1818 0.950 . S
H1796 C1819 0.950 . S
H1797 C1821 0.950 . S
H1798 C1822 0.950 . S
H1799 C1823 0.951 . S
H1800 C1825 0.951 . S
H1801 C1827 0.950 . S
H1802 C1828 0.950 . S
H1803 C1830 0.950 . S
H1804 C1833 0.950 . S
H1805 C1834 0.950 . S
H1806 C1836 0.950 . S
H1807 C1837 0.950 . S
C1808 H1790 0.951 . S
C1808 C1809 1.366 . S
C1808 C1810 1.388 . S
C1809 C1808 1.366 . S
C1809 C1813 1.385 . S
C1810 H1791 0.951 . S
C1810 C1808 1.388 . S
C1810 C1811 1.366 . S
C1811 C1810 1.366 . S
C1811 C1812 1.414 . S
C1811 C1814 1.499 . S
C1812 H1792 0.950 . S
C1812 C1811 1.414 . S
C1812 C1813 1.374 . S
C1813 H1793 0.950 . S
C1813 C1809 1.385 . S
C1813 C1812 1.374 . S
C1814 C1811 1.499 . S
C1814 C1815 1.373 . S
C1814 C1816 1.389 . S
C1815 H1794 0.950 . S
C1815 C1814 1.373 . S
C1815 C1831 1.377 . S
C1816 C1814 1.389 . S
C1816 C1817 1.524 . S
C1816 C1830 1.377 . S
C1817 C1816 1.524 . S
C1817 C1818 1.397 . S
C1817 C1822 1.363 . S
C1818 H1795 0.950 . S
C1818 C1817 1.397 . S
C1818 C1819 1.334 . S
C1819 H1796 0.950 . S
C1819 C1818 1.334 . S
C1819 C1820 1.287 . S
C1820 C1819 1.287 . S
C1820 C1821 1.524 . S
C1820 H1839 0.913 . S
C1821 H1797 0.950 . S
C1821 C1820 1.524 . S
C1821 C1822 1.415 . S
C1822 H1798 0.950 . S
C1822 C1817 1.363 . S
C1822 C1821 1.415 . S
C1823 H1799 0.951 . S
C1823 C1824 1.366 . S
C1823 C1825 1.388 . S
C1824 C1823 1.366 . S
C1824 C1828 1.385 . S
C1825 H1800 0.951 . S
C1825 C1823 1.388 . S
C1825 C1826 1.366 . S
C1826 C1825 1.366 . S
C1826 C1827 1.414 . S
C1826 C1829 1.499 . S
C1827 H1801 0.950 . S
C1827 C1826 1.414 . S
C1827 C1828 1.374 . S
C1828 H1802 0.950 . S
C1828 C1824 1.385 . S
C1828 C1827 1.374 . S
C1829 C1826 1.499 . S
C1829 C1830 1.373 . S
C1829 C1831 1.389 . S
C1830 H1803 0.950 . S
C1830 C1816 1.377 . S
C1830 C1829 1.373 . S
C1831 C1815 1.377 . S
C1831 C1829 1.389 . S
C1831 C1832 1.524 . S
C1832 C1831 1.524 . S
C1832 C1833 1.397 . S
C1832 C1837 1.363 . S
C1833 H1804 0.950 . S
C1833 C1832 1.397 . S
C1833 C1834 1.334 . S
C1834 H1805 0.950 . S
C1834 C1833 1.334 . S
C1834 C1835 1.287 . S
C1835 C1834 1.287 . S
C1835 C1836 1.524 . S
C1835 H1838 0.999 . S
C1836 H1806 0.950 . S
C1836 C1835 1.524 . S
C1836 C1837 1.415 . S
C1837 H1807 0.950 . S
C1837 C1832 1.363 . S
C1837 C1836 1.415 . S
H1838 C1835 0.999 . S
H1839 C1820 0.913 . S
H1840 C1858 0.951 . S
H1841 C1860 0.951 . S
H1842 C1862 0.950 . S
H1843 C1863 0.950 . S
H1844 C1865 0.950 . S
H1845 C1868 0.950 . S
H1846 C1869 0.950 . S
H1847 C1871 0.950 . S
H1848 C1872 0.950 . S
H1849 C1873 0.951 . S
H1850 C1875 0.951 . S
H1851 C1877 0.950 . S
H1852 C1878 0.950 . S
H1853 C1880 0.950 . S
H1854 C1883 0.950 . S
H1855 C1884 0.950 . S
H1856 C1886 0.950 . S
H1857 C1887 0.950 . S
C1858 H1840 0.951 . S
C1858 C1859 1.366 . S
C1858 C1860 1.388 . S
C1859 C1858 1.366 . S
C1859 C1863 1.385 . S
C1860 H1841 0.951 . S
C1860 C1858 1.388 . S
C1860 C1861 1.366 . S
C1861 C1860 1.366 . S
C1861 C1862 1.414 . S
C1861 C1864 1.499 . S
C1862 H1842 0.950 . S
C1862 C1861 1.414 . S
C1862 C1863 1.374 . S
C1863 H1843 0.950 . S
C1863 C1859 1.385 . S
C1863 C1862 1.374 . S
C1864 C1861 1.499 . S
C1864 C1865 1.373 . S
C1864 C1866 1.389 . S
C1865 H1844 0.950 . S
C1865 C1864 1.373 . S
C1865 C1881 1.377 . S
C1866 C1864 1.389 . S
C1866 C1867 1.524 . S
C1866 C1880 1.377 . S
C1867 C1866 1.524 . S
C1867 C1868 1.397 . S
C1867 C1872 1.363 . S
C1868 H1845 0.950 . S
C1868 C1867 1.397 . S
C1868 C1869 1.334 . S
C1869 H1846 0.950 . S
C1869 C1868 1.334 . S
C1869 C1870 1.287 . S
C1870 C1869 1.287 . S
C1870 C1871 1.524 . S
C1870 H1889 0.913 . S
C1871 H1847 0.950 . S
C1871 C1870 1.524 . S
C1871 C1872 1.415 . S
C1872 H1848 0.950 . S
C1872 C1867 1.363 . S
C1872 C1871 1.415 . S
C1873 H1849 0.951 . S
C1873 C1874 1.366 . S
C1873 C1875 1.388 . S
C1874 C1873 1.366 . S
C1874 C1878 1.385 . S
C1875 H1850 0.951 . S
C1875 C1873 1.388 . S
C1875 C1876 1.366 . S
C1876 C1875 1.366 . S
C1876 C1877 1.414 . S
C1876 C1879 1.499 . S
C1877 H1851 0.950 . S
C1877 C1876 1.414 . S
C1877 C1878 1.374 . S
C1878 H1852 0.950 . S
C1878 C1874 1.385 . S
C1878 C1877 1.374 . S
C1879 C1876 1.499 . S
C1879 C1880 1.373 . S
C1879 C1881 1.389 . S
C1880 H1853 0.950 . S
C1880 C1866 1.377 . S
C1880 C1879 1.373 . S
C1881 C1865 1.377 . S
C1881 C1879 1.389 . S
C1881 C1882 1.524 . S
C1882 C1881 1.524 . S
C1882 C1883 1.397 . S
C1882 C1887 1.363 . S
C1883 H1854 0.950 . S
C1883 C1882 1.397 . S
C1883 C1884 1.334 . S
C1884 H1855 0.950 . S
C1884 C1883 1.334 . S
C1884 C1885 1.287 . S
C1885 C1884 1.287 . S
C1885 C1886 1.524 . S
C1885 H1888 0.999 . S
C1886 H1856 0.950 . S
C1886 C1885 1.524 . S
C1886 C1887 1.415 . S
C1887 H1857 0.950 . S
C1887 C1882 1.363 . S
C1887 C1886 1.415 . S
H1888 C1885 0.999 . S
H1889 C1870 0.913 . S
H1890 C1908 0.951 . S
H1891 C1910 0.951 . S
H1892 C1912 0.950 . S
H1893 C1913 0.950 . S
H1894 C1915 0.950 . S
H1895 C1918 0.950 . S
H1896 C1919 0.950 . S
H1897 C1921 0.950 . S
H1898 C1922 0.950 . S
H1899 C1923 0.951 . S
H1900 C1925 0.951 . S
H1901 C1927 0.950 . S
H1902 C1928 0.950 . S
H1903 C1930 0.950 . S
H1904 C1933 0.950 . S
H1905 C1934 0.950 . S
H1906 C1936 0.950 . S
H1907 C1937 0.950 . S
C1908 H1890 0.951 . S
C1908 C1909 1.366 . S
C1908 C1910 1.388 . S
C1909 C1908 1.366 . S
C1909 C1913 1.385 . S
C1910 H1891 0.951 . S
C1910 C1908 1.388 . S
C1910 C1911 1.366 . S
C1911 C1910 1.366 . S
C1911 C1912 1.414 . S
C1911 C1914 1.499 . S
C1912 H1892 0.950 . S
C1912 C1911 1.414 . S
C1912 C1913 1.374 . S
C1913 H1893 0.950 . S
C1913 C1909 1.385 . S
C1913 C1912 1.374 . S
C1914 C1911 1.499 . S
C1914 C1915 1.373 . S
C1914 C1916 1.389 . S
C1915 H1894 0.950 . S
C1915 C1914 1.373 . S
C1915 C1931 1.377 . S
C1916 C1914 1.389 . S
C1916 C1917 1.524 . S
C1916 C1930 1.377 . S
C1917 C1916 1.524 . S
C1917 C1918 1.397 . S
C1917 C1922 1.363 . S
C1918 H1895 0.950 . S
C1918 C1917 1.397 . S
C1918 C1919 1.334 . S
C1919 H1896 0.950 . S
C1919 C1918 1.334 . S
C1919 C1920 1.287 . S
C1920 C1919 1.287 . S
C1920 C1921 1.524 . S
C1920 H1939 0.913 . S
C1921 H1897 0.950 . S
C1921 C1920 1.524 . S
C1921 C1922 1.415 . S
C1922 H1898 0.950 . S
C1922 C1917 1.363 . S
C1922 C1921 1.415 . S
C1923 H1899 0.951 . S
C1923 C1924 1.366 . S
C1923 C1925 1.388 . S
C1924 C1923 1.366 . S
C1924 C1928 1.385 . S
C1925 H1900 0.951 . S
C1925 C1923 1.388 . S
C1925 C1926 1.366 . S
C1926 C1925 1.366 . S
C1926 C1927 1.414 . S
C1926 C1929 1.499 . S
C1927 H1901 0.950 . S
C1927 C1926 1.414 . S
C1927 C1928 1.374 . S
C1928 H1902 0.950 . S
C1928 C1924 1.385 . S
C1928 C1927 1.374 . S
C1929 C1926 1.499 . S
C1929 C1930 1.373 . S
C1929 C1931 1.389 . S
C1930 H1903 0.950 . S
C1930 C1916 1.377 . S
C1930 C1929 1.373 . S
C1931 C1915 1.377 . S
C1931 C1929 1.389 . S
C1931 C1932 1.524 . S
C1932 C1931 1.524 . S
C1932 C1933 1.397 . S
C1932 C1937 1.363 . S
C1933 H1904 0.950 . S
C1933 C1932 1.397 . S
C1933 C1934 1.334 . S
C1934 H1905 0.950 . S
C1934 C1933 1.334 . S
C1934 C1935 1.287 . S
C1935 C1934 1.287 . S
C1935 C1936 1.524 . S
C1935 H1938 0.999 . S
C1936 H1906 0.950 . S
C1936 C1935 1.524 . S
C1936 C1937 1.415 . S
C1937 H1907 0.950 . S
C1937 C1932 1.363 . S
C1937 C1936 1.415 . S
H1938 C1935 0.999 . S
H1939 C1920 0.913 . S
H1940 C1958 0.951 . S
H1941 C1960 0.951 . S
H1942 C1962 0.950 . S
H1943 C1963 0.950 . S
H1944 C1965 0.950 . S
H1945 C1968 0.950 . S
H1946 C1969 0.950 . S
H1947 C1971 0.950 . S
H1948 C1972 0.950 . S
H1949 C1973 0.951 . S
H1950 C1975 0.951 . S
H1951 C1977 0.950 . S
H1952 C1978 0.950 . S
H1953 C1980 0.950 . S
H1954 C1983 0.950 . S
H1955 C1984 0.950 . S
H1956 C1986 0.950 . S
H1957 C1987 0.950 . S
C1958 H1940 0.951 . S
C1958 C1959 1.366 . S
C1958 C1960 1.388 . S
C1959 C1958 1.366 . S
C1959 C1963 1.385 . S
C1960 H1941 0.951 . S
C1960 C1958 1.388 . S
C1960 C1961 1.366 . S
C1961 C1960 1.366 . S
C1961 C1962 1.414 . S
C1961 C1964 1.499 . S
C1962 H1942 0.950 . S
C1962 C1961 1.414 . S
C1962 C1963 1.374 . S
C1963 H1943 0.950 . S
C1963 C1959 1.385 . S
C1963 C1962 1.374 . S
C1964 C1961 1.499 . S
C1964 C1965 1.373 . S
C1964 C1966 1.389 . S
C1965 H1944 0.950 . S
C1965 C1964 1.373 . S
C1965 C1981 1.377 . S
C1966 C1964 1.389 . S
C1966 C1967 1.524 . S
C1966 C1980 1.377 . S
C1967 C1966 1.524 . S
C1967 C1968 1.397 . S
C1967 C1972 1.363 . S
C1968 H1945 0.950 . S
C1968 C1967 1.397 . S
C1968 C1969 1.334 . S
C1969 H1946 0.950 . S
C1969 C1968 1.334 . S
C1969 C1970 1.287 1_556 S
C1970 C1969 1.287 1_554 S
C1970 C1971 1.524 . S
C1970 H1989 0.913 . S
C1971 H1947 0.950 . S
C1971 C1970 1.524 . S
C1971 C1972 1.415 1_554 S
C1972 H1948 0.950 . S
C1972 C1967 1.363 . S
C1972 C1971 1.415 1_556 S
C1973 H1949 0.951 . S
C1973 C1974 1.366 . S
C1973 C1975 1.388 . S
C1974 C1973 1.366 . S
C1974 C1978 1.385 . S
C1975 H1950 0.951 . S
C1975 C1973 1.388 . S
C1975 C1976 1.366 . S
C1976 C1975 1.366 . S
C1976 C1977 1.414 . S
C1976 C1979 1.499 . S
C1977 H1951 0.950 . S
C1977 C1976 1.414 . S
C1977 C1978 1.374 . S
C1978 H1952 0.950 . S
C1978 C1974 1.385 . S
C1978 C1977 1.374 . S
C1979 C1976 1.499 . S
C1979 C1980 1.373 . S
C1979 C1981 1.389 . S
C1980 H1953 0.950 . S
C1980 C1966 1.377 . S
C1980 C1979 1.373 . S
C1981 C1965 1.377 . S
C1981 C1979 1.389 . S
C1981 C1982 1.524 . S
C1982 C1981 1.524 . S
C1982 C1983 1.397 . S
C1982 C1987 1.363 . S
C1983 H1954 0.950 . S
C1983 C1982 1.397 . S
C1983 C1984 1.334 . S
C1984 H1955 0.950 . S
C1984 C1983 1.334 . S
C1984 C1985 1.287 . S
C1985 C1984 1.287 . S
C1985 C1986 1.524 . S
C1985 H1988 0.999 . S
C1986 H1956 0.950 . S
C1986 C1985 1.524 . S
C1986 C1987 1.415 . S
C1987 H1957 0.950 . S
C1987 C1982 1.363 . S
C1987 C1986 1.415 . S
H1988 C1985 0.999 . S
H1989 C1970 0.913 . S
H1990 C2008 0.951 . S
H1991 C2010 0.951 . S
H1992 C2012 0.950 . S
H1993 C2013 0.950 . S
H1994 C2015 0.950 . S
H1995 C2018 0.950 1_545 S
H1996 C2019 0.950 . S
H1997 C2021 0.950 . S
H1998 C2022 0.942 1_545 S
H1999 C2023 0.951 . S
H2000 C2025 0.951 . S
H2001 C2027 0.950 . S
H2002 C2028 0.950 . S
H2003 C2030 0.950 . S
H2004 C2033 0.947 . S
H2005 C2034 0.950 . S
H2006 C2036 0.950 . S
H2007 C2037 0.950 . S
C2008 H1990 0.951 . S
C2008 C2009 1.366 . S
C2008 C2010 1.388 1_565 S
C2009 C2008 1.366 . S
C2009 C2013 1.385 1_565 S
C2010 H1991 0.951 . S
C2010 C2008 1.388 1_545 S
C2010 C2011 1.366 . S
C2011 C2010 1.366 . S
C2011 C2012 1.414 . S
C2011 C2014 1.499 . S
C2012 H1992 0.950 . S
C2012 C2011 1.414 . S
C2012 C2013 1.374 . S
C2013 H1993 0.950 . S
C2013 C2009 1.385 1_545 S
C2013 C2012 1.374 . S
C2014 C2011 1.499 . S
C2014 C2015 1.373 . S
C2014 C2016 1.389 . S
C2015 H1994 0.950 . S
C2015 C2014 1.373 . S
C2015 C2031 1.377 . S
C2016 C2014 1.389 . S
C2016 C2017 1.524 . S
C2016 C2030 1.377 1_655 S
C2017 C2016 1.524 . S
C2017 C2018 1.397 1_545 S
C2017 C2022 1.363 1_645 S
C2018 H1995 0.950 1_565 S
C2018 C2017 1.397 1_565 S
C2018 C2019 1.334 . S
C2019 H1996 0.950 . S
C2019 C2018 1.334 . S
C2019 C2020 1.287 . S
C2020 C2019 1.287 . S
C2020 C2021 1.524 1_655 S
C2020 H2039 0.913 . S
C2021 H1997 0.950 . S
C2021 C2020 1.524 1_455 S
C2021 C2022 1.415 . S
C2022 H1998 0.942 1_565 S
C2022 C2017 1.363 1_465 S
C2022 C2021 1.415 . S
C2023 H1999 0.951 . S
C2023 C2024 1.366 . S
C2023 C2025 1.388 . S
C2024 C2023 1.366 . S
C2024 C2028 1.385 . S
C2025 H2000 0.951 . S
C2025 C2023 1.388 . S
C2025 C2026 1.366 . S
C2026 C2025 1.366 . S
C2026 C2027 1.414 . S
C2026 C2029 1.499 . S
C2027 H2001 0.950 . S
C2027 C2026 1.414 . S
C2027 C2028 1.374 . S
C2028 H2002 0.950 . S
C2028 C2024 1.385 . S
C2028 C2027 1.374 . S
C2029 C2026 1.499 . S
C2029 C2030 1.373 . S
C2029 C2031 1.389 1_455 S
C2030 H2003 0.950 . S
C2030 C2016 1.377 1_455 S
C2030 C2029 1.373 . S
C2031 C2015 1.377 . S
C2031 C2029 1.389 1_655 S
C2031 C2032 1.524 . S
C2032 C2031 1.524 . S
C2032 C2033 1.397 . S
C2032 C2037 1.363 . S
C2033 H2004 0.947 . S
C2033 C2032 1.397 . S
C2033 C2034 1.334 . S
C2034 H2005 0.950 . S
C2034 C2033 1.334 . S
C2034 C2035 1.287 . S
C2035 C2034 1.287 . S
C2035 C2036 1.524 . S
C2035 H2038 0.999 . S
C2036 H2006 0.950 . S
C2036 C2035 1.524 . S
C2036 C2037 1.415 . S
C2037 H2007 0.950 . S
C2037 C2032 1.363 . S
C2037 C2036 1.415 . S
H2038 C2035 0.999 . S
H2039 C2020 0.913 . S
C259 C9 1.474 . S
C274 C226 1.486 . S
C309 C189 1.576 . S
C324 C29 1.567 . S
C359 C46 1.154 . S
C374 C166 1.146 . S
C409 C69 1.397 . S
C424 C206 1.362 . S
C459 C86 1.483 . S
C474 C209 1.512 1_545 S
C509 C109 1.498 1_455 S
C524 C229 1.514 . S
C559 C186 1.537 . S
C574 C129 1.545 . S
C609 C146 1.366 . S
C624 C169 1.388 . S
C659 C66 1.469 . S
C674 C89 1.490 . S
C709 C6 1.224 . S
C724 C106 1.238 . S
C759 C26 1.187 . S
C774 C126 1.168 1_556 S
C809 C149 1.810 . S
C824 C49 1.803 1_554 S
C859 C8 1.429 . S
C874 C176 1.435 . S
C909 C28 1.386 . S
C924 C216 1.383 . S
C959 C236 1.875 . S
C974 C59 1.839 . S
C1009 C68 1.659 . S
C1024 C181 1.706 . S
C1059 C99 1.761 . S
C1074 C196 1.823 . S
C1109 C161 1.589 . S
C1124 C108 1.535 . S
C1159 C201 1.529 . S
C1174 C128 1.491 . S
C1209 C221 1.741 . S
C1224 C159 1.652 . S
C1259 C16 1.181 . S
C1274 C79 1.135 . S
C1309 C19 1.323 . S
C1324 C36 1.354 . S
C1359 C39 1.087 . S
C1374 C41 1.134 . S
C1409 C76 1.346 . S
C1424 C48 1.377 1_554 S
C1459 C119 1.588 . S
C1474 C81 1.670 . S
C1509 C116 1.923 . S
C1524 C139 1.841 . S
C1559 C136 1.702 . S
C1574 C148 1.712 . S
C1609 C88 2.067 . S
C1624 C141 2.092 . S
C1659 C168 1.518 . S
C1674 C61 1.581 . S
C1709 C101 1.756 . S
C1724 C188 1.714 . S
C1759 C179 1.196 . S
C1774 C121 1.271 . S
C1809 C219 1.438 . S
C1824 C156 1.503 . S
C1859 C96 1.457 . S
C1874 C239 1.419 . S
C1909 C228 1.596 . S
C1924 C21 1.601 . S
C1959 C56 1.580 . S
C1974 C199 1.545 1_565 S
C2009 C208 1.390 . S
C2024 C1 1.436 . S
