# Generated by pormake.
# Topology unf, (4)-cn, num edge types: 1
# Building blocks:
#     Node 0, Type 0, BuildingBlock: KUFVIS_clean_sbu_0, # of connection points: 4
#     Node 1, Type 0, BuildingBlock: KUFVIS_clean_sbu_0, # of connection points: 4
#     Node 2, Type 0, BuildingBlock: KUFVIS_clean_sbu_0, # of connection points: 4
#     Node 3, Type 0, BuildingBlock: KUFVIS_clean_sbu_0, # of connection points: 4
#     Node 4, Type 0, BuildingBlock: KUFVIS_clean_sbu_0, # of connection points: 4
#     Node 5, Type 0, BuildingBlock: KUFVIS_clean_sbu_0, # of connection points: 4
#     Node 6, Type 0, BuildingBlock: KUFVIS_clean_sbu_0, # of connection points: 4
#     Node 7, Type 0, BuildingBlock: KUFVIS_clean_sbu_0, # of connection points: 4
#     Node 8, Type 0, BuildingBlock: KUFVIS_clean_sbu_0, # of connection points: 4
#     Node 9, Type 0, BuildingBlock: KUFVIS_clean_sbu_0, # of connection points: 4
#     Node 10, Type 0, BuildingBlock: KUFVIS_clean_sbu_0, # of connection points: 4
#     Node 11, Type 0, BuildingBlock: KUFVIS_clean_sbu_0, # of connection points: 4
#     Edge 12, Type (0, 0), BuildingBlock: UVAHIK_clean_linker_0, # of connection points: 2
#     Edge 13, Type (0, 0), BuildingBlock: UVAHIK_clean_linker_0, # of connection points: 2
#     Edge 14, Type (0, 0), BuildingBlock: UVAHIK_clean_linker_0, # of connection points: 2
#     Edge 15, Type (0, 0), BuildingBlock: UVAHIK_clean_linker_0, # of connection points: 2
#     Edge 16, Type (0, 0), BuildingBlock: UVAHIK_clean_linker_0, # of connection points: 2
#     Edge 17, Type (0, 0), BuildingBlock: UVAHIK_clean_linker_0, # of connection points: 2
#     Edge 18, Type (0, 0), BuildingBlock: UVAHIK_clean_linker_0, # of connection points: 2
#     Edge 19, Type (0, 0), BuildingBlock: UVAHIK_clean_linker_0, # of connection points: 2
#     Edge 20, Type (0, 0), BuildingBlock: UVAHIK_clean_linker_0, # of connection points: 2
#     Edge 21, Type (0, 0), BuildingBlock: UVAHIK_clean_linker_0, # of connection points: 2
#     Edge 22, Type (0, 0), BuildingBlock: UVAHIK_clean_linker_0, # of connection points: 2
#     Edge 23, Type (0, 0), BuildingBlock: UVAHIK_clean_linker_0, # of connection points: 2
#     Edge 24, Type (0, 0), BuildingBlock: UVAHIK_clean_linker_0, # of connection points: 2
#     Edge 25, Type (0, 0), BuildingBlock: UVAHIK_clean_linker_0, # of connection points: 2
#     Edge 26, Type (0, 0), BuildingBlock: UVAHIK_clean_linker_0, # of connection points: 2
#     Edge 27, Type (0, 0), BuildingBlock: UVAHIK_clean_linker_0, # of connection points: 2
#     Edge 28, Type (0, 0), BuildingBlock: UVAHIK_clean_linker_0, # of connection points: 2
#     Edge 29, Type (0, 0), BuildingBlock: UVAHIK_clean_linker_0, # of connection points: 2
#     Edge 30, Type (0, 0), BuildingBlock: UVAHIK_clean_linker_0, # of connection points: 2
#     Edge 31, Type (0, 0), BuildingBlock: UVAHIK_clean_linker_0, # of connection points: 2
#     Edge 32, Type (0, 0), BuildingBlock: UVAHIK_clean_linker_0, # of connection points: 2
#     Edge 33, Type (0, 0), BuildingBlock: UVAHIK_clean_linker_0, # of connection points: 2
#     Edge 34, Type (0, 0), BuildingBlock: UVAHIK_clean_linker_0, # of connection points: 2
#     Edge 35, Type (0, 0), BuildingBlock: UVAHIK_clean_linker_0, # of connection points: 2
# Relax obj value: 0.237
# Max RMSD: 0.187
# Mean RMSD: 0.183
data_MOF--net-unf--node1-KUFVIS_clean_sbu_0--edge1-UVAHIK_clean_linker_0
_symmetry_space_group_name_H-M    P1
_symmetry_Int_Tables_number       1
_symmetry_cell_setting            triclinic
loop_
_symmetry_equiv_pos_as_xyz
'x, y, z'
_cell_length_a     48.890811
_cell_length_b     49.739153
_cell_length_c     45.897117
_cell_angle_alpha  90.091141
_cell_angle_beta   89.811169
_cell_angle_gamma 119.43885
loop_
_atom_site_label
_atom_site_type_symbol
_atom_site_fract_x
_atom_site_fract_y
_atom_site_fract_z
_atom_type_partial_charge
Mn0 Mn 0.04531 0.36814 0.09626 0.0
Mn1 Mn 0.02091 0.2997 0.1301 0.0
C2 C 0.00512 0.324 0.07652 0.0
C3 C 0.04311 0.41312 0.0887 0.0
C4 C 0.07747 0.32867 0.09038 0.0
O5 O 0.06642 0.38156 0.1356 0.0
O6 O 0.04891 0.33474 0.15575 0.0
C7 C 0.98142 0.30819 0.17412 0.0
N8 N 0.98441 0.29119 0.15233 0.0
C9 C 0.92997 0.25242 0.15641 0.0
C10 C 0.92634 0.26942 0.17902 0.0
C11 C 0.95217 0.29746 0.18786 0.0
C12 C 0.95966 0.26432 0.14349 0.0
H13 H 0.00119 0.32979 0.18091 0.0
C14 C 0.0653 0.36423 0.15647 0.0
O15 O 0.06782 0.41121 0.08151 0.0
O16 O 0.02083 0.38974 0.10235 0.0
N17 N 0.9938 0.26315 0.10872 0.0
C18 C 0.00142 0.24925 0.087 0.0
C19 C 0.97824 0.22089 0.07572 0.0
C20 C 0.94769 0.20677 0.08732 0.0
C21 C 0.94066 0.22101 0.1103 0.0
C22 C 0.96477 0.24921 0.12073 0.0
H23 H 0.02494 0.25988 0.07817 0.0
O24 O 0.02051 0.34864 0.06093 0.0
O25 O 0.01245 0.32612 0.10409 0.0
O26 O 0.07612 0.35318 0.08499 0.0
O27 O 0.05793 0.3069 0.10685 0.0
C28 C 0.91064 0.20849 0.12311 0.0
C29 C 0.90526 0.22424 0.14607 0.0
H30 H 0.90382 0.26122 0.18967 0.0
H31 H 0.94952 0.31077 0.20521 0.0
H32 H 0.98391 0.20994 0.05813 0.0
H33 H 0.92984 0.18497 0.07847 0.0
H34 H 0.89147 0.18683 0.11536 0.0
H35 H 0.88204 0.21446 0.15563 0.0
Mn36 Mn 0.62979 0.69265 0.08318 0.0
Mn37 Mn 0.70165 0.74522 0.10751 0.0
C38 C 0.67394 0.69655 0.06125 0.0
C39 C 0.58651 0.64331 0.08396 0.0
C40 C 0.66266 0.76145 0.06778 0.0
O41 O 0.61968 0.70504 0.12223 0.0
O42 O 0.66876 0.73898 0.13652 0.0
C43 C 0.70511 0.70803 0.15615 0.0
N44 N 0.71755 0.72452 0.13128 0.0
C45 C 0.76178 0.71587 0.13348 0.0
C46 C 0.74956 0.69894 0.15923 0.0
C47 C 0.72107 0.69495 0.17057 0.0
C48 C 0.74486 0.72839 0.1201 0.0
H49 H 0.68317 0.70484 0.16487 0.0
C50 C 0.63895 0.72443 0.14045 0.0
O51 O 0.58453 0.66655 0.07348 0.0
O52 O 0.6129 0.64928 0.09591 0.0
N53 N 0.73614 0.75409 0.08206 0.0
C54 C 0.7443 0.77037 0.05665 0.0
C55 C 0.77198 0.77599 0.04219 0.0
C56 C 0.79122 0.76526 0.05424 0.0
C57 C 0.78272 0.7492 0.08076 0.0
C58 C 0.75494 0.74442 0.09424 0.0
H59 H 0.72964 0.77875 0.04734 0.0
O60 O 0.64726 0.68368 0.04781 0.0
O61 O 0.67406 0.70613 0.08773 0.0
O62 O 0.63907 0.73429 0.06589 0.0
O63 O 0.68718 0.76802 0.08272 0.0
C64 C 0.80037 0.73719 0.09406 0.0
C65 C 0.78986 0.72046 0.12035 0.0
H66 H 0.76174 0.68874 0.17037 0.0
H67 H 0.71141 0.6818 0.19036 0.0
H68 H 0.77842 0.78847 0.02177 0.0
H69 H 0.81238 0.76935 0.04286 0.0
H70 H 0.82186 0.74036 0.08406 0.0
H71 H 0.80345 0.71104 0.13019 0.0
Mn72 Mn 0.31725 0.92661 0.09557 0.0
Mn73 Mn 0.33363 0.86922 0.08438 0.0
C74 C 0.36874 0.93761 0.09145 0.0
C75 C 0.30629 0.96349 0.0766 0.0
C76 C 0.30789 0.8789 0.14141 0.0
O77 O 0.27641 0.89163 0.08012 0.0
O78 O 0.29123 0.85646 0.06811 0.0
C79 C 0.33746 0.8685 0.02004 0.0
N80 N 0.35139 0.87234 0.04654 0.0
C81 C 0.40032 0.88298 0.02424 0.0
C82 C 0.3865 0.87914 0.99672 0.0
C83 C 0.35493 0.87183 0.99463 0.0
C84 C 0.38164 0.879 0.04882 0.0
H85 H 0.31327 0.86311 0.01832 0.0
C86 C 0.27127 0.86622 0.06845 0.0
O87 O 0.29811 0.9533 0.10303 0.0
O88 O 0.32039 0.95202 0.06125 0.0
N89 N 0.37454 0.88039 0.09885 0.0
C90 C 0.38495 0.88554 0.12689 0.0
C91 C 0.41642 0.8943 0.13269 0.0
C92 C 0.43687 0.89777 0.10963 0.0
C93 C 0.42564 0.89243 0.08094 0.0
C94 C 0.39397 0.88348 0.07651 0.0
H95 H 0.36941 0.8832 0.14467 0.0
O96 O 0.36208 0.9564 0.10542 0.0
O97 O 0.34478 0.91254 0.08201 0.0
O98 O 0.30968 0.90455 0.1346 0.0
O99 O 0.31571 0.8637 0.12408 0.0
C100 C 0.44478 0.89625 0.05654 0.0
C101 C 0.43211 0.89144 0.02821 0.0
H102 H 0.39999 0.88206 0.97705 0.0
H103 H 0.34413 0.86896 0.97347 0.0
H104 H 0.42496 0.89853 0.15488 0.0
H105 H 0.4612 0.9048 0.11418 0.0
H106 H 0.46938 0.90321 0.05929 0.0
H107 H 0.44715 0.89478 0.00961 0.0
Mn108 Mn 0.59785 0.92404 0.41039 0.0
Mn109 Mn 0.52323 0.8671 0.41758 0.0
C110 C 0.55768 0.93569 0.41122 0.0
C111 C 0.64433 0.9608 0.43184 0.0
C112 C 0.56263 0.87674 0.36322 0.0
O113 O 0.60209 0.88888 0.42767 0.0
O114 O 0.55123 0.85362 0.43647 0.0
C115 C 0.51367 0.86531 0.48141 0.0
N116 N 0.50603 0.87008 0.45412 0.0
C117 C 0.46732 0.88203 0.47316 0.0
C118 C 0.47487 0.87737 0.50147 0.0
C119 C 0.49809 0.8689 0.5056 0.0
C120 C 0.48337 0.87774 0.44987 0.0
H121 H 0.53168 0.85904 0.48471 0.0
C122 C 0.58088 0.86331 0.43831 0.0
O123 O 0.64423 0.95036 0.40583 0.0
O124 O 0.61763 0.9495 0.44533 0.0
N125 N 0.49513 0.87906 0.40054 0.0
C126 C 0.49193 0.88441 0.37199 0.0
C127 C 0.47024 0.89392 0.3642 0.0
C128 C 0.45219 0.89796 0.38584 0.0
C129 C 0.45597 0.89241 0.41509 0.0
C130 C 0.47775 0.88271 0.42151 0.0
H131 H 0.50597 0.88164 0.3553 0.0
O132 O 0.58396 0.95401 0.39811 0.0
O133 O 0.55548 0.9103 0.42118 0.0
O134 O 0.58618 0.90208 0.37116 0.0
O135 O 0.53825 0.8617 0.37909 0.0
C136 C 0.43938 0.89664 0.43816 0.0
C137 C 0.44502 0.89142 0.46717 0.0
H138 H 0.46314 0.88044 0.5202 0.0
H139 H 0.50408 0.86533 0.52738 0.0
H140 H 0.46757 0.89829 0.34159 0.0
H141 H 0.43567 0.90554 0.37976 0.0
H142 H 0.42243 0.90418 0.43387 0.0
H143 H 0.43234 0.89503 0.48475 0.0
Mn144 Mn 0.05882 0.69343 0.42224 0.0
Mn145 Mn 0.04067 0.74643 0.39686 0.0
C146 C 0.01821 0.69766 0.44305 0.0
C147 C 0.05208 0.64381 0.42196 0.0
C148 C 0.09511 0.76221 0.43755 0.0
O149 O 0.08218 0.7057 0.38355 0.0
O150 O 0.06745 0.73972 0.36843 0.0
C151 C 0.00053 0.70957 0.34782 0.0
N152 N 0.0044 0.7261 0.37264 0.0
C153 C 0.95179 0.7181 0.36959 0.0
C154 C 0.94729 0.70115 0.34389 0.0
C155 C 0.97175 0.69682 0.333 0.0
C156 C 0.981 0.73031 0.38336 0.0
H157 H 0.01925 0.70612 0.33945 0.0
C158 C 0.08264 0.72502 0.36502 0.0
O159 O 0.07724 0.66687 0.43275 0.0
O160 O 0.03221 0.65012 0.40935 0.0
N161 N 0.01494 0.75565 0.42182 0.0
C162 C 0.02277 0.77175 0.44734 0.0
C163 C 0.00067 0.77759 0.46142 0.0
C164 C 0.97096 0.76724 0.44892 0.0
C165 C 0.9637 0.75132 0.42233 0.0
C166 C 0.98673 0.74631 0.40923 0.0
H167 H 0.0456 0.77981 0.457 0.0
O168 O 0.03156 0.68467 0.45705 0.0
O169 O 0.02843 0.70726 0.41675 0.0
O170 O 0.09112 0.73492 0.43985 0.0
O171 O 0.07764 0.76895 0.42207 0.0
C172 C 0.93428 0.73964 0.40861 0.0
C173 C 0.92831 0.72297 0.38231 0.0
H174 H 0.9251 0.69118 0.33245 0.0
H175 H 0.96841 0.68365 0.31325 0.0
H176 H 0.00648 0.78994 0.48191 0.0
H177 H 0.95386 0.77148 0.46001 0.0
H178 H 0.91595 0.74299 0.41831 0.0
H179 H 0.90548 0.71379 0.37216 0.0
Mn180 Mn 0.31409 0.36997 0.40118 0.0
Mn181 Mn 0.26892 0.30181 0.36734 0.0
C182 C 0.31058 0.32557 0.41977 0.0
C183 C 0.36156 0.4147 0.40835 0.0
C184 C 0.24269 0.33058 0.40886 0.0
O185 O 0.30531 0.38379 0.36248 0.0
O186 O 0.2752 0.33705 0.34241 0.0
C187 C 0.31555 0.31072 0.32168 0.0
N188 N 0.29633 0.29358 0.34386 0.0
C189 C 0.31271 0.25542 0.33873 0.0
C190 C 0.33253 0.27256 0.31571 0.0
C191 C 0.334 0.30036 0.3072 0.0
C192 C 0.29495 0.26694 0.3524 0.0
H193 H 0.31685 0.33216 0.31516 0.0
C194 C 0.2884 0.36655 0.34186 0.0
O195 O 0.3352 0.41286 0.41641 0.0
O196 O 0.35998 0.39148 0.394 0.0
N197 N 0.26023 0.26513 0.38815 0.0
C198 C 0.23905 0.25079 0.41002 0.0
C199 C 0.23454 0.22253 0.42095 0.0
C200 C 0.25129 0.20897 0.40885 0.0
C201 C 0.27203 0.22356 0.38559 0.0
C202 C 0.27545 0.25163 0.37553 0.0
H203 H 0.22596 0.26102 0.41928 0.0
O204 O 0.32025 0.34997 0.4358 0.0
O205 O 0.3046 0.32808 0.39252 0.0
O206 O 0.26876 0.35505 0.41369 0.0
O207 O 0.2398 0.30881 0.392 0.0
C208 C 0.28957 0.21145 0.37209 0.0
C209 C 0.30998 0.22743 0.34875 0.0
H210 H 0.34679 0.26465 0.30448 0.0
H211 H 0.34933 0.31378 0.28953 0.0
H212 H 0.21826 0.21127 0.43872 0.0
H213 H 0.24795 0.18731 0.41751 0.0
H214 H 0.2876 0.18991 0.37954 0.0
H215 H 0.32344 0.21795 0.33862 0.0
Mn216 Mn 0.94525 0.62778 0.89934 0.0
Mn217 Mn 0.96832 0.69497 0.86397 0.0
C218 C 0.98775 0.67222 0.91567 0.0
C219 C 0.94699 0.5828 0.90835 0.0
C220 C 0.91518 0.66897 0.90717 0.0
O221 O 0.9221 0.61286 0.86124 0.0
O222 O 0.93626 0.65915 0.84115 0.0
C223 C 0.00072 0.68241 0.8156 0.0
N224 N 0.00144 0.70076 0.83799 0.0
C225 C 0.05587 0.73706 0.82878 0.0
C226 C 0.05565 0.71864 0.80552 0.0
C227 C 0.02796 0.69118 0.79894 0.0
C228 C 0.02798 0.72719 0.84455 0.0
H229 H 0.97954 0.66123 0.81051 0.0
C230 C 0.92045 0.62956 0.84111 0.0
O231 O 0.923 0.58563 0.91627 0.0
O232 O 0.96867 0.60512 0.89314 0.0
N233 N -0.00078 0.73173 0.88285 0.0
C234 C -0.00438 0.74674 0.90616 0.0
C235 C 0.02127 0.77446 0.91581 0.0
C236 C 0.05019 0.78672 0.90113 0.0
C237 C 0.05312 0.77127 0.87677 0.0
C238 C 0.0267 0.74378 0.86809 0.0
H239 H 0.9735 0.73736 0.91759 0.0
O240 O 0.97244 0.649 0.93299 0.0
O241 O 0.97827 0.66876 0.88869 0.0
O242 O 0.91543 0.64371 0.91117 0.0
O243 O 0.93487 0.69084 0.89093 0.0
C244 C 0.08136 0.78179 0.86104 0.0
C245 C 0.08274 0.76468 0.83709 0.0
H246 H 0.07664 0.72528 0.79267 0.0
H247 H 0.02764 0.67677 0.7811 0.0
H248 H 0.0188 0.78628 0.93459 0.0
H249 H 0.07 0.80797 0.90879 0.0
H250 H 0.10221 0.80289 0.86733 0.0
H251 H 0.10465 0.77289 0.8253 0.0
Mn252 Mn 0.37172 0.30452 0.93605 0.0
Mn253 Mn 0.30388 0.25973 0.90034 0.0
C254 C 0.32541 0.29964 0.95366 0.0
C255 C 0.41583 0.35242 0.94341 0.0
C256 C 0.33472 0.23424 0.94061 0.0
O257 O 0.38695 0.29698 0.89716 0.0
O258 O 0.34037 0.27057 0.87429 0.0
C259 C 0.30842 0.30674 0.85819 0.0
N260 N 0.2923 0.28587 0.87955 0.0
C261 C 0.25016 0.29769 0.87754 0.0
C262 C 0.26618 0.3191 0.85531 0.0
C263 C 0.29547 0.3237 0.84566 0.0
C264 C 0.26422 0.28144 0.88917 0.0
H265 H 0.33105 0.31051 0.85087 0.0
C266 C 0.37039 0.28344 0.87483 0.0
O267 O 0.41522 0.32721 0.95194 0.0
O268 O 0.39187 0.34942 0.92877 0.0
N269 N 0.26636 0.24736 0.92255 0.0
C270 C 0.25405 0.22601 0.9443 0.0
C271 C 0.22492 0.21891 0.95658 0.0
C272 C 0.20854 0.23349 0.94612 0.0
C273 C 0.22128 0.25478 0.92321 0.0
C274 C 0.25029 0.26076 0.91168 0.0
H275 H 0.26648 0.21465 0.9524 0.0
O276 O 0.34975 0.30947 0.97035 0.0
O277 O 0.32913 0.29404 0.92665 0.0
O278 O 0.35772 0.26017 0.94839 0.0
O279 O 0.31392 0.23135 0.92209 0.0
C280 C 0.20651 0.27058 0.91159 0.0
C281 C 0.221 0.29211 0.88885 0.0
H282 H 0.25631 0.33229 0.84565 0.0
H283 H 0.30806 0.34033 0.82864 0.0
H284 H 0.21516 0.20232 0.97415 0.0
H285 H 0.18623 0.22819 0.95585 0.0
H286 H 0.18413 0.26655 0.92016 0.0
H287 H 0.20956 0.30433 0.8803 0.0
Mn288 Mn 0.68319 0.06758 0.90248 0.0
Mn289 Mn 0.7244 0.03798 0.86947 0.0
C290 C 0.68231 0.02423 0.92112 0.0
C291 C 0.6381 0.07069 0.91076 0.0
C292 C 0.75395 0.09229 0.91024 0.0
O293 O 0.69272 0.08912 0.86332 0.0
O294 O 0.7219 0.06954 0.84474 0.0
C295 C 0.67794 0.00581 0.82271 0.0
N296 N 0.69567 0.00493 0.84513 0.0
C297 C 0.67546 0.95038 0.8386 0.0
C298 C 0.65713 0.95075 0.81533 0.0
C299 C 0.65832 0.97857 0.80741 0.0
C300 C 0.69447 0.97822 0.8531 0.0
H301 H 0.67869 0.0271 0.81657 0.0
C302 C 0.70983 0.08728 0.8433 0.0
O303 O 0.66554 0.0931 0.91806 0.0
O304 O 0.63728 0.04783 0.89633 0.0
N305 N 0.72905 0.00701 0.89004 0.0
C306 C 0.74866 0.01066 0.91259 0.0
C307 C 0.75052 0.98506 0.92297 0.0
C308 C 0.73263 0.95609 0.90977 0.0
C309 C 0.71326 0.95304 0.88609 0.0
C310 C 0.71255 0.97943 0.87656 0.0
H311 H 0.7625 0.03286 0.92278 0.0
O312 O 0.6755 0.04139 0.9374 0.0
O313 O 0.68892 0.03238 0.8939 0.0
O314 O 0.72913 0.09426 0.91388 0.0
O315 O 0.75506 0.07131 0.89496 0.0
C316 C 0.69449 0.92481 0.8717 0.0
C317 C 0.67549 0.92345 0.84805 0.0
H318 H 0.64199 0.92979 0.80346 0.0
H319 H 0.64416 0.97903 0.78955 0.0
H320 H 0.76563 0.98764 0.94118 0.0
H321 H 0.73395 0.93635 0.91796 0.0
H322 H 0.69438 0.90398 0.87873 0.0
H323 H 0.66103 0.90158 0.83725 0.0
Mn324 Mn 0.38245 0.0721 0.59635 0.0
Mn325 Mn 0.31138 0.04394 0.62884 0.0
C326 C 0.34053 0.02707 0.57957 0.0
C327 C 0.43152 0.07664 0.58988 0.0
C328 C 0.33583 0.09522 0.58445 0.0
O329 O 0.3937 0.09659 0.6341 0.0
O330 O 0.34511 0.0761 0.65325 0.0
C331 C 0.32462 0.0131 0.67756 0.0
N332 N 0.30637 0.01165 0.6546 0.0
C333 C 0.2714 0.95747 0.66262 0.0
C334 C 0.2897 0.95843 0.68648 0.0
C335 C 0.31648 0.98636 0.69392 0.0
C336 C 0.28077 0.98483 0.64705 0.0
H337 H 0.34529 0.03447 0.68331 0.0
C338 C 0.37475 0.0947 0.65417 0.0
O339 O 0.42536 0.09775 0.58073 0.0
O340 O 0.40998 0.05425 0.60524 0.0
N341 N 0.27596 0.0125 0.60845 0.0
C342 C 0.26039 0.01565 0.58528 0.0
C343 C 0.23281 0.98992 0.57529 0.0
C344 C 0.22119 0.96139 0.58954 0.0
C345 C 0.23711 0.95892 0.61384 0.0
C346 C 0.26435 0.98541 0.62293 0.0
H347 H 0.26904 0.03759 0.57439 0.0
O348 O 0.36471 0.04315 0.56311 0.0
O349 O 0.34167 0.03717 0.60603 0.0
O350 O 0.3623 0.0965 0.58115 0.0
O351 O 0.31453 0.07649 0.60188 0.0
C352 C 0.22709 0.93118 0.62931 0.0
C353 C 0.24432 0.93042 0.65359 0.0
H354 H 0.28347 0.93787 0.69918 0.0
H355 H 0.3308 0.98726 0.71223 0.0
H356 H 0.22054 0.99206 0.55663 0.0
H357 H 0.19999 0.94156 0.58169 0.0
H358 H 0.20625 0.91026 0.62264 0.0
H359 H 0.23649 0.90891 0.66521 0.0
Mn360 Mn 0.92422 0.30292 0.56586 0.0
Mn361 Mn 0.94975 0.26063 0.60247 0.0
C362 C 0.96665 0.29952 0.54867 0.0
C363 C 0.92647 0.3501 0.55795 0.0
C364 C 0.89335 0.23257 0.56218 0.0
O365 O 0.90147 0.29545 0.60466 0.0
O366 O 0.92242 0.26993 0.62782 0.0
C367 C 0.99006 0.3089 0.64468 0.0
N368 N 0.98666 0.28819 0.6236 0.0
C369 C 0.04126 0.30245 0.62665 0.0
C370 C 0.04529 0.32374 0.64859 0.0
C371 C 0.01959 0.32703 0.65758 0.0
C372 C 0.01128 0.28502 0.61462 0.0
H373 H 0.97042 0.31164 0.6515 0.0
C374 C 0.90462 0.28208 0.62704 0.0
O375 O 0.90236 0.32447 0.54943 0.0
O376 O 0.94788 0.34791 0.57261 0.0
N377 N 0.97655 0.24975 0.58104 0.0
C378 C 0.96875 0.22827 0.55955 0.0
C379 C 0.99188 0.22231 0.548 0.0
C380 C 0.02264 0.23815 0.55892 0.0
C381 C 0.02991 0.25956 0.58154 0.0
C382 C 0.00583 0.26435 0.59236 0.0
H383 H 0.94513 0.21596 0.55112 0.0
O384 O 0.95134 0.30811 0.53162 0.0
O385 O 0.95744 0.29416 0.5757 0.0
O386 O 0.89474 0.2579 0.55444 0.0
O387 O 0.91234 0.23101 0.58034 0.0
C388 C 0.0602 0.2766 0.59355 0.0
C389 C 0.0659 0.29811 0.61602 0.0
H390 H 0.06805 0.33782 0.65854 0.0
H391 H 0.02256 0.34354 0.67437 0.0
H392 H 0.98603 0.20563 0.53064 0.0
H393 H 0.04048 0.2337 0.54976 0.0
H394 H 0.07934 0.27354 0.58549 0.0
H395 H 0.08934 0.31128 0.62489 0.0
Mn396 Mn 0.67289 0.62263 0.59866 0.0
Mn397 Mn 0.7162 0.69023 0.63368 0.0
C398 C 0.67274 0.6663 0.58294 0.0
C399 C 0.62668 0.57692 0.59036 0.0
C400 C 0.74372 0.66526 0.58968 0.0
O401 O 0.68281 0.60837 0.63634 0.0
O402 O 0.71377 0.65497 0.6565 0.0
C403 C 0.67192 0.67709 0.68276 0.0
N404 N 0.68886 0.69546 0.6601 0.0
C405 C 0.66967 0.73087 0.6696 0.0
C406 C 0.65217 0.71243 0.69314 0.0
C407 C 0.65327 0.6854 0.69971 0.0
C408 C 0.6879 0.72147 0.65355 0.0
H409 H 0.67259 0.65624 0.68783 0.0
C410 C 0.70097 0.62544 0.65643 0.0
O411 O 0.6536 0.5805 0.58172 0.0
O412 O 0.62706 0.59889 0.60594 0.0
N413 N 0.72073 0.72644 0.61468 0.0
C414 C 0.73861 0.74144 0.591 0.0
C415 C 0.73972 0.76872 0.58129 0.0
C416 C 0.72283 0.78054 0.59626 0.0
C417 C 0.70517 0.76509 0.62097 0.0
C418 C 0.70508 0.73807 0.62971 0.0
H419 H 0.75152 0.73239 0.57933 0.0
O420 O 0.66514 0.64324 0.56549 0.0
O421 O 0.6798 0.66314 0.60963 0.0
O422 O 0.71849 0.63975 0.58572 0.0
O423 O 0.74559 0.68676 0.60629 0.0
C424 C 0.68724 0.77515 0.63698 0.0
C425 C 0.66946 0.75803 0.66125 0.0
H426 H 0.63768 0.7187 0.70622 0.0
H427 H 0.63974 0.67098 0.71778 0.0
H428 H 0.75345 0.78052 0.56222 0.0
H429 H 0.7235 0.80142 0.58854 0.0
H430 H 0.68674 0.79588 0.63066 0.0
H431 H 0.65557 0.76586 0.67325 0.0
C432 C 0.11933 0.34371 0.0524 0.0
C433 C 0.10242 0.32481 0.07605 0.0
C434 C 0.14224 0.33949 0.03827 0.0
C435 C 0.19641 0.31011 0.04962 0.0
H436 H 0.19845 0.30657 0.96524 0.0
C437 C 0.28329 0.28265 0.99057 0.0
C438 C 0.29717 0.29903 0.96498 0.0
C439 C 0.2581 0.28413 0.00318 0.0
C440 C 0.1984 0.30785 0.98879 0.0
H441 H 0.09649 0.28678 0.10349 0.0
H442 H 0.13691 0.27978 0.07897 0.0
H443 H 0.15725 0.31276 0.98931 0.0
H444 H 0.29772 0.33154 0.93343 0.0
H445 H 0.25392 0.33481 0.95575 0.0
H446 H 0.2379 0.30609 0.04931 0.0
C447 C 0.13227 0.29777 0.07142 0.0
C448 C 0.17479 0.31131 0.00253 0.0
C449 C 0.1091 0.30174 0.08537 0.0
C450 C 0.28641 0.31784 0.95262 0.0
C451 C 0.26143 0.31968 0.96542 0.0
C452 C 0.22017 0.30697 0.03591 0.0
C453 C 0.14895 0.31653 0.04769 0.0
C454 C 0.17362 0.31247 0.03306 0.0
C455 C 0.24706 0.3029 0.99092 0.0
C456 C 0.22144 0.30578 0.00534 0.0
H457 H 0.11466 0.36159 0.04456 0.0
H458 H 0.15501 0.35444 0.02018 0.0
H459 H 0.19625 0.31137 0.07318 0.0
H460 H 0.29183 0.26852 0.00068 0.0
H461 H 0.24735 0.27062 0.02258 0.0
C462 C 0.68421 0.81762 0.05783 0.0
C463 C 0.66219 0.78681 0.05141 0.0
C464 C 0.68493 0.84171 0.0418 0.0
C465 C 0.63823 0.86163 0.9921 0.0
H466 H 0.71992 0.93225 0.97577 0.0
C467 C 0.65921 0.96704 0.92067 0.0
C468 C 0.67936 0.99576 0.93333 0.0
C469 C 0.65551 0.93992 0.93342 0.0
C470 C 0.69696 0.91268 0.9802 0.0
H471 H 0.62338 0.75715 0.02322 0.0
H472 H 0.62506 0.79938 0.99475 0.0
H473 H 0.71663 0.88752 0.00051 0.0
H474 H 0.70941 0.01901 0.97007 0.0
H475 H 0.70364 0.97174 0.99205 0.0
H476 H 0.61877 0.88708 0.97137 0.0
C477 C 0.64146 0.80485 0.01253 0.0
C478 C 0.69503 0.88712 0.9945 0.0
C479 C 0.64056 0.78066 0.02879 0.0
C480 C 0.6945 0.99705 0.95957 0.0
C481 C 0.69121 0.97011 0.97205 0.0
C482 C 0.64021 0.88716 0.97744 0.0
C483 C 0.66388 0.83565 0.0187 0.0
C484 C 0.66565 0.86158 0.00125 0.0
C485 C 0.67197 0.94134 0.95894 0.0
C486 C 0.66959 0.91314 0.97196 0.0
H487 H 0.70099 0.82324 0.07532 0.0
H488 H 0.70197 0.86517 0.04766 0.0
H489 H 0.61524 0.84242 0.99711 0.0
H490 H 0.64647 0.96563 0.90094 0.0
H491 H 0.64042 0.91797 0.923 0.0
C492 C 0.23023 0.81685 0.04621 0.0
C493 C 0.24152 0.84818 0.05252 0.0
C494 C 0.20324 0.80046 0.0294 0.0
C495 C 0.1336 0.80362 0.00157 0.0
H496 H 0.12868 0.73973 0.94983 0.0
C497 C 0.01714 0.71077 0.95374 0.0
C498 C 0.0169 0.69842 0.92624 0.0
C499 C 0.04535 0.73257 0.96622 0.0
C500 C 0.12983 0.75787 0.96371 0.0
H501 H 0.23352 0.88698 0.04603 0.0
H502 H 0.18713 0.85873 0.01602 0.0
H503 H 0.1764 0.77073 0.97731 0.0
H504 H 0.0456 0.69782 0.89057 0.0
H505 H 0.09515 0.73714 0.9117 0.0
H506 H 0.08741 0.79143 0.98721 0.0
C507 C 0.19848 0.84648 0.02469 0.0
C508 C 0.15703 0.77528 0.97995 0.0
C509 C 0.22516 0.86272 0.04188 0.0
C510 C 0.04527 0.70797 0.91137 0.0
C511 C 0.07358 0.73005 0.92372 0.0
C512 C 0.10658 0.78652 0.985 0.0
C513 C 0.18726 0.81518 0.0181 0.0
C514 C 0.15901 0.79793 -0.00045 0.0
C515 C 0.07399 0.74223 0.95154 0.0
C516 C 0.10408 0.76297 0.96636 0.0
H517 H 0.24227 0.80499 0.05424 0.0
H518 H 0.19488 0.7762 0.02537 0.0
H519 H 0.13413 0.82071 0.01654 0.0
H520 H -0.00451 0.70299 0.96587 0.0
H521 H 0.04473 0.74078 0.98793 0.0
C522 C 0.64883 0.70007 0.58883 0.0
C523 C 0.66812 0.69173 0.57308 0.0
C524 C 0.6414 0.72172 0.57743 0.0
C525 C 0.61177 0.75015 0.53935 0.0
H526 H 0.67028 0.81628 0.48925 0.0
C527 C 0.57109 0.81325 0.46029 0.0
C528 C 0.59139 0.84478 0.4551 0.0
C529 C 0.58115 0.79614 0.47676 0.0
C530 C 0.65371 0.79826 0.5035 0.0
H531 H 0.69347 0.69777 0.53274 0.0
H532 H 0.68011 0.73499 0.5124 0.0
H533 H 0.68796 0.78575 0.51621 0.0
H534 H 0.63782 0.88334 0.46378 0.0
H535 H 0.65493 0.85387 0.49315 0.0
H536 H 0.57776 0.76326 0.52731 0.0
C537 C 0.67177 0.72609 0.53406 0.0
C538 C 0.66378 0.78046 0.51867 0.0
C539 C 0.67928 0.70465 0.54556 0.0
C540 C 0.62177 0.85894 0.46698 0.0
C541 C 0.63163 0.84199 0.48378 0.0
C542 C 0.6018 0.76823 0.52446 0.0
C543 C 0.65255 0.73475 0.54975 0.0
C544 C 0.64277 0.75578 0.53629 0.0
C545 C 0.61154 0.81034 0.48877 0.0
C546 C 0.6225 0.79216 0.50594 0.0
H547 H 0.63903 0.68941 0.60966 0.0
H548 H 0.62669 0.72799 0.59015 0.0
H549 H 0.59486 0.73115 0.55252 0.0
H550 H 0.54757 0.80171 0.45136 0.0
H551 H 0.56522 0.7717 0.4797 0.0
C552 C 0.13052 0.81838 0.44672 0.0
C553 C 0.12097 0.78757 0.45391 0.0
C554 C 0.15401 0.84254 0.46259 0.0
C555 C 0.21968 0.86234 0.5135 0.0
H556 H 0.21061 0.93468 0.52622 0.0
C557 C 0.30562 0.96999 0.58209 0.0
C558 C 0.31472 -0.00174 0.56819 0.0
C559 C 0.2819 0.94252 0.57009 0.0
C560 C 0.21343 0.91462 0.52285 0.0
H561 H 0.12888 0.75797 0.48332 0.0
H562 H 0.16963 0.80037 0.51154 0.0
H563 H 0.16867 0.8896 0.50245 0.0
H564 H 0.3086 0.02024 0.53007 0.0
H565 H 0.26662 0.97244 0.50939 0.0
H566 H 0.26456 0.8877 0.53435 0.0
C567 C 0.1592 0.80577 0.49328 0.0
C568 C 0.18952 0.88885 0.50907 0.0
C569 C 0.13579 0.78148 0.47716 0.0
C570 C 0.30114 -0.00132 0.54151 0.0
C571 C 0.27721 0.97143 0.52976 0.0
C572 C 0.24353 0.8881 0.52769 0.0
C573 C 0.16835 0.83659 0.48632 0.0
C574 C 0.19266 0.86268 0.50353 0.0
C575 C 0.26711 0.94316 0.54409 0.0
C576 C 0.24087 0.9147 0.53184 0.0
H577 H 0.1199 0.82395 0.42873 0.0
H578 H 0.16103 0.86598 0.45608 0.0
H579 H 0.22294 0.84264 0.50944 0.0
H580 H 0.31674 0.96921 0.60221 0.0
H581 H 0.27461 0.92096 0.58144 0.0
C582 C 0.99373 0.28391 0.51249 0.0
C583 C -0.00488 0.30029 0.53779 0.0
C584 C 0.0211 0.2862 0.50069 0.0
C585 C 0.10478 0.33857 0.49469 0.0
H586 H 0.10878 0.26565 0.47111 0.0
C587 C 0.21773 0.34656 0.44778 0.0
C588 C 0.21457 0.3269 0.42444 0.0
C589 C 0.19139 0.34275 0.46307 0.0
C590 C 0.10789 0.28623 0.47727 0.0
H591 H 0.02572 0.33372 0.56949 0.0
H592 H 0.07403 0.33802 0.54868 0.0
H593 H 0.06186 0.25995 0.49572 0.0
H594 H 0.18116 0.2879 0.39876 0.0
H595 H 0.13505 0.28182 0.42496 0.0
H596 H 0.15025 0.36496 0.47555 0.0
C597 C 0.05173 0.32277 0.53846 0.0
C598 C 0.08114 0.28294 0.49148 0.0
C599 C 0.02424 0.32011 0.55049 0.0
C600 C 0.18442 0.30339 0.41668 0.0
C601 C 0.15801 0.29976 0.43185 0.0
C602 C 0.13141 0.34188 0.48026 0.0
C603 C 0.05032 0.3057 0.51353 0.0
C604 C 0.0793 0.30909 0.50012 0.0
C605 C 0.16122 0.31938 0.45524 0.0
C606 C 0.1332 0.31576 0.47123 0.0
H607 H 0.97143 0.26919 0.502 0.0
H608 H 0.01949 0.27329 0.48113 0.0
H609 H 0.10372 0.35908 0.50081 0.0
H610 H 0.24063 0.36471 0.45457 0.0
H611 H 0.19474 0.35793 0.48129 0.0
C612 C 0.70835 0.70583 0.0185 0.0
C613 C 0.7008 0.69619 0.04747 0.0
C614 C 0.73257 0.70383 0.00438 0.0
C615 C 0.78021 0.66455 0.00849 0.0
H616 H 0.83117 0.72709 0.95177 0.0
C617 C 0.86267 0.64729 0.93104 0.0
C618 C 0.89108 0.67313 0.92274 0.0
C619 C 0.8402 0.65092 0.94668 0.0
C620 C 0.81755 0.70962 0.96783 0.0
H621 H 0.71019 0.67431 0.08377 0.0
H622 H 0.75371 0.67205 0.05976 0.0
H623 H 0.79207 0.73265 0.97972 0.0
H624 H 0.91827 0.72308 0.92422 0.0
H625 H 0.87978 0.72946 0.9527 0.0
H626 H 0.80676 0.64235 0.99777 0.0
C627 C 0.74116 0.68131 0.04779 0.0
C628 C 0.79467 0.71255 0.98354 0.0
C629 C 0.71668 0.68309 0.06178 0.0
C630 C 0.89652 0.70273 0.93022 0.0
C631 C 0.87431 0.70636 0.94642 0.0
C632 C 0.8035 0.66193 0.99319 0.0
C633 C 0.74954 0.69185 0.01893 0.0
C634 C 0.77531 0.68977 0.0037 0.0
C635 C 0.84587 0.68048 0.95495 0.0
C636 C 0.82214 0.68415 0.97229 0.0
H637 H 0.69553 0.71501 0.00679 0.0
H638 H 0.73757 0.71121 0.98189 0.0
H639 H 0.76563 0.64639 0.02362 0.0
H640 H 0.85765 0.62419 0.92524 0.0
H641 H 0.81827 0.63048 0.95208 0.0
C642 C 0.31501 0.17736 0.94107 0.0
C643 C 0.33072 0.20609 0.95511 0.0
C644 C 0.30998 0.15055 0.95543 0.0
C645 C 0.33598 0.12391 0.0203 0.0
H646 H 0.26151 0.04603 0.00285 0.0
C647 C 0.3017 0.01098 0.08308 0.0
C648 C 0.30161 0.98836 0.06468 0.0
C649 C 0.30171 0.03687 0.07124 0.0
C650 C 0.28228 0.06771 0.00798 0.0
H651 H 0.35293 0.22933 0.99534 0.0
H652 H 0.34301 0.18262 0.02085 0.0
H653 H 0.26922 0.09324 0.9793 0.0
H654 H 0.29958 0.97391 0.01978 0.0
H655 H 0.29846 0.01867 -0.00083 0.0
H656 H 0.34843 0.09814 0.04956 0.0
C657 C 0.33556 0.18068 0.99839 0.0
C658 C 0.28696 0.09473 0.99429 0.0
C659 C 0.3412 0.20753 0.98381 0.0
C660 C 0.29976 0.99113 0.0344 0.0
C661 C 0.299 0.01658 0.02263 0.0
C662 C 0.33092 0.09701 0.03443 0.0
C663 C 0.31991 0.15178 0.98441 0.0
C664 C 0.31414 0.12316 -7e-05 0.0
C665 C 0.30078 0.04 0.04091 0.0
C666 C 0.30427 0.06869 0.02808 0.0
H667 H 0.30679 0.17562 0.91889 0.0
H668 H 0.2985 0.12893 0.94364 0.0
H669 H 0.35748 0.1451 0.02486 0.0
H670 H 0.3033 0.00941 0.10649 0.0
H671 H 0.30308 0.05474 0.08568 0.0
C672 C 0.98781 0.28671 0.03602 0.0
C673 C 0.98061 0.29629 0.0623 0.0
C674 C 0.96426 0.26289 0.01992 0.0
C675 C 0.88692 0.19569 0.0228 0.0
H676 H 0.87923 0.21563 0.94254 0.0
C677 C 0.80478 0.10764 0.93578 0.0
C678 C 0.78252 0.11533 0.92528 0.0
C679 C 0.83018 0.12886 0.95244 0.0
C680 C 0.88134 0.20977 0.96484 0.0
H681 H 0.9433 0.29017 0.09169 0.0
H682 H 0.90172 0.24743 0.06374 0.0
H683 H 0.92122 0.25408 0.97315 0.0
H684 H 0.77006 0.15153 0.92279 0.0
H685 H 0.81512 0.18892 0.95094 0.0
H686 H 0.84708 0.1512 0.01426 0.0
C687 C 0.92576 0.258 0.05606 0.0
C688 C 0.90525 0.23163 0.98227 0.0
C689 C 0.94941 0.28217 0.07206 0.0
C690 C 0.78676 0.14494 0.93077 0.0
C691 C 0.81248 0.16632 0.94677 0.0
C692 C 0.86336 0.17354 0.00513 0.0
C693 C 0.93305 0.24846 0.02972 0.0
C694 C 0.90805 0.22486 0.01143 0.0
C695 C 0.83407 0.15826 0.9581 0.0
C696 C 0.86027 0.1806 0.97614 0.0
H697 H 0.01171 0.29792 0.02781 0.0
H698 H 0.97034 0.25594 -0.00038 0.0
H699 H 0.88876 0.19006 0.04524 0.0
H700 H 0.80208 0.085 0.93191 0.0
H701 H 0.84677 0.12236 0.96091 0.0
C702 C 0.3477 0.12862 0.5407 0.0
C703 C 0.32962 0.11594 0.56601 0.0
C704 C 0.34305 0.14885 0.52327 0.0
C705 C 0.2878 0.17736 0.50689 0.0
H706 H 0.36327 0.24798 0.47711 0.0
C707 C 0.29146 0.2861 0.45853 0.0
C708 C 0.30869 0.29791 0.43274 0.0
C709 C 0.29185 0.26167 0.47297 0.0
C710 C 0.34198 0.22816 0.48493 0.0
H711 H 0.29181 0.11387 0.59244 0.0
H712 H 0.28421 0.15021 0.56221 0.0
H713 H 0.36766 0.20982 0.50675 0.0
H714 H 0.34152 0.29541 0.40267 0.0
H715 H 0.34243 0.25245 0.42806 0.0
H716 H 0.2623 0.1965 0.4855 0.0
C717 C 0.30172 0.14404 0.55573 0.0
C718 C 0.34445 0.20627 0.50192 0.0
C719 C 0.30617 0.12339 0.57313 0.0
C720 C 0.32725 0.2858 0.42203 0.0
C721 C 0.32798 0.26156 0.43668 0.0
C722 C 0.28536 0.19946 0.49002 0.0
C723 C 0.32046 0.15729 0.53082 0.0
C724 C 0.31741 0.18056 0.51304 0.0
C725 C 0.31029 0.24932 0.4623 0.0
C726 C 0.31247 0.22504 0.47892 0.0
H727 H 0.36553 0.12287 0.53419 0.0
H728 H 0.35729 0.15794 0.50383 0.0
H729 H 0.26653 0.15763 0.51483 0.0
H730 H 0.27771 0.29585 0.4675 0.0
H731 H 0.27851 0.25308 0.49296 0.0
C732 C 0.86823 0.17531 0.5551 0.0
C733 C 0.86918 0.20343 0.54873 0.0
C734 C 0.84612 0.14794 0.54183 0.0
C735 C 0.79296 0.11809 0.47852 0.0
H736 H 0.74947 0.04401 0.52548 0.0
C737 C 0.67212 0.99487 0.47398 0.0
C738 C 0.67312 0.98555 0.44528 0.0
C739 C 0.69837 0.01981 0.48627 0.0
C740 C 0.76142 0.06451 0.51208 0.0
H741 H 0.84737 0.22463 0.52343 0.0
H742 H 0.80851 0.17676 0.50065 0.0
H743 H 0.79008 0.09146 0.54755 0.0
H744 H 0.70268 0.99447 0.40717 0.0
H745 H 0.74885 0.0382 0.42879 0.0
H746 H 0.76349 0.09137 0.44331 0.0
C747 C 0.82525 0.17604 0.51558 0.0
C748 C 0.78488 0.09162 0.52465 0.0
C749 C 0.84738 0.20345 0.52884 0.0
C750 C 0.70123 0.00117 0.42934 0.0
C751 C 0.72756 0.02629 0.44164 0.0
C752 C 0.7695 0.09095 0.46593 0.0
C753 C 0.82441 0.14799 0.5219 0.0
C754 C 0.80062 0.11882 0.50811 0.0
C755 C 0.72625 0.03606 0.47014 0.0
C756 C 0.75316 0.06399 0.4827 0.0
H757 H 0.88474 0.17437 0.57017 0.0
H758 H 0.8463 0.12677 0.54691 0.0
H759 H 0.80498 0.13857 0.4651 0.0
H760 H 0.6508 0.9833 0.48685 0.0
H761 H 0.69645 0.02699 0.50812 0.0
C762 C 0.96204 0.68399 0.4404 0.0
C763 C 0.9904 0.69701 0.45576 0.0
C764 C 0.93517 0.68196 0.4533 0.0
C765 C 0.87768 0.66439 0.49041 0.0
H766 H 0.88645 0.72581 0.54729 0.0
C767 C 0.77523 0.64462 0.56531 0.0
C768 C 0.77213 0.67008 0.57392 0.0
C769 C 0.80174 0.64888 0.54999 0.0
C770 C 0.88339 0.70866 0.53115 0.0
H771 H 0.01272 0.71543 0.4972 0.0
H772 H 0.96578 0.71116 0.52023 0.0
H773 H 0.93235 0.73221 0.52094 0.0
H774 H 0.79427 0.72001 0.57314 0.0
H775 H 0.83989 0.7275 0.54519 0.0
H776 H 0.82853 0.64166 0.49948 0.0
C777 C 0.96438 0.70405 0.49773 0.0
C778 C 0.9099 0.71206 0.51636 0.0
C779 C 0.99123 0.70631 0.4847 0.0
C780 C 0.79609 0.69994 0.5669 0.0
C781 C 0.82235 0.70421 0.55101 0.0
C782 C 0.85109 0.66131 0.50477 0.0
C783 C 0.93605 0.69214 0.48211 0.0
C784 C 0.90749 0.68966 0.49622 0.0
C785 C 0.82554 0.67872 0.54235 0.0
C786 C 0.85364 0.68309 0.52575 0.0
H787 H 0.96071 0.67546 0.41842 0.0
H788 H 0.91388 0.67276 0.44052 0.0
H789 H 0.87485 0.64651 0.47526 0.0
H790 H 0.75731 0.62132 0.57074 0.0
H791 H 0.80367 0.62871 0.54446 0.0
C792 C 0.27329 0.40487 0.32404 0.0
C793 C 0.27889 0.38023 0.31816 0.0
C794 C 0.25486 0.41131 0.30509 0.0
C795 C 0.21644 0.42185 0.2574 0.0
H796 H 0.14387 0.34345 0.23747 0.0
C797 C 0.11775 0.40335 0.17568 0.0
C798 C 0.0878 0.37785 0.18073 0.0
C799 C 0.14233 0.41024 0.19514 0.0
C800 C 0.16372 0.36559 0.24317 0.0
H801 H 0.27333 0.34582 0.2862 0.0
H802 H 0.24215 0.3577 0.25274 0.0
H803 H 0.18771 0.34408 0.2623 0.0
H804 H 0.05901 0.34227 0.21181 0.0
H805 H 0.10153 0.35487 0.24613 0.0
H806 H 0.19176 0.44317 0.23821 0.0
C807 C 0.25097 0.37132 0.27242 0.0
C808 C 0.18921 0.36596 0.25692 0.0
C809 C 0.269 0.36466 0.29145 0.0
C810 C 0.08197 0.36176 0.20716 0.0
C811 C 0.10638 0.36885 0.2267 0.0
C812 C 0.19079 0.42148 0.24336 0.0
C813 C 0.24206 0.39336 0.27992 0.0
C814 C 0.21595 0.39401 0.26408 0.0
C815 C 0.1372 0.39188 0.22001 0.0
C816 C 0.16408 0.39326 0.23625 0.0
H817 H 0.28055 0.4172 0.34454 0.0
H818 H 0.24848 0.4285 0.31142 0.0
H819 H 0.2367 0.44381 0.26279 0.0
H820 H 0.12296 0.41616 0.15546 0.0
H821 H 0.16578 0.42818 0.18941 0.0
C822 C 0.59421 0.72217 0.16984 0.0
C823 C 0.62658 0.73303 0.16628 0.0
C824 C 0.58333 0.73389 0.19208 0.0
C825 C 0.60907 0.78093 0.26024 0.0
H826 H 0.5451 0.80227 0.24001 0.0
C827 C 0.53953 0.83504 0.32517 0.0
C828 C 0.56543 0.86194 0.33616 0.0
C829 C 0.54364 0.81783 0.30314 0.0
C830 C 0.56281 0.7962 0.24594 0.0
H831 H 0.67267 0.76371 0.18433 0.0
H832 H 0.65396 0.78441 0.2222 0.0
H833 H 0.55817 0.77248 0.2057 0.0
H834 H 0.6156 0.8928 0.33118 0.0
H835 H 0.62263 0.86254 0.29318 0.0
H836 H 0.61466 0.80585 0.29984 0.0
C837 C 0.63677 0.76655 0.20825 0.0
C838 C 0.57017 0.77896 0.22645 0.0
C839 C 0.64758 0.75478 0.18626 0.0
C840 C 0.59511 0.87222 0.32337 0.0
C841 C 0.59925 0.85481 0.30173 0.0
C842 C 0.60208 0.7985 0.27939 0.0
C843 C 0.60458 0.75671 0.21119 0.0
C844 C 0.59388 0.77166 0.23314 0.0
C845 C 0.57375 0.82702 0.29206 0.0
C846 C 0.57933 0.80677 0.2722 0.0
H847 H 0.57733 0.70537 0.15491 0.0
H848 H 0.55833 0.72543 0.19399 0.0
H849 H 0.62683 0.77506 0.2665 0.0
H850 H 0.51631 0.82657 0.33443 0.0
H851 H 0.52363 0.7965 0.29591 0.0
C852 C 0.29108 0.83671 0.17876 0.0
C853 C 0.29175 0.86387 0.16897 0.0
C854 C 0.27058 0.81908 0.20115 0.0
C855 C 0.19347 0.79763 0.22593 0.0
H856 H 0.21235 0.77467 0.30077 0.0
C857 C 0.10391 0.75405 0.31853 0.0
C858 C 0.10381 0.73331 0.33936 0.0
C859 C 0.12656 0.76569 0.2966 0.0
C860 C 0.20659 0.78027 0.2797 0.0
H861 H 0.27293 0.8948 0.17652 0.0
H862 H 0.23697 0.86373 0.21507 0.0
H863 H 0.25506 0.80496 0.2664 0.0
H864 H 0.12668 0.7073 0.35239 0.0
H865 H 0.16594 0.72714 0.31341 0.0
H866 H 0.14523 0.77285 0.23851 0.0
C867 C 0.25232 0.8562 0.20537 0.0
C868 C 0.23108 0.79779 0.26019 0.0
C869 C 0.27306 0.87404 0.18339 0.0
C870 C 0.12608 0.72329 0.33676 0.0
C871 C 0.14878 0.73489 0.31458 0.0
C872 C 0.16903 0.77975 0.24508 0.0
C873 C 0.25022 0.82815 0.21378 0.0
C874 C 0.22469 0.8073 0.23354 0.0
C875 C 0.14965 0.75672 0.29457 0.0
C876 C 0.1753 0.77164 0.27261 0.0
H877 H 0.30529 0.82831 0.16823 0.0
H878 H 0.26933 0.79752 0.20741 0.0
H879 H 0.188 0.80425 0.20519 0.0
H880 H 0.08714 0.7623 0.3197 0.0
H881 H 0.12666 0.78279 0.28197 0.0
C882 C 0.8986 0.62984 0.79207 0.0
C883 C 0.89615 0.61458 0.81848 0.0
C884 C 0.87291 0.61909 0.77333 0.0
C885 C 0.8156 0.58545 0.73374 0.0
H886 H 0.74581 0.58463 0.77508 0.0
C887 C 0.71305 0.58438 0.67231 0.0
C888 C 0.71124 0.6111 0.67889 0.0
C889 C 0.72931 0.57476 0.6907 0.0
C890 C 0.76486 0.58424 0.76331 0.0
H891 H 0.86556 0.57496 0.8451 0.0
H892 H 0.82042 0.55662 0.81252 0.0
H893 H 0.78894 0.58533 0.80254 0.0
H894 H 0.72246 0.64699 0.71104 0.0
H895 H 0.75021 0.62974 0.74345 0.0
H896 H 0.79223 0.58583 0.69452 0.0
C897 C 0.84231 0.57673 0.80632 0.0
C898 C 0.78942 0.58446 0.77897 0.0
C899 C 0.8682 0.58716 0.82484 0.0
C900 C 0.72362 0.62641 0.70537 0.0
C901 C 0.73936 0.61645 0.72398 0.0
C902 C 0.7908 0.58474 0.71808 0.0
C903 C 0.84417 0.59318 0.78088 0.0
C904 C 0.81554 0.5862 0.76431 0.0
C905 C 0.74342 0.59129 0.71624 0.0
C906 C 0.76579 0.58527 0.73275 0.0
H907 H 0.91989 0.65094 0.78656 0.0
H908 H 0.87491 0.63232 0.75393 0.0
H909 H 0.83547 0.58675 0.72198 0.0
H910 H 0.70385 0.57217 0.65199 0.0
H911 H 0.73205 0.55522 0.68436 0.0
C912 C 0.40883 0.27032 0.852 0.0
C913 C 0.38557 0.27892 0.84892 0.0
C914 C 0.41647 0.25721 0.82849 0.0
C915 C 0.37392 0.20931 0.76667 0.0
H916 H 0.45142 0.20946 0.74794 0.0
C917 C 0.41234 0.14642 0.67561 0.0
C918 C 0.38646 0.11657 0.67887 0.0
C919 C 0.41872 0.16905 0.69684 0.0
C920 C 0.42971 0.20936 0.75293 0.0
H921 H 0.35503 0.2843 0.81826 0.0
H922 H 0.36919 0.26266 0.77708 0.0
H923 H 0.45229 0.24843 0.78168 0.0
H924 H 0.34918 0.08612 0.70821 0.0
H925 H 0.36053 0.12528 0.74514 0.0
H926 H 0.35117 0.17036 0.73851 0.0
C927 C 0.38073 0.26491 0.79777 0.0
C928 C 0.43017 0.23153 0.77223 0.0
C929 C 0.37274 0.27748 0.82128 0.0
C930 C 0.36894 0.10904 0.70482 0.0
C931 C 0.37538 0.13148 0.72595 0.0
C932 C 0.37344 0.18724 0.74775 0.0
C933 C 0.40117 0.25287 0.80157 0.0
C934 C 0.40218 0.2316 0.77936 0.0
C935 C 0.39935 0.16202 0.72157 0.0
C936 C 0.40116 0.18668 0.74099 0.0
H937 H 0.41897 0.27109 0.87315 0.0
H938 H 0.43231 0.24818 0.83211 0.0
H939 H 0.35181 0.20823 0.77206 0.0
H940 H 0.42625 0.15286 0.65582 0.0
H941 H 0.43739 0.19244 0.69299 0.0
C942 C 0.722 0.13811 0.82121 0.0
C943 C 0.71926 0.10872 0.8183 0.0
C944 C 0.73796 0.16083 0.8 0.0
C945 C 0.76789 0.2021 0.74497 0.0
H946 H 0.84604 0.20329 0.72695 0.0
C947 C 0.85223 0.26751 0.64869 0.0
C948 C 0.88411 0.27658 0.65252 0.0
C949 C 0.83082 0.25333 0.67154 0.0
C950 C 0.8246 0.2037 0.73204 0.0
H951 H 0.72782 0.07899 0.78953 0.0
H952 H 0.75508 0.11831 0.75254 0.0
H953 H 0.80841 0.16401 0.7592 0.0
H954 H 0.91934 0.28176 0.68392 0.0
H955 H 0.88234 0.25821 0.724 0.0
H956 H 0.78446 0.24202 0.71734 0.0
C957 C 0.74573 0.12412 0.77148 0.0
C958 C 0.80276 0.1808 0.75017 0.0
C959 C 0.73004 0.10158 0.79262 0.0
C960 C 0.8948 0.27458 0.68032 0.0
C961 C 0.87358 0.26093 0.70319 0.0
C962 C 0.78985 0.2251 0.72649 0.0
C963 C 0.75122 0.15435 0.77563 0.0
C964 C 0.77402 0.17945 0.75657 0.0
C965 C 0.84115 0.24839 0.69854 0.0
C966 C 0.81843 0.22605 0.71981 0.0
H967 H 0.71391 0.14425 0.84079 0.0
H968 H 0.74182 0.18395 0.80369 0.0
H969 H 0.74593 0.20162 0.7497 0.0
H970 H 0.84339 0.26871 0.62739 0.0
H971 H 0.806 0.24394 0.66727 0.0
C972 C 0.05865 0.45843 0.05599 0.0
C973 C 0.03764 0.43753 0.07656 0.0
C974 C 0.04973 0.47589 0.0387 0.0
C975 C 0.98998 0.50041 0.02899 0.0
H976 H 0.0055 0.49534 0.94673 0.0
C977 C 0.93209 0.53863 0.94242 0.0
C978 C 0.95268 0.5588 0.92119 0.0
C979 C 0.94127 0.52161 0.96006 0.0
C980 C 0.00116 0.49714 0.96961 0.0
H981 H 0.99207 0.4207 0.09709 0.0
H982 H 0.9766 0.45119 0.067 0.0
H983 H 0.02678 0.47461 0.98269 0.0
H984 H -0.00217 0.57489 0.90003 0.0
H985 H 0.01381 0.5453 0.93077 0.0
H986 H 0.96439 0.52297 0.01592 0.0
C987 C -0.00013 0.45403 0.06409 0.0
C988 C 0.01351 0.48545 0.99023 0.0
C989 C 0.00875 0.43653 0.08135 0.0
C990 C 0.98144 0.55959 0.91625 0.0
C991 C 0.99062 0.5426 0.93389 0.0
C992 C 0.97766 0.51214 0.00836 0.0
C993 C 0.01973 0.47287 0.04175 0.0
C994 C 0.00806 0.48696 0.02015 0.0
C995 C 0.97116 0.52441 0.95676 0.0
C996 C 0.98306 0.51058 0.97844 0.0
H997 H 0.08116 0.45986 0.0519 0.0
H998 H 0.06581 0.49078 0.02208 0.0
H999 H 0.98558 0.5021 0.05188 0.0
H1000 H 0.90969 0.53738 0.94665 0.0
H1001 H 0.92545 0.50719 0.97706 0.0
C1002 C 0.53916 0.60494 0.05669 0.0
C1003 C 0.56257 0.61112 0.07744 0.0
C1004 C 0.5217 0.57537 0.04488 0.0
C1005 C 0.53028 0.50702 0.03081 0.0
H1006 H 0.44456 0.47174 0.0035 0.0
C1007 C 0.45948 0.38571 0.97742 0.0
C1008 C 0.43936 0.38307 0.95445 0.0
C1009 C 0.4761 0.4136 0.99254 0.0
C1010 C 0.46865 0.48148 0.01075 0.0
H1011 H 0.58397 0.59058 0.10416 0.0
H1012 H 0.5529 0.53882 0.08414 0.0
H1013 H 0.46697 0.51843 0.03309 0.0
H1014 H 0.42298 0.40823 0.92771 0.0
H1015 H 0.45226 0.45681 0.95379 0.0
H1016 H 0.53183 0.46992 0.00843 0.0
C1017 C 0.54871 0.557 0.0763 0.0
C1018 C 0.48144 0.50818 0.02779 0.0
C1019 C 0.56627 0.5866 0.088 0.0
C1020 C 0.43808 0.40943 0.94547 0.0
C1021 C 0.4546 0.43719 0.96058 0.0
C1022 C 0.51741 0.4802 0.01389 0.0
C1023 C 0.52717 0.55134 0.05374 0.0
C1024 C 0.51253 0.52148 0.03777 0.0
C1025 C 0.47283 0.43925 0.98495 0.0
C1026 C 0.48659 0.46739 0.00336 0.0
H1027 H 0.5358 0.62336 0.04806 0.0
H1028 H 0.50538 0.5719 0.02748 0.0
H1029 H 0.5545 0.51693 0.03769 0.0
H1030 H 0.46088 0.36578 0.9849 0.0
H1031 H 0.49005 0.41453 0.0112 0.0
C1032 C 0.42749 0.96966 0.08921 0.0
C1033 C 0.39865 0.95073 0.07551 0.0
C1034 C 0.45506 0.98495 0.07252 0.0
C1035 C 0.49984 0.03021 0.02429 0.0
H1036 H 0.51837 0.98352 0.96753 0.0
C1037 C 0.57988 0.0441 0.9148 0.0
C1038 C 0.60929 0.06722 0.92453 0.0
C1039 C 0.55356 0.03358 0.93283 0.0
C1040 C 0.51324 0.99703 0.98285 0.0
H1041 H 0.37549 0.93479 0.03382 0.0
H1042 H 0.42335 0.95981 0.00512 0.0
H1043 H 0.47575 0.95647 0.00216 0.0
H1044 H 0.63369 0.09977 0.95936 0.0
H1045 H 0.58803 0.08095 0.99107 0.0
H1046 H 0.53667 0.07092 0.00434 0.0
C1047 C 0.42496 0.96243 0.0286 0.0
C1048 C 0.48914 0.98144 0.00296 0.0
C1049 C 0.39764 0.9478 0.04508 0.0
C1050 C 0.61127 0.08189 0.95126 0.0
C1051 C 0.58504 0.07102 0.96952 0.0
C1052 C 0.52385 0.04594 0.00388 0.0
C1053 C 0.45385 0.9813 0.04208 0.0
C1054 C 0.48204 -0.00212 0.02363 0.0
C1055 C 0.55631 0.04561 0.96112 0.0
C1056 C 0.53054 0.0295 0.98266 0.0
H1057 H 0.42859 0.97296 0.1126 0.0
H1058 H 0.47718 -0.00034 0.08327 0.0
H1059 H 0.4944 0.04333 0.03984 0.0
H1060 H 0.57762 0.03263 0.89414 0.0
H1061 H 0.53146 0.01475 0.92524 0.0
C1062 C 0.53687 0.97273 0.41394 0.0
C1063 C 0.54207 0.95018 0.42705 0.0
C1064 C 0.52864 0.99108 0.43106 0.0
C1065 C 0.53468 0.01698 0.508 0.0
H1066 H 0.47419 0.04186 0.4852 0.0
C1067 C 0.46312 0.04983 0.58562 0.0
C1068 C 0.45786 0.07403 0.57717 0.0
C1069 C 0.48082 0.04124 0.5679 0.0
C1070 C 0.49156 0.0355 0.49159 0.0
H1071 H 0.5439 0.93 0.46832 0.0
H1072 H 0.52686 0.9594 0.49746 0.0
H1073 H 0.48711 0.01169 0.45145 0.0
H1074 H 0.46973 0.11028 0.54517 0.0
H1075 H 0.50012 0.0948 0.51407 0.0
H1076 H 0.53769 0.03933 0.54878 0.0
C1077 C 0.5296 0.96361 0.47421 0.0
C1078 C 0.49893 0.01822 0.4723 0.0
C1079 C 0.53836 0.94593 0.45731 0.0
C1080 C 0.47322 0.09142 0.55224 0.0
C1081 C 0.49044 0.08249 0.53429 0.0
C1082 C 0.52694 0.0338 0.52741 0.0
C1083 C 0.52575 0.98719 0.46154 0.0
C1084 C 0.51999 0.00809 0.48058 0.0
C1085 C 0.49317 0.0565 0.54135 0.0
C1086 C 0.50491 0.04272 0.51957 0.0
H1087 H 0.5405 0.97704 0.39074 0.0
H1088 H 0.52599 0.00917 0.42062 0.0
H1089 H 0.55179 0.01042 0.51477 0.0
H1090 H 0.45165 0.03607 0.60474 0.0
H1091 H 0.48266 0.0211 0.5738 0.0
C1092 C 0.95853 0.40737 0.5582 0.0
C1093 C 0.93251 0.3806 0.54745 0.0
C1094 C 0.96914 0.43565 0.54422 0.0
C1095 C 0.96901 0.46663 0.47152 0.0
H1096 H 0.00958 0.54491 0.51244 0.0
C1097 C 0.01499 0.58718 0.41791 0.0
C1098 C 0.04306 0.61152 0.429 0.0
C1099 C 0.00192 0.55767 0.4301 0.0
C1100 C -0.00134 0.5232 0.50071 0.0
H1101 H 0.89579 0.36283 0.51483 0.0
H1102 H 0.91395 0.41259 0.49067 0.0
H1103 H 0.98201 0.4971 0.54004 0.0
H1104 H 0.08085 0.6234 0.45981 0.0
H1105 H 0.05807 0.57184 0.48099 0.0
H1106 H 0.98546 0.49307 0.43212 0.0
C1107 C 0.92656 0.4115 0.50958 0.0
C1108 C 0.98274 0.4958 0.51652 0.0
C1109 C 0.9159 0.38309 0.52364 0.0
C1110 C 0.05915 0.60518 0.45083 0.0
C1111 C 0.04596 0.57574 0.46317 0.0
C1112 C 0.98474 0.49414 0.45567 0.0
C1113 C 0.95392 0.4379 0.51917 0.0
C1114 C 0.96807 0.46713 0.50218 0.0
C1115 C 0.01661 0.55206 0.45371 0.0
C1116 C 9e-05 0.52267 0.47016 0.0
H1117 H 0.97183 0.40623 0.57653 0.0
H1118 H 0.9904 0.45535 0.55214 0.0
H1119 H 0.95841 0.44495 0.45977 0.0
H1120 H 0.00207 0.59133 0.40103 0.0
H1121 H 0.97932 0.53984 0.42232 0.0
C1122 C 0.41945 0.43763 0.41435 0.0
C1123 C 0.39176 0.43856 0.42048 0.0
C1124 C 0.4461 0.45407 0.43159 0.0
C1125 C 0.48176 0.51367 0.48933 0.0
H1126 H 0.51815 0.46359 0.51434 0.0
C1127 C 0.56876 0.55263 0.58379 0.0
C1128 C 0.59701 0.55277 0.57763 0.0
C1129 C 0.54254 0.53623 0.56606 0.0
C1130 C 0.50834 0.47789 0.50745 0.0
H1131 H 0.37117 0.45972 0.44765 0.0
H1132 H 0.41756 0.4883 0.47774 0.0
H1133 H 0.47721 0.44389 0.4773 0.0
H1134 H 0.619 0.53342 0.54992 0.0
H1135 H 0.57318 0.50468 0.51907 0.0
H1136 H 0.51279 0.5476 0.51961 0.0
C1137 C 0.41877 0.47488 0.45969 0.0
C1138 C 0.48506 0.46675 0.48607 0.0
C1139 C 0.39214 0.45849 0.4424 0.0
C1140 C 0.59759 0.53382 0.55518 0.0
C1141 C 0.57132 0.51738 0.53746 0.0
C1142 C 0.50497 0.52478 0.51075 0.0
C1143 C 0.44554 0.47175 0.45527 0.0
C1144 C 0.4715 0.48451 0.47677 0.0
C1145 C 0.54404 0.51957 0.54194 0.0
C1146 C 0.51845 0.50698 0.52009 0.0
H1147 H 0.41998 0.42267 0.39744 0.0
H1148 H 0.46668 0.45186 0.42716 0.0
H1149 H 0.47201 0.52803 0.48245 0.0
H1150 H 0.56747 0.56681 0.60108 0.0
H1151 H 0.52153 0.5377 0.57046 0.0
loop_
_geom_bond_atom_site_label_1
_geom_bond_atom_site_label_2
_geom_bond_distance
_geom_bond_site_symmetry_2
_ccdc_geom_bond_type
Mn0 O5 2.095 . S
Mn0 O15 2.162 . S
Mn0 O16 2.297 . S
Mn0 O24 2.385 . S
Mn0 O25 2.209 . S
Mn0 O26 2.094 . S
Mn1 O6 2.121 . S
Mn1 N8 2.257 . S
Mn1 N17 2.282 . S
Mn1 O25 2.215 . S
Mn1 O27 2.117 . S
C2 O24 1.234 . S
C2 O25 1.283 . S
C3 O15 1.281 . S
C3 O16 1.236 . S
C4 O26 1.240 . S
C4 O27 1.264 . S
O5 Mn0 2.095 . S
O5 C14 1.250 . S
O6 Mn1 2.121 . S
O6 C14 1.258 . S
C7 N8 1.326 . S
C7 C11 1.460 1_455 S
C7 H13 0.929 . S
N8 Mn1 2.257 . S
N8 C7 1.326 . S
N8 C12 1.362 . S
C9 C10 1.258 . S
C9 C12 1.431 1_655 S
C9 C29 1.449 . S
C10 C9 1.258 . S
C10 C11 1.477 . S
C10 H30 0.931 . S
C11 C7 1.460 1_655 S
C11 C10 1.477 . S
C11 H31 0.930 . S
C12 N8 1.362 . S
C12 C9 1.431 1_455 S
C12 C22 1.476 . S
H13 C7 0.929 . S
C14 O5 1.250 . S
C14 O6 1.258 . S
O15 Mn0 2.162 . S
O15 C3 1.281 . S
O16 Mn0 2.297 . S
O16 C3 1.236 . S
N17 Mn1 2.282 . S
N17 C18 1.328 . S
N17 C22 1.318 . S
C18 N17 1.328 . S
C18 C19 1.457 . S
C18 H23 0.929 . S
C19 C18 1.457 . S
C19 C20 1.291 . S
C19 H32 0.931 1_554 S
C20 C19 1.291 . S
C20 C21 1.373 . S
C20 H33 0.929 1_455 S
C21 C20 1.373 . S
C21 C22 1.396 . S
C21 C28 1.403 1_455 S
C22 C12 1.476 . S
C22 N17 1.318 . S
C22 C21 1.396 . S
H23 C18 0.929 . S
O24 Mn0 2.385 . S
O24 C2 1.234 . S
O25 Mn0 2.209 . S
O25 Mn1 2.215 . S
O25 C2 1.283 . S
O26 Mn0 2.094 . S
O26 C4 1.240 . S
O27 Mn1 2.117 . S
O27 C4 1.264 . S
C28 C21 1.403 1_655 S
C28 C29 1.399 . S
C28 H34 0.929 . S
C29 C9 1.449 . S
C29 C28 1.399 . S
C29 H35 0.930 . S
H30 C10 0.931 . S
H31 C11 0.930 . S
H32 C19 0.931 1_556 S
H33 C20 0.929 1_655 S
H34 C28 0.929 . S
H35 C29 0.930 . S
Mn36 O41 2.095 . S
Mn36 O51 2.162 . S
Mn36 O52 2.297 . S
Mn36 O60 2.385 . S
Mn36 O61 2.209 . S
Mn36 O62 2.094 . S
Mn37 O42 2.121 . S
Mn37 N44 2.257 . S
Mn37 N53 2.282 . S
Mn37 O61 2.215 . S
Mn37 O63 2.117 . S
C38 O60 1.234 . S
C38 O61 1.283 . S
C39 O51 1.281 . S
C39 O52 1.236 . S
C40 O62 1.240 . S
C40 O63 1.264 . S
O41 Mn36 2.095 . S
O41 C50 1.250 . S
O42 Mn37 2.121 . S
O42 C50 1.258 . S
C43 N44 1.326 . S
C43 C47 1.460 . S
C43 H49 0.929 . S
N44 Mn37 2.257 . S
N44 C43 1.326 . S
N44 C48 1.362 . S
C45 C46 1.258 . S
C45 C48 1.431 . S
C45 C65 1.449 . S
C46 C45 1.258 . S
C46 C47 1.477 . S
C46 H66 0.931 . S
C47 C43 1.460 . S
C47 C46 1.477 . S
C47 H67 0.930 . S
C48 N44 1.362 . S
C48 C45 1.431 . S
C48 C58 1.476 . S
H49 C43 0.929 . S
C50 O41 1.250 . S
C50 O42 1.258 . S
O51 Mn36 2.162 . S
O51 C39 1.281 . S
O52 Mn36 2.297 . S
O52 C39 1.236 . S
N53 Mn37 2.282 . S
N53 C54 1.328 . S
N53 C58 1.318 . S
C54 N53 1.328 . S
C54 C55 1.457 . S
C54 H59 0.929 . S
C55 C54 1.457 . S
C55 C56 1.291 . S
C55 H68 0.931 1_554 S
C56 C55 1.291 . S
C56 C57 1.373 . S
C56 H69 0.929 . S
C57 C56 1.373 . S
C57 C58 1.396 . S
C57 C64 1.403 . S
C58 C48 1.476 . S
C58 N53 1.318 . S
C58 C57 1.396 . S
H59 C54 0.929 . S
O60 Mn36 2.385 . S
O60 C38 1.234 . S
O61 Mn36 2.209 . S
O61 Mn37 2.215 . S
O61 C38 1.283 . S
O62 Mn36 2.094 . S
O62 C40 1.240 . S
O63 Mn37 2.117 . S
O63 C40 1.264 . S
C64 C57 1.403 . S
C64 C65 1.399 . S
C64 H70 0.929 . S
C65 C45 1.449 . S
C65 C64 1.399 . S
C65 H71 0.930 . S
H66 C46 0.931 . S
H67 C47 0.930 . S
H68 C55 0.931 1_556 S
H69 C56 0.929 . S
H70 C64 0.929 . S
H71 C65 0.930 . S
Mn72 O77 2.095 . S
Mn72 O87 2.162 . S
Mn72 O88 2.297 . S
Mn72 O96 2.385 . S
Mn72 O97 2.209 . S
Mn72 O98 2.094 . S
Mn73 O78 2.121 . S
Mn73 N80 2.257 . S
Mn73 N89 2.282 . S
Mn73 O97 2.215 . S
Mn73 O99 2.117 . S
C74 O96 1.234 . S
C74 O97 1.283 . S
C75 O87 1.281 . S
C75 O88 1.236 . S
C76 O98 1.240 . S
C76 O99 1.264 . S
O77 Mn72 2.095 . S
O77 C86 1.250 . S
O78 Mn73 2.121 . S
O78 C86 1.258 . S
C79 N80 1.326 . S
C79 C83 1.460 1_554 S
C79 H85 0.929 . S
N80 Mn73 2.257 . S
N80 C79 1.326 . S
N80 C84 1.362 . S
C81 C82 1.258 . S
C81 C84 1.431 . S
C81 C101 1.449 . S
C82 C81 1.258 . S
C82 C83 1.477 1_554 S
C82 H102 0.931 1_554 S
C83 C79 1.460 1_556 S
C83 C82 1.477 1_556 S
C83 H103 0.930 . S
C84 N80 1.362 . S
C84 C81 1.431 . S
C84 C94 1.476 . S
H85 C79 0.929 . S
C86 O77 1.250 . S
C86 O78 1.258 . S
O87 Mn72 2.162 . S
O87 C75 1.281 . S
O88 Mn72 2.297 . S
O88 C75 1.236 . S
N89 Mn73 2.282 . S
N89 C90 1.328 . S
N89 C94 1.318 . S
C90 N89 1.328 . S
C90 C91 1.457 . S
C90 H95 0.929 . S
C91 C90 1.457 . S
C91 C92 1.291 . S
C91 H104 0.931 . S
C92 C91 1.291 . S
C92 C93 1.373 . S
C92 H105 0.929 . S
C93 C92 1.373 . S
C93 C94 1.396 . S
C93 C100 1.403 . S
C94 C84 1.476 . S
C94 N89 1.318 . S
C94 C93 1.396 . S
H95 C90 0.929 . S
O96 Mn72 2.385 . S
O96 C74 1.234 . S
O97 Mn72 2.209 . S
O97 Mn73 2.215 . S
O97 C74 1.283 . S
O98 Mn72 2.094 . S
O98 C76 1.240 . S
O99 Mn73 2.117 . S
O99 C76 1.264 . S
C100 C93 1.403 . S
C100 C101 1.399 . S
C100 H106 0.929 . S
C101 C81 1.449 . S
C101 C100 1.399 . S
C101 H107 0.930 . S
H102 C82 0.931 1_556 S
H103 C83 0.930 . S
H104 C91 0.931 . S
H105 C92 0.929 . S
H106 C100 0.929 . S
H107 C101 0.930 . S
Mn108 O113 2.095 . S
Mn108 O123 2.162 . S
Mn108 O124 2.297 . S
Mn108 O132 2.385 . S
Mn108 O133 2.209 . S
Mn108 O134 2.094 . S
Mn109 O114 2.121 . S
Mn109 N116 2.257 . S
Mn109 N125 2.282 . S
Mn109 O133 2.215 . S
Mn109 O135 2.117 . S
C110 O132 1.234 . S
C110 O133 1.283 . S
C111 O123 1.281 . S
C111 O124 1.236 . S
C112 O134 1.240 . S
C112 O135 1.264 . S
O113 Mn108 2.095 . S
O113 C122 1.250 . S
O114 Mn109 2.121 . S
O114 C122 1.258 . S
C115 N116 1.326 . S
C115 C119 1.460 . S
C115 H121 0.929 . S
N116 Mn109 2.257 . S
N116 C115 1.326 . S
N116 C120 1.362 . S
C117 C118 1.258 . S
C117 C120 1.431 . S
C117 C137 1.449 . S
C118 C117 1.258 . S
C118 C119 1.477 . S
C118 H138 0.931 . S
C119 C115 1.460 . S
C119 C118 1.477 . S
C119 H139 0.930 . S
C120 N116 1.362 . S
C120 C117 1.431 . S
C120 C130 1.476 . S
H121 C115 0.929 . S
C122 O113 1.250 . S
C122 O114 1.258 . S
O123 Mn108 2.162 . S
O123 C111 1.281 . S
O124 Mn108 2.297 . S
O124 C111 1.236 . S
N125 Mn109 2.282 . S
N125 C126 1.328 . S
N125 C130 1.318 . S
C126 N125 1.328 . S
C126 C127 1.457 . S
C126 H131 0.929 . S
C127 C126 1.457 . S
C127 C128 1.291 . S
C127 H140 0.931 . S
C128 C127 1.291 . S
C128 C129 1.373 . S
C128 H141 0.929 . S
C129 C128 1.373 . S
C129 C130 1.396 . S
C129 C136 1.403 . S
C130 C120 1.476 . S
C130 N125 1.318 . S
C130 C129 1.396 . S
H131 C126 0.929 . S
O132 Mn108 2.385 . S
O132 C110 1.234 . S
O133 Mn108 2.209 . S
O133 Mn109 2.215 . S
O133 C110 1.283 . S
O134 Mn108 2.094 . S
O134 C112 1.240 . S
O135 Mn109 2.117 . S
O135 C112 1.264 . S
C136 C129 1.403 . S
C136 C137 1.399 . S
C136 H142 0.929 . S
C137 C117 1.449 . S
C137 C136 1.399 . S
C137 H143 0.930 . S
H138 C118 0.931 . S
H139 C119 0.930 . S
H140 C127 0.931 . S
H141 C128 0.929 . S
H142 C136 0.929 . S
H143 C137 0.930 . S
Mn144 O149 2.095 . S
Mn144 O159 2.162 . S
Mn144 O160 2.297 . S
Mn144 O168 2.385 . S
Mn144 O169 2.209 . S
Mn144 O170 2.094 . S
Mn145 O150 2.121 . S
Mn145 N152 2.257 . S
Mn145 N161 2.282 . S
Mn145 O169 2.215 . S
Mn145 O171 2.117 . S
C146 O168 1.234 . S
C146 O169 1.283 . S
C147 O159 1.281 . S
C147 O160 1.236 . S
C148 O170 1.240 . S
C148 O171 1.264 . S
O149 Mn144 2.095 . S
O149 C158 1.250 . S
O150 Mn145 2.121 . S
O150 C158 1.258 . S
C151 N152 1.326 . S
C151 C155 1.460 . S
C151 H157 0.929 . S
N152 Mn145 2.257 . S
N152 C151 1.326 . S
N152 C156 1.362 . S
C153 C154 1.258 . S
C153 C156 1.431 1_655 S
C153 C173 1.449 . S
C154 C153 1.258 . S
C154 C155 1.477 1_655 S
C154 H174 0.931 . S
C155 C151 1.460 . S
C155 C154 1.477 1_455 S
C155 H175 0.930 1_455 S
C156 N152 1.362 . S
C156 C153 1.431 1_455 S
C156 C166 1.476 . S
H157 C151 0.929 . S
C158 O149 1.250 . S
C158 O150 1.258 . S
O159 Mn144 2.162 . S
O159 C147 1.281 . S
O160 Mn144 2.297 . S
O160 C147 1.236 . S
N161 Mn145 2.282 . S
N161 C162 1.328 . S
N161 C166 1.318 . S
C162 N161 1.328 . S
C162 C163 1.457 . S
C162 H167 0.929 . S
C163 C162 1.457 . S
C163 C164 1.291 . S
C163 H176 0.931 . S
C164 C163 1.291 . S
C164 C165 1.373 . S
C164 H177 0.931 1_455 S
C165 C164 1.373 . S
C165 C166 1.396 . S
C165 C172 1.403 1_455 S
C166 C156 1.476 . S
C166 N161 1.318 . S
C166 C165 1.396 . S
H167 C162 0.929 . S
O168 Mn144 2.385 . S
O168 C146 1.234 . S
O169 Mn144 2.209 . S
O169 Mn145 2.215 . S
O169 C146 1.283 . S
O170 Mn144 2.094 . S
O170 C148 1.240 . S
O171 Mn145 2.117 . S
O171 C148 1.264 . S
C172 C165 1.403 1_655 S
C172 C173 1.399 . S
C172 H178 0.929 . S
C173 C153 1.449 . S
C173 C172 1.399 . S
C173 H179 0.930 . S
H174 C154 0.931 . S
H175 C155 0.930 1_655 S
H176 C163 0.931 . S
H177 C164 0.931 1_655 S
H178 C172 0.929 . S
H179 C173 0.930 . S
Mn180 O185 2.095 . S
Mn180 O195 2.162 . S
Mn180 O196 2.297 . S
Mn180 O204 2.385 . S
Mn180 O205 2.209 . S
Mn180 O206 2.094 . S
Mn181 O186 2.121 . S
Mn181 N188 2.257 . S
Mn181 N197 2.282 . S
Mn181 O205 2.215 . S
Mn181 O207 2.117 . S
C182 O204 1.234 . S
C182 O205 1.283 . S
C183 O195 1.281 . S
C183 O196 1.236 . S
C184 O206 1.240 . S
C184 O207 1.264 . S
O185 Mn180 2.095 . S
O185 C194 1.250 . S
O186 Mn181 2.121 . S
O186 C194 1.258 . S
C187 N188 1.326 . S
C187 C191 1.460 . S
C187 H193 0.929 . S
N188 Mn181 2.257 . S
N188 C187 1.326 . S
N188 C192 1.362 . S
C189 C190 1.258 . S
C189 C192 1.431 . S
C189 C209 1.449 . S
C190 C189 1.258 . S
C190 C191 1.477 . S
C190 H210 0.931 . S
C191 C187 1.460 . S
C191 C190 1.477 . S
C191 H211 0.930 . S
C192 N188 1.362 . S
C192 C189 1.431 . S
C192 C202 1.476 . S
H193 C187 0.929 . S
C194 O185 1.250 . S
C194 O186 1.258 . S
O195 Mn180 2.162 . S
O195 C183 1.281 . S
O196 Mn180 2.297 . S
O196 C183 1.236 . S
N197 Mn181 2.282 . S
N197 C198 1.328 . S
N197 C202 1.318 . S
C198 N197 1.328 . S
C198 C199 1.457 . S
C198 H203 0.929 . S
C199 C198 1.457 . S
C199 C200 1.291 . S
C199 H212 0.931 . S
C200 C199 1.291 . S
C200 C201 1.373 . S
C200 H213 0.929 . S
C201 C200 1.373 . S
C201 C202 1.396 . S
C201 C208 1.403 . S
C202 C192 1.476 . S
C202 N197 1.318 . S
C202 C201 1.396 . S
H203 C198 0.929 . S
O204 Mn180 2.385 . S
O204 C182 1.234 . S
O205 Mn180 2.209 . S
O205 Mn181 2.215 . S
O205 C182 1.283 . S
O206 Mn180 2.094 . S
O206 C184 1.240 . S
O207 Mn181 2.117 . S
O207 C184 1.264 . S
C208 C201 1.403 . S
C208 C209 1.399 . S
C208 H214 0.929 . S
C209 C189 1.449 . S
C209 C208 1.399 . S
C209 H215 0.930 . S
H210 C190 0.931 . S
H211 C191 0.930 . S
H212 C199 0.931 . S
H213 C200 0.929 . S
H214 C208 0.929 . S
H215 C209 0.930 . S
Mn216 O221 2.095 . S
Mn216 O231 2.162 . S
Mn216 O232 2.297 . S
Mn216 O240 2.385 . S
Mn216 O241 2.209 . S
Mn216 O242 2.094 . S
Mn217 O222 2.121 . S
Mn217 N224 2.257 . S
Mn217 N233 2.282 . S
Mn217 O241 2.215 . S
Mn217 O243 2.117 . S
C218 O240 1.234 . S
C218 O241 1.283 . S
C219 O231 1.281 . S
C219 O232 1.236 . S
C220 O242 1.240 . S
C220 O243 1.264 . S
O221 Mn216 2.095 . S
O221 C230 1.250 . S
O222 Mn217 2.121 . S
O222 C230 1.258 . S
C223 N224 1.326 . S
C223 C227 1.460 1_655 S
C223 H229 0.929 . S
N224 Mn217 2.257 . S
N224 C223 1.326 . S
N224 C228 1.362 . S
C225 C226 1.258 . S
C225 C228 1.431 1_455 S
C225 C245 1.449 . S
C226 C225 1.258 . S
C226 C227 1.477 . S
C226 H246 0.931 . S
C227 C223 1.460 1_455 S
C227 C226 1.477 . S
C227 H247 0.930 . S
C228 N224 1.362 . S
C228 C225 1.431 1_655 S
C228 C238 1.476 . S
H229 C223 0.929 . S
C230 O221 1.250 . S
C230 O222 1.258 . S
O231 Mn216 2.162 . S
O231 C219 1.281 . S
O232 Mn216 2.297 . S
O232 C219 1.236 . S
N233 Mn217 2.282 . S
N233 C234 1.328 . S
N233 C238 1.318 . S
C234 N233 1.328 . S
C234 C235 1.457 . S
C234 H239 0.929 . S
C235 C234 1.457 . S
C235 C236 1.291 . S
C235 H248 0.931 1_556 S
C236 C235 1.291 . S
C236 C237 1.373 1_655 S
C236 H249 0.929 1_655 S
C237 C236 1.373 1_455 S
C237 C238 1.396 1_455 S
C237 C244 1.403 . S
C238 C228 1.476 . S
C238 N233 1.318 . S
C238 C237 1.396 1_655 S
H239 C234 0.929 . S
O240 Mn216 2.385 . S
O240 C218 1.234 . S
O241 Mn216 2.209 . S
O241 Mn217 2.215 . S
O241 C218 1.283 . S
O242 Mn216 2.094 . S
O242 C220 1.240 . S
O243 Mn217 2.117 . S
O243 C220 1.264 . S
C244 C237 1.403 . S
C244 C245 1.399 . S
C244 H250 0.929 . S
C245 C225 1.449 . S
C245 C244 1.399 . S
C245 H251 0.930 . S
H246 C226 0.931 . S
H247 C227 0.930 . S
H248 C235 0.931 1_554 S
H249 C236 0.929 1_455 S
H250 C244 0.929 . S
H251 C245 0.930 . S
Mn252 O257 2.095 . S
Mn252 O267 2.162 . S
Mn252 O268 2.297 . S
Mn252 O276 2.385 . S
Mn252 O277 2.209 . S
Mn252 O278 2.094 . S
Mn253 O258 2.121 . S
Mn253 N260 2.257 . S
Mn253 N269 2.282 . S
Mn253 O277 2.215 . S
Mn253 O279 2.117 . S
C254 O276 1.234 . S
C254 O277 1.283 . S
C255 O267 1.281 . S
C255 O268 1.236 . S
C256 O278 1.240 . S
C256 O279 1.264 . S
O257 Mn252 2.095 . S
O257 C266 1.250 . S
O258 Mn253 2.121 . S
O258 C266 1.258 . S
C259 N260 1.326 . S
C259 C263 1.460 . S
C259 H265 0.929 . S
N260 Mn253 2.257 . S
N260 C259 1.326 . S
N260 C264 1.362 . S
C261 C262 1.258 . S
C261 C264 1.431 . S
C261 C281 1.449 . S
C262 C261 1.258 . S
C262 C263 1.477 . S
C262 H282 0.931 . S
C263 C259 1.460 . S
C263 C262 1.477 . S
C263 H283 0.930 . S
C264 N260 1.362 . S
C264 C261 1.431 . S
C264 C274 1.476 . S
H265 C259 0.929 . S
C266 O257 1.250 . S
C266 O258 1.258 . S
O267 Mn252 2.162 . S
O267 C255 1.281 . S
O268 Mn252 2.297 . S
O268 C255 1.236 . S
N269 Mn253 2.282 . S
N269 C270 1.328 . S
N269 C274 1.318 . S
C270 N269 1.328 . S
C270 C271 1.457 . S
C270 H275 0.929 . S
C271 C270 1.457 . S
C271 C272 1.291 . S
C271 H284 0.931 1_556 S
C272 C271 1.291 . S
C272 C273 1.373 . S
C272 H285 0.929 . S
C273 C272 1.373 . S
C273 C274 1.396 . S
C273 C280 1.403 . S
C274 C264 1.476 . S
C274 N269 1.318 . S
C274 C273 1.396 . S
H275 C270 0.929 . S
O276 Mn252 2.385 . S
O276 C254 1.234 . S
O277 Mn252 2.209 . S
O277 Mn253 2.215 . S
O277 C254 1.283 . S
O278 Mn252 2.094 . S
O278 C256 1.240 . S
O279 Mn253 2.117 . S
O279 C256 1.264 . S
C280 C273 1.403 . S
C280 C281 1.399 . S
C280 H286 0.929 . S
C281 C261 1.449 . S
C281 C280 1.399 . S
C281 H287 0.930 . S
H282 C262 0.931 . S
H283 C263 0.930 . S
H284 C271 0.931 1_554 S
H285 C272 0.929 . S
H286 C280 0.929 . S
H287 C281 0.930 . S
Mn288 O293 2.095 . S
Mn288 O303 2.162 . S
Mn288 O304 2.297 . S
Mn288 O312 2.385 . S
Mn288 O313 2.209 . S
Mn288 O314 2.094 . S
Mn289 O294 2.121 . S
Mn289 N296 2.257 . S
Mn289 N305 2.282 . S
Mn289 O313 2.215 . S
Mn289 O315 2.117 . S
C290 O312 1.234 . S
C290 O313 1.283 . S
C291 O303 1.281 . S
C291 O304 1.236 . S
C292 O314 1.240 . S
C292 O315 1.264 . S
O293 Mn288 2.095 . S
O293 C302 1.250 . S
O294 Mn289 2.121 . S
O294 C302 1.258 . S
C295 N296 1.326 . S
C295 C299 1.442 1_545 S
C295 H301 0.929 . S
N296 Mn289 2.257 . S
N296 C295 1.326 . S
N296 C300 1.362 . S
C297 C298 1.258 . S
C297 C300 1.431 1_565 S
C297 C317 1.449 . S
C298 C297 1.258 . S
C298 C299 1.493 . S
C298 H318 0.931 . S
C299 C295 1.442 1_565 S
C299 C298 1.493 . S
C299 H319 0.932 . S
C300 N296 1.362 . S
C300 C297 1.431 1_545 S
C300 C310 1.476 . S
H301 C295 0.929 . S
C302 O293 1.250 . S
C302 O294 1.258 . S
O303 Mn288 2.162 . S
O303 C291 1.281 . S
O304 Mn288 2.297 . S
O304 C291 1.236 . S
N305 Mn289 2.282 . S
N305 C306 1.328 . S
N305 C310 1.318 . S
C306 N305 1.328 . S
C306 C307 1.457 . S
C306 H311 0.929 . S
C307 C306 1.457 . S
C307 C308 1.291 . S
C307 H320 0.931 1_556 S
C308 C307 1.291 . S
C308 C309 1.376 . S
C308 H321 0.929 1_545 S
C309 C308 1.376 . S
C309 C310 1.419 . S
C309 C316 1.377 1_545 S
C310 C300 1.476 . S
C310 N305 1.318 . S
C310 C309 1.419 . S
H311 C306 0.929 . S
O312 Mn288 2.385 . S
O312 C290 1.234 . S
O313 Mn288 2.209 . S
O313 Mn289 2.215 . S
O313 C290 1.283 . S
O314 Mn288 2.094 . S
O314 C292 1.240 . S
O315 Mn289 2.117 . S
O315 C292 1.264 . S
C316 C309 1.377 1_565 S
C316 C317 1.399 . S
C316 H322 0.929 . S
C317 C297 1.449 . S
C317 C316 1.399 . S
C317 H323 0.930 . S
H318 C298 0.931 . S
H319 C299 0.932 . S
H320 C307 0.931 1_554 S
H321 C308 0.929 1_565 S
H322 C316 0.929 . S
H323 C317 0.930 . S
Mn324 O329 2.095 . S
Mn324 O339 2.162 . S
Mn324 O340 2.297 . S
Mn324 O348 2.385 . S
Mn324 O349 2.209 . S
Mn324 O350 2.094 . S
Mn325 O330 2.121 . S
Mn325 N332 2.257 . S
Mn325 N341 2.282 . S
Mn325 O349 2.215 . S
Mn325 O351 2.117 . S
C326 O348 1.234 . S
C326 O349 1.283 . S
C327 O339 1.281 . S
C327 O340 1.236 . S
C328 O350 1.240 . S
C328 O351 1.264 . S
O329 Mn324 2.095 . S
O329 C338 1.250 . S
O330 Mn325 2.121 . S
O330 C338 1.258 . S
C331 N332 1.326 . S
C331 C335 1.451 1_545 S
C331 H337 0.929 . S
N332 Mn325 2.257 . S
N332 C331 1.326 . S
N332 C336 1.362 . S
C333 C334 1.258 . S
C333 C336 1.431 1_565 S
C333 C353 1.449 . S
C334 C333 1.258 . S
C334 C335 1.480 . S
C334 H354 0.931 . S
C335 C331 1.451 1_565 S
C335 C334 1.480 . S
C335 H355 0.936 . S
C336 N332 1.362 . S
C336 C333 1.431 1_545 S
C336 C346 1.476 . S
H337 C331 0.929 . S
C338 O329 1.250 . S
C338 O330 1.258 . S
O339 Mn324 2.162 . S
O339 C327 1.281 . S
O340 Mn324 2.297 . S
O340 C327 1.236 . S
N341 Mn325 2.282 . S
N341 C342 1.328 . S
N341 C346 1.318 . S
C342 N341 1.328 . S
C342 C343 1.457 . S
C342 H347 0.929 . S
C343 C342 1.457 . S
C343 C344 1.291 . S
C343 H356 0.931 . S
C344 C343 1.291 . S
C344 C345 1.380 . S
C344 H357 0.929 1_545 S
C345 C344 1.380 . S
C345 C346 1.402 . S
C345 C352 1.390 1_545 S
C346 C336 1.476 . S
C346 N341 1.318 . S
C346 C345 1.402 . S
H347 C342 0.929 . S
O348 Mn324 2.385 . S
O348 C326 1.234 . S
O349 Mn324 2.209 . S
O349 Mn325 2.215 . S
O349 C326 1.283 . S
O350 Mn324 2.094 . S
O350 C328 1.240 . S
O351 Mn325 2.117 . S
O351 C328 1.264 . S
C352 C345 1.390 1_565 S
C352 C353 1.399 . S
C352 H358 0.929 . S
C353 C333 1.449 . S
C353 C352 1.399 . S
C353 H359 0.930 . S
H354 C334 0.931 . S
H355 C335 0.936 . S
H356 C343 0.931 . S
H357 C344 0.929 1_565 S
H358 C352 0.929 . S
H359 C353 0.930 . S
Mn360 O365 2.095 . S
Mn360 O375 2.162 . S
Mn360 O376 2.297 . S
Mn360 O384 2.385 . S
Mn360 O385 2.209 . S
Mn360 O386 2.094 . S
Mn361 O366 2.121 . S
Mn361 N368 2.257 . S
Mn361 N377 2.282 . S
Mn361 O385 2.215 . S
Mn361 O387 2.117 . S
C362 O384 1.234 . S
C362 O385 1.283 . S
C363 O375 1.281 . S
C363 O376 1.236 . S
C364 O386 1.240 . S
C364 O387 1.264 . S
O365 Mn360 2.095 . S
O365 C374 1.250 . S
O366 Mn361 2.121 . S
O366 C374 1.258 . S
C367 N368 1.326 . S
C367 C371 1.460 . S
C367 H373 0.929 . S
N368 Mn361 2.257 . S
N368 C367 1.326 . S
N368 C372 1.362 . S
C369 C370 1.258 . S
C369 C372 1.431 1_455 S
C369 C389 1.449 . S
C370 C369 1.258 . S
C370 C371 1.477 1_455 S
C370 H390 0.931 . S
C371 C367 1.460 . S
C371 C370 1.477 1_655 S
C371 H391 0.930 1_655 S
C372 N368 1.362 . S
C372 C369 1.431 1_655 S
C372 C382 1.476 . S
H373 C367 0.929 . S
C374 O365 1.250 . S
C374 O366 1.258 . S
O375 Mn360 2.162 . S
O375 C363 1.281 . S
O376 Mn360 2.297 . S
O376 C363 1.236 . S
N377 Mn361 2.282 . S
N377 C378 1.328 . S
N377 C382 1.318 . S
C378 N377 1.328 . S
C378 C379 1.457 . S
C378 H383 0.929 . S
C379 C378 1.457 . S
C379 C380 1.291 . S
C379 H392 0.931 . S
C380 C379 1.291 . S
C380 C381 1.373 . S
C380 H393 0.929 1_655 S
C381 C380 1.373 . S
C381 C382 1.396 . S
C381 C388 1.403 1_655 S
C382 C372 1.476 . S
C382 N377 1.318 . S
C382 C381 1.396 . S
H383 C378 0.929 . S
O384 Mn360 2.385 . S
O384 C362 1.234 . S
O385 Mn360 2.209 . S
O385 Mn361 2.215 . S
O385 C362 1.283 . S
O386 Mn360 2.094 . S
O386 C364 1.240 . S
O387 Mn361 2.117 . S
O387 C364 1.264 . S
C388 C381 1.403 1_455 S
C388 C389 1.399 . S
C388 H394 0.929 . S
C389 C369 1.449 . S
C389 C388 1.399 . S
C389 H395 0.930 . S
H390 C370 0.931 . S
H391 C371 0.930 1_455 S
H392 C379 0.931 . S
H393 C380 0.929 1_455 S
H394 C388 0.929 . S
H395 C389 0.930 . S
Mn396 O401 2.095 . S
Mn396 O411 2.162 . S
Mn396 O412 2.297 . S
Mn396 O420 2.385 . S
Mn396 O421 2.209 . S
Mn396 O422 2.094 . S
Mn397 O402 2.121 . S
Mn397 N404 2.257 . S
Mn397 N413 2.282 . S
Mn397 O421 2.215 . S
Mn397 O423 2.117 . S
C398 O420 1.234 . S
C398 O421 1.283 . S
C399 O411 1.281 . S
C399 O412 1.236 . S
C400 O422 1.240 . S
C400 O423 1.264 . S
O401 Mn396 2.095 . S
O401 C410 1.250 . S
O402 Mn397 2.121 . S
O402 C410 1.258 . S
C403 N404 1.326 . S
C403 C407 1.460 . S
C403 H409 0.929 . S
N404 Mn397 2.257 . S
N404 C403 1.326 . S
N404 C408 1.362 . S
C405 C406 1.258 . S
C405 C408 1.431 . S
C405 C425 1.449 . S
C406 C405 1.258 . S
C406 C407 1.477 . S
C406 H426 0.931 . S
C407 C403 1.460 . S
C407 C406 1.477 . S
C407 H427 0.930 . S
C408 N404 1.362 . S
C408 C405 1.431 . S
C408 C418 1.476 . S
H409 C403 0.929 . S
C410 O401 1.250 . S
C410 O402 1.258 . S
O411 Mn396 2.162 . S
O411 C399 1.281 . S
O412 Mn396 2.297 . S
O412 C399 1.236 . S
N413 Mn397 2.282 . S
N413 C414 1.328 . S
N413 C418 1.318 . S
C414 N413 1.328 . S
C414 C415 1.457 . S
C414 H419 0.929 . S
C415 C414 1.457 . S
C415 C416 1.291 . S
C415 H428 0.931 . S
C416 C415 1.291 . S
C416 C417 1.373 . S
C416 H429 0.929 . S
C417 C416 1.373 . S
C417 C418 1.396 . S
C417 C424 1.403 . S
C418 C408 1.476 . S
C418 N413 1.318 . S
C418 C417 1.396 . S
H419 C414 0.929 . S
O420 Mn396 2.385 . S
O420 C398 1.234 . S
O421 Mn396 2.209 . S
O421 Mn397 2.215 . S
O421 C398 1.283 . S
O422 Mn396 2.094 . S
O422 C400 1.240 . S
O423 Mn397 2.117 . S
O423 C400 1.264 . S
C424 C417 1.403 . S
C424 C425 1.399 . S
C424 H430 0.929 . S
C425 C405 1.449 . S
C425 C424 1.399 . S
C425 H431 0.930 . S
H426 C406 0.931 . S
H427 C407 0.930 . S
H428 C415 0.931 . S
H429 C416 0.929 . S
H430 C424 0.929 . S
H431 C425 0.930 . S
C432 C433 1.349 . S
C432 C434 1.327 . S
C432 H457 0.950 . S
C433 C432 1.349 . S
C433 C449 1.349 . S
C434 C432 1.327 . S
C434 C453 1.429 . S
C434 H458 0.950 1_554 S
C435 C452 1.574 . S
C435 C454 1.370 . S
C435 H459 0.949 . S
H436 C440 0.949 . S
C437 C438 1.349 . S
C437 C439 1.327 . S
C437 H460 0.950 . S
C438 C437 1.349 . S
C438 C450 1.349 . S
C439 C437 1.327 . S
C439 C455 1.429 . S
C439 H461 0.950 . S
C440 H436 0.949 . S
C440 C448 1.574 . S
C440 C456 1.368 . S
H441 C449 0.950 . S
H442 C447 0.950 . S
H443 C448 0.949 . S
H444 C450 0.950 . S
H445 C451 0.950 . S
H446 C452 0.949 . S
C447 H442 0.950 . S
C447 C449 1.327 . S
C447 C453 1.429 . S
C448 C440 1.574 . S
C448 H443 0.949 . S
C448 C454 1.365 1_556 S
C449 C433 1.349 . S
C449 H441 0.950 . S
C449 C447 1.327 . S
C450 C438 1.349 . S
C450 H444 0.950 . S
C450 C451 1.327 . S
C451 H445 0.950 . S
C451 C450 1.327 . S
C451 C455 1.429 . S
C452 C435 1.574 . S
C452 H446 0.949 . S
C452 C456 1.368 1_554 S
C453 C434 1.429 . S
C453 C447 1.429 . S
C453 C454 1.525 . S
C454 C435 1.370 . S
C454 C448 1.365 1_554 S
C454 C453 1.525 . S
C455 C439 1.429 . S
C455 C451 1.429 . S
C455 C456 1.523 . S
C456 C440 1.368 . S
C456 C452 1.368 1_556 S
C456 C455 1.523 . S
H457 C432 0.950 . S
H458 C434 0.950 1_556 S
H459 C435 0.949 . S
H460 C437 0.950 . S
H461 C439 0.950 . S
C462 C463 1.349 . S
C462 C464 1.327 . S
C462 H487 0.950 . S
C463 C462 1.349 . S
C463 C479 1.349 . S
C464 C462 1.327 . S
C464 C483 1.429 . S
C464 H488 0.950 . S
C465 C482 1.574 . S
C465 C484 1.368 . S
C465 H489 0.949 . S
H466 C470 0.963 . S
C467 C468 1.349 1_565 S
C467 C469 1.327 . S
C467 H490 0.950 . S
C468 C467 1.349 1_545 S
C468 C480 1.349 . S
C469 C467 1.327 . S
C469 C485 1.429 . S
C469 H491 0.950 . S
C470 H466 0.963 . S
C470 C478 1.587 . S
C470 C486 1.341 1_554 S
H471 C479 0.958 . S
H472 C477 0.950 . S
H473 C478 0.949 . S
H474 C480 0.950 . S
H475 C481 0.950 . S
H476 C482 0.949 . S
C477 H472 0.950 . S
C477 C479 1.327 1_556 S
C477 C483 1.429 1_556 S
C478 C470 1.587 . S
C478 H473 0.949 . S
C478 C484 1.368 1_554 S
C479 C463 1.349 . S
C479 H471 0.958 . S
C479 C477 1.327 1_554 S
C480 C468 1.349 . S
C480 H474 0.950 . S
C480 C481 1.327 1_545 S
C481 H475 0.950 . S
C481 C480 1.327 1_565 S
C481 C485 1.429 . S
C482 C465 1.574 . S
C482 H476 0.949 . S
C482 C486 1.368 . S
C483 C464 1.429 . S
C483 C477 1.429 1_554 S
C483 C484 1.523 1_554 S
C484 C465 1.368 . S
C484 C478 1.368 1_556 S
C484 C483 1.523 1_556 S
C485 C469 1.429 . S
C485 C481 1.429 . S
C485 C486 1.523 . S
C486 C470 1.341 1_556 S
C486 C482 1.368 . S
C486 C485 1.523 . S
H487 C462 0.950 . S
H488 C464 0.950 . S
H489 C465 0.949 . S
H490 C467 0.950 . S
H491 C469 0.950 . S
C492 C493 1.349 . S
C492 C494 1.327 . S
C492 H517 0.950 . S
C493 C492 1.349 . S
C493 C509 1.349 . S
C494 C492 1.327 . S
C494 C513 1.429 . S
C494 H518 0.950 1_554 S
C495 C512 1.574 . S
C495 C514 1.368 . S
C495 H519 0.949 . S
H496 C500 0.949 . S
C497 C498 1.349 . S
C497 C499 1.327 1_655 S
C497 H520 0.950 . S
C498 C497 1.349 . S
C498 C510 1.349 1_655 S
C499 C497 1.327 1_455 S
C499 C515 1.429 . S
C499 H521 0.950 1_556 S
C500 H496 0.949 . S
C500 C508 1.574 . S
C500 C516 1.368 . S
H501 C509 0.950 . S
H502 C507 0.950 . S
H503 C508 0.949 . S
H504 C510 0.950 . S
H505 C511 0.950 . S
H506 C512 0.949 . S
C507 H502 0.950 . S
C507 C509 1.327 . S
C507 C513 1.429 . S
C508 C500 1.574 . S
C508 H503 0.949 . S
C508 C514 1.368 1_556 S
C509 C493 1.349 . S
C509 H501 0.950 . S
C509 C507 1.327 . S
C510 C498 1.349 1_455 S
C510 H504 0.950 . S
C510 C511 1.327 . S
C511 H505 0.950 . S
C511 C510 1.327 . S
C511 C515 1.429 . S
C512 C495 1.574 . S
C512 H506 0.949 . S
C512 C516 1.368 1_554 S
C513 C494 1.429 . S
C513 C507 1.429 . S
C513 C514 1.523 . S
C514 C495 1.368 . S
C514 C508 1.368 1_554 S
C514 C513 1.523 . S
C515 C499 1.429 . S
C515 C511 1.429 . S
C515 C516 1.523 . S
C516 C500 1.368 . S
C516 C512 1.368 1_556 S
C516 C515 1.523 . S
H517 C492 0.950 . S
H518 C494 0.950 1_556 S
H519 C495 0.949 . S
H520 C497 0.950 . S
H521 C499 0.950 1_554 S
C522 C523 1.349 . S
C522 C524 1.327 . S
C522 H547 0.950 . S
C523 C522 1.349 . S
C523 C539 1.349 . S
C524 C522 1.327 . S
C524 C543 1.429 . S
C524 H548 0.950 . S
C525 C542 1.574 . S
C525 C544 1.368 . S
C525 H549 0.949 . S
H526 C530 0.949 . S
C527 C528 1.349 . S
C527 C529 1.327 . S
C527 H550 0.950 . S
C528 C527 1.349 . S
C528 C540 1.349 . S
C529 C527 1.327 . S
C529 C545 1.429 . S
C529 H551 0.950 . S
C530 H526 0.949 . S
C530 C538 1.574 . S
C530 C546 1.368 . S
H531 C539 0.950 . S
H532 C537 0.950 . S
H533 C538 0.949 . S
H534 C540 0.950 . S
H535 C541 0.950 . S
H536 C542 0.949 . S
C537 H532 0.950 . S
C537 C539 1.327 . S
C537 C543 1.429 . S
C538 C530 1.574 . S
C538 H533 0.949 . S
C538 C544 1.368 . S
C539 C523 1.349 . S
C539 H531 0.950 . S
C539 C537 1.327 . S
C540 C528 1.349 . S
C540 H534 0.950 . S
C540 C541 1.327 . S
C541 H535 0.950 . S
C541 C540 1.327 . S
C541 C545 1.429 . S
C542 C525 1.574 . S
C542 H536 0.949 . S
C542 C546 1.368 . S
C543 C524 1.429 . S
C543 C537 1.429 . S
C543 C544 1.523 . S
C544 C525 1.368 . S
C544 C538 1.368 . S
C544 C543 1.523 . S
C545 C529 1.429 . S
C545 C541 1.429 . S
C545 C546 1.523 . S
C546 C530 1.368 . S
C546 C542 1.368 . S
C546 C545 1.523 . S
H547 C522 0.950 . S
H548 C524 0.950 . S
H549 C525 0.949 . S
H550 C527 0.950 . S
H551 C529 0.950 . S
C552 C553 1.349 . S
C552 C554 1.327 . S
C552 H577 0.950 . S
C553 C552 1.349 . S
C553 C569 1.349 . S
C554 C552 1.327 . S
C554 C573 1.429 . S
C554 H578 0.950 . S
C555 C572 1.574 . S
C555 C574 1.368 . S
C555 H579 0.949 . S
H556 C560 0.949 . S
C557 C558 1.349 1_565 S
C557 C559 1.327 . S
C557 H580 0.950 . S
C558 C557 1.349 1_545 S
C558 C570 1.349 . S
C559 C557 1.327 . S
C559 C575 1.429 . S
C559 H581 0.950 . S
C560 H556 0.949 . S
C560 C568 1.574 . S
C560 C576 1.368 . S
H561 C569 0.950 . S
H562 C567 0.950 . S
H563 C568 0.949 . S
H564 C570 0.950 . S
H565 C571 0.950 . S
H566 C572 0.949 . S
C567 H562 0.950 . S
C567 C569 1.327 . S
C567 C573 1.429 . S
C568 C560 1.574 . S
C568 H563 0.949 . S
C568 C574 1.368 . S
C569 C553 1.349 . S
C569 H561 0.950 . S
C569 C567 1.327 . S
C570 C558 1.349 . S
C570 H564 0.950 . S
C570 C571 1.327 1_545 S
C571 H565 0.950 . S
C571 C570 1.327 1_565 S
C571 C575 1.429 . S
C572 C555 1.574 . S
C572 H566 0.949 . S
C572 C576 1.368 . S
C573 C554 1.429 . S
C573 C567 1.429 . S
C573 C574 1.523 . S
C574 C555 1.368 . S
C574 C568 1.368 . S
C574 C573 1.523 . S
C575 C559 1.429 . S
C575 C571 1.429 . S
C575 C576 1.523 . S
C576 C560 1.368 . S
C576 C572 1.368 . S
C576 C575 1.523 . S
H577 C552 0.950 . S
H578 C554 0.950 . S
H579 C555 0.949 . S
H580 C557 0.950 . S
H581 C559 0.950 . S
C582 C583 1.349 . S
C582 C584 1.327 1_655 S
C582 H607 0.950 . S
C583 C582 1.349 . S
C583 C599 1.349 1_655 S
C584 C582 1.327 1_455 S
C584 C603 1.429 . S
C584 H608 0.950 . S
C585 C602 1.574 . S
C585 C604 1.368 . S
C585 H609 0.949 . S
H586 C590 0.949 . S
C587 C588 1.349 . S
C587 C589 1.327 . S
C587 H610 0.950 . S
C588 C587 1.349 . S
C588 C600 1.349 . S
C589 C587 1.327 . S
C589 C605 1.429 . S
C589 H611 0.950 . S
C590 H586 0.949 . S
C590 C598 1.574 . S
C590 C606 1.368 . S
H591 C599 0.952 . S
H592 C597 0.950 . S
H593 C598 0.949 . S
H594 C600 0.950 . S
H595 C601 0.950 . S
H596 C602 0.949 . S
C597 H592 0.950 . S
C597 C599 1.327 . S
C597 C603 1.429 . S
C598 C590 1.574 . S
C598 H593 0.949 . S
C598 C604 1.368 . S
C599 C583 1.349 1_455 S
C599 H591 0.952 . S
C599 C597 1.327 . S
C600 C588 1.349 . S
C600 H594 0.950 . S
C600 C601 1.327 . S
C601 H595 0.950 . S
C601 C600 1.327 . S
C601 C605 1.429 . S
C602 C585 1.574 . S
C602 H596 0.949 . S
C602 C606 1.368 . S
C603 C584 1.429 . S
C603 C597 1.429 . S
C603 C604 1.523 . S
C604 C585 1.368 . S
C604 C598 1.368 . S
C604 C603 1.523 . S
C605 C589 1.429 . S
C605 C601 1.429 . S
C605 C606 1.523 . S
C606 C590 1.368 . S
C606 C602 1.368 . S
C606 C605 1.523 . S
H607 C582 0.950 . S
H608 C584 0.950 . S
H609 C585 0.949 . S
H610 C587 0.950 . S
H611 C589 0.950 . S
C612 C613 1.349 . S
C612 C614 1.327 . S
C612 H637 0.950 . S
C613 C612 1.349 . S
C613 C629 1.349 . S
C614 C612 1.327 . S
C614 C633 1.429 . S
C614 H638 0.950 . S
C615 C632 1.574 1_554 S
C615 C634 1.368 . S
C615 H639 0.949 . S
H616 C620 0.950 . S
C617 C618 1.349 . S
C617 C619 1.327 . S
C617 H640 0.950 . S
C618 C617 1.349 . S
C618 C630 1.349 . S
C619 C617 1.327 . S
C619 C635 1.429 . S
C619 H641 0.950 . S
C620 H616 0.950 . S
C620 C628 1.572 1_556 S
C620 C636 1.370 . S
H621 C629 0.950 . S
H622 C627 0.950 . S
H623 C628 0.949 . S
H624 C630 0.950 . S
H625 C631 0.950 . S
H626 C632 0.949 . S
C627 H622 0.950 . S
C627 C629 1.327 . S
C627 C633 1.429 . S
C628 C620 1.572 1_554 S
C628 H623 0.949 . S
C628 C634 1.368 . S
C629 C613 1.349 . S
C629 H621 0.950 . S
C629 C627 1.327 . S
C630 C618 1.349 . S
C630 H624 0.950 . S
C630 C631 1.327 . S
C631 H625 0.950 . S
C631 C630 1.327 . S
C631 C635 1.429 . S
C632 C615 1.574 1_556 S
C632 H626 0.949 . S
C632 C636 1.368 . S
C633 C614 1.429 . S
C633 C627 1.429 . S
C633 C634 1.523 . S
C634 C615 1.368 . S
C634 C628 1.368 . S
C634 C633 1.523 . S
C635 C619 1.429 . S
C635 C631 1.429 . S
C635 C636 1.523 . S
C636 C620 1.370 . S
C636 C632 1.368 . S
C636 C635 1.523 . S
H637 C612 0.950 . S
H638 C614 0.950 . S
H639 C615 0.949 . S
H640 C617 0.950 . S
H641 C619 0.950 . S
C642 C643 1.349 . S
C642 C644 1.327 . S
C642 H667 0.950 . S
C643 C642 1.349 . S
C643 C659 1.349 . S
C644 C642 1.327 . S
C644 C663 1.429 . S
C644 H668 0.950 . S
C645 C662 1.574 . S
C645 C664 1.368 1_554 S
C645 H669 0.949 . S
H646 C650 0.949 . S
C647 C648 1.349 1_545 S
C647 C649 1.327 . S
C647 H670 0.951 . S
C648 C647 1.349 1_565 S
C648 C660 1.349 . S
C649 C647 1.327 . S
C649 C665 1.429 . S
C649 H671 0.950 . S
C650 H646 0.949 . S
C650 C658 1.574 . S
C650 C666 1.368 1_556 S
H651 C659 0.935 1_554 S
H652 C657 0.924 1_554 S
H653 C658 0.949 . S
H654 C660 0.950 . S
H655 C661 0.950 1_556 S
H656 C662 0.949 . S
C657 H652 0.924 1_556 S
C657 C659 1.338 . S
C657 C663 1.444 . S
C658 C650 1.574 . S
C658 H653 0.949 . S
C658 C664 1.368 . S
C659 C643 1.349 . S
C659 H651 0.935 1_556 S
C659 C657 1.338 . S
C660 C648 1.349 . S
C660 H654 0.950 . S
C660 C661 1.327 1_565 S
C661 H655 0.950 1_554 S
C661 C660 1.327 1_545 S
C661 C665 1.429 . S
C662 C645 1.574 . S
C662 H656 0.949 . S
C662 C666 1.368 . S
C663 C644 1.429 . S
C663 C657 1.444 . S
C663 C664 1.523 . S
C664 C645 1.368 1_556 S
C664 C658 1.368 . S
C664 C663 1.523 . S
C665 C649 1.429 . S
C665 C661 1.429 . S
C665 C666 1.523 . S
C666 C650 1.368 1_554 S
C666 C662 1.368 . S
C666 C665 1.523 . S
H667 C642 0.950 . S
H668 C644 0.950 . S
H669 C645 0.949 . S
H670 C647 0.951 . S
H671 C649 0.950 . S
C672 C673 1.349 . S
C672 C674 1.327 1_455 S
C672 H697 0.950 . S
C673 C672 1.349 . S
C673 C689 1.349 1_455 S
C674 C672 1.327 1_655 S
C674 C693 1.429 . S
C674 H698 0.950 1_554 S
C675 C692 1.574 . S
C675 C694 1.368 . S
C675 H699 0.949 . S
H676 C680 0.949 . S
C677 C678 1.349 . S
C677 C679 1.327 1_556 S
C677 H700 0.950 1_556 S
C678 C677 1.349 . S
C678 C690 1.349 . S
C679 C677 1.327 1_554 S
C679 C695 1.429 1_554 S
C679 H701 0.950 . S
C680 H676 0.949 . S
C680 C688 1.574 . S
C680 C696 1.364 1_556 S
H681 C689 0.948 1_455 S
H682 C687 0.950 . S
H683 C688 0.949 . S
H684 C690 0.950 . S
H685 C691 0.950 . S
H686 C692 0.949 . S
C687 H682 0.950 . S
C687 C689 1.327 . S
C687 C693 1.429 . S
C688 C680 1.574 . S
C688 H683 0.949 . S
C688 C694 1.368 1_556 S
C689 C673 1.349 1_655 S
C689 H681 0.948 1_655 S
C689 C687 1.327 . S
C690 C678 1.349 . S
C690 H684 0.950 . S
C690 C691 1.327 . S
C691 H685 0.950 . S
C691 C690 1.327 . S
C691 C695 1.429 . S
C692 C675 1.574 . S
C692 H686 0.949 . S
C692 C696 1.375 . S
C693 C674 1.429 . S
C693 C687 1.429 . S
C693 C694 1.523 . S
C694 C675 1.368 . S
C694 C688 1.368 1_554 S
C694 C693 1.523 . S
C695 C679 1.429 1_556 S
C695 C691 1.429 . S
C695 C696 1.521 1_556 S
C696 C680 1.364 1_554 S
C696 C692 1.375 . S
C696 C695 1.521 1_554 S
H697 C672 0.950 . S
H698 C674 0.950 1_556 S
H699 C675 0.949 . S
H700 C677 0.950 1_554 S
H701 C679 0.950 . S
C702 C703 1.349 . S
C702 C704 1.327 . S
C702 H727 0.950 . S
C703 C702 1.349 . S
C703 C719 1.349 . S
C704 C702 1.327 . S
C704 C723 1.429 . S
C704 H728 0.950 . S
C705 C722 1.574 . S
C705 C724 1.368 . S
C705 H729 0.949 . S
H706 C710 0.949 . S
C707 C708 1.349 . S
C707 C709 1.327 . S
C707 H730 0.950 . S
C708 C707 1.349 . S
C708 C720 1.349 . S
C709 C707 1.327 . S
C709 C725 1.429 . S
C709 H731 0.950 . S
C710 H706 0.949 . S
C710 C718 1.574 . S
C710 C726 1.368 . S
H711 C719 0.950 . S
H712 C717 0.950 . S
H713 C718 0.949 . S
H714 C720 0.950 . S
H715 C721 0.950 . S
H716 C722 0.949 . S
C717 H712 0.950 . S
C717 C719 1.327 . S
C717 C723 1.429 . S
C718 C710 1.574 . S
C718 H713 0.949 . S
C718 C724 1.368 . S
C719 C703 1.349 . S
C719 H711 0.950 . S
C719 C717 1.327 . S
C720 C708 1.349 . S
C720 H714 0.950 . S
C720 C721 1.327 . S
C721 H715 0.950 . S
C721 C720 1.327 . S
C721 C725 1.429 . S
C722 C705 1.574 . S
C722 H716 0.949 . S
C722 C726 1.368 . S
C723 C704 1.429 . S
C723 C717 1.429 . S
C723 C724 1.523 . S
C724 C705 1.368 . S
C724 C718 1.368 . S
C724 C723 1.523 . S
C725 C709 1.429 . S
C725 C721 1.429 . S
C725 C726 1.523 . S
C726 C710 1.368 . S
C726 C722 1.368 . S
C726 C725 1.523 . S
H727 C702 0.950 . S
H728 C704 0.950 . S
H729 C705 0.949 . S
H730 C707 0.950 . S
H731 C709 0.950 . S
C732 C733 1.349 . S
C732 C734 1.327 . S
C732 H757 0.950 . S
C733 C732 1.349 . S
C733 C749 1.349 . S
C734 C732 1.327 . S
C734 C753 1.429 . S
C734 H758 0.950 . S
C735 C752 1.574 . S
C735 C754 1.368 . S
C735 H759 0.949 . S
H736 C740 0.949 . S
C737 C738 1.349 1_545 S
C737 C739 1.327 . S
C737 H760 0.956 1_545 S
C738 C737 1.349 1_565 S
C738 C750 1.349 . S
C739 C737 1.327 . S
C739 C755 1.429 . S
C739 H761 0.950 . S
C740 H736 0.949 . S
C740 C748 1.574 . S
C740 C756 1.368 . S
H741 C749 0.950 . S
H742 C747 0.950 . S
H743 C748 0.949 . S
H744 C750 0.950 . S
H745 C751 0.950 . S
H746 C752 0.949 . S
C747 H742 0.950 . S
C747 C749 1.327 . S
C747 C753 1.429 . S
C748 C740 1.574 . S
C748 H743 0.949 . S
C748 C754 1.368 . S
C749 C733 1.349 . S
C749 H741 0.950 . S
C749 C747 1.327 . S
C750 C738 1.349 . S
C750 H744 0.950 . S
C750 C751 1.327 1_565 S
C751 H745 0.950 . S
C751 C750 1.327 1_545 S
C751 C755 1.429 . S
C752 C735 1.574 . S
C752 H746 0.949 . S
C752 C756 1.368 . S
C753 C734 1.429 . S
C753 C747 1.429 . S
C753 C754 1.523 . S
C754 C735 1.368 . S
C754 C748 1.368 . S
C754 C753 1.523 . S
C755 C739 1.429 . S
C755 C751 1.429 . S
C755 C756 1.523 . S
C756 C740 1.368 . S
C756 C752 1.368 . S
C756 C755 1.523 . S
H757 C732 0.950 . S
H758 C734 0.950 . S
H759 C735 0.949 . S
H760 C737 0.956 1_565 S
H761 C739 0.950 . S
C762 C763 1.349 . S
C762 C764 1.327 1_455 S
C762 H787 0.950 . S
C763 C762 1.349 . S
C763 C779 1.349 . S
C764 C762 1.327 1_655 S
C764 C783 1.429 . S
C764 H788 0.950 . S
C765 C782 1.574 . S
C765 C784 1.368 . S
C765 H789 0.949 . S
H766 C770 0.949 . S
C767 C768 1.349 . S
C767 C769 1.327 . S
C767 H790 0.950 . S
C768 C767 1.349 . S
C768 C780 1.349 . S
C769 C767 1.327 . S
C769 C785 1.429 . S
C769 H791 0.950 . S
C770 H766 0.949 . S
C770 C778 1.574 . S
C770 C786 1.368 . S
H771 C779 0.950 . S
H772 C777 0.950 . S
H773 C778 0.949 . S
H774 C780 0.950 . S
H775 C781 0.950 . S
H776 C782 0.949 . S
C777 H772 0.950 . S
C777 C779 1.327 1_655 S
C777 C783 1.429 . S
C778 C770 1.574 . S
C778 H773 0.949 . S
C778 C784 1.368 . S
C779 C763 1.349 . S
C779 H771 0.950 . S
C779 C777 1.327 1_455 S
C780 C768 1.349 . S
C780 H774 0.950 . S
C780 C781 1.327 . S
C781 H775 0.950 . S
C781 C780 1.327 . S
C781 C785 1.429 . S
C782 C765 1.574 . S
C782 H776 0.949 . S
C782 C786 1.368 . S
C783 C764 1.429 . S
C783 C777 1.429 . S
C783 C784 1.523 . S
C784 C765 1.368 . S
C784 C778 1.368 . S
C784 C783 1.523 . S
C785 C769 1.429 . S
C785 C781 1.429 . S
C785 C786 1.523 . S
C786 C770 1.368 . S
C786 C782 1.368 . S
C786 C785 1.523 . S
H787 C762 0.950 . S
H788 C764 0.950 . S
H789 C765 0.949 . S
H790 C767 0.950 . S
H791 C769 0.950 . S
C792 C793 1.349 . S
C792 C794 1.327 . S
C792 H817 0.950 . S
C793 C792 1.349 . S
C793 C809 1.349 . S
C794 C792 1.327 . S
C794 C813 1.429 . S
C794 H818 0.950 . S
C795 C812 1.574 . S
C795 C814 1.368 . S
C795 H819 0.949 . S
H796 C800 0.949 . S
C797 C798 1.349 . S
C797 C799 1.327 . S
C797 H820 0.950 . S
C798 C797 1.349 . S
C798 C810 1.349 . S
C799 C797 1.327 . S
C799 C815 1.429 . S
C799 H821 0.950 . S
C800 H796 0.949 . S
C800 C808 1.574 . S
C800 C816 1.368 . S
H801 C809 0.950 . S
H802 C807 0.950 . S
H803 C808 0.949 . S
H804 C810 0.950 . S
H805 C811 0.950 . S
H806 C812 0.949 . S
C807 H802 0.950 . S
C807 C809 1.327 . S
C807 C813 1.429 . S
C808 C800 1.574 . S
C808 H803 0.949 . S
C808 C814 1.368 . S
C809 C793 1.349 . S
C809 H801 0.950 . S
C809 C807 1.327 . S
C810 C798 1.349 . S
C810 H804 0.950 . S
C810 C811 1.327 . S
C811 H805 0.950 . S
C811 C810 1.327 . S
C811 C815 1.429 . S
C812 C795 1.574 . S
C812 H806 0.949 . S
C812 C816 1.368 . S
C813 C794 1.429 . S
C813 C807 1.429 . S
C813 C814 1.523 . S
C814 C795 1.368 . S
C814 C808 1.368 . S
C814 C813 1.523 . S
C815 C799 1.429 . S
C815 C811 1.429 . S
C815 C816 1.523 . S
C816 C800 1.368 . S
C816 C812 1.368 . S
C816 C815 1.523 . S
H817 C792 0.950 . S
H818 C794 0.950 . S
H819 C795 0.949 . S
H820 C797 0.950 . S
H821 C799 0.950 . S
C822 C823 1.349 . S
C822 C824 1.327 . S
C822 H847 0.950 . S
C823 C822 1.349 . S
C823 C839 1.349 . S
C824 C822 1.327 . S
C824 C843 1.429 . S
C824 H848 0.950 . S
C825 C842 1.574 . S
C825 C844 1.368 . S
C825 H849 0.949 . S
H826 C830 0.949 . S
C827 C828 1.349 . S
C827 C829 1.327 . S
C827 H850 0.950 . S
C828 C827 1.349 . S
C828 C840 1.349 . S
C829 C827 1.327 . S
C829 C845 1.429 . S
C829 H851 0.950 . S
C830 H826 0.949 . S
C830 C838 1.574 . S
C830 C846 1.368 . S
H831 C839 0.950 . S
H832 C837 0.950 . S
H833 C838 0.949 . S
H834 C840 0.950 . S
H835 C841 0.950 . S
H836 C842 0.949 . S
C837 H832 0.950 . S
C837 C839 1.327 . S
C837 C843 1.429 . S
C838 C830 1.574 . S
C838 H833 0.949 . S
C838 C844 1.368 . S
C839 C823 1.349 . S
C839 H831 0.950 . S
C839 C837 1.327 . S
C840 C828 1.349 . S
C840 H834 0.950 . S
C840 C841 1.327 . S
C841 H835 0.950 . S
C841 C840 1.327 . S
C841 C845 1.429 . S
C842 C825 1.574 . S
C842 H836 0.949 . S
C842 C846 1.368 . S
C843 C824 1.429 . S
C843 C837 1.429 . S
C843 C844 1.523 . S
C844 C825 1.368 . S
C844 C838 1.368 . S
C844 C843 1.523 . S
C845 C829 1.429 . S
C845 C841 1.429 . S
C845 C846 1.523 . S
C846 C830 1.368 . S
C846 C842 1.368 . S
C846 C845 1.523 . S
H847 C822 0.950 . S
H848 C824 0.950 . S
H849 C825 0.949 . S
H850 C827 0.950 . S
H851 C829 0.950 . S
C852 C853 1.349 . S
C852 C854 1.327 . S
C852 H877 0.950 . S
C853 C852 1.349 . S
C853 C869 1.349 . S
C854 C852 1.327 . S
C854 C873 1.429 . S
C854 H878 0.950 . S
C855 C872 1.574 . S
C855 C874 1.368 . S
C855 H879 0.949 . S
H856 C860 0.949 . S
C857 C858 1.349 . S
C857 C859 1.327 . S
C857 H880 0.950 . S
C858 C857 1.349 . S
C858 C870 1.349 . S
C859 C857 1.327 . S
C859 C875 1.429 . S
C859 H881 0.950 . S
C860 H856 0.949 . S
C860 C868 1.574 . S
C860 C876 1.368 . S
H861 C869 0.950 . S
H862 C867 0.950 . S
H863 C868 0.949 . S
H864 C870 0.950 . S
H865 C871 0.950 . S
H866 C872 0.949 . S
C867 H862 0.950 . S
C867 C869 1.327 . S
C867 C873 1.429 . S
C868 C860 1.574 . S
C868 H863 0.949 . S
C868 C874 1.368 . S
C869 C853 1.349 . S
C869 H861 0.950 . S
C869 C867 1.327 . S
C870 C858 1.349 . S
C870 H864 0.950 . S
C870 C871 1.327 . S
C871 H865 0.950 . S
C871 C870 1.327 . S
C871 C875 1.429 . S
C872 C855 1.574 . S
C872 H866 0.949 . S
C872 C876 1.368 . S
C873 C854 1.429 . S
C873 C867 1.429 . S
C873 C874 1.523 . S
C874 C855 1.368 . S
C874 C868 1.368 . S
C874 C873 1.523 . S
C875 C859 1.429 . S
C875 C871 1.429 . S
C875 C876 1.523 . S
C876 C860 1.368 . S
C876 C872 1.368 . S
C876 C875 1.523 . S
H877 C852 0.950 . S
H878 C854 0.950 . S
H879 C855 0.949 . S
H880 C857 0.950 . S
H881 C859 0.950 . S
C882 C883 1.349 . S
C882 C884 1.327 . S
C882 H907 0.950 . S
C883 C882 1.349 . S
C883 C899 1.349 . S
C884 C882 1.327 . S
C884 C903 1.429 . S
C884 H908 0.950 . S
C885 C902 1.574 . S
C885 C904 1.368 . S
C885 H909 0.949 . S
H886 C890 0.949 . S
C887 C888 1.349 . S
C887 C889 1.327 . S
C887 H910 0.950 . S
C888 C887 1.349 . S
C888 C900 1.349 . S
C889 C887 1.327 . S
C889 C905 1.429 . S
C889 H911 0.950 . S
C890 H886 0.949 . S
C890 C898 1.574 . S
C890 C906 1.368 . S
H891 C899 0.950 . S
H892 C897 0.950 . S
H893 C898 0.949 . S
H894 C900 0.950 . S
H895 C901 0.950 . S
H896 C902 0.949 . S
C897 H892 0.950 . S
C897 C899 1.327 . S
C897 C903 1.429 . S
C898 C890 1.574 . S
C898 H893 0.949 . S
C898 C904 1.368 . S
C899 C883 1.349 . S
C899 H891 0.950 . S
C899 C897 1.327 . S
C900 C888 1.349 . S
C900 H894 0.950 . S
C900 C901 1.327 . S
C901 H895 0.950 . S
C901 C900 1.327 . S
C901 C905 1.429 . S
C902 C885 1.574 . S
C902 H896 0.949 . S
C902 C906 1.368 . S
C903 C884 1.429 . S
C903 C897 1.429 . S
C903 C904 1.523 . S
C904 C885 1.368 . S
C904 C898 1.368 . S
C904 C903 1.523 . S
C905 C889 1.429 . S
C905 C901 1.429 . S
C905 C906 1.523 . S
C906 C890 1.368 . S
C906 C902 1.368 . S
C906 C905 1.523 . S
H907 C882 0.950 . S
H908 C884 0.950 . S
H909 C885 0.949 . S
H910 C887 0.950 . S
H911 C889 0.950 . S
C912 C913 1.349 . S
C912 C914 1.327 . S
C912 H937 0.950 . S
C913 C912 1.349 . S
C913 C929 1.349 . S
C914 C912 1.327 . S
C914 C933 1.429 . S
C914 H938 0.950 . S
C915 C932 1.574 . S
C915 C934 1.368 . S
C915 H939 0.949 . S
H916 C920 0.949 . S
C917 C918 1.349 . S
C917 C919 1.327 . S
C917 H940 0.950 . S
C918 C917 1.349 . S
C918 C930 1.349 . S
C919 C917 1.327 . S
C919 C935 1.429 . S
C919 H941 0.950 . S
C920 H916 0.949 . S
C920 C928 1.574 . S
C920 C936 1.368 . S
H921 C929 0.950 . S
H922 C927 0.950 . S
H923 C928 0.949 . S
H924 C930 0.950 . S
H925 C931 0.950 . S
H926 C932 0.949 . S
C927 H922 0.950 . S
C927 C929 1.327 . S
C927 C933 1.429 . S
C928 C920 1.574 . S
C928 H923 0.949 . S
C928 C934 1.368 . S
C929 C913 1.349 . S
C929 H921 0.950 . S
C929 C927 1.327 . S
C930 C918 1.349 . S
C930 H924 0.950 . S
C930 C931 1.327 . S
C931 H925 0.950 . S
C931 C930 1.327 . S
C931 C935 1.429 . S
C932 C915 1.574 . S
C932 H926 0.949 . S
C932 C936 1.368 . S
C933 C914 1.429 . S
C933 C927 1.429 . S
C933 C934 1.523 . S
C934 C915 1.368 . S
C934 C928 1.368 . S
C934 C933 1.523 . S
C935 C919 1.429 . S
C935 C931 1.429 . S
C935 C936 1.523 . S
C936 C920 1.368 . S
C936 C932 1.368 . S
C936 C935 1.523 . S
H937 C912 0.950 . S
H938 C914 0.950 . S
H939 C915 0.949 . S
H940 C917 0.950 . S
H941 C919 0.950 . S
C942 C943 1.349 . S
C942 C944 1.327 . S
C942 H967 0.950 . S
C943 C942 1.349 . S
C943 C959 1.349 . S
C944 C942 1.327 . S
C944 C963 1.429 . S
C944 H968 0.950 . S
C945 C962 1.574 . S
C945 C964 1.368 . S
C945 H969 0.949 . S
H946 C950 0.949 . S
C947 C948 1.349 . S
C947 C949 1.327 . S
C947 H970 0.950 . S
C948 C947 1.349 . S
C948 C960 1.349 . S
C949 C947 1.327 . S
C949 C965 1.429 . S
C949 H971 0.950 . S
C950 H946 0.949 . S
C950 C958 1.574 . S
C950 C966 1.368 . S
H951 C959 0.950 . S
H952 C957 0.950 . S
H953 C958 0.949 . S
H954 C960 0.950 . S
H955 C961 0.950 . S
H956 C962 0.949 . S
C957 H952 0.950 . S
C957 C959 1.327 . S
C957 C963 1.429 . S
C958 C950 1.574 . S
C958 H953 0.949 . S
C958 C964 1.368 . S
C959 C943 1.349 . S
C959 H951 0.950 . S
C959 C957 1.327 . S
C960 C948 1.349 . S
C960 H954 0.950 . S
C960 C961 1.327 . S
C961 H955 0.950 . S
C961 C960 1.327 . S
C961 C965 1.429 . S
C962 C945 1.574 . S
C962 H956 0.949 . S
C962 C966 1.368 . S
C963 C944 1.429 . S
C963 C957 1.429 . S
C963 C964 1.523 . S
C964 C945 1.368 . S
C964 C958 1.368 . S
C964 C963 1.523 . S
C965 C949 1.429 . S
C965 C961 1.429 . S
C965 C966 1.523 . S
C966 C950 1.368 . S
C966 C962 1.368 . S
C966 C965 1.523 . S
H967 C942 0.950 . S
H968 C944 0.950 . S
H969 C945 0.949 . S
H970 C947 0.950 . S
H971 C949 0.950 . S
C972 C973 1.349 . S
C972 C974 1.327 . S
C972 H997 0.950 . S
C973 C972 1.349 . S
C973 C989 1.349 . S
C974 C972 1.327 . S
C974 C993 1.429 . S
C974 H998 0.950 1_554 S
C975 C992 1.574 1_455 S
C975 C994 1.368 . S
C975 H999 0.949 . S
H976 C980 0.949 . S
C977 C978 1.349 . S
C977 C979 1.327 . S
C977 H1000 0.950 . S
C978 C977 1.349 . S
C978 C990 1.349 . S
C979 C977 1.327 . S
C979 C995 1.429 . S
C979 H1001 0.950 1_556 S
C980 H976 0.949 . S
C980 C988 1.574 . S
C980 C996 1.368 1_455 S
H981 C989 0.950 . S
H982 C987 0.950 . S
H983 C988 0.949 . S
H984 C990 0.950 . S
H985 C991 0.950 . S
H986 C992 0.949 . S
C987 H982 0.950 . S
C987 C989 1.327 . S
C987 C993 1.429 . S
C988 C980 1.574 . S
C988 H983 0.949 . S
C988 C994 1.368 1_556 S
C989 C973 1.349 . S
C989 H981 0.950 . S
C989 C987 1.327 . S
C990 C978 1.349 . S
C990 H984 0.950 . S
C990 C991 1.327 . S
C991 H985 0.950 . S
C991 C990 1.327 . S
C991 C995 1.429 . S
C992 C975 1.574 1_655 S
C992 H986 0.949 . S
C992 C996 1.368 1_554 S
C993 C974 1.429 . S
C993 C987 1.429 . S
C993 C994 1.523 . S
C994 C975 1.368 . S
C994 C988 1.368 1_554 S
C994 C993 1.523 . S
C995 C979 1.429 . S
C995 C991 1.429 . S
C995 C996 1.523 . S
C996 C980 1.368 1_655 S
C996 C992 1.368 1_556 S
C996 C995 1.523 . S
H997 C972 0.950 . S
H998 C974 0.950 1_556 S
H999 C975 0.949 . S
H1000 C977 0.950 . S
H1001 C979 0.950 1_554 S
C1002 C1003 1.349 . S
C1002 C1004 1.327 . S
C1002 H1027 0.950 . S
C1003 C1002 1.349 . S
C1003 C1019 1.349 . S
C1004 C1002 1.327 . S
C1004 C1023 1.429 . S
C1004 H1028 0.950 . S
C1005 C1022 1.574 . S
C1005 C1024 1.368 1_556 S
C1005 H1029 0.949 . S
H1006 C1010 0.949 . S
C1007 C1008 1.349 . S
C1007 C1009 1.327 . S
C1007 H1030 0.950 . S
C1008 C1007 1.349 . S
C1008 C1020 1.349 . S
C1009 C1007 1.327 . S
C1009 C1025 1.429 . S
C1009 H1031 0.950 . S
C1010 H1006 0.949 . S
C1010 C1018 1.574 . S
C1010 C1026 1.368 1_554 S
H1011 C1019 0.950 . S
H1012 C1017 0.950 1_556 S
H1013 C1018 0.949 . S
H1014 C1020 0.950 . S
H1015 C1021 0.942 1_554 S
H1016 C1022 0.949 . S
C1017 H1012 0.950 1_554 S
C1017 C1019 1.327 . S
C1017 C1023 1.429 . S
C1018 C1010 1.574 . S
C1018 H1013 0.949 . S
C1018 C1024 1.368 . S
C1019 C1003 1.349 . S
C1019 H1011 0.950 . S
C1019 C1017 1.327 . S
C1020 C1008 1.349 . S
C1020 H1014 0.950 . S
C1020 C1021 1.327 . S
C1021 H1015 0.942 1_556 S
C1021 C1020 1.327 . S
C1021 C1025 1.429 . S
C1022 C1005 1.574 . S
C1022 H1016 0.949 . S
C1022 C1026 1.368 . S
C1023 C1004 1.429 . S
C1023 C1017 1.429 . S
C1023 C1024 1.523 . S
C1024 C1005 1.368 1_554 S
C1024 C1018 1.368 . S
C1024 C1023 1.523 . S
C1025 C1009 1.429 . S
C1025 C1021 1.429 . S
C1025 C1026 1.523 . S
C1026 C1010 1.368 1_556 S
C1026 C1022 1.368 . S
C1026 C1025 1.523 . S
H1027 C1002 0.950 . S
H1028 C1004 0.950 . S
H1029 C1005 0.949 . S
H1030 C1007 0.950 . S
H1031 C1009 0.950 . S
C1032 C1033 1.349 . S
C1032 C1034 1.327 . S
C1032 H1057 0.950 . S
C1033 C1032 1.349 . S
C1033 C1049 1.349 . S
C1034 C1032 1.327 . S
C1034 C1053 1.429 . S
C1034 H1058 0.950 . S
C1035 C1052 1.574 1_565 S
C1035 C1054 1.368 1_556 S
C1035 H1059 0.949 . S
H1036 C1040 0.947 . S
C1037 C1038 1.349 . S
C1037 C1039 1.327 . S
C1037 H1060 0.950 . S
C1038 C1037 1.349 . S
C1038 C1050 1.349 . S
C1039 C1037 1.327 . S
C1039 C1055 1.429 . S
C1039 H1061 0.950 . S
C1040 H1036 0.947 . S
C1040 C1048 1.574 1_545 S
C1040 C1056 1.370 1_554 S
H1041 C1049 0.950 . S
H1042 C1047 0.950 1_556 S
H1043 C1048 0.949 . S
H1044 C1050 0.950 . S
H1045 C1051 0.950 1_554 S
H1046 C1052 0.949 . S
C1047 H1042 0.950 1_554 S
C1047 C1049 1.327 . S
C1047 C1053 1.429 . S
C1048 C1040 1.574 1_565 S
C1048 H1043 0.949 . S
C1048 C1054 1.368 . S
C1049 C1033 1.349 . S
C1049 H1041 0.950 . S
C1049 C1047 1.327 . S
C1050 C1038 1.349 . S
C1050 H1044 0.950 . S
C1050 C1051 1.327 . S
C1051 H1045 0.950 1_556 S
C1051 C1050 1.327 . S
C1051 C1055 1.429 . S
C1052 C1035 1.574 1_545 S
C1052 H1046 0.949 . S
C1052 C1056 1.368 . S
C1053 C1034 1.429 . S
C1053 C1047 1.429 . S
C1053 C1054 1.523 . S
C1054 C1035 1.368 1_554 S
C1054 C1048 1.368 . S
C1054 C1053 1.523 . S
C1055 C1039 1.429 . S
C1055 C1051 1.429 . S
C1055 C1056 1.523 . S
C1056 C1040 1.370 1_556 S
C1056 C1052 1.368 . S
C1056 C1055 1.523 . S
H1057 C1032 0.950 . S
H1058 C1034 0.950 . S
H1059 C1035 0.949 . S
H1060 C1037 0.950 . S
H1061 C1039 0.950 . S
C1062 C1063 1.349 . S
C1062 C1064 1.327 . S
C1062 H1087 0.950 . S
C1063 C1062 1.349 . S
C1063 C1079 1.349 . S
C1064 C1062 1.327 . S
C1064 C1083 1.429 . S
C1064 H1088 0.950 . S
C1065 C1082 1.574 . S
C1065 C1084 1.368 . S
C1065 H1089 0.949 . S
H1066 C1070 0.949 . S
C1067 C1068 1.349 . S
C1067 C1069 1.327 . S
C1067 H1090 0.950 . S
C1068 C1067 1.349 . S
C1068 C1080 1.349 . S
C1069 C1067 1.327 . S
C1069 C1085 1.429 . S
C1069 H1091 0.950 . S
C1070 H1066 0.949 . S
C1070 C1078 1.574 1_545 S
C1070 C1086 1.368 . S
H1071 C1079 0.950 . S
H1072 C1077 0.950 . S
H1073 C1078 0.949 . S
H1074 C1080 0.950 . S
H1075 C1081 0.950 . S
H1076 C1082 0.949 . S
C1077 H1072 0.950 . S
C1077 C1079 1.327 . S
C1077 C1083 1.429 . S
C1078 C1070 1.574 1_565 S
C1078 H1073 0.949 . S
C1078 C1084 1.368 . S
C1079 C1063 1.349 . S
C1079 H1071 0.950 . S
C1079 C1077 1.327 . S
C1080 C1068 1.349 . S
C1080 H1074 0.950 . S
C1080 C1081 1.327 . S
C1081 H1075 0.950 . S
C1081 C1080 1.327 . S
C1081 C1085 1.429 . S
C1082 C1065 1.574 . S
C1082 H1076 0.949 . S
C1082 C1086 1.368 1_565 S
C1083 C1064 1.429 . S
C1083 C1077 1.429 . S
C1083 C1084 1.523 . S
C1084 C1065 1.368 . S
C1084 C1078 1.368 . S
C1084 C1083 1.523 . S
C1085 C1069 1.429 . S
C1085 C1081 1.429 . S
C1085 C1086 1.523 . S
C1086 C1070 1.368 . S
C1086 C1082 1.368 1_545 S
C1086 C1085 1.523 . S
H1087 C1062 0.950 . S
H1088 C1064 0.950 . S
H1089 C1065 0.949 . S
H1090 C1067 0.950 . S
H1091 C1069 0.950 . S
C1092 C1093 1.349 . S
C1092 C1094 1.327 . S
C1092 H1117 0.950 . S
C1093 C1092 1.349 . S
C1093 C1109 1.349 . S
C1094 C1092 1.327 . S
C1094 C1113 1.429 . S
C1094 H1118 0.950 . S
C1095 C1112 1.575 1_655 S
C1095 C1114 1.387 . S
C1095 H1119 0.933 . S
H1096 C1100 0.957 1_455 S
C1097 C1098 1.349 . S
C1097 C1099 1.327 . S
C1097 H1120 0.950 . S
C1098 C1097 1.349 . S
C1098 C1110 1.349 . S
C1099 C1097 1.327 . S
C1099 C1115 1.429 . S
C1099 H1121 0.950 . S
C1100 H1096 0.957 1_655 S
C1100 C1108 1.574 . S
C1100 C1116 1.369 1_655 S
H1101 C1109 0.950 . S
H1102 C1107 0.950 . S
H1103 C1108 0.949 . S
H1104 C1110 0.950 . S
H1105 C1111 0.950 . S
H1106 C1112 0.949 . S
C1107 H1102 0.950 . S
C1107 C1109 1.327 . S
C1107 C1113 1.429 . S
C1108 C1100 1.574 . S
C1108 H1103 0.949 . S
C1108 C1114 1.368 . S
C1109 C1093 1.349 . S
C1109 H1101 0.950 . S
C1109 C1107 1.327 . S
C1110 C1098 1.349 . S
C1110 H1104 0.950 . S
C1110 C1111 1.327 . S
C1111 H1105 0.950 . S
C1111 C1110 1.327 . S
C1111 C1115 1.429 . S
C1112 C1095 1.575 1_455 S
C1112 H1106 0.949 . S
C1112 C1116 1.368 . S
C1113 C1094 1.429 . S
C1113 C1107 1.429 . S
C1113 C1114 1.523 . S
C1114 C1095 1.387 . S
C1114 C1108 1.368 . S
C1114 C1113 1.523 . S
C1115 C1099 1.429 . S
C1115 C1111 1.429 . S
C1115 C1116 1.523 . S
C1116 C1100 1.369 1_455 S
C1116 C1112 1.368 . S
C1116 C1115 1.523 . S
H1117 C1092 0.950 . S
H1118 C1094 0.950 . S
H1119 C1095 0.933 . S
H1120 C1097 0.950 . S
H1121 C1099 0.950 . S
C1122 C1123 1.349 . S
C1122 C1124 1.327 . S
C1122 H1147 0.950 . S
C1123 C1122 1.349 . S
C1123 C1139 1.349 . S
C1124 C1122 1.327 . S
C1124 C1143 1.429 . S
C1124 H1148 0.950 . S
C1125 C1142 1.574 . S
C1125 C1144 1.368 . S
C1125 H1149 0.949 . S
H1126 C1130 0.949 . S
C1127 C1128 1.349 . S
C1127 C1129 1.327 . S
C1127 H1150 0.950 . S
C1128 C1127 1.349 . S
C1128 C1140 1.349 . S
C1129 C1127 1.327 . S
C1129 C1145 1.429 . S
C1129 H1151 0.950 . S
C1130 H1126 0.949 . S
C1130 C1138 1.574 . S
C1130 C1146 1.368 . S
H1131 C1139 0.950 . S
H1132 C1137 0.950 . S
H1133 C1138 0.949 . S
H1134 C1140 0.950 . S
H1135 C1141 0.950 . S
H1136 C1142 0.949 . S
C1137 H1132 0.950 . S
C1137 C1139 1.327 . S
C1137 C1143 1.429 . S
C1138 C1130 1.574 . S
C1138 H1133 0.949 . S
C1138 C1144 1.368 . S
C1139 C1123 1.349 . S
C1139 H1131 0.950 . S
C1139 C1137 1.327 . S
C1140 C1128 1.349 . S
C1140 H1134 0.950 . S
C1140 C1141 1.327 . S
C1141 H1135 0.950 . S
C1141 C1140 1.327 . S
C1141 C1145 1.429 . S
C1142 C1125 1.574 . S
C1142 H1136 0.949 . S
C1142 C1146 1.368 . S
C1143 C1124 1.429 . S
C1143 C1137 1.429 . S
C1143 C1144 1.523 . S
C1144 C1125 1.368 . S
C1144 C1138 1.368 . S
C1144 C1143 1.523 . S
C1145 C1129 1.429 . S
C1145 C1141 1.429 . S
C1145 C1146 1.523 . S
C1146 C1130 1.368 . S
C1146 C1142 1.368 . S
C1146 C1145 1.523 . S
H1147 C1122 0.950 . S
H1148 C1124 0.950 . S
H1149 C1125 0.949 . S
H1150 C1127 0.950 . S
H1151 C1129 0.950 . S
C433 C4 0.460 . S
C438 C254 0.471 . S
C463 C40 0.445 . S
C468 C290 0.443 . S
C493 C86 0.535 . S
C498 C218 0.507 . S
C523 C398 0.507 . S
C528 C122 0.534 . S
C553 C148 0.445 . S
C558 C326 0.443 . S
C583 C362 0.471 . S
C588 C184 0.459 . S
C613 C38 0.419 . S
C618 C220 0.420 . S
C643 C256 0.409 . S
C648 C75 0.374 . S
C673 C2 0.529 . S
C678 C292 0.528 . S
C703 C328 0.528 . S
C708 C182 0.528 . S
C733 C364 0.409 . S
C738 C111 0.375 . S
C763 C146 0.419 . S
C768 C400 0.420 . S
C793 C194 1.491 . S
C798 C14 1.491 . S
C823 C50 1.431 . S
C828 C112 1.537 . S
C853 C76 1.537 . S
C858 C158 1.431 . S
C883 C230 1.442 . S
C888 C410 1.442 . S
C913 C266 1.457 . S
C918 C338 1.458 . S
C943 C302 1.458 . S
C948 C374 1.457 . S
C973 C3 1.635 . S
C978 C219 1.635 . S
C1003 C39 1.597 . S
C1008 C255 1.595 . S
C1033 C74 1.627 . S
C1038 C291 1.653 . S
C1063 C110 1.627 . S
C1068 C327 1.653 . S
C1093 C363 1.595 . S
C1098 C147 1.597 . S
C1123 C183 1.635 . S
C1128 C399 1.635 . S
