# Generated by pormake.
# Topology snl, (6)-cn, num edge types: 1
# Building blocks:
#     Node 0, Type 0, BuildingBlock: KUMBOL_clean_sbu_1, # of connection points: 6
#     Node 1, Type 0, BuildingBlock: KUMBOL_clean_sbu_1, # of connection points: 6
#     Node 2, Type 0, BuildingBlock: KUMBOL_clean_sbu_1, # of connection points: 6
#     Node 3, Type 0, BuildingBlock: KUMBOL_clean_sbu_1, # of connection points: 6
#     Node 4, Type 0, BuildingBlock: KUMBOL_clean_sbu_1, # of connection points: 6
#     Node 5, Type 0, BuildingBlock: KUMBOL_clean_sbu_1, # of connection points: 6
#     Node 6, Type 0, BuildingBlock: KUMBOL_clean_sbu_1, # of connection points: 6
#     Node 7, Type 0, BuildingBlock: KUMBOL_clean_sbu_1, # of connection points: 6
#     Node 8, Type 0, BuildingBlock: KUMBOL_clean_sbu_1, # of connection points: 6
#     Node 9, Type 0, BuildingBlock: KUMBOL_clean_sbu_1, # of connection points: 6
#     Node 10, Type 0, BuildingBlock: KUMBOL_clean_sbu_1, # of connection points: 6
#     Node 11, Type 0, BuildingBlock: KUMBOL_clean_sbu_1, # of connection points: 6
#     Node 12, Type 0, BuildingBlock: KUMBOL_clean_sbu_1, # of connection points: 6
#     Node 13, Type 0, BuildingBlock: KUMBOL_clean_sbu_1, # of connection points: 6
#     Node 14, Type 0, BuildingBlock: KUMBOL_clean_sbu_1, # of connection points: 6
#     Node 15, Type 0, BuildingBlock: KUMBOL_clean_sbu_1, # of connection points: 6
#     Edge 16, Type (0, 0), BuildingBlock: OJICUG_clean_linker_0, # of connection points: 2
#     Edge 17, Type (0, 0), BuildingBlock: OJICUG_clean_linker_0, # of connection points: 2
#     Edge 18, Type (0, 0), BuildingBlock: OJICUG_clean_linker_0, # of connection points: 2
#     Edge 19, Type (0, 0), BuildingBlock: OJICUG_clean_linker_0, # of connection points: 2
#     Edge 20, Type (0, 0), BuildingBlock: OJICUG_clean_linker_0, # of connection points: 2
#     Edge 21, Type (0, 0), BuildingBlock: OJICUG_clean_linker_0, # of connection points: 2
#     Edge 22, Type (0, 0), BuildingBlock: OJICUG_clean_linker_0, # of connection points: 2
#     Edge 23, Type (0, 0), BuildingBlock: OJICUG_clean_linker_0, # of connection points: 2
#     Edge 24, Type (0, 0), BuildingBlock: OJICUG_clean_linker_0, # of connection points: 2
#     Edge 25, Type (0, 0), BuildingBlock: OJICUG_clean_linker_0, # of connection points: 2
#     Edge 26, Type (0, 0), BuildingBlock: OJICUG_clean_linker_0, # of connection points: 2
#     Edge 27, Type (0, 0), BuildingBlock: OJICUG_clean_linker_0, # of connection points: 2
#     Edge 28, Type (0, 0), BuildingBlock: OJICUG_clean_linker_0, # of connection points: 2
#     Edge 29, Type (0, 0), BuildingBlock: OJICUG_clean_linker_0, # of connection points: 2
#     Edge 30, Type (0, 0), BuildingBlock: OJICUG_clean_linker_0, # of connection points: 2
#     Edge 31, Type (0, 0), BuildingBlock: OJICUG_clean_linker_0, # of connection points: 2
#     Edge 32, Type (0, 0), BuildingBlock: OJICUG_clean_linker_0, # of connection points: 2
#     Edge 33, Type (0, 0), BuildingBlock: OJICUG_clean_linker_0, # of connection points: 2
#     Edge 34, Type (0, 0), BuildingBlock: OJICUG_clean_linker_0, # of connection points: 2
#     Edge 35, Type (0, 0), BuildingBlock: OJICUG_clean_linker_0, # of connection points: 2
#     Edge 36, Type (0, 0), BuildingBlock: OJICUG_clean_linker_0, # of connection points: 2
#     Edge 37, Type (0, 0), BuildingBlock: OJICUG_clean_linker_0, # of connection points: 2
#     Edge 38, Type (0, 0), BuildingBlock: OJICUG_clean_linker_0, # of connection points: 2
#     Edge 39, Type (0, 0), BuildingBlock: OJICUG_clean_linker_0, # of connection points: 2
#     Edge 40, Type (0, 0), BuildingBlock: OJICUG_clean_linker_0, # of connection points: 2
#     Edge 41, Type (0, 0), BuildingBlock: OJICUG_clean_linker_0, # of connection points: 2
#     Edge 42, Type (0, 0), BuildingBlock: OJICUG_clean_linker_0, # of connection points: 2
#     Edge 43, Type (0, 0), BuildingBlock: OJICUG_clean_linker_0, # of connection points: 2
#     Edge 44, Type (0, 0), BuildingBlock: OJICUG_clean_linker_0, # of connection points: 2
#     Edge 45, Type (0, 0), BuildingBlock: OJICUG_clean_linker_0, # of connection points: 2
#     Edge 46, Type (0, 0), BuildingBlock: OJICUG_clean_linker_0, # of connection points: 2
#     Edge 47, Type (0, 0), BuildingBlock: OJICUG_clean_linker_0, # of connection points: 2
#     Edge 48, Type (0, 0), BuildingBlock: OJICUG_clean_linker_0, # of connection points: 2
#     Edge 49, Type (0, 0), BuildingBlock: OJICUG_clean_linker_0, # of connection points: 2
#     Edge 50, Type (0, 0), BuildingBlock: OJICUG_clean_linker_0, # of connection points: 2
#     Edge 51, Type (0, 0), BuildingBlock: OJICUG_clean_linker_0, # of connection points: 2
#     Edge 52, Type (0, 0), BuildingBlock: OJICUG_clean_linker_0, # of connection points: 2
#     Edge 53, Type (0, 0), BuildingBlock: OJICUG_clean_linker_0, # of connection points: 2
#     Edge 54, Type (0, 0), BuildingBlock: OJICUG_clean_linker_0, # of connection points: 2
#     Edge 55, Type (0, 0), BuildingBlock: OJICUG_clean_linker_0, # of connection points: 2
#     Edge 56, Type (0, 0), BuildingBlock: OJICUG_clean_linker_0, # of connection points: 2
#     Edge 57, Type (0, 0), BuildingBlock: OJICUG_clean_linker_0, # of connection points: 2
#     Edge 58, Type (0, 0), BuildingBlock: OJICUG_clean_linker_0, # of connection points: 2
#     Edge 59, Type (0, 0), BuildingBlock: OJICUG_clean_linker_0, # of connection points: 2
#     Edge 60, Type (0, 0), BuildingBlock: OJICUG_clean_linker_0, # of connection points: 2
#     Edge 61, Type (0, 0), BuildingBlock: OJICUG_clean_linker_0, # of connection points: 2
#     Edge 62, Type (0, 0), BuildingBlock: OJICUG_clean_linker_0, # of connection points: 2
#     Edge 63, Type (0, 0), BuildingBlock: OJICUG_clean_linker_0, # of connection points: 2
# Relax obj value: 0.157
# Max RMSD: 0.239
# Mean RMSD: 0.236
data_MOF--net-snl--node1-KUMBOL_clean_sbu_1--edge1-OJICUG_clean_linker_0
_symmetry_space_group_name_H-M    P1
_symmetry_Int_Tables_number       1
_symmetry_cell_setting            triclinic
loop_
_symmetry_equiv_pos_as_xyz
'x, y, z'
_cell_length_a     40.87876
_cell_length_b     40.935923
_cell_length_c     20.630434
_cell_angle_alpha  90.347942
_cell_angle_beta   90.45823
_cell_angle_gamma 90.040269
loop_
_atom_site_label
_atom_site_type_symbol
_atom_site_fract_x
_atom_site_fract_y
_atom_site_fract_z
_atom_type_partial_charge
C0 C 0.12727 0.54396 0.20573 0.0
C1 C 0.18032 0.51818 0.21918 0.0
C2 C 0.16074 0.54653 0.21859 0.0
C3 C 0.16626 0.48777 0.20395 0.0
C4 C 0.1129 0.51331 0.19255 0.0
C5 C 0.13264 0.48529 0.19107 0.0
N6 N 0.10917 0.57182 0.20197 0.0
C7 C 0.07635 0.57067 0.18965 0.0
C8 C 0.07925 0.51191 0.17918 0.0
C9 C 0.06091 0.54071 0.17792 0.0
Gd10 Gd 0.16286 0.65739 0.0571 0.0
Gd11 Gd 0.13711 0.62061 0.22381 0.0
N12 N 0.17406 0.57656 0.23071 0.0
C13 C 0.21342 0.52116 0.23596 0.0
C14 C 0.20542 0.57897 0.25326 0.0
C15 C 0.2258 0.55159 0.25456 0.0
H16 H 0.21451 0.60145 0.27323 0.0
H17 H 0.25083 0.55392 0.27131 0.0
H18 H 0.09141 0.699 0.05385 0.0
H19 H 0.0622 0.59291 0.18856 0.0
H20 H 0.07012 0.7514 0.02982 0.0
H21 H 0.22927 0.49995 0.23709 0.0
H22 H 0.18112 0.46585 0.20304 0.0
H23 H 0.24236 0.64908 0.03136 0.0
H24 H 0.0673 0.48879 0.16899 0.0
H25 H 0.03496 0.53987 0.1673 0.0
H26 H 0.19684 0.82063 0.89616 0.0
H27 H 0.12217 0.46156 0.17997 0.0
H28 H 0.28299 0.73218 0.93731 0.0
H29 H 0.28812 0.67788 0.98428 0.0
N30 N 0.2084 0.68782 0.02329 0.0
C31 C 0.20183 0.71846 1.00221 0.0
C32 C 0.23859 0.67407 1.01653 0.0
C33 C 0.26198 0.72141 0.96064 0.0
C34 C 0.26486 0.69038 0.98772 0.0
C35 C 0.23255 0.73822 0.96219 0.0
H36 H 0.2524 0.78429 0.90086 0.0
N37 N 0.1414 0.70982 0.03832 0.0
C38 C 0.16294 0.73115 1.01302 0.0
C39 C 0.11489 0.77233 0.99826 0.0
C40 C 0.14892 0.76752 0.98368 0.0
C41 C 0.10876 0.71681 0.039 0.0
C42 C 0.09609 0.74732 0.02347 0.0
O43 O 0.13289 0.59395 0.12542 0.0
O44 O 0.18061 0.60703 0.08003 0.0
O45 O 0.13608 0.63069 0.98136 0.0
O46 O 0.17718 0.6614 0.95712 0.0
O47 O 0.1844 0.64857 0.22864 0.0
O48 O 0.20612 0.64428 0.12582 0.0
O49 O 0.15356 0.69746 0.1293 0.0
O50 O 0.13733 0.67695 0.22932 0.0
O51 O 0.14739 0.61181 0.32567 0.0
O52 O 0.09756 0.61855 0.29248 0.0
O53 O 0.10826 0.64374 0.07047 0.0
O54 O 0.09706 0.64968 0.1793 0.0
C55 C 0.1574 0.58561 0.08784 0.0
C56 C 0.20942 0.6499 0.18924 0.0
C57 C 0.16405 0.62062 0.88246 0.0
C58 C 0.16164 0.6089 0.76704 0.0
C59 C 0.19975 0.57958 0.83622 0.0
C60 C 0.18971 0.5983 0.88933 0.0
C61 C 0.18574 0.58477 0.77509 0.0
C62 C 0.15022 0.62598 0.82137 0.0
C63 C 0.15443 0.64225 0.93538 0.0
C64 C 0.19582 0.79738 0.92203 0.0
C65 C 0.23083 0.77491 0.92441 0.0
H66 H 0.1011 0.79426 0.98841 0.0
C67 C 0.1443 0.70136 0.18954 0.0
C68 C 0.08746 0.64766 0.11887 0.0
C69 C 0.11106 0.63747 0.39731 0.0
C70 C 0.11638 0.64797 0.51322 0.0
C71 C 0.08864 0.68713 0.4435 0.0
C72 C 0.0945 0.66725 0.38969 0.0
C73 C 0.09929 0.67754 0.50498 0.0
C74 C 0.12226 0.62818 0.45871 0.0
C75 C 0.11699 0.61557 0.34223 0.0
H76 H 0.2193 0.56199 0.8419 0.0
H77 H 0.2026 0.59634 0.93495 0.0
H78 H 0.19483 0.5712 0.73377 0.0
H79 H 0.13149 0.64455 0.81561 0.0
H80 H 0.07561 0.70995 0.43762 0.0
H81 H 0.08599 0.67509 0.34241 0.0
H82 H 0.09379 0.69312 0.54604 0.0
H83 H 0.13587 0.60559 0.46362 0.0
C84 C 0.74338 0.87899 0.49168 0.0
C85 C 0.76714 0.92926 0.53322 0.0
C86 C 0.73951 0.91102 0.51379 0.0
C87 C 0.79834 0.9156 0.52707 0.0
C88 C 0.77481 0.86531 0.48525 0.0
C89 C 0.80231 0.88395 0.50239 0.0
N90 N 0.71629 0.8613 0.47564 0.0
C91 C 0.71871 0.82917 0.45779 0.0
C92 C 0.77762 0.83312 0.46256 0.0
C93 C 0.74944 0.815 0.44878 0.0
Gd94 Gd 0.63596 0.91513 0.31481 0.0
Gd95 Gd 0.66621 0.88818 0.4891 0.0
N96 N 0.70884 0.92351 0.52036 0.0
C97 C 0.76258 0.96014 0.5612 0.0
C98 C 0.70424 0.95209 0.55365 0.0
C99 C 0.73093 0.97127 0.57278 0.0
H100 H 0.68007 0.95972 0.56781 0.0
H101 H 0.72707 0.99425 0.59782 0.0
H102 H 0.64159 0.85332 0.20915 0.0
H103 H 0.69693 0.81492 0.44858 0.0
H104 H 0.6154 0.83456 0.11056 0.0
H105 H 0.78328 0.97484 0.57679 0.0
H106 H 0.81937 0.92908 0.54343 0.0
H107 H 0.59076 0.96547 0.41008 0.0
H108 H 0.8014 0.82189 0.45648 0.0
H109 H 0.75137 0.78999 0.43196 0.0
H110 H 0.50539 0.91699 0.13366 0.0
H111 H 0.82667 0.8738 0.49833 0.0
H112 H 0.49719 0.98205 0.33437 0.0
H113 H 0.53786 0.9899 0.41367 0.0
N114 N 0.58316 0.93717 0.32576 0.0
C115 C 0.56225 0.9282 0.27787 0.0
C116 C 0.57424 0.95922 0.37181 0.0
C117 C 0.51946 0.96844 0.32629 0.0
C118 C 0.5433 0.9735 0.37378 0.0
C119 C 0.52535 0.94751 0.27125 0.0
H120 H 0.46968 0.94099 0.14149 0.0
N121 N 0.60526 0.88787 0.23491 0.0
C122 C 0.57615 0.90201 0.22095 0.0
C123 C 0.57465 0.86701 0.11473 0.0
C124 C 0.55795 0.89074 0.14944 0.0
C125 C 0.61809 0.86373 0.19691 0.0
C126 C 0.6034 0.85334 0.13885 0.0
O127 O 0.6988 0.883 0.39788 0.0
O128 O 0.68612 0.92967 0.34866 0.0
O129 O 0.66326 0.91288 0.22429 0.0
O130 O 0.62882 0.95333 0.24287 0.0
O131 O 0.64323 0.93839 0.48516 0.0
O132 O 0.65061 0.95831 0.38155 0.0
O133 O 0.59802 0.88901 0.37546 0.0
O134 O 0.61214 0.90337 0.48053 0.0
O135 O 0.6748 0.8914 0.59312 0.0
O136 O 0.65234 0.84827 0.55287 0.0
O137 O 0.65175 0.86072 0.3249 0.0
O138 O 0.64161 0.84806 0.43263 0.0
C139 C 0.70736 0.90673 0.35894 0.0
C140 C 0.64901 0.96263 0.44527 0.0
C141 C 0.65527 0.95227 0.13748 0.0
C142 C 0.65488 0.94774 0.01846 0.0
C143 C 0.67012 0.99892 0.07239 0.0
C144 C 0.66507 0.98491 0.13285 0.0
C145 C 0.6652 0.98062 1.0158 0.0
C146 C 0.64996 0.93375 0.08036 0.0
C147 C 0.64823 0.93872 0.20192 0.0
C148 C 0.52159 0.9024 0.11796 0.0
C149 C 0.49621 0.93079 0.16047 0.0
H150 H 0.56474 0.8581 0.06912 0.0
C151 C 0.59032 0.89342 0.43688 0.0
C152 C 0.64511 0.83934 0.37154 0.0
C153 C 0.64046 0.86165 0.664 0.0
C154 C 0.63119 0.8748 0.77881 0.0
C155 C 0.59667 0.83513 0.72304 0.0
C156 C 0.61415 0.83957 0.66589 0.0
C157 C 0.60528 0.85235 0.77927 0.0
C158 C 0.6486 0.87961 0.7208 0.0
C159 C 0.66147 0.86348 0.60564 0.0
H160 H 0.6781 0.02408 0.06932 0.0
H161 H 0.66884 0.9996 0.17616 0.0
H162 H 0.67042 0.99223 0.97007 0.0
H163 H 0.64131 0.90887 0.08443 0.0
H164 H 0.57654 0.81795 0.72396 0.0
H165 H 0.6074 0.82523 0.62356 0.0
H166 H 0.59144 0.8484 0.82311 0.0
H167 H 0.669 0.89655 0.72055 0.0
C168 C 0.43594 0.48621 0.7619 0.0
C169 C 0.3933 0.52738 0.7605 0.0
C170 C 0.40292 0.49439 0.75616 0.0
C171 C 0.41685 0.5517 0.77267 0.0
C172 C 0.45951 0.51055 0.77534 0.0
C173 C 0.44977 0.54328 0.78083 0.0
N174 N 0.44514 0.45463 0.75302 0.0
C175 C 0.47702 0.4454 0.7596 0.0
C176 C 0.49224 0.50122 0.78314 0.0
C177 C 0.50088 0.46841 0.77621 0.0
Gd178 Gd 0.37241 0.39072 0.56195 0.0
Gd179 Gd 0.40287 0.4173 0.73751 0.0
N180 N 0.38053 0.47039 0.74341 0.0
C181 C 0.36035 0.53512 0.75132 0.0
C182 C 0.34829 0.4781 0.7341 0.0
C183 C 0.33778 0.51047 0.73787 0.0
H184 H 0.33039 0.4599 0.72205 0.0
H185 H 0.31227 0.51642 0.72992 0.0
H186 H 0.40517 0.31813 0.52033 0.0
H187 H 0.48398 0.42008 0.75431 0.0
H188 H 0.38634 0.26454 0.47973 0.0
H189 H 0.35218 0.56007 0.75389 0.0
H190 H 0.4099 0.57715 0.77562 0.0
H191 H 0.30695 0.43961 0.55678 0.0
H192 H 0.51097 0.5191 0.79482 0.0
H193 H 0.52587 0.46076 0.78414 0.0
H194 H 0.27009 0.27665 0.45777 0.0
H195 H 0.46757 0.56233 0.7907 0.0
H196 H 0.22391 0.3821 0.50041 0.0
H197 H 0.24803 0.4353 0.53263 0.0
N198 N 0.31598 0.38901 0.54123 0.0
C199 C 0.30363 0.35978 0.52144 0.0
C200 C 0.29661 0.41622 0.54334 0.0
C201 C 0.2498 0.38376 0.51151 0.0
C202 C 0.26322 0.41385 0.52961 0.0
C203 C 0.27011 0.35635 0.50619 0.0
H204 H 0.23239 0.32284 0.47306 0.0
N205 N 0.35715 0.33795 0.52752 0.0
C206 C 0.32483 0.33355 0.51417 0.0
C207 C 0.33553 0.2784 0.47758 0.0
C208 C 0.3131 0.30351 0.48947 0.0
C209 C 0.37924 0.3138 0.5141 0.0
C210 C 0.36874 0.28359 0.4899 0.0
O211 O 0.4131 0.45131 0.65031 0.0
O212 O 0.36485 0.44078 0.6031 0.0
O213 O 0.37633 0.42868 0.48912 0.0
O214 O 0.38285 0.3783 0.46164 0.0
O215 O 0.3492 0.40662 0.73937 0.0
O216 O 0.33108 0.3882 0.63783 0.0
O217 O 0.3997 0.35238 0.61743 0.0
O218 O 0.38566 0.3639 0.7225 0.0
O219 O 0.39116 0.42491 0.83922 0.0
O220 O 0.43388 0.39704 0.81284 0.0
O221 O 0.42871 0.39773 0.57483 0.0
O222 O 0.44161 0.39051 0.68358 0.0
C223 C 0.39024 0.45988 0.60846 0.0
C224 C 0.32627 0.39595 0.69965 0.0
C225 C 0.35815 0.41233 0.3846 0.0
C226 C 0.34764 0.40276 0.26975 0.0
C227 C 0.3072 0.43057 0.33555 0.0
C228 C 0.32798 0.42852 0.38933 0.0
C229 C 0.3169 0.4177 0.27595 0.0
C230 C 0.36785 0.39942 0.32464 0.0
C231 C 0.37959 0.40806 0.44148 0.0
C232 C 0.27957 0.29971 0.47593 0.0
C233 C 0.2581 0.326 0.48463 0.0
H234 H 0.3275 0.25505 0.45813 0.0
C235 C 0.39343 0.34273 0.67646 0.0
C236 C 0.45028 0.39346 0.62279 0.0
C237 C 0.40498 0.38018 0.90499 0.0
C238 C 0.38776 0.36404 1.01312 0.0
C239 C 0.39036 0.32376 0.9263 0.0
C240 C 0.40081 0.34778 0.88354 0.0
C241 C 0.38379 0.33178 0.99069 0.0
C242 C 0.39866 0.38815 0.96992 0.0
C243 C 0.4146 0.40597 0.85953 0.0
H244 H 0.28386 0.44283 0.33971 0.0
H245 H 0.32049 0.43977 0.43424 0.0
H246 H 0.30092 0.42044 0.2342 0.0
H247 H 0.39135 0.38734 0.32041 0.0
H248 H 0.38711 0.29888 0.90937 0.0
H249 H 0.40557 0.34099 0.83377 0.0
H250 H 0.3755 0.31276 0.02294 0.0
H251 H 0.40106 0.4133 0.98609 0.0
C252 C 0.92475 0.03632 0.83208 0.0
C253 C 0.87467 1.0047 0.82459 0.0
C254 C 0.89089 0.03521 0.82418 0.0
C255 C 0.89269 0.97581 0.83249 0.0
C256 C 0.94286 1.00731 0.84075 0.0
C257 C 0.92665 0.97714 0.84081 0.0
N258 N 0.93963 0.06593 0.83713 0.0
C259 C 0.97244 0.06836 0.84888 0.0
C260 C 0.97657 1.0096 0.85255 0.0
C261 C 0.99134 0.04027 0.85718 0.0
Gd262 Gd 0.8733 0.14764 0.987 0.0
Gd263 Gd 0.90662 0.11181 0.82151 0.0
N264 N 0.87375 0.0638 0.81958 0.0
C265 C 0.84065 1.00404 0.81873 0.0
C266 C 0.84045 0.06289 0.81245 0.0
C267 C 0.82355 0.03322 0.81251 0.0
H268 H 0.82619 0.08448 0.80608 0.0
H269 H 0.79722 0.03284 0.80773 0.0
H270 H 0.90631 0.2208 0.02281 0.0
H271 H 0.98409 0.09199 0.8519 0.0
H272 H 0.88746 0.27597 0.05213 0.0
H273 H 0.82733 0.98114 0.81919 0.0
H274 H 0.8805 0.95231 0.8334 0.0
H275 H 0.80682 0.09913 0.99419 0.0
H276 H 0.99126 0.98787 0.85962 0.0
H277 H 1.01728 0.0423 0.86734 0.0
H278 H 0.77053 0.26645 0.05762 0.0
H279 H 0.94009 0.9547 0.84876 0.0
H280 H 0.72382 0.15995 0.03018 0.0
H281 H 0.74748 0.10519 1.01112 0.0
N282 N 0.81653 0.15016 1.00124 0.0
C283 C 0.80421 0.1804 1.01361 0.0
C284 C 0.79677 0.1232 1.00189 0.0
C285 C 0.74987 0.1575 0.02226 0.0
C286 C 0.76313 0.12652 1.01157 0.0
C287 C 0.77047 0.18485 0.02429 0.0
H288 H 0.73257 0.22012 0.0462 0.0
N289 N 0.85822 0.20159 1.01067 0.0
C290 C 0.82562 0.20681 0.01839 0.0
C291 C 0.83634 0.2631 0.04768 0.0
C292 C 0.8138 0.23792 0.03626 0.0
C293 C 0.88036 0.22581 0.02394 0.0
C294 C 0.86976 0.25697 0.0417 0.0
O295 O 0.91342 0.08535 0.91878 0.0
O296 O 0.86395 0.09555 0.95914 0.0
O297 O 0.88767 0.11515 0.06513 0.0
O298 O 0.87263 0.16415 0.08765 0.0
O299 O 0.85695 0.13309 0.80562 0.0
O300 O 0.83401 0.14838 0.90425 0.0
O301 O 0.903 0.18274 0.93048 0.0
O302 O 0.89615 0.16772 0.82325 0.0
O303 O 0.89919 0.10154 0.71856 0.0
O304 O 0.94642 0.1171 0.75422 0.0
O305 O 0.93039 0.14327 0.97855 0.0
O306 O 0.94599 0.14022 0.8703 0.0
C307 C 0.88932 0.0764 0.95643 0.0
C308 C 0.83237 0.144 0.84015 0.0
C309 C 0.86411 0.12434 0.16762 0.0
C310 C 0.86109 0.11962 0.28507 0.0
C311 C 0.81962 0.09423 0.21645 0.0
C312 C 0.83527 0.10601 0.16138 0.0
C313 C 0.83245 0.10092 0.2781 0.0
C314 C 0.8768 0.13128 0.22949 0.0
C315 C 0.88171 0.1362 0.11071 0.0
C316 C 0.78007 0.24261 0.04473 0.0
C317 C 0.75845 0.21621 0.03834 0.0
H318 H 0.82821 0.28713 0.06281 0.0
C319 C 0.89999 0.19031 0.86926 0.0
C320 C 0.95311 0.14251 0.93222 0.0
C321 C 0.93122 0.13455 0.64924 0.0
C322 C 0.91957 0.14844 0.53601 0.0
C323 C 0.95571 0.18275 0.60181 0.0
C324 C 0.95114 0.16244 0.65486 0.0
C325 C 0.94051 0.17565 0.54267 0.0
C326 C 0.91502 0.12808 0.59023 0.0
C327 C 0.92842 0.11126 0.70334 0.0
H328 H 0.79747 0.07991 0.21135 0.0
H329 H 0.82495 0.10072 0.11419 0.0
H330 H 0.81995 0.09168 0.32032 0.0
H331 H 0.89917 0.14539 0.23435 0.0
H332 H 0.97155 0.20386 0.60626 0.0
H333 H 0.9636 0.16841 0.69991 0.0
H334 H 0.94575 0.19135 0.50206 0.0
H335 H 0.89893 0.10711 0.58707 0.0
C336 C 0.24699 0.39056 0.99163 0.0
C337 C 0.26563 0.44447 0.02374 0.0
C338 C 0.23993 0.42251 1.00942 0.0
C339 C 0.29811 0.43497 1.01257 0.0
C340 C 0.27959 0.38022 0.98465 0.0
C341 C 0.30498 0.40303 0.99219 0.0
N342 N 0.2218 0.3693 0.98251 0.0
C343 C 0.22746 0.33666 0.97427 0.0
C344 C 0.28564 0.34718 0.97143 0.0
C345 C 0.25951 0.32519 0.96763 0.0
Gd346 Gd 0.13734 0.41412 0.81341 0.0
Gd347 Gd 0.16902 0.39125 0.98964 0.0
N348 N 0.20819 0.43109 0.01894 0.0
C349 C 0.25803 0.47459 0.05213 0.0
C350 C 0.20111 0.45876 0.05339 0.0
C351 C 0.22576 0.48122 0.06925 0.0
H352 H 0.17647 0.46344 0.06943 0.0
H353 H 0.21988 0.50354 0.09493 0.0
H354 H 0.14192 0.35152 0.70949 0.0
H355 H 0.20701 0.32004 0.9694 0.0
H356 H 0.11596 0.33289 0.61057 0.0
H357 H 0.27707 0.49203 0.06445 0.0
H358 H 0.31815 0.45176 0.02163 0.0
H359 H 0.09149 0.46376 0.90969 0.0
H360 H 0.31037 0.3383 0.96511 0.0
H361 H 0.26406 0.29964 0.95775 0.0
H362 H 1.00582 0.41496 0.63366 0.0
H363 H 0.33004 0.39596 0.9843 0.0
H364 H 0.99807 0.48051 0.8338 0.0
H365 H 0.0387 0.48817 0.91322 0.0
N366 N 0.08456 0.4366 0.82369 0.0
C367 C 0.06355 0.42752 0.77608 0.0
C368 C 0.07529 0.458 0.87067 0.0
C369 C 0.02042 0.4671 0.8254 0.0
C370 C 0.04427 0.4721 0.87288 0.0
C371 C 0.02629 0.44621 0.77033 0.0
H372 H 0.96978 0.43839 0.64225 0.0
N373 N 0.10629 0.38712 0.73357 0.0
C374 C 0.07736 0.40139 0.71921 0.0
C375 C 0.07553 0.36577 0.61382 0.0
C376 C 0.05888 0.38962 0.64828 0.0
C377 C 0.11875 0.36242 0.69644 0.0
C378 C 0.10415 0.35199 0.63832 0.0
O379 O 0.20063 0.38204 0.89897 0.0
O380 O 0.18745 0.42776 0.84753 0.0
O381 O 0.16733 0.40796 0.72751 0.0
O382 O 0.13214 0.44868 0.73441 0.0
O383 O 0.14383 0.44024 0.9796 0.0
O384 O 0.15145 0.45905 0.87549 0.0
O385 O 0.10085 0.38703 0.87565 0.0
O386 O 0.1145 0.40471 0.9789 0.0
O387 O 0.17853 0.39432 0.09317 0.0
O388 O 0.15349 0.35233 0.05407 0.0
O389 O 0.15221 0.35993 0.82583 0.0
O390 O 0.14766 0.34832 0.93598 0.0
C391 C 0.20803 0.40401 0.85539 0.0
C392 C 0.15014 0.46407 0.939 0.0
C393 C 0.16576 0.44615 0.63902 0.0
C394 C 0.17051 0.44309 0.52101 0.0
C395 C 0.19995 0.48486 0.58324 0.0
C396 C 0.18699 0.4729 0.64081 0.0
C397 C 0.19185 0.47015 0.52383 0.0
C398 C 0.15737 0.43151 0.57949 0.0
C399 C 0.15267 0.43223 0.69849 0.0
C400 C 0.02215 0.4006 0.61766 0.0
C401 C 0.99661 0.42869 0.66057 0.0
H402 H 0.06552 0.35662 0.56847 0.0
C403 C 0.09308 0.39243 0.93671 0.0
C404 C 0.14827 0.33921 0.87459 0.0
C405 C 0.14084 0.36888 0.16246 0.0
C406 C 0.13197 0.38264 0.27656 0.0
C407 C 0.08983 0.35424 0.21454 0.0
C408 C 0.10957 0.35464 0.15959 0.0
C409 C 0.10102 0.36787 0.27286 0.0
C410 C 0.15171 0.38328 0.22105 0.0
C411 C 0.16312 0.36757 0.10637 0.0
H412 H 0.21663 0.50539 0.58468 0.0
H413 H 0.19366 0.48432 0.68655 0.0
H414 H 0.20314 0.47952 0.48047 0.0
H415 H 0.14028 0.41127 0.57915 0.0
H416 H 0.06582 0.34312 0.21202 0.0
H417 H 0.10045 0.34352 0.11522 0.0
H418 H 0.08536 0.36725 0.31496 0.0
H419 H 0.1758 0.39433 0.22394 0.0
C420 C 0.79146 0.89057 0.07726 0.0
C421 C 0.77434 0.94485 0.04592 0.0
C422 C 0.79936 0.92208 0.05838 0.0
C423 C 0.74178 0.93641 0.05859 0.0
C424 C 0.75865 0.88147 0.08696 0.0
C425 C 0.73389 0.90482 0.07911 0.0
N426 N 0.81602 0.86871 0.08594 0.0
C427 C 0.80946 0.83666 0.09864 0.0
C428 C 0.75175 0.84913 0.10385 0.0
C429 C 0.77724 0.82656 0.10911 0.0
Gd430 Gd 0.89996 0.91636 0.25176 0.0
Gd431 Gd 0.86931 0.8889 0.07505 0.0
N432 N 0.83121 0.9296 0.04728 0.0
C433 C 0.78262 0.97477 0.01797 0.0
C434 C 0.83884 0.95694 1.01295 0.0
C435 C 0.81488 0.98034 0.99925 0.0
H436 H 0.86325 0.96048 0.99471 0.0
H437 H 0.8212 1.00237 0.97344 0.0
H438 H 0.96905 0.87688 0.28724 0.0
H439 H 0.82937 0.8195 0.1039 0.0
H440 H 0.02629 0.88941 0.31741 0.0
H441 H 0.76404 0.99285 1.00717 0.0
H442 H 0.72255 0.95392 0.05079 0.0
H443 H 0.85902 0.98677 0.27242 0.0
H444 H 0.72683 0.84125 0.11213 0.0
H445 H 0.77205 0.80153 0.12198 0.0
H446 H 0.0292 1.00635 0.33059 0.0
H447 H 0.70859 0.8984 0.08731 0.0
H448 H 0.92815 0.0638 0.30304 0.0
H449 H 0.87096 0.04502 0.28751 0.0
N450 N 0.90914 0.97251 0.27153 0.0
C451 C 0.94053 0.98204 0.28156 0.0
C452 C 0.88418 0.9946 0.2776 0.0
C453 C 0.92311 0.03813 0.29454 0.0
C454 C 0.89084 0.02772 0.28648 0.0
C455 C 0.94834 1.01506 0.29437 0.0
H456 H 0.98722 0.04897 0.31954 0.0
N457 N 0.95558 0.92668 0.27501 0.0
C458 C 0.96447 0.95829 0.28446 0.0
C459 C 0.01914 0.94149 0.31467 0.0
C460 C 0.99658 0.96661 0.30398 0.0
C461 C 0.97706 0.90206 0.28901 0.0
C462 C 1.0093 0.90905 0.30736 0.0
O463 O 0.8394 0.88275 0.16982 0.0
O464 O 0.84933 0.9303 0.22033 0.0
O465 O 0.86412 0.90423 0.32632 0.0
O466 O 0.91453 0.91181 0.35221 0.0
O467 O 0.89912 0.93533 0.07785 0.0
O468 O 0.88556 0.95586 0.17726 0.0
O469 O 0.93485 0.88731 0.18928 0.0
O470 O 0.92404 0.90164 0.08387 0.0
O471 O 0.85898 0.89023 0.97159 0.0
O472 O 0.88344 0.84852 1.01228 0.0
O473 O 0.8947 0.86015 0.2369 0.0
O474 O 0.888 0.84545 0.1276 0.0
C475 C 0.8288 0.90703 0.20632 0.0
C476 C 0.89593 0.96016 0.11759 0.0
C477 C 0.87692 0.92556 0.43122 0.0
C478 C 0.88403 0.93381 0.54747 0.0
C479 C 0.86187 0.97726 0.48069 0.0
C480 C 0.86375 0.95705 0.42604 0.0
C481 C 0.87256 0.96598 0.54104 0.0
C482 C 0.88641 0.91378 0.49226 0.0
C483 C 0.88535 0.90641 0.37338 0.0
C484 C 1.00466 0.99949 0.31562 0.0
C485 C 0.98073 0.02375 0.30957 0.0
H486 H 0.04386 0.94686 0.33078 0.0
C487 C 0.94489 0.89362 0.13042 0.0
C488 C 0.89247 0.83817 0.18898 0.0
C489 C 0.90142 0.8678 0.91028 0.0
C490 C 0.91743 0.88481 0.80159 0.0
C491 C 0.95891 0.87098 0.88197 0.0
C492 C 0.93463 0.86456 0.92729 0.0
C493 C 0.95045 0.88109 0.81961 0.0
C494 C 0.89297 0.87779 0.8472 0.0
C495 C 0.87567 0.86402 0.95946 0.0
H496 H 0.85215 1.00174 0.47623 0.0
H497 H 0.85551 0.96616 0.37979 0.0
H498 H 0.87061 0.9818 0.58311 0.0
H499 H 0.89641 0.88934 0.49661 0.0
H500 H 0.98442 0.86848 0.89549 0.0
H501 H 0.94193 0.85758 0.97585 0.0
H502 H 0.96977 0.88603 0.78541 0.0
H503 H 0.86742 0.88132 0.83453 0.0
C504 C 0.43194 0.54186 0.32087 0.0
C505 C 0.38435 0.50833 0.29765 0.0
C506 C 0.39857 0.53941 0.30675 0.0
C507 C 0.40382 0.48027 0.30237 0.0
C508 C 0.4512 0.51354 0.32829 0.0
C509 C 0.43703 0.48276 0.31816 0.0
N510 N 0.4451 0.57192 0.33166 0.0
C511 C 0.47733 0.5755 0.34792 0.0
C512 C 0.48403 0.51696 0.34701 0.0
C513 C 0.49704 0.54808 0.35743 0.0
Gd514 Gd 0.37433 0.64806 0.48089 0.0
Gd515 Gd 0.41024 0.61621 0.31428 0.0
N516 N 0.37997 0.56711 0.30395 0.0
C517 C 0.35087 0.50621 0.2844 0.0
C518 C 0.34713 0.56487 0.29118 0.0
C519 C 0.33219 0.53454 0.28157 0.0
H520 H 0.33185 0.58594 0.28694 0.0
H521 H 0.30627 0.53303 0.27116 0.0
H522 H 0.40555 0.72178 0.52045 0.0
H523 H 0.48796 0.59947 0.35319 0.0
H524 H 0.38544 0.77665 0.54922 0.0
H525 H 0.33923 0.48287 0.27604 0.0
H526 H 0.39329 0.45648 0.29453 0.0
H527 H 0.30865 0.59882 0.48308 0.0
H528 H 0.49951 0.49575 0.35363 0.0
H529 H 0.52242 0.551 0.37166 0.0
H530 H 0.26874 0.76466 0.55293 0.0
H531 H 0.45145 0.4607 0.32296 0.0
H532 H 0.2242 0.65751 0.51991 0.0
H533 H 0.24904 0.60351 0.49808 0.0
N534 N 0.31738 0.64985 0.49393 0.0
C535 C 0.30439 0.67959 0.50785 0.0
C536 C 0.29807 0.62256 0.49184 0.0
C537 C 0.25038 0.65564 0.51289 0.0
C538 C 0.2643 0.62511 0.50056 0.0
C539 C 0.27047 0.68331 0.51738 0.0
H540 H 0.23173 0.71766 0.53925 0.0
N541 N 0.35793 0.70154 0.50736 0.0
C542 C 0.32525 0.7062 0.51449 0.0
C543 C 0.33466 0.76269 0.54408 0.0
C544 C 0.3127 0.73704 0.53234 0.0
C545 C 0.3795 0.72622 0.52123 0.0
C546 C 0.36821 0.75721 0.53871 0.0
O547 O 0.41581 0.58719 0.40963 0.0
O548 O 0.36563 0.59673 0.44604 0.0
O549 O 0.37954 0.61243 0.55837 0.0
O550 O 0.38066 0.66378 0.58111 0.0
O551 O 0.3594 0.63515 0.29949 0.0
O552 O 0.33573 0.65039 0.39756 0.0
O553 O 0.40352 0.68469 0.42656 0.0
O554 O 0.39733 0.67151 0.31844 0.0
O555 O 0.40389 0.60699 0.21069 0.0
O556 O 0.45026 0.62389 0.24812 0.0
O557 O 0.43153 0.64273 0.47446 0.0
O558 O 0.44745 0.64585 0.3667 0.0
C559 C 0.39079 0.57733 0.4438 0.0
C560 C 0.33442 0.64554 0.33364 0.0
C561 C 0.36203 0.62885 0.663 0.0
C562 C 0.35872 0.63052 0.78095 0.0
C563 C 0.31198 0.61266 0.71665 0.0
C564 C 0.3298 0.61716 0.65987 0.0
C565 C 0.32635 0.61924 0.77705 0.0
C566 C 0.37632 0.63573 0.72369 0.0
C567 C 0.38121 0.63438 0.60405 0.0
C568 C 0.27883 0.74106 0.53995 0.0
C569 C 0.25776 0.71429 0.53224 0.0
H570 H 0.326 0.78658 0.55891 0.0
C571 C 0.40003 0.69341 0.36599 0.0
C572 C 0.45443 0.64553 0.42881 0.0
C573 C 0.43568 0.64056 0.14166 0.0
C574 C 0.42306 0.65467 0.02857 0.0
C575 C 0.46175 0.68735 0.09207 0.0
C576 C 0.45696 0.66747 0.14566 0.0
C577 C 0.4454 0.68083 0.03388 0.0
C578 C 0.41843 0.63459 0.08332 0.0
C579 C 0.43294 0.61754 0.19648 0.0
H580 H 0.2871 0.60365 0.7139 0.0
H581 H 0.31846 0.61136 0.61382 0.0
H582 H 0.31239 0.61521 0.82069 0.0
H583 H 0.40132 0.64457 0.72648 0.0
H584 H 0.47865 0.70767 0.09534 0.0
H585 H 0.47038 0.67297 0.18985 0.0
H586 H 0.45085 0.69617 0.99286 0.0
H587 H 0.40148 0.61427 0.08102 0.0
C588 C 0.62185 0.04471 0.70965 0.0
C589 C 0.67377 0.01701 0.72559 0.0
C590 C 0.65528 0.04609 0.72361 0.0
C591 C 0.6586 0.98696 0.71157 0.0
C592 C 0.60647 1.01452 0.69663 0.0
C593 C 0.62508 0.98573 0.69715 0.0
N594 N 0.60487 0.07321 0.70433 0.0
C595 C 0.57222 0.07318 0.69027 0.0
C596 C 0.57302 1.0143 0.6813 0.0
C597 C 0.55584 0.04375 0.67817 0.0
Gd598 Gd 0.66174 0.15657 0.5606 0.0
Gd599 Gd 0.6343 0.121 0.72717 0.0
N600 N 0.6697 0.07573 0.73479 0.0
C601 C 0.70696 0.01894 0.74214 0.0
C602 C 0.70124 0.07722 0.75662 0.0
C603 C 0.72054 0.04911 0.75894 0.0
H604 H 0.71134 0.09957 0.77515 0.0
H605 H 0.7457 0.05075 0.77497 0.0
H606 H 0.59163 0.2002 0.55554 0.0
H607 H 0.55885 0.09587 0.6885 0.0
H608 H 0.57186 0.25303 0.52959 0.0
H609 H 0.72202 0.99718 0.74416 0.0
H610 H 0.67255 0.96446 0.71217 0.0
H611 H 0.74084 0.14572 0.53554 0.0
H612 H 0.56032 0.99159 0.6711 0.0
H613 H 0.53001 0.04381 0.66623 0.0
H614 H 0.70068 0.31727 0.39395 0.0
H615 H 0.61379 0.96236 0.68621 0.0
H616 H 0.78414 0.22672 0.43893 0.0
H617 H 0.78755 0.1727 0.48775 0.0
N618 N 0.70814 0.18544 0.52605 0.0
C619 C 0.70257 0.2161 0.50408 0.0
C620 C 0.73789 0.1707 0.51984 0.0
C621 C 0.7628 0.21681 0.46255 0.0
C622 C 0.76469 0.18595 0.49066 0.0
C623 C 0.7339 0.23454 0.46342 0.0
H624 H 0.75515 0.27935 0.40031 0.0
N625 N 0.64191 0.20952 0.53998 0.0
C626 C 0.66409 0.23004 0.51429 0.0
C627 C 0.61727 0.27242 0.49769 0.0
C628 C 0.65117 0.2665 0.48348 0.0
C629 C 0.60947 0.21742 0.54012 0.0
C630 C 0.59771 0.24816 0.52356 0.0
O631 O 0.63082 0.09407 0.62883 0.0
O632 O 0.67913 0.10625 0.58502 0.0
O633 O 0.63436 0.12976 0.48597 0.0
O634 O 0.67605 0.15934 0.46027 0.0
O635 O 0.6822 0.14786 0.7334 0.0
O636 O 0.7045 0.14364 0.63095 0.0
O637 O 0.65277 0.19714 0.6316 0.0
O638 O 0.63626 0.17743 0.73211 0.0
O639 O 0.6443 0.1111 0.82864 0.0
O640 O 0.59475 0.12034 0.7963 0.0
O641 O 0.60669 0.14432 0.5735 0.0
O642 O 0.59487 0.15076 0.68198 0.0
C643 C 0.65577 0.08501 0.59303 0.0
C644 C 0.70746 0.14904 0.69457 0.0
C645 C 0.66189 0.11786 0.38744 0.0
C646 C 0.65815 0.10352 0.27278 0.0
C647 C 0.69559 0.07441 0.34436 0.0
C648 C 0.68651 0.09458 0.39597 0.0
C649 C 0.68143 0.07869 0.28307 0.0
C650 C 0.64812 0.12256 0.32598 0.0
C651 C 0.65287 0.14043 0.43939 0.0
C652 C 0.69896 0.29433 0.42076 0.0
C653 C 0.73329 0.27086 0.42416 0.0
H654 H 0.60414 0.29465 0.487 0.0
C655 C 0.64366 0.20152 0.69178 0.0
C656 C 0.58563 0.14907 0.62124 0.0
C657 C 0.6093 0.13692 0.90245 0.0
C658 C 0.61458 0.14475 0.01903 0.0
C659 C 0.59023 0.18715 0.95232 0.0
C660 C 0.595 0.16798 0.89699 0.0
C661 C 0.59978 0.17558 1.01317 0.0
C662 C 0.6193 0.12557 0.96336 0.0
C663 C 0.61412 0.1158 0.84571 0.0
H664 H 0.71424 0.05599 0.35143 0.0
H665 H 0.69922 0.09281 0.44184 0.0
H666 H 0.68921 0.06304 0.24361 0.0
H667 H 0.63084 0.14236 0.31926 0.0
H668 H 0.57912 0.21104 0.94805 0.0
H669 H 0.58747 0.17736 0.8502 0.0
H670 H 0.59605 0.19088 0.05549 0.0
H671 H 0.63037 0.10158 0.96749 0.0
C672 C 0.96745 0.44773 0.75407 0.0
C673 C 0.01854 0.39709 0.7334 0.0
C674 C 0.98168 0.40932 0.76332 0.0
C675 C 0.04651 0.44574 0.67357 0.0
C676 C 0.98591 0.47961 0.71517 0.0
C677 C 0.02265 0.47977 0.67738 0.0
N678 N 0.93639 0.45262 0.77447 0.0
C679 C 0.92086 0.48177 0.76636 0.0
C680 C 0.96751 0.50806 0.71331 0.0
C681 C 0.93594 0.50894 0.73848 0.0
Gd682 Gd 0.87292 0.37967 0.97589 0.0
Gd683 Gd 0.90799 0.40591 0.80789 0.0
N684 N 0.96083 0.38654 0.78574 0.0
C685 C 0.02436 0.36299 0.74562 0.0
C686 C 0.96821 0.35407 0.78104 0.0
C687 C 0.99938 0.3427 0.76641 0.0
H688 H 0.95012 0.33603 0.79201 0.0
H689 H 1.00403 0.31671 0.76971 0.0
H690 H 0.85293 0.45668 0.02624 0.0
H691 H 0.89547 0.48398 0.77999 0.0
H692 H 0.80387 0.49059 0.03459 0.0
H693 H 0.04694 0.35025 0.736 0.0
H694 H 0.06963 0.4479 0.64749 0.0
H695 H 0.84688 0.30532 0.9325 0.0
H696 H 0.97726 0.52968 0.69047 0.0
H697 H 0.92191 0.53117 0.73422 0.0
H698 H 0.716 0.41754 0.98149 0.0
H699 H 0.03107 0.50188 0.65438 0.0
H700 H 0.74219 0.30676 0.92669 0.0
H701 H 0.79431 0.27686 0.91339 0.0
N702 N 0.82466 0.35105 0.95285 0.0
C703 C 0.79633 0.36785 0.96221 0.0
C704 C 0.82427 0.31867 0.93692 0.0
C705 C 0.76518 0.31941 0.93467 0.0
C706 C 0.79455 0.30246 0.92681 0.0
C707 C 0.76578 0.35251 0.95238 0.0
H708 H 0.71321 0.35936 0.95191 0.0
N709 N 0.82796 0.41522 0.98783 0.0
C710 C 0.79805 0.40094 0.97863 0.0
C711 C 0.77127 0.45198 1.00439 0.0
C712 C 0.76896 0.41911 0.98605 0.0
C713 C 0.83002 0.44654 1.01052 0.0
C714 C 0.80191 0.46561 1.01751 0.0
O715 O 0.9477 0.39123 0.87743 0.0
O716 O 0.92881 0.38784 0.98326 0.0
O717 O 0.86203 0.38696 0.07786 0.0
O718 O 0.87498 0.339 0.04207 0.0
O719 O 0.89457 0.35154 0.8216 0.0
O720 O 0.90275 0.34039 0.92983 0.0
O721 O 0.84505 0.37733 0.87841 0.0
O722 O 0.85866 0.42513 0.83458 0.0
O723 O 0.87756 0.38133 0.73471 0.0
O724 O 0.91312 0.41749 0.70655 0.0
O725 O 0.89953 0.42744 0.98196 0.0
O726 O 0.89766 0.44926 0.87841 0.0
C727 C 0.95268 0.38865 0.93997 0.0
C728 C 0.90085 0.33091 0.86925 0.0
C729 C 0.88967 0.35216 0.15025 0.0
C730 C 0.89717 0.35825 0.26687 0.0
C731 C 0.93838 0.33054 0.20259 0.0
C732 C 0.91985 0.33586 0.14648 0.0
C733 C 0.92705 0.34147 0.26262 0.0
C734 C 0.87865 0.36358 0.21043 0.0
C735 C 0.86881 0.3569 0.0928 0.0
C736 C 0.73851 0.40388 0.97603 0.0
C737 C 0.73691 0.3707 0.95942 0.0
H738 H 0.74951 0.46675 1.01054 0.0
C739 C 0.83658 0.40262 0.84295 0.0
C740 C 0.90196 0.45229 0.94238 0.0
C741 C 0.87018 0.40848 0.63379 0.0
C742 C 0.8573 0.40623 0.5182 0.0
C743 C 0.83145 0.44675 0.58789 0.0
C744 C 0.84972 0.43559 0.64076 0.0
C745 C 0.83504 0.4321 0.52695 0.0
C746 C 0.87429 0.39422 0.57263 0.0
C747 C 0.89094 0.39711 0.687 0.0
H748 H 0.96154 0.31786 0.19956 0.0
H749 H 0.92902 0.32706 0.10045 0.0
H750 H 0.94179 0.33719 0.3056 0.0
H751 H 0.85531 0.37609 0.2135 0.0
H752 H 0.81512 0.46734 0.59376 0.0
H753 H 0.8487 0.44855 0.68641 0.0
H754 H 0.82089 0.4415 0.48659 0.0
H755 H 0.8922 0.3749 0.56721 0.0
C756 C 0.42997 0.0519 0.75781 0.0
C757 C 0.4873 0.06008 0.78444 0.0
C758 C 0.45665 0.07266 0.76509 0.0
C759 C 0.49114 0.02627 0.79276 0.0
C760 C 0.4335 0.01804 0.76802 0.0
C761 C 0.46434 1.00529 0.78433 0.0
N762 N 0.40036 0.06492 0.74252 0.0
C763 C 0.37301 0.04569 0.73958 0.0
C764 C 0.40578 0.99804 0.76274 0.0
C765 C 0.37538 1.01199 0.74893 0.0
Gd766 Gd 0.36712 0.15733 0.5628 0.0
Gd767 Gd 0.39881 0.12184 0.7295 0.0
N768 N 0.45222 0.10528 0.75699 0.0
C769 C 0.51297 0.08194 0.79684 0.0
C770 C 0.47697 0.12675 0.77101 0.0
C771 C 0.50775 0.11542 0.79018 0.0
H772 H 0.47269 0.15279 0.76946 0.0
H773 H 0.52723 0.13257 0.80098 0.0
H774 H 0.33752 0.07827 0.54002 0.0
H775 H 0.34933 0.05627 0.72978 0.0
H776 H 0.28483 0.05194 0.5267 0.0
H777 H 0.5367 0.07325 0.81287 0.0
H778 H 0.51463 1.01616 0.80681 0.0
H779 H 0.34956 0.2351 0.59753 0.0
H780 H 0.4075 0.97192 0.77027 0.0
H781 H 0.35373 0.99681 0.74582 0.0
H782 H 0.20737 0.13828 0.54466 0.0
H783 H 0.46756 0.97932 0.79189 0.0
H784 H 0.24557 0.24576 0.59546 0.0
H785 H 0.30064 0.26937 0.61289 0.0
N786 N 0.3224 0.19187 0.57755 0.0
C787 C 0.29245 0.17829 0.56726 0.0
C788 C 0.32565 0.22425 0.59221 0.0
C789 C 0.26697 0.23042 0.58994 0.0
C790 C 0.29799 0.24383 0.60001 0.0
C791 C 0.26389 0.19734 0.5734 0.0
H792 H 0.21095 0.1969 0.56842 0.0
N793 N 0.31826 0.12643 0.55354 0.0
C794 C 0.29033 0.14475 0.55521 0.0
C795 C 0.25752 0.09639 0.5369 0.0
C796 C 0.25934 0.13005 0.5475 0.0
C797 C 0.31632 0.09341 0.54319 0.0
C798 C 0.28608 0.07802 0.53505 0.0
O799 O 0.43529 0.15166 0.67618 0.0
O800 O 0.42263 0.14501 0.56797 0.0
O801 O 0.35708 0.15093 0.45968 0.0
O802 O 0.37585 0.19681 0.49568 0.0
O803 O 0.39258 0.17896 0.72329 0.0
O804 O 0.39587 0.19507 0.61569 0.0
O805 O 0.33769 0.16326 0.65748 0.0
O806 O 0.34747 0.11324 0.69432 0.0
O807 O 0.36313 0.12586 0.807 0.0
O808 O 0.41455 0.12898 0.8295 0.0
O809 O 0.38656 0.10673 0.54807 0.0
O810 O 0.40195 0.08329 0.64636 0.0
C811 C 0.44433 0.14832 0.61584 0.0
C812 C 0.3951 0.20198 0.67776 0.0
C813 C 0.39287 0.17981 0.39117 0.0
C814 C 0.40732 0.16569 0.28 0.0
C815 C 0.44493 0.19729 0.34676 0.0
C816 C 0.42307 0.19605 0.39831 0.0
C817 C 0.43706 0.18237 0.28771 0.0
C818 C 0.38525 0.16439 0.33176 0.0
C819 C 0.36902 0.17928 0.44459 0.0
C820 C 0.23106 0.14924 0.55122 0.0
C821 C 0.2332 0.18268 0.56444 0.0
H822 H 0.23422 0.08434 0.53 0.0
C823 C 0.32805 0.13836 0.69218 0.0
C824 C 0.39719 0.08188 0.58239 0.0
C825 C 0.38061 0.10863 0.91124 0.0
C826 C 0.3835 0.10489 0.02962 0.0
C827 C 0.36477 0.05852 0.96429 0.0
C828 C 0.36871 0.07658 0.90784 0.0
C829 C 0.37181 0.07253 0.02474 0.0
C830 C 0.38846 0.12245 0.97183 0.0
C831 C 0.38518 0.12825 0.85255 0.0
H832 H 0.46803 0.20996 0.35255 0.0
H833 H 0.4298 0.20795 0.44352 0.0
H834 H 0.45424 0.18363 0.24809 0.0
H835 H 0.3621 0.15175 0.32552 0.0
H836 H 0.35536 0.03382 0.96137 0.0
H837 H 0.36222 0.06561 0.86183 0.0
H838 H 0.36684 0.05824 0.06748 0.0
H839 H 0.3983 0.14701 0.97346 0.0
C840 C 0.60788 0.5519 0.28261 0.0
C841 C 0.55284 0.56291 0.24373 0.0
C842 C 0.58301 0.574 0.26924 0.0
C843 C 0.54769 0.52931 0.23402 0.0
C844 C 0.60287 0.51815 0.27242 0.0
C845 C 0.57254 0.50697 0.24881 0.0
N846 N 0.63724 0.56341 0.30402 0.0
C847 C 0.66299 0.54267 0.3136 0.0
C848 C 0.62869 0.49665 0.28528 0.0
C849 C 0.65885 0.50903 0.30584 0.0
Gd850 Gd 0.67268 0.65152 0.4859 0.0
Gd851 Gd 0.64163 0.6203 0.3149 0.0
N852 N 0.5887 0.60638 0.27872 0.0
C853 C 0.52879 0.58594 0.22807 0.0
C854 C 0.56541 0.629 0.26265 0.0
C855 C 0.53509 0.61911 0.2378 0.0
H856 H 0.57059 0.65482 0.26722 0.0
H857 H 0.51682 0.63712 0.22524 0.0
H858 H 0.73755 0.60036 0.48033 0.0
H859 H 0.68661 0.552 0.32843 0.0
H860 H 0.79746 0.60479 0.48178 0.0
H861 H 0.50533 0.57836 0.20827 0.0
H862 H 0.52457 0.52035 0.21495 0.0
H863 H 0.64396 0.72611 0.52775 0.0
H864 H 0.62575 0.47053 0.27859 0.0
H865 H 0.67895 0.49274 0.31557 0.0
H866 H 0.81825 0.71789 0.52711 0.0
H867 H 0.56824 0.48113 0.24085 0.0
H868 H 0.72644 0.7873 0.5682 0.0
H869 H 0.66658 0.77961 0.56038 0.0
N870 N 0.69066 0.70442 0.51234 0.0
C871 C 0.7237 0.70807 0.51664 0.0
C872 C 0.67017 0.72969 0.52779 0.0
C873 C 0.71669 0.7641 0.55148 0.0
C874 C 0.68288 0.75985 0.54738 0.0
C875 C 0.73757 0.7383 0.53508 0.0
H876 H 0.7828 0.76484 0.55146 0.0
N877 N 0.72986 0.65149 0.49316 0.0
C878 C 0.74379 0.68106 0.50602 0.0
C879 C 0.79747 0.65677 0.49834 0.0
C880 C 0.77808 0.68438 0.50936 0.0
C881 C 0.74862 0.624 0.48781 0.0
C882 C 0.78269 0.62638 0.48873 0.0
O883 O 0.60373 0.64934 0.36688 0.0
O884 O 0.61676 0.6421 0.47476 0.0
O885 O 0.66658 0.61803 0.56655 0.0
O886 O 0.6724 0.6695 0.58502 0.0
O887 O 0.65112 0.67636 0.32566 0.0
O888 O 0.64285 0.68878 0.43362 0.0
O889 O 0.70752 0.65779 0.399 0.0
O890 O 0.69363 0.61144 0.34549 0.0
O891 O 0.67916 0.62077 0.24115 0.0
O892 O 0.62884 0.62895 0.21383 0.0
O893 O 0.67953 0.59825 0.46183 0.0
O894 O 0.63439 0.58499 0.40134 0.0
C895 C 0.59488 0.64549 0.42729 0.0
C896 C 0.64702 0.69798 0.37341 0.0
C897 C 0.63937 0.6407 0.65654 0.0
C898 C 0.62139 0.63197 0.76693 0.0
C899 C 0.5814 0.64038 0.6812 0.0
C900 C 0.60661 0.64352 0.63644 0.0
C901 C 0.58869 0.63414 0.74612 0.0
C902 C 0.6467 0.63624 0.72221 0.0
C903 C 0.66614 0.6413 0.60983 0.0
C904 C 0.79193 0.71492 0.52438 0.0
C905 C 0.77174 0.74167 0.53814 0.0
H906 H 0.82385 0.6586 0.49793 0.0
C907 C 0.7141 0.63554 0.35454 0.0
C908 C 0.65557 0.57803 0.44824 0.0
C909 C 0.66171 0.60096 0.13916 0.0
C910 C 0.65497 0.58966 0.02408 0.0
C911 C 0.676 0.54765 0.09569 0.0
C912 C 0.67397 0.56925 0.14808 0.0
C913 C 0.66652 0.55774 0.03384 0.0
C914 C 0.65214 0.61099 0.07716 0.0
C915 C 0.65839 0.62387 0.19363 0.0
H916 H 0.55618 0.64216 0.66529 0.0
H917 H 0.60037 0.64788 0.58645 0.0
H918 H 0.56888 0.63073 0.77999 0.0
H919 H 0.672 0.63395 0.73778 0.0
H920 H 0.68534 0.52319 0.10291 0.0
H921 H 0.68216 0.56122 0.19521 0.0
H922 H 0.66886 0.54089 0.99344 0.0
H923 H 0.64275 0.63551 0.07014 0.0
C924 C 0.17806 0.81351 0.02533 0.0
C925 C 0.13893 0.8076 0.89897 0.0
C926 C 0.15079 0.82642 0.96945 0.0
C927 C 0.151 0.7714 0.86784 0.0
C928 C 0.19815 0.77709 0.01872 0.0
C929 C 0.18057 0.74694 0.90958 0.0
N930 N 0.1865 0.83454 0.07323 0.0
C931 C 0.20853 0.8259 0.11971 0.0
C932 C 0.21977 0.77188 0.0731 0.0
C933 C 0.22408 0.79561 0.12092 0.0
Gd934 Gd 0.13706 0.91771 0.23787 0.0
Gd935 Gd 0.16201 0.88635 0.06397 0.0
N936 N 0.13557 0.85474 0.9844 0.0
C937 C 0.11416 0.82342 0.86532 0.0
C938 C 0.11022 0.86648 0.94787 0.0
C939 C 0.09971 0.85157 0.89014 0.0
H940 H 0.09874 0.88928 0.96115 0.0
H941 H 0.07996 0.86276 0.86298 0.0
H942 H 0.21044 0.93607 0.30752 0.0
H943 H 0.21374 0.84201 0.15908 0.0
H944 H 0.24518 0.98456 0.32429 0.0
H945 H 0.10489 0.81314 0.8203 0.0
H946 H 0.16618 0.75564 0.88322 0.0
H947 H 0.06173 0.94548 0.20668 0.0
H948 H 0.2342 0.75012 0.08086 0.0
H949 H 0.24065 0.7905 0.16083 0.0
H950 H 0.1772 0.07386 0.25678 0.0
H951 H 0.1911 0.72057 0.89085 0.0
H952 H 0.06554 0.05005 0.20252 0.0
H953 H 0.03415 0.99861 0.19022 0.0
N954 N 0.10822 0.96682 0.22573 0.0
C955 C 0.12567 0.99477 0.23543 0.0
C956 C 0.07545 0.96786 0.21242 0.0
C957 C 0.07765 0.02684 0.21017 0.0
C958 C 0.05982 0.99786 0.2033 0.0
C959 C 0.11101 0.0255 0.22612 0.0
H960 H 0.11968 0.07736 0.22118 0.0
N961 N 0.17199 0.96223 0.26096 0.0
C962 C 0.15862 0.99236 0.252 0.0
C963 C 0.20922 0.01792 0.28625 0.0
C964 C 0.17723 0.02097 0.26248 0.0
C965 C 0.20183 0.95943 0.29065 0.0
C966 C 0.22121 0.98707 0.30219 0.0
O967 O 0.13654 0.84841 0.12522 0.0
O968 O 0.15227 0.86353 0.229 0.0
O969 O 0.14294 0.92687 0.34114 0.0
O970 O 0.09875 0.90433 0.3052 0.0
O971 O 0.10713 0.89991 0.07694 0.0
O972 O 0.09602 0.89192 0.18611 0.0
O973 O 0.12878 0.9485 0.14579 0.0
O974 O 0.17561 0.93633 0.09791 0.0
O975 O 0.15515 0.9161 0.97752 0.0
O976 O 0.19677 0.88212 0.98521 0.0
O977 O 0.18759 0.89546 0.2332 0.0
O978 O 0.20655 0.90075 0.1281 0.0
C979 C 0.14189 0.84125 0.18659 0.0
C980 C 0.08647 0.89418 0.12523 0.0
C981 C 0.1166 0.89041 0.41213 0.0
C982 C 0.13243 0.87996 0.5254 0.0
C983 C 0.09845 0.841 0.46514 0.0
C984 C 0.09942 0.86073 0.41042 0.0
C985 C 0.11434 0.85062 0.52227 0.0
C986 C 0.13346 0.89961 0.46933 0.0
C987 C 0.1156 0.91294 0.35632 0.0
C988 C 0.16308 0.05163 0.25055 0.0
C989 C 0.1302 0.05376 0.23143 0.0
H990 H 0.22426 0.0393 0.29528 0.0
C991 C 0.15157 0.95663 0.10457 0.0
C992 C 0.21149 0.90009 0.19191 0.0
C993 C 0.19374 0.91535 0.88925 0.0
C994 C 0.19246 0.91884 0.77111 0.0
C995 C 0.23286 0.94949 0.83388 0.0
C996 C 0.22032 0.93689 0.8914 0.0
C997 C 0.21908 0.94054 0.77404 0.0
C998 C 0.17994 0.90626 0.82919 0.0
C999 C 0.17984 0.90205 0.94877 0.0
H1000 H 0.08475 0.81837 0.46369 0.0
H1001 H 0.0863 0.85294 0.3672 0.0
H1002 H 0.11172 0.83517 0.56424 0.0
H1003 H 0.14724 0.92221 0.46976 0.0
H1004 H 0.25334 0.96625 0.83566 0.0
H1005 H 0.2313 0.94394 0.93735 0.0
H1006 H 0.22925 0.9505 0.73004 0.0
H1007 H 0.1593 0.8896 0.82771 0.0
C1008 C 0.93837 0.55237 0.26211 0.0
C1009 C 0.99492 0.56562 0.28752 0.0
C1010 C 0.96325 0.57538 0.26825 0.0
C1011 C 1.00169 0.53232 0.29656 0.0
C1012 C 0.94476 0.51907 0.27376 0.0
C1013 C 0.97671 0.50909 0.28941 0.0
N1014 N 0.90758 0.56276 0.24801 0.0
C1015 C 0.88175 0.54157 0.24847 0.0
C1016 C 0.91863 0.49692 0.27139 0.0
C1017 C 0.88694 0.50829 0.25939 0.0
Gd1018 Gd 0.87028 0.65234 0.06141 0.0
Gd1019 Gd 0.90142 0.61893 0.23138 0.0
N1020 N 0.95587 0.60748 0.26048 0.0
C1021 C 0.01852 0.5897 0.2998 0.0
C1022 C 0.97832 0.63112 0.27587 0.0
C1023 C 1.01013 0.62261 0.29435 0.0
H1024 H 0.9715 0.65663 0.27484 0.0
H1025 H 0.02796 0.64142 0.30553 0.0
H1026 H 0.83703 0.57416 0.0594 0.0
H1027 H 0.85725 0.55038 0.23912 0.0
H1028 H 0.78283 0.54975 0.05754 0.0
H1029 H 0.04296 0.58312 0.31557 0.0
H1030 H 0.02599 0.52436 0.31064 0.0
H1031 H 0.8575 0.73231 0.06312 0.0
H1032 H 0.92254 0.47114 0.28016 0.0
H1033 H 0.86653 0.49144 0.25867 0.0
H1034 H 0.70963 0.64055 0.05377 0.0
H1035 H 0.98216 0.48357 0.29796 0.0
H1036 H 0.75423 0.74853 0.05264 0.0
H1037 H 0.81084 0.77 0.05579 0.0
N1038 N 0.8277 0.68973 0.06119 0.0
C1039 C 0.79705 0.67709 0.05602 0.0
C1040 C 0.83293 0.72259 0.06135 0.0
C1041 C 0.77468 0.73174 0.0548 0.0
C1042 C 0.80653 0.74405 0.05744 0.0
C1043 C 0.76961 0.69791 0.05443 0.0
H1044 H 0.71668 0.70002 0.05221 0.0
N1045 N 0.82003 0.62354 0.05719 0.0
C1046 C 0.79306 0.6432 0.05475 0.0
C1047 C 0.75772 0.59583 0.05488 0.0
C1048 C 0.76129 0.62977 0.05396 0.0
C1049 C 0.81647 0.5903 0.05765 0.0
C1050 C 0.7854 0.57606 0.05667 0.0
O1051 O 0.93701 0.64932 0.17681 0.0
O1052 O 0.92513 0.63894 0.06971 0.0
O1053 O 0.85869 0.64386 0.95977 0.0
O1054 O 0.88545 0.68712 0.98852 0.0
O1055 O 0.89571 0.67559 0.22407 0.0
O1056 O 0.89589 0.69197 0.11601 0.0
O1057 O 0.84 0.6592 0.15427 0.0
O1058 O 0.85062 0.60952 0.19397 0.0
O1059 O 0.86437 0.62792 0.3045 0.0
O1060 O 0.91452 0.62182 0.33382 0.0
O1061 O 0.8878 0.60123 0.05094 0.0
O1062 O 0.9037 0.57909 0.15008 0.0
C1063 C 0.9464 0.64489 0.117 0.0
C1064 C 0.89627 0.69857 0.1784 0.0
C1065 C 0.90059 0.66089 0.89104 0.0
C1066 C 0.91365 0.6418 0.78207 0.0
C1067 C 0.95697 0.64973 0.86195 0.0
C1068 C 0.93399 0.65962 0.90763 0.0
C1069 C 0.94692 0.64074 0.7996 0.0
C1070 C 0.89055 0.65216 0.82801 0.0
C1071 C 0.87594 0.66859 0.94044 0.0
C1072 C 0.73402 0.65052 0.05339 0.0
C1073 C 0.73809 0.68443 0.05295 0.0
H1074 H 0.73372 0.58467 0.05435 0.0
C1075 C 0.83098 0.6346 0.19062 0.0
C1076 C 0.89857 0.57691 0.08622 0.0
C1077 C 0.87441 0.60667 0.40892 0.0
C1078 C 0.87445 0.59904 0.5259 0.0
C1079 C 0.84948 0.55836 0.45497 0.0
C1080 C 0.85738 0.57713 0.40099 0.0
C1081 C 0.85821 0.56908 0.51718 0.0
C1082 C 0.88249 0.61776 0.47152 0.0
C1083 C 0.88467 0.62598 0.35292 0.0
H1084 H 0.98263 0.64873 0.87512 0.0
H1085 H 0.94235 0.66588 0.95605 0.0
H1086 H 0.96516 0.633 0.76495 0.0
H1087 H 0.86474 0.65237 0.81548 0.0
H1088 H 0.83655 0.53547 0.44859 0.0
H1089 H 0.85021 0.56859 0.35331 0.0
H1090 H 0.85195 0.55422 0.55854 0.0
H1091 H 0.89559 0.64064 0.47787 0.0
C1092 C 0.10743 0.05267 0.77378 0.0
C1093 C 0.05073 0.06316 0.74566 0.0
C1094 C 0.08156 0.07439 0.76747 0.0
C1095 C 0.04587 0.02966 0.73392 0.0
C1096 C 0.10286 0.01912 0.76072 0.0
C1097 C 0.07181 1.00766 0.74194 0.0
N1098 N 0.13735 0.06448 0.79093 0.0
C1099 C 0.16414 0.04448 0.79191 0.0
C1100 C 0.12982 0.99818 0.76558 0.0
C1101 C 0.16063 1.01103 0.78049 0.0
Gd1102 Gd 0.16894 0.15016 0.986 0.0
Gd1103 Gd 0.14051 0.12088 0.81107 0.0
N1104 N 0.08698 0.10667 0.77901 0.0
C1105 C 0.02589 0.08602 0.73473 0.0
C1106 C 0.06314 0.12917 0.76605 0.0
C1107 C 0.03216 0.11917 0.74484 0.0
H1108 H 0.06823 0.155 0.77076 0.0
H1109 H 1.01334 0.1371 0.73533 0.0
H1110 H 0.2074 0.07537 0.96973 0.0
H1111 H 0.18804 0.05434 0.80332 0.0
H1112 H 0.26252 0.05371 0.97995 0.0
H1113 H 1.00199 0.07836 0.7174 0.0
H1114 H 0.02224 0.02057 0.71789 0.0
H1115 H 0.17697 0.23096 0.99547 0.0
H1116 H 0.12721 0.9722 0.75664 0.0
H1117 H 0.18173 0.99529 0.78309 0.0
H1118 H 0.32883 0.14727 0.02421 0.0
H1119 H 0.06778 0.98194 0.73202 0.0
H1120 H 0.27775 0.25226 0.03386 0.0
H1121 H 0.22045 0.2707 0.02035 0.0
N1122 N 0.209 0.19007 0.99767 0.0
C1123 C 0.23997 0.17906 1.00726 0.0
C1124 C 0.20185 0.22254 1.00122 0.0
C1125 C 0.25865 0.23456 0.02357 0.0
C1126 C 0.22646 0.24518 1.01514 0.0
C1127 C 0.2658 0.2012 0.01909 0.0
H1128 H 0.31804 0.20605 0.035 0.0
N1129 N 0.22071 0.12469 0.99086 0.0
C1130 C 0.24604 0.14559 1.00318 0.0
C1131 C 0.2841 0.10053 1.001 0.0
C1132 C 0.27836 0.13395 1.00862 0.0
C1133 C 0.22653 0.09209 0.98204 0.0
C1134 C 0.25816 0.07956 0.9871 0.0
O1135 O 0.10304 0.14863 0.86778 0.0
O1136 O 0.11499 0.13444 0.97273 0.0
O1137 O 0.17637 0.13876 0.08798 0.0
O1138 O 0.15158 0.18317 0.06059 0.0
O1139 O 0.14849 0.17698 0.82436 0.0
O1140 O 0.14216 0.18933 0.93344 0.0
O1141 O 0.20226 0.16014 0.89798 0.0
O1142 O 0.19098 0.11226 0.85021 0.0
O1143 O 0.17792 0.12476 0.73717 0.0
O1144 O 0.12723 0.13119 0.71107 0.0
O1145 O 0.1554 0.09721 0.98909 0.0
O1146 O 0.13809 0.07949 0.88661 0.0
C1147 C 0.09365 0.14231 0.92695 0.0
C1148 C 0.14493 0.19832 0.87282 0.0
C1149 C 0.13278 0.15614 0.15338 0.0
C1150 C 0.11548 0.14052 0.26172 0.0
C1151 C 0.07523 0.14703 0.17545 0.0
C1152 C 0.1 0.1551 0.13233 0.0
C1153 C 0.08284 0.13978 0.23978 0.0
C1154 C 0.1404 0.14888 0.2181 0.0
C1155 C 0.15918 0.16358 0.10772 0.0
C1156 C 0.30404 0.15596 0.02026 0.0
C1157 C 0.29783 0.18944 0.02601 0.0
H1158 H 0.30849 0.09075 1.005 0.0
C1159 C 0.2105 0.13731 0.85606 0.0
C1160 C 0.14474 0.07454 0.94882 0.0
C1161 C 0.16079 0.1069 0.63301 0.0
C1162 C 0.15159 0.09747 0.51782 0.0
C1163 C 0.17802 0.05592 0.58316 0.0
C1164 C 0.17617 0.07632 0.63742 0.0
C1165 C 0.16576 0.06639 0.52348 0.0
C1166 C 0.14845 0.11735 0.57304 0.0
C1167 C 0.15689 0.12809 0.69012 0.0
H1168 H 0.05005 0.14623 0.15886 0.0
H1169 H 0.09349 0.16048 0.08259 0.0
H1170 H 0.06321 0.13347 0.27237 0.0
H1171 H 0.16577 0.14878 0.23387 0.0
H1172 H 0.18966 0.03226 0.58703 0.0
H1173 H 0.18697 0.06825 0.6824 0.0
H1174 H 0.16829 0.0507 0.48134 0.0
H1175 H 0.13705 0.14118 0.56902 0.0
C1176 C 0.68164 0.31208 0.5233 0.0
C1177 C 0.64241 0.30598 0.39713 0.0
C1178 C 0.65477 0.32517 0.46689 0.0
C1179 C 0.65342 0.26913 0.36749 0.0
C1180 C 0.70064 0.275 0.51825 0.0
C1181 C 0.68223 0.24426 0.41028 0.0
N1182 N 0.69071 0.33341 0.57026 0.0
C1183 C 0.7124 0.32455 0.61721 0.0
C1184 C 0.72205 0.26972 0.5729 0.0
C1185 C 0.72702 0.29382 0.61973 0.0
Gd1186 Gd 0.64186 0.41832 0.73208 0.0
Gd1187 Gd 0.667 0.38569 0.5601 0.0
N1188 N 0.6403 0.35401 0.48077 0.0
C1189 C 0.61814 0.32215 0.36275 0.0
C1190 C 0.61528 0.36604 0.4437 0.0
C1191 C 0.60446 0.35091 0.38643 0.0
H1192 H 0.6043 0.38921 0.45616 0.0
H1193 H 0.58504 0.36237 0.35877 0.0
H1194 H 0.71558 0.43875 0.79802 0.0
H1195 H 0.71804 0.34085 0.65602 0.0
H1196 H 0.75039 0.48775 0.80732 0.0
H1197 H 0.60862 0.31168 0.3181 0.0
H1198 H 0.66812 0.2531 0.38355 0.0
H1199 H 0.56603 0.44478 0.70011 0.0
H1200 H 0.7358 0.24762 0.58161 0.0
H1201 H 0.74338 0.28864 0.65994 0.0
H1202 H 0.68189 0.57426 0.72868 0.0
H1203 H 0.69199 0.2174 0.39262 0.0
H1204 H 0.57034 0.54859 0.67686 0.0
H1205 H 0.53881 0.49707 0.67324 0.0
N1206 N 0.61249 0.46678 0.71631 0.0
C1207 C 0.62988 0.49501 0.7223 0.0
C1208 C 0.57981 0.46727 0.7022 0.0
C1209 C 0.58227 0.52582 0.68928 0.0
C1210 C 0.56436 0.49677 0.68728 0.0
C1211 C 0.6154 0.52514 0.70701 0.0
H1212 H 0.62401 0.57621 0.69266 0.0
N1213 N 0.67654 0.46346 0.75048 0.0
C1214 C 0.66293 0.4932 0.73859 0.0
C1215 C 0.71392 0.51978 0.76667 0.0
C1216 C 0.68167 0.52201 0.74388 0.0
C1217 C 0.70672 0.46157 0.77897 0.0
C1218 C 0.72614 0.48953 0.78619 0.0
O1219 O 0.64109 0.34814 0.62169 0.0
O1220 O 0.65599 0.36378 0.72566 0.0
O1221 O 0.64895 0.42934 0.8344 0.0
O1222 O 0.60423 0.40647 0.80217 0.0
O1223 O 0.61212 0.39911 0.57239 0.0
O1224 O 0.60074 0.39223 0.68171 0.0
O1225 O 0.6344 0.44771 0.63763 0.0
O1226 O 0.68197 0.43588 0.59232 0.0
O1227 O 0.66012 0.41589 0.47476 0.0
O1228 O 0.70067 0.38063 0.47929 0.0
O1229 O 0.69203 0.39546 0.72929 0.0
O1230 O 0.71168 0.39929 0.62435 0.0
C1231 C 0.64585 0.34133 0.68341 0.0
C1232 C 0.5914 0.39363 0.62059 0.0
C1233 C 0.62469 0.3927 0.90734 0.0
C1234 C 0.64204 0.38227 0.01979 0.0
C1235 C 0.61328 0.34037 0.95672 0.0
C1236 C 0.61167 0.36102 0.90339 0.0
C1237 C 0.62793 0.3509 1.0145 0.0
C1238 C 0.64019 0.40304 0.96535 0.0
C1239 C 0.62201 0.41538 0.85191 0.0
C1240 C 0.66754 0.55204 0.72693 0.0
C1241 C 0.63463 0.55339 0.70757 0.0
H1242 H 0.72907 0.54138 0.77181 0.0
C1243 C 0.65837 0.45666 0.59985 0.0
C1244 C 0.71623 0.39893 0.68827 0.0
C1245 C 0.6981 0.41616 0.3865 0.0
C1246 C 0.69792 0.42181 0.26869 0.0
C1247 C 0.73481 0.45454 0.33572 0.0
C1248 C 0.72252 0.44001 0.39171 0.0
C1249 C 0.72249 0.44568 0.27452 0.0
C1250 C 0.68601 0.40695 0.32507 0.0
C1251 C 0.68379 0.40115 0.44399 0.0
H1252 H 0.60277 0.31613 0.95353 0.0
H1253 H 0.59998 0.35223 0.85932 0.0
H1254 H 0.62761 0.33442 0.05528 0.0
H1255 H 0.65094 0.42721 0.96751 0.0
H1256 H 0.75366 0.47303 0.33979 0.0
H1257 H 0.73186 0.44746 0.43882 0.0
H1258 H 0.73214 0.4574 0.2318 0.0
H1259 H 0.6669 0.38862 0.32122 0.0
C1260 C 0.46664 0.9501 0.25329 0.0
C1261 C 0.51709 0.89864 0.23351 0.0
C1262 C 0.48016 0.91143 0.26251 0.0
C1263 C 0.5463 0.94697 0.17511 0.0
C1264 C 0.48599 0.98176 0.21529 0.0
C1265 C 0.52301 0.98138 0.17859 0.0
N1266 N 0.43555 0.95554 0.27301 0.0
C1267 C 0.42068 0.98507 0.26471 0.0
C1268 C 0.46826 1.01061 0.21352 0.0
C1269 C 0.43658 1.01211 0.23793 0.0
Gd1270 Gd 0.37066 0.88393 0.47394 0.0
Gd1271 Gd 0.40601 0.9092 0.30572 0.0
N1272 N 0.45867 0.88894 0.28368 0.0
C1273 C 0.52219 0.8644 0.24526 0.0
C1274 C 0.4654 0.85636 0.27772 0.0
C1275 C 0.49652 0.84446 0.26417 0.0
H1276 H 0.44678 0.83859 0.28701 0.0
H1277 H 0.5006 0.81836 0.26677 0.0
H1278 H 0.35095 0.96107 0.5242 0.0
H1279 H 0.39523 0.98779 0.27756 0.0
H1280 H 0.30223 0.99542 0.53081 0.0
H1281 H 0.54466 0.85134 0.2363 0.0
H1282 H 0.56962 0.94883 0.14965 0.0
H1283 H 0.34415 0.80938 0.43427 0.0
H1284 H 0.47869 0.03212 0.19144 0.0
H1285 H 0.42327 0.03487 0.23396 0.0
H1286 H 0.21393 0.92315 0.47592 0.0
H1287 H 0.532 1.00341 0.15615 0.0
H1288 H 0.23946 0.81151 0.42673 0.0
H1289 H 0.2914 0.78103 0.41607 0.0
N1290 N 0.32215 0.85546 0.45237 0.0
C1291 C 0.29391 0.87254 0.4606 0.0
C1292 C 0.32159 0.82289 0.43803 0.0
C1293 C 0.2625 0.82406 0.43464 0.0
C1294 C 0.29178 0.80677 0.42832 0.0
C1295 C 0.26328 0.85736 0.45074 0.0
H1296 H 0.21079 0.86472 0.44845 0.0
N1297 N 0.32584 0.91972 0.48558 0.0
C1298 C 0.29584 0.90571 0.47598 0.0
C1299 C 0.26942 0.95716 0.49983 0.0
C1300 C 0.26689 0.92422 0.4821 0.0
C1301 C 0.32806 0.95109 0.50796 0.0
C1302 C 0.3001 0.97046 0.51385 0.0
O1303 O 0.44473 0.89208 0.37535 0.0
O1304 O 0.4262 0.89407 0.48131 0.0
O1305 O 0.35979 0.89071 0.576 0.0
O1306 O 0.3738 0.84312 0.53971 0.0
O1307 O 0.39219 0.85491 0.31995 0.0
O1308 O 0.40026 0.84428 0.42839 0.0
O1309 O 0.34284 0.88062 0.37656 0.0
O1310 O 0.35615 0.92807 0.33065 0.0
O1311 O 0.37577 0.88464 0.23247 0.0
O1312 O 0.41155 0.92065 0.20433 0.0
O1313 O 0.39699 0.93199 0.47936 0.0
O1314 O 0.39618 0.9532 0.37524 0.0
C1315 C 0.44997 0.89224 0.43802 0.0
C1316 C 0.39836 0.83447 0.36801 0.0
C1317 C 0.38969 0.85696 0.64676 0.0
C1318 C 0.39948 0.8647 0.76262 0.0
C1319 C 0.43994 0.83714 0.69574 0.0
C1320 C 0.42012 0.84134 0.64111 0.0
C1321 C 0.42969 0.8485 0.75619 0.0
C1322 C 0.3797 0.86886 0.70726 0.0
C1323 C 0.36773 0.86089 0.59067 0.0
C1324 C 0.23635 0.90923 0.47159 0.0
C1325 C 0.23455 0.8759 0.45618 0.0
H1326 H 0.24778 0.9722 0.505 0.0
C1327 C 0.33416 0.90557 0.34035 0.0
C1328 C 0.39975 0.95665 0.4393 0.0
C1329 C 0.36894 0.91113 0.13094 0.0
C1330 C 0.35844 0.91023 1.01488 0.0
C1331 C 0.32758 0.9466 0.08482 0.0
C1332 C 0.34587 0.93605 0.13829 0.0
C1333 C 0.33371 0.93365 0.02318 0.0
C1334 C 0.37537 0.89852 0.0693 0.0
C1335 C 0.38943 0.90018 0.18479 0.0
H1336 H 0.46325 0.82482 0.69132 0.0
H1337 H 0.42853 0.83223 0.59473 0.0
H1338 H 0.44529 0.84422 0.79792 0.0
H1339 H 0.35655 0.88163 0.71079 0.0
H1340 H 0.30939 0.96555 0.09081 0.0
H1341 H 0.34284 0.94783 0.18471 0.0
H1342 H 0.32023 0.94294 0.9818 0.0
H1343 H 0.39432 0.8802 0.06338 0.0
C1344 C 0.1506 0.65154 0.68422 0.0
C1345 C 0.1503 0.61846 0.70185 0.0
H1346 H 0.14111 0.68667 0.61045 0.0
C1347 C 0.13922 0.59497 0.65716 0.0
H1348 H 0.1596 0.67005 0.71765 0.0
C1349 C 0.12795 0.60453 0.59609 0.0
C1350 C 0.12812 0.63772 0.57827 0.0
H1351 H 0.13867 0.56934 0.66994 0.0
H1352 H 0.11865 0.58591 0.56331 0.0
C1353 C 0.13984 0.66105 0.62296 0.0
C1354 C 0.63937 0.94459 0.89937 0.0
C1355 C 0.64941 0.92865 0.95673 0.0
H1356 H 0.62628 0.94008 0.79885 0.0
C1357 C 0.65433 0.89455 0.95383 0.0
H1358 H 0.63427 0.97051 0.89914 0.0
C1359 C 0.64899 0.87712 0.89583 0.0
C1360 C 0.63929 0.89337 0.83901 0.0
H1361 H 0.6625 0.88122 0.9961 0.0
H1362 H 0.65245 0.85089 0.8953 0.0
C1363 C 0.63471 0.92722 0.84139 0.0
C1364 C 0.33913 0.37082 0.1679 0.0
C1365 C 0.35888 0.39162 0.20557 0.0
H1366 H 0.33317 0.34525 0.07816 0.0
C1367 C 0.38878 0.40265 0.18062 0.0
H1368 H 0.31602 0.36199 0.18628 0.0
C1369 C 0.39832 0.39367 0.11811 0.0
C1370 C 0.37847 0.37289 0.08024 0.0
H1371 H 0.40443 0.41877 0.20879 0.0
H1372 H 0.42124 0.40285 0.09951 0.0
C1373 C 0.34903 0.3612 0.10619 0.0
C1374 C 0.89571 0.10865 0.45418 0.0
C1375 C 0.90328 0.14104 0.47244 0.0
H1376 H 0.87533 0.07675 0.38214 0.0
C1377 C 0.89563 0.1663 0.42868 0.0
H1378 H 0.90164 0.08828 0.48527 0.0
C1379 C 0.88208 0.15927 0.36785 0.0
C1380 C 0.87474 0.12698 0.35009 0.0
H1381 H 0.89993 0.19165 0.44113 0.0
H1382 H 0.87695 0.17916 0.33489 0.0
C1383 C 0.88102 0.10183 0.3943 0.0
C1384 C 0.14521 0.37891 0.39509 0.0
C1385 C 0.14338 0.39754 0.33835 0.0
H1386 H 0.15645 0.37806 0.49632 0.0
C1387 C 0.15123 0.43081 0.3414 0.0
H1388 H 0.13944 0.35308 0.39381 0.0
C1389 C 0.1601 0.44553 0.40026 0.0
C1390 C 0.16185 0.42712 0.45766 0.0
H1391 H 0.14936 0.44564 0.29859 0.0
H1392 H 0.16469 0.47157 0.40072 0.0
C1393 C 0.15466 0.39342 0.45393 0.0
C1394 C 0.88334 0.88268 0.69962 0.0
C1395 C 0.90874 0.89715 0.73612 0.0
H1396 H 0.85613 0.88263 0.61019 0.0
C1397 C 0.92602 0.92356 0.70955 0.0
H1398 H 0.86981 0.86212 0.71852 0.0
C1399 C 0.91772 0.93565 0.64851 0.0
C1400 C 0.89267 0.92096 0.61198 0.0
H1401 H 0.94579 0.93516 0.73619 0.0
H1402 H 0.93114 0.95625 0.62943 0.0
C1403 C 0.87564 0.89425 0.63767 0.0
C1404 C 0.38361 0.66828 0.86267 0.0
C1405 C 0.37427 0.63659 0.84473 0.0
H1406 H 0.40418 0.69922 0.93556 0.0
C1407 C 0.37999 0.61078 0.88773 0.0
H1408 H 0.37904 0.68857 0.83036 0.0
C1409 C 0.39583 0.61645 0.94717 0.0
C1410 C 0.40535 0.64831 0.96579 0.0
H1411 H 0.3729 0.58608 0.87466 0.0
H1412 H 0.40109 0.59566 0.97762 0.0
C1413 C 0.3984 0.67418 0.92287 0.0
C1414 C 0.65676 0.11983 0.09189 0.0
C1415 C 0.62516 0.13255 0.08308 0.0
H1416 H 0.69221 0.10132 0.15875 0.0
C1417 C 0.60379 0.13378 0.13584 0.0
H1418 H 0.67374 0.11876 0.05187 0.0
C1419 C 0.61401 0.12304 0.19676 0.0
C1420 C 0.64606 0.11138 0.2065 0.0
H1421 H 0.5791 0.14297 0.12989 0.0
H1422 H 0.5968 0.12415 0.23634 0.0
C1423 C 0.6672 0.10957 0.15307 0.0
C1424 C 0.88388 0.3489 0.38315 0.0
C1425 C 0.88525 0.37011 0.33015 0.0
H1426 H 0.87243 0.34312 0.48316 0.0
C1427 C 0.87551 0.40275 0.33803 0.0
H1428 H 0.89079 0.32349 0.37785 0.0
C1429 C 0.86566 0.4143 0.39865 0.0
C1430 C 0.86481 0.39327 0.45238 0.0
H1431 H 0.87652 0.41959 0.29777 0.0
H1432 H 0.85982 0.43998 0.40366 0.0
C1433 C 0.87345 0.36026 0.44345 0.0
C1434 C 0.40323 0.11617 0.20955 0.0
C1435 C 0.39956 0.14996 0.21739 0.0
H1436 H 0.4026 0.07562 0.14417 0.0
C1437 C 0.39067 0.16905 0.16406 0.0
H1438 H 0.4106 0.10115 0.25019 0.0
C1439 C 0.38547 0.15455 0.1034 0.0
C1440 C 0.38935 0.12054 0.09453 0.0
H1441 H 0.38787 0.19525 0.16934 0.0
H1442 H 0.37817 0.17023 0.06387 0.0
C1443 C 0.39845 0.10163 0.14869 0.0
C1444 C 0.6589 0.63014 0.93433 0.0
C1445 C 0.64605 0.60083 0.95853 0.0
H1446 H 0.66137 0.66281 0.85365 0.0
C1447 C 0.62466 0.58221 0.91977 0.0
H1448 H 0.67548 0.64492 0.9632 0.0
C1449 C 0.61605 0.59283 0.8579 0.0
C1450 C 0.6292 0.62191 0.83353 0.0
H1451 H 0.61437 0.55961 0.93761 0.0
H1452 H 0.5996 0.57802 0.82859 0.0
C1453 C 0.65086 0.64039 0.87189 0.0
C1454 C 0.15989 0.86663 0.63253 0.0
C1455 C 0.14917 0.89017 0.58741 0.0
H1456 H 0.18112 0.85723 0.72597 0.0
C1457 C 0.15385 0.92345 0.60326 0.0
H1458 H 0.15797 0.84078 0.62206 0.0
C1459 C 0.16852 0.93273 0.66214 0.0
C1460 C 0.17796 0.9091 0.70765 0.0
H1461 H 0.1456 0.94257 0.5711 0.0
H1462 H 0.17176 0.95847 0.67275 0.0
C1463 C 0.17353 0.87598 0.69219 0.0
C1464 C 0.91477 0.60134 0.69106 0.0
C1465 C 0.90313 0.63095 0.7166 0.0
H1466 H 0.91413 0.56771 0.61096 0.0
C1467 C 0.88188 0.65015 0.67898 0.0
H1468 H 0.9314 0.58635 0.71901 0.0
C1469 C 0.87284 0.64003 0.6165 0.0
C1470 C 0.88409 0.61011 0.59156 0.0
H1471 H 0.87283 0.67325 0.69737 0.0
H1472 H 0.8569 0.65547 0.58809 0.0
C1473 C 0.90496 0.59075 0.62947 0.0
C1474 C 0.1182 0.09189 0.41706 0.0
C1475 C 0.1412 0.10951 0.45381 0.0
H1476 H 0.09136 0.08841 0.32809 0.0
C1477 C 0.15505 0.13801 0.42824 0.0
H1478 H 0.10723 0.06988 0.43609 0.0
C1479 C 0.14667 0.14823 0.36583 0.0
C1480 C 0.1237 0.13053 0.32875 0.0
H1481 H 0.17285 0.15201 0.45585 0.0
H1482 H 0.15802 0.17002 0.3467 0.0
C1483 C 0.10915 0.10257 0.35546 0.0
C1484 C 0.6854 0.37941 0.1843 0.0
C1485 C 0.68479 0.41222 0.20404 0.0
H1486 H 0.67455 0.34457 0.11005 0.0
C1487 C 0.67131 0.43559 0.16205 0.0
H1488 H 0.69607 0.36099 0.21548 0.0
C1489 C 0.65771 0.42611 0.10218 0.0
C1490 C 0.65793 0.39306 0.08226 0.0
H1491 H 0.67048 0.46109 0.17634 0.0
H1492 H 0.64633 0.44468 0.07253 0.0
C1493 C 0.67269 0.37003 0.12388 0.0
C1494 C 0.40151 0.90069 0.9323 0.0
C1495 C 0.36839 0.89944 0.94961 0.0
H1496 H 0.43711 0.89181 0.85925 0.0
C1497 C 0.34529 0.8875 0.90486 0.0
H1498 H 0.41971 0.9103 0.96581 0.0
C1499 C 0.35532 0.87616 0.84418 0.0
C1500 C 0.38859 0.8771 0.82679 0.0
H1501 H 0.31964 0.8862 0.91744 0.0
H1502 H 0.33703 0.86605 0.81153 0.0
C1503 C 0.41147 0.88989 0.8714 0.0
C1504 C 0.16573 0.75456 0.23594 0.0
C1505 C 0.13964 0.73617 0.20951 0.0
H1506 H 0.18631 0.80248 0.25264 0.0
C1507 C 0.11243 0.75319 0.185 0.0
H1508 H 0.18749 0.74225 0.25348 0.0
C1509 C 0.1125 0.78745 0.18124 0.0
C1510 C 0.13925 0.80589 0.20438 0.0
H1511 H 0.092 0.73983 0.16415 0.0
H1512 H 0.09215 0.79951 0.15739 0.0
C1513 C 0.16518 0.7891 0.23485 0.0
C1514 C 0.53713 0.86365 0.42568 0.0
C1515 C 0.5549 0.88965 0.45346 0.0
H1516 H 0.49012 0.84295 0.4042 0.0
C1517 C 0.53743 0.91381 0.48787 0.0
H1518 H 0.5497 0.8446 0.39899 0.0
C1519 C 0.50278 0.91343 0.48889 0.0
C1520 C 0.4851 0.88834 0.45723 0.0
H1521 H 0.55034 0.93439 0.50919 0.0
H1522 H 0.48989 0.93392 0.51012 0.0
C1523 C 0.50291 0.86276 0.42851 0.0
C1524 C 0.421 0.28938 0.65481 0.0
C1525 C 0.3976 0.30704 0.6902 0.0
H1526 H 0.43914 0.2427 0.6253 0.0
C1527 C 0.37671 0.2895 0.73157 0.0
H1528 H 0.43779 0.30195 0.6231 0.0
C1529 C 0.37766 0.25489 0.73319 0.0
C1530 C 0.3997 0.23737 0.69387 0.0
H1531 H 0.35828 0.30232 0.75926 0.0
H1532 H 0.3596 0.24188 0.76123 0.0
C1533 C 0.42201 0.25527 0.65656 0.0
C1534 C 1.00575 0.16987 0.90776 0.0
C1535 C 0.98847 0.14793 0.94691 0.0
H1536 H 0.05204 0.18576 0.87239 0.0
C1537 C 1.00652 0.1266 0.98689 0.0
H1538 H 0.99266 0.18634 0.87584 0.0
C1539 C 0.04111 0.12595 0.98432 0.0
C1540 C 0.05807 0.14644 0.94131 0.0
H1541 H 0.99391 0.10882 1.01628 0.0
H1542 H 0.05435 0.10802 1.01261 0.0
C1543 C 0.03989 0.16924 0.90524 0.0
C1544 C 0.12312 0.28633 0.90522 0.0
C1545 C 0.14334 0.30357 0.86257 0.0
H1546 H 0.10708 0.24017 0.94008 0.0
C1547 C 0.16082 0.28571 0.81556 0.0
H1548 H 0.10897 0.29921 0.94149 0.0
C1549 C 0.15982 0.25112 0.81486 0.0
C1550 C 0.1412 0.23408 0.86095 0.0
H1551 H 0.17672 0.29829 0.78219 0.0
H1552 H 0.17511 0.23781 0.7812 0.0
C1553 C 0.12199 0.25231 0.90429 0.0
C1554 C 0.03332 0.86784 0.15198 0.0
C1555 C 0.0505 0.89031 0.11376 0.0
H1556 H 0.98703 0.85047 0.18485 0.0
C1557 C 0.03229 0.91153 0.07381 0.0
H1558 H 0.04646 0.85105 0.18316 0.0
C1559 C 0.99766 0.91157 0.07569 0.0
C1560 C 0.98075 0.89036 0.11747 0.0
H1561 H 0.04476 0.92941 0.04443 0.0
H1562 H 0.98427 0.92939 0.04741 0.0
C1563 C 0.99912 0.86767 0.15333 0.0
C1564 C 0.38312 0.74641 0.31086 0.0
C1565 C 0.40398 0.7291 0.3531 0.0
H1566 H 0.36501 0.79375 0.28171 0.0
C1567 C 0.42563 0.74713 0.39288 0.0
H1568 H 0.36589 0.73331 0.28018 0.0
C1569 C 0.42466 0.78124 0.39477 0.0
C1570 C 0.4025 0.79868 0.35589 0.0
H1571 H 0.44231 0.73471 0.42552 0.0
H1572 H 0.44061 0.79401 0.42865 0.0
C1573 C 0.38252 0.781 0.31199 0.0
C1574 C 0.53265 0.1325 0.56365 0.0
C1575 C 0.54981 0.15274 0.60791 0.0
H1576 H 0.48534 0.11503 0.53082 0.0
C1577 C 0.53174 0.17447 0.64644 0.0
H1578 H 0.54589 0.11525 0.53373 0.0
C1579 C 0.49757 0.17479 0.64384 0.0
C1580 C 0.48008 0.1529 0.60365 0.0
H1581 H 0.54407 0.19055 0.68066 0.0
H1582 H 0.48468 0.19115 0.67627 0.0
C1583 C 0.498 0.13245 0.56178 0.0
C1584 C 0.88371 0.24315 0.81314 0.0
C1585 C 0.90494 0.22562 0.85427 0.0
H1586 H 0.86586 0.2907 0.78481 0.0
C1587 C 0.92755 0.24338 0.89241 0.0
H1588 H 0.86567 0.23027 0.78396 0.0
C1589 C 0.92718 0.2775 0.89399 0.0
C1590 C 0.90465 0.29518 0.85645 0.0
H1591 H 0.94438 0.23075 0.92445 0.0
H1592 H 0.94377 0.2901 0.92689 0.0
C1593 C 0.88372 0.27774 0.81391 0.0
C1594 C 0.62002 0.78556 0.39753 0.0
C1595 C 0.64163 0.80343 0.35854 0.0
H1596 H 0.60427 0.73891 0.43114 0.0
C1597 C 0.66241 0.78586 0.31669 0.0
H1598 H 0.60353 0.79809 0.43019 0.0
C1599 C 0.66291 0.7512 0.31745 0.0
C1600 C 0.64265 0.73366 0.36007 0.0
H1601 H 0.67967 0.7988 0.28666 0.0
H1602 H 0.68051 0.7383 0.28787 0.0
C1603 C 0.62047 0.75144 0.3982 0.0
C1604 C 0.92123 0.7526 0.15579 0.0
C1605 C 0.901 0.73366 0.19552 0.0
H1606 H 0.93482 0.80031 0.12425 0.0
C1607 C 0.88154 0.74977 0.24184 0.0
H1608 H 0.9365 0.74103 0.11959 0.0
C1609 C 0.88057 0.7843 0.24455 0.0
C1610 C 0.89911 0.80299 0.20104 0.0
H1611 H 0.86528 0.73584 0.27234 0.0
H1612 H 0.8636 0.79623 0.27705 0.0
C1613 C 0.92029 0.78665 0.1585 0.0
C1614 C 0.66669 0.25439 0.73654 0.0
C1615 C 0.63998 0.23659 0.71093 0.0
H1616 H 0.68893 0.30176 0.75097 0.0
C1617 C 0.61342 0.25427 0.68544 0.0
H1618 H 0.68802 0.24156 0.75465 0.0
C1619 C 0.61469 0.28846 0.68006 0.0
C1620 C 0.64204 0.30624 0.70247 0.0
H1621 H 0.5926 0.24138 0.66493 0.0
H1622 H 0.5948 0.30093 0.65556 0.0
C1623 C 0.66735 0.28891 0.73377 0.0
C1624 C 1.00525 0.41104 0.98938 0.0
C1625 C 0.98791 0.38533 0.95896 0.0
H1626 H 0.05243 0.43312 1.00827 0.0
C1627 C 1.0061 0.35999 0.93039 0.0
H1628 H 0.99204 0.43143 1.01023 0.0
C1629 C 0.04031 0.36158 0.92686 0.0
C1630 C 0.05771 0.38812 0.95364 0.0
H1631 H 0.99358 0.33982 0.90671 0.0
H1632 H 0.05313 0.34262 0.90043 0.0
C1633 C 0.03988 0.41213 0.9877 0.0
C1634 C 0.50724 0.673 0.40593 0.0
C1635 C 0.4897 0.65111 0.44485 0.0
H1636 H 0.55374 0.68865 0.37102 0.0
C1637 C 0.50755 0.63023 0.48611 0.0
H1638 H 0.49439 0.68928 0.37324 0.0
C1639 C 0.54219 0.62982 0.48469 0.0
C1640 C 0.55938 0.65011 0.44163 0.0
H1641 H 0.49482 0.61253 0.51548 0.0
H1642 H 0.55532 0.61208 0.51367 0.0
C1643 C 0.5414 0.67248 0.40429 0.0
C1644 C 0.50304 0.40773 0.56393 0.0
C1645 C 0.48592 0.38907 0.60987 0.0
H1646 H 0.55036 0.42386 0.53044 0.0
C1647 C 0.50408 0.36892 0.65173 0.0
H1648 H 0.4898 0.42376 0.53145 0.0
C1649 C 0.53818 0.36902 0.65124 0.0
C1650 C 0.55558 0.38922 0.60877 0.0
H1651 H 0.49186 0.354 0.6874 0.0
H1652 H 0.55104 0.35419 0.68654 0.0
C1653 C 0.53769 0.40779 0.56336 0.0
C1654 C 0.0345 0.62993 0.06316 0.0
C1655 C 0.05158 0.65066 0.10654 0.0
H1656 H 0.98728 0.61164 0.03188 0.0
C1657 C 0.03351 0.67232 0.14519 0.0
H1658 H 0.04781 0.61279 0.03311 0.0
C1659 C 0.99937 0.67206 0.14365 0.0
C1660 C 0.98202 0.64962 0.10453 0.0
H1661 H 0.04585 0.68881 0.17864 0.0
H1662 H 0.98646 0.68849 0.17589 0.0
C1663 C 0.99989 0.62931 0.06235 0.0
C1664 C 0.18123 0.54511 1.00668 0.0
C1665 C 0.15463 0.55616 0.04385 0.0
H1666 H 0.19972 0.50913 0.9396 0.0
C1667 C 0.12528 0.53821 0.03957 0.0
H1668 H 0.20466 0.55727 1.0106 0.0
C1669 C 0.12331 0.50908 1.00327 0.0
C1670 C 0.14988 0.49814 0.96602 0.0
H1671 H 0.10392 0.54613 0.06583 0.0
H1672 H 0.10109 0.49473 1.00557 0.0
C1673 C 0.17845 0.5173 0.96617 0.0
C1674 C 0.7545 0.87633 0.30354 0.0
C1675 C 0.73842 0.90579 0.31964 0.0
H1676 H 0.79483 0.85322 0.25389 0.0
C1677 C 0.75198 0.93504 0.29617 0.0
H1678 H 0.74473 0.85326 0.31998 0.0
C1679 C 0.78088 0.93504 0.25944 0.0
C1680 C 0.79696 0.90575 0.24297 0.0
H1681 H 0.74045 0.95822 0.30712 0.0
H1682 H 0.79066 0.95823 0.24352 0.0
C1683 C 0.78312 0.87627 0.26505 0.0
C1684 C 0.42127 0.50479 0.54769 0.0
C1685 C 0.39165 0.49077 0.56869 0.0
H1686 H 0.44453 0.54224 0.49054 0.0
C1687 C 0.3623 0.50554 0.54773 0.0
H1688 H 0.44438 0.494 0.5621 0.0
C1689 C 0.36238 0.5333 0.50783 0.0
C1690 C 0.39179 0.54716 0.48585 0.0
H1691 H 0.33896 0.49563 0.5625 0.0
H1692 H 0.3391 0.54373 0.49349 0.0
C1693 C 0.42133 0.53234 0.50615 0.0
C1694 C 0.7994 0.14193 0.73454 0.0
C1695 C 0.80077 0.14904 0.80208 0.0
H1696 H 0.76997 0.13638 0.64792 0.0
C1697 C 0.77155 0.15913 0.83137 0.0
H1698 H 0.82116 0.13419 0.70913 0.0
C1699 C 0.74206 0.16078 0.79535 0.0
C1700 C 0.74042 0.15213 0.72858 0.0
H1701 H 0.77122 0.16513 0.88246 0.0
H1702 H 0.72011 0.1679 0.82085 0.0
C1703 C 0.76986 0.14336 0.69862 0.0
C1704 C 0.91352 0.51621 0.07814 0.0
C1705 C 0.90313 0.54527 0.04877 0.0
H1706 H 0.92221 0.46484 0.06774 0.0
C1707 C 0.89557 0.54387 0.98138 0.0
H1708 H 0.91998 0.51598 0.12906 0.0
C1709 C 0.8968 0.51442 0.94566 0.0
C1710 C 0.90575 0.48512 0.97576 0.0
H1711 H 0.88766 0.56555 0.95585 0.0
H1712 H 0.88944 0.51446 0.89513 0.0
C1713 C 0.9149 0.48676 0.0423 0.0
C1714 C 0.25562 0.16838 0.79631 0.0
C1715 C 0.24126 0.13871 0.81603 0.0
H1716 H 0.29343 0.19182 0.74039 0.0
C1717 C 0.25567 0.10947 0.79393 0.0
H1718 H 0.24511 0.1914 0.81169 0.0
C1719 C 0.28351 0.1097 0.75428 0.0
C1720 C 0.29775 0.13917 0.73368 0.0
H1721 H 0.24546 0.08612 0.80771 0.0
H1722 H 0.29375 0.08651 0.73908 0.0
C1723 C 0.28321 0.16861 0.75497 0.0
C1724 C 0.685 0.53038 0.49951 0.0
C1725 C 0.65523 0.54558 0.48253 0.0
H1726 H 0.70924 0.49073 0.54793 0.0
C1727 C 0.62605 0.53071 0.5034 0.0
H1728 H 0.708 0.54096 0.48448 0.0
C1729 C 0.62684 0.50209 0.54175 0.0
C1730 C 0.65677 0.48707 0.55889 0.0
H1731 H 0.60268 0.54179 0.49192 0.0
H1732 H 0.60397 0.49164 0.55778 0.0
C1733 C 0.68574 0.50146 0.53612 0.0
C1734 C 0.28551 0.87451 0.29342 0.0
C1735 C 0.30397 0.90354 0.29772 0.0
H1736 H 0.24176 0.85087 0.25882 0.0
C1737 C 0.2929 0.93047 0.26132 0.0
H1738 H 0.29322 0.85299 0.31943 0.0
C1739 C 0.26485 0.9282 0.22105 0.0
C1740 C 0.24556 0.8997 0.21977 0.0
H1741 H 0.30555 0.95364 0.26497 0.0
H1742 H 0.25689 0.9496 0.19464 0.0
C1743 C 0.2563 0.87296 0.25692 0.0
C1744 C 0.62213 1.00818 0.50831 0.0
C1745 C 0.64932 0.99641 0.47386 0.0
H1746 H 0.6021 0.04612 0.56804 0.0
C1747 C 0.67848 1.01465 0.47726 0.0
H1748 H 0.59947 0.99448 0.50836 0.0
C1749 C 0.68088 0.04273 0.51708 0.0
C1750 C 0.65354 0.05488 0.55072 0.0
H1751 H 0.70014 1.00587 0.45279 0.0
H1752 H 0.7044 0.05465 0.52234 0.0
C1753 C 0.62392 0.03748 0.54421 0.0
C1754 C 0.24297 0.42289 0.76097 0.0
C1755 C 0.23643 0.39971 0.80963 0.0
H1756 H 0.27545 0.43897 0.68582 0.0
C1757 C 0.25778 0.37282 0.81451 0.0
H1758 H 0.22721 0.4439 0.75503 0.0
C1759 C 0.28596 0.37044 0.77581 0.0
C1760 C 0.29288 0.39406 0.72858 0.0
H1761 H 0.25316 0.35389 0.84931 0.0
H1762 H 0.30294 0.35056 0.78417 0.0
C1763 C 0.27058 0.41994 0.7207 0.0
C1764 C 0.92203 0.99992 0.04145 0.0
C1765 C 0.89766 0.99331 0.08748 0.0
H1766 H 0.93966 0.03191 0.96761 0.0
C1767 C 0.87187 1.01578 0.09379 0.0
H1768 H 0.94219 0.98307 0.03507 0.0
C1769 C 0.8691 0.04248 0.05119 0.0
C1770 C 0.89296 0.04858 1.00358 0.0
H1771 H 0.85236 1.01119 0.12777 0.0
H1772 H 0.84768 0.05781 0.05435 0.0
C1773 C 0.92016 0.02757 1.00146 0.0
C1774 C 0.24437 0.66277 0.28869 0.0
C1775 C 0.2425 0.65334 0.22241 0.0
H1776 H 0.27373 0.66777 0.37528 0.0
C1777 C 0.27176 0.64392 0.19249 0.0
H1778 H 0.22256 0.67043 0.31406 0.0
C1779 C 0.30137 0.64259 0.22818 0.0
C1780 C 0.30291 0.65036 0.2954 0.0
H1781 H 0.27164 0.63632 0.14213 0.0
H1782 H 0.32301 0.63436 0.20299 0.0
C1783 C 0.27389 0.66115 0.32448 0.0
C1784 C 0.39542 0.01913 0.44158 0.0
C1785 C 0.40379 0.98971 0.47213 0.0
H1786 H 0.38702 0.07058 0.45131 0.0
C1787 C 0.41277 0.99151 0.53872 0.0
H1788 H 0.38821 0.01911 0.39097 0.0
C1789 C 0.41172 0.0211 0.57412 0.0
C1790 C 0.40188 0.0503 0.54443 0.0
H1791 H 0.41967 0.96959 0.56459 0.0
H1792 H 0.41793 0.02086 0.62514 0.0
C1793 C 0.39456 0.04881 0.47696 0.0
C1794 C 0.78736 0.66543 0.25465 0.0
C1795 C 0.80092 0.63577 0.23232 0.0
H1796 H 0.75015 0.68883 0.31253 0.0
C1797 C 0.78616 0.60649 0.25237 0.0
H1798 H 0.79817 0.68847 0.24062 0.0
C1799 C 0.75846 0.60673 0.29229 0.0
C1800 C 0.74497 0.63623 0.31529 0.0
H1801 H 0.79581 0.58318 0.2364 0.0
H1802 H 0.7476 0.58357 0.30543 0.0
C1803 C 0.76002 0.66565 0.2964 0.0
C1804 C 0.16813 0.01868 0.96965 0.0
C1805 C 0.14234 0.04111 0.97715 0.0
H1806 H 0.19203 0.97555 1.00516 0.0
C1807 C 0.11831 0.03418 0.0235 0.0
H1808 H 0.18729 0.02335 0.93494 0.0
C1809 C 0.12036 1.00595 0.06206 0.0
C1810 C 0.14742 0.98477 0.0583 0.0
H1811 H 0.09837 0.05114 0.03126 0.0
H1812 H 0.10109 1.00118 0.09597 0.0
C1813 C 0.17092 0.99125 1.01031 0.0
C1814 C 0.75946 0.37104 0.75573 0.0
C1815 C 0.75 0.39772 0.71709 0.0
H1816 H 0.79482 0.35076 0.82124 0.0
C1817 C 0.76997 0.42572 0.71853 0.0
H1818 H 0.7443 0.34936 0.75755 0.0
C1819 C 0.79732 0.42769 0.7606 0.0
C1820 C 0.80708 0.40085 0.79861 0.0
H1821 H 0.76297 0.44707 0.69093 0.0
H1822 H 0.81038 0.45061 0.76452 0.0
C1823 C 0.78807 0.3722 0.79403 0.0
loop_
_geom_bond_atom_site_label_1
_geom_bond_atom_site_label_2
_geom_bond_distance
_geom_bond_site_symmetry_2
_ccdc_geom_bond_type
C0 C2 1.422 . S
C0 C4 1.415 . S
C0 N6 1.369 . S
C1 C2 1.421 . S
C1 C3 1.417 . S
C1 C13 1.422 . S
C2 C0 1.422 . S
C2 C1 1.421 . S
C2 N12 1.359 . S
C3 C1 1.417 . S
C3 C5 1.329 . S
C3 H22 0.930 . S
C4 C0 1.415 . S
C4 C5 1.437 . S
C4 C8 1.413 . S
C5 C3 1.329 . S
C5 C4 1.437 . S
C5 H27 0.929 . S
N6 C0 1.369 . S
N6 C7 1.338 . S
N6 Gd11 2.622 . S
C7 N6 1.338 . S
C7 C9 1.378 . S
C7 H19 0.929 . S
C8 C4 1.413 . S
C8 C9 1.348 . S
C8 H24 0.931 . S
C9 C7 1.378 . S
C9 C8 1.348 . S
C9 H25 0.930 1_455 S
Gd10 N30 2.622 . S
Gd10 N37 2.570 1_554 S
Gd10 O44 2.353 . S
Gd10 O45 2.468 1_554 S
Gd10 O46 2.427 1_554 S
Gd10 O48 2.388 . S
Gd10 O49 2.386 . S
Gd10 O53 2.307 . S
Gd10 C63 2.805 1_554 S
Gd11 N6 2.622 . S
Gd11 N12 2.570 . S
Gd11 O43 2.386 . S
Gd11 O47 2.307 . S
Gd11 O50 2.353 . S
Gd11 O51 2.468 . S
Gd11 O52 2.427 . S
Gd11 O54 2.388 . S
Gd11 C75 2.805 . S
N12 C2 1.359 . S
N12 Gd11 2.570 . S
N12 C14 1.343 . S
C13 C1 1.422 . S
C13 C15 1.321 . S
C13 H21 0.931 . S
C14 N12 1.343 . S
C14 C15 1.390 . S
C14 H16 0.931 . S
C15 C13 1.321 . S
C15 C14 1.390 . S
C15 H17 0.930 . S
H16 C14 0.931 . S
H17 C15 0.930 . S
H18 C41 0.931 . S
H19 C7 0.929 . S
H20 C42 0.930 . S
H21 C13 0.931 . S
H22 C3 0.930 . S
H23 C32 0.929 . S
H24 C8 0.931 . S
H25 C9 0.930 1_655 S
H26 C64 0.930 . S
H27 C5 0.929 . S
H28 C33 0.931 . S
H29 C34 0.930 . S
N30 Gd10 2.622 . S
N30 C31 1.369 1_554 S
N30 C32 1.338 . S
C31 N30 1.369 1_556 S
C31 C35 1.415 . S
C31 C38 1.422 . S
C32 H23 0.929 . S
C32 N30 1.338 . S
C32 C34 1.378 . S
C33 H28 0.931 . S
C33 C34 1.348 . S
C33 C35 1.413 1_554 S
C34 H29 0.930 . S
C34 C32 1.378 . S
C34 C33 1.348 . S
C35 C31 1.415 . S
C35 C33 1.413 1_556 S
C35 C65 1.437 . S
H36 C65 0.929 . S
N37 Gd10 2.570 1_556 S
N37 C38 1.359 . S
N37 C41 1.343 . S
C38 C31 1.422 . S
C38 N37 1.359 . S
C38 C40 1.421 . S
C39 C40 1.422 . S
C39 C42 1.321 . S
C39 H66 0.931 . S
C40 C38 1.421 . S
C40 C39 1.422 . S
C40 C64 1.417 . S
C41 H18 0.931 . S
C41 N37 1.343 . S
C41 C42 1.390 . S
C42 H20 0.930 . S
C42 C39 1.321 . S
C42 C41 1.390 . S
O43 Gd11 2.386 . S
O43 C55 1.265 . S
O44 Gd10 2.353 . S
O44 C55 1.242 . S
O45 Gd10 2.468 1_556 S
O45 C63 1.263 . S
O46 Gd10 2.427 1_556 S
O46 C63 1.252 . S
O47 Gd11 2.307 . S
O47 C56 1.261 . S
O48 Gd10 2.388 . S
O48 C56 1.252 . S
O49 Gd10 2.386 . S
O49 C67 1.265 . S
O50 Gd11 2.353 . S
O50 C67 1.242 . S
O51 Gd11 2.468 . S
O51 C75 1.263 . S
O52 Gd11 2.427 . S
O52 C75 1.252 . S
O53 Gd10 2.307 . S
O53 C68 1.261 . S
O54 Gd11 2.388 . S
O54 C68 1.252 . S
C55 O43 1.265 . S
C55 O44 1.242 . S
C56 O47 1.261 . S
C56 O48 1.252 . S
C57 C60 1.394 . S
C57 C62 1.370 . S
C57 C63 1.500 . S
C58 C61 1.383 . S
C58 C62 1.395 . S
C59 C60 1.396 . S
C59 C61 1.365 . S
C59 H76 0.929 . S
C60 C57 1.394 . S
C60 C59 1.396 . S
C60 H77 0.930 . S
C61 C58 1.383 . S
C61 C59 1.365 . S
C61 H78 0.931 . S
C62 C57 1.370 . S
C62 C58 1.395 . S
C62 H79 0.930 . S
C63 Gd10 2.805 1_556 S
C63 O45 1.263 . S
C63 O46 1.252 . S
C63 C57 1.500 . S
C64 H26 0.930 . S
C64 C40 1.417 . S
C64 C65 1.329 . S
C65 C35 1.437 . S
C65 H36 0.929 . S
C65 C64 1.329 . S
H66 C39 0.931 . S
C67 O49 1.265 . S
C67 O50 1.242 . S
C68 O53 1.261 . S
C68 O54 1.252 . S
C69 C72 1.394 . S
C69 C74 1.370 . S
C69 C75 1.500 . S
C70 C73 1.383 . S
C70 C74 1.395 . S
C71 C72 1.396 . S
C71 C73 1.365 . S
C71 H80 0.929 . S
C72 C69 1.394 . S
C72 C71 1.396 . S
C72 H81 0.930 . S
C73 C70 1.383 . S
C73 C71 1.365 . S
C73 H82 0.931 . S
C74 C69 1.370 . S
C74 C70 1.395 . S
C74 H83 0.930 . S
C75 Gd11 2.805 . S
C75 O51 1.263 . S
C75 O52 1.252 . S
C75 C69 1.500 . S
H76 C59 0.929 . S
H77 C60 0.930 . S
H78 C61 0.931 . S
H79 C62 0.930 . S
H80 C71 0.929 . S
H81 C72 0.930 . S
H82 C73 0.931 . S
H83 C74 0.930 . S
C84 C86 1.422 . S
C84 C88 1.415 . S
C84 N90 1.369 . S
C85 C86 1.421 . S
C85 C87 1.417 . S
C85 C97 1.422 . S
C86 C84 1.422 . S
C86 C85 1.421 . S
C86 N96 1.359 . S
C87 C85 1.417 . S
C87 C89 1.329 . S
C87 H106 0.930 . S
C88 C84 1.415 . S
C88 C89 1.437 . S
C88 C92 1.413 . S
C89 C87 1.329 . S
C89 C88 1.437 . S
C89 H111 0.929 . S
N90 C84 1.369 . S
N90 C91 1.338 . S
N90 Gd95 2.622 . S
C91 N90 1.338 . S
C91 C93 1.378 . S
C91 H103 0.929 . S
C92 C88 1.413 . S
C92 C93 1.348 . S
C92 H108 0.931 . S
C93 C91 1.378 . S
C93 C92 1.348 . S
C93 H109 0.930 . S
Gd94 N114 2.622 . S
Gd94 N121 2.570 . S
Gd94 O128 2.353 . S
Gd94 O129 2.468 . S
Gd94 O130 2.427 . S
Gd94 O132 2.388 . S
Gd94 O133 2.386 . S
Gd94 O137 2.307 . S
Gd94 C147 2.805 . S
Gd95 N90 2.622 . S
Gd95 N96 2.570 . S
Gd95 O127 2.386 . S
Gd95 O131 2.307 . S
Gd95 O134 2.353 . S
Gd95 O135 2.468 . S
Gd95 O136 2.427 . S
Gd95 O138 2.388 . S
Gd95 C159 2.805 . S
N96 C86 1.359 . S
N96 Gd95 2.570 . S
N96 C98 1.343 . S
C97 C85 1.422 . S
C97 C99 1.321 . S
C97 H105 0.931 . S
C98 N96 1.343 . S
C98 C99 1.390 . S
C98 H100 0.931 . S
C99 C97 1.321 . S
C99 C98 1.390 . S
C99 H101 0.930 . S
H100 C98 0.931 . S
H101 C99 0.930 . S
H102 C125 0.931 . S
H103 C91 0.929 . S
H104 C126 0.930 . S
H105 C97 0.931 . S
H106 C87 0.930 . S
H107 C116 0.929 . S
H108 C92 0.931 . S
H109 C93 0.930 . S
H110 C148 0.930 . S
H111 C89 0.929 . S
H112 C117 0.931 1_545 S
H113 C118 0.930 1_545 S
N114 Gd94 2.622 . S
N114 C115 1.369 . S
N114 C116 1.338 . S
C115 N114 1.369 . S
C115 C119 1.415 . S
C115 C122 1.422 . S
C116 H107 0.929 . S
C116 N114 1.338 . S
C116 C118 1.378 . S
C117 H112 0.931 1_565 S
C117 C118 1.348 . S
C117 C119 1.413 . S
C118 H113 0.930 1_565 S
C118 C116 1.378 . S
C118 C117 1.348 . S
C119 C115 1.415 . S
C119 C117 1.413 . S
C119 C149 1.437 . S
H120 C149 0.929 . S
N121 Gd94 2.570 . S
N121 C122 1.359 . S
N121 C125 1.343 . S
C122 C115 1.422 . S
C122 N121 1.359 . S
C122 C124 1.421 . S
C123 C124 1.422 . S
C123 C126 1.321 . S
C123 H150 0.931 . S
C124 C122 1.421 . S
C124 C123 1.422 . S
C124 C148 1.417 . S
C125 H102 0.931 . S
C125 N121 1.343 . S
C125 C126 1.390 . S
C126 H104 0.930 . S
C126 C123 1.321 . S
C126 C125 1.390 . S
O127 Gd95 2.386 . S
O127 C139 1.265 . S
O128 Gd94 2.353 . S
O128 C139 1.242 . S
O129 Gd94 2.468 . S
O129 C147 1.263 . S
O130 Gd94 2.427 . S
O130 C147 1.252 . S
O131 Gd95 2.307 . S
O131 C140 1.261 . S
O132 Gd94 2.388 . S
O132 C140 1.252 . S
O133 Gd94 2.386 . S
O133 C151 1.265 . S
O134 Gd95 2.353 . S
O134 C151 1.242 . S
O135 Gd95 2.468 . S
O135 C159 1.263 . S
O136 Gd95 2.427 . S
O136 C159 1.252 . S
O137 Gd94 2.307 . S
O137 C152 1.261 . S
O138 Gd95 2.388 . S
O138 C152 1.252 . S
C139 O127 1.265 . S
C139 O128 1.242 . S
C140 O131 1.261 . S
C140 O132 1.252 . S
C141 C144 1.394 . S
C141 C146 1.370 . S
C141 C147 1.500 . S
C142 C145 1.386 . S
C142 C146 1.391 1_556 S
C143 C144 1.396 . S
C143 C145 1.365 1_554 S
C143 H160 0.929 1_554 S
C144 C141 1.394 . S
C144 C143 1.396 . S
C144 H161 0.930 . S
C145 C142 1.386 . S
C145 C143 1.365 1_556 S
C145 H162 0.931 . S
C146 C141 1.370 . S
C146 C142 1.391 1_554 S
C146 H163 0.930 . S
C147 Gd94 2.805 . S
C147 O129 1.263 . S
C147 O130 1.252 . S
C147 C141 1.500 . S
C148 H110 0.930 . S
C148 C124 1.417 . S
C148 C149 1.329 . S
C149 C119 1.437 . S
C149 H120 0.929 . S
C149 C148 1.329 . S
H150 C123 0.931 . S
C151 O133 1.265 . S
C151 O134 1.242 . S
C152 O137 1.261 . S
C152 O138 1.252 . S
C153 C156 1.394 . S
C153 C158 1.370 . S
C153 C159 1.500 . S
C154 C157 1.383 . S
C154 C158 1.395 . S
C155 C156 1.396 . S
C155 C157 1.365 . S
C155 H164 0.929 . S
C156 C153 1.394 . S
C156 C155 1.396 . S
C156 H165 0.930 . S
C157 C154 1.383 . S
C157 C155 1.365 . S
C157 H166 0.931 . S
C158 C153 1.370 . S
C158 C154 1.395 . S
C158 H167 0.930 . S
C159 Gd95 2.805 . S
C159 O135 1.263 . S
C159 O136 1.252 . S
C159 C153 1.500 . S
H160 C143 0.929 1_556 S
H161 C144 0.930 . S
H162 C145 0.931 . S
H163 C146 0.930 . S
H164 C155 0.929 . S
H165 C156 0.930 . S
H166 C157 0.931 . S
H167 C158 0.930 . S
C168 C170 1.422 . S
C168 C172 1.415 . S
C168 N174 1.369 . S
C169 C170 1.421 . S
C169 C171 1.417 . S
C169 C181 1.422 . S
C170 C168 1.422 . S
C170 C169 1.421 . S
C170 N180 1.359 . S
C171 C169 1.417 . S
C171 C173 1.329 . S
C171 H190 0.930 . S
C172 C168 1.415 . S
C172 C173 1.437 . S
C172 C176 1.413 . S
C173 C171 1.329 . S
C173 C172 1.437 . S
C173 H195 0.929 . S
N174 C168 1.369 . S
N174 C175 1.338 . S
N174 Gd179 2.622 . S
C175 N174 1.338 . S
C175 C177 1.378 . S
C175 H187 0.929 . S
C176 C172 1.413 . S
C176 C177 1.348 . S
C176 H192 0.931 . S
C177 C175 1.378 . S
C177 C176 1.348 . S
C177 H193 0.930 . S
Gd178 N198 2.622 . S
Gd178 N205 2.570 . S
Gd178 O212 2.353 . S
Gd178 O213 2.468 . S
Gd178 O214 2.427 . S
Gd178 O216 2.388 . S
Gd178 O217 2.386 . S
Gd178 O221 2.307 . S
Gd178 C231 2.805 . S
Gd179 N174 2.622 . S
Gd179 N180 2.570 . S
Gd179 O211 2.386 . S
Gd179 O215 2.307 . S
Gd179 O218 2.353 . S
Gd179 O219 2.468 . S
Gd179 O220 2.427 . S
Gd179 O222 2.388 . S
Gd179 C243 2.805 . S
N180 C170 1.359 . S
N180 Gd179 2.570 . S
N180 C182 1.343 . S
C181 C169 1.422 . S
C181 C183 1.321 . S
C181 H189 0.931 . S
C182 N180 1.343 . S
C182 C183 1.390 . S
C182 H184 0.931 . S
C183 C181 1.321 . S
C183 C182 1.390 . S
C183 H185 0.930 . S
H184 C182 0.931 . S
H185 C183 0.930 . S
H186 C209 0.931 . S
H187 C175 0.929 . S
H188 C210 0.930 . S
H189 C181 0.931 . S
H190 C171 0.930 . S
H191 C200 0.929 . S
H192 C176 0.931 . S
H193 C177 0.930 . S
H194 C232 0.930 . S
H195 C173 0.929 . S
H196 C201 0.931 . S
H197 C202 0.930 . S
N198 Gd178 2.622 . S
N198 C199 1.369 . S
N198 C200 1.338 . S
C199 N198 1.369 . S
C199 C203 1.415 . S
C199 C206 1.422 . S
C200 H191 0.929 . S
C200 N198 1.338 . S
C200 C202 1.378 . S
C201 H196 0.931 . S
C201 C202 1.348 . S
C201 C203 1.413 . S
C202 H197 0.930 . S
C202 C200 1.378 . S
C202 C201 1.348 . S
C203 C199 1.415 . S
C203 C201 1.413 . S
C203 C233 1.437 . S
H204 C233 0.929 . S
N205 Gd178 2.570 . S
N205 C206 1.359 . S
N205 C209 1.343 . S
C206 C199 1.422 . S
C206 N205 1.359 . S
C206 C208 1.421 . S
C207 C208 1.422 . S
C207 C210 1.321 . S
C207 H234 0.931 . S
C208 C206 1.421 . S
C208 C207 1.422 . S
C208 C232 1.417 . S
C209 H186 0.931 . S
C209 N205 1.343 . S
C209 C210 1.390 . S
C210 H188 0.930 . S
C210 C207 1.321 . S
C210 C209 1.390 . S
O211 Gd179 2.386 . S
O211 C223 1.265 . S
O212 Gd178 2.353 . S
O212 C223 1.242 . S
O213 Gd178 2.468 . S
O213 C231 1.263 . S
O214 Gd178 2.427 . S
O214 C231 1.252 . S
O215 Gd179 2.307 . S
O215 C224 1.261 . S
O216 Gd178 2.388 . S
O216 C224 1.252 . S
O217 Gd178 2.386 . S
O217 C235 1.265 . S
O218 Gd179 2.353 . S
O218 C235 1.242 . S
O219 Gd179 2.468 . S
O219 C243 1.263 . S
O220 Gd179 2.427 . S
O220 C243 1.252 . S
O221 Gd178 2.307 . S
O221 C236 1.261 . S
O222 Gd179 2.388 . S
O222 C236 1.252 . S
C223 O211 1.265 . S
C223 O212 1.242 . S
C224 O215 1.261 . S
C224 O216 1.252 . S
C225 C228 1.394 . S
C225 C230 1.370 . S
C225 C231 1.500 . S
C226 C229 1.383 . S
C226 C230 1.395 . S
C227 C228 1.396 . S
C227 C229 1.365 . S
C227 H244 0.929 . S
C228 C225 1.394 . S
C228 C227 1.396 . S
C228 H245 0.930 . S
C229 C226 1.383 . S
C229 C227 1.365 . S
C229 H246 0.931 . S
C230 C225 1.370 . S
C230 C226 1.395 . S
C230 H247 0.930 . S
C231 Gd178 2.805 . S
C231 O213 1.263 . S
C231 O214 1.252 . S
C231 C225 1.500 . S
C232 H194 0.930 . S
C232 C208 1.417 . S
C232 C233 1.329 . S
C233 C203 1.437 . S
C233 H204 0.929 . S
C233 C232 1.329 . S
H234 C207 0.931 . S
C235 O217 1.265 . S
C235 O218 1.242 . S
C236 O221 1.261 . S
C236 O222 1.252 . S
C237 C240 1.394 . S
C237 C242 1.370 . S
C237 C243 1.500 . S
C238 C241 1.383 . S
C238 C242 1.395 1_554 S
C239 C240 1.402 . S
C239 C241 1.362 1_556 S
C239 H248 0.926 1_556 S
C240 C237 1.394 . S
C240 C239 1.402 . S
C240 H249 0.930 . S
C241 C238 1.383 . S
C241 C239 1.362 1_554 S
C241 H250 0.931 . S
C242 C237 1.370 . S
C242 C238 1.395 1_556 S
C242 H251 0.930 . S
C243 Gd179 2.805 . S
C243 O219 1.263 . S
C243 O220 1.252 . S
C243 C237 1.500 . S
H244 C227 0.929 . S
H245 C228 0.930 . S
H246 C229 0.931 . S
H247 C230 0.930 . S
H248 C239 0.926 1_554 S
H249 C240 0.930 . S
H250 C241 0.931 . S
H251 C242 0.930 . S
C252 C254 1.422 . S
C252 C256 1.415 . S
C252 N258 1.369 . S
C253 C254 1.421 1_565 S
C253 C255 1.417 . S
C253 C265 1.422 . S
C254 C252 1.422 . S
C254 C253 1.421 1_545 S
C254 N264 1.359 . S
C255 C253 1.417 . S
C255 C257 1.329 . S
C255 H274 0.930 . S
C256 C252 1.415 . S
C256 C257 1.437 1_545 S
C256 C260 1.413 . S
C257 C255 1.329 . S
C257 C256 1.437 1_565 S
C257 H279 0.929 . S
N258 C252 1.369 . S
N258 C259 1.338 . S
N258 Gd263 2.622 . S
C259 N258 1.338 . S
C259 C261 1.378 . S
C259 H271 0.929 . S
C260 C256 1.413 . S
C260 C261 1.348 . S
C260 H276 0.931 1_545 S
C261 C259 1.378 . S
C261 C260 1.348 . S
C261 H277 0.930 1_655 S
Gd262 N282 2.622 . S
Gd262 N289 2.570 1_556 S
Gd262 O296 2.353 . S
Gd262 O297 2.468 1_556 S
Gd262 O298 2.427 1_556 S
Gd262 O300 2.388 . S
Gd262 O301 2.386 . S
Gd262 O305 2.307 . S
Gd262 C315 2.805 1_556 S
Gd263 N258 2.622 . S
Gd263 N264 2.570 . S
Gd263 O295 2.386 . S
Gd263 O299 2.307 . S
Gd263 O302 2.353 . S
Gd263 O303 2.468 . S
Gd263 O304 2.427 . S
Gd263 O306 2.388 . S
Gd263 C327 2.805 . S
N264 C254 1.359 . S
N264 Gd263 2.570 . S
N264 C266 1.343 . S
C265 C253 1.422 . S
C265 C267 1.321 1_565 S
C265 H273 0.931 . S
C266 N264 1.343 . S
C266 C267 1.390 . S
C266 H268 0.931 . S
C267 C265 1.321 1_545 S
C267 C266 1.390 . S
C267 H269 0.930 . S
H268 C266 0.931 . S
H269 C267 0.930 . S
H270 C293 0.931 . S
H271 C259 0.929 . S
H272 C294 0.930 . S
H273 C265 0.931 . S
H274 C255 0.930 . S
H275 C284 0.929 . S
H276 C260 0.931 1_565 S
H277 C261 0.930 1_455 S
H278 C316 0.930 . S
H279 C257 0.929 . S
H280 C285 0.931 . S
H281 C286 0.930 . S
N282 Gd262 2.622 . S
N282 C283 1.369 1_556 S
N282 C284 1.338 . S
C283 N282 1.369 1_554 S
C283 C287 1.415 . S
C283 C290 1.422 . S
C284 H275 0.929 . S
C284 N282 1.338 . S
C284 C286 1.378 . S
C285 H280 0.931 . S
C285 C286 1.348 . S
C285 C287 1.413 1_556 S
C286 H281 0.930 . S
C286 C284 1.378 . S
C286 C285 1.348 . S
C287 C283 1.415 . S
C287 C285 1.413 1_554 S
C287 C317 1.437 . S
H288 C317 0.929 . S
N289 Gd262 2.570 1_554 S
N289 C290 1.359 . S
N289 C293 1.343 . S
C290 C283 1.422 . S
C290 N289 1.359 . S
C290 C292 1.421 . S
C291 C292 1.422 . S
C291 C294 1.321 . S
C291 H318 0.931 . S
C292 C290 1.421 . S
C292 C291 1.422 . S
C292 C316 1.417 . S
C293 H270 0.931 . S
C293 N289 1.343 . S
C293 C294 1.390 . S
C294 H272 0.930 . S
C294 C291 1.321 . S
C294 C293 1.390 . S
O295 Gd263 2.386 . S
O295 C307 1.265 . S
O296 Gd262 2.353 . S
O296 C307 1.242 . S
O297 Gd262 2.468 1_554 S
O297 C315 1.263 . S
O298 Gd262 2.427 1_554 S
O298 C315 1.252 . S
O299 Gd263 2.307 . S
O299 C308 1.261 . S
O300 Gd262 2.388 . S
O300 C308 1.252 . S
O301 Gd262 2.386 . S
O301 C319 1.265 . S
O302 Gd263 2.353 . S
O302 C319 1.242 . S
O303 Gd263 2.468 . S
O303 C327 1.263 . S
O304 Gd263 2.427 . S
O304 C327 1.252 . S
O305 Gd262 2.307 . S
O305 C320 1.261 . S
O306 Gd263 2.388 . S
O306 C320 1.252 . S
C307 O295 1.265 . S
C307 O296 1.242 . S
C308 O299 1.261 . S
C308 O300 1.252 . S
C309 C312 1.394 . S
C309 C314 1.370 . S
C309 C315 1.500 . S
C310 C313 1.383 . S
C310 C314 1.395 . S
C311 C312 1.396 . S
C311 C313 1.365 . S
C311 H328 0.929 . S
C312 C309 1.394 . S
C312 C311 1.396 . S
C312 H329 0.930 . S
C313 C310 1.383 . S
C313 C311 1.365 . S
C313 H330 0.931 . S
C314 C309 1.370 . S
C314 C310 1.395 . S
C314 H331 0.930 . S
C315 Gd262 2.805 1_554 S
C315 O297 1.263 . S
C315 O298 1.252 . S
C315 C309 1.500 . S
C316 H278 0.930 . S
C316 C292 1.417 . S
C316 C317 1.329 . S
C317 C287 1.437 . S
C317 H288 0.929 . S
C317 C316 1.329 . S
H318 C291 0.931 . S
C319 O301 1.265 . S
C319 O302 1.242 . S
C320 O305 1.261 . S
C320 O306 1.252 . S
C321 C324 1.394 . S
C321 C326 1.370 . S
C321 C327 1.500 . S
C322 C325 1.383 . S
C322 C326 1.395 . S
C323 C324 1.396 . S
C323 C325 1.365 . S
C323 H332 0.929 . S
C324 C321 1.394 . S
C324 C323 1.396 . S
C324 H333 0.930 . S
C325 C322 1.383 . S
C325 C323 1.365 . S
C325 H334 0.931 . S
C326 C321 1.370 . S
C326 C322 1.395 . S
C326 H335 0.930 . S
C327 Gd263 2.805 . S
C327 O303 1.263 . S
C327 O304 1.252 . S
C327 C321 1.500 . S
H328 C311 0.929 . S
H329 C312 0.930 . S
H330 C313 0.931 . S
H331 C314 0.930 . S
H332 C323 0.929 . S
H333 C324 0.930 . S
H334 C325 0.931 . S
H335 C326 0.930 . S
C336 C338 1.422 . S
C336 C340 1.415 . S
C336 N342 1.369 1_554 S
C337 C338 1.421 . S
C337 C339 1.417 . S
C337 C349 1.422 . S
C338 C336 1.422 . S
C338 C337 1.421 . S
C338 N348 1.359 . S
C339 C337 1.417 . S
C339 C341 1.329 . S
C339 H358 0.930 . S
C340 C336 1.415 . S
C340 C341 1.437 . S
C340 C344 1.413 1_554 S
C341 C339 1.329 . S
C341 C340 1.437 . S
C341 H363 0.929 . S
N342 C336 1.369 1_556 S
N342 C343 1.338 . S
N342 Gd347 2.622 . S
C343 N342 1.338 . S
C343 C345 1.378 . S
C343 H355 0.929 . S
C344 C340 1.413 1_556 S
C344 C345 1.348 . S
C344 H360 0.931 . S
C345 C343 1.378 . S
C345 C344 1.348 . S
C345 H361 0.930 . S
Gd346 N366 2.622 . S
Gd346 N373 2.570 . S
Gd346 O380 2.353 . S
Gd346 O381 2.468 . S
Gd346 O382 2.427 . S
Gd346 O384 2.388 . S
Gd346 O385 2.386 . S
Gd346 O389 2.307 . S
Gd346 C399 2.805 . S
Gd347 N342 2.622 . S
Gd347 N348 2.570 1_556 S
Gd347 O379 2.386 . S
Gd347 O383 2.307 . S
Gd347 O386 2.353 . S
Gd347 O387 2.468 1_556 S
Gd347 O388 2.427 1_556 S
Gd347 O390 2.388 . S
Gd347 C411 2.805 1_556 S
N348 C338 1.359 . S
N348 Gd347 2.570 1_554 S
N348 C350 1.343 . S
C349 C337 1.422 . S
C349 C351 1.321 . S
C349 H357 0.931 . S
C350 N348 1.343 . S
C350 C351 1.390 . S
C350 H352 0.931 . S
C351 C349 1.321 . S
C351 C350 1.390 . S
C351 H353 0.930 . S
H352 C350 0.931 . S
H353 C351 0.930 . S
H354 C377 0.931 . S
H355 C343 0.929 . S
H356 C378 0.930 . S
H357 C349 0.931 . S
H358 C339 0.930 . S
H359 C368 0.929 . S
H360 C344 0.931 . S
H361 C345 0.930 . S
H362 C400 0.930 . S
H363 C341 0.929 . S
H364 C369 0.931 . S
H365 C370 0.930 . S
N366 Gd346 2.622 . S
N366 C367 1.369 . S
N366 C368 1.338 . S
C367 N366 1.369 . S
C367 C371 1.415 . S
C367 C374 1.422 . S
C368 H359 0.929 . S
C368 N366 1.338 . S
C368 C370 1.378 . S
C369 H364 0.931 . S
C369 C370 1.348 . S
C369 C371 1.413 . S
C370 H365 0.930 . S
C370 C368 1.378 . S
C370 C369 1.348 . S
C371 C367 1.415 . S
C371 C369 1.413 . S
C371 C401 1.437 1_455 S
H372 C401 0.929 . S
N373 Gd346 2.570 . S
N373 C374 1.359 . S
N373 C377 1.343 . S
C374 C367 1.422 . S
C374 N373 1.359 . S
C374 C376 1.421 . S
C375 C376 1.422 . S
C375 C378 1.321 . S
C375 H402 0.931 1_455 S
C376 C374 1.421 . S
C376 C375 1.422 . S
C376 C400 1.417 1_455 S
C377 H354 0.931 . S
C377 N373 1.343 . S
C377 C378 1.390 . S
C378 H356 0.930 . S
C378 C375 1.321 . S
C378 C377 1.390 . S
O379 Gd347 2.386 . S
O379 C391 1.265 . S
O380 Gd346 2.353 . S
O380 C391 1.242 . S
O381 Gd346 2.468 . S
O381 C399 1.263 . S
O382 Gd346 2.427 . S
O382 C399 1.252 . S
O383 Gd347 2.307 . S
O383 C392 1.261 . S
O384 Gd346 2.388 . S
O384 C392 1.252 . S
O385 Gd346 2.386 . S
O385 C403 1.265 . S
O386 Gd347 2.353 . S
O386 C403 1.242 . S
O387 Gd347 2.468 1_554 S
O387 C411 1.263 . S
O388 Gd347 2.427 1_554 S
O388 C411 1.252 . S
O389 Gd346 2.307 . S
O389 C404 1.261 . S
O390 Gd347 2.388 . S
O390 C404 1.252 . S
C391 O379 1.265 . S
C391 O380 1.242 . S
C392 O383 1.261 . S
C392 O384 1.252 . S
C393 C396 1.394 . S
C393 C398 1.370 . S
C393 C399 1.500 . S
C394 C397 1.383 . S
C394 C398 1.395 . S
C395 C396 1.396 . S
C395 C397 1.365 . S
C395 H412 0.929 . S
C396 C393 1.394 . S
C396 C395 1.396 . S
C396 H413 0.930 . S
C397 C394 1.383 . S
C397 C395 1.365 . S
C397 H414 0.931 . S
C398 C393 1.370 . S
C398 C394 1.395 . S
C398 H415 0.930 . S
C399 Gd346 2.805 . S
C399 O381 1.263 . S
C399 O382 1.252 . S
C399 C393 1.500 . S
C400 H362 0.930 . S
C400 C376 1.417 1_655 S
C400 C401 1.329 . S
C401 C371 1.437 1_655 S
C401 H372 0.929 . S
C401 C400 1.329 . S
H402 C375 0.931 1_655 S
C403 O385 1.265 . S
C403 O386 1.242 . S
C404 O389 1.261 . S
C404 O390 1.252 . S
C405 C408 1.394 . S
C405 C410 1.370 . S
C405 C411 1.500 . S
C406 C409 1.383 . S
C406 C410 1.395 . S
C407 C408 1.396 . S
C407 C409 1.365 . S
C407 H416 0.929 . S
C408 C405 1.394 . S
C408 C407 1.396 . S
C408 H417 0.930 . S
C409 C406 1.383 . S
C409 C407 1.365 . S
C409 H418 0.931 . S
C410 C405 1.370 . S
C410 C406 1.395 . S
C410 H419 0.930 . S
C411 Gd347 2.805 1_554 S
C411 O387 1.263 . S
C411 O388 1.252 . S
C411 C405 1.500 . S
H412 C395 0.929 . S
H413 C396 0.930 . S
H414 C397 0.931 . S
H415 C398 0.930 . S
H416 C407 0.929 . S
H417 C408 0.930 . S
H418 C409 0.931 . S
H419 C410 0.930 . S
C420 C422 1.422 . S
C420 C424 1.415 . S
C420 N426 1.369 1_556 S
C421 C422 1.421 . S
C421 C423 1.417 . S
C421 C433 1.422 . S
C422 C420 1.422 . S
C422 C421 1.421 . S
C422 N432 1.359 . S
C423 C421 1.417 . S
C423 C425 1.329 . S
C423 H442 0.930 . S
C424 C420 1.415 . S
C424 C425 1.437 . S
C424 C428 1.413 1_556 S
C425 C423 1.329 . S
C425 C424 1.437 . S
C425 H447 0.929 . S
N426 C420 1.369 1_554 S
N426 C427 1.338 . S
N426 Gd431 2.622 . S
C427 N426 1.338 . S
C427 C429 1.378 . S
C427 H439 0.929 . S
C428 C424 1.413 1_554 S
C428 C429 1.348 . S
C428 H444 0.931 . S
C429 C427 1.378 . S
C429 C428 1.348 . S
C429 H445 0.930 . S
Gd430 N450 2.622 . S
Gd430 N457 2.570 . S
Gd430 O464 2.353 . S
Gd430 O465 2.468 . S
Gd430 O466 2.427 . S
Gd430 O468 2.388 . S
Gd430 O469 2.386 . S
Gd430 O473 2.307 . S
Gd430 C483 2.805 . S
Gd431 N426 2.622 . S
Gd431 N432 2.570 1_554 S
Gd431 O463 2.386 . S
Gd431 O467 2.307 . S
Gd431 O470 2.353 . S
Gd431 O471 2.468 1_554 S
Gd431 O472 2.427 1_554 S
Gd431 O474 2.388 . S
Gd431 C495 2.805 1_554 S
N432 C422 1.359 . S
N432 Gd431 2.570 1_556 S
N432 C434 1.343 . S
C433 C421 1.422 . S
C433 C435 1.321 . S
C433 H441 0.931 . S
C434 N432 1.343 . S
C434 C435 1.390 . S
C434 H436 0.931 . S
C435 C433 1.321 . S
C435 C434 1.390 . S
C435 H437 0.930 . S
H436 C434 0.931 . S
H437 C435 0.930 . S
H438 C461 0.931 . S
H439 C427 0.929 . S
H440 C462 0.930 . S
H441 C433 0.931 . S
H442 C423 0.930 . S
H443 C452 0.929 . S
H444 C428 0.931 . S
H445 C429 0.930 . S
H446 C484 0.930 . S
H447 C425 0.929 . S
H448 C453 0.931 1_545 S
H449 C454 0.930 1_545 S
N450 Gd430 2.622 . S
N450 C451 1.369 . S
N450 C452 1.338 . S
C451 N450 1.369 . S
C451 C455 1.415 . S
C451 C458 1.422 . S
C452 H443 0.929 . S
C452 N450 1.338 . S
C452 C454 1.378 . S
C453 H448 0.931 1_565 S
C453 C454 1.348 . S
C453 C455 1.413 . S
C454 H449 0.930 1_565 S
C454 C452 1.378 . S
C454 C453 1.348 . S
C455 C451 1.415 . S
C455 C453 1.413 . S
C455 C485 1.437 1_655 S
H456 C485 0.929 . S
N457 Gd430 2.570 . S
N457 C458 1.359 . S
N457 C461 1.343 . S
C458 C451 1.422 . S
C458 N457 1.359 . S
C458 C460 1.421 . S
C459 C460 1.426 . S
C459 C462 1.339 . S
C459 H486 0.909 1_655 S
C460 C458 1.421 . S
C460 C459 1.426 . S
C460 C484 1.417 1_655 S
C461 H438 0.931 . S
C461 N457 1.343 . S
C461 C462 1.390 . S
C462 H440 0.930 . S
C462 C459 1.339 . S
C462 C461 1.390 . S
O463 Gd431 2.386 . S
O463 C475 1.265 . S
O464 Gd430 2.353 . S
O464 C475 1.242 . S
O465 Gd430 2.468 . S
O465 C483 1.263 . S
O466 Gd430 2.427 . S
O466 C483 1.252 . S
O467 Gd431 2.307 . S
O467 C476 1.261 . S
O468 Gd430 2.388 . S
O468 C476 1.252 . S
O469 Gd430 2.386 . S
O469 C487 1.265 . S
O470 Gd431 2.353 . S
O470 C487 1.242 . S
O471 Gd431 2.468 1_556 S
O471 C495 1.263 . S
O472 Gd431 2.427 1_556 S
O472 C495 1.252 . S
O473 Gd430 2.307 . S
O473 C488 1.261 . S
O474 Gd431 2.388 . S
O474 C488 1.252 . S
C475 O463 1.265 . S
C475 O464 1.242 . S
C476 O467 1.261 . S
C476 O468 1.252 . S
C477 C480 1.394 . S
C477 C482 1.370 . S
C477 C483 1.500 . S
C478 C481 1.383 . S
C478 C482 1.395 . S
C479 C480 1.396 . S
C479 C481 1.365 . S
C479 H496 0.929 . S
C480 C477 1.394 . S
C480 C479 1.396 . S
C480 H497 0.930 . S
C481 C478 1.383 . S
C481 C479 1.365 . S
C481 H498 0.931 . S
C482 C477 1.370 . S
C482 C478 1.395 . S
C482 H499 0.930 . S
C483 Gd430 2.805 . S
C483 O465 1.263 . S
C483 O466 1.252 . S
C483 C477 1.500 . S
C484 H446 0.930 . S
C484 C460 1.417 1_455 S
C484 C485 1.329 . S
C485 C455 1.437 1_455 S
C485 H456 0.929 . S
C485 C484 1.329 . S
H486 C459 0.909 1_455 S
C487 O469 1.265 . S
C487 O470 1.242 . S
C488 O473 1.261 . S
C488 O474 1.252 . S
C489 C492 1.394 . S
C489 C494 1.370 . S
C489 C495 1.500 . S
C490 C493 1.383 . S
C490 C494 1.395 . S
C491 C492 1.396 . S
C491 C493 1.365 . S
C491 H500 0.929 . S
C492 C489 1.394 . S
C492 C491 1.396 . S
C492 H501 0.930 . S
C493 C490 1.383 . S
C493 C491 1.365 . S
C493 H502 0.931 . S
C494 C489 1.370 . S
C494 C490 1.395 . S
C494 H503 0.930 . S
C495 Gd431 2.805 1_556 S
C495 O471 1.263 . S
C495 O472 1.252 . S
C495 C489 1.500 . S
H496 C479 0.929 . S
H497 C480 0.930 . S
H498 C481 0.931 . S
H499 C482 0.930 . S
H500 C491 0.929 . S
H501 C492 0.930 . S
H502 C493 0.931 . S
H503 C494 0.930 . S
C504 C506 1.422 . S
C504 C508 1.415 . S
C504 N510 1.369 . S
C505 C506 1.421 . S
C505 C507 1.417 . S
C505 C517 1.422 . S
C506 C504 1.422 . S
C506 C505 1.421 . S
C506 N516 1.359 . S
C507 C505 1.417 . S
C507 C509 1.329 . S
C507 H526 0.930 . S
C508 C504 1.415 . S
C508 C509 1.437 . S
C508 C512 1.413 . S
C509 C507 1.329 . S
C509 C508 1.437 . S
C509 H531 0.929 . S
N510 C504 1.369 . S
N510 C511 1.338 . S
N510 Gd515 2.622 . S
C511 N510 1.338 . S
C511 C513 1.378 . S
C511 H523 0.929 . S
C512 C508 1.413 . S
C512 C513 1.348 . S
C512 H528 0.931 . S
C513 C511 1.378 . S
C513 C512 1.348 . S
C513 H529 0.930 . S
Gd514 N534 2.622 . S
Gd514 N541 2.570 . S
Gd514 O548 2.353 . S
Gd514 O549 2.468 . S
Gd514 O550 2.427 . S
Gd514 O552 2.388 . S
Gd514 O553 2.386 . S
Gd514 O557 2.307 . S
Gd514 C567 2.805 . S
Gd515 N510 2.622 . S
Gd515 N516 2.570 . S
Gd515 O547 2.386 . S
Gd515 O551 2.307 . S
Gd515 O554 2.353 . S
Gd515 O555 2.468 . S
Gd515 O556 2.427 . S
Gd515 O558 2.388 . S
Gd515 C579 2.805 . S
N516 C506 1.359 . S
N516 Gd515 2.570 . S
N516 C518 1.343 . S
C517 C505 1.422 . S
C517 C519 1.321 . S
C517 H525 0.931 . S
C518 N516 1.343 . S
C518 C519 1.390 . S
C518 H520 0.931 . S
C519 C517 1.321 . S
C519 C518 1.390 . S
C519 H521 0.930 . S
H520 C518 0.931 . S
H521 C519 0.930 . S
H522 C545 0.931 . S
H523 C511 0.929 . S
H524 C546 0.930 . S
H525 C517 0.931 . S
H526 C507 0.930 . S
H527 C536 0.929 . S
H528 C512 0.931 . S
H529 C513 0.930 . S
H530 C568 0.930 . S
H531 C509 0.929 . S
H532 C537 0.931 . S
H533 C538 0.930 . S
N534 Gd514 2.622 . S
N534 C535 1.369 . S
N534 C536 1.338 . S
C535 N534 1.369 . S
C535 C539 1.415 . S
C535 C542 1.422 . S
C536 H527 0.929 . S
C536 N534 1.338 . S
C536 C538 1.378 . S
C537 H532 0.931 . S
C537 C538 1.348 . S
C537 C539 1.413 . S
C538 H533 0.930 . S
C538 C536 1.378 . S
C538 C537 1.348 . S
C539 C535 1.415 . S
C539 C537 1.413 . S
C539 C569 1.437 . S
H540 C569 0.929 . S
N541 Gd514 2.570 . S
N541 C542 1.359 . S
N541 C545 1.343 . S
C542 C535 1.422 . S
C542 N541 1.359 . S
C542 C544 1.421 . S
C543 C544 1.422 . S
C543 C546 1.321 . S
C543 H570 0.931 . S
C544 C542 1.421 . S
C544 C543 1.422 . S
C544 C568 1.417 . S
C545 H522 0.931 . S
C545 N541 1.343 . S
C545 C546 1.390 . S
C546 H524 0.930 . S
C546 C543 1.321 . S
C546 C545 1.390 . S
O547 Gd515 2.386 . S
O547 C559 1.265 . S
O548 Gd514 2.353 . S
O548 C559 1.242 . S
O549 Gd514 2.468 . S
O549 C567 1.263 . S
O550 Gd514 2.427 . S
O550 C567 1.252 . S
O551 Gd515 2.307 . S
O551 C560 1.261 . S
O552 Gd514 2.388 . S
O552 C560 1.252 . S
O553 Gd514 2.386 . S
O553 C571 1.265 . S
O554 Gd515 2.353 . S
O554 C571 1.242 . S
O555 Gd515 2.468 . S
O555 C579 1.263 . S
O556 Gd515 2.427 . S
O556 C579 1.252 . S
O557 Gd514 2.307 . S
O557 C572 1.261 . S
O558 Gd515 2.388 . S
O558 C572 1.252 . S
C559 O547 1.265 . S
C559 O548 1.242 . S
C560 O551 1.261 . S
C560 O552 1.252 . S
C561 C564 1.394 . S
C561 C566 1.370 . S
C561 C567 1.500 . S
C562 C565 1.383 . S
C562 C566 1.395 . S
C563 C564 1.396 . S
C563 C565 1.365 . S
C563 H580 0.929 . S
C564 C561 1.394 . S
C564 C563 1.396 . S
C564 H581 0.930 . S
C565 C562 1.383 . S
C565 C563 1.365 . S
C565 H582 0.931 . S
C566 C561 1.370 . S
C566 C562 1.395 . S
C566 H583 0.930 . S
C567 Gd514 2.805 . S
C567 O549 1.263 . S
C567 O550 1.252 . S
C567 C561 1.500 . S
C568 H530 0.930 . S
C568 C544 1.417 . S
C568 C569 1.329 . S
C569 C539 1.437 . S
C569 H540 0.929 . S
C569 C568 1.329 . S
H570 C543 0.931 . S
C571 O553 1.265 . S
C571 O554 1.242 . S
C572 O557 1.261 . S
C572 O558 1.252 . S
C573 C576 1.394 . S
C573 C578 1.370 . S
C573 C579 1.500 . S
C574 C577 1.383 . S
C574 C578 1.395 1_556 S
C575 C576 1.410 . S
C575 C577 1.358 1_554 S
C575 H584 0.923 1_554 S
C576 C573 1.394 . S
C576 C575 1.410 . S
C576 H585 0.930 . S
C577 C574 1.383 . S
C577 C575 1.358 1_556 S
C577 H586 0.931 . S
C578 C573 1.370 . S
C578 C574 1.395 1_554 S
C578 H587 0.930 . S
C579 Gd515 2.805 . S
C579 O555 1.263 . S
C579 O556 1.252 . S
C579 C573 1.500 . S
H580 C563 0.929 . S
H581 C564 0.930 . S
H582 C565 0.931 . S
H583 C566 0.930 . S
H584 C575 0.923 1_556 S
H585 C576 0.930 . S
H586 C577 0.931 . S
H587 C578 0.930 . S
C588 C590 1.422 . S
C588 C592 1.415 . S
C588 N594 1.369 . S
C589 C590 1.421 1_565 S
C589 C591 1.417 . S
C589 C601 1.422 . S
C590 C588 1.422 . S
C590 C589 1.421 1_545 S
C590 N600 1.359 . S
C591 C589 1.417 . S
C591 C593 1.329 . S
C591 H610 0.930 . S
C592 C588 1.415 . S
C592 C593 1.437 1_545 S
C592 C596 1.413 . S
C593 C591 1.329 . S
C593 C592 1.437 1_565 S
C593 H615 0.929 . S
N594 C588 1.369 . S
N594 C595 1.338 . S
N594 Gd599 2.622 . S
C595 N594 1.338 . S
C595 C597 1.378 . S
C595 H607 0.929 . S
C596 C592 1.413 . S
C596 C597 1.348 . S
C596 H612 0.931 1_545 S
C597 C595 1.378 . S
C597 C596 1.348 . S
C597 H613 0.930 . S
Gd598 N618 2.622 . S
Gd598 N625 2.570 . S
Gd598 O632 2.353 . S
Gd598 O633 2.468 . S
Gd598 O634 2.427 . S
Gd598 O636 2.388 . S
Gd598 O637 2.386 . S
Gd598 O641 2.307 . S
Gd598 C651 2.805 . S
Gd599 N594 2.622 . S
Gd599 N600 2.570 . S
Gd599 O631 2.386 . S
Gd599 O635 2.307 . S
Gd599 O638 2.353 . S
Gd599 O639 2.468 . S
Gd599 O640 2.427 . S
Gd599 O642 2.388 . S
Gd599 C663 2.805 . S
N600 C590 1.359 . S
N600 Gd599 2.570 . S
N600 C602 1.343 . S
C601 C589 1.422 . S
C601 C603 1.321 1_565 S
C601 H609 0.931 . S
C602 N600 1.343 . S
C602 C603 1.390 . S
C602 H604 0.931 . S
C603 C601 1.321 1_545 S
C603 C602 1.390 . S
C603 H605 0.930 . S
H604 C602 0.931 . S
H605 C603 0.930 . S
H606 C629 0.931 . S
H607 C595 0.929 . S
H608 C630 0.930 . S
H609 C601 0.931 . S
H610 C591 0.930 . S
H611 C620 0.929 . S
H612 C596 0.931 1_565 S
H613 C597 0.930 . S
H614 C652 0.930 . S
H615 C593 0.929 . S
H616 C621 0.931 . S
H617 C622 0.930 . S
N618 Gd598 2.622 . S
N618 C619 1.369 . S
N618 C620 1.338 . S
C619 N618 1.369 . S
C619 C623 1.415 . S
C619 C626 1.422 . S
C620 H611 0.929 . S
C620 N618 1.338 . S
C620 C622 1.378 . S
C621 H616 0.931 . S
C621 C622 1.348 . S
C621 C623 1.413 . S
C622 H617 0.930 . S
C622 C620 1.378 . S
C622 C621 1.348 . S
C623 C619 1.415 . S
C623 C621 1.413 . S
C623 C653 1.437 . S
H624 C653 0.929 . S
N625 Gd598 2.570 . S
N625 C626 1.359 . S
N625 C629 1.343 . S
C626 C619 1.422 . S
C626 N625 1.359 . S
C626 C628 1.421 . S
C627 C628 1.422 . S
C627 C630 1.321 . S
C627 H654 0.931 . S
C628 C626 1.421 . S
C628 C627 1.422 . S
C628 C652 1.417 . S
C629 H606 0.931 . S
C629 N625 1.343 . S
C629 C630 1.390 . S
C630 H608 0.930 . S
C630 C627 1.321 . S
C630 C629 1.390 . S
O631 Gd599 2.386 . S
O631 C643 1.265 . S
O632 Gd598 2.353 . S
O632 C643 1.242 . S
O633 Gd598 2.468 . S
O633 C651 1.263 . S
O634 Gd598 2.427 . S
O634 C651 1.252 . S
O635 Gd599 2.307 . S
O635 C644 1.261 . S
O636 Gd598 2.388 . S
O636 C644 1.252 . S
O637 Gd598 2.386 . S
O637 C655 1.265 . S
O638 Gd599 2.353 . S
O638 C655 1.242 . S
O639 Gd599 2.468 . S
O639 C663 1.263 . S
O640 Gd599 2.427 . S
O640 C663 1.252 . S
O641 Gd598 2.307 . S
O641 C656 1.261 . S
O642 Gd599 2.388 . S
O642 C656 1.252 . S
C643 O631 1.265 . S
C643 O632 1.242 . S
C644 O635 1.261 . S
C644 O636 1.252 . S
C645 C648 1.394 . S
C645 C650 1.370 . S
C645 C651 1.500 . S
C646 C649 1.383 . S
C646 C650 1.395 . S
C647 C648 1.396 . S
C647 C649 1.365 . S
C647 H664 0.929 . S
C648 C645 1.394 . S
C648 C647 1.396 . S
C648 H665 0.930 . S
C649 C646 1.383 . S
C649 C647 1.365 . S
C649 H666 0.931 . S
C650 C645 1.370 . S
C650 C646 1.395 . S
C650 H667 0.930 . S
C651 Gd598 2.805 . S
C651 O633 1.263 . S
C651 O634 1.252 . S
C651 C645 1.500 . S
C652 H614 0.930 . S
C652 C628 1.417 . S
C652 C653 1.329 . S
C653 C623 1.437 . S
C653 H624 0.929 . S
C653 C652 1.329 . S
H654 C627 0.931 . S
C655 O637 1.265 . S
C655 O638 1.242 . S
C656 O641 1.261 . S
C656 O642 1.252 . S
C657 C660 1.394 . S
C657 C662 1.370 . S
C657 C663 1.500 . S
C658 C661 1.383 . S
C658 C662 1.395 1_554 S
C659 C660 1.394 . S
C659 C661 1.366 1_556 S
C659 H668 0.930 1_556 S
C660 C657 1.394 . S
C660 C659 1.394 . S
C660 H669 0.930 . S
C661 C658 1.383 . S
C661 C659 1.366 1_554 S
C661 H670 0.931 . S
C662 C657 1.370 . S
C662 C658 1.395 1_556 S
C662 H671 0.930 . S
C663 Gd599 2.805 . S
C663 O639 1.263 . S
C663 O640 1.252 . S
C663 C657 1.500 . S
H664 C647 0.929 . S
H665 C648 0.930 . S
H666 C649 0.931 . S
H667 C650 0.930 . S
H668 C659 0.930 1_554 S
H669 C660 0.930 . S
H670 C661 0.931 . S
H671 C662 0.930 . S
C672 C674 1.422 . S
C672 C676 1.415 . S
C672 N678 1.369 . S
C673 C674 1.421 . S
C673 C675 1.417 1_655 S
C673 C685 1.422 . S
C674 C672 1.422 . S
C674 C673 1.421 . S
C674 N684 1.359 . S
C675 C673 1.417 1_455 S
C675 C677 1.329 . S
C675 H694 0.930 . S
C676 C672 1.415 . S
C676 C677 1.437 1_655 S
C676 C680 1.413 . S
C677 C675 1.329 . S
C677 C676 1.437 1_455 S
C677 H699 0.929 . S
N678 C672 1.369 . S
N678 C679 1.338 . S
N678 Gd683 2.622 . S
C679 N678 1.338 . S
C679 C681 1.378 . S
C679 H691 0.929 . S
C680 C676 1.413 . S
C680 C681 1.348 . S
C680 H696 0.931 . S
C681 C679 1.378 . S
C681 C680 1.348 . S
C681 H697 0.930 . S
Gd682 N702 2.622 . S
Gd682 N709 2.570 1_556 S
Gd682 O716 2.353 . S
Gd682 O717 2.468 1_556 S
Gd682 O718 2.427 1_556 S
Gd682 O720 2.388 . S
Gd682 O721 2.386 . S
Gd682 O725 2.307 . S
Gd682 C735 2.805 1_556 S
Gd683 N678 2.622 . S
Gd683 N684 2.570 . S
Gd683 O715 2.386 . S
Gd683 O719 2.307 . S
Gd683 O722 2.353 . S
Gd683 O723 2.468 . S
Gd683 O724 2.427 . S
Gd683 O726 2.388 . S
Gd683 C747 2.805 . S
N684 C674 1.359 . S
N684 Gd683 2.570 . S
N684 C686 1.343 . S
C685 C673 1.422 . S
C685 C687 1.321 . S
C685 H693 0.931 1_655 S
C686 N684 1.343 . S
C686 C687 1.390 . S
C686 H688 0.931 . S
C687 C685 1.321 . S
C687 C686 1.390 . S
C687 H689 0.930 . S
H688 C686 0.931 . S
H689 C687 0.930 . S
H690 C713 0.931 . S
H691 C679 0.929 . S
H692 C714 0.930 . S
H693 C685 0.931 1_455 S
H694 C675 0.930 . S
H695 C704 0.929 . S
H696 C680 0.931 . S
H697 C681 0.930 . S
H698 C736 0.930 . S
H699 C677 0.929 . S
H700 C705 0.931 . S
H701 C706 0.930 . S
N702 Gd682 2.622 . S
N702 C703 1.369 1_556 S
N702 C704 1.338 . S
C703 N702 1.369 1_554 S
C703 C707 1.415 . S
C703 C710 1.422 . S
C704 H695 0.929 . S
C704 N702 1.338 . S
C704 C706 1.378 . S
C705 H700 0.931 . S
C705 C706 1.348 . S
C705 C707 1.413 1_556 S
C706 H701 0.930 . S
C706 C704 1.378 . S
C706 C705 1.348 . S
C707 C703 1.415 . S
C707 C705 1.413 1_554 S
C707 C737 1.437 . S
H708 C737 0.929 . S
N709 Gd682 2.570 1_554 S
N709 C710 1.359 . S
N709 C713 1.343 . S
C710 C703 1.422 . S
C710 N709 1.359 . S
C710 C712 1.421 . S
C711 C712 1.422 . S
C711 C714 1.321 . S
C711 H738 0.931 . S
C712 C710 1.421 . S
C712 C711 1.422 . S
C712 C736 1.417 . S
C713 H690 0.931 . S
C713 N709 1.343 . S
C713 C714 1.390 . S
C714 H692 0.930 . S
C714 C711 1.321 . S
C714 C713 1.390 . S
O715 Gd683 2.386 . S
O715 C727 1.265 . S
O716 Gd682 2.353 . S
O716 C727 1.242 . S
O717 Gd682 2.468 1_554 S
O717 C735 1.263 . S
O718 Gd682 2.427 1_554 S
O718 C735 1.252 . S
O719 Gd683 2.307 . S
O719 C728 1.261 . S
O720 Gd682 2.388 . S
O720 C728 1.252 . S
O721 Gd682 2.386 . S
O721 C739 1.265 . S
O722 Gd683 2.353 . S
O722 C739 1.242 . S
O723 Gd683 2.468 . S
O723 C747 1.263 . S
O724 Gd683 2.427 . S
O724 C747 1.252 . S
O725 Gd682 2.307 . S
O725 C740 1.261 . S
O726 Gd683 2.388 . S
O726 C740 1.252 . S
C727 O715 1.265 . S
C727 O716 1.242 . S
C728 O719 1.261 . S
C728 O720 1.252 . S
C729 C732 1.394 . S
C729 C734 1.370 . S
C729 C735 1.500 . S
C730 C733 1.383 . S
C730 C734 1.395 . S
C731 C732 1.396 . S
C731 C733 1.365 . S
C731 H748 0.929 . S
C732 C729 1.394 . S
C732 C731 1.396 . S
C732 H749 0.930 . S
C733 C730 1.383 . S
C733 C731 1.365 . S
C733 H750 0.931 . S
C734 C729 1.370 . S
C734 C730 1.395 . S
C734 H751 0.930 . S
C735 Gd682 2.805 1_554 S
C735 O717 1.263 . S
C735 O718 1.252 . S
C735 C729 1.500 . S
C736 H698 0.930 . S
C736 C712 1.417 . S
C736 C737 1.329 . S
C737 C707 1.437 . S
C737 H708 0.929 . S
C737 C736 1.329 . S
H738 C711 0.931 . S
C739 O721 1.265 . S
C739 O722 1.242 . S
C740 O725 1.261 . S
C740 O726 1.252 . S
C741 C744 1.394 . S
C741 C746 1.370 . S
C741 C747 1.500 . S
C742 C745 1.383 . S
C742 C746 1.395 . S
C743 C744 1.396 . S
C743 C745 1.365 . S
C743 H752 0.929 . S
C744 C741 1.394 . S
C744 C743 1.396 . S
C744 H753 0.930 . S
C745 C742 1.383 . S
C745 C743 1.365 . S
C745 H754 0.931 . S
C746 C741 1.370 . S
C746 C742 1.395 . S
C746 H755 0.930 . S
C747 Gd683 2.805 . S
C747 O723 1.263 . S
C747 O724 1.252 . S
C747 C741 1.500 . S
H748 C731 0.929 . S
H749 C732 0.930 . S
H750 C733 0.931 . S
H751 C734 0.930 . S
H752 C743 0.929 . S
H753 C744 0.930 . S
H754 C745 0.931 . S
H755 C746 0.930 . S
C756 C758 1.422 . S
C756 C760 1.415 . S
C756 N762 1.369 . S
C757 C758 1.421 . S
C757 C759 1.417 . S
C757 C769 1.422 . S
C758 C756 1.422 . S
C758 C757 1.421 . S
C758 N768 1.359 . S
C759 C757 1.417 . S
C759 C761 1.329 . S
C759 H778 0.930 . S
C760 C756 1.415 . S
C760 C761 1.437 . S
C760 C764 1.413 . S
C761 C759 1.329 . S
C761 C760 1.437 . S
C761 H783 0.929 . S
N762 C756 1.369 . S
N762 C763 1.338 . S
N762 Gd767 2.622 . S
C763 N762 1.338 . S
C763 C765 1.373 1_545 S
C763 H775 0.929 . S
C764 C760 1.413 . S
C764 C765 1.346 1_545 S
C764 H780 0.931 1_545 S
C765 C763 1.373 1_565 S
C765 C764 1.346 1_565 S
C765 H781 0.937 . S
Gd766 N786 2.622 . S
Gd766 N793 2.570 . S
Gd766 O800 2.353 . S
Gd766 O801 2.468 . S
Gd766 O802 2.427 . S
Gd766 O804 2.388 . S
Gd766 O805 2.386 . S
Gd766 O809 2.307 . S
Gd766 C819 2.805 . S
Gd767 N762 2.622 . S
Gd767 N768 2.570 . S
Gd767 O799 2.386 . S
Gd767 O803 2.307 . S
Gd767 O806 2.353 . S
Gd767 O807 2.468 . S
Gd767 O808 2.427 . S
Gd767 O810 2.388 . S
Gd767 C831 2.805 . S
N768 C758 1.359 . S
N768 Gd767 2.570 . S
N768 C770 1.343 . S
C769 C757 1.422 . S
C769 C771 1.321 . S
C769 H777 0.931 . S
C770 N768 1.343 . S
C770 C771 1.390 . S
C770 H772 0.931 . S
C771 C769 1.321 . S
C771 C770 1.390 . S
C771 H773 0.930 . S
H772 C770 0.931 . S
H773 C771 0.930 . S
H774 C797 0.931 . S
H775 C763 0.929 . S
H776 C798 0.930 . S
H777 C769 0.931 . S
H778 C759 0.930 . S
H779 C788 0.929 . S
H780 C764 0.931 1_565 S
H781 C765 0.937 . S
H782 C820 0.930 . S
H783 C761 0.929 . S
H784 C789 0.931 . S
H785 C790 0.930 . S
N786 Gd766 2.622 . S
N786 C787 1.369 . S
N786 C788 1.338 . S
C787 N786 1.369 . S
C787 C791 1.415 . S
C787 C794 1.422 . S
C788 H779 0.929 . S
C788 N786 1.338 . S
C788 C790 1.378 . S
C789 H784 0.931 . S
C789 C790 1.348 . S
C789 C791 1.413 . S
C790 H785 0.930 . S
C790 C788 1.378 . S
C790 C789 1.348 . S
C791 C787 1.415 . S
C791 C789 1.413 . S
C791 C821 1.437 . S
H792 C821 0.929 . S
N793 Gd766 2.570 . S
N793 C794 1.359 . S
N793 C797 1.343 . S
C794 C787 1.422 . S
C794 N793 1.359 . S
C794 C796 1.421 . S
C795 C796 1.422 . S
C795 C798 1.321 . S
C795 H822 0.931 . S
C796 C794 1.421 . S
C796 C795 1.422 . S
C796 C820 1.417 . S
C797 H774 0.931 . S
C797 N793 1.343 . S
C797 C798 1.390 . S
C798 H776 0.930 . S
C798 C795 1.321 . S
C798 C797 1.390 . S
O799 Gd767 2.386 . S
O799 C811 1.265 . S
O800 Gd766 2.353 . S
O800 C811 1.242 . S
O801 Gd766 2.468 . S
O801 C819 1.263 . S
O802 Gd766 2.427 . S
O802 C819 1.252 . S
O803 Gd767 2.307 . S
O803 C812 1.261 . S
O804 Gd766 2.388 . S
O804 C812 1.252 . S
O805 Gd766 2.386 . S
O805 C823 1.265 . S
O806 Gd767 2.353 . S
O806 C823 1.242 . S
O807 Gd767 2.468 . S
O807 C831 1.263 . S
O808 Gd767 2.427 . S
O808 C831 1.252 . S
O809 Gd766 2.307 . S
O809 C824 1.261 . S
O810 Gd767 2.388 . S
O810 C824 1.252 . S
C811 O799 1.265 . S
C811 O800 1.242 . S
C812 O803 1.261 . S
C812 O804 1.252 . S
C813 C816 1.394 . S
C813 C818 1.370 . S
C813 C819 1.500 . S
C814 C817 1.383 . S
C814 C818 1.395 . S
C815 C816 1.396 . S
C815 C817 1.365 . S
C815 H832 0.929 . S
C816 C813 1.394 . S
C816 C815 1.396 . S
C816 H833 0.930 . S
C817 C814 1.383 . S
C817 C815 1.365 . S
C817 H834 0.931 . S
C818 C813 1.370 . S
C818 C814 1.395 . S
C818 H835 0.930 . S
C819 Gd766 2.805 . S
C819 O801 1.263 . S
C819 O802 1.252 . S
C819 C813 1.500 . S
C820 H782 0.930 . S
C820 C796 1.417 . S
C820 C821 1.329 . S
C821 C791 1.437 . S
C821 H792 0.929 . S
C821 C820 1.329 . S
H822 C795 0.931 . S
C823 O805 1.265 . S
C823 O806 1.242 . S
C824 O809 1.261 . S
C824 O810 1.252 . S
C825 C828 1.394 . S
C825 C830 1.370 . S
C825 C831 1.500 . S
C826 C829 1.383 . S
C826 C830 1.395 1_554 S
C827 C828 1.396 . S
C827 C829 1.365 1_556 S
C827 H836 0.929 1_556 S
C828 C825 1.394 . S
C828 C827 1.396 . S
C828 H837 0.930 . S
C829 C826 1.383 . S
C829 C827 1.365 1_554 S
C829 H838 0.931 . S
C830 C825 1.370 . S
C830 C826 1.395 1_556 S
C830 H839 0.930 . S
C831 Gd767 2.805 . S
C831 O807 1.263 . S
C831 O808 1.252 . S
C831 C825 1.500 . S
H832 C815 0.929 . S
H833 C816 0.930 . S
H834 C817 0.931 . S
H835 C818 0.930 . S
H836 C827 0.929 1_554 S
H837 C828 0.930 . S
H838 C829 0.931 . S
H839 C830 0.930 . S
C840 C842 1.422 . S
C840 C844 1.415 . S
C840 N846 1.369 . S
C841 C842 1.421 . S
C841 C843 1.417 . S
C841 C853 1.422 . S
C842 C840 1.422 . S
C842 C841 1.421 . S
C842 N852 1.359 . S
C843 C841 1.417 . S
C843 C845 1.329 . S
C843 H862 0.930 . S
C844 C840 1.415 . S
C844 C845 1.437 . S
C844 C848 1.413 . S
C845 C843 1.329 . S
C845 C844 1.437 . S
C845 H867 0.929 . S
N846 C840 1.369 . S
N846 C847 1.338 . S
N846 Gd851 2.622 . S
C847 N846 1.338 . S
C847 C849 1.378 . S
C847 H859 0.929 . S
C848 C844 1.413 . S
C848 C849 1.348 . S
C848 H864 0.931 . S
C849 C847 1.378 . S
C849 C848 1.348 . S
C849 H865 0.930 . S
Gd850 N870 2.622 . S
Gd850 N877 2.570 . S
Gd850 O884 2.353 . S
Gd850 O885 2.468 . S
Gd850 O886 2.427 . S
Gd850 O888 2.388 . S
Gd850 O889 2.386 . S
Gd850 O893 2.307 . S
Gd850 C903 2.805 . S
Gd851 N846 2.622 . S
Gd851 N852 2.570 . S
Gd851 O883 2.386 . S
Gd851 O887 2.307 . S
Gd851 O890 2.353 . S
Gd851 O891 2.468 . S
Gd851 O892 2.427 . S
Gd851 O894 2.388 . S
Gd851 C915 2.805 . S
N852 C842 1.359 . S
N852 Gd851 2.570 . S
N852 C854 1.343 . S
C853 C841 1.422 . S
C853 C855 1.321 . S
C853 H861 0.931 . S
C854 N852 1.343 . S
C854 C855 1.390 . S
C854 H856 0.931 . S
C855 C853 1.321 . S
C855 C854 1.390 . S
C855 H857 0.930 . S
H856 C854 0.931 . S
H857 C855 0.930 . S
H858 C881 0.931 . S
H859 C847 0.929 . S
H860 C882 0.930 . S
H861 C853 0.931 . S
H862 C843 0.930 . S
H863 C872 0.929 . S
H864 C848 0.931 . S
H865 C849 0.930 . S
H866 C904 0.930 . S
H867 C845 0.929 . S
H868 C873 0.931 . S
H869 C874 0.930 . S
N870 Gd850 2.622 . S
N870 C871 1.369 . S
N870 C872 1.338 . S
C871 N870 1.369 . S
C871 C875 1.415 . S
C871 C878 1.422 . S
C872 H863 0.929 . S
C872 N870 1.338 . S
C872 C874 1.378 . S
C873 H868 0.931 . S
C873 C874 1.348 . S
C873 C875 1.413 . S
C874 H869 0.930 . S
C874 C872 1.378 . S
C874 C873 1.348 . S
C875 C871 1.415 . S
C875 C873 1.413 . S
C875 C905 1.437 . S
H876 C905 0.929 . S
N877 Gd850 2.570 . S
N877 C878 1.359 . S
N877 C881 1.343 . S
C878 C871 1.422 . S
C878 N877 1.359 . S
C878 C880 1.421 . S
C879 C880 1.422 . S
C879 C882 1.321 . S
C879 H906 0.931 . S
C880 C878 1.421 . S
C880 C879 1.422 . S
C880 C904 1.417 . S
C881 H858 0.931 . S
C881 N877 1.343 . S
C881 C882 1.390 . S
C882 H860 0.930 . S
C882 C879 1.321 . S
C882 C881 1.390 . S
O883 Gd851 2.386 . S
O883 C895 1.265 . S
O884 Gd850 2.353 . S
O884 C895 1.242 . S
O885 Gd850 2.468 . S
O885 C903 1.263 . S
O886 Gd850 2.427 . S
O886 C903 1.252 . S
O887 Gd851 2.307 . S
O887 C896 1.261 . S
O888 Gd850 2.388 . S
O888 C896 1.252 . S
O889 Gd850 2.386 . S
O889 C907 1.265 . S
O890 Gd851 2.353 . S
O890 C907 1.242 . S
O891 Gd851 2.468 . S
O891 C915 1.263 . S
O892 Gd851 2.427 . S
O892 C915 1.252 . S
O893 Gd850 2.307 . S
O893 C908 1.261 . S
O894 Gd851 2.388 . S
O894 C908 1.252 . S
C895 O883 1.265 . S
C895 O884 1.242 . S
C896 O887 1.261 . S
C896 O888 1.252 . S
C897 C900 1.394 . S
C897 C902 1.370 . S
C897 C903 1.500 . S
C898 C901 1.383 . S
C898 C902 1.395 . S
C899 C900 1.396 . S
C899 C901 1.365 . S
C899 H916 0.929 . S
C900 C897 1.394 . S
C900 C899 1.396 . S
C900 H917 0.930 . S
C901 C898 1.383 . S
C901 C899 1.365 . S
C901 H918 0.931 . S
C902 C897 1.370 . S
C902 C898 1.395 . S
C902 H919 0.930 . S
C903 Gd850 2.805 . S
C903 O885 1.263 . S
C903 O886 1.252 . S
C903 C897 1.500 . S
C904 H866 0.930 . S
C904 C880 1.417 . S
C904 C905 1.329 . S
C905 C875 1.437 . S
C905 H876 0.929 . S
C905 C904 1.329 . S
H906 C879 0.931 . S
C907 O889 1.265 . S
C907 O890 1.242 . S
C908 O893 1.261 . S
C908 O894 1.252 . S
C909 C912 1.394 . S
C909 C914 1.370 . S
C909 C915 1.500 . S
C910 C913 1.383 . S
C910 C914 1.395 1_556 S
C911 C912 1.396 . S
C911 C913 1.365 1_554 S
C911 H920 0.929 1_554 S
C912 C909 1.394 . S
C912 C911 1.396 . S
C912 H921 0.930 . S
C913 C910 1.383 . S
C913 C911 1.365 1_556 S
C913 H922 0.931 . S
C914 C909 1.370 . S
C914 C910 1.395 1_554 S
C914 H923 0.930 . S
C915 Gd851 2.805 . S
C915 O891 1.263 . S
C915 O892 1.252 . S
C915 C909 1.500 . S
H916 C899 0.929 . S
H917 C900 0.930 . S
H918 C901 0.931 . S
H919 C902 0.930 . S
H920 C911 0.929 1_556 S
H921 C912 0.930 . S
H922 C913 0.931 . S
H923 C914 0.930 . S
C924 C926 1.422 . S
C924 C928 1.415 . S
C924 N930 1.369 1_556 S
C925 C926 1.421 . S
C925 C927 1.417 . S
C925 C937 1.422 . S
C926 C924 1.422 . S
C926 C925 1.421 . S
C926 N936 1.359 . S
C927 C925 1.417 . S
C927 C929 1.329 . S
C927 H946 0.930 . S
C928 C924 1.415 . S
C928 C929 1.437 . S
C928 C932 1.413 1_556 S
C929 C927 1.329 . S
C929 C928 1.437 . S
C929 H951 0.929 . S
N930 C924 1.369 1_554 S
N930 C931 1.338 . S
N930 Gd935 2.622 . S
C931 N930 1.338 . S
C931 C933 1.378 . S
C931 H943 0.929 . S
C932 C928 1.413 1_554 S
C932 C933 1.348 . S
C932 H948 0.931 . S
C933 C931 1.378 . S
C933 C932 1.348 . S
C933 H949 0.930 . S
Gd934 N954 2.622 . S
Gd934 N961 2.570 . S
Gd934 O968 2.353 . S
Gd934 O969 2.468 . S
Gd934 O970 2.427 . S
Gd934 O972 2.388 . S
Gd934 O973 2.386 . S
Gd934 O977 2.307 . S
Gd934 C987 2.805 . S
Gd935 N930 2.622 . S
Gd935 N936 2.570 1_554 S
Gd935 O967 2.386 . S
Gd935 O971 2.307 . S
Gd935 O974 2.353 . S
Gd935 O975 2.468 1_554 S
Gd935 O976 2.427 1_554 S
Gd935 O978 2.388 . S
Gd935 C999 2.805 1_554 S
N936 C926 1.359 . S
N936 Gd935 2.570 1_556 S
N936 C938 1.343 . S
C937 C925 1.422 . S
C937 C939 1.321 . S
C937 H945 0.931 . S
C938 N936 1.343 . S
C938 C939 1.390 . S
C938 H940 0.931 . S
C939 C937 1.321 . S
C939 C938 1.390 . S
C939 H941 0.930 . S
H940 C938 0.931 . S
H941 C939 0.930 . S
H942 C965 0.931 . S
H943 C931 0.929 . S
H944 C966 0.930 . S
H945 C937 0.931 . S
H946 C927 0.930 . S
H947 C956 0.929 . S
H948 C932 0.931 . S
H949 C933 0.930 . S
H950 C988 0.930 . S
H951 C929 0.929 . S
H952 C957 0.931 1_545 S
H953 C958 0.930 1_655 S
N954 Gd934 2.622 . S
N954 C955 1.369 . S
N954 C956 1.338 . S
C955 N954 1.369 . S
C955 C959 1.415 . S
C955 C962 1.422 . S
C956 H947 0.929 . S
C956 N954 1.338 . S
C956 C958 1.378 . S
C957 H952 0.931 1_565 S
C957 C958 1.348 . S
C957 C959 1.413 . S
C958 H953 0.930 1_455 S
C958 C956 1.378 . S
C958 C957 1.348 . S
C959 C955 1.415 . S
C959 C957 1.413 . S
C959 C989 1.437 1_565 S
H960 C989 0.929 . S
N961 Gd934 2.570 . S
N961 C962 1.359 . S
N961 C965 1.343 . S
C962 C955 1.422 . S
C962 N961 1.359 . S
C962 C964 1.421 1_565 S
C963 C964 1.422 . S
C963 C966 1.321 1_545 S
C963 H990 0.931 . S
C964 C962 1.421 1_545 S
C964 C963 1.422 . S
C964 C988 1.417 . S
C965 H942 0.931 . S
C965 N961 1.343 . S
C965 C966 1.390 . S
C966 H944 0.930 . S
C966 C963 1.321 1_565 S
C966 C965 1.390 . S
O967 Gd935 2.386 . S
O967 C979 1.265 . S
O968 Gd934 2.353 . S
O968 C979 1.242 . S
O969 Gd934 2.468 . S
O969 C987 1.263 . S
O970 Gd934 2.427 . S
O970 C987 1.252 . S
O971 Gd935 2.307 . S
O971 C980 1.261 . S
O972 Gd934 2.388 . S
O972 C980 1.252 . S
O973 Gd934 2.386 . S
O973 C991 1.265 . S
O974 Gd935 2.353 . S
O974 C991 1.242 . S
O975 Gd935 2.468 1_556 S
O975 C999 1.263 . S
O976 Gd935 2.427 1_556 S
O976 C999 1.252 . S
O977 Gd934 2.307 . S
O977 C992 1.261 . S
O978 Gd935 2.388 . S
O978 C992 1.252 . S
C979 O967 1.265 . S
C979 O968 1.242 . S
C980 O971 1.261 . S
C980 O972 1.252 . S
C981 C984 1.394 . S
C981 C986 1.370 . S
C981 C987 1.500 . S
C982 C985 1.383 . S
C982 C986 1.395 . S
C983 C984 1.396 . S
C983 C985 1.365 . S
C983 H1000 0.929 . S
C984 C981 1.394 . S
C984 C983 1.396 . S
C984 H1001 0.930 . S
C985 C982 1.383 . S
C985 C983 1.365 . S
C985 H1002 0.931 . S
C986 C981 1.370 . S
C986 C982 1.395 . S
C986 H1003 0.930 . S
C987 Gd934 2.805 . S
C987 O969 1.263 . S
C987 O970 1.252 . S
C987 C981 1.500 . S
C988 H950 0.930 . S
C988 C964 1.417 . S
C988 C989 1.329 . S
C989 C959 1.437 1_545 S
C989 H960 0.929 . S
C989 C988 1.329 . S
H990 C963 0.931 . S
C991 O973 1.265 . S
C991 O974 1.242 . S
C992 O977 1.261 . S
C992 O978 1.252 . S
C993 C996 1.394 . S
C993 C998 1.370 . S
C993 C999 1.500 . S
C994 C997 1.383 . S
C994 C998 1.395 . S
C995 C996 1.396 . S
C995 C997 1.365 . S
C995 H1004 0.929 . S
C996 C993 1.394 . S
C996 C995 1.396 . S
C996 H1005 0.930 . S
C997 C994 1.383 . S
C997 C995 1.365 . S
C997 H1006 0.931 . S
C998 C993 1.370 . S
C998 C994 1.395 . S
C998 H1007 0.930 . S
C999 Gd935 2.805 1_556 S
C999 O975 1.263 . S
C999 O976 1.252 . S
C999 C993 1.500 . S
H1000 C983 0.929 . S
H1001 C984 0.930 . S
H1002 C985 0.931 . S
H1003 C986 0.930 . S
H1004 C995 0.929 . S
H1005 C996 0.930 . S
H1006 C997 0.931 . S
H1007 C998 0.930 . S
C1008 C1010 1.422 . S
C1008 C1012 1.415 . S
C1008 N1014 1.369 . S
C1009 C1010 1.421 . S
C1009 C1011 1.417 1_655 S
C1009 C1021 1.427 . S
C1010 C1008 1.422 . S
C1010 C1009 1.421 . S
C1010 N1020 1.359 . S
C1011 C1009 1.417 1_455 S
C1011 C1013 1.329 . S
C1011 H1030 0.930 . S
C1012 C1008 1.415 . S
C1012 C1013 1.437 1_655 S
C1012 C1016 1.413 . S
C1013 C1011 1.329 . S
C1013 C1012 1.437 1_455 S
C1013 H1035 0.929 . S
N1014 C1008 1.369 . S
N1014 C1015 1.338 . S
N1014 Gd1019 2.622 . S
C1015 N1014 1.338 . S
C1015 C1017 1.378 . S
C1015 H1027 0.929 . S
C1016 C1012 1.413 . S
C1016 C1017 1.348 . S
C1016 H1032 0.931 . S
C1017 C1015 1.378 . S
C1017 C1016 1.348 . S
C1017 H1033 0.930 . S
Gd1018 N1038 2.622 . S
Gd1018 N1045 2.570 1_554 S
Gd1018 O1052 2.353 . S
Gd1018 O1053 2.468 1_554 S
Gd1018 O1054 2.427 1_554 S
Gd1018 O1056 2.388 . S
Gd1018 O1057 2.386 . S
Gd1018 O1061 2.307 . S
Gd1018 C1071 2.805 1_554 S
Gd1019 N1014 2.622 . S
Gd1019 N1020 2.570 . S
Gd1019 O1051 2.386 . S
Gd1019 O1055 2.307 . S
Gd1019 O1058 2.353 . S
Gd1019 O1059 2.468 . S
Gd1019 O1060 2.427 . S
Gd1019 O1062 2.388 . S
Gd1019 C1083 2.805 . S
N1020 C1010 1.359 . S
N1020 Gd1019 2.570 . S
N1020 C1022 1.343 . S
C1021 C1009 1.427 . S
C1021 C1023 1.345 . S
C1021 H1029 0.903 1_655 S
C1022 N1020 1.343 . S
C1022 C1023 1.390 . S
C1022 H1024 0.931 . S
C1023 C1021 1.345 . S
C1023 C1022 1.390 . S
C1023 H1025 0.930 . S
H1024 C1022 0.931 . S
H1025 C1023 0.930 . S
H1026 C1049 0.931 . S
H1027 C1015 0.929 . S
H1028 C1050 0.930 . S
H1029 C1021 0.903 1_455 S
H1030 C1011 0.930 . S
H1031 C1040 0.929 . S
H1032 C1016 0.931 . S
H1033 C1017 0.930 . S
H1034 C1072 0.930 . S
H1035 C1013 0.929 . S
H1036 C1041 0.932 . S
H1037 C1042 0.930 . S
N1038 Gd1018 2.622 . S
N1038 C1039 1.369 1_554 S
N1038 C1040 1.338 . S
C1039 N1038 1.369 1_556 S
C1039 C1043 1.415 . S
C1039 C1046 1.422 . S
C1040 H1031 0.929 . S
C1040 N1038 1.338 . S
C1040 C1042 1.378 . S
C1041 H1036 0.932 . S
C1041 C1042 1.348 . S
C1041 C1043 1.413 1_554 S
C1042 H1037 0.930 . S
C1042 C1040 1.378 . S
C1042 C1041 1.348 . S
C1043 C1039 1.415 . S
C1043 C1041 1.413 1_556 S
C1043 C1073 1.437 . S
H1044 C1073 0.929 . S
N1045 Gd1018 2.570 1_556 S
N1045 C1046 1.359 . S
N1045 C1049 1.343 . S
C1046 C1039 1.422 . S
C1046 N1045 1.359 . S
C1046 C1048 1.421 . S
C1047 C1048 1.422 . S
C1047 C1050 1.321 . S
C1047 H1074 0.931 . S
C1048 C1046 1.421 . S
C1048 C1047 1.422 . S
C1048 C1072 1.417 . S
C1049 H1026 0.931 . S
C1049 N1045 1.343 . S
C1049 C1050 1.390 . S
C1050 H1028 0.930 . S
C1050 C1047 1.321 . S
C1050 C1049 1.390 . S
O1051 Gd1019 2.386 . S
O1051 C1063 1.265 . S
O1052 Gd1018 2.353 . S
O1052 C1063 1.242 . S
O1053 Gd1018 2.468 1_556 S
O1053 C1071 1.263 . S
O1054 Gd1018 2.427 1_556 S
O1054 C1071 1.252 . S
O1055 Gd1019 2.307 . S
O1055 C1064 1.261 . S
O1056 Gd1018 2.388 . S
O1056 C1064 1.252 . S
O1057 Gd1018 2.386 . S
O1057 C1075 1.265 . S
O1058 Gd1019 2.353 . S
O1058 C1075 1.242 . S
O1059 Gd1019 2.468 . S
O1059 C1083 1.263 . S
O1060 Gd1019 2.427 . S
O1060 C1083 1.252 . S
O1061 Gd1018 2.307 . S
O1061 C1076 1.261 . S
O1062 Gd1019 2.388 . S
O1062 C1076 1.252 . S
C1063 O1051 1.265 . S
C1063 O1052 1.242 . S
C1064 O1055 1.261 . S
C1064 O1056 1.252 . S
C1065 C1068 1.394 . S
C1065 C1070 1.370 . S
C1065 C1071 1.500 . S
C1066 C1069 1.383 . S
C1066 C1070 1.395 . S
C1067 C1068 1.396 . S
C1067 C1069 1.365 . S
C1067 H1084 0.929 . S
C1068 C1065 1.394 . S
C1068 C1067 1.396 . S
C1068 H1085 0.930 . S
C1069 C1066 1.383 . S
C1069 C1067 1.365 . S
C1069 H1086 0.931 . S
C1070 C1065 1.370 . S
C1070 C1066 1.395 . S
C1070 H1087 0.930 . S
C1071 Gd1018 2.805 1_556 S
C1071 O1053 1.263 . S
C1071 O1054 1.252 . S
C1071 C1065 1.500 . S
C1072 H1034 0.930 . S
C1072 C1048 1.417 . S
C1072 C1073 1.329 . S
C1073 C1043 1.437 . S
C1073 H1044 0.929 . S
C1073 C1072 1.329 . S
H1074 C1047 0.931 . S
C1075 O1057 1.265 . S
C1075 O1058 1.242 . S
C1076 O1061 1.261 . S
C1076 O1062 1.252 . S
C1077 C1080 1.394 . S
C1077 C1082 1.370 . S
C1077 C1083 1.500 . S
C1078 C1081 1.383 . S
C1078 C1082 1.395 . S
C1079 C1080 1.396 . S
C1079 C1081 1.365 . S
C1079 H1088 0.929 . S
C1080 C1077 1.394 . S
C1080 C1079 1.396 . S
C1080 H1089 0.930 . S
C1081 C1078 1.383 . S
C1081 C1079 1.365 . S
C1081 H1090 0.931 . S
C1082 C1077 1.370 . S
C1082 C1078 1.395 . S
C1082 H1091 0.930 . S
C1083 Gd1019 2.805 . S
C1083 O1059 1.263 . S
C1083 O1060 1.252 . S
C1083 C1077 1.500 . S
H1084 C1067 0.929 . S
H1085 C1068 0.930 . S
H1086 C1069 0.931 . S
H1087 C1070 0.930 . S
H1088 C1079 0.929 . S
H1089 C1080 0.930 . S
H1090 C1081 0.931 . S
H1091 C1082 0.930 . S
C1092 C1094 1.422 . S
C1092 C1096 1.415 . S
C1092 N1098 1.369 . S
C1093 C1094 1.421 . S
C1093 C1095 1.417 1_455 S
C1093 C1105 1.428 . S
C1094 C1092 1.422 . S
C1094 C1093 1.421 . S
C1094 N1104 1.359 . S
C1095 C1093 1.417 1_655 S
C1095 C1097 1.329 . S
C1095 H1114 0.930 . S
C1096 C1092 1.415 . S
C1096 C1097 1.437 1_455 S
C1096 C1100 1.413 . S
C1097 C1095 1.329 . S
C1097 C1096 1.437 1_655 S
C1097 H1119 0.929 . S
N1098 C1092 1.369 . S
N1098 C1099 1.338 . S
N1098 Gd1103 2.622 . S
C1099 N1098 1.338 . S
C1099 C1101 1.378 . S
C1099 H1111 0.929 . S
C1100 C1096 1.413 . S
C1100 C1101 1.348 . S
C1100 H1116 0.931 1_545 S
C1101 C1099 1.378 . S
C1101 C1100 1.348 . S
C1101 H1117 0.930 1_545 S
Gd1102 N1122 2.622 . S
Gd1102 N1129 2.570 1_556 S
Gd1102 O1136 2.353 . S
Gd1102 O1137 2.468 1_556 S
Gd1102 O1138 2.427 1_556 S
Gd1102 O1140 2.388 . S
Gd1102 O1141 2.386 . S
Gd1102 O1145 2.307 . S
Gd1102 C1155 2.805 1_556 S
Gd1103 N1098 2.622 . S
Gd1103 N1104 2.570 . S
Gd1103 O1135 2.386 . S
Gd1103 O1139 2.307 . S
Gd1103 O1142 2.353 . S
Gd1103 O1143 2.468 . S
Gd1103 O1144 2.427 . S
Gd1103 O1146 2.388 . S
Gd1103 C1167 2.805 . S
N1104 C1094 1.359 . S
N1104 Gd1103 2.570 . S
N1104 C1106 1.343 . S
C1105 C1093 1.428 . S
C1105 C1107 1.347 . S
C1105 H1113 0.900 1_455 S
C1106 N1104 1.343 . S
C1106 C1107 1.390 . S
C1106 H1108 0.931 . S
C1107 C1105 1.347 . S
C1107 C1106 1.390 . S
C1107 H1109 0.930 . S
H1108 C1106 0.931 . S
H1109 C1107 0.930 . S
H1110 C1133 0.931 . S
H1111 C1099 0.929 . S
H1112 C1134 0.930 . S
H1113 C1105 0.900 1_655 S
H1114 C1095 0.930 . S
H1115 C1124 0.929 . S
H1116 C1100 0.931 1_565 S
H1117 C1101 0.930 1_565 S
H1118 C1156 0.930 . S
H1119 C1097 0.929 . S
H1120 C1125 0.931 . S
H1121 C1126 0.930 . S
N1122 Gd1102 2.622 . S
N1122 C1123 1.369 1_556 S
N1122 C1124 1.338 . S
C1123 N1122 1.369 1_554 S
C1123 C1127 1.415 . S
C1123 C1130 1.422 . S
C1124 H1115 0.929 . S
C1124 N1122 1.338 . S
C1124 C1126 1.378 . S
C1125 H1120 0.931 . S
C1125 C1126 1.348 . S
C1125 C1127 1.413 1_556 S
C1126 H1121 0.930 . S
C1126 C1124 1.378 . S
C1126 C1125 1.348 . S
C1127 C1123 1.415 . S
C1127 C1125 1.413 1_554 S
C1127 C1157 1.437 . S
H1128 C1157 0.929 . S
N1129 Gd1102 2.570 1_554 S
N1129 C1130 1.359 . S
N1129 C1133 1.343 . S
C1130 C1123 1.422 . S
C1130 N1129 1.359 . S
C1130 C1132 1.421 . S
C1131 C1132 1.422 . S
C1131 C1134 1.321 . S
C1131 H1158 0.931 . S
C1132 C1130 1.421 . S
C1132 C1131 1.422 . S
C1132 C1156 1.417 . S
C1133 H1110 0.931 . S
C1133 N1129 1.343 . S
C1133 C1134 1.390 . S
C1134 H1112 0.930 . S
C1134 C1131 1.321 . S
C1134 C1133 1.390 . S
O1135 Gd1103 2.386 . S
O1135 C1147 1.265 . S
O1136 Gd1102 2.353 . S
O1136 C1147 1.242 . S
O1137 Gd1102 2.468 1_554 S
O1137 C1155 1.263 . S
O1138 Gd1102 2.427 1_554 S
O1138 C1155 1.252 . S
O1139 Gd1103 2.307 . S
O1139 C1148 1.261 . S
O1140 Gd1102 2.388 . S
O1140 C1148 1.252 . S
O1141 Gd1102 2.386 . S
O1141 C1159 1.265 . S
O1142 Gd1103 2.353 . S
O1142 C1159 1.242 . S
O1143 Gd1103 2.468 . S
O1143 C1167 1.263 . S
O1144 Gd1103 2.427 . S
O1144 C1167 1.252 . S
O1145 Gd1102 2.307 . S
O1145 C1160 1.261 . S
O1146 Gd1103 2.388 . S
O1146 C1160 1.252 . S
C1147 O1135 1.265 . S
C1147 O1136 1.242 . S
C1148 O1139 1.261 . S
C1148 O1140 1.252 . S
C1149 C1152 1.394 . S
C1149 C1154 1.370 . S
C1149 C1155 1.500 . S
C1150 C1153 1.383 . S
C1150 C1154 1.395 . S
C1151 C1152 1.396 . S
C1151 C1153 1.365 . S
C1151 H1168 0.929 . S
C1152 C1149 1.394 . S
C1152 C1151 1.396 . S
C1152 H1169 0.930 . S
C1153 C1150 1.383 . S
C1153 C1151 1.365 . S
C1153 H1170 0.931 . S
C1154 C1149 1.370 . S
C1154 C1150 1.395 . S
C1154 H1171 0.930 . S
C1155 Gd1102 2.805 1_554 S
C1155 O1137 1.263 . S
C1155 O1138 1.252 . S
C1155 C1149 1.500 . S
C1156 H1118 0.930 . S
C1156 C1132 1.417 . S
C1156 C1157 1.329 . S
C1157 C1127 1.437 . S
C1157 H1128 0.929 . S
C1157 C1156 1.329 . S
H1158 C1131 0.931 . S
C1159 O1141 1.265 . S
C1159 O1142 1.242 . S
C1160 O1145 1.261 . S
C1160 O1146 1.252 . S
C1161 C1164 1.394 . S
C1161 C1166 1.370 . S
C1161 C1167 1.500 . S
C1162 C1165 1.383 . S
C1162 C1166 1.395 . S
C1163 C1164 1.396 . S
C1163 C1165 1.365 . S
C1163 H1172 0.929 . S
C1164 C1161 1.394 . S
C1164 C1163 1.396 . S
C1164 H1173 0.930 . S
C1165 C1162 1.383 . S
C1165 C1163 1.365 . S
C1165 H1174 0.931 . S
C1166 C1161 1.370 . S
C1166 C1162 1.395 . S
C1166 H1175 0.930 . S
C1167 Gd1103 2.805 . S
C1167 O1143 1.263 . S
C1167 O1144 1.252 . S
C1167 C1161 1.500 . S
H1168 C1151 0.929 . S
H1169 C1152 0.930 . S
H1170 C1153 0.931 . S
H1171 C1154 0.930 . S
H1172 C1163 0.929 . S
H1173 C1164 0.930 . S
H1174 C1165 0.931 . S
H1175 C1166 0.930 . S
C1176 C1178 1.422 . S
C1176 C1180 1.415 . S
C1176 N1182 1.369 . S
C1177 C1178 1.421 . S
C1177 C1179 1.417 . S
C1177 C1189 1.422 . S
C1178 C1176 1.422 . S
C1178 C1177 1.421 . S
C1178 N1188 1.359 . S
C1179 C1177 1.417 . S
C1179 C1181 1.329 . S
C1179 H1198 0.930 . S
C1180 C1176 1.415 . S
C1180 C1181 1.437 . S
C1180 C1184 1.413 . S
C1181 C1179 1.329 . S
C1181 C1180 1.437 . S
C1181 H1203 0.929 . S
N1182 C1176 1.369 . S
N1182 C1183 1.338 . S
N1182 Gd1187 2.622 . S
C1183 N1182 1.338 . S
C1183 C1185 1.378 . S
C1183 H1195 0.929 . S
C1184 C1180 1.413 . S
C1184 C1185 1.348 . S
C1184 H1200 0.931 . S
C1185 C1183 1.378 . S
C1185 C1184 1.348 . S
C1185 H1201 0.930 . S
Gd1186 N1206 2.622 . S
Gd1186 N1213 2.570 . S
Gd1186 O1220 2.353 . S
Gd1186 O1221 2.468 . S
Gd1186 O1222 2.427 . S
Gd1186 O1224 2.388 . S
Gd1186 O1225 2.386 . S
Gd1186 O1229 2.307 . S
Gd1186 C1239 2.805 . S
Gd1187 N1182 2.622 . S
Gd1187 N1188 2.570 . S
Gd1187 O1219 2.386 . S
Gd1187 O1223 2.307 . S
Gd1187 O1226 2.353 . S
Gd1187 O1227 2.468 . S
Gd1187 O1228 2.427 . S
Gd1187 O1230 2.388 . S
Gd1187 C1251 2.805 . S
N1188 C1178 1.359 . S
N1188 Gd1187 2.570 . S
N1188 C1190 1.343 . S
C1189 C1177 1.422 . S
C1189 C1191 1.321 . S
C1189 H1197 0.931 . S
C1190 N1188 1.343 . S
C1190 C1191 1.390 . S
C1190 H1192 0.931 . S
C1191 C1189 1.321 . S
C1191 C1190 1.390 . S
C1191 H1193 0.930 . S
H1192 C1190 0.931 . S
H1193 C1191 0.930 . S
H1194 C1217 0.931 . S
H1195 C1183 0.929 . S
H1196 C1218 0.930 . S
H1197 C1189 0.931 . S
H1198 C1179 0.930 . S
H1199 C1208 0.929 . S
H1200 C1184 0.931 . S
H1201 C1185 0.930 . S
H1202 C1240 0.930 . S
H1203 C1181 0.929 . S
H1204 C1209 0.931 . S
H1205 C1210 0.930 . S
N1206 Gd1186 2.622 . S
N1206 C1207 1.369 . S
N1206 C1208 1.338 . S
C1207 N1206 1.369 . S
C1207 C1211 1.415 . S
C1207 C1214 1.422 . S
C1208 H1199 0.929 . S
C1208 N1206 1.338 . S
C1208 C1210 1.378 . S
C1209 H1204 0.931 . S
C1209 C1210 1.348 . S
C1209 C1211 1.413 . S
C1210 H1205 0.930 . S
C1210 C1208 1.378 . S
C1210 C1209 1.348 . S
C1211 C1207 1.415 . S
C1211 C1209 1.413 . S
C1211 C1241 1.437 . S
H1212 C1241 0.929 . S
N1213 Gd1186 2.570 . S
N1213 C1214 1.359 . S
N1213 C1217 1.343 . S
C1214 C1207 1.422 . S
C1214 N1213 1.359 . S
C1214 C1216 1.421 . S
C1215 C1216 1.422 . S
C1215 C1218 1.321 . S
C1215 H1242 0.931 . S
C1216 C1214 1.421 . S
C1216 C1215 1.422 . S
C1216 C1240 1.417 . S
C1217 H1194 0.931 . S
C1217 N1213 1.343 . S
C1217 C1218 1.390 . S
C1218 H1196 0.930 . S
C1218 C1215 1.321 . S
C1218 C1217 1.390 . S
O1219 Gd1187 2.386 . S
O1219 C1231 1.265 . S
O1220 Gd1186 2.353 . S
O1220 C1231 1.242 . S
O1221 Gd1186 2.468 . S
O1221 C1239 1.263 . S
O1222 Gd1186 2.427 . S
O1222 C1239 1.252 . S
O1223 Gd1187 2.307 . S
O1223 C1232 1.261 . S
O1224 Gd1186 2.388 . S
O1224 C1232 1.252 . S
O1225 Gd1186 2.386 . S
O1225 C1243 1.265 . S
O1226 Gd1187 2.353 . S
O1226 C1243 1.242 . S
O1227 Gd1187 2.468 . S
O1227 C1251 1.263 . S
O1228 Gd1187 2.427 . S
O1228 C1251 1.252 . S
O1229 Gd1186 2.307 . S
O1229 C1244 1.261 . S
O1230 Gd1187 2.388 . S
O1230 C1244 1.252 . S
C1231 O1219 1.265 . S
C1231 O1220 1.242 . S
C1232 O1223 1.261 . S
C1232 O1224 1.252 . S
C1233 C1236 1.394 . S
C1233 C1238 1.370 . S
C1233 C1239 1.500 . S
C1234 C1237 1.383 . S
C1234 C1238 1.395 1_554 S
C1235 C1236 1.396 . S
C1235 C1237 1.365 1_556 S
C1235 H1252 0.929 1_556 S
C1236 C1233 1.394 . S
C1236 C1235 1.396 . S
C1236 H1253 0.930 . S
C1237 C1234 1.383 . S
C1237 C1235 1.365 1_554 S
C1237 H1254 0.931 . S
C1238 C1233 1.370 . S
C1238 C1234 1.395 1_556 S
C1238 H1255 0.930 . S
C1239 Gd1186 2.805 . S
C1239 O1221 1.263 . S
C1239 O1222 1.252 . S
C1239 C1233 1.500 . S
C1240 H1202 0.930 . S
C1240 C1216 1.417 . S
C1240 C1241 1.329 . S
C1241 C1211 1.437 . S
C1241 H1212 0.929 . S
C1241 C1240 1.329 . S
H1242 C1215 0.931 . S
C1243 O1225 1.265 . S
C1243 O1226 1.242 . S
C1244 O1229 1.261 . S
C1244 O1230 1.252 . S
C1245 C1248 1.394 . S
C1245 C1250 1.370 . S
C1245 C1251 1.500 . S
C1246 C1249 1.383 . S
C1246 C1250 1.395 . S
C1247 C1248 1.396 . S
C1247 C1249 1.365 . S
C1247 H1256 0.929 . S
C1248 C1245 1.394 . S
C1248 C1247 1.396 . S
C1248 H1257 0.930 . S
C1249 C1246 1.383 . S
C1249 C1247 1.365 . S
C1249 H1258 0.931 . S
C1250 C1245 1.370 . S
C1250 C1246 1.395 . S
C1250 H1259 0.930 . S
C1251 Gd1187 2.805 . S
C1251 O1227 1.263 . S
C1251 O1228 1.252 . S
C1251 C1245 1.500 . S
H1252 C1235 0.929 1_554 S
H1253 C1236 0.930 . S
H1254 C1237 0.931 . S
H1255 C1238 0.930 . S
H1256 C1247 0.929 . S
H1257 C1248 0.930 . S
H1258 C1249 0.931 . S
H1259 C1250 0.930 . S
C1260 C1262 1.422 . S
C1260 C1264 1.415 . S
C1260 N1266 1.369 . S
C1261 C1262 1.421 . S
C1261 C1263 1.417 . S
C1261 C1273 1.422 . S
C1262 C1260 1.422 . S
C1262 C1261 1.421 . S
C1262 N1272 1.359 . S
C1263 C1261 1.417 . S
C1263 C1265 1.329 . S
C1263 H1282 0.930 . S
C1264 C1260 1.415 . S
C1264 C1265 1.437 . S
C1264 C1268 1.413 . S
C1265 C1263 1.329 . S
C1265 C1264 1.437 . S
C1265 H1287 0.929 . S
N1266 C1260 1.369 . S
N1266 C1267 1.338 . S
N1266 Gd1271 2.622 . S
C1267 N1266 1.338 . S
C1267 C1269 1.383 . S
C1267 H1279 0.929 . S
C1268 C1264 1.413 . S
C1268 C1269 1.349 . S
C1268 H1284 0.931 1_565 S
C1269 C1267 1.383 . S
C1269 C1268 1.349 . S
C1269 H1285 0.923 1_565 S
Gd1270 N1290 2.622 . S
Gd1270 N1297 2.570 . S
Gd1270 O1304 2.353 . S
Gd1270 O1305 2.468 . S
Gd1270 O1306 2.427 . S
Gd1270 O1308 2.388 . S
Gd1270 O1309 2.386 . S
Gd1270 O1313 2.307 . S
Gd1270 C1323 2.805 . S
Gd1271 N1266 2.622 . S
Gd1271 N1272 2.570 . S
Gd1271 O1303 2.386 . S
Gd1271 O1307 2.307 . S
Gd1271 O1310 2.353 . S
Gd1271 O1311 2.468 . S
Gd1271 O1312 2.427 . S
Gd1271 O1314 2.388 . S
Gd1271 C1335 2.805 . S
N1272 C1262 1.359 . S
N1272 Gd1271 2.570 . S
N1272 C1274 1.343 . S
C1273 C1261 1.422 . S
C1273 C1275 1.321 . S
C1273 H1281 0.931 . S
C1274 N1272 1.343 . S
C1274 C1275 1.390 . S
C1274 H1276 0.931 . S
C1275 C1273 1.321 . S
C1275 C1274 1.390 . S
C1275 H1277 0.930 . S
H1276 C1274 0.931 . S
H1277 C1275 0.930 . S
H1278 C1301 0.931 . S
H1279 C1267 0.929 . S
H1280 C1302 0.930 . S
H1281 C1273 0.931 . S
H1282 C1263 0.930 . S
H1283 C1292 0.929 . S
H1284 C1268 0.931 1_545 S
H1285 C1269 0.923 1_545 S
H1286 C1324 0.930 . S
H1287 C1265 0.929 . S
H1288 C1293 0.931 . S
H1289 C1294 0.930 . S
N1290 Gd1270 2.622 . S
N1290 C1291 1.369 . S
N1290 C1292 1.338 . S
C1291 N1290 1.369 . S
C1291 C1295 1.415 . S
C1291 C1298 1.422 . S
C1292 H1283 0.929 . S
C1292 N1290 1.338 . S
C1292 C1294 1.378 . S
C1293 H1288 0.931 . S
C1293 C1294 1.348 . S
C1293 C1295 1.413 . S
C1294 H1289 0.930 . S
C1294 C1292 1.378 . S
C1294 C1293 1.348 . S
C1295 C1291 1.415 . S
C1295 C1293 1.413 . S
C1295 C1325 1.437 . S
H1296 C1325 0.929 . S
N1297 Gd1270 2.570 . S
N1297 C1298 1.359 . S
N1297 C1301 1.343 . S
C1298 C1291 1.422 . S
C1298 N1297 1.359 . S
C1298 C1300 1.421 . S
C1299 C1300 1.422 . S
C1299 C1302 1.321 . S
C1299 H1326 0.931 . S
C1300 C1298 1.421 . S
C1300 C1299 1.422 . S
C1300 C1324 1.417 . S
C1301 H1278 0.931 . S
C1301 N1297 1.343 . S
C1301 C1302 1.390 . S
C1302 H1280 0.930 . S
C1302 C1299 1.321 . S
C1302 C1301 1.390 . S
O1303 Gd1271 2.386 . S
O1303 C1315 1.265 . S
O1304 Gd1270 2.353 . S
O1304 C1315 1.242 . S
O1305 Gd1270 2.468 . S
O1305 C1323 1.263 . S
O1306 Gd1270 2.427 . S
O1306 C1323 1.252 . S
O1307 Gd1271 2.307 . S
O1307 C1316 1.261 . S
O1308 Gd1270 2.388 . S
O1308 C1316 1.252 . S
O1309 Gd1270 2.386 . S
O1309 C1327 1.265 . S
O1310 Gd1271 2.353 . S
O1310 C1327 1.242 . S
O1311 Gd1271 2.468 . S
O1311 C1335 1.263 . S
O1312 Gd1271 2.427 . S
O1312 C1335 1.252 . S
O1313 Gd1270 2.307 . S
O1313 C1328 1.261 . S
O1314 Gd1271 2.388 . S
O1314 C1328 1.252 . S
C1315 O1303 1.265 . S
C1315 O1304 1.242 . S
C1316 O1307 1.261 . S
C1316 O1308 1.252 . S
C1317 C1320 1.394 . S
C1317 C1322 1.370 . S
C1317 C1323 1.500 . S
C1318 C1321 1.383 . S
C1318 C1322 1.395 . S
C1319 C1320 1.396 . S
C1319 C1321 1.365 . S
C1319 H1336 0.929 . S
C1320 C1317 1.394 . S
C1320 C1319 1.396 . S
C1320 H1337 0.930 . S
C1321 C1318 1.383 . S
C1321 C1319 1.365 . S
C1321 H1338 0.931 . S
C1322 C1317 1.370 . S
C1322 C1318 1.395 . S
C1322 H1339 0.930 . S
C1323 Gd1270 2.805 . S
C1323 O1305 1.263 . S
C1323 O1306 1.252 . S
C1323 C1317 1.500 . S
C1324 H1286 0.930 . S
C1324 C1300 1.417 . S
C1324 C1325 1.329 . S
C1325 C1295 1.437 . S
C1325 H1296 0.929 . S
C1325 C1324 1.329 . S
H1326 C1299 0.931 . S
C1327 O1309 1.265 . S
C1327 O1310 1.242 . S
C1328 O1313 1.261 . S
C1328 O1314 1.252 . S
C1329 C1332 1.394 . S
C1329 C1334 1.370 . S
C1329 C1335 1.500 . S
C1330 C1333 1.383 . S
C1330 C1334 1.395 1_556 S
C1331 C1332 1.396 . S
C1331 C1333 1.365 1_554 S
C1331 H1340 0.929 1_554 S
C1332 C1329 1.394 . S
C1332 C1331 1.396 . S
C1332 H1341 0.930 . S
C1333 C1330 1.383 . S
C1333 C1331 1.365 1_556 S
C1333 H1342 0.931 . S
C1334 C1329 1.370 . S
C1334 C1330 1.395 1_554 S
C1334 H1343 0.930 . S
C1335 Gd1271 2.805 . S
C1335 O1311 1.263 . S
C1335 O1312 1.252 . S
C1335 C1329 1.500 . S
H1336 C1319 0.929 . S
H1337 C1320 0.930 . S
H1338 C1321 0.931 . S
H1339 C1322 0.930 . S
H1340 C1331 0.929 1_556 S
H1341 C1332 0.930 . S
H1342 C1333 0.931 . S
H1343 C1334 0.930 . S
C1344 C1345 1.387 . S
C1344 H1348 0.950 . S
C1344 C1353 1.390 . S
C1345 C1344 1.387 . S
C1345 C1347 1.387 . S
H1346 C1353 0.950 . S
C1347 C1345 1.387 . S
C1347 C1349 1.390 . S
C1347 H1351 0.950 . S
H1348 C1344 0.950 . S
C1349 C1347 1.390 . S
C1349 C1350 1.387 . S
C1349 H1352 0.950 . S
C1350 C1349 1.387 . S
C1350 C1353 1.387 . S
H1351 C1347 0.950 . S
H1352 C1349 0.950 . S
C1353 C1344 1.390 . S
C1353 H1346 0.950 . S
C1353 C1350 1.387 . S
C1354 C1355 1.387 . S
C1354 H1358 0.950 . S
C1354 C1363 1.390 . S
C1355 C1354 1.387 . S
C1355 C1357 1.387 . S
H1356 C1363 0.950 . S
C1357 C1355 1.387 . S
C1357 C1359 1.390 . S
C1357 H1361 0.950 . S
H1358 C1354 0.950 . S
C1359 C1357 1.390 . S
C1359 C1360 1.387 . S
C1359 H1362 0.950 . S
C1360 C1359 1.387 . S
C1360 C1363 1.387 . S
H1361 C1357 0.950 . S
H1362 C1359 0.950 . S
C1363 C1354 1.390 . S
C1363 H1356 0.950 . S
C1363 C1360 1.387 . S
C1364 C1365 1.387 . S
C1364 H1368 0.950 . S
C1364 C1373 1.390 . S
C1365 C1364 1.387 . S
C1365 C1367 1.387 . S
H1366 C1373 0.950 . S
C1367 C1365 1.387 . S
C1367 C1369 1.390 . S
C1367 H1371 0.950 . S
H1368 C1364 0.950 . S
C1369 C1367 1.390 . S
C1369 C1370 1.387 . S
C1369 H1372 0.950 . S
C1370 C1369 1.387 . S
C1370 C1373 1.387 . S
H1371 C1367 0.950 . S
H1372 C1369 0.950 . S
C1373 C1364 1.390 . S
C1373 H1366 0.950 . S
C1373 C1370 1.387 . S
C1374 C1375 1.387 . S
C1374 H1378 0.950 . S
C1374 C1383 1.390 . S
C1375 C1374 1.387 . S
C1375 C1377 1.387 . S
H1376 C1383 0.950 . S
C1377 C1375 1.387 . S
C1377 C1379 1.390 . S
C1377 H1381 0.950 . S
H1378 C1374 0.950 . S
C1379 C1377 1.390 . S
C1379 C1380 1.387 . S
C1379 H1382 0.950 . S
C1380 C1379 1.387 . S
C1380 C1383 1.387 . S
H1381 C1377 0.950 . S
H1382 C1379 0.950 . S
C1383 C1374 1.390 . S
C1383 H1376 0.950 . S
C1383 C1380 1.387 . S
C1384 C1385 1.387 . S
C1384 H1388 0.950 . S
C1384 C1393 1.390 . S
C1385 C1384 1.387 . S
C1385 C1387 1.387 . S
H1386 C1393 0.950 . S
C1387 C1385 1.387 . S
C1387 C1389 1.390 . S
C1387 H1391 0.950 . S
H1388 C1384 0.950 . S
C1389 C1387 1.390 . S
C1389 C1390 1.387 . S
C1389 H1392 0.950 . S
C1390 C1389 1.387 . S
C1390 C1393 1.387 . S
H1391 C1387 0.950 . S
H1392 C1389 0.950 . S
C1393 C1384 1.390 . S
C1393 H1386 0.950 . S
C1393 C1390 1.387 . S
C1394 C1395 1.387 . S
C1394 H1398 0.950 . S
C1394 C1403 1.390 . S
C1395 C1394 1.387 . S
C1395 C1397 1.387 . S
H1396 C1403 0.950 . S
C1397 C1395 1.387 . S
C1397 C1399 1.390 . S
C1397 H1401 0.950 . S
H1398 C1394 0.950 . S
C1399 C1397 1.390 . S
C1399 C1400 1.387 . S
C1399 H1402 0.950 . S
C1400 C1399 1.387 . S
C1400 C1403 1.387 . S
H1401 C1397 0.950 . S
H1402 C1399 0.950 . S
C1403 C1394 1.390 . S
C1403 H1396 0.950 . S
C1403 C1400 1.387 . S
C1404 C1405 1.387 . S
C1404 H1408 0.950 . S
C1404 C1413 1.390 . S
C1405 C1404 1.387 . S
C1405 C1407 1.387 . S
H1406 C1413 0.950 . S
C1407 C1405 1.387 . S
C1407 C1409 1.390 . S
C1407 H1411 0.950 . S
H1408 C1404 0.950 . S
C1409 C1407 1.390 . S
C1409 C1410 1.387 . S
C1409 H1412 0.950 . S
C1410 C1409 1.387 . S
C1410 C1413 1.387 . S
H1411 C1407 0.950 . S
H1412 C1409 0.950 . S
C1413 C1404 1.390 . S
C1413 H1406 0.950 . S
C1413 C1410 1.387 . S
C1414 C1415 1.387 . S
C1414 H1418 0.950 . S
C1414 C1423 1.390 . S
C1415 C1414 1.387 . S
C1415 C1417 1.387 . S
H1416 C1423 0.950 . S
C1417 C1415 1.387 . S
C1417 C1419 1.390 . S
C1417 H1421 0.950 . S
H1418 C1414 0.950 . S
C1419 C1417 1.390 . S
C1419 C1420 1.387 . S
C1419 H1422 0.950 . S
C1420 C1419 1.387 . S
C1420 C1423 1.387 . S
H1421 C1417 0.950 . S
H1422 C1419 0.950 . S
C1423 C1414 1.390 . S
C1423 H1416 0.950 . S
C1423 C1420 1.387 . S
C1424 C1425 1.387 . S
C1424 H1428 0.950 . S
C1424 C1433 1.390 . S
C1425 C1424 1.387 . S
C1425 C1427 1.387 . S
H1426 C1433 0.950 . S
C1427 C1425 1.387 . S
C1427 C1429 1.390 . S
C1427 H1431 0.950 . S
H1428 C1424 0.950 . S
C1429 C1427 1.390 . S
C1429 C1430 1.387 . S
C1429 H1432 0.950 . S
C1430 C1429 1.387 . S
C1430 C1433 1.387 . S
H1431 C1427 0.950 . S
H1432 C1429 0.950 . S
C1433 C1424 1.390 . S
C1433 H1426 0.950 . S
C1433 C1430 1.387 . S
C1434 C1435 1.387 . S
C1434 H1438 0.950 . S
C1434 C1443 1.390 . S
C1435 C1434 1.387 . S
C1435 C1437 1.387 . S
H1436 C1443 0.950 . S
C1437 C1435 1.387 . S
C1437 C1439 1.390 . S
C1437 H1441 0.950 . S
H1438 C1434 0.950 . S
C1439 C1437 1.390 . S
C1439 C1440 1.387 . S
C1439 H1442 0.950 . S
C1440 C1439 1.387 . S
C1440 C1443 1.387 . S
H1441 C1437 0.950 . S
H1442 C1439 0.950 . S
C1443 C1434 1.390 . S
C1443 H1436 0.950 . S
C1443 C1440 1.387 . S
C1444 C1445 1.387 . S
C1444 H1448 0.950 . S
C1444 C1453 1.390 . S
C1445 C1444 1.387 . S
C1445 C1447 1.387 . S
H1446 C1453 0.950 . S
C1447 C1445 1.387 . S
C1447 C1449 1.390 . S
C1447 H1451 0.950 . S
H1448 C1444 0.950 . S
C1449 C1447 1.390 . S
C1449 C1450 1.387 . S
C1449 H1452 0.950 . S
C1450 C1449 1.387 . S
C1450 C1453 1.387 . S
H1451 C1447 0.950 . S
H1452 C1449 0.950 . S
C1453 C1444 1.390 . S
C1453 H1446 0.950 . S
C1453 C1450 1.387 . S
C1454 C1455 1.387 . S
C1454 H1458 0.950 . S
C1454 C1463 1.390 . S
C1455 C1454 1.387 . S
C1455 C1457 1.387 . S
H1456 C1463 0.950 . S
C1457 C1455 1.387 . S
C1457 C1459 1.390 . S
C1457 H1461 0.950 . S
H1458 C1454 0.950 . S
C1459 C1457 1.390 . S
C1459 C1460 1.387 . S
C1459 H1462 0.950 . S
C1460 C1459 1.387 . S
C1460 C1463 1.387 . S
H1461 C1457 0.950 . S
H1462 C1459 0.950 . S
C1463 C1454 1.390 . S
C1463 H1456 0.950 . S
C1463 C1460 1.387 . S
C1464 C1465 1.387 . S
C1464 H1468 0.950 . S
C1464 C1473 1.390 . S
C1465 C1464 1.387 . S
C1465 C1467 1.387 . S
H1466 C1473 0.950 . S
C1467 C1465 1.387 . S
C1467 C1469 1.390 . S
C1467 H1471 0.950 . S
H1468 C1464 0.950 . S
C1469 C1467 1.390 . S
C1469 C1470 1.387 . S
C1469 H1472 0.950 . S
C1470 C1469 1.387 . S
C1470 C1473 1.387 . S
H1471 C1467 0.950 . S
H1472 C1469 0.950 . S
C1473 C1464 1.390 . S
C1473 H1466 0.950 . S
C1473 C1470 1.387 . S
C1474 C1475 1.387 . S
C1474 H1478 0.950 . S
C1474 C1483 1.390 . S
C1475 C1474 1.387 . S
C1475 C1477 1.387 . S
H1476 C1483 0.950 . S
C1477 C1475 1.387 . S
C1477 C1479 1.390 . S
C1477 H1481 0.950 . S
H1478 C1474 0.950 . S
C1479 C1477 1.390 . S
C1479 C1480 1.387 . S
C1479 H1482 0.950 . S
C1480 C1479 1.387 . S
C1480 C1483 1.387 . S
H1481 C1477 0.950 . S
H1482 C1479 0.950 . S
C1483 C1474 1.390 . S
C1483 H1476 0.950 . S
C1483 C1480 1.387 . S
C1484 C1485 1.387 . S
C1484 H1488 0.950 . S
C1484 C1493 1.390 . S
C1485 C1484 1.387 . S
C1485 C1487 1.387 . S
H1486 C1493 0.950 . S
C1487 C1485 1.387 . S
C1487 C1489 1.390 . S
C1487 H1491 0.950 . S
H1488 C1484 0.950 . S
C1489 C1487 1.390 . S
C1489 C1490 1.387 . S
C1489 H1492 0.950 . S
C1490 C1489 1.387 . S
C1490 C1493 1.387 . S
H1491 C1487 0.950 . S
H1492 C1489 0.950 . S
C1493 C1484 1.390 . S
C1493 H1486 0.950 . S
C1493 C1490 1.387 . S
C1494 C1495 1.387 . S
C1494 H1498 0.950 . S
C1494 C1503 1.390 . S
C1495 C1494 1.387 . S
C1495 C1497 1.387 . S
H1496 C1503 0.950 . S
C1497 C1495 1.387 . S
C1497 C1499 1.390 . S
C1497 H1501 0.950 . S
H1498 C1494 0.950 . S
C1499 C1497 1.390 . S
C1499 C1500 1.387 . S
C1499 H1502 0.950 . S
C1500 C1499 1.387 . S
C1500 C1503 1.387 . S
H1501 C1497 0.950 . S
H1502 C1499 0.950 . S
C1503 C1494 1.390 . S
C1503 H1496 0.950 . S
C1503 C1500 1.387 . S
C1504 C1505 1.387 . S
C1504 H1508 0.950 . S
C1504 C1513 1.390 . S
C1505 C1504 1.387 . S
C1505 C1507 1.387 . S
H1506 C1513 0.950 . S
C1507 C1505 1.387 . S
C1507 C1509 1.390 . S
C1507 H1511 0.950 . S
H1508 C1504 0.950 . S
C1509 C1507 1.390 . S
C1509 C1510 1.387 . S
C1509 H1512 0.950 . S
C1510 C1509 1.387 . S
C1510 C1513 1.387 . S
H1511 C1507 0.950 . S
H1512 C1509 0.950 . S
C1513 C1504 1.390 . S
C1513 H1506 0.950 . S
C1513 C1510 1.387 . S
C1514 C1515 1.387 . S
C1514 H1518 0.950 . S
C1514 C1523 1.390 . S
C1515 C1514 1.387 . S
C1515 C1517 1.387 . S
H1516 C1523 0.950 . S
C1517 C1515 1.387 . S
C1517 C1519 1.390 . S
C1517 H1521 0.950 . S
H1518 C1514 0.950 . S
C1519 C1517 1.390 . S
C1519 C1520 1.387 . S
C1519 H1522 0.950 . S
C1520 C1519 1.387 . S
C1520 C1523 1.387 . S
H1521 C1517 0.950 . S
H1522 C1519 0.950 . S
C1523 C1514 1.390 . S
C1523 H1516 0.950 . S
C1523 C1520 1.387 . S
C1524 C1525 1.387 . S
C1524 H1528 0.950 . S
C1524 C1533 1.390 . S
C1525 C1524 1.387 . S
C1525 C1527 1.387 . S
H1526 C1533 0.950 . S
C1527 C1525 1.387 . S
C1527 C1529 1.390 . S
C1527 H1531 0.950 . S
H1528 C1524 0.950 . S
C1529 C1527 1.390 . S
C1529 C1530 1.387 . S
C1529 H1532 0.950 . S
C1530 C1529 1.387 . S
C1530 C1533 1.387 . S
H1531 C1527 0.950 . S
H1532 C1529 0.950 . S
C1533 C1524 1.390 . S
C1533 H1526 0.950 . S
C1533 C1530 1.387 . S
C1534 C1535 1.387 . S
C1534 H1538 0.950 . S
C1534 C1543 1.390 1_655 S
C1535 C1534 1.387 . S
C1535 C1537 1.387 . S
H1536 C1543 0.950 . S
C1537 C1535 1.387 . S
C1537 C1539 1.390 1_655 S
C1537 H1541 0.950 . S
H1538 C1534 0.950 . S
C1539 C1537 1.390 1_455 S
C1539 C1540 1.387 . S
C1539 H1542 0.950 . S
C1540 C1539 1.387 . S
C1540 C1543 1.387 . S
H1541 C1537 0.950 . S
H1542 C1539 0.950 . S
C1543 C1534 1.390 1_455 S
C1543 H1536 0.950 . S
C1543 C1540 1.387 . S
C1544 C1545 1.387 . S
C1544 H1548 0.950 . S
C1544 C1553 1.390 . S
C1545 C1544 1.387 . S
C1545 C1547 1.387 . S
H1546 C1553 0.950 . S
C1547 C1545 1.387 . S
C1547 C1549 1.390 . S
C1547 H1551 0.950 . S
H1548 C1544 0.950 . S
C1549 C1547 1.390 . S
C1549 C1550 1.387 . S
C1549 H1552 0.950 . S
C1550 C1549 1.387 . S
C1550 C1553 1.387 . S
H1551 C1547 0.950 . S
H1552 C1549 0.950 . S
C1553 C1544 1.390 . S
C1553 H1546 0.950 . S
C1553 C1550 1.387 . S
C1554 C1555 1.387 . S
C1554 H1558 0.950 . S
C1554 C1563 1.390 1_455 S
C1555 C1554 1.387 . S
C1555 C1557 1.387 . S
H1556 C1563 0.950 . S
C1557 C1555 1.387 . S
C1557 C1559 1.390 1_455 S
C1557 H1561 0.950 1_554 S
H1558 C1554 0.950 . S
C1559 C1557 1.390 1_655 S
C1559 C1560 1.387 . S
C1559 H1562 0.950 1_554 S
C1560 C1559 1.387 . S
C1560 C1563 1.387 . S
H1561 C1557 0.950 1_556 S
H1562 C1559 0.950 1_556 S
C1563 C1554 1.390 1_655 S
C1563 H1556 0.950 . S
C1563 C1560 1.387 . S
C1564 C1565 1.387 . S
C1564 H1568 0.950 . S
C1564 C1573 1.390 . S
C1565 C1564 1.387 . S
C1565 C1567 1.387 . S
H1566 C1573 0.950 . S
C1567 C1565 1.387 . S
C1567 C1569 1.390 . S
C1567 H1571 0.950 . S
H1568 C1564 0.950 . S
C1569 C1567 1.390 . S
C1569 C1570 1.387 . S
C1569 H1572 0.950 . S
C1570 C1569 1.387 . S
C1570 C1573 1.387 . S
H1571 C1567 0.950 . S
H1572 C1569 0.950 . S
C1573 C1564 1.390 . S
C1573 H1566 0.950 . S
C1573 C1570 1.387 . S
C1574 C1575 1.387 . S
C1574 H1578 0.950 . S
C1574 C1583 1.390 . S
C1575 C1574 1.387 . S
C1575 C1577 1.387 . S
H1576 C1583 0.950 . S
C1577 C1575 1.387 . S
C1577 C1579 1.390 . S
C1577 H1581 0.950 . S
H1578 C1574 0.950 . S
C1579 C1577 1.390 . S
C1579 C1580 1.387 . S
C1579 H1582 0.950 . S
C1580 C1579 1.387 . S
C1580 C1583 1.387 . S
H1581 C1577 0.950 . S
H1582 C1579 0.950 . S
C1583 C1574 1.390 . S
C1583 H1576 0.950 . S
C1583 C1580 1.387 . S
C1584 C1585 1.387 . S
C1584 H1588 0.950 . S
C1584 C1593 1.390 . S
C1585 C1584 1.387 . S
C1585 C1587 1.387 . S
H1586 C1593 0.950 . S
C1587 C1585 1.387 . S
C1587 C1589 1.390 . S
C1587 H1591 0.950 . S
H1588 C1584 0.950 . S
C1589 C1587 1.390 . S
C1589 C1590 1.387 . S
C1589 H1592 0.950 . S
C1590 C1589 1.387 . S
C1590 C1593 1.387 . S
H1591 C1587 0.950 . S
H1592 C1589 0.950 . S
C1593 C1584 1.390 . S
C1593 H1586 0.950 . S
C1593 C1590 1.387 . S
C1594 C1595 1.387 . S
C1594 H1598 0.950 . S
C1594 C1603 1.390 . S
C1595 C1594 1.387 . S
C1595 C1597 1.387 . S
H1596 C1603 0.950 . S
C1597 C1595 1.387 . S
C1597 C1599 1.390 . S
C1597 H1601 0.950 . S
H1598 C1594 0.950 . S
C1599 C1597 1.390 . S
C1599 C1600 1.387 . S
C1599 H1602 0.950 . S
C1600 C1599 1.387 . S
C1600 C1603 1.387 . S
H1601 C1597 0.950 . S
H1602 C1599 0.950 . S
C1603 C1594 1.390 . S
C1603 H1596 0.950 . S
C1603 C1600 1.387 . S
C1604 C1605 1.387 . S
C1604 H1608 0.950 . S
C1604 C1613 1.390 . S
C1605 C1604 1.387 . S
C1605 C1607 1.387 . S
H1606 C1613 0.950 . S
C1607 C1605 1.387 . S
C1607 C1609 1.390 . S
C1607 H1611 0.950 . S
H1608 C1604 0.950 . S
C1609 C1607 1.390 . S
C1609 C1610 1.387 . S
C1609 H1612 0.950 . S
C1610 C1609 1.387 . S
C1610 C1613 1.387 . S
H1611 C1607 0.950 . S
H1612 C1609 0.950 . S
C1613 C1604 1.390 . S
C1613 H1606 0.950 . S
C1613 C1610 1.387 . S
C1614 C1615 1.387 . S
C1614 H1618 0.950 . S
C1614 C1623 1.390 . S
C1615 C1614 1.387 . S
C1615 C1617 1.387 . S
H1616 C1623 0.950 . S
C1617 C1615 1.387 . S
C1617 C1619 1.390 . S
C1617 H1621 0.950 . S
H1618 C1614 0.950 . S
C1619 C1617 1.390 . S
C1619 C1620 1.387 . S
C1619 H1622 0.950 . S
C1620 C1619 1.387 . S
C1620 C1623 1.387 . S
H1621 C1617 0.950 . S
H1622 C1619 0.950 . S
C1623 C1614 1.390 . S
C1623 H1616 0.950 . S
C1623 C1620 1.387 . S
C1624 C1625 1.387 . S
C1624 H1628 0.950 . S
C1624 C1633 1.390 1_655 S
C1625 C1624 1.387 . S
C1625 C1627 1.387 . S
H1626 C1633 0.950 . S
C1627 C1625 1.387 . S
C1627 C1629 1.390 1_655 S
C1627 H1631 0.950 1_556 S
H1628 C1624 0.950 . S
C1629 C1627 1.390 1_455 S
C1629 C1630 1.387 . S
C1629 H1632 0.950 1_556 S
C1630 C1629 1.387 . S
C1630 C1633 1.387 . S
H1631 C1627 0.950 1_554 S
H1632 C1629 0.950 1_554 S
C1633 C1624 1.390 1_455 S
C1633 H1626 0.950 . S
C1633 C1630 1.387 . S
C1634 C1635 1.387 . S
C1634 H1638 0.950 . S
C1634 C1643 1.390 . S
C1635 C1634 1.387 . S
C1635 C1637 1.387 . S
H1636 C1643 0.950 . S
C1637 C1635 1.387 . S
C1637 C1639 1.390 . S
C1637 H1641 0.950 . S
H1638 C1634 0.950 . S
C1639 C1637 1.390 . S
C1639 C1640 1.387 . S
C1639 H1642 0.950 . S
C1640 C1639 1.387 . S
C1640 C1643 1.387 . S
H1641 C1637 0.950 . S
H1642 C1639 0.950 . S
C1643 C1634 1.390 . S
C1643 H1636 0.950 . S
C1643 C1640 1.387 . S
C1644 C1645 1.387 . S
C1644 H1648 0.950 . S
C1644 C1653 1.390 . S
C1645 C1644 1.387 . S
C1645 C1647 1.387 . S
H1646 C1653 0.950 . S
C1647 C1645 1.387 . S
C1647 C1649 1.390 . S
C1647 H1651 0.950 . S
H1648 C1644 0.950 . S
C1649 C1647 1.390 . S
C1649 C1650 1.387 . S
C1649 H1652 0.950 . S
C1650 C1649 1.387 . S
C1650 C1653 1.387 . S
H1651 C1647 0.950 . S
H1652 C1649 0.950 . S
C1653 C1644 1.390 . S
C1653 H1646 0.950 . S
C1653 C1650 1.387 . S
C1654 C1655 1.387 . S
C1654 H1658 0.950 . S
C1654 C1663 1.390 1_455 S
C1655 C1654 1.387 . S
C1655 C1657 1.387 . S
H1656 C1663 0.950 . S
C1657 C1655 1.387 . S
C1657 C1659 1.390 1_455 S
C1657 H1661 0.950 . S
H1658 C1654 0.950 . S
C1659 C1657 1.390 1_655 S
C1659 C1660 1.387 . S
C1659 H1662 0.950 . S
C1660 C1659 1.387 . S
C1660 C1663 1.387 . S
H1661 C1657 0.950 . S
H1662 C1659 0.950 . S
C1663 C1654 1.390 1_655 S
C1663 H1656 0.950 . S
C1663 C1660 1.387 . S
C1664 C1665 1.387 . S
C1664 H1668 0.950 . S
C1664 C1673 1.390 1_554 S
C1665 C1664 1.387 . S
C1665 C1667 1.387 . S
H1666 C1673 0.950 . S
C1667 C1665 1.387 . S
C1667 C1669 1.390 1_554 S
C1667 H1671 0.950 . S
H1668 C1664 0.950 . S
C1669 C1667 1.390 1_556 S
C1669 C1670 1.387 . S
C1669 H1672 0.950 . S
C1670 C1669 1.387 . S
C1670 C1673 1.387 . S
H1671 C1667 0.950 . S
H1672 C1669 0.950 . S
C1673 C1664 1.390 1_556 S
C1673 H1666 0.950 . S
C1673 C1670 1.387 . S
C1674 C1675 1.387 . S
C1674 H1678 0.950 . S
C1674 C1683 1.390 . S
C1675 C1674 1.387 . S
C1675 C1677 1.387 . S
H1676 C1683 0.950 . S
C1677 C1675 1.387 . S
C1677 C1679 1.390 . S
C1677 H1681 0.950 . S
H1678 C1674 0.950 . S
C1679 C1677 1.390 . S
C1679 C1680 1.387 . S
C1679 H1682 0.950 . S
C1680 C1679 1.387 . S
C1680 C1683 1.387 . S
H1681 C1677 0.950 . S
H1682 C1679 0.950 . S
C1683 C1674 1.390 . S
C1683 H1676 0.950 . S
C1683 C1680 1.387 . S
C1684 C1685 1.387 . S
C1684 H1688 0.950 . S
C1684 C1693 1.390 . S
C1685 C1684 1.387 . S
C1685 C1687 1.387 . S
H1686 C1693 0.950 . S
C1687 C1685 1.387 . S
C1687 C1689 1.390 . S
C1687 H1691 0.950 . S
H1688 C1684 0.950 . S
C1689 C1687 1.390 . S
C1689 C1690 1.387 . S
C1689 H1692 0.950 . S
C1690 C1689 1.387 . S
C1690 C1693 1.387 . S
H1691 C1687 0.950 . S
H1692 C1689 0.950 . S
C1693 C1684 1.390 . S
C1693 H1686 0.950 . S
C1693 C1690 1.387 . S
C1694 C1695 1.387 . S
C1694 H1698 0.950 . S
C1694 C1703 1.390 . S
C1695 C1694 1.387 . S
C1695 C1697 1.387 . S
H1696 C1703 0.950 . S
C1697 C1695 1.387 . S
C1697 C1699 1.390 . S
C1697 H1701 0.950 . S
H1698 C1694 0.950 . S
C1699 C1697 1.390 . S
C1699 C1700 1.387 . S
C1699 H1702 0.950 . S
C1700 C1699 1.387 . S
C1700 C1703 1.387 . S
H1701 C1697 0.950 . S
H1702 C1699 0.950 . S
C1703 C1694 1.390 . S
C1703 H1696 0.950 . S
C1703 C1700 1.387 . S
C1704 C1705 1.387 . S
C1704 H1708 0.950 . S
C1704 C1713 1.390 1_554 S
C1705 C1704 1.387 . S
C1705 C1707 1.387 . S
H1706 C1713 0.950 . S
C1707 C1705 1.387 . S
C1707 C1709 1.390 1_554 S
C1707 H1711 0.950 . S
H1708 C1704 0.950 . S
C1709 C1707 1.390 1_556 S
C1709 C1710 1.387 . S
C1709 H1712 0.950 . S
C1710 C1709 1.387 . S
C1710 C1713 1.387 . S
H1711 C1707 0.950 . S
H1712 C1709 0.950 . S
C1713 C1704 1.390 1_556 S
C1713 H1706 0.950 . S
C1713 C1710 1.387 . S
C1714 C1715 1.387 . S
C1714 H1718 0.950 . S
C1714 C1723 1.390 . S
C1715 C1714 1.387 . S
C1715 C1717 1.387 . S
H1716 C1723 0.950 . S
C1717 C1715 1.387 . S
C1717 C1719 1.390 . S
C1717 H1721 0.950 . S
H1718 C1714 0.950 . S
C1719 C1717 1.390 . S
C1719 C1720 1.387 . S
C1719 H1722 0.950 . S
C1720 C1719 1.387 . S
C1720 C1723 1.387 . S
H1721 C1717 0.950 . S
H1722 C1719 0.950 . S
C1723 C1714 1.390 . S
C1723 H1716 0.950 . S
C1723 C1720 1.387 . S
C1724 C1725 1.387 . S
C1724 H1728 0.950 . S
C1724 C1733 1.390 . S
C1725 C1724 1.387 . S
C1725 C1727 1.387 . S
H1726 C1733 0.950 . S
C1727 C1725 1.387 . S
C1727 C1729 1.390 . S
C1727 H1731 0.950 . S
H1728 C1724 0.950 . S
C1729 C1727 1.390 . S
C1729 C1730 1.387 . S
C1729 H1732 0.950 . S
C1730 C1729 1.387 . S
C1730 C1733 1.387 . S
H1731 C1727 0.950 . S
H1732 C1729 0.950 . S
C1733 C1724 1.390 . S
C1733 H1726 0.950 . S
C1733 C1730 1.387 . S
C1734 C1735 1.387 . S
C1734 H1738 0.950 . S
C1734 C1743 1.390 . S
C1735 C1734 1.387 . S
C1735 C1737 1.387 . S
H1736 C1743 0.950 . S
C1737 C1735 1.387 . S
C1737 C1739 1.390 . S
C1737 H1741 0.950 . S
H1738 C1734 0.950 . S
C1739 C1737 1.390 . S
C1739 C1740 1.387 . S
C1739 H1742 0.950 . S
C1740 C1739 1.387 . S
C1740 C1743 1.387 . S
H1741 C1737 0.950 . S
H1742 C1739 0.950 . S
C1743 C1734 1.390 . S
C1743 H1736 0.950 . S
C1743 C1740 1.387 . S
C1744 C1745 1.387 . S
C1744 H1748 0.950 . S
C1744 C1753 1.390 1_565 S
C1745 C1744 1.387 . S
C1745 C1747 1.387 . S
H1746 C1753 0.950 . S
C1747 C1745 1.387 . S
C1747 C1749 1.390 1_565 S
C1747 H1751 0.950 . S
H1748 C1744 0.950 . S
C1749 C1747 1.390 1_545 S
C1749 C1750 1.387 . S
C1749 H1752 0.950 . S
C1750 C1749 1.387 . S
C1750 C1753 1.387 . S
H1751 C1747 0.950 . S
H1752 C1749 0.950 . S
C1753 C1744 1.390 1_545 S
C1753 H1746 0.950 . S
C1753 C1750 1.387 . S
C1754 C1755 1.387 . S
C1754 H1758 0.950 . S
C1754 C1763 1.390 . S
C1755 C1754 1.387 . S
C1755 C1757 1.387 . S
H1756 C1763 0.950 . S
C1757 C1755 1.387 . S
C1757 C1759 1.390 . S
C1757 H1761 0.950 . S
H1758 C1754 0.950 . S
C1759 C1757 1.390 . S
C1759 C1760 1.387 . S
C1759 H1762 0.950 . S
C1760 C1759 1.387 . S
C1760 C1763 1.387 . S
H1761 C1757 0.950 . S
H1762 C1759 0.950 . S
C1763 C1754 1.390 . S
C1763 H1756 0.950 . S
C1763 C1760 1.387 . S
C1764 C1765 1.387 . S
C1764 H1768 0.950 . S
C1764 C1773 1.390 1_564 S
C1765 C1764 1.387 . S
C1765 C1767 1.387 . S
H1766 C1773 0.950 . S
C1767 C1765 1.387 . S
C1767 C1769 1.390 1_564 S
C1767 H1771 0.950 . S
H1768 C1764 0.950 . S
C1769 C1767 1.390 1_546 S
C1769 C1770 1.387 . S
C1769 H1772 0.950 . S
C1770 C1769 1.387 . S
C1770 C1773 1.387 . S
H1771 C1767 0.950 . S
H1772 C1769 0.950 . S
C1773 C1764 1.390 1_546 S
C1773 H1766 0.950 . S
C1773 C1770 1.387 . S
C1774 C1775 1.387 . S
C1774 H1778 0.950 . S
C1774 C1783 1.390 . S
C1775 C1774 1.387 . S
C1775 C1777 1.387 . S
H1776 C1783 0.950 . S
C1777 C1775 1.387 . S
C1777 C1779 1.390 . S
C1777 H1781 0.950 . S
H1778 C1774 0.950 . S
C1779 C1777 1.390 . S
C1779 C1780 1.387 . S
C1779 H1782 0.950 . S
C1780 C1779 1.387 . S
C1780 C1783 1.387 . S
H1781 C1777 0.950 . S
H1782 C1779 0.950 . S
C1783 C1774 1.390 . S
C1783 H1776 0.950 . S
C1783 C1780 1.387 . S
C1784 C1785 1.387 . S
C1784 H1788 0.950 . S
C1784 C1793 1.390 1_565 S
C1785 C1784 1.387 . S
C1785 C1787 1.387 . S
H1786 C1793 0.950 . S
C1787 C1785 1.387 . S
C1787 C1789 1.390 1_565 S
C1787 H1791 0.950 . S
H1788 C1784 0.950 . S
C1789 C1787 1.390 1_545 S
C1789 C1790 1.387 . S
C1789 H1792 0.950 . S
C1790 C1789 1.387 . S
C1790 C1793 1.387 . S
H1791 C1787 0.950 . S
H1792 C1789 0.950 . S
C1793 C1784 1.390 1_545 S
C1793 H1786 0.950 . S
C1793 C1790 1.387 . S
C1794 C1795 1.387 . S
C1794 H1798 0.950 . S
C1794 C1803 1.390 . S
C1795 C1794 1.387 . S
C1795 C1797 1.387 . S
H1796 C1803 0.950 . S
C1797 C1795 1.387 . S
C1797 C1799 1.390 . S
C1797 H1801 0.950 . S
H1798 C1794 0.950 . S
C1799 C1797 1.390 . S
C1799 C1800 1.387 . S
C1799 H1802 0.950 . S
C1800 C1799 1.387 . S
C1800 C1803 1.387 . S
H1801 C1797 0.950 . S
H1802 C1799 0.950 . S
C1803 C1794 1.390 . S
C1803 H1796 0.950 . S
C1803 C1800 1.387 . S
C1804 C1805 1.387 . S
C1804 H1808 0.950 . S
C1804 C1813 1.390 1_546 S
C1805 C1804 1.387 . S
C1805 C1807 1.387 . S
H1806 C1813 0.950 . S
C1807 C1805 1.387 . S
C1807 C1809 1.390 1_546 S
C1807 H1811 0.950 . S
H1808 C1804 0.950 . S
C1809 C1807 1.390 1_564 S
C1809 C1810 1.387 . S
C1809 H1812 0.950 . S
C1810 C1809 1.387 . S
C1810 C1813 1.387 . S
H1811 C1807 0.950 . S
H1812 C1809 0.950 . S
C1813 C1804 1.390 1_564 S
C1813 H1806 0.950 . S
C1813 C1810 1.387 . S
C1814 C1815 1.387 . S
C1814 H1818 0.950 . S
C1814 C1823 1.390 . S
C1815 C1814 1.387 . S
C1815 C1817 1.387 . S
H1816 C1823 0.950 . S
C1817 C1815 1.387 . S
C1817 C1819 1.390 . S
C1817 H1821 0.950 . S
H1818 C1814 0.950 . S
C1819 C1817 1.390 . S
C1819 C1820 1.387 . S
C1819 H1822 0.950 . S
C1820 C1819 1.387 . S
C1820 C1823 1.387 . S
H1821 C1817 0.950 . S
H1822 C1819 0.950 . S
C1823 C1814 1.390 . S
C1823 H1816 0.950 . S
C1823 C1820 1.387 . S
C1345 C58 1.500 . S
C1350 C70 1.500 . S
C1355 C142 1.473 . S
C1360 C154 1.468 . S
C1365 C226 1.472 . S
C1370 C238 1.472 . S
C1375 C322 1.477 . S
C1380 C310 1.477 . S
C1385 C406 1.472 . S
C1390 C394 1.472 . S
C1395 C490 1.460 . S
C1400 C478 1.460 . S
C1405 C562 1.480 . S
C1410 C574 1.480 . S
C1415 C658 1.495 . S
C1420 C646 1.495 . S
C1425 C730 1.501 . S
C1430 C742 1.501 . S
C1435 C814 1.472 . S
C1440 C826 1.472 . S
C1445 C910 1.464 . S
C1450 C898 1.464 . S
C1455 C982 1.475 . S
C1460 C994 1.475 . S
C1465 C1066 1.466 . S
C1470 C1078 1.466 . S
C1475 C1162 1.465 . S
C1480 C1150 1.465 . S
C1485 C1246 1.472 . S
C1490 C1234 1.472 . S
C1495 C1330 1.487 . S
C1500 C1318 1.487 . S
C1505 C67 1.764 . S
C1510 C979 1.765 . S
C1515 C151 1.769 . S
C1520 C1315 1.771 . S
C1525 C235 1.774 . S
C1530 C812 1.721 . S
C1535 C320 1.725 . S
C1540 C1147 1.788 . S
C1545 C404 1.708 . S
C1550 C1148 1.717 . S
C1555 C980 1.709 . S
C1560 C487 1.768 . S
C1565 C571 1.768 . S
C1570 C1316 1.711 . S
C1575 C656 1.719 . S
C1580 C811 1.774 . S
C1585 C319 1.779 . S
C1590 C728 1.718 . S
C1595 C152 1.707 . S
C1600 C896 1.709 . S
C1605 C1064 1.727 . S
C1610 C488 1.727 . S
C1615 C655 1.772 . S
C1620 C1231 1.773 . S
C1625 C727 1.779 . S
C1630 C403 1.780 . S
C1635 C572 1.724 . S
C1640 C895 1.783 . S
C1645 C236 1.725 . S
C1650 C1232 1.715 . S
C1655 C68 1.728 . S
C1660 C1063 1.781 . S
C1665 C55 1.660 . S
C1670 C392 1.700 . S
C1675 C139 1.679 . S
C1680 C475 1.679 . S
C1685 C223 1.673 . S
C1690 C559 1.673 . S
C1695 C308 1.723 . S
C1700 C644 1.723 . S
C1705 C1076 1.723 . S
C1710 C740 1.723 . S
C1715 C1159 1.680 . S
C1720 C823 1.678 . S
C1725 C908 1.732 . S
C1730 C1243 1.693 . S
C1735 C1327 1.656 . S
C1740 C992 1.696 . S
C1745 C140 1.697 . S
C1750 C643 1.659 . S
C1755 C391 1.698 . S
C1760 C224 1.739 . S
C1765 C476 1.732 . S
C1770 C307 1.694 . S
C1775 C56 1.721 . S
C1780 C560 1.720 . S
C1785 C1328 1.722 . S
C1790 C824 1.722 . S
C1795 C1075 1.697 . S
C1800 C907 1.696 . S
C1805 C1160 1.713 . S
C1810 C991 1.674 . S
C1815 C1244 1.698 . S
C1820 C739 1.659 . S
