# Generated by pormake.
# Topology fnj, (5)-cn, num edge types: 1
# Building blocks:
#     Node 0, Type 0, BuildingBlock: XOMCOT_clean_sbu_1, # of connection points: 5
#     Node 1, Type 0, BuildingBlock: XOMCOT_clean_sbu_1, # of connection points: 5
#     Node 2, Type 0, BuildingBlock: XOMCOT_clean_sbu_1, # of connection points: 5
#     Node 3, Type 0, BuildingBlock: XOMCOT_clean_sbu_1, # of connection points: 5
#     Node 4, Type 0, BuildingBlock: XOMCOT_clean_sbu_1, # of connection points: 5
#     Node 5, Type 0, BuildingBlock: XOMCOT_clean_sbu_1, # of connection points: 5
#     Node 6, Type 0, BuildingBlock: XOMCOT_clean_sbu_1, # of connection points: 5
#     Node 7, Type 0, BuildingBlock: XOMCOT_clean_sbu_1, # of connection points: 5
#     Node 8, Type 0, BuildingBlock: XOMCOT_clean_sbu_1, # of connection points: 5
#     Node 9, Type 0, BuildingBlock: XOMCOT_clean_sbu_1, # of connection points: 5
#     Node 10, Type 0, BuildingBlock: XOMCOT_clean_sbu_1, # of connection points: 5
#     Node 11, Type 0, BuildingBlock: XOMCOT_clean_sbu_1, # of connection points: 5
#     Node 12, Type 0, BuildingBlock: XOMCOT_clean_sbu_1, # of connection points: 5
#     Node 13, Type 0, BuildingBlock: XOMCOT_clean_sbu_1, # of connection points: 5
#     Node 14, Type 0, BuildingBlock: XOMCOT_clean_sbu_1, # of connection points: 5
#     Node 15, Type 0, BuildingBlock: XOMCOT_clean_sbu_1, # of connection points: 5
#     Edge 16, Type (0, 0), BuildingBlock: EZIPEK_clean_linker_0, # of connection points: 2
#     Edge 17, Type (0, 0), BuildingBlock: EZIPEK_clean_linker_0, # of connection points: 2
#     Edge 18, Type (0, 0), BuildingBlock: EZIPEK_clean_linker_0, # of connection points: 2
#     Edge 19, Type (0, 0), BuildingBlock: EZIPEK_clean_linker_0, # of connection points: 2
#     Edge 20, Type (0, 0), BuildingBlock: EZIPEK_clean_linker_0, # of connection points: 2
#     Edge 21, Type (0, 0), BuildingBlock: EZIPEK_clean_linker_0, # of connection points: 2
#     Edge 22, Type (0, 0), BuildingBlock: EZIPEK_clean_linker_0, # of connection points: 2
#     Edge 23, Type (0, 0), BuildingBlock: EZIPEK_clean_linker_0, # of connection points: 2
#     Edge 24, Type (0, 0), BuildingBlock: EZIPEK_clean_linker_0, # of connection points: 2
#     Edge 25, Type (0, 0), BuildingBlock: EZIPEK_clean_linker_0, # of connection points: 2
#     Edge 26, Type (0, 0), BuildingBlock: EZIPEK_clean_linker_0, # of connection points: 2
#     Edge 27, Type (0, 0), BuildingBlock: EZIPEK_clean_linker_0, # of connection points: 2
#     Edge 28, Type (0, 0), BuildingBlock: EZIPEK_clean_linker_0, # of connection points: 2
#     Edge 29, Type (0, 0), BuildingBlock: EZIPEK_clean_linker_0, # of connection points: 2
#     Edge 30, Type (0, 0), BuildingBlock: EZIPEK_clean_linker_0, # of connection points: 2
#     Edge 31, Type (0, 0), BuildingBlock: EZIPEK_clean_linker_0, # of connection points: 2
#     Edge 32, Type (0, 0), BuildingBlock: EZIPEK_clean_linker_0, # of connection points: 2
#     Edge 33, Type (0, 0), BuildingBlock: EZIPEK_clean_linker_0, # of connection points: 2
#     Edge 34, Type (0, 0), BuildingBlock: EZIPEK_clean_linker_0, # of connection points: 2
#     Edge 35, Type (0, 0), BuildingBlock: EZIPEK_clean_linker_0, # of connection points: 2
#     Edge 36, Type (0, 0), BuildingBlock: EZIPEK_clean_linker_0, # of connection points: 2
#     Edge 37, Type (0, 0), BuildingBlock: EZIPEK_clean_linker_0, # of connection points: 2
#     Edge 38, Type (0, 0), BuildingBlock: EZIPEK_clean_linker_0, # of connection points: 2
#     Edge 39, Type (0, 0), BuildingBlock: EZIPEK_clean_linker_0, # of connection points: 2
#     Edge 40, Type (0, 0), BuildingBlock: EZIPEK_clean_linker_0, # of connection points: 2
#     Edge 41, Type (0, 0), BuildingBlock: EZIPEK_clean_linker_0, # of connection points: 2
#     Edge 42, Type (0, 0), BuildingBlock: EZIPEK_clean_linker_0, # of connection points: 2
#     Edge 43, Type (0, 0), BuildingBlock: EZIPEK_clean_linker_0, # of connection points: 2
#     Edge 44, Type (0, 0), BuildingBlock: EZIPEK_clean_linker_0, # of connection points: 2
#     Edge 45, Type (0, 0), BuildingBlock: EZIPEK_clean_linker_0, # of connection points: 2
#     Edge 46, Type (0, 0), BuildingBlock: EZIPEK_clean_linker_0, # of connection points: 2
#     Edge 47, Type (0, 0), BuildingBlock: EZIPEK_clean_linker_0, # of connection points: 2
#     Edge 48, Type (0, 0), BuildingBlock: EZIPEK_clean_linker_0, # of connection points: 2
#     Edge 49, Type (0, 0), BuildingBlock: EZIPEK_clean_linker_0, # of connection points: 2
#     Edge 50, Type (0, 0), BuildingBlock: EZIPEK_clean_linker_0, # of connection points: 2
#     Edge 51, Type (0, 0), BuildingBlock: EZIPEK_clean_linker_0, # of connection points: 2
#     Edge 52, Type (0, 0), BuildingBlock: EZIPEK_clean_linker_0, # of connection points: 2
#     Edge 53, Type (0, 0), BuildingBlock: EZIPEK_clean_linker_0, # of connection points: 2
#     Edge 54, Type (0, 0), BuildingBlock: EZIPEK_clean_linker_0, # of connection points: 2
#     Edge 55, Type (0, 0), BuildingBlock: EZIPEK_clean_linker_0, # of connection points: 2
# Relax obj value: 0.170
# Max RMSD: 0.163
# Mean RMSD: 0.159
data_MOF--net-fnj--node1-XOMCOT_clean_sbu_1--edge1-EZIPEK_clean_linker_0
_symmetry_space_group_name_H-M    P1
_symmetry_Int_Tables_number       1
_symmetry_cell_setting            triclinic
loop_
_symmetry_equiv_pos_as_xyz
'x, y, z'
_cell_length_a     56.649091
_cell_length_b     56.542678
_cell_length_c     13.523753
_cell_angle_alpha  93.464712
_cell_angle_beta   93.331784
_cell_angle_gamma 91.247644
loop_
_atom_site_label
_atom_site_type_symbol
_atom_site_fract_x
_atom_site_fract_y
_atom_site_fract_z
_atom_type_partial_charge
C0 C 0.44158 0.02952 0.25291 0.0
C1 C 0.44439 0.02997 0.35496 0.0
N2 N 0.43373 0.04926 0.39262 0.0
N3 N 0.42947 0.04864 0.22542 0.0
C4 C 0.42517 0.06039 0.31307 0.0
H5 H 0.44724 0.01546 0.20267 0.0
Co6 Co 0.41913 0.05622 0.09352 0.0
C7 C 0.37889 0.08607 0.15879 0.0
O8 O 0.36405 0.0708 0.11098 0.0
N9 N 0.40861 0.06513 0.95959 0.0
C10 C 0.38684 0.06681 0.81639 0.0
C11 C 0.38633 0.06429 0.91646 0.0
C12 C 0.42214 0.06929 0.88198 0.0
N13 N 0.40946 0.06929 0.79399 0.0
O14 O 0.44833 0.07257 0.08214 0.0
H15 H 0.37066 0.05869 0.95034 0.0
H16 H 0.44112 0.07113 0.88773 0.0
O17 O 0.40136 0.08361 0.15367 0.0
C18 C 0.45916 0.05403 0.04923 0.0
O19 O 0.44783 0.03345 0.04087 0.0
N20 N 0.3944 0.03452 0.09533 0.0
C21 C 0.36279 0.99692 0.06837 0.0
C22 C 0.3644 0.0103 0.15903 0.0
C23 C 0.38101 0.02898 0.1719 0.0
C24 C 0.39506 0.01923 0.01383 0.0
C25 C 0.37875 1.00099 0.99669 0.0
H26 H 0.38308 0.03889 0.24204 0.0
H27 H 0.40805 0.02143 0.95972 0.0
H28 H 0.41506 0.07631 0.31988 0.0
H29 H 0.45234 0.01644 0.39836 0.0
H30 H 0.37199 0.06397 0.76252 0.0
H31 H 0.35291 1.00651 0.21768 0.0
H32 H 0.3786 0.99012 0.92776 0.0
C33 C 0.28133 0.2076 0.48446 0.0
C34 C 0.28262 0.21085 0.5865 0.0
N35 N 0.26048 0.21254 0.61697 0.0
N36 N 0.25842 0.20659 0.4503 0.0
C37 C 0.2463 0.21125 0.53265 0.0
H38 H 0.29613 0.20493 0.43833 0.0
Co39 Co 0.24725 0.20075 0.31498 0.0
C40 C 0.21253 0.1666 0.42447 0.0
O41 O 0.22543 0.16851 0.50822 0.0
N42 N 0.23588 0.19636 0.17861 0.0
C43 C 0.21919 0.18072 0.03523 0.0
C44 C 0.22082 0.17923 0.13675 0.0
C45 C 0.24277 0.2083 0.10031 0.0
N46 N 0.23322 0.19884 0.0123 0.0
O47 O 0.23247 0.23184 0.32211 0.0
H48 H 0.21254 0.16552 0.1761 0.0
H49 H 0.25611 0.22238 0.10666 0.0
O50 O 0.21841 0.17928 0.352 0.0
C51 C 0.25017 0.24557 0.30461 0.0
O52 O 0.27061 0.23576 0.29035 0.0
N53 N 0.26674 0.17346 0.30108 0.0
C54 C 0.30641 0.14453 0.28734 0.0
C55 C 0.29302 0.14511 0.3719 0.0
C56 C 0.27273 0.15897 0.37556 0.0
C57 C 0.27995 0.17304 0.21939 0.0
C58 C 0.29879 0.15794 0.20886 0.0
H59 H 0.26355 0.15985 0.44292 0.0
H60 H 0.27752 0.18567 0.16403 0.0
H61 H 0.22723 0.2122 0.5316 0.0
H62 H 0.29845 0.21027 0.63506 0.0
H63 H 0.20976 0.1684 0.98173 0.0
H64 H 0.29849 0.13539 0.43555 0.0
H65 H 0.30853 0.1582 0.14227 0.0
C66 C 0.10374 0.01965 0.34607 0.0
C67 C 0.10239 0.01892 0.24412 0.0
N68 N 0.10074 0.04125 0.21642 0.0
N69 N 0.10329 0.04242 0.38276 0.0
C70 C 0.10075 0.05512 0.30125 0.0
H71 H 0.10522 1.00438 0.38997 0.0
Co72 Co 0.10559 0.05332 0.51782 0.0
C73 C 0.14134 0.08828 0.42508 0.0
O74 O 0.14742 0.07182 0.35956 0.0
N75 N 0.10747 0.06447 0.65217 0.0
C76 C 0.1088 0.08929 0.78714 0.0
C77 C 0.10902 0.08754 0.68527 0.0
C78 C 0.10601 0.05256 0.73563 0.0
N79 N 0.10678 0.06727 0.81807 0.0
O80 O 0.07406 0.06739 0.5033 0.0
H81 H 0.10963 0.10234 0.63845 0.0
H82 H 0.10369 0.03357 0.73679 0.0
O83 O 0.12557 0.08319 0.48683 0.0
C84 C 0.0594 0.04976 0.51104 0.0
O85 O 0.0678 0.02836 0.50977 0.0
N86 N 0.13216 0.03434 0.54122 0.0
C87 C 0.15982 0.99658 0.59825 0.0
C88 C 0.17043 0.01696 0.56289 0.0
C89 C 0.15611 0.0358 0.53374 0.0
C90 C 0.12211 0.01433 0.5739 0.0
C91 C 0.13542 0.99541 0.60225 0.0
H92 H 0.16435 0.05118 0.5064 0.0
H93 H 0.1033 0.01301 0.57945 0.0
H94 H 0.09975 0.07423 0.30376 0.0
H95 H 0.10332 1.00333 0.19406 0.0
H96 H 0.10952 0.10542 0.83474 0.0
H97 H 0.18944 0.01838 0.55932 0.0
H98 H 0.12665 0.98008 0.62959 0.0
C99 C 0.26794 0.86266 0.64737 0.0
C100 C 0.26758 0.86063 0.54553 0.0
N101 N 0.24521 0.86341 0.50975 0.0
N102 N 0.24601 0.86746 0.67582 0.0
C103 C 0.23239 0.86685 0.59038 0.0
H104 H 0.28349 0.86212 0.69747 0.0
Co105 Co 0.23827 0.87629 0.80594 0.0
C106 C 0.21408 0.92253 0.7591 0.0
O107 O 0.23214 0.93492 0.80054 0.0
N108 N 0.23046 0.88531 0.94026 0.0
C109 C 0.23282 0.90572 0.08712 0.0
C110 C 0.23407 0.90706 0.98728 0.0
C111 C 0.22616 0.87121 0.01549 0.0
N112 N 0.22807 0.88314 0.10554 0.0
O113 O 0.21602 0.85025 0.80009 0.0
H114 H 0.2407 0.92255 0.95537 0.0
H115 H 0.2238 0.85225 1.00642 0.0
O116 O 0.21427 0.89966 0.75478 0.0
C117 C 0.23123 0.8349 0.8259 0.0
O118 O 0.2532 0.84206 0.849 0.0
N119 N 0.26362 0.89757 0.81662 0.0
C120 C 0.30147 0.92685 0.87456 0.0
C121 C 0.28966 0.92926 0.78178 0.0
C122 C 0.27084 0.91357 0.75219 0.0
C123 C 0.27825 0.89224 0.89529 0.0
C124 C 0.2968 0.90724 0.92808 0.0
H125 H 0.26095 0.91544 0.68231 0.0
H126 H 0.27431 0.87737 0.93849 0.0
H127 H 0.21368 0.87005 0.58678 0.0
H128 H 0.28274 0.85838 0.50098 0.0
H129 H 0.23697 0.91998 0.14297 0.0
H130 H 0.29388 0.94382 0.73687 0.0
H131 H 0.30643 0.90437 0.99779 0.0
C132 C 0.60396 0.07447 0.8048 0.0
C133 C 0.6027 0.07468 0.70281 0.0
N134 N 0.59763 0.05246 0.6654 0.0
N135 N 0.5998 0.05215 0.83117 0.0
C136 C 0.59565 0.03922 0.74427 0.0
H137 H 0.60783 0.0896 0.85644 0.0
Co138 Co 0.59915 0.04141 0.96016 0.0
C139 C 0.63452 1.00407 0.95981 0.0
O140 O 0.64125 0.01256 0.04992 0.0
N141 N 0.59774 0.02958 0.09029 0.0
C142 C 0.58968 1.00365 0.20355 0.0
C143 C 0.59096 1.00691 0.10383 0.0
C144 C 0.6001 0.03972 0.18422 0.0
N145 N 0.59539 0.02441 0.25323 0.0
O146 O 0.56834 0.02859 0.93147 0.0
H147 H 0.58679 0.99357 0.0443 0.0
H148 H 0.60423 0.05813 0.20419 0.0
O149 O 0.61629 0.01265 0.915 0.0
C150 C 0.5562 0.04725 0.9464 0.0
O151 O 0.56692 0.06814 0.95095 0.0
N152 N 0.62691 0.05782 0.99397 0.0
C153 C 0.6623 0.08708 0.08242 0.0
C154 C 0.66722 0.07127 1.00251 0.0
C155 C 0.64895 0.05652 0.95856 0.0
C156 C 0.62145 0.07599 0.05762 0.0
C157 C 0.63902 0.08942 0.10934 0.0
H158 H 0.65246 0.04425 0.89732 0.0
H159 H 0.60322 0.0791 0.07247 0.0
H160 H 0.59165 0.02036 0.73877 0.0
H161 H 0.60583 0.08978 0.65934 0.0
H162 H 0.58454 0.98754 0.2369 0.0
H163 H 0.68488 0.0701 0.97624 0.0
H164 H 0.63431 0.10205 0.16799 0.0
C165 C 0.74379 0.86841 0.5839 0.0
C166 C 0.74191 0.86761 0.48204 0.0
N167 N 0.75549 0.88529 0.45292 0.0
N168 N 0.7586 0.88651 0.61928 0.0
C169 C 0.76538 0.89646 0.53649 0.0
H170 H 0.73485 0.85634 0.6289 0.0
Co171 Co 0.76782 0.89313 0.75575 0.0
C172 C 0.80196 0.93207 0.68753 0.0
O173 O 0.78371 0.94518 0.66703 0.0
N174 N 0.77749 0.89869 0.89038 0.0
C175 C 0.79976 0.90586 0.03047 0.0
C176 C 0.79951 0.90482 0.92873 0.0
C177 C 0.76473 0.89581 0.97044 0.0
N178 N 0.77796 0.89996 0.05626 0.0
O179 O 0.78138 0.86121 0.75903 0.0
H180 H 0.81478 0.9076 0.88627 0.0
H181 H 0.74632 0.8901 0.96609 0.0
O182 O 0.79845 0.91096 0.71784 0.0
C183 C 0.76475 0.84804 0.79065 0.0
O184 O 0.74503 0.8583 0.81343 0.0
N185 N 0.7494 0.92108 0.76156 0.0
C186 C 0.71312 0.95118 0.81637 0.0
C187 C 0.70851 0.93205 0.74792 0.0
C188 C 0.72665 0.91703 0.72337 0.0
C189 C 0.75442 0.94053 0.82557 0.0
C190 C 0.73646 0.95586 0.85394 0.0
H191 H 0.72153 0.90091 0.68082 0.0
H192 H 0.77197 0.94341 0.86038 0.0
H193 H 0.77772 0.91114 0.53566 0.0
H194 H 0.73194 0.8547 0.43298 0.0
H195 H 0.81499 0.90949 0.08169 0.0
H196 H 0.69058 0.92772 0.71905 0.0
H197 H 0.74052 0.97049 0.90814 0.0
C198 C 0.91653 0.07021 0.73859 0.0
C199 C 0.91669 0.07083 0.84064 0.0
N200 N 0.9151 0.04841 0.86762 0.0
N201 N 0.91466 0.04745 0.7016 0.0
C202 C 0.91411 0.03456 0.78263 0.0
H203 H 0.91764 0.08545 0.69448 0.0
Co204 Co 0.91272 0.03635 0.56745 0.0
C205 C 0.87503 0.99562 0.56587 0.0
O206 O 0.86613 1.00194 0.47984 0.0
N207 N 0.91123 0.0248 0.43305 0.0
C208 C 0.9134 0.99967 0.30032 0.0
C209 C 0.9137 1.00184 0.40232 0.0
C210 C 0.91043 0.03637 0.34801 0.0
N211 N 0.91162 0.02148 0.26669 0.0
O212 O 0.94459 0.02308 0.5834 0.0
H213 H 0.91629 0.9876 0.45134 0.0
H214 H 0.90986 0.05538 0.34464 0.0
O215 O 0.89366 1.00689 0.60626 0.0
C216 C 0.9587 0.04087 0.5711 0.0
O217 O 0.9496 0.06183 0.56464 0.0
N218 N 0.88564 0.05454 0.54575 0.0
C219 C 0.8572 0.09295 0.50523 0.0
C220 C 0.84739 0.0724 0.54266 0.0
C221 C 0.8622 0.05335 0.56479 0.0
C222 C 0.89496 0.07469 0.51163 0.0
C223 C 0.88132 0.09395 0.49189 0.0
H224 H 0.85486 0.03814 0.59768 0.0
H225 H 0.91349 0.07603 0.49957 0.0
H226 H 0.91286 0.01541 0.77988 0.0
H227 H 0.91779 0.08647 0.89117 0.0
H228 H 0.91538 0.98354 0.25454 0.0
H229 H 0.82871 0.07121 0.55504 0.0
H230 H 0.88959 0.1095 0.46419 0.0
C231 C 0.74628 0.22211 0.50448 0.0
C232 C 0.7453 0.22367 0.60622 0.0
N233 N 0.76758 0.22358 0.64629 0.0
N234 N 0.76908 0.22066 0.48103 0.0
C235 C 0.78168 0.22217 0.56924 0.0
H236 H 0.73132 0.22129 0.45084 0.0
Co237 Co 0.77979 0.21668 0.35261 0.0
C238 C 0.8101 0.17528 0.36395 0.0
O239 O 0.79877 0.16813 0.2794 0.0
N240 N 0.79117 0.21414 0.2205 0.0
C241 C 0.8158 0.21175 0.09657 0.0
C242 C 0.81386 0.21071 0.19729 0.0
C243 C 0.78029 0.21941 0.13251 0.0
N244 N 0.79456 0.21715 0.05646 0.0
O245 O 0.79658 0.24611 0.37237 0.0
H246 H 0.82844 0.20828 0.25047 0.0
H247 H 0.76265 0.22607 0.12337 0.0
O248 O 0.80622 0.19618 0.40278 0.0
C249 C 0.77985 0.25887 0.33855 0.0
O250 O 0.75921 0.24867 0.31136 0.0
N251 N 0.76009 0.18977 0.33037 0.0
C252 C 0.72967 0.1516 0.28138 0.0
C253 C 0.74306 0.15268 0.37166 0.0
C254 C 0.7584 0.17209 0.39479 0.0
C255 C 0.74465 0.19013 0.25017 0.0
C256 C 0.73064 0.17059 0.22012 0.0
H257 H 0.76878 0.17299 0.46431 0.0
H258 H 0.74227 0.2059 0.2116 0.0
H259 H 0.80077 0.22163 0.57711 0.0
H260 H 0.72951 0.22403 0.64765 0.0
H261 H 0.83158 0.20922 0.05618 0.0
H262 H 0.74161 0.13885 0.42317 0.0
H263 H 0.7194 0.17098 0.15257 0.0
C264 C 0.94104 0.53747 0.80197 0.0
C265 C 0.9423 0.53806 0.90407 0.0
N266 N 0.92549 0.55246 0.93658 0.0
N267 N 0.92353 0.55154 0.76981 0.0
C268 C 0.91449 0.56046 0.85454 0.0
H269 H 0.95186 0.5267 0.75526 0.0
Co270 Co 0.91245 0.55578 0.63729 0.0
C271 C 0.89919 0.60955 0.69927 0.0
O272 O 0.91603 0.62599 0.70611 0.0
N273 N 0.90108 0.5604 0.50328 0.0
C274 C 0.87706 0.56423 0.36794 0.0
C275 C 0.87832 0.56285 0.46928 0.0
C276 C 0.91329 0.56109 0.41993 0.0
N277 N 0.89912 0.56305 0.33741 0.0
O278 O 0.94377 0.5648 0.60448 0.0
H279 H 0.86328 0.56331 0.51448 0.0
H280 H 0.93219 0.56008 0.41794 0.0
O281 O 0.90421 0.58815 0.67478 0.0
C282 C 0.9547 0.54631 0.57455 0.0
O283 O 0.94374 0.52558 0.57468 0.0
N284 N 0.883 0.54406 0.66524 0.0
C285 C 0.8382 0.52406 0.64179 0.0
C286 C 0.8421 0.54517 0.70024 0.0
C287 C 0.86498 0.555 0.7113 0.0
C288 C 0.87989 0.52193 0.62088 0.0
C289 C 0.85746 0.51164 0.6072 0.0
H290 H 0.86768 0.57184 0.7512 0.0
H291 H 0.89459 0.51335 0.58727 0.0
H292 H 0.8996 0.57195 0.85687 0.0
H293 H 0.9539 0.5279 0.95073 0.0
H294 H 0.86119 0.56531 0.32002 0.0
H295 H 0.82748 0.5548 0.72974 0.0
H296 H 0.85492 0.49501 0.56324 0.0
C297 C 0.78328 0.70803 0.9941 0.0
C298 C 0.78476 0.70873 0.09644 0.0
N299 N 0.76304 0.70405 0.12658 0.0
N300 N 0.76075 0.70284 0.96034 0.0
C301 C 0.74883 0.70067 0.04326 0.0
H302 H 0.79775 0.71098 0.94719 0.0
Co303 Co 0.74969 0.69949 0.82695 0.0
C304 C 0.70999 0.66091 0.83404 0.0
O305 O 0.72064 0.64894 0.76396 0.0
N306 N 0.73837 0.69671 0.69106 0.0
C307 C 0.71406 0.69404 0.55433 0.0
C308 C 0.71548 0.69434 0.65638 0.0
C309 C 0.75032 0.69913 0.60793 0.0
N310 N 0.73602 0.69722 0.52442 0.0
O311 O 0.73647 0.73158 0.83846 0.0
H312 H 0.70049 0.69369 0.70201 0.0
H313 H 0.76903 0.703 0.60716 0.0
O314 O 0.71957 0.68115 0.86696 0.0
C315 C 0.75348 0.74551 0.81534 0.0
O316 O 0.77348 0.73594 0.79268 0.0
N317 N 0.76796 0.67194 0.8113 0.0
C318 C 0.80658 0.64234 0.78782 0.0
C319 C 0.78715 0.63503 0.8402 0.0
C320 C 0.76807 0.65049 0.85325 0.0
C321 C 0.78734 0.67921 0.76499 0.0
C322 C 0.80636 0.6647 0.75046 0.0
H323 H 0.75416 0.64564 0.90012 0.0
H324 H 0.78891 0.69718 0.74426 0.0
H325 H 0.73016 0.69667 0.04344 0.0
H326 H 0.80048 0.71224 0.14494 0.0
H327 H 0.69811 0.69251 0.50598 0.0
H328 H 0.78715 0.61808 0.87338 0.0
H329 H 0.82137 0.67137 0.71336 0.0
C330 C 0.5977 0.52318 0.84251 0.0
C331 C 0.59703 0.52237 0.74032 0.0
N332 N 0.59854 0.54474 0.71241 0.0
N333 N 0.59987 0.54597 0.87867 0.0
C334 C 0.59994 0.55872 0.7971 0.0
H335 H 0.59711 0.50803 0.88746 0.0
Co336 Co 0.60343 0.55692 0.01268 0.0
C337 C 0.64224 0.5965 1.00504 0.0
O338 O 0.65294 0.58849 0.08467 0.0
N339 N 0.60646 0.56828 0.14772 0.0
C340 C 0.60635 0.59323 0.28222 0.0
C341 C 0.60631 0.59138 0.18021 0.0
C342 C 0.60571 0.55645 0.23188 0.0
N343 N 0.60577 0.57121 0.31416 0.0
O344 O 0.57147 0.57037 1.00332 0.0
H345 H 0.60525 0.60604 0.13258 0.0
H346 H 0.60407 0.53744 0.2339 0.0
O347 O 0.6223 0.58647 0.97106 0.0
C348 C 0.55753 0.55271 0.01957 0.0
O349 O 0.56693 0.53191 0.02867 0.0
N350 N 0.63065 0.53853 0.02763 0.0
C351 C 0.6601 0.49982 0.04811 0.0
C352 C 0.6681 0.52025 1.00412 0.0
C353 C 0.65275 0.53933 0.99204 0.0
C354 C 0.62286 0.5185 0.06814 0.0
C355 C 0.63709 0.49912 0.07892 0.0
H356 H 0.65843 0.55402 0.95138 0.0
H357 H 0.60482 0.51696 0.08817 0.0
H358 H 0.6015 0.57785 0.79931 0.0
H359 H 0.59604 0.50663 0.69038 0.0
H360 H 0.60578 0.6094 0.32909 0.0
H361 H 0.68567 0.52109 0.97677 0.0
H362 H 0.63001 0.48346 0.11035 0.0
C363 C 0.79141 0.40335 0.07235 0.0
C364 C 0.79225 0.40161 0.97044 0.0
N365 N 0.77079 0.39445 0.93114 0.0
N366 N 0.76929 0.39781 0.098 0.0
C367 C 0.75747 0.39158 0.00941 0.0
H368 H 0.80632 0.40819 0.12297 0.0
Co369 Co 0.75647 0.3962 0.2262 0.0
C370 C 0.72319 0.42487 0.11277 0.0
O371 O 0.74231 0.43605 0.08781 0.0
N372 N 0.74415 0.39326 0.35188 0.0
C373 C 0.7208 0.38638 0.47464 0.0
C374 C 0.72177 0.38783 0.37342 0.0
C375 C 0.75648 0.39493 0.44108 0.0
N376 N 0.74265 0.39088 0.51674 0.0
O377 O 0.74947 0.36345 0.1955 0.0
H378 H 0.70724 0.38429 0.31882 0.0
H379 H 0.77528 0.39888 0.45038 0.0
O380 O 0.72527 0.40719 0.16852 0.0
C381 C 0.76796 0.35377 0.23188 0.0
O382 O 0.78609 0.36747 0.26519 0.0
N383 N 0.76556 0.42747 0.26785 0.0
C384 C 0.78068 0.46656 0.39069 0.0
C385 C 0.7567 0.46272 0.36568 0.0
C386 C 0.74948 0.44281 0.30572 0.0
C387 C 0.78906 0.43112 0.29259 0.0
C388 C 0.79711 0.45093 0.35221 0.0
H389 H 0.73093 0.43846 0.30002 0.0
H390 H 0.80137 0.41735 0.27665 0.0
H391 H 0.73915 0.38555 1.00206 0.0
H392 H 0.8073 0.40575 0.92825 0.0
H393 H 0.70534 0.38218 0.51429 0.0
H394 H 0.74363 0.47395 0.3986 0.0
H395 H 0.81574 0.45298 0.37488 0.0
C396 C 0.09854 0.57156 0.28828 0.0
C397 C 0.09706 0.57195 0.18632 0.0
N398 N 0.0918 0.54987 0.14828 0.0
N399 N 0.09473 0.54917 0.31526 0.0
C400 C 0.08966 0.53663 0.22722 0.0
H401 H 0.10194 0.587 0.338 0.0
Co402 Co 0.09444 0.53658 0.4446 0.0
C403 C 0.12491 0.5047 0.33154 0.0
O404 O 0.13441 0.52441 0.30325 0.0
N405 N 0.09292 0.52413 0.57026 0.0
C406 C 0.08494 0.50016 0.68955 0.0
C407 C 0.08585 0.50194 0.58857 0.0
C408 C 0.09613 0.53556 0.66123 0.0
N409 N 0.09122 0.52139 0.73481 0.0
O410 O 0.06184 0.52784 0.41865 0.0
H411 H 0.08082 0.48816 0.53187 0.0
H412 H 0.10117 0.55413 0.67318 0.0
O413 O 0.10717 0.50588 0.38743 0.0
C414 C 0.05051 0.54664 0.44057 0.0
O415 O 0.06222 0.56705 0.45052 0.0
N416 N 0.12524 0.5474 0.48185 0.0
C417 C 0.16726 0.56569 0.57238 0.0
C418 C 0.14937 0.58087 0.54321 0.0
C419 C 0.12819 0.57124 0.49996 0.0
C420 C 0.14219 0.53251 0.51617 0.0
C421 C 0.16382 0.54128 0.55742 0.0
H422 H 0.11343 0.58269 0.48933 0.0
H423 H 0.13857 0.51385 0.51829 0.0
H424 H 0.08518 0.51788 0.22068 0.0
H425 H 0.10008 0.58714 0.14328 0.0
H426 H 0.07937 0.48476 0.72682 0.0
H427 H 0.15125 0.59985 0.55937 0.0
H428 H 0.17695 0.52922 0.58458 0.0
C429 C 0.23034 0.38821 0.08658 0.0
C430 C 0.22901 0.38634 0.98452 0.0
N431 N 0.25116 0.38608 0.95411 0.0
N432 N 0.25328 0.38945 0.12075 0.0
C433 C 0.2655 0.38729 0.03769 0.0
H434 H 0.21537 0.38888 0.13244 0.0
Co435 Co 0.26455 0.39289 0.25532 0.0
C436 C 0.29907 0.42817 0.15719 0.0
O437 O 0.28238 0.4341 0.09259 0.0
N438 N 0.27559 0.39581 0.38992 0.0
C439 C 0.29705 0.40489 0.53114 0.0
C440 C 0.2963 0.40558 0.42952 0.0
C441 C 0.26426 0.38892 0.46932 0.0
N442 N 0.27693 0.39438 0.55567 0.0
O443 O 0.27849 0.36116 0.24264 0.0
H444 H 0.31013 0.41301 0.38835 0.0
H445 H 0.24692 0.38041 0.46446 0.0
O446 O 0.29442 0.41224 0.21905 0.0
C447 C 0.26096 0.3466 0.25333 0.0
O448 O 0.23991 0.35538 0.26167 0.0
N449 N 0.24588 0.41993 0.27566 0.0
C450 C 0.20611 0.44781 0.29893 0.0
C451 C 0.22745 0.45788 0.27015 0.0
C452 C 0.24737 0.44354 0.25932 0.0
C453 C 0.22568 0.41074 0.31008 0.0
C454 C 0.20567 0.42409 0.32082 0.0
H455 H 0.26344 0.45147 0.23681 0.0
H456 H 0.2245 0.39229 0.32461 0.0
H457 H 0.28455 0.38723 0.03802 0.0
H458 H 0.21307 0.38608 0.93618 0.0
H459 H 0.3111 0.41184 0.58327 0.0
H460 H 0.22849 0.4764 0.25422 0.0
H461 H 0.18968 0.41571 0.34391 0.0
C462 C 0.41554 0.56988 0.24234 0.0
C463 C 0.41592 0.57062 0.34445 0.0
N464 N 0.41402 0.54824 0.37182 0.0
N465 N 0.41316 0.54713 0.20595 0.0
C466 C 0.41262 0.53432 0.28707 0.0
H467 H 0.41654 0.58502 0.19748 0.0
Co468 Co 0.41009 0.53651 0.07219 0.0
C469 C 0.37197 0.49659 0.07153 0.0
O470 O 0.362 0.50559 0.9926 0.0
N471 N 0.40766 0.52539 0.93693 0.0
C472 C 0.40953 0.50004 0.80459 0.0
C473 C 0.40977 0.50236 0.90646 0.0
C474 C 0.4073 0.53687 0.85163 0.0
N475 N 0.40832 0.52183 0.77057 0.0
O476 O 0.44242 0.52395 0.08243 0.0
H477 H 0.41249 0.48818 0.95565 0.0
H478 H 0.40734 0.55588 0.84781 0.0
O479 O 0.39168 0.50622 0.11032 0.0
C480 C 0.45571 0.5418 0.06248 0.0
O481 O 0.44545 0.56191 0.04671 0.0
N482 N 0.38235 0.5542 0.05828 0.0
C483 C 0.35278 0.59329 0.05867 0.0
C484 C 0.34584 0.57224 0.10097 0.0
C485 C 0.3613 0.55302 0.10274 0.0
C486 C 0.38898 0.57457 0.01729 0.0
C487 C 0.37469 0.59416 0.01692 0.0
H488 H 0.35686 0.53806 0.14442 0.0
H489 H 0.4065 0.5765 0.99161 0.0
H490 H 0.41095 0.51519 0.28455 0.0
H491 H 0.41717 0.5863 0.3947 0.0
H492 H 0.41142 0.48383 0.75925 0.0
H493 H 0.32924 0.57116 0.13647 0.0
H494 H 0.38107 0.61024 0.98651 0.0
C495 C 0.22044 0.69611 0.09212 0.0
C496 C 0.21934 0.69763 0.19375 0.0
N497 N 0.24137 0.70149 0.23402 0.0
N498 N 0.24323 0.6982 0.06778 0.0
C499 C 0.25534 0.70263 0.15697 0.0
H500 H 0.20519 0.69453 0.04062 0.0
Co501 Co 0.25556 0.69916 0.93891 0.0
C502 C 0.29025 0.67073 0.04842 0.0
O503 O 0.27159 0.65969 0.07874 0.0
N504 N 0.26732 0.70143 0.81254 0.0
C505 C 0.28994 0.70961 0.68911 0.0
C506 C 0.28921 0.70849 0.79042 0.0
C507 C 0.255 0.69846 0.72365 0.0
N508 N 0.26842 0.70328 0.64768 0.0
O509 O 0.26208 0.73212 0.96575 0.0
H510 H 0.30337 0.71377 0.84473 0.0
H511 H 0.23643 0.69339 0.71492 0.0
O512 O 0.28724 0.68848 0.99362 0.0
C513 C 0.24299 0.74092 0.93001 0.0
O514 O 0.22544 0.72639 0.89741 0.0
N515 N 0.24659 0.66779 0.90215 0.0
C516 C 0.22995 0.62578 0.80537 0.0
C517 C 0.2542 0.63011 0.82023 0.0
C518 C 0.26213 0.65176 0.86519 0.0
C519 C 0.2229 0.66374 0.88586 0.0
C520 C 0.21414 0.64258 0.83939 0.0
H521 H 0.28056 0.65628 0.86276 0.0
H522 H 0.21077 0.67776 0.89928 0.0
H523 H 0.27415 0.70653 0.16588 0.0
H524 H 0.20362 0.69611 0.235 0.0
H525 H 0.30488 0.7152 0.64905 0.0
H526 H 0.2667 0.61778 0.79014 0.0
H527 H 0.19523 0.63997 0.82421 0.0
C528 C 0.41289 0.0412 0.64846 0.0
C529 C 0.41796 0.06389 0.69634 0.0
C530 C 0.43654 0.07598 0.54673 0.0
C531 C 0.42851 0.05437 0.49529 0.0
N532 N 0.40401 0.01894 0.4921 0.0
N533 N 0.43295 0.10372 0.6898 0.0
C534 C 0.41536 0.03761 0.5449 0.0
C535 C 0.42945 0.08154 0.64516 0.0
N536 N 0.40622 0.02286 0.70269 0.0
N537 N 0.45143 0.09078 0.50234 0.0
H538 H 0.42818 0.10794 0.76203 0.0
H539 H 0.4391 0.11814 0.65346 0.0
H540 H 0.45711 0.08687 0.43131 0.0
H541 H 0.4596 0.10583 0.53856 0.0
H542 H 0.40433 1.00542 0.67322 0.0
H543 H 0.40521 0.02466 0.77946 0.0
H544 H 0.39239 1.00738 0.52334 0.0
H545 H 0.40402 0.01661 0.41504 0.0
C546 C 0.23384 0.22367 0.86633 0.0
C547 C 0.2408 0.20307 0.91417 0.0
C548 C 0.25826 0.18782 0.76188 0.0
C549 C 0.25334 0.20935 0.71674 0.0
N550 N 0.23891 0.24894 0.72899 0.0
N551 N 0.26406 0.16801 0.915 0.0
C552 C 0.24177 0.22765 0.76996 0.0
C553 C 0.25433 0.18588 0.86398 0.0
N554 N 0.21902 0.23896 0.91203 0.0
N555 N 0.26563 0.16878 0.70587 0.0
H556 H 0.26203 0.16644 0.99047 0.0
H557 H 0.27606 0.15627 0.88512 0.0
H558 H 0.26771 0.16917 0.62995 0.0
H559 H 0.26722 0.15193 0.73228 0.0
H560 H 0.2115 0.2533 0.87837 0.0
H561 H 0.21289 0.23614 0.98172 0.0
H562 H 0.23258 0.26384 0.76693 0.0
H563 H 0.24454 0.25211 0.65876 0.0
C564 C 0.12445 0.04829 0.07319 0.0
C565 C 0.10231 0.04872 0.11705 0.0
C566 C 0.08328 0.06253 0.96426 0.0
C567 C 0.10517 0.06086 0.91886 0.0
N568 N 0.14607 0.05057 0.92375 0.0
N569 N 0.0604 0.05407 0.10561 0.0
C570 C 0.12563 0.05326 0.97171 0.0
C571 C 0.08163 0.05538 0.06295 0.0
N572 N 0.14437 0.04378 0.13009 0.0
N573 N 0.06422 0.07107 0.91248 0.0
H574 H 0.05895 0.04905 0.17806 0.0
H575 H 0.04415 0.05666 0.06855 0.0
H576 H 0.06486 0.0756 0.83904 0.0
H577 H 0.04814 0.07474 0.94274 0.0
H578 H 0.16145 0.04531 0.10645 0.0
H579 H 0.14393 0.03991 0.20436 0.0
H580 H 0.16111 0.04278 0.95378 0.0
H581 H 0.1476 0.05505 0.85064 0.0
C582 C 0.22541 0.88636 0.37889 0.0
C583 C 0.23779 0.86609 0.40705 0.0
C584 C 0.24351 0.85563 0.23185 0.0
C585 C 0.22866 0.87442 0.20403 0.0
N586 N 0.19929 0.90219 0.25347 0.0
N587 N 0.25259 0.82784 0.35741 0.0
C588 C 0.21733 0.88773 0.27867 0.0
C589 C 0.24471 0.84942 0.33235 0.0
N590 N 0.2234 0.90542 0.44437 0.0
N591 N 0.25806 0.84508 0.16634 0.0
H592 H 0.25289 0.82263 0.4302 0.0
H593 H 0.25623 0.81442 0.30458 0.0
H594 H 0.25995 0.85064 0.0953 0.0
H595 H 0.27046 0.83268 0.18713 0.0
H596 H 0.21628 0.92132 0.42299 0.0
H597 H 0.23147 0.9065 0.51572 0.0
H598 H 0.18961 0.91121 0.30646 0.0
H599 H 0.1925 0.90289 0.18027 0.0
C600 C 0.57484 0.04058 0.50835 0.0
C601 C 0.59693 0.0442 0.56238 0.0
C602 C 0.61768 0.03191 0.41424 0.0
C603 C 0.59571 0.02987 0.35867 0.0
N604 N 0.55362 0.03436 0.3469 0.0
N605 N 0.63941 0.04532 0.56836 0.0
C606 C 0.57429 0.03462 0.40433 0.0
C607 C 0.61839 0.04038 0.51565 0.0
N608 N 0.5545 0.04287 0.5572 0.0
N609 N 0.63773 0.02522 0.36965 0.0
H610 H 0.64042 0.0506 0.64374 0.0
H611 H 0.65576 0.0453 0.53716 0.0
H612 H 0.63751 0.01905 0.29528 0.0
H613 H 0.65421 0.0242 0.40704 0.0
H614 H 0.53774 0.03839 0.52511 0.0
H615 H 0.55456 0.0481 0.63254 0.0
H616 H 0.53757 0.03987 0.37273 0.0
H617 H 0.55282 0.02989 0.27078 0.0
C618 C 0.74921 0.90679 0.30054 0.0
C619 C 0.76104 0.88914 0.35277 0.0
C620 C 0.78175 0.87694 0.20522 0.0
C621 C 0.77137 0.89577 0.15499 0.0
N622 N 0.74731 0.93025 0.15548 0.0
N623 N 0.79078 0.85964 0.36242 0.0
C624 C 0.75553 0.91112 0.20272 0.0
C625 C 0.77795 0.87481 0.30709 0.0
N626 N 0.73172 0.91903 0.34458 0.0
N627 N 0.79459 0.86063 0.15418 0.0
H628 H 0.78821 0.85765 0.43725 0.0
H629 H 0.80516 0.85044 0.33674 0.0
H630 H 0.79751 0.86157 0.07913 0.0
H631 H 0.80061 0.8451 0.18349 0.0
H632 H 0.72075 0.93065 0.30806 0.0
H633 H 0.72723 0.91636 0.41691 0.0
H634 H 0.73734 0.9434 0.1888 0.0
H635 H 0.75184 0.93381 0.0841 0.0
C636 C 0.8916 0.03532 0.11418 0.0
C637 C 0.91245 0.02781 0.16508 0.0
C638 C 0.9351 0.03426 0.01903 0.0
C639 C 0.91411 0.04091 0.96725 0.0
N640 N 0.87211 0.04567 0.95798 0.0
N641 N 0.95355 0.01786 0.16548 0.0
C642 C 0.89225 0.0409 0.01297 0.0
C643 C 0.93407 0.02655 0.11708 0.0
N644 N 0.87126 0.03713 0.16338 0.0
N645 N 0.95609 0.03614 0.97478 0.0
H646 H 0.9537 0.01317 0.23877 0.0
H647 H 0.96927 0.01417 0.13225 0.0
H648 H 0.95711 0.04147 0.90261 0.0
H649 H 0.97256 0.03384 0.01053 0.0
H650 H 0.85596 0.04479 0.13521 0.0
H651 H 0.86996 0.03174 0.23532 0.0
H652 H 0.85514 0.04402 0.98268 0.0
H653 H 0.87231 0.05 0.88411 0.0
C654 C 0.78246 0.24267 0.80756 0.0
C655 C 0.77461 0.222 0.7497 0.0
C656 C 0.77889 0.19843 0.89593 0.0
C657 C 0.78792 0.21885 0.95268 0.0
N658 N 0.79996 0.25987 0.96506 0.0
N659 N 0.76705 0.17996 0.73301 0.0
C660 C 0.79017 0.24088 0.90901 0.0
C661 C 0.77325 0.19977 0.79248 0.0
N662 N 0.7819 0.26401 0.76529 0.0
N663 N 0.77536 0.17792 0.94219 0.0
H664 H 0.76264 0.18057 0.65726 0.0
H665 H 0.76765 0.16279 0.75646 0.0
H666 H 0.77998 0.17639 0.0173 0.0
H667 H 0.76674 0.16286 0.90841 0.0
H668 H 0.78547 0.28025 0.80413 0.0
H669 H 0.77651 0.26553 0.69086 0.0
H670 H 0.80394 0.27617 0.93747 0.0
H671 H 0.80523 0.25883 0.03973 0.0
C672 C 0.91557 0.58025 0.19136 0.0
C673 C 0.9058 0.56057 0.23616 0.0
C674 C 0.90674 0.53651 0.07962 0.0
C675 C 0.9183 0.55553 0.037 0.0
N676 N 0.93583 0.59469 0.05212 0.0
N677 N 0.89522 0.51911 0.22983 0.0
C678 C 0.92323 0.57727 0.09284 0.0
C679 C 0.90225 0.53843 0.18205 0.0
N680 N 0.91702 0.6018 0.24292 0.0
N681 N 0.89931 0.51697 0.02081 0.0
H682 H 0.89184 0.52004 0.30495 0.0
H683 H 0.8946 0.50191 0.1975 0.0
H684 H 0.90193 0.51533 0.94502 0.0
H685 H 0.88875 0.50339 0.04475 0.0
H686 H 0.92195 0.61748 0.21233 0.0
H687 H 0.91177 0.60416 0.31549 0.0
H688 H 0.94192 0.61028 0.09105 0.0
H689 H 0.94149 0.59282 0.98007 0.0
C690 C 0.73768 0.71968 0.37313 0.0
C691 C 0.74283 0.69898 0.42384 0.0
C692 C 0.76048 0.68126 0.27593 0.0
C693 C 0.75638 0.70239 0.22726 0.0
N694 N 0.74371 0.74257 0.22958 0.0
N695 N 0.76024 0.66066 0.4287 0.0
C696 C 0.74561 0.72184 0.27593 0.0
C697 C 0.75466 0.67995 0.37664 0.0
N698 N 0.72506 0.73715 0.41811 0.0
N699 N 0.76921 0.66224 0.22398 0.0
H700 H 0.75483 0.65858 0.50014 0.0
H701 H 0.77101 0.64719 0.40349 0.0
H702 H 0.77363 0.66289 0.15034 0.0
H703 H 0.77081 0.64547 0.25093 0.0
H704 H 0.71857 0.75169 0.38262 0.0
H705 H 0.71993 0.73653 0.49065 0.0
H706 H 0.73804 0.75833 0.26304 0.0
H707 H 0.74937 0.7444 0.1584 0.0
C708 C 0.62254 0.55085 0.56895 0.0
C709 C 0.60044 0.55198 0.61271 0.0
C710 C 0.58205 0.56691 0.46065 0.0
C711 C 0.60393 0.56474 0.41513 0.0
N712 N 0.6446 0.55359 0.42067 0.0
N713 N 0.55883 0.55897 0.60171 0.0
C714 C 0.62408 0.55635 0.46798 0.0
C715 C 0.58009 0.55955 0.55894 0.0
N716 N 0.6421 0.54508 0.62556 0.0
N717 N 0.56325 0.57612 0.40943 0.0
H718 H 0.55718 0.5539 0.67397 0.0
H719 H 0.5427 0.56223 0.56504 0.0
H720 H 0.56393 0.58068 0.33611 0.0
H721 H 0.54732 0.58025 0.43996 0.0
H722 H 0.65927 0.54576 0.60233 0.0
H723 H 0.6413 0.54088 0.69938 0.0
H724 H 0.65945 0.54545 0.45038 0.0
H725 H 0.64646 0.55864 0.34855 0.0
C726 C 0.74825 0.41317 0.67973 0.0
C727 C 0.74958 0.39164 0.62151 0.0
C728 C 0.76265 0.37136 0.77044 0.0
C729 C 0.76301 0.3933 0.82708 0.0
N730 N 0.75878 0.43557 0.83551 0.0
N731 N 0.75914 0.35052 0.60685 0.0
C732 C 0.75651 0.41436 0.78152 0.0
C733 C 0.75706 0.37075 0.66582 0.0
N734 N 0.73846 0.43231 0.63769 0.0
N735 N 0.76752 0.35118 0.81758 0.0
H736 H 0.75481 0.34975 0.53068 0.0
H737 H 0.76624 0.33496 0.63147 0.0
H738 H 0.77222 0.35145 0.89343 0.0
H739 H 0.76576 0.33418 0.78359 0.0
H740 H 0.73458 0.44791 0.67769 0.0
H741 H 0.73293 0.43206 0.56266 0.0
H742 H 0.75694 0.45191 0.80477 0.0
H743 H 0.76386 0.43688 0.91101 0.0
C744 C 0.06952 0.53176 0.88511 0.0
C745 C 0.09122 0.52789 0.8399 0.0
C746 C 0.11321 0.53813 0.99914 0.0
C747 C 0.09152 0.54168 0.04484 0.0
N748 N 0.04914 0.53986 0.03703 0.0
N749 N 0.13315 0.52291 0.85489 0.0
C750 C 0.06967 0.5378 0.98928 0.0
C751 C 0.11294 0.5299 0.89735 0.0
N752 N 0.04889 0.53015 0.82736 0.0
N753 N 0.13404 0.54293 0.05333 0.0
H754 H 0.13329 0.51679 0.78056 0.0
H755 H 0.14936 0.52153 0.89414 0.0
H756 H 0.1348 0.5477 0.12914 0.0
H757 H 0.15048 0.54329 0.02283 0.0
H758 H 0.03246 0.53469 0.85227 0.0
H759 H 0.04834 0.52525 0.75169 0.0
H760 H 0.03245 0.53541 1.00428 0.0
H761 H 0.04894 0.54506 0.11232 0.0
C762 C 0.26933 0.36917 0.80421 0.0
C763 C 0.25796 0.38812 0.85373 0.0
C764 C 0.25704 0.41003 0.70235 0.0
C765 C 0.26979 0.3918 0.65505 0.0
N766 N 0.29144 0.35591 0.66334 0.0
N767 N 0.24517 0.42845 0.85776 0.0
C768 C 0.27692 0.37187 0.70684 0.0
C769 C 0.25287 0.40907 0.80474 0.0
N770 N 0.27217 0.3484 0.84947 0.0
N771 N 0.24891 0.42822 0.64884 0.0
H772 H 0.24287 0.42858 0.93373 0.0
H773 H 0.2432 0.445 0.829 0.0
H774 H 0.25241 0.42972 0.57457 0.0
H775 H 0.23735 0.44082 0.67563 0.0
H776 H 0.2783 0.33305 0.81423 0.0
H777 H 0.26666 0.34605 0.92056 0.0
H778 H 0.29917 0.34209 0.69993 0.0
H779 H 0.29714 0.35763 0.59212 0.0
C780 C 0.43143 0.52598 0.622 0.0
C781 C 0.4097 0.52797 0.66893 0.0
C782 C 0.3904 0.54134 0.51547 0.0
C783 C 0.41246 0.54088 0.47134 0.0
N784 N 0.45428 0.53512 0.48159 0.0
N785 N 0.36874 0.53822 0.66446 0.0
C786 C 0.43306 0.53372 0.52432 0.0
C787 C 0.38923 0.53591 0.61666 0.0
N788 N 0.45041 0.51646 0.67074 0.0
N789 N 0.37057 0.54637 0.45902 0.0
H790 H 0.36704 0.53295 0.73634 0.0
H791 H 0.35372 0.54616 0.63514 0.0
H792 H 0.37113 0.55053 0.38503 0.0
H793 H 0.35346 0.54508 0.48262 0.0
H794 H 0.46603 0.51218 0.63781 0.0
H795 H 0.45016 0.51155 0.74361 0.0
H796 H 0.47054 0.53252 0.51865 0.0
H797 H 0.45574 0.54042 0.40959 0.0
C798 C 0.25575 0.68094 0.38117 0.0
C799 C 0.24861 0.70208 0.33814 0.0
C800 C 0.25263 0.72351 0.50168 0.0
C801 C 0.26121 0.70274 0.54351 0.0
N802 N 0.27381 0.6626 0.524 0.0
N803 N 0.24251 0.74395 0.35217 0.0
C804 C 0.26358 0.68168 0.4833 0.0
C805 C 0.24769 0.72354 0.39712 0.0
N806 N 0.2543 0.66007 0.32453 0.0
N807 N 0.24878 0.74296 0.56282 0.0
H808 H 0.23856 0.74418 0.27588 0.0
H809 H 0.24361 0.76072 0.38859 0.0
H810 H 0.25245 0.74327 0.63933 0.0
H811 H 0.24051 0.75807 0.53932 0.0
H812 H 0.25703 0.64357 0.35279 0.0
H813 H 0.24874 0.65914 0.2495 0.0
H814 H 0.27833 0.64739 0.48286 0.0
H815 H 0.27911 0.6626 0.59922 0.0
C816 C 0.36775 0.12808 0.20751 0.0
C817 C 0.36812 0.10385 0.22725 0.0
C818 C 0.32973 0.10674 0.29959 0.0
C819 C 0.32888 0.13108 0.28003 0.0
N820 N 0.35185 0.16646 0.25232 0.0
N821 N 0.35581 0.07495 0.33774 0.0
C822 C 0.34953 0.14234 0.24617 0.0
C823 C 0.35127 0.09492 0.2895 0.0
N824 N 0.38395 0.13721 0.1486 0.0
N825 N 0.30988 0.09421 0.31978 0.0
H826 H 0.37258 0.06777 0.3388 0.0
H827 H 0.34446 0.06816 0.38767 0.0
H828 H 0.29308 0.10131 0.3183 0.0
H829 H 0.30982 0.07593 0.32639 0.0
H830 H 0.38284 0.15416 0.12264 0.0
H831 H 0.39787 0.12729 0.12254 0.0
H832 H 0.36719 0.1754 0.23484 0.0
H833 H 0.33948 0.17729 0.28551 0.0
C834 C 0.17835 0.11092 0.49157 0.0
C835 C 0.15653 0.11102 0.4353 0.0
C836 C 0.17006 0.14918 0.37046 0.0
C837 C 0.19321 0.1469 0.41627 0.0
N838 N 0.22018 0.11946 0.49089 0.0
N839 N 0.13263 0.1295 0.31049 0.0
C840 C 0.19752 0.126 0.46845 0.0
C841 C 0.15272 0.12995 0.37127 0.0
N842 N 0.18086 0.09652 0.56861 0.0
N843 N 0.16418 0.16985 0.32932 0.0
H844 H 0.11935 0.1165 0.31309 0.0
H845 H 0.12982 0.14118 0.25454 0.0
H846 H 0.17606 0.18413 0.32808 0.0
H847 H 0.14702 0.17346 0.30369 0.0
H848 H 0.19601 0.09687 0.61638 0.0
H849 H 0.16659 0.08683 0.59229 0.0
H850 H 0.22415 0.1035 0.52216 0.0
H851 H 0.23484 0.12816 0.46544 0.0
C852 C 0.18846 0.95707 0.78597 0.0
C853 C 0.19371 0.9369 0.72431 0.0
C854 C 0.1759 0.95549 0.57967 0.0
C855 C 0.17339 0.97677 0.63933 0.0
N856 N 0.177 0.99823 0.79929 0.0
N857 N 0.18304 0.9132 0.57515 0.0
C858 C 0.17939 0.97759 0.74288 0.0
C859 C 0.18472 0.93496 0.62441 0.0
N860 N 0.1915 0.95594 0.88659 0.0
N861 N 0.1704 0.95517 0.47985 0.0
H862 H 0.18702 0.8979 0.61096 0.0
H863 H 0.17494 0.90996 0.50441 0.0
H864 H 0.16389 0.96988 0.4451 0.0
H865 H 0.17388 0.94103 0.43045 0.0
H866 H 0.18653 0.96906 0.93793 0.0
H867 H 0.19698 0.9405 0.91883 0.0
H868 H 0.18313 1.00087 0.87321 0.0
H869 H 0.17016 0.01353 0.77045 0.0
C870 C 0.3532 0.95521 0.02355 0.0
C871 C 0.34488 0.97826 0.04369 0.0
C872 C 0.30686 0.96703 0.95956 0.0
C873 C 0.31687 0.94558 0.92379 0.0
N874 N 0.35067 0.92061 0.90944 0.0
N875 N 0.31475 1.00745 0.02234 0.0
C876 C 0.34041 0.94001 0.95244 0.0
C877 C 0.32187 0.98457 0.01029 0.0
N878 N 0.37364 0.9483 0.07078 0.0
N879 N 0.28303 0.97035 0.94883 0.0
H880 H 0.32498 0.02083 0.06156 0.0
H881 H 0.29926 0.01344 0.98787 0.0
H882 H 0.27112 0.95779 0.91379 0.0
H883 H 0.2748 0.98471 0.98302 0.0
H884 H 0.37969 0.93104 0.06443 0.0
H885 H 0.3832 0.95941 0.12398 0.0
H886 H 0.36851 0.91692 0.92159 0.0
H887 H 0.34187 0.90948 0.85419 0.0
C888 C 0.68039 0.95627 0.9334 0.0
C889 C 0.69275 0.96461 0.85339 0.0
C890 C 0.66164 0.99314 0.82157 0.0
C891 C 0.65085 0.98722 0.90979 0.0
N892 N 0.64888 0.96198 0.04645 0.0
N893 N 0.6969 0.99252 0.72795 0.0
C894 C 0.65992 0.9683 0.96433 0.0
C895 C 0.68382 0.98343 0.79931 0.0
N896 N 0.68805 0.93658 0.97851 0.0
N897 N 0.65052 1.00737 0.75673 0.0
H898 H 0.71307 0.98565 0.70867 0.0
H899 H 0.69286 1.00813 0.69424 0.0
H900 H 0.63413 0.01443 0.76758 0.0
H901 H 0.65623 0.00986 0.68624 0.0
H902 H 0.67862 0.92788 0.0298 0.0
H903 H 0.70357 0.92806 0.96114 0.0
H904 H 0.65601 0.95075 0.09787 0.0
H905 H 0.63247 0.96851 0.06442 0.0
C906 C 0.83839 0.93804 0.58714 0.0
C907 C 0.82622 0.94325 0.6745 0.0
C908 C 0.85044 0.98052 0.70489 0.0
C909 C 0.86184 0.97595 0.61464 0.0
N910 N 0.87091 0.94737 0.4843 0.0
N911 N 0.82539 0.96588 0.82997 0.0
C912 C 0.85711 0.95369 0.56059 0.0
C913 C 0.83393 0.96335 0.73764 0.0
N914 N 0.83138 0.91856 0.5272 0.0
N915 N 0.85416 1.00193 0.75649 0.0
H916 H 0.81369 0.95347 0.85558 0.0
H917 H 0.83161 0.97871 0.88424 0.0
H918 H 0.86635 0.01461 0.73711 0.0
H919 H 0.84425 1.00774 0.81528 0.0
H920 H 0.83696 0.91517 0.45587 0.0
H921 H 0.81924 0.906 0.54849 0.0
H922 H 0.87009 0.93074 0.44663 0.0
H923 H 0.88483 0.95815 0.4646 0.0
C924 C 0.84325 0.11895 0.37282 0.0
C925 C 0.84318 0.11352 0.47366 0.0
C926 C 0.82369 0.15119 0.51177 0.0
C927 C 0.82553 0.15736 0.41153 0.0
N928 N 0.84472 0.15002 0.25849 0.0
N929 N 0.83779 0.1267 0.64343 0.0
C930 C 0.83778 0.1421 0.34601 0.0
C931 C 0.83467 0.13028 0.54455 0.0
N932 N 0.84835 0.10182 0.30208 0.0
N933 N 0.8109 0.16458 0.57531 0.0
H934 H 0.84527 0.11146 0.67005 0.0
H935 H 0.83459 0.13959 0.69907 0.0
H936 H 0.80394 0.18068 0.55798 0.0
H937 H 0.80632 0.1591 0.64396 0.0
H938 H 0.84661 0.10427 0.22626 0.0
H939 H 0.85191 0.08442 0.3188 0.0
H940 H 0.85543 0.14034 0.21162 0.0
H941 H 0.84212 0.16738 0.23894 0.0
C942 C 0.68896 0.14003 0.22764 0.0
C943 C 0.712 0.13268 0.25345 0.0
C944 C 0.70126 0.0931 0.18191 0.0
C945 C 0.68063 0.10253 0.13588 0.0
N946 N 0.65934 0.13763 0.09347 0.0
N947 N 0.74141 0.10226 0.24502 0.0
C948 C 0.67574 0.12685 0.15237 0.0
C949 C 0.71863 0.10911 0.22864 0.0
N950 N 0.68033 0.16019 0.27133 0.0
N951 N 0.70396 0.0692 0.18451 0.0
H952 H 0.75476 0.11353 0.27828 0.0
H953 H 0.74729 0.08585 0.21856 0.0
H954 H 0.69106 0.05683 0.15579 0.0
H955 H 0.71795 0.06184 0.22463 0.0
H956 H 0.66297 0.16541 0.25717 0.0
H957 H 0.68986 0.17005 0.32876 0.0
H958 H 0.65659 0.15583 0.10038 0.0
H959 H 0.65066 0.12894 0.03093 0.0
C960 C 0.83254 0.61915 0.67684 0.0
C961 C 0.8283 0.6282 0.7741 0.0
C962 C 0.86995 0.62177 0.82589 0.0
C963 C 0.87476 0.6159 0.7254 0.0
N964 N 0.86133 0.6128 0.5528 0.0
N965 N 0.84316 0.63964 0.94102 0.0
C966 C 0.85618 0.61536 0.65022 0.0
C967 C 0.84701 0.62961 0.84906 0.0
N968 N 0.81382 0.61451 0.60964 0.0
N969 N 0.88725 0.61963 0.89936 0.0
H970 H 0.82648 0.64476 0.96167 0.0
H971 H 0.85662 0.64403 0.99513 0.0
H972 H 0.90447 0.61488 0.88508 0.0
H973 H 0.88417 0.62087 0.97463 0.0
H974 H 0.81539 0.60606 0.53984 0.0
H975 H 0.79636 0.6171 0.62784 0.0
H976 H 0.84891 0.6145 0.494 0.0
H977 H 0.87858 0.61112 0.53065 0.0
C978 C 0.67948 0.654 0.96969 0.0
C979 C 0.68756 0.64928 0.87264 0.0
C980 C 0.66095 0.61342 0.85375 0.0
C981 C 0.65491 0.61635 0.95449 0.0
N982 N 0.65754 0.64071 0.10739 0.0
N983 N 0.67491 0.63201 0.7105 0.0
C984 C 0.66388 0.63714 0.01176 0.0
C985 C 0.67496 0.6312 0.81128 0.0
N986 N 0.68475 0.67552 0.01792 0.0
N987 N 0.65486 0.59286 0.79931 0.0
H988 H 0.68259 0.64613 0.67666 0.0
H989 H 0.6644 0.62075 0.66144 0.0
H990 H 0.64522 0.57911 0.82662 0.0
H991 H 0.66134 0.58855 0.73012 0.0
H992 H 0.67892 0.68091 0.087 0.0
H993 H 0.69204 0.68948 0.98243 0.0
H994 H 0.66568 0.65315 0.15888 0.0
H995 H 0.64435 0.63058 0.13672 0.0
C996 C 0.67927 0.47054 0.15795 0.0
C997 C 0.67486 0.47853 0.06109 0.0
C998 C 0.69602 0.44439 0.9927 0.0
C999 C 0.70044 0.43673 0.09003 0.0
N1000 N 0.68651 0.43656 0.25444 0.0
N1001 N 0.67331 0.46925 0.88406 0.0
C1002 C 0.68886 0.44785 0.16927 0.0
C1003 C 0.68148 0.46429 0.97742 0.0
N1004 N 0.67518 0.48496 0.23963 0.0
N1005 N 0.70618 0.43276 0.91528 0.0
H1006 H 0.66236 0.48341 0.87015 0.0
H1007 H 0.67571 0.45823 0.82114 0.0
H1008 H 0.71517 0.41703 0.92383 0.0
H1009 H 0.7063 0.439 0.84441 0.0
H1010 H 0.68017 0.48068 0.31167 0.0
H1011 H 0.66912 0.50217 0.23496 0.0
H1012 H 0.67672 0.44324 0.3123 0.0
H1013 H 0.69186 0.41922 0.26105 0.0
C1014 C 0.79375 0.47769 0.56708 0.0
C1015 C 0.78842 0.48465 0.46914 0.0
C1016 C 0.80563 0.52386 0.5122 0.0
C1017 C 0.81444 0.51569 0.60387 0.0
N1018 N 0.81117 0.48894 0.73283 0.0
N1019 N 0.78536 0.51535 0.35268 0.0
C1020 C 0.80615 0.49398 0.6365 0.0
C1021 C 0.79262 0.50818 0.44396 0.0
N1022 N 0.7882 0.45517 0.59096 0.0
N1023 N 0.81056 0.54618 0.48562 0.0
H1024 H 0.77583 0.50429 0.29931 0.0
H1025 H 0.78871 0.53249 0.33133 0.0
H1026 H 0.81974 0.55906 0.53222 0.0
H1027 H 0.81974 0.55906 0.53222 0.0
H1028 H 0.79328 0.44817 0.65805 0.0
H1029 H 0.77879 0.44302 0.54167 0.0
H1030 H 0.80497 0.4739 0.76475 0.0
H1031 H 0.82035 0.50112 0.78301 0.0
C1032 C 0.14947 0.47956 0.22202 0.0
C1033 C 0.13921 0.48306 0.3151 0.0
C1034 C 0.17294 0.46417 0.39624 0.0
C1035 C 0.18363 0.46109 0.30396 0.0
N1036 N 0.17901 0.46001 0.12508 0.0
N1037 N 0.13626 0.46871 0.47784 0.0
C1038 C 0.17095 0.467 0.21536 0.0
C1039 C 0.14933 0.47212 0.3982 0.0
N1040 N 0.13876 0.48883 0.14043 0.0
N1041 N 0.18558 0.46029 0.48262 0.0
H1042 H 0.11839 0.47264 0.47741 0.0
H1043 H 0.14225 0.4593 0.53789 0.0
H1044 H 0.20316 0.4551 0.48467 0.0
H1045 H 0.17936 0.46448 0.55241 0.0
H1046 H 0.14662 0.48989 0.07307 0.0
H1047 H 0.12202 0.49618 0.14199 0.0
H1048 H 0.16939 0.46173 0.05805 0.0
H1049 H 0.19457 0.45076 0.11717 0.0
C1050 C 0.32863 0.46146 0.22254 0.0
C1051 C 0.3229 0.44131 0.15623 0.0
C1052 C 0.35401 0.45458 0.04851 0.0
C1053 C 0.35907 0.47543 0.11191 0.0
N1054 N 0.35462 0.49579 0.27093 0.0
N1055 N 0.33482 0.41547 0.02236 0.0
C1056 C 0.34761 0.47776 0.20317 0.0
C1057 C 0.33717 0.43692 0.07448 0.0
N1058 N 0.3151 0.46564 0.30178 0.0
N1059 N 0.36484 0.45195 0.96103 0.0
H1060 H 0.32323 0.4022 0.04198 0.0
H1061 H 0.34586 0.40987 0.96718 0.0
H1062 H 0.3784 0.46333 0.94283 0.0
H1063 H 0.35981 0.43916 0.90472 0.0
H1064 H 0.31594 0.48128 0.34664 0.0
H1065 H 0.30224 0.45352 0.32071 0.0
H1066 H 0.34875 0.49757 0.34242 0.0
H1067 H 0.36789 0.50806 0.25831 0.0
C1068 C 0.32343 0.64899 0.973 0.0
C1069 C 0.31298 0.65793 0.05942 0.0
C1070 C 0.33321 0.62723 0.15197 0.0
C1071 C 0.33829 0.61513 0.06055 0.0
N1072 N 0.33456 0.61351 0.88108 0.0
N1073 N 0.30946 0.65671 0.23536 0.0
C1074 C 0.33242 0.62579 0.97011 0.0
C1075 C 0.31856 0.64745 0.15052 0.0
N1076 N 0.32538 0.66278 0.89466 0.0
N1077 N 0.34302 0.62007 0.23954 0.0
H1078 H 0.30042 0.67262 0.23739 0.0
H1079 H 0.31017 0.64828 0.30182 0.0
H1080 H 0.35441 0.60587 0.24349 0.0
H1081 H 0.34165 0.62953 0.30737 0.0
H1082 H 0.3342 0.65748 0.83178 0.0
H1083 H 0.32106 0.68057 0.89946 0.0
H1084 H 0.32854 0.61996 0.81377 0.0
H1085 H 0.33991 0.59597 0.87538 0.0
C1086 C 0.20494 0.58882 0.58204 0.0
C1087 C 0.18817 0.57557 0.63052 0.0
C1088 C 0.20758 0.58788 0.79121 0.0
C1089 C 0.22051 0.60511 0.74416 0.0
N1090 N 0.23151 0.62299 0.59479 0.0
N1091 N 0.1722 0.56316 0.78189 0.0
C1092 C 0.21971 0.60555 0.63923 0.0
C1093 C 0.1894 0.57476 0.73537 0.0
N1094 N 0.20625 0.58572 0.48154 0.0
N1095 N 0.21225 0.58478 0.88976 0.0
H1096 H 0.15815 0.55372 0.74381 0.0
H1097 H 0.17083 0.56441 0.85849 0.0
H1098 H 0.22558 0.5945 0.9319 0.0
H1099 H 0.20464 0.57115 0.92659 0.0
H1100 H 0.21947 0.5935 0.44302 0.0
H1101 H 0.19537 0.57352 0.43818 0.0
H1102 H 0.22919 0.62582 0.51949 0.0
H1103 H 0.24254 0.63568 0.63411 0.0
C1104 C 0.50238 0.06088 0.09296 0.0
C1105 C 0.48403 0.0538 0.02106 0.0
C1106 C 0.51334 0.03719 0.90926 0.0
C1107 C 0.53158 0.04652 0.97671 0.0
N1108 N 0.54413 0.06778 0.13242 0.0
N1109 N 0.47182 0.03508 0.85862 0.0
C1110 C 0.52626 0.05854 0.06831 0.0
C1111 C 0.48945 0.04179 0.9289 0.0
N1112 N 0.4971 0.06812 0.18745 0.0
N1113 N 0.51883 0.02364 0.82679 0.0
H1114 H 0.45393 0.03512 0.87103 0.0
H1115 H 0.47477 0.0303 0.78493 0.0
H1116 H 0.53609 0.02096 0.80674 0.0
H1117 H 0.50647 0.01355 0.78138 0.0
H1118 H 0.50966 0.07036 0.2468 0.0
H1119 H 0.47992 0.07001 0.20973 0.0
H1120 H 0.54153 0.07987 0.19173 0.0
H1121 H 0.56184 0.06408 0.12452 0.0
C1122 C 0.27007 0.31075 0.35146 0.0
C1123 C 0.26227 0.32015 0.26044 0.0
C1124 C 0.24084 0.28206 0.21171 0.0
C1125 C 0.24984 0.27215 0.29978 0.0
N1126 N 0.27446 0.27651 0.45123 0.0
N1127 N 0.24316 0.31368 0.09757 0.0
C1128 C 0.26487 0.28643 0.36886 0.0
C1129 C 0.24849 0.30538 0.18887 0.0
N1130 N 0.28162 0.32541 0.42331 0.0
N1131 N 0.22467 0.26921 0.1504 0.0
H1132 H 0.24887 0.33041 0.07871 0.0
H1133 H 0.23509 0.30343 0.03801 0.0
H1134 H 0.21865 0.25236 0.16602 0.0
H1135 H 0.21561 0.27593 0.08954 0.0
H1136 H 0.28516 0.3208 0.49589 0.0
H1137 H 0.28686 0.34273 0.41105 0.0
H1138 H 0.28796 0.28448 0.49804 0.0
H1139 H 0.26937 0.25967 0.47098 0.0
C1140 C 0.01666 0.05436 0.45294 0.0
C1141 C 0.03362 0.05146 0.53208 0.0
C1142 C 1.00139 0.0384 0.63548 0.0
C1143 C 0.98469 0.03966 0.554 0.0
N1144 N 0.97658 0.04657 0.38171 0.0
N1145 N 0.04248 0.03879 0.69697 0.0
C1146 C 0.99248 0.04706 0.46179 0.0
C1147 C 0.02598 0.04298 0.62287 0.0
N1148 N 0.02377 0.0641 0.36914 0.0
N1149 N 0.99361 0.0338 0.72635 0.0
H1150 H 0.0602 0.04372 0.69392 0.0
H1151 H 0.03888 0.02969 0.75925 0.0
H1152 H 0.97602 0.02924 0.73681 0.0
H1153 H 1.00418 0.03566 0.79206 0.0
H1154 H 0.01232 0.06868 0.31087 0.0
H1155 H 0.04128 0.06939 0.36114 0.0
H1156 H 0.9809 0.04996 0.31016 0.0
H1157 H 0.95909 0.0408 0.38548 0.0
C1158 C 0.25274 0.77547 0.83288 0.0
C1159 C 0.24035 0.76628 0.91065 0.0
C1160 C 0.21433 0.80069 0.90942 0.0
C1161 C 0.22662 0.80919 0.83014 0.0
N1162 N 0.25127 0.80095 0.69498 0.0
N1163 N 0.20786 0.76871 0.01813 0.0
C1164 C 0.24349 0.79496 0.78405 0.0
C1165 C 0.22054 0.77845 0.9471 0.0
N1166 N 0.27384 0.7663 0.80829 0.0
N1167 N 0.19732 0.81425 0.95 0.0
H1168 H 0.21319 0.75358 0.05306 0.0
H1169 H 0.19185 0.77517 0.04078 0.0
H1170 H 0.19136 0.8295 0.91777 0.0
H1171 H 0.1895 0.81078 0.01551 0.0
H1172 H 0.28439 0.77342 0.75635 0.0
H1173 H 0.28225 0.75358 0.84893 0.0
H1174 H 0.26267 0.79063 0.6539 0.0
H1175 H 0.24421 0.81515 0.6582 0.0
C1176 C 0.75508 0.78717 0.89769 0.0
C1177 C 0.75254 0.77208 0.80979 0.0
C1178 C 0.76442 0.80591 0.7127 0.0
C1179 C 0.76525 0.82146 0.7995 0.0
N1180 N 0.75938 0.82711 0.97455 0.0
N1181 N 0.75145 0.76778 0.63186 0.0
C1182 C 0.75996 0.81206 0.89184 0.0
C1183 C 0.75629 0.78176 0.7169 0.0
N1184 N 0.75384 0.77749 0.98748 0.0
N1185 N 0.77156 0.81415 0.62605 0.0
H1186 H 0.74512 0.75035 0.63292 0.0
H1187 H 0.7515 0.77389 0.56082 0.0
H1188 H 0.77764 0.8315 0.6204 0.0
H1189 H 0.77353 0.80342 0.56197 0.0
H1190 H 0.75852 0.78663 0.05516 0.0
H1191 H 0.74925 0.75972 0.99396 0.0
H1192 H 0.7527 0.82234 0.04085 0.0
H1193 H 0.76475 0.84487 0.97556 0.0
C1194 C 0.79508 0.29355 0.25238 0.0
C1195 C 0.78169 0.28467 0.32788 0.0
C1196 C 0.75592 0.31882 0.3236 0.0
C1197 C 0.7694 0.32818 0.24932 0.0
N1198 N 0.80009 0.32402 0.1345 0.0
N1199 N 0.75419 0.29141 0.45431 0.0
C1200 C 0.78871 0.31546 0.21192 0.0
C1201 C 0.76367 0.29827 0.36953 0.0
N1202 N 0.8139 0.28108 0.22072 0.0
N1203 N 0.73514 0.3289 0.34719 0.0
H1204 H 0.76012 0.27661 0.49022 0.0
H1205 H 0.74247 0.30156 0.49434 0.0
H1206 H 0.72795 0.34272 0.30928 0.0
H1207 H 0.7236 0.3218 0.39541 0.0
H1208 H 0.82542 0.28676 0.16952 0.0
H1209 H 0.81895 0.26526 0.2505 0.0
H1210 H 0.81373 0.31559 0.09947 0.0
H1211 H 0.79482 0.33932 0.10064 0.0
C1212 C 0.98377 0.53551 0.44448 0.0
C1213 C 0.97899 0.54743 0.5374 0.0
C1214 C 0.02146 0.5563 0.56982 0.0
C1215 C 0.02598 0.54577 0.47448 0.0
N1216 N 0.01117 0.52928 0.31422 0.0
N1217 N 0.99321 0.57105 0.68476 0.0
C1218 C 1.00708 0.5363 0.4102 0.0
C1219 C 0.99778 0.55862 0.59824 0.0
N1220 N 0.96613 0.52326 0.38837 0.0
N1221 N 0.03996 0.56293 0.63599 0.0
H1222 H 0.9769 0.57081 0.71632 0.0
H1223 H 1.00536 0.58274 0.72363 0.0
H1224 H 0.05757 0.56071 0.62086 0.0
H1225 H 0.03813 0.56862 0.70965 0.0
H1226 H 0.96927 0.51145 0.32875 0.0
H1227 H 0.94835 0.52371 0.40326 0.0
H1228 H 0.99778 0.52509 0.25955 0.0
H1229 H 0.02796 0.52956 0.28641 0.0
C1230 C 0.49813 0.54178 0.13561 0.0
C1231 C 0.4821 0.54159 0.05089 0.0
C1232 C 0.515 0.55528 0.95195 0.0
C1233 C 0.53132 0.55379 0.03479 0.0
N1234 N 0.53876 0.54383 0.20447 0.0
N1235 N 0.47558 0.54609 0.87575 0.0
C1236 C 0.52287 0.54655 0.12626 0.0
C1237 C 0.49072 0.54785 0.95843 0.0
N1238 N 0.48952 0.53846 0.22626 0.0
N1239 N 0.5228 0.56377 0.86677 0.0
H1240 H 0.458 0.5404 0.87785 0.0
H1241 H 0.48059 0.54838 0.80416 0.0
H1242 H 0.54037 0.56898 0.8599 0.0
H1243 H 0.51182 0.56739 0.80553 0.0
H1244 H 0.49948 0.54139 0.29319 0.0
H1245 H 0.47184 0.534 0.23509 0.0
H1246 H 0.53466 0.53565 0.26845 0.0
H1247 H 0.55651 0.54898 0.20362 0.0
loop_
_geom_bond_atom_site_label_1
_geom_bond_atom_site_label_2
_geom_bond_distance
_geom_bond_site_symmetry_2
_ccdc_geom_bond_type
C0 C1 1.351 . S
C0 N3 1.368 . S
C0 H5 0.931 . S
C1 C0 1.351 . S
C1 N2 1.373 . S
C1 H29 0.930 . S
N2 C1 1.373 . S
N2 C4 1.340 . S
N3 C0 1.368 . S
N3 C4 1.321 . S
N3 Co6 2.135 . S
C4 N2 1.340 . S
C4 N3 1.321 . S
C4 H28 0.930 . S
H5 C0 0.931 . S
Co6 N3 2.135 . S
Co6 N9 2.121 1_554 S
Co6 O14 2.055 . S
Co6 O17 2.039 . S
Co6 N20 2.140 . S
C7 O8 1.227 . S
C7 O17 1.265 . S
O8 C7 1.227 . S
N9 Co6 2.121 1_556 S
N9 C11 1.375 . S
N9 C12 1.313 . S
C10 C11 1.338 . S
C10 N13 1.377 . S
C10 H30 0.930 . S
C11 N9 1.375 . S
C11 C10 1.338 . S
C11 H15 0.931 . S
C12 N9 1.313 . S
C12 N13 1.344 . S
C12 H16 0.930 . S
N13 C10 1.377 . S
N13 C12 1.344 . S
O14 Co6 2.055 . S
O14 C18 1.253 . S
H15 C11 0.931 . S
H16 C12 0.930 . S
O17 Co6 2.039 . S
O17 C7 1.265 . S
C18 O14 1.253 . S
C18 O19 1.227 . S
O19 C18 1.227 . S
N20 Co6 2.140 . S
N20 C23 1.346 . S
N20 C24 1.345 1_554 S
C21 C22 1.387 . S
C21 C25 1.391 1_554 S
C22 C21 1.387 . S
C22 C23 1.369 1_565 S
C22 H31 0.929 . S
C23 N20 1.346 . S
C23 C22 1.369 1_545 S
C23 H26 0.928 . S
C24 N20 1.345 1_556 S
C24 C25 1.371 1_545 S
C24 H27 0.931 . S
C25 C21 1.391 1_556 S
C25 C24 1.371 1_565 S
C25 H32 0.930 . S
H26 C23 0.928 . S
H27 C24 0.931 . S
H28 C4 0.930 . S
H29 C1 0.930 . S
H30 C10 0.930 . S
H31 C22 0.929 . S
H32 C25 0.930 . S
C33 C34 1.351 . S
C33 N36 1.368 . S
C33 H38 0.931 . S
C34 C33 1.351 . S
C34 N35 1.373 . S
C34 H62 0.930 . S
N35 C34 1.373 . S
N35 C37 1.340 . S
N36 C33 1.368 . S
N36 C37 1.321 . S
N36 Co39 2.135 . S
C37 N35 1.340 . S
C37 N36 1.321 . S
C37 H61 0.930 . S
H38 C33 0.931 . S
Co39 N36 2.135 . S
Co39 N42 2.121 . S
Co39 O47 2.055 . S
Co39 O50 2.039 . S
Co39 N53 2.140 . S
C40 O41 1.227 . S
C40 O50 1.265 . S
O41 C40 1.227 . S
N42 Co39 2.121 . S
N42 C44 1.375 . S
N42 C45 1.313 . S
C43 C44 1.338 . S
C43 N46 1.377 . S
C43 H63 0.930 1_554 S
C44 N42 1.375 . S
C44 C43 1.338 . S
C44 H48 0.931 . S
C45 N42 1.313 . S
C45 N46 1.344 . S
C45 H49 0.930 . S
N46 C43 1.377 . S
N46 C45 1.344 . S
O47 Co39 2.055 . S
O47 C51 1.253 . S
H48 C44 0.931 . S
H49 C45 0.930 . S
O50 Co39 2.039 . S
O50 C40 1.265 . S
C51 O47 1.253 . S
C51 O52 1.227 . S
O52 C51 1.227 . S
N53 Co39 2.140 . S
N53 C56 1.346 . S
N53 C57 1.345 . S
C54 C55 1.387 . S
C54 C58 1.391 . S
C55 C54 1.387 . S
C55 C56 1.369 . S
C55 H64 0.929 . S
C56 N53 1.346 . S
C56 C55 1.369 . S
C56 H59 0.928 . S
C57 N53 1.345 . S
C57 C58 1.371 . S
C57 H60 0.931 . S
C58 C54 1.391 . S
C58 C57 1.371 . S
C58 H65 0.930 . S
H59 C56 0.928 . S
H60 C57 0.931 . S
H61 C37 0.930 . S
H62 C34 0.930 . S
H63 C43 0.930 1_556 S
H64 C55 0.929 . S
H65 C58 0.930 . S
C66 C67 1.351 . S
C66 N69 1.368 . S
C66 H71 0.931 . S
C67 C66 1.351 . S
C67 N68 1.373 . S
C67 H95 0.930 . S
N68 C67 1.373 . S
N68 C70 1.340 . S
N69 C66 1.368 . S
N69 C70 1.321 . S
N69 Co72 2.135 . S
C70 N68 1.340 . S
C70 N69 1.321 . S
C70 H94 0.930 . S
H71 C66 0.931 . S
Co72 N69 2.135 . S
Co72 N75 2.121 . S
Co72 O80 2.055 . S
Co72 O83 2.039 . S
Co72 N86 2.140 . S
C73 O74 1.227 . S
C73 O83 1.265 . S
O74 C73 1.227 . S
N75 Co72 2.121 . S
N75 C77 1.375 . S
N75 C78 1.313 . S
C76 C77 1.338 . S
C76 N79 1.377 . S
C76 H96 0.930 . S
C77 N75 1.375 . S
C77 C76 1.338 . S
C77 H81 0.931 . S
C78 N75 1.313 . S
C78 N79 1.344 . S
C78 H82 0.930 . S
N79 C76 1.377 . S
N79 C78 1.344 . S
O80 Co72 2.055 . S
O80 C84 1.253 . S
H81 C77 0.931 . S
H82 C78 0.930 . S
O83 Co72 2.039 . S
O83 C73 1.265 . S
C84 O80 1.253 . S
C84 O85 1.227 . S
O85 C84 1.227 . S
N86 Co72 2.140 . S
N86 C89 1.346 . S
N86 C90 1.345 . S
C87 C88 1.387 . S
C87 C91 1.391 . S
C88 C87 1.387 . S
C88 C89 1.369 1_565 S
C88 H97 0.929 . S
C89 N86 1.346 . S
C89 C88 1.369 1_545 S
C89 H92 0.928 . S
C90 N86 1.345 . S
C90 C91 1.371 1_545 S
C90 H93 0.931 . S
C91 C87 1.391 . S
C91 C90 1.371 1_565 S
C91 H98 0.930 . S
H92 C89 0.928 . S
H93 C90 0.931 . S
H94 C70 0.930 . S
H95 C67 0.930 . S
H96 C76 0.930 . S
H97 C88 0.929 . S
H98 C91 0.930 . S
C99 C100 1.351 . S
C99 N102 1.368 . S
C99 H104 0.931 . S
C100 C99 1.351 . S
C100 N101 1.373 . S
C100 H128 0.930 . S
N101 C100 1.373 . S
N101 C103 1.340 . S
N102 C99 1.368 . S
N102 C103 1.321 . S
N102 Co105 2.135 . S
C103 N101 1.340 . S
C103 N102 1.321 . S
C103 H127 0.930 . S
H104 C99 0.931 . S
Co105 N102 2.135 . S
Co105 N108 2.121 . S
Co105 O113 2.055 . S
Co105 O116 2.039 . S
Co105 N119 2.140 . S
C106 O107 1.227 . S
C106 O116 1.265 . S
O107 C106 1.227 . S
N108 Co105 2.121 . S
N108 C110 1.375 . S
N108 C111 1.313 . S
C109 C110 1.338 1_554 S
C109 N112 1.377 . S
C109 H129 0.930 . S
C110 N108 1.375 . S
C110 C109 1.338 1_556 S
C110 H114 0.931 . S
C111 N108 1.313 . S
C111 N112 1.344 1_556 S
C111 H115 0.930 . S
N112 C109 1.377 . S
N112 C111 1.344 1_554 S
O113 Co105 2.055 . S
O113 C117 1.253 . S
H114 C110 0.931 . S
H115 C111 0.930 . S
O116 Co105 2.039 . S
O116 C106 1.265 . S
C117 O113 1.253 . S
C117 O118 1.227 . S
O118 C117 1.227 . S
N119 Co105 2.140 . S
N119 C122 1.346 . S
N119 C123 1.345 . S
C120 C121 1.387 . S
C120 C124 1.391 . S
C121 C120 1.387 . S
C121 C122 1.369 . S
C121 H130 0.929 . S
C122 N119 1.346 . S
C122 C121 1.369 . S
C122 H125 0.928 . S
C123 N119 1.345 . S
C123 C124 1.371 . S
C123 H126 0.931 . S
C124 C120 1.391 . S
C124 C123 1.371 . S
C124 H131 0.930 . S
H125 C122 0.928 . S
H126 C123 0.931 . S
H127 C103 0.930 . S
H128 C100 0.930 . S
H129 C109 0.930 . S
H130 C121 0.929 . S
H131 C124 0.930 . S
C132 C133 1.351 . S
C132 N135 1.368 . S
C132 H137 0.931 . S
C133 C132 1.351 . S
C133 N134 1.373 . S
C133 H161 0.930 . S
N134 C133 1.373 . S
N134 C136 1.340 . S
N135 C132 1.368 . S
N135 C136 1.321 . S
N135 Co138 2.135 . S
C136 N134 1.340 . S
C136 N135 1.321 . S
C136 H160 0.930 . S
H137 C132 0.931 . S
Co138 N135 2.135 . S
Co138 N141 2.121 1_556 S
Co138 O146 2.055 . S
Co138 O149 2.039 1_545 S
Co138 N152 2.140 1_556 S
C139 O140 1.227 1_565 S
C139 O149 1.265 . S
O140 C139 1.227 1_545 S
N141 Co138 2.121 1_554 S
N141 C143 1.375 . S
N141 C144 1.313 . S
C142 C143 1.338 . S
C142 N145 1.377 . S
C142 H162 0.930 . S
C143 N141 1.375 . S
C143 C142 1.338 . S
C143 H147 0.931 . S
C144 N141 1.313 . S
C144 N145 1.344 . S
C144 H148 0.930 . S
N145 C142 1.377 . S
N145 C144 1.344 . S
O146 Co138 2.055 . S
O146 C150 1.253 1_556 S
H147 C143 0.931 . S
H148 C144 0.930 . S
O149 Co138 2.039 1_565 S
O149 C139 1.265 . S
C150 O146 1.253 1_554 S
C150 O151 1.227 . S
O151 C150 1.227 . S
N152 Co138 2.140 1_554 S
N152 C155 1.346 1_554 S
N152 C156 1.345 . S
C153 C154 1.387 1_554 S
C153 C157 1.391 . S
C154 C153 1.387 1_556 S
C154 C155 1.369 . S
C154 H163 0.929 . S
C155 N152 1.346 1_556 S
C155 C154 1.369 . S
C155 H158 0.928 . S
C156 N152 1.345 . S
C156 C157 1.371 . S
C156 H159 0.931 . S
C157 C153 1.391 . S
C157 C156 1.371 . S
C157 H164 0.930 . S
H158 C155 0.928 . S
H159 C156 0.931 . S
H160 C136 0.930 . S
H161 C133 0.930 . S
H162 C142 0.930 . S
H163 C154 0.929 . S
H164 C157 0.930 . S
C165 C166 1.351 . S
C165 N168 1.368 . S
C165 H170 0.931 . S
C166 C165 1.351 . S
C166 N167 1.373 . S
C166 H194 0.930 . S
N167 C166 1.373 . S
N167 C169 1.340 . S
N168 C165 1.368 . S
N168 C169 1.321 . S
N168 Co171 2.135 . S
C169 N167 1.340 . S
C169 N168 1.321 . S
C169 H193 0.930 . S
H170 C165 0.931 . S
Co171 N168 2.135 . S
Co171 N174 2.121 . S
Co171 O179 2.055 . S
Co171 O182 2.039 . S
Co171 N185 2.140 . S
C172 O173 1.227 . S
C172 O182 1.265 . S
O173 C172 1.227 . S
N174 Co171 2.121 . S
N174 C176 1.375 . S
N174 C177 1.313 . S
C175 C176 1.338 1_554 S
C175 N178 1.377 . S
C175 H195 0.930 . S
C176 N174 1.375 . S
C176 C175 1.338 1_556 S
C176 H180 0.931 . S
C177 N174 1.313 . S
C177 N178 1.344 1_556 S
C177 H181 0.930 . S
N178 C175 1.377 . S
N178 C177 1.344 1_554 S
O179 Co171 2.055 . S
O179 C183 1.253 . S
H180 C176 0.931 . S
H181 C177 0.930 . S
O182 Co171 2.039 . S
O182 C172 1.265 . S
C183 O179 1.253 . S
C183 O184 1.227 . S
O184 C183 1.227 . S
N185 Co171 2.140 . S
N185 C188 1.346 . S
N185 C189 1.345 . S
C186 C187 1.387 . S
C186 C190 1.391 . S
C187 C186 1.387 . S
C187 C188 1.369 . S
C187 H196 0.929 . S
C188 N185 1.346 . S
C188 C187 1.369 . S
C188 H191 0.928 . S
C189 N185 1.345 . S
C189 C190 1.371 . S
C189 H192 0.931 . S
C190 C186 1.391 . S
C190 C189 1.371 . S
C190 H197 0.930 . S
H191 C188 0.928 . S
H192 C189 0.931 . S
H193 C169 0.930 . S
H194 C166 0.930 . S
H195 C175 0.930 . S
H196 C187 0.929 . S
H197 C190 0.930 . S
C198 C199 1.351 . S
C198 N201 1.368 . S
C198 H203 0.931 . S
C199 C198 1.351 . S
C199 N200 1.373 . S
C199 H227 0.930 . S
N200 C199 1.373 . S
N200 C202 1.340 . S
N201 C198 1.368 . S
N201 C202 1.321 . S
N201 Co204 2.135 . S
C202 N200 1.340 . S
C202 N201 1.321 . S
C202 H226 0.930 . S
H203 C198 0.931 . S
Co204 N201 2.135 . S
Co204 N207 2.121 . S
Co204 O212 2.055 . S
Co204 O215 2.039 1_545 S
Co204 N218 2.140 . S
C205 O206 1.227 1_565 S
C205 O215 1.265 . S
O206 C205 1.227 1_545 S
N207 Co204 2.121 . S
N207 C209 1.375 . S
N207 C210 1.313 . S
C208 C209 1.338 . S
C208 N211 1.377 . S
C208 H228 0.930 . S
C209 N207 1.375 . S
C209 C208 1.338 . S
C209 H213 0.931 . S
C210 N207 1.313 . S
C210 N211 1.344 . S
C210 H214 0.930 . S
N211 C208 1.377 . S
N211 C210 1.344 . S
O212 Co204 2.055 . S
O212 C216 1.253 . S
H213 C209 0.931 . S
H214 C210 0.930 . S
O215 Co204 2.039 1_565 S
O215 C205 1.265 . S
C216 O212 1.253 . S
C216 O217 1.227 . S
O217 C216 1.227 . S
N218 Co204 2.140 . S
N218 C221 1.346 . S
N218 C222 1.345 . S
C219 C220 1.387 . S
C219 C223 1.391 . S
C220 C219 1.387 . S
C220 C221 1.369 . S
C220 H229 0.929 . S
C221 N218 1.346 . S
C221 C220 1.369 . S
C221 H224 0.928 . S
C222 N218 1.345 . S
C222 C223 1.371 . S
C222 H225 0.931 . S
C223 C219 1.391 . S
C223 C222 1.371 . S
C223 H230 0.930 . S
H224 C221 0.928 . S
H225 C222 0.931 . S
H226 C202 0.930 . S
H227 C199 0.930 . S
H228 C208 0.930 . S
H229 C220 0.929 . S
H230 C223 0.930 . S
C231 C232 1.351 . S
C231 N234 1.368 . S
C231 H236 0.931 . S
C232 C231 1.351 . S
C232 N233 1.373 . S
C232 H260 0.930 . S
N233 C232 1.373 . S
N233 C235 1.340 . S
N234 C231 1.368 . S
N234 C235 1.321 . S
N234 Co237 2.135 . S
C235 N233 1.340 . S
C235 N234 1.321 . S
C235 H259 0.930 . S
H236 C231 0.931 . S
Co237 N234 2.135 . S
Co237 N240 2.121 . S
Co237 O245 2.055 . S
Co237 O248 2.039 . S
Co237 N251 2.140 . S
C238 O239 1.227 . S
C238 O248 1.265 . S
O239 C238 1.227 . S
N240 Co237 2.121 . S
N240 C242 1.375 . S
N240 C243 1.313 . S
C241 C242 1.338 . S
C241 N244 1.377 . S
C241 H261 0.930 . S
C242 N240 1.375 . S
C242 C241 1.338 . S
C242 H246 0.931 . S
C243 N240 1.313 . S
C243 N244 1.344 . S
C243 H247 0.930 . S
N244 C241 1.377 . S
N244 C243 1.344 . S
O245 Co237 2.055 . S
O245 C249 1.253 . S
H246 C242 0.931 . S
H247 C243 0.930 . S
O248 Co237 2.039 . S
O248 C238 1.265 . S
C249 O245 1.253 . S
C249 O250 1.227 . S
O250 C249 1.227 . S
N251 Co237 2.140 . S
N251 C254 1.346 . S
N251 C255 1.345 . S
C252 C253 1.387 . S
C252 C256 1.391 . S
C253 C252 1.387 . S
C253 C254 1.369 . S
C253 H262 0.929 . S
C254 N251 1.346 . S
C254 C253 1.369 . S
C254 H257 0.928 . S
C255 N251 1.345 . S
C255 C256 1.371 . S
C255 H258 0.931 . S
C256 C252 1.391 . S
C256 C255 1.371 . S
C256 H263 0.930 . S
H257 C254 0.928 . S
H258 C255 0.931 . S
H259 C235 0.930 . S
H260 C232 0.930 . S
H261 C241 0.930 . S
H262 C253 0.929 . S
H263 C256 0.930 . S
C264 C265 1.351 . S
C264 N267 1.368 . S
C264 H269 0.931 . S
C265 C264 1.351 . S
C265 N266 1.373 . S
C265 H293 0.930 . S
N266 C265 1.373 . S
N266 C268 1.340 . S
N267 C264 1.368 . S
N267 C268 1.321 . S
N267 Co270 2.135 . S
C268 N266 1.340 . S
C268 N267 1.321 . S
C268 H292 0.930 . S
H269 C264 0.931 . S
Co270 N267 2.135 . S
Co270 N273 2.121 . S
Co270 O278 2.055 . S
Co270 O281 2.039 . S
Co270 N284 2.140 . S
C271 O272 1.227 . S
C271 O281 1.265 . S
O272 C271 1.227 . S
N273 Co270 2.121 . S
N273 C275 1.375 . S
N273 C276 1.313 . S
C274 C275 1.338 . S
C274 N277 1.377 . S
C274 H294 0.930 . S
C275 N273 1.375 . S
C275 C274 1.338 . S
C275 H279 0.931 . S
C276 N273 1.313 . S
C276 N277 1.344 . S
C276 H280 0.930 . S
N277 C274 1.377 . S
N277 C276 1.344 . S
O278 Co270 2.055 . S
O278 C282 1.253 . S
H279 C275 0.931 . S
H280 C276 0.930 . S
O281 Co270 2.039 . S
O281 C271 1.265 . S
C282 O278 1.253 . S
C282 O283 1.227 . S
O283 C282 1.227 . S
N284 Co270 2.140 . S
N284 C287 1.346 . S
N284 C288 1.345 . S
C285 C286 1.387 . S
C285 C289 1.391 . S
C286 C285 1.387 . S
C286 C287 1.369 . S
C286 H295 0.929 . S
C287 N284 1.346 . S
C287 C286 1.369 . S
C287 H290 0.928 . S
C288 N284 1.345 . S
C288 C289 1.371 . S
C288 H291 0.931 . S
C289 C285 1.391 . S
C289 C288 1.371 . S
C289 H296 0.930 . S
H290 C287 0.928 . S
H291 C288 0.931 . S
H292 C268 0.930 . S
H293 C265 0.930 . S
H294 C274 0.930 . S
H295 C286 0.929 . S
H296 C289 0.930 . S
C297 C298 1.351 . S
C297 N300 1.368 1_554 S
C297 H302 0.931 1_554 S
C298 C297 1.351 . S
C298 N299 1.373 . S
C298 H326 0.930 . S
N299 C298 1.373 . S
N299 C301 1.340 . S
N300 C297 1.368 1_556 S
N300 C301 1.321 1_556 S
N300 Co303 2.135 . S
C301 N299 1.340 . S
C301 N300 1.321 1_554 S
C301 H325 0.930 . S
H302 C297 0.931 1_556 S
Co303 N300 2.135 . S
Co303 N306 2.121 . S
Co303 O311 2.055 . S
Co303 O314 2.039 . S
Co303 N317 2.140 . S
C304 O305 1.227 . S
C304 O314 1.265 . S
O305 C304 1.227 . S
N306 Co303 2.121 . S
N306 C308 1.375 . S
N306 C309 1.313 . S
C307 C308 1.338 . S
C307 N310 1.377 . S
C307 H327 0.930 . S
C308 N306 1.375 . S
C308 C307 1.338 . S
C308 H312 0.931 . S
C309 N306 1.313 . S
C309 N310 1.344 . S
C309 H313 0.930 . S
N310 C307 1.377 . S
N310 C309 1.344 . S
O311 Co303 2.055 . S
O311 C315 1.253 . S
H312 C308 0.931 . S
H313 C309 0.930 . S
O314 Co303 2.039 . S
O314 C304 1.265 . S
C315 O311 1.253 . S
C315 O316 1.227 . S
O316 C315 1.227 . S
N317 Co303 2.140 . S
N317 C320 1.346 . S
N317 C321 1.345 . S
C318 C319 1.387 . S
C318 C322 1.391 . S
C319 C318 1.387 . S
C319 C320 1.369 . S
C319 H328 0.929 . S
C320 N317 1.346 . S
C320 C319 1.369 . S
C320 H323 0.928 . S
C321 N317 1.345 . S
C321 C322 1.371 . S
C321 H324 0.931 . S
C322 C318 1.391 . S
C322 C321 1.371 . S
C322 H329 0.930 . S
H323 C320 0.928 . S
H324 C321 0.931 . S
H325 C301 0.930 . S
H326 C298 0.930 . S
H327 C307 0.930 . S
H328 C319 0.929 . S
H329 C322 0.930 . S
C330 C331 1.351 . S
C330 N333 1.368 . S
C330 H335 0.931 . S
C331 C330 1.351 . S
C331 N332 1.373 . S
C331 H359 0.930 . S
N332 C331 1.373 . S
N332 C334 1.340 . S
N333 C330 1.368 . S
N333 C334 1.321 . S
N333 Co336 2.135 1_556 S
C334 N332 1.340 . S
C334 N333 1.321 . S
C334 H358 0.930 . S
H335 C330 0.931 . S
Co336 N333 2.135 1_554 S
Co336 N339 2.121 . S
Co336 O344 2.055 . S
Co336 O347 2.039 1_554 S
Co336 N350 2.140 . S
C337 O338 1.227 . S
C337 O347 1.265 . S
O338 C337 1.227 . S
N339 Co336 2.121 . S
N339 C341 1.375 . S
N339 C342 1.313 . S
C340 C341 1.338 . S
C340 N343 1.377 . S
C340 H360 0.930 . S
C341 N339 1.375 . S
C341 C340 1.338 . S
C341 H345 0.931 . S
C342 N339 1.313 . S
C342 N343 1.344 . S
C342 H346 0.930 . S
N343 C340 1.377 . S
N343 C342 1.344 . S
O344 Co336 2.055 . S
O344 C348 1.253 . S
H345 C341 0.931 . S
H346 C342 0.930 . S
O347 Co336 2.039 1_556 S
O347 C337 1.265 . S
C348 O344 1.253 . S
C348 O349 1.227 . S
O349 C348 1.227 . S
N350 Co336 2.140 . S
N350 C353 1.346 1_554 S
N350 C354 1.345 . S
C351 C352 1.387 1_554 S
C351 C355 1.391 . S
C352 C351 1.387 1_556 S
C352 C353 1.369 . S
C352 H361 0.929 . S
C353 N350 1.346 1_556 S
C353 C352 1.369 . S
C353 H356 0.928 . S
C354 N350 1.345 . S
C354 C355 1.371 . S
C354 H357 0.931 . S
C355 C351 1.391 . S
C355 C354 1.371 . S
C355 H362 0.930 . S
H356 C353 0.928 . S
H357 C354 0.931 . S
H358 C334 0.930 . S
H359 C331 0.930 . S
H360 C340 0.930 . S
H361 C352 0.929 . S
H362 C355 0.930 . S
C363 C364 1.351 1_554 S
C363 N366 1.368 . S
C363 H368 0.931 . S
C364 C363 1.351 1_556 S
C364 N365 1.373 . S
C364 H392 0.930 . S
N365 C364 1.373 . S
N365 C367 1.340 1_556 S
N366 C363 1.368 . S
N366 C367 1.321 . S
N366 Co369 2.135 . S
C367 N365 1.340 1_554 S
C367 N366 1.321 . S
C367 H391 0.930 . S
H368 C363 0.931 . S
Co369 N366 2.135 . S
Co369 N372 2.121 . S
Co369 O377 2.055 . S
Co369 O380 2.039 . S
Co369 N383 2.140 . S
C370 O371 1.227 . S
C370 O380 1.265 . S
O371 C370 1.227 . S
N372 Co369 2.121 . S
N372 C374 1.375 . S
N372 C375 1.313 . S
C373 C374 1.338 . S
C373 N376 1.377 . S
C373 H393 0.930 . S
C374 N372 1.375 . S
C374 C373 1.338 . S
C374 H378 0.931 . S
C375 N372 1.313 . S
C375 N376 1.344 . S
C375 H379 0.930 . S
N376 C373 1.377 . S
N376 C375 1.344 . S
O377 Co369 2.055 . S
O377 C381 1.253 . S
H378 C374 0.931 . S
H379 C375 0.930 . S
O380 Co369 2.039 . S
O380 C370 1.265 . S
C381 O377 1.253 . S
C381 O382 1.227 . S
O382 C381 1.227 . S
N383 Co369 2.140 . S
N383 C386 1.346 . S
N383 C387 1.345 . S
C384 C385 1.387 . S
C384 C388 1.391 . S
C385 C384 1.387 . S
C385 C386 1.369 . S
C385 H394 0.929 . S
C386 N383 1.346 . S
C386 C385 1.369 . S
C386 H389 0.928 . S
C387 N383 1.345 . S
C387 C388 1.371 . S
C387 H390 0.931 . S
C388 C384 1.391 . S
C388 C387 1.371 . S
C388 H395 0.930 . S
H389 C386 0.928 . S
H390 C387 0.931 . S
H391 C367 0.930 . S
H392 C364 0.930 . S
H393 C373 0.930 . S
H394 C385 0.929 . S
H395 C388 0.930 . S
C396 C397 1.351 . S
C396 N399 1.368 . S
C396 H401 0.931 . S
C397 C396 1.351 . S
C397 N398 1.373 . S
C397 H425 0.930 . S
N398 C397 1.373 . S
N398 C400 1.340 . S
N399 C396 1.368 . S
N399 C400 1.321 . S
N399 Co402 2.135 . S
C400 N398 1.340 . S
C400 N399 1.321 . S
C400 H424 0.930 . S
H401 C396 0.931 . S
Co402 N399 2.135 . S
Co402 N405 2.121 . S
Co402 O410 2.055 . S
Co402 O413 2.039 . S
Co402 N416 2.140 . S
C403 O404 1.227 . S
C403 O413 1.265 . S
O404 C403 1.227 . S
N405 Co402 2.121 . S
N405 C407 1.375 . S
N405 C408 1.313 . S
C406 C407 1.338 . S
C406 N409 1.377 . S
C406 H426 0.930 . S
C407 N405 1.375 . S
C407 C406 1.338 . S
C407 H411 0.931 . S
C408 N405 1.313 . S
C408 N409 1.344 . S
C408 H412 0.930 . S
N409 C406 1.377 . S
N409 C408 1.344 . S
O410 Co402 2.055 . S
O410 C414 1.253 . S
H411 C407 0.931 . S
H412 C408 0.930 . S
O413 Co402 2.039 . S
O413 C403 1.265 . S
C414 O410 1.253 . S
C414 O415 1.227 . S
O415 C414 1.227 . S
N416 Co402 2.140 . S
N416 C419 1.346 . S
N416 C420 1.345 . S
C417 C418 1.387 . S
C417 C421 1.391 . S
C418 C417 1.387 . S
C418 C419 1.369 . S
C418 H427 0.929 . S
C419 N416 1.346 . S
C419 C418 1.369 . S
C419 H422 0.928 . S
C420 N416 1.345 . S
C420 C421 1.371 . S
C420 H423 0.931 . S
C421 C417 1.391 . S
C421 C420 1.371 . S
C421 H428 0.930 . S
H422 C419 0.928 . S
H423 C420 0.931 . S
H424 C400 0.930 . S
H425 C397 0.930 . S
H426 C406 0.930 . S
H427 C418 0.929 . S
H428 C421 0.930 . S
C429 C430 1.351 1_554 S
C429 N432 1.368 . S
C429 H434 0.931 . S
C430 C429 1.351 1_556 S
C430 N431 1.373 . S
C430 H458 0.930 . S
N431 C430 1.373 . S
N431 C433 1.340 1_556 S
N432 C429 1.368 . S
N432 C433 1.321 . S
N432 Co435 2.135 . S
C433 N431 1.340 1_554 S
C433 N432 1.321 . S
C433 H457 0.930 . S
H434 C429 0.931 . S
Co435 N432 2.135 . S
Co435 N438 2.121 . S
Co435 O443 2.055 . S
Co435 O446 2.039 . S
Co435 N449 2.140 . S
C436 O437 1.227 . S
C436 O446 1.265 . S
O437 C436 1.227 . S
N438 Co435 2.121 . S
N438 C440 1.375 . S
N438 C441 1.313 . S
C439 C440 1.338 . S
C439 N442 1.377 . S
C439 H459 0.930 . S
C440 N438 1.375 . S
C440 C439 1.338 . S
C440 H444 0.931 . S
C441 N438 1.313 . S
C441 N442 1.344 . S
C441 H445 0.930 . S
N442 C439 1.377 . S
N442 C441 1.344 . S
O443 Co435 2.055 . S
O443 C447 1.253 . S
H444 C440 0.931 . S
H445 C441 0.930 . S
O446 Co435 2.039 . S
O446 C436 1.265 . S
C447 O443 1.253 . S
C447 O448 1.227 . S
O448 C447 1.227 . S
N449 Co435 2.140 . S
N449 C452 1.346 . S
N449 C453 1.345 . S
C450 C451 1.387 . S
C450 C454 1.391 . S
C451 C450 1.387 . S
C451 C452 1.369 . S
C451 H460 0.929 . S
C452 N449 1.346 . S
C452 C451 1.369 . S
C452 H455 0.928 . S
C453 N449 1.345 . S
C453 C454 1.371 . S
C453 H456 0.931 . S
C454 C450 1.391 . S
C454 C453 1.371 . S
C454 H461 0.930 . S
H455 C452 0.928 . S
H456 C453 0.931 . S
H457 C433 0.930 . S
H458 C430 0.930 . S
H459 C439 0.930 . S
H460 C451 0.929 . S
H461 C454 0.930 . S
C462 C463 1.351 . S
C462 N465 1.368 . S
C462 H467 0.931 . S
C463 C462 1.351 . S
C463 N464 1.373 . S
C463 H491 0.930 . S
N464 C463 1.373 . S
N464 C466 1.340 . S
N465 C462 1.368 . S
N465 C466 1.321 . S
N465 Co468 2.135 . S
C466 N464 1.340 . S
C466 N465 1.321 . S
C466 H490 0.930 . S
H467 C462 0.931 . S
Co468 N465 2.135 . S
Co468 N471 2.121 1_554 S
Co468 O476 2.055 . S
Co468 O479 2.039 . S
Co468 N482 2.140 . S
C469 O470 1.227 . S
C469 O479 1.265 . S
O470 C469 1.227 . S
N471 Co468 2.121 1_556 S
N471 C473 1.375 . S
N471 C474 1.313 . S
C472 C473 1.338 . S
C472 N475 1.377 . S
C472 H492 0.930 . S
C473 N471 1.375 . S
C473 C472 1.338 . S
C473 H477 0.931 . S
C474 N471 1.313 . S
C474 N475 1.344 . S
C474 H478 0.930 . S
N475 C472 1.377 . S
N475 C474 1.344 . S
O476 Co468 2.055 . S
O476 C480 1.253 . S
H477 C473 0.931 . S
H478 C474 0.930 . S
O479 Co468 2.039 . S
O479 C469 1.265 . S
C480 O476 1.253 . S
C480 O481 1.227 . S
O481 C480 1.227 . S
N482 Co468 2.140 . S
N482 C485 1.346 . S
N482 C486 1.344 . S
C483 C484 1.387 . S
C483 C487 1.391 1_554 S
C484 C483 1.387 . S
C484 C485 1.369 . S
C484 H493 0.929 . S
C485 N482 1.346 . S
C485 C484 1.369 . S
C485 H488 0.928 . S
C486 N482 1.344 . S
C486 C487 1.371 1_554 S
C486 H489 0.931 1_554 S
C487 C483 1.391 1_556 S
C487 C486 1.371 1_556 S
C487 H494 0.930 . S
H488 C485 0.928 . S
H489 C486 0.931 1_556 S
H490 C466 0.930 . S
H491 C463 0.930 . S
H492 C472 0.930 . S
H493 C484 0.929 . S
H494 C487 0.930 . S
C495 C496 1.351 . S
C495 N498 1.368 1_554 S
C495 H500 0.931 1_554 S
C496 C495 1.351 . S
C496 N497 1.373 . S
C496 H524 0.930 . S
N497 C496 1.373 . S
N497 C499 1.340 . S
N498 C495 1.368 1_556 S
N498 C499 1.321 1_556 S
N498 Co501 2.135 . S
C499 N497 1.340 . S
C499 N498 1.321 1_554 S
C499 H523 0.930 . S
H500 C495 0.931 1_556 S
Co501 N498 2.135 . S
Co501 N504 2.121 . S
Co501 O509 2.055 . S
Co501 O512 2.039 . S
Co501 N515 2.140 . S
C502 O503 1.227 . S
C502 O512 1.265 . S
O503 C502 1.227 . S
N504 Co501 2.121 . S
N504 C506 1.375 . S
N504 C507 1.313 . S
C505 C506 1.338 . S
C505 N508 1.377 . S
C505 H525 0.930 . S
C506 N504 1.375 . S
C506 C505 1.338 . S
C506 H510 0.931 . S
C507 N504 1.313 . S
C507 N508 1.344 . S
C507 H511 0.930 . S
N508 C505 1.377 . S
N508 C507 1.344 . S
O509 Co501 2.055 . S
O509 C513 1.253 . S
H510 C506 0.931 . S
H511 C507 0.930 . S
O512 Co501 2.039 . S
O512 C502 1.265 . S
C513 O509 1.253 . S
C513 O514 1.227 . S
O514 C513 1.227 . S
N515 Co501 2.140 . S
N515 C518 1.346 . S
N515 C519 1.345 . S
C516 C517 1.387 . S
C516 C520 1.391 . S
C517 C516 1.387 . S
C517 C518 1.369 . S
C517 H526 0.929 . S
C518 N515 1.346 . S
C518 C517 1.369 . S
C518 H521 0.928 . S
C519 N515 1.345 . S
C519 C520 1.371 . S
C519 H522 0.931 . S
C520 C516 1.391 . S
C520 C519 1.371 . S
C520 H527 0.930 . S
H521 C518 0.928 . S
H522 C519 0.931 . S
H523 C499 0.930 . S
H524 C496 0.930 . S
H525 C505 0.930 . S
H526 C517 0.929 . S
H527 C520 0.930 . S
C528 C529 1.363 . S
C528 C534 1.379 . S
C528 N536 1.356 . S
C529 C528 1.363 . S
C529 C535 1.363 . S
C530 C531 1.363 . S
C530 C535 1.379 . S
C530 N537 1.356 . S
C531 C530 1.363 . S
C531 C534 1.363 . S
N532 C534 1.356 . S
N532 H544 1.009 . S
N532 H545 0.985 . S
N533 C535 1.356 . S
N533 H538 0.984 . S
N533 H539 0.985 . S
C534 C528 1.379 . S
C534 C531 1.363 . S
C534 N532 1.356 . S
C535 C529 1.363 . S
C535 C530 1.379 . S
C535 N533 1.356 . S
N536 C528 1.356 . S
N536 H542 0.984 . S
N536 H543 0.984 . S
N537 C530 1.356 . S
N537 H540 0.984 . S
N537 H541 0.985 . S
H538 N533 0.984 . S
H539 N533 0.985 . S
H540 N537 0.984 . S
H541 N537 0.985 . S
H542 N536 0.984 . S
H543 N536 0.984 . S
H544 N532 1.009 . S
H545 N532 0.985 . S
C546 C547 1.363 . S
C546 C552 1.379 . S
C546 N554 1.356 . S
C547 C546 1.363 . S
C547 C553 1.363 . S
C548 C549 1.363 . S
C548 C553 1.379 . S
C548 N555 1.356 . S
C549 C548 1.363 . S
C549 C552 1.363 . S
N550 C552 1.356 . S
N550 H562 0.984 . S
N550 H563 0.985 . S
N551 C553 1.356 . S
N551 H556 0.984 1_556 S
N551 H557 0.985 . S
C552 C546 1.379 . S
C552 C549 1.363 . S
C552 N550 1.356 . S
C553 C547 1.363 . S
C553 C548 1.379 . S
C553 N551 1.356 . S
N554 C546 1.356 . S
N554 H560 0.984 . S
N554 H561 0.984 . S
N555 C548 1.356 . S
N555 H558 0.984 . S
N555 H559 0.985 . S
H556 N551 0.984 1_554 S
H557 N551 0.985 . S
H558 N555 0.984 . S
H559 N555 0.985 . S
H560 N554 0.984 . S
H561 N554 0.984 . S
H562 N550 0.984 . S
H563 N550 0.985 . S
C564 C565 1.363 . S
C564 C570 1.379 1_554 S
C564 N572 1.356 . S
C565 C564 1.363 . S
C565 C571 1.363 . S
C566 C567 1.363 . S
C566 C571 1.379 1_556 S
C566 N573 1.356 . S
C567 C566 1.363 . S
C567 C570 1.363 . S
N568 C570 1.356 . S
N568 H580 0.984 . S
N568 H581 0.985 . S
N569 C571 1.356 . S
N569 H574 0.984 . S
N569 H575 0.985 . S
C570 C564 1.379 1_556 S
C570 C567 1.363 . S
C570 N568 1.356 . S
C571 C565 1.363 . S
C571 C566 1.379 1_554 S
C571 N569 1.356 . S
N572 C564 1.356 . S
N572 H578 0.984 1_545 S
N572 H579 0.984 . S
N573 C566 1.356 . S
N573 H576 0.984 . S
N573 H577 0.985 . S
H574 N569 0.984 . S
H575 N569 0.985 . S
H576 N573 0.984 . S
H577 N573 0.985 . S
H578 N572 0.984 1_565 S
H579 N572 0.984 . S
H580 N568 0.984 . S
H581 N568 0.985 . S
C582 C583 1.363 . S
C582 C588 1.379 . S
C582 N590 1.356 . S
C583 C582 1.363 . S
C583 C589 1.363 . S
C584 C585 1.363 . S
C584 C589 1.379 . S
C584 N591 1.356 . S
C585 C584 1.363 . S
C585 C588 1.363 . S
N586 C588 1.356 . S
N586 H598 0.984 . S
N586 H599 0.985 . S
N587 C589 1.356 . S
N587 H592 0.984 . S
N587 H593 0.985 . S
C588 C582 1.379 . S
C588 C585 1.363 . S
C588 N586 1.356 . S
C589 C583 1.363 . S
C589 C584 1.379 . S
C589 N587 1.356 . S
N590 C582 1.356 . S
N590 H596 0.984 . S
N590 H597 0.984 . S
N591 C584 1.356 . S
N591 H594 0.984 . S
N591 H595 0.985 . S
H592 N587 0.984 . S
H593 N587 0.985 . S
H594 N591 0.984 . S
H595 N591 0.985 . S
H596 N590 0.984 . S
H597 N590 0.984 . S
H598 N586 0.984 . S
H599 N586 0.985 . S
C600 C601 1.363 . S
C600 C606 1.379 . S
C600 N608 1.356 . S
C601 C600 1.363 . S
C601 C607 1.363 . S
C602 C603 1.363 . S
C602 C607 1.379 . S
C602 N609 1.356 . S
C603 C602 1.363 . S
C603 C606 1.363 . S
N604 C606 1.356 . S
N604 H616 0.984 . S
N604 H617 0.985 . S
N605 C607 1.356 . S
N605 H610 0.984 . S
N605 H611 0.985 . S
C606 C600 1.379 . S
C606 C603 1.363 . S
C606 N604 1.356 . S
C607 C601 1.363 . S
C607 C602 1.379 . S
C607 N605 1.356 . S
N608 C600 1.356 . S
N608 H614 0.984 . S
N608 H615 0.984 . S
N609 C602 1.356 . S
N609 H612 0.984 . S
N609 H613 0.985 . S
H610 N605 0.984 . S
H611 N605 0.985 . S
H612 N609 0.984 . S
H613 N609 0.985 . S
H614 N608 0.984 . S
H615 N608 0.984 . S
H616 N604 0.984 . S
H617 N604 0.985 . S
C618 C619 1.363 . S
C618 C624 1.379 . S
C618 N626 1.356 . S
C619 C618 1.363 . S
C619 C625 1.363 . S
C620 C621 1.363 . S
C620 C625 1.379 . S
C620 N627 1.356 . S
C621 C620 1.363 . S
C621 C624 1.363 . S
N622 C624 1.356 . S
N622 H634 0.984 . S
N622 H635 0.985 . S
N623 C625 1.356 . S
N623 H628 0.984 . S
N623 H629 0.985 . S
C624 C618 1.379 . S
C624 C621 1.363 . S
C624 N622 1.356 . S
C625 C619 1.363 . S
C625 C620 1.379 . S
C625 N623 1.356 . S
N626 C618 1.356 . S
N626 H632 0.984 . S
N626 H633 0.984 . S
N627 C620 1.356 . S
N627 H630 0.984 . S
N627 H631 0.985 . S
H628 N623 0.984 . S
H629 N623 0.985 . S
H630 N627 0.984 . S
H631 N627 0.985 . S
H632 N626 0.984 . S
H633 N626 0.984 . S
H634 N622 0.984 . S
H635 N622 0.985 . S
C636 C637 1.363 . S
C636 C642 1.379 . S
C636 N644 1.356 . S
C637 C636 1.363 . S
C637 C643 1.363 . S
C638 C639 1.363 1_554 S
C638 C643 1.379 . S
C638 N645 1.356 1_554 S
C639 C638 1.363 1_556 S
C639 C642 1.363 1_556 S
N640 C642 1.356 . S
N640 H652 0.984 . S
N640 H653 0.985 1_554 S
N641 C643 1.356 1_565 S
N641 H646 0.984 . S
N641 H647 0.985 . S
C642 C636 1.379 . S
C642 C639 1.363 1_554 S
C642 N640 1.356 . S
C643 C637 1.363 . S
C643 C638 1.379 . S
C643 N641 1.356 1_545 S
N644 C636 1.356 . S
N644 H650 0.984 . S
N644 H651 0.984 . S
N645 C638 1.356 1_556 S
N645 H648 0.984 . S
N645 H649 0.985 1_545 S
H646 N641 0.984 . S
H647 N641 0.985 . S
H648 N645 0.984 . S
H649 N645 0.985 1_565 S
H650 N644 0.984 . S
H651 N644 0.984 . S
H652 N640 0.984 . S
H653 N640 0.985 1_556 S
C654 C655 1.363 . S
C654 C660 1.379 . S
C654 N662 1.356 . S
C655 C654 1.363 . S
C655 C661 1.363 . S
C656 C657 1.363 . S
C656 C661 1.379 . S
C656 N663 1.356 . S
C657 C656 1.363 . S
C657 C660 1.363 . S
N658 C660 1.356 . S
N658 H670 0.984 . S
N658 H671 0.985 1_556 S
N659 C661 1.356 . S
N659 H664 0.984 . S
N659 H665 0.985 . S
C660 C654 1.379 . S
C660 C657 1.363 . S
C660 N658 1.356 . S
C661 C655 1.363 . S
C661 C656 1.379 . S
C661 N659 1.356 . S
N662 C654 1.356 . S
N662 H668 0.984 . S
N662 H669 0.984 . S
N663 C656 1.356 . S
N663 H666 0.984 1_556 S
N663 H667 0.985 . S
H664 N659 0.984 . S
H665 N659 0.985 . S
H666 N663 0.984 1_554 S
H667 N663 0.985 . S
H668 N662 0.984 . S
H669 N662 0.984 . S
H670 N658 0.984 . S
H671 N658 0.985 1_554 S
C672 C673 1.363 . S
C672 C678 1.379 . S
C672 N680 1.356 . S
C673 C672 1.363 . S
C673 C679 1.363 . S
C674 C675 1.363 1_554 S
C674 C679 1.379 . S
C674 N681 1.352 1_554 S
C675 C674 1.363 1_556 S
C675 C678 1.363 1_556 S
N676 C678 1.356 1_556 S
N676 H688 0.984 . S
N676 H689 0.985 . S
N677 C679 1.356 . S
N677 H682 0.984 . S
N677 H683 0.985 . S
C678 C672 1.379 . S
C678 C675 1.363 1_554 S
C678 N676 1.356 1_554 S
C679 C673 1.363 . S
C679 C674 1.379 . S
C679 N677 1.356 . S
N680 C672 1.356 . S
N680 H686 0.984 . S
N680 H687 0.984 . S
N681 C674 1.352 1_556 S
N681 H684 0.992 . S
N681 H685 0.981 1_556 S
H682 N677 0.984 . S
H683 N677 0.985 . S
H684 N681 0.992 . S
H685 N681 0.981 1_554 S
H686 N680 0.984 . S
H687 N680 0.984 . S
H688 N676 0.984 . S
H689 N676 0.985 . S
C690 C691 1.363 . S
C690 C696 1.379 . S
C690 N698 1.356 . S
C691 C690 1.363 . S
C691 C697 1.363 . S
C692 C693 1.363 . S
C692 C697 1.379 . S
C692 N699 1.356 . S
C693 C692 1.363 . S
C693 C696 1.363 . S
N694 C696 1.356 . S
N694 H706 0.984 . S
N694 H707 0.985 . S
N695 C697 1.356 . S
N695 H700 0.984 . S
N695 H701 0.985 . S
C696 C690 1.379 . S
C696 C693 1.363 . S
C696 N694 1.356 . S
C697 C691 1.363 . S
C697 C692 1.379 . S
C697 N695 1.356 . S
N698 C690 1.356 . S
N698 H704 0.984 . S
N698 H705 0.984 . S
N699 C692 1.356 . S
N699 H702 0.984 . S
N699 H703 0.985 . S
H700 N695 0.984 . S
H701 N695 0.985 . S
H702 N699 0.984 . S
H703 N699 0.985 . S
H704 N698 0.984 . S
H705 N698 0.984 . S
H706 N694 0.984 . S
H707 N694 0.985 . S
C708 C709 1.363 . S
C708 C714 1.379 . S
C708 N716 1.356 . S
C709 C708 1.363 . S
C709 C715 1.363 . S
C710 C711 1.363 . S
C710 C715 1.379 . S
C710 N717 1.356 . S
C711 C710 1.363 . S
C711 C714 1.363 . S
N712 C714 1.356 . S
N712 H724 0.984 . S
N712 H725 0.985 . S
N713 C715 1.356 . S
N713 H718 0.984 . S
N713 H719 0.985 . S
C714 C708 1.379 . S
C714 C711 1.363 . S
C714 N712 1.356 . S
C715 C709 1.363 . S
C715 C710 1.379 . S
C715 N713 1.356 . S
N716 C708 1.356 . S
N716 H722 0.984 . S
N716 H723 0.984 . S
N717 C710 1.356 . S
N717 H720 0.984 . S
N717 H721 0.985 . S
H718 N713 0.984 . S
H719 N713 0.985 . S
H720 N717 0.984 . S
H721 N717 0.985 . S
H722 N716 0.984 . S
H723 N716 0.984 . S
H724 N712 0.984 . S
H725 N712 0.985 . S
C726 C727 1.363 . S
C726 C732 1.379 . S
C726 N734 1.356 . S
C727 C726 1.363 . S
C727 C733 1.363 . S
C728 C729 1.363 . S
C728 C733 1.379 . S
C728 N735 1.356 . S
C729 C728 1.363 . S
C729 C732 1.363 . S
N730 C732 1.356 . S
N730 H742 0.984 . S
N730 H743 0.985 . S
N731 C733 1.356 . S
N731 H736 0.984 . S
N731 H737 0.985 . S
C732 C726 1.379 . S
C732 C729 1.363 . S
C732 N730 1.356 . S
C733 C727 1.363 . S
C733 C728 1.379 . S
C733 N731 1.356 . S
N734 C726 1.356 . S
N734 H740 0.984 . S
N734 H741 0.984 . S
N735 C728 1.356 . S
N735 H738 0.984 . S
N735 H739 0.985 . S
H736 N731 0.984 . S
H737 N731 0.985 . S
H738 N735 0.984 . S
H739 N735 0.985 . S
H740 N734 0.984 . S
H741 N734 0.984 . S
H742 N730 0.984 . S
H743 N730 0.985 . S
C744 C745 1.363 . S
C744 C750 1.379 1_556 S
C744 N752 1.356 . S
C745 C744 1.363 . S
C745 C751 1.363 . S
C746 C747 1.363 . S
C746 C751 1.379 1_554 S
C746 N753 1.356 . S
C747 C746 1.363 . S
C747 C750 1.363 . S
N748 C750 1.356 . S
N748 H760 0.984 . S
N748 H761 0.985 . S
N749 C751 1.356 . S
N749 H754 0.984 . S
N749 H755 0.985 . S
C750 C744 1.379 1_554 S
C750 C747 1.363 . S
C750 N748 1.356 . S
C751 C745 1.363 . S
C751 C746 1.379 1_556 S
C751 N749 1.356 . S
N752 C744 1.356 . S
N752 H758 0.984 . S
N752 H759 0.984 . S
N753 C746 1.356 . S
N753 H756 0.984 . S
N753 H757 0.985 . S
H754 N749 0.984 . S
H755 N749 0.985 . S
H756 N753 0.984 . S
H757 N753 0.985 . S
H758 N752 0.984 . S
H759 N752 0.984 . S
H760 N748 0.984 . S
H761 N748 0.985 . S
C762 C763 1.363 . S
C762 C768 1.379 . S
C762 N770 1.356 . S
C763 C762 1.363 . S
C763 C769 1.363 . S
C764 C765 1.363 . S
C764 C769 1.379 . S
C764 N771 1.356 . S
C765 C764 1.363 . S
C765 C768 1.363 . S
N766 C768 1.356 . S
N766 H778 0.984 . S
N766 H779 0.985 . S
N767 C769 1.356 . S
N767 H772 0.984 . S
N767 H773 0.985 . S
C768 C762 1.379 . S
C768 C765 1.363 . S
C768 N766 1.356 . S
C769 C763 1.363 . S
C769 C764 1.379 . S
C769 N767 1.356 . S
N770 C762 1.356 . S
N770 H776 0.984 . S
N770 H777 0.984 . S
N771 C764 1.356 . S
N771 H774 0.984 . S
N771 H775 0.985 . S
H772 N767 0.984 . S
H773 N767 0.985 . S
H774 N771 0.984 . S
H775 N771 0.985 . S
H776 N770 0.984 . S
H777 N770 0.984 . S
H778 N766 0.984 . S
H779 N766 0.985 . S
C780 C781 1.363 . S
C780 C786 1.379 . S
C780 N788 1.356 . S
C781 C780 1.363 . S
C781 C787 1.363 . S
C782 C783 1.363 . S
C782 C787 1.379 . S
C782 N789 1.356 . S
C783 C782 1.363 . S
C783 C786 1.363 . S
N784 C786 1.356 . S
N784 H796 0.984 . S
N784 H797 0.985 . S
N785 C787 1.356 . S
N785 H790 0.984 . S
N785 H791 0.985 . S
C786 C780 1.379 . S
C786 C783 1.363 . S
C786 N784 1.356 . S
C787 C781 1.363 . S
C787 C782 1.379 . S
C787 N785 1.356 . S
N788 C780 1.356 . S
N788 H794 0.984 . S
N788 H795 0.984 . S
N789 C782 1.356 . S
N789 H792 0.984 . S
N789 H793 0.985 . S
H790 N785 0.984 . S
H791 N785 0.985 . S
H792 N789 0.984 . S
H793 N789 0.985 . S
H794 N788 0.984 . S
H795 N788 0.984 . S
H796 N784 0.984 . S
H797 N784 0.985 . S
C798 C799 1.363 . S
C798 C804 1.379 . S
C798 N806 1.356 . S
C799 C798 1.363 . S
C799 C805 1.363 . S
C800 C801 1.363 . S
C800 C805 1.379 . S
C800 N807 1.356 . S
C801 C800 1.363 . S
C801 C804 1.363 . S
N802 C804 1.356 . S
N802 H814 0.984 . S
N802 H815 0.985 . S
N803 C805 1.356 . S
N803 H808 0.984 . S
N803 H809 0.985 . S
C804 C798 1.379 . S
C804 C801 1.363 . S
C804 N802 1.356 . S
C805 C799 1.363 . S
C805 C800 1.379 . S
C805 N803 1.356 . S
N806 C798 1.356 . S
N806 H812 0.984 . S
N806 H813 0.984 . S
N807 C800 1.356 . S
N807 H810 0.984 . S
N807 H811 0.985 . S
H808 N803 0.984 . S
H809 N803 0.985 . S
H810 N807 0.984 . S
H811 N807 0.985 . S
H812 N806 0.984 . S
H813 N806 0.984 . S
H814 N802 0.984 . S
H815 N802 0.985 . S
C816 C817 1.363 . S
C816 C822 1.379 . S
C816 N824 1.356 . S
C817 C816 1.363 . S
C817 C823 1.363 . S
C818 C819 1.363 . S
C818 C823 1.379 . S
C818 N825 1.356 . S
C819 C818 1.363 . S
C819 C822 1.363 . S
N820 C822 1.356 . S
N820 H832 0.984 . S
N820 H833 0.985 . S
N821 C823 1.356 . S
N821 H826 0.984 . S
N821 H827 0.985 . S
C822 C816 1.379 . S
C822 C819 1.363 . S
C822 N820 1.356 . S
C823 C817 1.363 . S
C823 C818 1.379 . S
C823 N821 1.356 . S
N824 C816 1.356 . S
N824 H830 0.984 . S
N824 H831 0.984 . S
N825 C818 1.356 . S
N825 H828 0.984 . S
N825 H829 0.985 . S
H826 N821 0.984 . S
H827 N821 0.985 . S
H828 N825 0.984 . S
H829 N825 0.985 . S
H830 N824 0.984 . S
H831 N824 0.984 . S
H832 N820 0.984 . S
H833 N820 0.985 . S
C834 C835 1.363 . S
C834 C840 1.379 . S
C834 N842 1.356 . S
C835 C834 1.363 . S
C835 C841 1.363 . S
C836 C837 1.363 . S
C836 C841 1.379 . S
C836 N843 1.356 . S
C837 C836 1.363 . S
C837 C840 1.363 . S
N838 C840 1.356 . S
N838 H850 0.984 . S
N838 H851 0.985 . S
N839 C841 1.356 . S
N839 H844 0.984 . S
N839 H845 0.985 . S
C840 C834 1.379 . S
C840 C837 1.363 . S
C840 N838 1.356 . S
C841 C835 1.363 . S
C841 C836 1.379 . S
C841 N839 1.356 . S
N842 C834 1.356 . S
N842 H848 0.984 . S
N842 H849 0.984 . S
N843 C836 1.356 . S
N843 H846 0.984 . S
N843 H847 0.985 . S
H844 N839 0.984 . S
H845 N839 0.985 . S
H846 N843 0.984 . S
H847 N843 0.985 . S
H848 N842 0.984 . S
H849 N842 0.984 . S
H850 N838 0.984 . S
H851 N838 0.985 . S
C852 C853 1.363 . S
C852 C858 1.379 . S
C852 N860 1.356 . S
C853 C852 1.363 . S
C853 C859 1.363 . S
C854 C855 1.363 . S
C854 C859 1.379 . S
C854 N861 1.356 . S
C855 C854 1.363 . S
C855 C858 1.363 . S
N856 C858 1.356 . S
N856 H868 0.984 . S
N856 H869 0.985 . S
N857 C859 1.356 . S
N857 H862 0.984 . S
N857 H863 0.985 . S
C858 C852 1.379 . S
C858 C855 1.363 . S
C858 N856 1.356 . S
C859 C853 1.363 . S
C859 C854 1.379 . S
C859 N857 1.356 . S
N860 C852 1.356 . S
N860 H866 0.984 . S
N860 H867 0.984 . S
N861 C854 1.356 . S
N861 H864 0.984 . S
N861 H865 0.985 . S
H862 N857 0.984 . S
H863 N857 0.985 . S
H864 N861 0.984 . S
H865 N861 0.985 . S
H866 N860 0.984 . S
H867 N860 0.984 . S
H868 N856 0.984 . S
H869 N856 0.985 . S
C870 C871 1.363 . S
C870 C876 1.379 . S
C870 N878 1.356 1_556 S
C871 C870 1.363 . S
C871 C877 1.363 . S
C872 C873 1.363 . S
C872 C877 1.379 . S
C872 N879 1.356 . S
C873 C872 1.363 . S
C873 C876 1.363 . S
N874 C876 1.356 . S
N874 H886 0.984 . S
N874 H887 0.985 . S
N875 C877 1.356 . S
N875 H880 0.984 1_565 S
N875 H881 0.985 1_565 S
C876 C870 1.379 . S
C876 C873 1.363 . S
C876 N874 1.356 . S
C877 C871 1.363 . S
C877 C872 1.379 . S
C877 N875 1.356 . S
N878 C870 1.356 1_554 S
N878 H884 0.984 . S
N878 H885 0.984 . S
N879 C872 1.356 . S
N879 H882 0.984 . S
N879 H883 0.985 . S
H880 N875 0.984 1_545 S
H881 N875 0.985 1_545 S
H882 N879 0.984 . S
H883 N879 0.985 . S
H884 N878 0.984 . S
H885 N878 0.984 . S
H886 N874 0.984 . S
H887 N874 0.985 . S
C888 C889 1.363 . S
C888 C894 1.379 . S
C888 N896 1.356 . S
C889 C888 1.363 . S
C889 C895 1.363 . S
C890 C891 1.363 . S
C890 C895 1.379 . S
C890 N897 1.356 . S
C891 C890 1.363 . S
C891 C894 1.363 . S
N892 C894 1.356 1_554 S
N892 H904 0.984 . S
N892 H905 0.985 . S
N893 C895 1.356 . S
N893 H898 0.984 . S
N893 H899 0.985 . S
C894 C888 1.379 . S
C894 C891 1.363 . S
C894 N892 1.356 1_556 S
C895 C889 1.363 . S
C895 C890 1.379 . S
C895 N893 1.356 . S
N896 C888 1.356 . S
N896 H902 0.984 . S
N896 H903 0.984 . S
N897 C890 1.356 . S
N897 H900 0.984 1_565 S
N897 H901 0.985 1_565 S
H898 N893 0.984 . S
H899 N893 0.985 . S
H900 N897 0.984 1_545 S
H901 N897 0.985 1_545 S
H902 N896 0.984 . S
H903 N896 0.984 . S
H904 N892 0.984 . S
H905 N892 0.985 . S
C906 C907 1.363 . S
C906 C912 1.379 . S
C906 N914 1.356 . S
C907 C906 1.363 . S
C907 C913 1.363 . S
C908 C909 1.363 . S
C908 C913 1.379 . S
C908 N915 1.356 . S
C909 C908 1.363 . S
C909 C912 1.363 . S
N910 C912 1.356 . S
N910 H922 0.984 . S
N910 H923 0.985 . S
N911 C913 1.356 . S
N911 H916 0.984 . S
N911 H917 0.985 . S
C912 C906 1.379 . S
C912 C909 1.363 . S
C912 N910 1.356 . S
C913 C907 1.363 . S
C913 C908 1.379 . S
C913 N911 1.356 . S
N914 C906 1.356 . S
N914 H920 0.984 . S
N914 H921 0.984 . S
N915 C908 1.356 . S
N915 H918 0.984 1_565 S
N915 H919 0.985 1_565 S
H916 N911 0.984 . S
H917 N911 0.985 . S
H918 N915 0.984 1_545 S
H919 N915 0.985 1_545 S
H920 N914 0.984 . S
H921 N914 0.984 . S
H922 N910 0.984 . S
H923 N910 0.985 . S
C924 C925 1.363 . S
C924 C930 1.379 . S
C924 N932 1.356 . S
C925 C924 1.363 . S
C925 C931 1.363 . S
C926 C927 1.363 . S
C926 C931 1.379 . S
C926 N933 1.356 . S
C927 C926 1.363 . S
C927 C930 1.363 . S
N928 C930 1.356 . S
N928 H940 0.984 . S
N928 H941 0.985 . S
N929 C931 1.356 . S
N929 H934 0.984 . S
N929 H935 0.985 . S
C930 C924 1.379 . S
C930 C927 1.363 . S
C930 N928 1.356 . S
C931 C925 1.363 . S
C931 C926 1.379 . S
C931 N929 1.356 . S
N932 C924 1.356 . S
N932 H938 0.984 . S
N932 H939 0.984 . S
N933 C926 1.356 . S
N933 H936 0.984 . S
N933 H937 0.985 . S
H934 N929 0.984 . S
H935 N929 0.985 . S
H936 N933 0.984 . S
H937 N933 0.985 . S
H938 N932 0.984 . S
H939 N932 0.984 . S
H940 N928 0.984 . S
H941 N928 0.985 . S
C942 C943 1.363 . S
C942 C948 1.379 . S
C942 N950 1.356 . S
C943 C942 1.363 . S
C943 C949 1.363 . S
C944 C945 1.363 . S
C944 C949 1.379 . S
C944 N951 1.356 . S
C945 C944 1.363 . S
C945 C948 1.363 . S
N946 C948 1.356 . S
N946 H958 0.984 . S
N946 H959 0.985 . S
N947 C949 1.356 . S
N947 H952 0.984 . S
N947 H953 0.985 . S
C948 C942 1.379 . S
C948 C945 1.363 . S
C948 N946 1.356 . S
C949 C943 1.363 . S
C949 C944 1.379 . S
C949 N947 1.356 . S
N950 C942 1.356 . S
N950 H956 0.984 . S
N950 H957 0.984 . S
N951 C944 1.356 . S
N951 H954 0.984 . S
N951 H955 0.985 . S
H952 N947 0.984 . S
H953 N947 0.985 . S
H954 N951 0.984 . S
H955 N951 0.985 . S
H956 N950 0.984 . S
H957 N950 0.984 . S
H958 N946 0.984 . S
H959 N946 0.985 . S
C960 C961 1.363 . S
C960 C966 1.379 . S
C960 N968 1.356 . S
C961 C960 1.363 . S
C961 C967 1.363 . S
C962 C963 1.363 . S
C962 C967 1.379 . S
C962 N969 1.356 . S
C963 C962 1.363 . S
C963 C966 1.363 . S
N964 C966 1.356 . S
N964 H976 0.984 . S
N964 H977 0.985 . S
N965 C967 1.356 . S
N965 H970 0.984 . S
N965 H971 0.985 . S
C966 C960 1.379 . S
C966 C963 1.363 . S
C966 N964 1.356 . S
C967 C961 1.363 . S
C967 C962 1.379 . S
C967 N965 1.356 . S
N968 C960 1.356 . S
N968 H974 0.984 . S
N968 H975 0.984 . S
N969 C962 1.356 . S
N969 H972 0.984 . S
N969 H973 0.985 . S
H970 N965 0.984 . S
H971 N965 0.985 . S
H972 N969 0.984 . S
H973 N969 0.985 . S
H974 N968 0.984 . S
H975 N968 0.984 . S
H976 N964 0.984 . S
H977 N964 0.985 . S
C978 C979 1.363 . S
C978 C984 1.379 1_556 S
C978 N986 1.356 1_556 S
C979 C978 1.363 . S
C979 C985 1.363 . S
C980 C981 1.363 . S
C980 C985 1.379 . S
C980 N987 1.356 . S
C981 C980 1.363 . S
C981 C984 1.363 1_556 S
N982 C984 1.356 . S
N982 H994 0.984 . S
N982 H995 0.985 . S
N983 C985 1.356 . S
N983 H988 0.984 . S
N983 H989 0.985 . S
C984 C978 1.379 1_554 S
C984 C981 1.363 1_554 S
C984 N982 1.356 . S
C985 C979 1.363 . S
C985 C980 1.379 . S
C985 N983 1.356 . S
N986 C978 1.356 1_554 S
N986 H992 0.984 . S
N986 H993 0.984 1_554 S
N987 C980 1.356 . S
N987 H990 0.984 . S
N987 H991 0.985 . S
H988 N983 0.984 . S
H989 N983 0.985 . S
H990 N987 0.984 . S
H991 N987 0.985 . S
H992 N986 0.984 . S
H993 N986 0.984 1_556 S
H994 N982 0.984 . S
H995 N982 0.985 . S
C996 C997 1.363 . S
C996 C1002 1.379 . S
C996 N1004 1.356 . S
C997 C996 1.363 . S
C997 C1003 1.363 . S
C998 C999 1.363 . S
C998 C1003 1.379 . S
C998 N1005 1.356 . S
C999 C998 1.363 . S
C999 C1002 1.363 . S
N1000 C1002 1.356 . S
N1000 H1012 0.984 . S
N1000 H1013 0.985 . S
N1001 C1003 1.356 1_556 S
N1001 H1006 0.984 . S
N1001 H1007 0.985 . S
C1002 C996 1.379 . S
C1002 C999 1.363 . S
C1002 N1000 1.356 . S
C1003 C997 1.363 . S
C1003 C998 1.379 . S
C1003 N1001 1.356 1_554 S
N1004 C996 1.356 . S
N1004 H1010 0.984 . S
N1004 H1011 0.984 . S
N1005 C998 1.356 . S
N1005 H1008 0.984 . S
N1005 H1009 0.985 . S
H1006 N1001 0.984 . S
H1007 N1001 0.985 . S
H1008 N1005 0.984 . S
H1009 N1005 0.985 . S
H1010 N1004 0.984 . S
H1011 N1004 0.984 . S
H1012 N1000 0.984 . S
H1013 N1000 0.985 . S
C1014 C1015 1.363 . S
C1014 C1020 1.379 . S
C1014 N1022 1.356 . S
C1015 C1014 1.363 . S
C1015 C1021 1.363 . S
C1016 C1017 1.363 . S
C1016 C1021 1.379 . S
C1016 N1023 1.356 . S
C1017 C1016 1.363 . S
C1017 C1020 1.363 . S
N1018 C1020 1.356 . S
N1018 H1030 0.984 . S
N1018 H1031 0.985 . S
N1019 C1021 1.356 . S
N1019 H1024 0.984 . S
N1019 H1025 0.985 . S
C1020 C1014 1.379 . S
C1020 C1017 1.363 . S
C1020 N1018 1.356 . S
C1021 C1015 1.363 . S
C1021 C1016 1.379 . S
C1021 N1019 1.356 . S
N1022 C1014 1.356 . S
N1022 H1028 0.984 . S
N1022 H1029 0.984 . S
N1023 C1016 1.356 . S
N1023 H1026 0.984 . S
N1023 H1027 0.985 . S
H1024 N1019 0.984 . S
H1025 N1019 0.985 . S
H1026 N1023 0.984 . S
H1027 N1023 0.985 . S
H1028 N1022 0.984 . S
H1029 N1022 0.984 . S
H1030 N1018 0.984 . S
H1031 N1018 0.985 . S
C1032 C1033 1.363 . S
C1032 C1038 1.379 . S
C1032 N1040 1.356 . S
C1033 C1032 1.363 . S
C1033 C1039 1.363 . S
C1034 C1035 1.363 . S
C1034 C1039 1.379 . S
C1034 N1041 1.356 . S
C1035 C1034 1.363 . S
C1035 C1038 1.363 . S
N1036 C1038 1.356 . S
N1036 H1048 0.984 . S
N1036 H1049 0.985 . S
N1037 C1039 1.356 . S
N1037 H1042 0.984 . S
N1037 H1043 0.985 . S
C1038 C1032 1.379 . S
C1038 C1035 1.363 . S
C1038 N1036 1.356 . S
C1039 C1033 1.363 . S
C1039 C1034 1.379 . S
C1039 N1037 1.356 . S
N1040 C1032 1.356 . S
N1040 H1046 0.984 . S
N1040 H1047 0.984 . S
N1041 C1034 1.356 . S
N1041 H1044 0.984 . S
N1041 H1045 0.985 . S
H1042 N1037 0.984 . S
H1043 N1037 0.985 . S
H1044 N1041 0.984 . S
H1045 N1041 0.985 . S
H1046 N1040 0.984 . S
H1047 N1040 0.984 . S
H1048 N1036 0.984 . S
H1049 N1036 0.985 . S
C1050 C1051 1.363 . S
C1050 C1056 1.379 . S
C1050 N1058 1.356 . S
C1051 C1050 1.363 . S
C1051 C1057 1.363 . S
C1052 C1053 1.363 . S
C1052 C1057 1.379 . S
C1052 N1059 1.356 . S
C1053 C1052 1.363 . S
C1053 C1056 1.363 . S
N1054 C1056 1.356 . S
N1054 H1066 0.984 . S
N1054 H1067 0.985 . S
N1055 C1057 1.356 . S
N1055 H1060 0.984 . S
N1055 H1061 0.985 . S
C1056 C1050 1.379 . S
C1056 C1053 1.363 . S
C1056 N1054 1.356 . S
C1057 C1051 1.363 . S
C1057 C1052 1.379 . S
C1057 N1055 1.356 . S
N1058 C1050 1.356 . S
N1058 H1064 0.984 . S
N1058 H1065 0.984 . S
N1059 C1052 1.356 . S
N1059 H1062 0.984 . S
N1059 H1063 0.985 . S
H1060 N1055 0.984 . S
H1061 N1055 0.985 . S
H1062 N1059 0.984 . S
H1063 N1059 0.985 . S
H1064 N1058 0.984 . S
H1065 N1058 0.984 . S
H1066 N1054 0.984 . S
H1067 N1054 0.985 . S
C1068 C1069 1.363 . S
C1068 C1074 1.379 . S
C1068 N1076 1.356 . S
C1069 C1068 1.363 . S
C1069 C1075 1.363 . S
C1070 C1071 1.363 . S
C1070 C1075 1.379 1_554 S
C1070 N1077 1.356 . S
C1071 C1070 1.363 . S
C1071 C1074 1.363 1_554 S
N1072 C1074 1.356 . S
N1072 H1084 0.984 . S
N1072 H1085 0.985 . S
N1073 C1075 1.356 . S
N1073 H1078 0.984 . S
N1073 H1079 0.985 1_556 S
C1074 C1068 1.379 . S
C1074 C1071 1.363 1_556 S
C1074 N1072 1.356 . S
C1075 C1069 1.363 . S
C1075 C1070 1.379 1_556 S
C1075 N1073 1.356 . S
N1076 C1068 1.356 . S
N1076 H1082 0.984 . S
N1076 H1083 0.984 . S
N1077 C1070 1.356 . S
N1077 H1080 0.984 . S
N1077 H1081 0.985 . S
H1078 N1073 0.984 . S
H1079 N1073 0.985 1_554 S
H1080 N1077 0.984 . S
H1081 N1077 0.985 . S
H1082 N1076 0.984 . S
H1083 N1076 0.984 . S
H1084 N1072 0.984 . S
H1085 N1072 0.985 . S
C1086 C1087 1.363 . S
C1086 C1092 1.379 . S
C1086 N1094 1.356 . S
C1087 C1086 1.363 . S
C1087 C1093 1.363 . S
C1088 C1089 1.363 . S
C1088 C1093 1.379 . S
C1088 N1095 1.356 . S
C1089 C1088 1.363 . S
C1089 C1092 1.363 . S
N1090 C1092 1.356 . S
N1090 H1102 0.984 . S
N1090 H1103 0.985 . S
N1091 C1093 1.356 . S
N1091 H1096 0.984 . S
N1091 H1097 0.985 . S
C1092 C1086 1.379 . S
C1092 C1089 1.363 . S
C1092 N1090 1.356 . S
C1093 C1087 1.363 . S
C1093 C1088 1.379 . S
C1093 N1091 1.356 . S
N1094 C1086 1.356 . S
N1094 H1100 0.984 . S
N1094 H1101 0.984 . S
N1095 C1088 1.356 . S
N1095 H1098 0.984 . S
N1095 H1099 0.985 . S
H1096 N1091 0.984 . S
H1097 N1091 0.985 . S
H1098 N1095 0.984 . S
H1099 N1095 0.985 . S
H1100 N1094 0.984 . S
H1101 N1094 0.984 . S
H1102 N1090 0.984 . S
H1103 N1090 0.985 . S
C1104 C1105 1.363 . S
C1104 C1110 1.379 . S
C1104 N1112 1.356 . S
C1105 C1104 1.363 . S
C1105 C1111 1.363 . S
C1106 C1107 1.363 1_556 S
C1106 C1111 1.379 1_556 S
C1106 N1113 1.363 . S
C1107 C1106 1.363 1_554 S
C1107 C1110 1.363 . S
N1108 C1110 1.356 . S
N1108 H1120 0.984 . S
N1108 H1121 0.985 . S
N1109 C1111 1.356 1_556 S
N1109 H1114 0.984 1_556 S
N1109 H1115 0.985 1_545 S
C1110 C1104 1.379 . S
C1110 C1107 1.363 . S
C1110 N1108 1.356 . S
C1111 C1105 1.363 . S
C1111 C1106 1.379 1_554 S
C1111 N1109 1.356 1_554 S
N1112 C1104 1.356 . S
N1112 H1118 0.984 . S
N1112 H1119 0.984 . S
N1113 C1106 1.363 . S
N1113 H1116 0.986 . S
N1113 H1117 0.977 1_545 S
H1114 N1109 0.984 1_554 S
H1115 N1109 0.985 1_565 S
H1116 N1113 0.986 . S
H1117 N1113 0.977 1_565 S
H1118 N1112 0.984 . S
H1119 N1112 0.984 . S
H1120 N1108 0.984 . S
H1121 N1108 0.985 . S
C1122 C1123 1.363 . S
C1122 C1128 1.379 . S
C1122 N1130 1.356 . S
C1123 C1122 1.363 . S
C1123 C1129 1.363 . S
C1124 C1125 1.363 . S
C1124 C1129 1.379 . S
C1124 N1131 1.356 . S
C1125 C1124 1.363 . S
C1125 C1128 1.363 . S
N1126 C1128 1.356 . S
N1126 H1138 0.984 . S
N1126 H1139 0.985 . S
N1127 C1129 1.356 . S
N1127 H1132 0.984 . S
N1127 H1133 0.985 . S
C1128 C1122 1.379 . S
C1128 C1125 1.363 . S
C1128 N1126 1.356 . S
C1129 C1123 1.363 . S
C1129 C1124 1.379 . S
C1129 N1127 1.356 . S
N1130 C1122 1.356 . S
N1130 H1136 0.984 . S
N1130 H1137 0.984 . S
N1131 C1124 1.356 . S
N1131 H1134 0.984 . S
N1131 H1135 0.985 . S
H1132 N1127 0.984 . S
H1133 N1127 0.985 . S
H1134 N1131 0.984 . S
H1135 N1131 0.985 . S
H1136 N1130 0.984 . S
H1137 N1130 0.984 . S
H1138 N1126 0.984 . S
H1139 N1126 0.985 . S
C1140 C1141 1.363 . S
C1140 C1146 1.379 1_455 S
C1140 N1148 1.356 . S
C1141 C1140 1.363 . S
C1141 C1147 1.363 . S
C1142 C1143 1.363 . S
C1142 C1147 1.379 1_655 S
C1142 N1149 1.356 . S
C1143 C1142 1.363 . S
C1143 C1146 1.363 . S
N1144 C1146 1.356 . S
N1144 H1156 0.984 . S
N1144 H1157 0.985 . S
N1145 C1147 1.356 . S
N1145 H1150 0.984 . S
N1145 H1151 0.985 . S
C1146 C1140 1.379 1_655 S
C1146 C1143 1.363 . S
C1146 N1144 1.356 . S
C1147 C1141 1.363 . S
C1147 C1142 1.379 1_455 S
C1147 N1145 1.356 . S
N1148 C1140 1.356 . S
N1148 H1154 0.984 . S
N1148 H1155 0.984 . S
N1149 C1142 1.356 . S
N1149 H1152 0.984 . S
N1149 H1153 0.985 . S
H1150 N1145 0.984 . S
H1151 N1145 0.985 . S
H1152 N1149 0.984 . S
H1153 N1149 0.985 . S
H1154 N1148 0.984 . S
H1155 N1148 0.984 . S
H1156 N1144 0.984 . S
H1157 N1144 0.985 . S
C1158 C1159 1.363 . S
C1158 C1164 1.379 . S
C1158 N1166 1.356 . S
C1159 C1158 1.363 . S
C1159 C1165 1.363 . S
C1160 C1161 1.363 . S
C1160 C1165 1.379 . S
C1160 N1167 1.356 . S
C1161 C1160 1.363 . S
C1161 C1164 1.363 . S
N1162 C1164 1.356 . S
N1162 H1174 0.984 . S
N1162 H1175 0.985 . S
N1163 C1165 1.356 . S
N1163 H1168 0.984 . S
N1163 H1169 0.985 . S
C1164 C1158 1.379 . S
C1164 C1161 1.363 . S
C1164 N1162 1.356 . S
C1165 C1159 1.363 . S
C1165 C1160 1.379 . S
C1165 N1163 1.356 . S
N1166 C1158 1.356 . S
N1166 H1172 0.984 . S
N1166 H1173 0.984 . S
N1167 C1160 1.356 . S
N1167 H1170 0.984 . S
N1167 H1171 0.985 . S
H1168 N1163 0.984 . S
H1169 N1163 0.985 . S
H1170 N1167 0.984 . S
H1171 N1167 0.985 . S
H1172 N1166 0.984 . S
H1173 N1166 0.984 . S
H1174 N1162 0.984 . S
H1175 N1162 0.985 . S
C1176 C1177 1.363 . S
C1176 C1182 1.379 . S
C1176 N1184 1.356 . S
C1177 C1176 1.363 . S
C1177 C1183 1.363 . S
C1178 C1179 1.363 . S
C1178 C1183 1.379 . S
C1178 N1185 1.356 . S
C1179 C1178 1.363 . S
C1179 C1182 1.363 . S
N1180 C1182 1.356 . S
N1180 H1192 0.984 . S
N1180 H1193 0.985 . S
N1181 C1183 1.356 . S
N1181 H1186 0.984 . S
N1181 H1187 0.985 . S
C1182 C1176 1.379 . S
C1182 C1179 1.363 . S
C1182 N1180 1.356 . S
C1183 C1177 1.363 . S
C1183 C1178 1.379 . S
C1183 N1181 1.356 . S
N1184 C1176 1.356 . S
N1184 H1190 0.984 . S
N1184 H1191 0.984 . S
N1185 C1178 1.356 . S
N1185 H1188 0.984 . S
N1185 H1189 0.985 . S
H1186 N1181 0.984 . S
H1187 N1181 0.985 . S
H1188 N1185 0.984 . S
H1189 N1185 0.985 . S
H1190 N1184 0.984 . S
H1191 N1184 0.984 . S
H1192 N1180 0.984 . S
H1193 N1180 0.985 . S
C1194 C1195 1.363 . S
C1194 C1200 1.379 . S
C1194 N1202 1.356 . S
C1195 C1194 1.363 . S
C1195 C1201 1.363 . S
C1196 C1197 1.363 . S
C1196 C1201 1.379 . S
C1196 N1203 1.356 . S
C1197 C1196 1.363 . S
C1197 C1200 1.363 . S
N1198 C1200 1.356 . S
N1198 H1210 0.984 . S
N1198 H1211 0.985 . S
N1199 C1201 1.356 . S
N1199 H1204 0.984 . S
N1199 H1205 0.985 . S
C1200 C1194 1.379 . S
C1200 C1197 1.363 . S
C1200 N1198 1.356 . S
C1201 C1195 1.363 . S
C1201 C1196 1.379 . S
C1201 N1199 1.356 . S
N1202 C1194 1.356 . S
N1202 H1208 0.984 . S
N1202 H1209 0.984 . S
N1203 C1196 1.356 . S
N1203 H1206 0.984 . S
N1203 H1207 0.985 . S
H1204 N1199 0.984 . S
H1205 N1199 0.985 . S
H1206 N1203 0.984 . S
H1207 N1203 0.985 . S
H1208 N1202 0.984 . S
H1209 N1202 0.984 . S
H1210 N1198 0.984 . S
H1211 N1198 0.985 . S
C1212 C1213 1.363 . S
C1212 C1218 1.379 1_655 S
C1212 N1220 1.356 . S
C1213 C1212 1.363 . S
C1213 C1219 1.363 . S
C1214 C1215 1.363 . S
C1214 C1219 1.379 1_455 S
C1214 N1221 1.356 . S
C1215 C1214 1.363 . S
C1215 C1218 1.363 . S
N1216 C1218 1.356 . S
N1216 H1228 0.984 . S
N1216 H1229 0.985 . S
N1217 C1219 1.356 . S
N1217 H1222 0.984 . S
N1217 H1223 0.985 . S
C1218 C1212 1.379 1_455 S
C1218 C1215 1.363 . S
C1218 N1216 1.356 . S
C1219 C1213 1.363 . S
C1219 C1214 1.379 1_655 S
C1219 N1217 1.356 . S
N1220 C1212 1.356 . S
N1220 H1226 0.984 . S
N1220 H1227 0.984 . S
N1221 C1214 1.356 . S
N1221 H1224 0.984 . S
N1221 H1225 0.985 . S
H1222 N1217 0.984 . S
H1223 N1217 0.985 . S
H1224 N1221 0.984 . S
H1225 N1221 0.985 . S
H1226 N1220 0.984 . S
H1227 N1220 0.984 . S
H1228 N1216 0.984 . S
H1229 N1216 0.985 . S
C1230 C1231 1.363 . S
C1230 C1236 1.379 . S
C1230 N1238 1.356 . S
C1231 C1230 1.363 . S
C1231 C1237 1.363 1_554 S
C1232 C1233 1.363 1_556 S
C1232 C1237 1.379 . S
C1232 N1239 1.356 . S
C1233 C1232 1.363 1_554 S
C1233 C1236 1.363 . S
N1234 C1236 1.356 . S
N1234 H1246 0.984 . S
N1234 H1247 0.985 . S
N1235 C1237 1.356 . S
N1235 H1240 0.984 . S
N1235 H1241 0.985 . S
C1236 C1230 1.379 . S
C1236 C1233 1.363 . S
C1236 N1234 1.356 . S
C1237 C1231 1.363 1_556 S
C1237 C1232 1.379 . S
C1237 N1235 1.356 . S
N1238 C1230 1.356 . S
N1238 H1244 0.984 . S
N1238 H1245 0.984 . S
N1239 C1232 1.356 . S
N1239 H1242 0.984 . S
N1239 H1243 0.985 . S
H1240 N1235 0.984 . S
H1241 N1235 0.985 . S
H1242 N1239 0.984 . S
H1243 N1239 0.985 . S
H1244 N1238 0.984 . S
H1245 N1238 0.984 . S
H1246 N1234 0.984 . S
H1247 N1234 0.985 . S
C529 N13 1.368 . S
C531 N2 1.365 . S
C547 N46 1.404 1_556 S
C549 N35 1.402 . S
C565 N68 1.402 . S
C567 N79 1.404 . S
C583 N101 1.365 . S
C585 N112 1.368 . S
C601 N134 1.365 . S
C603 N145 1.368 . S
C619 N167 1.402 . S
C621 N178 1.405 . S
C637 N211 1.404 . S
C639 N200 1.402 . S
C655 N233 1.365 . S
C657 N244 1.368 1_556 S
C673 N277 1.368 . S
C675 N266 1.365 . S
C691 N310 1.405 . S
C693 N299 1.402 . S
C709 N332 1.402 . S
C711 N343 1.405 . S
C727 N376 1.368 . S
C729 N365 1.365 . S
C745 N409 1.368 . S
C747 N398 1.365 . S
C763 N431 1.402 . S
C765 N442 1.404 . S
C781 N475 1.405 . S
C783 N464 1.402 . S
C799 N497 1.365 . S
C801 N508 1.368 . S
C817 C7 1.534 . S
C819 C54 1.571 . S
C835 C73 1.897 . S
C837 C40 1.897 . S
C853 C106 1.534 . S
C855 C87 1.571 . S
C871 C21 1.273 1_556 S
C873 C120 1.273 . S
C889 C186 1.571 . S
C891 C139 1.534 . S
C907 C172 1.897 . S
C909 C205 1.897 . S
C925 C219 1.571 . S
C927 C238 1.534 . S
C943 C252 1.273 . S
C945 C153 1.273 . S
C961 C318 1.571 . S
C963 C271 1.534 . S
C979 C304 1.897 . S
C981 C337 1.897 . S
C997 C351 1.571 . S
C999 C370 1.534 . S
C1015 C384 1.273 . S
C1017 C285 1.273 . S
C1033 C403 1.534 . S
C1035 C450 1.571 . S
C1051 C436 1.897 . S
C1053 C469 1.897 . S
C1069 C502 1.534 . S
C1071 C483 1.571 . S
C1087 C417 1.273 . S
C1089 C516 1.273 . S
C1105 C18 1.066 . S
C1107 C150 1.066 . S
C1123 C447 1.429 . S
C1125 C51 1.429 . S
C1141 C84 1.428 . S
C1143 C216 1.428 . S
C1159 C513 1.067 . S
C1161 C117 1.067 . S
C1177 C315 1.429 . S
C1179 C183 1.429 . S
C1195 C249 1.067 . S
C1197 C381 1.067 . S
C1213 C282 1.066 . S
C1215 C414 1.066 . S
C1231 C480 1.428 . S
C1233 C348 1.428 . S
