# Generated by pormake.
# Topology mmt, (4)-cn, num edge types: 1
# Building blocks:
#     Node 0, Type 0, BuildingBlock: NAHDIM_clean_sbu_0, # of connection points: 4
#     Node 1, Type 0, BuildingBlock: NAHDIM_clean_sbu_0, # of connection points: 4
#     Node 2, Type 0, BuildingBlock: NAHDIM_clean_sbu_0, # of connection points: 4
#     Node 3, Type 0, BuildingBlock: NAHDIM_clean_sbu_0, # of connection points: 4
#     Node 4, Type 0, BuildingBlock: NAHDIM_clean_sbu_0, # of connection points: 4
#     Node 5, Type 0, BuildingBlock: NAHDIM_clean_sbu_0, # of connection points: 4
#     Node 6, Type 0, BuildingBlock: NAHDIM_clean_sbu_0, # of connection points: 4
#     Node 7, Type 0, BuildingBlock: NAHDIM_clean_sbu_0, # of connection points: 4
#     Edge 8, Type (0, 0), BuildingBlock: FUNLAD_clean_linker_0, # of connection points: 2
#     Edge 9, Type (0, 0), BuildingBlock: FUNLAD_clean_linker_0, # of connection points: 2
#     Edge 10, Type (0, 0), BuildingBlock: FUNLAD_clean_linker_0, # of connection points: 2
#     Edge 11, Type (0, 0), BuildingBlock: FUNLAD_clean_linker_0, # of connection points: 2
#     Edge 12, Type (0, 0), BuildingBlock: FUNLAD_clean_linker_0, # of connection points: 2
#     Edge 13, Type (0, 0), BuildingBlock: FUNLAD_clean_linker_0, # of connection points: 2
#     Edge 14, Type (0, 0), BuildingBlock: FUNLAD_clean_linker_0, # of connection points: 2
#     Edge 15, Type (0, 0), BuildingBlock: FUNLAD_clean_linker_0, # of connection points: 2
#     Edge 16, Type (0, 0), BuildingBlock: FUNLAD_clean_linker_0, # of connection points: 2
#     Edge 17, Type (0, 0), BuildingBlock: FUNLAD_clean_linker_0, # of connection points: 2
#     Edge 18, Type (0, 0), BuildingBlock: FUNLAD_clean_linker_0, # of connection points: 2
#     Edge 19, Type (0, 0), BuildingBlock: FUNLAD_clean_linker_0, # of connection points: 2
#     Edge 20, Type (0, 0), BuildingBlock: FUNLAD_clean_linker_0, # of connection points: 2
#     Edge 21, Type (0, 0), BuildingBlock: FUNLAD_clean_linker_0, # of connection points: 2
#     Edge 22, Type (0, 0), BuildingBlock: FUNLAD_clean_linker_0, # of connection points: 2
#     Edge 23, Type (0, 0), BuildingBlock: FUNLAD_clean_linker_0, # of connection points: 2
# Relax obj value: 0.080
# Max RMSD: 0.130
# Mean RMSD: 0.130
data_MOF--net-mmt--node1-NAHDIM_clean_sbu_0--edge1-FUNLAD_clean_linker_0
_symmetry_space_group_name_H-M    P1
_symmetry_Int_Tables_number       1
_symmetry_cell_setting            triclinic
loop_
_symmetry_equiv_pos_as_xyz
'x, y, z'
_cell_length_a     25.554402
_cell_length_b     43.787712
_cell_length_c     51.184846
_cell_angle_alpha  90.026478
_cell_angle_beta   89.958108
_cell_angle_gamma 89.963112
loop_
_atom_site_label
_atom_site_type_symbol
_atom_site_fract_x
_atom_site_fract_y
_atom_site_fract_z
_atom_type_partial_charge
C0 C 0.15551 0.54177 0.4192 0.0
O1 O 0.17781 0.56878 0.41977 0.0
O2 O 0.18211 0.59274 0.3676 0.0
Zn3 Zn 0.16803 0.54775 0.36288 0.0
O4 O 0.10591 0.54174 0.3395 0.0
C5 C 0.26332 0.54396 0.33359 0.0
O6 O 0.25642 0.57367 0.33308 0.0
O7 O 0.14963 0.52831 0.39739 0.0
C8 C 0.10411 0.54949 0.31559 0.0
O9 O 0.14482 0.56288 0.3049 0.0
C10 C 0.14746 0.61337 0.36522 0.0
O11 O 0.09892 0.60549 0.36016 0.0
O12 O 0.2306 0.52745 0.34589 0.0
C13 C 0.36472 0.94088 0.40129 0.0
O14 O 0.32439 0.92257 0.40408 0.0
O15 O 0.3084 0.89383 0.35191 0.0
Zn16 Zn 0.34209 0.9348 0.34586 0.0
O17 O 0.39689 0.93114 0.31782 0.0
C18 C 0.24171 0.96602 0.34204 0.0
O19 O 0.22666 0.94606 0.35967 0.0
O20 O 0.37821 0.94926 0.3785 0.0
C21 C 0.38701 0.93605 0.29385 0.0
O22 O 0.3389 0.94264 0.28678 0.0
C23 C 0.27718 0.8824 0.33526 0.0
O24 O 0.26679 0.89769 0.3138 0.0
O25 O 0.2888 0.96568 0.3341 0.0
C26 C 0.59328 0.45524 0.09872 0.0
O27 O 0.56262 0.44079 0.1152 0.0
O28 O 0.69064 0.40326 0.14056 0.0
Zn29 Zn 0.66393 0.44659 0.14101 0.0
O30 O 0.60347 0.45184 0.16604 0.0
C31 C 0.73001 0.47108 0.17909 0.0
O32 O 0.69905 0.45346 0.19295 0.0
O33 O 0.64056 0.46029 0.10517 0.0
C34 C 0.58212 0.4312 0.17986 0.0
O35 O 0.5987 0.40288 0.17802 0.0
C36 C 0.67461 0.38207 0.12561 0.0
O37 O 0.63645 0.38764 0.10911 0.0
O38 O 0.72308 0.47267 0.15453 0.0
C39 C 0.8634 0.04739 0.08869 0.0
O40 O 0.82771 0.06891 0.08697 0.0
O41 O 0.82139 0.09581 0.14175 0.0
Zn42 Zn 0.84527 0.05217 0.14489 0.0
O43 O 0.89974 0.04621 0.17283 0.0
C44 C 0.76766 0.03519 0.17928 0.0
O45 O 0.79138 0.05791 0.19116 0.0
O46 O 0.87535 0.03677 0.11101 0.0
C47 C 0.91768 0.06551 0.18907 0.0
O48 O 0.90228 0.0941 0.18792 0.0
C49 C 0.84919 0.11814 0.13413 0.0
O50 O 0.89852 0.11353 0.12804 0.0
O51 O 0.78323 0.02745 0.15663 0.0
C52 C 0.88006 0.44764 0.60058 0.0
O53 O 0.83051 0.44039 0.59769 0.0
O54 O 0.82768 0.39509 0.65331 0.0
Zn55 Zn 0.85903 0.43718 0.65571 0.0
O56 O 0.90728 0.43982 0.68656 0.0
C57 C 0.75395 0.4621 0.65687 0.0
O58 O 0.74212 0.43672 0.64452 0.0
O59 O 0.89982 0.44781 0.62334 0.0
C60 C 0.93633 0.41836 0.69485 0.0
O61 O 0.93595 0.39185 0.68284 0.0
C62 C 0.84704 0.37342 0.63991 0.0
O63 O 0.89056 0.378 0.6268 0.0
O64 O 0.8015 0.46758 0.66239 0.0
C65 C 0.63614 0.04026 0.58386 0.0
O66 O 0.67168 0.06178 0.58172 0.0
O67 O 0.68227 0.08917 0.63483 0.0
Zn68 Zn 0.65295 0.04698 0.64001 0.0
O69 O 0.59389 0.04731 0.66589 0.0
C70 C 0.75669 0.02209 0.64612 0.0
O71 O 0.76775 0.0416 0.62742 0.0
O72 O 0.62387 0.03041 0.60639 0.0
C73 C 0.59826 0.05538 0.68964 0.0
O74 O 0.6436 0.06532 0.69822 0.0
C75 C 0.65499 0.11332 0.63679 0.0
O76 O 0.60493 0.11111 0.64235 0.0
O77 O 0.70974 0.01985 0.65409 0.0
C78 C 0.43292 0.55279 0.88545 0.0
O79 O 0.45737 0.57227 0.87022 0.0
O80 O 0.32361 0.59961 0.8501 0.0
Zn81 Zn 0.35418 0.55742 0.84551 0.0
O82 O 0.4078 0.55706 0.81657 0.0
C83 C 0.25306 0.5269 0.84694 0.0
O84 O 0.24419 0.54466 0.86717 0.0
O85 O 0.38773 0.54338 0.87893 0.0
C86 C 0.39346 0.55395 0.79293 0.0
O87 O 0.3433 0.55212 0.78759 0.0
C88 C 0.28771 0.60889 0.83484 0.0
O89 O 0.27159 0.59087 0.81598 0.0
O90 O 0.29711 0.52818 0.8355 0.0
C91 C 0.13567 0.95226 0.90564 0.0
O92 O 0.16788 0.92899 0.90774 0.0
O93 O 0.16563 0.89735 0.85731 0.0
Zn94 Zn 0.14724 0.94128 0.84999 0.0
O95 O 0.08757 0.94365 0.82439 0.0
C96 C 0.24287 0.94601 0.82164 0.0
O97 O 0.23529 0.91638 0.82042 0.0
O98 O 0.12323 0.96187 0.88306 0.0
C99 C 0.09079 0.93479 0.80079 0.0
O100 O 0.13476 0.92279 0.79233 0.0
C101 C 0.13361 0.87527 0.85564 0.0
O102 O 0.08452 0.88083 0.84968 0.0
O103 O 0.21023 0.96239 0.83416 0.0
C104 C 0.30987 0.49834 0.31478 0.0
C105 C 0.30675 0.5301 0.31855 0.0
C106 C 0.34915 0.48578 0.29897 0.0
C107 C 0.38612 0.50484 0.28665 0.0
C108 C 0.38386 0.53641 0.29127 0.0
C109 C 0.3446 0.54892 0.30689 0.0
C110 C 0.42727 0.49332 0.26859 0.0
C111 C 0.42641 0.46586 0.25666 0.0
C112 C 0.46589 0.4571 0.23667 0.0
C113 C 0.47975 0.42628 0.23355 0.0
C114 C 0.51721 0.41765 0.21496 0.0
C115 C 0.54096 0.43971 0.1989 0.0
H116 H 0.47744 0.50281 0.22112 0.0
C117 C 0.52581 0.47041 0.20152 0.0
C118 C 0.48866 0.479 0.22009 0.0
H119 H 0.54279 0.48798 0.18928 0.0
H120 H 0.28144 0.48322 0.32366 0.0
H121 H 0.35018 0.46127 0.29656 0.0
H122 H 0.41196 0.55165 0.28225 0.0
H123 H 0.34363 0.57346 0.30953 0.0
H124 H 0.45891 0.50902 0.26407 0.0
H125 H 0.39629 0.44929 0.2613 0.0
H126 H 0.46218 0.4089 0.2458 0.0
H127 H 0.52778 0.39377 0.21332 0.0
C128 C 0.97817 0.0757 0.22682 0.0
C129 C 0.95258 0.05489 0.21026 0.0
C130 C 0.01025 0.06517 0.2471 0.0
C131 C 0.01696 0.03362 0.25123 0.0
C132 C 0.9908 0.01297 0.23489 0.0
C133 C 0.95936 0.02343 0.21453 0.0
C134 C 0.05034 0.02112 0.27238 0.0
C135 C 0.09291 0.03549 0.28178 0.0
C136 C 0.12995 0.02005 0.29978 0.0
C137 C 0.18368 0.02581 0.29722 0.0
C138 C 0.22002 0.00896 0.31163 0.0
C139 C 0.20323 0.98631 0.32922 0.0
H140 H 0.0717 0.99432 0.32146 0.0
C141 C 0.1493 0.98193 0.33302 0.0
C142 C 0.11297 -0.00139 0.31843 0.0
H143 H 0.13508 0.96489 0.34661 0.0
H144 H 0.9734 0.10007 0.22414 0.0
H145 H 0.02893 0.08174 0.25971 0.0
H146 H 0.99508 0.98857 0.23771 0.0
H147 H 0.93988 0.00674 0.20231 0.0
H148 H 0.04238 -0.00217 0.27856 0.0
H149 H 0.10428 0.05748 0.2738 0.0
H150 H 0.19771 0.04244 0.2832 0.0
H151 H 0.26131 0.01312 0.30845 0.0
C152 C 0.77359 0.48999 0.21943 0.0
C153 C 0.77329 0.48746 0.1921 0.0
C154 C 0.8159 0.50323 0.23232 0.0
C155 C 0.85954 0.51376 0.21817 0.0
C156 C 0.85816 0.51263 0.19075 0.0
C157 C 0.81541 0.49955 0.17778 0.0
C158 C 0.90695 0.52565 0.2316 0.0
C159 C 0.92116 0.51582 0.25554 0.0
C160 C 0.968 0.52632 0.2702 0.0
C161 C 0.97054 0.51959 0.29697 0.0
C162 C 0.0143 0.52757 0.31168 0.0
C163 C 0.057 0.54238 0.29995 0.0
H164 H 0.01076 0.54662 0.23775 0.0
C165 C 0.05454 0.54945 0.27318 0.0
C166 C 0.0105 0.54148 0.2584 0.0
H167 H 0.08693 0.56075 0.26355 0.0
H168 H 0.74119 0.48152 0.231 0.0
H169 H 0.81413 0.50505 0.25338 0.0
H170 H 0.89089 0.52103 0.17937 0.0
H171 H 0.81607 0.49811 0.15666 0.0
H172 H 0.93102 0.54193 0.2211 0.0
H173 H 0.8972 0.49879 0.26526 0.0
H174 H 0.93853 0.50789 0.30661 0.0
H175 H 0.01478 0.52177 0.33225 0.0
C176 C 0.69475 0.99658 0.1798 0.0
C177 C 0.72524 0.01856 0.19279 0.0
C178 C 0.6548 0.9811 0.19309 0.0
C179 C 0.64497 0.98731 0.21964 0.0
C180 C 0.67608 0.0089 0.23258 0.0
C181 C 0.71543 0.02449 0.21932 0.0
C182 C 0.60329 0.97184 0.23484 0.0
C183 C 0.55918 0.96041 0.22429 0.0
C184 C 0.51516 0.94978 0.24092 0.0
C185 C 0.46357 0.95464 0.23252 0.0
C186 C 0.42151 0.94891 0.24932 0.0
C187 C 0.43038 0.93799 0.27477 0.0
H188 H 0.5629 0.93149 0.27236 0.0
C189 C 0.4818 0.93102 0.28243 0.0
C190 C 0.52374 0.93671 0.26565 0.0
H191 H 0.48991 0.92202 0.30172 0.0
H192 H 0.70166 0.99138 0.15939 0.0
H193 H 0.63236 0.96408 0.18264 0.0
H194 H 0.66955 0.01402 0.25304 0.0
H195 H 0.73841 0.0411 0.23 0.0
H196 H 0.60703 0.97264 0.25597 0.0
H197 H 0.55257 0.9622 0.20339 0.0
H198 H 0.45588 0.96431 0.21342 0.0
H199 H 0.38229 0.95421 0.2427 0.0
C200 C 0.48632 0.54857 0.77786 0.0
C201 C 0.43268 0.54965 0.77196 0.0
C202 C 0.52298 0.54172 0.75844 0.0
C203 C 0.50678 0.53607 0.73258 0.0
C204 C 0.45327 0.53795 0.72661 0.0
C205 C 0.41662 0.54477 0.74603 0.0
C206 C 0.54364 0.5253 0.71202 0.0
C207 C 0.59585 0.52934 0.71321 0.0
C208 C 0.63389 0.51426 0.69531 0.0
C209 C 0.68608 0.52427 0.69551 0.0
C210 C 0.72476 0.50822 0.68192 0.0
C211 C 0.71211 0.48167 0.66785 0.0
H212 H 0.58155 0.47935 0.67984 0.0
C213 C 0.65954 0.47245 0.66655 0.0
C214 C 0.62087 0.48841 0.68023 0.0
H215 H 0.64848 0.45203 0.65595 0.0
H216 H 0.49997 0.55206 0.79767 0.0
H217 H 0.56354 0.53964 0.76417 0.0
H218 H 0.43959 0.53349 0.70694 0.0
H219 H 0.37558 0.54544 0.74081 0.0
H220 H 0.52667 0.51325 0.69556 0.0
H221 H 0.61209 0.54381 0.72839 0.0
H222 H 0.69738 0.54401 0.70696 0.0
H223 H 0.76487 0.51604 0.68326 0.0
C224 C 0.7872 0.98507 0.68017 0.0
C225 C 0.79898 0.00517 0.65958 0.0
C226 C 0.82722 0.97134 0.69457 0.0
C227 C 0.88 0.97764 0.68883 0.0
C228 C 0.89171 0.99644 0.6674 0.0
C229 C 0.85167 0.01017 0.65297 0.0
C230 C 0.92364 0.96576 0.70513 0.0
C231 C 0.91811 0.9594 0.73075 0.0
C232 C 0.96247 0.95139 0.74822 0.0
C233 C 0.95732 0.95717 0.77508 0.0
C234 C -0.00131 0.95138 0.79217 0.0
C235 C 0.04614 0.93937 0.78281 0.0
H236 H 0.01436 0.93276 0.71851 0.0
C237 C 0.05081 0.93257 0.75606 0.0
C238 C 0.0094 0.93847 0.73892 0.0
H239 H 0.08668 0.92301 0.74827 0.0
H240 H 0.74699 0.98035 0.68553 0.0
H241 H 0.81653 0.95601 0.71026 0.0
H242 H 0.93201 0.00137 0.66233 0.0
H243 H 0.86211 0.02533 0.63709 0.0
H244 H 0.96227 0.96518 0.6963 0.0
H245 H 0.88031 0.96282 0.74001 0.0
H246 H 0.92148 0.96683 0.78284 0.0
H247 H 0.99359 0.95667 0.81269 0.0
C248 C 0.22052 0.48971 0.81367 0.0
C249 C 0.21055 0.5083 0.83551 0.0
C250 C 0.17966 0.47485 0.80083 0.0
C251 C 0.12776 0.47807 0.80966 0.0
C252 C 0.11809 0.49578 0.83204 0.0
C253 C 0.15906 0.51063 0.84493 0.0
C254 C 0.0826 0.4663 0.79438 0.0
C255 C 0.08657 0.44403 0.7763 0.0
C256 C 0.04423 0.43668 0.75744 0.0
C257 C 0.0448 0.40831 0.74463 0.0
C258 C 0.00886 0.40191 0.72477 0.0
C259 C 0.97199 0.42397 0.7171 0.0
H260 H 0.00564 0.48099 0.75881 0.0
C261 C 0.97077 0.45214 0.73025 0.0
C262 C 0.00651 0.45849 0.75011 0.0
H263 H 0.94296 0.46969 0.7248 0.0
H264 H 0.25975 0.48747 0.80586 0.0
H265 H 0.18894 0.46217 0.7833 0.0
H266 H 0.07849 0.49886 0.83915 0.0
H267 H 0.15004 0.52481 0.86169 0.0
H268 H 0.045 0.4772 0.79773 0.0
H269 H 0.12255 0.43098 0.77468 0.0
H270 H 0.07376 0.39122 0.74969 0.0
H271 H 0.01085 0.37998 0.71501 0.0
C272 C 0.2965 0.9915 0.80802 0.0
C273 C 0.28654 0.95994 0.80687 0.0
C274 C 0.33609 0.00449 0.79266 0.0
C275 C 0.36623 0.98607 0.77585 0.0
C276 C 0.35655 0.95457 0.77503 0.0
C277 C 0.3175 0.94161 0.79045 0.0
C278 C 0.40579 -0.00125 0.75764 0.0
C279 C 0.43204 0.02501 0.76154 0.0
C280 C 0.47242 0.03555 0.74274 0.0
C281 C 0.51809 0.04973 0.75191 0.0
C282 C 0.55866 0.05708 0.73461 0.0
C283 C 0.55383 0.05071 0.70778 0.0
H284 H 0.43099 0.02084 0.70792 0.0
C285 C 0.50676 0.03818 0.69849 0.0
C286 C 0.46651 0.03073 0.71574 0.0
H287 H 0.50133 0.0334 0.6779 0.0
H288 H 0.27317 0.00624 0.82041 0.0
H289 H 0.34176 0.02896 0.7934 0.0
H290 H 0.37904 0.93988 0.76218 0.0
H291 H 0.31092 0.91724 0.78903 0.0
H292 H 0.41555 0.98484 0.74072 0.0
H293 H 0.4269 0.03772 0.77959 0.0
H294 H 0.52323 0.05403 0.7726 0.0
H295 H 0.59425 0.06698 0.74235 0.0
C296 C 0.10392 0.50115 0.44218 0.0
C297 C 0.13238 0.5286 0.44323 0.0
C298 C 0.07806 0.49014 0.46433 0.0
C299 C 0.07993 0.50644 0.48801 0.0
C300 C 0.11027 0.53312 0.48933 0.0
C301 C 0.13601 0.54419 0.46716 0.0
C302 C 0.05085 0.49641 0.51168 0.0
C303 C 0.00657 0.4797 0.51063 0.0
C304 C 0.9753 0.47126 0.53408 0.0
C305 C 0.92216 0.46395 0.53091 0.0
C306 C 0.89117 0.45625 0.55244 0.0
C307 C 0.9128 0.45548 0.57766 0.0
H308 H 0.03831 0.47431 0.56253 0.0
C309 C 0.96622 0.46222 0.5808 0.0
C310 C 0.9972 0.4699 0.55928 0.0
H311 H 0.9843 0.46149 0.59992 0.0
H312 H 0.10078 0.48839 0.42412 0.0
H313 H 0.05675 0.46888 0.46275 0.0
H314 H 0.11297 0.54591 0.5074 0.0
H315 H 0.15787 0.56529 0.46871 0.0
H316 H 0.06443 0.50512 0.53033 0.0
H317 H 0.99045 0.4735 0.49174 0.0
H318 H 0.90435 0.46452 0.51171 0.0
H319 H 0.85024 0.45101 0.5493 0.0
C320 C 0.43977 0.96948 0.42109 0.0
C321 C 0.39563 0.95068 0.42426 0.0
C322 C 0.46997 0.97805 0.44262 0.0
C323 C 0.45645 0.96819 0.46792 0.0
C324 C 0.41249 0.94929 0.47102 0.0
C325 C 0.38226 0.94072 0.44948 0.0
C326 C 0.48787 0.97622 0.4914 0.0
C327 C 0.51948 0.00084 0.49281 0.0
C328 C 0.55013 0.0094 0.51645 0.0
C329 C 0.59152 0.03028 0.51374 0.0
C330 C 0.62018 0.03991 0.5355 0.0
C331 C 0.60789 0.02894 0.56055 0.0
H332 H 0.50561 0.98299 0.54489 0.0
C333 C 0.56673 0.0079 0.56329 0.0
C334 C 0.53801 -0.00165 0.54157 0.0
H335 H 0.55589 -0.00081 0.58235 0.0
H336 H 0.45148 0.97732 0.40189 0.0
H337 H 0.50441 0.99179 0.43913 0.0
H338 H 0.40134 0.94116 0.49023 0.0
H339 H 0.34866 0.92611 0.45261 0.0
H340 H 0.48371 0.9613 0.50816 0.0
H341 H 0.5233 0.01574 0.47599 0.0
H342 H 0.60162 0.03934 0.49469 0.0
H343 H 0.65154 0.05621 0.5327 0.0
C344 C 0.60357 0.48277 0.05596 0.0
C345 C 0.57231 0.46597 0.07339 0.0
C346 C 0.58281 0.49355 0.03239 0.0
C347 C 0.53029 0.48757 0.02572 0.0
C348 C 0.49931 0.47075 0.04321 0.0
C349 C 0.52 0.46002 0.06669 0.0
C350 C 0.50538 0.49896 0.0013 0.0
C351 C 0.53182 0.50926 0.98027 0.0
C352 C 0.50538 0.52017 0.95612 0.0
C353 C 0.53149 0.54105 0.9399 0.0
C354 C 0.50794 0.55178 0.91702 0.0
C355 C 0.45786 0.54162 0.90974 0.0
H356 H 0.43483 0.49269 0.95996 0.0
C357 C 0.43204 0.52035 0.92574 0.0
C358 C 0.45556 0.50963 0.9486 0.0
H359 H 0.39369 0.51176 0.92055 0.0
H360 H 0.64394 0.48792 0.06064 0.0
H361 H 0.60794 0.507 0.01991 0.0
H362 H 0.45873 0.46587 0.03871 0.0
H363 H 0.49474 0.4472 0.07966 0.0
H364 H 0.46293 0.4986 0.00078 0.0
H365 H 0.57419 0.51037 0.9806 0.0
H366 H 0.5701 0.5493 0.94505 0.0
H367 H 0.52906 0.56803 0.90505 0.0
C368 C 0.07265 0.98861 0.92671 0.0
C369 C 0.11042 0.96542 0.92914 0.0
C370 C 0.04596 -0.0005 0.94866 0.0
C371 C 0.05632 0.9873 0.97357 0.0
C372 C 0.09546 0.96497 0.97609 0.0
C373 C 0.12206 0.95402 0.95413 0.0
C374 C 0.02761 -0.00266 -0.00265 0.0
C375 C 0.97891 0.00924 0.99683 0.0
C376 C 0.94953 0.01832 0.0207 0.0
C377 C 0.90929 0.04003 0.01849 0.0
C378 C 0.88086 0.04928 0.04047 0.0
C379 C 0.89179 0.03677 0.06515 0.0
H380 H 0.98883 0.98764 0.04778 0.0
C381 C 0.93118 0.01448 0.06727 0.0
C382 C 0.95962 0.00527 0.04532 0.0
H383 H 0.94027 0.00414 0.08594 0.0
H384 H 0.06313 -0.00187 0.90777 0.0
H385 H 0.01757 0.01754 0.94595 0.0
H386 H 0.10472 0.95545 0.99507 0.0
H387 H 0.15114 0.93628 0.95672 0.0
H388 H 0.04711 0.99386 0.01594 0.0
H389 H 0.95943 0.01277 0.97825 0.0
H390 H 0.90023 0.05018 -0.00027 0.0
H391 H 0.85064 0.06641 0.03813 0.0
C392 C 0.12599 0.66909 0.36131 0.0
C393 C 0.16261 0.64595 0.36659 0.0
C394 C 0.14127 0.69977 0.36114 0.0
C395 C 0.19362 0.70788 0.36616 0.0
C396 C 0.22966 0.68479 0.37232 0.0
C397 C 0.21447 0.65417 0.37241 0.0
C398 C 0.21229 0.74 0.36518 0.0
C399 C 0.18946 0.76179 0.35049 0.0
C400 C 0.21115 0.79311 0.34761 0.0
C401 C 0.19918 0.80982 0.32498 0.0
C402 C 0.22027 0.8389 0.32105 0.0
C403 C 0.25353 0.85201 0.33979 0.0
H404 H 0.25194 0.79499 0.38487 0.0
C405 C 0.26433 0.83569 0.36281 0.0
C406 C 0.24324 0.80661 0.36674 0.0
H407 H 0.28925 0.84532 0.37781 0.0
H408 H 0.08562 0.66354 0.357 0.0
H409 H 0.11189 0.71695 0.35718 0.0
H410 H 0.27008 0.69039 0.37655 0.0
H411 H 0.24362 0.63694 0.37673 0.0
H412 H 0.24863 0.74504 0.37527 0.0
H413 H 0.15596 0.75595 0.33845 0.0
H414 H 0.17416 0.80013 0.31005 0.0
H415 H 0.21084 0.85094 0.30318 0.0
C416 C 0.85593 0.17443 0.12539 0.0
C417 C 0.82533 0.14882 0.13169 0.0
C418 C 0.83289 0.20331 0.12303 0.0
C419 C 0.77871 0.2071 0.12695 0.0
C420 C 0.74818 0.18141 0.13286 0.0
C421 C 0.77119 0.15265 0.13539 0.0
C422 C 0.75237 0.2372 0.12443 0.0
C423 C 0.77661 0.26397 0.129 0.0
C424 C 0.74933 0.29391 0.12779 0.0
C425 C 0.76841 0.31818 0.14293 0.0
C426 C 0.74385 0.34667 0.14241 0.0
C427 C 0.69994 0.35167 0.12642 0.0
H428 H 0.69072 0.28108 0.09903 0.0
C429 C 0.68121 0.32752 0.11095 0.0
C430 C 0.70565 0.29894 0.11159 0.0
H431 H 0.64777 0.33069 0.09825 0.0
H432 H 0.89767 0.1722 0.12222 0.0
H433 H 0.8575 0.22242 0.11771 0.0
H434 H 0.70633 0.18362 0.13576 0.0
H435 H 0.74636 0.13338 0.1401 0.0
H436 H 0.71066 0.23705 0.12038 0.0
H437 H 0.81702 0.26397 0.13557 0.0
H438 H 0.80221 0.31501 0.15542 0.0
H439 H 0.75954 0.36482 0.15446 0.0
C440 C 0.65159 0.17053 0.63808 0.0
C441 C 0.67991 0.14355 0.63342 0.0
C442 C 0.67573 0.19903 0.63561 0.0
C443 C 0.72883 0.20112 0.62846 0.0
C444 C 0.75663 0.17419 0.62312 0.0
C445 C 0.73261 0.14571 0.62573 0.0
C446 C 0.75634 0.23088 0.62602 0.0
C447 C 0.74312 0.25571 0.64015 0.0
C448 C 0.77083 0.28564 0.63905 0.0
C449 C 0.7483 0.31059 0.65215 0.0
C450 C 0.77289 0.33905 0.65233 0.0
C451 C 0.82085 0.3433 0.6394 0.0
H452 H 0.83869 0.27146 0.61612 0.0
C453 C 0.84357 0.31846 0.62623 0.0
C454 C 0.81902 0.28992 0.6261 0.0
H455 H 0.88065 0.32095 0.61619 0.0
H456 H 0.61079 0.16966 0.64379 0.0
H457 H 0.65243 0.21929 0.63901 0.0
H458 H 0.79739 0.17515 0.61732 0.0
H459 H 0.75548 0.12539 0.62179 0.0
H460 H 0.78957 0.23154 0.61289 0.0
H461 H 0.71051 0.2541 0.6537 0.0
H462 H 0.7114 0.30809 0.66237 0.0
H463 H 0.75423 0.3577 0.66266 0.0
C464 C 0.27804 0.65811 0.85951 0.0
C465 C 0.26373 0.63938 0.83839 0.0
C466 C 0.25517 0.6869 0.86276 0.0
C467 C 0.21781 0.69769 0.84475 0.0
C468 C 0.20304 0.6787 0.82392 0.0
C469 C 0.22576 0.64994 0.82072 0.0
C470 C 0.19296 0.72833 0.84697 0.0
C471 C 0.21405 0.7518 0.86035 0.0
C472 C 0.19133 0.78308 0.86045 0.0
C473 C 0.22463 0.80794 0.86518 0.0
C474 C 0.20564 0.83782 0.86414 0.0
C475 C 0.15268 0.84353 0.85854 0.0
H476 H 0.11048 0.77017 0.85303 0.0
C477 C 0.11881 0.81864 0.8548 0.0
C478 C 0.13785 0.78871 0.85583 0.0
H479 H 0.07768 0.82225 0.85075 0.0
H480 H 0.30671 0.65049 0.87365 0.0
H481 H 0.26653 0.70028 0.87958 0.0
H482 H 0.17412 0.68627 0.80986 0.0
H483 H 0.21363 0.63604 0.8043 0.0
H484 H 0.15781 0.73213 0.83552 0.0
H485 H 0.2516 0.7489 0.86991 0.0
H486 H 0.26583 0.80429 0.86909 0.0
H487 H 0.23278 0.85645 0.8673 0.0
loop_
_geom_bond_atom_site_label_1
_geom_bond_atom_site_label_2
_geom_bond_distance
_geom_bond_site_symmetry_2
_ccdc_geom_bond_type
C0 O1 1.160 . S
C0 O7 1.185 . S
O1 C0 1.160 . S
O2 Zn3 1.899 . S
O2 C10 1.284 . S
Zn3 O2 1.899 . S
Zn3 O4 2.032 . S
Zn3 O7 2.086 . S
Zn3 O12 1.977 . S
O4 Zn3 2.032 . S
O4 C8 1.278 . S
C5 O6 1.203 . S
C5 O12 1.267 . S
O6 C5 1.203 . S
O7 C0 1.185 . S
O7 Zn3 2.086 . S
C8 O4 1.278 . S
C8 O9 1.211 . S
O9 C8 1.211 . S
C10 O2 1.284 . S
C10 O11 1.273 . S
O11 C10 1.273 . S
O12 Zn3 1.977 . S
O12 C5 1.267 . S
C13 O14 1.160 . S
C13 O20 1.185 . S
O14 C13 1.160 . S
O15 Zn16 1.899 . S
O15 C23 1.284 . S
Zn16 O15 1.899 . S
Zn16 O17 2.032 . S
Zn16 O20 2.086 . S
Zn16 O25 1.977 . S
O17 Zn16 2.032 . S
O17 C21 1.278 . S
C18 O19 1.203 . S
C18 O25 1.267 . S
O19 C18 1.203 . S
O20 C13 1.185 . S
O20 Zn16 2.086 . S
C21 O17 1.278 . S
C21 O22 1.211 . S
O22 C21 1.211 . S
C23 O15 1.284 . S
C23 O24 1.273 . S
O24 C23 1.273 . S
O25 Zn16 1.977 . S
O25 C18 1.267 . S
C26 O27 1.160 . S
C26 O33 1.185 . S
O27 C26 1.160 . S
O28 Zn29 1.899 . S
O28 C36 1.284 . S
Zn29 O28 1.899 . S
Zn29 O30 2.032 . S
Zn29 O33 2.086 . S
Zn29 O38 1.977 . S
O30 Zn29 2.032 . S
O30 C34 1.278 . S
C31 O32 1.203 . S
C31 O38 1.267 . S
O32 C31 1.203 . S
O33 C26 1.185 . S
O33 Zn29 2.086 . S
C34 O30 1.278 . S
C34 O35 1.211 . S
O35 C34 1.211 . S
C36 O28 1.284 . S
C36 O37 1.273 . S
O37 C36 1.273 . S
O38 Zn29 1.977 . S
O38 C31 1.267 . S
C39 O40 1.160 . S
C39 O46 1.185 . S
O40 C39 1.160 . S
O41 Zn42 1.899 . S
O41 C49 1.284 . S
Zn42 O41 1.899 . S
Zn42 O43 2.032 . S
Zn42 O46 2.086 . S
Zn42 O51 1.977 . S
O43 Zn42 2.032 . S
O43 C47 1.278 . S
C44 O45 1.203 . S
C44 O51 1.267 . S
O45 C44 1.203 . S
O46 C39 1.185 . S
O46 Zn42 2.086 . S
C47 O43 1.278 . S
C47 O48 1.211 . S
O48 C47 1.211 . S
C49 O41 1.284 . S
C49 O50 1.273 . S
O50 C49 1.273 . S
O51 Zn42 1.977 . S
O51 C44 1.267 . S
C52 O53 1.160 . S
C52 O59 1.185 . S
O53 C52 1.160 . S
O54 Zn55 1.899 . S
O54 C62 1.284 . S
Zn55 O54 1.899 . S
Zn55 O56 2.032 . S
Zn55 O59 2.086 . S
Zn55 O64 1.977 . S
O56 Zn55 2.032 . S
O56 C60 1.278 . S
C57 O58 1.203 . S
C57 O64 1.267 . S
O58 C57 1.203 . S
O59 C52 1.185 . S
O59 Zn55 2.086 . S
C60 O56 1.278 . S
C60 O61 1.211 . S
O61 C60 1.211 . S
C62 O54 1.284 . S
C62 O63 1.273 . S
O63 C62 1.273 . S
O64 Zn55 1.977 . S
O64 C57 1.267 . S
C65 O66 1.160 . S
C65 O72 1.185 . S
O66 C65 1.160 . S
O67 Zn68 1.899 . S
O67 C75 1.284 . S
Zn68 O67 1.899 . S
Zn68 O69 2.032 . S
Zn68 O72 2.086 . S
Zn68 O77 1.977 . S
O69 Zn68 2.032 . S
O69 C73 1.278 . S
C70 O71 1.203 . S
C70 O77 1.267 . S
O71 C70 1.203 . S
O72 C65 1.185 . S
O72 Zn68 2.086 . S
C73 O69 1.278 . S
C73 O74 1.211 . S
O74 C73 1.211 . S
C75 O67 1.284 . S
C75 O76 1.273 . S
O76 C75 1.273 . S
O77 Zn68 1.977 . S
O77 C70 1.267 . S
C78 O79 1.160 . S
C78 O85 1.185 . S
O79 C78 1.160 . S
O80 Zn81 1.899 . S
O80 C88 1.284 . S
Zn81 O80 1.899 . S
Zn81 O82 2.032 . S
Zn81 O85 2.086 . S
Zn81 O90 1.977 . S
O82 Zn81 2.032 . S
O82 C86 1.278 . S
C83 O84 1.203 . S
C83 O90 1.267 . S
O84 C83 1.203 . S
O85 C78 1.185 . S
O85 Zn81 2.086 . S
C86 O82 1.278 . S
C86 O87 1.211 . S
O87 C86 1.211 . S
C88 O80 1.284 . S
C88 O89 1.273 . S
O89 C88 1.273 . S
O90 Zn81 1.977 . S
O90 C83 1.267 . S
C91 O92 1.160 . S
C91 O98 1.185 . S
O92 C91 1.160 . S
O93 Zn94 1.899 . S
O93 C101 1.284 . S
Zn94 O93 1.899 . S
Zn94 O95 2.032 . S
Zn94 O98 2.086 . S
Zn94 O103 1.977 . S
O95 Zn94 2.032 . S
O95 C99 1.278 . S
C96 O97 1.203 . S
C96 O103 1.267 . S
O97 C96 1.203 . S
O98 C91 1.185 . S
O98 Zn94 2.086 . S
C99 O95 1.278 . S
C99 O100 1.211 . S
O100 C99 1.211 . S
C101 O93 1.284 . S
C101 O102 1.273 . S
O102 C101 1.273 . S
O103 Zn94 1.977 . S
O103 C96 1.267 . S
C104 C105 1.386 . S
C104 C106 1.383 . S
C104 H120 0.951 . S
C105 C104 1.386 . S
C105 C109 1.383 . S
C106 C104 1.383 . S
C106 C107 1.402 . S
C106 H121 0.951 . S
C107 C106 1.402 . S
C107 C108 1.375 . S
C107 C110 1.481 . S
C108 C107 1.375 . S
C108 C109 1.367 . S
C108 H122 0.951 . S
C109 C105 1.383 . S
C109 C108 1.367 . S
C109 H123 0.950 . S
C110 C107 1.481 . S
C110 C111 1.297 . S
C110 H124 0.950 . S
C111 C110 1.297 . S
C111 C112 1.479 . S
C111 H125 0.950 . S
C112 C111 1.479 . S
C112 C113 1.375 . S
C112 C118 1.404 . S
C113 C112 1.375 . S
C113 C114 1.369 . S
C113 H126 0.950 . S
C114 C113 1.369 . S
C114 C115 1.392 . S
C114 H127 0.951 . S
C115 C114 1.392 . S
C115 C117 1.384 . S
H116 C118 0.949 . S
C117 C115 1.384 . S
C117 C118 1.385 . S
C117 H119 0.950 . S
C118 C112 1.404 . S
C118 H116 0.949 . S
C118 C117 1.385 . S
H119 C117 0.950 . S
H120 C104 0.951 . S
H121 C106 0.951 . S
H122 C108 0.951 . S
H123 C109 0.950 . S
H124 C110 0.950 . S
H125 C111 0.950 . S
H126 C113 0.950 . S
H127 C114 0.951 . S
C128 C129 1.386 . S
C128 C130 1.383 1_655 S
C128 H144 0.951 . S
C129 C128 1.386 . S
C129 C133 1.383 1_655 S
C130 C128 1.383 1_455 S
C130 C131 1.402 . S
C130 H145 0.951 . S
C131 C130 1.402 . S
C131 C132 1.375 . S
C131 C134 1.481 1_545 S
C132 C131 1.375 . S
C132 C133 1.367 . S
C132 H146 0.951 1_545 S
C133 C129 1.383 1_455 S
C133 C132 1.367 . S
C133 H147 0.950 1_455 S
C134 C131 1.481 1_565 S
C134 C135 1.292 1_565 S
C134 H148 0.950 . S
C135 C134 1.292 1_545 S
C135 C136 1.466 1_545 S
C135 H149 0.972 . S
C136 C135 1.466 1_565 S
C136 C137 1.375 1_565 S
C136 C142 1.404 . S
C137 C136 1.375 1_545 S
C137 C138 1.369 1_545 S
C137 H150 0.950 . S
C138 C137 1.369 1_565 S
C138 C139 1.392 . S
C138 H151 0.951 1_565 S
C139 C138 1.392 . S
C139 C141 1.384 . S
H140 C142 0.949 . S
C141 C139 1.384 . S
C141 C142 1.385 . S
C141 H143 0.950 . S
C142 C136 1.404 . S
C142 H140 0.949 . S
C142 C141 1.385 . S
H143 C141 0.950 . S
H144 C128 0.951 . S
H145 C130 0.951 . S
H146 C132 0.951 1_565 S
H147 C133 0.950 1_655 S
H148 C134 0.950 . S
H149 C135 0.972 . S
H150 C137 0.950 . S
H151 C138 0.951 1_545 S
C152 C153 1.386 . S
C152 C154 1.383 . S
C152 H168 0.951 . S
C153 C152 1.386 . S
C153 C157 1.383 . S
C154 C152 1.383 . S
C154 C155 1.402 . S
C154 H169 0.951 . S
C155 C154 1.402 . S
C155 C156 1.375 . S
C155 C158 1.481 . S
C156 C155 1.375 . S
C156 C157 1.367 . S
C156 H170 0.951 . S
C157 C153 1.383 . S
C157 C156 1.367 . S
C157 H171 0.950 . S
C158 C155 1.481 . S
C158 C159 1.297 . S
C158 H172 0.950 . S
C159 C158 1.297 . S
C159 C160 1.479 . S
C159 H173 0.950 . S
C160 C159 1.479 . S
C160 C161 1.375 . S
C160 C166 1.404 . S
C161 C160 1.375 . S
C161 C162 1.369 1_655 S
C161 H174 0.950 . S
C162 C161 1.369 1_455 S
C162 C163 1.392 . S
C162 H175 0.951 . S
C163 C162 1.392 . S
C163 C165 1.384 . S
H164 C166 0.949 . S
C165 C163 1.384 . S
C165 C166 1.385 1_455 S
C165 H167 0.950 . S
C166 C160 1.404 . S
C166 H164 0.949 . S
C166 C165 1.385 1_655 S
H167 C165 0.950 . S
H168 C152 0.951 . S
H169 C154 0.951 . S
H170 C156 0.951 . S
H171 C157 0.950 . S
H172 C158 0.950 . S
H173 C159 0.950 . S
H174 C161 0.950 . S
H175 C162 0.951 . S
C176 C177 1.386 1_565 S
C176 C178 1.383 . S
C176 H192 0.951 . S
C177 C176 1.386 1_545 S
C177 C181 1.383 . S
C178 C176 1.383 . S
C178 C179 1.402 1_565 S
C178 H193 0.951 . S
C179 C178 1.402 1_545 S
C179 C180 1.375 . S
C179 C182 1.481 . S
C180 C179 1.375 . S
C180 C181 1.367 . S
C180 H194 0.951 . S
C181 C177 1.383 . S
C181 C180 1.367 . S
C181 H195 0.950 . S
C182 C179 1.481 . S
C182 C183 1.297 1_545 S
C182 H196 0.950 . S
C183 C182 1.297 1_565 S
C183 C184 1.479 . S
C183 H197 0.950 . S
C184 C183 1.479 . S
C184 C185 1.375 . S
C184 C190 1.404 . S
C185 C184 1.375 . S
C185 C186 1.369 . S
C185 H198 0.950 . S
C186 C185 1.369 . S
C186 C187 1.392 . S
C186 H199 0.951 . S
C187 C186 1.392 . S
C187 C189 1.384 . S
H188 C190 0.949 1_545 S
C189 C187 1.384 . S
C189 C190 1.385 . S
C189 H191 0.950 1_565 S
C190 C184 1.404 . S
C190 H188 0.949 1_565 S
C190 C189 1.385 . S
H191 C189 0.950 1_545 S
H192 C176 0.951 . S
H193 C178 0.951 . S
H194 C180 0.951 . S
H195 C181 0.950 . S
H196 C182 0.950 . S
H197 C183 0.950 . S
H198 C185 0.950 . S
H199 C186 0.951 . S
C200 C201 1.386 . S
C200 C202 1.383 . S
C200 H216 0.951 . S
C201 C200 1.386 . S
C201 C205 1.383 . S
C202 C200 1.383 . S
C202 C203 1.402 . S
C202 H217 0.951 . S
C203 C202 1.402 . S
C203 C204 1.375 . S
C203 C206 1.481 . S
C204 C203 1.375 . S
C204 C205 1.367 . S
C204 H218 0.951 . S
C205 C201 1.383 . S
C205 C204 1.367 . S
C205 H219 0.950 . S
C206 C203 1.481 . S
C206 C207 1.297 . S
C206 H220 0.950 . S
C207 C206 1.297 . S
C207 C208 1.479 . S
C207 H221 0.950 . S
C208 C207 1.479 . S
C208 C209 1.375 . S
C208 C214 1.404 . S
C209 C208 1.375 . S
C209 C210 1.369 . S
C209 H222 0.950 . S
C210 C209 1.369 . S
C210 C211 1.392 . S
C210 H223 0.951 . S
C211 C210 1.392 . S
C211 C213 1.384 . S
H212 C214 0.949 . S
C213 C211 1.384 . S
C213 C214 1.385 . S
C213 H215 0.950 . S
C214 C208 1.404 . S
C214 H212 0.949 . S
C214 C213 1.385 . S
H215 C213 0.950 . S
H216 C200 0.951 . S
H217 C202 0.951 . S
H218 C204 0.951 . S
H219 C205 0.950 . S
H220 C206 0.950 . S
H221 C207 0.950 . S
H222 C209 0.950 . S
H223 C210 0.951 . S
C224 C225 1.386 . S
C224 C226 1.383 1_545 S
C224 H240 0.951 1_545 S
C225 C224 1.386 . S
C225 C229 1.383 . S
C226 C224 1.383 1_565 S
C226 C227 1.402 1_565 S
C226 H241 0.951 . S
C227 C226 1.402 1_545 S
C227 C228 1.375 . S
C227 C230 1.481 1_545 S
C228 C227 1.375 . S
C228 C229 1.367 . S
C228 H242 0.951 . S
C229 C225 1.383 . S
C229 C228 1.367 . S
C229 H243 0.950 . S
C230 C227 1.481 1_565 S
C230 C231 1.297 . S
C230 H244 0.950 1_565 S
C231 C230 1.297 . S
C231 C232 1.479 . S
C231 H245 0.950 . S
C232 C231 1.479 . S
C232 C233 1.375 . S
C232 C238 1.404 . S
C233 C232 1.375 . S
C233 C234 1.369 . S
C233 H246 0.950 . S
C234 C233 1.369 . S
C234 C235 1.392 1_655 S
C234 H247 0.951 . S
C235 C234 1.392 1_455 S
C235 C237 1.384 . S
H236 C238 0.948 1_455 S
C237 C235 1.384 . S
C237 C238 1.384 1_455 S
C237 H239 0.950 . S
C238 C232 1.404 . S
C238 H236 0.948 1_655 S
C238 C237 1.384 1_655 S
H239 C237 0.950 . S
H240 C224 0.951 1_565 S
H241 C226 0.951 . S
H242 C228 0.951 . S
H243 C229 0.950 . S
H244 C230 0.950 1_545 S
H245 C231 0.950 . S
H246 C233 0.950 . S
H247 C234 0.951 . S
C248 C249 1.386 . S
C248 C250 1.383 . S
C248 H264 0.951 . S
C249 C248 1.386 . S
C249 C253 1.383 . S
C250 C248 1.383 . S
C250 C251 1.402 . S
C250 H265 0.951 . S
C251 C250 1.402 . S
C251 C252 1.375 . S
C251 C254 1.481 . S
C252 C251 1.375 . S
C252 C253 1.367 . S
C252 H266 0.951 . S
C253 C249 1.383 . S
C253 C252 1.367 . S
C253 H267 0.950 . S
C254 C251 1.481 . S
C254 C255 1.297 . S
C254 H268 0.950 . S
C255 C254 1.297 . S
C255 C256 1.479 . S
C255 H269 0.950 . S
C256 C255 1.479 . S
C256 C257 1.375 . S
C256 C262 1.404 . S
C257 C256 1.375 . S
C257 C258 1.369 1_455 S
C257 H270 0.950 . S
C258 C257 1.369 1_655 S
C258 C259 1.392 . S
C258 H271 0.951 . S
C259 C258 1.392 . S
C259 C261 1.384 . S
H260 C262 0.949 . S
C261 C259 1.384 . S
C261 C262 1.385 1_655 S
C261 H263 0.950 . S
C262 C256 1.404 . S
C262 H260 0.949 . S
C262 C261 1.385 1_455 S
H263 C261 0.950 . S
H264 C248 0.951 . S
H265 C250 0.951 . S
H266 C252 0.951 . S
H267 C253 0.950 . S
H268 C254 0.950 . S
H269 C255 0.950 . S
H270 C257 0.950 . S
H271 C258 0.951 . S
C272 C273 1.386 . S
C272 C274 1.383 . S
C272 H288 0.951 . S
C273 C272 1.386 . S
C273 C277 1.383 . S
C274 C272 1.383 . S
C274 C275 1.402 . S
C274 H289 0.951 . S
C275 C274 1.402 . S
C275 C276 1.375 . S
C275 C278 1.481 . S
C276 C275 1.375 . S
C276 C277 1.367 . S
C276 H290 0.951 . S
C277 C273 1.383 . S
C277 C276 1.367 . S
C277 H291 0.950 . S
C278 C275 1.481 . S
C278 C279 1.289 1_565 S
C278 H292 0.950 . S
C279 C278 1.289 1_545 S
C279 C280 1.492 . S
C279 H293 0.946 1_545 S
C280 C279 1.492 . S
C280 C281 1.375 . S
C280 C286 1.404 . S
C281 C280 1.375 . S
C281 C282 1.369 . S
C281 H294 0.950 . S
C282 C281 1.369 . S
C282 C283 1.392 . S
C282 H295 0.951 . S
C283 C282 1.392 . S
C283 C285 1.384 . S
H284 C286 0.949 . S
C285 C283 1.384 . S
C285 C286 1.385 . S
C285 H287 0.950 . S
C286 C280 1.404 . S
C286 H284 0.949 . S
C286 C285 1.385 . S
H287 C285 0.950 . S
H288 C272 0.951 . S
H289 C274 0.951 . S
H290 C276 0.951 . S
H291 C277 0.950 . S
H292 C278 0.950 . S
H293 C279 0.946 1_565 S
H294 C281 0.950 . S
H295 C282 0.951 . S
C296 C297 1.386 . S
C296 C298 1.383 . S
C296 H312 0.951 . S
C297 C296 1.386 . S
C297 C301 1.383 . S
C298 C296 1.383 . S
C298 C299 1.402 . S
C298 H313 0.951 . S
C299 C298 1.402 . S
C299 C300 1.375 . S
C299 C302 1.481 . S
C300 C299 1.375 . S
C300 C301 1.367 . S
C300 H314 0.951 . S
C301 C297 1.383 . S
C301 C300 1.367 . S
C301 H315 0.950 . S
C302 C299 1.481 . S
C302 C303 1.297 . S
C302 H316 0.950 . S
C303 C302 1.297 . S
C303 C304 1.479 1_455 S
C303 H317 0.950 1_455 S
C304 C303 1.479 1_655 S
C304 C305 1.375 . S
C304 C310 1.404 . S
C305 C304 1.375 . S
C305 C306 1.369 . S
C305 H318 0.950 . S
C306 C305 1.369 . S
C306 C307 1.392 . S
C306 H319 0.951 . S
C307 C306 1.392 . S
C307 C309 1.384 . S
H308 C310 0.949 1_455 S
C309 C307 1.384 . S
C309 C310 1.385 . S
C309 H311 0.950 . S
C310 C304 1.404 . S
C310 H308 0.949 1_655 S
C310 C309 1.385 . S
H311 C309 0.950 . S
H312 C296 0.951 . S
H313 C298 0.951 . S
H314 C300 0.951 . S
H315 C301 0.950 . S
H316 C302 0.950 . S
H317 C303 0.950 1_655 S
H318 C305 0.950 . S
H319 C306 0.951 . S
C320 C321 1.386 . S
C320 C322 1.383 1_565 S
C320 H336 0.951 1_565 S
C321 C320 1.386 . S
C321 C325 1.383 . S
C322 C320 1.383 1_545 S
C322 C323 1.402 1_545 S
C322 H337 0.951 . S
C323 C322 1.402 1_565 S
C323 C324 1.375 . S
C323 C326 1.481 . S
C324 C323 1.375 . S
C324 C325 1.367 . S
C324 H338 0.951 . S
C325 C321 1.383 . S
C325 C324 1.367 . S
C325 H339 0.950 . S
C326 C323 1.481 . S
C326 C327 1.297 1_565 S
C326 H340 0.950 . S
C327 C326 1.297 1_545 S
C327 C328 1.479 . S
C327 H341 0.950 . S
C328 C327 1.479 . S
C328 C329 1.375 . S
C328 C334 1.404 . S
C329 C328 1.375 . S
C329 C330 1.369 . S
C329 H342 0.950 . S
C330 C329 1.369 . S
C330 C331 1.392 . S
C330 H343 0.951 . S
C331 C330 1.392 . S
C331 C333 1.384 . S
H332 C334 0.949 1_565 S
C333 C331 1.384 . S
C333 C334 1.385 . S
C333 H335 0.950 . S
C334 C328 1.404 . S
C334 H332 0.949 1_545 S
C334 C333 1.385 . S
H335 C333 0.950 . S
H336 C320 0.951 1_545 S
H337 C322 0.951 . S
H338 C324 0.951 . S
H339 C325 0.950 . S
H340 C326 0.950 . S
H341 C327 0.950 . S
H342 C329 0.950 . S
H343 C330 0.951 . S
C344 C345 1.386 . S
C344 C346 1.383 . S
C344 H360 0.951 . S
C345 C344 1.386 . S
C345 C349 1.383 . S
C346 C344 1.383 . S
C346 C347 1.402 . S
C346 H361 0.951 . S
C347 C346 1.402 . S
C347 C348 1.375 . S
C347 C350 1.481 . S
C348 C347 1.375 . S
C348 C349 1.367 . S
C348 H362 0.951 . S
C349 C345 1.383 . S
C349 C348 1.367 . S
C349 H363 0.950 . S
C350 C347 1.481 . S
C350 C351 1.297 1_554 S
C350 H364 0.951 1_554 S
C351 C350 1.297 1_556 S
C351 C352 1.479 . S
C351 H365 0.950 . S
C352 C351 1.479 . S
C352 C353 1.375 . S
C352 C358 1.404 . S
C353 C352 1.375 . S
C353 C354 1.369 . S
C353 H366 0.950 . S
C354 C353 1.369 . S
C354 C355 1.392 . S
C354 H367 0.951 . S
C355 C354 1.392 . S
C355 C357 1.384 . S
H356 C358 0.949 . S
C357 C355 1.384 . S
C357 C358 1.385 . S
C357 H359 0.950 . S
C358 C352 1.404 . S
C358 H356 0.949 . S
C358 C357 1.385 . S
H359 C357 0.950 . S
H360 C344 0.951 . S
H361 C346 0.951 . S
H362 C348 0.951 . S
H363 C349 0.950 . S
H364 C350 0.951 1_556 S
H365 C351 0.950 . S
H366 C353 0.950 . S
H367 C354 0.951 . S
C368 C369 1.386 . S
C368 C370 1.383 . S
C368 H384 0.951 1_565 S
C369 C368 1.386 . S
C369 C373 1.383 . S
C370 C368 1.383 . S
C370 C371 1.402 . S
C370 H385 0.951 1_565 S
C371 C370 1.402 . S
C371 C372 1.375 . S
C371 C374 1.481 . S
C372 C371 1.375 . S
C372 C373 1.367 . S
C372 H386 0.951 . S
C373 C369 1.383 . S
C373 C372 1.367 . S
C373 H387 0.950 . S
C374 C371 1.481 . S
C374 C375 1.297 1_466 S
C374 H388 0.950 1_556 S
C375 C374 1.297 1_644 S
C375 C376 1.479 . S
C375 H389 0.950 1_554 S
C376 C375 1.479 . S
C376 C377 1.375 . S
C376 C382 1.404 1_545 S
C377 C376 1.375 . S
C377 C378 1.369 . S
C377 H390 0.950 . S
C378 C377 1.369 . S
C378 C379 1.392 . S
C378 H391 0.951 . S
C379 C378 1.392 . S
C379 C381 1.384 1_545 S
H380 C382 0.949 . S
C381 C379 1.384 1_565 S
C381 C382 1.385 . S
C381 H383 0.950 . S
C382 C376 1.404 1_565 S
C382 H380 0.949 . S
C382 C381 1.385 . S
H383 C381 0.950 . S
H384 C368 0.951 1_545 S
H385 C370 0.951 1_545 S
H386 C372 0.951 . S
H387 C373 0.950 . S
H388 C374 0.950 1_554 S
H389 C375 0.950 1_556 S
H390 C377 0.950 . S
H391 C378 0.951 . S
C392 C393 1.386 . S
C392 C394 1.383 . S
C392 H408 0.951 . S
C393 C392 1.386 . S
C393 C397 1.383 . S
C394 C392 1.383 . S
C394 C395 1.402 . S
C394 H409 0.951 . S
C395 C394 1.402 . S
C395 C396 1.375 . S
C395 C398 1.481 . S
C396 C395 1.375 . S
C396 C397 1.367 . S
C396 H410 0.951 . S
C397 C393 1.383 . S
C397 C396 1.367 . S
C397 H411 0.950 . S
C398 C395 1.481 . S
C398 C399 1.297 . S
C398 H412 0.950 . S
C399 C398 1.297 . S
C399 C400 1.479 . S
C399 H413 0.950 . S
C400 C399 1.479 . S
C400 C401 1.375 . S
C400 C406 1.404 . S
C401 C400 1.375 . S
C401 C402 1.369 . S
C401 H414 0.950 . S
C402 C401 1.369 . S
C402 C403 1.392 . S
C402 H415 0.951 . S
C403 C402 1.392 . S
C403 C405 1.384 . S
H404 C406 0.949 . S
C405 C403 1.384 . S
C405 C406 1.385 . S
C405 H407 0.950 . S
C406 C400 1.404 . S
C406 H404 0.949 . S
C406 C405 1.385 . S
H407 C405 0.950 . S
H408 C392 0.951 . S
H409 C394 0.951 . S
H410 C396 0.951 . S
H411 C397 0.950 . S
H412 C398 0.950 . S
H413 C399 0.950 . S
H414 C401 0.950 . S
H415 C402 0.951 . S
C416 C417 1.386 . S
C416 C418 1.383 . S
C416 H432 0.951 . S
C417 C416 1.386 . S
C417 C421 1.383 . S
C418 C416 1.383 . S
C418 C419 1.402 . S
C418 H433 0.951 . S
C419 C418 1.402 . S
C419 C420 1.375 . S
C419 C422 1.481 . S
C420 C419 1.375 . S
C420 C421 1.367 . S
C420 H434 0.951 . S
C421 C417 1.383 . S
C421 C420 1.367 . S
C421 H435 0.950 . S
C422 C419 1.481 . S
C422 C423 1.297 . S
C422 H436 0.950 . S
C423 C422 1.297 . S
C423 C424 1.479 . S
C423 H437 0.950 . S
C424 C423 1.479 . S
C424 C425 1.375 . S
C424 C430 1.404 . S
C425 C424 1.375 . S
C425 C426 1.369 . S
C425 H438 0.950 . S
C426 C425 1.369 . S
C426 C427 1.392 . S
C426 H439 0.951 . S
C427 C426 1.392 . S
C427 C429 1.384 . S
H428 C430 0.949 . S
C429 C427 1.384 . S
C429 C430 1.385 . S
C429 H431 0.950 . S
C430 C424 1.404 . S
C430 H428 0.949 . S
C430 C429 1.385 . S
H431 C429 0.950 . S
H432 C416 0.951 . S
H433 C418 0.951 . S
H434 C420 0.951 . S
H435 C421 0.950 . S
H436 C422 0.950 . S
H437 C423 0.950 . S
H438 C425 0.950 . S
H439 C426 0.951 . S
C440 C441 1.386 . S
C440 C442 1.383 . S
C440 H456 0.951 . S
C441 C440 1.386 . S
C441 C445 1.383 . S
C442 C440 1.383 . S
C442 C443 1.402 . S
C442 H457 0.951 . S
C443 C442 1.402 . S
C443 C444 1.375 . S
C443 C446 1.481 . S
C444 C443 1.375 . S
C444 C445 1.367 . S
C444 H458 0.951 . S
C445 C441 1.383 . S
C445 C444 1.367 . S
C445 H459 0.950 . S
C446 C443 1.481 . S
C446 C447 1.297 . S
C446 H460 0.950 . S
C447 C446 1.297 . S
C447 C448 1.479 . S
C447 H461 0.950 . S
C448 C447 1.479 . S
C448 C449 1.375 . S
C448 C454 1.404 . S
C449 C448 1.375 . S
C449 C450 1.369 . S
C449 H462 0.950 . S
C450 C449 1.369 . S
C450 C451 1.392 . S
C450 H463 0.951 . S
C451 C450 1.392 . S
C451 C453 1.384 . S
H452 C454 0.949 . S
C453 C451 1.384 . S
C453 C454 1.385 . S
C453 H455 0.950 . S
C454 C448 1.404 . S
C454 H452 0.949 . S
C454 C453 1.385 . S
H455 C453 0.950 . S
H456 C440 0.951 . S
H457 C442 0.951 . S
H458 C444 0.951 . S
H459 C445 0.950 . S
H460 C446 0.950 . S
H461 C447 0.950 . S
H462 C449 0.950 . S
H463 C450 0.951 . S
C464 C465 1.386 . S
C464 C466 1.383 . S
C464 H480 0.951 . S
C465 C464 1.386 . S
C465 C469 1.383 . S
C466 C464 1.383 . S
C466 C467 1.402 . S
C466 H481 0.951 . S
C467 C466 1.402 . S
C467 C468 1.375 . S
C467 C470 1.481 . S
C468 C467 1.375 . S
C468 C469 1.367 . S
C468 H482 0.951 . S
C469 C465 1.383 . S
C469 C468 1.367 . S
C469 H483 0.950 . S
C470 C467 1.481 . S
C470 C471 1.297 . S
C470 H484 0.950 . S
C471 C470 1.297 . S
C471 C472 1.479 . S
C471 H485 0.950 . S
C472 C471 1.479 . S
C472 C473 1.375 . S
C472 C478 1.404 . S
C473 C472 1.375 . S
C473 C474 1.369 . S
C473 H486 0.950 . S
C474 C473 1.369 . S
C474 C475 1.392 . S
C474 H487 0.951 . S
C475 C474 1.392 . S
C475 C477 1.384 . S
H476 C478 0.949 . S
C477 C475 1.384 . S
C477 C478 1.385 . S
C477 H479 0.950 . S
C478 C472 1.404 . S
C478 H476 0.949 . S
C478 C477 1.385 . S
H479 C477 0.950 . S
H480 C464 0.951 . S
H481 C466 0.951 . S
H482 C468 0.951 . S
H483 C469 0.950 . S
H484 C470 0.950 . S
H485 C471 0.950 . S
H486 C473 0.950 . S
H487 C474 0.951 . S
C105 C5 1.061 . S
C115 C34 1.150 . S
C129 C47 1.080 . S
C139 C18 1.077 . S
C153 C31 1.127 . S
C163 C8 1.031 . S
C177 C44 1.052 . S
C187 C21 1.141 . S
C201 C86 1.069 . S
C211 C57 1.020 . S
C225 C70 1.108 . S
C235 C99 1.083 . S
C249 C83 1.055 . S
C259 C60 1.029 . S
C273 C96 1.052 . S
C283 C73 1.044 . S
C297 C0 1.487 . S
C307 C52 1.444 . S
C321 C13 1.488 . S
C331 C65 1.443 . S
C345 C26 1.464 . S
C355 C78 1.489 . S
C369 C91 1.463 . S
C379 C39 1.501 . S
C393 C10 1.514 . S
C403 C23 1.498 . S
C417 C49 1.512 . S
C427 C36 1.514 . S
C441 C75 1.501 . S
C451 C62 1.481 . S
C465 C88 1.496 . S
C475 C101 1.494 . S
