# Generated by pormake.
# Topology uob, (4)-cn, num edge types: 1
# Building blocks:
#     Node 0, Type 0, BuildingBlock: ICAMEG_clean_sbu_1, # of connection points: 4
#     Node 1, Type 0, BuildingBlock: ICAMEG_clean_sbu_1, # of connection points: 4
#     Node 2, Type 0, BuildingBlock: ICAMEG_clean_sbu_1, # of connection points: 4
#     Node 3, Type 0, BuildingBlock: ICAMEG_clean_sbu_1, # of connection points: 4
#     Node 4, Type 0, BuildingBlock: ICAMEG_clean_sbu_1, # of connection points: 4
#     Node 5, Type 0, BuildingBlock: ICAMEG_clean_sbu_1, # of connection points: 4
#     Node 6, Type 0, BuildingBlock: ICAMEG_clean_sbu_1, # of connection points: 4
#     Node 7, Type 0, BuildingBlock: ICAMEG_clean_sbu_1, # of connection points: 4
#     Node 8, Type 0, BuildingBlock: ICAMEG_clean_sbu_1, # of connection points: 4
#     Node 9, Type 0, BuildingBlock: ICAMEG_clean_sbu_1, # of connection points: 4
#     Node 10, Type 0, BuildingBlock: ICAMEG_clean_sbu_1, # of connection points: 4
#     Node 11, Type 0, BuildingBlock: ICAMEG_clean_sbu_1, # of connection points: 4
#     Node 12, Type 0, BuildingBlock: ICAMEG_clean_sbu_1, # of connection points: 4
#     Node 13, Type 0, BuildingBlock: ICAMEG_clean_sbu_1, # of connection points: 4
#     Node 14, Type 0, BuildingBlock: ICAMEG_clean_sbu_1, # of connection points: 4
#     Node 15, Type 0, BuildingBlock: ICAMEG_clean_sbu_1, # of connection points: 4
#     Edge 16, Type (0, 0), BuildingBlock: XUDNAN_clean_linker_2, # of connection points: 2
#     Edge 17, Type (0, 0), BuildingBlock: XUDNAN_clean_linker_2, # of connection points: 2
#     Edge 18, Type (0, 0), BuildingBlock: XUDNAN_clean_linker_2, # of connection points: 2
#     Edge 19, Type (0, 0), BuildingBlock: XUDNAN_clean_linker_2, # of connection points: 2
#     Edge 20, Type (0, 0), BuildingBlock: XUDNAN_clean_linker_2, # of connection points: 2
#     Edge 21, Type (0, 0), BuildingBlock: XUDNAN_clean_linker_2, # of connection points: 2
#     Edge 22, Type (0, 0), BuildingBlock: XUDNAN_clean_linker_2, # of connection points: 2
#     Edge 23, Type (0, 0), BuildingBlock: XUDNAN_clean_linker_2, # of connection points: 2
#     Edge 24, Type (0, 0), BuildingBlock: XUDNAN_clean_linker_2, # of connection points: 2
#     Edge 25, Type (0, 0), BuildingBlock: XUDNAN_clean_linker_2, # of connection points: 2
#     Edge 26, Type (0, 0), BuildingBlock: XUDNAN_clean_linker_2, # of connection points: 2
#     Edge 27, Type (0, 0), BuildingBlock: XUDNAN_clean_linker_2, # of connection points: 2
#     Edge 28, Type (0, 0), BuildingBlock: XUDNAN_clean_linker_2, # of connection points: 2
#     Edge 29, Type (0, 0), BuildingBlock: XUDNAN_clean_linker_2, # of connection points: 2
#     Edge 30, Type (0, 0), BuildingBlock: XUDNAN_clean_linker_2, # of connection points: 2
#     Edge 31, Type (0, 0), BuildingBlock: XUDNAN_clean_linker_2, # of connection points: 2
#     Edge 32, Type (0, 0), BuildingBlock: XUDNAN_clean_linker_2, # of connection points: 2
#     Edge 33, Type (0, 0), BuildingBlock: XUDNAN_clean_linker_2, # of connection points: 2
#     Edge 34, Type (0, 0), BuildingBlock: XUDNAN_clean_linker_2, # of connection points: 2
#     Edge 35, Type (0, 0), BuildingBlock: XUDNAN_clean_linker_2, # of connection points: 2
#     Edge 36, Type (0, 0), BuildingBlock: XUDNAN_clean_linker_2, # of connection points: 2
#     Edge 37, Type (0, 0), BuildingBlock: XUDNAN_clean_linker_2, # of connection points: 2
#     Edge 38, Type (0, 0), BuildingBlock: XUDNAN_clean_linker_2, # of connection points: 2
#     Edge 39, Type (0, 0), BuildingBlock: XUDNAN_clean_linker_2, # of connection points: 2
#     Edge 40, Type (0, 0), BuildingBlock: XUDNAN_clean_linker_2, # of connection points: 2
#     Edge 41, Type (0, 0), BuildingBlock: XUDNAN_clean_linker_2, # of connection points: 2
#     Edge 42, Type (0, 0), BuildingBlock: XUDNAN_clean_linker_2, # of connection points: 2
#     Edge 43, Type (0, 0), BuildingBlock: XUDNAN_clean_linker_2, # of connection points: 2
#     Edge 44, Type (0, 0), BuildingBlock: XUDNAN_clean_linker_2, # of connection points: 2
#     Edge 45, Type (0, 0), BuildingBlock: XUDNAN_clean_linker_2, # of connection points: 2
#     Edge 46, Type (0, 0), BuildingBlock: XUDNAN_clean_linker_2, # of connection points: 2
#     Edge 47, Type (0, 0), BuildingBlock: XUDNAN_clean_linker_2, # of connection points: 2
# Relax obj value: 0.103
# Max RMSD: 0.130
# Mean RMSD: 0.130
data_MOF--net-uob--node1-ICAMEG_clean_sbu_1--edge1-XUDNAN_clean_linker_2
_symmetry_space_group_name_H-M    P1
_symmetry_Int_Tables_number       1
_symmetry_cell_setting            triclinic
loop_
_symmetry_equiv_pos_as_xyz
'x, y, z'
_cell_length_a     57.342456
_cell_length_b     57.543348
_cell_length_c     29.346204
_cell_angle_alpha  89.999979
_cell_angle_beta   90.015617
_cell_angle_gamma 90.040489
loop_
_atom_site_label
_atom_site_type_symbol
_atom_site_fract_x
_atom_site_fract_y
_atom_site_fract_z
_atom_type_partial_charge
Co0 Co 0.11268 0.07689 0.28645 0.0
Co1 Co 0.12651 0.02565 0.34172 0.0
O2 O 0.1334 0.051 0.29961 0.0
C3 C 0.11874 0.05826 0.19307 0.0
O4 O 0.11008 0.03832 0.20664 0.0
C5 C 0.16737 0.04909 0.38043 0.0
O6 O 0.15491 0.06786 0.37361 0.0
O7 O 0.11392 0.04725 0.38871 0.0
O8 O 0.10331 0.0796 0.35124 0.0
H9 H 0.07715 0.97923 0.45007 0.0
H10 H 0.16192 0.07866 0.25569 0.0
O11 O 0.1215 0.07499 0.22084 0.0
H12 H 0.15221 0.14616 0.35744 0.0
H13 H 0.09042 0.15127 0.20731 0.0
H14 H 0.06463 0.09013 0.31371 0.0
H15 H 0.11903 0.12016 0.34108 0.0
H16 H 0.11651 0.11872 0.22694 0.0
O17 O 0.15893 0.02934 0.36906 0.0
H18 H 0.08564 0.01145 0.39717 0.0
H19 H 0.15409 0.98549 0.37597 0.0
H20 H 0.03806 0.12247 0.29534 0.0
H21 H 0.19551 0.10432 0.27085 0.0
H22 H 0.05091 0.15334 0.24176 0.0
H23 H 0.19078 0.13829 0.32223 0.0
O24 O 0.08606 0.05531 0.27674 0.0
H25 H 0.18473 0.99715 0.22669 0.0
H26 H 0.10892 0.98182 0.30016 0.0
H27 H 0.12349 0.95483 0.24138 0.0
H28 H 0.16169 0.9624 0.20432 0.0
H29 H 0.1694 0.02379 0.28535 0.0
H30 H 0.14644 0.9531 0.42905 0.0
H31 H 0.10769 0.94978 0.46634 0.0
O32 O 0.09402 0.02241 0.31559 0.0
C33 C 0.10464 0.06736 0.38723 0.0
C34 C 0.09408 0.98045 0.43394 0.0
C35 C 0.13298 0.9658 0.42219 0.0
N36 N 0.12027 1.00022 0.38327 0.0
C37 C 0.09896 0.99861 0.40385 0.0
C38 C 0.13724 0.9842 0.39227 0.0
C39 C 0.11123 0.96394 0.44308 0.0
C40 C 0.15966 0.09357 0.27764 0.0
N41 N 0.1385 0.09799 0.29723 0.0
C42 C 0.17877 0.10798 0.28628 0.0
C43 C 0.17611 0.12701 0.31516 0.0
C44 C 0.15447 0.13143 0.33495 0.0
C45 C 0.13576 0.11663 0.3256 0.0
C46 C 0.08465 0.13798 0.23083 0.0
C47 C 0.07044 0.10361 0.29072 0.0
C48 C 0.09934 0.11949 0.24205 0.0
N49 N 0.09221 0.10269 0.27191 0.0
C50 C 0.05527 0.12183 0.28029 0.0
C51 C 0.06248 0.13913 0.25017 0.0
C52 C 0.08042 0.03517 0.29151 0.0
C53 C 0.16809 0.99363 0.24268 0.0
C54 C 0.12552 0.98526 0.28405 0.0
C55 C 0.1337 0.9699 0.25087 0.0
C56 C 0.15514 0.97415 0.23011 0.0
N57 N 0.13837 0.00427 0.29631 0.0
C58 C 0.15937 0.0086 0.27602 0.0
Co59 Co 0.92923 0.61014 0.54747 0.0
Co60 Co 0.98351 0.63278 0.57487 0.0
O61 O 0.95423 0.63326 0.54061 0.0
C62 C 0.94431 0.60346 0.45283 0.0
O63 O 0.96574 0.60477 0.46822 0.0
C64 C 0.96332 0.67865 0.60157 0.0
O65 O 0.94253 0.66909 0.6028 0.0
O66 O 0.96676 0.62625 0.63288 0.0
O67 O 0.93105 0.6128 0.6149 0.0
H68 H 0.04092 0.59946 0.68638 0.0
H69 H 0.92209 0.65066 0.4868 0.0
O70 O 0.9271 0.60664 0.47954 0.0
H71 H 0.8615 0.65731 0.60531 0.0
H72 H 0.85222 0.57339 0.50731 0.0
H73 H 0.92091 0.5698 0.60819 0.0
H74 H 0.88903 0.62439 0.60562 0.0
H75 H 0.88407 0.60199 0.49969 0.0
O76 O 0.98094 0.66684 0.58868 0.0
H77 H 0.00431 0.60057 0.64221 0.0
H78 H 0.02495 0.6641 0.58056 0.0
H79 H 0.88936 0.54101 0.61735 0.0
H80 H 0.89478 0.68377 0.48495 0.0
H81 H 0.8547 0.5427 0.56664 0.0
H82 H 0.86426 0.68727 0.54462 0.0
O83 O 0.9517 0.58356 0.54884 0.0
H84 H 0.99657 0.67558 0.42798 0.0
H85 H 0.02547 0.61323 0.52843 0.0
H86 H 0.0457 0.62112 0.45588 0.0
H87 H 0.03127 0.65253 0.40513 0.0
H88 H 0.97674 0.6669 0.50067 0.0
H89 H 0.06168 0.66381 0.62436 0.0
H90 H 0.06989 0.63126 0.67759 0.0
O91 O 0.98711 0.5989 0.56212 0.0
C92 C 0.94649 0.61898 0.64368 0.0
C93 C 0.03758 0.6137 0.66319 0.0
C94 C 0.04921 0.64984 0.62843 0.0
N95 N 0.01258 0.63229 0.60865 0.0
C96 C 0.01691 0.61439 0.63801 0.0
C97 C 0.02836 0.64994 0.60382 0.0
C98 C 0.05381 0.63157 0.65828 0.0
C99 C 0.90872 0.65197 0.51263 0.0
N100 N 0.90708 0.63558 0.54614 0.0
C101 C 0.89336 0.6708 0.51152 0.0
C102 C 0.87626 0.67276 0.54504 0.0
C103 C 0.87471 0.65597 0.57912 0.0
C104 C 0.89038 0.63739 0.57917 0.0
C105 C 0.8672 0.57252 0.5297 0.0
C106 C 0.90579 0.57076 0.58628 0.0
C107 C 0.88529 0.58864 0.5255 0.0
N108 N 0.90419 0.58771 0.55384 0.0
C109 C 0.88802 0.55436 0.5915 0.0
C110 C 0.8686 0.55531 0.563 0.0
C111 C 0.9737 0.58174 0.55376 0.0
C112 C 1.00303 0.66186 0.44981 0.0
C113 C 0.01901 0.62682 0.50638 0.0
C114 C 0.03058 0.63127 0.46543 0.0
C115 C 0.02249 0.64891 0.43699 0.0
N116 N 0.99993 0.63957 0.51867 0.0
C117 C 0.99191 0.65691 0.49103 0.0
Co118 Co 0.39832 0.41402 0.78882 0.0
Co119 Co 0.3799 0.46227 0.84895 0.0
O120 O 0.37538 0.43784 0.80356 0.0
C121 C 0.39093 0.43476 0.6979 0.0
O122 O 0.39631 0.45509 0.71521 0.0
C123 C 0.33854 0.43655 0.88017 0.0
O124 O 0.35158 0.41807 0.87419 0.0
O125 O 0.39215 0.43988 0.89444 0.0
O126 O 0.40749 0.41061 0.85384 0.0
H127 H 0.4236 0.50644 0.96953 0.0
H128 H 0.34967 0.40888 0.75625 0.0
O129 O 0.38992 0.41676 0.72299 0.0
H130 H 0.36427 0.34017 0.85251 0.0
H131 H 0.42743 0.34368 0.70424 0.0
H132 H 0.44696 0.40406 0.81726 0.0
H133 H 0.39525 0.36919 0.83961 0.0
H134 H 0.39855 0.37352 0.72545 0.0
O135 O 0.34707 0.45663 0.87201 0.0
H136 H 0.41826 0.47604 0.9112 0.0
H137 H 0.34976 0.50042 0.88405 0.0
H138 H 0.47629 0.37443 0.79734 0.0
H139 H 0.31823 0.38021 0.768 0.0
H140 H 0.46659 0.34396 0.74043 0.0
H141 H 0.32542 0.34561 0.81659 0.0
O142 O 0.42302 0.43799 0.78112 0.0
H143 H 0.32389 0.49142 0.73034 0.0
H144 H 0.39639 0.50814 0.81466 0.0
H145 H 0.38226 0.53613 0.75728 0.0
H146 H 0.34572 0.52786 0.71476 0.0
H147 H 0.33876 0.46382 0.78774 0.0
H148 H 0.3543 0.53104 0.94228 0.0
H149 H 0.39146 0.53421 0.98538 0.0
O150 O 0.41276 0.46783 0.82692 0.0
C151 C 0.40382 0.42111 0.89131 0.0
C152 C 0.40736 0.5053 0.95084 0.0
C153 C 0.36845 0.51908 0.9356 0.0
N154 N 0.38381 0.48661 0.89397 0.0
C155 C 0.40427 0.48817 0.91766 0.0
C156 C 0.36597 0.5017 0.90272 0.0
C157 C 0.38931 0.52085 0.95976 0.0
C158 C 0.353 0.39373 0.77702 0.0
N159 N 0.37429 0.39065 0.79703 0.0
C160 C 0.33511 0.37761 0.78371 0.0
C161 C 0.33914 0.35822 0.81104 0.0
C162 C 0.36093 0.35517 0.83123 0.0
C163 C 0.3784 0.37167 0.82386 0.0
C164 C 0.43184 0.35682 0.72917 0.0
C165 C 0.44255 0.39076 0.79271 0.0
C166 C 0.41557 0.37379 0.74127 0.0
N167 N 0.42099 0.39038 0.7729 0.0
C168 C 0.45926 0.37407 0.78146 0.0
C169 C 0.45381 0.35699 0.7495 0.0
C170 C 0.42701 0.45758 0.80001 0.0
C171 C 0.33979 0.49525 0.74874 0.0
C172 C 0.38052 0.5044 0.79618 0.0
C173 C 0.37258 0.52033 0.76381 0.0
C174 C 0.35207 0.51568 0.73998 0.0
N175 N 0.36832 0.48445 0.8047 0.0
C176 C 0.34825 0.47973 0.78138 0.0
Co177 Co 0.572 0.89332 0.03091 0.0
Co178 Co 0.51627 0.87406 0.05689 0.0
O179 O 0.54729 0.86978 0.03015 0.0
C180 C 0.56751 0.88469 0.93195 0.0
O181 O 0.54474 0.88538 0.93663 0.0
C182 C 0.534 0.83219 0.10506 0.0
O183 O 0.55414 0.84282 0.10939 0.0
O184 O 0.52961 0.88687 0.11467 0.0
O185 O 0.56419 0.90202 0.09409 0.0
H186 H 0.45336 0.91849 0.13804 0.0
H187 H 0.58326 0.84529 0.00208 0.0
O188 O 0.58065 0.88582 0.96678 0.0
H189 H 0.63141 0.85954 0.13853 0.0
H190 H 0.65277 0.92334 -0.00216 0.0
H191 H 0.57607 0.94186 0.06418 0.0
H192 H 0.60575 0.89025 0.10815 0.0
H193 H 0.62129 0.89412 -0.00158 0.0
O194 O 0.51726 0.84203 0.08399 0.0
H195 H 0.49233 0.91277 0.10427 0.0
H196 H 0.47413 0.84394 0.06582 0.0
H197 H 0.60705 0.97157 0.06465 0.0
H198 H 0.60883 0.81414 0.0311 0.0
H199 H 0.64577 0.96238 0.03125 0.0
H200 H 0.63305 0.82116 0.09992 0.0
O201 O 0.55023 0.91794 0.00883 0.0
H202 H 0.51044 0.81696 0.92792 0.0
H203 H 0.4781 0.88878 0.99418 0.0
H204 H 0.462 0.87375 0.92199 0.0
H205 H 0.47818 0.83755 0.88844 0.0
H206 H 0.52616 0.83277 -0.00018 0.0
H207 H 0.43504 0.84884 0.09957 0.0
H208 H 0.42442 0.88637 0.13584 0.0
O209 O 0.51445 0.90606 0.03061 0.0
C210 C 0.54806 0.89851 0.12287 0.0
C211 C 0.45776 0.90208 0.12223 0.0
C212 C 0.44749 0.86298 0.10069 0.0
N213 N 0.48544 0.8781 0.08288 0.0
C214 C 0.47977 0.89876 0.10295 0.0
C215 C 0.46967 0.86028 0.08176 0.0
C216 C 0.44154 0.88404 0.12102 0.0
C217 C 0.59397 0.84855 0.03172 0.0
N218 N 0.59312 0.86958 0.05323 0.0
C219 C 0.60832 0.83082 0.04812 0.0
C220 C 0.62188 0.83476 0.08679 0.0
C221 C 0.62096 0.85628 0.10849 0.0
C222 C 0.60637 0.87359 0.09117 0.0
C223 C 0.63599 0.92755 0.01252 0.0
C224 C 0.59286 0.93771 0.04979 0.0
C225 C 0.61807 0.9111 0.01285 0.0
N226 N 0.59684 0.91627 0.03144 0.0
C227 C 0.61034 0.95461 0.05007 0.0
C228 C 0.63205 0.94945 0.03129 0.0
C229 C 0.52826 0.92091 0.01283 0.0
C230 C 0.50323 0.83273 0.94222 0.0
C231 C 0.48531 0.87311 0.97962 0.0
C232 C 0.47607 0.86463 0.93884 0.0
C233 C 0.48514 0.84431 0.92006 0.0
N234 N 0.50305 0.86166 0.00113 0.0
C235 C 0.51201 0.84172 0.98297 0.0
Co236 Co 0.09836 0.42402 0.01206 0.0
Co237 Co 0.13467 0.47231 0.00752 0.0
O238 O 0.12665 0.44102 0.02929 0.0
C239 C 0.09564 0.4258 0.11199 0.0
O240 O 0.10361 0.44716 0.10982 0.0
C241 C 0.17359 0.44299 0.97599 0.0
O242 O 0.1574 0.42793 0.96468 0.0
O243 O 0.12655 0.46432 0.94331 0.0
O244 O 0.10201 0.43397 0.9482 0.0
H245 H 0.1214 0.54675 0.92189 0.0
H246 H 0.13542 0.39957 0.06342 0.0
O247 O 0.09346 0.41367 0.07608 0.0
H248 H 0.12843 0.35737 0.91779 0.0
H249 H 0.04341 0.35569 0.01371 0.0
H250 H 0.05739 0.43455 0.95397 0.0
H251 H 0.10296 0.39083 0.93444 0.0
H252 H 0.079 0.37727 0.03483 0.0
O253 O 0.1678 0.46205 -0.00489 0.0
H254 H 0.11142 0.50742 0.94919 0.0
H255 H 0.17569 0.50341 0.0207 0.0
H256 H 0.02171 0.41353 0.93159 0.0
H257 H 0.16114 0.36607 0.04831 0.0
H258 H 0.01454 0.37377 0.96153 0.0
H259 H 0.15778 0.34479 0.97497 0.0
O260 O 0.07851 0.45162 0.02399 0.0
H261 H 0.17327 0.45922 0.159 0.0
H262 H 0.12287 0.51159 0.06965 0.0
H263 H 0.13196 0.52124 0.14962 0.0
H264 H 0.15734 0.49494 0.19484 0.0
H265 H 0.16355 0.45016 0.07901 0.0
H266 H 0.18648 0.5426 0.99381 0.0
H267 H 0.15919 0.56457 0.94419 0.0
O268 O 0.10174 0.48306 0.01854 0.0
C269 C 0.11303 0.44927 0.92554 0.0
C270 C 0.13341 0.53738 0.94361 0.0
C271 C 0.16995 0.53503 0.98393 0.0
N272 N 0.14287 0.50323 0.98677 0.0
C273 C 0.12782 0.51514 0.95928 0.0
C274 C 0.16377 0.51284 -0.00104 0.0
C275 C 0.15462 0.54736 0.9561 0.0
C276 C 0.1337 0.39022 0.03166 0.0
N277 N 0.11763 0.39704 -0.0 0.0
C278 C 0.14837 0.37134 0.0232 0.0
C279 C 0.14649 0.35943 0.982 0.0
C280 C 0.13004 0.36648 0.94989 0.0
C281 C 0.1157 0.38546 0.95949 0.0
C282 C 0.04639 0.37295 0.00028 0.0
C283 C 0.05451 0.41718 0.96677 0.0
C284 C 0.0665 0.38527 0.01214 0.0
N285 N 0.07044 0.40702 -0.00491 0.0
C286 C 0.03422 0.4054 0.95414 0.0
C287 C 0.03019 0.38311 0.971 0.0
C288 C 0.08176 0.47353 0.02418 0.0
C289 C 0.16223 0.47084 0.13962 0.0
C290 C 0.13387 0.50005 0.08916 0.0
C291 C 0.13901 0.50563 0.13438 0.0
C292 C 0.15326 0.49087 0.15973 0.0
N293 N 0.14272 0.48036 0.06971 0.0
C294 C 0.15675 0.46585 0.09428 0.0
Co295 Co 0.58389 0.61542 0.28423 0.0
Co296 Co 0.52537 0.628 0.26883 0.0
O297 O 0.55593 0.63377 0.29633 0.0
C298 C 0.57774 0.60878 0.38286 0.0
O299 O 0.55569 0.60442 0.37449 0.0
C300 C 0.53834 0.67501 0.23729 0.0
O301 O 0.55934 0.66659 0.23097 0.0
O302 O 0.53913 0.62283 0.20745 0.0
O303 O 0.57714 0.61518 0.21796 0.0
H304 H 0.46692 0.58421 0.17436 0.0
H305 H 0.5878 0.65864 0.33853 0.0
O306 O 0.59138 0.61481 0.35076 0.0
H307 H 0.63728 0.67135 0.20336 0.0
H308 H 0.66833 0.59383 0.30468 0.0
H309 H 0.59475 0.57465 0.22619 0.0
H310 H 0.61665 0.63412 0.21424 0.0
H311 H 0.63278 0.61686 0.31885 0.0
O312 O 0.52232 0.66206 0.25374 0.0
H313 H 0.50553 0.59165 0.20847 0.0
H314 H 0.47988 0.65294 0.27154 0.0
H315 H 0.62994 0.55136 0.21057 0.0
H316 H 0.60826 0.69608 0.32918 0.0
H317 H 0.66707 0.56091 0.24999 0.0
H318 H 0.6331 0.70265 0.26106 0.0
O319 O 0.56624 0.58583 0.29101 0.0
H320 H 0.51364 0.67083 0.41618 0.0
H321 H 0.49117 0.60206 0.32599 0.0
H322 H 0.47429 0.60771 0.40249 0.0
H323 H 0.48549 0.64234 0.4481 0.0
H324 H 0.53026 0.66438 0.33965 0.0
H325 H 0.44105 0.64632 0.23766 0.0
H326 H 0.43436 0.61168 0.18886 0.0
O327 O 0.5281 0.5939 0.28227 0.0
C328 C 0.55936 0.61781 0.19253 0.0
C329 C 0.4696 0.59933 0.19566 0.0
C330 C 0.45509 0.63421 0.23115 0.0
N331 N 0.49488 0.62261 0.24225 0.0
C332 C 0.4914 0.60359 0.21519 0.0
C333 C 0.47712 0.6379 0.25014 0.0
C334 C 0.45134 0.61476 0.20378 0.0
C335 C 0.59881 0.66129 0.30909 0.0
N336 N 0.60113 0.6442 0.27711 0.0
C337 C 0.61026 0.68255 0.30386 0.0
C338 C 0.62418 0.68624 0.2656 0.0
C339 C 0.62651 0.66869 0.2332 0.0
C340 C 0.61477 0.64766 0.23952 0.0
C341 C 0.65228 0.58956 0.28717 0.0
C342 C 0.6109 0.57905 0.24314 0.0
C343 C 0.63209 0.60251 0.29509 0.0
N344 N 0.6118 0.5973 0.27286 0.0
C345 C 0.63074 0.56573 0.23431 0.0
C346 C 0.65156 0.57109 0.25648 0.0
C347 C 0.54485 0.57969 0.28928 0.0
C348 C 0.50858 0.65571 0.39659 0.0
C349 C 0.49617 0.61713 0.34569 0.0
C350 C 0.48652 0.62026 0.38894 0.0
C351 C 0.49281 0.6397 0.4145 0.0
N352 N 0.51159 0.63295 0.32834 0.0
C353 C 0.51787 0.65202 0.3532 0.0
Co354 Co 0.39917 0.08785 0.51247 0.0
Co355 Co 0.377 0.03193 0.50254 0.0
O356 O 0.37654 0.06362 0.52755 0.0
C357 C 0.40314 0.08422 0.6121 0.0
O358 O 0.4003 0.06168 0.6081 0.0
C359 C 0.33236 0.05204 0.47315 0.0
O360 O 0.34495 0.07026 0.46239 0.0
O361 O 0.38316 0.04327 0.43947 0.0
O362 O 0.39826 0.07907 0.44739 0.0
H363 H 0.40945 0.96541 0.41166 0.0
H364 H 0.35738 0.10064 0.56594 0.0
O365 O 0.40154 0.0974 0.57751 0.0
H366 H 0.35249 0.14705 0.42499 0.0
H367 H 0.43404 0.16809 0.52136 0.0
H368 H 0.44178 0.08968 0.4554 0.0
H369 H 0.38567 0.12061 0.43806 0.0
H370 H 0.40544 0.13745 0.5397 0.0
O371 O 0.34224 0.03412 0.4901 0.0
H372 H 0.40883 0.00529 0.44248 0.0
H373 H 0.34505 0.99131 0.51074 0.0
H374 H 0.47057 0.11988 0.43556 0.0
H375 H 0.32405 0.12713 0.55456 0.0
H376 H 0.4668 0.15943 0.46867 0.0
H377 H 0.32141 0.15047 0.48356 0.0
O378 O 0.42533 0.06602 0.52234 0.0
H379 H 0.33566 0.03049 0.65346 0.0
H380 H 0.3984 0.99549 0.56134 0.0
H381 H 0.39173 0.98158 0.63977 0.0
H382 H 0.36016 0.99911 0.68637 0.0
H383 H 0.34306 0.04401 0.57499 0.0
H384 H 0.34483 0.95134 0.48024 0.0
H385 H 0.37726 0.93814 0.43049 0.0
O386 O 0.41171 0.02956 0.51404 0.0
C387 C 0.39204 0.0618 0.42325 0.0
C388 C 0.39525 0.97093 0.43339 0.0
C389 C 0.35897 0.96305 0.47184 0.0
N390 N 0.37701 1.00054 0.47862 0.0
C391 C 0.39485 0.99347 0.45106 0.0
C392 C 0.35915 0.98571 0.4889 0.0
C393 C 0.37718 0.95565 0.44394 0.0
C394 C 0.35648 0.11097 0.53522 0.0
N395 N 0.3735 0.10921 0.50287 0.0
C396 C 0.33753 0.12586 0.52888 0.0
C397 C 0.33604 0.13891 0.48899 0.0
C398 C 0.35346 0.13698 0.45609 0.0
C399 C 0.37217 0.12194 0.46362 0.0
C400 C 0.43579 0.15097 0.5065 0.0
C401 C 0.43985 0.10693 0.46943 0.0
C402 C 0.41965 0.13355 0.51675 0.0
N403 N 0.42167 0.11193 0.49786 0.0
C404 C 0.45629 0.12392 0.45831 0.0
C405 C 0.45418 0.1461 0.47694 0.0
C406 C 0.42827 0.04406 0.52139 0.0
C407 C 0.34943 0.02267 0.63344 0.0
C408 C 0.38465 0.00323 0.58144 0.0
C409 C 0.38093 0.99525 0.62579 0.0
C410 C 0.3632 0.00508 0.65191 0.0
N411 N 0.37105 0.02047 0.56356 0.0
C412 C 0.35363 0.03019 0.58893 0.0
Co413 Co 0.92838 0.90864 0.7716 0.0
Co414 Co 0.98186 0.88042 0.77062 0.0
O415 O 0.94897 0.88271 0.78823 0.0
C416 C 0.92834 0.9091 0.87111 0.0
O417 O 0.95069 0.9044 0.86882 0.0
C418 C 0.96201 0.83687 0.73116 0.0
O419 O 0.94358 0.84864 0.71807 0.0
O420 O 0.97446 0.88866 0.70618 0.0
O421 O 0.94025 0.90775 0.70868 0.0
H422 H 0.05561 0.90782 0.69542 0.0
H423 H 0.9085 0.86741 0.81798 0.0
O424 O 0.91618 0.91053 0.83502 0.0
H425 H 0.86885 0.87121 0.66902 0.0
H426 H 0.85242 0.95251 0.77088 0.0
H427 H 0.93375 0.9515 0.71646 0.0
H428 H 0.89794 0.90081 0.69058 0.0
H429 H 0.8788 0.92039 0.79192 0.0
O430 O 0.97799 0.84676 0.75438 0.0
H431 H 0.01428 0.91034 0.71828 0.0
H432 H 0.01929 0.84521 0.78565 0.0
H433 H 0.90793 0.98379 0.69413 0.0
H434 H 0.87935 0.83753 0.79795 0.0
H435 H 0.86692 0.98443 0.72141 0.0
H436 H 0.85937 0.83929 0.72293 0.0
O437 O 0.9524 0.93233 0.78753 0.0
H438 H 0.96955 0.83688 0.91695 0.0
H439 H 0.01741 0.89583 0.83866 0.0
H440 H 0.02554 0.88645 0.91913 0.0
H441 H 1.00148 0.85678 0.95882 0.0
H442 H 0.96189 0.84702 0.83661 0.0
H443 H 0.0606 0.84187 0.76314 0.0
H444 H 0.07905 0.87337 0.71785 0.0
O445 O 0.98692 0.91389 0.78607 0.0
C446 C 0.95779 0.89974 0.68737 0.0
C447 C 0.04779 0.894 0.71525 0.0
C448 C 0.05058 0.85697 0.7532 0.0
N449 N 0.01444 0.87802 0.75349 0.0
C450 C 0.02442 0.89537 0.72839 0.0
C451 C 0.02717 0.85894 0.76574 0.0
C452 C 0.06092 0.87466 0.72781 0.0
C453 C 0.89969 0.8684 0.78547 0.0
N454 N 0.9048 0.8859 0.75563 0.0
C455 C 0.88328 0.85139 0.77424 0.0
C456 C 0.8721 0.85237 0.73211 0.0
C457 C 0.87741 0.87027 0.70183 0.0
C458 C 0.89393 0.88696 0.7142 0.0
C459 C 0.87023 0.95239 0.75865 0.0
C460 C 0.91588 0.95155 0.72811 0.0
C461 C 0.88525 0.93427 0.7705 0.0
N462 N 0.90771 0.93393 0.75494 0.0
C463 C 0.90136 0.96993 0.71552 0.0
C464 C 0.87837 0.97029 0.73088 0.0
C465 C 0.97453 0.93209 0.79141 0.0
C466 C 0.98015 0.84984 0.90004 0.0
C467 C 0.00679 0.88303 0.8558 0.0
C468 C 0.01153 0.8777 0.9013 0.0
C469 C 0.99805 0.86103 0.92353 0.0
N470 N 0.98912 0.87207 0.83308 0.0
C471 C 0.97594 0.85559 0.85453 0.0
Co472 Co 0.60787 0.57451 0.78354 0.0
Co473 Co 0.62973 0.52788 0.84374 0.0
O474 O 0.63258 0.55253 0.79826 0.0
C475 C 0.61633 0.55708 0.68952 0.0
O476 O 0.60958 0.53624 0.70203 0.0
C477 C 0.6696 0.55567 0.87474 0.0
O478 O 0.65537 0.57329 0.86917 0.0
O479 O 0.61688 0.54974 0.88973 0.0
O480 O 0.59768 0.57633 0.84823 0.0
H481 H 0.58934 0.48116 0.96501 0.0
H482 H 0.6563 0.58432 0.75379 0.0
O483 O 0.61746 0.57364 0.71813 0.0
H484 H 0.63447 0.65018 0.85244 0.0
H485 H 0.57377 0.64329 0.70106 0.0
H486 H 0.55812 0.57965 0.80938 0.0
H487 H 0.60636 0.61875 0.83661 0.0
H488 H 0.60492 0.61584 0.72245 0.0
O489 O 0.66243 0.53516 0.86574 0.0
H490 H 0.59266 0.51205 0.9071 0.0
H491 H 0.66213 0.49136 0.87773 0.0
H492 H 0.52653 0.60684 0.78927 0.0
H493 H 0.68488 0.6155 0.76841 0.0
H494 H 0.53427 0.63894 0.73471 0.0
H495 H 0.67406 0.64867 0.81823 0.0
O496 O 0.58548 0.54861 0.77377 0.0
H497 H 0.68604 0.50152 0.72327 0.0
H498 H 0.6152 0.48125 0.80987 0.0
H499 H 0.63019 0.45399 0.75199 0.0
H500 H 0.6659 0.46405 0.70832 0.0
H501 H 0.67032 0.52835 0.7812 0.0
H502 H 0.65964 0.46034 0.93562 0.0
H503 H 0.62301 0.45505 0.97959 0.0
O504 O 0.59694 0.52067 0.82295 0.0
C505 C 0.60311 0.56701 0.88608 0.0
C506 C 0.60537 0.48324 0.94597 0.0
C507 C 0.64484 0.47158 0.92951 0.0
N508 N 0.62749 0.50335 0.88881 0.0
C509 C 0.60732 0.50065 0.91303 0.0
C510 C 0.64616 0.48919 0.89685 0.0
C511 C 0.62428 0.46861 0.95416 0.0
C512 C 0.65137 0.59884 0.77507 0.0
N513 N 0.62965 0.59976 0.79413 0.0
C514 C 0.66766 0.61638 0.7834 0.0
C515 C 0.66159 0.63497 0.81142 0.0
C516 C 0.63939 0.63582 0.83065 0.0
C517 C 0.62355 0.61795 0.82162 0.0
C518 C 0.5702 0.62942 0.72499 0.0
C519 C 0.56168 0.59369 0.78592 0.0
C520 C 0.58776 0.61381 0.73719 0.0
N521 N 0.58341 0.59631 0.76755 0.0
C522 C 0.54369 0.60898 0.77453 0.0
C523 C 0.54804 0.62697 0.74388 0.0
C524 C 0.58241 0.52936 0.79452 0.0
C525 C 0.6705 0.49691 0.74216 0.0
C526 C 0.6307 0.48577 0.79088 0.0
C527 C 0.63913 0.47025 0.75823 0.0
C528 C 0.65918 0.4759 0.73376 0.0
N529 N 0.64196 0.50629 0.79904 0.0
C530 C 0.66157 0.512 0.7751 0.0
Co531 Co 0.42841 0.11436 0.01357 0.0
Co532 Co 0.48134 0.12287 0.06805 0.0
O533 O 0.45614 0.13296 0.02755 0.0
C534 C 0.44907 0.12311 0.92328 0.0
O535 O 0.4699 0.12108 0.94134 0.0
C536 C 0.46467 0.16692 0.10954 0.0
O537 O 0.44329 0.16003 0.10101 0.0
O538 O 0.45875 0.11218 0.115 0.0
O539 O 0.42509 0.10516 0.07831 0.0
H540 H 0.52263 0.0671 0.17213 0.0
H541 H 0.43068 0.16334 0.98304 0.0
O542 O 0.43087 0.12239 0.94791 0.0
H543 H 0.36264 0.15922 0.08549 0.0
H544 H 0.35223 0.09826 0.93421 0.0
H545 H 0.41143 0.06758 0.0402 0.0
H546 H 0.38584 0.12414 0.06884 0.0
H547 H 0.38668 0.12174 0.9546 0.0
O548 O 0.48196 0.15432 0.09781 0.0
H549 H 0.49111 0.08007 0.12093 0.0
H550 H 0.52518 0.1449 0.10178 0.0
H551 H 0.37709 0.04363 0.0212 0.0
H552 H 0.40788 0.19883 -0.00148 0.0
H553 H 0.34721 0.05894 0.96776 0.0
H554 H 0.37365 0.19691 0.05023 0.0
O555 O 0.44763 0.08624 0.00187 0.0
H556 H 0.51475 0.17967 0.95561 0.0
H557 H 0.52311 0.10178 0.02378 0.0
H558 H 0.55096 0.11455 0.96484 0.0
H559 H 0.5469 0.15378 0.93041 0.0
H560 H 0.48714 0.16609 0.01437 0.0
H561 H 0.55695 0.13274 0.15322 0.0
H562 H 0.55584 0.09354 0.18862 0.0
O563 O 0.4813 0.09121 0.03978 0.0
C564 C 0.43766 0.10516 0.11399 0.0
C565 C 0.52334 0.0842 0.15682 0.0
C566 C 0.54259 0.12105 0.14624 0.0
N567 N 0.5064 0.11314 0.10811 0.0
C568 C 0.50559 0.09161 0.12768 0.0
C569 C 0.52453 0.12786 0.11724 0.0
C570 C 0.54196 0.09905 0.16608 0.0
C571 C 0.41565 0.16234 0.00519 0.0
N572 N 0.40953 0.1417 0.02485 0.0
C573 C 0.40288 0.1825 0.01399 0.0
C574 C 0.38369 0.18141 0.04306 0.0
C575 C 0.37752 0.16028 0.06288 0.0
C576 C 0.39073 0.14048 0.05339 0.0
C577 C 0.36506 0.09144 0.95771 0.0
C578 C 0.39835 0.07448 0.01738 0.0
C579 C 0.38461 0.10465 0.96938 0.0
N580 N 0.40089 0.09616 -0.00092 0.0
C581 C 0.379 0.06079 0.00656 0.0
C582 C 0.36226 0.06938 0.97653 0.0
C583 C 0.46761 0.07915 0.01493 0.0
C584 C 0.51674 0.16256 0.97045 0.0
C585 C 0.52117 0.11884 0.00883 0.0
C586 C 0.53703 0.126 0.97556 0.0
C587 C 0.53475 0.14801 0.95628 0.0
N588 N 0.50358 0.13323 0.02261 0.0
C589 C 0.50122 0.15483 0.00385 0.0
Co590 Co 0.90002 0.91898 0.27917 0.0
Co591 Co 0.87439 0.96592 0.33366 0.0
O592 O 0.87408 0.9404 0.2897 0.0
C593 C 0.89112 0.94032 0.18945 0.0
O594 O 0.88664 0.9601 0.20987 0.0
C595 C 0.83529 0.93581 0.36318 0.0
O596 O 0.84957 0.91828 0.357 0.0
O597 O 0.8891 0.94599 0.38126 0.0
O598 O 0.90504 0.91544 0.34526 0.0
H599 H 0.91012 0.01732 0.45315 0.0
H600 H 0.85435 0.91045 0.23489 0.0
O601 O 0.89605 0.9222 0.21225 0.0
H602 H 0.8689 0.84143 0.33032 0.0
H603 H 0.94065 0.85323 0.19858 0.0
H604 H 0.947 0.91234 0.31964 0.0
H605 H 0.89776 0.87318 0.32655 0.0
H606 H 0.90798 0.87991 0.21424 0.0
O607 O 0.84239 0.95649 0.35585 0.0
H608 H 0.9097 0.98568 0.39645 0.0
H609 H 0.8389 1.00023 0.36501 0.0
H610 H 0.98001 0.88589 0.30536 0.0
H611 H 0.82507 0.87904 0.23744 0.0
H612 H 0.97696 0.85607 0.24442 0.0
H613 H 0.83224 0.84425 0.28555 0.0
O614 O 0.92313 0.94489 0.27829 0.0
H615 H 0.81637 0.98502 0.21092 0.0
H616 H 0.88454 0.01321 0.29728 0.0
H617 H 0.8674 0.03797 0.2374 0.0
H618 H 0.83303 0.02391 0.19381 0.0
H619 H 0.83422 0.96074 0.27077 0.0
H620 H 0.83852 0.03199 0.42149 0.0
H621 H 0.87434 0.04074 0.46594 0.0
O622 O 0.90618 0.97569 0.31226 0.0
C623 C 0.90077 0.92711 0.38102 0.0
C624 C 0.89444 0.01375 0.43386 0.0
C625 C 0.85423 0.02195 0.41614 0.0
N626 N 0.87436 0.99125 0.37721 0.0
C627 C 0.89411 0.9959 0.40162 0.0
C628 C 0.85454 0.00393 0.38426 0.0
C629 C 0.87434 0.02686 0.44106 0.0
C630 C 0.85769 0.89526 0.25553 0.0
N631 N 0.87779 0.89358 0.28033 0.0
C632 C 0.84101 0.87757 0.25699 0.0
C633 C 0.84503 0.85808 0.28405 0.0
C634 C 0.86559 0.85648 0.30919 0.0
C635 C 0.88185 0.87453 0.30697 0.0
C636 C 0.94217 0.86611 0.2253 0.0
C637 C 0.94547 0.89931 0.29327 0.0
C638 C 0.92374 0.88129 0.23429 0.0
N639 N 0.92552 0.89757 0.26804 0.0
C640 C 0.96425 0.88442 0.28526 0.0
C641 C 0.96254 0.86771 0.25104 0.0
C642 C 0.92339 0.96586 0.2924 0.0
C643 C 0.8313 0.99137 0.22976 0.0
C644 C 0.86964 0.00695 0.27834 0.0
C645 C 0.85997 0.02107 0.24456 0.0
C646 C 0.84068 0.01317 0.22014 0.0
N647 N 0.86032 0.9856 0.28761 0.0
C648 C 0.84141 0.97774 0.26382 0.0
Co649 Co 0.08066 0.39445 0.51648 0.0
Co650 Co 0.0309 0.37766 0.57482 0.0
O651 O 0.05597 0.37223 0.53076 0.0
C652 C 0.05836 0.38586 0.4273 0.0
O653 O 0.03798 0.38471 0.4475 0.0
C654 C 0.05732 0.33828 0.61168 0.0
O655 O 0.07561 0.35103 0.60194 0.0
O656 O 0.05265 0.39188 0.61968 0.0
O657 O 0.08507 0.40197 0.5817 0.0
H658 H 0.9843 0.42426 0.68734 0.0
H659 H 0.0834 0.34659 0.4799 0.0
O660 O 0.07699 0.38822 0.4503 0.0
H661 H 0.15401 0.35635 0.57395 0.0
H662 H 0.15125 0.42283 0.4309 0.0
H663 H 0.09277 0.44192 0.54825 0.0
H664 H 0.12605 0.38858 0.56491 0.0
H665 H 0.12074 0.39454 0.45168 0.0
O666 O 0.03698 0.34601 0.60257 0.0
H667 H 0.01567 0.41759 0.63143 0.0
H668 H 0.99286 0.34803 0.61235 0.0
H669 H 0.12316 0.47061 0.52891 0.0
H670 H 0.11099 0.31393 0.48774 0.0
H671 H 0.15266 0.46115 0.46978 0.0
H672 H 0.14654 0.31869 0.5352 0.0
O673 O 0.05764 0.42003 0.5114 0.0
H674 H 0.00381 0.31714 0.4633 0.0
H675 H 0.98502 0.39198 0.53645 0.0
H676 H 0.9578 0.37535 0.48005 0.0
H677 H 0.96712 0.33764 0.44313 0.0
H678 H 0.03063 0.33451 0.51959 0.0
H679 H 0.96132 0.35388 0.6684 0.0
H680 H 0.95685 0.39225 0.70618 0.0
O681 O 0.02497 0.40943 0.54864 0.0
C682 C 0.07293 0.40094 0.61784 0.0
C683 C 0.986 0.40749 0.67098 0.0
C684 C 0.97313 0.36798 0.66039 0.0
N685 N 0.00593 0.38252 0.61832 0.0
C686 C 1.00368 0.40364 0.63916 0.0
C687 C 0.99103 0.36475 0.62874 0.0
C688 C 0.97063 0.38952 0.68157 0.0
C689 C 0.09897 0.34885 0.5002 0.0
N690 N 0.10319 0.36948 0.52169 0.0
C691 C 0.11447 0.33028 0.50468 0.0
C692 C 0.1344 0.33295 0.53137 0.0
C693 C 0.1386 0.35407 0.55314 0.0
C694 C 0.12269 0.37225 0.54793 0.0
C695 C 0.13856 0.42713 0.45685 0.0
C696 C 0.10569 0.43758 0.52282 0.0
C697 C 0.12122 0.41118 0.46874 0.0
N698 N 0.10513 0.41648 0.5015 0.0
C699 C 0.1228 0.45393 0.51188 0.0
C700 C 0.13933 0.44863 0.47867 0.0
C701 C 0.037 0.42404 0.5256 0.0
C702 C 0.99952 0.33355 0.47925 0.0
C703 C 0.98922 0.3756 0.52041 0.0
C704 C 0.97372 0.36624 0.48858 0.0
C705 C 0.97895 0.34507 0.46791 0.0
N706 N 0.00931 0.36415 0.53143 0.0
C707 C 0.01459 0.34341 0.51127 0.0
Co708 Co 0.59881 0.91635 0.51963 0.0
Co709 Co 0.63213 0.96523 0.49542 0.0
O710 O 0.6273 0.93503 0.5246 0.0
C711 C 0.60469 0.92531 0.61753 0.0
O712 O 0.61155 0.94632 0.60655 0.0
C713 C 0.67009 0.93571 0.45864 0.0
O714 O 0.65432 0.91932 0.45409 0.0
O715 O 0.61883 0.95382 0.43681 0.0
O716 O 0.59779 0.92182 0.45294 0.0
H717 H 0.6089 0.03454 0.4017 0.0
H718 H 0.64034 0.89703 0.56632 0.0
O719 O 0.59897 0.91073 0.58692 0.0
H720 H 0.62498 0.84412 0.43755 0.0
H721 H 0.54708 0.84811 0.55616 0.0
H722 H 0.55455 0.92068 0.46796 0.0
H723 H 0.59941 0.8778 0.45174 0.0
H724 H 0.58282 0.87187 0.56144 0.0
O725 O 0.66428 0.95539 0.47505 0.0
H726 H 0.60293 0.99661 0.4391 0.0
H727 H 0.67236 0.99796 0.48953 0.0
H728 H 0.51862 0.89736 0.46136 0.0
H729 H 0.66627 0.86345 0.55361 0.0
H730 H 0.51471 0.86079 0.5057 0.0
H731 H 0.65869 0.83677 0.48873 0.0
O732 O 0.57846 0.94397 0.52917 0.0
H733 H 0.68337 0.96097 0.63404 0.0
H734 H 0.62414 0.00724 0.5528 0.0
H735 H 0.63954 0.0213 0.62631 0.0
H736 H 0.66939 0.9981 0.66741 0.0
H737 H 0.66735 0.94748 0.56062 0.0
H738 H 0.67915 0.03581 0.45234 0.0
H739 H 0.64724 0.05439 0.40819 0.0
O740 O 0.60025 0.97564 0.51462 0.0
C741 C 0.60556 0.93699 0.42523 0.0
C742 C 0.62291 0.02666 0.42096 0.0
C743 C 0.66235 0.02735 0.44932 0.0
N744 N 0.63722 0.99516 0.46671 0.0
C745 C 0.61961 0.00522 0.44232 0.0
C746 C 0.65842 0.00589 0.47022 0.0
C747 C 0.64444 0.03777 0.42457 0.0
C748 C 0.63681 0.88536 0.5383 0.0
N749 N 0.61833 0.8893 0.50994 0.0
C750 C 0.6516 0.86643 0.53115 0.0
C751 C 0.64736 0.85149 0.4947 0.0
C752 C 0.62845 0.85561 0.46596 0.0
C753 C 0.61406 0.87473 0.47411 0.0
C754 C 0.54859 0.86399 0.53663 0.0
C755 C 0.55305 0.90471 0.48715 0.0
C756 C 0.56876 0.87754 0.53956 0.0
N757 N 0.57082 0.89757 0.51484 0.0
C758 C 0.53263 0.89161 0.48337 0.0
C759 C 0.53044 0.87111 0.50829 0.0
C760 C 0.58101 0.96591 0.52561 0.0
C761 C 0.67042 0.97127 0.61639 0.0
C762 C 0.63708 0.99703 0.57056 0.0
C763 C 0.64577 0.0051 0.61211 0.0
C764 C 0.66254 0.99208 0.63513 0.0
N765 N 0.64491 0.97661 0.55239 0.0
C766 C 0.66136 0.96376 0.57472 0.0
Co767 Co 0.09047 0.11402 0.78658 0.0
Co768 Co 0.0354 0.1376 0.77149 0.0
O769 O 0.06683 0.13769 0.79777 0.0
C770 C 0.0848 0.11155 0.88594 0.0
O771 O 0.06218 0.11123 0.87906 0.0
C772 C 0.05836 0.17926 0.73576 0.0
O773 O 0.07588 0.16515 0.72845 0.0
O774 O 0.047 0.12819 0.7104 0.0
O775 O 0.08272 0.11312 0.72073 0.0
H776 H 0.96806 0.10477 0.68272 0.0
H777 H 0.10385 0.15706 0.83539 0.0
O778 O 0.0988 0.11391 0.85265 0.0
H779 H 0.15308 0.15539 0.69767 0.0
H780 H 0.1692 0.07664 0.80639 0.0
H781 H 0.09206 0.0703 0.73317 0.0
H782 H 0.12516 0.12373 0.71319 0.0
H783 H 0.13921 0.10667 0.81909 0.0
O784 O 0.03957 0.17138 0.75339 0.0
H785 H 0.00771 0.10475 0.71534 0.0
H786 H 0.99626 0.17155 0.7726 0.0
H787 H 0.12162 0.04004 0.71906 0.0
H788 H 0.13173 0.18897 0.82145 0.0
H789 H 0.16053 0.04311 0.75583 0.0
H790 H 0.15652 0.18828 0.75208 0.0
O791 O 0.06743 0.08901 0.79776 0.0
H792 H 0.03436 0.1853 0.91486 0.0
H793 H 0.99728 0.12057 0.83181 0.0
H794 H 0.98273 0.13133 0.90805 0.0
H795 H 1.00129 0.16395 0.95005 0.0
H796 H 0.04848 0.17381 0.8387 0.0
H797 H 0.95656 0.17243 0.74015 0.0
H798 H 0.94219 0.13881 0.69503 0.0
O799 O 0.03132 0.10379 0.78819 0.0
C800 C 0.06551 0.1186 0.69558 0.0
C801 C 0.97409 0.11949 0.70244 0.0
C802 C 0.96764 0.15748 0.73463 0.0
N803 N 0.00418 0.13803 0.74617 0.0
C804 C 0.99649 0.11954 0.72114 0.0
C805 C 0.99015 0.15691 0.75282 0.0
C806 C 0.95959 0.13861 0.70933 0.0
C807 C 0.11477 0.15654 0.8054 0.0
N808 N 0.113 0.13851 0.77531 0.0
C809 C 0.13045 0.17468 0.79759 0.0
C810 C 0.14434 0.1743 0.75862 0.0
C811 C 0.1424 0.15586 0.72805 0.0
C812 C 0.12652 0.13802 0.73697 0.0
C813 C 0.15235 0.07516 0.79003 0.0
C814 C 0.10902 0.07187 0.74893 0.0
C815 C 0.13529 0.09209 0.79713 0.0
N816 N 0.11403 0.09041 0.77633 0.0
C817 C 0.12565 0.05463 0.74098 0.0
C818 C 0.14747 0.05635 0.76166 0.0
C819 C 0.04526 0.087 0.79717 0.0
C820 C 0.02609 0.1711 0.89684 0.0
C821 C 0.00548 0.13474 0.84995 0.0
C822 C 0.99714 0.14078 0.89305 0.0
C823 C 0.00755 0.15909 0.91659 0.0
N824 N 0.02362 0.14665 0.83077 0.0
C825 C 0.03395 0.16458 0.85365 0.0
Co826 Co 0.8947 0.58906 0.05599 0.0
Co827 Co 0.87807 0.53947 -0.0025 0.0
O828 O 0.87412 0.56258 0.04568 0.0
C829 C 0.89829 0.56316 0.14216 0.0
O830 O 0.90053 0.54425 0.11754 0.0
C831 C 0.83368 0.56278 0.97761 0.0
O832 O 0.8456 0.58181 0.9855 0.0
O833 O 0.88642 0.56352 0.95157 0.0
O834 O 0.89613 0.59599 0.98958 0.0
H835 H 0.91894 0.50072 0.86655 0.0
H836 H 0.85053 0.58543 0.10784 0.0
O837 O 0.89439 0.58263 0.12302 0.0
H838 H 0.84461 0.65867 0.02137 0.0
H839 H 0.92221 0.6599 0.14112 0.0
H840 H 0.93747 0.60739 0.01172 0.0
H841 H 0.88 0.63445 0.01624 0.0
H842 H 0.89608 0.62677 0.12554 0.0
O843 O 0.8439 0.54311 0.98063 0.0
H844 H 0.91426 0.52963 0.92794 0.0
H845 H 0.8491 0.49991 0.9646 0.0
H846 H 0.96392 0.64043 0.02579 0.0
H847 H 0.81487 0.60919 0.11422 0.0
H848 H 0.95636 0.66696 0.0909 0.0
H849 H 0.81173 0.64605 0.07061 0.0
O850 O 0.92277 0.5691 0.04934 0.0
H851 H 0.83022 0.50393 0.12287 0.0
H852 H 0.89944 0.49446 0.02495 0.0
H853 H 0.89023 0.46446 0.08226 0.0
H854 H 0.85536 0.46907 0.13162 0.0
H855 H 0.84021 0.53361 0.0654 0.0
H856 H 0.853 0.47074 0.90343 0.0
H857 H 0.88817 0.471 0.854 0.0
O858 O 0.91219 0.53612 0.01331 0.0
C859 C 0.89338 0.58456 0.9528 0.0
C860 C 0.90359 0.50037 0.88798 0.0
C861 C 0.86656 0.48356 0.90863 0.0
N862 N 0.88152 0.51631 0.95003 0.0
C863 C 0.90088 0.51664 0.92288 0.0
C864 C 0.86442 0.50014 0.94316 0.0
C865 C 0.8863 0.48372 0.88092 0.0
C866 C 0.84937 0.60158 0.08917 0.0
N867 N 0.86735 0.60862 0.06192 0.0
C868 C 0.82911 0.6149 0.09275 0.0
C869 C 0.82734 0.63557 0.06823 0.0
C870 C 0.84578 0.64265 0.04057 0.0
C871 C 0.86576 0.62886 0.03776 0.0
C872 C 0.92564 0.64852 0.11253 0.0
C873 C 0.93393 0.61899 0.03985 0.0
C874 C 0.91092 0.62972 0.10356 0.0
N875 N 0.91508 0.61534 0.06739 0.0
C876 C 0.94903 0.63761 0.04777 0.0
C877 C 0.9448 0.65247 0.08434 0.0
C878 C 0.92747 0.54923 0.03224 0.0
C879 C 0.84542 0.50169 0.10147 0.0
C880 C 0.88428 0.49661 0.04642 0.0
C881 C 0.87913 0.47955 0.07873 0.0
C882 C 0.85955 0.48215 0.1064 0.0
N883 N 0.87029 0.51568 0.0417 0.0
C884 C 0.85111 0.51839 0.06877 0.0
Co885 Co 0.43682 0.39589 0.28716 0.0
Co886 Co 0.48984 0.36788 0.2754 0.0
O887 O 0.45842 0.3705 0.30085 0.0
C888 C 0.43968 0.40045 0.38741 0.0
O889 O 0.46236 0.40284 0.38353 0.0
C890 C 0.46843 0.32346 0.24491 0.0
O891 O 0.45012 0.3354 0.23172 0.0
O892 O 0.47824 0.37397 0.21242 0.0
O893 O 0.44584 0.3953 0.22216 0.0
H894 H 0.55782 0.39307 0.17932 0.0
H895 H 0.4198 0.35409 0.33607 0.0
O896 O 0.42705 0.39694 0.35244 0.0
H897 H 0.37353 0.35776 0.19457 0.0
H898 H 0.36049 0.43866 0.29955 0.0
H899 H 0.43903 0.43877 0.2312 0.0
H900 H 0.40297 0.38779 0.21155 0.0
H901 H 0.38814 0.40689 0.3158 0.0
O902 O 0.48529 0.33368 0.26498 0.0
H903 H 0.51827 0.39617 0.21181 0.0
H904 H 0.52832 0.33337 0.28526 0.0
H905 H 0.41189 0.47075 0.2137 0.0
H906 H 0.39037 0.3238 0.3206 0.0
H907 H 0.37228 0.47083 0.24799 0.0
H908 H 0.36705 0.32549 0.24934 0.0
O909 O 0.46127 0.4199 0.29866 0.0
H910 H 0.48816 0.32927 0.42882 0.0
H911 H 0.52919 0.38604 0.33182 0.0
H912 H 0.54298 0.37925 0.41031 0.0
H913 H 0.52242 0.35064 0.45937 0.0
H914 H 0.47486 0.3368 0.35022 0.0
H915 H 0.56789 0.32946 0.25321 0.0
H916 H 0.58291 0.35951 0.19998 0.0
O917 O 0.49531 0.40187 0.28482 0.0
C918 C 0.46125 0.38592 0.19706 0.0
C919 C 0.55149 0.37989 0.20257 0.0
C920 C 0.55713 0.34417 0.24399 0.0
N921 N 0.52106 0.36505 0.25061 0.0
C922 C 0.52914 0.38159 0.22117 0.0
C923 C 0.53469 0.34645 0.26193 0.0
C924 C 0.56555 0.36105 0.21414 0.0
C925 C 0.40956 0.35506 0.3052 0.0
N926 N 0.41301 0.37275 0.2749 0.0
C927 C 0.39299 0.33781 0.29654 0.0
C928 C 0.37993 0.33875 0.25652 0.0
C929 C 0.38356 0.35685 0.22576 0.0
C930 C 0.40029 0.37378 0.23553 0.0
C931 C 0.37768 0.43879 0.28432 0.0
C932 C 0.42178 0.43859 0.24601 0.0
C933 C 0.39342 0.42087 0.29346 0.0
N934 N 0.4151 0.42086 0.2741 0.0
C935 C 0.40651 0.45679 0.23609 0.0
C936 C 0.3843 0.45683 0.25537 0.0
C937 C 0.48341 0.41998 0.29429 0.0
C938 C 0.49728 0.34177 0.40777 0.0
C939 C 0.52008 0.3737 0.35306 0.0
C940 C 0.52801 0.36985 0.39741 0.0
C941 C 0.51648 0.35378 0.42491 0.0
N942 N 0.50123 0.36186 0.3365 0.0
C943 C 0.48986 0.34606 0.36322 0.0
H944 H 0.30088 0.01823 0.44461 0.0
H945 H 0.30616 0.08991 0.48928 0.0
H946 H 0.26422 0.09533 0.47561 0.0
H947 H 0.26209 0.02971 0.35311 0.0
H948 H 0.24502 0.00357 0.35911 0.0
H949 H 0.27503 0.00395 0.37725 0.0
H950 H 0.26264 0.99056 0.45789 0.0
H951 H 0.23257 0.99004 0.43993 0.0
H952 H 0.24108 0.00701 0.48881 0.0
H953 H 0.22325 0.09447 0.45295 0.0
H954 H 0.18441 0.08778 0.42097 0.0
H955 H 0.20363 0.01674 0.38744 0.0
C956 C 0.29298 0.03485 0.45241 0.0
C957 C 0.30671 0.05364 0.46846 0.0
C958 C 0.29597 0.07532 0.47713 0.0
C959 C 0.27213 0.07855 0.46959 0.0
C960 C 0.25914 0.05997 0.45291 0.0
C961 C 0.26902 0.03852 0.44427 0.0
C962 C 0.25108 0.02219 0.42313 0.0
C963 C 0.25877 0.0144 0.37531 0.0
C964 C 0.24658 1.0012 0.45431 0.0
C965 C 0.2298 0.03799 0.42079 0.0
C966 C 0.23501 0.0596 0.43866 0.0
C967 C 0.21887 0.07758 0.43916 0.0
C968 C 0.19679 0.07357 0.42067 0.0
C969 C 0.19081 0.05171 0.4016 0.0
C970 C 0.20756 0.03356 0.40209 0.0
H971 H 0.92993 0.806 0.69449 0.0
H972 H 1.00309 0.81321 0.73044 0.0
H973 H 0.01093 0.77428 0.69979 0.0
H974 H 0.92586 0.74456 0.72406 0.0
H975 H 0.90633 0.73762 0.67787 0.0
H976 H 0.90617 0.76633 0.70239 0.0
H977 H 0.91351 0.78408 0.62257 0.0
H978 H 0.91386 0.75542 0.59786 0.0
H979 H 0.93836 0.77463 0.58984 0.0
H980 H 0.01171 0.73578 0.66261 0.0
H981 H 0.00471 0.69768 0.62748 0.0
H982 H 0.93071 0.7132 0.61823 0.0
C983 C 0.94756 0.79931 0.69604 0.0
C984 C 0.96588 0.81276 0.7149 0.0
C985 C 0.9887 0.80331 0.71648 0.0
C986 C 0.9934 0.7812 0.69891 0.0
C987 C 0.97508 0.76852 0.68024 0.0
C988 C 0.95255 0.77698 0.67918 0.0
C989 C 0.93608 0.75927 0.65808 0.0
C990 C 0.91751 0.75148 0.69267 0.0
C991 C 0.92479 0.76893 0.6145 0.0
C992 C 0.95297 0.73969 0.64726 0.0
C993 C 0.97539 0.74562 0.65999 0.0
C994 C 0.99421 0.73084 0.65274 0.0
C995 C 0.99004 0.70923 0.63248 0.0
C996 C 0.96715 0.70235 0.62005 0.0
C997 C 0.94838 0.7179 0.62749 0.0
H998 H 0.3067 0.47025 0.90726 0.0
H999 H 0.31459 0.39586 0.88711 0.0
H1000 H 0.27409 0.38977 0.91171 0.0
H1001 H 0.27023 0.46614 0.00852 0.0
H1002 H 0.2521 0.49051 0.99327 0.0
H1003 H 0.28198 0.48941 0.97436 0.0
H1004 H 0.26843 0.49404 0.89068 0.0
H1005 H 0.23853 0.49523 0.90935 0.0
H1006 H 0.24733 0.47399 0.86762 0.0
H1007 H 0.23268 0.39132 0.9359 0.0
H1008 H 0.19247 0.40053 0.95918 0.0
H1009 H 0.21047 0.47374 0.96649 0.0
C1010 C 0.29989 0.45269 0.90811 0.0
C1011 C 0.31396 0.43353 0.89528 0.0
C1012 C 0.30433 0.41084 0.89692 0.0
C1013 C 0.28127 0.40716 0.91085 0.0
C1014 C 0.26792 0.42631 0.92338 0.0
C1015 C 0.27679 0.44864 0.92232 0.0
C1016 C 0.25842 0.46607 0.93744 0.0
C1017 C 0.26615 0.47878 0.98099 0.0
C1018 C 0.25285 0.48335 0.89897 0.0
C1019 C 0.23789 0.45002 0.94675 0.0
C1020 C 0.24385 0.42716 0.9383 0.0
C1021 C 0.22782 0.40913 0.9429 0.0
C1022 C 0.20498 0.41455 0.95609 0.0
C1023 C 0.1983 0.43782 0.96489 0.0
C1024 C 0.21512 0.45576 0.96057 0.0
H1025 H 0.56697 0.80075 0.13464 0.0
H1026 H 0.49223 0.81134 0.12315 0.0
H1027 H 0.4853 0.7732 0.15898 0.0
H1028 H 0.56579 0.73999 0.10721 0.0
H1029 H 0.58879 0.73237 0.14634 0.0
H1030 H 0.58793 0.76101 0.12167 0.0
H1031 H 0.58831 0.77913 0.20248 0.0
H1032 H 0.58905 0.75052 0.22739 0.0
H1033 H 0.56636 0.77062 0.2432 0.0
H1034 H 0.48631 0.73394 0.19629 0.0
H1035 H 0.49529 0.69505 0.22725 0.0
H1036 H 0.5693 0.70914 0.2121 0.0
C1037 C 0.54915 0.79509 0.13991 0.0
C1038 C 0.53014 0.8091 0.12622 0.0
C1039 C 0.50709 0.80092 0.13321 0.0
C1040 C 0.50295 0.77931 0.15376 0.0
C1041 C 0.52203 0.76593 0.16687 0.0
C1042 C 0.54469 0.77338 0.1599 0.0
C1043 C 0.56205 0.75514 0.17542 0.0
C1044 C 0.57702 0.74662 0.13526 0.0
C1045 C 0.57734 0.76441 0.21445 0.0
C1046 C 0.5456 0.73629 0.19202 0.0
C1047 C 0.52261 0.74298 0.18724 0.0
C1048 C 0.50426 0.7285 0.20017 0.0
C1049 C 0.50953 0.70645 0.21786 0.0
C1050 C 0.53297 0.69899 0.22204 0.0
C1051 C 0.55119 0.71428 0.20925 0.0
H1052 H 0.70624 0.52446 0.88707 0.0
H1053 H 0.68734 0.59724 0.90161 0.0
H1054 H 0.72646 0.60592 0.93071 0.0
H1055 H 0.74261 0.52113 0.98858 0.0
H1056 H 0.76422 0.50254 0.96291 0.0
H1057 H 0.73439 0.50139 0.94366 0.0
H1058 H 0.74791 0.50961 0.86105 0.0
H1059 H 0.77777 0.51075 0.88004 0.0
H1060 H 0.76542 0.53496 0.84945 0.0
H1061 H 0.76687 0.60748 0.95775 0.0
H1062 H 0.80772 0.60215 0.97975 0.0
H1063 H 0.80266 0.52851 0.94801 0.0
C1064 C 0.71036 0.54219 0.89651 0.0
C1065 C 0.69355 0.56014 0.8921 0.0
C1066 C 0.69973 0.58313 0.90462 0.0
C1067 C 0.72198 0.58829 0.92131 0.0
C1068 C 0.73806 0.57033 0.92531 0.0
C1069 C 0.73272 0.54775 0.91322 0.0
C1070 C 0.75375 0.53199 0.92036 0.0
C1071 C 0.74842 0.51315 0.956 0.0
C1072 C 0.76168 0.52119 0.87502 0.0
C1073 C 0.77161 0.54934 0.93818 0.0
C1074 C 0.76197 0.5713 0.94079 0.0
C1075 C 0.77467 0.59039 0.95582 0.0
C1076 C 0.79797 0.58713 0.9682 0.0
C1077 C 0.80858 0.56491 0.96551 0.0
C1078 C 0.79509 0.54569 0.95054 0.0
H1079 H 0.43669 0.29537 0.20017 0.0
H1080 H 0.50594 0.29525 0.2603 0.0
H1081 H 0.51188 0.25514 0.23369 0.0
H1082 H 0.42306 0.23445 0.22668 0.0
H1083 H 0.40757 0.22988 0.17398 0.0
H1084 H 0.40819 0.25834 0.19959 0.0
H1085 H 0.42471 0.27548 0.12462 0.0
H1086 H 0.4243 0.24706 0.09893 0.0
H1087 H 0.45106 0.2635 0.10075 0.0
H1088 H 0.51174 0.21631 0.196 0.0
H1089 H 0.50433 0.17987 0.15423 0.0
H1090 H 0.43469 0.20396 0.12041 0.0
C1091 C 0.45298 0.28681 0.20826 0.0
C1092 C 0.47085 0.29857 0.23236 0.0
C1093 C 0.49195 0.28671 0.242 0.0
C1094 C 0.49553 0.26388 0.22695 0.0
C1095 C 0.4778 0.25297 0.2026 0.0
C1096 C 0.45682 0.26388 0.19373 0.0
C1097 C 0.4408 0.24821 0.16622 0.0
C1098 C 0.41859 0.24237 0.19324 0.0
C1099 C 0.43488 0.25923 0.11988 0.0
C1100 C 0.45621 0.22697 0.16054 0.0
C1101 C 0.4775 0.23017 0.1817 0.0
C1102 C 0.49504 0.21348 0.1797 0.0
C1103 C 0.4907 0.19287 0.15569 0.0
C1104 C 0.4689 0.18899 0.13423 0.0
C1105 C 0.45143 0.20631 0.13688 0.0
H1106 H 0.80191 0.96764 0.39019 0.0
H1107 H 0.81308 0.89385 0.36812 0.0
H1108 H 0.77242 0.88599 0.39062 0.0
H1109 H 0.76495 0.96136 0.48954 0.0
H1110 H 0.74618 0.98527 0.47445 0.0
H1111 H 0.77623 0.98527 0.4565 0.0
H1112 H 0.76319 0.9902 0.37256 0.0
H1113 H 0.73311 0.99022 0.39025 0.0
H1114 H 0.74299 0.96966 0.34814 0.0
H1115 H 0.73032 0.88599 0.4138 0.0
H1116 H 0.68989 0.8938 0.43805 0.0
H1117 H 0.70579 0.96745 0.44722 0.0
C1118 C 0.79581 0.94982 0.39012 0.0
C1119 C 0.81079 0.93136 0.37737 0.0
C1120 C 0.80207 0.9083 0.37789 0.0
C1121 C 0.77894 0.90364 0.39056 0.0
C1122 C 0.76467 0.92218 0.40293 0.0
C1123 C 0.77275 0.94481 0.40303 0.0
C1124 C 0.75374 0.96151 0.41807 0.0
C1125 C 0.76069 0.97409 0.46227 0.0
C1126 C 0.74792 0.97892 0.37998 0.0
C1127 C 0.73371 0.94473 0.42616 0.0
C1128 C 0.74041 0.92214 0.41706 0.0
C1129 C 0.7249 0.9036 0.42118 0.0
C1130 C 0.70192 0.90824 0.43491 0.0
C1131 C 0.6946 0.93122 0.44465 0.0
C1132 C 0.71084 0.94966 0.44033 0.0
H1133 H 0.02427 0.30496 0.6356 0.0
H1134 H 0.09869 0.31944 0.63726 0.0
H1135 H 0.10593 0.28171 0.67327 0.0
H1136 H 0.02242 0.27394 0.7447 0.0
H1137 H 1.00154 0.25266 0.72545 0.0
H1138 H 1.00151 0.28146 0.70125 0.0
H1139 H 0.00576 0.26396 0.6204 0.0
H1140 H 0.00571 0.23513 0.64432 0.0
H1141 H 0.02954 0.24438 0.60859 0.0
H1142 H 0.10607 0.24256 0.70571 0.0
H1143 H 0.09909 0.20266 0.73193 0.0
H1144 H 0.02464 0.21175 0.71154 0.0
C1145 C 0.04204 0.3002 0.64383 0.0
C1146 C 0.06089 0.31531 0.63364 0.0
C1147 C 0.08391 0.30833 0.64468 0.0
C1148 C 0.08826 0.28689 0.66532 0.0
C1149 C 0.06944 0.27247 0.67491 0.0
C1150 C 0.04678 0.27865 0.66458 0.0
C1151 C 0.02999 0.25922 0.67741 0.0
C1152 C 0.01285 0.26731 0.71441 0.0
C1153 C 0.01699 0.25014 0.63516 0.0
C1154 C 0.04688 0.24115 0.69594 0.0
C1155 C 0.0695 0.24939 0.69424 0.0
C1156 C 0.08843 0.23592 0.70753 0.0
C1157 C 0.08426 0.21323 0.72232 0.0
C1158 C 0.06133 0.2041 0.72395 0.0
C1159 C 0.04231 0.2184 0.71125 0.0
H1160 H 0.06037 0.99205 0.30888 0.0
H1161 H 0.04487 0.06065 0.25474 0.0
H1162 H 1.00362 0.04997 0.24754 0.0
H1163 H 0.01884 0.96087 0.23444 0.0
H1164 H 0.01091 0.94032 0.27814 0.0
H1165 H 0.03971 0.95291 0.27767 0.0
H1166 H 0.03376 0.96725 0.36053 0.0
H1167 H 0.00493 0.95481 0.36114 0.0
H1168 H 0.00892 0.9852 0.37386 0.0
H1169 H 0.96334 0.03372 0.25362 0.0
H1170 H 0.92718 0.01077 0.26394 0.0
H1171 H 0.96831 0.95162 0.30759 0.0
C1172 C 0.04837 0.00471 0.2949 0.0
C1173 C 0.05607 0.02727 0.28265 0.0
C1174 C 0.03965 0.04327 0.26452 0.0
C1175 C 0.01605 0.0374 0.26031 0.0
C1176 C 0.00898 0.0153 0.27355 0.0
C1177 C 0.02466 0.999 0.28964 0.0
C1178 C 0.01227 0.97644 0.30141 0.0
C1179 C 0.02095 0.95645 0.2711 0.0
C1180 C 0.01515 0.97059 0.35226 0.0
C1181 C 0.98722 0.98284 0.29021 0.0
C1182 C 0.98572 0.00543 0.27461 0.0
C1183 C 0.9643 0.01585 0.26499 0.0
C1184 C 0.94387 0.00277 0.27113 0.0
C1185 C 0.94503 0.97942 0.28589 0.0
C1186 C 0.96701 0.96933 0.29533 0.0
H1187 H 0.96091 0.5376 0.58136 0.0
H1188 H 0.01125 0.57549 0.49976 0.0
H1189 H 0.03018 0.53871 0.47818 0.0
H1190 H 1.00205 0.49644 0.62545 0.0
H1191 H 0.98212 0.4722 0.62509 0.0
H1192 H 0.97114 0.50133 0.63142 0.0
H1193 H 0.94407 0.4951 0.56179 0.0
H1194 H 0.95512 0.46598 0.55508 0.0
H1195 H 0.95647 0.48614 0.50815 0.0
H1196 H 0.04423 0.49874 0.46639 0.0
H1197 H 0.05558 0.45773 0.47114 0.0
H1198 H 0.99766 0.44453 0.56323 0.0
C1199 C 0.97585 0.538 0.55878 0.0
C1200 C 0.98477 0.55934 0.54235 0.0
C1201 C 0.00441 0.55935 0.51322 0.0
C1202 C 0.01512 0.53854 0.50038 0.0
C1203 C 0.0061 0.5178 0.51727 0.0
C1204 C 0.98712 0.51727 0.54628 0.0
C1205 C 0.98218 0.49258 0.562 0.0
C1206 C 0.98452 0.49052 0.61408 0.0
C1207 C 0.95802 0.48448 0.54578 0.0
C1208 C 1.00153 0.47949 0.53767 0.0
C1209 C 0.01479 0.49443 0.51149 0.0
C1210 C 0.03398 0.48682 0.4867 0.0
C1211 C 0.04028 0.4634 0.48968 0.0
C1212 C 0.02761 0.44776 0.5177 0.0
C1213 C 0.00763 0.45591 0.54122 0.0
H1214 H 0.45799 0.47643 0.86071 0.0
H1215 H 0.44723 0.46291 0.71692 0.0
H1216 H 0.48594 0.47981 0.69967 0.0
H1217 H 0.49039 0.5303 0.85008 0.0
H1218 H 0.51027 0.52343 0.89571 0.0
H1219 H 0.4811 0.51178 0.89621 0.0
H1220 H 0.49793 0.47015 0.90266 0.0
H1221 H 0.52716 0.48165 0.90175 0.0
H1222 H 0.51847 0.46006 0.86059 0.0
H1223 H 0.52515 0.4996 0.69797 0.0
H1224 H 0.56354 0.51792 0.71248 0.0
H1225 H 0.55092 0.51443 0.8579 0.0
C1226 C 0.46373 0.47738 0.82559 0.0
C1227 C 0.44957 0.46881 0.78996 0.0
C1228 C 0.45781 0.46964 0.74454 0.0
C1229 C 0.47973 0.47918 0.73447 0.0
C1230 C 0.49343 0.48731 0.77037 0.0
C1231 C 0.48589 0.48624 0.81508 0.0
C1232 C 0.50459 0.49493 0.84748 0.0
C1233 C 0.49608 0.51639 0.87392 0.0
C1234 C 0.5125 0.47554 0.88004 0.0
C1235 C 0.52371 0.50125 0.81398 0.0
C1236 C 0.51678 0.49701 0.76962 0.0
C1237 C 0.53091 0.50266 0.73257 0.0
C1238 C 0.55266 0.513 0.74107 0.0
C1239 C 0.56027 0.51703 0.78622 0.0
C1240 C 0.54569 0.51092 0.8231 0.0
H1241 H 0.54505 0.96436 0.03104 0.0
H1242 H 0.48785 0.92793 0.96608 0.0
H1243 H 0.46796 0.96537 0.95216 0.0
H1244 H 0.51007 0.00291 0.09104 0.0
H1245 H 0.52943 0.02751 0.08673 0.0
H1246 H 0.54103 0.99848 0.08483 0.0
H1247 H 0.56072 0.00733 0.00732 0.0
H1248 H 0.5493 0.0365 0.00909 0.0
H1249 H 0.54335 0.01813 0.9607 0.0
H1250 H 0.45278 0.0061 0.95146 0.0
H1251 H 0.44245 0.04692 0.96658 0.0
H1252 H 0.50881 0.05682 0.03554 0.0
C1253 C 0.52873 0.96438 0.01254 0.0
C1254 C 0.51812 0.94335 -0.00114 0.0
C1255 C 0.49629 0.94391 0.97642 0.0
C1256 C 0.48494 0.96508 0.96827 0.0
C1257 C 0.49555 0.98551 0.98321 0.0
C1258 C 0.51695 0.98535 0.00497 0.0
C1259 C 0.52335 0.00939 0.02205 0.0
C1260 C 0.52612 0.00957 0.07425 0.0
C1261 C 0.5455 0.01837 -0.00164 0.0
C1262 C 0.50203 0.02299 0.00723 0.0
C1263 C 0.48639 0.00896 0.98428 0.0
C1264 C 0.46499 0.01733 0.969 0.0
C1265 C 0.45927 0.04058 0.97785 0.0
C1266 C 0.47479 0.05521 0.00225 0.0
C1267 C 0.49658 0.04624 0.01653 0.0
H1268 H 0.03567 0.46146 0.01339 0.0
H1269 H 0.08059 0.51989 0.04651 0.0
H1270 H 0.04591 0.54505 0.05372 0.0
H1271 H 0.99572 0.49371 0.94435 0.0
H1272 H 0.9704 0.47764 0.96256 0.0
H1273 H 0.9986 0.46387 0.96221 0.0
H1274 H 0.99396 0.45349 0.04756 0.0
H1275 H 0.96571 0.46719 0.04824 0.0
H1276 H 0.98784 0.4762 0.08816 0.0
H1277 H 0.00657 0.56377 0.05755 0.0
H1278 H 0.96546 0.57558 0.05448 0.0
H1279 H 0.94575 0.50542 0.01528 0.0
C1280 C 0.03827 0.4795 0.02256 0.0
C1281 C 0.06095 0.48863 0.02978 0.0
C1282 C 0.06347 0.51244 0.04099 0.0
C1283 C 0.04386 0.52687 0.04521 0.0
C1284 C 0.02183 0.51731 0.03765 0.0
C1285 C 0.01892 0.49422 0.02629 0.0
C1286 C 0.99338 0.48851 0.01826 0.0
C1287 C 0.98929 0.48046 0.96891 0.0
C1288 C 0.98472 0.47027 0.05261 0.0
C1289 C 0.98235 0.51204 0.02699 0.0
C1290 C 0.99911 0.52831 0.03845 0.0
C1291 C 0.9933 0.5512 0.04853 0.0
C1292 C 0.96979 0.5577 0.04673 0.0
C1293 C 0.95219 0.54147 0.03457 0.0
C1294 C 0.95869 0.51829 0.02454 0.0
H1295 H 0.46581 0.46463 0.29101 0.0
H1296 H 0.53018 0.42584 0.30832 0.0
H1297 H 0.55209 0.46246 0.31333 0.0
H1298 H 0.48987 0.50788 0.21878 0.0
H1299 H 0.47288 0.53149 0.24168 0.0
H1300 H 0.46162 0.50228 0.24341 0.0
H1301 H 0.45627 0.50549 0.3308 0.0
H1302 H 0.46747 0.53476 0.32937 0.0
H1303 H 0.48081 0.51341 0.36598 0.0
H1304 H 0.56748 0.50274 0.31336 0.0
H1305 H 0.5757 0.54448 0.30616 0.0
H1306 H 0.50177 0.55796 0.28642 0.0
C1307 C 0.48446 0.46384 0.29659 0.0
C1308 C 0.49619 0.44224 0.29976 0.0
C1309 C 0.5207 0.44205 0.3061 0.0
C1310 C 0.53335 0.4628 0.30904 0.0
C1311 C 0.52133 0.48371 0.30529 0.0
C1312 C 0.49746 0.48447 0.29907 0.0
C1313 C 0.48912 0.50935 0.29347 0.0
C1314 C 0.4777 0.51295 0.24655 0.0
C1315 C 0.47243 0.51615 0.33222 0.0
C1316 C 0.51208 0.52235 0.29708 0.0
C1317 C 0.53036 0.50717 0.3043 0.0
C1318 C 0.55331 0.51484 0.3079 0.0
C1319 C 0.55778 0.53865 0.3037 0.0
C1320 C 0.53942 0.55466 0.29571 0.0
C1321 C 0.51623 0.54628 0.29269 0.0
H1322 H 0.44523 0.99882 0.51631 0.0
H1323 H 0.46662 0.07014 0.54222 0.0
H1324 H 0.50719 0.05742 0.5501 0.0
H1325 H 0.48682 0.97183 0.59578 0.0
H1326 H 0.49237 0.94735 0.55901 0.0
H1327 H 0.46442 0.96164 0.55756 0.0
H1328 H 0.46897 0.96832 0.47071 0.0
H1329 H 0.49691 0.95406 0.47198 0.0
H1330 H 0.49449 0.98313 0.44957 0.0
H1331 H 0.54584 0.03806 0.55003 0.0
H1332 H 0.58022 0.01254 0.5441 0.0
H1333 H 0.53468 0.95336 0.52086 0.0
C1334 C 0.45839 0.01172 0.52415 0.0
C1335 C 0.45251 0.03552 0.52856 0.0
C1336 C 0.47044 0.0518 0.53855 0.0
C1337 C 0.49367 0.04478 0.54322 0.0
C1338 C 0.4989 0.02134 0.53816 0.0
C1339 C 0.48184 0.00498 0.52914 0.0
C1340 C 0.49253 0.98097 0.5241 0.0
C1341 C 0.4835 0.96447 0.56134 0.0
C1342 C 0.48795 0.97104 0.47624 0.0
C1343 C 0.51819 0.98657 0.53098 0.0
C1344 C 0.52141 0.00998 0.53909 0.0
C1345 C 0.54356 0.01962 0.54427 0.0
C1346 C 0.56301 0.00498 0.54077 0.0
C1347 C 0.56024 0.98089 0.53247 0.0
C1348 C 0.53743 0.97161 0.52801 0.0
H1349 H 1.0025 0.06809 0.77313 0.0
H1350 H 0.06697 0.05287 0.84499 0.0
H1351 H 0.05419 0.01255 0.85624 0.0
H1352 H 0.9646 0.02908 0.84281 0.0
H1353 H 0.9475 0.02025 0.79426 0.0
H1354 H 0.96038 0.04883 0.79585 0.0
H1355 H 0.98086 0.04074 0.71885 0.0
H1356 H 0.96818 0.01213 0.71717 0.0
H1357 H 0.99937 0.01558 0.71331 0.0
H1358 H 0.03723 0.97324 0.85234 0.0
H1359 H 0.01561 0.93711 0.83706 0.0
H1360 H 0.96118 0.97675 0.76987 0.0
C1361 C 0.01364 0.05639 0.79213 0.0
C1362 C 0.03578 0.06368 0.80802 0.0
C1363 C 0.05002 0.04771 0.83214 0.0
C1364 C 0.04289 0.02475 0.83892 0.0
C1365 C 0.02137 0.0179 0.8217 0.0
C1366 C 0.00678 0.03321 0.79921 0.0
C1367 C 0.98513 0.02077 0.78194 0.0
C1368 C 0.96309 0.0303 0.80511 0.0
C1369 C 0.98329 0.0224 0.72972 0.0
C1370 C 0.99024 0.99607 0.79724 0.0
C1371 C 0.01122 0.99493 0.82026 0.0
C1372 C 0.02058 0.97392 0.83504 0.0
C1373 C 0.00823 0.95345 0.82597 0.0
C1374 C 0.98664 0.95408 0.8026 0.0
C1375 C 0.97743 0.97576 0.78854 0.0
H1376 H 0.09472 0.08772 0.65427 0.0
H1377 H 0.04058 0.13849 0.62611 0.0
H1378 H 0.04449 0.13052 0.54369 0.0
H1379 H 0.13078 0.09988 0.5587 0.0
H1380 H 0.13845 0.06992 0.54899 0.0
H1381 H 0.13134 0.07966 0.60562 0.0
H1382 H 0.09933 0.04801 0.61151 0.0
H1383 H 0.1063 0.03812 0.55488 0.0
H1384 H 0.07686 0.04654 0.56861 0.0
H1385 H 0.05566 0.11836 0.46482 0.0
H1386 H 0.07145 0.10109 0.39452 0.0
H1387 H 0.11672 0.05667 0.47506 0.0
C1388 C 0.08366 0.09719 0.63087 0.0
C1389 C 0.06741 0.1138 0.64649 0.0
C1390 C 0.05312 0.12567 0.61477 0.0
C1391 C 0.05524 0.12129 0.56799 0.0
C1392 C 0.0715 0.10483 0.55382 0.0
C1393 C 0.08529 0.0928 0.58432 0.0
C1394 C 0.10115 0.07573 0.56041 0.0
C1395 C 0.12696 0.08166 0.56894 0.0
C1396 C 0.09556 0.05061 0.57471 0.0
C1397 C 0.09431 0.08021 0.51149 0.0
C1398 C 0.07729 0.09716 0.50844 0.0
C1399 C 0.06881 0.10491 0.46674 0.0
C1400 C 0.07795 0.09503 0.42704 0.0
C1401 C 0.09517 0.07742 0.42942 0.0
C1402 C 0.10334 0.06988 0.47226 0.0
H1403 H 0.91698 0.58858 0.68584 0.0
H1404 H 0.96177 0.64804 0.71085 0.0
H1405 H 0.95014 0.64778 0.79204 0.0
H1406 H 0.87058 0.60358 0.764 0.0
H1407 H 0.8661 0.57403 0.7824 0.0
H1408 H 0.8767 0.57985 0.72572 0.0
H1409 H 0.91261 0.55359 0.74055 0.0
H1410 H 0.90206 0.54754 0.79709 0.0
H1411 H 0.93094 0.55925 0.78923 0.0
H1412 H 0.9336 0.64099 0.87005 0.0
H1413 H 0.91739 0.62537 0.94148 0.0
H1414 H 0.88524 0.56884 0.8659 0.0
C1415 C 0.92421 0.60163 0.70836 0.0
C1416 C 0.94014 0.61841 0.69224 0.0
C1417 C 0.94958 0.63499 0.72275 0.0
C1418 C 0.94294 0.63509 0.76873 0.0
C1419 C 0.92711 0.61833 0.78353 0.0
C1420 C 0.91814 0.60169 0.75443 0.0
C1421 C 0.90276 0.58457 0.77954 0.0
C1422 C 0.87754 0.58558 0.76186 0.0
C1423 C 0.91269 0.55978 0.77642 0.0
C1424 C 0.90458 0.59412 0.82743 0.0
C1425 C 0.91836 0.61381 0.82886 0.0
C1426 C 0.92281 0.62555 0.86941 0.0
C1427 C 0.91346 0.61655 0.90982 0.0
C1428 C 0.90015 0.59576 0.90943 0.0
C1429 C 0.89534 0.58474 0.86744 0.0
H1430 H 0.43585 0.41902 0.15384 0.0
H1431 H 0.47899 0.35842 0.12847 0.0
H1432 H 0.46929 0.36085 0.04624 0.0
H1433 H 0.39064 0.40465 0.07956 0.0
H1434 H 0.38528 0.43408 0.06133 0.0
H1435 H 0.39714 0.42861 0.11708 0.0
H1436 H 0.4324 0.4553 0.09937 0.0
H1437 H 0.42054 0.46116 0.0437 0.0
H1438 H 0.44974 0.44994 0.04922 0.0
H1439 H 0.45232 0.3687 0.96773 0.0
H1440 H 0.43215 0.38277 0.89878 0.0
H1441 H 0.40039 0.43812 0.97812 0.0
C1442 C 0.44354 0.40636 0.13108 0.0
C1443 C 0.45813 0.38848 0.14748 0.0
C1444 C 0.46788 0.37235 0.11647 0.0
C1445 C 0.46237 0.37354 0.06986 0.0
C1446 C 0.44733 0.39107 0.05516 0.0
C1447 C 0.43833 0.40735 0.08489 0.0
C1448 C 0.42217 0.42418 0.06123 0.0
C1449 C 0.39734 0.42278 0.08098 0.0
C1450 C 0.4318 0.44912 0.06351 0.0
C1451 C 0.42315 0.41466 0.0134 0.0
C1452 C 0.43773 0.39559 0.01043 0.0
C1453 C 0.44101 0.38371 0.96961 0.0
C1454 C 0.42938 0.3918 0.93069 0.0
C1455 C 0.41466 0.4116 0.93297 0.0
C1456 C 0.41147 0.42296 0.97509 0.0
H1457 H 0.58449 0.90007 0.38288 0.0
H1458 H 0.6077 0.97105 0.36018 0.0
H1459 H 0.59094 0.96989 0.28283 0.0
H1460 H 0.59773 0.87946 0.27137 0.0
H1461 H 0.57289 0.8603 0.26861 0.0
H1462 H 0.58573 0.86728 0.32289 0.0
H1463 H 0.54547 0.8816 0.35171 0.0
H1464 H 0.53261 0.87499 0.29716 0.0
H1465 H 0.53023 0.90388 0.32045 0.0
H1466 H 0.57252 0.96109 0.20855 0.0
H1467 H 0.55784 0.94355 0.13752 0.0
H1468 H 0.54709 0.87799 0.20717 0.0
C1469 C 0.58608 0.9154 0.36171 0.0
C1470 C 0.59736 0.9357 0.37766 0.0
C1471 C 0.59922 0.95528 0.34868 0.0
C1472 C 0.58956 0.95487 0.30487 0.0
C1473 C 0.57819 0.93474 0.29062 0.0
C1474 C 0.5767 0.91524 0.31783 0.0
C1475 C 0.5648 0.89535 0.29322 0.0
C1476 C 0.58128 0.87437 0.28875 0.0
C1477 C 0.54192 0.88856 0.31707 0.0
C1478 C 0.56018 0.90662 0.2475 0.0
C1479 C 0.56772 0.92948 0.24718 0.0
C1480 C 0.56645 0.94328 0.2084 0.0
C1481 C 0.55811 0.93319 0.16831 0.0
C1482 C 0.55132 0.90956 0.16733 0.0
C1483 C 0.55169 0.89625 0.2076 0.0
H1484 H 0.05334 0.40179 0.7027 0.0
H1485 H 0.11486 0.42354 0.62739 0.0
H1486 H 0.13064 0.44175 0.69695 0.0
H1487 H 0.04868 0.45284 0.77407 0.0
H1488 H 0.03959 0.43638 0.82322 0.0
H1489 H 0.03266 0.42613 0.76679 0.0
H1490 H 0.05292 0.3868 0.78441 0.0
H1491 H 0.05965 0.3969 0.84091 0.0
H1492 H 0.08269 0.38674 0.80421 0.0
H1493 H 0.1403 0.45646 0.77621 0.0
H1494 H 0.14385 0.46368 0.85933 0.0
H1495 H 0.07587 0.43221 0.87982 0.0
C1496 C 0.07011 0.41042 0.70063 0.0
C1497 C 0.08282 0.41123 0.65959 0.0
C1498 C 0.10476 0.42266 0.65851 0.0
C1499 C 0.11384 0.43318 0.69775 0.0
C1500 C 0.10074 0.43217 0.73759 0.0
C1501 C 0.0794 0.42096 0.73927 0.0
C1502 C 0.0692 0.4213 0.78657 0.0
C1503 C 0.04617 0.43498 0.7877 0.0
C1504 C 0.06594 0.39646 0.8051 0.0
C1505 C 0.08833 0.43405 0.81144 0.0
C1506 C 0.10629 0.44049 0.78277 0.0
C1507 C 0.12626 0.45166 0.79898 0.0
C1508 C 0.1281 0.45579 0.84604 0.0
C1509 C 0.11016 0.44843 0.87584 0.0
C1510 C 0.08989 0.43799 0.85795 0.0
H1511 H 0.59511 0.59501 0.15064 0.0
H1512 H 0.53028 0.6314 0.12313 0.0
H1513 H 0.53493 0.62308 0.04093 0.0
H1514 H 0.6262 0.61234 0.04949 0.0
H1515 H 0.64001 0.58443 0.04262 0.0
H1516 H 0.63218 0.59453 0.09866 0.0
H1517 H 0.60809 0.55703 0.11191 0.0
H1518 H 0.61572 0.54681 0.05587 0.0
H1519 H 0.58549 0.54926 0.07198 0.0
H1520 H 0.54675 0.61063 0.96215 0.0
H1521 H 0.56379 0.59357 0.89267 0.0
H1522 H 0.61962 0.56345 0.97336 0.0
C1523 C 0.58196 0.60146 0.12743 0.0
C1524 C 0.56239 0.61397 0.14324 0.0
C1525 C 0.54543 0.62181 0.11169 0.0
C1526 C 0.54794 0.6172 0.06502 0.0
C1527 C 0.56735 0.60457 0.05076 0.0
C1528 C 0.58398 0.59671 0.08108 0.0
C1529 C 0.60262 0.58257 0.0575 0.0
C1530 C 0.62667 0.59417 0.06235 0.0
C1531 C 0.60298 0.55743 0.07538 0.0
C1532 C 0.59389 0.58368 0.00899 0.0
C1533 C 0.57366 0.59663 0.00575 0.0
C1534 C 0.56254 0.6004 0.96427 0.0
C1535 C 0.57238 0.59066 0.92503 0.0
C1536 C 0.59296 0.57709 0.92772 0.0
C1537 C 0.60376 0.57355 0.97033 0.0
H1538 H 0.42517 0.08736 0.38064 0.0
H1539 H 0.36704 0.04093 0.35451 0.0
H1540 H 0.37237 0.04689 0.27139 0.0
H1541 H 0.41394 0.12801 0.29381 0.0
H1542 H 0.44423 0.13259 0.28008 0.0
H1543 H 0.436 0.12417 0.33693 0.0
H1544 H 0.46365 0.08865 0.33255 0.0
H1545 H 0.47212 0.09698 0.27575 0.0
H1546 H 0.46068 0.06829 0.2862 0.0
H1547 H 0.38279 0.06029 0.19183 0.0
H1548 H 0.39952 0.07681 0.12155 0.0
H1549 H 0.45212 0.1127 0.20158 0.0
C1550 C 0.41357 0.07835 0.35758 0.0
C1551 C 0.39559 0.06382 0.37382 0.0
C1552 C 0.38095 0.05211 0.34253 0.0
C1553 C 0.3838 0.05547 0.29545 0.0
C1554 C 0.40158 0.07024 0.2807 0.0
C1555 C 0.41641 0.08119 0.31091 0.0
C1556 C 0.43435 0.09595 0.28677 0.0
C1557 C 0.43197 0.1217 0.3002 0.0
C1558 C 0.45917 0.08692 0.29586 0.0
C1559 C 0.42714 0.09192 0.23799 0.0
C1560 C 0.40812 0.07718 0.23514 0.0
C1561 C 0.39784 0.07162 0.19361 0.0
C1562 C 0.40743 0.08118 0.15393 0.0
C1563 C 0.42725 0.0959 0.15612 0.0
C1564 C 0.43714 0.10131 0.19879 0.0
H1565 H 0.93798 0.93487 0.64031 0.0
H1566 H 0.97515 0.86985 0.62297 0.0
H1567 H 0.96592 0.8706 0.54044 0.0
H1568 H 0.89178 0.92153 0.57245 0.0
H1569 H 0.88783 0.95016 0.54873 0.0
H1570 H 0.90074 0.94683 0.60421 0.0
H1571 H 0.93732 0.96977 0.5785 0.0
H1572 H 0.92432 0.97379 0.52315 0.0
H1573 H 0.95283 0.96084 0.52801 0.0
H1574 H 0.94793 0.87598 0.46298 0.0
H1575 H 0.92638 0.88744 0.39404 0.0
H1576 H 0.90044 0.94874 0.46423 0.0
C1577 C 0.94475 0.92111 0.61897 0.0
C1578 C 0.95726 0.90231 0.63769 0.0
C1579 C 0.96578 0.88454 0.60892 0.0
C1580 C 0.96048 0.88477 0.56222 0.0
C1581 C 0.94698 0.90302 0.54534 0.0
C1582 C 0.93964 0.92109 0.57274 0.0
C1583 C 0.92398 0.9378 0.54746 0.0
C1584 C 0.89965 0.93914 0.56953 0.0
C1585 C 0.9353 0.96198 0.54407 0.0
C1586 C 0.92305 0.92596 0.50168 0.0
C1587 C 0.9365 0.90602 0.50101 0.0
C1588 C 0.93763 0.89174 0.46288 0.0
C1589 C 0.92516 0.89835 0.42401 0.0
C1590 C 0.9117 0.91906 0.42366 0.0
C1591 C 0.91051 0.93283 0.46331 0.0
H1592 H 0.06448 0.08479 0.95148 0.0
H1593 H 0.12693 0.12442 0.92088 0.0
H1594 H 0.14416 0.11219 0.99439 0.0
H1595 H 0.06259 0.09592 0.07123 0.0
H1596 H 0.05285 0.06704 0.08551 0.0
H1597 H 0.04567 0.07933 0.0309 0.0
H1598 H 0.06447 0.04371 0.99113 0.0
H1599 H 0.07206 0.03153 0.04571 0.0
H1600 H 0.09436 0.03632 0.00344 0.0
H1601 H 0.15326 0.09778 0.07305 0.0
H1602 H 0.15372 0.08185 0.15141 0.0
H1603 H 0.08705 0.04862 0.12716 0.0
C1604 C 0.08167 0.0911 0.96055 0.0
C1605 C 0.09431 0.10578 0.93104 0.0
C1606 C 0.11696 0.11328 0.94339 0.0
C1607 C 0.1269 0.10634 0.98484 0.0
C1608 C 0.11411 0.09155 0.01293 0.0
C1609 C 0.09203 0.08394 0.00125 0.0
C1610 C 0.08203 0.068 0.0373 0.0
C1611 C 0.05946 0.07819 0.05743 0.0
C1612 C 0.078 0.04343 0.01824 0.0
C1613 C 0.10171 0.06826 0.07163 0.0
C1614 C 0.12005 0.08198 0.05695 0.0
C1615 C 0.13928 0.08659 0.08454 0.0
C1616 C 0.13946 0.07743 0.12877 0.0
C1617 C 0.12076 0.06353 0.14441 0.0
C1618 C 0.10195 0.05845 0.11517 0.0
H1619 H 0.91136 0.61731 0.39098 0.0
H1620 H 0.96775 0.56831 0.41219 0.0
H1621 H 0.95937 0.55021 0.33755 0.0
H1622 H 0.87189 0.57933 0.33023 0.0
H1623 H 0.86273 0.60129 0.29027 0.0
H1624 H 0.87199 0.60951 0.34672 0.0
H1625 H 0.90295 0.63732 0.31242 0.0
H1626 H 0.89358 0.6294 0.25596 0.0
H1627 H 0.92376 0.62619 0.27189 0.0
H1628 H 0.94424 0.53683 0.26201 0.0
H1629 H 0.92808 0.53324 0.18432 0.0
H1630 H 0.88396 0.5932 0.20878 0.0
C1631 C 0.92186 0.60276 0.37971 0.0
C1632 C 0.9401 0.59406 0.40704 0.0
C1633 C 0.95378 0.57524 0.39136 0.0
C1634 C 0.94901 0.56473 0.34932 0.0
C1635 C 0.93079 0.57357 0.32317 0.0
C1636 C 0.91777 0.59249 0.3372 0.0
C1637 C 0.90049 0.59976 0.30086 0.0
C1638 C 0.87528 0.59732 0.31806 0.0
C1639 C 0.90551 0.62464 0.2843 0.0
C1640 C 0.90586 0.58199 0.26427 0.0
C1641 C 0.923 0.56672 0.27829 0.0
C1642 C 0.93085 0.54871 0.25052 0.0
C1643 C 0.92146 0.54671 0.20661 0.0
C1644 C 0.9048 0.56294 0.19071 0.0
C1645 C 0.89666 0.58055 0.22021 0.0
H1646 H 0.42305 0.451 0.6381 0.0
H1647 H 0.36067 0.4088 0.64811 0.0
H1648 H 0.36525 0.39701 0.56743 0.0
H1649 H 0.41738 0.46848 0.51676 0.0
H1650 H 0.44827 0.46557 0.5069 0.0
H1651 H 0.43772 0.47373 0.56248 0.0
H1652 H 0.46027 0.43915 0.59787 0.0
H1653 H 0.47052 0.43059 0.54241 0.0
H1654 H 0.45479 0.41012 0.57733 0.0
H1655 H 0.37798 0.38806 0.48774 0.0
H1656 H 0.39846 0.38158 0.41476 0.0
H1657 H 0.45468 0.42664 0.45955 0.0
C1658 C 0.4099 0.44001 0.62261 0.0
C1659 C 0.39112 0.43128 0.64844 0.0
C1660 C 0.37484 0.416 0.62817 0.0
C1661 C 0.37736 0.4092 0.58258 0.0
C1662 C 0.3965 0.41753 0.55828 0.0
C1663 C 0.41254 0.43257 0.57757 0.0
C1664 C 0.43289 0.43694 0.54582 0.0
C1665 C 0.43413 0.46271 0.53218 0.0
C1666 C 0.45597 0.4287 0.56714 0.0
C1667 C 0.42593 0.42182 0.50587 0.0
C1668 C 0.40471 0.41108 0.51347 0.0
C1669 C 0.39459 0.39638 0.48137 0.0
C1670 C 0.40636 0.39276 0.44016 0.0
C1671 C 0.4282 0.40344 0.43189 0.0
C1672 C 0.43815 0.41801 0.46533 0.0
H1673 H 0.56913 0.90388 0.66243 0.0
H1674 H 0.63884 0.93163 0.68018 0.0
H1675 H 0.63821 0.91976 0.7613 0.0
H1676 H 0.54795 0.92545 0.76801 0.0
H1677 H 0.52887 0.90116 0.77881 0.0
H1678 H 0.53593 0.90911 0.72113 0.0
H1679 H 0.55076 0.86729 0.70592 0.0
H1680 H 0.54388 0.85925 0.76375 0.0
H1681 H 0.573 0.8551 0.74216 0.0
H1682 H 0.62997 0.9054 0.83943 0.0
H1683 H 0.61287 0.89528 0.91342 0.0
H1684 H 0.54667 0.88026 0.84754 0.0
C1685 C 0.58432 0.90711 0.68347 0.0
C1686 C 0.60419 0.91828 0.66548 0.0
C1687 C 0.62357 0.92293 0.69375 0.0
C1688 C 0.6234 0.91612 0.73957 0.0
C1689 C 0.60353 0.90513 0.75649 0.0
C1690 C 0.58416 0.90106 0.72964 0.0
C1691 C 0.56415 0.89133 0.75754 0.0
C1692 C 0.54298 0.90775 0.7563 0.0
C1693 C 0.55757 0.86678 0.74137 0.0
C1694 C 0.57526 0.89076 0.80438 0.0
C1695 C 0.59815 0.89826 0.80261 0.0
C1696 C 0.61206 0.89953 0.84132 0.0
C1697 C 0.60213 0.89366 0.88326 0.0
C1698 C 0.57833 0.88707 0.88643 0.0
C1699 C 0.56488 0.8852 0.84624 0.0
H1700 H 0.08922 0.41224 0.38093 0.0
H1701 H 0.03087 0.3652 0.36214 0.0
H1702 H 0.03476 0.36946 0.27819 0.0
H1703 H 0.07322 0.45129 0.29152 0.0
H1704 H 0.10296 0.45747 0.2757 0.0
H1705 H 0.09609 0.44967 0.33359 0.0
H1706 H 0.12598 0.41599 0.32997 0.0
H1707 H 0.13296 0.42363 0.27203 0.0
H1708 H 0.12357 0.39452 0.28546 0.0
H1709 H 0.04642 0.378 0.19668 0.0
H1710 H 0.06182 0.39312 0.12387 0.0
H1711 H 0.11049 0.43692 0.19777 0.0
C1712 C 0.07739 0.40263 0.35914 0.0
C1713 C 0.05999 0.38807 0.37759 0.0
C1714 C 0.04439 0.3763 0.3483 0.0
C1715 C 0.04654 0.37858 0.3008 0.0
C1716 C 0.06406 0.39303 0.28371 0.0
C1717 C 0.07896 0.40511 0.3121 0.0
C1718 C 0.09554 0.42046 0.28565 0.0
C1719 C 0.09171 0.44625 0.29731 0.0
C1720 C 0.12102 0.4132 0.29376 0.0
C1721 C 0.08782 0.41502 0.23764 0.0
C1722 C 0.06986 0.39894 0.23718 0.0
C1723 C 0.06033 0.39071 0.19665 0.0
C1724 C 0.06927 0.39932 0.15555 0.0
C1725 C 0.08724 0.41624 0.15545 0.0
C1726 C 0.0966 0.42416 0.19701 0.0
H1727 H 0.58649 0.5442 0.62225 0.0
H1728 H 0.64813 0.5855 0.64963 0.0
H1729 H 0.64606 0.60208 0.5719 0.0
H1730 H 0.59641 0.53417 0.49851 0.0
H1731 H 0.56588 0.53753 0.48553 0.0
H1732 H 0.5747 0.52607 0.54002 0.0
H1733 H 0.55061 0.55816 0.58024 0.0
H1734 H 0.54213 0.57004 0.526 0.0
H1735 H 0.55644 0.58825 0.56744 0.0
H1736 H 0.63564 0.61607 0.49357 0.0
H1737 H 0.61753 0.6267 0.41997 0.0
H1738 H 0.56071 0.57877 0.44686 0.0
C1739 C 0.60006 0.55601 0.61107 0.0
C1740 C 0.61787 0.56316 0.64108 0.0
C1741 C 0.63469 0.57952 0.62645 0.0
C1742 C 0.63358 0.58905 0.58257 0.0
C1743 C 0.61531 0.58228 0.55421 0.0
C1744 C 0.59885 0.56611 0.5678 0.0
C1745 C 0.57964 0.56364 0.53274 0.0
C1746 C 0.57914 0.53888 0.51303 0.0
C1747 C 0.5558 0.57043 0.55282 0.0
C1748 C 0.58771 0.58111 0.4976 0.0
C1749 C 0.60848 0.59144 0.51031 0.0
C1750 C 0.6194 0.60808 0.4832 0.0
C1751 C 0.60896 0.61407 0.44164 0.0
C1752 C 0.58763 0.60374 0.42811 0.0
C1753 C 0.57683 0.58721 0.45671 0.0
H1754 H 0.39374 0.06951 0.69884 0.0
H1755 H 0.43225 0.12116 0.62172 0.0
H1756 H 0.44914 0.13655 0.69301 0.0
H1757 H 0.37959 0.10795 0.79283 0.0
H1758 H 0.38209 0.0854 0.83517 0.0
H1759 H 0.37347 0.07817 0.77788 0.0
H1760 H 0.40749 0.04863 0.77267 0.0
H1761 H 0.41629 0.05587 0.82985 0.0
H1762 H 0.43688 0.05827 0.78369 0.0
H1763 H 0.46396 0.14448 0.7726 0.0
H1764 H 0.47122 0.1477 0.85595 0.0
H1765 H 0.42023 0.09347 0.88035 0.0
C1766 C 0.40565 0.08411 0.69713 0.0
C1767 C 0.41177 0.09414 0.65505 0.0
C1768 C 0.42725 0.11335 0.65386 0.0
C1769 C 0.43705 0.12211 0.69406 0.0
C1770 C 0.43082 0.11173 0.7351 0.0
C1771 C 0.41514 0.09345 0.73702 0.0
C1772 C 0.41066 0.08602 0.78561 0.0
C1773 C 0.38493 0.08961 0.79863 0.0
C1774 C 0.41829 0.0607 0.79339 0.0
C1775 C 0.42639 0.10284 0.81056 0.0
C1776 C 0.4382 0.11729 0.78092 0.0
C1777 C 0.45457 0.1335 0.79625 0.0
C1778 C 0.45865 0.13518 0.84335 0.0
C1779 C 0.44597 0.1211 0.87397 0.0
C1780 C 0.42978 0.10473 0.85735 0.0
H1781 H 0.91982 0.91282 0.14046 0.0
H1782 H 0.86573 0.965 0.12669 0.0
H1783 H 0.86784 0.96117 0.04247 0.0
H1784 H 0.95414 0.93269 0.04691 0.0
H1785 H 0.96325 0.9039 0.03056 0.0
H1786 H 0.95633 0.91004 0.08916 0.0
H1787 H 0.92613 0.87649 0.08912 0.0
H1788 H 0.93286 0.87031 0.03041 0.0
H1789 H 0.90321 0.87627 0.04707 0.0
H1790 H 0.87544 0.95044 0.9601 0.0
H1791 H 0.89105 0.93753 0.88576 0.0
H1792 H 0.94207 0.89458 0.95523 0.0
C1793 C 0.90828 0.92332 0.11972 0.0
C1794 C 0.89238 0.93898 0.13964 0.0
C1795 C 0.87795 0.95287 0.11168 0.0
C1796 C 0.87897 0.9507 0.06405 0.0
C1797 C 0.89477 0.93488 0.04547 0.0
C1798 C 0.90942 0.92173 0.0725 0.0
C1799 C 0.92583 0.90702 0.04446 0.0
C1800 C 0.95139 0.91383 0.0533 0.0
C1801 C 0.92175 0.88098 0.0533 0.0
C1802 C 0.91814 0.91387 -0.00282 0.0
C1803 C 0.89997 0.92966 -0.00161 0.0
C1804 C 0.88974 0.93819 0.95875 0.0
C1805 C 0.89863 0.93068 0.91679 0.0
C1806 C 0.91778 0.91517 0.91507 0.0
C1807 C 0.9275 0.90657 0.95574 0.0
loop_
_geom_bond_atom_site_label_1
_geom_bond_atom_site_label_2
_geom_bond_distance
_geom_bond_site_symmetry_2
_ccdc_geom_bond_type
Co0 O2 2.143 . S
Co0 O8 2.074 . S
Co0 O11 2.093 . S
Co0 O24 2.097 . S
Co0 N41 2.151 . S
Co0 N49 2.214 . S
Co1 O2 2.160 . S
Co1 O7 2.058 . S
Co1 O17 2.057 . S
Co1 O32 2.037 . S
Co1 N36 2.145 . S
Co1 N57 2.257 . S
O2 Co0 2.143 . S
O2 Co1 2.160 . S
C3 O4 1.278 . S
C3 O11 1.224 . S
O4 C3 1.278 . S
C5 O6 1.245 . S
C5 O17 1.232 . S
O6 C5 1.245 . S
O7 Co1 2.058 . S
O7 C33 1.269 . S
O8 Co0 2.074 . S
O8 C33 1.257 . S
H9 C34 0.930 . S
H10 C40 0.930 . S
O11 Co0 2.093 . S
O11 C3 1.224 . S
H12 C44 0.929 . S
H13 C46 0.930 . S
H14 C47 0.930 . S
H15 C45 0.929 . S
H16 C48 0.928 . S
O17 Co1 2.057 . S
O17 C5 1.232 . S
H18 C37 0.929 . S
H19 C38 0.929 . S
H20 C50 0.931 . S
H21 C42 0.929 . S
H22 C51 0.930 1_655 S
H23 C43 0.931 . S
O24 Co0 2.097 . S
O24 C52 1.214 . S
H25 C53 0.929 . S
H26 C54 0.929 . S
H27 C55 0.930 . S
H28 C56 0.929 . S
H29 C58 0.930 . S
H30 C35 0.930 . S
H31 C39 0.930 . S
O32 Co1 2.037 . S
O32 C52 1.234 . S
C33 O7 1.269 . S
C33 O8 1.257 . S
C34 H9 0.930 . S
C34 C37 1.388 1_565 S
C34 C39 1.418 . S
C35 H30 0.930 . S
C35 C38 1.404 1_565 S
C35 C39 1.353 . S
N36 Co1 2.145 . S
N36 C37 1.397 . S
N36 C38 1.334 . S
C37 H18 0.929 . S
C37 C34 1.388 1_545 S
C37 N36 1.397 . S
C38 H19 0.929 . S
C38 C35 1.404 1_545 S
C38 N36 1.334 . S
C39 H31 0.930 . S
C39 C34 1.418 . S
C39 C35 1.353 . S
C40 H10 0.930 . S
C40 N41 1.330 . S
C40 C42 1.446 . S
N41 Co0 2.151 . S
N41 C40 1.330 . S
N41 C45 1.418 . S
C42 H21 0.929 . S
C42 C40 1.446 . S
C42 C43 1.332 . S
C43 H23 0.931 . S
C43 C42 1.332 . S
C43 C44 1.267 . S
C44 H12 0.929 . S
C44 C43 1.267 . S
C44 C45 1.251 . S
C45 H15 0.929 . S
C45 N41 1.418 . S
C45 C44 1.251 . S
C46 H13 0.930 . S
C46 C48 1.406 . S
C46 C51 1.261 . S
C47 H14 0.930 . S
C47 N49 1.325 . S
C47 C50 1.357 . S
C48 H16 0.928 . S
C48 C46 1.406 . S
C48 N49 1.261 . S
N49 Co0 2.214 . S
N49 C47 1.325 . S
N49 C48 1.261 . S
C50 H20 0.931 . S
C50 C47 1.357 . S
C50 C51 1.312 . S
C51 H22 0.930 1_455 S
C51 C46 1.261 . S
C51 C50 1.312 . S
C52 O24 1.214 . S
C52 O32 1.234 . S
C53 H25 0.929 . S
C53 C56 1.391 1_545 S
C53 C58 1.391 . S
C54 H26 0.929 . S
C54 C55 1.390 . S
C54 N57 1.391 1_565 S
C55 H27 0.930 . S
C55 C54 1.390 . S
C55 C56 1.392 . S
C56 H28 0.929 . S
C56 C53 1.391 1_565 S
C56 C55 1.392 . S
N57 Co1 2.257 . S
N57 C54 1.391 1_545 S
N57 C58 1.388 . S
C58 H29 0.930 . S
C58 C53 1.391 . S
C58 N57 1.388 . S
Co59 O61 2.143 . S
Co59 O67 2.074 . S
Co59 O70 2.093 . S
Co59 O83 2.097 . S
Co59 N100 2.151 . S
Co59 N108 2.214 . S
Co60 O61 2.160 . S
Co60 O66 2.058 . S
Co60 O76 2.057 . S
Co60 O91 2.037 . S
Co60 N95 2.145 . S
Co60 N116 2.257 . S
O61 Co59 2.143 . S
O61 Co60 2.160 . S
C62 O63 1.278 . S
C62 O70 1.224 . S
O63 C62 1.278 . S
C64 O65 1.245 . S
C64 O76 1.232 . S
O65 C64 1.245 . S
O66 Co60 2.058 . S
O66 C92 1.269 . S
O67 Co59 2.074 . S
O67 C92 1.257 . S
H68 C93 0.930 . S
H69 C99 0.930 . S
O70 Co59 2.093 . S
O70 C62 1.224 . S
H71 C103 0.929 . S
H72 C105 0.930 . S
H73 C106 0.930 . S
H74 C104 0.929 . S
H75 C107 0.928 . S
O76 Co60 2.057 . S
O76 C64 1.232 . S
H77 C96 0.929 . S
H78 C97 0.929 . S
H79 C109 0.931 . S
H80 C101 0.929 . S
H81 C110 0.930 . S
H82 C102 0.931 . S
O83 Co59 2.097 . S
O83 C111 1.214 . S
H84 C112 0.929 . S
H85 C113 0.929 . S
H86 C114 0.930 . S
H87 C115 0.929 . S
H88 C117 0.930 . S
H89 C94 0.930 . S
H90 C98 0.930 . S
O91 Co60 2.037 . S
O91 C111 1.234 . S
C92 O66 1.269 . S
C92 O67 1.257 . S
C93 H68 0.930 . S
C93 C96 1.388 1_455 S
C93 C98 1.418 . S
C94 H89 0.930 . S
C94 C97 1.404 1_455 S
C94 C98 1.353 . S
N95 Co60 2.145 . S
N95 C96 1.397 . S
N95 C97 1.334 . S
C96 H77 0.929 . S
C96 C93 1.388 1_655 S
C96 N95 1.397 . S
C97 H78 0.929 . S
C97 C94 1.404 1_655 S
C97 N95 1.334 . S
C98 H90 0.930 . S
C98 C93 1.418 . S
C98 C94 1.353 . S
C99 H69 0.930 . S
C99 N100 1.330 . S
C99 C101 1.446 . S
N100 Co59 2.151 . S
N100 C99 1.330 . S
N100 C104 1.418 . S
C101 H80 0.929 . S
C101 C99 1.446 . S
C101 C102 1.332 . S
C102 H82 0.931 . S
C102 C101 1.332 . S
C102 C103 1.267 . S
C103 H71 0.929 . S
C103 C102 1.267 . S
C103 C104 1.251 . S
C104 H74 0.929 . S
C104 N100 1.418 . S
C104 C103 1.251 . S
C105 H72 0.930 . S
C105 C107 1.406 . S
C105 C110 1.261 . S
C106 H73 0.930 . S
C106 N108 1.325 . S
C106 C109 1.357 . S
C107 H75 0.928 . S
C107 C105 1.406 . S
C107 N108 1.261 . S
N108 Co59 2.214 . S
N108 C106 1.325 . S
N108 C107 1.261 . S
C109 H79 0.931 . S
C109 C106 1.357 . S
C109 C110 1.312 . S
C110 H81 0.930 . S
C110 C105 1.261 . S
C110 C109 1.312 . S
C111 O83 1.214 . S
C111 O91 1.234 . S
C112 H84 0.929 . S
C112 C115 1.391 1_655 S
C112 C117 1.391 . S
C113 H85 0.929 . S
C113 C114 1.390 . S
C113 N116 1.391 1_455 S
C114 H86 0.930 . S
C114 C113 1.390 . S
C114 C115 1.392 . S
C115 H87 0.929 . S
C115 C112 1.391 1_455 S
C115 C114 1.392 . S
N116 Co60 2.257 . S
N116 C113 1.391 1_655 S
N116 C117 1.388 . S
C117 H88 0.930 . S
C117 C112 1.391 . S
C117 N116 1.388 . S
Co118 O120 2.143 . S
Co118 O126 2.074 . S
Co118 O129 2.093 . S
Co118 O142 2.097 . S
Co118 N159 2.151 . S
Co118 N167 2.214 . S
Co119 O120 2.160 . S
Co119 O125 2.058 . S
Co119 O135 2.057 . S
Co119 O150 2.037 . S
Co119 N154 2.145 . S
Co119 N175 2.257 . S
O120 Co118 2.143 . S
O120 Co119 2.160 . S
C121 O122 1.278 . S
C121 O129 1.224 . S
O122 C121 1.278 . S
C123 O124 1.245 . S
C123 O135 1.232 . S
O124 C123 1.245 . S
O125 Co119 2.058 . S
O125 C151 1.269 . S
O126 Co118 2.074 . S
O126 C151 1.257 . S
H127 C152 0.930 . S
H128 C158 0.930 . S
O129 Co118 2.093 . S
O129 C121 1.224 . S
H130 C162 0.929 . S
H131 C164 0.930 . S
H132 C165 0.930 . S
H133 C163 0.929 . S
H134 C166 0.928 . S
O135 Co119 2.057 . S
O135 C123 1.232 . S
H136 C155 0.929 . S
H137 C156 0.929 . S
H138 C168 0.931 . S
H139 C160 0.929 . S
H140 C169 0.930 . S
H141 C161 0.931 . S
O142 Co118 2.097 . S
O142 C170 1.214 . S
H143 C171 0.929 . S
H144 C172 0.929 . S
H145 C173 0.930 . S
H146 C174 0.929 . S
H147 C176 0.930 . S
H148 C153 0.930 . S
H149 C157 0.930 . S
O150 Co119 2.037 . S
O150 C170 1.234 . S
C151 O125 1.269 . S
C151 O126 1.257 . S
C152 H127 0.930 . S
C152 C155 1.388 . S
C152 C157 1.418 . S
C153 H148 0.930 . S
C153 C156 1.404 . S
C153 C157 1.353 . S
N154 Co119 2.145 . S
N154 C155 1.397 . S
N154 C156 1.334 . S
C155 H136 0.929 . S
C155 C152 1.388 . S
C155 N154 1.397 . S
C156 H137 0.929 . S
C156 C153 1.404 . S
C156 N154 1.334 . S
C157 H149 0.930 . S
C157 C152 1.418 . S
C157 C153 1.353 . S
C158 H128 0.930 . S
C158 N159 1.330 . S
C158 C160 1.446 . S
N159 Co118 2.151 . S
N159 C158 1.330 . S
N159 C163 1.418 . S
C160 H139 0.929 . S
C160 C158 1.446 . S
C160 C161 1.332 . S
C161 H141 0.931 . S
C161 C160 1.332 . S
C161 C162 1.267 . S
C162 H130 0.929 . S
C162 C161 1.267 . S
C162 C163 1.251 . S
C163 H133 0.929 . S
C163 N159 1.418 . S
C163 C162 1.251 . S
C164 H131 0.930 . S
C164 C166 1.406 . S
C164 C169 1.261 . S
C165 H132 0.930 . S
C165 N167 1.325 . S
C165 C168 1.357 . S
C166 H134 0.928 . S
C166 C164 1.406 . S
C166 N167 1.261 . S
N167 Co118 2.214 . S
N167 C165 1.325 . S
N167 C166 1.261 . S
C168 H138 0.931 . S
C168 C165 1.357 . S
C168 C169 1.312 . S
C169 H140 0.930 . S
C169 C164 1.261 . S
C169 C168 1.312 . S
C170 O142 1.214 . S
C170 O150 1.234 . S
C171 H143 0.929 . S
C171 C174 1.391 . S
C171 C176 1.391 . S
C172 H144 0.929 . S
C172 C173 1.390 . S
C172 N175 1.391 . S
C173 H145 0.930 . S
C173 C172 1.390 . S
C173 C174 1.392 . S
C174 H146 0.929 . S
C174 C171 1.391 . S
C174 C173 1.392 . S
N175 Co119 2.257 . S
N175 C172 1.391 . S
N175 C176 1.388 . S
C176 H147 0.930 . S
C176 C171 1.391 . S
C176 N175 1.388 . S
Co177 O179 2.143 . S
Co177 O185 2.074 . S
Co177 O188 2.093 1_554 S
Co177 O201 2.097 . S
Co177 N218 2.151 . S
Co177 N226 2.214 . S
Co178 O179 2.160 . S
Co178 O184 2.058 . S
Co178 O194 2.057 . S
Co178 O209 2.037 . S
Co178 N213 2.145 . S
Co178 N234 2.257 . S
O179 Co177 2.143 . S
O179 Co178 2.160 . S
C180 O181 1.278 . S
C180 O188 1.224 . S
O181 C180 1.278 . S
C182 O183 1.245 . S
C182 O194 1.232 . S
O183 C182 1.245 . S
O184 Co178 2.058 . S
O184 C210 1.269 . S
O185 Co177 2.074 . S
O185 C210 1.257 . S
H186 C211 0.930 . S
H187 C217 0.930 . S
O188 Co177 2.093 1_556 S
O188 C180 1.224 . S
H189 C221 0.929 . S
H190 C223 0.930 . S
H191 C224 0.930 . S
H192 C222 0.929 . S
H193 C225 0.928 . S
O194 Co178 2.057 . S
O194 C182 1.232 . S
H195 C214 0.929 . S
H196 C215 0.929 . S
H197 C227 0.931 . S
H198 C219 0.929 . S
H199 C228 0.930 1_545 S
H200 C220 0.931 . S
O201 Co177 2.097 . S
O201 C229 1.214 . S
H202 C230 0.929 . S
H203 C231 0.929 . S
H204 C232 0.930 . S
H205 C233 0.929 . S
H206 C235 0.930 . S
H207 C212 0.930 . S
H208 C216 0.930 . S
O209 Co178 2.037 . S
O209 C229 1.234 . S
C210 O184 1.269 . S
C210 O185 1.257 . S
C211 H186 0.930 . S
C211 C214 1.388 . S
C211 C216 1.418 . S
C212 H207 0.930 . S
C212 C215 1.404 . S
C212 C216 1.353 . S
N213 Co178 2.145 . S
N213 C214 1.397 . S
N213 C215 1.334 . S
C214 H195 0.929 . S
C214 C211 1.388 . S
C214 N213 1.397 . S
C215 H196 0.929 . S
C215 C212 1.404 . S
C215 N213 1.334 . S
C216 H208 0.930 . S
C216 C211 1.418 . S
C216 C212 1.353 . S
C217 H187 0.930 . S
C217 N218 1.330 . S
C217 C219 1.446 . S
N218 Co177 2.151 . S
N218 C217 1.330 . S
N218 C222 1.418 . S
C219 H198 0.929 . S
C219 C217 1.446 . S
C219 C220 1.332 . S
C220 H200 0.931 . S
C220 C219 1.332 . S
C220 C221 1.267 . S
C221 H189 0.929 . S
C221 C220 1.267 . S
C221 C222 1.251 . S
C222 H192 0.929 . S
C222 N218 1.418 . S
C222 C221 1.251 . S
C223 H190 0.930 . S
C223 C225 1.406 . S
C223 C228 1.261 . S
C224 H191 0.930 . S
C224 N226 1.325 . S
C224 C227 1.357 . S
C225 H193 0.928 . S
C225 C223 1.406 . S
C225 N226 1.261 . S
N226 Co177 2.214 . S
N226 C224 1.325 . S
N226 C225 1.261 . S
C227 H197 0.931 . S
C227 C224 1.357 . S
C227 C228 1.312 . S
C228 H199 0.930 1_565 S
C228 C223 1.261 . S
C228 C227 1.312 . S
C229 O201 1.214 . S
C229 O209 1.234 . S
C230 H202 0.929 . S
C230 C233 1.391 . S
C230 C235 1.391 1_556 S
C231 H203 0.929 . S
C231 C232 1.390 . S
C231 N234 1.391 . S
C232 H204 0.930 . S
C232 C231 1.390 . S
C232 C233 1.392 1_554 S
C233 H205 0.929 . S
C233 C230 1.391 . S
C233 C232 1.392 1_556 S
N234 Co178 2.257 . S
N234 C231 1.391 . S
N234 C235 1.388 . S
C235 H206 0.930 . S
C235 C230 1.391 1_554 S
C235 N234 1.388 . S
Co236 O238 2.143 . S
Co236 O244 2.074 1_554 S
Co236 O247 2.093 . S
Co236 O260 2.097 . S
Co236 N277 2.151 . S
Co236 N285 2.214 . S
Co237 O238 2.160 1_556 S
Co237 O243 2.058 . S
Co237 O253 2.057 . S
Co237 O268 2.037 . S
Co237 N272 2.145 . S
Co237 N293 2.257 1_556 S
O238 Co236 2.143 . S
O238 Co237 2.160 1_554 S
C239 O240 1.278 . S
C239 O247 1.224 . S
O240 C239 1.278 . S
C241 O242 1.245 1_556 S
C241 O253 1.232 . S
O242 C241 1.245 1_554 S
O243 Co237 2.058 . S
O243 C269 1.269 . S
O244 Co236 2.074 1_556 S
O244 C269 1.257 . S
H245 C270 0.930 . S
H246 C276 0.930 . S
O247 Co236 2.093 . S
O247 C239 1.224 . S
H248 C280 0.929 . S
H249 C282 0.930 . S
H250 C283 0.930 1_556 S
H251 C281 0.929 . S
H252 C284 0.928 . S
O253 Co237 2.057 . S
O253 C241 1.232 . S
H254 C273 0.929 . S
H255 C274 0.929 . S
H256 C286 0.931 . S
H257 C278 0.929 . S
H258 C287 0.930 1_655 S
H259 C279 0.931 . S
O260 Co236 2.097 . S
O260 C288 1.214 . S
H261 C289 0.929 . S
H262 C290 0.929 . S
H263 C291 0.930 . S
H264 C292 0.929 . S
H265 C294 0.930 . S
H266 C271 0.930 . S
H267 C275 0.930 . S
O268 Co237 2.037 . S
O268 C288 1.234 1_556 S
C269 O243 1.269 . S
C269 O244 1.257 . S
C270 H245 0.930 . S
C270 C273 1.388 . S
C270 C275 1.418 . S
C271 H266 0.930 . S
C271 C274 1.404 . S
C271 C275 1.353 . S
N272 Co237 2.145 . S
N272 C273 1.397 . S
N272 C274 1.334 . S
C273 H254 0.929 . S
C273 C270 1.388 . S
C273 N272 1.397 . S
C274 H255 0.929 . S
C274 C271 1.404 . S
C274 N272 1.334 . S
C275 H267 0.930 . S
C275 C270 1.418 . S
C275 C271 1.353 . S
C276 H246 0.930 . S
C276 N277 1.330 . S
C276 C278 1.446 . S
N277 Co236 2.151 . S
N277 C276 1.330 . S
N277 C281 1.418 1_554 S
C278 H257 0.929 . S
C278 C276 1.446 . S
C278 C279 1.332 . S
C279 H259 0.931 . S
C279 C278 1.332 . S
C279 C280 1.267 1_554 S
C280 H248 0.929 . S
C280 C279 1.267 1_556 S
C280 C281 1.251 . S
C281 H251 0.929 . S
C281 N277 1.418 1_556 S
C281 C280 1.251 . S
C282 H249 0.930 . S
C282 C284 1.406 . S
C282 C287 1.261 . S
C283 H250 0.930 1_554 S
C283 N285 1.325 . S
C283 C286 1.357 1_554 S
C284 H252 0.928 . S
C284 C282 1.406 . S
C284 N285 1.261 . S
N285 Co236 2.214 . S
N285 C283 1.325 . S
N285 C284 1.261 . S
C286 H256 0.931 . S
C286 C283 1.357 1_556 S
C286 C287 1.312 1_556 S
C287 H258 0.930 1_455 S
C287 C282 1.261 . S
C287 C286 1.312 1_554 S
C288 O260 1.214 . S
C288 O268 1.234 1_554 S
C289 H261 0.929 . S
C289 C292 1.391 . S
C289 C294 1.391 . S
C290 H262 0.929 . S
C290 C291 1.390 . S
C290 N293 1.391 . S
C291 H263 0.930 . S
C291 C290 1.390 . S
C291 C292 1.392 . S
C292 H264 0.929 . S
C292 C289 1.391 . S
C292 C291 1.392 . S
N293 Co237 2.257 1_554 S
N293 C290 1.391 . S
N293 C294 1.388 . S
C294 H265 0.930 . S
C294 C289 1.391 . S
C294 N293 1.388 . S
Co295 O297 2.143 . S
Co295 O303 2.074 . S
Co295 O306 2.093 . S
Co295 O319 2.097 . S
Co295 N336 2.151 . S
Co295 N344 2.214 . S
Co296 O297 2.160 . S
Co296 O302 2.058 . S
Co296 O312 2.057 . S
Co296 O327 2.037 . S
Co296 N331 2.145 . S
Co296 N352 2.257 . S
O297 Co295 2.143 . S
O297 Co296 2.160 . S
C298 O299 1.278 . S
C298 O306 1.224 . S
O299 C298 1.278 . S
C300 O301 1.245 . S
C300 O312 1.232 . S
O301 C300 1.245 . S
O302 Co296 2.058 . S
O302 C328 1.269 . S
O303 Co295 2.074 . S
O303 C328 1.257 . S
H304 C329 0.930 . S
H305 C335 0.930 . S
O306 Co295 2.093 . S
O306 C298 1.224 . S
H307 C339 0.929 . S
H308 C341 0.930 . S
H309 C342 0.930 . S
H310 C340 0.929 . S
H311 C343 0.928 . S
O312 Co296 2.057 . S
O312 C300 1.232 . S
H313 C332 0.929 . S
H314 C333 0.929 . S
H315 C345 0.931 . S
H316 C337 0.929 . S
H317 C346 0.930 . S
H318 C338 0.931 . S
O319 Co295 2.097 . S
O319 C347 1.214 . S
H320 C348 0.929 . S
H321 C349 0.929 . S
H322 C350 0.930 . S
H323 C351 0.929 . S
H324 C353 0.930 . S
H325 C330 0.930 . S
H326 C334 0.930 . S
O327 Co296 2.037 . S
O327 C347 1.234 . S
C328 O302 1.269 . S
C328 O303 1.257 . S
C329 H304 0.930 . S
C329 C332 1.388 . S
C329 C334 1.418 . S
C330 H325 0.930 . S
C330 C333 1.404 . S
C330 C334 1.353 . S
N331 Co296 2.145 . S
N331 C332 1.397 . S
N331 C333 1.334 . S
C332 H313 0.929 . S
C332 C329 1.388 . S
C332 N331 1.397 . S
C333 H314 0.929 . S
C333 C330 1.404 . S
C333 N331 1.334 . S
C334 H326 0.930 . S
C334 C329 1.418 . S
C334 C330 1.353 . S
C335 H305 0.930 . S
C335 N336 1.330 . S
C335 C337 1.446 . S
N336 Co295 2.151 . S
N336 C335 1.330 . S
N336 C340 1.418 . S
C337 H316 0.929 . S
C337 C335 1.446 . S
C337 C338 1.332 . S
C338 H318 0.931 . S
C338 C337 1.332 . S
C338 C339 1.267 . S
C339 H307 0.929 . S
C339 C338 1.267 . S
C339 C340 1.251 . S
C340 H310 0.929 . S
C340 N336 1.418 . S
C340 C339 1.251 . S
C341 H308 0.930 . S
C341 C343 1.406 . S
C341 C346 1.261 . S
C342 H309 0.930 . S
C342 N344 1.325 . S
C342 C345 1.357 . S
C343 H311 0.928 . S
C343 C341 1.406 . S
C343 N344 1.261 . S
N344 Co295 2.214 . S
N344 C342 1.325 . S
N344 C343 1.261 . S
C345 H315 0.931 . S
C345 C342 1.357 . S
C345 C346 1.312 . S
C346 H317 0.930 . S
C346 C341 1.261 . S
C346 C345 1.312 . S
C347 O319 1.214 . S
C347 O327 1.234 . S
C348 H320 0.929 . S
C348 C351 1.391 . S
C348 C353 1.391 . S
C349 H321 0.929 . S
C349 C350 1.390 . S
C349 N352 1.391 . S
C350 H322 0.930 . S
C350 C349 1.390 . S
C350 C351 1.392 . S
C351 H323 0.929 . S
C351 C348 1.391 . S
C351 C350 1.392 . S
N352 Co296 2.257 . S
N352 C349 1.391 . S
N352 C353 1.388 . S
C353 H324 0.930 . S
C353 C348 1.391 . S
C353 N352 1.388 . S
Co354 O356 2.143 . S
Co354 O362 2.074 . S
Co354 O365 2.093 . S
Co354 O378 2.097 . S
Co354 N395 2.151 . S
Co354 N403 2.214 . S
Co355 O356 2.160 . S
Co355 O361 2.058 . S
Co355 O371 2.057 . S
Co355 O386 2.037 . S
Co355 N390 2.145 . S
Co355 N411 2.257 . S
O356 Co354 2.143 . S
O356 Co355 2.160 . S
C357 O358 1.278 . S
C357 O365 1.224 . S
O358 C357 1.278 . S
C359 O360 1.245 . S
C359 O371 1.232 . S
O360 C359 1.245 . S
O361 Co355 2.058 . S
O361 C387 1.269 . S
O362 Co354 2.074 . S
O362 C387 1.257 . S
H363 C388 0.930 . S
H364 C394 0.930 . S
O365 Co354 2.093 . S
O365 C357 1.224 . S
H366 C398 0.929 . S
H367 C400 0.930 . S
H368 C401 0.930 . S
H369 C399 0.929 . S
H370 C402 0.928 . S
O371 Co355 2.057 . S
O371 C359 1.232 . S
H372 C391 0.929 . S
H373 C392 0.929 . S
H374 C404 0.931 . S
H375 C396 0.929 . S
H376 C405 0.930 . S
H377 C397 0.931 . S
O378 Co354 2.097 . S
O378 C406 1.214 . S
H379 C407 0.929 . S
H380 C408 0.929 . S
H381 C409 0.930 . S
H382 C410 0.929 . S
H383 C412 0.930 . S
H384 C389 0.930 . S
H385 C393 0.930 . S
O386 Co355 2.037 . S
O386 C406 1.234 . S
C387 O361 1.269 . S
C387 O362 1.257 . S
C388 H363 0.930 . S
C388 C391 1.388 1_565 S
C388 C393 1.418 . S
C389 H384 0.930 . S
C389 C392 1.404 1_565 S
C389 C393 1.353 . S
N390 Co355 2.145 . S
N390 C391 1.397 . S
N390 C392 1.334 . S
C391 H372 0.929 . S
C391 C388 1.388 1_545 S
C391 N390 1.397 . S
C392 H373 0.929 . S
C392 C389 1.404 1_545 S
C392 N390 1.334 . S
C393 H385 0.930 . S
C393 C388 1.418 . S
C393 C389 1.353 . S
C394 H364 0.930 . S
C394 N395 1.330 . S
C394 C396 1.446 . S
N395 Co354 2.151 . S
N395 C394 1.330 . S
N395 C399 1.418 . S
C396 H375 0.929 . S
C396 C394 1.446 . S
C396 C397 1.332 . S
C397 H377 0.931 . S
C397 C396 1.332 . S
C397 C398 1.267 . S
C398 H366 0.929 . S
C398 C397 1.267 . S
C398 C399 1.251 . S
C399 H369 0.929 . S
C399 N395 1.418 . S
C399 C398 1.251 . S
C400 H367 0.930 . S
C400 C402 1.406 . S
C400 C405 1.261 . S
C401 H368 0.930 . S
C401 N403 1.325 . S
C401 C404 1.357 . S
C402 H370 0.928 . S
C402 C400 1.406 . S
C402 N403 1.261 . S
N403 Co354 2.214 . S
N403 C401 1.325 . S
N403 C402 1.261 . S
C404 H374 0.931 . S
C404 C401 1.357 . S
C404 C405 1.312 . S
C405 H376 0.930 . S
C405 C400 1.261 . S
C405 C404 1.312 . S
C406 O378 1.214 . S
C406 O386 1.234 . S
C407 H379 0.929 . S
C407 C410 1.391 1_545 S
C407 C412 1.391 . S
C408 H380 0.929 . S
C408 C409 1.390 . S
C408 N411 1.391 1_565 S
C409 H381 0.930 . S
C409 C408 1.390 . S
C409 C410 1.392 . S
C410 H382 0.929 . S
C410 C407 1.391 1_565 S
C410 C409 1.392 . S
N411 Co355 2.257 . S
N411 C408 1.391 1_545 S
N411 C412 1.388 . S
C412 H383 0.930 . S
C412 C407 1.391 . S
C412 N411 1.388 . S
Co413 O415 2.143 . S
Co413 O421 2.074 . S
Co413 O424 2.093 . S
Co413 O437 2.097 . S
Co413 N454 2.151 . S
Co413 N462 2.214 . S
Co414 O415 2.160 . S
Co414 O420 2.058 . S
Co414 O430 2.057 . S
Co414 O445 2.037 . S
Co414 N449 2.145 . S
Co414 N470 2.257 . S
O415 Co413 2.143 . S
O415 Co414 2.160 . S
C416 O417 1.278 . S
C416 O424 1.224 . S
O417 C416 1.278 . S
C418 O419 1.245 . S
C418 O430 1.232 . S
O419 C418 1.245 . S
O420 Co414 2.058 . S
O420 C446 1.269 . S
O421 Co413 2.074 . S
O421 C446 1.257 . S
H422 C447 0.930 . S
H423 C453 0.930 . S
O424 Co413 2.093 . S
O424 C416 1.224 . S
H425 C457 0.929 . S
H426 C459 0.930 . S
H427 C460 0.930 . S
H428 C458 0.929 . S
H429 C461 0.928 . S
O430 Co414 2.057 . S
O430 C418 1.232 . S
H431 C450 0.929 . S
H432 C451 0.929 . S
H433 C463 0.931 . S
H434 C455 0.929 . S
H435 C464 0.930 1_545 S
H436 C456 0.931 . S
O437 Co413 2.097 . S
O437 C465 1.214 . S
H438 C466 0.929 . S
H439 C467 0.929 . S
H440 C468 0.930 . S
H441 C469 0.929 . S
H442 C471 0.930 . S
H443 C448 0.930 . S
H444 C452 0.930 . S
O445 Co414 2.037 . S
O445 C465 1.234 . S
C446 O420 1.269 . S
C446 O421 1.257 . S
C447 H422 0.930 . S
C447 C450 1.388 1_455 S
C447 C452 1.418 . S
C448 H443 0.930 . S
C448 C451 1.404 1_455 S
C448 C452 1.353 . S
N449 Co414 2.145 . S
N449 C450 1.397 . S
N449 C451 1.334 . S
C450 H431 0.929 . S
C450 C447 1.388 1_655 S
C450 N449 1.397 . S
C451 H432 0.929 . S
C451 C448 1.404 1_655 S
C451 N449 1.334 . S
C452 H444 0.930 . S
C452 C447 1.418 . S
C452 C448 1.353 . S
C453 H423 0.930 . S
C453 N454 1.330 . S
C453 C455 1.446 . S
N454 Co413 2.151 . S
N454 C453 1.330 . S
N454 C458 1.418 . S
C455 H434 0.929 . S
C455 C453 1.446 . S
C455 C456 1.332 . S
C456 H436 0.931 . S
C456 C455 1.332 . S
C456 C457 1.267 . S
C457 H425 0.929 . S
C457 C456 1.267 . S
C457 C458 1.251 . S
C458 H428 0.929 . S
C458 N454 1.418 . S
C458 C457 1.251 . S
C459 H426 0.930 . S
C459 C461 1.406 . S
C459 C464 1.261 . S
C460 H427 0.930 . S
C460 N462 1.325 . S
C460 C463 1.357 . S
C461 H429 0.928 . S
C461 C459 1.406 . S
C461 N462 1.261 . S
N462 Co413 2.214 . S
N462 C460 1.325 . S
N462 C461 1.261 . S
C463 H433 0.931 . S
C463 C460 1.357 . S
C463 C464 1.312 . S
C464 H435 0.930 1_565 S
C464 C459 1.261 . S
C464 C463 1.312 . S
C465 O437 1.214 . S
C465 O445 1.234 . S
C466 H438 0.929 . S
C466 C469 1.391 1_655 S
C466 C471 1.391 . S
C467 H439 0.929 . S
C467 C468 1.390 . S
C467 N470 1.391 1_455 S
C468 H440 0.930 . S
C468 C467 1.390 . S
C468 C469 1.392 . S
C469 H441 0.929 . S
C469 C466 1.391 1_455 S
C469 C468 1.392 . S
N470 Co414 2.257 . S
N470 C467 1.391 1_655 S
N470 C471 1.388 . S
C471 H442 0.930 . S
C471 C466 1.391 . S
C471 N470 1.388 . S
Co472 O474 2.143 . S
Co472 O480 2.074 . S
Co472 O483 2.093 . S
Co472 O496 2.097 . S
Co472 N513 2.151 . S
Co472 N521 2.214 . S
Co473 O474 2.160 . S
Co473 O479 2.058 . S
Co473 O489 2.057 . S
Co473 O504 2.037 . S
Co473 N508 2.145 . S
Co473 N529 2.257 . S
O474 Co472 2.143 . S
O474 Co473 2.160 . S
C475 O476 1.278 . S
C475 O483 1.224 . S
O476 C475 1.278 . S
C477 O478 1.245 . S
C477 O489 1.232 . S
O478 C477 1.245 . S
O479 Co473 2.058 . S
O479 C505 1.269 . S
O480 Co472 2.074 . S
O480 C505 1.257 . S
H481 C506 0.930 . S
H482 C512 0.930 . S
O483 Co472 2.093 . S
O483 C475 1.224 . S
H484 C516 0.929 . S
H485 C518 0.930 . S
H486 C519 0.930 . S
H487 C517 0.929 . S
H488 C520 0.928 . S
O489 Co473 2.057 . S
O489 C477 1.232 . S
H490 C509 0.929 . S
H491 C510 0.929 . S
H492 C522 0.931 . S
H493 C514 0.929 . S
H494 C523 0.930 . S
H495 C515 0.931 . S
O496 Co472 2.097 . S
O496 C524 1.214 . S
H497 C525 0.929 . S
H498 C526 0.929 . S
H499 C527 0.930 . S
H500 C528 0.929 . S
H501 C530 0.930 . S
H502 C507 0.930 . S
H503 C511 0.930 . S
O504 Co473 2.037 . S
O504 C524 1.234 . S
C505 O479 1.269 . S
C505 O480 1.257 . S
C506 H481 0.930 . S
C506 C509 1.388 . S
C506 C511 1.418 . S
C507 H502 0.930 . S
C507 C510 1.404 . S
C507 C511 1.353 . S
N508 Co473 2.145 . S
N508 C509 1.397 . S
N508 C510 1.334 . S
C509 H490 0.929 . S
C509 C506 1.388 . S
C509 N508 1.397 . S
C510 H491 0.929 . S
C510 C507 1.404 . S
C510 N508 1.334 . S
C511 H503 0.930 . S
C511 C506 1.418 . S
C511 C507 1.353 . S
C512 H482 0.930 . S
C512 N513 1.330 . S
C512 C514 1.446 . S
N513 Co472 2.151 . S
N513 C512 1.330 . S
N513 C517 1.418 . S
C514 H493 0.929 . S
C514 C512 1.446 . S
C514 C515 1.332 . S
C515 H495 0.931 . S
C515 C514 1.332 . S
C515 C516 1.267 . S
C516 H484 0.929 . S
C516 C515 1.267 . S
C516 C517 1.251 . S
C517 H487 0.929 . S
C517 N513 1.418 . S
C517 C516 1.251 . S
C518 H485 0.930 . S
C518 C520 1.406 . S
C518 C523 1.261 . S
C519 H486 0.930 . S
C519 N521 1.325 . S
C519 C522 1.357 . S
C520 H488 0.928 . S
C520 C518 1.406 . S
C520 N521 1.261 . S
N521 Co472 2.214 . S
N521 C519 1.325 . S
N521 C520 1.261 . S
C522 H492 0.931 . S
C522 C519 1.357 . S
C522 C523 1.312 . S
C523 H494 0.930 . S
C523 C518 1.261 . S
C523 C522 1.312 . S
C524 O496 1.214 . S
C524 O504 1.234 . S
C525 H497 0.929 . S
C525 C528 1.391 . S
C525 C530 1.391 . S
C526 H498 0.929 . S
C526 C527 1.390 . S
C526 N529 1.391 . S
C527 H499 0.930 . S
C527 C526 1.390 . S
C527 C528 1.392 . S
C528 H500 0.929 . S
C528 C525 1.391 . S
C528 C527 1.392 . S
N529 Co473 2.257 . S
N529 C526 1.391 . S
N529 C530 1.388 . S
C530 H501 0.930 . S
C530 C525 1.391 . S
C530 N529 1.388 . S
Co531 O533 2.143 . S
Co531 O539 2.074 . S
Co531 O542 2.093 1_554 S
Co531 O555 2.097 . S
Co531 N572 2.151 . S
Co531 N580 2.214 . S
Co532 O533 2.160 . S
Co532 O538 2.058 . S
Co532 O548 2.057 . S
Co532 O563 2.037 . S
Co532 N567 2.145 . S
Co532 N588 2.257 . S
O533 Co531 2.143 . S
O533 Co532 2.160 . S
C534 O535 1.278 . S
C534 O542 1.224 . S
O535 C534 1.278 . S
C536 O537 1.245 . S
C536 O548 1.232 . S
O537 C536 1.245 . S
O538 Co532 2.058 . S
O538 C564 1.269 . S
O539 Co531 2.074 . S
O539 C564 1.257 . S
H540 C565 0.930 . S
H541 C571 0.930 . S
O542 Co531 2.093 1_556 S
O542 C534 1.224 . S
H543 C575 0.929 . S
H544 C577 0.930 . S
H545 C578 0.930 . S
H546 C576 0.929 . S
H547 C579 0.928 . S
O548 Co532 2.057 . S
O548 C536 1.232 . S
H549 C568 0.929 . S
H550 C569 0.929 . S
H551 C581 0.931 . S
H552 C573 0.929 . S
H553 C582 0.930 1_565 S
H554 C574 0.931 . S
O555 Co531 2.097 . S
O555 C583 1.214 . S
H556 C584 0.929 . S
H557 C585 0.929 . S
H558 C586 0.930 . S
H559 C587 0.929 . S
H560 C589 0.930 . S
H561 C566 0.930 . S
H562 C570 0.930 . S
O563 Co532 2.037 . S
O563 C583 1.234 . S
C564 O538 1.269 . S
C564 O539 1.257 . S
C565 H540 0.930 . S
C565 C568 1.388 . S
C565 C570 1.418 . S
C566 H561 0.930 . S
C566 C569 1.404 . S
C566 C570 1.353 . S
N567 Co532 2.145 . S
N567 C568 1.397 . S
N567 C569 1.334 . S
C568 H549 0.929 . S
C568 C565 1.388 . S
C568 N567 1.397 . S
C569 H550 0.929 . S
C569 C566 1.404 . S
C569 N567 1.334 . S
C570 H562 0.930 . S
C570 C565 1.418 . S
C570 C566 1.353 . S
C571 H541 0.930 . S
C571 N572 1.330 . S
C571 C573 1.446 . S
N572 Co531 2.151 . S
N572 C571 1.330 . S
N572 C576 1.418 . S
C573 H552 0.929 . S
C573 C571 1.446 . S
C573 C574 1.332 . S
C574 H554 0.931 . S
C574 C573 1.332 . S
C574 C575 1.267 . S
C575 H543 0.929 . S
C575 C574 1.267 . S
C575 C576 1.251 . S
C576 H546 0.929 . S
C576 N572 1.418 . S
C576 C575 1.251 . S
C577 H544 0.930 . S
C577 C579 1.406 . S
C577 C582 1.261 . S
C578 H545 0.930 . S
C578 N580 1.325 . S
C578 C581 1.357 . S
C579 H547 0.928 . S
C579 C577 1.406 . S
C579 N580 1.261 . S
N580 Co531 2.214 . S
N580 C578 1.325 . S
N580 C579 1.261 . S
C581 H551 0.931 . S
C581 C578 1.357 . S
C581 C582 1.312 . S
C582 H553 0.930 1_545 S
C582 C577 1.261 . S
C582 C581 1.312 . S
C583 O555 1.214 . S
C583 O563 1.234 . S
C584 H556 0.929 . S
C584 C587 1.391 . S
C584 C589 1.391 1_556 S
C585 H557 0.929 . S
C585 C586 1.390 . S
C585 N588 1.391 . S
C586 H558 0.930 . S
C586 C585 1.390 . S
C586 C587 1.392 1_554 S
C587 H559 0.929 . S
C587 C584 1.391 . S
C587 C586 1.392 1_556 S
N588 Co532 2.257 . S
N588 C585 1.391 . S
N588 C589 1.388 . S
C589 H560 0.930 . S
C589 C584 1.391 1_554 S
C589 N588 1.388 . S
Co590 O592 2.143 . S
Co590 O598 2.074 . S
Co590 O601 2.093 . S
Co590 O614 2.097 . S
Co590 N631 2.151 . S
Co590 N639 2.214 . S
Co591 O592 2.160 . S
Co591 O597 2.058 . S
Co591 O607 2.057 . S
Co591 O622 2.037 . S
Co591 N626 2.145 . S
Co591 N647 2.257 . S
O592 Co590 2.143 . S
O592 Co591 2.160 . S
C593 O594 1.278 . S
C593 O601 1.224 . S
O594 C593 1.278 . S
C595 O596 1.245 . S
C595 O607 1.232 . S
O596 C595 1.245 . S
O597 Co591 2.058 . S
O597 C623 1.269 . S
O598 Co590 2.074 . S
O598 C623 1.257 . S
H599 C624 0.930 . S
H600 C630 0.930 . S
O601 Co590 2.093 . S
O601 C593 1.224 . S
H602 C634 0.929 . S
H603 C636 0.930 . S
H604 C637 0.930 . S
H605 C635 0.929 . S
H606 C638 0.928 . S
O607 Co591 2.057 . S
O607 C595 1.232 . S
H608 C627 0.929 . S
H609 C628 0.929 . S
H610 C640 0.931 . S
H611 C632 0.929 . S
H612 C641 0.930 1_455 S
H613 C633 0.931 . S
O614 Co590 2.097 . S
O614 C642 1.214 . S
H615 C643 0.929 . S
H616 C644 0.929 . S
H617 C645 0.930 . S
H618 C646 0.929 . S
H619 C648 0.930 . S
H620 C625 0.930 . S
H621 C629 0.930 . S
O622 Co591 2.037 . S
O622 C642 1.234 . S
C623 O597 1.269 . S
C623 O598 1.257 . S
C624 H599 0.930 . S
C624 C627 1.388 1_545 S
C624 C629 1.418 . S
C625 H620 0.930 . S
C625 C628 1.404 1_545 S
C625 C629 1.353 . S
N626 Co591 2.145 . S
N626 C627 1.397 . S
N626 C628 1.334 . S
C627 H608 0.929 . S
C627 C624 1.388 1_565 S
C627 N626 1.397 . S
C628 H609 0.929 . S
C628 C625 1.404 1_565 S
C628 N626 1.334 . S
C629 H621 0.930 . S
C629 C624 1.418 . S
C629 C625 1.353 . S
C630 H600 0.930 . S
C630 N631 1.330 . S
C630 C632 1.446 . S
N631 Co590 2.151 . S
N631 C630 1.330 . S
N631 C635 1.418 . S
C632 H611 0.929 . S
C632 C630 1.446 . S
C632 C633 1.332 . S
C633 H613 0.931 . S
C633 C632 1.332 . S
C633 C634 1.267 . S
C634 H602 0.929 . S
C634 C633 1.267 . S
C634 C635 1.251 . S
C635 H605 0.929 . S
C635 N631 1.418 . S
C635 C634 1.251 . S
C636 H603 0.930 . S
C636 C638 1.406 . S
C636 C641 1.261 . S
C637 H604 0.930 . S
C637 N639 1.325 . S
C637 C640 1.357 . S
C638 H606 0.928 . S
C638 C636 1.406 . S
C638 N639 1.261 . S
N639 Co590 2.214 . S
N639 C637 1.325 . S
N639 C638 1.261 . S
C640 H610 0.931 . S
C640 C637 1.357 . S
C640 C641 1.312 . S
C641 H612 0.930 1_655 S
C641 C636 1.261 . S
C641 C640 1.312 . S
C642 O614 1.214 . S
C642 O622 1.234 . S
C643 H615 0.929 . S
C643 C646 1.391 1_565 S
C643 C648 1.391 . S
C644 H616 0.929 . S
C644 C645 1.390 . S
C644 N647 1.391 1_545 S
C645 H617 0.930 . S
C645 C644 1.390 . S
C645 C646 1.392 . S
C646 H618 0.929 . S
C646 C643 1.391 1_545 S
C646 C645 1.392 . S
N647 Co591 2.257 . S
N647 C644 1.391 1_565 S
N647 C648 1.388 . S
C648 H619 0.930 . S
C648 C643 1.391 . S
C648 N647 1.388 . S
Co649 O651 2.143 . S
Co649 O657 2.074 . S
Co649 O660 2.093 . S
Co649 O673 2.097 . S
Co649 N690 2.151 . S
Co649 N698 2.214 . S
Co650 O651 2.160 . S
Co650 O656 2.058 . S
Co650 O666 2.057 . S
Co650 O681 2.037 . S
Co650 N685 2.145 . S
Co650 N706 2.257 . S
O651 Co649 2.143 . S
O651 Co650 2.160 . S
C652 O653 1.278 . S
C652 O660 1.224 . S
O653 C652 1.278 . S
C654 O655 1.245 . S
C654 O666 1.232 . S
O655 C654 1.245 . S
O656 Co650 2.058 . S
O656 C682 1.269 . S
O657 Co649 2.074 . S
O657 C682 1.257 . S
H658 C683 0.930 . S
H659 C689 0.930 . S
O660 Co649 2.093 . S
O660 C652 1.224 . S
H661 C693 0.929 . S
H662 C695 0.930 . S
H663 C696 0.930 . S
H664 C694 0.929 . S
H665 C697 0.928 . S
O666 Co650 2.057 . S
O666 C654 1.232 . S
H667 C686 0.929 . S
H668 C687 0.929 . S
H669 C699 0.931 . S
H670 C691 0.929 . S
H671 C700 0.930 . S
H672 C692 0.931 . S
O673 Co649 2.097 . S
O673 C701 1.214 . S
H674 C702 0.929 . S
H675 C703 0.929 . S
H676 C704 0.930 . S
H677 C705 0.929 . S
H678 C707 0.930 . S
H679 C684 0.930 . S
H680 C688 0.930 . S
O681 Co650 2.037 . S
O681 C701 1.234 . S
C682 O656 1.269 . S
C682 O657 1.257 . S
C683 H658 0.930 . S
C683 C686 1.388 1_655 S
C683 C688 1.418 . S
C684 H679 0.930 . S
C684 C687 1.404 1_655 S
C684 C688 1.353 . S
N685 Co650 2.145 . S
N685 C686 1.397 . S
N685 C687 1.334 . S
C686 H667 0.929 . S
C686 C683 1.388 1_455 S
C686 N685 1.397 . S
C687 H668 0.929 . S
C687 C684 1.404 1_455 S
C687 N685 1.334 . S
C688 H680 0.930 . S
C688 C683 1.418 . S
C688 C684 1.353 . S
C689 H659 0.930 . S
C689 N690 1.330 . S
C689 C691 1.446 . S
N690 Co649 2.151 . S
N690 C689 1.330 . S
N690 C694 1.418 . S
C691 H670 0.929 . S
C691 C689 1.446 . S
C691 C692 1.332 . S
C692 H672 0.931 . S
C692 C691 1.332 . S
C692 C693 1.267 . S
C693 H661 0.929 . S
C693 C692 1.267 . S
C693 C694 1.251 . S
C694 H664 0.929 . S
C694 N690 1.418 . S
C694 C693 1.251 . S
C695 H662 0.930 . S
C695 C697 1.406 . S
C695 C700 1.261 . S
C696 H663 0.930 . S
C696 N698 1.325 . S
C696 C699 1.357 . S
C697 H665 0.928 . S
C697 C695 1.406 . S
C697 N698 1.261 . S
N698 Co649 2.214 . S
N698 C696 1.325 . S
N698 C697 1.261 . S
C699 H669 0.931 . S
C699 C696 1.357 . S
C699 C700 1.312 . S
C700 H671 0.930 . S
C700 C695 1.261 . S
C700 C699 1.312 . S
C701 O673 1.214 . S
C701 O681 1.234 . S
C702 H674 0.929 . S
C702 C705 1.391 1_455 S
C702 C707 1.391 . S
C703 H675 0.929 . S
C703 C704 1.390 . S
C703 N706 1.391 1_655 S
C704 H676 0.930 . S
C704 C703 1.390 . S
C704 C705 1.392 . S
C705 H677 0.929 . S
C705 C702 1.391 1_655 S
C705 C704 1.392 . S
N706 Co650 2.257 . S
N706 C703 1.391 1_455 S
N706 C707 1.388 . S
C707 H678 0.930 . S
C707 C702 1.391 . S
C707 N706 1.388 . S
Co708 O710 2.143 . S
Co708 O716 2.074 . S
Co708 O719 2.093 . S
Co708 O732 2.097 . S
Co708 N749 2.151 . S
Co708 N757 2.214 . S
Co709 O710 2.160 . S
Co709 O715 2.058 . S
Co709 O725 2.057 . S
Co709 O740 2.037 . S
Co709 N744 2.145 . S
Co709 N765 2.257 . S
O710 Co708 2.143 . S
O710 Co709 2.160 . S
C711 O712 1.278 . S
C711 O719 1.224 . S
O712 C711 1.278 . S
C713 O714 1.245 . S
C713 O725 1.232 . S
O714 C713 1.245 . S
O715 Co709 2.058 . S
O715 C741 1.269 . S
O716 Co708 2.074 . S
O716 C741 1.257 . S
H717 C742 0.930 . S
H718 C748 0.930 . S
O719 Co708 2.093 . S
O719 C711 1.224 . S
H720 C752 0.929 . S
H721 C754 0.930 . S
H722 C755 0.930 . S
H723 C753 0.929 . S
H724 C756 0.928 . S
O725 Co709 2.057 . S
O725 C713 1.232 . S
H726 C745 0.929 . S
H727 C746 0.929 . S
H728 C758 0.931 . S
H729 C750 0.929 . S
H730 C759 0.930 . S
H731 C751 0.931 . S
O732 Co708 2.097 . S
O732 C760 1.214 . S
H733 C761 0.929 . S
H734 C762 0.929 . S
H735 C763 0.930 . S
H736 C764 0.929 . S
H737 C766 0.930 . S
H738 C743 0.930 . S
H739 C747 0.930 . S
O740 Co709 2.037 . S
O740 C760 1.234 . S
C741 O715 1.269 . S
C741 O716 1.257 . S
C742 H717 0.930 . S
C742 C745 1.388 1_545 S
C742 C747 1.418 . S
C743 H738 0.930 . S
C743 C746 1.404 1_545 S
C743 C747 1.353 . S
N744 Co709 2.145 . S
N744 C745 1.397 . S
N744 C746 1.334 . S
C745 H726 0.929 . S
C745 C742 1.388 1_565 S
C745 N744 1.397 . S
C746 H727 0.929 . S
C746 C743 1.404 1_565 S
C746 N744 1.334 . S
C747 H739 0.930 . S
C747 C742 1.418 . S
C747 C743 1.353 . S
C748 H718 0.930 . S
C748 N749 1.330 . S
C748 C750 1.446 . S
N749 Co708 2.151 . S
N749 C748 1.330 . S
N749 C753 1.418 . S
C750 H729 0.929 . S
C750 C748 1.446 . S
C750 C751 1.332 . S
C751 H731 0.931 . S
C751 C750 1.332 . S
C751 C752 1.267 . S
C752 H720 0.929 . S
C752 C751 1.267 . S
C752 C753 1.251 . S
C753 H723 0.929 . S
C753 N749 1.418 . S
C753 C752 1.251 . S
C754 H721 0.930 . S
C754 C756 1.406 . S
C754 C759 1.261 . S
C755 H722 0.930 . S
C755 N757 1.325 . S
C755 C758 1.357 . S
C756 H724 0.928 . S
C756 C754 1.406 . S
C756 N757 1.261 . S
N757 Co708 2.214 . S
N757 C755 1.325 . S
N757 C756 1.261 . S
C758 H728 0.931 . S
C758 C755 1.357 . S
C758 C759 1.312 . S
C759 H730 0.930 . S
C759 C754 1.261 . S
C759 C758 1.312 . S
C760 O732 1.214 . S
C760 O740 1.234 . S
C761 H733 0.929 . S
C761 C764 1.391 1_565 S
C761 C766 1.391 . S
C762 H734 0.929 . S
C762 C763 1.390 . S
C762 N765 1.391 1_545 S
C763 H735 0.930 . S
C763 C762 1.390 . S
C763 C764 1.392 . S
C764 H736 0.929 . S
C764 C761 1.391 1_545 S
C764 C763 1.392 . S
N765 Co709 2.257 . S
N765 C762 1.391 1_565 S
N765 C766 1.388 . S
C766 H737 0.930 . S
C766 C761 1.391 . S
C766 N765 1.388 . S
Co767 O769 2.143 . S
Co767 O775 2.074 . S
Co767 O778 2.093 . S
Co767 O791 2.097 . S
Co767 N808 2.151 . S
Co767 N816 2.214 . S
Co768 O769 2.160 . S
Co768 O774 2.058 . S
Co768 O784 2.057 . S
Co768 O799 2.037 . S
Co768 N803 2.145 . S
Co768 N824 2.257 . S
O769 Co767 2.143 . S
O769 Co768 2.160 . S
C770 O771 1.278 . S
C770 O778 1.224 . S
O771 C770 1.278 . S
C772 O773 1.245 . S
C772 O784 1.232 . S
O773 C772 1.245 . S
O774 Co768 2.058 . S
O774 C800 1.269 . S
O775 Co767 2.074 . S
O775 C800 1.257 . S
H776 C801 0.930 . S
H777 C807 0.930 . S
O778 Co767 2.093 . S
O778 C770 1.224 . S
H779 C811 0.929 . S
H780 C813 0.930 . S
H781 C814 0.930 . S
H782 C812 0.929 . S
H783 C815 0.928 . S
O784 Co768 2.057 . S
O784 C772 1.232 . S
H785 C804 0.929 . S
H786 C805 0.929 . S
H787 C817 0.931 . S
H788 C809 0.929 . S
H789 C818 0.930 1_565 S
H790 C810 0.931 . S
O791 Co767 2.097 . S
O791 C819 1.214 . S
H792 C820 0.929 . S
H793 C821 0.929 . S
H794 C822 0.930 . S
H795 C823 0.929 . S
H796 C825 0.930 . S
H797 C802 0.930 . S
H798 C806 0.930 . S
O799 Co768 2.037 . S
O799 C819 1.234 . S
C800 O774 1.269 . S
C800 O775 1.257 . S
C801 H776 0.930 . S
C801 C804 1.388 1_655 S
C801 C806 1.418 . S
C802 H797 0.930 . S
C802 C805 1.404 1_655 S
C802 C806 1.353 . S
N803 Co768 2.145 . S
N803 C804 1.397 . S
N803 C805 1.334 . S
C804 H785 0.929 . S
C804 C801 1.388 1_455 S
C804 N803 1.397 . S
C805 H786 0.929 . S
C805 C802 1.404 1_455 S
C805 N803 1.334 . S
C806 H798 0.930 . S
C806 C801 1.418 . S
C806 C802 1.353 . S
C807 H777 0.930 . S
C807 N808 1.330 . S
C807 C809 1.446 . S
N808 Co767 2.151 . S
N808 C807 1.330 . S
N808 C812 1.418 . S
C809 H788 0.929 . S
C809 C807 1.446 . S
C809 C810 1.332 . S
C810 H790 0.931 . S
C810 C809 1.332 . S
C810 C811 1.267 . S
C811 H779 0.929 . S
C811 C810 1.267 . S
C811 C812 1.251 . S
C812 H782 0.929 . S
C812 N808 1.418 . S
C812 C811 1.251 . S
C813 H780 0.930 . S
C813 C815 1.406 . S
C813 C818 1.261 . S
C814 H781 0.930 . S
C814 N816 1.325 . S
C814 C817 1.357 . S
C815 H783 0.928 . S
C815 C813 1.406 . S
C815 N816 1.261 . S
N816 Co767 2.214 . S
N816 C814 1.325 . S
N816 C815 1.261 . S
C817 H787 0.931 . S
C817 C814 1.357 . S
C817 C818 1.312 . S
C818 H789 0.930 1_545 S
C818 C813 1.261 . S
C818 C817 1.312 . S
C819 O791 1.214 . S
C819 O799 1.234 . S
C820 H792 0.929 . S
C820 C823 1.391 1_455 S
C820 C825 1.391 . S
C821 H793 0.929 . S
C821 C822 1.390 . S
C821 N824 1.391 1_655 S
C822 H794 0.930 . S
C822 C821 1.390 . S
C822 C823 1.392 . S
C823 H795 0.929 . S
C823 C820 1.391 1_655 S
C823 C822 1.392 . S
N824 Co768 2.257 . S
N824 C821 1.391 1_455 S
N824 C825 1.388 . S
C825 H796 0.930 . S
C825 C820 1.391 . S
C825 N824 1.388 . S
Co826 O828 2.143 . S
Co826 O834 2.074 1_554 S
Co826 O837 2.093 . S
Co826 O850 2.097 . S
Co826 N867 2.151 . S
Co826 N875 2.214 . S
Co827 O828 2.160 1_556 S
Co827 O833 2.058 . S
Co827 O843 2.057 . S
Co827 O858 2.037 . S
Co827 N862 2.145 . S
Co827 N883 2.257 1_556 S
O828 Co826 2.143 . S
O828 Co827 2.160 1_554 S
C829 O830 1.278 . S
C829 O837 1.224 . S
O830 C829 1.278 . S
C831 O832 1.245 1_556 S
C831 O843 1.232 . S
O832 C831 1.245 1_554 S
O833 Co827 2.058 . S
O833 C859 1.269 . S
O834 Co826 2.074 1_556 S
O834 C859 1.257 . S
H835 C860 0.930 . S
H836 C866 0.930 . S
O837 Co826 2.093 . S
O837 C829 1.224 . S
H838 C870 0.929 . S
H839 C872 0.930 . S
H840 C873 0.930 1_556 S
H841 C871 0.929 . S
H842 C874 0.928 . S
O843 Co827 2.057 . S
O843 C831 1.232 . S
H844 C863 0.929 . S
H845 C864 0.929 . S
H846 C876 0.931 . S
H847 C868 0.929 . S
H848 C877 0.930 1_455 S
H849 C869 0.931 . S
O850 Co826 2.097 . S
O850 C878 1.214 . S
H851 C879 0.929 . S
H852 C880 0.929 . S
H853 C881 0.930 . S
H854 C882 0.929 . S
H855 C884 0.930 . S
H856 C861 0.930 . S
H857 C865 0.930 . S
O858 Co827 2.037 . S
O858 C878 1.234 1_556 S
C859 O833 1.269 . S
C859 O834 1.257 . S
C860 H835 0.930 . S
C860 C863 1.388 . S
C860 C865 1.418 . S
C861 H856 0.930 . S
C861 C864 1.404 . S
C861 C865 1.353 . S
N862 Co827 2.145 . S
N862 C863 1.397 . S
N862 C864 1.334 . S
C863 H844 0.929 . S
C863 C860 1.388 . S
C863 N862 1.397 . S
C864 H845 0.929 . S
C864 C861 1.404 . S
C864 N862 1.334 . S
C865 H857 0.930 . S
C865 C860 1.418 . S
C865 C861 1.353 . S
C866 H836 0.930 . S
C866 N867 1.330 . S
C866 C868 1.446 . S
N867 Co826 2.151 . S
N867 C866 1.330 . S
N867 C871 1.418 1_554 S
C868 H847 0.929 . S
C868 C866 1.446 . S
C868 C869 1.332 . S
C869 H849 0.931 . S
C869 C868 1.332 . S
C869 C870 1.267 1_554 S
C870 H838 0.929 . S
C870 C869 1.267 1_556 S
C870 C871 1.251 . S
C871 H841 0.929 . S
C871 N867 1.418 1_556 S
C871 C870 1.251 . S
C872 H839 0.930 . S
C872 C874 1.406 . S
C872 C877 1.261 . S
C873 H840 0.930 1_554 S
C873 N875 1.325 . S
C873 C876 1.357 1_554 S
C874 H842 0.928 . S
C874 C872 1.406 . S
C874 N875 1.261 . S
N875 Co826 2.214 . S
N875 C873 1.325 . S
N875 C874 1.261 . S
C876 H846 0.931 . S
C876 C873 1.357 1_556 S
C876 C877 1.312 1_556 S
C877 H848 0.930 1_655 S
C877 C872 1.261 . S
C877 C876 1.312 1_554 S
C878 O850 1.214 . S
C878 O858 1.234 1_554 S
C879 H851 0.929 . S
C879 C882 1.391 . S
C879 C884 1.391 . S
C880 H852 0.929 . S
C880 C881 1.390 . S
C880 N883 1.391 . S
C881 H853 0.930 . S
C881 C880 1.390 . S
C881 C882 1.392 . S
C882 H854 0.929 . S
C882 C879 1.391 . S
C882 C881 1.392 . S
N883 Co827 2.257 1_554 S
N883 C880 1.391 . S
N883 C884 1.388 . S
C884 H855 0.930 . S
C884 C879 1.391 . S
C884 N883 1.388 . S
Co885 O887 2.143 . S
Co885 O893 2.074 . S
Co885 O896 2.093 . S
Co885 O909 2.097 . S
Co885 N926 2.151 . S
Co885 N934 2.214 . S
Co886 O887 2.160 . S
Co886 O892 2.058 . S
Co886 O902 2.057 . S
Co886 O917 2.037 . S
Co886 N921 2.145 . S
Co886 N942 2.257 . S
O887 Co885 2.143 . S
O887 Co886 2.160 . S
C888 O889 1.278 . S
C888 O896 1.224 . S
O889 C888 1.278 . S
C890 O891 1.245 . S
C890 O902 1.232 . S
O891 C890 1.245 . S
O892 Co886 2.058 . S
O892 C918 1.269 . S
O893 Co885 2.074 . S
O893 C918 1.257 . S
H894 C919 0.930 . S
H895 C925 0.930 . S
O896 Co885 2.093 . S
O896 C888 1.224 . S
H897 C929 0.929 . S
H898 C931 0.930 . S
H899 C932 0.930 . S
H900 C930 0.929 . S
H901 C933 0.928 . S
O902 Co886 2.057 . S
O902 C890 1.232 . S
H903 C922 0.929 . S
H904 C923 0.929 . S
H905 C935 0.931 . S
H906 C927 0.929 . S
H907 C936 0.930 . S
H908 C928 0.931 . S
O909 Co885 2.097 . S
O909 C937 1.214 . S
H910 C938 0.929 . S
H911 C939 0.929 . S
H912 C940 0.930 . S
H913 C941 0.929 . S
H914 C943 0.930 . S
H915 C920 0.930 . S
H916 C924 0.930 . S
O917 Co886 2.037 . S
O917 C937 1.234 . S
C918 O892 1.269 . S
C918 O893 1.257 . S
C919 H894 0.930 . S
C919 C922 1.388 . S
C919 C924 1.418 . S
C920 H915 0.930 . S
C920 C923 1.404 . S
C920 C924 1.353 . S
N921 Co886 2.145 . S
N921 C922 1.397 . S
N921 C923 1.334 . S
C922 H903 0.929 . S
C922 C919 1.388 . S
C922 N921 1.397 . S
C923 H904 0.929 . S
C923 C920 1.404 . S
C923 N921 1.334 . S
C924 H916 0.930 . S
C924 C919 1.418 . S
C924 C920 1.353 . S
C925 H895 0.930 . S
C925 N926 1.330 . S
C925 C927 1.446 . S
N926 Co885 2.151 . S
N926 C925 1.330 . S
N926 C930 1.418 . S
C927 H906 0.929 . S
C927 C925 1.446 . S
C927 C928 1.332 . S
C928 H908 0.931 . S
C928 C927 1.332 . S
C928 C929 1.267 . S
C929 H897 0.929 . S
C929 C928 1.267 . S
C929 C930 1.251 . S
C930 H900 0.929 . S
C930 N926 1.418 . S
C930 C929 1.251 . S
C931 H898 0.930 . S
C931 C933 1.406 . S
C931 C936 1.261 . S
C932 H899 0.930 . S
C932 N934 1.325 . S
C932 C935 1.357 . S
C933 H901 0.928 . S
C933 C931 1.406 . S
C933 N934 1.261 . S
N934 Co885 2.214 . S
N934 C932 1.325 . S
N934 C933 1.261 . S
C935 H905 0.931 . S
C935 C932 1.357 . S
C935 C936 1.312 . S
C936 H907 0.930 . S
C936 C931 1.261 . S
C936 C935 1.312 . S
C937 O909 1.214 . S
C937 O917 1.234 . S
C938 H910 0.929 . S
C938 C941 1.391 . S
C938 C943 1.391 . S
C939 H911 0.929 . S
C939 C940 1.390 . S
C939 N942 1.391 . S
C940 H912 0.930 . S
C940 C939 1.390 . S
C940 C941 1.392 . S
C941 H913 0.929 . S
C941 C938 1.391 . S
C941 C940 1.392 . S
N942 Co886 2.257 . S
N942 C939 1.391 . S
N942 C943 1.388 . S
C943 H914 0.930 . S
C943 C938 1.391 . S
C943 N942 1.388 . S
H944 C956 0.930 . S
H945 C958 0.930 . S
H946 C959 0.930 . S
H947 C963 0.959 . S
H948 C963 0.959 . S
H949 C963 0.961 . S
H950 C964 0.960 . S
H951 C964 0.961 . S
H952 C964 0.959 . S
H953 C967 0.929 . S
H954 C968 0.931 . S
H955 C970 0.930 . S
C956 H944 0.930 . S
C956 C957 1.399 . S
C956 C961 1.399 . S
C957 C956 1.399 . S
C957 C958 1.376 . S
C958 H945 0.930 . S
C958 C957 1.376 . S
C958 C959 1.388 . S
C959 H946 0.930 . S
C959 C958 1.388 . S
C959 C960 1.390 . S
C960 C959 1.390 . S
C960 C961 1.394 . S
C960 C966 1.465 . S
C961 C956 1.399 . S
C961 C960 1.394 . S
C961 C962 1.516 . S
C962 C961 1.516 . S
C962 C963 1.502 . S
C962 C964 1.561 . S
C962 C965 1.526 . S
C963 H947 0.959 . S
C963 H948 0.959 . S
C963 H949 0.961 . S
C963 C962 1.502 . S
C964 H950 0.960 . S
C964 H951 0.961 . S
C964 H952 0.959 . S
C964 C962 1.561 . S
C965 C962 1.526 . S
C965 C966 1.396 . S
C965 C970 1.390 . S
C966 C960 1.465 . S
C966 C965 1.396 . S
C966 C967 1.399 . S
C967 H953 0.929 . S
C967 C966 1.399 . S
C967 C968 1.385 . S
C968 H954 0.931 . S
C968 C967 1.385 . S
C968 C969 1.389 . S
C969 C968 1.389 . S
C969 C970 1.387 . S
C970 H955 0.930 . S
C970 C965 1.390 . S
C970 C969 1.387 . S
H971 C983 0.930 . S
H972 C985 0.930 . S
H973 C986 0.930 . S
H974 C990 0.959 . S
H975 C990 0.959 . S
H976 C990 0.961 . S
H977 C991 0.960 . S
H978 C991 0.961 . S
H979 C991 0.959 . S
H980 C994 0.929 . S
H981 C995 0.931 . S
H982 C997 0.930 . S
C983 H971 0.930 . S
C983 C984 1.399 . S
C983 C988 1.399 . S
C984 C983 1.399 . S
C984 C985 1.376 . S
C985 H972 0.930 . S
C985 C984 1.376 . S
C985 C986 1.388 . S
C986 H973 0.930 . S
C986 C985 1.388 . S
C986 C987 1.390 . S
C987 C986 1.390 . S
C987 C988 1.394 . S
C987 C993 1.465 . S
C988 C983 1.399 . S
C988 C987 1.394 . S
C988 C989 1.516 . S
C989 C988 1.516 . S
C989 C990 1.502 . S
C989 C991 1.561 . S
C989 C992 1.526 . S
C990 H974 0.959 . S
C990 H975 0.959 . S
C990 H976 0.961 . S
C990 C989 1.502 . S
C991 H977 0.960 . S
C991 H978 0.961 . S
C991 H979 0.959 . S
C991 C989 1.561 . S
C992 C989 1.526 . S
C992 C993 1.396 . S
C992 C997 1.390 . S
C993 C987 1.465 . S
C993 C992 1.396 . S
C993 C994 1.399 . S
C994 H980 0.929 . S
C994 C993 1.399 . S
C994 C995 1.385 . S
C995 H981 0.931 . S
C995 C994 1.385 . S
C995 C996 1.389 . S
C996 C995 1.389 . S
C996 C997 1.387 . S
C997 H982 0.930 . S
C997 C992 1.390 . S
C997 C996 1.387 . S
H998 C1010 0.930 . S
H999 C1012 0.930 . S
H1000 C1013 0.930 . S
H1001 C1017 0.959 . S
H1002 C1017 0.959 . S
H1003 C1017 0.961 . S
H1004 C1018 0.960 . S
H1005 C1018 0.961 . S
H1006 C1018 0.959 . S
H1007 C1021 0.929 . S
H1008 C1022 0.931 . S
H1009 C1024 0.930 . S
C1010 H998 0.930 . S
C1010 C1011 1.399 . S
C1010 C1015 1.399 . S
C1011 C1010 1.399 . S
C1011 C1012 1.376 . S
C1012 H999 0.930 . S
C1012 C1011 1.376 . S
C1012 C1013 1.388 . S
C1013 H1000 0.930 . S
C1013 C1012 1.388 . S
C1013 C1014 1.390 . S
C1014 C1013 1.390 . S
C1014 C1015 1.394 . S
C1014 C1020 1.465 . S
C1015 C1010 1.399 . S
C1015 C1014 1.394 . S
C1015 C1016 1.516 . S
C1016 C1015 1.516 . S
C1016 C1017 1.502 . S
C1016 C1018 1.561 . S
C1016 C1019 1.526 . S
C1017 H1001 0.959 . S
C1017 H1002 0.959 . S
C1017 H1003 0.961 . S
C1017 C1016 1.502 . S
C1018 H1004 0.960 . S
C1018 H1005 0.961 . S
C1018 H1006 0.959 . S
C1018 C1016 1.561 . S
C1019 C1016 1.526 . S
C1019 C1020 1.396 . S
C1019 C1024 1.390 . S
C1020 C1014 1.465 . S
C1020 C1019 1.396 . S
C1020 C1021 1.399 . S
C1021 H1007 0.929 . S
C1021 C1020 1.399 . S
C1021 C1022 1.385 . S
C1022 H1008 0.931 . S
C1022 C1021 1.385 . S
C1022 C1023 1.389 . S
C1023 C1022 1.389 . S
C1023 C1024 1.387 . S
C1024 H1009 0.930 . S
C1024 C1019 1.390 . S
C1024 C1023 1.387 . S
H1025 C1037 0.930 . S
H1026 C1039 0.930 . S
H1027 C1040 0.930 . S
H1028 C1044 0.959 . S
H1029 C1044 0.959 . S
H1030 C1044 0.961 . S
H1031 C1045 0.960 . S
H1032 C1045 0.961 . S
H1033 C1045 0.959 . S
H1034 C1048 0.929 . S
H1035 C1049 0.931 . S
H1036 C1051 0.930 . S
C1037 H1025 0.930 . S
C1037 C1038 1.399 . S
C1037 C1042 1.399 . S
C1038 C1037 1.399 . S
C1038 C1039 1.376 . S
C1039 H1026 0.930 . S
C1039 C1038 1.376 . S
C1039 C1040 1.388 . S
C1040 H1027 0.930 . S
C1040 C1039 1.388 . S
C1040 C1041 1.390 . S
C1041 C1040 1.390 . S
C1041 C1042 1.394 . S
C1041 C1047 1.465 . S
C1042 C1037 1.399 . S
C1042 C1041 1.394 . S
C1042 C1043 1.516 . S
C1043 C1042 1.516 . S
C1043 C1044 1.502 . S
C1043 C1045 1.561 . S
C1043 C1046 1.526 . S
C1044 H1028 0.959 . S
C1044 H1029 0.959 . S
C1044 H1030 0.961 . S
C1044 C1043 1.502 . S
C1045 H1031 0.960 . S
C1045 H1032 0.961 . S
C1045 H1033 0.959 . S
C1045 C1043 1.561 . S
C1046 C1043 1.526 . S
C1046 C1047 1.396 . S
C1046 C1051 1.390 . S
C1047 C1041 1.465 . S
C1047 C1046 1.396 . S
C1047 C1048 1.399 . S
C1048 H1034 0.929 . S
C1048 C1047 1.399 . S
C1048 C1049 1.385 . S
C1049 H1035 0.931 . S
C1049 C1048 1.385 . S
C1049 C1050 1.389 . S
C1050 C1049 1.389 . S
C1050 C1051 1.387 . S
C1051 H1036 0.930 . S
C1051 C1046 1.390 . S
C1051 C1050 1.387 . S
H1052 C1064 0.930 . S
H1053 C1066 0.930 . S
H1054 C1067 0.930 . S
H1055 C1071 0.959 . S
H1056 C1071 0.959 . S
H1057 C1071 0.961 . S
H1058 C1072 0.960 . S
H1059 C1072 0.961 . S
H1060 C1072 0.959 . S
H1061 C1075 0.929 . S
H1062 C1076 0.931 . S
H1063 C1078 0.930 . S
C1064 H1052 0.930 . S
C1064 C1065 1.399 . S
C1064 C1069 1.399 . S
C1065 C1064 1.399 . S
C1065 C1066 1.376 . S
C1066 H1053 0.930 . S
C1066 C1065 1.376 . S
C1066 C1067 1.388 . S
C1067 H1054 0.930 . S
C1067 C1066 1.388 . S
C1067 C1068 1.390 . S
C1068 C1067 1.390 . S
C1068 C1069 1.394 . S
C1068 C1074 1.465 . S
C1069 C1064 1.399 . S
C1069 C1068 1.394 . S
C1069 C1070 1.516 . S
C1070 C1069 1.516 . S
C1070 C1071 1.502 . S
C1070 C1072 1.561 . S
C1070 C1073 1.526 . S
C1071 H1055 0.959 . S
C1071 H1056 0.959 . S
C1071 H1057 0.961 . S
C1071 C1070 1.502 . S
C1072 H1058 0.960 . S
C1072 H1059 0.961 . S
C1072 H1060 0.959 . S
C1072 C1070 1.561 . S
C1073 C1070 1.526 . S
C1073 C1074 1.396 . S
C1073 C1078 1.390 . S
C1074 C1068 1.465 . S
C1074 C1073 1.396 . S
C1074 C1075 1.399 . S
C1075 H1061 0.929 . S
C1075 C1074 1.399 . S
C1075 C1076 1.385 . S
C1076 H1062 0.931 . S
C1076 C1075 1.385 . S
C1076 C1077 1.389 . S
C1077 C1076 1.389 . S
C1077 C1078 1.387 . S
C1078 H1063 0.930 . S
C1078 C1073 1.390 . S
C1078 C1077 1.387 . S
H1079 C1091 0.930 . S
H1080 C1093 0.930 . S
H1081 C1094 0.930 . S
H1082 C1098 0.959 . S
H1083 C1098 0.959 . S
H1084 C1098 0.961 . S
H1085 C1099 0.960 . S
H1086 C1099 0.961 . S
H1087 C1099 0.959 . S
H1088 C1102 0.929 . S
H1089 C1103 0.931 . S
H1090 C1105 0.930 . S
C1091 H1079 0.930 . S
C1091 C1092 1.399 . S
C1091 C1096 1.399 . S
C1092 C1091 1.399 . S
C1092 C1093 1.376 . S
C1093 H1080 0.930 . S
C1093 C1092 1.376 . S
C1093 C1094 1.388 . S
C1094 H1081 0.930 . S
C1094 C1093 1.388 . S
C1094 C1095 1.390 . S
C1095 C1094 1.390 . S
C1095 C1096 1.394 . S
C1095 C1101 1.465 . S
C1096 C1091 1.399 . S
C1096 C1095 1.394 . S
C1096 C1097 1.516 . S
C1097 C1096 1.516 . S
C1097 C1098 1.502 . S
C1097 C1099 1.561 . S
C1097 C1100 1.526 . S
C1098 H1082 0.959 . S
C1098 H1083 0.959 . S
C1098 H1084 0.961 . S
C1098 C1097 1.502 . S
C1099 H1085 0.960 . S
C1099 H1086 0.961 . S
C1099 H1087 0.959 . S
C1099 C1097 1.561 . S
C1100 C1097 1.526 . S
C1100 C1101 1.396 . S
C1100 C1105 1.390 . S
C1101 C1095 1.465 . S
C1101 C1100 1.396 . S
C1101 C1102 1.399 . S
C1102 H1088 0.929 . S
C1102 C1101 1.399 . S
C1102 C1103 1.385 . S
C1103 H1089 0.931 . S
C1103 C1102 1.385 . S
C1103 C1104 1.389 . S
C1104 C1103 1.389 . S
C1104 C1105 1.387 . S
C1105 H1090 0.930 . S
C1105 C1100 1.390 . S
C1105 C1104 1.387 . S
H1106 C1118 0.930 . S
H1107 C1120 0.930 . S
H1108 C1121 0.930 . S
H1109 C1125 0.959 . S
H1110 C1125 0.959 . S
H1111 C1125 0.961 . S
H1112 C1126 0.960 . S
H1113 C1126 0.961 . S
H1114 C1126 0.959 . S
H1115 C1129 0.929 . S
H1116 C1130 0.931 . S
H1117 C1132 0.930 . S
C1118 H1106 0.930 . S
C1118 C1119 1.399 . S
C1118 C1123 1.399 . S
C1119 C1118 1.399 . S
C1119 C1120 1.376 . S
C1120 H1107 0.930 . S
C1120 C1119 1.376 . S
C1120 C1121 1.388 . S
C1121 H1108 0.930 . S
C1121 C1120 1.388 . S
C1121 C1122 1.390 . S
C1122 C1121 1.390 . S
C1122 C1123 1.394 . S
C1122 C1128 1.465 . S
C1123 C1118 1.399 . S
C1123 C1122 1.394 . S
C1123 C1124 1.516 . S
C1124 C1123 1.516 . S
C1124 C1125 1.502 . S
C1124 C1126 1.561 . S
C1124 C1127 1.526 . S
C1125 H1109 0.959 . S
C1125 H1110 0.959 . S
C1125 H1111 0.961 . S
C1125 C1124 1.502 . S
C1126 H1112 0.960 . S
C1126 H1113 0.961 . S
C1126 H1114 0.959 . S
C1126 C1124 1.561 . S
C1127 C1124 1.526 . S
C1127 C1128 1.396 . S
C1127 C1132 1.390 . S
C1128 C1122 1.465 . S
C1128 C1127 1.396 . S
C1128 C1129 1.399 . S
C1129 H1115 0.929 . S
C1129 C1128 1.399 . S
C1129 C1130 1.385 . S
C1130 H1116 0.931 . S
C1130 C1129 1.385 . S
C1130 C1131 1.389 . S
C1131 C1130 1.389 . S
C1131 C1132 1.387 . S
C1132 H1117 0.930 . S
C1132 C1127 1.390 . S
C1132 C1131 1.387 . S
H1133 C1145 0.930 . S
H1134 C1147 0.930 . S
H1135 C1148 0.930 . S
H1136 C1152 0.959 . S
H1137 C1152 0.959 . S
H1138 C1152 0.961 . S
H1139 C1153 0.960 . S
H1140 C1153 0.961 . S
H1141 C1153 0.959 . S
H1142 C1156 0.929 . S
H1143 C1157 0.931 . S
H1144 C1159 0.930 . S
C1145 H1133 0.930 . S
C1145 C1146 1.399 . S
C1145 C1150 1.399 . S
C1146 C1145 1.399 . S
C1146 C1147 1.376 . S
C1147 H1134 0.930 . S
C1147 C1146 1.376 . S
C1147 C1148 1.388 . S
C1148 H1135 0.930 . S
C1148 C1147 1.388 . S
C1148 C1149 1.390 . S
C1149 C1148 1.390 . S
C1149 C1150 1.394 . S
C1149 C1155 1.465 . S
C1150 C1145 1.399 . S
C1150 C1149 1.394 . S
C1150 C1151 1.516 . S
C1151 C1150 1.516 . S
C1151 C1152 1.502 . S
C1151 C1153 1.561 . S
C1151 C1154 1.526 . S
C1152 H1136 0.959 . S
C1152 H1137 0.959 . S
C1152 H1138 0.961 . S
C1152 C1151 1.502 . S
C1153 H1139 0.960 . S
C1153 H1140 0.961 . S
C1153 H1141 0.959 . S
C1153 C1151 1.561 . S
C1154 C1151 1.526 . S
C1154 C1155 1.396 . S
C1154 C1159 1.390 . S
C1155 C1149 1.465 . S
C1155 C1154 1.396 . S
C1155 C1156 1.399 . S
C1156 H1142 0.929 . S
C1156 C1155 1.399 . S
C1156 C1157 1.385 . S
C1157 H1143 0.931 . S
C1157 C1156 1.385 . S
C1157 C1158 1.389 . S
C1158 C1157 1.389 . S
C1158 C1159 1.387 . S
C1159 H1144 0.930 . S
C1159 C1154 1.390 . S
C1159 C1158 1.387 . S
H1160 C1172 0.930 . S
H1161 C1174 0.930 . S
H1162 C1175 0.930 . S
H1163 C1179 0.959 . S
H1164 C1179 0.959 . S
H1165 C1179 0.961 . S
H1166 C1180 0.960 1_455 S
H1167 C1180 0.988 . S
H1168 C1180 0.959 . S
H1169 C1183 0.929 1_545 S
H1170 C1184 0.931 . S
H1171 C1186 0.930 . S
C1172 H1160 0.930 . S
C1172 C1173 1.399 . S
C1172 C1177 1.399 . S
C1173 C1172 1.399 . S
C1173 C1174 1.376 . S
C1174 H1161 0.930 . S
C1174 C1173 1.376 . S
C1174 C1175 1.388 . S
C1175 H1162 0.930 . S
C1175 C1174 1.388 . S
C1175 C1176 1.390 . S
C1176 C1175 1.390 . S
C1176 C1177 1.394 . S
C1176 C1182 1.461 1_445 S
C1177 C1172 1.399 . S
C1177 C1176 1.394 . S
C1177 C1178 1.516 1_545 S
C1178 C1177 1.516 1_565 S
C1178 C1179 1.502 . S
C1178 C1180 1.561 1_465 S
C1178 C1181 1.526 1_455 S
C1179 H1163 0.959 . S
C1179 H1164 0.959 . S
C1179 H1165 0.961 . S
C1179 C1178 1.502 . S
C1180 H1166 0.960 1_655 S
C1180 H1167 0.988 . S
C1180 H1168 0.959 . S
C1180 C1178 1.561 1_645 S
C1181 C1178 1.526 1_655 S
C1181 C1182 1.400 . S
C1181 C1186 1.390 . S
C1182 C1176 1.461 1_665 S
C1182 C1181 1.400 . S
C1182 C1183 1.399 . S
C1183 H1169 0.929 1_565 S
C1183 C1182 1.399 . S
C1183 C1184 1.385 . S
C1184 H1170 0.931 . S
C1184 C1183 1.385 . S
C1184 C1185 1.389 . S
C1185 C1184 1.389 . S
C1185 C1186 1.387 . S
C1186 H1171 0.930 . S
C1186 C1181 1.390 . S
C1186 C1185 1.387 . S
H1187 C1199 0.930 . S
H1188 C1201 0.930 . S
H1189 C1202 0.930 . S
H1190 C1206 0.959 . S
H1191 C1206 0.959 . S
H1192 C1206 0.961 . S
H1193 C1207 0.960 . S
H1194 C1207 0.961 . S
H1195 C1207 0.959 . S
H1196 C1210 0.929 1_655 S
H1197 C1211 0.931 . S
H1198 C1213 0.930 . S
C1199 H1187 0.930 . S
C1199 C1200 1.399 . S
C1199 C1204 1.399 . S
C1200 C1199 1.399 . S
C1200 C1201 1.376 . S
C1201 H1188 0.930 . S
C1201 C1200 1.376 . S
C1201 C1202 1.388 . S
C1202 H1189 0.930 . S
C1202 C1201 1.388 . S
C1202 C1203 1.390 . S
C1203 C1202 1.390 . S
C1203 C1204 1.394 . S
C1203 C1209 1.465 1_655 S
C1204 C1199 1.399 . S
C1204 C1203 1.394 . S
C1204 C1205 1.516 1_655 S
C1205 C1204 1.516 1_455 S
C1205 C1206 1.502 . S
C1205 C1207 1.561 1_455 S
C1205 C1208 1.526 . S
C1206 H1190 0.959 . S
C1206 H1191 0.959 . S
C1206 H1192 0.961 . S
C1206 C1205 1.502 . S
C1207 H1193 0.960 . S
C1207 H1194 0.961 . S
C1207 H1195 0.959 . S
C1207 C1205 1.561 1_655 S
C1208 C1205 1.526 . S
C1208 C1209 1.396 . S
C1208 C1213 1.390 . S
C1209 C1203 1.465 1_455 S
C1209 C1208 1.396 . S
C1209 C1210 1.399 . S
C1210 H1196 0.929 1_455 S
C1210 C1209 1.399 . S
C1210 C1211 1.385 . S
C1211 H1197 0.931 . S
C1211 C1210 1.385 . S
C1211 C1212 1.389 . S
C1212 C1211 1.389 . S
C1212 C1213 1.387 . S
C1213 H1198 0.930 . S
C1213 C1208 1.390 . S
C1213 C1212 1.387 . S
H1214 C1226 0.930 . S
H1215 C1228 0.930 . S
H1216 C1229 0.930 . S
H1217 C1233 0.959 . S
H1218 C1233 0.959 . S
H1219 C1233 0.961 . S
H1220 C1234 0.960 . S
H1221 C1234 0.961 . S
H1222 C1234 0.959 . S
H1223 C1237 0.929 . S
H1224 C1238 0.931 . S
H1225 C1240 0.930 . S
C1226 H1214 0.930 . S
C1226 C1227 1.399 . S
C1226 C1231 1.399 . S
C1227 C1226 1.399 . S
C1227 C1228 1.376 . S
C1228 H1215 0.930 . S
C1228 C1227 1.376 . S
C1228 C1229 1.388 . S
C1229 H1216 0.930 . S
C1229 C1228 1.388 . S
C1229 C1230 1.390 . S
C1230 C1229 1.390 . S
C1230 C1231 1.394 . S
C1230 C1236 1.465 . S
C1231 C1226 1.399 . S
C1231 C1230 1.394 . S
C1231 C1232 1.516 . S
C1232 C1231 1.516 . S
C1232 C1233 1.502 . S
C1232 C1234 1.561 . S
C1232 C1235 1.526 . S
C1233 H1217 0.959 . S
C1233 H1218 0.959 . S
C1233 H1219 0.961 . S
C1233 C1232 1.502 . S
C1234 H1220 0.960 . S
C1234 H1221 0.961 . S
C1234 H1222 0.959 . S
C1234 C1232 1.561 . S
C1235 C1232 1.526 . S
C1235 C1236 1.396 . S
C1235 C1240 1.390 . S
C1236 C1230 1.465 . S
C1236 C1235 1.396 . S
C1236 C1237 1.399 . S
C1237 H1223 0.929 . S
C1237 C1236 1.399 . S
C1237 C1238 1.385 . S
C1238 H1224 0.931 . S
C1238 C1237 1.385 . S
C1238 C1239 1.389 . S
C1239 C1238 1.389 . S
C1239 C1240 1.387 . S
C1240 H1225 0.930 . S
C1240 C1235 1.390 . S
C1240 C1239 1.387 . S
H1241 C1253 0.930 . S
H1242 C1255 0.930 . S
H1243 C1256 0.930 1_556 S
H1244 C1260 0.959 . S
H1245 C1260 0.959 1_545 S
H1246 C1260 0.961 . S
H1247 C1261 0.960 1_565 S
H1248 C1261 0.961 . S
H1249 C1261 0.959 . S
H1250 C1264 0.929 1_556 S
H1251 C1265 0.931 . S
H1252 C1267 0.930 . S
C1253 H1241 0.930 . S
C1253 C1254 1.399 . S
C1253 C1258 1.399 . S
C1254 C1253 1.399 . S
C1254 C1255 1.376 . S
C1255 H1242 0.930 . S
C1255 C1254 1.376 . S
C1255 C1256 1.388 . S
C1256 H1243 0.930 1_554 S
C1256 C1255 1.388 . S
C1256 C1257 1.390 . S
C1257 C1256 1.390 . S
C1257 C1258 1.394 . S
C1257 C1263 1.465 1_565 S
C1258 C1253 1.399 . S
C1258 C1257 1.394 . S
C1258 C1259 1.508 1_565 S
C1259 C1258 1.508 1_545 S
C1259 C1260 1.498 1_545 S
C1259 C1261 1.566 . S
C1259 C1262 1.534 . S
C1260 H1244 0.959 . S
C1260 H1245 0.959 1_565 S
C1260 H1246 0.961 . S
C1260 C1259 1.498 1_565 S
C1261 H1247 0.960 1_545 S
C1261 H1248 0.961 . S
C1261 H1249 0.959 . S
C1261 C1259 1.566 . S
C1262 C1259 1.534 . S
C1262 C1263 1.396 . S
C1262 C1267 1.390 . S
C1263 C1257 1.465 1_545 S
C1263 C1262 1.396 . S
C1263 C1264 1.399 . S
C1264 H1250 0.929 1_554 S
C1264 C1263 1.399 . S
C1264 C1265 1.385 . S
C1265 H1251 0.931 . S
C1265 C1264 1.385 . S
C1265 C1266 1.389 . S
C1266 C1265 1.389 . S
C1266 C1267 1.387 . S
C1267 H1252 0.930 . S
C1267 C1262 1.390 . S
C1267 C1266 1.387 . S
H1268 C1280 0.930 . S
H1269 C1282 0.930 . S
H1270 C1283 0.930 . S
H1271 C1287 0.959 . S
H1272 C1287 0.959 1_655 S
H1273 C1287 0.961 . S
H1274 C1288 0.960 . S
H1275 C1288 0.961 . S
H1276 C1288 0.959 . S
H1277 C1291 0.929 . S
H1278 C1292 0.931 . S
H1279 C1294 0.930 . S
C1280 H1268 0.930 . S
C1280 C1281 1.399 1_556 S
C1280 C1285 1.399 . S
C1281 C1280 1.399 1_554 S
C1281 C1282 1.376 . S
C1282 H1269 0.930 . S
C1282 C1281 1.376 . S
C1282 C1283 1.388 . S
C1283 H1270 0.930 . S
C1283 C1282 1.388 . S
C1283 C1284 1.390 . S
C1284 C1283 1.390 . S
C1284 C1285 1.394 1_554 S
C1284 C1290 1.465 1_455 S
C1285 C1280 1.399 . S
C1285 C1284 1.394 1_556 S
C1285 C1286 1.516 1_455 S
C1286 C1285 1.516 1_655 S
C1286 C1287 1.502 1_655 S
C1286 C1288 1.561 . S
C1286 C1289 1.526 . S
C1287 H1271 0.959 . S
C1287 H1272 0.959 1_455 S
C1287 H1273 0.961 . S
C1287 C1286 1.502 1_455 S
C1288 H1274 0.960 . S
C1288 H1275 0.961 . S
C1288 H1276 0.959 . S
C1288 C1286 1.561 . S
C1289 C1286 1.526 . S
C1289 C1290 1.396 1_556 S
C1289 C1294 1.390 . S
C1290 C1284 1.465 1_655 S
C1290 C1289 1.396 1_554 S
C1290 C1291 1.399 . S
C1291 H1277 0.929 . S
C1291 C1290 1.399 . S
C1291 C1292 1.385 . S
C1292 H1278 0.931 . S
C1292 C1291 1.385 . S
C1292 C1293 1.389 . S
C1293 C1292 1.389 . S
C1293 C1294 1.387 1_554 S
C1294 H1279 0.930 . S
C1294 C1289 1.390 . S
C1294 C1293 1.387 1_556 S
H1295 C1307 0.930 . S
H1296 C1309 0.930 . S
H1297 C1310 0.930 . S
H1298 C1314 0.959 . S
H1299 C1314 0.959 . S
H1300 C1314 0.961 . S
H1301 C1315 0.960 . S
H1302 C1315 0.961 . S
H1303 C1315 0.959 . S
H1304 C1318 0.929 . S
H1305 C1319 0.931 . S
H1306 C1321 0.930 . S
C1307 H1295 0.930 . S
C1307 C1308 1.399 . S
C1307 C1312 1.399 . S
C1308 C1307 1.399 . S
C1308 C1309 1.376 . S
C1309 H1296 0.930 . S
C1309 C1308 1.376 . S
C1309 C1310 1.388 . S
C1310 H1297 0.930 . S
C1310 C1309 1.388 . S
C1310 C1311 1.390 . S
C1311 C1310 1.390 . S
C1311 C1312 1.394 . S
C1311 C1317 1.465 . S
C1312 C1307 1.399 . S
C1312 C1311 1.394 . S
C1312 C1313 1.516 . S
C1313 C1312 1.516 . S
C1313 C1314 1.502 . S
C1313 C1315 1.561 . S
C1313 C1316 1.526 . S
C1314 H1298 0.959 . S
C1314 H1299 0.959 . S
C1314 H1300 0.961 . S
C1314 C1313 1.502 . S
C1315 H1301 0.960 . S
C1315 H1302 0.961 . S
C1315 H1303 0.959 . S
C1315 C1313 1.561 . S
C1316 C1313 1.526 . S
C1316 C1317 1.396 . S
C1316 C1321 1.390 . S
C1317 C1311 1.465 . S
C1317 C1316 1.396 . S
C1317 C1318 1.399 . S
C1318 H1304 0.929 . S
C1318 C1317 1.399 . S
C1318 C1319 1.385 . S
C1319 H1305 0.931 . S
C1319 C1318 1.385 . S
C1319 C1320 1.389 . S
C1320 C1319 1.389 . S
C1320 C1321 1.387 . S
C1321 H1306 0.930 . S
C1321 C1316 1.390 . S
C1321 C1320 1.387 . S
H1322 C1334 0.930 1_565 S
H1323 C1336 0.930 . S
H1324 C1337 0.930 . S
H1325 C1341 0.959 . S
H1326 C1341 0.959 . S
H1327 C1341 0.961 . S
H1328 C1342 0.960 . S
H1329 C1342 0.961 . S
H1330 C1342 0.959 . S
H1331 C1345 0.929 . S
H1332 C1346 0.931 1_545 S
H1333 C1348 0.930 . S
C1334 H1322 0.930 1_545 S
C1334 C1335 1.399 . S
C1334 C1339 1.393 1_545 S
C1335 C1334 1.399 . S
C1335 C1336 1.376 . S
C1336 H1323 0.930 . S
C1336 C1335 1.376 . S
C1336 C1337 1.388 . S
C1337 H1324 0.930 . S
C1337 C1336 1.388 . S
C1337 C1338 1.390 . S
C1338 C1337 1.390 . S
C1338 C1339 1.379 1_545 S
C1338 C1344 1.465 . S
C1339 C1334 1.393 1_565 S
C1339 C1338 1.379 1_565 S
C1339 C1340 1.536 . S
C1340 C1339 1.536 . S
C1340 C1341 1.502 . S
C1340 C1342 1.561 . S
C1340 C1343 1.526 . S
C1341 H1325 0.959 . S
C1341 H1326 0.959 . S
C1341 H1327 0.961 . S
C1341 C1340 1.502 . S
C1342 H1328 0.960 . S
C1342 H1329 0.961 . S
C1342 H1330 0.959 . S
C1342 C1340 1.561 . S
C1343 C1340 1.526 . S
C1343 C1344 1.396 1_565 S
C1343 C1348 1.390 . S
C1344 C1338 1.465 . S
C1344 C1343 1.396 1_545 S
C1344 C1345 1.399 . S
C1345 H1331 0.929 . S
C1345 C1344 1.399 . S
C1345 C1346 1.385 1_545 S
C1346 H1332 0.931 1_565 S
C1346 C1345 1.385 1_565 S
C1346 C1347 1.389 . S
C1347 C1346 1.389 . S
C1347 C1348 1.387 . S
C1348 H1333 0.930 . S
C1348 C1343 1.390 . S
C1348 C1347 1.387 . S
H1349 C1361 0.930 . S
H1350 C1363 0.930 . S
H1351 C1364 0.930 . S
H1352 C1368 0.959 . S
H1353 C1368 0.959 . S
H1354 C1368 0.961 . S
H1355 C1369 0.960 1_545 S
H1356 C1369 0.961 1_655 S
H1357 C1369 0.959 . S
H1358 C1372 0.929 . S
H1359 C1373 0.931 . S
H1360 C1375 0.930 . S
C1361 H1349 0.930 . S
C1361 C1362 1.399 . S
C1361 C1366 1.399 . S
C1362 C1361 1.399 . S
C1362 C1363 1.376 . S
C1363 H1350 0.930 . S
C1363 C1362 1.376 . S
C1363 C1364 1.388 . S
C1364 H1351 0.930 . S
C1364 C1363 1.388 . S
C1364 C1365 1.390 . S
C1365 C1364 1.390 . S
C1365 C1366 1.394 . S
C1365 C1371 1.489 1_545 S
C1366 C1361 1.399 . S
C1366 C1365 1.394 . S
C1366 C1367 1.516 1_455 S
C1367 C1366 1.516 1_655 S
C1367 C1368 1.502 . S
C1367 C1369 1.561 1_645 S
C1367 C1370 1.526 1_545 S
C1368 H1352 0.959 . S
C1368 H1353 0.959 . S
C1368 H1354 0.961 . S
C1368 C1367 1.502 . S
C1369 H1355 0.960 1_565 S
C1369 H1356 0.961 1_455 S
C1369 H1357 0.959 . S
C1369 C1367 1.561 1_465 S
C1370 C1367 1.526 1_565 S
C1370 C1371 1.369 1_655 S
C1370 C1375 1.390 . S
C1371 C1365 1.489 1_565 S
C1371 C1370 1.369 1_455 S
C1371 C1372 1.400 . S
C1372 H1358 0.929 . S
C1372 C1371 1.400 . S
C1372 C1373 1.385 1_455 S
C1373 H1359 0.931 . S
C1373 C1372 1.385 1_655 S
C1373 C1374 1.389 . S
C1374 C1373 1.389 . S
C1374 C1375 1.387 . S
C1375 H1360 0.930 . S
C1375 C1370 1.390 . S
C1375 C1374 1.387 . S
H1376 C1388 0.930 . S
H1377 C1390 0.930 . S
H1378 C1391 0.930 . S
H1379 C1395 0.959 . S
H1380 C1395 0.959 . S
H1381 C1395 0.961 . S
H1382 C1396 0.960 . S
H1383 C1396 0.961 . S
H1384 C1396 0.959 . S
H1385 C1399 0.929 . S
H1386 C1400 0.931 . S
H1387 C1402 0.930 . S
C1388 H1376 0.930 . S
C1388 C1389 1.399 . S
C1388 C1393 1.399 . S
C1389 C1388 1.399 . S
C1389 C1390 1.376 . S
C1390 H1377 0.930 . S
C1390 C1389 1.376 . S
C1390 C1391 1.388 . S
C1391 H1378 0.930 . S
C1391 C1390 1.388 . S
C1391 C1392 1.390 . S
C1392 C1391 1.390 . S
C1392 C1393 1.394 . S
C1392 C1398 1.465 . S
C1393 C1388 1.399 . S
C1393 C1392 1.394 . S
C1393 C1394 1.516 . S
C1394 C1393 1.516 . S
C1394 C1395 1.502 . S
C1394 C1396 1.561 . S
C1394 C1397 1.526 . S
C1395 H1379 0.959 . S
C1395 H1380 0.959 . S
C1395 H1381 0.961 . S
C1395 C1394 1.502 . S
C1396 H1382 0.960 . S
C1396 H1383 0.961 . S
C1396 H1384 0.959 . S
C1396 C1394 1.561 . S
C1397 C1394 1.526 . S
C1397 C1398 1.396 . S
C1397 C1402 1.390 . S
C1398 C1392 1.465 . S
C1398 C1397 1.396 . S
C1398 C1399 1.399 . S
C1399 H1385 0.929 . S
C1399 C1398 1.399 . S
C1399 C1400 1.385 . S
C1400 H1386 0.931 . S
C1400 C1399 1.385 . S
C1400 C1401 1.389 . S
C1401 C1400 1.389 . S
C1401 C1402 1.387 . S
C1402 H1387 0.930 . S
C1402 C1397 1.390 . S
C1402 C1401 1.387 . S
H1403 C1415 0.930 . S
H1404 C1417 0.930 . S
H1405 C1418 0.930 . S
H1406 C1422 0.959 . S
H1407 C1422 0.959 . S
H1408 C1422 0.961 . S
H1409 C1423 0.960 . S
H1410 C1423 0.961 . S
H1411 C1423 0.959 . S
H1412 C1426 0.929 . S
H1413 C1427 0.931 . S
H1414 C1429 0.930 . S
C1415 H1403 0.930 . S
C1415 C1416 1.399 . S
C1415 C1420 1.399 . S
C1416 C1415 1.399 . S
C1416 C1417 1.376 . S
C1417 H1404 0.930 . S
C1417 C1416 1.376 . S
C1417 C1418 1.388 . S
C1418 H1405 0.930 . S
C1418 C1417 1.388 . S
C1418 C1419 1.390 . S
C1419 C1418 1.390 . S
C1419 C1420 1.394 . S
C1419 C1425 1.465 . S
C1420 C1415 1.399 . S
C1420 C1419 1.394 . S
C1420 C1421 1.516 . S
C1421 C1420 1.516 . S
C1421 C1422 1.502 . S
C1421 C1423 1.561 . S
C1421 C1424 1.526 . S
C1422 H1406 0.959 . S
C1422 H1407 0.959 . S
C1422 H1408 0.961 . S
C1422 C1421 1.502 . S
C1423 H1409 0.960 . S
C1423 H1410 0.961 . S
C1423 H1411 0.959 . S
C1423 C1421 1.561 . S
C1424 C1421 1.526 . S
C1424 C1425 1.396 . S
C1424 C1429 1.390 . S
C1425 C1419 1.465 . S
C1425 C1424 1.396 . S
C1425 C1426 1.399 . S
C1426 H1412 0.929 . S
C1426 C1425 1.399 . S
C1426 C1427 1.385 . S
C1427 H1413 0.931 . S
C1427 C1426 1.385 . S
C1427 C1428 1.389 . S
C1428 C1427 1.389 . S
C1428 C1429 1.387 . S
C1429 H1414 0.930 . S
C1429 C1424 1.390 . S
C1429 C1428 1.387 . S
H1430 C1442 0.930 . S
H1431 C1444 0.930 . S
H1432 C1445 0.930 . S
H1433 C1449 0.959 . S
H1434 C1449 0.959 . S
H1435 C1449 0.961 . S
H1436 C1450 0.960 . S
H1437 C1450 0.961 . S
H1438 C1450 0.959 . S
H1439 C1453 0.929 . S
H1440 C1454 0.931 . S
H1441 C1456 0.930 . S
C1442 H1430 0.930 . S
C1442 C1443 1.399 . S
C1442 C1447 1.399 . S
C1443 C1442 1.399 . S
C1443 C1444 1.376 . S
C1444 H1431 0.930 . S
C1444 C1443 1.376 . S
C1444 C1445 1.388 . S
C1445 H1432 0.930 . S
C1445 C1444 1.388 . S
C1445 C1446 1.390 . S
C1446 C1445 1.390 . S
C1446 C1447 1.394 . S
C1446 C1452 1.465 . S
C1447 C1442 1.399 . S
C1447 C1446 1.394 . S
C1447 C1448 1.516 . S
C1448 C1447 1.516 . S
C1448 C1449 1.502 . S
C1448 C1450 1.561 . S
C1448 C1451 1.526 . S
C1449 H1433 0.959 . S
C1449 H1434 0.959 . S
C1449 H1435 0.961 . S
C1449 C1448 1.502 . S
C1450 H1436 0.960 . S
C1450 H1437 0.961 . S
C1450 H1438 0.959 . S
C1450 C1448 1.561 . S
C1451 C1448 1.526 . S
C1451 C1452 1.396 . S
C1451 C1456 1.390 1_554 S
C1452 C1446 1.465 . S
C1452 C1451 1.396 . S
C1452 C1453 1.399 1_554 S
C1453 H1439 0.929 . S
C1453 C1452 1.399 1_556 S
C1453 C1454 1.385 . S
C1454 H1440 0.931 . S
C1454 C1453 1.385 . S
C1454 C1455 1.389 . S
C1455 C1454 1.389 . S
C1455 C1456 1.387 . S
C1456 H1441 0.930 . S
C1456 C1451 1.390 1_556 S
C1456 C1455 1.387 . S
H1457 C1469 0.930 . S
H1458 C1471 0.930 . S
H1459 C1472 0.930 . S
H1460 C1476 0.959 . S
H1461 C1476 0.959 . S
H1462 C1476 0.961 . S
H1463 C1477 0.960 . S
H1464 C1477 0.961 . S
H1465 C1477 0.959 . S
H1466 C1480 0.929 . S
H1467 C1481 0.931 . S
H1468 C1483 0.930 . S
C1469 H1457 0.930 . S
C1469 C1470 1.399 . S
C1469 C1474 1.399 . S
C1470 C1469 1.399 . S
C1470 C1471 1.376 . S
C1471 H1458 0.930 . S
C1471 C1470 1.376 . S
C1471 C1472 1.388 . S
C1472 H1459 0.930 . S
C1472 C1471 1.388 . S
C1472 C1473 1.390 . S
C1473 C1472 1.390 . S
C1473 C1474 1.394 . S
C1473 C1479 1.465 . S
C1474 C1469 1.399 . S
C1474 C1473 1.394 . S
C1474 C1475 1.516 . S
C1475 C1474 1.516 . S
C1475 C1476 1.502 . S
C1475 C1477 1.561 . S
C1475 C1478 1.526 . S
C1476 H1460 0.959 . S
C1476 H1461 0.959 . S
C1476 H1462 0.961 . S
C1476 C1475 1.502 . S
C1477 H1463 0.960 . S
C1477 H1464 0.961 . S
C1477 H1465 0.959 . S
C1477 C1475 1.561 . S
C1478 C1475 1.526 . S
C1478 C1479 1.396 . S
C1478 C1483 1.390 . S
C1479 C1473 1.465 . S
C1479 C1478 1.396 . S
C1479 C1480 1.399 . S
C1480 H1466 0.929 . S
C1480 C1479 1.399 . S
C1480 C1481 1.385 . S
C1481 H1467 0.931 . S
C1481 C1480 1.385 . S
C1481 C1482 1.389 . S
C1482 C1481 1.389 . S
C1482 C1483 1.387 . S
C1483 H1468 0.930 . S
C1483 C1478 1.390 . S
C1483 C1482 1.387 . S
H1484 C1496 0.930 . S
H1485 C1498 0.930 . S
H1486 C1499 0.930 . S
H1487 C1503 0.959 . S
H1488 C1503 0.959 . S
H1489 C1503 0.961 . S
H1490 C1504 0.960 . S
H1491 C1504 0.961 . S
H1492 C1504 0.959 . S
H1493 C1507 0.929 . S
H1494 C1508 0.931 . S
H1495 C1510 0.930 . S
C1496 H1484 0.930 . S
C1496 C1497 1.399 . S
C1496 C1501 1.399 . S
C1497 C1496 1.399 . S
C1497 C1498 1.376 . S
C1498 H1485 0.930 . S
C1498 C1497 1.376 . S
C1498 C1499 1.388 . S
C1499 H1486 0.930 . S
C1499 C1498 1.388 . S
C1499 C1500 1.390 . S
C1500 C1499 1.390 . S
C1500 C1501 1.394 . S
C1500 C1506 1.465 . S
C1501 C1496 1.399 . S
C1501 C1500 1.394 . S
C1501 C1502 1.516 . S
C1502 C1501 1.516 . S
C1502 C1503 1.502 . S
C1502 C1504 1.561 . S
C1502 C1505 1.526 . S
C1503 H1487 0.959 . S
C1503 H1488 0.959 . S
C1503 H1489 0.961 . S
C1503 C1502 1.502 . S
C1504 H1490 0.960 . S
C1504 H1491 0.961 . S
C1504 H1492 0.959 . S
C1504 C1502 1.561 . S
C1505 C1502 1.526 . S
C1505 C1506 1.396 . S
C1505 C1510 1.390 . S
C1506 C1500 1.465 . S
C1506 C1505 1.396 . S
C1506 C1507 1.399 . S
C1507 H1493 0.929 . S
C1507 C1506 1.399 . S
C1507 C1508 1.385 . S
C1508 H1494 0.931 . S
C1508 C1507 1.385 . S
C1508 C1509 1.389 . S
C1509 C1508 1.389 . S
C1509 C1510 1.387 . S
C1510 H1495 0.930 . S
C1510 C1505 1.390 . S
C1510 C1509 1.387 . S
H1511 C1523 0.930 . S
H1512 C1525 0.930 . S
H1513 C1526 0.930 . S
H1514 C1530 0.959 . S
H1515 C1530 0.959 . S
H1516 C1530 0.961 . S
H1517 C1531 0.960 . S
H1518 C1531 0.961 . S
H1519 C1531 0.959 . S
H1520 C1534 0.929 . S
H1521 C1535 0.931 . S
H1522 C1537 0.930 . S
C1523 H1511 0.930 . S
C1523 C1524 1.399 . S
C1523 C1528 1.399 . S
C1524 C1523 1.399 . S
C1524 C1525 1.376 . S
C1525 H1512 0.930 . S
C1525 C1524 1.376 . S
C1525 C1526 1.388 . S
C1526 H1513 0.930 . S
C1526 C1525 1.388 . S
C1526 C1527 1.390 . S
C1527 C1526 1.390 . S
C1527 C1528 1.394 . S
C1527 C1533 1.465 . S
C1528 C1523 1.399 . S
C1528 C1527 1.394 . S
C1528 C1529 1.516 . S
C1529 C1528 1.516 . S
C1529 C1530 1.502 . S
C1529 C1531 1.561 . S
C1529 C1532 1.526 . S
C1530 H1514 0.959 . S
C1530 H1515 0.959 . S
C1530 H1516 0.961 . S
C1530 C1529 1.502 . S
C1531 H1517 0.960 . S
C1531 H1518 0.961 . S
C1531 H1519 0.959 . S
C1531 C1529 1.561 . S
C1532 C1529 1.526 . S
C1532 C1533 1.396 . S
C1532 C1537 1.390 1_554 S
C1533 C1527 1.465 . S
C1533 C1532 1.396 . S
C1533 C1534 1.399 1_554 S
C1534 H1520 0.929 . S
C1534 C1533 1.399 1_556 S
C1534 C1535 1.385 . S
C1535 H1521 0.931 . S
C1535 C1534 1.385 . S
C1535 C1536 1.389 . S
C1536 C1535 1.389 . S
C1536 C1537 1.387 . S
C1537 H1522 0.930 . S
C1537 C1532 1.390 1_556 S
C1537 C1536 1.387 . S
H1538 C1550 0.930 . S
H1539 C1552 0.930 . S
H1540 C1553 0.930 . S
H1541 C1557 0.959 . S
H1542 C1557 0.959 . S
H1543 C1557 0.961 . S
H1544 C1558 0.960 . S
H1545 C1558 0.961 . S
H1546 C1558 0.959 . S
H1547 C1561 0.929 . S
H1548 C1562 0.931 . S
H1549 C1564 0.930 . S
C1550 H1538 0.930 . S
C1550 C1551 1.399 . S
C1550 C1555 1.399 . S
C1551 C1550 1.399 . S
C1551 C1552 1.376 . S
C1552 H1539 0.930 . S
C1552 C1551 1.376 . S
C1552 C1553 1.388 . S
C1553 H1540 0.930 . S
C1553 C1552 1.388 . S
C1553 C1554 1.390 . S
C1554 C1553 1.390 . S
C1554 C1555 1.394 . S
C1554 C1560 1.465 . S
C1555 C1550 1.399 . S
C1555 C1554 1.394 . S
C1555 C1556 1.516 . S
C1556 C1555 1.516 . S
C1556 C1557 1.502 . S
C1556 C1558 1.561 . S
C1556 C1559 1.526 . S
C1557 H1541 0.959 . S
C1557 H1542 0.959 . S
C1557 H1543 0.961 . S
C1557 C1556 1.502 . S
C1558 H1544 0.960 . S
C1558 H1545 0.961 . S
C1558 H1546 0.959 . S
C1558 C1556 1.561 . S
C1559 C1556 1.526 . S
C1559 C1560 1.396 . S
C1559 C1564 1.390 . S
C1560 C1554 1.465 . S
C1560 C1559 1.396 . S
C1560 C1561 1.399 . S
C1561 H1547 0.929 . S
C1561 C1560 1.399 . S
C1561 C1562 1.385 . S
C1562 H1548 0.931 . S
C1562 C1561 1.385 . S
C1562 C1563 1.389 . S
C1563 C1562 1.389 . S
C1563 C1564 1.387 . S
C1564 H1549 0.930 . S
C1564 C1559 1.390 . S
C1564 C1563 1.387 . S
H1565 C1577 0.930 . S
H1566 C1579 0.930 . S
H1567 C1580 0.930 . S
H1568 C1584 0.959 . S
H1569 C1584 0.959 . S
H1570 C1584 0.961 . S
H1571 C1585 0.960 . S
H1572 C1585 0.961 . S
H1573 C1585 0.959 . S
H1574 C1588 0.929 . S
H1575 C1589 0.931 . S
H1576 C1591 0.930 . S
C1577 H1565 0.930 . S
C1577 C1578 1.399 . S
C1577 C1582 1.399 . S
C1578 C1577 1.399 . S
C1578 C1579 1.376 . S
C1579 H1566 0.930 . S
C1579 C1578 1.376 . S
C1579 C1580 1.388 . S
C1580 H1567 0.930 . S
C1580 C1579 1.388 . S
C1580 C1581 1.390 . S
C1581 C1580 1.390 . S
C1581 C1582 1.394 . S
C1581 C1587 1.465 . S
C1582 C1577 1.399 . S
C1582 C1581 1.394 . S
C1582 C1583 1.516 . S
C1583 C1582 1.516 . S
C1583 C1584 1.502 . S
C1583 C1585 1.561 . S
C1583 C1586 1.526 . S
C1584 H1568 0.959 . S
C1584 H1569 0.959 . S
C1584 H1570 0.961 . S
C1584 C1583 1.502 . S
C1585 H1571 0.960 . S
C1585 H1572 0.961 . S
C1585 H1573 0.959 . S
C1585 C1583 1.561 . S
C1586 C1583 1.526 . S
C1586 C1587 1.396 . S
C1586 C1591 1.390 . S
C1587 C1581 1.465 . S
C1587 C1586 1.396 . S
C1587 C1588 1.399 . S
C1588 H1574 0.929 . S
C1588 C1587 1.399 . S
C1588 C1589 1.385 . S
C1589 H1575 0.931 . S
C1589 C1588 1.385 . S
C1589 C1590 1.389 . S
C1590 C1589 1.389 . S
C1590 C1591 1.387 . S
C1591 H1576 0.930 . S
C1591 C1586 1.390 . S
C1591 C1590 1.387 . S
H1592 C1604 0.930 . S
H1593 C1606 0.930 . S
H1594 C1607 0.930 1_554 S
H1595 C1611 0.959 . S
H1596 C1611 0.959 . S
H1597 C1611 0.961 . S
H1598 C1612 0.960 1_556 S
H1599 C1612 0.961 . S
H1600 C1612 0.959 . S
H1601 C1615 0.929 . S
H1602 C1616 0.931 . S
H1603 C1618 0.930 . S
C1604 H1592 0.930 . S
C1604 C1605 1.399 . S
C1604 C1609 1.399 1_556 S
C1605 C1604 1.399 . S
C1605 C1606 1.376 . S
C1606 H1593 0.930 . S
C1606 C1605 1.376 . S
C1606 C1607 1.388 . S
C1607 H1594 0.930 1_556 S
C1607 C1606 1.388 . S
C1607 C1608 1.390 1_556 S
C1608 C1607 1.390 1_554 S
C1608 C1609 1.394 . S
C1608 C1614 1.465 . S
C1609 C1604 1.399 1_554 S
C1609 C1608 1.394 . S
C1609 C1610 1.516 . S
C1610 C1609 1.516 . S
C1610 C1611 1.502 . S
C1610 C1612 1.561 . S
C1610 C1613 1.526 . S
C1611 H1595 0.959 . S
C1611 H1596 0.959 . S
C1611 H1597 0.961 . S
C1611 C1610 1.502 . S
C1612 H1598 0.960 1_554 S
C1612 H1599 0.961 . S
C1612 H1600 0.959 . S
C1612 C1610 1.561 . S
C1613 C1610 1.526 . S
C1613 C1614 1.396 . S
C1613 C1618 1.390 . S
C1614 C1608 1.465 . S
C1614 C1613 1.396 . S
C1614 C1615 1.399 . S
C1615 H1601 0.929 . S
C1615 C1614 1.399 . S
C1615 C1616 1.385 . S
C1616 H1602 0.931 . S
C1616 C1615 1.385 . S
C1616 C1617 1.389 . S
C1617 C1616 1.389 . S
C1617 C1618 1.387 . S
C1618 H1603 0.930 . S
C1618 C1613 1.390 . S
C1618 C1617 1.387 . S
H1619 C1631 0.930 . S
H1620 C1633 0.930 . S
H1621 C1634 0.930 . S
H1622 C1638 0.959 . S
H1623 C1638 0.959 . S
H1624 C1638 0.961 . S
H1625 C1639 0.960 . S
H1626 C1639 0.961 . S
H1627 C1639 0.959 . S
H1628 C1642 0.929 . S
H1629 C1643 0.931 . S
H1630 C1645 0.930 . S
C1631 H1619 0.930 . S
C1631 C1632 1.399 . S
C1631 C1636 1.399 . S
C1632 C1631 1.399 . S
C1632 C1633 1.376 . S
C1633 H1620 0.930 . S
C1633 C1632 1.376 . S
C1633 C1634 1.388 . S
C1634 H1621 0.930 . S
C1634 C1633 1.388 . S
C1634 C1635 1.390 . S
C1635 C1634 1.390 . S
C1635 C1636 1.394 . S
C1635 C1641 1.465 . S
C1636 C1631 1.399 . S
C1636 C1635 1.394 . S
C1636 C1637 1.516 . S
C1637 C1636 1.516 . S
C1637 C1638 1.502 . S
C1637 C1639 1.561 . S
C1637 C1640 1.526 . S
C1638 H1622 0.959 . S
C1638 H1623 0.959 . S
C1638 H1624 0.961 . S
C1638 C1637 1.502 . S
C1639 H1625 0.960 . S
C1639 H1626 0.961 . S
C1639 H1627 0.959 . S
C1639 C1637 1.561 . S
C1640 C1637 1.526 . S
C1640 C1641 1.396 . S
C1640 C1645 1.390 . S
C1641 C1635 1.465 . S
C1641 C1640 1.396 . S
C1641 C1642 1.399 . S
C1642 H1628 0.929 . S
C1642 C1641 1.399 . S
C1642 C1643 1.385 . S
C1643 H1629 0.931 . S
C1643 C1642 1.385 . S
C1643 C1644 1.389 . S
C1644 C1643 1.389 . S
C1644 C1645 1.387 . S
C1645 H1630 0.930 . S
C1645 C1640 1.390 . S
C1645 C1644 1.387 . S
H1646 C1658 0.930 . S
H1647 C1660 0.930 . S
H1648 C1661 0.930 . S
H1649 C1665 0.959 . S
H1650 C1665 0.959 . S
H1651 C1665 0.961 . S
H1652 C1666 0.960 . S
H1653 C1666 0.961 . S
H1654 C1666 0.959 . S
H1655 C1669 0.929 . S
H1656 C1670 0.931 . S
H1657 C1672 0.930 . S
C1658 H1646 0.930 . S
C1658 C1659 1.399 . S
C1658 C1663 1.399 . S
C1659 C1658 1.399 . S
C1659 C1660 1.376 . S
C1660 H1647 0.930 . S
C1660 C1659 1.376 . S
C1660 C1661 1.388 . S
C1661 H1648 0.930 . S
C1661 C1660 1.388 . S
C1661 C1662 1.390 . S
C1662 C1661 1.390 . S
C1662 C1663 1.394 . S
C1662 C1668 1.465 . S
C1663 C1658 1.399 . S
C1663 C1662 1.394 . S
C1663 C1664 1.516 . S
C1664 C1663 1.516 . S
C1664 C1665 1.502 . S
C1664 C1666 1.561 . S
C1664 C1667 1.526 . S
C1665 H1649 0.959 . S
C1665 H1650 0.959 . S
C1665 H1651 0.961 . S
C1665 C1664 1.502 . S
C1666 H1652 0.960 . S
C1666 H1653 0.961 . S
C1666 H1654 0.959 . S
C1666 C1664 1.561 . S
C1667 C1664 1.526 . S
C1667 C1668 1.396 . S
C1667 C1672 1.390 . S
C1668 C1662 1.465 . S
C1668 C1667 1.396 . S
C1668 C1669 1.399 . S
C1669 H1655 0.929 . S
C1669 C1668 1.399 . S
C1669 C1670 1.385 . S
C1670 H1656 0.931 . S
C1670 C1669 1.385 . S
C1670 C1671 1.389 . S
C1671 C1670 1.389 . S
C1671 C1672 1.387 . S
C1672 H1657 0.930 . S
C1672 C1667 1.390 . S
C1672 C1671 1.387 . S
H1673 C1685 0.930 . S
H1674 C1687 0.930 . S
H1675 C1688 0.930 . S
H1676 C1692 0.959 . S
H1677 C1692 0.959 . S
H1678 C1692 0.961 . S
H1679 C1693 0.960 . S
H1680 C1693 0.961 . S
H1681 C1693 0.959 . S
H1682 C1696 0.929 . S
H1683 C1697 0.931 . S
H1684 C1699 0.930 . S
C1685 H1673 0.930 . S
C1685 C1686 1.399 . S
C1685 C1690 1.399 . S
C1686 C1685 1.399 . S
C1686 C1687 1.376 . S
C1687 H1674 0.930 . S
C1687 C1686 1.376 . S
C1687 C1688 1.388 . S
C1688 H1675 0.930 . S
C1688 C1687 1.388 . S
C1688 C1689 1.390 . S
C1689 C1688 1.390 . S
C1689 C1690 1.394 . S
C1689 C1695 1.465 . S
C1690 C1685 1.399 . S
C1690 C1689 1.394 . S
C1690 C1691 1.516 . S
C1691 C1690 1.516 . S
C1691 C1692 1.502 . S
C1691 C1693 1.561 . S
C1691 C1694 1.526 . S
C1692 H1676 0.959 . S
C1692 H1677 0.959 . S
C1692 H1678 0.961 . S
C1692 C1691 1.502 . S
C1693 H1679 0.960 . S
C1693 H1680 0.961 . S
C1693 H1681 0.959 . S
C1693 C1691 1.561 . S
C1694 C1691 1.526 . S
C1694 C1695 1.396 . S
C1694 C1699 1.390 . S
C1695 C1689 1.465 . S
C1695 C1694 1.396 . S
C1695 C1696 1.399 . S
C1696 H1682 0.929 . S
C1696 C1695 1.399 . S
C1696 C1697 1.385 . S
C1697 H1683 0.931 . S
C1697 C1696 1.385 . S
C1697 C1698 1.389 . S
C1698 C1697 1.389 . S
C1698 C1699 1.387 . S
C1699 H1684 0.930 . S
C1699 C1694 1.390 . S
C1699 C1698 1.387 . S
H1700 C1712 0.930 . S
H1701 C1714 0.930 . S
H1702 C1715 0.930 . S
H1703 C1719 0.959 . S
H1704 C1719 0.959 . S
H1705 C1719 0.961 . S
H1706 C1720 0.960 . S
H1707 C1720 0.961 . S
H1708 C1720 0.959 . S
H1709 C1723 0.929 . S
H1710 C1724 0.931 . S
H1711 C1726 0.930 . S
C1712 H1700 0.930 . S
C1712 C1713 1.399 . S
C1712 C1717 1.399 . S
C1713 C1712 1.399 . S
C1713 C1714 1.376 . S
C1714 H1701 0.930 . S
C1714 C1713 1.376 . S
C1714 C1715 1.388 . S
C1715 H1702 0.930 . S
C1715 C1714 1.388 . S
C1715 C1716 1.390 . S
C1716 C1715 1.390 . S
C1716 C1717 1.394 . S
C1716 C1722 1.465 . S
C1717 C1712 1.399 . S
C1717 C1716 1.394 . S
C1717 C1718 1.516 . S
C1718 C1717 1.516 . S
C1718 C1719 1.502 . S
C1718 C1720 1.561 . S
C1718 C1721 1.526 . S
C1719 H1703 0.959 . S
C1719 H1704 0.959 . S
C1719 H1705 0.961 . S
C1719 C1718 1.502 . S
C1720 H1706 0.960 . S
C1720 H1707 0.961 . S
C1720 H1708 0.959 . S
C1720 C1718 1.561 . S
C1721 C1718 1.526 . S
C1721 C1722 1.396 . S
C1721 C1726 1.390 . S
C1722 C1716 1.465 . S
C1722 C1721 1.396 . S
C1722 C1723 1.399 . S
C1723 H1709 0.929 . S
C1723 C1722 1.399 . S
C1723 C1724 1.385 . S
C1724 H1710 0.931 . S
C1724 C1723 1.385 . S
C1724 C1725 1.389 . S
C1725 C1724 1.389 . S
C1725 C1726 1.387 . S
C1726 H1711 0.930 . S
C1726 C1721 1.390 . S
C1726 C1725 1.387 . S
H1727 C1739 0.930 . S
H1728 C1741 0.930 . S
H1729 C1742 0.930 . S
H1730 C1746 0.959 . S
H1731 C1746 0.959 . S
H1732 C1746 0.961 . S
H1733 C1747 0.960 . S
H1734 C1747 0.961 . S
H1735 C1747 0.959 . S
H1736 C1750 0.929 . S
H1737 C1751 0.931 . S
H1738 C1753 0.930 . S
C1739 H1727 0.930 . S
C1739 C1740 1.399 . S
C1739 C1744 1.399 . S
C1740 C1739 1.399 . S
C1740 C1741 1.376 . S
C1741 H1728 0.930 . S
C1741 C1740 1.376 . S
C1741 C1742 1.388 . S
C1742 H1729 0.930 . S
C1742 C1741 1.388 . S
C1742 C1743 1.390 . S
C1743 C1742 1.390 . S
C1743 C1744 1.394 . S
C1743 C1749 1.465 . S
C1744 C1739 1.399 . S
C1744 C1743 1.394 . S
C1744 C1745 1.516 . S
C1745 C1744 1.516 . S
C1745 C1746 1.502 . S
C1745 C1747 1.561 . S
C1745 C1748 1.526 . S
C1746 H1730 0.959 . S
C1746 H1731 0.959 . S
C1746 H1732 0.961 . S
C1746 C1745 1.502 . S
C1747 H1733 0.960 . S
C1747 H1734 0.961 . S
C1747 H1735 0.959 . S
C1747 C1745 1.561 . S
C1748 C1745 1.526 . S
C1748 C1749 1.396 . S
C1748 C1753 1.390 . S
C1749 C1743 1.465 . S
C1749 C1748 1.396 . S
C1749 C1750 1.399 . S
C1750 H1736 0.929 . S
C1750 C1749 1.399 . S
C1750 C1751 1.385 . S
C1751 H1737 0.931 . S
C1751 C1750 1.385 . S
C1751 C1752 1.389 . S
C1752 C1751 1.389 . S
C1752 C1753 1.387 . S
C1753 H1738 0.930 . S
C1753 C1748 1.390 . S
C1753 C1752 1.387 . S
H1754 C1766 0.930 . S
H1755 C1768 0.930 . S
H1756 C1769 0.930 . S
H1757 C1773 0.959 . S
H1758 C1773 0.959 . S
H1759 C1773 0.961 . S
H1760 C1774 0.960 . S
H1761 C1774 0.961 . S
H1762 C1774 0.959 . S
H1763 C1777 0.929 . S
H1764 C1778 0.931 . S
H1765 C1780 0.930 . S
C1766 H1754 0.930 . S
C1766 C1767 1.399 . S
C1766 C1771 1.399 . S
C1767 C1766 1.399 . S
C1767 C1768 1.376 . S
C1768 H1755 0.930 . S
C1768 C1767 1.376 . S
C1768 C1769 1.388 . S
C1769 H1756 0.930 . S
C1769 C1768 1.388 . S
C1769 C1770 1.390 . S
C1770 C1769 1.390 . S
C1770 C1771 1.394 . S
C1770 C1776 1.465 . S
C1771 C1766 1.399 . S
C1771 C1770 1.394 . S
C1771 C1772 1.516 . S
C1772 C1771 1.516 . S
C1772 C1773 1.502 . S
C1772 C1774 1.561 . S
C1772 C1775 1.526 . S
C1773 H1757 0.959 . S
C1773 H1758 0.959 . S
C1773 H1759 0.961 . S
C1773 C1772 1.502 . S
C1774 H1760 0.960 . S
C1774 H1761 0.961 . S
C1774 H1762 0.959 . S
C1774 C1772 1.561 . S
C1775 C1772 1.526 . S
C1775 C1776 1.396 . S
C1775 C1780 1.390 . S
C1776 C1770 1.465 . S
C1776 C1775 1.396 . S
C1776 C1777 1.399 . S
C1777 H1763 0.929 . S
C1777 C1776 1.399 . S
C1777 C1778 1.385 . S
C1778 H1764 0.931 . S
C1778 C1777 1.385 . S
C1778 C1779 1.389 . S
C1779 C1778 1.389 . S
C1779 C1780 1.387 . S
C1780 H1765 0.930 . S
C1780 C1775 1.390 . S
C1780 C1779 1.387 . S
H1781 C1793 0.930 . S
H1782 C1795 0.930 . S
H1783 C1796 0.930 . S
H1784 C1800 0.959 . S
H1785 C1800 0.959 . S
H1786 C1800 0.961 . S
H1787 C1801 0.960 . S
H1788 C1801 0.961 . S
H1789 C1801 0.959 . S
H1790 C1804 0.929 . S
H1791 C1805 0.931 . S
H1792 C1807 0.930 . S
C1793 H1781 0.930 . S
C1793 C1794 1.399 . S
C1793 C1798 1.399 . S
C1794 C1793 1.399 . S
C1794 C1795 1.376 . S
C1795 H1782 0.930 . S
C1795 C1794 1.376 . S
C1795 C1796 1.388 . S
C1796 H1783 0.930 . S
C1796 C1795 1.388 . S
C1796 C1797 1.390 . S
C1797 C1796 1.390 . S
C1797 C1798 1.394 . S
C1797 C1803 1.465 . S
C1798 C1793 1.399 . S
C1798 C1797 1.394 . S
C1798 C1799 1.516 . S
C1799 C1798 1.516 . S
C1799 C1800 1.502 . S
C1799 C1801 1.561 . S
C1799 C1802 1.526 . S
C1800 H1784 0.959 . S
C1800 H1785 0.959 . S
C1800 H1786 0.961 . S
C1800 C1799 1.502 . S
C1801 H1787 0.960 . S
C1801 H1788 0.961 . S
C1801 H1789 0.959 . S
C1801 C1799 1.561 . S
C1802 C1799 1.526 . S
C1802 C1803 1.396 . S
C1802 C1807 1.390 1_554 S
C1803 C1797 1.465 . S
C1803 C1802 1.396 . S
C1803 C1804 1.399 1_554 S
C1804 H1790 0.929 . S
C1804 C1803 1.399 1_556 S
C1804 C1805 1.385 . S
C1805 H1791 0.931 . S
C1805 C1804 1.385 . S
C1805 C1806 1.389 . S
C1806 C1805 1.389 . S
C1806 C1807 1.387 . S
C1807 H1792 0.930 . S
C1807 C1802 1.390 1_556 S
C1807 C1806 1.387 . S
C957 C359 1.538 . S
C969 C5 1.493 . S
C984 C418 1.544 . S
C996 C64 1.492 . S
C1011 C123 1.530 . S
C1023 C241 1.500 . S
C1038 C182 1.529 . S
C1050 C300 1.510 . S
C1065 C477 1.533 . S
C1077 C831 1.497 . S
C1092 C890 1.537 . S
C1104 C536 1.501 . S
C1119 C595 1.529 . S
C1131 C713 1.501 . S
C1146 C654 1.538 . S
C1158 C772 1.493 . S
C1173 C52 1.443 . S
C1185 C642 1.454 . S
C1200 C111 1.443 . S
C1212 C701 1.453 . S
C1227 C170 1.443 . S
C1239 C524 1.453 . S
C1254 C229 1.444 . S
C1266 C583 1.451 . S
C1281 C288 1.444 . S
C1293 C878 1.449 . S
C1308 C937 1.444 . S
C1320 C347 1.451 . S
C1335 C406 1.448 . S
C1347 C760 1.465 . S
C1362 C819 1.443 . S
C1374 C465 1.455 . S
C1389 C800 0.424 . S
C1401 C33 0.568 . S
C1416 C92 0.416 . S
C1428 C859 0.570 . S
C1443 C918 0.420 . S
C1455 C151 0.569 . S
C1470 C741 0.475 . S
C1482 C210 0.508 . S
C1497 C682 0.564 . S
C1509 C269 0.419 . S
C1524 C328 0.420 . S
C1536 C505 0.569 . S
C1551 C387 0.510 . S
C1563 C564 0.503 . S
C1578 C446 0.418 . S
C1590 C623 0.570 . S
C1605 C770 1.611 . S
C1617 C3 1.606 . S
C1632 C62 1.561 . S
C1644 C829 1.561 . S
C1659 C121 1.576 . S
C1671 C888 1.591 . S
C1686 C711 1.586 . S
C1698 C180 1.573 . S
C1713 C652 1.610 . S
C1725 C239 1.609 . S
C1740 C475 1.585 . S
C1752 C298 1.600 . S
C1767 C357 1.582 . S
C1779 C534 1.597 . S
C1794 C593 1.588 . S
C1806 C416 1.574 . S
