# Generated by pormake.
# Topology uks, (4)-cn, num edge types: 1
# Building blocks:
#     Node 0, Type 0, BuildingBlock: KOZSID_clean_sbu_0, # of connection points: 4
#     Node 1, Type 0, BuildingBlock: KOZSID_clean_sbu_0, # of connection points: 4
#     Node 2, Type 0, BuildingBlock: KOZSID_clean_sbu_0, # of connection points: 4
#     Node 3, Type 0, BuildingBlock: KOZSID_clean_sbu_0, # of connection points: 4
#     Node 4, Type 0, BuildingBlock: KOZSID_clean_sbu_0, # of connection points: 4
#     Node 5, Type 0, BuildingBlock: KOZSID_clean_sbu_0, # of connection points: 4
#     Node 6, Type 0, BuildingBlock: KOZSID_clean_sbu_0, # of connection points: 4
#     Node 7, Type 0, BuildingBlock: KOZSID_clean_sbu_0, # of connection points: 4
#     Node 8, Type 0, BuildingBlock: KOZSID_clean_sbu_0, # of connection points: 4
#     Node 9, Type 0, BuildingBlock: KOZSID_clean_sbu_0, # of connection points: 4
#     Node 10, Type 0, BuildingBlock: KOZSID_clean_sbu_0, # of connection points: 4
#     Node 11, Type 0, BuildingBlock: KOZSID_clean_sbu_0, # of connection points: 4
#     Node 12, Type 0, BuildingBlock: KOZSID_clean_sbu_0, # of connection points: 4
#     Node 13, Type 0, BuildingBlock: KOZSID_clean_sbu_0, # of connection points: 4
#     Node 14, Type 0, BuildingBlock: KOZSID_clean_sbu_0, # of connection points: 4
#     Node 15, Type 0, BuildingBlock: KOZSID_clean_sbu_0, # of connection points: 4
#     Node 16, Type 0, BuildingBlock: KOZSID_clean_sbu_0, # of connection points: 4
#     Node 17, Type 0, BuildingBlock: KOZSID_clean_sbu_0, # of connection points: 4
#     Node 18, Type 0, BuildingBlock: KOZSID_clean_sbu_0, # of connection points: 4
#     Node 19, Type 0, BuildingBlock: KOZSID_clean_sbu_0, # of connection points: 4
#     Node 20, Type 0, BuildingBlock: KOZSID_clean_sbu_0, # of connection points: 4
#     Node 21, Type 0, BuildingBlock: KOZSID_clean_sbu_0, # of connection points: 4
#     Node 22, Type 0, BuildingBlock: KOZSID_clean_sbu_0, # of connection points: 4
#     Node 23, Type 0, BuildingBlock: KOZSID_clean_sbu_0, # of connection points: 4
#     Edge 24, Type (0, 0), BuildingBlock: MIFKUJ_clean_linker_0, # of connection points: 2
#     Edge 25, Type (0, 0), BuildingBlock: MIFKUJ_clean_linker_0, # of connection points: 2
#     Edge 26, Type (0, 0), BuildingBlock: MIFKUJ_clean_linker_0, # of connection points: 2
#     Edge 27, Type (0, 0), BuildingBlock: MIFKUJ_clean_linker_0, # of connection points: 2
#     Edge 28, Type (0, 0), BuildingBlock: MIFKUJ_clean_linker_0, # of connection points: 2
#     Edge 29, Type (0, 0), BuildingBlock: MIFKUJ_clean_linker_0, # of connection points: 2
#     Edge 30, Type (0, 0), BuildingBlock: MIFKUJ_clean_linker_0, # of connection points: 2
#     Edge 31, Type (0, 0), BuildingBlock: MIFKUJ_clean_linker_0, # of connection points: 2
#     Edge 32, Type (0, 0), BuildingBlock: MIFKUJ_clean_linker_0, # of connection points: 2
#     Edge 33, Type (0, 0), BuildingBlock: MIFKUJ_clean_linker_0, # of connection points: 2
#     Edge 34, Type (0, 0), BuildingBlock: MIFKUJ_clean_linker_0, # of connection points: 2
#     Edge 35, Type (0, 0), BuildingBlock: MIFKUJ_clean_linker_0, # of connection points: 2
#     Edge 36, Type (0, 0), BuildingBlock: MIFKUJ_clean_linker_0, # of connection points: 2
#     Edge 37, Type (0, 0), BuildingBlock: MIFKUJ_clean_linker_0, # of connection points: 2
#     Edge 38, Type (0, 0), BuildingBlock: MIFKUJ_clean_linker_0, # of connection points: 2
#     Edge 39, Type (0, 0), BuildingBlock: MIFKUJ_clean_linker_0, # of connection points: 2
#     Edge 40, Type (0, 0), BuildingBlock: MIFKUJ_clean_linker_0, # of connection points: 2
#     Edge 41, Type (0, 0), BuildingBlock: MIFKUJ_clean_linker_0, # of connection points: 2
#     Edge 42, Type (0, 0), BuildingBlock: MIFKUJ_clean_linker_0, # of connection points: 2
#     Edge 43, Type (0, 0), BuildingBlock: MIFKUJ_clean_linker_0, # of connection points: 2
#     Edge 44, Type (0, 0), BuildingBlock: MIFKUJ_clean_linker_0, # of connection points: 2
#     Edge 45, Type (0, 0), BuildingBlock: MIFKUJ_clean_linker_0, # of connection points: 2
#     Edge 46, Type (0, 0), BuildingBlock: MIFKUJ_clean_linker_0, # of connection points: 2
#     Edge 47, Type (0, 0), BuildingBlock: MIFKUJ_clean_linker_0, # of connection points: 2
#     Edge 48, Type (0, 0), BuildingBlock: MIFKUJ_clean_linker_0, # of connection points: 2
#     Edge 49, Type (0, 0), BuildingBlock: MIFKUJ_clean_linker_0, # of connection points: 2
#     Edge 50, Type (0, 0), BuildingBlock: MIFKUJ_clean_linker_0, # of connection points: 2
#     Edge 51, Type (0, 0), BuildingBlock: MIFKUJ_clean_linker_0, # of connection points: 2
#     Edge 52, Type (0, 0), BuildingBlock: MIFKUJ_clean_linker_0, # of connection points: 2
#     Edge 53, Type (0, 0), BuildingBlock: MIFKUJ_clean_linker_0, # of connection points: 2
#     Edge 54, Type (0, 0), BuildingBlock: MIFKUJ_clean_linker_0, # of connection points: 2
#     Edge 55, Type (0, 0), BuildingBlock: MIFKUJ_clean_linker_0, # of connection points: 2
#     Edge 56, Type (0, 0), BuildingBlock: MIFKUJ_clean_linker_0, # of connection points: 2
#     Edge 57, Type (0, 0), BuildingBlock: MIFKUJ_clean_linker_0, # of connection points: 2
#     Edge 58, Type (0, 0), BuildingBlock: MIFKUJ_clean_linker_0, # of connection points: 2
#     Edge 59, Type (0, 0), BuildingBlock: MIFKUJ_clean_linker_0, # of connection points: 2
#     Edge 60, Type (0, 0), BuildingBlock: MIFKUJ_clean_linker_0, # of connection points: 2
#     Edge 61, Type (0, 0), BuildingBlock: MIFKUJ_clean_linker_0, # of connection points: 2
#     Edge 62, Type (0, 0), BuildingBlock: MIFKUJ_clean_linker_0, # of connection points: 2
#     Edge 63, Type (0, 0), BuildingBlock: MIFKUJ_clean_linker_0, # of connection points: 2
#     Edge 64, Type (0, 0), BuildingBlock: MIFKUJ_clean_linker_0, # of connection points: 2
#     Edge 65, Type (0, 0), BuildingBlock: MIFKUJ_clean_linker_0, # of connection points: 2
#     Edge 66, Type (0, 0), BuildingBlock: MIFKUJ_clean_linker_0, # of connection points: 2
#     Edge 67, Type (0, 0), BuildingBlock: MIFKUJ_clean_linker_0, # of connection points: 2
#     Edge 68, Type (0, 0), BuildingBlock: MIFKUJ_clean_linker_0, # of connection points: 2
#     Edge 69, Type (0, 0), BuildingBlock: MIFKUJ_clean_linker_0, # of connection points: 2
#     Edge 70, Type (0, 0), BuildingBlock: MIFKUJ_clean_linker_0, # of connection points: 2
#     Edge 71, Type (0, 0), BuildingBlock: MIFKUJ_clean_linker_0, # of connection points: 2
# Relax obj value: 0.059
# Max RMSD: 0.066
# Mean RMSD: 0.057
data_MOF--net-uks--node1-KOZSID_clean_sbu_0--edge1-MIFKUJ_clean_linker_0
_symmetry_space_group_name_H-M    P1
_symmetry_Int_Tables_number       1
_symmetry_cell_setting            triclinic
loop_
_symmetry_equiv_pos_as_xyz
'x, y, z'
_cell_length_a     78.216917
_cell_length_b     89.587632
_cell_length_c     80.905907
_cell_angle_alpha  89.329579
_cell_angle_beta   90.782359
_cell_angle_gamma 90.06145
loop_
_atom_site_label
_atom_site_type_symbol
_atom_site_fract_x
_atom_site_fract_y
_atom_site_fract_z
_atom_type_partial_charge
C0 C 0.08818 0.37876 0.69754 0.0
C1 C 0.0744 0.38381 0.70654 0.0
C2 C 0.08099 0.39258 0.71887 0.0
C3 C 0.09839 0.39234 0.71683 0.0
N4 N 0.10313 0.38391 0.70402 0.0
Co5 Co 0.12702 0.38016 0.69718 0.0
N6 N 0.1365 0.38642 0.71894 0.0
C7 C 0.12811 0.39434 0.7303 0.0
C8 C 0.13777 0.39689 0.74428 0.0
C9 C 0.15327 0.39031 0.74145 0.0
C10 C 0.15226 0.38419 0.72577 0.0
N11 N 0.15087 0.37657 0.69014 0.0
C12 C 0.16552 0.37536 0.69925 0.0
C13 C 0.1795 0.37344 0.68908 0.0
C14 C 0.17334 0.37355 0.67312 0.0
C15 C 0.15602 0.37556 0.67437 0.0
N16 N 0.11748 0.37378 0.67553 0.0
C17 C 0.12615 0.37302 0.66132 0.0
C18 C 0.11616 0.36827 0.6483 0.0
C19 C 0.10021 0.36595 0.65475 0.0
C20 C 0.10138 0.36939 0.67141 0.0
N21 N 0.12872 0.40084 0.68898 0.0
C22 C 0.13158 0.43049 0.67777 0.0
C23 C 0.11732 0.42182 0.67344 0.0
C24 C 0.11604 0.40707 0.67933 0.0
C25 C 0.14439 0.42398 0.68768 0.0
C26 C 0.14282 0.40918 0.69298 0.0
N27 N 0.1255 0.35962 0.7054 0.0
C28 C 0.13193 0.33353 0.70252 0.0
C29 C 0.12478 0.3303 0.71798 0.0
C30 C 0.1177 0.34214 0.7268 0.0
C31 C 0.11831 0.35666 0.72038 0.0
C32 C 0.13202 0.34819 0.69642 0.0
H33 H 0.11306 0.36551 0.72763 0.0
H34 H 0.1376 0.3503 0.68451 0.0
H35 H 0.10477 0.40072 0.67611 0.0
H36 H 0.1531 0.40452 0.70034 0.0
C37 C 0.11058 0.39719 0.72842 0.0
C38 C 0.08672 0.3696 0.68258 0.0
C39 C 0.16688 0.37753 0.71722 0.0
C40 C 0.14401 0.37438 0.66142 0.0
H41 H 0.061 0.38132 0.70459 0.0
H42 H 0.07399 0.39782 0.72868 0.0
H43 H 0.13386 0.40244 0.75542 0.0
H44 H 0.16409 0.39018 0.74992 0.0
H45 H 0.19279 0.37235 0.69278 0.0
H46 H 0.1806 0.37198 0.66198 0.0
H47 H 0.12012 0.36621 0.63577 0.0
H48 H 0.08899 0.36229 0.64795 0.0
H49 H 0.10711 0.42648 0.66582 0.0
H50 H 0.15572 0.43025 0.69113 0.0
H51 H 0.13777 0.32489 0.69526 0.0
H52 H 0.11166 0.34026 0.7386 0.0
C53 C 0.61047 0.62211 0.17339 0.0
C54 C 0.6141 0.62783 0.1578 0.0
C55 C 0.63138 0.62974 0.1573 0.0
C56 C 0.63728 0.62514 0.17255 0.0
N57 N 0.62483 0.62024 0.18273 0.0
Co58 Co 0.62758 0.61307 0.20622 0.0
N59 N 0.6529 0.61642 0.20564 0.0
C60 C 0.66212 0.622 0.19294 0.0
C61 C 0.67937 0.62244 0.19608 0.0
C62 C 0.68134 0.61654 0.21159 0.0
C63 C 0.66509 0.61283 0.21702 0.0
N64 N 0.63031 0.60595 0.22972 0.0
C65 C 0.64471 0.60345 0.23878 0.0
C66 C 0.64111 0.59802 0.25449 0.0
C67 C 0.62376 0.59682 0.2553 0.0
C68 C 0.61782 0.60158 0.24012 0.0
N69 N 0.60227 0.60958 0.20675 0.0
C70 C 0.59308 0.60411 0.21951 0.0
C71 C 0.5759 0.60308 0.21618 0.0
C72 C 0.57395 0.60836 0.20039 0.0
C73 C 0.59013 0.61236 0.19504 0.0
N74 N 0.63119 0.59227 0.19852 0.0
C75 C 0.63941 0.56263 0.1899 0.0
C76 C 0.62755 0.56557 0.20224 0.0
C77 C 0.62366 0.58033 0.20632 0.0
C78 C 0.64652 0.57483 0.18153 0.0
C79 C 0.6422 0.58938 0.18592 0.0
N80 N 0.62418 0.63392 0.21407 0.0
C81 C 0.61132 0.65151 0.23281 0.0
C82 C 0.62075 0.66334 0.22611 0.0
C83 C 0.63158 0.6602 0.21301 0.0
C84 C 0.63301 0.64562 0.2072 0.0
C85 C 0.61323 0.63703 0.22669 0.0
H86 H 0.6414 0.64413 0.19714 0.0
H87 H 0.6058 0.62853 0.23245 0.0
H88 H 0.6148 0.58182 0.21605 0.0
H89 H 0.64818 0.59813 0.17911 0.0
C90 C 0.65432 0.6258 0.17785 0.0
C91 C 0.59316 0.61936 0.17902 0.0
C92 C 0.66196 0.60524 0.23269 0.0
C93 C 0.60082 0.60074 0.23475 0.0
H94 H 0.60514 0.6306 0.14793 0.0
H95 H 0.63873 0.63424 0.14715 0.0
H96 H 0.68936 0.62615 0.18786 0.0
H97 H 0.69341 0.61479 0.21803 0.0
H98 H 0.65014 0.59485 0.26416 0.0
H99 H 0.61639 0.59247 0.26551 0.0
H100 H 0.56594 0.59925 0.22437 0.0
H101 H 0.56194 0.60943 0.19367 0.0
H102 H 0.62167 0.55652 0.20912 0.0
H103 H 0.65546 0.57318 0.17161 0.0
H104 H 0.60276 0.65333 0.243 0.0
H105 H 0.63889 0.669 0.20711 0.0
C106 C 0.41598 0.13265 0.6961 0.0
C107 C 0.42936 0.12654 0.70533 0.0
C108 C 0.42212 0.11761 0.71727 0.0
C109 C 0.40477 0.11874 0.71466 0.0
N110 N 0.4007 0.12782 0.70185 0.0
Co111 Co 0.37723 0.1326 0.69393 0.0
N112 N 0.36705 0.12632 0.71526 0.0
C113 C 0.37465 0.11738 0.72666 0.0
C114 C 0.36438 0.11436 0.73991 0.0
C115 C 0.34934 0.12173 0.73655 0.0
C116 C 0.35128 0.12894 0.72139 0.0
N117 N 0.35374 0.13746 0.68593 0.0
C118 C 0.33913 0.13944 0.6945 0.0
C119 C 0.32567 0.14318 0.68387 0.0
C120 C 0.332 0.14307 0.66815 0.0
C121 C 0.34896 0.13945 0.67 0.0
N122 N 0.38752 0.13878 0.67261 0.0
C123 C 0.37911 0.14037 0.65808 0.0
C124 C 0.38946 0.14539 0.64562 0.0
C125 C 0.40536 0.14701 0.65275 0.0
C126 C 0.40387 0.14274 0.66923 0.0
N127 N 0.37449 0.11216 0.68581 0.0
C128 C 0.37073 0.08237 0.67597 0.0
C129 C 0.35761 0.08971 0.68419 0.0
C130 C 0.35968 0.10454 0.68889 0.0
C131 C 0.38567 0.0904 0.67241 0.0
C132 C 0.38733 0.10525 0.67751 0.0
N133 N 0.37984 0.15288 0.70213 0.0
C134 C 0.37681 0.1794 0.69822 0.0
C135 C 0.3826 0.18189 0.71445 0.0
C136 C 0.38722 0.16948 0.72424 0.0
C137 C 0.38586 0.15514 0.71783 0.0
C138 C 0.37543 0.16484 0.69236 0.0
H139 H 0.3895 0.14584 0.72567 0.0
H140 H 0.3707 0.16327 0.67993 0.0
H141 H 0.34929 0.10975 0.6952 0.0
H142 H 0.39909 0.11109 0.67492 0.0
C143 C 0.39206 0.11383 0.72552 0.0
C144 C 0.41818 0.14204 0.68124 0.0
C145 C 0.3373 0.13667 0.7124 0.0
C146 C 0.36121 0.1402 0.65755 0.0
H147 H 0.44291 0.12829 0.70357 0.0
H148 H 0.42872 0.11155 0.72709 0.0
H149 H 0.36754 0.10784 0.75087 0.0
H150 H 0.33811 0.12154 0.74422 0.0
H151 H 0.3126 0.14567 0.68706 0.0
H152 H 0.32518 0.14585 0.6568 0.0
H153 H 0.38571 0.14839 0.63309 0.0
H154 H 0.41661 0.15107 0.64653 0.0
H155 H 0.34572 0.08405 0.68694 0.0
H156 H 0.39615 0.08514 0.66609 0.0
H157 H 0.37339 0.18859 0.69004 0.0
H158 H 0.39152 0.17074 0.73693 0.0
C159 C 0.88563 0.87514 0.17529 0.0
C160 C 0.88457 0.87155 0.15867 0.0
C161 C 0.86773 0.86885 0.15524 0.0
C162 C 0.85952 0.87104 0.16987 0.0
N163 N 0.87008 0.87493 0.18247 0.0
Co164 Co 0.86333 0.87991 0.20559 0.0
N165 N 0.83877 0.8751 0.20075 0.0
C166 C 0.83233 0.86913 0.18671 0.0
C167 C 0.81518 0.86611 0.18731 0.0
C168 C 0.81034 0.87047 0.20265 0.0
C169 C 0.82486 0.87612 0.21046 0.0
N170 N 0.85642 0.88587 0.22836 0.0
C171 C 0.84067 0.88717 0.23497 0.0
C172 C 0.84147 0.8933 0.25066 0.0
C173 C 0.85832 0.89575 0.25418 0.0
C174 C 0.86679 0.89122 0.24043 0.0
N175 N 0.88807 0.88383 0.21073 0.0
C176 C 0.8949 0.88772 0.2255 0.0
C177 C 0.91236 0.88894 0.22554 0.0
C178 C 0.91702 0.88548 0.20987 0.0
C179 C 0.90202 0.88244 0.20113 0.0
N180 N 0.8598 0.90103 0.19826 0.0
C181 C 0.85334 0.93109 0.18914 0.0
C182 C 0.86605 0.92743 0.20079 0.0
C183 C 0.86895 0.91248 0.20525 0.0
C184 C 0.84414 0.91945 0.18191 0.0
C185 C 0.8477 0.90462 0.18642 0.0
N186 N 0.86668 0.85872 0.213 0.0
C187 C 0.87264 0.8404 0.23467 0.0
C188 C 0.86953 0.82853 0.2239 0.0
C189 C 0.86538 0.83218 0.20745 0.0
C190 C 0.86395 0.84712 0.20235 0.0
C191 C 0.87131 0.85523 0.229 0.0
H192 H 0.86052 0.84896 0.1897 0.0
H193 H 0.87394 0.86367 0.23788 0.0
H194 H 0.87853 0.91048 0.21453 0.0
H195 H 0.84041 0.89626 0.18021 0.0
C196 C 0.84231 0.86799 0.17263 0.0
C197 C 0.90174 0.8782 0.1838 0.0
C198 C 0.82469 0.88278 0.22685 0.0
C199 C 0.88448 0.89139 0.23866 0.0
H200 H 0.89495 0.87071 0.15001 0.0
H201 H 0.8622 0.86531 0.14359 0.0
H202 H 0.80707 0.86165 0.17761 0.0
H203 H 0.7975 0.86979 0.2074 0.0
H204 H 0.83099 0.89583 0.25875 0.0
H205 H 0.86374 0.90036 0.2654 0.0
H206 H 0.92069 0.89218 0.23567 0.0
H207 H 0.92997 0.88529 0.20536 0.0
H208 H 0.87347 0.93611 0.20675 0.0
H209 H 0.83433 0.92176 0.17265 0.0
H210 H 0.87578 0.83837 0.24757 0.0
H211 H 0.86327 0.82355 0.19839 0.0
C212 C 0.09242 0.13224 0.80706 0.0
C213 C 0.07906 0.12698 0.79723 0.0
C214 C 0.0862 0.11803 0.78554 0.0
C215 C 0.10349 0.11846 0.78864 0.0
N216 N 0.10765 0.12718 0.80151 0.0
Co217 Co 0.13125 0.13177 0.80929 0.0
N218 N 0.14134 0.12552 0.78807 0.0
C219 C 0.1336 0.11681 0.77677 0.0
C220 C 0.14381 0.11378 0.76357 0.0
C221 C 0.15898 0.12091 0.76685 0.0
C222 C 0.15717 0.12801 0.78191 0.0
N223 N 0.15482 0.13628 0.81722 0.0
C224 C 0.16945 0.13824 0.80862 0.0
C225 C 0.1829 0.14195 0.81921 0.0
C226 C 0.17656 0.14172 0.83492 0.0
C227 C 0.1596 0.13812 0.83313 0.0
N228 N 0.12108 0.13806 0.83043 0.0
C229 C 0.12945 0.13925 0.84498 0.0
C230 C 0.11904 0.14371 0.85752 0.0
C231 C 0.10313 0.14541 0.85038 0.0
C232 C 0.10476 0.14196 0.8338 0.0
N233 N 0.13364 0.11127 0.81789 0.0
C234 C 0.1371 0.08165 0.829 0.0
C235 C 0.15004 0.08856 0.81994 0.0
C236 C 0.14817 0.10336 0.8147 0.0
C237 C 0.12247 0.08991 0.83267 0.0
C238 C 0.1209 0.10467 0.82683 0.0
N239 N 0.12899 0.15212 0.80064 0.0
C240 C 0.1337 0.1785 0.8035 0.0
C241 C 0.12697 0.1812 0.78757 0.0
C242 C 0.12099 0.16896 0.7785 0.0
C243 C 0.12221 0.15457 0.78519 0.0
C244 C 0.13449 0.16394 0.80981 0.0
H245 H 0.11775 0.14539 0.7778 0.0
H246 H 0.13977 0.16222 0.82206 0.0
H247 H 0.15851 0.10835 0.80794 0.0
H248 H 0.10932 0.11069 0.82944 0.0
C249 C 0.11613 0.11355 0.77789 0.0
C250 C 0.09036 0.14144 0.82192 0.0
C251 C 0.17129 0.1355 0.79077 0.0
C252 C 0.14735 0.13885 0.84557 0.0
H253 H 0.06559 0.12944 0.79813 0.0
H254 H 0.07963 0.11261 0.77539 0.0
H255 H 0.14052 0.10743 0.75268 0.0
H256 H 0.1702 0.12063 0.75918 0.0
H257 H 0.19596 0.14453 0.81601 0.0
H258 H 0.18338 0.14444 0.84622 0.0
H259 H 0.12269 0.14607 0.87018 0.0
H260 H 0.09165 0.14876 0.85667 0.0
H261 H 0.16162 0.08257 0.81703 0.0
H262 H 0.11218 0.08491 0.83964 0.0
H263 H 0.13869 0.18751 0.81095 0.0
H264 H 0.11535 0.17043 0.7663 0.0
C265 C 0.8939 0.62775 0.32598 0.0
C266 C 0.895 0.63161 0.34252 0.0
C267 C 0.87868 0.63405 0.34757 0.0
C268 C 0.8686 0.63147 0.3339 0.0
N269 N 0.8775 0.6274 0.32046 0.0
Co270 Co 0.86802 0.62245 0.29804 0.0
N271 N 0.84426 0.62723 0.3051 0.0
C272 C 0.83946 0.63323 0.31957 0.0
C273 C 0.82211 0.63498 0.32082 0.0
C274 C 0.81545 0.62952 0.30642 0.0
C275 C 0.82921 0.62468 0.29726 0.0
N276 N 0.85841 0.61677 0.27589 0.0
C277 C 0.84193 0.61462 0.27118 0.0
C278 C 0.84062 0.6092 0.25521 0.0
C279 C 0.85692 0.60765 0.24971 0.0
C280 C 0.86717 0.61209 0.26262 0.0
N281 N 0.89192 0.61827 0.29078 0.0
C282 C 0.89691 0.61411 0.27557 0.0
C283 C 0.91428 0.61289 0.27406 0.0
C284 C 0.92082 0.61676 0.28913 0.0
C285 C 0.90698 0.62008 0.29898 0.0
N286 N 0.86497 0.60131 0.30543 0.0
C287 C 0.85731 0.57123 0.31391 0.0
C288 C 0.86788 0.57478 0.30057 0.0
C289 C 0.87148 0.58972 0.29657 0.0
C290 C 0.85116 0.58313 0.32322 0.0
C291 C 0.85524 0.59788 0.31893 0.0
N292 N 0.87081 0.6437 0.29053 0.0
C293 C 0.87547 0.66204 0.2687 0.0
C294 C 0.87302 0.67384 0.27957 0.0
C295 C 0.86983 0.67027 0.2961 0.0
C296 C 0.86871 0.65531 0.30125 0.0
C297 C 0.8745 0.64723 0.27441 0.0
H298 H 0.86599 0.65349 0.31397 0.0
H299 H 0.87675 0.63884 0.26549 0.0
H300 H 0.87935 0.59165 0.28608 0.0
H301 H 0.85006 0.60637 0.32651 0.0
C302 C 0.85111 0.63452 0.3327 0.0
C303 C 0.90882 0.62562 0.31574 0.0
C304 C 0.82734 0.61658 0.28189 0.0
C305 C 0.88497 0.61126 0.26304 0.0
H306 H 0.90648 0.63301 0.34998 0.0
H307 H 0.87469 0.63786 0.35957 0.0
H308 H 0.81507 0.63887 0.33136 0.0
H309 H 0.802 0.62856 0.30331 0.0
H310 H 0.82913 0.60621 0.24843 0.0
H311 H 0.86085 0.60326 0.23794 0.0
H312 H 0.92135 0.60973 0.26324 0.0
H313 H 0.93426 0.61732 0.29243 0.0
H314 H 0.87341 0.56609 0.29315 0.0
H315 H 0.84282 0.58118 0.33359 0.0
H316 H 0.87828 0.66421 0.25582 0.0
H317 H 0.86777 0.67899 0.30502 0.0
C318 C 0.41743 0.37737 0.8082 0.0
C319 C 0.43064 0.38097 0.79757 0.0
C320 C 0.42331 0.38732 0.78379 0.0
C321 C 0.40609 0.38707 0.78664 0.0
N322 N 0.40194 0.38118 0.80152 0.0
Co323 Co 0.37818 0.37694 0.80953 0.0
N324 N 0.36741 0.38466 0.78845 0.0
C325 C 0.37559 0.39165 0.77594 0.0
C326 C 0.36497 0.39588 0.76312 0.0
C327 C 0.34903 0.39135 0.76771 0.0
C328 C 0.35083 0.38461 0.78317 0.0
N329 N 0.35456 0.37167 0.81711 0.0
C330 C 0.33929 0.3721 0.80889 0.0
C331 C 0.32613 0.36676 0.81869 0.0
C332 C 0.33334 0.36266 0.83351 0.0
C333 C 0.35042 0.3657 0.83195 0.0
N334 N 0.38887 0.3699 0.83089 0.0
C335 C 0.38048 0.36587 0.84473 0.0
C336 C 0.3911 0.36191 0.85766 0.0
C337 C 0.40726 0.36338 0.85168 0.0
C338 C 0.40556 0.36803 0.83531 0.0
N339 N 0.3762 0.39748 0.81881 0.0
C340 C 0.37076 0.42705 0.8297 0.0
C341 C 0.36285 0.41489 0.83743 0.0
C342 C 0.36579 0.40037 0.83192 0.0
C343 C 0.38203 0.42405 0.81691 0.0
C344 C 0.38455 0.40938 0.81174 0.0
N345 N 0.38003 0.3567 0.80023 0.0
C346 C 0.37894 0.32987 0.80351 0.0
C347 C 0.38208 0.32801 0.7867 0.0
C348 C 0.38436 0.34071 0.77683 0.0
C349 C 0.38343 0.35484 0.78382 0.0
C350 C 0.37783 0.34424 0.80997 0.0
H351 H 0.38547 0.36413 0.7757 0.0
H352 H 0.37506 0.34506 0.82283 0.0
H353 H 0.3592 0.39176 0.83837 0.0
H354 H 0.3932 0.40809 0.80185 0.0
C355 C 0.39343 0.39215 0.7756 0.0
C356 C 0.42016 0.3701 0.82436 0.0
C357 C 0.33652 0.37786 0.79206 0.0
C358 C 0.36279 0.36375 0.8444 0.0
H359 H 0.44418 0.37903 0.79939 0.0
H360 H 0.42974 0.39135 0.77285 0.0
H361 H 0.36849 0.40108 0.75151 0.0
H362 H 0.33749 0.39257 0.7603 0.0
H363 H 0.31267 0.36604 0.81551 0.0
H364 H 0.32687 0.35813 0.8442 0.0
H365 H 0.38752 0.35782 0.86977 0.0
H366 H 0.41896 0.36097 0.85849 0.0
H367 H 0.35398 0.41654 0.8474 0.0
H368 H 0.38889 0.43299 0.81077 0.0
H369 H 0.37698 0.32029 0.81156 0.0
H370 H 0.387 0.33975 0.76378 0.0
C371 C 0.59835 0.85776 0.33945 0.0
C372 C 0.59982 0.85103 0.35497 0.0
C373 C 0.61567 0.84454 0.35584 0.0
C374 C 0.62312 0.84783 0.34098 0.0
N375 N 0.613 0.85615 0.33092 0.0
Co376 Co 0.61915 0.86408 0.30881 0.0
N377 N 0.6438 0.86081 0.31325 0.0
C378 C 0.65055 0.85144 0.3247 0.0
C379 C 0.66809 0.85117 0.32455 0.0
C380 C 0.6726 0.86096 0.3122 0.0
C381 C 0.65749 0.86673 0.30554 0.0
N382 N 0.62533 0.87212 0.28676 0.0
C383 C 0.64046 0.87762 0.28152 0.0
C384 C 0.63903 0.88294 0.26536 0.0
C385 C 0.62254 0.88025 0.26025 0.0
C386 C 0.61478 0.87364 0.27358 0.0
N387 N 0.59447 0.86712 0.30421 0.0
C388 C 0.58718 0.86866 0.28911 0.0
C389 C 0.56971 0.86975 0.28958 0.0
C390 C 0.56576 0.86872 0.30599 0.0
C391 C 0.58114 0.86715 0.3147 0.0
N392 N 0.62103 0.88422 0.31791 0.0
C393 C 0.62685 0.91334 0.32918 0.0
C394 C 0.61638 0.91076 0.31529 0.0
C395 C 0.6137 0.89614 0.30983 0.0
C396 C 0.6338 0.90097 0.33763 0.0
C397 C 0.63062 0.88656 0.33189 0.0
N398 N 0.61752 0.84389 0.29966 0.0
C399 C 0.62917 0.82459 0.28261 0.0
C400 C 0.6163 0.81458 0.28744 0.0
C401 C 0.60388 0.81975 0.29836 0.0
C402 C 0.60467 0.8344 0.30423 0.0
C403 C 0.62959 0.83907 0.28887 0.0
H404 H 0.59497 0.83797 0.31266 0.0
H405 H 0.63983 0.84633 0.28504 0.0
H406 H 0.60606 0.89452 0.2988 0.0
H407 H 0.6363 0.87731 0.33859 0.0
C408 C 0.64029 0.84544 0.33716 0.0
C409 C 0.58244 0.86425 0.33261 0.0
C410 C 0.65652 0.87686 0.29114 0.0
C411 C 0.5972 0.87131 0.27519 0.0
H412 H 0.59038 0.85068 0.36462 0.0
H413 H 0.62131 0.83862 0.3663 0.0
H414 H 0.67661 0.84509 0.33284 0.0
H415 H 0.68554 0.86347 0.30851 0.0
H416 H 0.64884 0.88819 0.25799 0.0
H417 H 0.61673 0.88339 0.2485 0.0
H418 H 0.56092 0.87147 0.27929 0.0
H419 H 0.55296 0.86883 0.31087 0.0
H420 H 0.6108 0.91998 0.30835 0.0
H421 H 0.64174 0.90242 0.34857 0.0
H422 H 0.63888 0.82135 0.27395 0.0
H423 H 0.59376 0.81248 0.30265 0.0
C424 C 0.66061 0.12377 0.40284 0.0
C425 C 0.6432 0.12659 0.40173 0.0
C426 C 0.63834 0.12367 0.38568 0.0
C427 C 0.65303 0.11931 0.37795 0.0
N428 N 0.66671 0.11934 0.38818 0.0
Co429 Co 0.6905 0.11447 0.38242 0.0
N430 N 0.68571 0.11821 0.35875 0.0
C431 C 0.67018 0.11826 0.35136 0.0
C432 C 0.67098 0.12097 0.33465 0.0
C433 C 0.68806 0.12259 0.3314 0.0
C434 C 0.69677 0.12078 0.34639 0.0
N435 N 0.71432 0.10954 0.3768 0.0
C436 C 0.72303 0.11291 0.36296 0.0
C437 C 0.73959 0.10735 0.364 0.0
C438 C 0.74106 0.10005 0.37896 0.0
C439 C 0.72542 0.1016 0.38624 0.0
N440 N 0.69513 0.11058 0.40608 0.0
C441 C 0.70792 0.10232 0.41262 0.0
C442 C 0.70772 0.10197 0.42962 0.0
C443 C 0.69394 0.11056 0.43389 0.0
C444 C 0.68657 0.11566 0.41919 0.0
N445 N 0.68403 0.09345 0.37951 0.0
C446 C 0.67428 0.06364 0.37441 0.0
C447 C 0.6856 0.07087 0.3637 0.0
C448 C 0.69019 0.08572 0.36638 0.0
C449 C 0.668 0.07166 0.38782 0.0
C450 C 0.67315 0.08649 0.39025 0.0
N451 N 0.69702 0.13549 0.3851 0.0
C452 C 0.717 0.15411 0.39469 0.0
C453 C 0.70739 0.16555 0.38704 0.0
C454 C 0.69223 0.16153 0.37873 0.0
C455 C 0.68728 0.14653 0.37794 0.0
C456 C 0.71161 0.13922 0.3936 0.0
H457 H 0.67569 0.14384 0.37125 0.0
H458 H 0.71939 0.13068 0.39945 0.0
H459 H 0.69866 0.09097 0.35767 0.0
H460 H 0.66825 0.09235 0.40075 0.0
C461 C 0.65526 0.11826 0.36082 0.0
C462 C 0.67114 0.12479 0.41785 0.0
C463 C 0.71547 0.12011 0.34821 0.0
C464 C 0.72161 0.098 0.40273 0.0
H465 H 0.63493 0.13046 0.41139 0.0
H466 H 0.62581 0.12535 0.38014 0.0
H467 H 0.66041 0.12213 0.32595 0.0
H468 H 0.69348 0.12468 0.31935 0.0
H469 H 0.7495 0.10833 0.35484 0.0
H470 H 0.75237 0.09472 0.38413 0.0
H471 H 0.71698 0.09681 0.43793 0.0
H472 H 0.68986 0.1129 0.44632 0.0
H473 H 0.69062 0.06518 0.35307 0.0
H474 H 0.65931 0.06646 0.39647 0.0
H475 H 0.72865 0.15659 0.40152 0.0
H476 H 0.68441 0.16985 0.37245 0.0
C477 C 0.9218 0.21257 0.87999 0.0
C478 C 0.9351 0.22071 0.88702 0.0
C479 C 0.92785 0.23209 0.89549 0.0
C480 C 0.9106 0.23043 0.89304 0.0
N481 N 0.90632 0.21855 0.88368 0.0
Co482 Co 0.88268 0.21331 0.87548 0.0
N483 N 0.87213 0.23082 0.88691 0.0
C484 C 0.8804 0.24074 0.89666 0.0
C485 C 0.87001 0.25161 0.90277 0.0
C486 C 0.8541 0.24843 0.89667 0.0
C487 C 0.85564 0.23568 0.8872 0.0
N488 N 0.85917 0.20836 0.86674 0.0
C489 C 0.84393 0.21542 0.86865 0.0
C490 C 0.83078 0.20803 0.86041 0.0
C491 C 0.83794 0.19607 0.85288 0.0
C492 C 0.85497 0.19673 0.85697 0.0
N493 N 0.8931 0.19555 0.86448 0.0
C494 C 0.8846 0.1848 0.85609 0.0
C495 C 0.89494 0.17373 0.85037 0.0
C496 C 0.91107 0.17769 0.85521 0.0
C497 C 0.90968 0.19115 0.86345 0.0
N498 N 0.87873 0.20087 0.89553 0.0
C499 C 0.87339 0.1833 0.92401 0.0
C500 C 0.86811 0.17831 0.90852 0.0
C501 C 0.87074 0.18727 0.89456 0.0
C502 C 0.88142 0.19716 0.92508 0.0
C503 C 0.88404 0.20564 0.91079 0.0
N504 N 0.88683 0.22566 0.85555 0.0
C505 C 0.89104 0.22736 0.82612 0.0
C506 C 0.89709 0.24192 0.82764 0.0
C507 C 0.89715 0.24852 0.84312 0.0
C508 C 0.89206 0.24021 0.85686 0.0
C509 C 0.88572 0.21955 0.84013 0.0
H510 H 0.89284 0.24572 0.86841 0.0
H511 H 0.88106 0.20851 0.83824 0.0
H512 H 0.86611 0.18295 0.88319 0.0
H513 H 0.89038 0.21601 0.91246 0.0
C514 C 0.89814 0.24017 0.89883 0.0
C515 C 0.92454 0.19955 0.86949 0.0
C516 C 0.84112 0.22885 0.87845 0.0
C517 C 0.86713 0.18611 0.85262 0.0
H518 H 0.94869 0.21887 0.88589 0.0
H519 H 0.9344 0.2408 0.90225 0.0
H520 H 0.87365 0.26093 0.91045 0.0
H521 H 0.8427 0.25493 0.89879 0.0
H522 H 0.81733 0.21084 0.86005 0.0
H523 H 0.83144 0.18771 0.84555 0.0
H524 H 0.89125 0.16411 0.84317 0.0
H525 H 0.92259 0.1715 0.85266 0.0
H526 H 0.86165 0.16768 0.90721 0.0
H527 H 0.88582 0.20138 0.93689 0.0
H528 H 0.89039 0.22203 0.81417 0.0
H529 H 0.90159 0.25988 0.8447 0.0
C530 C 0.82153 0.35932 0.38114 0.0
C531 C 0.83711 0.35333 0.37661 0.0
C532 C 0.83631 0.35146 0.35991 0.0
C533 C 0.82037 0.3564 0.35524 0.0
N534 N 0.81096 0.36146 0.36793 0.0
Co535 Co 0.78694 0.36931 0.36684 0.0
N536 N 0.78569 0.36633 0.34236 0.0
C537 C 0.79778 0.36034 0.33264 0.0
C538 C 0.79358 0.36067 0.31615 0.0
C539 C 0.77806 0.36757 0.31523 0.0
C540 C 0.77366 0.37105 0.33131 0.0
N541 N 0.76296 0.37721 0.36574 0.0
C542 C 0.75324 0.38096 0.35238 0.0
C543 C 0.7376 0.38687 0.3568 0.0
C544 C 0.73759 0.38721 0.37365 0.0
C545 C 0.75316 0.38148 0.37848 0.0
N546 N 0.78821 0.37243 0.39131 0.0
C547 C 0.7758 0.37786 0.40105 0.0
C548 C 0.7804 0.37857 0.41743 0.0
C549 C 0.79666 0.37313 0.41824 0.0
C550 C 0.80104 0.3694 0.40223 0.0
N551 N 0.79577 0.38992 0.36291 0.0
C552 C 0.80662 0.41938 0.35532 0.0
C553 C 0.79405 0.41662 0.36715 0.0
C554 C 0.7889 0.40195 0.37076 0.0
C555 C 0.81389 0.40702 0.34768 0.0
C556 C 0.80835 0.39257 0.35162 0.0
N557 N 0.77804 0.34858 0.37064 0.0
C558 C 0.75916 0.3311 0.38462 0.0
C559 C 0.76594 0.31903 0.37607 0.0
C560 C 0.77882 0.32208 0.36472 0.0
C561 C 0.78458 0.33672 0.36222 0.0
C562 C 0.76538 0.34562 0.3818 0.0
H563 H 0.79436 0.33809 0.35336 0.0
H564 H 0.75978 0.35422 0.38889 0.0
H565 H 0.77915 0.4006 0.37975 0.0
H566 H 0.81434 0.38372 0.34522 0.0
C567 C 0.81368 0.35605 0.33915 0.0
C568 C 0.81719 0.36233 0.3982 0.0
C569 C 0.75877 0.37997 0.3354 0.0
C570 C 0.75977 0.38175 0.39457 0.0
H571 H 0.84784 0.35042 0.38461 0.0
H572 H 0.84609 0.34683 0.35213 0.0
H573 H 0.80127 0.35703 0.30593 0.0
H574 H 0.77114 0.37026 0.30393 0.0
H575 H 0.72754 0.391 0.34864 0.0
H576 H 0.72779 0.39179 0.38142 0.0
H577 H 0.77273 0.38234 0.4276 0.0
H578 H 0.80433 0.3718 0.4294 0.0
H579 H 0.78786 0.42574 0.37338 0.0
H580 H 0.82392 0.40842 0.3387 0.0
H581 H 0.74927 0.32937 0.39369 0.0
H582 H 0.78437 0.31323 0.35754 0.0
C583 C 0.59051 0.30671 0.89132 0.0
C584 C 0.57743 0.2967 0.89478 0.0
C585 C 0.58494 0.2842 0.90138 0.0
C586 C 0.60213 0.28717 0.90142 0.0
N587 N 0.60607 0.30093 0.89557 0.0
Co588 Co 0.62971 0.30884 0.89131 0.0
N589 N 0.64079 0.28967 0.89884 0.0
C590 C 0.6328 0.27785 0.90587 0.0
C591 C 0.64355 0.26621 0.90971 0.0
C592 C 0.65935 0.27085 0.90488 0.0
C593 C 0.65739 0.28517 0.89837 0.0
N594 N 0.6532 0.31643 0.88596 0.0
C595 C 0.66855 0.3093 0.88604 0.0
C596 C 0.68155 0.31871 0.88077 0.0
C597 C 0.67416 0.33214 0.87699 0.0
C598 C 0.65713 0.33022 0.88015 0.0
N599 N 0.61873 0.32821 0.88446 0.0
C600 C 0.6269 0.34106 0.88065 0.0
C601 C 0.61605 0.35258 0.87655 0.0
C602 C 0.6 0.34667 0.8776 0.0
C603 C 0.60198 0.33178 0.88216 0.0
N604 N 0.63176 0.31631 0.91437 0.0
C605 C 0.63499 0.32636 0.94718 0.0
C606 C 0.64284 0.33402 0.93422 0.0
C607 C 0.64109 0.32885 0.91807 0.0
C608 C 0.6253 0.31375 0.94343 0.0
C609 C 0.62388 0.30897 0.92715 0.0
N610 N 0.62749 0.30148 0.86859 0.0
C611 C 0.62459 0.30645 0.83934 0.0
C612 C 0.6196 0.2917 0.83671 0.0
C613 C 0.61939 0.28178 0.8501 0.0
C614 C 0.62337 0.28686 0.86584 0.0
C615 C 0.62871 0.31104 0.85532 0.0
H616 H 0.62255 0.27887 0.87565 0.0
H617 H 0.63249 0.32243 0.85677 0.0
H618 H 0.64754 0.33517 0.90889 0.0
H619 H 0.61635 0.29927 0.92536 0.0
C620 C 0.61496 0.27715 0.9064 0.0
C621 C 0.58763 0.32135 0.88348 0.0
C622 C 0.67155 0.2938 0.89132 0.0
C623 C 0.64458 0.34125 0.8784 0.0
H624 H 0.56388 0.2981 0.89244 0.0
H625 H 0.57865 0.274 0.90525 0.0
H626 H 0.64017 0.25537 0.91473 0.0
H627 H 0.6709 0.26424 0.90565 0.0
H628 H 0.69503 0.31618 0.87986 0.0
H629 H 0.68046 0.34214 0.87255 0.0
H630 H 0.61943 0.36373 0.87245 0.0
H631 H 0.58819 0.35253 0.87484 0.0
H632 H 0.65063 0.3438 0.93654 0.0
H633 H 0.61874 0.30756 0.95303 0.0
H634 H 0.62526 0.31438 0.82916 0.0
H635 H 0.61562 0.27023 0.84854 0.0
C636 C 0.67948 0.35324 0.12757 0.0
C637 C 0.66297 0.34784 0.12944 0.0
C638 C 0.66098 0.34492 0.1459 0.0
C639 C 0.67629 0.34874 0.15313 0.0
N640 N 0.68798 0.35389 0.14225 0.0
Co641 Co 0.71169 0.36114 0.14742 0.0
N642 N 0.70812 0.35826 0.17169 0.0
C643 C 0.69443 0.35215 0.17924 0.0
C644 C 0.69535 0.35282 0.19617 0.0
C645 C 0.71026 0.36019 0.19956 0.0
C646 C 0.71755 0.36358 0.18444 0.0
N647 N 0.7353 0.36856 0.15265 0.0
C648 C 0.74188 0.37304 0.16731 0.0
C649 C 0.75825 0.37876 0.16577 0.0
C650 C 0.76201 0.37823 0.14935 0.0
C651 C 0.74773 0.37225 0.14191 0.0
N652 N 0.71529 0.36419 0.12316 0.0
C653 C 0.72985 0.36866 0.1157 0.0
C654 C 0.72841 0.36971 0.09884 0.0
C655 C 0.71194 0.36573 0.09531 0.0
C656 C 0.70422 0.36253 0.11031 0.0
N657 N 0.70298 0.38188 0.14913 0.0
C658 C 0.69216 0.4116 0.15406 0.0
C659 C 0.7063 0.40843 0.14424 0.0
C660 C 0.71144 0.39363 0.14194 0.0
C661 C 0.68337 0.39951 0.16104 0.0
C662 C 0.68887 0.3849 0.15835 0.0
N663 N 0.72053 0.34015 0.14586 0.0
C664 C 0.74135 0.32222 0.13616 0.0
C665 C 0.73294 0.3104 0.14406 0.0
C666 C 0.71815 0.31375 0.15274 0.0
C667 C 0.71223 0.32846 0.15341 0.0
C668 C 0.73503 0.33683 0.13726 0.0
H669 H 0.70083 0.32996 0.1601 0.0
H670 H 0.74219 0.34518 0.13103 0.0
H671 H 0.72242 0.39189 0.13447 0.0
H672 H 0.6817 0.3762 0.16413 0.0
C673 C 0.67987 0.34809 0.17012 0.0
C674 C 0.68645 0.35774 0.11165 0.0
C675 C 0.73242 0.37316 0.18258 0.0
C676 C 0.74452 0.37226 0.12489 0.0
H677 H 0.65331 0.34628 0.11991 0.0
H678 H 0.64964 0.34071 0.15191 0.0
H679 H 0.68578 0.34929 0.20493 0.0
H680 H 0.71485 0.36337 0.21169 0.0
H681 H 0.76627 0.38345 0.17541 0.0
H682 H 0.77331 0.3826 0.14342 0.0
H683 H 0.73812 0.37308 0.09015 0.0
H684 H 0.70627 0.36525 0.08307 0.0
H685 H 0.71339 0.41732 0.13827 0.0
H686 H 0.67248 0.40126 0.1689 0.0
H687 H 0.75294 0.32028 0.12935 0.0
H688 H 0.71095 0.305 0.15884 0.0
C689 C 0.58683 0.21283 0.62309 0.0
C690 C 0.57344 0.22151 0.61698 0.0
C691 C 0.5806 0.23396 0.61006 0.0
C692 C 0.59789 0.2322 0.61228 0.0
N693 N 0.60226 0.21924 0.61998 0.0
Co694 Co 0.62597 0.21264 0.62653 0.0
N695 N 0.63635 0.23199 0.61864 0.0
C696 C 0.6279 0.24362 0.61149 0.0
C697 C 0.63823 0.25546 0.60755 0.0
C698 C 0.65427 0.25117 0.61245 0.0
C699 C 0.65284 0.23686 0.61905 0.0
N700 N 0.64967 0.20607 0.63323 0.0
C701 C 0.66493 0.21333 0.63227 0.0
C702 C 0.6783 0.20445 0.63811 0.0
C703 C 0.67128 0.19121 0.64305 0.0
C704 C 0.6541 0.19268 0.6399 0.0
N705 N 0.61558 0.19334 0.63455 0.0
C706 C 0.62406 0.18144 0.64103 0.0
C707 C 0.61356 0.17012 0.64625 0.0
C708 C 0.59736 0.17516 0.64318 0.0
C709 C 0.59891 0.18931 0.63618 0.0
N710 N 0.62918 0.204 0.60427 0.0
C711 C 0.63408 0.19198 0.57274 0.0
C712 C 0.63735 0.18346 0.58693 0.0
C713 C 0.63499 0.18969 0.60245 0.0
C714 C 0.62826 0.20654 0.57446 0.0
C715 C 0.62574 0.21223 0.59021 0.0
N716 N 0.62259 0.22119 0.64859 0.0
C717 C 0.62106 0.21788 0.67813 0.0
C718 C 0.61338 0.23187 0.67968 0.0
C719 C 0.61117 0.24069 0.66548 0.0
C720 C 0.61577 0.23515 0.65018 0.0
C721 C 0.62577 0.2129 0.6626 0.0
H722 H 0.6134 0.24228 0.6398 0.0
H723 H 0.63161 0.20218 0.66217 0.0
H724 H 0.63806 0.18269 0.61273 0.0
H725 H 0.62101 0.22329 0.59059 0.0
C726 C 0.61019 0.2431 0.60877 0.0
C727 C 0.58418 0.19878 0.6321 0.0
C728 C 0.66752 0.22845 0.62565 0.0
C729 C 0.64181 0.18176 0.64326 0.0
H730 H 0.55989 0.21921 0.61779 0.0
H731 H 0.57395 0.24344 0.60462 0.0
H732 H 0.63453 0.26599 0.60188 0.0
H733 H 0.66573 0.25788 0.61134 0.0
H734 H 0.69177 0.20721 0.63868 0.0
H735 H 0.67791 0.18164 0.64831 0.0
H736 H 0.61723 0.15969 0.65216 0.0
H737 H 0.58573 0.16924 0.64621 0.0
H738 H 0.64202 0.17211 0.58607 0.0
H739 H 0.62544 0.21347 0.5637 0.0
H740 H 0.62312 0.21061 0.68876 0.0
H741 H 0.60587 0.25183 0.66608 0.0
C742 C 0.80439 0.08816 0.13432 0.0
C743 C 0.79454 0.07697 0.12719 0.0
C744 C 0.78314 0.08388 0.1166 0.0
C745 C 0.78667 0.09884 0.11775 0.0
N746 N 0.79952 0.10176 0.12848 0.0
Co747 Co 0.80913 0.1218 0.13312 0.0
N748 N 0.78836 0.13195 0.12422 0.0
C749 C 0.77654 0.12583 0.11412 0.0
C750 C 0.76358 0.13555 0.10992 0.0
C751 C 0.7676 0.14862 0.11777 0.0
C752 C 0.78288 0.14614 0.1263 0.0
N753 N 0.81874 0.14189 0.13767 0.0
C754 C 0.81073 0.15525 0.13868 0.0
C755 C 0.82239 0.16657 0.14194 0.0
C756 C 0.83823 0.16 0.14292 0.0
C757 C 0.83538 0.14509 0.14018 0.0
N758 N 0.82991 0.11165 0.14198 0.0
C759 C 0.8453 0.11808 0.14439 0.0
C760 C 0.85709 0.10846 0.15133 0.0
C761 C 0.84863 0.09515 0.15323 0.0
C762 C 0.83212 0.0973 0.14711 0.0
N763 N 0.81917 0.12241 0.1112 0.0
C764 C 0.83445 0.12389 0.08032 0.0
C765 C 0.8348 0.11061 0.08954 0.0
C766 C 0.82721 0.11014 0.10506 0.0
C767 C 0.82609 0.13631 0.08667 0.0
C768 C 0.81843 0.13531 0.10204 0.0
N769 N 0.79921 0.12129 0.15498 0.0
C770 C 0.80162 0.12664 0.18389 0.0
C771 C 0.78477 0.12197 0.18617 0.0
C772 C 0.77532 0.11669 0.17265 0.0
C773 C 0.78275 0.11656 0.15708 0.0
C774 C 0.80865 0.12606 0.16823 0.0
H775 H 0.77516 0.11281 0.14672 0.0
H776 H 0.8217 0.12963 0.16682 0.0
H777 H 0.82795 0.09988 0.11213 0.0
H778 H 0.81199 0.14504 0.10655 0.0
C779 C 0.77668 0.11047 0.11109 0.0
C780 C 0.81922 0.08537 0.14532 0.0
C781 C 0.79246 0.15774 0.1352 0.0
C782 C 0.84725 0.13358 0.14281 0.0
H783 H 0.79563 0.06504 0.12922 0.0
H784 H 0.77315 0.07863 0.10931 0.0
H785 H 0.75227 0.13327 0.10253 0.0
H786 H 0.76019 0.15881 0.11718 0.0
H787 H 0.81976 0.17835 0.14334 0.0
H788 H 0.85026 0.16538 0.1459 0.0
H789 H 0.87004 0.11099 0.15525 0.0
H790 H 0.85407 0.08508 0.15858 0.0
H791 H 0.84113 0.10078 0.08492 0.0
H792 H 0.82534 0.1467 0.0797 0.0
H793 H 0.80933 0.1306 0.19417 0.0
H794 H 0.76222 0.11302 0.17404 0.0
C795 C 0.91999 0.30043 0.61496 0.0
C796 C 0.93309 0.29049 0.61166 0.0
C797 C 0.92567 0.27838 0.60419 0.0
C798 C 0.90848 0.28146 0.60348 0.0
N799 N 0.90466 0.29473 0.61008 0.0
Co800 Co 0.8813 0.303 0.61272 0.0
N801 N 0.87041 0.28312 0.60982 0.0
C802 C 0.87792 0.27112 0.60317 0.0
C803 C 0.86732 0.25892 0.60247 0.0
C804 C 0.85212 0.26358 0.60887 0.0
C805 C 0.85425 0.27846 0.61306 0.0
N806 N 0.85798 0.31136 0.61541 0.0
C807 C 0.84285 0.30438 0.61825 0.0
C808 C 0.82955 0.31463 0.61854 0.0
C809 C 0.83661 0.32842 0.61562 0.0
C810 C 0.85377 0.32587 0.61369 0.0
N811 N 0.8922 0.32284 0.61545 0.0
C812 C 0.88438 0.33611 0.61347 0.0
C813 C 0.89521 0.34794 0.61619 0.0
C814 C 0.91079 0.34168 0.62011 0.0
C815 C 0.90856 0.32632 0.61963 0.0
N816 N 0.87965 0.30656 0.5889 0.0
C817 C 0.87713 0.31281 0.55501 0.0
C818 C 0.86333 0.30654 0.56353 0.0
C819 C 0.86488 0.30345 0.58042 0.0
C820 C 0.89233 0.31559 0.56379 0.0
C821 C 0.89331 0.31244 0.58069 0.0
N822 N 0.88326 0.29958 0.6364 0.0
C823 C 0.88541 0.31003 0.66352 0.0
C824 C 0.89379 0.29716 0.66929 0.0
C825 C 0.89552 0.28509 0.65861 0.0
C826 C 0.8901 0.28651 0.64223 0.0
C827 C 0.88011 0.31097 0.64702 0.0
H828 H 0.89229 0.27731 0.63408 0.0
H829 H 0.87434 0.32122 0.64265 0.0
H830 H 0.854 0.29875 0.58663 0.0
H831 H 0.9051 0.31492 0.58714 0.0
C832 C 0.8955 0.27112 0.60005 0.0
C833 C 0.92242 0.31539 0.62206 0.0
C834 C 0.84029 0.28809 0.61873 0.0
C835 C 0.8665 0.33685 0.61227 0.0
H836 H 0.94656 0.29167 0.61452 0.0
H837 H 0.93196 0.26818 0.60061 0.0
H838 H 0.87041 0.24783 0.59826 0.0
H839 H 0.84072 0.25683 0.61011 0.0
H840 H 0.8161 0.31235 0.62027 0.0
H841 H 0.83004 0.33905 0.61522 0.0
H842 H 0.89202 0.3597 0.61609 0.0
H843 H 0.92243 0.3477 0.62298 0.0
H844 H 0.85123 0.30438 0.55733 0.0
H845 H 0.90341 0.32022 0.5577 0.0
H846 H 0.88361 0.31954 0.67146 0.0
H847 H 0.90135 0.27472 0.66277 0.0
C848 C 0.37922 0.70025 0.07764 0.0
C849 C 0.38584 0.70832 0.06445 0.0
C850 C 0.39572 0.71947 0.07109 0.0
C851 C 0.39467 0.71759 0.08792 0.0
N852 N 0.38471 0.70599 0.09229 0.0
Co853 Co 0.37985 0.69956 0.11542 0.0
N854 N 0.38734 0.71906 0.12474 0.0
C855 C 0.39675 0.72935 0.11668 0.0
C856 C 0.40035 0.74166 0.12605 0.0
C857 C 0.39298 0.73888 0.14105 0.0
C858 C 0.38534 0.72492 0.14008 0.0
N859 N 0.37498 0.69307 0.13856 0.0
C860 C 0.37398 0.70103 0.15277 0.0
C861 C 0.37108 0.69164 0.16622 0.0
C862 C 0.37041 0.67738 0.16027 0.0
C863 C 0.37295 0.67879 0.14357 0.0
N864 N 0.37241 0.68009 0.10604 0.0
C865 C 0.37062 0.66728 0.11469 0.0
C866 C 0.36492 0.65568 0.10513 0.0
C867 C 0.3631 0.66153 0.08945 0.0
C868 C 0.36792 0.67642 0.09026 0.0
N869 N 0.40315 0.69196 0.11782 0.0
C870 C 0.43583 0.67979 0.12189 0.0
C871 C 0.42654 0.67773 0.10719 0.0
C872 C 0.41023 0.68388 0.10542 0.0
C873 C 0.4286 0.68836 0.13434 0.0
C874 C 0.41231 0.69437 0.13205 0.0
N875 N 0.35668 0.70697 0.11284 0.0
C876 C 0.32655 0.7021 0.1133 0.0
C877 C 0.32348 0.71526 0.10429 0.0
C878 C 0.33723 0.72456 0.10035 0.0
C879 C 0.35374 0.72027 0.10489 0.0
C880 C 0.34327 0.69816 0.11745 0.0
H881 H 0.36418 0.72747 0.10148 0.0
H882 H 0.34537 0.68771 0.12385 0.0
H883 H 0.40325 0.68189 0.09408 0.0
H884 H 0.4071 0.70082 0.14192 0.0
C885 C 0.40017 0.72783 0.09982 0.0
C886 C 0.36896 0.68654 0.07576 0.0
C887 C 0.37768 0.71712 0.15438 0.0
C888 C 0.37148 0.66732 0.132 0.0
H889 H 0.38381 0.7063 0.05141 0.0
H890 H 0.40233 0.72823 0.06443 0.0
H891 H 0.40722 0.75161 0.12233 0.0
H892 H 0.39344 0.74621 0.15158 0.0
H893 H 0.37 0.69472 0.17906 0.0
H894 H 0.36808 0.66723 0.16727 0.0
H895 H 0.36172 0.64448 0.10919 0.0
H896 H 0.35867 0.6555 0.07871 0.0
H897 H 0.43163 0.6711 0.09729 0.0
H898 H 0.43548 0.69041 0.14581 0.0
H899 H 0.31618 0.69468 0.11665 0.0
H900 H 0.33524 0.73502 0.09374 0.0
C901 C 0.39613 0.83171 0.36633 0.0
C902 C 0.39265 0.8451 0.35812 0.0
C903 C 0.37649 0.84386 0.35148 0.0
C904 C 0.3709 0.82993 0.35615 0.0
N905 N 0.38248 0.82242 0.36548 0.0
Co906 Co 0.37931 0.80229 0.37539 0.0
N907 N 0.35428 0.80354 0.37262 0.0
C908 C 0.34571 0.81267 0.36213 0.0
C909 C 0.32832 0.81083 0.36292 0.0
C910 C 0.3259 0.79986 0.37463 0.0
C911 C 0.34202 0.79562 0.38039 0.0
N912 N 0.37621 0.78219 0.38525 0.0
C913 C 0.36226 0.77628 0.39249 0.0
C914 C 0.36585 0.76222 0.39908 0.0
C915 C 0.3825 0.75913 0.39531 0.0
C916 C 0.38822 0.77151 0.38689 0.0
N917 N 0.40442 0.80096 0.37803 0.0
C918 C 0.41349 0.78826 0.37993 0.0
C919 C 0.43079 0.79065 0.38058 0.0
C920 C 0.43273 0.80576 0.37887 0.0
C921 C 0.41641 0.81183 0.37732 0.0
N922 N 0.37732 0.81117 0.39769 0.0
C923 C 0.37058 0.82162 0.43006 0.0
C924 C 0.38186 0.80965 0.4274 0.0
C925 C 0.38512 0.8047 0.41124 0.0
C926 C 0.36326 0.82847 0.41592 0.0
C927 C 0.36676 0.82313 0.40002 0.0
N928 N 0.3808 0.79328 0.35306 0.0
C929 C 0.36968 0.77604 0.33264 0.0
C930 C 0.38156 0.78085 0.32081 0.0
C931 C 0.39317 0.79205 0.32574 0.0
C932 C 0.39261 0.79805 0.3418 0.0
C933 C 0.36951 0.78231 0.3485 0.0
H934 H 0.40172 0.80662 0.34505 0.0
H935 H 0.36002 0.77834 0.35704 0.0
H936 H 0.39364 0.79536 0.40976 0.0
H937 H 0.36044 0.82846 0.3896 0.0
C938 C 0.35413 0.82461 0.35443 0.0
C939 C 0.4129 0.82765 0.37352 0.0
C940 C 0.34536 0.7834 0.39229 0.0
C941 C 0.40532 0.77476 0.3836 0.0
H942 H 0.40093 0.85472 0.35691 0.0
H943 H 0.36944 0.85234 0.34462 0.0
H944 H 0.31853 0.81717 0.35638 0.0
H945 H 0.31366 0.79554 0.37848 0.0
H946 H 0.35744 0.75495 0.40599 0.0
H947 H 0.38982 0.7494 0.3991 0.0
H948 H 0.44079 0.78245 0.38252 0.0
H949 H 0.44485 0.81155 0.37854 0.0
H950 H 0.38816 0.80408 0.43773 0.0
H951 H 0.35437 0.83763 0.41708 0.0
H952 H 0.36021 0.76764 0.32962 0.0
H953 H 0.4028 0.79611 0.31732 0.0
C954 C 0.19857 0.8783 0.91968 0.0
C955 C 0.20944 0.88214 0.93264 0.0
C956 C 0.22373 0.8882 0.92575 0.0
C957 C 0.22082 0.88777 0.90901 0.0
N958 N 0.2054 0.88203 0.90476 0.0
Co959 Co 0.19666 0.87859 0.88157 0.0
N960 N 0.21869 0.88549 0.8714 0.0
C961 C 0.2324 0.89101 0.87966 0.0
C962 C 0.24581 0.89463 0.86965 0.0
C963 C 0.24041 0.89119 0.85403 0.0
C964 C 0.22388 0.8857 0.85535 0.0
N965 N 0.18806 0.87474 0.85841 0.0
C966 C 0.19612 0.8757 0.84357 0.0
C967 C 0.18527 0.87171 0.83064 0.0
C968 C 0.16997 0.86793 0.83747 0.0
C969 C 0.17226 0.86984 0.85414 0.0
N970 N 0.17463 0.87171 0.89176 0.0
C971 C 0.16029 0.8676 0.88345 0.0
C972 C 0.14738 0.86287 0.89355 0.0
C973 C 0.15387 0.86386 0.90926 0.0
C974 C 0.17046 0.86919 0.90789 0.0
N975 N 0.18776 0.89952 0.8801 0.0
C976 C 0.17676 0.92934 0.87489 0.0
C977 C 0.16689 0.91734 0.86945 0.0
C978 C 0.17245 0.90269 0.87235 0.0
C979 C 0.19187 0.92618 0.88362 0.0
C980 C 0.1971 0.91135 0.88602 0.0
N981 N 0.20552 0.85794 0.88285 0.0
C982 C 0.20183 0.83159 0.87799 0.0
C983 C 0.2183 0.82856 0.88407 0.0
C984 C 0.22818 0.84055 0.88966 0.0
C985 C 0.22165 0.85503 0.88883 0.0
C986 C 0.19569 0.8462 0.87764 0.0
H987 H 0.22986 0.86372 0.89308 0.0
H988 H 0.18301 0.84775 0.873 0.0
H989 H 0.16417 0.89418 0.86798 0.0
H990 H 0.2089 0.90983 0.89245 0.0
C991 C 0.2327 0.89174 0.89694 0.0
C992 C 0.18195 0.87105 0.92225 0.0
C993 C 0.21386 0.88049 0.84102 0.0
C994 C 0.15998 0.86682 0.86618 0.0
H995 H 0.20735 0.88052 0.94574 0.0
H996 H 0.2351 0.89208 0.93216 0.0
H997 H 0.25822 0.89893 0.87332 0.0
H998 H 0.24792 0.8924 0.84296 0.0
H999 H 0.18812 0.87154 0.81759 0.0
H1000 H 0.15858 0.86412 0.83106 0.0
H1001 H 0.13494 0.85864 0.88989 0.0
H1002 H 0.14728 0.86063 0.92042 0.0
H1003 H 0.15487 0.91923 0.86294 0.0
H1004 H 0.19995 0.93512 0.88813 0.0
H1005 H 0.1937 0.82279 0.87325 0.0
H1006 H 0.24091 0.83883 0.89477 0.0
C1007 C 0.1223 0.70932 0.41229 0.0
C1008 C 0.11407 0.71647 0.42504 0.0
C1009 C 0.10382 0.72721 0.41783 0.0
C1010 C 0.10629 0.72602 0.40112 0.0
N1011 N 0.11749 0.71523 0.39735 0.0
Co1012 Co 0.12465 0.71 0.37458 0.0
N1013 N 0.11615 0.72926 0.3649 0.0
C1014 C 0.1055 0.73872 0.37248 0.0
C1015 C 0.10175 0.75119 0.36313 0.0
C1016 C 0.11033 0.74939 0.34863 0.0
C1017 C 0.11873 0.73577 0.3498 0.0
N1018 N 0.13178 0.70463 0.3518 0.0
C1019 C 0.13283 0.71302 0.33766 0.0
C1020 C 0.13735 0.7042 0.32441 0.0
C1021 C 0.13907 0.6899 0.33038 0.0
C1022 C 0.13546 0.69069 0.34689 0.0
N1023 N 0.13314 0.69078 0.3843 0.0
C1024 C 0.13673 0.67843 0.37571 0.0
C1025 C 0.14259 0.66688 0.38555 0.0
C1026 C 0.14261 0.67227 0.40136 0.0
C1027 C 0.13667 0.68684 0.4003 0.0
N1028 N 0.1023 0.70092 0.37045 0.0
C1029 C 0.07019 0.68819 0.36461 0.0
C1030 C 0.07905 0.68537 0.37946 0.0
C1031 C 0.09505 0.69189 0.38216 0.0
C1032 C 0.07776 0.69743 0.35272 0.0
C1033 C 0.09379 0.70364 0.35585 0.0
N1034 N 0.14681 0.71898 0.3789 0.0
C1035 C 0.17729 0.71653 0.38048 0.0
C1036 C 0.17844 0.72961 0.38976 0.0
C1037 C 0.16349 0.73765 0.39275 0.0
C1038 C 0.14783 0.73221 0.38708 0.0
C1039 C 0.16136 0.7114 0.37519 0.0
H1040 H 0.1365 0.73844 0.38987 0.0
H1041 H 0.16077 0.70106 0.36855 0.0
H1042 H 0.10151 0.68964 0.39378 0.0
H1043 H 0.09924 0.71063 0.3464 0.0
C1044 C 0.10096 0.73636 0.38901 0.0
C1045 C 0.13358 0.69629 0.41477 0.0
C1046 C 0.12764 0.72882 0.3358 0.0
C1047 C 0.13713 0.67899 0.35843 0.0
H1048 H 0.11531 0.71415 0.43815 0.0
H1049 H 0.09605 0.73533 0.42409 0.0
H1050 H 0.09402 0.76064 0.36657 0.0
H1051 H 0.11016 0.75717 0.3383 0.0
H1052 H 0.13876 0.7076 0.31163 0.0
H1053 H 0.14267 0.68012 0.32351 0.0
H1054 H 0.14698 0.65604 0.38166 0.0
H1055 H 0.14655 0.66614 0.41237 0.0
H1056 H 0.07357 0.67835 0.38902 0.0
H1057 H 0.07145 0.69971 0.34096 0.0
H1058 H 0.18858 0.7102 0.37742 0.0
H1059 H 0.16377 0.74783 0.39983 0.0
C1060 C 0.30143 0.62886 0.90773 0.0
C1061 C 0.29204 0.62273 0.92056 0.0
C1062 C 0.27957 0.61403 0.91343 0.0
C1063 C 0.28204 0.61526 0.89669 0.0
N1064 N 0.29524 0.62422 0.89285 0.0
Co1065 Co 0.30301 0.62893 0.87004 0.0
N1066 N 0.28088 0.62253 0.85986 0.0
C1067 C 0.26914 0.61392 0.86739 0.0
C1068 C 0.25537 0.61068 0.85736 0.0
C1069 C 0.25872 0.61752 0.84251 0.0
C1070 C 0.27442 0.62464 0.84427 0.0
N1071 N 0.31091 0.63358 0.84722 0.0
C1072 C 0.30201 0.63491 0.83268 0.0
C1073 C 0.31291 0.63856 0.81983 0.0
C1074 C 0.32912 0.63902 0.82643 0.0
C1075 C 0.3273 0.63582 0.84294 0.0
N1076 N 0.32505 0.63538 0.88035 0.0
C1077 C 0.33988 0.63726 0.87235 0.0
C1078 C 0.35288 0.64219 0.88248 0.0
C1079 C 0.34582 0.64345 0.89783 0.0
C1080 C 0.32884 0.63912 0.89626 0.0
N1081 N 0.31184 0.60853 0.868 0.0
C1082 C 0.32426 0.57929 0.86454 0.0
C1083 C 0.32733 0.58731 0.8791 0.0
C1084 C 0.32101 0.60188 0.88059 0.0
C1085 C 0.31473 0.58627 0.85187 0.0
C1086 C 0.30876 0.6008 0.8538 0.0
N1087 N 0.2942 0.64915 0.87199 0.0
C1088 C 0.29768 0.6756 0.86812 0.0
C1089 C 0.28173 0.67823 0.87525 0.0
C1090 C 0.27216 0.66589 0.88063 0.0
C1091 C 0.27854 0.65149 0.87875 0.0
C1092 C 0.30372 0.66104 0.86675 0.0
H1093 H 0.27083 0.64224 0.88288 0.0
H1094 H 0.31611 0.65942 0.86143 0.0
H1095 H 0.32357 0.60777 0.89191 0.0
H1096 H 0.30158 0.60571 0.8437 0.0
C1097 C 0.27062 0.61053 0.88432 0.0
C1098 C 0.31689 0.63803 0.91019 0.0
C1099 C 0.28361 0.6316 0.83033 0.0
C1100 C 0.34018 0.63697 0.85506 0.0
H1101 H 0.29405 0.62434 0.93368 0.0
H1102 H 0.2695 0.60802 0.91971 0.0
H1103 H 0.24411 0.60427 0.86052 0.0
H1104 H 0.25074 0.61697 0.83151 0.0
H1105 H 0.30957 0.64056 0.80698 0.0
H1106 H 0.34078 0.64183 0.82003 0.0
H1107 H 0.36574 0.64522 0.87897 0.0
H1108 H 0.35243 0.64725 0.90884 0.0
H1109 H 0.33474 0.58247 0.88922 0.0
H1110 H 0.31163 0.58052 0.84052 0.0
H1111 H 0.30544 0.68469 0.86345 0.0
H1112 H 0.2599 0.66728 0.88647 0.0
C1113 C 0.11768 0.81492 0.09257 0.0
C1114 C 0.10707 0.80933 0.08024 0.0
C1115 C 0.09509 0.80057 0.08796 0.0
C1116 C 0.09897 0.80132 0.10455 0.0
N1117 N 0.11267 0.80996 0.10773 0.0
Co1118 Co 0.12254 0.81384 0.13011 0.0
N1119 N 0.11079 0.79627 0.14026 0.0
C1120 C 0.09756 0.7889 0.13331 0.0
C1121 C 0.09187 0.77725 0.14293 0.0
C1122 C 0.10195 0.77742 0.15693 0.0
C1123 C 0.11319 0.78932 0.15521 0.0
N1124 N 0.13247 0.81783 0.15248 0.0
C1125 C 0.13303 0.80922 0.1665 0.0
C1126 C 0.14051 0.81701 0.17947 0.0
C1127 C 0.14465 0.83088 0.17342 0.0
C1128 C 0.13945 0.83089 0.15715 0.0
N1129 N 0.13425 0.83137 0.11992 0.0
C1130 C 0.14103 0.8429 0.12824 0.0
C1131 C 0.14859 0.85328 0.11806 0.0
C1132 C 0.14636 0.84798 0.10234 0.0
C1133 C 0.13748 0.83462 0.10377 0.0
N1134 N 0.1028 0.82628 0.13514 0.0
C1135 C 0.07159 0.84043 0.1405 0.0
C1136 C 0.0805 0.843 0.12585 0.0
C1137 C 0.09611 0.83582 0.12341 0.0
C1138 C 0.07916 0.83146 0.15282 0.0
C1139 C 0.09477 0.82458 0.14994 0.0
N1140 N 0.14195 0.80139 0.12491 0.0
C1141 C 0.17223 0.79823 0.12235 0.0
C1142 C 0.16946 0.7852 0.11334 0.0
C1143 C 0.1528 0.78007 0.11084 0.0
C1144 C 0.13923 0.78823 0.11692 0.0
C1145 C 0.15824 0.80624 0.12797 0.0
H1146 H 0.1265 0.7841 0.11469 0.0
H1147 H 0.16055 0.81655 0.13436 0.0
H1148 H 0.10238 0.83749 0.11175 0.0
H1149 H 0.09995 0.81739 0.1595 0.0
C1150 C 0.09231 0.79207 0.11699 0.0
C1151 C 0.13155 0.82574 0.08955 0.0
C1152 C 0.12485 0.79445 0.16858 0.0
C1153 C 0.14268 0.8422 0.14549 0.0
H1154 H 0.10791 0.81138 0.06706 0.0
H1155 H 0.08519 0.79395 0.08209 0.0
H1156 H 0.08186 0.76932 0.13996 0.0
H1157 H 0.10094 0.76974 0.16728 0.0
H1158 H 0.14238 0.81324 0.19212 0.0
H1159 H 0.15091 0.83982 0.18006 0.0
H1160 H 0.15556 0.86319 0.12168 0.0
H1161 H 0.15082 0.85332 0.09113 0.0
H1162 H 0.07508 0.8499 0.11603 0.0
H1163 H 0.07284 0.82944 0.16447 0.0
H1164 H 0.18505 0.80241 0.12458 0.0
H1165 H 0.1503 0.76985 0.1042 0.0
C1166 C 0.19397 0.63337 0.58443 0.0
C1167 C 0.2049 0.62936 0.57187 0.0
C1168 C 0.21873 0.62264 0.57926 0.0
C1169 C 0.2155 0.62288 0.59586 0.0
N1170 N 0.20028 0.62906 0.59955 0.0
Co1171 Co 0.19133 0.63258 0.6224 0.0
N1172 N 0.21294 0.62512 0.63335 0.0
C1173 C 0.22622 0.61868 0.62566 0.0
C1174 C 0.23919 0.61434 0.63621 0.0
C1175 C 0.23393 0.61828 0.65158 0.0
C1176 C 0.21802 0.62497 0.64955 0.0
N1177 N 0.18265 0.63674 0.64522 0.0
C1178 C 0.19066 0.636 0.6603 0.0
C1179 C 0.18008 0.64103 0.6727 0.0
C1180 C 0.1649 0.64491 0.66532 0.0
C1181 C 0.16705 0.64223 0.64885 0.0
N1182 N 0.16965 0.63991 0.61139 0.0
C1183 C 0.15524 0.64402 0.61915 0.0
C1184 C 0.14266 0.64919 0.6086 0.0
C1185 C 0.14949 0.6485 0.59318 0.0
C1186 C 0.16592 0.64287 0.59514 0.0
N1187 N 0.1817 0.61183 0.62356 0.0
C1188 C 0.17032 0.58215 0.629 0.0
C1189 C 0.16123 0.59428 0.63502 0.0
C1190 C 0.16694 0.60886 0.63199 0.0
C1191 C 0.18467 0.58514 0.61944 0.0
C1192 C 0.19009 0.5999 0.61691 0.0
N1193 N 0.2009 0.65296 0.62146 0.0
C1194 C 0.19812 0.67935 0.62632 0.0
C1195 C 0.21497 0.68173 0.62155 0.0
C1196 C 0.2246 0.6696 0.6164 0.0
C1197 C 0.2174 0.65534 0.6166 0.0
C1198 C 0.1913 0.66498 0.62598 0.0
H1199 H 0.22544 0.64637 0.61297 0.0
H1200 H 0.17829 0.66381 0.62953 0.0
H1201 H 0.15924 0.61745 0.63686 0.0
H1202 H 0.20128 0.60123 0.60978 0.0
C1203 C 0.22681 0.6181 0.6084 0.0
C1204 C 0.17778 0.64127 0.58132 0.0
C1205 C 0.20828 0.63087 0.66345 0.0
C1206 C 0.15487 0.64509 0.63638 0.0
H1207 H 0.20315 0.63128 0.55872 0.0
H1208 H 0.23 0.61843 0.57326 0.0
H1209 H 0.25122 0.6092 0.63307 0.0
H1210 H 0.24107 0.61652 0.66299 0.0
H1211 H 0.18304 0.64201 0.68574 0.0
H1212 H 0.15374 0.64943 0.67123 0.0
H1213 H 0.13033 0.6537 0.61181 0.0
H1214 H 0.14325 0.65224 0.58186 0.0
H1215 H 0.14974 0.59255 0.64213 0.0
H1216 H 0.19209 0.57611 0.61439 0.0
H1217 H 0.19022 0.68857 0.63022 0.0
H1218 H 0.23775 0.67106 0.61266 0.0
C1219 C 0.30477 0.87932 0.59718 0.0
C1220 C 0.29394 0.88308 0.58405 0.0
C1221 C 0.27969 0.8893 0.59065 0.0
C1222 C 0.28247 0.88893 0.60741 0.0
N1223 N 0.29775 0.883 0.61196 0.0
Co1224 Co 0.30606 0.87931 0.63535 0.0
N1225 N 0.28389 0.88617 0.64507 0.0
C1226 C 0.27017 0.89143 0.63649 0.0
C1227 C 0.25653 0.89479 0.64621 0.0
C1228 C 0.26176 0.89142 0.66198 0.0
C1229 C 0.27843 0.88624 0.66103 0.0
N1230 N 0.31437 0.87554 0.65871 0.0
C1231 C 0.30618 0.87661 0.67343 0.0
C1232 C 0.31696 0.87291 0.68661 0.0
C1233 C 0.33235 0.86918 0.68006 0.0
C1234 C 0.33019 0.87087 0.6633 0.0
N1235 N 0.32809 0.87216 0.62562 0.0
C1236 C 0.34222 0.86781 0.63419 0.0
C1237 C 0.3552 0.86297 0.62439 0.0
C1238 C 0.34892 0.86404 0.60859 0.0
C1239 C 0.33235 0.86942 0.60962 0.0
N1240 N 0.31514 0.90019 0.63636 0.0
C1241 C 0.32704 0.92995 0.63976 0.0
C1242 C 0.33718 0.91778 0.64465 0.0
C1243 C 0.3311 0.90319 0.64275 0.0
C1244 C 0.31102 0.92687 0.63271 0.0
C1245 C 0.3054 0.91211 0.63118 0.0
N1246 N 0.29707 0.85871 0.63439 0.0
C1247 C 0.30051 0.83229 0.63973 0.0
C1248 C 0.28482 0.82936 0.63204 0.0
C1249 C 0.27525 0.84129 0.62573 0.0
C1250 C 0.28148 0.8558 0.62721 0.0
C1251 C 0.30643 0.84696 0.64063 0.0
H1252 H 0.27349 0.86449 0.6224 0.0
H1253 H 0.31867 0.84853 0.64631 0.0
H1254 H 0.33955 0.89458 0.64675 0.0
H1255 H 0.29305 0.91073 0.62584 0.0
C1256 C 0.27026 0.89249 0.61922 0.0
C1257 C 0.32119 0.87162 0.59502 0.0
C1258 C 0.28833 0.88119 0.67564 0.0
C1259 C 0.34245 0.86741 0.6515 0.0
H1260 H 0.29583 0.88112 0.57104 0.0
H1261 H 0.26832 0.89303 0.58405 0.0
H1262 H 0.24411 0.89893 0.64227 0.0
H1263 H 0.25405 0.89245 0.67291 0.0
H1264 H 0.314 0.87285 0.69964 0.0
H1265 H 0.34369 0.86546 0.68671 0.0
H1266 H 0.3676 0.85877 0.62829 0.0
H1267 H 0.3557 0.86099 0.59756 0.0
H1268 H 0.34966 0.91944 0.65028 0.0
H1269 H 0.30277 0.93581 0.62831 0.0
H1270 H 0.30831 0.82328 0.64474 0.0
H1271 H 0.2629 0.83943 0.61987 0.0
H1272 H 0.13197 0.18977 0.75529 0.0
H1273 H 0.13109 0.21487 0.74348 0.0
H1274 H 0.12117 0.23284 0.79165 0.0
H1275 H 0.12082 0.20763 0.80339 0.0
H1276 H 0.10228 0.24671 0.77016 0.0
H1277 H 0.1616 0.23448 0.77313 0.0
H1278 H 0.1874 0.21933 0.7687 0.0
H1279 H 0.18021 0.22355 0.71615 0.0
H1280 H 0.1542 0.23855 0.72026 0.0
H1281 H 0.12829 0.32152 0.75055 0.0
H1282 H 0.12806 0.29619 0.76197 0.0
H1283 H 0.12253 0.27842 0.71294 0.0
H1284 H 0.12175 0.30373 0.70135 0.0
H1285 H 0.14945 0.26483 0.73474 0.0
H1286 H 0.08939 0.27763 0.73327 0.0
H1287 H 0.06458 0.29355 0.73921 0.0
H1288 H 0.07507 0.28926 0.79128 0.0
H1289 H 0.10012 0.27348 0.78564 0.0
C1290 C 0.12932 0.199 0.76338 0.0
C1291 C 0.12649 0.19659 0.78035 0.0
C1292 C 0.12908 0.21342 0.75662 0.0
C1293 C 0.1264 0.22582 0.7667 0.0
C1294 C 0.12338 0.22347 0.78361 0.0
C1295 C 0.12338 0.20903 0.79035 0.0
C1296 C 0.12662 0.24122 0.7596 0.0
C1297 C 0.11273 0.2507 0.76261 0.0
C1298 C 0.14013 0.24645 0.74955 0.0
C1299 C 0.15585 0.23753 0.74701 0.0
C1300 C 0.16545 0.23209 0.76063 0.0
C1301 C 0.18012 0.22354 0.75818 0.0
C1302 C 0.18542 0.22045 0.74216 0.0
C1303 C 0.17608 0.22594 0.72855 0.0
C1304 C 0.16138 0.23448 0.73094 0.0
C1305 C 0.1267 0.3123 0.74214 0.0
C1306 C 0.12493 0.31479 0.72497 0.0
C1307 C 0.12675 0.29781 0.74872 0.0
C1308 C 0.12527 0.28548 0.73828 0.0
C1309 C 0.12377 0.28782 0.72117 0.0
C1310 C 0.12343 0.30233 0.71457 0.0
C1311 C 0.12515 0.27015 0.74531 0.0
C1312 C 0.13906 0.26075 0.7423 0.0
C1313 C 0.11184 0.26509 0.75561 0.0
C1314 C 0.09674 0.27451 0.75902 0.0
C1315 C 0.08651 0.2802 0.74598 0.0
C1316 C 0.07238 0.28917 0.74929 0.0
C1317 C 0.06828 0.29245 0.76561 0.0
C1318 C 0.07827 0.28673 0.77865 0.0
C1319 C 0.09243 0.27776 0.7754 0.0
H1320 H 0.05733 0.2994 0.76815 0.0
H1321 H 0.19677 0.21382 0.74028 0.0
H1322 H 0.67787 0.57867 0.22904 0.0
H1323 H 0.70537 0.57102 0.24149 0.0
H1324 H 0.70673 0.61185 0.26939 0.0
H1325 H 0.67916 0.61917 0.25725 0.0
H1326 H 0.73343 0.58489 0.2359 0.0
H1327 H 0.73068 0.60987 0.3027 0.0
H1328 H 0.71058 0.6102 0.32588 0.0
H1329 H 0.68616 0.57062 0.30765 0.0
H1330 H 0.70628 0.56987 0.2845 0.0
H1331 H 0.8043 0.62588 0.25873 0.0
H1332 H 0.77612 0.61511 0.25278 0.0
H1333 H 0.78505 0.58111 0.29019 0.0
H1334 H 0.8133 0.59207 0.2962 0.0
H1335 H 0.75418 0.59336 0.29324 0.0
H1336 H 0.78441 0.57093 0.25045 0.0
H1337 H 0.80475 0.56915 0.22756 0.0
H1338 H 0.77431 0.59978 0.19851 0.0
H1339 H 0.75393 0.60197 0.22132 0.0
C1340 C 0.68389 0.58567 0.23827 0.0
C1341 C 0.67663 0.59941 0.24237 0.0
C1342 C 0.69953 0.58135 0.24533 0.0
C1343 C 0.70804 0.59078 0.25649 0.0
C1344 C 0.70023 0.6042 0.26115 0.0
C1345 C 0.68458 0.60845 0.25417 0.0
C1346 C 0.72611 0.58803 0.26123 0.0
C1347 C 0.73796 0.58645 0.24849 0.0
C1348 C 0.73202 0.58955 0.27773 0.0
C1349 C 0.72001 0.58983 0.29181 0.0
C1350 C 0.72113 0.60115 0.3037 0.0
C1351 C 0.7097 0.60143 0.31682 0.0
C1352 C 0.69709 0.59045 0.31823 0.0
C1353 C 0.69591 0.57914 0.30653 0.0
C1354 C 0.70732 0.57879 0.29339 0.0
C1355 C 0.80025 0.61601 0.26547 0.0
C1356 C 0.81078 0.60963 0.27773 0.0
C1357 C 0.78427 0.60982 0.26206 0.0
C1358 C 0.77866 0.59715 0.27086 0.0
C1359 C 0.78923 0.59079 0.28318 0.0
C1360 C 0.80526 0.597 0.28659 0.0
C1361 C 0.76125 0.59134 0.26774 0.0
C1362 C 0.7496 0.59128 0.28077 0.0
C1363 C 0.75553 0.58799 0.25156 0.0
C1364 C 0.76763 0.58662 0.23765 0.0
C1365 C 0.78209 0.57735 0.23922 0.0
C1366 C 0.79363 0.57627 0.22625 0.0
C1367 C 0.79082 0.58435 0.21159 0.0
C1368 C 0.77646 0.59351 0.20986 0.0
C1369 C 0.76488 0.59465 0.22281 0.0
H1370 H 0.79978 0.5835 0.20157 0.0
H1371 H 0.68825 0.5907 0.32839 0.0
H1372 H 0.36538 0.3184 0.75906 0.0
H1373 H 0.36632 0.29352 0.74684 0.0
H1374 H 0.40128 0.27886 0.78536 0.0
H1375 H 0.40024 0.30375 0.79778 0.0
H1376 H 0.41044 0.27106 0.75126 0.0
H1377 H 0.3635 0.26806 0.78938 0.0
H1378 H 0.33647 0.27657 0.80145 0.0
H1379 H 0.31103 0.27192 0.75442 0.0
H1380 H 0.33799 0.2636 0.74201 0.0
H1381 H 0.40633 0.19341 0.73623 0.0
H1382 H 0.40669 0.2181 0.74851 0.0
H1383 H 0.3619 0.23033 0.71972 0.0
H1384 H 0.3607 0.2053 0.70831 0.0
H1385 H 0.35816 0.23967 0.74923 0.0
H1386 H 0.4036 0.24288 0.71046 0.0
H1387 H 0.43019 0.23518 0.69693 0.0
H1388 H 0.45807 0.24055 0.74256 0.0
H1389 H 0.43159 0.24806 0.75644 0.0
C1390 C 0.37331 0.30988 0.76488 0.0
C1391 C 0.38272 0.31295 0.77937 0.0
C1392 C 0.3738 0.2957 0.75792 0.0
C1393 C 0.38385 0.2844 0.76523 0.0
C1394 C 0.39347 0.28748 0.77956 0.0
C1395 C 0.39278 0.30161 0.78668 0.0
C1396 C 0.384 0.2693 0.75803 0.0
C1397 C 0.39911 0.26407 0.75099 0.0
C1398 C 0.36905 0.26046 0.75726 0.0
C1399 C 0.3528 0.26535 0.76473 0.0
C1400 C 0.35218 0.26898 0.78158 0.0
C1401 C 0.33686 0.27375 0.78849 0.0
C1402 C 0.32205 0.27482 0.7787 0.0
C1403 C 0.32252 0.2711 0.76199 0.0
C1404 C 0.33781 0.26635 0.75501 0.0
C1405 C 0.39643 0.20126 0.73262 0.0
C1406 C 0.38347 0.19727 0.72125 0.0
C1407 C 0.3968 0.2155 0.73948 0.0
C1408 C 0.38447 0.2262 0.73487 0.0
C1409 C 0.3716 0.2223 0.72344 0.0
C1410 C 0.37106 0.208 0.71676 0.0
C1411 C 0.38464 0.2413 0.74232 0.0
C1412 C 0.36956 0.24658 0.74944 0.0
C1413 C 0.39958 0.25028 0.74289 0.0
C1414 C 0.41556 0.2459 0.73453 0.0
C1415 C 0.41537 0.24232 0.71764 0.0
C1416 C 0.43043 0.238 0.70991 0.0
C1417 C 0.4458 0.23734 0.71889 0.0
C1418 C 0.44615 0.24105 0.73562 0.0
C1419 C 0.43112 0.24535 0.74343 0.0
H1420 H 0.45744 0.23399 0.71289 0.0
H1421 H 0.31021 0.27851 0.78407 0.0
H1422 H 0.67061 0.86662 0.26299 0.0
H1423 H 0.69946 0.8713 0.25306 0.0
H1424 H 0.70882 0.90109 0.29375 0.0
H1425 H 0.67938 0.89707 0.30316 0.0
H1426 H 0.72555 0.91064 0.26699 0.0
H1427 H 0.72059 0.8651 0.29709 0.0
H1428 H 0.70797 0.84077 0.30464 0.0
H1429 H 0.71936 0.82396 0.25655 0.0
H1430 H 0.73184 0.84827 0.24862 0.0
H1431 H 0.81445 0.86955 0.2555 0.0
H1432 H 0.78682 0.8721 0.26904 0.0
H1433 H 0.76976 0.9019 0.22982 0.0
H1434 H 0.79786 0.90018 0.21703 0.0
H1435 H 0.75803 0.86361 0.26012 0.0
H1436 H 0.73812 0.9244 0.24134 0.0
H1437 H 0.75175 0.94899 0.23737 0.0
H1438 H 0.79306 0.9359 0.26988 0.0
H1439 H 0.77957 0.91131 0.27424 0.0
C1440 C 0.6786 0.87464 0.2694 0.0
C1441 C 0.67279 0.88172 0.28363 0.0
C1442 C 0.69514 0.87716 0.26387 0.0
C1443 C 0.70638 0.88631 0.27287 0.0
C1444 C 0.70034 0.89399 0.28664 0.0
C1445 C 0.68361 0.89169 0.292 0.0
C1446 C 0.72475 0.88665 0.26869 0.0
C1447 C 0.73272 0.9004 0.2655 0.0
C1448 C 0.73426 0.87329 0.26742 0.0
C1449 C 0.72706 0.85854 0.27223 0.0
C1450 C 0.72034 0.85623 0.2881 0.0
C1451 C 0.7132 0.84245 0.29245 0.0
C1452 C 0.71283 0.83083 0.28107 0.0
C1453 C 0.71965 0.83297 0.26535 0.0
C1454 C 0.72678 0.84674 0.26092 0.0
C1455 C 0.80487 0.87689 0.25005 0.0
C1456 C 0.80818 0.88476 0.23536 0.0
C1457 C 0.78908 0.87828 0.25769 0.0
C1458 C 0.7762 0.88732 0.25058 0.0
C1459 C 0.77957 0.89518 0.23583 0.0
C1460 C 0.79552 0.89408 0.22842 0.0
C1461 C 0.75889 0.88763 0.25789 0.0
C1462 C 0.75105 0.87394 0.26171 0.0
C1463 C 0.74979 0.90108 0.26035 0.0
C1464 C 0.75788 0.91595 0.258 0.0
C1465 C 0.75006 0.92679 0.24772 0.0
C1466 C 0.75778 0.94073 0.24538 0.0
C1467 C 0.77329 0.94399 0.25333 0.0
C1468 C 0.78108 0.93334 0.26368 0.0
C1469 C 0.77341 0.91939 0.26608 0.0
H1470 H 0.77925 0.95478 0.25149 0.0
H1471 H 0.70729 0.82017 0.28446 0.0
H1472 H 0.76983 0.09936 0.20332 0.0
H1473 H 0.75868 0.1002 0.23141 0.0
H1474 H 0.77119 0.1471 0.23389 0.0
H1475 H 0.78302 0.14607 0.20605 0.0
H1476 H 0.7804 0.13422 0.26124 0.0
H1477 H 0.7291 0.13415 0.22848 0.0
H1478 H 0.70881 0.1254 0.20709 0.0
H1479 H 0.7042 0.08328 0.23252 0.0
H1480 H 0.72464 0.0917 0.25395 0.0
H1481 H 0.72741 0.14514 0.3329 0.0
H1482 H 0.74066 0.14662 0.30549 0.0
H1483 H 0.73831 0.09861 0.30198 0.0
H1484 H 0.72512 0.09718 0.32925 0.0
H1485 H 0.72338 0.11379 0.27525 0.0
H1486 H 0.77565 0.11461 0.30784 0.0
H1487 H 0.7952 0.12441 0.32929 0.0
H1488 H 0.79669 0.1668 0.30402 0.0
H1489 H 0.77694 0.15731 0.28254 0.0
C1490 C 0.77004 0.10984 0.20987 0.0
C1491 C 0.77718 0.12266 0.20266 0.0
C1492 C 0.76364 0.11034 0.22585 0.0
C1493 C 0.76387 0.12378 0.23465 0.0
C1494 C 0.77089 0.13663 0.22733 0.0
C1495 C 0.77758 0.13605 0.21147 0.0
C1496 C 0.7572 0.12431 0.25164 0.0
C1497 C 0.76781 0.12997 0.26425 0.0
C1498 C 0.74086 0.11861 0.25561 0.0
C1499 C 0.72852 0.11352 0.24275 0.0
C1500 C 0.72385 0.12298 0.22945 0.0
C1501 C 0.71231 0.11809 0.21733 0.0
C1502 C 0.70525 0.10378 0.21843 0.0
C1503 C 0.70969 0.09435 0.23168 0.0
C1504 C 0.72124 0.09919 0.24382 0.0
C1505 C 0.73014 0.13496 0.32634 0.0
C1506 C 0.72559 0.12105 0.33303 0.0
C1507 C 0.73763 0.13579 0.31078 0.0
C1508 C 0.74045 0.12271 0.30183 0.0
C1509 C 0.73624 0.1088 0.30876 0.0
C1510 C 0.72886 0.10797 0.32429 0.0
C1511 C 0.74667 0.12347 0.28475 0.0
C1512 C 0.73592 0.1181 0.27215 0.0
C1513 C 0.76275 0.12962 0.28079 0.0
C1514 C 0.77467 0.1353 0.29368 0.0
C1515 C 0.78002 0.12606 0.30694 0.0
C1516 C 0.79117 0.13155 0.31908 0.0
C1517 C 0.79715 0.14623 0.31804 0.0
C1518 C 0.79203 0.15544 0.30483 0.0
C1519 C 0.78087 0.15001 0.29266 0.0
H1520 H 0.80578 0.15046 0.32746 0.0
H1521 H 0.69631 0.10001 0.20903 0.0
H1522 H 0.92466 0.28585 0.67927 0.0
H1523 H 0.93403 0.28034 0.70765 0.0
H1524 H 0.88849 0.30115 0.72603 0.0
H1525 H 0.8788 0.30639 0.69771 0.0
H1526 H 0.91979 0.30477 0.74667 0.0
H1527 H 0.88488 0.26687 0.71799 0.0
H1528 H 0.8796 0.25015 0.69444 0.0
H1529 H 0.92826 0.22911 0.70314 0.0
H1530 H 0.93393 0.2459 0.72659 0.0
H1531 H 0.88644 0.26904 0.81635 0.0
H1532 H 0.89468 0.28162 0.79073 0.0
H1533 H 0.93043 0.24615 0.781 0.0
H1534 H 0.92153 0.23323 0.80631 0.0
H1535 H 0.91212 0.25028 0.75561 0.0
H1536 H 0.94366 0.28332 0.78908 0.0
H1537 H 0.95 0.30008 0.81231 0.0
H1538 H 0.91074 0.33019 0.79524 0.0
H1539 H 0.90396 0.31351 0.77203 0.0
C1540 C 0.91674 0.28941 0.68938 0.0
C1541 C 0.90077 0.29618 0.68633 0.0
C1542 C 0.92225 0.28646 0.70554 0.0
C1543 C 0.91187 0.29028 0.71881 0.0
C1544 C 0.89669 0.29823 0.71587 0.0
C1545 C 0.89112 0.30113 0.6997 0.0
C1546 C 0.91501 0.28359 0.73526 0.0
C1547 C 0.91821 0.29287 0.74877 0.0
C1548 C 0.91349 0.26801 0.73772 0.0
C1549 C 0.9099 0.25772 0.72389 0.0
C1550 C 0.89449 0.25873 0.7148 0.0
C1551 C 0.89143 0.24925 0.70148 0.0
C1552 C 0.90361 0.2386 0.69727 0.0
C1553 C 0.91885 0.23738 0.7064 0.0
C1554 C 0.922 0.24688 0.7197 0.0
C1555 C 0.89623 0.2641 0.80882 0.0
C1556 C 0.90327 0.25017 0.81309 0.0
C1557 C 0.90109 0.27134 0.79429 0.0
C1558 C 0.91337 0.26494 0.78402 0.0
C1559 C 0.92095 0.25131 0.78872 0.0
C1560 C 0.91584 0.24392 0.80309 0.0
C1561 C 0.9165 0.27146 0.76744 0.0
C1562 C 0.91435 0.26213 0.75375 0.0
C1563 C 0.91924 0.28695 0.7649 0.0
C1564 C 0.92325 0.2971 0.77883 0.0
C1565 C 0.93629 0.29346 0.79033 0.0
C1566 C 0.93998 0.30296 0.80349 0.0
C1567 C 0.93077 0.31619 0.80526 0.0
C1568 C 0.91787 0.31995 0.79385 0.0
C1569 C 0.91412 0.31048 0.78066 0.0
H1570 H 0.93364 0.32353 0.81546 0.0
H1571 H 0.90122 0.23127 0.68695 0.0
H1572 H 0.736 0.37008 0.31259 0.0
H1573 H 0.72771 0.38286 0.28693 0.0
H1574 H 0.75354 0.42278 0.3034 0.0
H1575 H 0.76253 0.40958 0.32886 0.0
H1576 H 0.71248 0.40684 0.2736 0.0
H1577 H 0.7735 0.43625 0.27407 0.0
H1578 H 0.80099 0.43765 0.28943 0.0
H1579 H 0.80183 0.38987 0.29443 0.0
H1580 H 0.77435 0.38825 0.27909 0.0
H1581 H 0.71986 0.40096 0.18725 0.0
H1582 H 0.72341 0.41621 0.21215 0.0
H1583 H 0.75803 0.38316 0.23277 0.0
H1584 H 0.75481 0.36829 0.20778 0.0
H1585 H 0.76693 0.41071 0.24307 0.0
H1586 H 0.71265 0.38013 0.23914 0.0
H1587 H 0.68538 0.37478 0.22459 0.0
H1588 H 0.67147 0.42106 0.22698 0.0
H1589 H 0.69865 0.42663 0.24159 0.0
C1590 C 0.73943 0.38171 0.31086 0.0
C1591 C 0.75011 0.38884 0.3223 0.0
C1592 C 0.73462 0.38908 0.2963 0.0
C1593 C 0.74032 0.40371 0.29307 0.0
C1594 C 0.74929 0.41142 0.30549 0.0
C1595 C 0.75436 0.40393 0.31999 0.0
C1596 C 0.73983 0.40917 0.27572 0.0
C1597 C 0.7243 0.40833 0.26691 0.0
C1598 C 0.7552 0.41129 0.26694 0.0
C1599 C 0.77199 0.41214 0.27549 0.0
C1600 C 0.77965 0.42607 0.27836 0.0
C1601 C 0.79518 0.4269 0.28709 0.0
C1602 C 0.80316 0.41385 0.29288 0.0
C1603 C 0.79564 0.39995 0.28993 0.0
C1604 C 0.78013 0.39907 0.28121 0.0
C1605 C 0.72863 0.39731 0.19697 0.0
C1606 C 0.73706 0.38356 0.19588 0.0
C1607 C 0.73063 0.40597 0.21112 0.0
C1608 C 0.74084 0.40075 0.22439 0.0
C1609 C 0.7502 0.38748 0.22266 0.0
C1610 C 0.74831 0.37893 0.20848 0.0
C1611 C 0.73971 0.40731 0.24105 0.0
C1612 C 0.75494 0.41045 0.24967 0.0
C1613 C 0.72408 0.40718 0.24966 0.0
C1614 C 0.70762 0.40379 0.24133 0.0
C1615 C 0.70373 0.38913 0.23657 0.0
C1616 C 0.68833 0.38607 0.2283 0.0
C1617 C 0.67674 0.39758 0.2248 0.0
C1618 C 0.68047 0.41216 0.22967 0.0
C1619 C 0.69584 0.41527 0.23798 0.0
H1620 H 0.66485 0.3952 0.21835 0.0
H1621 H 0.81517 0.41449 0.29962 0.0
H1622 H 0.58515 0.2487 0.68666 0.0
H1623 H 0.57775 0.25952 0.71326 0.0
H1624 H 0.62123 0.23771 0.73619 0.0
H1625 H 0.62932 0.22752 0.70966 0.0
H1626 H 0.5885 0.23672 0.75461 0.0
H1627 H 0.62748 0.2707 0.72429 0.0
H1628 H 0.63422 0.28651 0.70007 0.0
H1629 H 0.58819 0.31163 0.70703 0.0
H1630 H 0.58109 0.2958 0.73118 0.0
H1631 H 0.63011 0.26675 0.82122 0.0
H1632 H 0.62026 0.25738 0.79459 0.0
H1633 H 0.58702 0.29556 0.78844 0.0
H1634 H 0.59712 0.30513 0.81518 0.0
H1635 H 0.6035 0.29024 0.76086 0.0
H1636 H 0.56952 0.26142 0.79632 0.0
H1637 H 0.56211 0.24593 0.82055 0.0
H1638 H 0.59571 0.21138 0.80425 0.0
H1639 H 0.60355 0.22675 0.78005 0.0
C1640 C 0.5932 0.24626 0.69734 0.0
C1641 C 0.60796 0.23737 0.69598 0.0
C1642 C 0.5888 0.25229 0.71252 0.0
C1643 C 0.59893 0.24931 0.72655 0.0
C1644 C 0.61318 0.23994 0.72543 0.0
C1645 C 0.61776 0.23412 0.71026 0.0
C1646 C 0.59593 0.257 0.74216 0.0
C1647 C 0.59162 0.24844 0.75607 0.0
C1648 C 0.59927 0.27241 0.74375 0.0
C1649 C 0.60365 0.28197 0.72937 0.0
C1650 C 0.61874 0.27951 0.72056 0.0
C1651 C 0.62263 0.28849 0.70687 0.0
C1652 C 0.61161 0.30003 0.70197 0.0
C1653 C 0.59669 0.30266 0.7108 0.0
C1654 C 0.59273 0.29369 0.72449 0.0
C1655 C 0.62065 0.2731 0.81421 0.0
C1656 C 0.6143 0.28659 0.82019 0.0
C1657 C 0.61493 0.2677 0.79908 0.0
C1658 C 0.60256 0.27558 0.78978 0.0
C1659 C 0.59643 0.28925 0.79556 0.0
C1660 C 0.60227 0.29473 0.8107 0.0
C1661 C 0.59701 0.26976 0.7736 0.0
C1662 C 0.59968 0.27867 0.75951 0.0
C1663 C 0.59187 0.25469 0.77185 0.0
C1664 C 0.58715 0.24528 0.78634 0.0
C1665 C 0.57541 0.25056 0.79793 0.0
C1666 C 0.57112 0.24179 0.81167 0.0
C1667 C 0.57843 0.22768 0.81394 0.0
C1668 C 0.59003 0.2223 0.80246 0.0
C1669 C 0.59438 0.23103 0.78871 0.0
H1670 H 0.5751 0.22091 0.82459 0.0
H1671 H 0.61465 0.30697 0.69137 0.0
H1672 H 0.31234 0.72442 0.07375 0.0
H1673 H 0.28347 0.73287 0.06596 0.0
H1674 H 0.26671 0.72389 0.11574 0.0
H1675 H 0.29529 0.71521 0.1234 0.0
H1676 H 0.24234 0.71666 0.09416 0.0
H1677 H 0.28151 0.7588 0.10307 0.0
H1678 H 0.30706 0.77386 0.09661 0.0
H1679 H 0.28873 0.78025 0.04675 0.0
H1680 H 0.26316 0.76507 0.0529 0.0
H1681 H 0.19697 0.77444 0.13022 0.0
H1682 H 0.22046 0.75963 0.11924 0.0
H1683 H 0.19797 0.76269 0.07034 0.0
H1684 H 0.1741 0.77727 0.08138 0.0
H1685 H 0.23872 0.77062 0.07995 0.0
H1686 H 0.19459 0.73326 0.07617 0.0
H1687 H 0.16922 0.71974 0.08621 0.0
H1688 H 0.19724 0.70552 0.12959 0.0
H1689 H 0.2227 0.71917 0.11994 0.0
C1690 C 0.30239 0.72417 0.08293 0.0
C1691 C 0.30596 0.71936 0.09921 0.0
C1692 C 0.28595 0.7289 0.07846 0.0
C1693 C 0.27304 0.7291 0.09031 0.0
C1694 C 0.27647 0.7237 0.10637 0.0
C1695 C 0.2928 0.71883 0.11078 0.0
C1696 C 0.25641 0.73629 0.08683 0.0
C1697 C 0.24149 0.72839 0.09077 0.0
C1698 C 0.25529 0.75152 0.08202 0.0
C1699 C 0.27059 0.76066 0.07837 0.0
C1700 C 0.28301 0.76334 0.09071 0.0
C1701 C 0.29747 0.7719 0.08711 0.0
C1702 C 0.29955 0.77796 0.07126 0.0
C1703 C 0.28713 0.77551 0.059 0.0
C1704 C 0.27266 0.76693 0.06253 0.0
C1705 C 0.19711 0.77198 0.11714 0.0
C1706 C 0.18387 0.77688 0.1066 0.0
C1707 C 0.2104 0.76353 0.11091 0.0
C1708 C 0.21072 0.76007 0.09407 0.0
C1709 C 0.19774 0.76523 0.08339 0.0
C1710 C 0.18422 0.77348 0.08969 0.0
C1711 C 0.22494 0.75111 0.08801 0.0
C1712 C 0.23943 0.75869 0.08241 0.0
C1713 C 0.22572 0.73568 0.09156 0.0
C1714 C 0.21052 0.72731 0.09736 0.0
C1715 C 0.1953 0.72735 0.08791 0.0
C1716 C 0.18091 0.71965 0.09352 0.0
C1717 C 0.18161 0.71179 0.10854 0.0
C1718 C 0.19672 0.7116 0.11796 0.0
C1719 C 0.21114 0.7193 0.11241 0.0
H1720 H 0.17045 0.70583 0.11286 0.0
H1721 H 0.31075 0.78459 0.0685 0.0
H1722 H 0.33399 0.75577 0.38423 0.0
H1723 H 0.3065 0.74471 0.39105 0.0
H1724 H 0.29436 0.78317 0.42032 0.0
H1725 H 0.32273 0.79368 0.41466 0.0
H1726 H 0.27851 0.75867 0.43242 0.0
H1727 H 0.28337 0.78303 0.37916 0.0
H1728 H 0.29629 0.78816 0.352 0.0
H1729 H 0.28887 0.74241 0.33839 0.0
H1730 H 0.27593 0.73702 0.36548 0.0
H1731 H 0.19017 0.75835 0.39125 0.0
H1732 H 0.21885 0.76663 0.39918 0.0
H1733 H 0.2335 0.7211 0.40965 0.0
H1734 H 0.20461 0.71272 0.40263 0.0
H1735 H 0.24743 0.74955 0.37956 0.0
H1736 H 0.24592 0.72604 0.43709 0.0
H1737 H 0.23112 0.72356 0.46375 0.0
H1738 H 0.22981 0.77129 0.46807 0.0
H1739 H 0.24441 0.774 0.4413 0.0
C1740 C 0.32584 0.76147 0.39284 0.0
C1741 C 0.33047 0.77543 0.39916 0.0
C1742 C 0.31005 0.75526 0.39654 0.0
C1743 C 0.29827 0.76332 0.40582 0.0
C1744 C 0.30329 0.7768 0.41311 0.0
C1745 C 0.3194 0.78281 0.40984 0.0
C1746 C 0.28016 0.75872 0.40581 0.0
C1747 C 0.27173 0.75667 0.42087 0.0
C1748 C 0.27121 0.75636 0.39072 0.0
C1749 C 0.27885 0.7596 0.37438 0.0
C1750 C 0.28459 0.77406 0.3704 0.0
C1751 C 0.29189 0.77701 0.35502 0.0
C1752 C 0.29349 0.7656 0.34352 0.0
C1753 C 0.28767 0.75123 0.34733 0.0
C1754 C 0.2803 0.74823 0.36266 0.0
C1755 C 0.19928 0.75014 0.3958 0.0
C1756 C 0.19518 0.73485 0.39614 0.0
C1757 C 0.21562 0.7549 0.40034 0.0
C1758 C 0.22806 0.74447 0.40526 0.0
C1759 C 0.22388 0.72931 0.40627 0.0
C1760 C 0.20748 0.72453 0.40192 0.0
C1761 C 0.24603 0.74909 0.4061 0.0
C1762 C 0.25433 0.75136 0.3911 0.0
C1763 C 0.25467 0.75184 0.42115 0.0
C1764 C 0.24601 0.75021 0.43718 0.0
C1765 C 0.2423 0.73599 0.44366 0.0
C1766 C 0.234 0.73454 0.4588 0.0
C1767 C 0.22947 0.74726 0.46757 0.0
C1768 C 0.23328 0.76145 0.46124 0.0
C1769 C 0.24156 0.76294 0.4461 0.0
H1770 H 0.22306 0.74612 0.47929 0.0
H1771 H 0.29918 0.7679 0.33165 0.0
H1772 H 0.20091 0.80241 0.88997 0.0
H1773 H 0.21188 0.77704 0.88899 0.0
H1774 H 0.26238 0.79406 0.879 0.0
H1775 H 0.25124 0.81945 0.87862 0.0
H1776 H 0.25675 0.77194 0.86016 0.0
H1777 H 0.25018 0.77942 0.91803 0.0
H1778 H 0.23537 0.78616 0.94359 0.0
H1779 H 0.19865 0.75126 0.9354 0.0
H1780 H 0.21311 0.74444 0.90965 0.0
H1781 H 0.30001 0.70373 0.8819 0.0
H1782 H 0.28922 0.72921 0.88378 0.0
H1783 H 0.23779 0.71338 0.87558 0.0
H1784 H 0.24845 0.68794 0.87267 0.0
H1785 H 0.24451 0.73452 0.90415 0.0
H1786 H 0.25221 0.72808 0.84524 0.0
H1787 H 0.26891 0.72142 0.82077 0.0
H1788 H 0.30616 0.75494 0.8329 0.0
H1789 H 0.2898 0.76164 0.8576 0.0
C1790 C 0.21431 0.80081 0.88735 0.0
C1791 C 0.22516 0.81306 0.88435 0.0
C1792 C 0.22064 0.78625 0.88706 0.0
C1793 C 0.23803 0.78361 0.88421 0.0
C1794 C 0.24892 0.7958 0.88131 0.0
C1795 C 0.24255 0.81036 0.8813 0.0
C1796 C 0.24476 0.76814 0.88371 0.0
C1797 C 0.25426 0.76387 0.86993 0.0
C1798 C 0.24135 0.75747 0.89632 0.0
C1799 C 0.23264 0.76151 0.91182 0.0
C1800 C 0.23887 0.77325 0.92161 0.0
C1801 C 0.23055 0.77708 0.93614 0.0
C1802 C 0.21605 0.76917 0.94109 0.0
C1803 C 0.20987 0.75739 0.93154 0.0
C1804 C 0.21813 0.75353 0.91698 0.0
C1805 C 0.28642 0.70562 0.88023 0.0
C1806 C 0.27514 0.6937 0.87702 0.0
C1807 C 0.28029 0.72018 0.88148 0.0
C1808 C 0.26276 0.72308 0.87982 0.0
C1809 C 0.25138 0.71127 0.87699 0.0
C1810 C 0.25752 0.69673 0.87543 0.0
C1811 C 0.25635 0.73852 0.88067 0.0
C1812 C 0.24697 0.74272 0.89448 0.0
C1813 C 0.26011 0.74919 0.86827 0.0
C1814 C 0.26989 0.74524 0.85337 0.0
C1815 C 0.26405 0.73393 0.84278 0.0
C1816 C 0.27343 0.73017 0.82885 0.0
C1817 C 0.28861 0.73772 0.82531 0.0
C1818 C 0.29441 0.74908 0.83567 0.0
C1819 C 0.28508 0.75287 0.84963 0.0
H1820 H 0.29586 0.73479 0.81452 0.0
H1821 H 0.20963 0.77215 0.95235 0.0
H1822 H 0.22963 0.69756 0.59658 0.0
H1823 H 0.24184 0.72272 0.59791 0.0
H1824 H 0.23022 0.72441 0.64991 0.0
H1825 H 0.21721 0.6996 0.6483 0.0
H1826 H 0.22276 0.7495 0.63713 0.0
H1827 H 0.27203 0.71818 0.63438 0.0
H1828 H 0.29069 0.69866 0.62322 0.0
H1829 H 0.29527 0.72361 0.57785 0.0
H1830 H 0.27644 0.74319 0.58866 0.0
H1831 H 0.28076 0.80893 0.6568 0.0
H1832 H 0.26918 0.78354 0.65449 0.0
H1833 H 0.26332 0.7897 0.60177 0.0
H1834 H 0.27453 0.81523 0.60407 0.0
H1835 H 0.28007 0.7611 0.61471 0.0
H1836 H 0.22986 0.79259 0.61946 0.0
H1837 H 0.21277 0.812 0.63289 0.0
H1838 H 0.21215 0.78592 0.67775 0.0
H1839 H 0.22949 0.76645 0.66464 0.0
C1840 C 0.22974 0.70337 0.60825 0.0
C1841 C 0.22256 0.69676 0.62234 0.0
C1842 C 0.23679 0.71767 0.60905 0.0
C1843 C 0.23724 0.72539 0.62409 0.0
C1844 C 0.23003 0.71872 0.63817 0.0
C1845 C 0.22264 0.70457 0.63727 0.0
C1846 C 0.24492 0.74051 0.62514 0.0
C1847 C 0.23539 0.75193 0.6324 0.0
C1848 C 0.26132 0.74381 0.6188 0.0
C1849 C 0.27269 0.73208 0.61227 0.0
C1850 C 0.27692 0.71945 0.62198 0.0
C1851 C 0.28754 0.70839 0.61572 0.0
C1852 C 0.29412 0.70987 0.59982 0.0
C1853 C 0.29014 0.72246 0.59015 0.0
C1854 C 0.2795 0.73355 0.59634 0.0
C1855 C 0.27706 0.8048 0.64474 0.0
C1856 C 0.27843 0.81394 0.63061 0.0
C1857 C 0.27046 0.79037 0.64344 0.0
C1858 C 0.26543 0.78486 0.62797 0.0
C1859 C 0.26718 0.79383 0.61379 0.0
C1860 C 0.27347 0.80836 0.61512 0.0
C1861 C 0.25789 0.76983 0.62668 0.0
C1862 C 0.26745 0.75852 0.61939 0.0
C1863 C 0.24171 0.76653 0.63331 0.0
C1864 C 0.23112 0.77814 0.64113 0.0
C1865 C 0.22622 0.79106 0.63223 0.0
C1866 C 0.21645 0.80205 0.63977 0.0
C1867 C 0.21142 0.80021 0.65618 0.0
C1868 C 0.21608 0.78734 0.66505 0.0
C1869 C 0.22586 0.77632 0.65757 0.0
H1870 H 0.20387 0.80874 0.662 0.0
H1871 H 0.30235 0.7013 0.595 0.0
H1872 H 0.89058 0.81593 0.24802 0.0
H1873 H 0.89136 0.79009 0.25776 0.0
H1874 H 0.85205 0.7786 0.22222 0.0
H1875 H 0.85026 0.80459 0.21326 0.0
H1876 H 0.84541 0.7648 0.24896 0.0
H1877 H 0.89665 0.76996 0.21776 0.0
H1878 H 0.9242 0.78106 0.20963 0.0
H1879 H 0.94493 0.77196 0.25812 0.0
H1880 H 0.91743 0.76097 0.26661 0.0
H1881 H 0.85824 0.68592 0.25156 0.0
H1882 H 0.85824 0.71207 0.24234 0.0
H1883 H 0.88878 0.72392 0.28497 0.0
H1884 H 0.88881 0.69776 0.29428 0.0
H1885 H 0.90017 0.73728 0.25506 0.0
H1886 H 0.84792 0.73146 0.28533 0.0
H1887 H 0.82035 0.71961 0.29201 0.0
H1888 H 0.80159 0.7292 0.2429 0.0
H1889 H 0.82915 0.74092 0.23585 0.0
C1890 C 0.8819 0.80801 0.24238 0.0
C1891 C 0.8704 0.81254 0.22973 0.0
C1892 C 0.88256 0.79309 0.24782 0.0
C1893 C 0.872 0.78218 0.24056 0.0
C1894 C 0.86044 0.78669 0.22803 0.0
C1895 C 0.85959 0.80162 0.22274 0.0
C1896 C 0.87274 0.76617 0.24616 0.0
C1897 C 0.8574 0.75878 0.25004 0.0
C1898 C 0.88836 0.75821 0.24794 0.0
C1899 C 0.90492 0.76478 0.24287 0.0
C1900 C 0.90705 0.77042 0.22673 0.0
C1901 C 0.92266 0.77668 0.22205 0.0
C1902 C 0.93629 0.77725 0.23337 0.0
C1903 C 0.93435 0.77153 0.24938 0.0
C1904 C 0.91876 0.76528 0.25412 0.0
C1905 C 0.86507 0.69406 0.25891 0.0
C1906 C 0.87349 0.68972 0.27369 0.0
C1907 C 0.86498 0.70904 0.25367 0.0
C1908 C 0.87342 0.72001 0.26301 0.0
C1909 C 0.88216 0.71568 0.27757 0.0
C1910 C 0.88207 0.70073 0.28293 0.0
C1911 C 0.87288 0.73603 0.2577 0.0
C1912 C 0.88823 0.74337 0.25392 0.0
C1913 C 0.85727 0.74388 0.25577 0.0
C1914 C 0.84066 0.73693 0.26002 0.0
C1915 C 0.83797 0.73093 0.27591 0.0
C1916 C 0.82233 0.72426 0.27977 0.0
C1917 C 0.80924 0.72362 0.26787 0.0
C1918 C 0.81175 0.72969 0.2521 0.0
C1919 C 0.82737 0.73635 0.24817 0.0
H1920 H 0.79715 0.71845 0.27089 0.0
H1921 H 0.94837 0.78209 0.22972 0.0
H1922 H 0.18641 0.3531 0.72512 0.0
H1923 H 0.21524 0.35256 0.73761 0.0
H1924 H 0.21515 0.40067 0.73976 0.0
H1925 H 0.18659 0.40115 0.72685 0.0
H1926 H 0.24501 0.39171 0.72969 0.0
H1927 H 0.20873 0.37762 0.77464 0.0
H1928 H 0.18668 0.36271 0.78877 0.0
H1929 H 0.21715 0.32322 0.78374 0.0
H1930 H 0.23929 0.33787 0.76936 0.0
H1931 H 0.31511 0.40136 0.78554 0.0
H1932 H 0.28638 0.4008 0.77294 0.0
H1933 H 0.28969 0.35291 0.76894 0.0
H1934 H 0.31843 0.35352 0.78165 0.0
H1935 H 0.25849 0.36112 0.77968 0.0
H1936 H 0.29519 0.37569 0.73536 0.0
H1937 H 0.31733 0.39094 0.7218 0.0
H1938 H 0.28592 0.42994 0.72606 0.0
H1939 H 0.2637 0.41497 0.73991 0.0
C1940 C 0.19256 0.36351 0.72839 0.0
C1941 C 0.18417 0.37714 0.72537 0.0
C1942 C 0.20901 0.36322 0.73557 0.0
C1943 C 0.21738 0.37657 0.73995 0.0
C1944 C 0.20903 0.3902 0.73662 0.0
C1945 C 0.19266 0.39048 0.72938 0.0
C1946 C 0.23485 0.37641 0.74781 0.0
C1947 C 0.24785 0.38515 0.74074 0.0
C1948 C 0.23883 0.36762 0.76204 0.0
C1949 C 0.22559 0.35881 0.77078 0.0
C1950 C 0.21068 0.36573 0.77644 0.0
C1951 C 0.19816 0.35734 0.78451 0.0
C1952 C 0.20049 0.34202 0.78711 0.0
C1953 C 0.21535 0.33508 0.78169 0.0
C1954 C 0.2279 0.34343 0.77359 0.0
C1955 C 0.30968 0.39075 0.78189 0.0
C1956 C 0.319 0.3775 0.78438 0.0
C1957 C 0.29328 0.39042 0.77468 0.0
C1958 C 0.28586 0.37682 0.76976 0.0
C1959 C 0.29509 0.36354 0.77256 0.0
C1960 C 0.31151 0.36389 0.77976 0.0
C1961 C 0.26856 0.37649 0.76161 0.0
C1962 C 0.25562 0.36765 0.76861 0.0
C1963 C 0.26461 0.38523 0.74735 0.0
C1964 C 0.27784 0.39423 0.73881 0.0
C1965 C 0.29305 0.38754 0.73351 0.0
C1966 C 0.30561 0.39613 0.72576 0.0
C1967 C 0.30304 0.4114 0.7231 0.0
C1968 C 0.28789 0.41811 0.72814 0.0
C1969 C 0.27531 0.40958 0.73594 0.0
H1970 H 0.31278 0.41804 0.7171 0.0
H1971 H 0.19079 0.33554 0.79336 0.0
H1972 H 0.58837 0.79696 0.27979 0.0
H1973 H 0.5882 0.77131 0.26977 0.0
H1974 H 0.6433 0.77092 0.27053 0.0
H1975 H 0.64366 0.79633 0.28105 0.0
H1976 H 0.6296 0.75979 0.24138 0.0
H1977 H 0.62213 0.75287 0.3 0.0
H1978 H 0.6081 0.75679 0.32671 0.0
H1979 H 0.56118 0.73903 0.30698 0.0
H1980 H 0.57487 0.7352 0.28006 0.0
H1981 H 0.64678 0.68316 0.23181 0.0
H1982 H 0.64492 0.7086 0.2421 0.0
H1983 H 0.59019 0.70413 0.2458 0.0
H1984 H 0.59201 0.67851 0.23564 0.0
H1985 H 0.60222 0.71806 0.27201 0.0
H1986 H 0.60903 0.72429 0.21386 0.0
H1987 H 0.62218 0.72068 0.18668 0.0
H1988 H 0.66897 0.74019 0.20456 0.0
H1989 H 0.65617 0.74372 0.23194 0.0
C1990 C 0.60048 0.7914 0.27806 0.0
C1991 C 0.61604 0.79886 0.28126 0.0
C1992 C 0.60035 0.77672 0.27224 0.0
C1993 C 0.61574 0.76915 0.26943 0.0
C1994 C 0.63126 0.77655 0.27251 0.0
C1995 C 0.63142 0.79116 0.27845 0.0
C1996 C 0.61575 0.75355 0.26319 0.0
C1997 C 0.62378 0.75063 0.24817 0.0
C1998 C 0.6077 0.74166 0.27177 0.0
C1999 C 0.59947 0.7439 0.28796 0.0
C2000 C 0.60878 0.74992 0.30131 0.0
C2001 C 0.6009 0.7521 0.3165 0.0
C2002 C 0.58375 0.7482 0.31852 0.0
C2003 C 0.57445 0.74207 0.30538 0.0
C2004 C 0.58227 0.73988 0.29016 0.0
C2005 C 0.63432 0.6876 0.23469 0.0
C2006 C 0.61953 0.6788 0.23274 0.0
C2007 C 0.63326 0.70219 0.24058 0.0
C2008 C 0.61737 0.70846 0.24447 0.0
C2009 C 0.6026 0.6996 0.24286 0.0
C2010 C 0.60366 0.68493 0.23707 0.0
C2011 C 0.61625 0.72422 0.25023 0.0
C2012 C 0.60798 0.7272 0.26515 0.0
C2013 C 0.62395 0.73621 0.24147 0.0
C2014 C 0.63169 0.73415 0.225 0.0
C2015 C 0.62217 0.72771 0.21204 0.0
C2016 C 0.62955 0.72569 0.19658 0.0
C2017 C 0.64641 0.73017 0.1939 0.0
C2018 C 0.65591 0.73671 0.20666 0.0
C2019 C 0.6486 0.73874 0.22214 0.0
H2020 H 0.65211 0.7286 0.18193 0.0
H2021 H 0.57767 0.7499 0.33029 0.0
H2022 H 0.32749 0.15413 0.73814 0.0
H2023 H 0.29961 0.15456 0.75184 0.0
H2024 H 0.28051 0.12169 0.71763 0.0
H2025 H 0.30853 0.12075 0.7046 0.0
H2026 H 0.26845 0.16175 0.74367 0.0
H2027 H 0.25176 0.09902 0.73506 0.0
H2028 H 0.26674 0.07491 0.73299 0.0
H2029 H 0.30963 0.09263 0.76006 0.0
H2030 H 0.29481 0.11675 0.76252 0.0
H2031 H 0.18063 0.15181 0.76351 0.0
H2032 H 0.20853 0.15245 0.74999 0.0
H2033 H 0.22866 0.12195 0.78709 0.0
H2034 H 0.20048 0.1204 0.79965 0.0
H2035 H 0.24115 0.11417 0.76088 0.0
H2036 H 0.23683 0.16252 0.7851 0.0
H2037 H 0.22359 0.18691 0.79062 0.0
H2038 H 0.22604 0.19853 0.73907 0.0
H2039 H 0.23908 0.17413 0.73321 0.0
C2040 C 0.31727 0.14705 0.73359 0.0
C2041 C 0.32007 0.13757 0.72019 0.0
C2042 C 0.30132 0.14733 0.74136 0.0
C2043 C 0.28786 0.13806 0.73593 0.0
C2044 C 0.29066 0.12878 0.72231 0.0
C2045 C 0.30663 0.12836 0.71473 0.0
C2046 C 0.27106 0.13783 0.74464 0.0
C2047 C 0.2625 0.15134 0.74745 0.0
C2048 C 0.26333 0.12432 0.74998 0.0
C2049 C 0.27222 0.10974 0.74882 0.0
C2050 C 0.26435 0.09775 0.74064 0.0
C2051 C 0.27282 0.08408 0.73939 0.0
C2052 C 0.28915 0.08225 0.74635 0.0
C2053 C 0.29701 0.09407 0.75463 0.0
C2054 C 0.28858 0.10774 0.75595 0.0
C2055 C 0.19108 0.1453 0.76874 0.0
C2056 C 0.18852 0.1364 0.78291 0.0
C2057 C 0.2071 0.14575 0.7611 0.0
C2058 C 0.22105 0.13756 0.76769 0.0
C2059 C 0.21831 0.12848 0.78172 0.0
C2060 C 0.20222 0.12775 0.78907 0.0
C2061 C 0.23836 0.13811 0.75986 0.0
C2062 C 0.24705 0.12462 0.75716 0.0
C2063 C 0.24645 0.15169 0.75518 0.0
C2064 C 0.23879 0.16644 0.7587 0.0
C2065 C 0.23446 0.17025 0.77493 0.0
C2066 C 0.22699 0.18407 0.77812 0.0
C2067 C 0.22393 0.19425 0.7652 0.0
C2068 C 0.22839 0.19063 0.74906 0.0
C2069 C 0.23583 0.17681 0.7458 0.0
H2070 H 0.21814 0.20494 0.76769 0.0
H2071 H 0.29569 0.07167 0.74534 0.0
H2072 H 0.28069 0.85709 0.69552 0.0
H2073 H 0.26824 0.85686 0.72325 0.0
H2074 H 0.26593 0.90495 0.72204 0.0
H2075 H 0.27863 0.90511 0.69439 0.0
H2076 H 0.27657 0.89593 0.75187 0.0
H2077 H 0.22972 0.88223 0.7163 0.0
H2078 H 0.21494 0.86743 0.69492 0.0
H2079 H 0.2207 0.82787 0.72495 0.0
H2080 H 0.23574 0.8424 0.74642 0.0
H2081 H 0.22222 0.9046 0.82136 0.0
H2082 H 0.23443 0.90474 0.79356 0.0
H2083 H 0.23488 0.85659 0.79414 0.0
H2084 H 0.22232 0.85654 0.82185 0.0
H2085 H 0.22526 0.86555 0.76459 0.0
H2086 H 0.27203 0.87896 0.80014 0.0
H2087 H 0.28698 0.89351 0.82162 0.0
H2088 H 0.28182 0.93325 0.79178 0.0
H2089 H 0.26658 0.91897 0.77023 0.0
C2090 C 0.27748 0.8676 0.70118 0.0
C2091 C 0.28053 0.88111 0.69266 0.0
C2092 C 0.27027 0.86748 0.71706 0.0
C2093 C 0.26581 0.88089 0.7249 0.0
C2094 C 0.26913 0.89441 0.71644 0.0
C2095 C 0.27633 0.89452 0.70055 0.0
C2096 C 0.2578 0.88083 0.74184 0.0
C2097 C 0.26521 0.88943 0.75453 0.0
C2098 C 0.24317 0.87211 0.74571 0.0
C2099 C 0.234 0.86338 0.7329 0.0
C2100 C 0.22794 0.87035 0.7183 0.0
C2101 C 0.2195 0.86202 0.70617 0.0
C2102 C 0.21692 0.84671 0.70856 0.0
C2103 C 0.22273 0.83972 0.7231 0.0
C2104 C 0.2312 0.848 0.73526 0.0
C2105 C 0.22498 0.89406 0.81555 0.0
C2106 C 0.22143 0.88056 0.8239 0.0
C2107 C 0.23206 0.89411 0.79962 0.0
C2108 C 0.23597 0.88067 0.79159 0.0
C2109 C 0.23212 0.86717 0.79988 0.0
C2110 C 0.22497 0.86712 0.8158 0.0
C2111 C 0.24402 0.88067 0.77465 0.0
C2112 C 0.23663 0.87206 0.76195 0.0
C2113 C 0.25871 0.88933 0.77079 0.0
C2114 C 0.26802 0.89792 0.78364 0.0
C2115 C 0.27398 0.89082 0.79821 0.0
C2116 C 0.28251 0.89901 0.81039 0.0
C2117 C 0.28531 0.9143 0.80808 0.0
C2118 C 0.27962 0.92141 0.79356 0.0
C2119 C 0.27104 0.91327 0.78135 0.0
H2120 H 0.29192 0.92063 0.81753 0.0
H2121 H 0.21039 0.84027 0.69915 0.0
H2122 H 0.09999 0.73749 0.31647 0.0
H2123 H 0.09975 0.74868 0.28872 0.0
H2124 H 0.15483 0.74671 0.28802 0.0
H2125 H 0.15503 0.73623 0.31625 0.0
H2126 H 0.14624 0.77121 0.27349 0.0
H2127 H 0.12635 0.72122 0.26641 0.0
H2128 H 0.10813 0.69922 0.27158 0.0
H2129 H 0.06376 0.72408 0.25595 0.0
H2130 H 0.08168 0.74631 0.25091 0.0
H2131 H 0.15228 0.78223 0.18556 0.0
H2132 H 0.1531 0.77106 0.21349 0.0
H2133 H 0.09898 0.77873 0.21796 0.0
H2134 H 0.09824 0.79007 0.19017 0.0
H2135 H 0.10751 0.75103 0.23015 0.0
H2136 H 0.12841 0.80104 0.23703 0.0
H2137 H 0.14737 0.82241 0.23125 0.0
H2138 H 0.19099 0.79643 0.24663 0.0
H2139 H 0.1723 0.77479 0.25222 0.0
C2140 C 0.11207 0.73967 0.31051 0.0
C2141 C 0.12755 0.73614 0.31878 0.0
C2142 C 0.11194 0.7459 0.29444 0.0
C2143 C 0.12726 0.74842 0.28581 0.0
C2144 C 0.14276 0.74498 0.29416 0.0
C2145 C 0.14289 0.73892 0.31035 0.0
C2146 C 0.12712 0.75455 0.26822 0.0
C2147 C 0.13792 0.76658 0.26402 0.0
C2148 C 0.11613 0.74887 0.2556 0.0
C2149 C 0.10534 0.73547 0.25842 0.0
C2150 C 0.11269 0.72202 0.26416 0.0
C2151 C 0.10242 0.70951 0.26706 0.0
C2152 C 0.08479 0.71026 0.26413 0.0
C2153 C 0.07741 0.72352 0.25824 0.0
C2154 C 0.08762 0.73608 0.25534 0.0
C2155 C 0.14054 0.78144 0.19247 0.0
C2156 C 0.12515 0.78685 0.18544 0.0
C2157 C 0.14102 0.7751 0.20852 0.0
C2158 C 0.12611 0.77401 0.21809 0.0
C2159 C 0.11069 0.77928 0.21097 0.0
C2160 C 0.11025 0.78574 0.19499 0.0
C2161 C 0.12659 0.76764 0.23552 0.0
C2162 C 0.11585 0.75559 0.23966 0.0
C2163 C 0.13775 0.77319 0.24802 0.0
C2164 C 0.14897 0.78625 0.24489 0.0
C2165 C 0.14206 0.79985 0.23907 0.0
C2166 C 0.15275 0.81201 0.23584 0.0
C2167 C 0.17038 0.81077 0.23854 0.0
C2168 C 0.17733 0.79737 0.24452 0.0
C2169 C 0.16669 0.78515 0.24773 0.0
H2170 H 0.17864 0.8202 0.23603 0.0
H2171 H 0.07686 0.70057 0.26641 0.0
H2172 H 0.29262 0.61482 0.80359 0.0
H2173 H 0.28019 0.61509 0.77561 0.0
H2174 H 0.24313 0.64768 0.79066 0.0
H2175 H 0.25615 0.64787 0.81848 0.0
H2176 H 0.25219 0.60778 0.76208 0.0
H2177 H 0.22946 0.66929 0.75841 0.0
H2178 H 0.23757 0.69383 0.76967 0.0
H2179 H 0.28943 0.67895 0.7761 0.0
H2180 H 0.28168 0.65442 0.76468 0.0
H2181 H 0.19781 0.61546 0.69117 0.0
H2182 H 0.2101 0.61589 0.71921 0.0
H2183 H 0.24902 0.64655 0.70268 0.0
H2184 H 0.23622 0.64655 0.67477 0.0
H2185 H 0.24016 0.65497 0.7315 0.0
H2186 H 0.25621 0.60758 0.71048 0.0
H2187 H 0.25187 0.58297 0.69775 0.0
H2188 H 0.22006 0.56946 0.73811 0.0
H2189 H 0.22401 0.59409 0.75097 0.0
C2190 C 0.28197 0.62221 0.80084 0.0
C2191 C 0.27566 0.63161 0.81318 0.0
C2192 C 0.27472 0.62226 0.78482 0.0
C2193 C 0.26079 0.6316 0.78064 0.0
C2194 C 0.25412 0.64064 0.7932 0.0
C2195 C 0.2615 0.64069 0.80919 0.0
C2196 C 0.25332 0.63177 0.76326 0.0
C2197 C 0.24954 0.61815 0.75548 0.0
C2198 C 0.25009 0.64518 0.7542 0.0
C2199 C 0.25493 0.65997 0.76085 0.0
C2200 C 0.2426 0.67129 0.76217 0.0
C2201 C 0.24714 0.68519 0.76859 0.0
C2202 C 0.26399 0.68793 0.77365 0.0
C2203 C 0.27637 0.6768 0.77223 0.0
C2204 C 0.27191 0.66289 0.7658 0.0
C2205 C 0.20893 0.62235 0.69356 0.0
C2206 C 0.21597 0.63101 0.68071 0.0
C2207 C 0.21609 0.62251 0.70962 0.0
C2208 C 0.23076 0.6311 0.71329 0.0
C2209 C 0.23774 0.63981 0.70041 0.0
C2210 C 0.23048 0.63975 0.68437 0.0
C2211 C 0.2388 0.63099 0.73043 0.0
C2212 C 0.24272 0.64462 0.73814 0.0
C2213 C 0.24262 0.61757 0.73925 0.0
C2214 C 0.24027 0.60273 0.7316 0.0
C2215 C 0.24819 0.5994 0.71658 0.0
C2216 C 0.24581 0.58544 0.70935 0.0
C2217 C 0.23566 0.57467 0.7171 0.0
C2218 C 0.2279 0.57782 0.73212 0.0
C2219 C 0.23021 0.59178 0.73939 0.0
H2220 H 0.23383 0.56387 0.71148 0.0
H2221 H 0.26746 0.69869 0.77864 0.0
H2222 H 0.38892 0.79475 0.29087 0.0
H2223 H 0.38847 0.78416 0.26312 0.0
H2224 H 0.3735 0.74152 0.28343 0.0
H2225 H 0.37451 0.75186 0.31124 0.0
H2226 H 0.39551 0.73662 0.26026 0.0
H2227 H 0.34459 0.766 0.26271 0.0
H2228 H 0.3275 0.78869 0.26712 0.0
H2229 H 0.35464 0.81143 0.22851 0.0
H2230 H 0.37205 0.78892 0.22401 0.0
H2231 H 0.35052 0.72558 0.17338 0.0
H2232 H 0.35104 0.73628 0.20129 0.0
H2233 H 0.40614 0.73502 0.20159 0.0
H2234 H 0.40554 0.72417 0.17385 0.0
H2235 H 0.36283 0.7613 0.21467 0.0
H2236 H 0.42149 0.72899 0.24091 0.0
H2237 H 0.43603 0.70488 0.23703 0.0
H2238 H 0.38906 0.68554 0.21937 0.0
H2239 H 0.37419 0.70945 0.2234 0.0
C2240 C 0.3857 0.78306 0.28955 0.0
C2241 C 0.38166 0.77429 0.30358 0.0
C2242 C 0.38525 0.77702 0.27351 0.0
C2243 C 0.38069 0.76199 0.27088 0.0
C2244 C 0.37699 0.75314 0.28488 0.0
C2245 C 0.37741 0.75917 0.3009 0.0
C2246 C 0.37971 0.75549 0.25366 0.0
C2247 C 0.38841 0.74211 0.25033 0.0
C2248 C 0.3702 0.7623 0.24051 0.0
C2249 C 0.35973 0.77583 0.24314 0.0
C2250 C 0.34699 0.77587 0.25524 0.0
C2251 C 0.33724 0.7887 0.25775 0.0
C2252 C 0.34001 0.80151 0.24813 0.0
C2253 C 0.35252 0.80151 0.23597 0.0
C2254 C 0.36233 0.78872 0.23342 0.0
C2255 C 0.36272 0.72765 0.17941 0.0
C2256 C 0.37798 0.72414 0.17131 0.0
C2257 C 0.36304 0.73382 0.19539 0.0
C2258 C 0.37863 0.73646 0.20384 0.0
C2259 C 0.39389 0.733 0.19563 0.0
C2260 C 0.39356 0.72687 0.17967 0.0
C2261 C 0.37894 0.74262 0.22121 0.0
C2262 C 0.37006 0.75589 0.22457 0.0
C2263 C 0.38803 0.73558 0.23447 0.0
C2264 C 0.39678 0.72106 0.2323 0.0
C2265 C 0.41425 0.71957 0.23627 0.0
C2266 C 0.42255 0.70594 0.23404 0.0
C2267 C 0.41349 0.6937 0.22791 0.0
C2268 C 0.39608 0.69504 0.22407 0.0
C2269 C 0.38771 0.70863 0.22632 0.0
H2270 H 0.41994 0.68317 0.22616 0.0
H2271 H 0.33245 0.81143 0.25009 0.0
H2272 H 0.6892 0.2876 0.86328 0.0
H2273 H 0.71788 0.27681 0.86099 0.0
H2274 H 0.72192 0.27385 0.91418 0.0
H2275 H 0.69348 0.28518 0.91639 0.0
H2276 H 0.75115 0.28264 0.90298 0.0
H2277 H 0.7135 0.24269 0.88873 0.0
H2278 H 0.69001 0.23019 0.87368 0.0
H2279 H 0.71646 0.23648 0.82796 0.0
H2280 H 0.74002 0.24922 0.84271 0.0
H2281 H 0.82124 0.23113 0.90594 0.0
H2282 H 0.79261 0.24218 0.90805 0.0
H2283 H 0.79251 0.25208 0.85576 0.0
H2284 H 0.8213 0.24129 0.85374 0.0
H2285 H 0.7615 0.23953 0.86651 0.0
H2286 H 0.79962 0.27926 0.88201 0.0
H2287 H 0.82316 0.29059 0.8981 0.0
H2288 H 0.79545 0.28331 0.94294 0.0
H2289 H 0.77186 0.27167 0.92714 0.0
C2290 C 0.69626 0.28463 0.87445 0.0
C2291 C 0.68904 0.28706 0.89 0.0
C2292 C 0.71263 0.27837 0.87316 0.0
C2293 C 0.72212 0.27419 0.8874 0.0
C2294 C 0.71496 0.27687 0.90297 0.0
C2295 C 0.69865 0.28326 0.90425 0.0
C2296 C 0.73946 0.26712 0.88609 0.0
C2297 C 0.75329 0.27309 0.89516 0.0
C2298 C 0.74254 0.25476 0.87571 0.0
C2299 C 0.72844 0.24705 0.86681 0.0
C2300 C 0.71425 0.24151 0.87545 0.0
C2301 C 0.70093 0.23437 0.86697 0.0
C2302 C 0.70172 0.23258 0.84987 0.0
C2303 C 0.71586 0.23789 0.84121 0.0
C2304 C 0.7292 0.24507 0.84962 0.0
C2305 C 0.8151 0.23573 0.89493 0.0
C2306 C 0.82352 0.23542 0.87969 0.0
C2307 C 0.79875 0.24203 0.89613 0.0
C2308 C 0.79036 0.24806 0.88208 0.0
C2309 C 0.79865 0.24751 0.86678 0.0
C2310 C 0.8151 0.24137 0.86563 0.0
C2311 C 0.77306 0.25508 0.88338 0.0
C2312 C 0.75928 0.24909 0.87431 0.0
C2313 C 0.76998 0.26728 0.89391 0.0
C2314 C 0.78404 0.27446 0.90341 0.0
C2315 C 0.7986 0.27997 0.89532 0.0
C2316 C 0.81195 0.28646 0.90439 0.0
C2317 C 0.81082 0.28764 0.92154 0.0
C2318 C 0.79632 0.28237 0.92966 0.0
C2319 C 0.78295 0.27583 0.92065 0.0
H2320 H 0.82117 0.29267 0.92854 0.0
H2321 H 0.6914 0.22704 0.84333 0.0
H2322 H 0.8193 0.2789 0.59361 0.0
H2323 H 0.79009 0.26904 0.59532 0.0
H2324 H 0.79176 0.27401 0.64829 0.0
H2325 H 0.82117 0.28369 0.64652 0.0
H2326 H 0.77712 0.24773 0.64024 0.0
H2327 H 0.76978 0.29863 0.62315 0.0
H2328 H 0.77462 0.32097 0.60576 0.0
H2329 H 0.75446 0.29806 0.56343 0.0
H2330 H 0.74977 0.27547 0.58051 0.0
H2331 H 0.68744 0.23764 0.6517 0.0
H2332 H 0.71647 0.24811 0.65106 0.0
H2333 H 0.71641 0.24447 0.59794 0.0
H2334 H 0.68728 0.23416 0.59863 0.0
H2335 H 0.73015 0.27047 0.60673 0.0
H2336 H 0.73799 0.21944 0.62368 0.0
H2337 H 0.73316 0.19705 0.64101 0.0
H2338 H 0.75241 0.22017 0.68358 0.0
H2339 H 0.75707 0.2428 0.66655 0.0
C2340 C 0.81342 0.27781 0.6056 0.0
C2341 C 0.8225 0.28194 0.61995 0.0
C2342 C 0.79668 0.27226 0.60659 0.0
C2343 C 0.78852 0.27087 0.62194 0.0
C2344 C 0.79769 0.27493 0.6363 0.0
C2345 C 0.81447 0.2805 0.6353 0.0
C2346 C 0.77045 0.26526 0.62292 0.0
C2347 C 0.76682 0.25286 0.63309 0.0
C2348 C 0.75695 0.27168 0.61336 0.0
C2349 C 0.75957 0.28531 0.60309 0.0
C2350 C 0.76649 0.29831 0.61011 0.0
C2351 C 0.7692 0.31103 0.60031 0.0
C2352 C 0.76488 0.31093 0.58349 0.0
C2353 C 0.75781 0.29812 0.57645 0.0
C2354 C 0.75512 0.28535 0.58619 0.0
C2355 C 0.69367 0.2391 0.63991 0.0
C2356 C 0.68516 0.23507 0.62522 0.0
C2357 C 0.71029 0.24504 0.63954 0.0
C2358 C 0.71886 0.24696 0.62445 0.0
C2359 C 0.71019 0.24312 0.60974 0.0
C2360 C 0.69356 0.2372 0.61013 0.0
C2361 C 0.73682 0.25288 0.624 0.0
C2362 C 0.74044 0.26535 0.61391 0.0
C2363 C 0.75031 0.24652 0.63363 0.0
C2364 C 0.74772 0.23287 0.64386 0.0
C2365 C 0.74108 0.21979 0.63676 0.0
C2366 C 0.73838 0.20705 0.64653 0.0
C2367 C 0.74244 0.2072 0.66339 0.0
C2368 C 0.74925 0.22008 0.67052 0.0
C2369 C 0.75193 0.23287 0.66081 0.0
H2370 H 0.74035 0.19733 0.67094 0.0
H2371 H 0.76699 0.32078 0.57593 0.0
H2372 H 0.7461 0.29584 0.11735 0.0
H2373 H 0.75605 0.26998 0.11603 0.0
H2374 H 0.74414 0.26347 0.16749 0.0
H2375 H 0.73448 0.28939 0.16898 0.0
H2376 H 0.7749 0.25125 0.16024 0.0
H2377 H 0.71786 0.24997 0.13763 0.0
H2378 H 0.69427 0.25763 0.11888 0.0
H2379 H 0.72377 0.24487 0.07697 0.0
H2380 H 0.74765 0.23733 0.09547 0.0
H2381 H 0.78032 0.17191 0.16228 0.0
H2382 H 0.76975 0.19768 0.16396 0.0
H2383 H 0.77907 0.20409 0.1119 0.0
H2384 H 0.78932 0.17825 0.11025 0.0
H2385 H 0.74938 0.21636 0.1196 0.0
H2386 H 0.80641 0.21766 0.14192 0.0
H2387 H 0.83007 0.20981 0.16049 0.0
H2388 H 0.80099 0.22266 0.20264 0.0
H2389 H 0.77702 0.23034 0.18433 0.0
C2390 C 0.74574 0.28896 0.12843 0.0
C2391 C 0.73941 0.29472 0.14326 0.0
C2392 C 0.7513 0.27411 0.12762 0.0
C2393 C 0.75068 0.26468 0.14161 0.0
C2394 C 0.7447 0.27048 0.15651 0.0
C2395 C 0.73905 0.28529 0.1573 0.0
C2396 C 0.75617 0.24874 0.14072 0.0
C2397 C 0.76916 0.24358 0.1515 0.0
C2398 C 0.74897 0.23876 0.12908 0.0
C2399 C 0.73461 0.24323 0.11793 0.0
C2400 C 0.71938 0.24891 0.12441 0.0
C2401 C 0.70594 0.25321 0.11383 0.0
C2402 C 0.70754 0.25177 0.09674 0.0
C2403 C 0.72256 0.246 0.0902 0.0
C2404 C 0.73605 0.2417 0.10073 0.0
C2405 C 0.77996 0.17885 0.15123 0.0
C2406 C 0.78547 0.17317 0.13613 0.0
C2407 C 0.77403 0.19358 0.15218 0.0
C2408 C 0.77376 0.20295 0.13808 0.0
C2409 C 0.7791 0.19713 0.12294 0.0
C2410 C 0.78497 0.18241 0.12199 0.0
C2411 C 0.76815 0.21886 0.13911 0.0
C2412 C 0.75513 0.22402 0.12835 0.0
C2413 C 0.77537 0.22886 0.15072 0.0
C2414 C 0.78985 0.22444 0.16175 0.0
C2415 C 0.80501 0.21872 0.15515 0.0
C2416 C 0.81848 0.21431 0.16563 0.0
C2417 C 0.81702 0.21571 0.18273 0.0
C2418 C 0.8021 0.22157 0.18939 0.0
C2419 C 0.78856 0.22595 0.17897 0.0
H2420 H 0.82747 0.21229 0.19083 0.0
H2421 H 0.69712 0.25511 0.08856 0.0
H2422 H 0.78487 0.29326 0.37791 0.0
H2423 H 0.77468 0.26761 0.38089 0.0
H2424 H 0.72277 0.28346 0.38351 0.0
H2425 H 0.7329 0.30924 0.38055 0.0
H2426 H 0.72799 0.26118 0.40551 0.0
H2427 H 0.7386 0.26852 0.34771 0.0
H2428 H 0.75556 0.27556 0.32335 0.0
H2429 H 0.79268 0.24193 0.33611 0.0
H2430 H 0.77606 0.23483 0.36069 0.0
H2431 H 0.68802 0.19108 0.38961 0.0
H2432 H 0.69767 0.21701 0.38862 0.0
H2433 H 0.74987 0.20222 0.38458 0.0
H2434 H 0.74026 0.17627 0.38482 0.0
H2435 H 0.74407 0.22414 0.36337 0.0
H2436 H 0.7335 0.21673 0.42118 0.0
H2437 H 0.71641 0.20949 0.44539 0.0
H2438 H 0.67914 0.24296 0.43257 0.0
H2439 H 0.6959 0.25029 0.40815 0.0
C2440 C 0.77126 0.29133 0.37903 0.0
C2441 C 0.75971 0.30338 0.3788 0.0
C2442 C 0.76544 0.27661 0.38077 0.0
C2443 C 0.7479 0.2735 0.38214 0.0
C2444 C 0.73636 0.28552 0.38243 0.0
C2445 C 0.74219 0.30028 0.38077 0.0
C2446 C 0.74162 0.25772 0.38293 0.0
C2447 C 0.73133 0.25314 0.39618 0.0
C2448 C 0.74621 0.24705 0.37096 0.0
C2449 C 0.75617 0.25124 0.35613 0.0
C2450 C 0.75044 0.2627 0.34539 0.0
C2451 C 0.75999 0.26669 0.33153 0.0
C2452 C 0.77521 0.25922 0.32821 0.0
C2453 C 0.7809 0.24772 0.33872 0.0
C2454 C 0.77142 0.24369 0.3526 0.0
C2455 C 0.70156 0.1933 0.3884 0.0
C2456 C 0.71333 0.18146 0.3873 0.0
C2457 C 0.70709 0.20819 0.38804 0.0
C2458 C 0.72456 0.21167 0.38673 0.0
C2459 C 0.73634 0.19989 0.38566 0.0
C2460 C 0.73081 0.185 0.38597 0.0
C2461 C 0.73054 0.22754 0.38602 0.0
C2462 C 0.74075 0.23216 0.37274 0.0
C2463 C 0.72588 0.23821 0.39796 0.0
C2464 C 0.71588 0.23397 0.41276 0.0
C2465 C 0.7216 0.22249 0.42347 0.0
C2466 C 0.71199 0.21838 0.43723 0.0
C2467 C 0.69668 0.22574 0.44049 0.0
C2468 C 0.69099 0.23726 0.43002 0.0
C2469 C 0.70056 0.24142 0.41623 0.0
H2470 H 0.68926 0.22254 0.45116 0.0
H2471 H 0.78258 0.26233 0.31748 0.0
H2472 H 0.16765 0.55814 0.60832 0.0
H2473 H 0.15988 0.53234 0.61565 0.0
H2474 H 0.15404 0.54512 0.66647 0.0
H2475 H 0.16166 0.57087 0.65922 0.0
H2476 H 0.1742 0.51907 0.66204 0.0
H2477 H 0.11961 0.53949 0.64447 0.0
H2478 H 0.09986 0.55205 0.6248 0.0
H2479 H 0.10797 0.51749 0.58944 0.0
H2480 H 0.12797 0.50482 0.60882 0.0
H2481 H 0.13746 0.45487 0.69675 0.0
H2482 H 0.14261 0.48055 0.68758 0.0
H2483 H 0.13579 0.46724 0.63681 0.0
H2484 H 0.12978 0.44159 0.64612 0.0
H2485 H 0.12274 0.49338 0.63979 0.0
H2486 H 0.17661 0.4726 0.65578 0.0
H2487 H 0.19754 0.45964 0.67392 0.0
H2488 H 0.19296 0.49414 0.70998 0.0
H2489 H 0.1718 0.50721 0.69215 0.0
C2490 C 0.16468 0.55543 0.62104 0.0
C2491 C 0.1652 0.56655 0.63318 0.0
C2492 C 0.16017 0.54072 0.6252 0.0
C2493 C 0.15631 0.53682 0.6416 0.0
C2494 C 0.15693 0.54788 0.65374 0.0
C2495 C 0.16118 0.56261 0.64955 0.0
C2496 C 0.15197 0.52117 0.64626 0.0
C2497 C 0.16285 0.51349 0.65734 0.0
C2498 C 0.1375 0.51372 0.63965 0.0
C2499 C 0.12542 0.5213 0.62803 0.0
C2500 C 0.1173 0.53464 0.63244 0.0
C2501 C 0.10603 0.54176 0.62136 0.0
C2502 C 0.1027 0.5356 0.60586 0.0
C2503 C 0.11059 0.52227 0.60143 0.0
C2504 C 0.12188 0.5151 0.61247 0.0
C2505 C 0.13693 0.45748 0.68364 0.0
C2506 C 0.13334 0.44625 0.67213 0.0
C2507 C 0.14 0.47214 0.67838 0.0
C2508 C 0.14009 0.47585 0.66144 0.0
C2509 C 0.13591 0.46471 0.64994 0.0
C2510 C 0.13247 0.45006 0.65524 0.0
C2511 C 0.14488 0.49123 0.65581 0.0
C2512 C 0.13414 0.49887 0.6445 0.0
C2513 C 0.1597 0.49858 0.66197 0.0
C2514 C 0.17251 0.49081 0.67268 0.0
C2515 C 0.17999 0.47737 0.66762 0.0
C2516 C 0.1919 0.47001 0.67785 0.0
C2517 C 0.19655 0.47605 0.69311 0.0
C2518 C 0.18933 0.48948 0.69816 0.0
C2519 C 0.17739 0.49687 0.68799 0.0
H2520 H 0.20577 0.47033 0.70101 0.0
H2521 H 0.09397 0.54113 0.5973 0.0
H2522 H 0.46239 0.67855 0.10023 0.0
H2523 H 0.49041 0.66681 0.10485 0.0
H2524 H 0.47542 0.65357 0.15401 0.0
H2525 H 0.44741 0.66499 0.1494 0.0
H2526 H 0.51501 0.67315 0.12807 0.0
H2527 H 0.49214 0.61987 0.16325 0.0
H2528 H 0.46753 0.60263 0.16288 0.0
H2529 H 0.45731 0.614 0.112 0.0
H2530 H 0.482 0.63113 0.11199 0.0
H2531 H 0.57545 0.64453 0.18497 0.0
H2532 H 0.55014 0.65398 0.17005 0.0
H2533 H 0.55266 0.61684 0.13662 0.0
H2534 H 0.57796 0.60731 0.15179 0.0
H2535 H 0.52089 0.6207 0.14775 0.0
H2536 H 0.56324 0.65129 0.12312 0.0
H2537 H 0.58821 0.66809 0.12242 0.0
H2538 H 0.56035 0.70116 0.14899 0.0
H2539 H 0.53529 0.68447 0.15009 0.0
C2540 C 0.46505 0.673 0.11195 0.0
C2541 C 0.45276 0.67269 0.12448 0.0
C2542 C 0.48105 0.66639 0.11459 0.0
C2543 C 0.48489 0.65921 0.1297 0.0
C2544 C 0.47262 0.65889 0.14218 0.0
C2545 C 0.4567 0.66554 0.13959 0.0
C2546 C 0.50187 0.65243 0.13279 0.0
C2547 C 0.51636 0.66165 0.13222 0.0
C2548 C 0.50361 0.63733 0.13783 0.0
C2549 C 0.48887 0.62687 0.13766 0.0
C2550 C 0.48471 0.61863 0.15196 0.0
C2551 C 0.47073 0.60889 0.15182 0.0
C2552 C 0.46084 0.60725 0.13744 0.0
C2553 C 0.46494 0.61532 0.12315 0.0
C2554 C 0.47892 0.62506 0.12321 0.0
C2555 C 0.57062 0.63853 0.17433 0.0
C2556 C 0.57849 0.62532 0.16936 0.0
C2557 C 0.55628 0.64392 0.16578 0.0
C2558 C 0.54968 0.6362 0.1521 0.0
C2559 C 0.55763 0.62299 0.1471 0.0
C2560 C 0.57201 0.61759 0.15567 0.0
C2561 C 0.53391 0.64159 0.14369 0.0
C2562 C 0.51963 0.63212 0.14329 0.0
C2563 C 0.53243 0.6564 0.13754 0.0
C2564 C 0.5474 0.66658 0.13674 0.0
C2565 C 0.56246 0.66211 0.1289 0.0
C2566 C 0.57664 0.67162 0.12843 0.0
C2567 C 0.57587 0.68568 0.13567 0.0
C2568 C 0.56092 0.69027 0.14338 0.0
C2569 C 0.54672 0.68079 0.1439 0.0
H2570 H 0.58686 0.69302 0.1353 0.0
H2571 H 0.45002 0.59971 0.13736 0.0
H2572 H 0.30792 0.95436 0.64819 0.0
H2573 H 0.31758 0.97997 0.65233 0.0
H2574 H 0.36928 0.9669 0.64181 0.0
H2575 H 0.35969 0.94129 0.63713 0.0
H2576 H 0.36743 0.9844 0.66958 0.0
H2577 H 0.34746 0.98611 0.61341 0.0
H2578 H 0.32682 0.98223 0.59054 0.0
H2579 H 0.29113 0.01154 0.61358 0.0
H2580 H 0.31146 0.01542 0.63672 0.0
H2581 H 0.37802 0.06916 0.64645 0.0
H2582 H 0.37319 0.04303 0.63874 0.0
H2583 H 0.35386 0.03355 0.68741 0.0
H2584 H 0.3587 0.05952 0.69517 0.0
H2585 H 0.34263 0.02716 0.63796 0.0
H2586 H 0.36599 0.99797 0.69839 0.0
H2587 H 0.38748 1.00176 0.72055 0.0
H2588 H 0.4185 0.02734 0.68722 0.0
H2589 H 0.39733 0.02353 0.6648 0.0
C2590 C 0.32131 0.95692 0.64647 0.0
C2591 C 0.33298 0.94566 0.64222 0.0
C2592 C 0.32683 0.97159 0.64894 0.0
C2593 C 0.34414 0.97539 0.64728 0.0
C2594 C 0.35586 0.96422 0.6432 0.0
C2595 C 0.35034 0.94954 0.6406 0.0
C2596 C 0.34998 0.991 0.65003 0.0
C2597 C 0.36204 0.99375 0.66264 0.0
C2598 C 0.34315 0.00319 0.64081 0.0
C2599 C 0.33094 1.00096 0.62686 0.0
C2600 C 0.33516 0.99164 0.61366 0.0
C2601 C 0.32352 0.98946 0.60064 0.0
C2602 C 0.30766 0.99661 0.60063 0.0
C2603 C 0.30342 0.006 0.61362 0.0
C2604 C 0.315 0.00821 0.62668 0.0
C2605 C 0.37292 0.06145 0.65554 0.0
C2606 C 0.36871 0.06641 0.6714 0.0
C2607 C 0.37006 0.04656 0.65109 0.0
C2608 C 0.36322 0.03631 0.66252 0.0
C2609 C 0.35926 0.04121 0.67843 0.0
C2610 C 0.36194 0.05608 0.68281 0.0
C2611 C 0.35977 0.02058 0.65778 0.0
C2612 C 0.34811 0.01782 0.64483 0.0
C2613 C 0.36705 0.00837 0.66661 0.0
C2614 C 0.37998 0.01056 0.67996 0.0
C2615 C 0.37743 0.00434 0.69577 0.0
C2616 C 0.38955 0.00651 0.70838 0.0
C2617 C 0.40432 0.01482 0.70531 0.0
C2618 C 0.40702 0.02095 0.6896 0.0
C2619 C 0.39496 0.01881 0.67694 0.0
H2620 H 0.41368 0.0165 0.71509 0.0
H2621 H 0.29867 0.99491 0.59054 0.0
H2622 H 0.04408 0.82485 0.15135 0.0
H2623 H 0.01487 0.83375 0.15471 0.0
H2624 H 0.02981 0.87752 0.1374 0.0
H2625 H 0.0593 0.86863 0.13404 0.0
H2626 H 0.01003 0.87749 0.16664 0.0
H2627 H 0.00722 0.85751 0.11224 0.0
H2628 H 0.0118 0.83872 0.09073 0.0
H2629 H 0.98 0.8076 0.11691 0.0
H2630 H 0.97544 0.82613 0.13872 0.0
H2631 H 0.92267 0.89897 0.16991 0.0
H2632 H 0.95116 0.89481 0.15833 0.0
H2633 H 0.94596 0.84751 0.16789 0.0
H2634 H 0.91741 0.85171 0.17913 0.0
H2635 H 0.96104 0.85247 0.13883 0.0
H2636 H 0.96729 0.87023 0.19471 0.0
H2637 H 0.96302 0.88801 0.21732 0.0
H2638 H 0.98863 0.92223 0.18946 0.0
H2639 H 0.99285 0.90469 0.16657 0.0
C2640 C 0.04119 0.8364 0.14835 0.0
C2641 C 0.05396 0.84609 0.14253 0.0
C2642 C 0.02447 0.84143 0.15014 0.0
C2643 C 0.02018 0.85624 0.14616 0.0
C2644 C 0.0329 0.86602 0.14046 0.0
C2645 C 0.04966 0.86094 0.1385 0.0
C2646 C 0.00241 0.8614 0.1484 0.0
C2647 C 0.99931 0.87229 0.16029 0.0
C2648 C 0.98847 0.85435 0.14034 0.0
C2649 C 0.99108 0.8432 0.12718 0.0
C2650 C 0.0013 0.84663 0.11348 0.0
C2651 C 0.00388 0.83602 0.10122 0.0
C2652 C 0.99622 0.82197 0.10247 0.0
C2653 C 0.98593 0.8185 0.11596 0.0
C2654 C 0.98333 0.82905 0.12827 0.0
C2655 C 0.92762 0.88771 0.16925 0.0
C2656 C 0.9181 0.87563 0.17534 0.0
C2657 C 0.94383 0.88533 0.16273 0.0
C2658 C 0.95075 0.87087 0.16245 0.0
C2659 C 0.94086 0.85875 0.16798 0.0
C2660 C 0.92464 0.86112 0.17441 0.0
C2661 C 0.96863 0.86834 0.15733 0.0
C2662 C 0.97175 0.85791 0.14493 0.0
C2663 C 0.98259 0.8757 0.16505 0.0
C2664 C 0.98021 0.8862 0.17886 0.0
C2665 C 0.97191 0.88158 0.19336 0.0
C2666 C 0.96951 0.8916 0.20623 0.0
C2667 C 0.9755 0.90625 0.2048 0.0
C2668 C 0.98397 0.91089 0.19053 0.0
C2669 C 0.98637 0.90091 0.17761 0.0
H2670 H 0.97363 0.91401 0.21478 0.0
H2671 H 0.99823 0.81378 0.09296 0.0
H2672 H 0.17613 0.95332 0.89569 0.0
H2673 H 0.1682 0.9792 0.88878 0.0
H2674 H 0.15827 0.96662 0.83828 0.0
H2675 H 0.166 0.94076 0.84512 0.0
H2676 H 0.17942 0.99257 0.84218 0.0
H2677 H 0.12569 0.97243 0.86133 0.0
H2678 H 0.10707 0.95986 0.88153 0.0
H2679 H 0.11791 0.99409 0.91689 0.0
H2680 H 0.1368 0.00675 0.89696 0.0
H2681 H 0.14184 0.0576 0.80949 0.0
H2682 H 0.14712 0.03173 0.81808 0.0
H2683 H 0.1431 0.04437 0.86922 0.0
H2684 H 0.13684 0.07017 0.86047 0.0
H2685 H 0.12975 0.01847 0.8663 0.0
H2686 H 0.18294 0.03891 0.84892 0.0
H2687 H 0.20295 0.05185 0.83031 0.0
H2688 H 0.19559 0.01779 0.79399 0.0
H2689 H 0.17534 0.00475 0.8123 0.0
C2690 C 0.17223 0.95609 0.88313 0.0
C2691 C 0.17163 0.945 0.87096 0.0
C2692 C 0.16764 0.97085 0.87922 0.0
C2693 C 0.16259 0.97482 0.86303 0.0
C2694 C 0.16209 0.96379 0.85085 0.0
C2695 C 0.16641 0.94901 0.8548 0.0
C2696 C 0.15816 0.99052 0.85863 0.0
C2697 C 0.16845 0.9982 0.84729 0.0
C2698 C 0.14422 0.99802 0.86577 0.0
C2699 C 0.1328 0.99045 0.87772 0.0
C2700 C 0.12423 0.9772 0.87346 0.0
C2701 C 0.1136 0.97008 0.88485 0.0
C2702 C 0.11135 0.97615 0.9005 0.0
C2703 C 0.11968 0.98939 0.90478 0.0
C2704 C 0.13034 0.99655 0.89343 0.0
C2705 C 0.14193 0.05478 0.82255 0.0
C2706 C 0.13903 0.06584 0.83433 0.0
C2707 C 0.14509 0.04003 0.82748 0.0
C2708 C 0.14603 0.03608 0.84435 0.0
C2709 C 0.14257 0.04707 0.85614 0.0
C2710 C 0.139 0.06181 0.85116 0.0
C2711 C 0.15091 0.02059 0.84962 0.0
C2712 C 0.14076 0.01293 0.86117 0.0
C2713 C 0.16523 0.01317 0.84293 0.0
C2714 C 0.1775 0.02092 0.83193 0.0
C2715 C 0.18551 0.03423 0.83692 0.0
C2716 C 0.1969 0.04158 0.82643 0.0
C2717 C 0.20051 0.03566 0.81096 0.0
C2718 C 0.19277 0.02236 0.80597 0.0
C2719 C 0.18134 0.01498 0.8164 0.0
H2720 H 0.20933 0.04137 0.80286 0.0
H2721 H 0.10311 0.97062 0.90931 0.0
H2722 H 0.93502 0.61024 0.33037 0.0
H2723 H 0.96278 0.6203 0.33965 0.0
H2724 H 0.94735 0.66428 0.32297 0.0
H2725 H 0.91973 0.65415 0.31362 0.0
H2726 H 0.97952 0.6574 0.31331 0.0
H2727 H 0.94688 0.65527 0.36321 0.0
H2728 H 0.92924 0.643 0.38444 0.0
H2729 H 0.9703 0.61275 0.39619 0.0
H2730 H 0.98809 0.62468 0.37481 0.0
H2731 H 0.04192 0.70194 0.35163 0.0
H2732 H 0.01446 0.69056 0.34441 0.0
H2733 H 0.03258 0.64799 0.36293 0.0
H2734 H 0.06012 0.65937 0.3703 0.0
H2735 H 0.99967 0.65304 0.37161 0.0
H2736 H 0.03247 0.65534 0.32201 0.0
H2737 H 0.05013 0.66757 0.30076 0.0
H2738 H 0.00879 0.69732 0.28834 0.0
H2739 H 0.99096 0.68541 0.3097 0.0
C2740 C 0.93769 0.62203 0.32876 0.0
C2741 C 0.92549 0.63152 0.32138 0.0
C2742 C 0.95342 0.62777 0.33406 0.0
C2743 C 0.95703 0.64305 0.33209 0.0
C2744 C 0.94479 0.65247 0.32458 0.0
C2745 C 0.92909 0.64674 0.31931 0.0
C2746 C 0.97359 0.64927 0.33773 0.0
C2747 C 0.98385 0.65659 0.32609 0.0
C2748 C 0.97938 0.64786 0.35432 0.0
C2749 C 0.96876 0.64077 0.36729 0.0
C2750 C 0.9521 0.64592 0.37023 0.0
C2751 C 0.94208 0.63904 0.3823 0.0
C2752 C 0.94863 0.62708 0.39163 0.0
C2753 C 0.96523 0.622 0.38893 0.0
C2754 C 0.9753 0.62882 0.37684 0.0
C2755 C 0.04004 0.69015 0.35416 0.0
C2756 C 0.05319 0.68149 0.36135 0.0
C2757 C 0.02436 0.68368 0.35005 0.0
C2758 C 0.02162 0.66838 0.35287 0.0
C2759 C 0.03448 0.65981 0.36062 0.0
C2760 C 0.05017 0.66631 0.36483 0.0
C2761 C 0.00551 0.6613 0.34722 0.0
C2762 C 0.99536 0.65379 0.35882 0.0
C2763 C 0.99981 0.66251 0.33057 0.0
C2764 C 0.01043 0.66956 0.31756 0.0
C2765 C 0.02718 0.66455 0.31482 0.0
C2766 C 0.03722 0.67142 0.30275 0.0
C2767 C 0.0306 0.68323 0.29323 0.0
C2768 C 0.01391 0.68817 0.29574 0.0
C2769 C 0.00382 0.68136 0.30781 0.0
H2770 H 0.0384 0.68854 0.2839 0.0
H2771 H 0.94085 0.62177 0.40097 0.0
H2772 H 0.32663 0.55658 0.88778 0.0
H2773 H 0.33556 0.53072 0.88351 0.0
H2774 H 0.34494 0.54075 0.83219 0.0
H2775 H 0.33661 0.56663 0.8364 0.0
H2776 H 0.32485 0.5155 0.83666 0.0
H2777 H 0.3777 0.53593 0.85791 0.0
H2778 H 0.3959 0.54899 0.87824 0.0
H2779 H 0.38385 0.51593 0.91514 0.0
H2780 H 0.36537 0.50278 0.89508 0.0
H2781 H 0.36731 0.45163 0.80944 0.0
H2782 H 0.36035 0.47712 0.81703 0.0
H2783 H 0.35757 0.46363 0.86827 0.0
H2784 H 0.36532 0.43811 0.86084 0.0
H2785 H 0.37317 0.49008 0.86564 0.0
H2786 H 0.32121 0.46911 0.84495 0.0
H2787 H 0.30246 0.45584 0.82526 0.0
H2788 H 0.31161 0.48963 0.78835 0.0
H2789 H 0.33063 0.503 0.80775 0.0
C2790 C 0.33089 0.55338 0.87565 0.0
C2791 C 0.33072 0.56374 0.86241 0.0
C2792 C 0.33592 0.53855 0.87322 0.0
C2793 C 0.34086 0.53379 0.85751 0.0
C2794 C 0.34103 0.54414 0.84438 0.0
C2795 C 0.33616 0.55895 0.84682 0.0
C2796 C 0.34532 0.51792 0.85448 0.0
C2797 C 0.33553 0.50999 0.84287 0.0
C2798 C 0.35889 0.51058 0.86298 0.0
C2799 C 0.36999 0.51847 0.87505 0.0
C2800 C 0.3788 0.53152 0.8704 0.0
C2801 C 0.38919 0.53893 0.88187 0.0
C2802 C 0.39099 0.53332 0.89799 0.0
C2803 C 0.38242 0.52028 0.90266 0.0
C2804 C 0.372 0.51284 0.89124 0.0
C2805 C 0.3655 0.45407 0.82237 0.0
C2806 C 0.36688 0.44273 0.83451 0.0
C2807 C 0.3613 0.46866 0.82668 0.0
C2808 C 0.35814 0.47229 0.8432 0.0
C2809 C 0.35985 0.4611 0.85542 0.0
C2810 C 0.36413 0.44647 0.85113 0.0
C2811 C 0.35286 0.48771 0.84759 0.0
C2812 C 0.36243 0.49555 0.85948 0.0
C2813 C 0.33896 0.49496 0.83946 0.0
C2814 C 0.32747 0.48699 0.82776 0.0
C2815 C 0.31933 0.47366 0.8326 0.0
C2816 C 0.30864 0.46613 0.82149 0.0
C2817 C 0.30588 0.47187 0.80555 0.0
C2818 C 0.31378 0.48518 0.80069 0.0
C2819 C 0.3245 0.49275 0.81174 0.0
H2820 H 0.29759 0.46602 0.79697 0.0
H2821 H 0.39905 0.53907 0.90684 0.0
H2822 H 0.42538 0.83928 0.34485 0.0
H2823 H 0.45345 0.85046 0.34078 0.0
H2824 H 0.46358 0.84762 0.39329 0.0
H2825 H 0.43473 0.83762 0.39752 0.0
H2826 H 0.48123 0.86999 0.38098 0.0
H2827 H 0.47445 0.81831 0.36737 0.0
H2828 H 0.46084 0.79677 0.35369 0.0
H2829 H 0.47138 0.8162 0.30614 0.0
H2830 H 0.48492 0.83791 0.31956 0.0
H2831 H 0.56785 0.83894 0.34481 0.0
H2832 H 0.53939 0.83608 0.35626 0.0
H2833 H 0.53083 0.88347 0.35017 0.0
H2834 H 0.56007 0.88646 0.34007 0.0
H2835 H 0.51236 0.83908 0.3408 0.0
H2836 H 0.49714 0.89517 0.37291 0.0
H2837 H 0.51185 0.91407 0.38989 0.0
H2838 H 0.54836 0.88123 0.40652 0.0
H2839 H 0.53375 0.8621 0.38981 0.0
C2840 C 0.43322 0.84179 0.3556 0.0
C2841 C 0.42786 0.83774 0.37153 0.0
C2842 C 0.44939 0.84795 0.35325 0.0
C2843 C 0.46084 0.84942 0.36667 0.0
C2844 C 0.45502 0.84652 0.38274 0.0
C2845 C 0.43857 0.84081 0.38516 0.0
C2846 C 0.47933 0.85197 0.36367 0.0
C2847 C 0.48808 0.86328 0.37219 0.0
C2848 C 0.48843 0.8429 0.3526 0.0
C2849 C 0.48052 0.82978 0.34447 0.0
C2850 C 0.47377 0.81801 0.354 0.0
C2851 C 0.46608 0.80578 0.3463 0.0
C2852 C 0.46518 0.80515 0.32906 0.0
C2853 C 0.47205 0.81672 0.31949 0.0
C2854 C 0.47976 0.82897 0.32713 0.0
C2855 C 0.56018 0.84883 0.34666 0.0
C2856 C 0.56626 0.86297 0.34196 0.0
C2857 C 0.54379 0.84718 0.35297 0.0
C2858 C 0.53285 0.85954 0.35413 0.0
C2859 C 0.53907 0.87378 0.34979 0.0
C2860 C 0.55573 0.87549 0.34395 0.0
C2861 C 0.51451 0.85715 0.35813 0.0
C2862 C 0.50567 0.84585 0.34967 0.0
C2863 C 0.50564 0.86585 0.36976 0.0
C2864 C 0.51444 0.87724 0.37996 0.0
C2865 C 0.50827 0.89197 0.38023 0.0
C2866 C 0.5166 0.90273 0.3898 0.0
C2867 C 0.53106 0.89887 0.39923 0.0
C2868 C 0.53719 0.88422 0.39916 0.0
C2869 C 0.52891 0.87342 0.38962 0.0
H2870 H 0.53749 0.90721 0.40663 0.0
H2871 H 0.4592 0.79569 0.32312 0.0
H2872 H 0.62119 0.16616 0.56042 0.0
H2873 H 0.62607 0.15565 0.53311 0.0
H2874 H 0.65858 0.19307 0.5209 0.0
H2875 H 0.65304 0.20391 0.54797 0.0
H2876 H 0.64017 0.18669 0.49532 0.0
H2877 H 0.67482 0.15801 0.53294 0.0
H2878 H 0.68128 0.14254 0.55764 0.0
H2879 H 0.64643 0.10888 0.54046 0.0
H2880 H 0.63957 0.12425 0.51575 0.0
H2881 H 0.68393 0.15062 0.42961 0.0
H2882 H 0.67623 0.16312 0.45532 0.0
H2883 H 0.63808 0.12928 0.46458 0.0
H2884 H 0.64597 0.11673 0.43896 0.0
H2885 H 0.65935 0.13411 0.4912 0.0
H2886 H 0.62619 0.164 0.45231 0.0
H2887 H 0.62239 0.1798 0.42736 0.0
H2888 H 0.65807 0.21171 0.44693 0.0
H2889 H 0.66228 0.19599 0.4719 0.0
C2890 C 0.62935 0.1721 0.55185 0.0
C2891 C 0.63685 0.18575 0.55622 0.0
C2892 C 0.63219 0.16609 0.5363 0.0
C2893 C 0.64297 0.17343 0.52507 0.0
C2894 C 0.65023 0.18721 0.52936 0.0
C2895 C 0.64712 0.19337 0.5448 0.0
C2896 C 0.64683 0.16663 0.50893 0.0
C2897 C 0.64455 0.17525 0.49445 0.0
C2898 C 0.65241 0.15165 0.50775 0.0
C2899 C 0.65656 0.14235 0.52257 0.0
C2900 C 0.66844 0.14736 0.53449 0.0
C2901 C 0.67219 0.1386 0.54848 0.0
C2902 C 0.66424 0.12475 0.55064 0.0
C2903 C 0.65256 0.11962 0.53878 0.0
C2904 C 0.64875 0.12834 0.52477 0.0
C2905 C 0.67373 0.14607 0.43708 0.0
C2906 C 0.66527 0.13296 0.43238 0.0
C2907 C 0.66933 0.15317 0.45167 0.0
C2908 C 0.65646 0.14719 0.46171 0.0
C2909 C 0.64796 0.1341 0.45692 0.0
C2910 C 0.65235 0.12701 0.44232 0.0
C2911 C 0.65252 0.15412 0.47768 0.0
C2912 C 0.65488 0.14553 0.49213 0.0
C2913 C 0.64738 0.16919 0.47882 0.0
C2914 C 0.64464 0.17876 0.46392 0.0
C2915 C 0.63331 0.17434 0.45125 0.0
C2916 C 0.63108 0.18329 0.43711 0.0
C2917 C 0.64002 0.19673 0.43555 0.0
C2918 C 0.65117 0.20128 0.44815 0.0
C2919 C 0.65347 0.19237 0.46231 0.0
H2920 H 0.63828 0.20363 0.42458 0.0
H2921 H 0.66716 0.11799 0.56148 0.0
H2922 H 0.85789 0.14423 0.07033 0.0
H2923 H 0.86729 0.14901 0.04205 0.0
H2924 H 0.838 0.11116 0.02518 0.0
H2925 H 0.82864 0.10626 0.05361 0.0
H2926 H 0.88322 0.13306 0.01623 0.0
H2927 H 0.81531 0.12534 0.99108 0.0
H2928 H 0.78561 0.12429 1.001 0.0
H2929 H 0.7988 0.15376 0.04068 0.0
H2930 H 0.82847 0.15516 0.03083 0.0
H2931 H 0.88061 0.1538 0.92935 0.0
H2932 H 0.87572 0.13912 0.95471 0.0
H2933 H 0.85407 0.17789 0.97761 0.0
H2934 H 0.85903 0.19258 0.95244 0.0
H2935 H 0.83457 0.15142 0.98159 0.0
H2936 H 0.89282 0.1697 0.98705 0.0
H2937 H 0.9227 0.17266 0.97823 0.0
H2938 H 0.92928 0.12507 0.97942 0.0
H2939 H 0.89933 0.12183 0.98803 0.0
C2940 C 0.85382 0.13673 0.06062 0.0
C2941 C 0.84245 0.12499 0.06398 0.0
C2942 C 0.85928 0.13939 0.04454 0.0
C2943 C 0.85324 0.13048 0.03158 0.0
C2944 C 0.84278 0.11813 0.03507 0.0
C2945 C 0.83746 0.11535 0.05124 0.0
C2946 C 0.85587 0.13557 0.0144 0.0
C2947 C 0.87259 0.13682 0.0085 0.0
C2948 C 0.84199 0.14068 0.0045 0.0
C2949 C 0.82412 0.14017 0.01035 0.0
C2950 C 0.81183 0.13162 1.00189 0.0
C2951 C 0.79501 0.13097 0.0075 0.0
C2952 C 0.79033 0.13891 0.0215 0.0
C2953 C 0.80245 0.14758 0.02988 0.0
C2954 C 0.81926 0.14829 0.02429 0.0
C2955 C 0.87473 0.15911 0.9398 0.0
C2956 C 0.87023 0.1743 0.93905 0.0
C2957 C 0.872 0.15076 0.95422 0.0
C2958 C 0.86455 0.15747 0.96794 0.0
C2959 C 0.8598 0.17255 0.96709 0.0
C2960 C 0.86273 0.18093 0.9528 0.0
C2961 C 0.86193 0.14899 0.98343 0.0
C2962 C 0.84518 0.14719 0.98905 0.0
C2963 C 0.87581 0.14357 0.99313 0.0
C2964 C 0.89378 0.14552 0.98795 0.0
C2965 C 0.90058 0.15986 0.98526 0.0
C2966 C 0.91754 0.16159 0.98034 0.0
C2967 C 0.92786 0.14906 0.9782 0.0
C2968 C 0.92126 0.13477 0.98104 0.0
C2969 C 0.90429 0.13298 0.98594 0.0
H2970 H 0.94099 0.15042 0.9744 0.0
H2971 H 0.77732 0.13837 0.02584 0.0
H2972 H 0.88978 0.33767 0.5394 0.0
H2973 H 0.88506 0.34552 0.51074 0.0
H2974 H 0.85513 0.30584 0.50196 0.0
H2975 H 0.86052 0.29751 0.53041 0.0
H2976 H 0.87431 0.31269 0.47554 0.0
H2977 H 0.83608 0.33878 0.51165 0.0
H2978 H 0.82887 0.35464 0.53527 0.0
H2979 H 0.85842 0.39056 0.51466 0.0
H2980 H 0.86599 0.37482 0.49102 0.0
H2981 H 0.8157 0.33498 0.4125 0.0
H2982 H 0.83136 0.32621 0.4372 0.0
H2983 H 0.85866 0.3681 0.43908 0.0
H2984 H 0.84271 0.37691 0.41444 0.0
H2985 H 0.84468 0.36129 0.46803 0.0
H2986 H 0.87932 0.3357 0.4295 0.0
H2987 H 0.88521 0.31962 0.40573 0.0
H2988 H 0.86141 0.28254 0.43046 0.0
H2989 H 0.85512 0.29846 0.45428 0.0
C2990 C 0.88253 0.33041 0.5313 0.0
C2991 C 0.87538 0.31701 0.53726 0.0
C2992 C 0.87972 0.33499 0.51495 0.0
C2993 C 0.8695 0.32639 0.50432 0.0
C2994 C 0.86299 0.31269 0.50999 0.0
C2995 C 0.86591 0.30803 0.52631 0.0
C2996 C 0.86457 0.33211 0.48769 0.0
C2997 C 0.86777 0.32328 0.47386 0.0
C2998 C 0.85638 0.34608 0.48552 0.0
C2999 C 0.85176 0.35557 0.49968 0.0
C3000 C 0.84114 0.35002 0.51222 0.0
C3001 C 0.83697 0.35899 0.5256 0.0
C3002 C 0.84323 0.37358 0.52649 0.0
C3003 C 0.85362 0.37925 0.51398 0.0
C3004 C 0.85784 0.37031 0.50058 0.0
C3005 C 0.82531 0.34213 0.41808 0.0
C3006 C 0.82819 0.35651 0.41176 0.0
C3007 C 0.83428 0.33713 0.43208 0.0
C3008 C 0.84631 0.34645 0.43987 0.0
C3009 C 0.8495 0.36072 0.4332 0.0
C3010 C 0.84048 0.36573 0.41919 0.0
C3011 C 0.85424 0.34181 0.45582 0.0
C3012 C 0.85153 0.35083 0.46959 0.0
C3013 C 0.86276 0.32798 0.4579 0.0
C3014 C 0.86666 0.31832 0.44365 0.0
C3015 C 0.87523 0.32415 0.42983 0.0
C3016 C 0.87866 0.31505 0.41635 0.0
C3017 C 0.87367 0.30007 0.41658 0.0
C3018 C 0.86527 0.29415 0.4303 0.0
C3019 C 0.86179 0.3032 0.44381 0.0
H3020 H 0.87633 0.29305 0.40612 0.0
H3021 H 0.83999 0.38051 0.53686 0.0
H3022 H 0.64068 0.30876 0.97442 0.0
H3023 H 0.64472 0.31655 0.00296 0.0
H3024 H 0.63869 0.36262 0.98788 0.0
H3025 H 0.63453 0.35486 0.95916 0.0
H3026 H 0.66608 0.3588 0.0079 0.0
H3027 H 0.60729 0.34524 0.00928 0.0
H3028 H 0.58198 0.32935 0.0045 0.0
H3029 H 0.60353 0.29531 0.03622 0.0
H3030 H 0.62909 0.31089 0.041 0.0
H3031 H 0.67259 0.37955 0.09206 0.0
H3032 H 0.65916 0.37654 0.06466 0.0
H3033 H 0.66454 0.32872 0.06944 0.0
H3034 H 0.67787 0.33178 0.09682 0.0
H3035 H 0.63393 0.33674 0.0547 0.0
H3036 H 0.69426 0.34838 0.04905 0.0
H3037 H 0.72021 0.36363 0.05326 0.0
H3038 H 0.69556 0.40105 0.0294 0.0
H3039 H 0.66944 0.386 0.0251 0.0
C3040 C 0.63994 0.32054 0.97718 0.0
C3041 C 0.63719 0.33119 0.96454 0.0
C3042 C 0.64224 0.32497 0.99352 0.0
C3043 C 0.64172 0.34015 0.99757 0.0
C3044 C 0.63905 0.35085 0.985 0.0
C3045 C 0.63676 0.34641 0.96861 0.0
C3046 C 0.64492 0.34475 0.01485 0.0
C3047 C 0.65878 0.35426 0.01811 0.0
C3048 C 0.63558 0.33861 0.02817 0.0
C3049 C 0.62017 0.32921 0.02542 0.0
C3050 C 0.60669 0.33432 0.01515 0.0
C3051 C 0.59229 0.32538 0.01245 0.0
C3052 C 0.59116 0.31132 0.02003 0.0
C3053 C 0.60442 0.3062 0.03035 0.0
C3054 C 0.61886 0.31509 0.03308 0.0
C3055 C 0.67053 0.36843 0.08731 0.0
C3056 C 0.67615 0.35587 0.09634 0.0
C3057 C 0.66297 0.36671 0.07171 0.0
C3058 C 0.66104 0.35242 0.06499 0.0
C3059 C 0.66589 0.33983 0.07444 0.0
C3060 C 0.67347 0.34156 0.09 0.0
C3061 C 0.65524 0.35053 0.04767 0.0
C3062 C 0.64095 0.34151 0.04443 0.0
C3063 C 0.66418 0.3571 0.03435 0.0
C3064 C 0.67986 0.36613 0.03693 0.0
C3065 C 0.69435 0.35989 0.0448 0.0
C3066 C 0.7091 0.36848 0.04716 0.0
C3067 C 0.70951 0.38331 0.04166 0.0
C3068 C 0.69521 0.38956 0.03369 0.0
C3069 C 0.68045 0.381 0.03126 0.0
H3070 H 0.72092 0.38996 0.04354 0.0
H3071 H 0.58 0.30441 0.01793 0.0
H3072 H 0.85139 0.55843 0.34453 0.0
H3073 H 0.84263 0.53297 0.35093 0.0
H3074 H 0.84456 0.52201 0.29922 0.0
H3075 H 0.85212 0.54779 0.29255 0.0
H3076 H 0.81817 0.50912 0.31131 0.0
H3077 H 0.87662 0.51119 0.3288 0.0
H3078 H 0.902 0.52095 0.34353 0.0
H3079 H 0.8775 0.51343 0.39007 0.0
H3080 H 0.85187 0.5038 0.3756 0.0
H3081 H 0.81538 0.43057 0.32478 0.0
H3082 H 0.82472 0.45575 0.31757 0.0
H3083 H 0.81882 0.46908 0.36822 0.0
H3084 H 0.8103 0.44365 0.37572 0.0
H3085 H 0.84767 0.48034 0.35599 0.0
H3086 H 0.78871 0.47811 0.33684 0.0
H3087 H 0.76509 0.46652 0.32104 0.0
H3088 H 0.79277 0.47284 0.27603 0.0
H3089 H 0.81663 0.48433 0.29159 0.0
C3090 C 0.84976 0.55073 0.33442 0.0
C3091 C 0.85256 0.55536 0.31797 0.0
C3092 C 0.84496 0.53601 0.33816 0.0
C3093 C 0.8432 0.52535 0.32563 0.0
C3094 C 0.8459 0.52992 0.30919 0.0
C3095 C 0.85047 0.5447 0.3054 0.0
C3096 C 0.83843 0.50952 0.32966 0.0
C3097 C 0.8248 0.50281 0.32095 0.0
C3098 C 0.84686 0.50116 0.34235 0.0
C3099 C 0.86226 0.50691 0.3511 0.0
C3100 C 0.8766 0.51172 0.34217 0.0
C3101 C 0.89103 0.51721 0.35047 0.0
C3102 C 0.89134 0.51785 0.36772 0.0
C3103 C 0.87723 0.51295 0.37671 0.0
C3104 C 0.86275 0.50746 0.36846 0.0
C3105 C 0.81626 0.43876 0.33447 0.0
C3106 C 0.81205 0.43495 0.35087 0.0
C3107 C 0.82142 0.45327 0.33026 0.0
C3108 C 0.82226 0.46447 0.34228 0.0
C3109 C 0.81821 0.4607 0.35868 0.0
C3110 C 0.81316 0.44615 0.36292 0.0
C3111 C 0.82736 0.48008 0.33779 0.0
C3112 C 0.84105 0.48671 0.34639 0.0
C3113 C 0.81917 0.48827 0.32484 0.0
C3114 C 0.80449 0.482 0.31539 0.0
C3115 C 0.78975 0.47702 0.32357 0.0
C3116 C 0.77633 0.47046 0.31466 0.0
C3117 C 0.77744 0.46892 0.29754 0.0
C3118 C 0.79193 0.47404 0.28928 0.0
C3119 C 0.80539 0.48061 0.29814 0.0
H3120 H 0.76708 0.46377 0.29068 0.0
H3121 H 0.90253 0.5221 0.37413 0.0
H3122 H 0.44855 0.38734 0.83034 0.0
H3123 H 0.47713 0.37914 0.83946 0.0
H3124 H 0.45929 0.33356 0.84141 0.0
H3125 H 0.43099 0.34174 0.83154 0.0
H3126 H 0.48963 0.36719 0.86566 0.0
H3127 H 0.49109 0.30911 0.83455 0.0
H3128 H 0.47944 0.29689 0.80964 0.0
H3129 H 0.47569 0.3394 0.7848 0.0
H3130 H 0.48753 0.35184 0.80946 0.0
H3131 H 0.55839 0.3258 0.90113 0.0
H3132 H 0.5302 0.33375 0.8907 0.0
H3133 H 0.54989 0.33598 0.84116 0.0
H3134 H 0.57788 0.32742 0.85158 0.0
H3135 H 0.51949 0.32496 0.83946 0.0
H3136 H 0.54333 0.36777 0.86545 0.0
H3137 H 0.55679 0.38222 0.88789 0.0
H3138 H 0.51314 0.37435 0.91843 0.0
H3139 H 0.49952 0.35965 0.89625 0.0
C3140 C 0.45086 0.37556 0.8325 0.0
C3141 C 0.43766 0.36514 0.82994 0.0
C3142 C 0.46716 0.37087 0.83786 0.0
C3143 C 0.47062 0.35565 0.84093 0.0
C3144 C 0.45723 0.3453 0.83876 0.0
C3145 C 0.441 0.34998 0.83321 0.0
C3146 C 0.48812 0.35068 0.84654 0.0
C3147 C 0.4961 0.35794 0.85991 0.0
C3148 C 0.49693 0.33882 0.83891 0.0
C3149 C 0.49004 0.33141 0.82392 0.0
C3150 C 0.48784 0.31584 0.82375 0.0
C3151 C 0.4812 0.30888 0.80967 0.0
C3152 C 0.47678 0.31737 0.79567 0.0
C3153 C 0.47906 0.33284 0.79567 0.0
C3154 C 0.48573 0.33985 0.8097 0.0
C3155 C 0.55659 0.32783 0.888 0.0
C3156 C 0.57026 0.32587 0.87714 0.0
C3157 C 0.54052 0.33252 0.88203 0.0
C3158 C 0.53783 0.3357 0.8651 0.0
C3159 C 0.55151 0.33361 0.85425 0.0
C3160 C 0.56753 0.32878 0.8602 0.0
C3161 C 0.52085 0.34131 0.85874 0.0
C3162 C 0.51298 0.33418 0.84524 0.0
C3163 C 0.51238 0.35359 0.86591 0.0
C3164 C 0.52047 0.3625 0.87924 0.0
C3165 C 0.53665 0.36904 0.877 0.0
C3166 C 0.5443 0.37728 0.88966 0.0
C3167 C 0.53584 0.37917 0.90459 0.0
C3168 C 0.51969 0.37286 0.90687 0.0
C3169 C 0.51199 0.36458 0.89425 0.0
H3170 H 0.54179 0.38556 0.91439 0.0
H3171 H 0.47161 0.31196 0.7848 0.0
H3172 H 0.64192 0.05188 0.37448 0.0
H3173 H 0.63317 0.02645 0.36746 0.0
H3174 H 0.686 0.01442 0.36058 0.0
H3175 H 0.69468 0.03995 0.36704 0.0
H3176 H 0.66866 0.0035 0.33677 0.0
H3177 H 0.66124 1.0029 0.39537 0.0
H3178 H 0.65055 0.01154 0.42214 0.0
H3179 H 0.59882 0.00503 0.40527 0.0
H3180 H 0.6092 0.99653 0.3783 0.0
H3181 H 0.65819 0.92458 0.33775 0.0
H3182 H 0.66535 0.95005 0.34602 0.0
H3183 H 0.61234 0.96265 0.34089 0.0
H3184 H 0.60508 0.93711 0.33254 0.0
H3185 H 0.62884 0.97314 0.37055 0.0
H3186 H 0.63775 0.9729 0.31174 0.0
H3187 H 0.64972 0.96327 0.28592 0.0
H3188 H 0.70062 0.97037 0.3048 0.0
H3189 H 0.68894 0.97984 0.33085 0.0
C3190 C 0.65166 0.04375 0.37165 0.0
C3191 C 0.66899 0.04792 0.37132 0.0
C3192 C 0.64666 0.02918 0.36766 0.0
C3193 C 0.65891 0.01835 0.36363 0.0
C3194 C 0.67625 0.0225 0.36356 0.0
C3195 C 0.68122 0.03711 0.36729 0.0
C3196 C 0.6537 1.00287 0.35896 0.0
C3197 C 0.66014 0.99684 0.34433 0.0
C3198 C 0.64228 0.99414 0.36855 0.0
C3199 C 0.636 0.99923 0.38476 0.0
C3200 C 0.64758 0.00342 0.39732 0.0
C3201 C 0.64158 0.00827 0.41254 0.0
C3202 C 0.62401 0.00888 0.41539 0.0
C3203 C 0.61242 0.00458 0.40304 0.0
C3204 C 0.61835 0.99974 0.38779 0.0
C3205 C 0.64802 0.93274 0.3385 0.0
C3206 C 0.63105 0.92881 0.3345 0.0
C3207 C 0.65215 0.94731 0.34315 0.0
C3208 C 0.6394 0.95829 0.34401 0.0
C3209 C 0.62239 0.95437 0.3403 0.0
C3210 C 0.61827 0.93981 0.33544 0.0
C3211 C 0.64393 0.97388 0.34852 0.0
C3212 C 0.63736 0.97989 0.36306 0.0
C3213 C 0.65543 0.98251 0.33901 0.0
C3214 C 0.66247 0.97694 0.3233 0.0
C3215 C 0.6515 0.97229 0.31044 0.0
C3216 C 0.65823 0.96689 0.29575 0.0
C3217 C 0.67592 0.96618 0.29374 0.0
C3218 C 0.68692 0.97091 0.30639 0.0
C3219 C 0.68025 0.97631 0.32111 0.0
H3220 H 0.68111 0.96199 0.28236 0.0
H3221 H 0.61939 0.01263 0.42718 0.0
H3222 H 0.0602 0.12643 0.82741 0.0
H3223 H 0.03244 0.13683 0.83462 0.0
H3224 H 0.05504 0.18076 0.8371 0.0
H3225 H 0.08245 0.17043 0.82841 0.0
H3226 H 0.01959 0.14856 0.85869 0.0
H3227 H 0.02668 0.20827 0.83075 0.0
H3228 H 0.04084 0.22081 0.80732 0.0
H3229 H 0.0407 0.17973 0.7805 0.0
H3230 H 0.02634 0.167 0.80367 0.0
H3231 H 0.95105 0.1905 0.88991 0.0
H3232 H 0.9795 0.1819 0.8821 0.0
H3233 H 0.96573 0.18771 0.83057 0.0
H3234 H 0.93781 0.19746 0.83852 0.0
H3235 H 0.99631 0.19476 0.83271 0.0
H3236 H 0.96651 0.15206 0.85293 0.0
H3237 H 0.9499 0.13692 0.87267 0.0
H3238 H 0.99112 0.13926 0.90815 0.0
H3239 H 0.00789 0.1546 0.88869 0.0
C3240 C 0.05909 0.13838 0.82897 0.0
C3241 C 0.07334 0.14771 0.82661 0.0
C3242 C 0.04324 0.14432 0.8334 0.0
C3243 C 0.04129 0.15973 0.83609 0.0
C3244 C 0.05582 0.16895 0.83454 0.0
C3245 C 0.07157 0.16303 0.82969 0.0
C3246 C 0.02418 0.16601 0.84073 0.0
C3247 C 0.01457 0.15866 0.85295 0.0
C3248 C 0.01718 0.17904 0.83312 0.0
C3249 C 0.0256 0.18665 0.81903 0.0
C3250 C 0.02961 0.20193 0.81983 0.0
C3251 C 0.03768 0.20907 0.8066 0.0
C3252 C 0.04172 0.20106 0.79246 0.0
C3253 C 0.03762 0.18591 0.79148 0.0
C3254 C 0.02953 0.17872 0.80467 0.0
C3255 C 0.95425 0.19018 0.87694 0.0
C3256 C 0.94223 0.19474 0.86484 0.0
C3257 C 0.97046 0.18504 0.87243 0.0
C3258 C 0.97485 0.18376 0.85566 0.0
C3259 C 0.96285 0.18852 0.84358 0.0
C3260 C 0.94682 0.19403 0.84812 0.0
C3261 C 0.99176 0.17731 0.85067 0.0
C3262 C 0.00135 0.18465 0.83843 0.0
C3263 C 0.99839 0.16388 0.85771 0.0
C3264 C 0.98839 0.1546 0.86941 0.0
C3265 C 0.97199 0.14942 0.86498 0.0
C3266 C 0.96255 0.1408 0.87611 0.0
C3267 C 0.96943 0.13716 0.89167 0.0
C3268 C 0.98579 0.14211 0.89611 0.0
C3269 C 0.99528 0.15076 0.88503 0.0
H3270 H 0.9621 0.13049 0.90027 0.0
H3271 H 0.04799 0.20661 0.78224 0.0
H3272 H 0.84565 0.06746 0.13593 0.0
H3273 H 0.85126 0.04158 0.14413 0.0
H3274 H 0.80552 0.04134 0.17342 0.0
H3275 H 0.80071 0.06772 0.16619 0.0
H3276 H 0.8275 0.02619 0.18934 0.0
H3277 H 0.80868 0.02472 0.13346 0.0
H3278 H 0.80774 0.03132 0.1038 0.0
H3279 H 0.85896 0.01504 0.09841 0.0
H3280 H 0.8603 0.00855 0.12812 0.0
H3281 H 0.82235 0.94518 0.18878 0.0
H3282 H 0.81623 0.97142 0.18179 0.0
H3283 H 0.86961 0.97889 0.17205 0.0
H3284 H 0.87588 0.95275 0.17946 0.0
H3285 H 0.84247 0.98962 0.14629 0.0
H3286 H 0.85924 0.99174 0.20455 0.0
H3287 H 0.85673 0.98395 0.23376 0.0
H3288 H 0.80409 0.99754 0.23338 0.0
H3289 H 0.80624 0.00521 0.20408 0.0
C3290 C 0.83705 0.06198 0.14446 0.0
C3291 C 0.82299 0.0697 0.15078 0.0
C3292 C 0.84007 0.04707 0.14891 0.0
C3293 C 0.82866 0.03926 0.15919 0.0
C3294 C 0.81457 0.04701 0.16551 0.0
C3295 C 0.81179 0.06207 0.16136 0.0
C3296 C 0.83143 0.02307 0.16325 0.0
C3297 C 0.83055 0.01822 0.17983 0.0
C3298 C 0.83542 0.01247 0.15097 0.0
C3299 C 0.83464 0.01627 0.13306 0.0
C3300 C 0.81979 0.02263 0.12598 0.0
C3301 C 0.81918 0.02635 0.10915 0.0
C3302 C 0.83329 0.02363 0.09923 0.0
C3303 C 0.84804 0.01716 0.10611 0.0
C3304 C 0.84873 0.01345 0.12295 0.0
C3305 C 0.83276 0.95242 0.18512 0.0
C3306 C 0.8496 0.94694 0.18467 0.0
C3307 C 0.82926 0.9674 0.18117 0.0
C3308 C 0.84247 0.97709 0.1764 0.0
C3309 C 0.85924 0.97159 0.17569 0.0
C3310 C 0.86281 0.9567 0.17999 0.0
C3311 C 0.8388 0.99299 0.17225 0.0
C3312 C 0.83942 0.9977 0.15568 0.0
C3313 C 0.83407 0.00333 0.18444 0.0
C3314 C 0.83285 0.99889 0.20209 0.0
C3315 C 0.84709 0.99294 0.21066 0.0
C3316 C 0.84574 0.98857 0.22723 0.0
C3317 C 0.83024 0.99021 0.23541 0.0
C3318 C 0.81608 0.99626 0.22703 0.0
C3319 C 0.81736 1.00063 0.21044 0.0
H3320 H 0.82922 0.98682 0.24824 0.0
H3321 H 0.8328 0.02652 0.08621 0.0
H3322 H 0.07701 0.34047 0.67925 0.0
H3323 H 0.04944 0.3307 0.66909 0.0
H3324 H 0.03074 0.37573 0.66287 0.0
H3325 H 0.05841 0.38542 0.67251 0.0
H3326 H 0.01749 0.33177 0.67921 0.0
H3327 H 0.00342 0.37823 0.63029 0.0
H3328 H 0.01936 0.39547 0.61214 0.0
H3329 H 0.06214 0.36546 0.61277 0.0
H3330 H 0.04637 0.34794 0.63069 0.0
H3331 H 0.93046 0.32534 0.65295 0.0
H3332 H 0.95815 0.33443 0.66337 0.0
H3333 H 0.9805 0.32601 0.6159 0.0
H3334 H 0.9526 0.31782 0.60529 0.0
H3335 H 0.99286 0.3503 0.62602 0.0
H3336 H 0.98642 0.30242 0.65209 0.0
H3337 H 0.97154 0.28318 0.66857 0.0
H3338 H 0.97244 0.31189 0.71069 0.0
H3339 H 0.98712 0.3314 0.6944 0.0
C3340 C 0.06695 0.34823 0.67572 0.0
C3341 C 0.06975 0.36368 0.67686 0.0
C3342 C 0.05118 0.34266 0.66999 0.0
C3343 C 0.03791 0.35243 0.66508 0.0
C3344 C 0.04074 0.3679 0.66635 0.0
C3345 C 0.05651 0.37345 0.67199 0.0
C3346 C 0.02127 0.34651 0.65836 0.0
C3347 C 0.01212 0.33584 0.66758 0.0
C3348 C 0.01428 0.35151 0.643 0.0
C3349 C 0.02376 0.36185 0.63197 0.0
C3350 C 0.0162 0.37528 0.62649 0.0
C3351 C 0.02521 0.3851 0.61625 0.0
C3352 C 0.04177 0.38158 0.61135 0.0
C3353 C 0.04933 0.36819 0.61662 0.0
C3354 C 0.04036 0.35832 0.62682 0.0
C3355 C 0.94135 0.32541 0.64481 0.0
C3356 C 0.93951 0.32046 0.62847 0.0
C3357 C 0.95723 0.33051 0.65078 0.0
C3358 C 0.97172 0.33061 0.64061 0.0
C3359 C 0.9697 0.32597 0.62413 0.0
C3360 C 0.95377 0.3211 0.6181 0.0
C3361 C 0.98889 0.3357 0.64697 0.0
C3362 C 0.99817 0.34622 0.63767 0.0
C3363 C 0.99619 0.33025 0.66203 0.0
C3364 C 0.98775 0.31841 0.67198 0.0
C3365 C 0.98339 0.30465 0.66485 0.0
C3366 C 0.97498 0.29371 0.67416 0.0
C3367 C 0.97102 0.29633 0.69065 0.0
C3368 C 0.97551 0.30988 0.69791 0.0
C3369 C 0.98389 0.32088 0.68865 0.0
H3370 H 0.96451 0.28784 0.69783 0.0
H3371 H 0.04874 0.38921 0.60345 0.0
H3372 H 0.65948 0.42256 0.15677 0.0
H3373 H 0.65067 0.44798 0.16289 0.0
H3374 H 0.70345 0.46197 0.16397 0.0
H3375 H 0.71244 0.43637 0.15869 0.0
H3376 H 0.68748 0.47417 0.18857 0.0
H3377 H 0.67573 0.47005 0.13062 0.0
H3378 H 0.66349 0.45898 0.10533 0.0
H3379 H 0.61284 0.46497 0.12393 0.0
H3380 H 0.62479 0.4759 0.14945 0.0
H3381 H 0.67161 0.55228 0.18373 0.0
H3382 H 0.68032 0.5268 0.17743 0.0
H3383 H 0.62801 0.51208 0.1813 0.0
H3384 H 0.61913 0.53766 0.18731 0.0
H3385 H 0.6437 0.50043 0.15416 0.0
H3386 H 0.65622 0.50494 0.21222 0.0
H3387 H 0.66908 0.51663 0.23688 0.0
H3388 H 0.71922 0.51048 0.21712 0.0
H3389 H 0.70664 0.49894 0.19221 0.0
C3390 C 0.66927 0.43098 0.15845 0.0
C3391 C 0.68671 0.42731 0.15719 0.0
C3392 C 0.66418 0.44561 0.16176 0.0
C3393 C 0.67635 0.45703 0.16366 0.0
C3394 C 0.69377 0.45342 0.16248 0.0
C3395 C 0.69889 0.43876 0.15927 0.0
C3396 C 0.67094 0.47266 0.16713 0.0
C3397 C 0.67809 0.47996 0.18088 0.0
C3398 C 0.65841 0.48021 0.15736 0.0
C3399 C 0.65117 0.47366 0.14202 0.0
C3400 C 0.66199 0.4689 0.12938 0.0
C3401 C 0.6551 0.46267 0.11499 0.0
C3402 C 0.6374 0.46123 0.11304 0.0
C3403 C 0.62655 0.46607 0.12547 0.0
C3404 C 0.63337 0.47229 0.13989 0.0
C3405 C 0.66191 0.54366 0.18311 0.0
C3406 C 0.64465 0.54705 0.18602 0.0
C3407 C 0.66695 0.52905 0.17964 0.0
C3408 C 0.65486 0.51746 0.17904 0.0
C3409 C 0.63758 0.52082 0.18174 0.0
C3410 C 0.63254 0.53543 0.1853 0.0
C3411 C 0.66025 0.50187 0.17555 0.0
C3412 C 0.6531 0.4946 0.16182 0.0
C3413 C 0.67287 0.49439 0.18525 0.0
C3414 C 0.68047 0.50121 0.20028 0.0
C3415 C 0.66998 0.50618 0.21308 0.0
C3416 C 0.67722 0.51276 0.22711 0.0
C3417 C 0.69496 0.51433 0.22855 0.0
C3418 C 0.70549 0.50928 0.21598 0.0
C3419 C 0.69831 0.5027 0.20191 0.0
H3420 H 0.70054 0.51944 0.23942 0.0
H3421 H 0.63209 0.45641 0.1019 0.0
H3422 H 0.43618 0.16427 0.69641 0.0
H3423 H 0.46445 0.17425 0.68923 0.0
H3424 H 0.46746 0.14292 0.64927 0.0
H3425 H 0.43958 0.1326 0.65693 0.0
H3426 H 0.49727 0.14459 0.66368 0.0
H3427 H 0.4568 0.18167 0.64389 0.0
H3428 H 0.43306 0.19949 0.6469 0.0
H3429 H 0.46245 0.2239 0.68275 0.0
H3430 H 0.48629 0.2061 0.68012 0.0
H3431 H 0.56399 0.17757 0.61764 0.0
H3432 H 0.53582 0.16864 0.62647 0.0
H3433 H 0.53678 0.20003 0.66651 0.0
H3434 H 0.56486 0.20912 0.65741 0.0
H3435 H 0.50536 0.19881 0.65338 0.0
H3436 H 0.54606 0.16278 0.67271 0.0
H3437 H 0.57001 0.14512 0.67031 0.0
H3438 H 0.54041 0.11875 0.63638 0.0
H3439 H 0.51638 0.13643 0.63833 0.0
C3440 C 0.44294 0.15956 0.6861 0.0
C3441 C 0.43552 0.14794 0.67696 0.0
C3442 C 0.45906 0.16531 0.68192 0.0
C3443 C 0.46807 0.15963 0.6684 0.0
C3444 C 0.46083 0.14765 0.65963 0.0
C3445 C 0.44481 0.14182 0.66392 0.0
C3446 C 0.48497 0.16609 0.66331 0.0
C3447 C 0.49892 0.15643 0.66123 0.0
C3448 C 0.48747 0.18162 0.66055 0.0
C3449 C 0.47327 0.19248 0.66191 0.0
C3450 C 0.45817 0.1908 0.65247 0.0
C3451 C 0.44469 0.20089 0.65411 0.0
C3452 C 0.44623 0.2128 0.66505 0.0
C3453 C 0.46127 0.21466 0.67431 0.0
C3454 C 0.47477 0.20458 0.67274 0.0
C3455 C 0.55808 0.1826 0.62825 0.0
C3456 C 0.56658 0.19395 0.63692 0.0
C3457 C 0.54203 0.17745 0.63337 0.0
C3458 C 0.53417 0.18345 0.64738 0.0
C3459 C 0.54249 0.19515 0.65572 0.0
C3460 C 0.55855 0.20033 0.65056 0.0
C3461 C 0.51753 0.17727 0.65349 0.0
C3462 C 0.50368 0.18698 0.65582 0.0
C3463 C 0.51513 0.16179 0.65657 0.0
C3464 C 0.52946 0.15101 0.65555 0.0
C3465 C 0.54469 0.15327 0.66465 0.0
C3466 C 0.55828 0.14325 0.66337 0.0
C3467 C 0.55675 0.13083 0.65317 0.0
C3468 C 0.54159 0.12839 0.64426 0.0
C3469 C 0.52798 0.1384 0.64545 0.0
H3470 H 0.56729 0.12309 0.6522 0.0
H3471 H 0.43577 0.22059 0.66632 0.0
H3472 H 0.36444 0.8503 0.44102 0.0
H3473 H 0.35645 0.85841 0.4686 0.0
H3474 H 0.35887 0.81292 0.48631 0.0
H3475 H 0.36643 0.80465 0.45861 0.0
H3476 H 0.33135 0.82602 0.49871 0.0
H3477 H 0.39058 0.83944 0.49565 0.0
H3478 H 0.41605 0.8514 0.48367 0.0
H3479 H 0.39241 0.89443 0.48769 0.0
H3480 H 0.36669 0.88269 0.49949 0.0
H3481 H 0.32697 0.84294 0.58473 0.0
H3482 H 0.33589 0.83435 0.55746 0.0
H3483 H 0.3367 0.87993 0.53972 0.0
H3484 H 0.32837 0.88849 0.5672 0.0
H3485 H 0.36273 0.86653 0.52735 0.0
H3486 H 0.30344 0.8534 0.52999 0.0
H3487 H 0.27779 0.84168 0.54191 0.0
H3488 H 0.30109 0.79848 0.53841 0.0
H3489 H 0.32699 0.80997 0.52667 0.0
C3490 C 0.36321 0.84194 0.4507 0.0
C3491 C 0.3662 0.82674 0.44733 0.0
C3492 C 0.35876 0.84666 0.46664 0.0
C3493 C 0.35717 0.83638 0.47986 0.0
C3494 C 0.36002 0.82118 0.47652 0.0
C3495 C 0.36454 0.81646 0.46058 0.0
C3496 C 0.3524 0.84142 0.49702 0.0
C3497 C 0.33841 0.83474 0.50502 0.0
C3498 C 0.36119 0.85308 0.50536 0.0
C3499 C 0.37664 0.86017 0.4983 0.0
C3500 C 0.39076 0.85144 0.49386 0.0
C3501 C 0.40525 0.85818 0.48713 0.0
C3502 C 0.40583 0.87366 0.48488 0.0
C3503 C 0.39193 0.88243 0.48941 0.0
C3504 C 0.3774 0.87574 0.49614 0.0
C3505 C 0.32906 0.85112 0.575 0.0
C3506 C 0.32672 0.8664 0.57814 0.0
C3507 C 0.33406 0.84619 0.55929 0.0
C3508 C 0.33672 0.85639 0.54613 0.0
C3509 C 0.33471 0.87171 0.54943 0.0
C3510 C 0.32982 0.87663 0.56517 0.0
C3511 C 0.34163 0.85116 0.52905 0.0
C3512 C 0.35566 0.85781 0.52106 0.0
C3513 C 0.33282 0.83951 0.52069 0.0
C3514 C 0.31722 0.83256 0.5276 0.0
C3515 C 0.30314 0.84141 0.53186 0.0
C3516 C 0.28855 0.83481 0.53857 0.0
C3517 C 0.28783 0.81935 0.54095 0.0
C3518 C 0.30168 0.81045 0.53658 0.0
C3519 C 0.31631 0.817 0.52988 0.0
H3520 H 0.27653 0.81426 0.54616 0.0
H3521 H 0.41706 0.87886 0.47966 0.0
H3522 H 0.15296 0.811 0.06864 0.0
H3523 H 0.16132 0.81812 0.0404 0.0
H3524 H 0.12941 0.85723 0.04279 0.0
H3525 H 0.12099 0.84999 0.07095 0.0
H3526 H 0.12587 0.84495 0.01296 0.0
H3527 H 0.17406 0.85874 0.04703 0.0
H3528 H 0.19712 0.85435 0.0676 0.0
H3529 H 0.21903 0.82113 0.03646 0.0
H3530 H 0.19594 0.82518 0.0158 0.0
H3531 H 0.15823 0.88389 0.94249 0.0
H3532 H 0.14984 0.87616 0.97045 0.0
H3533 H 0.18519 0.83931 0.96877 0.0
H3534 H 0.19389 0.84738 0.94097 0.0
H3535 H 0.18695 0.84993 0.99822 0.0
H3536 H 0.13948 0.83581 0.96409 0.0
H3537 H 0.11636 0.83942 0.94341 0.0
H3538 H 0.09292 0.87201 0.97431 0.0
H3539 H 0.11606 0.86877 0.99507 0.0
C3540 C 0.14776 0.82112 0.06311 0.0
C3541 C 0.13646 0.83001 0.07212 0.0
C3542 C 0.15259 0.82525 0.04695 0.0
C3543 C 0.14626 0.83841 0.03929 0.0
C3544 C 0.13462 0.84708 0.04823 0.0
C3545 C 0.12984 0.84297 0.0644 0.0
C3546 C 0.15175 0.84317 0.02211 0.0
C3547 C 0.13924 0.84621 0.00985 0.0
C3548 C 0.16919 0.8445 0.01764 0.0
C3549 C 0.18318 0.84217 0.02995 0.0
C3550 C 0.18373 0.85043 0.04462 0.0
C3551 C 0.19681 0.84801 0.05629 0.0
C3552 C 0.20951 0.83744 0.05335 0.0
C3553 C 0.20917 0.8293 0.03872 0.0
C3554 C 0.1961 0.83167 0.02703 0.0
C3555 C 0.16415 0.87411 0.94809 0.0
C3556 C 0.17661 0.86617 0.93941 0.0
C3557 C 0.15928 0.86961 0.96411 0.0
C3558 C 0.16655 0.85689 0.97191 0.0
C3559 C 0.17923 0.8491 0.96325 0.0
C3560 C 0.18418 0.85368 0.94727 0.0
C3561 C 0.16106 0.85178 0.98901 0.0
C3562 C 0.17357 0.84866 1.00128 0.0
C3563 C 0.14361 0.85026 0.99345 0.0
C3564 C 0.1296 0.85215 0.98106 0.0
C3565 C 0.12946 0.84382 0.96643 0.0
C3566 C 0.11634 0.84579 0.95469 0.0
C3567 C 0.1032 0.85596 0.95753 0.0
C3568 C 0.10312 0.86415 0.97212 0.0
C3569 C 0.11623 0.86225 0.98388 0.0
H3570 H 0.09306 0.85747 0.94843 0.0
H3571 H 0.21962 0.83558 0.0624 0.0
H3572 H 0.19304 0.66393 0.56374 0.0
H3573 H 0.18598 0.67328 0.5358 0.0
H3574 H 0.14527 0.64095 0.53204 0.0
H3575 H 0.15261 0.63144 0.55987 0.0
H3576 H 0.16129 0.64231 0.50354 0.0
H3577 H 0.1382 0.67936 0.53931 0.0
H3578 H 0.13906 0.69781 0.56169 0.0
H3579 H 0.17695 0.72314 0.53558 0.0
H3580 H 0.1765 0.70472 0.51314 0.0
H3581 H 0.11884 0.67358 0.4327 0.0
H3582 H 0.12625 0.66463 0.46068 0.0
H3583 H 0.16604 0.69788 0.46394 0.0
H3584 H 0.15829 0.707 0.436 0.0
H3585 H 0.15093 0.69615 0.49264 0.0
H3586 H 0.17397 0.65945 0.45678 0.0
H3587 H 0.17332 0.6411 0.4343 0.0
H3588 H 0.13608 0.6151 0.46049 0.0
H3589 H 0.13629 0.63344 0.48301 0.0
C3590 C 0.18256 0.65886 0.55694 0.0
C3591 C 0.17325 0.64706 0.56415 0.0
C3592 C 0.17844 0.66426 0.54094 0.0
C3593 C 0.16483 0.65807 0.53165 0.0
C3594 C 0.15576 0.64606 0.53879 0.0
C3595 C 0.15989 0.64066 0.55478 0.0
C3596 C 0.16011 0.66402 0.51458 0.0
C3597 C 0.15881 0.65407 0.50127 0.0
C3598 C 0.15724 0.67943 0.51122 0.0
C3599 C 0.15743 0.69058 0.52462 0.0
C3600 C 0.1468 0.68881 0.53839 0.0
C3601 C 0.1472 0.69927 0.55108 0.0
C3602 C 0.15808 0.71162 0.55007 0.0
C3603 C 0.16855 0.71356 0.53635 0.0
C3604 C 0.16821 0.70312 0.52364 0.0
C3605 C 0.1292 0.67893 0.43939 0.0
C3606 C 0.13814 0.69086 0.43202 0.0
C3607 C 0.13352 0.67377 0.45542 0.0
C3608 C 0.14701 0.6803 0.46457 0.0
C3609 C 0.15566 0.6925 0.4573 0.0
C3610 C 0.15128 0.6977 0.44127 0.0
C3611 C 0.15204 0.67443 0.4816 0.0
C3612 C 0.15342 0.68439 0.4949 0.0
C3613 C 0.15504 0.65903 0.48494 0.0
C3614 C 0.15503 0.64789 0.47151 0.0
C3615 C 0.16556 0.64987 0.4577 0.0
C3616 C 0.16527 0.63947 0.44495 0.0
C3617 C 0.15464 0.62696 0.44595 0.0
C3618 C 0.1443 0.62481 0.45972 0.0
C3619 C 0.14449 0.6352 0.47249 0.0
H3620 H 0.15444 0.61892 0.43607 0.0
H3621 H 0.15838 0.71971 0.55991 0.0
H3622 H 0.3435 0.6983 0.05591 0.0
H3623 H 0.33447 0.69059 0.02805 0.0
H3624 H 0.37284 0.65605 0.02918 0.0
H3625 H 0.38204 0.66401 0.05686 0.0
H3626 H 0.37246 0.66864 0.99964 0.0
H3627 H 0.32864 0.64894 0.03472 0.0
H3628 H 0.30624 0.65016 0.05581 0.0
H3629 H 0.27776 0.68115 0.02537 0.0
H3630 H 0.30012 0.68027 0.00418 0.0
H3631 H 0.34201 0.62671 0.93089 0.0
H3632 H 0.35035 0.635 0.95867 0.0
H3633 H 0.31133 0.66895 0.95622 0.0
H3634 H 0.30287 0.66045 0.92845 0.0
H3635 H 0.31183 0.6572 0.98626 0.0
H3636 H 0.35524 0.67668 0.95099 0.0
H3637 H 0.37758 0.6756 0.92983 0.0
H3638 H 0.40687 0.64544 0.96057 0.0
H3639 H 0.38456 0.64614 0.98182 0.0
C3640 C 0.34992 0.68902 0.05022 0.0
C3641 C 0.36325 0.68158 0.05876 0.0
C3642 C 0.34472 0.68454 0.03427 0.0
C3643 C 0.3527 0.67248 0.02638 0.0
C3644 C 0.36631 0.66529 0.03484 0.0
C3645 C 0.3715 0.66978 0.05077 0.0
C3646 C 0.34702 0.66741 0.00937 0.0
C3647 C 0.35922 0.66596 0.99685 0.0
C3648 C 0.32967 0.66421 0.0053 0.0
C3649 C 0.31613 0.66464 0.01794 0.0
C3650 C 0.31765 0.65609 0.03257 0.0
C3651 C 0.30496 0.65671 0.04454 0.0
C3652 C 0.2906 0.66576 0.04195 0.0
C3653 C 0.28889 0.67417 0.02736 0.0
C3654 C 0.30157 0.6736 0.01536 0.0
C3655 C 0.33531 0.63602 0.93625 0.0
C3656 C 0.322 0.64312 0.9273 0.0
C3657 C 0.3401 0.6408 0.95217 0.0
C3658 C 0.33177 0.65288 0.95966 0.0
C3659 C 0.31812 0.65969 0.95086 0.0
C3660 C 0.31331 0.65488 0.93492 0.0
C3661 C 0.3373 0.65836 0.97656 0.0
C3662 C 0.32507 0.65989 0.98905 0.0
C3663 C 0.35462 0.66168 0.9806 0.0
C3664 C 0.36815 0.66135 0.96793 0.0
C3665 C 0.36639 0.66974 0.95319 0.0
C3666 C 0.37905 0.6692 0.94118 0.0
C3667 C 0.39362 0.66043 0.94384 0.0
C3668 C 0.39557 0.65221 0.95853 0.0
C3669 C 0.38292 0.65268 0.97056 0.0
H3670 H 0.40341 0.66003 0.93453 0.0
H3671 H 0.28079 0.66624 0.05123 0.0
loop_
_geom_bond_atom_site_label_1
_geom_bond_atom_site_label_2
_geom_bond_distance
_geom_bond_site_symmetry_2
_ccdc_geom_bond_type
C0 C1 1.443 . S
C0 N4 1.376 . S
C0 C38 1.389 . S
C1 C0 1.443 . S
C1 C2 1.340 . S
C1 H41 0.951 . S
C2 C1 1.340 . S
C2 C3 1.439 . S
C2 H42 0.950 . S
C3 C2 1.439 . S
C3 N4 1.374 . S
C3 C37 1.395 . S
N4 C0 1.376 . S
N4 C3 1.374 . S
N4 Co5 2.008 . S
Co5 N4 2.008 . S
Co5 N6 1.995 . S
Co5 N11 2.008 . S
Co5 N16 1.995 . S
Co5 N21 2.282 . S
Co5 N27 2.282 . S
N6 Co5 1.995 . S
N6 C7 1.376 . S
N6 C10 1.383 . S
C7 N6 1.376 . S
C7 C8 1.446 . S
C7 C37 1.391 . S
C8 C7 1.446 . S
C8 C9 1.339 . S
C8 H43 0.949 . S
C9 C8 1.339 . S
C9 C10 1.439 . S
C9 H44 0.950 . S
C10 N6 1.383 . S
C10 C9 1.439 . S
C10 C39 1.392 . S
N11 Co5 2.008 . S
N11 C12 1.376 . S
N11 C15 1.374 . S
C12 N11 1.376 . S
C12 C13 1.443 . S
C12 C39 1.389 . S
C13 C12 1.443 . S
C13 C14 1.340 . S
C13 H45 0.951 . S
C14 C13 1.340 . S
C14 C15 1.439 . S
C14 H46 0.950 . S
C15 N11 1.374 . S
C15 C14 1.439 . S
C15 C40 1.395 . S
N16 Co5 1.995 . S
N16 C17 1.376 . S
N16 C20 1.383 . S
C17 N16 1.376 . S
C17 C18 1.446 . S
C17 C40 1.391 . S
C18 C17 1.446 . S
C18 C19 1.339 . S
C18 H47 0.949 . S
C19 C18 1.339 . S
C19 C20 1.439 . S
C19 H48 0.950 . S
C20 N16 1.383 . S
C20 C19 1.439 . S
C20 C38 1.392 . S
N21 Co5 2.282 . S
N21 C24 1.332 . S
N21 C26 1.332 . S
C22 C23 1.386 . S
C22 C25 1.388 . S
C23 C22 1.386 . S
C23 C24 1.382 . S
C23 H49 0.950 . S
C24 N21 1.332 . S
C24 C23 1.382 . S
C24 H35 0.952 . S
C25 C22 1.388 . S
C25 C26 1.382 . S
C25 H50 0.950 . S
C26 N21 1.332 . S
C26 C25 1.382 . S
C26 H36 0.948 . S
N27 Co5 2.282 . S
N27 C31 1.332 . S
N27 C32 1.332 . S
C28 C29 1.388 . S
C28 C32 1.382 . S
C28 H51 0.950 . S
C29 C28 1.388 . S
C29 C30 1.386 . S
C30 C29 1.386 . S
C30 C31 1.382 . S
C30 H52 0.950 . S
C31 N27 1.332 . S
C31 C30 1.382 . S
C31 H33 0.952 . S
C32 N27 1.332 . S
C32 C28 1.382 . S
C32 H34 0.948 . S
H33 C31 0.952 . S
H34 C32 0.948 . S
H35 C24 0.952 . S
H36 C26 0.948 . S
C37 C3 1.395 . S
C37 C7 1.391 . S
C38 C0 1.389 . S
C38 C20 1.392 . S
C39 C10 1.392 . S
C39 C12 1.389 . S
C40 C15 1.395 . S
C40 C17 1.391 . S
H41 C1 0.951 . S
H42 C2 0.950 . S
H43 C8 0.949 . S
H44 C9 0.950 . S
H45 C13 0.951 . S
H46 C14 0.950 . S
H47 C18 0.949 . S
H48 C19 0.950 . S
H49 C23 0.950 . S
H50 C25 0.950 . S
H51 C28 0.950 . S
H52 C30 0.950 . S
C53 C54 1.443 . S
C53 N57 1.376 . S
C53 C91 1.389 . S
C54 C53 1.443 . S
C54 C55 1.340 . S
C54 H94 0.951 . S
C55 C54 1.340 . S
C55 C56 1.439 . S
C55 H95 0.950 . S
C56 C55 1.439 . S
C56 N57 1.374 . S
C56 C90 1.395 . S
N57 C53 1.376 . S
N57 C56 1.374 . S
N57 Co58 2.008 . S
Co58 N57 2.008 . S
Co58 N59 1.995 . S
Co58 N64 2.008 . S
Co58 N69 1.995 . S
Co58 N74 2.282 . S
Co58 N80 2.282 . S
N59 Co58 1.995 . S
N59 C60 1.376 . S
N59 C63 1.383 . S
C60 N59 1.376 . S
C60 C61 1.446 . S
C60 C90 1.391 . S
C61 C60 1.446 . S
C61 C62 1.339 . S
C61 H96 0.949 . S
C62 C61 1.339 . S
C62 C63 1.439 . S
C62 H97 0.950 . S
C63 N59 1.383 . S
C63 C62 1.439 . S
C63 C92 1.392 . S
N64 Co58 2.008 . S
N64 C65 1.376 . S
N64 C68 1.374 . S
C65 N64 1.376 . S
C65 C66 1.443 . S
C65 C92 1.389 . S
C66 C65 1.443 . S
C66 C67 1.340 . S
C66 H98 0.951 . S
C67 C66 1.340 . S
C67 C68 1.439 . S
C67 H99 0.950 . S
C68 N64 1.374 . S
C68 C67 1.439 . S
C68 C93 1.395 . S
N69 Co58 1.995 . S
N69 C70 1.376 . S
N69 C73 1.383 . S
C70 N69 1.376 . S
C70 C71 1.446 . S
C70 C93 1.391 . S
C71 C70 1.446 . S
C71 C72 1.339 . S
C71 H100 0.949 . S
C72 C71 1.339 . S
C72 C73 1.439 . S
C72 H101 0.950 . S
C73 N69 1.383 . S
C73 C72 1.439 . S
C73 C91 1.392 . S
N74 Co58 2.282 . S
N74 C77 1.332 . S
N74 C79 1.332 . S
C75 C76 1.386 . S
C75 C78 1.388 . S
C76 C75 1.386 . S
C76 C77 1.382 . S
C76 H102 0.950 . S
C77 N74 1.332 . S
C77 C76 1.382 . S
C77 H88 0.952 . S
C78 C75 1.388 . S
C78 C79 1.382 . S
C78 H103 0.950 . S
C79 N74 1.332 . S
C79 C78 1.382 . S
C79 H89 0.948 . S
N80 Co58 2.282 . S
N80 C84 1.332 . S
N80 C85 1.332 . S
C81 C82 1.388 . S
C81 C85 1.382 . S
C81 H104 0.950 . S
C82 C81 1.388 . S
C82 C83 1.386 . S
C83 C82 1.386 . S
C83 C84 1.382 . S
C83 H105 0.950 . S
C84 N80 1.332 . S
C84 C83 1.382 . S
C84 H86 0.952 . S
C85 N80 1.332 . S
C85 C81 1.382 . S
C85 H87 0.948 . S
H86 C84 0.952 . S
H87 C85 0.948 . S
H88 C77 0.952 . S
H89 C79 0.948 . S
C90 C56 1.395 . S
C90 C60 1.391 . S
C91 C53 1.389 . S
C91 C73 1.392 . S
C92 C63 1.392 . S
C92 C65 1.389 . S
C93 C68 1.395 . S
C93 C70 1.391 . S
H94 C54 0.951 . S
H95 C55 0.950 . S
H96 C61 0.949 . S
H97 C62 0.950 . S
H98 C66 0.951 . S
H99 C67 0.950 . S
H100 C71 0.949 . S
H101 C72 0.950 . S
H102 C76 0.950 . S
H103 C78 0.950 . S
H104 C81 0.950 . S
H105 C83 0.950 . S
C106 C107 1.443 . S
C106 N110 1.376 . S
C106 C144 1.389 . S
C107 C106 1.443 . S
C107 C108 1.340 . S
C107 H147 0.951 . S
C108 C107 1.340 . S
C108 C109 1.439 . S
C108 H148 0.950 . S
C109 C108 1.439 . S
C109 N110 1.374 . S
C109 C143 1.395 . S
N110 C106 1.376 . S
N110 C109 1.374 . S
N110 Co111 2.008 . S
Co111 N110 2.008 . S
Co111 N112 1.995 . S
Co111 N117 2.008 . S
Co111 N122 1.995 . S
Co111 N127 2.282 . S
Co111 N133 2.282 . S
N112 Co111 1.995 . S
N112 C113 1.376 . S
N112 C116 1.383 . S
C113 N112 1.376 . S
C113 C114 1.446 . S
C113 C143 1.391 . S
C114 C113 1.446 . S
C114 C115 1.339 . S
C114 H149 0.949 . S
C115 C114 1.339 . S
C115 C116 1.439 . S
C115 H150 0.950 . S
C116 N112 1.383 . S
C116 C115 1.439 . S
C116 C145 1.392 . S
N117 Co111 2.008 . S
N117 C118 1.376 . S
N117 C121 1.374 . S
C118 N117 1.376 . S
C118 C119 1.443 . S
C118 C145 1.389 . S
C119 C118 1.443 . S
C119 C120 1.340 . S
C119 H151 0.951 . S
C120 C119 1.340 . S
C120 C121 1.439 . S
C120 H152 0.950 . S
C121 N117 1.374 . S
C121 C120 1.439 . S
C121 C146 1.395 . S
N122 Co111 1.995 . S
N122 C123 1.376 . S
N122 C126 1.383 . S
C123 N122 1.376 . S
C123 C124 1.446 . S
C123 C146 1.391 . S
C124 C123 1.446 . S
C124 C125 1.339 . S
C124 H153 0.949 . S
C125 C124 1.339 . S
C125 C126 1.439 . S
C125 H154 0.950 . S
C126 N122 1.383 . S
C126 C125 1.439 . S
C126 C144 1.392 . S
N127 Co111 2.282 . S
N127 C130 1.332 . S
N127 C132 1.332 . S
C128 C129 1.386 . S
C128 C131 1.388 . S
C129 C128 1.386 . S
C129 C130 1.382 . S
C129 H155 0.950 . S
C130 N127 1.332 . S
C130 C129 1.382 . S
C130 H141 0.952 . S
C131 C128 1.388 . S
C131 C132 1.382 . S
C131 H156 0.950 . S
C132 N127 1.332 . S
C132 C131 1.382 . S
C132 H142 0.948 . S
N133 Co111 2.282 . S
N133 C137 1.332 . S
N133 C138 1.332 . S
C134 C135 1.388 . S
C134 C138 1.382 . S
C134 H157 0.950 . S
C135 C134 1.388 . S
C135 C136 1.386 . S
C136 C135 1.386 . S
C136 C137 1.382 . S
C136 H158 0.950 . S
C137 N133 1.332 . S
C137 C136 1.382 . S
C137 H139 0.952 . S
C138 N133 1.332 . S
C138 C134 1.382 . S
C138 H140 0.948 . S
H139 C137 0.952 . S
H140 C138 0.948 . S
H141 C130 0.952 . S
H142 C132 0.948 . S
C143 C109 1.395 . S
C143 C113 1.391 . S
C144 C106 1.389 . S
C144 C126 1.392 . S
C145 C116 1.392 . S
C145 C118 1.389 . S
C146 C121 1.395 . S
C146 C123 1.391 . S
H147 C107 0.951 . S
H148 C108 0.950 . S
H149 C114 0.949 . S
H150 C115 0.950 . S
H151 C119 0.951 . S
H152 C120 0.950 . S
H153 C124 0.949 . S
H154 C125 0.950 . S
H155 C129 0.950 . S
H156 C131 0.950 . S
H157 C134 0.950 . S
H158 C136 0.950 . S
C159 C160 1.443 . S
C159 N163 1.376 . S
C159 C197 1.389 . S
C160 C159 1.443 . S
C160 C161 1.340 . S
C160 H200 0.951 . S
C161 C160 1.340 . S
C161 C162 1.439 . S
C161 H201 0.950 . S
C162 C161 1.439 . S
C162 N163 1.374 . S
C162 C196 1.395 . S
N163 C159 1.376 . S
N163 C162 1.374 . S
N163 Co164 2.008 . S
Co164 N163 2.008 . S
Co164 N165 1.995 . S
Co164 N170 2.008 . S
Co164 N175 1.995 . S
Co164 N180 2.282 . S
Co164 N186 2.282 . S
N165 Co164 1.995 . S
N165 C166 1.376 . S
N165 C169 1.383 . S
C166 N165 1.376 . S
C166 C167 1.446 . S
C166 C196 1.391 . S
C167 C166 1.446 . S
C167 C168 1.339 . S
C167 H202 0.949 . S
C168 C167 1.339 . S
C168 C169 1.439 . S
C168 H203 0.950 . S
C169 N165 1.383 . S
C169 C168 1.439 . S
C169 C198 1.392 . S
N170 Co164 2.008 . S
N170 C171 1.376 . S
N170 C174 1.374 . S
C171 N170 1.376 . S
C171 C172 1.443 . S
C171 C198 1.389 . S
C172 C171 1.443 . S
C172 C173 1.340 . S
C172 H204 0.951 . S
C173 C172 1.340 . S
C173 C174 1.439 . S
C173 H205 0.950 . S
C174 N170 1.374 . S
C174 C173 1.439 . S
C174 C199 1.395 . S
N175 Co164 1.995 . S
N175 C176 1.376 . S
N175 C179 1.383 . S
C176 N175 1.376 . S
C176 C177 1.446 . S
C176 C199 1.391 . S
C177 C176 1.446 . S
C177 C178 1.339 . S
C177 H206 0.949 . S
C178 C177 1.339 . S
C178 C179 1.439 . S
C178 H207 0.950 . S
C179 N175 1.383 . S
C179 C178 1.439 . S
C179 C197 1.392 . S
N180 Co164 2.282 . S
N180 C183 1.332 . S
N180 C185 1.332 . S
C181 C182 1.386 . S
C181 C184 1.388 . S
C182 C181 1.386 . S
C182 C183 1.382 . S
C182 H208 0.950 . S
C183 N180 1.332 . S
C183 C182 1.382 . S
C183 H194 0.952 . S
C184 C181 1.388 . S
C184 C185 1.382 . S
C184 H209 0.950 . S
C185 N180 1.332 . S
C185 C184 1.382 . S
C185 H195 0.948 . S
N186 Co164 2.282 . S
N186 C190 1.332 . S
N186 C191 1.332 . S
C187 C188 1.388 . S
C187 C191 1.382 . S
C187 H210 0.950 . S
C188 C187 1.388 . S
C188 C189 1.386 . S
C189 C188 1.386 . S
C189 C190 1.382 . S
C189 H211 0.950 . S
C190 N186 1.332 . S
C190 C189 1.382 . S
C190 H192 0.952 . S
C191 N186 1.332 . S
C191 C187 1.382 . S
C191 H193 0.948 . S
H192 C190 0.952 . S
H193 C191 0.948 . S
H194 C183 0.952 . S
H195 C185 0.948 . S
C196 C162 1.395 . S
C196 C166 1.391 . S
C197 C159 1.389 . S
C197 C179 1.392 . S
C198 C169 1.392 . S
C198 C171 1.389 . S
C199 C174 1.395 . S
C199 C176 1.391 . S
H200 C160 0.951 . S
H201 C161 0.950 . S
H202 C167 0.949 . S
H203 C168 0.950 . S
H204 C172 0.951 . S
H205 C173 0.950 . S
H206 C177 0.949 . S
H207 C178 0.950 . S
H208 C182 0.950 . S
H209 C184 0.950 . S
H210 C187 0.950 . S
H211 C189 0.950 . S
C212 C213 1.443 . S
C212 N216 1.376 . S
C212 C250 1.389 . S
C213 C212 1.443 . S
C213 C214 1.340 . S
C213 H253 0.951 . S
C214 C213 1.340 . S
C214 C215 1.439 . S
C214 H254 0.950 . S
C215 C214 1.439 . S
C215 N216 1.374 . S
C215 C249 1.395 . S
N216 C212 1.376 . S
N216 C215 1.374 . S
N216 Co217 2.008 . S
Co217 N216 2.008 . S
Co217 N218 1.995 . S
Co217 N223 2.008 . S
Co217 N228 1.995 . S
Co217 N233 2.282 . S
Co217 N239 2.282 . S
N218 Co217 1.995 . S
N218 C219 1.376 . S
N218 C222 1.383 . S
C219 N218 1.376 . S
C219 C220 1.446 . S
C219 C249 1.391 . S
C220 C219 1.446 . S
C220 C221 1.339 . S
C220 H255 0.949 . S
C221 C220 1.339 . S
C221 C222 1.439 . S
C221 H256 0.950 . S
C222 N218 1.383 . S
C222 C221 1.439 . S
C222 C251 1.392 . S
N223 Co217 2.008 . S
N223 C224 1.376 . S
N223 C227 1.374 . S
C224 N223 1.376 . S
C224 C225 1.443 . S
C224 C251 1.389 . S
C225 C224 1.443 . S
C225 C226 1.340 . S
C225 H257 0.951 . S
C226 C225 1.340 . S
C226 C227 1.439 . S
C226 H258 0.950 . S
C227 N223 1.374 . S
C227 C226 1.439 . S
C227 C252 1.395 . S
N228 Co217 1.995 . S
N228 C229 1.376 . S
N228 C232 1.383 . S
C229 N228 1.376 . S
C229 C230 1.446 . S
C229 C252 1.391 . S
C230 C229 1.446 . S
C230 C231 1.339 . S
C230 H259 0.949 . S
C231 C230 1.339 . S
C231 C232 1.439 . S
C231 H260 0.950 . S
C232 N228 1.383 . S
C232 C231 1.439 . S
C232 C250 1.392 . S
N233 Co217 2.282 . S
N233 C236 1.332 . S
N233 C238 1.332 . S
C234 C235 1.386 . S
C234 C237 1.388 . S
C235 C234 1.386 . S
C235 C236 1.382 . S
C235 H261 0.950 . S
C236 N233 1.332 . S
C236 C235 1.382 . S
C236 H247 0.952 . S
C237 C234 1.388 . S
C237 C238 1.382 . S
C237 H262 0.950 . S
C238 N233 1.332 . S
C238 C237 1.382 . S
C238 H248 0.948 . S
N239 Co217 2.282 . S
N239 C243 1.332 . S
N239 C244 1.332 . S
C240 C241 1.388 . S
C240 C244 1.382 . S
C240 H263 0.950 . S
C241 C240 1.388 . S
C241 C242 1.386 . S
C242 C241 1.386 . S
C242 C243 1.382 . S
C242 H264 0.950 . S
C243 N239 1.332 . S
C243 C242 1.382 . S
C243 H245 0.952 . S
C244 N239 1.332 . S
C244 C240 1.382 . S
C244 H246 0.948 . S
H245 C243 0.952 . S
H246 C244 0.948 . S
H247 C236 0.952 . S
H248 C238 0.948 . S
C249 C215 1.395 . S
C249 C219 1.391 . S
C250 C212 1.389 . S
C250 C232 1.392 . S
C251 C222 1.392 . S
C251 C224 1.389 . S
C252 C227 1.395 . S
C252 C229 1.391 . S
H253 C213 0.951 . S
H254 C214 0.950 . S
H255 C220 0.949 . S
H256 C221 0.950 . S
H257 C225 0.951 . S
H258 C226 0.950 . S
H259 C230 0.949 . S
H260 C231 0.950 . S
H261 C235 0.950 . S
H262 C237 0.950 . S
H263 C240 0.950 . S
H264 C242 0.950 . S
C265 C266 1.443 . S
C265 N269 1.376 . S
C265 C303 1.389 . S
C266 C265 1.443 . S
C266 C267 1.340 . S
C266 H306 0.951 . S
C267 C266 1.340 . S
C267 C268 1.439 . S
C267 H307 0.950 . S
C268 C267 1.439 . S
C268 N269 1.374 . S
C268 C302 1.395 . S
N269 C265 1.376 . S
N269 C268 1.374 . S
N269 Co270 2.008 . S
Co270 N269 2.008 . S
Co270 N271 1.995 . S
Co270 N276 2.008 . S
Co270 N281 1.995 . S
Co270 N286 2.282 . S
Co270 N292 2.282 . S
N271 Co270 1.995 . S
N271 C272 1.376 . S
N271 C275 1.383 . S
C272 N271 1.376 . S
C272 C273 1.446 . S
C272 C302 1.391 . S
C273 C272 1.446 . S
C273 C274 1.339 . S
C273 H308 0.949 . S
C274 C273 1.339 . S
C274 C275 1.439 . S
C274 H309 0.950 . S
C275 N271 1.383 . S
C275 C274 1.439 . S
C275 C304 1.392 . S
N276 Co270 2.008 . S
N276 C277 1.376 . S
N276 C280 1.374 . S
C277 N276 1.376 . S
C277 C278 1.443 . S
C277 C304 1.389 . S
C278 C277 1.443 . S
C278 C279 1.340 . S
C278 H310 0.951 . S
C279 C278 1.340 . S
C279 C280 1.439 . S
C279 H311 0.950 . S
C280 N276 1.374 . S
C280 C279 1.439 . S
C280 C305 1.395 . S
N281 Co270 1.995 . S
N281 C282 1.376 . S
N281 C285 1.383 . S
C282 N281 1.376 . S
C282 C283 1.446 . S
C282 C305 1.391 . S
C283 C282 1.446 . S
C283 C284 1.339 . S
C283 H312 0.949 . S
C284 C283 1.339 . S
C284 C285 1.439 . S
C284 H313 0.950 . S
C285 N281 1.383 . S
C285 C284 1.439 . S
C285 C303 1.392 . S
N286 Co270 2.282 . S
N286 C289 1.332 . S
N286 C291 1.332 . S
C287 C288 1.386 . S
C287 C290 1.388 . S
C288 C287 1.386 . S
C288 C289 1.382 . S
C288 H314 0.950 . S
C289 N286 1.332 . S
C289 C288 1.382 . S
C289 H300 0.952 . S
C290 C287 1.388 . S
C290 C291 1.382 . S
C290 H315 0.950 . S
C291 N286 1.332 . S
C291 C290 1.382 . S
C291 H301 0.948 . S
N292 Co270 2.282 . S
N292 C296 1.332 . S
N292 C297 1.332 . S
C293 C294 1.388 . S
C293 C297 1.382 . S
C293 H316 0.950 . S
C294 C293 1.388 . S
C294 C295 1.386 . S
C295 C294 1.386 . S
C295 C296 1.382 . S
C295 H317 0.950 . S
C296 N292 1.332 . S
C296 C295 1.382 . S
C296 H298 0.952 . S
C297 N292 1.332 . S
C297 C293 1.382 . S
C297 H299 0.948 . S
H298 C296 0.952 . S
H299 C297 0.948 . S
H300 C289 0.952 . S
H301 C291 0.948 . S
C302 C268 1.395 . S
C302 C272 1.391 . S
C303 C265 1.389 . S
C303 C285 1.392 . S
C304 C275 1.392 . S
C304 C277 1.389 . S
C305 C280 1.395 . S
C305 C282 1.391 . S
H306 C266 0.951 . S
H307 C267 0.950 . S
H308 C273 0.949 . S
H309 C274 0.950 . S
H310 C278 0.951 . S
H311 C279 0.950 . S
H312 C283 0.949 . S
H313 C284 0.950 . S
H314 C288 0.950 . S
H315 C290 0.950 . S
H316 C293 0.950 . S
H317 C295 0.950 . S
C318 C319 1.443 . S
C318 N322 1.376 . S
C318 C356 1.389 . S
C319 C318 1.443 . S
C319 C320 1.340 . S
C319 H359 0.951 . S
C320 C319 1.340 . S
C320 C321 1.439 . S
C320 H360 0.950 . S
C321 C320 1.439 . S
C321 N322 1.374 . S
C321 C355 1.395 . S
N322 C318 1.376 . S
N322 C321 1.374 . S
N322 Co323 2.008 . S
Co323 N322 2.008 . S
Co323 N324 1.995 . S
Co323 N329 2.008 . S
Co323 N334 1.995 . S
Co323 N339 2.282 . S
Co323 N345 2.282 . S
N324 Co323 1.995 . S
N324 C325 1.376 . S
N324 C328 1.383 . S
C325 N324 1.376 . S
C325 C326 1.446 . S
C325 C355 1.391 . S
C326 C325 1.446 . S
C326 C327 1.339 . S
C326 H361 0.949 . S
C327 C326 1.339 . S
C327 C328 1.439 . S
C327 H362 0.950 . S
C328 N324 1.383 . S
C328 C327 1.439 . S
C328 C357 1.392 . S
N329 Co323 2.008 . S
N329 C330 1.376 . S
N329 C333 1.374 . S
C330 N329 1.376 . S
C330 C331 1.443 . S
C330 C357 1.389 . S
C331 C330 1.443 . S
C331 C332 1.340 . S
C331 H363 0.951 . S
C332 C331 1.340 . S
C332 C333 1.439 . S
C332 H364 0.950 . S
C333 N329 1.374 . S
C333 C332 1.439 . S
C333 C358 1.395 . S
N334 Co323 1.995 . S
N334 C335 1.376 . S
N334 C338 1.383 . S
C335 N334 1.376 . S
C335 C336 1.446 . S
C335 C358 1.391 . S
C336 C335 1.446 . S
C336 C337 1.339 . S
C336 H365 0.949 . S
C337 C336 1.339 . S
C337 C338 1.439 . S
C337 H366 0.950 . S
C338 N334 1.383 . S
C338 C337 1.439 . S
C338 C356 1.392 . S
N339 Co323 2.282 . S
N339 C342 1.332 . S
N339 C344 1.332 . S
C340 C341 1.386 . S
C340 C343 1.388 . S
C341 C340 1.386 . S
C341 C342 1.382 . S
C341 H367 0.950 . S
C342 N339 1.332 . S
C342 C341 1.382 . S
C342 H353 0.952 . S
C343 C340 1.388 . S
C343 C344 1.382 . S
C343 H368 0.950 . S
C344 N339 1.332 . S
C344 C343 1.382 . S
C344 H354 0.948 . S
N345 Co323 2.282 . S
N345 C349 1.332 . S
N345 C350 1.332 . S
C346 C347 1.388 . S
C346 C350 1.382 . S
C346 H369 0.950 . S
C347 C346 1.388 . S
C347 C348 1.386 . S
C348 C347 1.386 . S
C348 C349 1.382 . S
C348 H370 0.950 . S
C349 N345 1.332 . S
C349 C348 1.382 . S
C349 H351 0.952 . S
C350 N345 1.332 . S
C350 C346 1.382 . S
C350 H352 0.948 . S
H351 C349 0.952 . S
H352 C350 0.948 . S
H353 C342 0.952 . S
H354 C344 0.948 . S
C355 C321 1.395 . S
C355 C325 1.391 . S
C356 C318 1.389 . S
C356 C338 1.392 . S
C357 C328 1.392 . S
C357 C330 1.389 . S
C358 C333 1.395 . S
C358 C335 1.391 . S
H359 C319 0.951 . S
H360 C320 0.950 . S
H361 C326 0.949 . S
H362 C327 0.950 . S
H363 C331 0.951 . S
H364 C332 0.950 . S
H365 C336 0.949 . S
H366 C337 0.950 . S
H367 C341 0.950 . S
H368 C343 0.950 . S
H369 C346 0.950 . S
H370 C348 0.950 . S
C371 C372 1.443 . S
C371 N375 1.376 . S
C371 C409 1.389 . S
C372 C371 1.443 . S
C372 C373 1.340 . S
C372 H412 0.951 . S
C373 C372 1.340 . S
C373 C374 1.439 . S
C373 H413 0.950 . S
C374 C373 1.439 . S
C374 N375 1.374 . S
C374 C408 1.395 . S
N375 C371 1.376 . S
N375 C374 1.374 . S
N375 Co376 2.008 . S
Co376 N375 2.008 . S
Co376 N377 1.995 . S
Co376 N382 2.008 . S
Co376 N387 1.995 . S
Co376 N392 2.282 . S
Co376 N398 2.282 . S
N377 Co376 1.995 . S
N377 C378 1.376 . S
N377 C381 1.383 . S
C378 N377 1.376 . S
C378 C379 1.446 . S
C378 C408 1.391 . S
C379 C378 1.446 . S
C379 C380 1.339 . S
C379 H414 0.949 . S
C380 C379 1.339 . S
C380 C381 1.439 . S
C380 H415 0.950 . S
C381 N377 1.383 . S
C381 C380 1.439 . S
C381 C410 1.392 . S
N382 Co376 2.008 . S
N382 C383 1.376 . S
N382 C386 1.374 . S
C383 N382 1.376 . S
C383 C384 1.443 . S
C383 C410 1.389 . S
C384 C383 1.443 . S
C384 C385 1.340 . S
C384 H416 0.951 . S
C385 C384 1.340 . S
C385 C386 1.439 . S
C385 H417 0.950 . S
C386 N382 1.374 . S
C386 C385 1.439 . S
C386 C411 1.395 . S
N387 Co376 1.995 . S
N387 C388 1.376 . S
N387 C391 1.383 . S
C388 N387 1.376 . S
C388 C389 1.446 . S
C388 C411 1.391 . S
C389 C388 1.446 . S
C389 C390 1.339 . S
C389 H418 0.949 . S
C390 C389 1.339 . S
C390 C391 1.439 . S
C390 H419 0.950 . S
C391 N387 1.383 . S
C391 C390 1.439 . S
C391 C409 1.392 . S
N392 Co376 2.282 . S
N392 C395 1.332 . S
N392 C397 1.332 . S
C393 C394 1.386 . S
C393 C396 1.388 . S
C394 C393 1.386 . S
C394 C395 1.382 . S
C394 H420 0.950 . S
C395 N392 1.332 . S
C395 C394 1.382 . S
C395 H406 0.952 . S
C396 C393 1.388 . S
C396 C397 1.382 . S
C396 H421 0.950 . S
C397 N392 1.332 . S
C397 C396 1.382 . S
C397 H407 0.948 . S
N398 Co376 2.282 . S
N398 C402 1.332 . S
N398 C403 1.332 . S
C399 C400 1.388 . S
C399 C403 1.382 . S
C399 H422 0.950 . S
C400 C399 1.388 . S
C400 C401 1.386 . S
C401 C400 1.386 . S
C401 C402 1.382 . S
C401 H423 0.950 . S
C402 N398 1.332 . S
C402 C401 1.382 . S
C402 H404 0.952 . S
C403 N398 1.332 . S
C403 C399 1.382 . S
C403 H405 0.948 . S
H404 C402 0.952 . S
H405 C403 0.948 . S
H406 C395 0.952 . S
H407 C397 0.948 . S
C408 C374 1.395 . S
C408 C378 1.391 . S
C409 C371 1.389 . S
C409 C391 1.392 . S
C410 C381 1.392 . S
C410 C383 1.389 . S
C411 C386 1.395 . S
C411 C388 1.391 . S
H412 C372 0.951 . S
H413 C373 0.950 . S
H414 C379 0.949 . S
H415 C380 0.950 . S
H416 C384 0.951 . S
H417 C385 0.950 . S
H418 C389 0.949 . S
H419 C390 0.950 . S
H420 C394 0.950 . S
H421 C396 0.950 . S
H422 C399 0.950 . S
H423 C401 0.950 . S
C424 C425 1.443 . S
C424 N428 1.376 . S
C424 C462 1.389 . S
C425 C424 1.443 . S
C425 C426 1.340 . S
C425 H465 0.951 . S
C426 C425 1.340 . S
C426 C427 1.439 . S
C426 H466 0.950 . S
C427 C426 1.439 . S
C427 N428 1.374 . S
C427 C461 1.395 . S
N428 C424 1.376 . S
N428 C427 1.374 . S
N428 Co429 2.008 . S
Co429 N428 2.008 . S
Co429 N430 1.995 . S
Co429 N435 2.008 . S
Co429 N440 1.995 . S
Co429 N445 2.282 . S
Co429 N451 2.282 . S
N430 Co429 1.995 . S
N430 C431 1.376 . S
N430 C434 1.383 . S
C431 N430 1.376 . S
C431 C432 1.446 . S
C431 C461 1.391 . S
C432 C431 1.446 . S
C432 C433 1.339 . S
C432 H467 0.949 . S
C433 C432 1.339 . S
C433 C434 1.439 . S
C433 H468 0.950 . S
C434 N430 1.383 . S
C434 C433 1.439 . S
C434 C463 1.392 . S
N435 Co429 2.008 . S
N435 C436 1.376 . S
N435 C439 1.374 . S
C436 N435 1.376 . S
C436 C437 1.443 . S
C436 C463 1.389 . S
C437 C436 1.443 . S
C437 C438 1.340 . S
C437 H469 0.951 . S
C438 C437 1.340 . S
C438 C439 1.439 . S
C438 H470 0.950 . S
C439 N435 1.374 . S
C439 C438 1.439 . S
C439 C464 1.395 . S
N440 Co429 1.995 . S
N440 C441 1.376 . S
N440 C444 1.383 . S
C441 N440 1.376 . S
C441 C442 1.446 . S
C441 C464 1.391 . S
C442 C441 1.446 . S
C442 C443 1.339 . S
C442 H471 0.949 . S
C443 C442 1.339 . S
C443 C444 1.439 . S
C443 H472 0.950 . S
C444 N440 1.383 . S
C444 C443 1.439 . S
C444 C462 1.392 . S
N445 Co429 2.282 . S
N445 C448 1.332 . S
N445 C450 1.332 . S
C446 C447 1.386 . S
C446 C449 1.388 . S
C447 C446 1.386 . S
C447 C448 1.382 . S
C447 H473 0.950 . S
C448 N445 1.332 . S
C448 C447 1.382 . S
C448 H459 0.952 . S
C449 C446 1.388 . S
C449 C450 1.382 . S
C449 H474 0.950 . S
C450 N445 1.332 . S
C450 C449 1.382 . S
C450 H460 0.948 . S
N451 Co429 2.282 . S
N451 C455 1.332 . S
N451 C456 1.332 . S
C452 C453 1.388 . S
C452 C456 1.382 . S
C452 H475 0.950 . S
C453 C452 1.388 . S
C453 C454 1.386 . S
C454 C453 1.386 . S
C454 C455 1.382 . S
C454 H476 0.950 . S
C455 N451 1.332 . S
C455 C454 1.382 . S
C455 H457 0.952 . S
C456 N451 1.332 . S
C456 C452 1.382 . S
C456 H458 0.948 . S
H457 C455 0.952 . S
H458 C456 0.948 . S
H459 C448 0.952 . S
H460 C450 0.948 . S
C461 C427 1.395 . S
C461 C431 1.391 . S
C462 C424 1.389 . S
C462 C444 1.392 . S
C463 C434 1.392 . S
C463 C436 1.389 . S
C464 C439 1.395 . S
C464 C441 1.391 . S
H465 C425 0.951 . S
H466 C426 0.950 . S
H467 C432 0.949 . S
H468 C433 0.950 . S
H469 C437 0.951 . S
H470 C438 0.950 . S
H471 C442 0.949 . S
H472 C443 0.950 . S
H473 C447 0.950 . S
H474 C449 0.950 . S
H475 C452 0.950 . S
H476 C454 0.950 . S
C477 C478 1.443 . S
C477 N481 1.376 . S
C477 C515 1.389 . S
C478 C477 1.443 . S
C478 C479 1.340 . S
C478 H518 0.951 . S
C479 C478 1.340 . S
C479 C480 1.439 . S
C479 H519 0.950 . S
C480 C479 1.439 . S
C480 N481 1.374 . S
C480 C514 1.395 . S
N481 C477 1.376 . S
N481 C480 1.374 . S
N481 Co482 2.008 . S
Co482 N481 2.008 . S
Co482 N483 1.995 . S
Co482 N488 2.008 . S
Co482 N493 1.995 . S
Co482 N498 2.282 . S
Co482 N504 2.282 . S
N483 Co482 1.995 . S
N483 C484 1.376 . S
N483 C487 1.383 . S
C484 N483 1.376 . S
C484 C485 1.446 . S
C484 C514 1.391 . S
C485 C484 1.446 . S
C485 C486 1.339 . S
C485 H520 0.949 . S
C486 C485 1.339 . S
C486 C487 1.439 . S
C486 H521 0.950 . S
C487 N483 1.383 . S
C487 C486 1.439 . S
C487 C516 1.392 . S
N488 Co482 2.008 . S
N488 C489 1.376 . S
N488 C492 1.374 . S
C489 N488 1.376 . S
C489 C490 1.443 . S
C489 C516 1.389 . S
C490 C489 1.443 . S
C490 C491 1.340 . S
C490 H522 0.951 . S
C491 C490 1.340 . S
C491 C492 1.439 . S
C491 H523 0.950 . S
C492 N488 1.374 . S
C492 C491 1.439 . S
C492 C517 1.395 . S
N493 Co482 1.995 . S
N493 C494 1.376 . S
N493 C497 1.383 . S
C494 N493 1.376 . S
C494 C495 1.446 . S
C494 C517 1.391 . S
C495 C494 1.446 . S
C495 C496 1.339 . S
C495 H524 0.949 . S
C496 C495 1.339 . S
C496 C497 1.439 . S
C496 H525 0.950 . S
C497 N493 1.383 . S
C497 C496 1.439 . S
C497 C515 1.392 . S
N498 Co482 2.282 . S
N498 C501 1.332 . S
N498 C503 1.332 . S
C499 C500 1.386 . S
C499 C502 1.388 . S
C500 C499 1.386 . S
C500 C501 1.382 . S
C500 H526 0.950 . S
C501 N498 1.332 . S
C501 C500 1.382 . S
C501 H512 0.952 . S
C502 C499 1.388 . S
C502 C503 1.382 . S
C502 H527 0.950 . S
C503 N498 1.332 . S
C503 C502 1.382 . S
C503 H513 0.948 . S
N504 Co482 2.282 . S
N504 C508 1.332 . S
N504 C509 1.332 . S
C505 C506 1.388 . S
C505 C509 1.382 . S
C505 H528 0.950 . S
C506 C505 1.388 . S
C506 C507 1.386 . S
C507 C506 1.386 . S
C507 C508 1.382 . S
C507 H529 0.950 . S
C508 N504 1.332 . S
C508 C507 1.382 . S
C508 H510 0.952 . S
C509 N504 1.332 . S
C509 C505 1.382 . S
C509 H511 0.948 . S
H510 C508 0.952 . S
H511 C509 0.948 . S
H512 C501 0.952 . S
H513 C503 0.948 . S
C514 C480 1.395 . S
C514 C484 1.391 . S
C515 C477 1.389 . S
C515 C497 1.392 . S
C516 C487 1.392 . S
C516 C489 1.389 . S
C517 C492 1.395 . S
C517 C494 1.391 . S
H518 C478 0.951 . S
H519 C479 0.950 . S
H520 C485 0.949 . S
H521 C486 0.950 . S
H522 C490 0.951 . S
H523 C491 0.950 . S
H524 C495 0.949 . S
H525 C496 0.950 . S
H526 C500 0.950 . S
H527 C502 0.950 . S
H528 C505 0.950 . S
H529 C507 0.950 . S
C530 C531 1.443 . S
C530 N534 1.376 . S
C530 C568 1.389 . S
C531 C530 1.443 . S
C531 C532 1.340 . S
C531 H571 0.951 . S
C532 C531 1.340 . S
C532 C533 1.439 . S
C532 H572 0.950 . S
C533 C532 1.439 . S
C533 N534 1.374 . S
C533 C567 1.395 . S
N534 C530 1.376 . S
N534 C533 1.374 . S
N534 Co535 2.008 . S
Co535 N534 2.008 . S
Co535 N536 1.995 . S
Co535 N541 2.008 . S
Co535 N546 1.995 . S
Co535 N551 2.282 . S
Co535 N557 2.282 . S
N536 Co535 1.995 . S
N536 C537 1.376 . S
N536 C540 1.383 . S
C537 N536 1.376 . S
C537 C538 1.446 . S
C537 C567 1.391 . S
C538 C537 1.446 . S
C538 C539 1.339 . S
C538 H573 0.949 . S
C539 C538 1.339 . S
C539 C540 1.439 . S
C539 H574 0.950 . S
C540 N536 1.383 . S
C540 C539 1.439 . S
C540 C569 1.392 . S
N541 Co535 2.008 . S
N541 C542 1.376 . S
N541 C545 1.374 . S
C542 N541 1.376 . S
C542 C543 1.443 . S
C542 C569 1.389 . S
C543 C542 1.443 . S
C543 C544 1.340 . S
C543 H575 0.951 . S
C544 C543 1.340 . S
C544 C545 1.439 . S
C544 H576 0.950 . S
C545 N541 1.374 . S
C545 C544 1.439 . S
C545 C570 1.395 . S
N546 Co535 1.995 . S
N546 C547 1.376 . S
N546 C550 1.383 . S
C547 N546 1.376 . S
C547 C548 1.446 . S
C547 C570 1.391 . S
C548 C547 1.446 . S
C548 C549 1.339 . S
C548 H577 0.949 . S
C549 C548 1.339 . S
C549 C550 1.439 . S
C549 H578 0.950 . S
C550 N546 1.383 . S
C550 C549 1.439 . S
C550 C568 1.392 . S
N551 Co535 2.282 . S
N551 C554 1.332 . S
N551 C556 1.332 . S
C552 C553 1.386 . S
C552 C555 1.388 . S
C553 C552 1.386 . S
C553 C554 1.382 . S
C553 H579 0.950 . S
C554 N551 1.332 . S
C554 C553 1.382 . S
C554 H565 0.952 . S
C555 C552 1.388 . S
C555 C556 1.382 . S
C555 H580 0.950 . S
C556 N551 1.332 . S
C556 C555 1.382 . S
C556 H566 0.948 . S
N557 Co535 2.282 . S
N557 C561 1.332 . S
N557 C562 1.332 . S
C558 C559 1.388 . S
C558 C562 1.382 . S
C558 H581 0.950 . S
C559 C558 1.388 . S
C559 C560 1.386 . S
C560 C559 1.386 . S
C560 C561 1.382 . S
C560 H582 0.950 . S
C561 N557 1.332 . S
C561 C560 1.382 . S
C561 H563 0.952 . S
C562 N557 1.332 . S
C562 C558 1.382 . S
C562 H564 0.948 . S
H563 C561 0.952 . S
H564 C562 0.948 . S
H565 C554 0.952 . S
H566 C556 0.948 . S
C567 C533 1.395 . S
C567 C537 1.391 . S
C568 C530 1.389 . S
C568 C550 1.392 . S
C569 C540 1.392 . S
C569 C542 1.389 . S
C570 C545 1.395 . S
C570 C547 1.391 . S
H571 C531 0.951 . S
H572 C532 0.950 . S
H573 C538 0.949 . S
H574 C539 0.950 . S
H575 C543 0.951 . S
H576 C544 0.950 . S
H577 C548 0.949 . S
H578 C549 0.950 . S
H579 C553 0.950 . S
H580 C555 0.950 . S
H581 C558 0.950 . S
H582 C560 0.950 . S
C583 C584 1.443 . S
C583 N587 1.376 . S
C583 C621 1.389 . S
C584 C583 1.443 . S
C584 C585 1.340 . S
C584 H624 0.951 . S
C585 C584 1.340 . S
C585 C586 1.439 . S
C585 H625 0.950 . S
C586 C585 1.439 . S
C586 N587 1.374 . S
C586 C620 1.395 . S
N587 C583 1.376 . S
N587 C586 1.374 . S
N587 Co588 2.008 . S
Co588 N587 2.008 . S
Co588 N589 1.995 . S
Co588 N594 2.008 . S
Co588 N599 1.995 . S
Co588 N604 2.282 . S
Co588 N610 2.282 . S
N589 Co588 1.995 . S
N589 C590 1.376 . S
N589 C593 1.383 . S
C590 N589 1.376 . S
C590 C591 1.446 . S
C590 C620 1.391 . S
C591 C590 1.446 . S
C591 C592 1.339 . S
C591 H626 0.949 . S
C592 C591 1.339 . S
C592 C593 1.439 . S
C592 H627 0.950 . S
C593 N589 1.383 . S
C593 C592 1.439 . S
C593 C622 1.392 . S
N594 Co588 2.008 . S
N594 C595 1.376 . S
N594 C598 1.374 . S
C595 N594 1.376 . S
C595 C596 1.443 . S
C595 C622 1.389 . S
C596 C595 1.443 . S
C596 C597 1.340 . S
C596 H628 0.951 . S
C597 C596 1.340 . S
C597 C598 1.439 . S
C597 H629 0.950 . S
C598 N594 1.374 . S
C598 C597 1.439 . S
C598 C623 1.395 . S
N599 Co588 1.995 . S
N599 C600 1.376 . S
N599 C603 1.383 . S
C600 N599 1.376 . S
C600 C601 1.446 . S
C600 C623 1.391 . S
C601 C600 1.446 . S
C601 C602 1.339 . S
C601 H630 0.949 . S
C602 C601 1.339 . S
C602 C603 1.439 . S
C602 H631 0.950 . S
C603 N599 1.383 . S
C603 C602 1.439 . S
C603 C621 1.392 . S
N604 Co588 2.282 . S
N604 C607 1.332 . S
N604 C609 1.332 . S
C605 C606 1.386 . S
C605 C608 1.388 . S
C606 C605 1.386 . S
C606 C607 1.382 . S
C606 H632 0.950 . S
C607 N604 1.332 . S
C607 C606 1.382 . S
C607 H618 0.952 . S
C608 C605 1.388 . S
C608 C609 1.382 . S
C608 H633 0.950 . S
C609 N604 1.332 . S
C609 C608 1.382 . S
C609 H619 0.948 . S
N610 Co588 2.282 . S
N610 C614 1.332 . S
N610 C615 1.332 . S
C611 C612 1.388 . S
C611 C615 1.382 . S
C611 H634 0.950 . S
C612 C611 1.388 . S
C612 C613 1.386 . S
C613 C612 1.386 . S
C613 C614 1.382 . S
C613 H635 0.950 . S
C614 N610 1.332 . S
C614 C613 1.382 . S
C614 H616 0.952 . S
C615 N610 1.332 . S
C615 C611 1.382 . S
C615 H617 0.948 . S
H616 C614 0.952 . S
H617 C615 0.948 . S
H618 C607 0.952 . S
H619 C609 0.948 . S
C620 C586 1.395 . S
C620 C590 1.391 . S
C621 C583 1.389 . S
C621 C603 1.392 . S
C622 C593 1.392 . S
C622 C595 1.389 . S
C623 C598 1.395 . S
C623 C600 1.391 . S
H624 C584 0.951 . S
H625 C585 0.950 . S
H626 C591 0.949 . S
H627 C592 0.950 . S
H628 C596 0.951 . S
H629 C597 0.950 . S
H630 C601 0.949 . S
H631 C602 0.950 . S
H632 C606 0.950 . S
H633 C608 0.950 . S
H634 C611 0.950 . S
H635 C613 0.950 . S
C636 C637 1.443 . S
C636 N640 1.376 . S
C636 C674 1.389 . S
C637 C636 1.443 . S
C637 C638 1.340 . S
C637 H677 0.951 . S
C638 C637 1.340 . S
C638 C639 1.439 . S
C638 H678 0.950 . S
C639 C638 1.439 . S
C639 N640 1.374 . S
C639 C673 1.395 . S
N640 C636 1.376 . S
N640 C639 1.374 . S
N640 Co641 2.008 . S
Co641 N640 2.008 . S
Co641 N642 1.995 . S
Co641 N647 2.008 . S
Co641 N652 1.995 . S
Co641 N657 2.282 . S
Co641 N663 2.282 . S
N642 Co641 1.995 . S
N642 C643 1.376 . S
N642 C646 1.383 . S
C643 N642 1.376 . S
C643 C644 1.446 . S
C643 C673 1.391 . S
C644 C643 1.446 . S
C644 C645 1.339 . S
C644 H679 0.949 . S
C645 C644 1.339 . S
C645 C646 1.439 . S
C645 H680 0.950 . S
C646 N642 1.383 . S
C646 C645 1.439 . S
C646 C675 1.392 . S
N647 Co641 2.008 . S
N647 C648 1.376 . S
N647 C651 1.374 . S
C648 N647 1.376 . S
C648 C649 1.443 . S
C648 C675 1.389 . S
C649 C648 1.443 . S
C649 C650 1.340 . S
C649 H681 0.951 . S
C650 C649 1.340 . S
C650 C651 1.439 . S
C650 H682 0.950 . S
C651 N647 1.374 . S
C651 C650 1.439 . S
C651 C676 1.395 . S
N652 Co641 1.995 . S
N652 C653 1.376 . S
N652 C656 1.383 . S
C653 N652 1.376 . S
C653 C654 1.446 . S
C653 C676 1.391 . S
C654 C653 1.446 . S
C654 C655 1.339 . S
C654 H683 0.949 . S
C655 C654 1.339 . S
C655 C656 1.439 . S
C655 H684 0.950 . S
C656 N652 1.383 . S
C656 C655 1.439 . S
C656 C674 1.392 . S
N657 Co641 2.282 . S
N657 C660 1.332 . S
N657 C662 1.332 . S
C658 C659 1.386 . S
C658 C661 1.388 . S
C659 C658 1.386 . S
C659 C660 1.382 . S
C659 H685 0.950 . S
C660 N657 1.332 . S
C660 C659 1.382 . S
C660 H671 0.952 . S
C661 C658 1.388 . S
C661 C662 1.382 . S
C661 H686 0.950 . S
C662 N657 1.332 . S
C662 C661 1.382 . S
C662 H672 0.948 . S
N663 Co641 2.282 . S
N663 C667 1.332 . S
N663 C668 1.332 . S
C664 C665 1.388 . S
C664 C668 1.382 . S
C664 H687 0.950 . S
C665 C664 1.388 . S
C665 C666 1.386 . S
C666 C665 1.386 . S
C666 C667 1.382 . S
C666 H688 0.950 . S
C667 N663 1.332 . S
C667 C666 1.382 . S
C667 H669 0.952 . S
C668 N663 1.332 . S
C668 C664 1.382 . S
C668 H670 0.948 . S
H669 C667 0.952 . S
H670 C668 0.948 . S
H671 C660 0.952 . S
H672 C662 0.948 . S
C673 C639 1.395 . S
C673 C643 1.391 . S
C674 C636 1.389 . S
C674 C656 1.392 . S
C675 C646 1.392 . S
C675 C648 1.389 . S
C676 C651 1.395 . S
C676 C653 1.391 . S
H677 C637 0.951 . S
H678 C638 0.950 . S
H679 C644 0.949 . S
H680 C645 0.950 . S
H681 C649 0.951 . S
H682 C650 0.950 . S
H683 C654 0.949 . S
H684 C655 0.950 . S
H685 C659 0.950 . S
H686 C661 0.950 . S
H687 C664 0.950 . S
H688 C666 0.950 . S
C689 C690 1.443 . S
C689 N693 1.376 . S
C689 C727 1.389 . S
C690 C689 1.443 . S
C690 C691 1.340 . S
C690 H730 0.951 . S
C691 C690 1.340 . S
C691 C692 1.439 . S
C691 H731 0.950 . S
C692 C691 1.439 . S
C692 N693 1.374 . S
C692 C726 1.395 . S
N693 C689 1.376 . S
N693 C692 1.374 . S
N693 Co694 2.008 . S
Co694 N693 2.008 . S
Co694 N695 1.995 . S
Co694 N700 2.008 . S
Co694 N705 1.995 . S
Co694 N710 2.282 . S
Co694 N716 2.282 . S
N695 Co694 1.995 . S
N695 C696 1.376 . S
N695 C699 1.383 . S
C696 N695 1.376 . S
C696 C697 1.446 . S
C696 C726 1.391 . S
C697 C696 1.446 . S
C697 C698 1.339 . S
C697 H732 0.949 . S
C698 C697 1.339 . S
C698 C699 1.439 . S
C698 H733 0.950 . S
C699 N695 1.383 . S
C699 C698 1.439 . S
C699 C728 1.392 . S
N700 Co694 2.008 . S
N700 C701 1.376 . S
N700 C704 1.374 . S
C701 N700 1.376 . S
C701 C702 1.443 . S
C701 C728 1.389 . S
C702 C701 1.443 . S
C702 C703 1.340 . S
C702 H734 0.951 . S
C703 C702 1.340 . S
C703 C704 1.439 . S
C703 H735 0.950 . S
C704 N700 1.374 . S
C704 C703 1.439 . S
C704 C729 1.395 . S
N705 Co694 1.995 . S
N705 C706 1.376 . S
N705 C709 1.383 . S
C706 N705 1.376 . S
C706 C707 1.446 . S
C706 C729 1.391 . S
C707 C706 1.446 . S
C707 C708 1.339 . S
C707 H736 0.949 . S
C708 C707 1.339 . S
C708 C709 1.439 . S
C708 H737 0.950 . S
C709 N705 1.383 . S
C709 C708 1.439 . S
C709 C727 1.392 . S
N710 Co694 2.282 . S
N710 C713 1.332 . S
N710 C715 1.332 . S
C711 C712 1.386 . S
C711 C714 1.388 . S
C712 C711 1.386 . S
C712 C713 1.382 . S
C712 H738 0.950 . S
C713 N710 1.332 . S
C713 C712 1.382 . S
C713 H724 0.952 . S
C714 C711 1.388 . S
C714 C715 1.382 . S
C714 H739 0.950 . S
C715 N710 1.332 . S
C715 C714 1.382 . S
C715 H725 0.948 . S
N716 Co694 2.282 . S
N716 C720 1.332 . S
N716 C721 1.332 . S
C717 C718 1.388 . S
C717 C721 1.382 . S
C717 H740 0.950 . S
C718 C717 1.388 . S
C718 C719 1.386 . S
C719 C718 1.386 . S
C719 C720 1.382 . S
C719 H741 0.950 . S
C720 N716 1.332 . S
C720 C719 1.382 . S
C720 H722 0.952 . S
C721 N716 1.332 . S
C721 C717 1.382 . S
C721 H723 0.948 . S
H722 C720 0.952 . S
H723 C721 0.948 . S
H724 C713 0.952 . S
H725 C715 0.948 . S
C726 C692 1.395 . S
C726 C696 1.391 . S
C727 C689 1.389 . S
C727 C709 1.392 . S
C728 C699 1.392 . S
C728 C701 1.389 . S
C729 C704 1.395 . S
C729 C706 1.391 . S
H730 C690 0.951 . S
H731 C691 0.950 . S
H732 C697 0.949 . S
H733 C698 0.950 . S
H734 C702 0.951 . S
H735 C703 0.950 . S
H736 C707 0.949 . S
H737 C708 0.950 . S
H738 C712 0.950 . S
H739 C714 0.950 . S
H740 C717 0.950 . S
H741 C719 0.950 . S
C742 C743 1.443 . S
C742 N746 1.376 . S
C742 C780 1.389 . S
C743 C742 1.443 . S
C743 C744 1.340 . S
C743 H783 0.951 . S
C744 C743 1.340 . S
C744 C745 1.439 . S
C744 H784 0.950 . S
C745 C744 1.439 . S
C745 N746 1.374 . S
C745 C779 1.395 . S
N746 C742 1.376 . S
N746 C745 1.374 . S
N746 Co747 2.008 . S
Co747 N746 2.008 . S
Co747 N748 1.995 . S
Co747 N753 2.008 . S
Co747 N758 1.995 . S
Co747 N763 2.282 . S
Co747 N769 2.282 . S
N748 Co747 1.995 . S
N748 C749 1.376 . S
N748 C752 1.383 . S
C749 N748 1.376 . S
C749 C750 1.446 . S
C749 C779 1.391 . S
C750 C749 1.446 . S
C750 C751 1.339 . S
C750 H785 0.949 . S
C751 C750 1.339 . S
C751 C752 1.439 . S
C751 H786 0.950 . S
C752 N748 1.383 . S
C752 C751 1.439 . S
C752 C781 1.392 . S
N753 Co747 2.008 . S
N753 C754 1.376 . S
N753 C757 1.374 . S
C754 N753 1.376 . S
C754 C755 1.443 . S
C754 C781 1.389 . S
C755 C754 1.443 . S
C755 C756 1.340 . S
C755 H787 0.951 . S
C756 C755 1.340 . S
C756 C757 1.439 . S
C756 H788 0.950 . S
C757 N753 1.374 . S
C757 C756 1.439 . S
C757 C782 1.395 . S
N758 Co747 1.995 . S
N758 C759 1.376 . S
N758 C762 1.383 . S
C759 N758 1.376 . S
C759 C760 1.446 . S
C759 C782 1.391 . S
C760 C759 1.446 . S
C760 C761 1.339 . S
C760 H789 0.949 . S
C761 C760 1.339 . S
C761 C762 1.439 . S
C761 H790 0.950 . S
C762 N758 1.383 . S
C762 C761 1.439 . S
C762 C780 1.392 . S
N763 Co747 2.282 . S
N763 C766 1.332 . S
N763 C768 1.332 . S
C764 C765 1.386 . S
C764 C767 1.388 . S
C765 C764 1.386 . S
C765 C766 1.382 . S
C765 H791 0.950 . S
C766 N763 1.332 . S
C766 C765 1.382 . S
C766 H777 0.952 . S
C767 C764 1.388 . S
C767 C768 1.382 . S
C767 H792 0.950 . S
C768 N763 1.332 . S
C768 C767 1.382 . S
C768 H778 0.948 . S
N769 Co747 2.282 . S
N769 C773 1.332 . S
N769 C774 1.332 . S
C770 C771 1.388 . S
C770 C774 1.382 . S
C770 H793 0.950 . S
C771 C770 1.388 . S
C771 C772 1.386 . S
C772 C771 1.386 . S
C772 C773 1.382 . S
C772 H794 0.950 . S
C773 N769 1.332 . S
C773 C772 1.382 . S
C773 H775 0.952 . S
C774 N769 1.332 . S
C774 C770 1.382 . S
C774 H776 0.948 . S
H775 C773 0.952 . S
H776 C774 0.948 . S
H777 C766 0.952 . S
H778 C768 0.948 . S
C779 C745 1.395 . S
C779 C749 1.391 . S
C780 C742 1.389 . S
C780 C762 1.392 . S
C781 C752 1.392 . S
C781 C754 1.389 . S
C782 C757 1.395 . S
C782 C759 1.391 . S
H783 C743 0.951 . S
H784 C744 0.950 . S
H785 C750 0.949 . S
H786 C751 0.950 . S
H787 C755 0.951 . S
H788 C756 0.950 . S
H789 C760 0.949 . S
H790 C761 0.950 . S
H791 C765 0.950 . S
H792 C767 0.950 . S
H793 C770 0.950 . S
H794 C772 0.950 . S
C795 C796 1.443 . S
C795 N799 1.376 . S
C795 C833 1.389 . S
C796 C795 1.443 . S
C796 C797 1.340 . S
C796 H836 0.951 . S
C797 C796 1.340 . S
C797 C798 1.439 . S
C797 H837 0.950 . S
C798 C797 1.439 . S
C798 N799 1.374 . S
C798 C832 1.395 . S
N799 C795 1.376 . S
N799 C798 1.374 . S
N799 Co800 2.008 . S
Co800 N799 2.008 . S
Co800 N801 1.995 . S
Co800 N806 2.008 . S
Co800 N811 1.995 . S
Co800 N816 2.282 . S
Co800 N822 2.282 . S
N801 Co800 1.995 . S
N801 C802 1.376 . S
N801 C805 1.383 . S
C802 N801 1.376 . S
C802 C803 1.446 . S
C802 C832 1.391 . S
C803 C802 1.446 . S
C803 C804 1.339 . S
C803 H838 0.949 . S
C804 C803 1.339 . S
C804 C805 1.439 . S
C804 H839 0.950 . S
C805 N801 1.383 . S
C805 C804 1.439 . S
C805 C834 1.392 . S
N806 Co800 2.008 . S
N806 C807 1.376 . S
N806 C810 1.374 . S
C807 N806 1.376 . S
C807 C808 1.443 . S
C807 C834 1.389 . S
C808 C807 1.443 . S
C808 C809 1.340 . S
C808 H840 0.951 . S
C809 C808 1.340 . S
C809 C810 1.439 . S
C809 H841 0.950 . S
C810 N806 1.374 . S
C810 C809 1.439 . S
C810 C835 1.395 . S
N811 Co800 1.995 . S
N811 C812 1.376 . S
N811 C815 1.383 . S
C812 N811 1.376 . S
C812 C813 1.446 . S
C812 C835 1.391 . S
C813 C812 1.446 . S
C813 C814 1.339 . S
C813 H842 0.949 . S
C814 C813 1.339 . S
C814 C815 1.439 . S
C814 H843 0.950 . S
C815 N811 1.383 . S
C815 C814 1.439 . S
C815 C833 1.392 . S
N816 Co800 2.282 . S
N816 C819 1.332 . S
N816 C821 1.332 . S
C817 C818 1.386 . S
C817 C820 1.388 . S
C818 C817 1.386 . S
C818 C819 1.382 . S
C818 H844 0.950 . S
C819 N816 1.332 . S
C819 C818 1.382 . S
C819 H830 0.952 . S
C820 C817 1.388 . S
C820 C821 1.382 . S
C820 H845 0.950 . S
C821 N816 1.332 . S
C821 C820 1.382 . S
C821 H831 0.948 . S
N822 Co800 2.282 . S
N822 C826 1.332 . S
N822 C827 1.332 . S
C823 C824 1.388 . S
C823 C827 1.382 . S
C823 H846 0.950 . S
C824 C823 1.388 . S
C824 C825 1.386 . S
C825 C824 1.386 . S
C825 C826 1.382 . S
C825 H847 0.950 . S
C826 N822 1.332 . S
C826 C825 1.382 . S
C826 H828 0.952 . S
C827 N822 1.332 . S
C827 C823 1.382 . S
C827 H829 0.948 . S
H828 C826 0.952 . S
H829 C827 0.948 . S
H830 C819 0.952 . S
H831 C821 0.948 . S
C832 C798 1.395 . S
C832 C802 1.391 . S
C833 C795 1.389 . S
C833 C815 1.392 . S
C834 C805 1.392 . S
C834 C807 1.389 . S
C835 C810 1.395 . S
C835 C812 1.391 . S
H836 C796 0.951 . S
H837 C797 0.950 . S
H838 C803 0.949 . S
H839 C804 0.950 . S
H840 C808 0.951 . S
H841 C809 0.950 . S
H842 C813 0.949 . S
H843 C814 0.950 . S
H844 C818 0.950 . S
H845 C820 0.950 . S
H846 C823 0.950 . S
H847 C825 0.950 . S
C848 C849 1.443 . S
C848 N852 1.376 . S
C848 C886 1.389 . S
C849 C848 1.443 . S
C849 C850 1.340 . S
C849 H889 0.951 . S
C850 C849 1.340 . S
C850 C851 1.439 . S
C850 H890 0.950 . S
C851 C850 1.439 . S
C851 N852 1.374 . S
C851 C885 1.395 . S
N852 C848 1.376 . S
N852 C851 1.374 . S
N852 Co853 2.008 . S
Co853 N852 2.008 . S
Co853 N854 1.995 . S
Co853 N859 2.008 . S
Co853 N864 1.995 . S
Co853 N869 2.282 . S
Co853 N875 2.282 . S
N854 Co853 1.995 . S
N854 C855 1.376 . S
N854 C858 1.383 . S
C855 N854 1.376 . S
C855 C856 1.446 . S
C855 C885 1.391 . S
C856 C855 1.446 . S
C856 C857 1.339 . S
C856 H891 0.949 . S
C857 C856 1.339 . S
C857 C858 1.439 . S
C857 H892 0.950 . S
C858 N854 1.383 . S
C858 C857 1.439 . S
C858 C887 1.392 . S
N859 Co853 2.008 . S
N859 C860 1.376 . S
N859 C863 1.374 . S
C860 N859 1.376 . S
C860 C861 1.443 . S
C860 C887 1.389 . S
C861 C860 1.443 . S
C861 C862 1.340 . S
C861 H893 0.951 . S
C862 C861 1.340 . S
C862 C863 1.439 . S
C862 H894 0.950 . S
C863 N859 1.374 . S
C863 C862 1.439 . S
C863 C888 1.395 . S
N864 Co853 1.995 . S
N864 C865 1.376 . S
N864 C868 1.383 . S
C865 N864 1.376 . S
C865 C866 1.446 . S
C865 C888 1.391 . S
C866 C865 1.446 . S
C866 C867 1.339 . S
C866 H895 0.949 . S
C867 C866 1.339 . S
C867 C868 1.439 . S
C867 H896 0.950 . S
C868 N864 1.383 . S
C868 C867 1.439 . S
C868 C886 1.392 . S
N869 Co853 2.282 . S
N869 C872 1.332 . S
N869 C874 1.332 . S
C870 C871 1.386 . S
C870 C873 1.388 . S
C871 C870 1.386 . S
C871 C872 1.382 . S
C871 H897 0.950 . S
C872 N869 1.332 . S
C872 C871 1.382 . S
C872 H883 0.952 . S
C873 C870 1.388 . S
C873 C874 1.382 . S
C873 H898 0.950 . S
C874 N869 1.332 . S
C874 C873 1.382 . S
C874 H884 0.948 . S
N875 Co853 2.282 . S
N875 C879 1.332 . S
N875 C880 1.332 . S
C876 C877 1.388 . S
C876 C880 1.382 . S
C876 H899 0.950 . S
C877 C876 1.388 . S
C877 C878 1.386 . S
C878 C877 1.386 . S
C878 C879 1.382 . S
C878 H900 0.950 . S
C879 N875 1.332 . S
C879 C878 1.382 . S
C879 H881 0.952 . S
C880 N875 1.332 . S
C880 C876 1.382 . S
C880 H882 0.948 . S
H881 C879 0.952 . S
H882 C880 0.948 . S
H883 C872 0.952 . S
H884 C874 0.948 . S
C885 C851 1.395 . S
C885 C855 1.391 . S
C886 C848 1.389 . S
C886 C868 1.392 . S
C887 C858 1.392 . S
C887 C860 1.389 . S
C888 C863 1.395 . S
C888 C865 1.391 . S
H889 C849 0.951 . S
H890 C850 0.950 . S
H891 C856 0.949 . S
H892 C857 0.950 . S
H893 C861 0.951 . S
H894 C862 0.950 . S
H895 C866 0.949 . S
H896 C867 0.950 . S
H897 C871 0.950 . S
H898 C873 0.950 . S
H899 C876 0.950 . S
H900 C878 0.950 . S
C901 C902 1.443 . S
C901 N905 1.376 . S
C901 C939 1.389 . S
C902 C901 1.443 . S
C902 C903 1.340 . S
C902 H942 0.951 . S
C903 C902 1.340 . S
C903 C904 1.439 . S
C903 H943 0.950 . S
C904 C903 1.439 . S
C904 N905 1.374 . S
C904 C938 1.395 . S
N905 C901 1.376 . S
N905 C904 1.374 . S
N905 Co906 2.008 . S
Co906 N905 2.008 . S
Co906 N907 1.995 . S
Co906 N912 2.008 . S
Co906 N917 1.995 . S
Co906 N922 2.282 . S
Co906 N928 2.282 . S
N907 Co906 1.995 . S
N907 C908 1.376 . S
N907 C911 1.383 . S
C908 N907 1.376 . S
C908 C909 1.446 . S
C908 C938 1.391 . S
C909 C908 1.446 . S
C909 C910 1.339 . S
C909 H944 0.949 . S
C910 C909 1.339 . S
C910 C911 1.439 . S
C910 H945 0.950 . S
C911 N907 1.383 . S
C911 C910 1.439 . S
C911 C940 1.392 . S
N912 Co906 2.008 . S
N912 C913 1.376 . S
N912 C916 1.374 . S
C913 N912 1.376 . S
C913 C914 1.443 . S
C913 C940 1.389 . S
C914 C913 1.443 . S
C914 C915 1.340 . S
C914 H946 0.951 . S
C915 C914 1.340 . S
C915 C916 1.439 . S
C915 H947 0.950 . S
C916 N912 1.374 . S
C916 C915 1.439 . S
C916 C941 1.395 . S
N917 Co906 1.995 . S
N917 C918 1.376 . S
N917 C921 1.383 . S
C918 N917 1.376 . S
C918 C919 1.446 . S
C918 C941 1.391 . S
C919 C918 1.446 . S
C919 C920 1.339 . S
C919 H948 0.949 . S
C920 C919 1.339 . S
C920 C921 1.439 . S
C920 H949 0.950 . S
C921 N917 1.383 . S
C921 C920 1.439 . S
C921 C939 1.392 . S
N922 Co906 2.282 . S
N922 C925 1.332 . S
N922 C927 1.332 . S
C923 C924 1.386 . S
C923 C926 1.388 . S
C924 C923 1.386 . S
C924 C925 1.382 . S
C924 H950 0.950 . S
C925 N922 1.332 . S
C925 C924 1.382 . S
C925 H936 0.952 . S
C926 C923 1.388 . S
C926 C927 1.382 . S
C926 H951 0.950 . S
C927 N922 1.332 . S
C927 C926 1.382 . S
C927 H937 0.948 . S
N928 Co906 2.282 . S
N928 C932 1.332 . S
N928 C933 1.332 . S
C929 C930 1.388 . S
C929 C933 1.382 . S
C929 H952 0.950 . S
C930 C929 1.388 . S
C930 C931 1.386 . S
C931 C930 1.386 . S
C931 C932 1.382 . S
C931 H953 0.950 . S
C932 N928 1.332 . S
C932 C931 1.382 . S
C932 H934 0.952 . S
C933 N928 1.332 . S
C933 C929 1.382 . S
C933 H935 0.948 . S
H934 C932 0.952 . S
H935 C933 0.948 . S
H936 C925 0.952 . S
H937 C927 0.948 . S
C938 C904 1.395 . S
C938 C908 1.391 . S
C939 C901 1.389 . S
C939 C921 1.392 . S
C940 C911 1.392 . S
C940 C913 1.389 . S
C941 C916 1.395 . S
C941 C918 1.391 . S
H942 C902 0.951 . S
H943 C903 0.950 . S
H944 C909 0.949 . S
H945 C910 0.950 . S
H946 C914 0.951 . S
H947 C915 0.950 . S
H948 C919 0.949 . S
H949 C920 0.950 . S
H950 C924 0.950 . S
H951 C926 0.950 . S
H952 C929 0.950 . S
H953 C931 0.950 . S
C954 C955 1.443 . S
C954 N958 1.376 . S
C954 C992 1.389 . S
C955 C954 1.443 . S
C955 C956 1.340 . S
C955 H995 0.951 . S
C956 C955 1.340 . S
C956 C957 1.439 . S
C956 H996 0.950 . S
C957 C956 1.439 . S
C957 N958 1.374 . S
C957 C991 1.395 . S
N958 C954 1.376 . S
N958 C957 1.374 . S
N958 Co959 2.008 . S
Co959 N958 2.008 . S
Co959 N960 1.995 . S
Co959 N965 2.008 . S
Co959 N970 1.995 . S
Co959 N975 2.282 . S
Co959 N981 2.282 . S
N960 Co959 1.995 . S
N960 C961 1.376 . S
N960 C964 1.383 . S
C961 N960 1.376 . S
C961 C962 1.446 . S
C961 C991 1.391 . S
C962 C961 1.446 . S
C962 C963 1.339 . S
C962 H997 0.949 . S
C963 C962 1.339 . S
C963 C964 1.439 . S
C963 H998 0.950 . S
C964 N960 1.383 . S
C964 C963 1.439 . S
C964 C993 1.392 . S
N965 Co959 2.008 . S
N965 C966 1.376 . S
N965 C969 1.374 . S
C966 N965 1.376 . S
C966 C967 1.443 . S
C966 C993 1.389 . S
C967 C966 1.443 . S
C967 C968 1.340 . S
C967 H999 0.951 . S
C968 C967 1.340 . S
C968 C969 1.439 . S
C968 H1000 0.950 . S
C969 N965 1.374 . S
C969 C968 1.439 . S
C969 C994 1.395 . S
N970 Co959 1.995 . S
N970 C971 1.376 . S
N970 C974 1.383 . S
C971 N970 1.376 . S
C971 C972 1.446 . S
C971 C994 1.391 . S
C972 C971 1.446 . S
C972 C973 1.339 . S
C972 H1001 0.949 . S
C973 C972 1.339 . S
C973 C974 1.439 . S
C973 H1002 0.950 . S
C974 N970 1.383 . S
C974 C973 1.439 . S
C974 C992 1.392 . S
N975 Co959 2.282 . S
N975 C978 1.332 . S
N975 C980 1.332 . S
C976 C977 1.386 . S
C976 C979 1.388 . S
C977 C976 1.386 . S
C977 C978 1.382 . S
C977 H1003 0.950 . S
C978 N975 1.332 . S
C978 C977 1.382 . S
C978 H989 0.952 . S
C979 C976 1.388 . S
C979 C980 1.382 . S
C979 H1004 0.950 . S
C980 N975 1.332 . S
C980 C979 1.382 . S
C980 H990 0.948 . S
N981 Co959 2.282 . S
N981 C985 1.332 . S
N981 C986 1.332 . S
C982 C983 1.388 . S
C982 C986 1.382 . S
C982 H1005 0.950 . S
C983 C982 1.388 . S
C983 C984 1.386 . S
C984 C983 1.386 . S
C984 C985 1.382 . S
C984 H1006 0.950 . S
C985 N981 1.332 . S
C985 C984 1.382 . S
C985 H987 0.952 . S
C986 N981 1.332 . S
C986 C982 1.382 . S
C986 H988 0.948 . S
H987 C985 0.952 . S
H988 C986 0.948 . S
H989 C978 0.952 . S
H990 C980 0.948 . S
C991 C957 1.395 . S
C991 C961 1.391 . S
C992 C954 1.389 . S
C992 C974 1.392 . S
C993 C964 1.392 . S
C993 C966 1.389 . S
C994 C969 1.395 . S
C994 C971 1.391 . S
H995 C955 0.951 . S
H996 C956 0.950 . S
H997 C962 0.949 . S
H998 C963 0.950 . S
H999 C967 0.951 . S
H1000 C968 0.950 . S
H1001 C972 0.949 . S
H1002 C973 0.950 . S
H1003 C977 0.950 . S
H1004 C979 0.950 . S
H1005 C982 0.950 . S
H1006 C984 0.950 . S
C1007 C1008 1.443 . S
C1007 N1011 1.376 . S
C1007 C1045 1.389 . S
C1008 C1007 1.443 . S
C1008 C1009 1.340 . S
C1008 H1048 0.951 . S
C1009 C1008 1.340 . S
C1009 C1010 1.439 . S
C1009 H1049 0.950 . S
C1010 C1009 1.439 . S
C1010 N1011 1.374 . S
C1010 C1044 1.395 . S
N1011 C1007 1.376 . S
N1011 C1010 1.374 . S
N1011 Co1012 2.008 . S
Co1012 N1011 2.008 . S
Co1012 N1013 1.995 . S
Co1012 N1018 2.008 . S
Co1012 N1023 1.995 . S
Co1012 N1028 2.282 . S
Co1012 N1034 2.282 . S
N1013 Co1012 1.995 . S
N1013 C1014 1.376 . S
N1013 C1017 1.383 . S
C1014 N1013 1.376 . S
C1014 C1015 1.446 . S
C1014 C1044 1.391 . S
C1015 C1014 1.446 . S
C1015 C1016 1.339 . S
C1015 H1050 0.949 . S
C1016 C1015 1.339 . S
C1016 C1017 1.439 . S
C1016 H1051 0.950 . S
C1017 N1013 1.383 . S
C1017 C1016 1.439 . S
C1017 C1046 1.392 . S
N1018 Co1012 2.008 . S
N1018 C1019 1.376 . S
N1018 C1022 1.374 . S
C1019 N1018 1.376 . S
C1019 C1020 1.443 . S
C1019 C1046 1.389 . S
C1020 C1019 1.443 . S
C1020 C1021 1.340 . S
C1020 H1052 0.951 . S
C1021 C1020 1.340 . S
C1021 C1022 1.439 . S
C1021 H1053 0.950 . S
C1022 N1018 1.374 . S
C1022 C1021 1.439 . S
C1022 C1047 1.395 . S
N1023 Co1012 1.995 . S
N1023 C1024 1.376 . S
N1023 C1027 1.383 . S
C1024 N1023 1.376 . S
C1024 C1025 1.446 . S
C1024 C1047 1.391 . S
C1025 C1024 1.446 . S
C1025 C1026 1.339 . S
C1025 H1054 0.949 . S
C1026 C1025 1.339 . S
C1026 C1027 1.439 . S
C1026 H1055 0.950 . S
C1027 N1023 1.383 . S
C1027 C1026 1.439 . S
C1027 C1045 1.392 . S
N1028 Co1012 2.282 . S
N1028 C1031 1.332 . S
N1028 C1033 1.332 . S
C1029 C1030 1.386 . S
C1029 C1032 1.388 . S
C1030 C1029 1.386 . S
C1030 C1031 1.382 . S
C1030 H1056 0.950 . S
C1031 N1028 1.332 . S
C1031 C1030 1.382 . S
C1031 H1042 0.952 . S
C1032 C1029 1.388 . S
C1032 C1033 1.382 . S
C1032 H1057 0.950 . S
C1033 N1028 1.332 . S
C1033 C1032 1.382 . S
C1033 H1043 0.948 . S
N1034 Co1012 2.282 . S
N1034 C1038 1.332 . S
N1034 C1039 1.332 . S
C1035 C1036 1.388 . S
C1035 C1039 1.382 . S
C1035 H1058 0.950 . S
C1036 C1035 1.388 . S
C1036 C1037 1.386 . S
C1037 C1036 1.386 . S
C1037 C1038 1.382 . S
C1037 H1059 0.950 . S
C1038 N1034 1.332 . S
C1038 C1037 1.382 . S
C1038 H1040 0.952 . S
C1039 N1034 1.332 . S
C1039 C1035 1.382 . S
C1039 H1041 0.948 . S
H1040 C1038 0.952 . S
H1041 C1039 0.948 . S
H1042 C1031 0.952 . S
H1043 C1033 0.948 . S
C1044 C1010 1.395 . S
C1044 C1014 1.391 . S
C1045 C1007 1.389 . S
C1045 C1027 1.392 . S
C1046 C1017 1.392 . S
C1046 C1019 1.389 . S
C1047 C1022 1.395 . S
C1047 C1024 1.391 . S
H1048 C1008 0.951 . S
H1049 C1009 0.950 . S
H1050 C1015 0.949 . S
H1051 C1016 0.950 . S
H1052 C1020 0.951 . S
H1053 C1021 0.950 . S
H1054 C1025 0.949 . S
H1055 C1026 0.950 . S
H1056 C1030 0.950 . S
H1057 C1032 0.950 . S
H1058 C1035 0.950 . S
H1059 C1037 0.950 . S
C1060 C1061 1.443 . S
C1060 N1064 1.376 . S
C1060 C1098 1.389 . S
C1061 C1060 1.443 . S
C1061 C1062 1.340 . S
C1061 H1101 0.951 . S
C1062 C1061 1.340 . S
C1062 C1063 1.439 . S
C1062 H1102 0.950 . S
C1063 C1062 1.439 . S
C1063 N1064 1.374 . S
C1063 C1097 1.395 . S
N1064 C1060 1.376 . S
N1064 C1063 1.374 . S
N1064 Co1065 2.008 . S
Co1065 N1064 2.008 . S
Co1065 N1066 1.995 . S
Co1065 N1071 2.008 . S
Co1065 N1076 1.995 . S
Co1065 N1081 2.282 . S
Co1065 N1087 2.282 . S
N1066 Co1065 1.995 . S
N1066 C1067 1.376 . S
N1066 C1070 1.383 . S
C1067 N1066 1.376 . S
C1067 C1068 1.446 . S
C1067 C1097 1.391 . S
C1068 C1067 1.446 . S
C1068 C1069 1.339 . S
C1068 H1103 0.949 . S
C1069 C1068 1.339 . S
C1069 C1070 1.439 . S
C1069 H1104 0.950 . S
C1070 N1066 1.383 . S
C1070 C1069 1.439 . S
C1070 C1099 1.392 . S
N1071 Co1065 2.008 . S
N1071 C1072 1.376 . S
N1071 C1075 1.374 . S
C1072 N1071 1.376 . S
C1072 C1073 1.443 . S
C1072 C1099 1.389 . S
C1073 C1072 1.443 . S
C1073 C1074 1.340 . S
C1073 H1105 0.951 . S
C1074 C1073 1.340 . S
C1074 C1075 1.439 . S
C1074 H1106 0.950 . S
C1075 N1071 1.374 . S
C1075 C1074 1.439 . S
C1075 C1100 1.395 . S
N1076 Co1065 1.995 . S
N1076 C1077 1.376 . S
N1076 C1080 1.383 . S
C1077 N1076 1.376 . S
C1077 C1078 1.446 . S
C1077 C1100 1.391 . S
C1078 C1077 1.446 . S
C1078 C1079 1.339 . S
C1078 H1107 0.949 . S
C1079 C1078 1.339 . S
C1079 C1080 1.439 . S
C1079 H1108 0.950 . S
C1080 N1076 1.383 . S
C1080 C1079 1.439 . S
C1080 C1098 1.392 . S
N1081 Co1065 2.282 . S
N1081 C1084 1.332 . S
N1081 C1086 1.332 . S
C1082 C1083 1.386 . S
C1082 C1085 1.388 . S
C1083 C1082 1.386 . S
C1083 C1084 1.382 . S
C1083 H1109 0.950 . S
C1084 N1081 1.332 . S
C1084 C1083 1.382 . S
C1084 H1095 0.952 . S
C1085 C1082 1.388 . S
C1085 C1086 1.382 . S
C1085 H1110 0.950 . S
C1086 N1081 1.332 . S
C1086 C1085 1.382 . S
C1086 H1096 0.948 . S
N1087 Co1065 2.282 . S
N1087 C1091 1.332 . S
N1087 C1092 1.332 . S
C1088 C1089 1.388 . S
C1088 C1092 1.382 . S
C1088 H1111 0.950 . S
C1089 C1088 1.388 . S
C1089 C1090 1.386 . S
C1090 C1089 1.386 . S
C1090 C1091 1.382 . S
C1090 H1112 0.950 . S
C1091 N1087 1.332 . S
C1091 C1090 1.382 . S
C1091 H1093 0.952 . S
C1092 N1087 1.332 . S
C1092 C1088 1.382 . S
C1092 H1094 0.948 . S
H1093 C1091 0.952 . S
H1094 C1092 0.948 . S
H1095 C1084 0.952 . S
H1096 C1086 0.948 . S
C1097 C1063 1.395 . S
C1097 C1067 1.391 . S
C1098 C1060 1.389 . S
C1098 C1080 1.392 . S
C1099 C1070 1.392 . S
C1099 C1072 1.389 . S
C1100 C1075 1.395 . S
C1100 C1077 1.391 . S
H1101 C1061 0.951 . S
H1102 C1062 0.950 . S
H1103 C1068 0.949 . S
H1104 C1069 0.950 . S
H1105 C1073 0.951 . S
H1106 C1074 0.950 . S
H1107 C1078 0.949 . S
H1108 C1079 0.950 . S
H1109 C1083 0.950 . S
H1110 C1085 0.950 . S
H1111 C1088 0.950 . S
H1112 C1090 0.950 . S
C1113 C1114 1.443 . S
C1113 N1117 1.376 . S
C1113 C1151 1.389 . S
C1114 C1113 1.443 . S
C1114 C1115 1.340 . S
C1114 H1154 0.951 . S
C1115 C1114 1.340 . S
C1115 C1116 1.439 . S
C1115 H1155 0.950 . S
C1116 C1115 1.439 . S
C1116 N1117 1.374 . S
C1116 C1150 1.395 . S
N1117 C1113 1.376 . S
N1117 C1116 1.374 . S
N1117 Co1118 2.008 . S
Co1118 N1117 2.008 . S
Co1118 N1119 1.995 . S
Co1118 N1124 2.008 . S
Co1118 N1129 1.995 . S
Co1118 N1134 2.282 . S
Co1118 N1140 2.282 . S
N1119 Co1118 1.995 . S
N1119 C1120 1.376 . S
N1119 C1123 1.383 . S
C1120 N1119 1.376 . S
C1120 C1121 1.446 . S
C1120 C1150 1.391 . S
C1121 C1120 1.446 . S
C1121 C1122 1.339 . S
C1121 H1156 0.949 . S
C1122 C1121 1.339 . S
C1122 C1123 1.439 . S
C1122 H1157 0.950 . S
C1123 N1119 1.383 . S
C1123 C1122 1.439 . S
C1123 C1152 1.392 . S
N1124 Co1118 2.008 . S
N1124 C1125 1.376 . S
N1124 C1128 1.374 . S
C1125 N1124 1.376 . S
C1125 C1126 1.443 . S
C1125 C1152 1.389 . S
C1126 C1125 1.443 . S
C1126 C1127 1.340 . S
C1126 H1158 0.951 . S
C1127 C1126 1.340 . S
C1127 C1128 1.439 . S
C1127 H1159 0.950 . S
C1128 N1124 1.374 . S
C1128 C1127 1.439 . S
C1128 C1153 1.395 . S
N1129 Co1118 1.995 . S
N1129 C1130 1.376 . S
N1129 C1133 1.383 . S
C1130 N1129 1.376 . S
C1130 C1131 1.446 . S
C1130 C1153 1.391 . S
C1131 C1130 1.446 . S
C1131 C1132 1.339 . S
C1131 H1160 0.949 . S
C1132 C1131 1.339 . S
C1132 C1133 1.439 . S
C1132 H1161 0.950 . S
C1133 N1129 1.383 . S
C1133 C1132 1.439 . S
C1133 C1151 1.392 . S
N1134 Co1118 2.282 . S
N1134 C1137 1.332 . S
N1134 C1139 1.332 . S
C1135 C1136 1.386 . S
C1135 C1138 1.388 . S
C1136 C1135 1.386 . S
C1136 C1137 1.382 . S
C1136 H1162 0.950 . S
C1137 N1134 1.332 . S
C1137 C1136 1.382 . S
C1137 H1148 0.952 . S
C1138 C1135 1.388 . S
C1138 C1139 1.382 . S
C1138 H1163 0.950 . S
C1139 N1134 1.332 . S
C1139 C1138 1.382 . S
C1139 H1149 0.948 . S
N1140 Co1118 2.282 . S
N1140 C1144 1.332 . S
N1140 C1145 1.332 . S
C1141 C1142 1.388 . S
C1141 C1145 1.382 . S
C1141 H1164 0.950 . S
C1142 C1141 1.388 . S
C1142 C1143 1.386 . S
C1143 C1142 1.386 . S
C1143 C1144 1.382 . S
C1143 H1165 0.950 . S
C1144 N1140 1.332 . S
C1144 C1143 1.382 . S
C1144 H1146 0.952 . S
C1145 N1140 1.332 . S
C1145 C1141 1.382 . S
C1145 H1147 0.948 . S
H1146 C1144 0.952 . S
H1147 C1145 0.948 . S
H1148 C1137 0.952 . S
H1149 C1139 0.948 . S
C1150 C1116 1.395 . S
C1150 C1120 1.391 . S
C1151 C1113 1.389 . S
C1151 C1133 1.392 . S
C1152 C1123 1.392 . S
C1152 C1125 1.389 . S
C1153 C1128 1.395 . S
C1153 C1130 1.391 . S
H1154 C1114 0.951 . S
H1155 C1115 0.950 . S
H1156 C1121 0.949 . S
H1157 C1122 0.950 . S
H1158 C1126 0.951 . S
H1159 C1127 0.950 . S
H1160 C1131 0.949 . S
H1161 C1132 0.950 . S
H1162 C1136 0.950 . S
H1163 C1138 0.950 . S
H1164 C1141 0.950 . S
H1165 C1143 0.950 . S
C1166 C1167 1.443 . S
C1166 N1170 1.376 . S
C1166 C1204 1.389 . S
C1167 C1166 1.443 . S
C1167 C1168 1.340 . S
C1167 H1207 0.951 . S
C1168 C1167 1.340 . S
C1168 C1169 1.439 . S
C1168 H1208 0.950 . S
C1169 C1168 1.439 . S
C1169 N1170 1.374 . S
C1169 C1203 1.395 . S
N1170 C1166 1.376 . S
N1170 C1169 1.374 . S
N1170 Co1171 2.008 . S
Co1171 N1170 2.008 . S
Co1171 N1172 1.995 . S
Co1171 N1177 2.008 . S
Co1171 N1182 1.995 . S
Co1171 N1187 2.282 . S
Co1171 N1193 2.282 . S
N1172 Co1171 1.995 . S
N1172 C1173 1.376 . S
N1172 C1176 1.383 . S
C1173 N1172 1.376 . S
C1173 C1174 1.446 . S
C1173 C1203 1.391 . S
C1174 C1173 1.446 . S
C1174 C1175 1.339 . S
C1174 H1209 0.949 . S
C1175 C1174 1.339 . S
C1175 C1176 1.439 . S
C1175 H1210 0.950 . S
C1176 N1172 1.383 . S
C1176 C1175 1.439 . S
C1176 C1205 1.392 . S
N1177 Co1171 2.008 . S
N1177 C1178 1.376 . S
N1177 C1181 1.374 . S
C1178 N1177 1.376 . S
C1178 C1179 1.443 . S
C1178 C1205 1.389 . S
C1179 C1178 1.443 . S
C1179 C1180 1.340 . S
C1179 H1211 0.951 . S
C1180 C1179 1.340 . S
C1180 C1181 1.439 . S
C1180 H1212 0.950 . S
C1181 N1177 1.374 . S
C1181 C1180 1.439 . S
C1181 C1206 1.395 . S
N1182 Co1171 1.995 . S
N1182 C1183 1.376 . S
N1182 C1186 1.383 . S
C1183 N1182 1.376 . S
C1183 C1184 1.446 . S
C1183 C1206 1.391 . S
C1184 C1183 1.446 . S
C1184 C1185 1.339 . S
C1184 H1213 0.949 . S
C1185 C1184 1.339 . S
C1185 C1186 1.439 . S
C1185 H1214 0.950 . S
C1186 N1182 1.383 . S
C1186 C1185 1.439 . S
C1186 C1204 1.392 . S
N1187 Co1171 2.282 . S
N1187 C1190 1.332 . S
N1187 C1192 1.332 . S
C1188 C1189 1.386 . S
C1188 C1191 1.388 . S
C1189 C1188 1.386 . S
C1189 C1190 1.382 . S
C1189 H1215 0.950 . S
C1190 N1187 1.332 . S
C1190 C1189 1.382 . S
C1190 H1201 0.952 . S
C1191 C1188 1.388 . S
C1191 C1192 1.382 . S
C1191 H1216 0.950 . S
C1192 N1187 1.332 . S
C1192 C1191 1.382 . S
C1192 H1202 0.948 . S
N1193 Co1171 2.282 . S
N1193 C1197 1.332 . S
N1193 C1198 1.332 . S
C1194 C1195 1.388 . S
C1194 C1198 1.382 . S
C1194 H1217 0.950 . S
C1195 C1194 1.388 . S
C1195 C1196 1.386 . S
C1196 C1195 1.386 . S
C1196 C1197 1.382 . S
C1196 H1218 0.950 . S
C1197 N1193 1.332 . S
C1197 C1196 1.382 . S
C1197 H1199 0.952 . S
C1198 N1193 1.332 . S
C1198 C1194 1.382 . S
C1198 H1200 0.948 . S
H1199 C1197 0.952 . S
H1200 C1198 0.948 . S
H1201 C1190 0.952 . S
H1202 C1192 0.948 . S
C1203 C1169 1.395 . S
C1203 C1173 1.391 . S
C1204 C1166 1.389 . S
C1204 C1186 1.392 . S
C1205 C1176 1.392 . S
C1205 C1178 1.389 . S
C1206 C1181 1.395 . S
C1206 C1183 1.391 . S
H1207 C1167 0.951 . S
H1208 C1168 0.950 . S
H1209 C1174 0.949 . S
H1210 C1175 0.950 . S
H1211 C1179 0.951 . S
H1212 C1180 0.950 . S
H1213 C1184 0.949 . S
H1214 C1185 0.950 . S
H1215 C1189 0.950 . S
H1216 C1191 0.950 . S
H1217 C1194 0.950 . S
H1218 C1196 0.950 . S
C1219 C1220 1.443 . S
C1219 N1223 1.376 . S
C1219 C1257 1.389 . S
C1220 C1219 1.443 . S
C1220 C1221 1.340 . S
C1220 H1260 0.951 . S
C1221 C1220 1.340 . S
C1221 C1222 1.439 . S
C1221 H1261 0.950 . S
C1222 C1221 1.439 . S
C1222 N1223 1.374 . S
C1222 C1256 1.395 . S
N1223 C1219 1.376 . S
N1223 C1222 1.374 . S
N1223 Co1224 2.008 . S
Co1224 N1223 2.008 . S
Co1224 N1225 1.995 . S
Co1224 N1230 2.008 . S
Co1224 N1235 1.995 . S
Co1224 N1240 2.282 . S
Co1224 N1246 2.282 . S
N1225 Co1224 1.995 . S
N1225 C1226 1.376 . S
N1225 C1229 1.383 . S
C1226 N1225 1.376 . S
C1226 C1227 1.446 . S
C1226 C1256 1.391 . S
C1227 C1226 1.446 . S
C1227 C1228 1.339 . S
C1227 H1262 0.949 . S
C1228 C1227 1.339 . S
C1228 C1229 1.439 . S
C1228 H1263 0.950 . S
C1229 N1225 1.383 . S
C1229 C1228 1.439 . S
C1229 C1258 1.392 . S
N1230 Co1224 2.008 . S
N1230 C1231 1.376 . S
N1230 C1234 1.374 . S
C1231 N1230 1.376 . S
C1231 C1232 1.443 . S
C1231 C1258 1.389 . S
C1232 C1231 1.443 . S
C1232 C1233 1.340 . S
C1232 H1264 0.951 . S
C1233 C1232 1.340 . S
C1233 C1234 1.439 . S
C1233 H1265 0.950 . S
C1234 N1230 1.374 . S
C1234 C1233 1.439 . S
C1234 C1259 1.395 . S
N1235 Co1224 1.995 . S
N1235 C1236 1.376 . S
N1235 C1239 1.383 . S
C1236 N1235 1.376 . S
C1236 C1237 1.446 . S
C1236 C1259 1.391 . S
C1237 C1236 1.446 . S
C1237 C1238 1.339 . S
C1237 H1266 0.949 . S
C1238 C1237 1.339 . S
C1238 C1239 1.439 . S
C1238 H1267 0.950 . S
C1239 N1235 1.383 . S
C1239 C1238 1.439 . S
C1239 C1257 1.392 . S
N1240 Co1224 2.282 . S
N1240 C1243 1.332 . S
N1240 C1245 1.332 . S
C1241 C1242 1.386 . S
C1241 C1244 1.388 . S
C1242 C1241 1.386 . S
C1242 C1243 1.382 . S
C1242 H1268 0.950 . S
C1243 N1240 1.332 . S
C1243 C1242 1.382 . S
C1243 H1254 0.952 . S
C1244 C1241 1.388 . S
C1244 C1245 1.382 . S
C1244 H1269 0.950 . S
C1245 N1240 1.332 . S
C1245 C1244 1.382 . S
C1245 H1255 0.948 . S
N1246 Co1224 2.282 . S
N1246 C1250 1.332 . S
N1246 C1251 1.332 . S
C1247 C1248 1.388 . S
C1247 C1251 1.382 . S
C1247 H1270 0.950 . S
C1248 C1247 1.388 . S
C1248 C1249 1.386 . S
C1249 C1248 1.386 . S
C1249 C1250 1.382 . S
C1249 H1271 0.950 . S
C1250 N1246 1.332 . S
C1250 C1249 1.382 . S
C1250 H1252 0.952 . S
C1251 N1246 1.332 . S
C1251 C1247 1.382 . S
C1251 H1253 0.948 . S
H1252 C1250 0.952 . S
H1253 C1251 0.948 . S
H1254 C1243 0.952 . S
H1255 C1245 0.948 . S
C1256 C1222 1.395 . S
C1256 C1226 1.391 . S
C1257 C1219 1.389 . S
C1257 C1239 1.392 . S
C1258 C1229 1.392 . S
C1258 C1231 1.389 . S
C1259 C1234 1.395 . S
C1259 C1236 1.391 . S
H1260 C1220 0.951 . S
H1261 C1221 0.950 . S
H1262 C1227 0.949 . S
H1263 C1228 0.950 . S
H1264 C1232 0.951 . S
H1265 C1233 0.950 . S
H1266 C1237 0.949 . S
H1267 C1238 0.950 . S
H1268 C1242 0.950 . S
H1269 C1244 0.950 . S
H1270 C1247 0.950 . S
H1271 C1249 0.950 . S
H1272 C1290 0.951 . S
H1273 C1292 0.951 . S
H1274 C1294 0.950 . S
H1275 C1295 0.950 . S
H1276 C1297 0.950 . S
H1277 C1300 0.950 . S
H1278 C1301 0.950 . S
H1279 C1303 0.950 . S
H1280 C1304 0.950 . S
H1281 C1305 0.951 . S
H1282 C1307 0.951 . S
H1283 C1309 0.950 . S
H1284 C1310 0.950 . S
H1285 C1312 0.950 . S
H1286 C1315 0.950 . S
H1287 C1316 0.950 . S
H1288 C1318 0.950 . S
H1289 C1319 0.950 . S
C1290 H1272 0.951 . S
C1290 C1291 1.366 . S
C1290 C1292 1.388 . S
C1291 C1290 1.366 . S
C1291 C1295 1.385 . S
C1292 H1273 0.951 . S
C1292 C1290 1.388 . S
C1292 C1293 1.366 . S
C1293 C1292 1.366 . S
C1293 C1294 1.414 . S
C1293 C1296 1.499 . S
C1294 H1274 0.950 . S
C1294 C1293 1.414 . S
C1294 C1295 1.374 . S
C1295 H1275 0.950 . S
C1295 C1291 1.385 . S
C1295 C1294 1.374 . S
C1296 C1293 1.499 . S
C1296 C1297 1.373 . S
C1296 C1298 1.389 . S
C1297 H1276 0.950 . S
C1297 C1296 1.373 . S
C1297 C1313 1.377 . S
C1298 C1296 1.389 . S
C1298 C1299 1.524 . S
C1298 C1312 1.377 . S
C1299 C1298 1.524 . S
C1299 C1300 1.397 . S
C1299 C1304 1.363 . S
C1300 H1277 0.950 . S
C1300 C1299 1.397 . S
C1300 C1301 1.334 . S
C1301 H1278 0.950 . S
C1301 C1300 1.334 . S
C1301 C1302 1.287 . S
C1302 C1301 1.287 . S
C1302 C1303 1.524 . S
C1302 H1321 0.913 . S
C1303 H1279 0.950 . S
C1303 C1302 1.524 . S
C1303 C1304 1.415 . S
C1304 H1280 0.950 . S
C1304 C1299 1.363 . S
C1304 C1303 1.415 . S
C1305 H1281 0.951 . S
C1305 C1306 1.366 . S
C1305 C1307 1.388 . S
C1306 C1305 1.366 . S
C1306 C1310 1.385 . S
C1307 H1282 0.951 . S
C1307 C1305 1.388 . S
C1307 C1308 1.366 . S
C1308 C1307 1.366 . S
C1308 C1309 1.414 . S
C1308 C1311 1.499 . S
C1309 H1283 0.950 . S
C1309 C1308 1.414 . S
C1309 C1310 1.374 . S
C1310 H1284 0.950 . S
C1310 C1306 1.385 . S
C1310 C1309 1.374 . S
C1311 C1308 1.499 . S
C1311 C1312 1.373 . S
C1311 C1313 1.389 . S
C1312 H1285 0.950 . S
C1312 C1298 1.377 . S
C1312 C1311 1.373 . S
C1313 C1297 1.377 . S
C1313 C1311 1.389 . S
C1313 C1314 1.524 . S
C1314 C1313 1.524 . S
C1314 C1315 1.397 . S
C1314 C1319 1.363 . S
C1315 H1286 0.950 . S
C1315 C1314 1.397 . S
C1315 C1316 1.334 . S
C1316 H1287 0.950 . S
C1316 C1315 1.334 . S
C1316 C1317 1.287 . S
C1317 C1316 1.287 . S
C1317 C1318 1.524 . S
C1317 H1320 0.999 . S
C1318 H1288 0.950 . S
C1318 C1317 1.524 . S
C1318 C1319 1.415 . S
C1319 H1289 0.950 . S
C1319 C1314 1.363 . S
C1319 C1318 1.415 . S
H1320 C1317 0.999 . S
H1321 C1302 0.913 . S
H1322 C1340 0.951 . S
H1323 C1342 0.951 . S
H1324 C1344 0.950 . S
H1325 C1345 0.950 . S
H1326 C1347 0.950 . S
H1327 C1350 0.950 . S
H1328 C1351 0.950 . S
H1329 C1353 0.950 . S
H1330 C1354 0.950 . S
H1331 C1355 0.951 . S
H1332 C1357 0.951 . S
H1333 C1359 0.950 . S
H1334 C1360 0.950 . S
H1335 C1362 0.950 . S
H1336 C1365 0.950 . S
H1337 C1366 0.950 . S
H1338 C1368 0.950 . S
H1339 C1369 0.950 . S
C1340 H1322 0.951 . S
C1340 C1341 1.366 . S
C1340 C1342 1.388 . S
C1341 C1340 1.366 . S
C1341 C1345 1.385 . S
C1342 H1323 0.951 . S
C1342 C1340 1.388 . S
C1342 C1343 1.366 . S
C1343 C1342 1.366 . S
C1343 C1344 1.414 . S
C1343 C1346 1.499 . S
C1344 H1324 0.950 . S
C1344 C1343 1.414 . S
C1344 C1345 1.374 . S
C1345 H1325 0.950 . S
C1345 C1341 1.385 . S
C1345 C1344 1.374 . S
C1346 C1343 1.499 . S
C1346 C1347 1.373 . S
C1346 C1348 1.389 . S
C1347 H1326 0.950 . S
C1347 C1346 1.373 . S
C1347 C1363 1.377 . S
C1348 C1346 1.389 . S
C1348 C1349 1.524 . S
C1348 C1362 1.377 . S
C1349 C1348 1.524 . S
C1349 C1350 1.397 . S
C1349 C1354 1.363 . S
C1350 H1327 0.950 . S
C1350 C1349 1.397 . S
C1350 C1351 1.334 . S
C1351 H1328 0.950 . S
C1351 C1350 1.334 . S
C1351 C1352 1.287 . S
C1352 C1351 1.287 . S
C1352 C1353 1.524 . S
C1352 H1371 0.913 . S
C1353 H1329 0.950 . S
C1353 C1352 1.524 . S
C1353 C1354 1.415 . S
C1354 H1330 0.950 . S
C1354 C1349 1.363 . S
C1354 C1353 1.415 . S
C1355 H1331 0.951 . S
C1355 C1356 1.366 . S
C1355 C1357 1.388 . S
C1356 C1355 1.366 . S
C1356 C1360 1.385 . S
C1357 H1332 0.951 . S
C1357 C1355 1.388 . S
C1357 C1358 1.366 . S
C1358 C1357 1.366 . S
C1358 C1359 1.414 . S
C1358 C1361 1.499 . S
C1359 H1333 0.950 . S
C1359 C1358 1.414 . S
C1359 C1360 1.374 . S
C1360 H1334 0.950 . S
C1360 C1356 1.385 . S
C1360 C1359 1.374 . S
C1361 C1358 1.499 . S
C1361 C1362 1.373 . S
C1361 C1363 1.389 . S
C1362 H1335 0.950 . S
C1362 C1348 1.377 . S
C1362 C1361 1.373 . S
C1363 C1347 1.377 . S
C1363 C1361 1.389 . S
C1363 C1364 1.524 . S
C1364 C1363 1.524 . S
C1364 C1365 1.397 . S
C1364 C1369 1.363 . S
C1365 H1336 0.950 . S
C1365 C1364 1.397 . S
C1365 C1366 1.334 . S
C1366 H1337 0.950 . S
C1366 C1365 1.334 . S
C1366 C1367 1.287 . S
C1367 C1366 1.287 . S
C1367 C1368 1.524 . S
C1367 H1370 0.999 . S
C1368 H1338 0.950 . S
C1368 C1367 1.524 . S
C1368 C1369 1.415 . S
C1369 H1339 0.950 . S
C1369 C1364 1.363 . S
C1369 C1368 1.415 . S
H1370 C1367 0.999 . S
H1371 C1352 0.913 . S
H1372 C1390 0.951 . S
H1373 C1392 0.951 . S
H1374 C1394 0.950 . S
H1375 C1395 0.950 . S
H1376 C1397 0.950 . S
H1377 C1400 0.950 . S
H1378 C1401 0.950 . S
H1379 C1403 0.950 . S
H1380 C1404 0.950 . S
H1381 C1405 0.951 . S
H1382 C1407 0.951 . S
H1383 C1409 0.950 . S
H1384 C1410 0.950 . S
H1385 C1412 0.950 . S
H1386 C1415 0.950 . S
H1387 C1416 0.950 . S
H1388 C1418 0.950 . S
H1389 C1419 0.950 . S
C1390 H1372 0.951 . S
C1390 C1391 1.366 . S
C1390 C1392 1.388 . S
C1391 C1390 1.366 . S
C1391 C1395 1.385 . S
C1392 H1373 0.951 . S
C1392 C1390 1.388 . S
C1392 C1393 1.366 . S
C1393 C1392 1.366 . S
C1393 C1394 1.414 . S
C1393 C1396 1.499 . S
C1394 H1374 0.950 . S
C1394 C1393 1.414 . S
C1394 C1395 1.374 . S
C1395 H1375 0.950 . S
C1395 C1391 1.385 . S
C1395 C1394 1.374 . S
C1396 C1393 1.499 . S
C1396 C1397 1.373 . S
C1396 C1398 1.389 . S
C1397 H1376 0.950 . S
C1397 C1396 1.373 . S
C1397 C1413 1.377 . S
C1398 C1396 1.389 . S
C1398 C1399 1.524 . S
C1398 C1412 1.377 . S
C1399 C1398 1.524 . S
C1399 C1400 1.397 . S
C1399 C1404 1.363 . S
C1400 H1377 0.950 . S
C1400 C1399 1.397 . S
C1400 C1401 1.334 . S
C1401 H1378 0.950 . S
C1401 C1400 1.334 . S
C1401 C1402 1.287 . S
C1402 C1401 1.287 . S
C1402 C1403 1.524 . S
C1402 H1421 0.913 . S
C1403 H1379 0.950 . S
C1403 C1402 1.524 . S
C1403 C1404 1.415 . S
C1404 H1380 0.950 . S
C1404 C1399 1.363 . S
C1404 C1403 1.415 . S
C1405 H1381 0.951 . S
C1405 C1406 1.366 . S
C1405 C1407 1.388 . S
C1406 C1405 1.366 . S
C1406 C1410 1.385 . S
C1407 H1382 0.951 . S
C1407 C1405 1.388 . S
C1407 C1408 1.366 . S
C1408 C1407 1.366 . S
C1408 C1409 1.414 . S
C1408 C1411 1.499 . S
C1409 H1383 0.950 . S
C1409 C1408 1.414 . S
C1409 C1410 1.374 . S
C1410 H1384 0.950 . S
C1410 C1406 1.385 . S
C1410 C1409 1.374 . S
C1411 C1408 1.499 . S
C1411 C1412 1.373 . S
C1411 C1413 1.389 . S
C1412 H1385 0.950 . S
C1412 C1398 1.377 . S
C1412 C1411 1.373 . S
C1413 C1397 1.377 . S
C1413 C1411 1.389 . S
C1413 C1414 1.524 . S
C1414 C1413 1.524 . S
C1414 C1415 1.397 . S
C1414 C1419 1.363 . S
C1415 H1386 0.950 . S
C1415 C1414 1.397 . S
C1415 C1416 1.334 . S
C1416 H1387 0.950 . S
C1416 C1415 1.334 . S
C1416 C1417 1.287 . S
C1417 C1416 1.287 . S
C1417 C1418 1.524 . S
C1417 H1420 0.999 . S
C1418 H1388 0.950 . S
C1418 C1417 1.524 . S
C1418 C1419 1.415 . S
C1419 H1389 0.950 . S
C1419 C1414 1.363 . S
C1419 C1418 1.415 . S
H1420 C1417 0.999 . S
H1421 C1402 0.913 . S
H1422 C1440 0.951 . S
H1423 C1442 0.951 . S
H1424 C1444 0.950 . S
H1425 C1445 0.950 . S
H1426 C1447 0.950 . S
H1427 C1450 0.950 . S
H1428 C1451 0.950 . S
H1429 C1453 0.950 . S
H1430 C1454 0.950 . S
H1431 C1455 0.951 . S
H1432 C1457 0.951 . S
H1433 C1459 0.950 . S
H1434 C1460 0.950 . S
H1435 C1462 0.950 . S
H1436 C1465 0.950 . S
H1437 C1466 0.950 . S
H1438 C1468 0.950 . S
H1439 C1469 0.950 . S
C1440 H1422 0.951 . S
C1440 C1441 1.366 . S
C1440 C1442 1.388 . S
C1441 C1440 1.366 . S
C1441 C1445 1.385 . S
C1442 H1423 0.951 . S
C1442 C1440 1.388 . S
C1442 C1443 1.366 . S
C1443 C1442 1.366 . S
C1443 C1444 1.414 . S
C1443 C1446 1.499 . S
C1444 H1424 0.950 . S
C1444 C1443 1.414 . S
C1444 C1445 1.374 . S
C1445 H1425 0.950 . S
C1445 C1441 1.385 . S
C1445 C1444 1.374 . S
C1446 C1443 1.499 . S
C1446 C1447 1.373 . S
C1446 C1448 1.389 . S
C1447 H1426 0.950 . S
C1447 C1446 1.373 . S
C1447 C1463 1.377 . S
C1448 C1446 1.389 . S
C1448 C1449 1.524 . S
C1448 C1462 1.377 . S
C1449 C1448 1.524 . S
C1449 C1450 1.397 . S
C1449 C1454 1.363 . S
C1450 H1427 0.950 . S
C1450 C1449 1.397 . S
C1450 C1451 1.334 . S
C1451 H1428 0.950 . S
C1451 C1450 1.334 . S
C1451 C1452 1.287 . S
C1452 C1451 1.287 . S
C1452 C1453 1.524 . S
C1452 H1471 0.913 . S
C1453 H1429 0.950 . S
C1453 C1452 1.524 . S
C1453 C1454 1.415 . S
C1454 H1430 0.950 . S
C1454 C1449 1.363 . S
C1454 C1453 1.415 . S
C1455 H1431 0.951 . S
C1455 C1456 1.366 . S
C1455 C1457 1.388 . S
C1456 C1455 1.366 . S
C1456 C1460 1.385 . S
C1457 H1432 0.951 . S
C1457 C1455 1.388 . S
C1457 C1458 1.366 . S
C1458 C1457 1.366 . S
C1458 C1459 1.414 . S
C1458 C1461 1.499 . S
C1459 H1433 0.950 . S
C1459 C1458 1.414 . S
C1459 C1460 1.374 . S
C1460 H1434 0.950 . S
C1460 C1456 1.385 . S
C1460 C1459 1.374 . S
C1461 C1458 1.499 . S
C1461 C1462 1.373 . S
C1461 C1463 1.389 . S
C1462 H1435 0.950 . S
C1462 C1448 1.377 . S
C1462 C1461 1.373 . S
C1463 C1447 1.377 . S
C1463 C1461 1.389 . S
C1463 C1464 1.524 . S
C1464 C1463 1.524 . S
C1464 C1465 1.397 . S
C1464 C1469 1.363 . S
C1465 H1436 0.950 . S
C1465 C1464 1.397 . S
C1465 C1466 1.334 . S
C1466 H1437 0.950 . S
C1466 C1465 1.334 . S
C1466 C1467 1.287 . S
C1467 C1466 1.287 . S
C1467 C1468 1.524 . S
C1467 H1470 0.999 . S
C1468 H1438 0.950 . S
C1468 C1467 1.524 . S
C1468 C1469 1.415 . S
C1469 H1439 0.950 . S
C1469 C1464 1.363 . S
C1469 C1468 1.415 . S
H1470 C1467 0.999 . S
H1471 C1452 0.913 . S
H1472 C1490 0.951 . S
H1473 C1492 0.951 . S
H1474 C1494 0.950 . S
H1475 C1495 0.950 . S
H1476 C1497 0.950 . S
H1477 C1500 0.950 . S
H1478 C1501 0.950 . S
H1479 C1503 0.950 . S
H1480 C1504 0.950 . S
H1481 C1505 0.951 . S
H1482 C1507 0.951 . S
H1483 C1509 0.950 . S
H1484 C1510 0.950 . S
H1485 C1512 0.950 . S
H1486 C1515 0.950 . S
H1487 C1516 0.950 . S
H1488 C1518 0.950 . S
H1489 C1519 0.950 . S
C1490 H1472 0.951 . S
C1490 C1491 1.366 . S
C1490 C1492 1.388 . S
C1491 C1490 1.366 . S
C1491 C1495 1.385 . S
C1492 H1473 0.951 . S
C1492 C1490 1.388 . S
C1492 C1493 1.366 . S
C1493 C1492 1.366 . S
C1493 C1494 1.414 . S
C1493 C1496 1.499 . S
C1494 H1474 0.950 . S
C1494 C1493 1.414 . S
C1494 C1495 1.374 . S
C1495 H1475 0.950 . S
C1495 C1491 1.385 . S
C1495 C1494 1.374 . S
C1496 C1493 1.499 . S
C1496 C1497 1.373 . S
C1496 C1498 1.389 . S
C1497 H1476 0.950 . S
C1497 C1496 1.373 . S
C1497 C1513 1.377 . S
C1498 C1496 1.389 . S
C1498 C1499 1.524 . S
C1498 C1512 1.377 . S
C1499 C1498 1.524 . S
C1499 C1500 1.397 . S
C1499 C1504 1.363 . S
C1500 H1477 0.950 . S
C1500 C1499 1.397 . S
C1500 C1501 1.334 . S
C1501 H1478 0.950 . S
C1501 C1500 1.334 . S
C1501 C1502 1.287 . S
C1502 C1501 1.287 . S
C1502 C1503 1.524 . S
C1502 H1521 0.913 . S
C1503 H1479 0.950 . S
C1503 C1502 1.524 . S
C1503 C1504 1.415 . S
C1504 H1480 0.950 . S
C1504 C1499 1.363 . S
C1504 C1503 1.415 . S
C1505 H1481 0.951 . S
C1505 C1506 1.366 . S
C1505 C1507 1.388 . S
C1506 C1505 1.366 . S
C1506 C1510 1.385 . S
C1507 H1482 0.951 . S
C1507 C1505 1.388 . S
C1507 C1508 1.366 . S
C1508 C1507 1.366 . S
C1508 C1509 1.414 . S
C1508 C1511 1.499 . S
C1509 H1483 0.950 . S
C1509 C1508 1.414 . S
C1509 C1510 1.374 . S
C1510 H1484 0.950 . S
C1510 C1506 1.385 . S
C1510 C1509 1.374 . S
C1511 C1508 1.499 . S
C1511 C1512 1.373 . S
C1511 C1513 1.389 . S
C1512 H1485 0.950 . S
C1512 C1498 1.377 . S
C1512 C1511 1.373 . S
C1513 C1497 1.377 . S
C1513 C1511 1.389 . S
C1513 C1514 1.524 . S
C1514 C1513 1.524 . S
C1514 C1515 1.397 . S
C1514 C1519 1.363 . S
C1515 H1486 0.950 . S
C1515 C1514 1.397 . S
C1515 C1516 1.334 . S
C1516 H1487 0.950 . S
C1516 C1515 1.334 . S
C1516 C1517 1.287 . S
C1517 C1516 1.287 . S
C1517 C1518 1.524 . S
C1517 H1520 0.999 . S
C1518 H1488 0.950 . S
C1518 C1517 1.524 . S
C1518 C1519 1.415 . S
C1519 H1489 0.950 . S
C1519 C1514 1.363 . S
C1519 C1518 1.415 . S
H1520 C1517 0.999 . S
H1521 C1502 0.913 . S
H1522 C1540 0.951 . S
H1523 C1542 0.951 . S
H1524 C1544 0.950 . S
H1525 C1545 0.950 . S
H1526 C1547 0.950 . S
H1527 C1550 0.950 . S
H1528 C1551 0.950 . S
H1529 C1553 0.950 . S
H1530 C1554 0.950 . S
H1531 C1555 0.951 . S
H1532 C1557 0.951 . S
H1533 C1559 0.950 . S
H1534 C1560 0.950 . S
H1535 C1562 0.950 . S
H1536 C1565 0.950 . S
H1537 C1566 0.950 . S
H1538 C1568 0.950 . S
H1539 C1569 0.950 . S
C1540 H1522 0.951 . S
C1540 C1541 1.366 . S
C1540 C1542 1.388 . S
C1541 C1540 1.366 . S
C1541 C1545 1.385 . S
C1542 H1523 0.951 . S
C1542 C1540 1.388 . S
C1542 C1543 1.366 . S
C1543 C1542 1.366 . S
C1543 C1544 1.414 . S
C1543 C1546 1.499 . S
C1544 H1524 0.950 . S
C1544 C1543 1.414 . S
C1544 C1545 1.374 . S
C1545 H1525 0.950 . S
C1545 C1541 1.385 . S
C1545 C1544 1.374 . S
C1546 C1543 1.499 . S
C1546 C1547 1.373 . S
C1546 C1548 1.389 . S
C1547 H1526 0.950 . S
C1547 C1546 1.373 . S
C1547 C1563 1.377 . S
C1548 C1546 1.389 . S
C1548 C1549 1.524 . S
C1548 C1562 1.377 . S
C1549 C1548 1.524 . S
C1549 C1550 1.397 . S
C1549 C1554 1.363 . S
C1550 H1527 0.950 . S
C1550 C1549 1.397 . S
C1550 C1551 1.334 . S
C1551 H1528 0.950 . S
C1551 C1550 1.334 . S
C1551 C1552 1.287 . S
C1552 C1551 1.287 . S
C1552 C1553 1.524 . S
C1552 H1571 0.913 . S
C1553 H1529 0.950 . S
C1553 C1552 1.524 . S
C1553 C1554 1.415 . S
C1554 H1530 0.950 . S
C1554 C1549 1.363 . S
C1554 C1553 1.415 . S
C1555 H1531 0.951 . S
C1555 C1556 1.366 . S
C1555 C1557 1.388 . S
C1556 C1555 1.366 . S
C1556 C1560 1.385 . S
C1557 H1532 0.951 . S
C1557 C1555 1.388 . S
C1557 C1558 1.366 . S
C1558 C1557 1.366 . S
C1558 C1559 1.414 . S
C1558 C1561 1.499 . S
C1559 H1533 0.950 . S
C1559 C1558 1.414 . S
C1559 C1560 1.374 . S
C1560 H1534 0.950 . S
C1560 C1556 1.385 . S
C1560 C1559 1.374 . S
C1561 C1558 1.499 . S
C1561 C1562 1.373 . S
C1561 C1563 1.389 . S
C1562 H1535 0.950 . S
C1562 C1548 1.377 . S
C1562 C1561 1.373 . S
C1563 C1547 1.377 . S
C1563 C1561 1.389 . S
C1563 C1564 1.524 . S
C1564 C1563 1.524 . S
C1564 C1565 1.397 . S
C1564 C1569 1.363 . S
C1565 H1536 0.950 . S
C1565 C1564 1.397 . S
C1565 C1566 1.334 . S
C1566 H1537 0.950 . S
C1566 C1565 1.334 . S
C1566 C1567 1.287 . S
C1567 C1566 1.287 . S
C1567 C1568 1.524 . S
C1567 H1570 0.999 . S
C1568 H1538 0.950 . S
C1568 C1567 1.524 . S
C1568 C1569 1.415 . S
C1569 H1539 0.950 . S
C1569 C1564 1.363 . S
C1569 C1568 1.415 . S
H1570 C1567 0.999 . S
H1571 C1552 0.913 . S
H1572 C1590 0.951 . S
H1573 C1592 0.951 . S
H1574 C1594 0.950 . S
H1575 C1595 0.950 . S
H1576 C1597 0.950 . S
H1577 C1600 0.950 . S
H1578 C1601 0.950 . S
H1579 C1603 0.950 . S
H1580 C1604 0.950 . S
H1581 C1605 0.951 . S
H1582 C1607 0.951 . S
H1583 C1609 0.950 . S
H1584 C1610 0.950 . S
H1585 C1612 0.950 . S
H1586 C1615 0.950 . S
H1587 C1616 0.950 . S
H1588 C1618 0.950 . S
H1589 C1619 0.950 . S
C1590 H1572 0.951 . S
C1590 C1591 1.366 . S
C1590 C1592 1.388 . S
C1591 C1590 1.366 . S
C1591 C1595 1.385 . S
C1592 H1573 0.951 . S
C1592 C1590 1.388 . S
C1592 C1593 1.366 . S
C1593 C1592 1.366 . S
C1593 C1594 1.414 . S
C1593 C1596 1.499 . S
C1594 H1574 0.950 . S
C1594 C1593 1.414 . S
C1594 C1595 1.374 . S
C1595 H1575 0.950 . S
C1595 C1591 1.385 . S
C1595 C1594 1.374 . S
C1596 C1593 1.499 . S
C1596 C1597 1.373 . S
C1596 C1598 1.389 . S
C1597 H1576 0.950 . S
C1597 C1596 1.373 . S
C1597 C1613 1.377 . S
C1598 C1596 1.389 . S
C1598 C1599 1.524 . S
C1598 C1612 1.377 . S
C1599 C1598 1.524 . S
C1599 C1600 1.397 . S
C1599 C1604 1.363 . S
C1600 H1577 0.950 . S
C1600 C1599 1.397 . S
C1600 C1601 1.334 . S
C1601 H1578 0.950 . S
C1601 C1600 1.334 . S
C1601 C1602 1.287 . S
C1602 C1601 1.287 . S
C1602 C1603 1.524 . S
C1602 H1621 0.913 . S
C1603 H1579 0.950 . S
C1603 C1602 1.524 . S
C1603 C1604 1.415 . S
C1604 H1580 0.950 . S
C1604 C1599 1.363 . S
C1604 C1603 1.415 . S
C1605 H1581 0.951 . S
C1605 C1606 1.366 . S
C1605 C1607 1.388 . S
C1606 C1605 1.366 . S
C1606 C1610 1.385 . S
C1607 H1582 0.951 . S
C1607 C1605 1.388 . S
C1607 C1608 1.366 . S
C1608 C1607 1.366 . S
C1608 C1609 1.414 . S
C1608 C1611 1.499 . S
C1609 H1583 0.950 . S
C1609 C1608 1.414 . S
C1609 C1610 1.374 . S
C1610 H1584 0.950 . S
C1610 C1606 1.385 . S
C1610 C1609 1.374 . S
C1611 C1608 1.499 . S
C1611 C1612 1.373 . S
C1611 C1613 1.389 . S
C1612 H1585 0.950 . S
C1612 C1598 1.377 . S
C1612 C1611 1.373 . S
C1613 C1597 1.377 . S
C1613 C1611 1.389 . S
C1613 C1614 1.524 . S
C1614 C1613 1.524 . S
C1614 C1615 1.397 . S
C1614 C1619 1.363 . S
C1615 H1586 0.950 . S
C1615 C1614 1.397 . S
C1615 C1616 1.334 . S
C1616 H1587 0.950 . S
C1616 C1615 1.334 . S
C1616 C1617 1.287 . S
C1617 C1616 1.287 . S
C1617 C1618 1.524 . S
C1617 H1620 0.999 . S
C1618 H1588 0.950 . S
C1618 C1617 1.524 . S
C1618 C1619 1.415 . S
C1619 H1589 0.950 . S
C1619 C1614 1.363 . S
C1619 C1618 1.415 . S
H1620 C1617 0.999 . S
H1621 C1602 0.913 . S
H1622 C1640 0.951 . S
H1623 C1642 0.951 . S
H1624 C1644 0.950 . S
H1625 C1645 0.950 . S
H1626 C1647 0.950 . S
H1627 C1650 0.950 . S
H1628 C1651 0.950 . S
H1629 C1653 0.950 . S
H1630 C1654 0.950 . S
H1631 C1655 0.951 . S
H1632 C1657 0.951 . S
H1633 C1659 0.950 . S
H1634 C1660 0.950 . S
H1635 C1662 0.950 . S
H1636 C1665 0.950 . S
H1637 C1666 0.950 . S
H1638 C1668 0.950 . S
H1639 C1669 0.950 . S
C1640 H1622 0.951 . S
C1640 C1641 1.366 . S
C1640 C1642 1.388 . S
C1641 C1640 1.366 . S
C1641 C1645 1.385 . S
C1642 H1623 0.951 . S
C1642 C1640 1.388 . S
C1642 C1643 1.366 . S
C1643 C1642 1.366 . S
C1643 C1644 1.414 . S
C1643 C1646 1.499 . S
C1644 H1624 0.950 . S
C1644 C1643 1.414 . S
C1644 C1645 1.374 . S
C1645 H1625 0.950 . S
C1645 C1641 1.385 . S
C1645 C1644 1.374 . S
C1646 C1643 1.499 . S
C1646 C1647 1.373 . S
C1646 C1648 1.389 . S
C1647 H1626 0.950 . S
C1647 C1646 1.373 . S
C1647 C1663 1.377 . S
C1648 C1646 1.389 . S
C1648 C1649 1.524 . S
C1648 C1662 1.377 . S
C1649 C1648 1.524 . S
C1649 C1650 1.397 . S
C1649 C1654 1.363 . S
C1650 H1627 0.950 . S
C1650 C1649 1.397 . S
C1650 C1651 1.334 . S
C1651 H1628 0.950 . S
C1651 C1650 1.334 . S
C1651 C1652 1.287 . S
C1652 C1651 1.287 . S
C1652 C1653 1.524 . S
C1652 H1671 0.913 . S
C1653 H1629 0.950 . S
C1653 C1652 1.524 . S
C1653 C1654 1.415 . S
C1654 H1630 0.950 . S
C1654 C1649 1.363 . S
C1654 C1653 1.415 . S
C1655 H1631 0.951 . S
C1655 C1656 1.366 . S
C1655 C1657 1.388 . S
C1656 C1655 1.366 . S
C1656 C1660 1.385 . S
C1657 H1632 0.951 . S
C1657 C1655 1.388 . S
C1657 C1658 1.366 . S
C1658 C1657 1.366 . S
C1658 C1659 1.414 . S
C1658 C1661 1.499 . S
C1659 H1633 0.950 . S
C1659 C1658 1.414 . S
C1659 C1660 1.374 . S
C1660 H1634 0.950 . S
C1660 C1656 1.385 . S
C1660 C1659 1.374 . S
C1661 C1658 1.499 . S
C1661 C1662 1.373 . S
C1661 C1663 1.389 . S
C1662 H1635 0.950 . S
C1662 C1648 1.377 . S
C1662 C1661 1.373 . S
C1663 C1647 1.377 . S
C1663 C1661 1.389 . S
C1663 C1664 1.524 . S
C1664 C1663 1.524 . S
C1664 C1665 1.397 . S
C1664 C1669 1.363 . S
C1665 H1636 0.950 . S
C1665 C1664 1.397 . S
C1665 C1666 1.334 . S
C1666 H1637 0.950 . S
C1666 C1665 1.334 . S
C1666 C1667 1.287 . S
C1667 C1666 1.287 . S
C1667 C1668 1.524 . S
C1667 H1670 0.999 . S
C1668 H1638 0.950 . S
C1668 C1667 1.524 . S
C1668 C1669 1.415 . S
C1669 H1639 0.950 . S
C1669 C1664 1.363 . S
C1669 C1668 1.415 . S
H1670 C1667 0.999 . S
H1671 C1652 0.913 . S
H1672 C1690 0.951 . S
H1673 C1692 0.951 . S
H1674 C1694 0.950 . S
H1675 C1695 0.950 . S
H1676 C1697 0.950 . S
H1677 C1700 0.950 . S
H1678 C1701 0.950 . S
H1679 C1703 0.950 . S
H1680 C1704 0.950 . S
H1681 C1705 0.951 . S
H1682 C1707 0.951 . S
H1683 C1709 0.950 . S
H1684 C1710 0.950 . S
H1685 C1712 0.950 . S
H1686 C1715 0.950 . S
H1687 C1716 0.950 . S
H1688 C1718 0.950 . S
H1689 C1719 0.950 . S
C1690 H1672 0.951 . S
C1690 C1691 1.366 . S
C1690 C1692 1.388 . S
C1691 C1690 1.366 . S
C1691 C1695 1.385 . S
C1692 H1673 0.951 . S
C1692 C1690 1.388 . S
C1692 C1693 1.366 . S
C1693 C1692 1.366 . S
C1693 C1694 1.414 . S
C1693 C1696 1.499 . S
C1694 H1674 0.950 . S
C1694 C1693 1.414 . S
C1694 C1695 1.374 . S
C1695 H1675 0.950 . S
C1695 C1691 1.385 . S
C1695 C1694 1.374 . S
C1696 C1693 1.499 . S
C1696 C1697 1.373 . S
C1696 C1698 1.389 . S
C1697 H1676 0.950 . S
C1697 C1696 1.373 . S
C1697 C1713 1.377 . S
C1698 C1696 1.389 . S
C1698 C1699 1.524 . S
C1698 C1712 1.377 . S
C1699 C1698 1.524 . S
C1699 C1700 1.397 . S
C1699 C1704 1.363 . S
C1700 H1677 0.950 . S
C1700 C1699 1.397 . S
C1700 C1701 1.334 . S
C1701 H1678 0.950 . S
C1701 C1700 1.334 . S
C1701 C1702 1.287 . S
C1702 C1701 1.287 . S
C1702 C1703 1.524 . S
C1702 H1721 0.913 . S
C1703 H1679 0.950 . S
C1703 C1702 1.524 . S
C1703 C1704 1.415 . S
C1704 H1680 0.950 . S
C1704 C1699 1.363 . S
C1704 C1703 1.415 . S
C1705 H1681 0.951 . S
C1705 C1706 1.366 . S
C1705 C1707 1.388 . S
C1706 C1705 1.366 . S
C1706 C1710 1.385 . S
C1707 H1682 0.951 . S
C1707 C1705 1.388 . S
C1707 C1708 1.366 . S
C1708 C1707 1.366 . S
C1708 C1709 1.414 . S
C1708 C1711 1.499 . S
C1709 H1683 0.950 . S
C1709 C1708 1.414 . S
C1709 C1710 1.374 . S
C1710 H1684 0.950 . S
C1710 C1706 1.385 . S
C1710 C1709 1.374 . S
C1711 C1708 1.499 . S
C1711 C1712 1.373 . S
C1711 C1713 1.389 . S
C1712 H1685 0.950 . S
C1712 C1698 1.377 . S
C1712 C1711 1.373 . S
C1713 C1697 1.377 . S
C1713 C1711 1.389 . S
C1713 C1714 1.524 . S
C1714 C1713 1.524 . S
C1714 C1715 1.397 . S
C1714 C1719 1.363 . S
C1715 H1686 0.950 . S
C1715 C1714 1.397 . S
C1715 C1716 1.334 . S
C1716 H1687 0.950 . S
C1716 C1715 1.334 . S
C1716 C1717 1.287 . S
C1717 C1716 1.287 . S
C1717 C1718 1.524 . S
C1717 H1720 0.999 . S
C1718 H1688 0.950 . S
C1718 C1717 1.524 . S
C1718 C1719 1.415 . S
C1719 H1689 0.950 . S
C1719 C1714 1.363 . S
C1719 C1718 1.415 . S
H1720 C1717 0.999 . S
H1721 C1702 0.913 . S
H1722 C1740 0.951 . S
H1723 C1742 0.951 . S
H1724 C1744 0.950 . S
H1725 C1745 0.950 . S
H1726 C1747 0.950 . S
H1727 C1750 0.950 . S
H1728 C1751 0.950 . S
H1729 C1753 0.950 . S
H1730 C1754 0.950 . S
H1731 C1755 0.951 . S
H1732 C1757 0.951 . S
H1733 C1759 0.950 . S
H1734 C1760 0.950 . S
H1735 C1762 0.950 . S
H1736 C1765 0.950 . S
H1737 C1766 0.950 . S
H1738 C1768 0.950 . S
H1739 C1769 0.950 . S
C1740 H1722 0.951 . S
C1740 C1741 1.366 . S
C1740 C1742 1.388 . S
C1741 C1740 1.366 . S
C1741 C1745 1.385 . S
C1742 H1723 0.951 . S
C1742 C1740 1.388 . S
C1742 C1743 1.366 . S
C1743 C1742 1.366 . S
C1743 C1744 1.414 . S
C1743 C1746 1.499 . S
C1744 H1724 0.950 . S
C1744 C1743 1.414 . S
C1744 C1745 1.374 . S
C1745 H1725 0.950 . S
C1745 C1741 1.385 . S
C1745 C1744 1.374 . S
C1746 C1743 1.499 . S
C1746 C1747 1.373 . S
C1746 C1748 1.389 . S
C1747 H1726 0.950 . S
C1747 C1746 1.373 . S
C1747 C1763 1.377 . S
C1748 C1746 1.389 . S
C1748 C1749 1.524 . S
C1748 C1762 1.377 . S
C1749 C1748 1.524 . S
C1749 C1750 1.397 . S
C1749 C1754 1.363 . S
C1750 H1727 0.950 . S
C1750 C1749 1.397 . S
C1750 C1751 1.334 . S
C1751 H1728 0.950 . S
C1751 C1750 1.334 . S
C1751 C1752 1.287 . S
C1752 C1751 1.287 . S
C1752 C1753 1.524 . S
C1752 H1771 0.913 . S
C1753 H1729 0.950 . S
C1753 C1752 1.524 . S
C1753 C1754 1.415 . S
C1754 H1730 0.950 . S
C1754 C1749 1.363 . S
C1754 C1753 1.415 . S
C1755 H1731 0.951 . S
C1755 C1756 1.366 . S
C1755 C1757 1.388 . S
C1756 C1755 1.366 . S
C1756 C1760 1.385 . S
C1757 H1732 0.951 . S
C1757 C1755 1.388 . S
C1757 C1758 1.366 . S
C1758 C1757 1.366 . S
C1758 C1759 1.414 . S
C1758 C1761 1.499 . S
C1759 H1733 0.950 . S
C1759 C1758 1.414 . S
C1759 C1760 1.374 . S
C1760 H1734 0.950 . S
C1760 C1756 1.385 . S
C1760 C1759 1.374 . S
C1761 C1758 1.499 . S
C1761 C1762 1.373 . S
C1761 C1763 1.389 . S
C1762 H1735 0.950 . S
C1762 C1748 1.377 . S
C1762 C1761 1.373 . S
C1763 C1747 1.377 . S
C1763 C1761 1.389 . S
C1763 C1764 1.524 . S
C1764 C1763 1.524 . S
C1764 C1765 1.397 . S
C1764 C1769 1.363 . S
C1765 H1736 0.950 . S
C1765 C1764 1.397 . S
C1765 C1766 1.334 . S
C1766 H1737 0.950 . S
C1766 C1765 1.334 . S
C1766 C1767 1.287 . S
C1767 C1766 1.287 . S
C1767 C1768 1.524 . S
C1767 H1770 0.999 . S
C1768 H1738 0.950 . S
C1768 C1767 1.524 . S
C1768 C1769 1.415 . S
C1769 H1739 0.950 . S
C1769 C1764 1.363 . S
C1769 C1768 1.415 . S
H1770 C1767 0.999 . S
H1771 C1752 0.913 . S
H1772 C1790 0.951 . S
H1773 C1792 0.951 . S
H1774 C1794 0.950 . S
H1775 C1795 0.950 . S
H1776 C1797 0.950 . S
H1777 C1800 0.950 . S
H1778 C1801 0.950 . S
H1779 C1803 0.950 . S
H1780 C1804 0.950 . S
H1781 C1805 0.951 . S
H1782 C1807 0.951 . S
H1783 C1809 0.950 . S
H1784 C1810 0.950 . S
H1785 C1812 0.950 . S
H1786 C1815 0.950 . S
H1787 C1816 0.950 . S
H1788 C1818 0.950 . S
H1789 C1819 0.950 . S
C1790 H1772 0.951 . S
C1790 C1791 1.366 . S
C1790 C1792 1.388 . S
C1791 C1790 1.366 . S
C1791 C1795 1.385 . S
C1792 H1773 0.951 . S
C1792 C1790 1.388 . S
C1792 C1793 1.366 . S
C1793 C1792 1.366 . S
C1793 C1794 1.414 . S
C1793 C1796 1.499 . S
C1794 H1774 0.950 . S
C1794 C1793 1.414 . S
C1794 C1795 1.374 . S
C1795 H1775 0.950 . S
C1795 C1791 1.385 . S
C1795 C1794 1.374 . S
C1796 C1793 1.499 . S
C1796 C1797 1.373 . S
C1796 C1798 1.389 . S
C1797 H1776 0.950 . S
C1797 C1796 1.373 . S
C1797 C1813 1.377 . S
C1798 C1796 1.389 . S
C1798 C1799 1.524 . S
C1798 C1812 1.377 . S
C1799 C1798 1.524 . S
C1799 C1800 1.397 . S
C1799 C1804 1.363 . S
C1800 H1777 0.950 . S
C1800 C1799 1.397 . S
C1800 C1801 1.334 . S
C1801 H1778 0.950 . S
C1801 C1800 1.334 . S
C1801 C1802 1.287 . S
C1802 C1801 1.287 . S
C1802 C1803 1.524 . S
C1802 H1821 0.913 . S
C1803 H1779 0.950 . S
C1803 C1802 1.524 . S
C1803 C1804 1.415 . S
C1804 H1780 0.950 . S
C1804 C1799 1.363 . S
C1804 C1803 1.415 . S
C1805 H1781 0.951 . S
C1805 C1806 1.366 . S
C1805 C1807 1.388 . S
C1806 C1805 1.366 . S
C1806 C1810 1.385 . S
C1807 H1782 0.951 . S
C1807 C1805 1.388 . S
C1807 C1808 1.366 . S
C1808 C1807 1.366 . S
C1808 C1809 1.414 . S
C1808 C1811 1.499 . S
C1809 H1783 0.950 . S
C1809 C1808 1.414 . S
C1809 C1810 1.374 . S
C1810 H1784 0.950 . S
C1810 C1806 1.385 . S
C1810 C1809 1.374 . S
C1811 C1808 1.499 . S
C1811 C1812 1.373 . S
C1811 C1813 1.389 . S
C1812 H1785 0.950 . S
C1812 C1798 1.377 . S
C1812 C1811 1.373 . S
C1813 C1797 1.377 . S
C1813 C1811 1.389 . S
C1813 C1814 1.524 . S
C1814 C1813 1.524 . S
C1814 C1815 1.397 . S
C1814 C1819 1.363 . S
C1815 H1786 0.950 . S
C1815 C1814 1.397 . S
C1815 C1816 1.334 . S
C1816 H1787 0.950 . S
C1816 C1815 1.334 . S
C1816 C1817 1.287 . S
C1817 C1816 1.287 . S
C1817 C1818 1.524 . S
C1817 H1820 0.999 . S
C1818 H1788 0.950 . S
C1818 C1817 1.524 . S
C1818 C1819 1.415 . S
C1819 H1789 0.950 . S
C1819 C1814 1.363 . S
C1819 C1818 1.415 . S
H1820 C1817 0.999 . S
H1821 C1802 0.913 . S
H1822 C1840 0.951 . S
H1823 C1842 0.951 . S
H1824 C1844 0.950 . S
H1825 C1845 0.950 . S
H1826 C1847 0.950 . S
H1827 C1850 0.950 . S
H1828 C1851 0.950 . S
H1829 C1853 0.950 . S
H1830 C1854 0.950 . S
H1831 C1855 0.951 . S
H1832 C1857 0.951 . S
H1833 C1859 0.950 . S
H1834 C1860 0.950 . S
H1835 C1862 0.950 . S
H1836 C1865 0.950 . S
H1837 C1866 0.950 . S
H1838 C1868 0.950 . S
H1839 C1869 0.950 . S
C1840 H1822 0.951 . S
C1840 C1841 1.366 . S
C1840 C1842 1.388 . S
C1841 C1840 1.366 . S
C1841 C1845 1.385 . S
C1842 H1823 0.951 . S
C1842 C1840 1.388 . S
C1842 C1843 1.366 . S
C1843 C1842 1.366 . S
C1843 C1844 1.414 . S
C1843 C1846 1.499 . S
C1844 H1824 0.950 . S
C1844 C1843 1.414 . S
C1844 C1845 1.374 . S
C1845 H1825 0.950 . S
C1845 C1841 1.385 . S
C1845 C1844 1.374 . S
C1846 C1843 1.499 . S
C1846 C1847 1.373 . S
C1846 C1848 1.389 . S
C1847 H1826 0.950 . S
C1847 C1846 1.373 . S
C1847 C1863 1.377 . S
C1848 C1846 1.389 . S
C1848 C1849 1.524 . S
C1848 C1862 1.377 . S
C1849 C1848 1.524 . S
C1849 C1850 1.397 . S
C1849 C1854 1.363 . S
C1850 H1827 0.950 . S
C1850 C1849 1.397 . S
C1850 C1851 1.334 . S
C1851 H1828 0.950 . S
C1851 C1850 1.334 . S
C1851 C1852 1.287 . S
C1852 C1851 1.287 . S
C1852 C1853 1.524 . S
C1852 H1871 0.913 . S
C1853 H1829 0.950 . S
C1853 C1852 1.524 . S
C1853 C1854 1.415 . S
C1854 H1830 0.950 . S
C1854 C1849 1.363 . S
C1854 C1853 1.415 . S
C1855 H1831 0.951 . S
C1855 C1856 1.366 . S
C1855 C1857 1.388 . S
C1856 C1855 1.366 . S
C1856 C1860 1.385 . S
C1857 H1832 0.951 . S
C1857 C1855 1.388 . S
C1857 C1858 1.366 . S
C1858 C1857 1.366 . S
C1858 C1859 1.414 . S
C1858 C1861 1.499 . S
C1859 H1833 0.950 . S
C1859 C1858 1.414 . S
C1859 C1860 1.374 . S
C1860 H1834 0.950 . S
C1860 C1856 1.385 . S
C1860 C1859 1.374 . S
C1861 C1858 1.499 . S
C1861 C1862 1.373 . S
C1861 C1863 1.389 . S
C1862 H1835 0.950 . S
C1862 C1848 1.377 . S
C1862 C1861 1.373 . S
C1863 C1847 1.377 . S
C1863 C1861 1.389 . S
C1863 C1864 1.524 . S
C1864 C1863 1.524 . S
C1864 C1865 1.397 . S
C1864 C1869 1.363 . S
C1865 H1836 0.950 . S
C1865 C1864 1.397 . S
C1865 C1866 1.334 . S
C1866 H1837 0.950 . S
C1866 C1865 1.334 . S
C1866 C1867 1.287 . S
C1867 C1866 1.287 . S
C1867 C1868 1.524 . S
C1867 H1870 0.999 . S
C1868 H1838 0.950 . S
C1868 C1867 1.524 . S
C1868 C1869 1.415 . S
C1869 H1839 0.950 . S
C1869 C1864 1.363 . S
C1869 C1868 1.415 . S
H1870 C1867 0.999 . S
H1871 C1852 0.913 . S
H1872 C1890 0.951 . S
H1873 C1892 0.951 . S
H1874 C1894 0.950 . S
H1875 C1895 0.950 . S
H1876 C1897 0.950 . S
H1877 C1900 0.950 . S
H1878 C1901 0.950 . S
H1879 C1903 0.950 . S
H1880 C1904 0.950 . S
H1881 C1905 0.951 . S
H1882 C1907 0.951 . S
H1883 C1909 0.950 . S
H1884 C1910 0.950 . S
H1885 C1912 0.950 . S
H1886 C1915 0.950 . S
H1887 C1916 0.950 . S
H1888 C1918 0.950 . S
H1889 C1919 0.950 . S
C1890 H1872 0.951 . S
C1890 C1891 1.366 . S
C1890 C1892 1.388 . S
C1891 C1890 1.366 . S
C1891 C1895 1.385 . S
C1892 H1873 0.951 . S
C1892 C1890 1.388 . S
C1892 C1893 1.366 . S
C1893 C1892 1.366 . S
C1893 C1894 1.414 . S
C1893 C1896 1.499 . S
C1894 H1874 0.950 . S
C1894 C1893 1.414 . S
C1894 C1895 1.374 . S
C1895 H1875 0.950 . S
C1895 C1891 1.385 . S
C1895 C1894 1.374 . S
C1896 C1893 1.499 . S
C1896 C1897 1.373 . S
C1896 C1898 1.389 . S
C1897 H1876 0.950 . S
C1897 C1896 1.373 . S
C1897 C1913 1.377 . S
C1898 C1896 1.389 . S
C1898 C1899 1.524 . S
C1898 C1912 1.377 . S
C1899 C1898 1.524 . S
C1899 C1900 1.397 . S
C1899 C1904 1.363 . S
C1900 H1877 0.950 . S
C1900 C1899 1.397 . S
C1900 C1901 1.334 . S
C1901 H1878 0.950 . S
C1901 C1900 1.334 . S
C1901 C1902 1.287 . S
C1902 C1901 1.287 . S
C1902 C1903 1.524 . S
C1902 H1921 0.913 . S
C1903 H1879 0.950 . S
C1903 C1902 1.524 . S
C1903 C1904 1.415 . S
C1904 H1880 0.950 . S
C1904 C1899 1.363 . S
C1904 C1903 1.415 . S
C1905 H1881 0.951 . S
C1905 C1906 1.366 . S
C1905 C1907 1.388 . S
C1906 C1905 1.366 . S
C1906 C1910 1.385 . S
C1907 H1882 0.951 . S
C1907 C1905 1.388 . S
C1907 C1908 1.366 . S
C1908 C1907 1.366 . S
C1908 C1909 1.414 . S
C1908 C1911 1.499 . S
C1909 H1883 0.950 . S
C1909 C1908 1.414 . S
C1909 C1910 1.374 . S
C1910 H1884 0.950 . S
C1910 C1906 1.385 . S
C1910 C1909 1.374 . S
C1911 C1908 1.499 . S
C1911 C1912 1.373 . S
C1911 C1913 1.389 . S
C1912 H1885 0.950 . S
C1912 C1898 1.377 . S
C1912 C1911 1.373 . S
C1913 C1897 1.377 . S
C1913 C1911 1.389 . S
C1913 C1914 1.524 . S
C1914 C1913 1.524 . S
C1914 C1915 1.397 . S
C1914 C1919 1.363 . S
C1915 H1886 0.950 . S
C1915 C1914 1.397 . S
C1915 C1916 1.334 . S
C1916 H1887 0.950 . S
C1916 C1915 1.334 . S
C1916 C1917 1.287 . S
C1917 C1916 1.287 . S
C1917 C1918 1.524 . S
C1917 H1920 0.999 . S
C1918 H1888 0.950 . S
C1918 C1917 1.524 . S
C1918 C1919 1.415 . S
C1919 H1889 0.950 . S
C1919 C1914 1.363 . S
C1919 C1918 1.415 . S
H1920 C1917 0.999 . S
H1921 C1902 0.913 . S
H1922 C1940 0.951 . S
H1923 C1942 0.951 . S
H1924 C1944 0.950 . S
H1925 C1945 0.950 . S
H1926 C1947 0.950 . S
H1927 C1950 0.950 . S
H1928 C1951 0.950 . S
H1929 C1953 0.950 . S
H1930 C1954 0.950 . S
H1931 C1955 0.951 . S
H1932 C1957 0.951 . S
H1933 C1959 0.950 . S
H1934 C1960 0.950 . S
H1935 C1962 0.950 . S
H1936 C1965 0.950 . S
H1937 C1966 0.950 . S
H1938 C1968 0.950 . S
H1939 C1969 0.950 . S
C1940 H1922 0.951 . S
C1940 C1941 1.366 . S
C1940 C1942 1.388 . S
C1941 C1940 1.366 . S
C1941 C1945 1.385 . S
C1942 H1923 0.951 . S
C1942 C1940 1.388 . S
C1942 C1943 1.366 . S
C1943 C1942 1.366 . S
C1943 C1944 1.414 . S
C1943 C1946 1.499 . S
C1944 H1924 0.950 . S
C1944 C1943 1.414 . S
C1944 C1945 1.374 . S
C1945 H1925 0.950 . S
C1945 C1941 1.385 . S
C1945 C1944 1.374 . S
C1946 C1943 1.499 . S
C1946 C1947 1.373 . S
C1946 C1948 1.389 . S
C1947 H1926 0.950 . S
C1947 C1946 1.373 . S
C1947 C1963 1.377 . S
C1948 C1946 1.389 . S
C1948 C1949 1.524 . S
C1948 C1962 1.377 . S
C1949 C1948 1.524 . S
C1949 C1950 1.397 . S
C1949 C1954 1.363 . S
C1950 H1927 0.950 . S
C1950 C1949 1.397 . S
C1950 C1951 1.334 . S
C1951 H1928 0.950 . S
C1951 C1950 1.334 . S
C1951 C1952 1.287 . S
C1952 C1951 1.287 . S
C1952 C1953 1.524 . S
C1952 H1971 0.913 . S
C1953 H1929 0.950 . S
C1953 C1952 1.524 . S
C1953 C1954 1.415 . S
C1954 H1930 0.950 . S
C1954 C1949 1.363 . S
C1954 C1953 1.415 . S
C1955 H1931 0.951 . S
C1955 C1956 1.366 . S
C1955 C1957 1.388 . S
C1956 C1955 1.366 . S
C1956 C1960 1.385 . S
C1957 H1932 0.951 . S
C1957 C1955 1.388 . S
C1957 C1958 1.366 . S
C1958 C1957 1.366 . S
C1958 C1959 1.414 . S
C1958 C1961 1.499 . S
C1959 H1933 0.950 . S
C1959 C1958 1.414 . S
C1959 C1960 1.374 . S
C1960 H1934 0.950 . S
C1960 C1956 1.385 . S
C1960 C1959 1.374 . S
C1961 C1958 1.499 . S
C1961 C1962 1.373 . S
C1961 C1963 1.389 . S
C1962 H1935 0.950 . S
C1962 C1948 1.377 . S
C1962 C1961 1.373 . S
C1963 C1947 1.377 . S
C1963 C1961 1.389 . S
C1963 C1964 1.524 . S
C1964 C1963 1.524 . S
C1964 C1965 1.397 . S
C1964 C1969 1.363 . S
C1965 H1936 0.950 . S
C1965 C1964 1.397 . S
C1965 C1966 1.334 . S
C1966 H1937 0.950 . S
C1966 C1965 1.334 . S
C1966 C1967 1.287 . S
C1967 C1966 1.287 . S
C1967 C1968 1.524 . S
C1967 H1970 0.999 . S
C1968 H1938 0.950 . S
C1968 C1967 1.524 . S
C1968 C1969 1.415 . S
C1969 H1939 0.950 . S
C1969 C1964 1.363 . S
C1969 C1968 1.415 . S
H1970 C1967 0.999 . S
H1971 C1952 0.913 . S
H1972 C1990 0.951 . S
H1973 C1992 0.951 . S
H1974 C1994 0.950 . S
H1975 C1995 0.950 . S
H1976 C1997 0.950 . S
H1977 C2000 0.950 . S
H1978 C2001 0.950 . S
H1979 C2003 0.950 . S
H1980 C2004 0.950 . S
H1981 C2005 0.951 . S
H1982 C2007 0.951 . S
H1983 C2009 0.950 . S
H1984 C2010 0.950 . S
H1985 C2012 0.950 . S
H1986 C2015 0.950 . S
H1987 C2016 0.950 . S
H1988 C2018 0.950 . S
H1989 C2019 0.950 . S
C1990 H1972 0.951 . S
C1990 C1991 1.366 . S
C1990 C1992 1.388 . S
C1991 C1990 1.366 . S
C1991 C1995 1.385 . S
C1992 H1973 0.951 . S
C1992 C1990 1.388 . S
C1992 C1993 1.366 . S
C1993 C1992 1.366 . S
C1993 C1994 1.414 . S
C1993 C1996 1.499 . S
C1994 H1974 0.950 . S
C1994 C1993 1.414 . S
C1994 C1995 1.374 . S
C1995 H1975 0.950 . S
C1995 C1991 1.385 . S
C1995 C1994 1.374 . S
C1996 C1993 1.499 . S
C1996 C1997 1.373 . S
C1996 C1998 1.389 . S
C1997 H1976 0.950 . S
C1997 C1996 1.373 . S
C1997 C2013 1.377 . S
C1998 C1996 1.389 . S
C1998 C1999 1.524 . S
C1998 C2012 1.377 . S
C1999 C1998 1.524 . S
C1999 C2000 1.397 . S
C1999 C2004 1.363 . S
C2000 H1977 0.950 . S
C2000 C1999 1.397 . S
C2000 C2001 1.334 . S
C2001 H1978 0.950 . S
C2001 C2000 1.334 . S
C2001 C2002 1.287 . S
C2002 C2001 1.287 . S
C2002 C2003 1.524 . S
C2002 H2021 0.913 . S
C2003 H1979 0.950 . S
C2003 C2002 1.524 . S
C2003 C2004 1.415 . S
C2004 H1980 0.950 . S
C2004 C1999 1.363 . S
C2004 C2003 1.415 . S
C2005 H1981 0.951 . S
C2005 C2006 1.366 . S
C2005 C2007 1.388 . S
C2006 C2005 1.366 . S
C2006 C2010 1.385 . S
C2007 H1982 0.951 . S
C2007 C2005 1.388 . S
C2007 C2008 1.366 . S
C2008 C2007 1.366 . S
C2008 C2009 1.414 . S
C2008 C2011 1.499 . S
C2009 H1983 0.950 . S
C2009 C2008 1.414 . S
C2009 C2010 1.374 . S
C2010 H1984 0.950 . S
C2010 C2006 1.385 . S
C2010 C2009 1.374 . S
C2011 C2008 1.499 . S
C2011 C2012 1.373 . S
C2011 C2013 1.389 . S
C2012 H1985 0.950 . S
C2012 C1998 1.377 . S
C2012 C2011 1.373 . S
C2013 C1997 1.377 . S
C2013 C2011 1.389 . S
C2013 C2014 1.524 . S
C2014 C2013 1.524 . S
C2014 C2015 1.397 . S
C2014 C2019 1.363 . S
C2015 H1986 0.950 . S
C2015 C2014 1.397 . S
C2015 C2016 1.334 . S
C2016 H1987 0.950 . S
C2016 C2015 1.334 . S
C2016 C2017 1.287 . S
C2017 C2016 1.287 . S
C2017 C2018 1.524 . S
C2017 H2020 0.999 . S
C2018 H1988 0.950 . S
C2018 C2017 1.524 . S
C2018 C2019 1.415 . S
C2019 H1989 0.950 . S
C2019 C2014 1.363 . S
C2019 C2018 1.415 . S
H2020 C2017 0.999 . S
H2021 C2002 0.913 . S
H2022 C2040 0.951 . S
H2023 C2042 0.951 . S
H2024 C2044 0.950 . S
H2025 C2045 0.950 . S
H2026 C2047 0.950 . S
H2027 C2050 0.950 . S
H2028 C2051 0.950 . S
H2029 C2053 0.950 . S
H2030 C2054 0.950 . S
H2031 C2055 0.951 . S
H2032 C2057 0.951 . S
H2033 C2059 0.950 . S
H2034 C2060 0.950 . S
H2035 C2062 0.950 . S
H2036 C2065 0.950 . S
H2037 C2066 0.950 . S
H2038 C2068 0.950 . S
H2039 C2069 0.950 . S
C2040 H2022 0.951 . S
C2040 C2041 1.366 . S
C2040 C2042 1.388 . S
C2041 C2040 1.366 . S
C2041 C2045 1.385 . S
C2042 H2023 0.951 . S
C2042 C2040 1.388 . S
C2042 C2043 1.366 . S
C2043 C2042 1.366 . S
C2043 C2044 1.414 . S
C2043 C2046 1.499 . S
C2044 H2024 0.950 . S
C2044 C2043 1.414 . S
C2044 C2045 1.374 . S
C2045 H2025 0.950 . S
C2045 C2041 1.385 . S
C2045 C2044 1.374 . S
C2046 C2043 1.499 . S
C2046 C2047 1.373 . S
C2046 C2048 1.389 . S
C2047 H2026 0.950 . S
C2047 C2046 1.373 . S
C2047 C2063 1.377 . S
C2048 C2046 1.389 . S
C2048 C2049 1.524 . S
C2048 C2062 1.377 . S
C2049 C2048 1.524 . S
C2049 C2050 1.397 . S
C2049 C2054 1.363 . S
C2050 H2027 0.950 . S
C2050 C2049 1.397 . S
C2050 C2051 1.334 . S
C2051 H2028 0.950 . S
C2051 C2050 1.334 . S
C2051 C2052 1.287 . S
C2052 C2051 1.287 . S
C2052 C2053 1.524 . S
C2052 H2071 0.913 . S
C2053 H2029 0.950 . S
C2053 C2052 1.524 . S
C2053 C2054 1.415 . S
C2054 H2030 0.950 . S
C2054 C2049 1.363 . S
C2054 C2053 1.415 . S
C2055 H2031 0.951 . S
C2055 C2056 1.366 . S
C2055 C2057 1.388 . S
C2056 C2055 1.366 . S
C2056 C2060 1.385 . S
C2057 H2032 0.951 . S
C2057 C2055 1.388 . S
C2057 C2058 1.366 . S
C2058 C2057 1.366 . S
C2058 C2059 1.414 . S
C2058 C2061 1.499 . S
C2059 H2033 0.950 . S
C2059 C2058 1.414 . S
C2059 C2060 1.374 . S
C2060 H2034 0.950 . S
C2060 C2056 1.385 . S
C2060 C2059 1.374 . S
C2061 C2058 1.499 . S
C2061 C2062 1.373 . S
C2061 C2063 1.389 . S
C2062 H2035 0.950 . S
C2062 C2048 1.377 . S
C2062 C2061 1.373 . S
C2063 C2047 1.377 . S
C2063 C2061 1.389 . S
C2063 C2064 1.524 . S
C2064 C2063 1.524 . S
C2064 C2065 1.397 . S
C2064 C2069 1.363 . S
C2065 H2036 0.950 . S
C2065 C2064 1.397 . S
C2065 C2066 1.334 . S
C2066 H2037 0.950 . S
C2066 C2065 1.334 . S
C2066 C2067 1.287 . S
C2067 C2066 1.287 . S
C2067 C2068 1.524 . S
C2067 H2070 0.999 . S
C2068 H2038 0.950 . S
C2068 C2067 1.524 . S
C2068 C2069 1.415 . S
C2069 H2039 0.950 . S
C2069 C2064 1.363 . S
C2069 C2068 1.415 . S
H2070 C2067 0.999 . S
H2071 C2052 0.913 . S
H2072 C2090 0.951 . S
H2073 C2092 0.951 . S
H2074 C2094 0.950 . S
H2075 C2095 0.950 . S
H2076 C2097 0.950 . S
H2077 C2100 0.950 . S
H2078 C2101 0.950 . S
H2079 C2103 0.950 . S
H2080 C2104 0.950 . S
H2081 C2105 0.951 . S
H2082 C2107 0.951 . S
H2083 C2109 0.950 . S
H2084 C2110 0.950 . S
H2085 C2112 0.950 . S
H2086 C2115 0.950 . S
H2087 C2116 0.950 . S
H2088 C2118 0.950 . S
H2089 C2119 0.950 . S
C2090 H2072 0.951 . S
C2090 C2091 1.366 . S
C2090 C2092 1.388 . S
C2091 C2090 1.366 . S
C2091 C2095 1.385 . S
C2092 H2073 0.951 . S
C2092 C2090 1.388 . S
C2092 C2093 1.366 . S
C2093 C2092 1.366 . S
C2093 C2094 1.414 . S
C2093 C2096 1.499 . S
C2094 H2074 0.950 . S
C2094 C2093 1.414 . S
C2094 C2095 1.374 . S
C2095 H2075 0.950 . S
C2095 C2091 1.385 . S
C2095 C2094 1.374 . S
C2096 C2093 1.499 . S
C2096 C2097 1.373 . S
C2096 C2098 1.389 . S
C2097 H2076 0.950 . S
C2097 C2096 1.373 . S
C2097 C2113 1.377 . S
C2098 C2096 1.389 . S
C2098 C2099 1.524 . S
C2098 C2112 1.377 . S
C2099 C2098 1.524 . S
C2099 C2100 1.397 . S
C2099 C2104 1.363 . S
C2100 H2077 0.950 . S
C2100 C2099 1.397 . S
C2100 C2101 1.334 . S
C2101 H2078 0.950 . S
C2101 C2100 1.334 . S
C2101 C2102 1.287 . S
C2102 C2101 1.287 . S
C2102 C2103 1.524 . S
C2102 H2121 0.913 . S
C2103 H2079 0.950 . S
C2103 C2102 1.524 . S
C2103 C2104 1.415 . S
C2104 H2080 0.950 . S
C2104 C2099 1.363 . S
C2104 C2103 1.415 . S
C2105 H2081 0.951 . S
C2105 C2106 1.366 . S
C2105 C2107 1.388 . S
C2106 C2105 1.366 . S
C2106 C2110 1.385 . S
C2107 H2082 0.951 . S
C2107 C2105 1.388 . S
C2107 C2108 1.366 . S
C2108 C2107 1.366 . S
C2108 C2109 1.414 . S
C2108 C2111 1.499 . S
C2109 H2083 0.950 . S
C2109 C2108 1.414 . S
C2109 C2110 1.374 . S
C2110 H2084 0.950 . S
C2110 C2106 1.385 . S
C2110 C2109 1.374 . S
C2111 C2108 1.499 . S
C2111 C2112 1.373 . S
C2111 C2113 1.389 . S
C2112 H2085 0.950 . S
C2112 C2098 1.377 . S
C2112 C2111 1.373 . S
C2113 C2097 1.377 . S
C2113 C2111 1.389 . S
C2113 C2114 1.524 . S
C2114 C2113 1.524 . S
C2114 C2115 1.397 . S
C2114 C2119 1.363 . S
C2115 H2086 0.950 . S
C2115 C2114 1.397 . S
C2115 C2116 1.334 . S
C2116 H2087 0.950 . S
C2116 C2115 1.334 . S
C2116 C2117 1.287 . S
C2117 C2116 1.287 . S
C2117 C2118 1.524 . S
C2117 H2120 0.999 . S
C2118 H2088 0.950 . S
C2118 C2117 1.524 . S
C2118 C2119 1.415 . S
C2119 H2089 0.950 . S
C2119 C2114 1.363 . S
C2119 C2118 1.415 . S
H2120 C2117 0.999 . S
H2121 C2102 0.913 . S
H2122 C2140 0.951 . S
H2123 C2142 0.951 . S
H2124 C2144 0.950 . S
H2125 C2145 0.950 . S
H2126 C2147 0.950 . S
H2127 C2150 0.950 . S
H2128 C2151 0.950 . S
H2129 C2153 0.950 . S
H2130 C2154 0.950 . S
H2131 C2155 0.951 . S
H2132 C2157 0.951 . S
H2133 C2159 0.950 . S
H2134 C2160 0.950 . S
H2135 C2162 0.950 . S
H2136 C2165 0.950 . S
H2137 C2166 0.950 . S
H2138 C2168 0.950 . S
H2139 C2169 0.950 . S
C2140 H2122 0.951 . S
C2140 C2141 1.366 . S
C2140 C2142 1.388 . S
C2141 C2140 1.366 . S
C2141 C2145 1.385 . S
C2142 H2123 0.951 . S
C2142 C2140 1.388 . S
C2142 C2143 1.366 . S
C2143 C2142 1.366 . S
C2143 C2144 1.414 . S
C2143 C2146 1.499 . S
C2144 H2124 0.950 . S
C2144 C2143 1.414 . S
C2144 C2145 1.374 . S
C2145 H2125 0.950 . S
C2145 C2141 1.385 . S
C2145 C2144 1.374 . S
C2146 C2143 1.499 . S
C2146 C2147 1.373 . S
C2146 C2148 1.389 . S
C2147 H2126 0.950 . S
C2147 C2146 1.373 . S
C2147 C2163 1.377 . S
C2148 C2146 1.389 . S
C2148 C2149 1.524 . S
C2148 C2162 1.377 . S
C2149 C2148 1.524 . S
C2149 C2150 1.397 . S
C2149 C2154 1.363 . S
C2150 H2127 0.950 . S
C2150 C2149 1.397 . S
C2150 C2151 1.334 . S
C2151 H2128 0.950 . S
C2151 C2150 1.334 . S
C2151 C2152 1.287 . S
C2152 C2151 1.287 . S
C2152 C2153 1.524 . S
C2152 H2171 0.913 . S
C2153 H2129 0.950 . S
C2153 C2152 1.524 . S
C2153 C2154 1.415 . S
C2154 H2130 0.950 . S
C2154 C2149 1.363 . S
C2154 C2153 1.415 . S
C2155 H2131 0.951 . S
C2155 C2156 1.366 . S
C2155 C2157 1.388 . S
C2156 C2155 1.366 . S
C2156 C2160 1.385 . S
C2157 H2132 0.951 . S
C2157 C2155 1.388 . S
C2157 C2158 1.366 . S
C2158 C2157 1.366 . S
C2158 C2159 1.414 . S
C2158 C2161 1.499 . S
C2159 H2133 0.950 . S
C2159 C2158 1.414 . S
C2159 C2160 1.374 . S
C2160 H2134 0.950 . S
C2160 C2156 1.385 . S
C2160 C2159 1.374 . S
C2161 C2158 1.499 . S
C2161 C2162 1.373 . S
C2161 C2163 1.389 . S
C2162 H2135 0.950 . S
C2162 C2148 1.377 . S
C2162 C2161 1.373 . S
C2163 C2147 1.377 . S
C2163 C2161 1.389 . S
C2163 C2164 1.524 . S
C2164 C2163 1.524 . S
C2164 C2165 1.397 . S
C2164 C2169 1.363 . S
C2165 H2136 0.950 . S
C2165 C2164 1.397 . S
C2165 C2166 1.334 . S
C2166 H2137 0.950 . S
C2166 C2165 1.334 . S
C2166 C2167 1.287 . S
C2167 C2166 1.287 . S
C2167 C2168 1.524 . S
C2167 H2170 0.999 . S
C2168 H2138 0.950 . S
C2168 C2167 1.524 . S
C2168 C2169 1.415 . S
C2169 H2139 0.950 . S
C2169 C2164 1.363 . S
C2169 C2168 1.415 . S
H2170 C2167 0.999 . S
H2171 C2152 0.913 . S
H2172 C2190 0.951 . S
H2173 C2192 0.951 . S
H2174 C2194 0.950 . S
H2175 C2195 0.950 . S
H2176 C2197 0.950 . S
H2177 C2200 0.950 . S
H2178 C2201 0.950 . S
H2179 C2203 0.950 . S
H2180 C2204 0.950 . S
H2181 C2205 0.951 . S
H2182 C2207 0.951 . S
H2183 C2209 0.950 . S
H2184 C2210 0.950 . S
H2185 C2212 0.950 . S
H2186 C2215 0.950 . S
H2187 C2216 0.950 . S
H2188 C2218 0.950 . S
H2189 C2219 0.950 . S
C2190 H2172 0.951 . S
C2190 C2191 1.366 . S
C2190 C2192 1.388 . S
C2191 C2190 1.366 . S
C2191 C2195 1.385 . S
C2192 H2173 0.951 . S
C2192 C2190 1.388 . S
C2192 C2193 1.366 . S
C2193 C2192 1.366 . S
C2193 C2194 1.414 . S
C2193 C2196 1.499 . S
C2194 H2174 0.950 . S
C2194 C2193 1.414 . S
C2194 C2195 1.374 . S
C2195 H2175 0.950 . S
C2195 C2191 1.385 . S
C2195 C2194 1.374 . S
C2196 C2193 1.499 . S
C2196 C2197 1.373 . S
C2196 C2198 1.389 . S
C2197 H2176 0.950 . S
C2197 C2196 1.373 . S
C2197 C2213 1.377 . S
C2198 C2196 1.389 . S
C2198 C2199 1.524 . S
C2198 C2212 1.377 . S
C2199 C2198 1.524 . S
C2199 C2200 1.397 . S
C2199 C2204 1.363 . S
C2200 H2177 0.950 . S
C2200 C2199 1.397 . S
C2200 C2201 1.334 . S
C2201 H2178 0.950 . S
C2201 C2200 1.334 . S
C2201 C2202 1.287 . S
C2202 C2201 1.287 . S
C2202 C2203 1.524 . S
C2202 H2221 0.913 . S
C2203 H2179 0.950 . S
C2203 C2202 1.524 . S
C2203 C2204 1.415 . S
C2204 H2180 0.950 . S
C2204 C2199 1.363 . S
C2204 C2203 1.415 . S
C2205 H2181 0.951 . S
C2205 C2206 1.366 . S
C2205 C2207 1.388 . S
C2206 C2205 1.366 . S
C2206 C2210 1.385 . S
C2207 H2182 0.951 . S
C2207 C2205 1.388 . S
C2207 C2208 1.366 . S
C2208 C2207 1.366 . S
C2208 C2209 1.414 . S
C2208 C2211 1.499 . S
C2209 H2183 0.950 . S
C2209 C2208 1.414 . S
C2209 C2210 1.374 . S
C2210 H2184 0.950 . S
C2210 C2206 1.385 . S
C2210 C2209 1.374 . S
C2211 C2208 1.499 . S
C2211 C2212 1.373 . S
C2211 C2213 1.389 . S
C2212 H2185 0.950 . S
C2212 C2198 1.377 . S
C2212 C2211 1.373 . S
C2213 C2197 1.377 . S
C2213 C2211 1.389 . S
C2213 C2214 1.524 . S
C2214 C2213 1.524 . S
C2214 C2215 1.397 . S
C2214 C2219 1.363 . S
C2215 H2186 0.950 . S
C2215 C2214 1.397 . S
C2215 C2216 1.334 . S
C2216 H2187 0.950 . S
C2216 C2215 1.334 . S
C2216 C2217 1.287 . S
C2217 C2216 1.287 . S
C2217 C2218 1.524 . S
C2217 H2220 0.999 . S
C2218 H2188 0.950 . S
C2218 C2217 1.524 . S
C2218 C2219 1.415 . S
C2219 H2189 0.950 . S
C2219 C2214 1.363 . S
C2219 C2218 1.415 . S
H2220 C2217 0.999 . S
H2221 C2202 0.913 . S
H2222 C2240 0.951 . S
H2223 C2242 0.951 . S
H2224 C2244 0.950 . S
H2225 C2245 0.950 . S
H2226 C2247 0.950 . S
H2227 C2250 0.950 . S
H2228 C2251 0.950 . S
H2229 C2253 0.950 . S
H2230 C2254 0.950 . S
H2231 C2255 0.951 . S
H2232 C2257 0.951 . S
H2233 C2259 0.950 . S
H2234 C2260 0.950 . S
H2235 C2262 0.950 . S
H2236 C2265 0.950 . S
H2237 C2266 0.950 . S
H2238 C2268 0.950 . S
H2239 C2269 0.950 . S
C2240 H2222 0.951 . S
C2240 C2241 1.366 . S
C2240 C2242 1.388 . S
C2241 C2240 1.366 . S
C2241 C2245 1.385 . S
C2242 H2223 0.951 . S
C2242 C2240 1.388 . S
C2242 C2243 1.366 . S
C2243 C2242 1.366 . S
C2243 C2244 1.414 . S
C2243 C2246 1.499 . S
C2244 H2224 0.950 . S
C2244 C2243 1.414 . S
C2244 C2245 1.374 . S
C2245 H2225 0.950 . S
C2245 C2241 1.385 . S
C2245 C2244 1.374 . S
C2246 C2243 1.499 . S
C2246 C2247 1.373 . S
C2246 C2248 1.389 . S
C2247 H2226 0.950 . S
C2247 C2246 1.373 . S
C2247 C2263 1.377 . S
C2248 C2246 1.389 . S
C2248 C2249 1.524 . S
C2248 C2262 1.377 . S
C2249 C2248 1.524 . S
C2249 C2250 1.397 . S
C2249 C2254 1.363 . S
C2250 H2227 0.950 . S
C2250 C2249 1.397 . S
C2250 C2251 1.334 . S
C2251 H2228 0.950 . S
C2251 C2250 1.334 . S
C2251 C2252 1.287 . S
C2252 C2251 1.287 . S
C2252 C2253 1.524 . S
C2252 H2271 0.913 . S
C2253 H2229 0.950 . S
C2253 C2252 1.524 . S
C2253 C2254 1.415 . S
C2254 H2230 0.950 . S
C2254 C2249 1.363 . S
C2254 C2253 1.415 . S
C2255 H2231 0.951 . S
C2255 C2256 1.366 . S
C2255 C2257 1.388 . S
C2256 C2255 1.366 . S
C2256 C2260 1.385 . S
C2257 H2232 0.951 . S
C2257 C2255 1.388 . S
C2257 C2258 1.366 . S
C2258 C2257 1.366 . S
C2258 C2259 1.414 . S
C2258 C2261 1.499 . S
C2259 H2233 0.950 . S
C2259 C2258 1.414 . S
C2259 C2260 1.374 . S
C2260 H2234 0.950 . S
C2260 C2256 1.385 . S
C2260 C2259 1.374 . S
C2261 C2258 1.499 . S
C2261 C2262 1.373 . S
C2261 C2263 1.389 . S
C2262 H2235 0.950 . S
C2262 C2248 1.377 . S
C2262 C2261 1.373 . S
C2263 C2247 1.377 . S
C2263 C2261 1.389 . S
C2263 C2264 1.524 . S
C2264 C2263 1.524 . S
C2264 C2265 1.397 . S
C2264 C2269 1.363 . S
C2265 H2236 0.950 . S
C2265 C2264 1.397 . S
C2265 C2266 1.334 . S
C2266 H2237 0.950 . S
C2266 C2265 1.334 . S
C2266 C2267 1.287 . S
C2267 C2266 1.287 . S
C2267 C2268 1.524 . S
C2267 H2270 0.999 . S
C2268 H2238 0.950 . S
C2268 C2267 1.524 . S
C2268 C2269 1.415 . S
C2269 H2239 0.950 . S
C2269 C2264 1.363 . S
C2269 C2268 1.415 . S
H2270 C2267 0.999 . S
H2271 C2252 0.913 . S
H2272 C2290 0.951 . S
H2273 C2292 0.951 . S
H2274 C2294 0.950 . S
H2275 C2295 0.950 . S
H2276 C2297 0.950 . S
H2277 C2300 0.950 . S
H2278 C2301 0.950 . S
H2279 C2303 0.950 . S
H2280 C2304 0.950 . S
H2281 C2305 0.951 . S
H2282 C2307 0.951 . S
H2283 C2309 0.950 . S
H2284 C2310 0.950 . S
H2285 C2312 0.950 . S
H2286 C2315 0.950 . S
H2287 C2316 0.950 . S
H2288 C2318 0.950 . S
H2289 C2319 0.950 . S
C2290 H2272 0.951 . S
C2290 C2291 1.366 . S
C2290 C2292 1.388 . S
C2291 C2290 1.366 . S
C2291 C2295 1.385 . S
C2292 H2273 0.951 . S
C2292 C2290 1.388 . S
C2292 C2293 1.366 . S
C2293 C2292 1.366 . S
C2293 C2294 1.414 . S
C2293 C2296 1.499 . S
C2294 H2274 0.950 . S
C2294 C2293 1.414 . S
C2294 C2295 1.374 . S
C2295 H2275 0.950 . S
C2295 C2291 1.385 . S
C2295 C2294 1.374 . S
C2296 C2293 1.499 . S
C2296 C2297 1.373 . S
C2296 C2298 1.389 . S
C2297 H2276 0.950 . S
C2297 C2296 1.373 . S
C2297 C2313 1.377 . S
C2298 C2296 1.389 . S
C2298 C2299 1.524 . S
C2298 C2312 1.377 . S
C2299 C2298 1.524 . S
C2299 C2300 1.397 . S
C2299 C2304 1.363 . S
C2300 H2277 0.950 . S
C2300 C2299 1.397 . S
C2300 C2301 1.334 . S
C2301 H2278 0.950 . S
C2301 C2300 1.334 . S
C2301 C2302 1.287 . S
C2302 C2301 1.287 . S
C2302 C2303 1.524 . S
C2302 H2321 0.913 . S
C2303 H2279 0.950 . S
C2303 C2302 1.524 . S
C2303 C2304 1.415 . S
C2304 H2280 0.950 . S
C2304 C2299 1.363 . S
C2304 C2303 1.415 . S
C2305 H2281 0.951 . S
C2305 C2306 1.366 . S
C2305 C2307 1.388 . S
C2306 C2305 1.366 . S
C2306 C2310 1.385 . S
C2307 H2282 0.951 . S
C2307 C2305 1.388 . S
C2307 C2308 1.366 . S
C2308 C2307 1.366 . S
C2308 C2309 1.414 . S
C2308 C2311 1.499 . S
C2309 H2283 0.950 . S
C2309 C2308 1.414 . S
C2309 C2310 1.374 . S
C2310 H2284 0.950 . S
C2310 C2306 1.385 . S
C2310 C2309 1.374 . S
C2311 C2308 1.499 . S
C2311 C2312 1.373 . S
C2311 C2313 1.389 . S
C2312 H2285 0.950 . S
C2312 C2298 1.377 . S
C2312 C2311 1.373 . S
C2313 C2297 1.377 . S
C2313 C2311 1.389 . S
C2313 C2314 1.524 . S
C2314 C2313 1.524 . S
C2314 C2315 1.397 . S
C2314 C2319 1.363 . S
C2315 H2286 0.950 . S
C2315 C2314 1.397 . S
C2315 C2316 1.334 . S
C2316 H2287 0.950 . S
C2316 C2315 1.334 . S
C2316 C2317 1.287 . S
C2317 C2316 1.287 . S
C2317 C2318 1.524 . S
C2317 H2320 0.999 . S
C2318 H2288 0.950 . S
C2318 C2317 1.524 . S
C2318 C2319 1.415 . S
C2319 H2289 0.950 . S
C2319 C2314 1.363 . S
C2319 C2318 1.415 . S
H2320 C2317 0.999 . S
H2321 C2302 0.913 . S
H2322 C2340 0.951 . S
H2323 C2342 0.951 . S
H2324 C2344 0.950 . S
H2325 C2345 0.950 . S
H2326 C2347 0.950 . S
H2327 C2350 0.950 . S
H2328 C2351 0.950 . S
H2329 C2353 0.950 . S
H2330 C2354 0.950 . S
H2331 C2355 0.951 . S
H2332 C2357 0.951 . S
H2333 C2359 0.950 . S
H2334 C2360 0.950 . S
H2335 C2362 0.950 . S
H2336 C2365 0.950 . S
H2337 C2366 0.950 . S
H2338 C2368 0.950 . S
H2339 C2369 0.950 . S
C2340 H2322 0.951 . S
C2340 C2341 1.366 . S
C2340 C2342 1.388 . S
C2341 C2340 1.366 . S
C2341 C2345 1.385 . S
C2342 H2323 0.951 . S
C2342 C2340 1.388 . S
C2342 C2343 1.366 . S
C2343 C2342 1.366 . S
C2343 C2344 1.414 . S
C2343 C2346 1.499 . S
C2344 H2324 0.950 . S
C2344 C2343 1.414 . S
C2344 C2345 1.374 . S
C2345 H2325 0.950 . S
C2345 C2341 1.385 . S
C2345 C2344 1.374 . S
C2346 C2343 1.499 . S
C2346 C2347 1.373 . S
C2346 C2348 1.389 . S
C2347 H2326 0.950 . S
C2347 C2346 1.373 . S
C2347 C2363 1.377 . S
C2348 C2346 1.389 . S
C2348 C2349 1.524 . S
C2348 C2362 1.377 . S
C2349 C2348 1.524 . S
C2349 C2350 1.397 . S
C2349 C2354 1.363 . S
C2350 H2327 0.950 . S
C2350 C2349 1.397 . S
C2350 C2351 1.334 . S
C2351 H2328 0.950 . S
C2351 C2350 1.334 . S
C2351 C2352 1.287 . S
C2352 C2351 1.287 . S
C2352 C2353 1.524 . S
C2352 H2371 0.913 . S
C2353 H2329 0.950 . S
C2353 C2352 1.524 . S
C2353 C2354 1.415 . S
C2354 H2330 0.950 . S
C2354 C2349 1.363 . S
C2354 C2353 1.415 . S
C2355 H2331 0.951 . S
C2355 C2356 1.366 . S
C2355 C2357 1.388 . S
C2356 C2355 1.366 . S
C2356 C2360 1.385 . S
C2357 H2332 0.951 . S
C2357 C2355 1.388 . S
C2357 C2358 1.366 . S
C2358 C2357 1.366 . S
C2358 C2359 1.414 . S
C2358 C2361 1.499 . S
C2359 H2333 0.950 . S
C2359 C2358 1.414 . S
C2359 C2360 1.374 . S
C2360 H2334 0.950 . S
C2360 C2356 1.385 . S
C2360 C2359 1.374 . S
C2361 C2358 1.499 . S
C2361 C2362 1.373 . S
C2361 C2363 1.389 . S
C2362 H2335 0.950 . S
C2362 C2348 1.377 . S
C2362 C2361 1.373 . S
C2363 C2347 1.377 . S
C2363 C2361 1.389 . S
C2363 C2364 1.524 . S
C2364 C2363 1.524 . S
C2364 C2365 1.397 . S
C2364 C2369 1.363 . S
C2365 H2336 0.950 . S
C2365 C2364 1.397 . S
C2365 C2366 1.334 . S
C2366 H2337 0.950 . S
C2366 C2365 1.334 . S
C2366 C2367 1.287 . S
C2367 C2366 1.287 . S
C2367 C2368 1.524 . S
C2367 H2370 0.999 . S
C2368 H2338 0.950 . S
C2368 C2367 1.524 . S
C2368 C2369 1.415 . S
C2369 H2339 0.950 . S
C2369 C2364 1.363 . S
C2369 C2368 1.415 . S
H2370 C2367 0.999 . S
H2371 C2352 0.913 . S
H2372 C2390 0.951 . S
H2373 C2392 0.951 . S
H2374 C2394 0.950 . S
H2375 C2395 0.950 . S
H2376 C2397 0.950 . S
H2377 C2400 0.950 . S
H2378 C2401 0.950 . S
H2379 C2403 0.950 . S
H2380 C2404 0.950 . S
H2381 C2405 0.951 . S
H2382 C2407 0.951 . S
H2383 C2409 0.950 . S
H2384 C2410 0.950 . S
H2385 C2412 0.950 . S
H2386 C2415 0.950 . S
H2387 C2416 0.950 . S
H2388 C2418 0.950 . S
H2389 C2419 0.950 . S
C2390 H2372 0.951 . S
C2390 C2391 1.366 . S
C2390 C2392 1.388 . S
C2391 C2390 1.366 . S
C2391 C2395 1.385 . S
C2392 H2373 0.951 . S
C2392 C2390 1.388 . S
C2392 C2393 1.366 . S
C2393 C2392 1.366 . S
C2393 C2394 1.414 . S
C2393 C2396 1.499 . S
C2394 H2374 0.950 . S
C2394 C2393 1.414 . S
C2394 C2395 1.374 . S
C2395 H2375 0.950 . S
C2395 C2391 1.385 . S
C2395 C2394 1.374 . S
C2396 C2393 1.499 . S
C2396 C2397 1.373 . S
C2396 C2398 1.389 . S
C2397 H2376 0.950 . S
C2397 C2396 1.373 . S
C2397 C2413 1.377 . S
C2398 C2396 1.389 . S
C2398 C2399 1.524 . S
C2398 C2412 1.377 . S
C2399 C2398 1.524 . S
C2399 C2400 1.397 . S
C2399 C2404 1.363 . S
C2400 H2377 0.950 . S
C2400 C2399 1.397 . S
C2400 C2401 1.334 . S
C2401 H2378 0.950 . S
C2401 C2400 1.334 . S
C2401 C2402 1.287 . S
C2402 C2401 1.287 . S
C2402 C2403 1.524 . S
C2402 H2421 0.913 . S
C2403 H2379 0.950 . S
C2403 C2402 1.524 . S
C2403 C2404 1.415 . S
C2404 H2380 0.950 . S
C2404 C2399 1.363 . S
C2404 C2403 1.415 . S
C2405 H2381 0.951 . S
C2405 C2406 1.366 . S
C2405 C2407 1.388 . S
C2406 C2405 1.366 . S
C2406 C2410 1.385 . S
C2407 H2382 0.951 . S
C2407 C2405 1.388 . S
C2407 C2408 1.366 . S
C2408 C2407 1.366 . S
C2408 C2409 1.414 . S
C2408 C2411 1.499 . S
C2409 H2383 0.950 . S
C2409 C2408 1.414 . S
C2409 C2410 1.374 . S
C2410 H2384 0.950 . S
C2410 C2406 1.385 . S
C2410 C2409 1.374 . S
C2411 C2408 1.499 . S
C2411 C2412 1.373 . S
C2411 C2413 1.389 . S
C2412 H2385 0.950 . S
C2412 C2398 1.377 . S
C2412 C2411 1.373 . S
C2413 C2397 1.377 . S
C2413 C2411 1.389 . S
C2413 C2414 1.524 . S
C2414 C2413 1.524 . S
C2414 C2415 1.397 . S
C2414 C2419 1.363 . S
C2415 H2386 0.950 . S
C2415 C2414 1.397 . S
C2415 C2416 1.334 . S
C2416 H2387 0.950 . S
C2416 C2415 1.334 . S
C2416 C2417 1.287 . S
C2417 C2416 1.287 . S
C2417 C2418 1.524 . S
C2417 H2420 0.999 . S
C2418 H2388 0.950 . S
C2418 C2417 1.524 . S
C2418 C2419 1.415 . S
C2419 H2389 0.950 . S
C2419 C2414 1.363 . S
C2419 C2418 1.415 . S
H2420 C2417 0.999 . S
H2421 C2402 0.913 . S
H2422 C2440 0.951 . S
H2423 C2442 0.951 . S
H2424 C2444 0.950 . S
H2425 C2445 0.950 . S
H2426 C2447 0.950 . S
H2427 C2450 0.950 . S
H2428 C2451 0.950 . S
H2429 C2453 0.950 . S
H2430 C2454 0.950 . S
H2431 C2455 0.951 . S
H2432 C2457 0.951 . S
H2433 C2459 0.950 . S
H2434 C2460 0.950 . S
H2435 C2462 0.950 . S
H2436 C2465 0.950 . S
H2437 C2466 0.950 . S
H2438 C2468 0.950 . S
H2439 C2469 0.950 . S
C2440 H2422 0.951 . S
C2440 C2441 1.366 . S
C2440 C2442 1.388 . S
C2441 C2440 1.366 . S
C2441 C2445 1.385 . S
C2442 H2423 0.951 . S
C2442 C2440 1.388 . S
C2442 C2443 1.366 . S
C2443 C2442 1.366 . S
C2443 C2444 1.414 . S
C2443 C2446 1.499 . S
C2444 H2424 0.950 . S
C2444 C2443 1.414 . S
C2444 C2445 1.374 . S
C2445 H2425 0.950 . S
C2445 C2441 1.385 . S
C2445 C2444 1.374 . S
C2446 C2443 1.499 . S
C2446 C2447 1.373 . S
C2446 C2448 1.389 . S
C2447 H2426 0.950 . S
C2447 C2446 1.373 . S
C2447 C2463 1.377 . S
C2448 C2446 1.389 . S
C2448 C2449 1.524 . S
C2448 C2462 1.377 . S
C2449 C2448 1.524 . S
C2449 C2450 1.397 . S
C2449 C2454 1.363 . S
C2450 H2427 0.950 . S
C2450 C2449 1.397 . S
C2450 C2451 1.334 . S
C2451 H2428 0.950 . S
C2451 C2450 1.334 . S
C2451 C2452 1.287 . S
C2452 C2451 1.287 . S
C2452 C2453 1.524 . S
C2452 H2471 0.913 . S
C2453 H2429 0.950 . S
C2453 C2452 1.524 . S
C2453 C2454 1.415 . S
C2454 H2430 0.950 . S
C2454 C2449 1.363 . S
C2454 C2453 1.415 . S
C2455 H2431 0.951 . S
C2455 C2456 1.366 . S
C2455 C2457 1.388 . S
C2456 C2455 1.366 . S
C2456 C2460 1.385 . S
C2457 H2432 0.951 . S
C2457 C2455 1.388 . S
C2457 C2458 1.366 . S
C2458 C2457 1.366 . S
C2458 C2459 1.414 . S
C2458 C2461 1.499 . S
C2459 H2433 0.950 . S
C2459 C2458 1.414 . S
C2459 C2460 1.374 . S
C2460 H2434 0.950 . S
C2460 C2456 1.385 . S
C2460 C2459 1.374 . S
C2461 C2458 1.499 . S
C2461 C2462 1.373 . S
C2461 C2463 1.389 . S
C2462 H2435 0.950 . S
C2462 C2448 1.377 . S
C2462 C2461 1.373 . S
C2463 C2447 1.377 . S
C2463 C2461 1.389 . S
C2463 C2464 1.524 . S
C2464 C2463 1.524 . S
C2464 C2465 1.397 . S
C2464 C2469 1.363 . S
C2465 H2436 0.950 . S
C2465 C2464 1.397 . S
C2465 C2466 1.334 . S
C2466 H2437 0.950 . S
C2466 C2465 1.334 . S
C2466 C2467 1.287 . S
C2467 C2466 1.287 . S
C2467 C2468 1.524 . S
C2467 H2470 0.999 . S
C2468 H2438 0.950 . S
C2468 C2467 1.524 . S
C2468 C2469 1.415 . S
C2469 H2439 0.950 . S
C2469 C2464 1.363 . S
C2469 C2468 1.415 . S
H2470 C2467 0.999 . S
H2471 C2452 0.913 . S
H2472 C2490 0.951 . S
H2473 C2492 0.951 . S
H2474 C2494 0.950 . S
H2475 C2495 0.950 . S
H2476 C2497 0.950 . S
H2477 C2500 0.950 . S
H2478 C2501 0.950 . S
H2479 C2503 0.950 . S
H2480 C2504 0.950 . S
H2481 C2505 0.951 . S
H2482 C2507 0.951 . S
H2483 C2509 0.950 . S
H2484 C2510 0.950 . S
H2485 C2512 0.950 . S
H2486 C2515 0.950 . S
H2487 C2516 0.950 . S
H2488 C2518 0.950 . S
H2489 C2519 0.950 . S
C2490 H2472 0.951 . S
C2490 C2491 1.366 . S
C2490 C2492 1.388 . S
C2491 C2490 1.366 . S
C2491 C2495 1.385 . S
C2492 H2473 0.951 . S
C2492 C2490 1.388 . S
C2492 C2493 1.366 . S
C2493 C2492 1.366 . S
C2493 C2494 1.414 . S
C2493 C2496 1.499 . S
C2494 H2474 0.950 . S
C2494 C2493 1.414 . S
C2494 C2495 1.374 . S
C2495 H2475 0.950 . S
C2495 C2491 1.385 . S
C2495 C2494 1.374 . S
C2496 C2493 1.499 . S
C2496 C2497 1.373 . S
C2496 C2498 1.389 . S
C2497 H2476 0.950 . S
C2497 C2496 1.373 . S
C2497 C2513 1.377 . S
C2498 C2496 1.389 . S
C2498 C2499 1.524 . S
C2498 C2512 1.377 . S
C2499 C2498 1.524 . S
C2499 C2500 1.397 . S
C2499 C2504 1.363 . S
C2500 H2477 0.950 . S
C2500 C2499 1.397 . S
C2500 C2501 1.334 . S
C2501 H2478 0.950 . S
C2501 C2500 1.334 . S
C2501 C2502 1.287 . S
C2502 C2501 1.287 . S
C2502 C2503 1.524 . S
C2502 H2521 0.913 . S
C2503 H2479 0.950 . S
C2503 C2502 1.524 . S
C2503 C2504 1.415 . S
C2504 H2480 0.950 . S
C2504 C2499 1.363 . S
C2504 C2503 1.415 . S
C2505 H2481 0.951 . S
C2505 C2506 1.366 . S
C2505 C2507 1.388 . S
C2506 C2505 1.366 . S
C2506 C2510 1.385 . S
C2507 H2482 0.951 . S
C2507 C2505 1.388 . S
C2507 C2508 1.366 . S
C2508 C2507 1.366 . S
C2508 C2509 1.414 . S
C2508 C2511 1.499 . S
C2509 H2483 0.950 . S
C2509 C2508 1.414 . S
C2509 C2510 1.374 . S
C2510 H2484 0.950 . S
C2510 C2506 1.385 . S
C2510 C2509 1.374 . S
C2511 C2508 1.499 . S
C2511 C2512 1.373 . S
C2511 C2513 1.389 . S
C2512 H2485 0.950 . S
C2512 C2498 1.377 . S
C2512 C2511 1.373 . S
C2513 C2497 1.377 . S
C2513 C2511 1.389 . S
C2513 C2514 1.524 . S
C2514 C2513 1.524 . S
C2514 C2515 1.397 . S
C2514 C2519 1.363 . S
C2515 H2486 0.950 . S
C2515 C2514 1.397 . S
C2515 C2516 1.334 . S
C2516 H2487 0.950 . S
C2516 C2515 1.334 . S
C2516 C2517 1.287 . S
C2517 C2516 1.287 . S
C2517 C2518 1.524 . S
C2517 H2520 0.999 . S
C2518 H2488 0.950 . S
C2518 C2517 1.524 . S
C2518 C2519 1.415 . S
C2519 H2489 0.950 . S
C2519 C2514 1.363 . S
C2519 C2518 1.415 . S
H2520 C2517 0.999 . S
H2521 C2502 0.913 . S
H2522 C2540 0.951 . S
H2523 C2542 0.951 . S
H2524 C2544 0.950 . S
H2525 C2545 0.950 . S
H2526 C2547 0.950 . S
H2527 C2550 0.950 . S
H2528 C2551 0.950 . S
H2529 C2553 0.950 . S
H2530 C2554 0.950 . S
H2531 C2555 0.951 . S
H2532 C2557 0.951 . S
H2533 C2559 0.950 . S
H2534 C2560 0.950 . S
H2535 C2562 0.950 . S
H2536 C2565 0.950 . S
H2537 C2566 0.950 . S
H2538 C2568 0.950 . S
H2539 C2569 0.950 . S
C2540 H2522 0.951 . S
C2540 C2541 1.366 . S
C2540 C2542 1.388 . S
C2541 C2540 1.366 . S
C2541 C2545 1.385 . S
C2542 H2523 0.951 . S
C2542 C2540 1.388 . S
C2542 C2543 1.366 . S
C2543 C2542 1.366 . S
C2543 C2544 1.414 . S
C2543 C2546 1.499 . S
C2544 H2524 0.950 . S
C2544 C2543 1.414 . S
C2544 C2545 1.374 . S
C2545 H2525 0.950 . S
C2545 C2541 1.385 . S
C2545 C2544 1.374 . S
C2546 C2543 1.499 . S
C2546 C2547 1.373 . S
C2546 C2548 1.389 . S
C2547 H2526 0.950 . S
C2547 C2546 1.373 . S
C2547 C2563 1.377 . S
C2548 C2546 1.389 . S
C2548 C2549 1.524 . S
C2548 C2562 1.377 . S
C2549 C2548 1.524 . S
C2549 C2550 1.397 . S
C2549 C2554 1.363 . S
C2550 H2527 0.950 . S
C2550 C2549 1.397 . S
C2550 C2551 1.334 . S
C2551 H2528 0.950 . S
C2551 C2550 1.334 . S
C2551 C2552 1.287 . S
C2552 C2551 1.287 . S
C2552 C2553 1.524 . S
C2552 H2571 0.913 . S
C2553 H2529 0.950 . S
C2553 C2552 1.524 . S
C2553 C2554 1.415 . S
C2554 H2530 0.950 . S
C2554 C2549 1.363 . S
C2554 C2553 1.415 . S
C2555 H2531 0.951 . S
C2555 C2556 1.366 . S
C2555 C2557 1.388 . S
C2556 C2555 1.366 . S
C2556 C2560 1.385 . S
C2557 H2532 0.951 . S
C2557 C2555 1.388 . S
C2557 C2558 1.366 . S
C2558 C2557 1.366 . S
C2558 C2559 1.414 . S
C2558 C2561 1.499 . S
C2559 H2533 0.950 . S
C2559 C2558 1.414 . S
C2559 C2560 1.374 . S
C2560 H2534 0.950 . S
C2560 C2556 1.385 . S
C2560 C2559 1.374 . S
C2561 C2558 1.499 . S
C2561 C2562 1.373 . S
C2561 C2563 1.389 . S
C2562 H2535 0.950 . S
C2562 C2548 1.377 . S
C2562 C2561 1.373 . S
C2563 C2547 1.377 . S
C2563 C2561 1.389 . S
C2563 C2564 1.524 . S
C2564 C2563 1.524 . S
C2564 C2565 1.397 . S
C2564 C2569 1.363 . S
C2565 H2536 0.950 . S
C2565 C2564 1.397 . S
C2565 C2566 1.334 . S
C2566 H2537 0.950 . S
C2566 C2565 1.334 . S
C2566 C2567 1.287 . S
C2567 C2566 1.287 . S
C2567 C2568 1.524 . S
C2567 H2570 0.999 . S
C2568 H2538 0.950 . S
C2568 C2567 1.524 . S
C2568 C2569 1.415 . S
C2569 H2539 0.950 . S
C2569 C2564 1.363 . S
C2569 C2568 1.415 . S
H2570 C2567 0.999 . S
H2571 C2552 0.913 . S
H2572 C2590 0.951 . S
H2573 C2592 0.951 . S
H2574 C2594 0.950 . S
H2575 C2595 0.950 . S
H2576 C2597 0.950 . S
H2577 C2600 0.943 1_565 S
H2578 C2601 0.950 . S
H2579 C2603 0.950 . S
H2580 C2604 0.950 . S
H2581 C2605 0.951 . S
H2582 C2607 0.951 . S
H2583 C2609 0.950 . S
H2584 C2610 0.950 . S
H2585 C2612 0.950 . S
H2586 C2615 0.950 1_545 S
H2587 C2616 0.950 . S
H2588 C2618 0.950 . S
H2589 C2619 0.950 . S
C2590 H2572 0.951 . S
C2590 C2591 1.366 . S
C2590 C2592 1.388 . S
C2591 C2590 1.366 . S
C2591 C2595 1.385 . S
C2592 H2573 0.951 . S
C2592 C2590 1.388 . S
C2592 C2593 1.366 . S
C2593 C2592 1.366 . S
C2593 C2594 1.414 . S
C2593 C2596 1.499 . S
C2594 H2574 0.950 . S
C2594 C2593 1.414 . S
C2594 C2595 1.374 . S
C2595 H2575 0.950 . S
C2595 C2591 1.385 . S
C2595 C2594 1.374 . S
C2596 C2593 1.499 . S
C2596 C2597 1.373 . S
C2596 C2598 1.389 1_565 S
C2597 H2576 0.950 . S
C2597 C2596 1.373 . S
C2597 C2613 1.420 . S
C2598 C2596 1.389 1_545 S
C2598 C2599 1.524 . S
C2598 C2612 1.377 . S
C2599 C2598 1.524 . S
C2599 C2600 1.397 . S
C2599 C2604 1.363 . S
C2600 H2577 0.943 1_545 S
C2600 C2599 1.397 . S
C2600 C2601 1.334 . S
C2601 H2578 0.950 . S
C2601 C2600 1.334 . S
C2601 C2602 1.287 . S
C2602 C2601 1.287 . S
C2602 C2603 1.524 . S
C2602 H2621 0.913 . S
C2603 H2579 0.950 . S
C2603 C2602 1.524 . S
C2603 C2604 1.415 . S
C2604 H2580 0.950 . S
C2604 C2599 1.363 . S
C2604 C2603 1.415 . S
C2605 H2581 0.951 . S
C2605 C2606 1.366 . S
C2605 C2607 1.388 . S
C2606 C2605 1.366 . S
C2606 C2610 1.385 . S
C2607 H2582 0.951 . S
C2607 C2605 1.388 . S
C2607 C2608 1.366 . S
C2608 C2607 1.366 . S
C2608 C2609 1.414 . S
C2608 C2611 1.499 . S
C2609 H2583 0.950 . S
C2609 C2608 1.414 . S
C2609 C2610 1.374 . S
C2610 H2584 0.950 . S
C2610 C2606 1.385 . S
C2610 C2609 1.374 . S
C2611 C2608 1.499 . S
C2611 C2612 1.373 . S
C2611 C2613 1.336 1_545 S
C2612 H2585 0.950 . S
C2612 C2598 1.377 . S
C2612 C2611 1.373 . S
C2613 C2597 1.420 . S
C2613 C2611 1.336 1_565 S
C2613 C2614 1.540 . S
C2614 C2613 1.540 . S
C2614 C2615 1.397 . S
C2614 C2619 1.363 . S
C2615 H2586 0.950 1_565 S
C2615 C2614 1.397 . S
C2615 C2616 1.334 . S
C2616 H2587 0.950 . S
C2616 C2615 1.334 . S
C2616 C2617 1.287 . S
C2617 C2616 1.287 . S
C2617 C2618 1.524 . S
C2617 H2620 0.999 . S
C2618 H2588 0.950 . S
C2618 C2617 1.524 . S
C2618 C2619 1.415 . S
C2619 H2589 0.950 . S
C2619 C2614 1.363 . S
C2619 C2618 1.415 . S
H2620 C2617 0.999 . S
H2621 C2602 0.913 . S
H2622 C2640 0.951 . S
H2623 C2642 0.951 1_655 S
H2624 C2644 0.950 . S
H2625 C2645 0.950 . S
H2626 C2647 0.950 1_455 S
H2627 C2650 0.950 . S
H2628 C2651 0.950 . S
H2629 C2653 0.950 . S
H2630 C2654 0.950 . S
H2631 C2655 0.951 . S
H2632 C2657 0.951 . S
H2633 C2659 0.950 . S
H2634 C2660 0.950 . S
H2635 C2662 0.950 . S
H2636 C2665 0.950 . S
H2637 C2666 0.950 . S
H2638 C2668 0.950 . S
H2639 C2669 0.950 . S
C2640 H2622 0.951 . S
C2640 C2641 1.366 . S
C2640 C2642 1.388 . S
C2641 C2640 1.366 . S
C2641 C2645 1.385 . S
C2642 H2623 0.951 1_455 S
C2642 C2640 1.388 . S
C2642 C2643 1.366 . S
C2643 C2642 1.366 . S
C2643 C2644 1.414 . S
C2643 C2646 1.499 1_455 S
C2644 H2624 0.950 . S
C2644 C2643 1.414 . S
C2644 C2645 1.374 . S
C2645 H2625 0.950 . S
C2645 C2641 1.385 . S
C2645 C2644 1.374 . S
C2646 C2643 1.499 1_655 S
C2646 C2647 1.373 . S
C2646 C2648 1.389 . S
C2647 H2626 0.950 1_655 S
C2647 C2646 1.373 . S
C2647 C2663 1.377 . S
C2648 C2646 1.389 . S
C2648 C2649 1.524 . S
C2648 C2662 1.377 . S
C2649 C2648 1.524 . S
C2649 C2650 1.397 . S
C2649 C2654 1.363 . S
C2650 H2627 0.950 . S
C2650 C2649 1.397 . S
C2650 C2651 1.334 . S
C2651 H2628 0.950 . S
C2651 C2650 1.334 . S
C2651 C2652 1.287 . S
C2652 C2651 1.287 . S
C2652 C2653 1.524 . S
C2652 H2671 0.913 . S
C2653 H2629 0.950 . S
C2653 C2652 1.524 . S
C2653 C2654 1.415 . S
C2654 H2630 0.950 . S
C2654 C2649 1.363 . S
C2654 C2653 1.415 . S
C2655 H2631 0.951 . S
C2655 C2656 1.366 . S
C2655 C2657 1.388 . S
C2656 C2655 1.366 . S
C2656 C2660 1.385 . S
C2657 H2632 0.951 . S
C2657 C2655 1.388 . S
C2657 C2658 1.366 . S
C2658 C2657 1.366 . S
C2658 C2659 1.414 . S
C2658 C2661 1.499 . S
C2659 H2633 0.950 . S
C2659 C2658 1.414 . S
C2659 C2660 1.374 . S
C2660 H2634 0.950 . S
C2660 C2656 1.385 . S
C2660 C2659 1.374 . S
C2661 C2658 1.499 . S
C2661 C2662 1.373 . S
C2661 C2663 1.389 . S
C2662 H2635 0.950 . S
C2662 C2648 1.377 . S
C2662 C2661 1.373 . S
C2663 C2647 1.377 . S
C2663 C2661 1.389 . S
C2663 C2664 1.524 . S
C2664 C2663 1.524 . S
C2664 C2665 1.397 . S
C2664 C2669 1.363 1_655 S
C2665 H2636 0.950 . S
C2665 C2664 1.397 . S
C2665 C2666 1.334 . S
C2666 H2637 0.950 . S
C2666 C2665 1.334 . S
C2666 C2667 1.287 . S
C2667 C2666 1.287 . S
C2667 C2668 1.524 1_655 S
C2667 H2670 0.999 1_655 S
C2668 H2638 0.950 . S
C2668 C2667 1.524 1_455 S
C2668 C2669 1.415 . S
C2669 H2639 0.950 . S
C2669 C2664 1.363 1_455 S
C2669 C2668 1.415 . S
H2670 C2667 0.999 1_455 S
H2671 C2652 0.913 . S
H2672 C2690 0.951 . S
H2673 C2692 0.951 . S
H2674 C2694 0.950 . S
H2675 C2695 0.950 . S
H2676 C2697 0.950 . S
H2677 C2700 0.950 . S
H2678 C2701 0.950 . S
H2679 C2703 0.950 . S
H2680 C2704 0.950 1_545 S
H2681 C2705 0.951 . S
H2682 C2707 0.951 . S
H2683 C2709 0.950 . S
H2684 C2710 0.950 . S
H2685 C2712 0.950 . S
H2686 C2715 0.950 . S
H2687 C2716 0.950 . S
H2688 C2718 0.950 . S
H2689 C2719 0.950 1_565 S
C2690 H2672 0.951 . S
C2690 C2691 1.366 . S
C2690 C2692 1.388 . S
C2691 C2690 1.366 . S
C2691 C2695 1.385 . S
C2692 H2673 0.951 . S
C2692 C2690 1.388 . S
C2692 C2693 1.366 . S
C2693 C2692 1.366 . S
C2693 C2694 1.414 . S
C2693 C2696 1.499 . S
C2694 H2674 0.950 . S
C2694 C2693 1.414 . S
C2694 C2695 1.374 . S
C2695 H2675 0.950 . S
C2695 C2691 1.385 . S
C2695 C2694 1.374 . S
C2696 C2693 1.499 . S
C2696 C2697 1.373 . S
C2696 C2698 1.389 . S
C2697 H2676 0.950 . S
C2697 C2696 1.373 . S
C2697 C2713 1.377 1_565 S
C2698 C2696 1.389 . S
C2698 C2699 1.524 . S
C2698 C2712 1.377 1_565 S
C2699 C2698 1.524 . S
C2699 C2700 1.397 . S
C2699 C2704 1.363 . S
C2700 H2677 0.950 . S
C2700 C2699 1.397 . S
C2700 C2701 1.334 . S
C2701 H2678 0.950 . S
C2701 C2700 1.334 . S
C2701 C2702 1.287 . S
C2702 C2701 1.287 . S
C2702 C2703 1.524 . S
C2702 H2721 0.913 . S
C2703 H2679 0.950 . S
C2703 C2702 1.524 . S
C2703 C2704 1.415 . S
C2704 H2680 0.950 1_565 S
C2704 C2699 1.363 . S
C2704 C2703 1.415 . S
C2705 H2681 0.951 . S
C2705 C2706 1.366 . S
C2705 C2707 1.388 . S
C2706 C2705 1.366 . S
C2706 C2710 1.385 . S
C2707 H2682 0.951 . S
C2707 C2705 1.388 . S
C2707 C2708 1.366 . S
C2708 C2707 1.366 . S
C2708 C2709 1.414 . S
C2708 C2711 1.499 . S
C2709 H2683 0.950 . S
C2709 C2708 1.414 . S
C2709 C2710 1.374 . S
C2710 H2684 0.950 . S
C2710 C2706 1.385 . S
C2710 C2709 1.374 . S
C2711 C2708 1.499 . S
C2711 C2712 1.373 . S
C2711 C2713 1.389 . S
C2712 H2685 0.950 . S
C2712 C2698 1.377 1_545 S
C2712 C2711 1.373 . S
C2713 C2697 1.377 1_545 S
C2713 C2711 1.389 . S
C2713 C2714 1.524 . S
C2714 C2713 1.524 . S
C2714 C2715 1.397 . S
C2714 C2719 1.363 . S
C2715 H2686 0.950 . S
C2715 C2714 1.397 . S
C2715 C2716 1.334 . S
C2716 H2687 0.950 . S
C2716 C2715 1.334 . S
C2716 C2717 1.287 . S
C2717 C2716 1.287 . S
C2717 C2718 1.524 . S
C2717 H2720 0.999 . S
C2718 H2688 0.950 . S
C2718 C2717 1.524 . S
C2718 C2719 1.415 . S
C2719 H2689 0.950 1_545 S
C2719 C2714 1.363 . S
C2719 C2718 1.415 . S
H2720 C2717 0.999 . S
H2721 C2702 0.913 . S
H2722 C2740 0.951 . S
H2723 C2742 0.951 . S
H2724 C2744 0.950 . S
H2725 C2745 0.950 . S
H2726 C2747 0.950 . S
H2727 C2750 0.950 . S
H2728 C2751 0.950 . S
H2729 C2753 0.950 . S
H2730 C2754 0.950 . S
H2731 C2755 0.951 . S
H2732 C2757 0.895 1_655 S
H2733 C2759 0.950 . S
H2734 C2760 0.950 . S
H2735 C2762 0.950 . S
H2736 C2765 0.950 . S
H2737 C2766 0.950 . S
H2738 C2768 0.950 . S
H2739 C2769 0.950 . S
C2740 H2722 0.951 . S
C2740 C2741 1.366 . S
C2740 C2742 1.388 . S
C2741 C2740 1.366 . S
C2741 C2745 1.385 . S
C2742 H2723 0.951 . S
C2742 C2740 1.388 . S
C2742 C2743 1.366 . S
C2743 C2742 1.366 . S
C2743 C2744 1.414 . S
C2743 C2746 1.499 . S
C2744 H2724 0.950 . S
C2744 C2743 1.414 . S
C2744 C2745 1.374 . S
C2745 H2725 0.950 . S
C2745 C2741 1.385 . S
C2745 C2744 1.374 . S
C2746 C2743 1.499 . S
C2746 C2747 1.373 . S
C2746 C2748 1.389 . S
C2747 H2726 0.950 . S
C2747 C2746 1.373 . S
C2747 C2763 1.377 . S
C2748 C2746 1.389 . S
C2748 C2749 1.524 . S
C2748 C2762 1.377 1_655 S
C2749 C2748 1.524 . S
C2749 C2750 1.397 . S
C2749 C2754 1.363 1_655 S
C2750 H2727 0.950 . S
C2750 C2749 1.397 . S
C2750 C2751 1.334 . S
C2751 H2728 0.950 . S
C2751 C2750 1.334 . S
C2751 C2752 1.287 . S
C2752 C2751 1.287 . S
C2752 C2753 1.524 1_655 S
C2752 H2771 0.913 . S
C2753 H2729 0.950 . S
C2753 C2752 1.524 1_455 S
C2753 C2754 1.415 . S
C2754 H2730 0.950 . S
C2754 C2749 1.363 1_455 S
C2754 C2753 1.415 . S
C2755 H2731 0.951 . S
C2755 C2756 1.366 . S
C2755 C2757 1.388 . S
C2756 C2755 1.366 . S
C2756 C2760 1.385 . S
C2757 H2732 0.895 1_455 S
C2757 C2755 1.388 . S
C2757 C2758 1.366 . S
C2758 C2757 1.366 . S
C2758 C2759 1.414 . S
C2758 C2761 1.499 . S
C2759 H2733 0.950 . S
C2759 C2758 1.414 . S
C2759 C2760 1.374 . S
C2760 H2734 0.950 . S
C2760 C2756 1.385 . S
C2760 C2759 1.374 . S
C2761 C2758 1.499 . S
C2761 C2762 1.373 . S
C2761 C2763 1.389 1_455 S
C2762 H2735 0.950 . S
C2762 C2748 1.377 1_455 S
C2762 C2761 1.373 . S
C2763 C2747 1.377 . S
C2763 C2761 1.389 1_655 S
C2763 C2764 1.524 . S
C2764 C2763 1.524 . S
C2764 C2765 1.397 1_655 S
C2764 C2769 1.363 . S
C2765 H2736 0.950 . S
C2765 C2764 1.397 1_455 S
C2765 C2766 1.334 . S
C2766 H2737 0.950 . S
C2766 C2765 1.334 . S
C2766 C2767 1.287 1_455 S
C2767 C2766 1.287 1_655 S
C2767 C2768 1.524 . S
C2767 H2770 0.999 . S
C2768 H2738 0.950 . S
C2768 C2767 1.524 . S
C2768 C2769 1.415 . S
C2769 H2739 0.950 . S
C2769 C2764 1.363 . S
C2769 C2768 1.415 . S
H2770 C2767 0.999 . S
H2771 C2752 0.913 . S
H2772 C2790 0.951 . S
H2773 C2792 0.951 . S
H2774 C2794 0.950 . S
H2775 C2795 0.950 . S
H2776 C2797 0.950 . S
H2777 C2800 0.950 . S
H2778 C2801 0.950 . S
H2779 C2803 0.950 . S
H2780 C2804 0.950 . S
H2781 C2805 0.951 . S
H2782 C2807 0.951 . S
H2783 C2809 0.950 . S
H2784 C2810 0.950 . S
H2785 C2812 0.950 . S
H2786 C2815 0.950 . S
H2787 C2816 0.950 . S
H2788 C2818 0.950 . S
H2789 C2819 0.950 . S
C2790 H2772 0.951 . S
C2790 C2791 1.366 . S
C2790 C2792 1.388 . S
C2791 C2790 1.366 . S
C2791 C2795 1.385 . S
C2792 H2773 0.951 . S
C2792 C2790 1.388 . S
C2792 C2793 1.366 . S
C2793 C2792 1.366 . S
C2793 C2794 1.414 . S
C2793 C2796 1.499 . S
C2794 H2774 0.950 . S
C2794 C2793 1.414 . S
C2794 C2795 1.374 . S
C2795 H2775 0.950 . S
C2795 C2791 1.385 . S
C2795 C2794 1.374 . S
C2796 C2793 1.499 . S
C2796 C2797 1.373 . S
C2796 C2798 1.389 . S
C2797 H2776 0.950 . S
C2797 C2796 1.373 . S
C2797 C2813 1.377 . S
C2798 C2796 1.389 . S
C2798 C2799 1.524 . S
C2798 C2812 1.377 . S
C2799 C2798 1.524 . S
C2799 C2800 1.397 . S
C2799 C2804 1.363 . S
C2800 H2777 0.950 . S
C2800 C2799 1.397 . S
C2800 C2801 1.334 . S
C2801 H2778 0.950 . S
C2801 C2800 1.334 . S
C2801 C2802 1.287 . S
C2802 C2801 1.287 . S
C2802 C2803 1.524 . S
C2802 H2821 0.913 . S
C2803 H2779 0.950 . S
C2803 C2802 1.524 . S
C2803 C2804 1.415 . S
C2804 H2780 0.950 . S
C2804 C2799 1.363 . S
C2804 C2803 1.415 . S
C2805 H2781 0.951 . S
C2805 C2806 1.366 . S
C2805 C2807 1.388 . S
C2806 C2805 1.366 . S
C2806 C2810 1.385 . S
C2807 H2782 0.951 . S
C2807 C2805 1.388 . S
C2807 C2808 1.366 . S
C2808 C2807 1.366 . S
C2808 C2809 1.414 . S
C2808 C2811 1.499 . S
C2809 H2783 0.950 . S
C2809 C2808 1.414 . S
C2809 C2810 1.374 . S
C2810 H2784 0.950 . S
C2810 C2806 1.385 . S
C2810 C2809 1.374 . S
C2811 C2808 1.499 . S
C2811 C2812 1.373 . S
C2811 C2813 1.389 . S
C2812 H2785 0.950 . S
C2812 C2798 1.377 . S
C2812 C2811 1.373 . S
C2813 C2797 1.377 . S
C2813 C2811 1.389 . S
C2813 C2814 1.524 . S
C2814 C2813 1.524 . S
C2814 C2815 1.397 . S
C2814 C2819 1.363 . S
C2815 H2786 0.950 . S
C2815 C2814 1.397 . S
C2815 C2816 1.334 . S
C2816 H2787 0.950 . S
C2816 C2815 1.334 . S
C2816 C2817 1.287 . S
C2817 C2816 1.287 . S
C2817 C2818 1.524 . S
C2817 H2820 0.999 . S
C2818 H2788 0.950 . S
C2818 C2817 1.524 . S
C2818 C2819 1.415 . S
C2819 H2789 0.950 . S
C2819 C2814 1.363 . S
C2819 C2818 1.415 . S
H2820 C2817 0.999 . S
H2821 C2802 0.913 . S
H2822 C2840 0.951 . S
H2823 C2842 0.951 . S
H2824 C2844 0.950 . S
H2825 C2845 0.950 . S
H2826 C2847 0.950 . S
H2827 C2850 0.950 . S
H2828 C2851 0.950 . S
H2829 C2853 0.950 . S
H2830 C2854 0.950 . S
H2831 C2855 0.951 . S
H2832 C2857 0.951 . S
H2833 C2859 0.950 . S
H2834 C2860 0.950 . S
H2835 C2862 0.950 . S
H2836 C2865 0.950 . S
H2837 C2866 0.950 . S
H2838 C2868 0.950 . S
H2839 C2869 0.950 . S
C2840 H2822 0.951 . S
C2840 C2841 1.366 . S
C2840 C2842 1.388 . S
C2841 C2840 1.366 . S
C2841 C2845 1.385 . S
C2842 H2823 0.951 . S
C2842 C2840 1.388 . S
C2842 C2843 1.366 . S
C2843 C2842 1.366 . S
C2843 C2844 1.414 . S
C2843 C2846 1.499 . S
C2844 H2824 0.950 . S
C2844 C2843 1.414 . S
C2844 C2845 1.374 . S
C2845 H2825 0.950 . S
C2845 C2841 1.385 . S
C2845 C2844 1.374 . S
C2846 C2843 1.499 . S
C2846 C2847 1.373 . S
C2846 C2848 1.389 . S
C2847 H2826 0.950 . S
C2847 C2846 1.373 . S
C2847 C2863 1.377 . S
C2848 C2846 1.389 . S
C2848 C2849 1.524 . S
C2848 C2862 1.377 . S
C2849 C2848 1.524 . S
C2849 C2850 1.397 . S
C2849 C2854 1.363 . S
C2850 H2827 0.950 . S
C2850 C2849 1.397 . S
C2850 C2851 1.334 . S
C2851 H2828 0.950 . S
C2851 C2850 1.334 . S
C2851 C2852 1.287 . S
C2852 C2851 1.287 . S
C2852 C2853 1.524 . S
C2852 H2871 0.913 . S
C2853 H2829 0.950 . S
C2853 C2852 1.524 . S
C2853 C2854 1.415 . S
C2854 H2830 0.950 . S
C2854 C2849 1.363 . S
C2854 C2853 1.415 . S
C2855 H2831 0.951 . S
C2855 C2856 1.366 . S
C2855 C2857 1.388 . S
C2856 C2855 1.366 . S
C2856 C2860 1.385 . S
C2857 H2832 0.951 . S
C2857 C2855 1.388 . S
C2857 C2858 1.366 . S
C2858 C2857 1.366 . S
C2858 C2859 1.414 . S
C2858 C2861 1.499 . S
C2859 H2833 0.950 . S
C2859 C2858 1.414 . S
C2859 C2860 1.374 . S
C2860 H2834 0.950 . S
C2860 C2856 1.385 . S
C2860 C2859 1.374 . S
C2861 C2858 1.499 . S
C2861 C2862 1.373 . S
C2861 C2863 1.389 . S
C2862 H2835 0.950 . S
C2862 C2848 1.377 . S
C2862 C2861 1.373 . S
C2863 C2847 1.377 . S
C2863 C2861 1.389 . S
C2863 C2864 1.524 . S
C2864 C2863 1.524 . S
C2864 C2865 1.397 . S
C2864 C2869 1.363 . S
C2865 H2836 0.950 . S
C2865 C2864 1.397 . S
C2865 C2866 1.334 . S
C2866 H2837 0.950 . S
C2866 C2865 1.334 . S
C2866 C2867 1.287 . S
C2867 C2866 1.287 . S
C2867 C2868 1.524 . S
C2867 H2870 0.999 . S
C2868 H2838 0.950 . S
C2868 C2867 1.524 . S
C2868 C2869 1.415 . S
C2869 H2839 0.950 . S
C2869 C2864 1.363 . S
C2869 C2868 1.415 . S
H2870 C2867 0.999 . S
H2871 C2852 0.913 . S
H2872 C2890 0.951 . S
H2873 C2892 0.951 . S
H2874 C2894 0.950 . S
H2875 C2895 0.950 . S
H2876 C2897 0.950 . S
H2877 C2900 0.950 . S
H2878 C2901 0.950 . S
H2879 C2903 0.950 . S
H2880 C2904 0.950 . S
H2881 C2905 0.951 . S
H2882 C2907 0.951 . S
H2883 C2909 0.950 . S
H2884 C2910 0.950 . S
H2885 C2912 0.950 . S
H2886 C2915 0.950 . S
H2887 C2916 0.950 . S
H2888 C2918 0.950 . S
H2889 C2919 0.950 . S
C2890 H2872 0.951 . S
C2890 C2891 1.366 . S
C2890 C2892 1.388 . S
C2891 C2890 1.366 . S
C2891 C2895 1.385 . S
C2892 H2873 0.951 . S
C2892 C2890 1.388 . S
C2892 C2893 1.366 . S
C2893 C2892 1.366 . S
C2893 C2894 1.414 . S
C2893 C2896 1.499 . S
C2894 H2874 0.950 . S
C2894 C2893 1.414 . S
C2894 C2895 1.374 . S
C2895 H2875 0.950 . S
C2895 C2891 1.385 . S
C2895 C2894 1.374 . S
C2896 C2893 1.499 . S
C2896 C2897 1.373 . S
C2896 C2898 1.389 . S
C2897 H2876 0.950 . S
C2897 C2896 1.373 . S
C2897 C2913 1.377 . S
C2898 C2896 1.389 . S
C2898 C2899 1.524 . S
C2898 C2912 1.377 . S
C2899 C2898 1.524 . S
C2899 C2900 1.397 . S
C2899 C2904 1.363 . S
C2900 H2877 0.950 . S
C2900 C2899 1.397 . S
C2900 C2901 1.334 . S
C2901 H2878 0.950 . S
C2901 C2900 1.334 . S
C2901 C2902 1.287 . S
C2902 C2901 1.287 . S
C2902 C2903 1.524 . S
C2902 H2921 0.913 . S
C2903 H2879 0.950 . S
C2903 C2902 1.524 . S
C2903 C2904 1.415 . S
C2904 H2880 0.950 . S
C2904 C2899 1.363 . S
C2904 C2903 1.415 . S
C2905 H2881 0.951 . S
C2905 C2906 1.366 . S
C2905 C2907 1.388 . S
C2906 C2905 1.366 . S
C2906 C2910 1.385 . S
C2907 H2882 0.951 . S
C2907 C2905 1.388 . S
C2907 C2908 1.366 . S
C2908 C2907 1.366 . S
C2908 C2909 1.414 . S
C2908 C2911 1.499 . S
C2909 H2883 0.950 . S
C2909 C2908 1.414 . S
C2909 C2910 1.374 . S
C2910 H2884 0.950 . S
C2910 C2906 1.385 . S
C2910 C2909 1.374 . S
C2911 C2908 1.499 . S
C2911 C2912 1.373 . S
C2911 C2913 1.389 . S
C2912 H2885 0.950 . S
C2912 C2898 1.377 . S
C2912 C2911 1.373 . S
C2913 C2897 1.377 . S
C2913 C2911 1.389 . S
C2913 C2914 1.524 . S
C2914 C2913 1.524 . S
C2914 C2915 1.397 . S
C2914 C2919 1.363 . S
C2915 H2886 0.950 . S
C2915 C2914 1.397 . S
C2915 C2916 1.334 . S
C2916 H2887 0.950 . S
C2916 C2915 1.334 . S
C2916 C2917 1.287 . S
C2917 C2916 1.287 . S
C2917 C2918 1.524 . S
C2917 H2920 0.999 . S
C2918 H2888 0.950 . S
C2918 C2917 1.524 . S
C2918 C2919 1.415 . S
C2919 H2889 0.950 . S
C2919 C2914 1.363 . S
C2919 C2918 1.415 . S
H2920 C2917 0.999 . S
H2921 C2902 0.913 . S
H2922 C2940 0.951 . S
H2923 C2942 0.951 . S
H2924 C2944 0.950 . S
H2925 C2945 0.950 . S
H2926 C2947 0.950 . S
H2927 C2950 0.943 1_554 S
H2928 C2951 0.950 . S
H2929 C2953 0.950 . S
H2930 C2954 0.956 . S
H2931 C2955 0.951 . S
H2932 C2957 0.951 . S
H2933 C2959 0.950 . S
H2934 C2960 0.950 . S
H2935 C2962 0.950 . S
H2936 C2965 0.950 . S
H2937 C2966 0.950 . S
H2938 C2968 0.950 . S
H2939 C2969 0.950 . S
C2940 H2922 0.951 . S
C2940 C2941 1.366 . S
C2940 C2942 1.388 . S
C2941 C2940 1.366 . S
C2941 C2945 1.385 . S
C2942 H2923 0.951 . S
C2942 C2940 1.388 . S
C2942 C2943 1.366 . S
C2943 C2942 1.366 . S
C2943 C2944 1.414 . S
C2943 C2946 1.499 . S
C2944 H2924 0.950 . S
C2944 C2943 1.414 . S
C2944 C2945 1.374 . S
C2945 H2925 0.950 . S
C2945 C2941 1.385 . S
C2945 C2944 1.374 . S
C2946 C2943 1.499 . S
C2946 C2947 1.373 . S
C2946 C2948 1.389 . S
C2947 H2926 0.950 . S
C2947 C2946 1.373 . S
C2947 C2963 1.377 . S
C2948 C2946 1.389 . S
C2948 C2949 1.524 . S
C2948 C2962 1.377 1_554 S
C2949 C2948 1.524 . S
C2949 C2950 1.390 1_554 S
C2949 C2954 1.363 1_554 S
C2950 H2927 0.943 1_556 S
C2950 C2949 1.390 1_556 S
C2950 C2951 1.351 . S
C2951 H2928 0.950 . S
C2951 C2950 1.351 . S
C2951 C2952 1.287 . S
C2952 C2951 1.287 . S
C2952 C2953 1.524 . S
C2952 H2971 0.913 . S
C2953 H2929 0.950 . S
C2953 C2952 1.524 . S
C2953 C2954 1.415 . S
C2954 H2930 0.956 . S
C2954 C2949 1.363 1_556 S
C2954 C2953 1.415 . S
C2955 H2931 0.951 . S
C2955 C2956 1.366 . S
C2955 C2957 1.388 . S
C2956 C2955 1.366 . S
C2956 C2960 1.385 . S
C2957 H2932 0.951 . S
C2957 C2955 1.388 . S
C2957 C2958 1.366 . S
C2958 C2957 1.366 . S
C2958 C2959 1.414 . S
C2958 C2961 1.499 . S
C2959 H2933 0.950 . S
C2959 C2958 1.414 . S
C2959 C2960 1.374 . S
C2960 H2934 0.950 . S
C2960 C2956 1.385 . S
C2960 C2959 1.374 . S
C2961 C2958 1.499 . S
C2961 C2962 1.373 . S
C2961 C2963 1.389 1_556 S
C2962 H2935 0.950 . S
C2962 C2948 1.377 1_556 S
C2962 C2961 1.373 . S
C2963 C2947 1.377 . S
C2963 C2961 1.389 1_554 S
C2963 C2964 1.524 . S
C2964 C2963 1.524 . S
C2964 C2965 1.397 . S
C2964 C2969 1.363 . S
C2965 H2936 0.950 . S
C2965 C2964 1.397 . S
C2965 C2966 1.334 . S
C2966 H2937 0.950 . S
C2966 C2965 1.334 . S
C2966 C2967 1.287 . S
C2967 C2966 1.287 . S
C2967 C2968 1.524 . S
C2967 H2970 0.999 . S
C2968 H2938 0.950 . S
C2968 C2967 1.524 . S
C2968 C2969 1.415 . S
C2969 H2939 0.950 . S
C2969 C2964 1.363 . S
C2969 C2968 1.415 . S
H2970 C2967 0.999 . S
H2971 C2952 0.913 . S
H2972 C2990 0.951 . S
H2973 C2992 0.951 . S
H2974 C2994 0.950 . S
H2975 C2995 0.950 . S
H2976 C2997 0.950 . S
H2977 C3000 0.950 . S
H2978 C3001 0.950 . S
H2979 C3003 0.950 . S
H2980 C3004 0.950 . S
H2981 C3005 0.951 . S
H2982 C3007 0.951 . S
H2983 C3009 0.950 . S
H2984 C3010 0.950 . S
H2985 C3012 0.950 . S
H2986 C3015 0.950 . S
H2987 C3016 0.950 . S
H2988 C3018 0.950 . S
H2989 C3019 0.950 . S
C2990 H2972 0.951 . S
C2990 C2991 1.366 . S
C2990 C2992 1.388 . S
C2991 C2990 1.366 . S
C2991 C2995 1.385 . S
C2992 H2973 0.951 . S
C2992 C2990 1.388 . S
C2992 C2993 1.366 . S
C2993 C2992 1.366 . S
C2993 C2994 1.414 . S
C2993 C2996 1.499 . S
C2994 H2974 0.950 . S
C2994 C2993 1.414 . S
C2994 C2995 1.374 . S
C2995 H2975 0.950 . S
C2995 C2991 1.385 . S
C2995 C2994 1.374 . S
C2996 C2993 1.499 . S
C2996 C2997 1.373 . S
C2996 C2998 1.389 . S
C2997 H2976 0.950 . S
C2997 C2996 1.373 . S
C2997 C3013 1.377 . S
C2998 C2996 1.389 . S
C2998 C2999 1.524 . S
C2998 C3012 1.377 . S
C2999 C2998 1.524 . S
C2999 C3000 1.397 . S
C2999 C3004 1.363 . S
C3000 H2977 0.950 . S
C3000 C2999 1.397 . S
C3000 C3001 1.334 . S
C3001 H2978 0.950 . S
C3001 C3000 1.334 . S
C3001 C3002 1.287 . S
C3002 C3001 1.287 . S
C3002 C3003 1.524 . S
C3002 H3021 0.913 . S
C3003 H2979 0.950 . S
C3003 C3002 1.524 . S
C3003 C3004 1.415 . S
C3004 H2980 0.950 . S
C3004 C2999 1.363 . S
C3004 C3003 1.415 . S
C3005 H2981 0.951 . S
C3005 C3006 1.366 . S
C3005 C3007 1.388 . S
C3006 C3005 1.366 . S
C3006 C3010 1.385 . S
C3007 H2982 0.951 . S
C3007 C3005 1.388 . S
C3007 C3008 1.366 . S
C3008 C3007 1.366 . S
C3008 C3009 1.414 . S
C3008 C3011 1.499 . S
C3009 H2983 0.950 . S
C3009 C3008 1.414 . S
C3009 C3010 1.374 . S
C3010 H2984 0.950 . S
C3010 C3006 1.385 . S
C3010 C3009 1.374 . S
C3011 C3008 1.499 . S
C3011 C3012 1.373 . S
C3011 C3013 1.389 . S
C3012 H2985 0.950 . S
C3012 C2998 1.377 . S
C3012 C3011 1.373 . S
C3013 C2997 1.377 . S
C3013 C3011 1.389 . S
C3013 C3014 1.524 . S
C3014 C3013 1.524 . S
C3014 C3015 1.397 . S
C3014 C3019 1.363 . S
C3015 H2986 0.950 . S
C3015 C3014 1.397 . S
C3015 C3016 1.334 . S
C3016 H2987 0.950 . S
C3016 C3015 1.334 . S
C3016 C3017 1.287 . S
C3017 C3016 1.287 . S
C3017 C3018 1.524 . S
C3017 H3020 0.999 . S
C3018 H2988 0.950 . S
C3018 C3017 1.524 . S
C3018 C3019 1.415 . S
C3019 H2989 0.950 . S
C3019 C3014 1.363 . S
C3019 C3018 1.415 . S
H3020 C3017 0.999 . S
H3021 C3002 0.913 . S
H3022 C3040 0.951 . S
H3023 C3042 0.955 . S
H3024 C3044 0.950 . S
H3025 C3045 0.950 . S
H3026 C3047 0.950 1_556 S
H3027 C3050 0.950 . S
H3028 C3051 0.950 . S
H3029 C3053 0.950 . S
H3030 C3054 0.950 . S
H3031 C3055 0.951 . S
H3032 C3057 0.951 . S
H3033 C3059 0.950 . S
H3034 C3060 0.950 . S
H3035 C3062 0.950 . S
H3036 C3065 0.950 . S
H3037 C3066 0.950 . S
H3038 C3068 0.950 . S
H3039 C3069 0.950 . S
C3040 H3022 0.951 . S
C3040 C3041 1.366 . S
C3040 C3042 1.388 . S
C3041 C3040 1.366 . S
C3041 C3045 1.385 . S
C3042 H3023 0.955 . S
C3042 C3040 1.388 . S
C3042 C3043 1.366 . S
C3043 C3042 1.366 . S
C3043 C3044 1.414 . S
C3043 C3046 1.499 1_556 S
C3044 H3024 0.950 . S
C3044 C3043 1.414 . S
C3044 C3045 1.374 . S
C3045 H3025 0.950 . S
C3045 C3041 1.385 . S
C3045 C3044 1.374 . S
C3046 C3043 1.499 1_554 S
C3046 C3047 1.373 . S
C3046 C3048 1.389 . S
C3047 H3026 0.950 1_554 S
C3047 C3046 1.373 . S
C3047 C3063 1.377 . S
C3048 C3046 1.389 . S
C3048 C3049 1.524 . S
C3048 C3062 1.377 . S
C3049 C3048 1.524 . S
C3049 C3050 1.397 . S
C3049 C3054 1.363 . S
C3050 H3027 0.950 . S
C3050 C3049 1.397 . S
C3050 C3051 1.334 . S
C3051 H3028 0.950 . S
C3051 C3050 1.334 . S
C3051 C3052 1.287 . S
C3052 C3051 1.287 . S
C3052 C3053 1.524 . S
C3052 H3071 0.913 . S
C3053 H3029 0.950 . S
C3053 C3052 1.524 . S
C3053 C3054 1.415 . S
C3054 H3030 0.950 . S
C3054 C3049 1.363 . S
C3054 C3053 1.415 . S
C3055 H3031 0.951 . S
C3055 C3056 1.366 . S
C3055 C3057 1.388 . S
C3056 C3055 1.366 . S
C3056 C3060 1.385 . S
C3057 H3032 0.951 . S
C3057 C3055 1.388 . S
C3057 C3058 1.366 . S
C3058 C3057 1.366 . S
C3058 C3059 1.414 . S
C3058 C3061 1.499 . S
C3059 H3033 0.950 . S
C3059 C3058 1.414 . S
C3059 C3060 1.374 . S
C3060 H3034 0.950 . S
C3060 C3056 1.385 . S
C3060 C3059 1.374 . S
C3061 C3058 1.499 . S
C3061 C3062 1.373 . S
C3061 C3063 1.389 . S
C3062 H3035 0.950 . S
C3062 C3048 1.377 . S
C3062 C3061 1.373 . S
C3063 C3047 1.377 . S
C3063 C3061 1.389 . S
C3063 C3064 1.524 . S
C3064 C3063 1.524 . S
C3064 C3065 1.397 . S
C3064 C3069 1.363 1_554 S
C3065 H3036 0.950 . S
C3065 C3064 1.397 . S
C3065 C3066 1.334 . S
C3066 H3037 0.950 . S
C3066 C3065 1.334 . S
C3066 C3067 1.320 . S
C3067 C3066 1.320 . S
C3067 C3068 1.504 1_554 S
C3067 H3070 0.987 1_554 S
C3068 H3038 0.950 . S
C3068 C3067 1.504 1_556 S
C3068 C3069 1.415 . S
C3069 H3039 0.950 . S
C3069 C3064 1.363 1_556 S
C3069 C3068 1.415 . S
H3070 C3067 0.987 1_556 S
H3071 C3052 0.913 . S
H3072 C3090 0.951 . S
H3073 C3092 0.951 . S
H3074 C3094 0.950 . S
H3075 C3095 0.950 . S
H3076 C3097 0.950 . S
H3077 C3100 0.950 . S
H3078 C3101 0.950 . S
H3079 C3103 0.950 . S
H3080 C3104 0.950 . S
H3081 C3105 0.951 . S
H3082 C3107 0.951 . S
H3083 C3109 0.950 . S
H3084 C3110 0.950 . S
H3085 C3112 0.950 . S
H3086 C3115 0.950 . S
H3087 C3116 0.950 . S
H3088 C3118 0.950 . S
H3089 C3119 0.950 . S
C3090 H3072 0.951 . S
C3090 C3091 1.366 . S
C3090 C3092 1.388 . S
C3091 C3090 1.366 . S
C3091 C3095 1.385 . S
C3092 H3073 0.951 . S
C3092 C3090 1.388 . S
C3092 C3093 1.366 . S
C3093 C3092 1.366 . S
C3093 C3094 1.414 . S
C3093 C3096 1.499 . S
C3094 H3074 0.950 . S
C3094 C3093 1.414 . S
C3094 C3095 1.374 . S
C3095 H3075 0.950 . S
C3095 C3091 1.385 . S
C3095 C3094 1.374 . S
C3096 C3093 1.499 . S
C3096 C3097 1.373 . S
C3096 C3098 1.389 . S
C3097 H3076 0.950 . S
C3097 C3096 1.373 . S
C3097 C3113 1.377 . S
C3098 C3096 1.389 . S
C3098 C3099 1.524 . S
C3098 C3112 1.377 . S
C3099 C3098 1.524 . S
C3099 C3100 1.397 . S
C3099 C3104 1.363 . S
C3100 H3077 0.950 . S
C3100 C3099 1.397 . S
C3100 C3101 1.334 . S
C3101 H3078 0.950 . S
C3101 C3100 1.334 . S
C3101 C3102 1.287 . S
C3102 C3101 1.287 . S
C3102 C3103 1.524 . S
C3102 H3121 0.913 . S
C3103 H3079 0.950 . S
C3103 C3102 1.524 . S
C3103 C3104 1.415 . S
C3104 H3080 0.950 . S
C3104 C3099 1.363 . S
C3104 C3103 1.415 . S
C3105 H3081 0.951 . S
C3105 C3106 1.366 . S
C3105 C3107 1.388 . S
C3106 C3105 1.366 . S
C3106 C3110 1.385 . S
C3107 H3082 0.951 . S
C3107 C3105 1.388 . S
C3107 C3108 1.366 . S
C3108 C3107 1.366 . S
C3108 C3109 1.414 . S
C3108 C3111 1.499 . S
C3109 H3083 0.950 . S
C3109 C3108 1.414 . S
C3109 C3110 1.374 . S
C3110 H3084 0.950 . S
C3110 C3106 1.385 . S
C3110 C3109 1.374 . S
C3111 C3108 1.499 . S
C3111 C3112 1.373 . S
C3111 C3113 1.389 . S
C3112 H3085 0.950 . S
C3112 C3098 1.377 . S
C3112 C3111 1.373 . S
C3113 C3097 1.377 . S
C3113 C3111 1.389 . S
C3113 C3114 1.524 . S
C3114 C3113 1.524 . S
C3114 C3115 1.397 . S
C3114 C3119 1.363 . S
C3115 H3086 0.950 . S
C3115 C3114 1.397 . S
C3115 C3116 1.334 . S
C3116 H3087 0.950 . S
C3116 C3115 1.334 . S
C3116 C3117 1.287 . S
C3117 C3116 1.287 . S
C3117 C3118 1.524 . S
C3117 H3120 0.999 . S
C3118 H3088 0.950 . S
C3118 C3117 1.524 . S
C3118 C3119 1.415 . S
C3119 H3089 0.950 . S
C3119 C3114 1.363 . S
C3119 C3118 1.415 . S
H3120 C3117 0.999 . S
H3121 C3102 0.913 . S
H3122 C3140 0.951 . S
H3123 C3142 0.951 . S
H3124 C3144 0.950 . S
H3125 C3145 0.950 . S
H3126 C3147 0.950 . S
H3127 C3150 0.950 . S
H3128 C3151 0.950 . S
H3129 C3153 0.950 . S
H3130 C3154 0.950 . S
H3131 C3155 0.951 . S
H3132 C3157 0.951 . S
H3133 C3159 0.950 . S
H3134 C3160 0.950 . S
H3135 C3162 0.950 . S
H3136 C3165 0.950 . S
H3137 C3166 0.950 . S
H3138 C3168 0.950 . S
H3139 C3169 0.950 . S
C3140 H3122 0.951 . S
C3140 C3141 1.366 . S
C3140 C3142 1.388 . S
C3141 C3140 1.366 . S
C3141 C3145 1.385 . S
C3142 H3123 0.951 . S
C3142 C3140 1.388 . S
C3142 C3143 1.366 . S
C3143 C3142 1.366 . S
C3143 C3144 1.414 . S
C3143 C3146 1.499 . S
C3144 H3124 0.950 . S
C3144 C3143 1.414 . S
C3144 C3145 1.374 . S
C3145 H3125 0.950 . S
C3145 C3141 1.385 . S
C3145 C3144 1.374 . S
C3146 C3143 1.499 . S
C3146 C3147 1.373 . S
C3146 C3148 1.389 . S
C3147 H3126 0.950 . S
C3147 C3146 1.373 . S
C3147 C3163 1.377 . S
C3148 C3146 1.389 . S
C3148 C3149 1.524 . S
C3148 C3162 1.377 . S
C3149 C3148 1.524 . S
C3149 C3150 1.397 . S
C3149 C3154 1.363 . S
C3150 H3127 0.950 . S
C3150 C3149 1.397 . S
C3150 C3151 1.334 . S
C3151 H3128 0.950 . S
C3151 C3150 1.334 . S
C3151 C3152 1.287 . S
C3152 C3151 1.287 . S
C3152 C3153 1.524 . S
C3152 H3171 0.913 . S
C3153 H3129 0.950 . S
C3153 C3152 1.524 . S
C3153 C3154 1.415 . S
C3154 H3130 0.950 . S
C3154 C3149 1.363 . S
C3154 C3153 1.415 . S
C3155 H3131 0.951 . S
C3155 C3156 1.366 . S
C3155 C3157 1.388 . S
C3156 C3155 1.366 . S
C3156 C3160 1.385 . S
C3157 H3132 0.951 . S
C3157 C3155 1.388 . S
C3157 C3158 1.366 . S
C3158 C3157 1.366 . S
C3158 C3159 1.414 . S
C3158 C3161 1.499 . S
C3159 H3133 0.950 . S
C3159 C3158 1.414 . S
C3159 C3160 1.374 . S
C3160 H3134 0.950 . S
C3160 C3156 1.385 . S
C3160 C3159 1.374 . S
C3161 C3158 1.499 . S
C3161 C3162 1.373 . S
C3161 C3163 1.389 . S
C3162 H3135 0.950 . S
C3162 C3148 1.377 . S
C3162 C3161 1.373 . S
C3163 C3147 1.377 . S
C3163 C3161 1.389 . S
C3163 C3164 1.524 . S
C3164 C3163 1.524 . S
C3164 C3165 1.397 . S
C3164 C3169 1.363 . S
C3165 H3136 0.950 . S
C3165 C3164 1.397 . S
C3165 C3166 1.334 . S
C3166 H3137 0.950 . S
C3166 C3165 1.334 . S
C3166 C3167 1.287 . S
C3167 C3166 1.287 . S
C3167 C3168 1.524 . S
C3167 H3170 0.999 . S
C3168 H3138 0.950 . S
C3168 C3167 1.524 . S
C3168 C3169 1.415 . S
C3169 H3139 0.950 . S
C3169 C3164 1.363 . S
C3169 C3168 1.415 . S
H3170 C3167 0.999 . S
H3171 C3152 0.913 . S
H3172 C3190 0.951 . S
H3173 C3192 0.951 . S
H3174 C3194 0.950 . S
H3175 C3195 0.950 . S
H3176 C3197 0.950 . S
H3177 C3200 0.950 . S
H3178 C3201 0.950 . S
H3179 C3203 0.950 . S
H3180 C3204 0.950 . S
H3181 C3205 0.951 . S
H3182 C3207 0.951 . S
H3183 C3209 0.950 . S
H3184 C3210 0.950 . S
H3185 C3212 0.950 . S
H3186 C3215 0.950 . S
H3187 C3216 0.950 . S
H3188 C3218 0.953 . S
H3189 C3219 0.950 . S
C3190 H3172 0.951 . S
C3190 C3191 1.366 . S
C3190 C3192 1.388 . S
C3191 C3190 1.366 . S
C3191 C3195 1.385 . S
C3192 H3173 0.951 . S
C3192 C3190 1.388 . S
C3192 C3193 1.366 . S
C3193 C3192 1.366 . S
C3193 C3194 1.414 . S
C3193 C3196 1.499 . S
C3194 H3174 0.950 . S
C3194 C3193 1.414 . S
C3194 C3195 1.374 . S
C3195 H3175 0.950 . S
C3195 C3191 1.385 . S
C3195 C3194 1.374 . S
C3196 C3193 1.499 . S
C3196 C3197 1.373 . S
C3196 C3198 1.389 1_545 S
C3197 H3176 0.950 . S
C3197 C3196 1.373 . S
C3197 C3213 1.377 1_545 S
C3198 C3196 1.389 1_565 S
C3198 C3199 1.524 . S
C3198 C3212 1.377 . S
C3199 C3198 1.524 . S
C3199 C3200 1.397 . S
C3199 C3204 1.363 . S
C3200 H3177 0.950 . S
C3200 C3199 1.397 . S
C3200 C3201 1.334 . S
C3201 H3178 0.950 . S
C3201 C3200 1.334 . S
C3201 C3202 1.287 . S
C3202 C3201 1.287 . S
C3202 C3203 1.524 . S
C3202 H3221 0.913 . S
C3203 H3179 0.950 . S
C3203 C3202 1.524 . S
C3203 C3204 1.415 . S
C3204 H3180 0.950 . S
C3204 C3199 1.363 . S
C3204 C3203 1.415 . S
C3205 H3181 0.951 . S
C3205 C3206 1.366 . S
C3205 C3207 1.388 . S
C3206 C3205 1.366 . S
C3206 C3210 1.385 . S
C3207 H3182 0.951 . S
C3207 C3205 1.388 . S
C3207 C3208 1.366 . S
C3208 C3207 1.366 . S
C3208 C3209 1.414 . S
C3208 C3211 1.499 . S
C3209 H3183 0.950 . S
C3209 C3208 1.414 . S
C3209 C3210 1.374 . S
C3210 H3184 0.950 . S
C3210 C3206 1.385 . S
C3210 C3209 1.374 . S
C3211 C3208 1.499 . S
C3211 C3212 1.373 . S
C3211 C3213 1.389 . S
C3212 H3185 0.950 . S
C3212 C3198 1.377 . S
C3212 C3211 1.373 . S
C3213 C3197 1.377 1_565 S
C3213 C3211 1.389 . S
C3213 C3214 1.524 . S
C3214 C3213 1.524 . S
C3214 C3215 1.397 . S
C3214 C3219 1.363 . S
C3215 H3186 0.950 . S
C3215 C3214 1.397 . S
C3215 C3216 1.334 . S
C3216 H3187 0.950 . S
C3216 C3215 1.334 . S
C3216 C3217 1.287 1_565 S
C3217 C3216 1.287 1_545 S
C3217 C3218 1.525 . S
C3217 H3220 0.999 . S
C3218 H3188 0.953 . S
C3218 C3217 1.525 . S
C3218 C3219 1.411 1_545 S
C3219 H3189 0.950 . S
C3219 C3214 1.363 . S
C3219 C3218 1.411 1_565 S
H3220 C3217 0.999 . S
H3221 C3202 0.913 . S
H3222 C3240 0.951 . S
H3223 C3242 0.951 . S
H3224 C3244 0.950 . S
H3225 C3245 0.950 . S
H3226 C3247 0.950 . S
H3227 C3250 0.950 . S
H3228 C3251 0.922 1_455 S
H3229 C3253 0.950 . S
H3230 C3254 0.950 . S
H3231 C3255 0.951 . S
H3232 C3257 0.951 . S
H3233 C3259 0.950 . S
H3234 C3260 0.950 . S
H3235 C3262 0.950 . S
H3236 C3265 0.950 1_655 S
H3237 C3266 0.934 1_655 S
H3238 C3268 0.950 . S
H3239 C3269 0.950 . S
C3240 H3222 0.951 . S
C3240 C3241 1.366 . S
C3240 C3242 1.388 . S
C3241 C3240 1.366 . S
C3241 C3245 1.385 . S
C3242 H3223 0.951 . S
C3242 C3240 1.388 . S
C3242 C3243 1.366 . S
C3243 C3242 1.366 . S
C3243 C3244 1.414 . S
C3243 C3246 1.499 . S
C3244 H3224 0.950 . S
C3244 C3243 1.414 . S
C3244 C3245 1.374 . S
C3245 H3225 0.950 . S
C3245 C3241 1.385 . S
C3245 C3244 1.374 . S
C3246 C3243 1.499 . S
C3246 C3247 1.373 . S
C3246 C3248 1.389 1_455 S
C3247 H3226 0.950 . S
C3247 C3246 1.373 . S
C3247 C3263 1.377 . S
C3248 C3246 1.389 1_655 S
C3248 C3249 1.524 . S
C3248 C3262 1.377 . S
C3249 C3248 1.524 . S
C3249 C3250 1.397 1_655 S
C3249 C3254 1.363 . S
C3250 H3227 0.950 . S
C3250 C3249 1.397 1_455 S
C3250 C3251 1.324 1_455 S
C3251 H3228 0.922 1_655 S
C3251 C3250 1.324 1_655 S
C3251 C3252 1.327 . S
C3252 C3251 1.327 . S
C3252 C3253 1.524 . S
C3252 H3271 0.913 . S
C3253 H3229 0.950 . S
C3253 C3252 1.524 . S
C3253 C3254 1.415 . S
C3254 H3230 0.950 . S
C3254 C3249 1.363 . S
C3254 C3253 1.415 . S
C3255 H3231 0.951 . S
C3255 C3256 1.366 . S
C3255 C3257 1.388 . S
C3256 C3255 1.366 . S
C3256 C3260 1.385 . S
C3257 H3232 0.951 . S
C3257 C3255 1.388 . S
C3257 C3258 1.366 . S
C3258 C3257 1.366 . S
C3258 C3259 1.414 . S
C3258 C3261 1.499 . S
C3259 H3233 0.950 . S
C3259 C3258 1.414 . S
C3259 C3260 1.374 . S
C3260 H3234 0.950 . S
C3260 C3256 1.385 . S
C3260 C3259 1.374 . S
C3261 C3258 1.499 . S
C3261 C3262 1.373 . S
C3261 C3263 1.389 1_655 S
C3262 H3235 0.950 . S
C3262 C3248 1.377 . S
C3262 C3261 1.373 . S
C3263 C3247 1.377 . S
C3263 C3261 1.389 1_455 S
C3263 C3264 1.524 . S
C3264 C3263 1.524 . S
C3264 C3265 1.397 . S
C3264 C3269 1.363 . S
C3265 H3236 0.950 1_455 S
C3265 C3264 1.397 . S
C3265 C3266 1.334 . S
C3266 H3237 0.934 1_455 S
C3266 C3265 1.334 . S
C3266 C3267 1.287 . S
C3267 C3266 1.287 . S
C3267 C3268 1.524 . S
C3267 H3270 0.999 . S
C3268 H3238 0.950 . S
C3268 C3267 1.524 . S
C3268 C3269 1.415 . S
C3269 H3239 0.950 . S
C3269 C3264 1.363 . S
C3269 C3268 1.415 . S
H3270 C3267 0.999 . S
H3271 C3252 0.913 . S
H3272 C3290 0.951 . S
H3273 C3292 0.951 . S
H3274 C3294 0.950 . S
H3275 C3295 0.950 . S
H3276 C3297 0.950 . S
H3277 C3300 0.950 . S
H3278 C3301 0.950 . S
H3279 C3303 0.950 . S
H3280 C3304 0.950 . S
H3281 C3305 0.951 . S
H3282 C3307 0.951 . S
H3283 C3309 0.950 . S
H3284 C3310 0.950 . S
H3285 C3312 0.994 . S
H3286 C3315 0.950 . S
H3287 C3316 0.950 . S
H3288 C3318 0.950 . S
H3289 C3319 0.950 . S
C3290 H3272 0.951 . S
C3290 C3291 1.366 . S
C3290 C3292 1.388 . S
C3291 C3290 1.366 . S
C3291 C3295 1.385 . S
C3292 H3273 0.951 . S
C3292 C3290 1.388 . S
C3292 C3293 1.366 . S
C3293 C3292 1.366 . S
C3293 C3294 1.414 . S
C3293 C3296 1.499 . S
C3294 H3274 0.950 . S
C3294 C3293 1.414 . S
C3294 C3295 1.374 . S
C3295 H3275 0.950 . S
C3295 C3291 1.385 . S
C3295 C3294 1.374 . S
C3296 C3293 1.499 . S
C3296 C3297 1.373 . S
C3296 C3298 1.389 . S
C3297 H3276 0.950 . S
C3297 C3296 1.373 . S
C3297 C3313 1.377 . S
C3298 C3296 1.389 . S
C3298 C3299 1.524 . S
C3298 C3312 1.326 1_545 S
C3299 C3298 1.524 . S
C3299 C3300 1.397 . S
C3299 C3304 1.363 . S
C3300 H3277 0.950 . S
C3300 C3299 1.397 . S
C3300 C3301 1.334 . S
C3301 H3278 0.950 . S
C3301 C3300 1.334 . S
C3301 C3302 1.287 . S
C3302 C3301 1.287 . S
C3302 C3303 1.524 . S
C3302 H3321 0.913 . S
C3303 H3279 0.950 . S
C3303 C3302 1.524 . S
C3303 C3304 1.415 . S
C3304 H3280 0.950 . S
C3304 C3299 1.363 . S
C3304 C3303 1.415 . S
C3305 H3281 0.951 . S
C3305 C3306 1.366 . S
C3305 C3307 1.388 . S
C3306 C3305 1.366 . S
C3306 C3310 1.385 . S
C3307 H3282 0.951 . S
C3307 C3305 1.388 . S
C3307 C3308 1.366 . S
C3308 C3307 1.366 . S
C3308 C3309 1.414 . S
C3308 C3311 1.499 . S
C3309 H3283 0.950 . S
C3309 C3308 1.414 . S
C3309 C3310 1.374 . S
C3310 H3284 0.950 . S
C3310 C3306 1.385 . S
C3310 C3309 1.374 . S
C3311 C3308 1.499 . S
C3311 C3312 1.383 . S
C3311 C3313 1.389 1_565 S
C3312 H3285 0.994 . S
C3312 C3298 1.326 1_565 S
C3312 C3311 1.383 . S
C3313 C3297 1.377 . S
C3313 C3311 1.389 1_545 S
C3313 C3314 1.524 . S
C3314 C3313 1.524 . S
C3314 C3315 1.397 . S
C3314 C3319 1.363 . S
C3315 H3286 0.950 . S
C3315 C3314 1.397 . S
C3315 C3316 1.334 . S
C3316 H3287 0.950 . S
C3316 C3315 1.334 . S
C3316 C3317 1.287 . S
C3317 C3316 1.287 . S
C3317 C3318 1.524 . S
C3317 H3320 0.999 . S
C3318 H3288 0.950 . S
C3318 C3317 1.524 . S
C3318 C3319 1.415 . S
C3319 H3289 0.950 . S
C3319 C3314 1.363 . S
C3319 C3318 1.415 . S
H3320 C3317 0.999 . S
H3321 C3302 0.913 . S
H3322 C3340 0.951 . S
H3323 C3342 0.951 . S
H3324 C3344 0.950 . S
H3325 C3345 0.950 . S
H3326 C3347 0.953 . S
H3327 C3350 0.950 . S
H3328 C3351 0.950 . S
H3329 C3353 0.950 . S
H3330 C3354 0.950 . S
H3331 C3355 0.951 . S
H3332 C3357 0.951 . S
H3333 C3359 0.950 . S
H3334 C3360 0.950 . S
H3335 C3362 0.950 . S
H3336 C3365 0.950 . S
H3337 C3366 0.950 . S
H3338 C3368 0.950 . S
H3339 C3369 0.950 . S
C3340 H3322 0.951 . S
C3340 C3341 1.366 . S
C3340 C3342 1.388 . S
C3341 C3340 1.366 . S
C3341 C3345 1.385 . S
C3342 H3323 0.951 . S
C3342 C3340 1.388 . S
C3342 C3343 1.366 . S
C3343 C3342 1.366 . S
C3343 C3344 1.414 . S
C3343 C3346 1.499 . S
C3344 H3324 0.950 . S
C3344 C3343 1.414 . S
C3344 C3345 1.374 . S
C3345 H3325 0.950 . S
C3345 C3341 1.385 . S
C3345 C3344 1.374 . S
C3346 C3343 1.499 . S
C3346 C3347 1.355 1_455 S
C3346 C3348 1.389 . S
C3347 H3326 0.953 . S
C3347 C3346 1.355 1_655 S
C3347 C3363 1.393 . S
C3348 C3346 1.389 . S
C3348 C3349 1.524 . S
C3348 C3362 1.377 . S
C3349 C3348 1.524 . S
C3349 C3350 1.397 . S
C3349 C3354 1.363 . S
C3350 H3327 0.950 . S
C3350 C3349 1.397 . S
C3350 C3351 1.334 . S
C3351 H3328 0.950 . S
C3351 C3350 1.334 . S
C3351 C3352 1.287 . S
C3352 C3351 1.287 . S
C3352 C3353 1.524 . S
C3352 H3371 0.913 . S
C3353 H3329 0.950 . S
C3353 C3352 1.524 . S
C3353 C3354 1.415 . S
C3354 H3330 0.950 . S
C3354 C3349 1.363 . S
C3354 C3353 1.415 . S
C3355 H3331 0.951 . S
C3355 C3356 1.366 . S
C3355 C3357 1.388 . S
C3356 C3355 1.366 . S
C3356 C3360 1.385 . S
C3357 H3332 0.951 . S
C3357 C3355 1.388 . S
C3357 C3358 1.366 . S
C3358 C3357 1.366 . S
C3358 C3359 1.414 . S
C3358 C3361 1.499 . S
C3359 H3333 0.950 . S
C3359 C3358 1.414 . S
C3359 C3360 1.374 . S
C3360 H3334 0.950 . S
C3360 C3356 1.385 . S
C3360 C3359 1.374 . S
C3361 C3358 1.499 . S
C3361 C3362 1.373 1_655 S
C3361 C3363 1.389 . S
C3362 H3335 0.950 . S
C3362 C3348 1.377 . S
C3362 C3361 1.373 1_455 S
C3363 C3347 1.393 . S
C3363 C3361 1.389 . S
C3363 C3364 1.524 . S
C3364 C3363 1.524 . S
C3364 C3365 1.397 . S
C3364 C3369 1.363 . S
C3365 H3336 0.950 . S
C3365 C3364 1.397 . S
C3365 C3366 1.334 . S
C3366 H3337 0.950 . S
C3366 C3365 1.334 . S
C3366 C3367 1.287 . S
C3367 C3366 1.287 . S
C3367 C3368 1.524 . S
C3367 H3370 0.999 . S
C3368 H3338 0.950 . S
C3368 C3367 1.524 . S
C3368 C3369 1.415 . S
C3369 H3339 0.950 . S
C3369 C3364 1.363 . S
C3369 C3368 1.415 . S
H3370 C3367 0.999 . S
H3371 C3352 0.913 . S
H3372 C3390 0.951 . S
H3373 C3392 0.951 . S
H3374 C3394 0.950 . S
H3375 C3395 0.950 . S
H3376 C3397 0.950 . S
H3377 C3400 0.950 . S
H3378 C3401 0.950 . S
H3379 C3403 0.950 . S
H3380 C3404 0.950 . S
H3381 C3405 0.951 . S
H3382 C3407 0.951 . S
H3383 C3409 0.950 . S
H3384 C3410 0.950 . S
H3385 C3412 0.950 . S
H3386 C3415 0.950 . S
H3387 C3416 0.950 . S
H3388 C3418 0.950 . S
H3389 C3419 0.950 . S
C3390 H3372 0.951 . S
C3390 C3391 1.366 . S
C3390 C3392 1.388 . S
C3391 C3390 1.366 . S
C3391 C3395 1.385 . S
C3392 H3373 0.951 . S
C3392 C3390 1.388 . S
C3392 C3393 1.366 . S
C3393 C3392 1.366 . S
C3393 C3394 1.414 . S
C3393 C3396 1.499 . S
C3394 H3374 0.950 . S
C3394 C3393 1.414 . S
C3394 C3395 1.374 . S
C3395 H3375 0.950 . S
C3395 C3391 1.385 . S
C3395 C3394 1.374 . S
C3396 C3393 1.499 . S
C3396 C3397 1.373 . S
C3396 C3398 1.389 . S
C3397 H3376 0.950 . S
C3397 C3396 1.373 . S
C3397 C3413 1.377 . S
C3398 C3396 1.389 . S
C3398 C3399 1.524 . S
C3398 C3412 1.377 . S
C3399 C3398 1.524 . S
C3399 C3400 1.397 . S
C3399 C3404 1.363 . S
C3400 H3377 0.950 . S
C3400 C3399 1.397 . S
C3400 C3401 1.334 . S
C3401 H3378 0.950 . S
C3401 C3400 1.334 . S
C3401 C3402 1.287 . S
C3402 C3401 1.287 . S
C3402 C3403 1.524 . S
C3402 H3421 0.913 . S
C3403 H3379 0.950 . S
C3403 C3402 1.524 . S
C3403 C3404 1.415 . S
C3404 H3380 0.950 . S
C3404 C3399 1.363 . S
C3404 C3403 1.415 . S
C3405 H3381 0.951 . S
C3405 C3406 1.366 . S
C3405 C3407 1.388 . S
C3406 C3405 1.366 . S
C3406 C3410 1.385 . S
C3407 H3382 0.951 . S
C3407 C3405 1.388 . S
C3407 C3408 1.366 . S
C3408 C3407 1.366 . S
C3408 C3409 1.414 . S
C3408 C3411 1.499 . S
C3409 H3383 0.950 . S
C3409 C3408 1.414 . S
C3409 C3410 1.374 . S
C3410 H3384 0.950 . S
C3410 C3406 1.385 . S
C3410 C3409 1.374 . S
C3411 C3408 1.499 . S
C3411 C3412 1.373 . S
C3411 C3413 1.389 . S
C3412 H3385 0.950 . S
C3412 C3398 1.377 . S
C3412 C3411 1.373 . S
C3413 C3397 1.377 . S
C3413 C3411 1.389 . S
C3413 C3414 1.524 . S
C3414 C3413 1.524 . S
C3414 C3415 1.397 . S
C3414 C3419 1.363 . S
C3415 H3386 0.950 . S
C3415 C3414 1.397 . S
C3415 C3416 1.334 . S
C3416 H3387 0.950 . S
C3416 C3415 1.334 . S
C3416 C3417 1.287 . S
C3417 C3416 1.287 . S
C3417 C3418 1.524 . S
C3417 H3420 0.999 . S
C3418 H3388 0.950 . S
C3418 C3417 1.524 . S
C3418 C3419 1.415 . S
C3419 H3389 0.950 . S
C3419 C3414 1.363 . S
C3419 C3418 1.415 . S
H3420 C3417 0.999 . S
H3421 C3402 0.913 . S
H3422 C3440 0.951 . S
H3423 C3442 0.951 . S
H3424 C3444 0.950 . S
H3425 C3445 0.950 . S
H3426 C3447 0.950 . S
H3427 C3450 0.950 . S
H3428 C3451 0.950 . S
H3429 C3453 0.950 . S
H3430 C3454 0.950 . S
H3431 C3455 0.951 . S
H3432 C3457 0.951 . S
H3433 C3459 0.950 . S
H3434 C3460 0.950 . S
H3435 C3462 0.950 . S
H3436 C3465 0.950 . S
H3437 C3466 0.950 . S
H3438 C3468 0.950 . S
H3439 C3469 0.950 . S
C3440 H3422 0.951 . S
C3440 C3441 1.366 . S
C3440 C3442 1.388 . S
C3441 C3440 1.366 . S
C3441 C3445 1.385 . S
C3442 H3423 0.951 . S
C3442 C3440 1.388 . S
C3442 C3443 1.366 . S
C3443 C3442 1.366 . S
C3443 C3444 1.414 . S
C3443 C3446 1.499 . S
C3444 H3424 0.950 . S
C3444 C3443 1.414 . S
C3444 C3445 1.374 . S
C3445 H3425 0.950 . S
C3445 C3441 1.385 . S
C3445 C3444 1.374 . S
C3446 C3443 1.499 . S
C3446 C3447 1.373 . S
C3446 C3448 1.389 . S
C3447 H3426 0.950 . S
C3447 C3446 1.373 . S
C3447 C3463 1.377 . S
C3448 C3446 1.389 . S
C3448 C3449 1.524 . S
C3448 C3462 1.377 . S
C3449 C3448 1.524 . S
C3449 C3450 1.397 . S
C3449 C3454 1.363 . S
C3450 H3427 0.950 . S
C3450 C3449 1.397 . S
C3450 C3451 1.334 . S
C3451 H3428 0.950 . S
C3451 C3450 1.334 . S
C3451 C3452 1.287 . S
C3452 C3451 1.287 . S
C3452 C3453 1.524 . S
C3452 H3471 0.913 . S
C3453 H3429 0.950 . S
C3453 C3452 1.524 . S
C3453 C3454 1.415 . S
C3454 H3430 0.950 . S
C3454 C3449 1.363 . S
C3454 C3453 1.415 . S
C3455 H3431 0.951 . S
C3455 C3456 1.366 . S
C3455 C3457 1.388 . S
C3456 C3455 1.366 . S
C3456 C3460 1.385 . S
C3457 H3432 0.951 . S
C3457 C3455 1.388 . S
C3457 C3458 1.366 . S
C3458 C3457 1.366 . S
C3458 C3459 1.414 . S
C3458 C3461 1.499 . S
C3459 H3433 0.950 . S
C3459 C3458 1.414 . S
C3459 C3460 1.374 . S
C3460 H3434 0.950 . S
C3460 C3456 1.385 . S
C3460 C3459 1.374 . S
C3461 C3458 1.499 . S
C3461 C3462 1.373 . S
C3461 C3463 1.389 . S
C3462 H3435 0.950 . S
C3462 C3448 1.377 . S
C3462 C3461 1.373 . S
C3463 C3447 1.377 . S
C3463 C3461 1.389 . S
C3463 C3464 1.524 . S
C3464 C3463 1.524 . S
C3464 C3465 1.397 . S
C3464 C3469 1.363 . S
C3465 H3436 0.950 . S
C3465 C3464 1.397 . S
C3465 C3466 1.334 . S
C3466 H3437 0.950 . S
C3466 C3465 1.334 . S
C3466 C3467 1.287 . S
C3467 C3466 1.287 . S
C3467 C3468 1.524 . S
C3467 H3470 0.999 . S
C3468 H3438 0.950 . S
C3468 C3467 1.524 . S
C3468 C3469 1.415 . S
C3469 H3439 0.950 . S
C3469 C3464 1.363 . S
C3469 C3468 1.415 . S
H3470 C3467 0.999 . S
H3471 C3452 0.913 . S
H3472 C3490 0.951 . S
H3473 C3492 0.951 . S
H3474 C3494 0.950 . S
H3475 C3495 0.950 . S
H3476 C3497 0.950 . S
H3477 C3500 0.950 . S
H3478 C3501 0.950 . S
H3479 C3503 0.950 . S
H3480 C3504 0.950 . S
H3481 C3505 0.951 . S
H3482 C3507 0.951 . S
H3483 C3509 0.950 . S
H3484 C3510 0.950 . S
H3485 C3512 0.950 . S
H3486 C3515 0.950 . S
H3487 C3516 0.950 . S
H3488 C3518 0.950 . S
H3489 C3519 0.950 . S
C3490 H3472 0.951 . S
C3490 C3491 1.366 . S
C3490 C3492 1.388 . S
C3491 C3490 1.366 . S
C3491 C3495 1.385 . S
C3492 H3473 0.951 . S
C3492 C3490 1.388 . S
C3492 C3493 1.366 . S
C3493 C3492 1.366 . S
C3493 C3494 1.414 . S
C3493 C3496 1.499 . S
C3494 H3474 0.950 . S
C3494 C3493 1.414 . S
C3494 C3495 1.374 . S
C3495 H3475 0.950 . S
C3495 C3491 1.385 . S
C3495 C3494 1.374 . S
C3496 C3493 1.499 . S
C3496 C3497 1.373 . S
C3496 C3498 1.389 . S
C3497 H3476 0.950 . S
C3497 C3496 1.373 . S
C3497 C3513 1.377 . S
C3498 C3496 1.389 . S
C3498 C3499 1.524 . S
C3498 C3512 1.377 . S
C3499 C3498 1.524 . S
C3499 C3500 1.397 . S
C3499 C3504 1.363 . S
C3500 H3477 0.950 . S
C3500 C3499 1.397 . S
C3500 C3501 1.334 . S
C3501 H3478 0.950 . S
C3501 C3500 1.334 . S
C3501 C3502 1.287 . S
C3502 C3501 1.287 . S
C3502 C3503 1.524 . S
C3502 H3521 0.913 . S
C3503 H3479 0.950 . S
C3503 C3502 1.524 . S
C3503 C3504 1.415 . S
C3504 H3480 0.950 . S
C3504 C3499 1.363 . S
C3504 C3503 1.415 . S
C3505 H3481 0.951 . S
C3505 C3506 1.366 . S
C3505 C3507 1.388 . S
C3506 C3505 1.366 . S
C3506 C3510 1.385 . S
C3507 H3482 0.951 . S
C3507 C3505 1.388 . S
C3507 C3508 1.366 . S
C3508 C3507 1.366 . S
C3508 C3509 1.414 . S
C3508 C3511 1.499 . S
C3509 H3483 0.950 . S
C3509 C3508 1.414 . S
C3509 C3510 1.374 . S
C3510 H3484 0.950 . S
C3510 C3506 1.385 . S
C3510 C3509 1.374 . S
C3511 C3508 1.499 . S
C3511 C3512 1.373 . S
C3511 C3513 1.389 . S
C3512 H3485 0.950 . S
C3512 C3498 1.377 . S
C3512 C3511 1.373 . S
C3513 C3497 1.377 . S
C3513 C3511 1.389 . S
C3513 C3514 1.524 . S
C3514 C3513 1.524 . S
C3514 C3515 1.397 . S
C3514 C3519 1.363 . S
C3515 H3486 0.950 . S
C3515 C3514 1.397 . S
C3515 C3516 1.334 . S
C3516 H3487 0.950 . S
C3516 C3515 1.334 . S
C3516 C3517 1.287 . S
C3517 C3516 1.287 . S
C3517 C3518 1.524 . S
C3517 H3520 0.999 . S
C3518 H3488 0.950 . S
C3518 C3517 1.524 . S
C3518 C3519 1.415 . S
C3519 H3489 0.950 . S
C3519 C3514 1.363 . S
C3519 C3518 1.415 . S
H3520 C3517 0.999 . S
H3521 C3502 0.913 . S
H3522 C3540 0.951 . S
H3523 C3542 0.951 . S
H3524 C3544 0.950 . S
H3525 C3545 0.950 . S
H3526 C3547 0.958 . S
H3527 C3550 0.950 . S
H3528 C3551 0.950 . S
H3529 C3553 0.950 . S
H3530 C3554 0.950 . S
H3531 C3555 0.951 . S
H3532 C3557 0.951 . S
H3533 C3559 0.950 . S
H3534 C3560 0.950 . S
H3535 C3562 0.950 . S
H3536 C3565 0.950 . S
H3537 C3566 0.950 . S
H3538 C3568 0.950 . S
H3539 C3569 0.950 . S
C3540 H3522 0.951 . S
C3540 C3541 1.366 . S
C3540 C3542 1.388 . S
C3541 C3540 1.366 . S
C3541 C3545 1.385 . S
C3542 H3523 0.951 . S
C3542 C3540 1.388 . S
C3542 C3543 1.366 . S
C3543 C3542 1.366 . S
C3543 C3544 1.414 . S
C3543 C3546 1.499 . S
C3544 H3524 0.950 . S
C3544 C3543 1.414 . S
C3544 C3545 1.374 . S
C3545 H3525 0.950 . S
C3545 C3541 1.385 . S
C3545 C3544 1.374 . S
C3546 C3543 1.499 . S
C3546 C3547 1.416 . S
C3546 C3548 1.389 . S
C3547 H3526 0.958 . S
C3547 C3546 1.416 . S
C3547 C3563 1.330 1_554 S
C3548 C3546 1.389 . S
C3548 C3549 1.524 . S
C3548 C3562 1.377 1_554 S
C3549 C3548 1.524 . S
C3549 C3550 1.397 . S
C3549 C3554 1.363 . S
C3550 H3527 0.950 . S
C3550 C3549 1.397 . S
C3550 C3551 1.334 . S
C3551 H3528 0.950 . S
C3551 C3550 1.334 . S
C3551 C3552 1.287 . S
C3552 C3551 1.287 . S
C3552 C3553 1.524 . S
C3552 H3571 0.913 . S
C3553 H3529 0.950 . S
C3553 C3552 1.524 . S
C3553 C3554 1.415 . S
C3554 H3530 0.950 . S
C3554 C3549 1.363 . S
C3554 C3553 1.415 . S
C3555 H3531 0.951 . S
C3555 C3556 1.366 . S
C3555 C3557 1.388 . S
C3556 C3555 1.366 . S
C3556 C3560 1.385 . S
C3557 H3532 0.951 . S
C3557 C3555 1.388 . S
C3557 C3558 1.366 . S
C3558 C3557 1.366 . S
C3558 C3559 1.414 . S
C3558 C3561 1.499 . S
C3559 H3533 0.950 . S
C3559 C3558 1.414 . S
C3559 C3560 1.374 . S
C3560 H3534 0.950 . S
C3560 C3556 1.385 . S
C3560 C3559 1.374 . S
C3561 C3558 1.499 . S
C3561 C3562 1.373 . S
C3561 C3563 1.389 . S
C3562 H3535 0.950 . S
C3562 C3548 1.377 1_556 S
C3562 C3561 1.373 . S
C3563 C3547 1.330 1_556 S
C3563 C3561 1.389 . S
C3563 C3564 1.524 . S
C3564 C3563 1.524 . S
C3564 C3565 1.397 . S
C3564 C3569 1.363 . S
C3565 H3536 0.950 . S
C3565 C3564 1.397 . S
C3565 C3566 1.334 . S
C3566 H3537 0.950 . S
C3566 C3565 1.334 . S
C3566 C3567 1.287 . S
C3567 C3566 1.287 . S
C3567 C3568 1.524 . S
C3567 H3570 0.999 . S
C3568 H3538 0.950 . S
C3568 C3567 1.524 . S
C3568 C3569 1.415 . S
C3569 H3539 0.950 . S
C3569 C3564 1.363 . S
C3569 C3568 1.415 . S
H3570 C3567 0.999 . S
H3571 C3552 0.913 . S
H3572 C3590 0.951 . S
H3573 C3592 0.951 . S
H3574 C3594 0.950 . S
H3575 C3595 0.950 . S
H3576 C3597 0.950 . S
H3577 C3600 0.950 . S
H3578 C3601 0.950 . S
H3579 C3603 0.950 . S
H3580 C3604 0.950 . S
H3581 C3605 0.951 . S
H3582 C3607 0.951 . S
H3583 C3609 0.950 . S
H3584 C3610 0.950 . S
H3585 C3612 0.950 . S
H3586 C3615 0.950 . S
H3587 C3616 0.950 . S
H3588 C3618 0.950 . S
H3589 C3619 0.950 . S
C3590 H3572 0.951 . S
C3590 C3591 1.366 . S
C3590 C3592 1.388 . S
C3591 C3590 1.366 . S
C3591 C3595 1.385 . S
C3592 H3573 0.951 . S
C3592 C3590 1.388 . S
C3592 C3593 1.366 . S
C3593 C3592 1.366 . S
C3593 C3594 1.414 . S
C3593 C3596 1.499 . S
C3594 H3574 0.950 . S
C3594 C3593 1.414 . S
C3594 C3595 1.374 . S
C3595 H3575 0.950 . S
C3595 C3591 1.385 . S
C3595 C3594 1.374 . S
C3596 C3593 1.499 . S
C3596 C3597 1.373 . S
C3596 C3598 1.389 . S
C3597 H3576 0.950 . S
C3597 C3596 1.373 . S
C3597 C3613 1.377 . S
C3598 C3596 1.389 . S
C3598 C3599 1.524 . S
C3598 C3612 1.377 . S
C3599 C3598 1.524 . S
C3599 C3600 1.397 . S
C3599 C3604 1.363 . S
C3600 H3577 0.950 . S
C3600 C3599 1.397 . S
C3600 C3601 1.334 . S
C3601 H3578 0.950 . S
C3601 C3600 1.334 . S
C3601 C3602 1.287 . S
C3602 C3601 1.287 . S
C3602 C3603 1.524 . S
C3602 H3621 0.913 . S
C3603 H3579 0.950 . S
C3603 C3602 1.524 . S
C3603 C3604 1.415 . S
C3604 H3580 0.950 . S
C3604 C3599 1.363 . S
C3604 C3603 1.415 . S
C3605 H3581 0.951 . S
C3605 C3606 1.366 . S
C3605 C3607 1.388 . S
C3606 C3605 1.366 . S
C3606 C3610 1.385 . S
C3607 H3582 0.951 . S
C3607 C3605 1.388 . S
C3607 C3608 1.366 . S
C3608 C3607 1.366 . S
C3608 C3609 1.414 . S
C3608 C3611 1.499 . S
C3609 H3583 0.950 . S
C3609 C3608 1.414 . S
C3609 C3610 1.374 . S
C3610 H3584 0.950 . S
C3610 C3606 1.385 . S
C3610 C3609 1.374 . S
C3611 C3608 1.499 . S
C3611 C3612 1.373 . S
C3611 C3613 1.389 . S
C3612 H3585 0.950 . S
C3612 C3598 1.377 . S
C3612 C3611 1.373 . S
C3613 C3597 1.377 . S
C3613 C3611 1.389 . S
C3613 C3614 1.524 . S
C3614 C3613 1.524 . S
C3614 C3615 1.397 . S
C3614 C3619 1.363 . S
C3615 H3586 0.950 . S
C3615 C3614 1.397 . S
C3615 C3616 1.334 . S
C3616 H3587 0.950 . S
C3616 C3615 1.334 . S
C3616 C3617 1.287 . S
C3617 C3616 1.287 . S
C3617 C3618 1.524 . S
C3617 H3620 0.999 . S
C3618 H3588 0.950 . S
C3618 C3617 1.524 . S
C3618 C3619 1.415 . S
C3619 H3589 0.950 . S
C3619 C3614 1.363 . S
C3619 C3618 1.415 . S
H3620 C3617 0.999 . S
H3621 C3602 0.913 . S
H3622 C3640 0.951 . S
H3623 C3642 0.951 . S
H3624 C3644 0.950 . S
H3625 C3645 0.950 . S
H3626 C3647 0.950 . S
H3627 C3650 0.950 . S
H3628 C3651 0.950 . S
H3629 C3653 0.950 . S
H3630 C3654 0.950 . S
H3631 C3655 0.951 . S
H3632 C3657 0.951 . S
H3633 C3659 0.950 . S
H3634 C3660 0.950 . S
H3635 C3662 0.963 . S
H3636 C3665 0.950 . S
H3637 C3666 0.950 . S
H3638 C3668 0.950 . S
H3639 C3669 0.950 . S
C3640 H3622 0.951 . S
C3640 C3641 1.366 . S
C3640 C3642 1.388 . S
C3641 C3640 1.366 . S
C3641 C3645 1.385 . S
C3642 H3623 0.951 . S
C3642 C3640 1.388 . S
C3642 C3643 1.366 . S
C3643 C3642 1.366 . S
C3643 C3644 1.414 . S
C3643 C3646 1.499 . S
C3644 H3624 0.950 . S
C3644 C3643 1.414 . S
C3644 C3645 1.374 . S
C3645 H3625 0.950 . S
C3645 C3641 1.385 . S
C3645 C3644 1.374 . S
C3646 C3643 1.499 . S
C3646 C3647 1.373 1_554 S
C3646 C3648 1.389 . S
C3647 H3626 0.950 . S
C3647 C3646 1.373 1_556 S
C3647 C3663 1.377 . S
C3648 C3646 1.389 . S
C3648 C3649 1.524 . S
C3648 C3662 1.377 1_554 S
C3649 C3648 1.524 . S
C3649 C3650 1.397 . S
C3649 C3654 1.363 . S
C3650 H3627 0.950 . S
C3650 C3649 1.397 . S
C3650 C3651 1.334 . S
C3651 H3628 0.950 . S
C3651 C3650 1.334 . S
C3651 C3652 1.287 . S
C3652 C3651 1.287 . S
C3652 C3653 1.524 . S
C3652 H3671 0.913 . S
C3653 H3629 0.950 . S
C3653 C3652 1.524 . S
C3653 C3654 1.415 . S
C3654 H3630 0.950 . S
C3654 C3649 1.363 . S
C3654 C3653 1.415 . S
C3655 H3631 0.951 . S
C3655 C3656 1.366 . S
C3655 C3657 1.388 . S
C3656 C3655 1.366 . S
C3656 C3660 1.385 . S
C3657 H3632 0.951 . S
C3657 C3655 1.388 . S
C3657 C3658 1.366 . S
C3658 C3657 1.366 . S
C3658 C3659 1.414 . S
C3658 C3661 1.499 . S
C3659 H3633 0.950 . S
C3659 C3658 1.414 . S
C3659 C3660 1.374 . S
C3660 H3634 0.950 . S
C3660 C3656 1.385 . S
C3660 C3659 1.374 . S
C3661 C3658 1.499 . S
C3661 C3662 1.373 . S
C3661 C3663 1.389 . S
C3662 H3635 0.963 . S
C3662 C3648 1.377 1_556 S
C3662 C3661 1.373 . S
C3663 C3647 1.377 . S
C3663 C3661 1.389 . S
C3663 C3664 1.524 . S
C3664 C3663 1.524 . S
C3664 C3665 1.397 . S
C3664 C3669 1.363 . S
C3665 H3636 0.950 . S
C3665 C3664 1.397 . S
C3665 C3666 1.334 . S
C3666 H3637 0.950 . S
C3666 C3665 1.334 . S
C3666 C3667 1.287 . S
C3667 C3666 1.287 . S
C3667 C3668 1.524 . S
C3667 H3670 0.999 . S
C3668 H3638 0.950 . S
C3668 C3667 1.524 . S
C3668 C3669 1.415 . S
C3669 H3639 0.950 . S
C3669 C3664 1.363 . S
C3669 C3668 1.415 . S
H3670 C3667 0.999 . S
H3671 C3652 0.913 . S
C1291 C241 1.455 . S
C1306 C29 1.455 . S
C1341 C92 1.466 . S
C1356 C304 1.471 . S
C1391 C347 1.535 . S
C1406 C135 1.535 . S
C1441 C410 1.589 . S
C1456 C198 1.582 . S
C1491 C771 1.272 . S
C1506 C463 1.281 . S
C1541 C824 1.299 . S
C1556 C506 1.295 . S
C1591 C569 1.501 . S
C1606 C675 1.509 . S
C1641 C718 1.324 . S
C1656 C612 1.328 . S
C1691 C877 1.256 . S
C1706 C1142 1.263 . S
C1741 C940 1.587 . S
C1756 C1036 1.577 . S
C1791 C983 1.507 . S
C1806 C1089 1.509 . S
C1841 C1195 1.419 . S
C1856 C1248 1.422 . S
C1891 C188 1.744 . S
C1906 C294 1.739 . S
C1941 C39 2.060 . S
C1956 C357 2.059 . S
C1991 C400 1.761 . S
C2006 C82 1.768 . S
C2041 C145 2.092 . S
C2056 C251 2.093 . S
C2091 C1258 2.149 . S
C2106 C993 2.153 . S
C2141 C1046 2.372 . S
C2156 C1152 2.363 . S
C2191 C1099 2.173 . S
C2206 C1205 2.178 . S
C2241 C930 2.039 . S
C2256 C887 2.042 . S
C2291 C622 2.142 . S
C2306 C516 2.145 . S
C2341 C834 2.220 . S
C2356 C728 2.222 . S
C2391 C665 1.998 . S
C2406 C781 1.999 . S
C2441 C559 1.649 . S
C2456 C453 1.641 . S
C2491 C1188 1.643 . S
C2506 C22 1.646 . S
C2541 C870 1.404 . S
C2556 C91 1.396 . S
C2591 C1241 1.685 . S
C2606 C128 1.684 . S
C2641 C1135 1.488 . S
C2656 C197 1.480 . S
C2691 C976 1.628 . S
C2706 C234 1.630 . S
C2741 C303 1.482 . S
C2756 C1029 1.487 . S
C2791 C1082 1.720 . S
C2806 C340 1.718 . S
C2841 C939 1.469 . S
C2856 C409 1.473 . S
C2891 C711 1.396 . S
C2906 C462 1.389 . S
C2941 C764 1.402 . S
C2956 C499 1.403 . S
C2991 C817 1.279 . S
C3006 C568 1.272 . S
C3041 C605 1.372 . S
C3056 C674 1.368 . S
C3091 C287 1.716 . S
C3106 C552 1.723 . S
C3141 C356 1.989 . S
C3156 C621 1.989 . S
C3191 C446 1.730 . S
C3206 C393 1.732 . S
C3241 C250 1.937 . S
C3256 C515 1.939 . S
C3291 C780 1.784 . S
C3306 C181 1.780 . S
C3341 C38 1.935 . S
C3356 C833 1.936 . S
C3391 C658 1.718 . S
C3406 C75 1.723 . S
C3441 C144 1.989 . S
C3456 C727 1.993 . S
C3491 C923 2.037 . S
C3506 C1257 2.042 . S
C3541 C1151 2.086 . S
C3556 C992 2.088 . S
C3591 C1204 2.135 . S
C3606 C1045 2.138 . S
C3641 C886 2.076 . S
C3656 C1098 2.072 . S
