# Generated by pormake.
# Topology uov, (4)-cn, num edge types: 1
# Building blocks:
#     Node 0, Type 0, BuildingBlock: CEKHIL_clean_sbu_0, # of connection points: 4
#     Node 1, Type 0, BuildingBlock: CEKHIL_clean_sbu_0, # of connection points: 4
#     Node 2, Type 0, BuildingBlock: CEKHIL_clean_sbu_0, # of connection points: 4
#     Node 3, Type 0, BuildingBlock: CEKHIL_clean_sbu_0, # of connection points: 4
#     Node 4, Type 0, BuildingBlock: CEKHIL_clean_sbu_0, # of connection points: 4
#     Node 5, Type 0, BuildingBlock: CEKHIL_clean_sbu_0, # of connection points: 4
#     Node 6, Type 0, BuildingBlock: CEKHIL_clean_sbu_0, # of connection points: 4
#     Node 7, Type 0, BuildingBlock: CEKHIL_clean_sbu_0, # of connection points: 4
#     Edge 8, Type (0, 0), BuildingBlock: EZIPEK_clean_linker_0, # of connection points: 2
#     Edge 9, Type (0, 0), BuildingBlock: EZIPEK_clean_linker_0, # of connection points: 2
#     Edge 10, Type (0, 0), BuildingBlock: EZIPEK_clean_linker_0, # of connection points: 2
#     Edge 11, Type (0, 0), BuildingBlock: EZIPEK_clean_linker_0, # of connection points: 2
#     Edge 12, Type (0, 0), BuildingBlock: EZIPEK_clean_linker_0, # of connection points: 2
#     Edge 13, Type (0, 0), BuildingBlock: EZIPEK_clean_linker_0, # of connection points: 2
#     Edge 14, Type (0, 0), BuildingBlock: EZIPEK_clean_linker_0, # of connection points: 2
#     Edge 15, Type (0, 0), BuildingBlock: EZIPEK_clean_linker_0, # of connection points: 2
#     Edge 16, Type (0, 0), BuildingBlock: EZIPEK_clean_linker_0, # of connection points: 2
#     Edge 17, Type (0, 0), BuildingBlock: EZIPEK_clean_linker_0, # of connection points: 2
#     Edge 18, Type (0, 0), BuildingBlock: EZIPEK_clean_linker_0, # of connection points: 2
#     Edge 19, Type (0, 0), BuildingBlock: EZIPEK_clean_linker_0, # of connection points: 2
#     Edge 20, Type (0, 0), BuildingBlock: EZIPEK_clean_linker_0, # of connection points: 2
#     Edge 21, Type (0, 0), BuildingBlock: EZIPEK_clean_linker_0, # of connection points: 2
#     Edge 22, Type (0, 0), BuildingBlock: EZIPEK_clean_linker_0, # of connection points: 2
#     Edge 23, Type (0, 0), BuildingBlock: EZIPEK_clean_linker_0, # of connection points: 2
# Relax obj value: 0.153
# Max RMSD: 0.152
# Mean RMSD: 0.152
data_MOF--net-uov--node1-CEKHIL_clean_sbu_0--edge1-EZIPEK_clean_linker_0
_symmetry_space_group_name_H-M    P1
_symmetry_Int_Tables_number       1
_symmetry_cell_setting            triclinic
loop_
_symmetry_equiv_pos_as_xyz
'x, y, z'
_cell_length_a     21.801651
_cell_length_b     21.827694
_cell_length_c     30.415337
_cell_angle_alpha  89.930877
_cell_angle_beta   90.12144
_cell_angle_gamma 89.8821
loop_
_atom_site_label
_atom_site_type_symbol
_atom_site_fract_x
_atom_site_fract_y
_atom_site_fract_z
_atom_type_partial_charge
Co0 Co 0.02261 0.26977 0.60643 0.0
O1 O 0.97968 0.33085 0.64025 0.0
O2 O 0.07717 0.33653 0.62052 0.0
C3 C 0.94622 0.26196 0.55588 0.0
O4 O 0.08173 0.22014 0.56845 0.0
Co5 Co 0.97253 0.14011 0.58816 0.0
O6 O 0.03336 0.13814 0.5403 0.0
C7 C 0.04651 0.16404 0.66904 0.0
C8 C 0.02905 0.36357 0.63669 0.0
C9 C 0.07906 0.1741 0.54211 0.0
O10 O 0.04812 0.22201 0.66071 0.0
O11 O 0.01972 0.1254 0.64385 0.0
O12 O 0.9868 0.30496 0.55336 0.0
O13 O 0.95168 0.22625 0.58968 0.0
Co14 Co 0.27874 0.97162 0.39798 0.0
O15 O 0.34146 0.00692 0.36078 0.0
O16 O 0.35243 0.92225 0.40004 0.0
C17 C 0.25269 0.0619 0.43088 0.0
O18 O 0.22913 0.92349 0.44276 0.0
Co19 Co 0.14145 0.01209 0.39521 0.0
O20 O 0.13611 0.96649 0.45167 0.0
C21 C 0.18888 0.92353 0.32934 0.0
C22 C 0.37756 0.96428 0.37576 0.0
C23 C 0.17753 0.92823 0.46283 0.0
O24 O 0.24204 0.92097 0.34832 0.0
O25 O 0.14622 0.9606 0.34085 0.0
O26 O 0.29999 0.03065 0.44394 0.0
O27 O 0.22543 0.03926 0.39697 0.0
Co28 Co 0.98164 0.7251 0.6212 0.0
O29 O 0.02107 0.66314 0.65676 0.0
O30 O 0.93918 0.64818 0.61487 0.0
C31 C 0.06591 0.76462 0.58823 0.0
O32 O 0.93182 0.7765 0.57776 0.0
Co33 Co 0.01197 0.86343 0.64062 0.0
O34 O 0.95623 0.87537 0.59 0.0
C35 C 0.91959 0.7998 0.6939 0.0
C36 C 0.98212 0.62506 0.63962 0.0
C37 C 0.92697 0.83406 0.56898 0.0
O38 O 0.92441 0.75085 0.67047 0.0
O39 O 0.95395 0.84676 0.68955 0.0
O40 O 0.0439 0.71234 0.576 0.0
O41 O 0.04381 0.78434 0.62495 0.0
Co42 Co 0.73914 0.02909 0.3907 0.0
O43 O 0.68125 0.97065 0.36628 0.0
O44 O 0.65933 0.06651 0.38372 0.0
C45 C 0.7781 0.96275 0.44217 0.0
O46 O 0.78128 0.1024 0.41916 0.0
Co47 Co 0.88091 0.01014 0.39366 0.0
O48 O 0.8837 0.09146 0.42172 0.0
C49 C 0.82121 0.0618 0.31351 0.0
C50 C 0.63996 0.01319 0.37097 0.0
C51 C 0.83502 0.12169 0.42961 0.0
O52 O 0.76675 0.05822 0.33009 0.0
O53 O 0.86946 0.04333 0.33353 0.0
O54 O 0.72702 0.99154 0.44917 0.0
O55 O 0.8024 0.97222 0.40417 0.0
Co56 Co 0.98184 0.26964 0.10181 0.0
O57 O 0.02159 0.33155 0.13756 0.0
O58 O 0.93039 0.34157 0.10652 0.0
C59 C 0.06734 0.2494 0.06124 0.0
O60 O 0.9271 0.22195 0.05957 0.0
Co61 Co 0.02374 0.13453 0.09089 0.0
O62 O 0.97216 0.13448 0.03771 0.0
C63 C 0.93642 0.17009 0.16269 0.0
C64 C 0.97584 0.36706 0.12719 0.0
C65 C 0.92988 0.17441 0.03468 0.0
O66 O 0.94169 0.22802 0.15438 0.0
O67 O 0.96276 0.12875 0.13959 0.0
O68 O 0.03237 0.29583 0.05211 0.0
O69 O 0.05069 0.21829 0.0952 0.0
Co70 Co 0.26529 0.01562 0.88332 0.0
O71 O 0.32439 0.97145 0.8481 0.0
O72 O 0.33497 0.06639 0.87057 0.0
C73 C 0.25183 0.93861 0.93251 0.0
O74 O 0.21921 0.07648 0.922 0.0
Co75 Co 0.13204 0.973 0.90062 0.0
O76 O 0.13125 0.03591 0.94714 0.0
C77 C 0.16137 0.04527 0.81995 0.0
C78 C 0.35908 0.01967 0.85053 0.0
C79 C 0.17129 0.07813 0.94652 0.0
O80 O 0.21914 0.04567 0.82941 0.0
O81 O 0.12114 0.01912 0.84416 0.0
O82 O 0.29805 0.9756 0.93565 0.0
O83 O 0.21697 0.94747 0.89865 0.0
Co84 Co 0.02749 0.73079 0.11009 0.0
O85 O 0.97649 0.67067 0.1397 0.0
O86 O 0.06742 0.6517 0.11061 0.0
C87 C 0.95186 0.77184 0.06729 0.0
O88 O 0.09254 0.77672 0.07497 0.0
Co89 Co 0.00591 0.87224 0.11474 0.0
O90 O 0.0639 0.87464 0.06475 0.0
C91 C 0.07675 0.80871 0.18504 0.0
C92 C 0.01825 0.63066 0.12927 0.0
C93 C 0.09962 0.82967 0.05713 0.0
O94 O 0.07033 0.75594 0.1665 0.0
O95 O 0.05249 0.85831 0.1707 0.0
O96 O 0.97756 0.7202 0.057 0.0
O97 O 0.96792 0.79368 0.10501 0.0
Co98 Co 0.71791 0.98353 0.89022 0.0
O99 O 0.65728 0.02369 0.8544 0.0
O100 O 0.63895 0.94272 0.89624 0.0
C101 C 0.75475 0.07223 0.91935 0.0
O102 O 0.77089 0.93228 0.93233 0.0
Co103 Co 0.85646 0.01321 0.87473 0.0
O104 O 0.86579 0.97342 0.93286 0.0
C105 C 0.79267 0.92117 0.81905 0.0
C106 C 0.61803 0.98481 0.86968 0.0
C107 C 0.82601 0.93612 0.94777 0.0
O108 O 0.74206 0.92772 0.84024 0.0
O109 O 0.84103 0.95284 0.82626 0.0
O110 O 0.70705 0.04531 0.93583 0.0
O111 O 0.77584 0.04626 0.88441 0.0
C112 C 0.01141 0.52896 0.59997 0.0
C113 C 0.99484 0.55812 0.64002 0.0
C114 C 0.0059 0.45999 0.6793 0.0
C115 C 0.02462 0.4315 0.63951 0.0
N116 N 0.05475 0.44144 0.563 0.0
N117 N 0.98301 0.55435 0.71867 0.0
C118 C 0.03047 0.46676 0.6003 0.0
C119 C 0.9944 0.5245 0.68003 0.0
N120 N 0.00778 0.56017 0.56095 0.0
N121 N 0.99832 0.42502 0.7162 0.0
H122 H 0.97086 0.60056 0.72004 0.0
H123 H 0.98845 0.53448 0.74954 0.0
H124 H 0.01031 0.37874 0.71749 0.0
H125 H 0.97801 0.44082 0.74497 0.0
H126 H 0.00852 0.53891 0.53033 0.0
H127 H 1.0001 0.60702 0.55839 0.0
H128 H 0.06956 0.46725 0.53625 0.0
H129 H 0.06463 0.39528 0.55896 0.0
C130 C 0.54197 0.98142 0.33217 0.0
C131 C 0.57316 0.99835 0.37137 0.0
C132 C 0.47807 0.98409 0.41367 0.0
C133 C 0.44556 0.97184 0.374 0.0
N134 N 0.44459 0.96253 0.29516 0.0
N135 N 0.57004 0.02115 0.44916 0.0
C136 C 0.47704 0.97154 0.3331 0.0
C137 C 0.54096 1.00098 0.41196 0.0
N138 N 0.57457 0.97461 0.29414 0.0
N139 N 0.44919 0.97932 0.45346 0.0
H140 H 0.61697 0.02886 0.45124 0.0
H141 H 0.5472 0.03401 0.47772 0.0
H142 H 0.40225 0.9734 0.45727 0.0
H143 H 0.47234 0.97749 0.48341 0.0
H144 H 0.55648 0.95637 0.26532 0.0
H145 H 0.62132 0.98422 0.29198 0.0
H146 H 0.46274 0.96835 0.26383 0.0
H147 H 0.39799 0.95174 0.29494 0.0
C148 C 0.98454 0.46876 0.0886 0.0
C149 C 0.98234 0.43522 0.12882 0.0
C150 C 0.99856 0.53122 0.17012 0.0
C151 C 0.0052 0.56354 0.12983 0.0
N152 N 0.00951 0.56262 0.0504 0.0
N153 N 0.99086 0.43287 0.20772 0.0
C154 C 0.99939 0.53216 0.08909 0.0
C155 C 0.99039 0.46608 0.16958 0.0
N156 N 0.97206 0.44041 0.04946 0.0
N157 N 0.99984 0.56296 0.20883 0.0
H158 H 0.98143 0.38605 0.20866 0.0
H159 H 0.00314 0.45067 0.23819 0.0
H160 H 0.00852 0.60989 0.21037 0.0
H161 H 0.98917 0.54393 0.23923 0.0
H162 H 0.9624 0.46394 0.02047 0.0
H163 H 0.96776 0.39337 0.04559 0.0
H164 H 0.01655 0.54084 0.0204 0.0
H165 H 0.01452 0.60986 0.04806 0.0
C166 C 0.45484 0.96202 0.82551 0.0
C167 C 0.42677 0.01689 0.84098 0.0
C168 C 0.52405 0.05002 0.87273 0.0
C169 C 0.55169 0.99369 0.86042 0.0
N170 N 0.54839 0.90134 0.81734 0.0
N171 N 0.44492 0.12376 0.85563 0.0
C172 C 0.51848 0.95096 0.83447 0.0
C173 C 0.46457 0.06438 0.85718 0.0
N174 N 0.4211 0.92193 0.80103 0.0
N175 N 0.55342 0.08906 0.90081 0.0
H176 H 0.40467 0.13637 0.83931 0.0
H177 H 0.47259 0.16068 0.86443 0.0
H178 H 0.59633 0.07966 0.91437 0.0
H179 H 0.53226 0.12764 0.91417 0.0
H180 H 0.43512 0.87777 0.79305 0.0
H181 H 0.37912 0.93438 0.78709 0.0
H182 H 0.52881 0.87032 0.79556 0.0
H183 H 0.59468 0.89247 0.82341 0.0
C184 C 0.17307 0.14415 0.4396 0.0
C185 C 0.22215 0.11009 0.45819 0.0
C186 C 0.18655 0.13545 0.53218 0.0
C187 C 0.13207 0.16027 0.5136 0.0
N188 N 0.07394 0.19277 0.45021 0.0
N189 N 0.2918 0.10429 0.51972 0.0
C190 C 0.12592 0.16687 0.46739 0.0
C191 C 0.23418 0.11514 0.50384 0.0
N192 N 0.17387 0.15742 0.39569 0.0
N193 N 0.19127 0.12771 0.57668 0.0
H194 H 0.3293 0.09773 0.49907 0.0
H195 H 0.30427 0.11119 0.5524 0.0
H196 H 0.15782 0.14259 0.59869 0.0
H197 H 0.22632 0.10263 0.59157 0.0
H198 H 0.1419 0.18545 0.38005 0.0
H199 H 0.21111 0.14594 0.37579 0.0
H200 H 0.06272 0.19206 0.41694 0.0
H201 H 0.04034 0.21308 0.46975 0.0
C202 C 0.13762 0.82572 0.48271 0.0
C203 C 0.1616 0.88231 0.49666 0.0
C204 C 0.13766 0.85402 0.57261 0.0
C205 C 0.10094 0.80448 0.55705 0.0
N206 N 0.05108 0.76032 0.49239 0.0
N207 N 0.18115 0.95358 0.55538 0.0
C208 C 0.09712 0.79421 0.51076 0.0
C209 C 0.16048 0.89769 0.54185 0.0
N210 N 0.15188 0.80262 0.44237 0.0
N211 N 0.1532 0.85821 0.61601 0.0
H212 H 0.20089 0.98505 0.53379 0.0
H213 H 0.17528 0.96966 0.58736 0.0
H214 H 0.14243 0.82446 0.63895 0.0
H215 H 0.18331 0.89122 0.62805 0.0
H216 H 0.13771 0.75923 0.43224 0.0
H217 H 0.18355 0.82359 0.42162 0.0
H218 H 0.04604 0.75568 0.45844 0.0
H219 H 0.01231 0.74626 0.50946 0.0
C220 C 0.79044 0.86989 0.49234 0.0
C221 C 0.81118 0.92758 0.47684 0.0
C222 C 0.91114 0.90797 0.50863 0.0
C223 C 0.88864 0.85634 0.53159 0.0
N224 N 0.80111 0.79203 0.5489 0.0
N225 N 0.88036 0.00992 0.49171 0.0
C226 C 0.82664 0.83761 0.52429 0.0
C227 C 0.86889 0.94897 0.49037 0.0
N228 N 0.73686 0.84605 0.47676 0.0
N229 N 0.97248 0.91957 0.50573 0.0
H230 H 0.844 0.04054 0.48914 0.0
H231 H 0.92139 0.02808 0.50367 0.0
H232 H 0.00549 0.88877 0.51721 0.0
H233 H 0.9896 0.95646 0.48768 0.0
H234 H 0.72256 0.80156 0.48373 0.0
H235 H 0.70895 0.8696 0.4545 0.0
H236 H 0.7545 0.78166 0.5478 0.0
H237 H 0.82511 0.76752 0.57272 0.0
C238 C 0.88553 0.22174 0.44372 0.0
C239 C 0.84215 0.17714 0.45715 0.0
C240 C 0.84664 0.21661 0.53235 0.0
C241 C 0.90009 0.24933 0.5208 0.0
N242 N 0.94728 0.30986 0.46367 0.0
N243 N 0.77364 0.13783 0.51315 0.0
C244 C 0.91248 0.26075 0.47578 0.0
C245 C 0.81872 0.17769 0.50081 0.0
N246 N 0.90269 0.2244 0.40056 0.0
N247 N 0.82194 0.22472 0.57319 0.0
H248 H 0.74885 0.11126 0.49107 0.0
H249 H 0.76178 0.12944 0.54573 0.0
H250 H 0.84034 0.25593 0.5956 0.0
H251 H 0.78014 0.20639 0.58305 0.0
H252 H 0.9398 0.24966 0.3891 0.0
H253 H 0.88023 0.19925 0.37619 0.0
H254 H 0.95578 0.32206 0.43119 0.0
H255 H 0.96068 0.34361 0.48581 0.0
C256 C 0.77347 0.1346 0.98777 0.0
C257 C 0.79064 0.11897 0.94436 0.0
C258 C 0.89328 0.16058 0.95729 0.0
C259 C 0.87987 0.16312 0.00293 0.0
N260 N 0.80741 0.15083 0.06249 0.0
N261 N 0.85391 0.14772 0.88311 0.0
C262 C 0.81966 0.15098 0.01841 0.0
C263 C 0.84693 0.14114 0.92748 0.0
N264 N 0.71288 0.13754 -0.00116 0.0
N265 N 0.95072 0.17522 0.94276 0.0
H266 H 0.81757 0.14111 0.86126 0.0
H267 H 0.89231 0.16699 0.86833 0.0
H268 H 0.98413 0.1939 0.96329 0.0
H269 H 0.96614 0.16684 0.91098 0.0
H270 H 0.6974 0.15315 0.02922 0.0
H271 H 0.67811 0.13327 0.97545 0.0
H272 H 0.76629 0.13491 0.07558 0.0
H273 H 0.83982 0.16186 0.08641 0.0
C274 C 0.12802 0.18356 0.95584 0.0
C275 C 0.16013 0.13275 0.9739 0.0
C276 C 0.15524 0.17895 0.04696 0.0
C277 C 0.11343 0.22305 0.03028 0.0
N278 N 0.08763 0.28592 0.96771 0.0
N279 N 0.20965 0.08327 0.03521 0.0
C280 C 0.10827 0.23146 0.98422 0.0
C281 C 0.17647 0.13146 0.01898 0.0
N282 N 0.11386 0.18441 0.91202 0.0
N283 N 0.17588 0.18435 0.08922 0.0
H284 H 0.2282 0.04956 0.01494 0.0
H285 H 0.21688 0.07528 0.06855 0.0
H286 H 0.16367 0.2215 0.10898 0.0
H287 H 0.2095 0.15644 0.10309 0.0
H288 H 0.08396 0.21598 0.89779 0.0
H289 H 0.12962 0.15125 0.89007 0.0
H290 H 0.08599 0.29611 0.9343 0.0
H291 H 0.08057 0.32416 0.98753 0.0
C292 C 0.16378 0.81215 0.98928 0.0
C293 C 0.15477 0.84219 0.03008 0.0
C294 C 0.23984 0.91109 0.01271 0.0
C295 C 0.23369 0.89485 0.96785 0.0
N296 N 0.20185 0.81981 0.91454 0.0
N297 N 0.19025 0.91566 0.08369 0.0
C298 C 0.19973 0.84168 0.95657 0.0
C299 C 0.1951 0.89 0.0429 0.0
N300 N 0.13944 0.75544 0.98216 0.0
N301 N 0.2893 0.94387 0.02689 0.0
H302 H 0.16137 0.89824 0.10796 0.0
H303 H 0.21305 0.95565 0.09271 0.0
H304 H 0.32655 0.9536 0.00675 0.0
H305 H 0.29758 0.95352 0.0599 0.0
H306 H 0.14786 0.72957 0.95409 0.0
H307 H 0.11634 0.7311 0.00643 0.0
H308 H 0.17191 0.78679 0.90236 0.0
H309 H 0.23357 0.8358 0.8916 0.0
C310 C 0.83177 0.88339 0.02184 0.0
C311 C 0.85004 0.88753 0.9773 0.0
C312 C 0.93408 0.81534 0.99097 0.0
C313 C 0.91449 0.80838 0.03533 0.0
N314 N 0.83536 0.82469 0.08959 0.0
N315 N 0.90783 0.8455 0.91686 0.0
C316 C 0.86047 0.83917 0.04979 0.0
C317 C 0.89749 0.84933 0.96111 0.0
N318 N 0.78885 0.92315 0.03785 0.0
N319 N 0.98985 0.79377 0.97763 0.0
H320 H 0.88311 0.87086 0.89378 0.0
H321 H 0.93673 0.81289 0.90281 0.0
H322 H 0.01979 0.77027 0.99801 0.0
H323 H 0.00944 0.80481 0.94743 0.0
H324 H 0.77874 0.92724 0.07117 0.0
H325 H 0.76633 0.95512 0.018 0.0
H326 H 0.79315 0.84149 0.10016 0.0
H327 H 0.85356 0.79097 0.11016 0.0
C328 C 0.05014 0.08628 0.72969 0.0
C329 C 0.07664 0.1385 0.70942 0.0
C330 C 0.15923 0.13405 0.7646 0.0
C331 C 0.1378 0.07582 0.77916 0.0
N332 N 0.07356 0.98855 0.76212 0.0
N333 N 0.16769 0.20166 0.70193 0.0
C334 C 0.08665 0.04937 0.75746 0.0
C335 C 0.13451 0.15969 0.72514 0.0
N336 N 0.98951 0.07275 0.72398 0.0
N337 N 0.2006 0.16659 0.78886 0.0
H338 H 0.15422 0.21868 0.67142 0.0
H339 H 0.21224 0.21395 0.71074 0.0
H340 H 0.21726 0.15209 0.81924 0.0
H341 H 0.21291 0.21141 0.78095 0.0
H342 H 0.96816 0.03689 0.74069 0.0
H343 H 0.95925 0.10192 0.70749 0.0
H344 H 0.03864 0.96721 0.74435 0.0
H345 H 0.10235 0.95835 0.77904 0.0
C346 C 0.17541 0.83921 0.21972 0.0
C347 C 0.11551 0.81517 0.22476 0.0
C348 C 0.11704 0.84233 0.30264 0.0
C349 C 0.17122 0.87749 0.29546 0.0
N350 N 0.25341 0.90858 0.24741 0.0
N351 N 0.03038 0.78835 0.27059 0.0
C352 C 0.20186 0.87443 0.25437 0.0
C353 C 0.08732 0.81379 0.26644 0.0
N354 N 0.20614 0.82893 0.18134 0.0
N355 N 0.09375 0.83695 0.34414 0.0
H356 H 0.00938 0.76436 0.24499 0.0
H357 H 0.00311 0.79256 0.29846 0.0
H358 H 0.11271 0.85936 0.3711 0.0
H359 H 0.05851 0.80712 0.3526 0.0
H360 H 0.25173 0.841 0.1762 0.0
H361 H 0.18717 0.80299 0.1559 0.0
H362 H 0.27393 0.91388 0.21678 0.0
H363 H 0.2741 0.93469 0.27193 0.0
C364 C 0.82173 0.8528 0.70861 0.0
C365 C 0.86566 0.80876 0.72243 0.0
C366 C 0.82848 0.81769 0.79768 0.0
C367 C 0.79827 0.87265 0.78556 0.0
N368 N 0.75693 0.93861 0.72972 0.0
N369 N 0.90646 0.7426 0.77847 0.0
C370 C 0.79063 0.88809 0.74081 0.0
C371 C 0.86653 0.78784 0.76638 0.0
N372 N 0.8119 0.86175 0.66471 0.0
N373 N 0.82133 0.79538 0.83924 0.0
H374 H 0.93313 0.71916 0.75548 0.0
H375 H 0.9144 0.72978 0.81097 0.0
H376 H 0.79263 0.81694 0.86195 0.0
H377 H 0.83909 0.75354 0.84977 0.0
H378 H 0.77811 0.89056 0.65203 0.0
H379 H 0.83453 0.83569 0.64099 0.0
H380 H 0.75483 0.95679 0.69811 0.0
H381 H 0.732 0.96328 0.75306 0.0
C382 C 0.81631 0.1464 0.25502 0.0
C383 C 0.83312 0.08614 0.2685 0.0
C384 C 0.92091 0.08978 0.22002 0.0
C385 C 0.90126 0.1464 0.20155 0.0
N386 N 0.81836 0.2204 0.19541 0.0
N387 N 0.88643 0.99332 0.24902 0.0
C388 C 0.84526 0.17263 0.2171 0.0
C389 C 0.87944 0.05521 0.245 0.0
N390 N 0.77508 0.17957 0.27886 0.0
N391 N 0.98047 0.07072 0.21676 0.0
H392 H 0.85572 0.9667 0.26713 0.0
H393 H 0.9186 0.96881 0.2307 0.0
H394 H 0.01512 0.09862 0.20424 0.0
H395 H 0.99651 0.03108 0.23223 0.0
H396 H 0.7667 0.22591 0.273 0.0
H397 H 0.75209 0.1618 0.30599 0.0
H398 H 0.77515 0.23723 0.20376 0.0
H399 H 0.83582 0.2389 0.16649 0.0
loop_
_geom_bond_atom_site_label_1
_geom_bond_atom_site_label_2
_geom_bond_distance
_geom_bond_site_symmetry_2
_ccdc_geom_bond_type
Co0 O1 2.216 . S
Co0 O2 2.091 . S
Co0 O4 2.004 . S
Co0 O10 2.021 . S
Co0 O12 2.137 . S
Co0 O13 2.244 . S
O1 Co0 2.216 . S
O1 C8 1.247 . S
O2 Co0 2.091 . S
O2 C8 1.261 . S
C3 O12 1.250 . S
C3 O13 1.274 . S
O4 Co0 2.004 . S
O4 C9 1.259 . S
Co5 O6 2.061 . S
Co5 O11 2.052 . S
Co5 O13 2.135 . S
O6 Co5 2.061 . S
O6 C9 1.235 . S
C7 O10 1.238 . S
C7 O11 1.241 . S
C8 O1 1.247 . S
C8 O2 1.261 . S
C9 O4 1.259 . S
C9 O6 1.235 . S
O10 Co0 2.021 . S
O10 C7 1.238 . S
O11 Co5 2.052 . S
O11 C7 1.241 . S
O12 Co0 2.137 . S
O12 C3 1.250 . S
O13 Co0 2.244 . S
O13 C3 1.274 . S
O13 Co5 2.135 . S
Co14 O15 2.216 . S
Co14 O16 2.091 . S
Co14 O18 2.004 . S
Co14 O24 2.021 . S
Co14 O26 2.137 . S
Co14 O27 2.244 . S
O15 Co14 2.216 . S
O15 C22 1.247 . S
O16 Co14 2.091 . S
O16 C22 1.261 . S
C17 O26 1.250 . S
C17 O27 1.274 . S
O18 Co14 2.004 . S
O18 C23 1.259 . S
Co19 O20 2.061 . S
Co19 O25 2.052 . S
Co19 O27 2.135 . S
O20 Co19 2.061 . S
O20 C23 1.235 . S
C21 O24 1.238 . S
C21 O25 1.241 . S
C22 O15 1.247 . S
C22 O16 1.261 . S
C23 O18 1.259 . S
C23 O20 1.235 . S
O24 Co14 2.021 . S
O24 C21 1.238 . S
O25 Co19 2.052 . S
O25 C21 1.241 . S
O26 Co14 2.137 . S
O26 C17 1.250 . S
O27 Co14 2.244 . S
O27 C17 1.274 . S
O27 Co19 2.135 . S
Co28 O29 2.216 . S
Co28 O30 2.091 . S
Co28 O32 2.004 . S
Co28 O38 2.021 . S
Co28 O40 2.137 . S
Co28 O41 2.244 . S
O29 Co28 2.216 . S
O29 C36 1.247 . S
O30 Co28 2.091 . S
O30 C36 1.261 . S
C31 O40 1.250 . S
C31 O41 1.274 . S
O32 Co28 2.004 . S
O32 C37 1.259 . S
Co33 O34 2.061 . S
Co33 O39 2.052 . S
Co33 O41 2.135 . S
O34 Co33 2.061 . S
O34 C37 1.235 . S
C35 O38 1.238 . S
C35 O39 1.241 . S
C36 O29 1.247 . S
C36 O30 1.261 . S
C37 O32 1.259 . S
C37 O34 1.235 . S
O38 Co28 2.021 . S
O38 C35 1.238 . S
O39 Co33 2.052 . S
O39 C35 1.241 . S
O40 Co28 2.137 . S
O40 C31 1.250 . S
O41 Co28 2.244 . S
O41 C31 1.274 . S
O41 Co33 2.135 . S
Co42 O43 2.216 . S
Co42 O44 2.091 . S
Co42 O46 2.004 . S
Co42 O52 2.021 . S
Co42 O54 2.137 . S
Co42 O55 2.244 . S
O43 Co42 2.216 . S
O43 C50 1.247 . S
O44 Co42 2.091 . S
O44 C50 1.261 . S
C45 O54 1.250 . S
C45 O55 1.274 . S
O46 Co42 2.004 . S
O46 C51 1.259 . S
Co47 O48 2.061 . S
Co47 O53 2.052 . S
Co47 O55 2.135 . S
O48 Co47 2.061 . S
O48 C51 1.235 . S
C49 O52 1.238 . S
C49 O53 1.241 . S
C50 O43 1.247 . S
C50 O44 1.261 . S
C51 O46 1.259 . S
C51 O48 1.235 . S
O52 Co42 2.021 . S
O52 C49 1.238 . S
O53 Co47 2.052 . S
O53 C49 1.241 . S
O54 Co42 2.137 . S
O54 C45 1.250 . S
O55 Co42 2.244 . S
O55 C45 1.274 . S
O55 Co47 2.135 . S
Co56 O57 2.216 . S
Co56 O58 2.091 . S
Co56 O60 2.004 . S
Co56 O66 2.021 . S
Co56 O68 2.137 . S
Co56 O69 2.244 . S
O57 Co56 2.216 . S
O57 C64 1.247 . S
O58 Co56 2.091 . S
O58 C64 1.261 . S
C59 O68 1.250 . S
C59 O69 1.274 . S
O60 Co56 2.004 . S
O60 C65 1.259 . S
Co61 O62 2.061 . S
Co61 O67 2.052 . S
Co61 O69 2.135 . S
O62 Co61 2.061 . S
O62 C65 1.235 . S
C63 O66 1.238 . S
C63 O67 1.241 . S
C64 O57 1.247 . S
C64 O58 1.261 . S
C65 O60 1.259 . S
C65 O62 1.235 . S
O66 Co56 2.021 . S
O66 C63 1.238 . S
O67 Co61 2.052 . S
O67 C63 1.241 . S
O68 Co56 2.137 . S
O68 C59 1.250 . S
O69 Co56 2.244 . S
O69 C59 1.274 . S
O69 Co61 2.135 . S
Co70 O71 2.216 . S
Co70 O72 2.091 . S
Co70 O74 2.004 . S
Co70 O80 2.021 . S
Co70 O82 2.137 . S
Co70 O83 2.244 . S
O71 Co70 2.216 . S
O71 C78 1.247 . S
O72 Co70 2.091 . S
O72 C78 1.261 . S
C73 O82 1.250 . S
C73 O83 1.274 . S
O74 Co70 2.004 . S
O74 C79 1.259 . S
Co75 O76 2.061 . S
Co75 O81 2.052 . S
Co75 O83 2.135 . S
O76 Co75 2.061 . S
O76 C79 1.235 . S
C77 O80 1.238 . S
C77 O81 1.241 . S
C78 O71 1.247 . S
C78 O72 1.261 . S
C79 O74 1.259 . S
C79 O76 1.235 . S
O80 Co70 2.021 . S
O80 C77 1.238 . S
O81 Co75 2.052 . S
O81 C77 1.241 . S
O82 Co70 2.137 . S
O82 C73 1.250 . S
O83 Co70 2.244 . S
O83 C73 1.274 . S
O83 Co75 2.135 . S
Co84 O85 2.216 . S
Co84 O86 2.091 . S
Co84 O88 2.004 . S
Co84 O94 2.021 . S
Co84 O96 2.137 . S
Co84 O97 2.244 . S
O85 Co84 2.216 . S
O85 C92 1.247 . S
O86 Co84 2.091 . S
O86 C92 1.261 . S
C87 O96 1.250 . S
C87 O97 1.274 . S
O88 Co84 2.004 . S
O88 C93 1.259 . S
Co89 O90 2.061 . S
Co89 O95 2.052 . S
Co89 O97 2.135 . S
O90 Co89 2.061 . S
O90 C93 1.235 . S
C91 O94 1.238 . S
C91 O95 1.241 . S
C92 O85 1.247 . S
C92 O86 1.261 . S
C93 O88 1.259 . S
C93 O90 1.235 . S
O94 Co84 2.021 . S
O94 C91 1.238 . S
O95 Co89 2.052 . S
O95 C91 1.241 . S
O96 Co84 2.137 . S
O96 C87 1.250 . S
O97 Co84 2.244 . S
O97 C87 1.274 . S
O97 Co89 2.135 . S
Co98 O99 2.216 . S
Co98 O100 2.091 . S
Co98 O102 2.004 . S
Co98 O108 2.021 . S
Co98 O110 2.137 . S
Co98 O111 2.244 . S
O99 Co98 2.216 . S
O99 C106 1.247 . S
O100 Co98 2.091 . S
O100 C106 1.261 . S
C101 O110 1.250 . S
C101 O111 1.274 . S
O102 Co98 2.004 . S
O102 C107 1.259 . S
Co103 O104 2.061 . S
Co103 O109 2.052 . S
Co103 O111 2.135 . S
O104 Co103 2.061 . S
O104 C107 1.235 . S
C105 O108 1.238 . S
C105 O109 1.241 . S
C106 O99 1.247 . S
C106 O100 1.261 . S
C107 O102 1.259 . S
C107 O104 1.235 . S
O108 Co98 2.021 . S
O108 C105 1.238 . S
O109 Co103 2.052 . S
O109 C105 1.241 . S
O110 Co98 2.137 . S
O110 C101 1.250 . S
O111 Co98 2.244 . S
O111 C101 1.274 . S
O111 Co103 2.135 . S
C112 C113 1.363 . S
C112 C118 1.367 1_655 S
C112 N120 1.356 . S
C113 C112 1.363 . S
C113 C119 1.375 . S
C114 C115 1.363 . S
C114 C119 1.367 1_455 S
C114 N121 1.356 . S
C115 C114 1.363 . S
C115 C118 1.375 . S
N116 C118 1.361 . S
N116 H128 0.984 1_455 S
N116 H129 0.985 . S
N117 C119 1.361 . S
N117 H122 0.984 . S
N117 H123 0.985 1_655 S
C118 C112 1.367 1_455 S
C118 C115 1.375 . S
C118 N116 1.361 . S
C119 C113 1.375 . S
C119 C114 1.367 1_655 S
C119 N117 1.361 . S
N120 C112 1.356 . S
N120 H126 0.984 . S
N120 H127 0.984 . S
N121 C114 1.356 . S
N121 H124 0.984 . S
N121 H125 0.985 . S
H122 N117 0.984 . S
H123 N117 0.985 1_455 S
H124 N121 0.984 . S
H125 N121 0.985 . S
H126 N120 0.984 . S
H127 N120 0.984 . S
H128 N116 0.984 1_655 S
H129 N116 0.985 . S
C130 C131 1.363 . S
C130 C136 1.367 1_545 S
C130 N138 1.356 . S
C131 C130 1.363 . S
C131 C137 1.375 . S
C132 C133 1.363 . S
C132 C137 1.367 1_565 S
C132 N139 1.356 . S
C133 C132 1.363 . S
C133 C136 1.375 . S
N134 C136 1.361 . S
N134 H146 0.984 1_565 S
N134 H147 0.985 . S
N135 C137 1.361 . S
N135 H140 0.984 . S
N135 H141 0.985 1_545 S
C136 C130 1.367 1_565 S
C136 C133 1.375 . S
C136 N134 1.361 . S
C137 C131 1.375 . S
C137 C132 1.367 1_545 S
C137 N135 1.361 . S
N138 C130 1.356 . S
N138 H144 0.984 . S
N138 H145 0.984 . S
N139 C132 1.356 . S
N139 H142 0.984 . S
N139 H143 0.985 . S
H140 N135 0.984 . S
H141 N135 0.985 1_565 S
H142 N139 0.984 . S
H143 N139 0.985 . S
H144 N138 0.984 . S
H145 N138 0.984 . S
H146 N134 0.984 1_545 S
H147 N134 0.985 . S
C148 C149 1.375 . S
C148 C154 1.367 1_655 S
C148 N156 1.361 . S
C149 C148 1.375 . S
C149 C155 1.363 . S
C150 C151 1.375 . S
C150 C155 1.367 1_455 S
C150 N157 1.361 . S
C151 C150 1.375 . S
C151 C154 1.363 . S
N152 C154 1.356 . S
N152 H164 0.984 . S
N152 H165 0.985 . S
N153 C155 1.356 . S
N153 H158 0.984 . S
N153 H159 0.985 . S
C154 C148 1.367 1_455 S
C154 C151 1.363 . S
C154 N152 1.356 . S
C155 C149 1.363 . S
C155 C150 1.367 1_655 S
C155 N153 1.356 . S
N156 C148 1.361 . S
N156 H162 0.984 1_655 S
N156 H163 0.984 . S
N157 C150 1.361 . S
N157 H160 0.984 . S
N157 H161 0.985 1_455 S
H158 N153 0.984 . S
H159 N153 0.985 . S
H160 N157 0.984 . S
H161 N157 0.985 1_655 S
H162 N156 0.984 1_455 S
H163 N156 0.984 . S
H164 N152 0.984 . S
H165 N152 0.985 . S
C166 C167 1.375 . S
C166 C172 1.367 1_545 S
C166 N174 1.361 . S
C167 C166 1.375 . S
C167 C173 1.363 . S
C168 C169 1.375 . S
C168 C173 1.367 1_565 S
C168 N175 1.361 . S
C169 C168 1.375 . S
C169 C172 1.363 . S
N170 C172 1.356 . S
N170 H182 0.984 . S
N170 H183 0.985 . S
N171 C173 1.356 . S
N171 H176 0.984 . S
N171 H177 0.985 . S
C172 C166 1.367 1_565 S
C172 C169 1.363 . S
C172 N170 1.356 . S
C173 C167 1.363 . S
C173 C168 1.367 1_545 S
C173 N171 1.356 . S
N174 C166 1.361 . S
N174 H180 0.984 1_545 S
N174 H181 0.984 . S
N175 C168 1.361 . S
N175 H178 0.984 . S
N175 H179 0.985 1_565 S
H176 N171 0.984 . S
H177 N171 0.985 . S
H178 N175 0.984 . S
H179 N175 0.985 1_545 S
H180 N174 0.984 1_565 S
H181 N174 0.984 . S
H182 N170 0.984 . S
H183 N170 0.985 . S
C184 C185 1.363 . S
C184 C190 1.379 . S
C184 N192 1.356 . S
C185 C184 1.363 . S
C185 C191 1.363 . S
C186 C187 1.363 . S
C186 C191 1.379 . S
C186 N193 1.356 . S
C187 C186 1.363 . S
C187 C190 1.363 . S
N188 C190 1.356 . S
N188 H200 0.984 . S
N188 H201 0.985 . S
N189 C191 1.356 . S
N189 H194 0.984 . S
N189 H195 0.985 . S
C190 C184 1.379 . S
C190 C187 1.363 . S
C190 N188 1.356 . S
C191 C185 1.363 . S
C191 C186 1.379 . S
C191 N189 1.356 . S
N192 C184 1.356 . S
N192 H198 0.984 . S
N192 H199 0.984 1_545 S
N193 C186 1.356 . S
N193 H196 0.984 . S
N193 H197 0.985 . S
H194 N189 0.984 . S
H195 N189 0.985 . S
H196 N193 0.984 . S
H197 N193 0.985 . S
H198 N192 0.984 . S
H199 N192 0.984 1_565 S
H200 N188 0.984 . S
H201 N188 0.985 . S
C202 C203 1.363 . S
C202 C208 1.379 . S
C202 N210 1.356 . S
C203 C202 1.363 . S
C203 C209 1.363 . S
C204 C205 1.363 . S
C204 C209 1.379 . S
C204 N211 1.356 . S
C205 C204 1.363 . S
C205 C208 1.363 . S
N206 C208 1.356 . S
N206 H218 0.984 . S
N206 H219 0.985 1_455 S
N207 C209 1.356 . S
N207 H212 0.984 . S
N207 H213 0.985 . S
C208 C202 1.379 . S
C208 C205 1.363 . S
C208 N206 1.356 . S
C209 C203 1.363 . S
C209 C204 1.379 . S
C209 N207 1.356 . S
N210 C202 1.356 . S
N210 H216 0.984 . S
N210 H217 0.984 . S
N211 C204 1.356 . S
N211 H214 0.984 . S
N211 H215 0.985 . S
H212 N207 0.984 . S
H213 N207 0.985 . S
H214 N211 0.984 . S
H215 N211 0.985 . S
H216 N210 0.984 . S
H217 N210 0.984 . S
H218 N206 0.984 . S
H219 N206 0.985 1_655 S
C220 C221 1.363 . S
C220 C226 1.379 . S
C220 N228 1.356 . S
C221 C220 1.363 . S
C221 C227 1.363 . S
C222 C223 1.363 . S
C222 C227 1.379 . S
C222 N229 1.356 . S
C223 C222 1.363 . S
C223 C226 1.363 . S
N224 C226 1.356 . S
N224 H236 0.984 . S
N224 H237 0.985 . S
N225 C227 1.356 1_545 S
N225 H230 0.984 . S
N225 H231 0.985 . S
C226 C220 1.379 . S
C226 C223 1.363 . S
C226 N224 1.356 . S
C227 C221 1.363 . S
C227 C222 1.379 . S
C227 N225 1.356 1_565 S
N228 C220 1.356 . S
N228 H234 0.984 . S
N228 H235 0.984 . S
N229 C222 1.356 . S
N229 H232 0.984 . S
N229 H233 0.985 . S
H230 N225 0.984 . S
H231 N225 0.985 . S
H232 N229 0.984 . S
H233 N229 0.985 . S
H234 N228 0.984 . S
H235 N228 0.984 . S
H236 N224 0.984 . S
H237 N224 0.985 . S
C238 C239 1.363 . S
C238 C244 1.379 . S
C238 N246 1.356 . S
C239 C238 1.363 . S
C239 C245 1.363 . S
C240 C241 1.363 . S
C240 C245 1.379 . S
C240 N247 1.356 . S
C241 C240 1.363 . S
C241 C244 1.363 . S
N242 C244 1.356 1_455 S
N242 H254 0.984 . S
N242 H255 0.985 . S
N243 C245 1.356 . S
N243 H248 0.984 . S
N243 H249 0.985 . S
C244 C238 1.379 . S
C244 C241 1.363 . S
C244 N242 1.356 1_655 S
C245 C239 1.363 . S
C245 C240 1.379 . S
C245 N243 1.356 . S
N246 C238 1.356 . S
N246 H252 0.984 . S
N246 H253 0.984 . S
N247 C240 1.356 . S
N247 H250 0.984 . S
N247 H251 0.985 . S
H248 N243 0.984 . S
H249 N243 0.985 . S
H250 N247 0.984 . S
H251 N247 0.985 . S
H252 N246 0.984 . S
H253 N246 0.984 . S
H254 N242 0.984 . S
H255 N242 0.985 . S
C256 C257 1.354 1_554 S
C256 C262 1.385 . S
C256 N264 1.356 1_554 S
C257 C256 1.354 1_556 S
C257 C263 1.363 . S
C258 C259 1.363 1_556 S
C258 C263 1.379 . S
C258 N265 1.356 . S
C259 C258 1.363 1_554 S
C259 C262 1.363 . S
N260 C262 1.356 . S
N260 H272 0.984 . S
N260 H273 0.985 . S
N261 C263 1.356 . S
N261 H266 0.984 . S
N261 H267 0.985 . S
C262 C256 1.385 . S
C262 C259 1.363 . S
C262 N260 1.356 . S
C263 C257 1.363 . S
C263 C258 1.379 . S
C263 N261 1.356 . S
N264 C256 1.356 1_556 S
N264 H270 0.984 1_556 S
N264 H271 0.984 1_545 S
N265 C258 1.356 . S
N265 H268 0.984 1_556 S
N265 H269 0.985 . S
H266 N261 0.984 . S
H267 N261 0.985 . S
H268 N265 0.984 1_554 S
H269 N265 0.985 . S
H270 N264 0.984 1_554 S
H271 N264 0.984 1_565 S
H272 N260 0.984 . S
H273 N260 0.985 . S
C274 C275 1.363 . S
C274 C280 1.379 1_556 S
C274 N282 1.356 . S
C275 C274 1.363 . S
C275 C281 1.363 . S
C276 C277 1.363 . S
C276 C281 1.379 1_554 S
C276 N283 1.356 . S
C277 C276 1.363 . S
C277 C280 1.363 . S
N278 C280 1.356 . S
N278 H290 0.984 . S
N278 H291 0.985 . S
N279 C281 1.356 . S
N279 H284 0.984 . S
N279 H285 0.985 . S
C280 C274 1.379 1_554 S
C280 C277 1.363 . S
C280 N278 1.356 . S
C281 C275 1.363 . S
C281 C276 1.379 1_556 S
C281 N279 1.356 . S
N282 C274 1.356 . S
N282 H288 0.984 . S
N282 H289 0.984 . S
N283 C276 1.356 . S
N283 H286 0.984 1_455 S
N283 H287 0.985 . S
H284 N279 0.984 . S
H285 N279 0.985 . S
H286 N283 0.984 1_655 S
H287 N283 0.985 . S
H288 N282 0.984 . S
H289 N282 0.984 . S
H290 N278 0.984 . S
H291 N278 0.985 . S
C292 C293 1.363 1_556 S
C292 C298 1.379 . S
C292 N300 1.356 . S
C293 C292 1.363 1_554 S
C293 C299 1.363 . S
C294 C295 1.363 1_554 S
C294 C299 1.379 . S
C294 N301 1.356 1_565 S
C295 C294 1.363 1_556 S
C295 C298 1.363 . S
N296 C298 1.356 . S
N296 H308 0.984 . S
N296 H309 0.985 . S
N297 C299 1.356 . S
N297 H302 0.984 . S
N297 H303 0.985 . S
C298 C292 1.379 . S
C298 C295 1.363 . S
C298 N296 1.356 . S
C299 C293 1.363 . S
C299 C294 1.379 . S
C299 N297 1.356 . S
N300 C292 1.356 . S
N300 H306 0.984 . S
N300 H307 0.984 . S
N301 C294 1.356 1_545 S
N301 H304 0.984 1_554 S
N301 H305 0.985 . S
H302 N297 0.984 . S
H303 N297 0.985 . S
H304 N301 0.984 1_556 S
H305 N301 0.985 . S
H306 N300 0.984 . S
H307 N300 0.984 . S
H308 N296 0.984 . S
H309 N296 0.985 . S
C310 C311 1.363 1_554 S
C310 C316 1.379 . S
C310 N318 1.356 . S
C311 C310 1.363 1_556 S
C311 C317 1.363 . S
C312 C313 1.363 1_556 S
C312 C317 1.379 . S
C312 N319 1.356 1_655 S
C313 C312 1.363 1_554 S
C313 C316 1.363 . S
N314 C316 1.356 . S
N314 H326 0.984 . S
N314 H327 0.985 . S
N315 C317 1.356 . S
N315 H320 0.984 . S
N315 H321 0.985 . S
C316 C310 1.379 . S
C316 C313 1.363 . S
C316 N314 1.356 . S
C317 C311 1.363 . S
C317 C312 1.379 . S
C317 N315 1.356 . S
N318 C310 1.356 . S
N318 H324 0.984 . S
N318 H325 0.984 . S
N319 C312 1.356 1_455 S
N319 H322 0.984 1_556 S
N319 H323 0.985 . S
H320 N315 0.984 . S
H321 N315 0.985 . S
H322 N319 0.984 1_554 S
H323 N319 0.985 . S
H324 N318 0.984 . S
H325 N318 0.984 . S
H326 N314 0.984 . S
H327 N314 0.985 . S
C328 C329 1.363 . S
C328 C334 1.379 . S
C328 N336 1.356 . S
C329 C328 1.363 . S
C329 C335 1.363 . S
C330 C331 1.363 . S
C330 C335 1.379 . S
C330 N337 1.356 . S
C331 C330 1.363 . S
C331 C334 1.363 . S
N332 C334 1.356 . S
N332 H344 0.984 . S
N332 H345 0.985 . S
N333 C335 1.356 . S
N333 H338 0.984 . S
N333 H339 0.985 . S
C334 C328 1.379 . S
C334 C331 1.363 . S
C334 N332 1.356 . S
C335 C329 1.363 . S
C335 C330 1.379 . S
C335 N333 1.356 . S
N336 C328 1.356 . S
N336 H342 0.984 . S
N336 H343 0.984 . S
N337 C330 1.356 . S
N337 H340 0.984 . S
N337 H341 0.985 . S
H338 N333 0.984 . S
H339 N333 0.985 . S
H340 N337 0.984 . S
H341 N337 0.985 . S
H342 N336 0.984 . S
H343 N336 0.984 . S
H344 N332 0.984 . S
H345 N332 0.985 . S
C346 C347 1.363 . S
C346 C352 1.379 . S
C346 N354 1.356 . S
C347 C346 1.363 . S
C347 C353 1.363 . S
C348 C349 1.363 . S
C348 C353 1.379 . S
C348 N355 1.356 . S
C349 C348 1.363 . S
C349 C352 1.363 . S
N350 C352 1.356 . S
N350 H362 0.984 . S
N350 H363 0.985 . S
N351 C353 1.356 . S
N351 H356 0.984 . S
N351 H357 0.985 . S
C352 C346 1.379 . S
C352 C349 1.363 . S
C352 N350 1.356 . S
C353 C347 1.363 . S
C353 C348 1.379 . S
C353 N351 1.356 . S
N354 C346 1.356 . S
N354 H360 0.984 . S
N354 H361 0.984 . S
N355 C348 1.356 . S
N355 H358 0.984 . S
N355 H359 0.985 . S
H356 N351 0.984 . S
H357 N351 0.985 . S
H358 N355 0.984 . S
H359 N355 0.985 . S
H360 N354 0.984 . S
H361 N354 0.984 . S
H362 N350 0.984 . S
H363 N350 0.985 . S
C364 C365 1.363 . S
C364 C370 1.379 . S
C364 N372 1.356 . S
C365 C364 1.363 . S
C365 C371 1.363 . S
C366 C367 1.363 . S
C366 C371 1.379 . S
C366 N373 1.356 . S
C367 C366 1.363 . S
C367 C370 1.363 . S
N368 C370 1.356 . S
N368 H380 0.984 . S
N368 H381 0.985 . S
N369 C371 1.356 . S
N369 H374 0.984 . S
N369 H375 0.985 . S
C370 C364 1.379 . S
C370 C367 1.363 . S
C370 N368 1.356 . S
C371 C365 1.363 . S
C371 C366 1.379 . S
C371 N369 1.356 . S
N372 C364 1.356 . S
N372 H378 0.984 . S
N372 H379 0.984 . S
N373 C366 1.356 . S
N373 H376 0.984 . S
N373 H377 0.985 . S
H374 N369 0.984 . S
H375 N369 0.985 . S
H376 N373 0.984 . S
H377 N373 0.985 . S
H378 N372 0.984 . S
H379 N372 0.984 . S
H380 N368 0.984 . S
H381 N368 0.985 . S
C382 C383 1.363 . S
C382 C388 1.379 . S
C382 N390 1.356 . S
C383 C382 1.363 . S
C383 C389 1.363 . S
C384 C385 1.363 . S
C384 C389 1.379 . S
C384 N391 1.356 . S
C385 C384 1.363 . S
C385 C388 1.363 . S
N386 C388 1.356 . S
N386 H398 0.984 . S
N386 H399 0.985 . S
N387 C389 1.356 . S
N387 H392 0.984 . S
N387 H393 0.985 . S
C388 C382 1.379 . S
C388 C385 1.363 . S
C388 N386 1.356 . S
C389 C383 1.363 . S
C389 C384 1.379 . S
C389 N387 1.356 . S
N390 C382 1.356 . S
N390 H396 0.984 . S
N390 H397 0.984 . S
N391 C384 1.356 . S
N391 H394 0.984 . S
N391 H395 0.985 . S
H392 N387 0.984 . S
H393 N387 0.985 . S
H394 N391 0.984 . S
H395 N391 0.985 . S
H396 N390 0.984 . S
H397 N390 0.984 . S
H398 N386 0.984 . S
H399 N386 0.985 . S
C113 C36 1.586 . S
C115 C8 1.586 . S
C131 C50 1.586 . S
C133 C22 1.586 . S
C149 C64 1.586 . S
C151 C92 1.586 . S
C167 C78 1.586 . S
C169 C106 1.586 . S
C185 C17 1.265 1_545 S
C187 C9 1.188 . S
C203 C23 1.188 . S
C205 C31 1.265 1_455 S
C221 C45 1.265 1_565 S
C223 C37 1.188 . S
C239 C51 1.188 . S
C241 C3 1.265 1_655 S
C257 C101 1.265 1_545 S
C259 C65 1.188 . S
C275 C79 1.188 . S
C277 C59 1.265 1_455 S
C293 C93 1.188 . S
C295 C73 1.265 1_565 S
C311 C107 1.188 . S
C313 C87 1.265 1_655 S
C329 C7 1.590 . S
C331 C77 1.590 . S
C347 C91 1.590 . S
C349 C21 1.590 . S
C365 C35 1.590 . S
C367 C105 1.590 . S
C383 C49 1.590 . S
C385 C63 1.590 . S
