# Generated by pormake.
# Topology wgb, (5)-cn, num edge types: 1
# Building blocks:
#     Node 0, Type 0, BuildingBlock: XOMCOT_clean_sbu_0, # of connection points: 5
#     Node 1, Type 0, BuildingBlock: XOMCOT_clean_sbu_0, # of connection points: 5
#     Node 2, Type 0, BuildingBlock: XOMCOT_clean_sbu_0, # of connection points: 5
#     Node 3, Type 0, BuildingBlock: XOMCOT_clean_sbu_0, # of connection points: 5
#     Node 4, Type 0, BuildingBlock: XOMCOT_clean_sbu_0, # of connection points: 5
#     Node 5, Type 0, BuildingBlock: XOMCOT_clean_sbu_0, # of connection points: 5
#     Node 6, Type 0, BuildingBlock: XOMCOT_clean_sbu_0, # of connection points: 5
#     Node 7, Type 0, BuildingBlock: XOMCOT_clean_sbu_0, # of connection points: 5
#     Node 8, Type 0, BuildingBlock: XOMCOT_clean_sbu_0, # of connection points: 5
#     Node 9, Type 0, BuildingBlock: XOMCOT_clean_sbu_0, # of connection points: 5
#     Node 10, Type 0, BuildingBlock: XOMCOT_clean_sbu_0, # of connection points: 5
#     Node 11, Type 0, BuildingBlock: XOMCOT_clean_sbu_0, # of connection points: 5
#     Node 12, Type 0, BuildingBlock: XOMCOT_clean_sbu_0, # of connection points: 5
#     Node 13, Type 0, BuildingBlock: XOMCOT_clean_sbu_0, # of connection points: 5
#     Node 14, Type 0, BuildingBlock: XOMCOT_clean_sbu_0, # of connection points: 5
#     Node 15, Type 0, BuildingBlock: XOMCOT_clean_sbu_0, # of connection points: 5
#     Edge 16, Type (0, 0), BuildingBlock: CIFDUS_clean_linker_0, # of connection points: 2
#     Edge 17, Type (0, 0), BuildingBlock: CIFDUS_clean_linker_0, # of connection points: 2
#     Edge 18, Type (0, 0), BuildingBlock: CIFDUS_clean_linker_0, # of connection points: 2
#     Edge 19, Type (0, 0), BuildingBlock: CIFDUS_clean_linker_0, # of connection points: 2
#     Edge 20, Type (0, 0), BuildingBlock: CIFDUS_clean_linker_0, # of connection points: 2
#     Edge 21, Type (0, 0), BuildingBlock: CIFDUS_clean_linker_0, # of connection points: 2
#     Edge 22, Type (0, 0), BuildingBlock: CIFDUS_clean_linker_0, # of connection points: 2
#     Edge 23, Type (0, 0), BuildingBlock: CIFDUS_clean_linker_0, # of connection points: 2
#     Edge 24, Type (0, 0), BuildingBlock: CIFDUS_clean_linker_0, # of connection points: 2
#     Edge 25, Type (0, 0), BuildingBlock: CIFDUS_clean_linker_0, # of connection points: 2
#     Edge 26, Type (0, 0), BuildingBlock: CIFDUS_clean_linker_0, # of connection points: 2
#     Edge 27, Type (0, 0), BuildingBlock: CIFDUS_clean_linker_0, # of connection points: 2
#     Edge 28, Type (0, 0), BuildingBlock: CIFDUS_clean_linker_0, # of connection points: 2
#     Edge 29, Type (0, 0), BuildingBlock: CIFDUS_clean_linker_0, # of connection points: 2
#     Edge 30, Type (0, 0), BuildingBlock: CIFDUS_clean_linker_0, # of connection points: 2
#     Edge 31, Type (0, 0), BuildingBlock: CIFDUS_clean_linker_0, # of connection points: 2
#     Edge 32, Type (0, 0), BuildingBlock: CIFDUS_clean_linker_0, # of connection points: 2
#     Edge 33, Type (0, 0), BuildingBlock: CIFDUS_clean_linker_0, # of connection points: 2
#     Edge 34, Type (0, 0), BuildingBlock: CIFDUS_clean_linker_0, # of connection points: 2
#     Edge 35, Type (0, 0), BuildingBlock: CIFDUS_clean_linker_0, # of connection points: 2
#     Edge 36, Type (0, 0), BuildingBlock: CIFDUS_clean_linker_0, # of connection points: 2
#     Edge 37, Type (0, 0), BuildingBlock: CIFDUS_clean_linker_0, # of connection points: 2
#     Edge 38, Type (0, 0), BuildingBlock: CIFDUS_clean_linker_0, # of connection points: 2
#     Edge 39, Type (0, 0), BuildingBlock: CIFDUS_clean_linker_0, # of connection points: 2
#     Edge 40, Type (0, 0), BuildingBlock: CIFDUS_clean_linker_0, # of connection points: 2
#     Edge 41, Type (0, 0), BuildingBlock: CIFDUS_clean_linker_0, # of connection points: 2
#     Edge 42, Type (0, 0), BuildingBlock: CIFDUS_clean_linker_0, # of connection points: 2
#     Edge 43, Type (0, 0), BuildingBlock: CIFDUS_clean_linker_0, # of connection points: 2
#     Edge 44, Type (0, 0), BuildingBlock: CIFDUS_clean_linker_0, # of connection points: 2
#     Edge 45, Type (0, 0), BuildingBlock: CIFDUS_clean_linker_0, # of connection points: 2
#     Edge 46, Type (0, 0), BuildingBlock: CIFDUS_clean_linker_0, # of connection points: 2
#     Edge 47, Type (0, 0), BuildingBlock: CIFDUS_clean_linker_0, # of connection points: 2
#     Edge 48, Type (0, 0), BuildingBlock: CIFDUS_clean_linker_0, # of connection points: 2
#     Edge 49, Type (0, 0), BuildingBlock: CIFDUS_clean_linker_0, # of connection points: 2
#     Edge 50, Type (0, 0), BuildingBlock: CIFDUS_clean_linker_0, # of connection points: 2
#     Edge 51, Type (0, 0), BuildingBlock: CIFDUS_clean_linker_0, # of connection points: 2
#     Edge 52, Type (0, 0), BuildingBlock: CIFDUS_clean_linker_0, # of connection points: 2
#     Edge 53, Type (0, 0), BuildingBlock: CIFDUS_clean_linker_0, # of connection points: 2
#     Edge 54, Type (0, 0), BuildingBlock: CIFDUS_clean_linker_0, # of connection points: 2
#     Edge 55, Type (0, 0), BuildingBlock: CIFDUS_clean_linker_0, # of connection points: 2
# Relax obj value: 0.085
# Max RMSD: 0.115
# Mean RMSD: 0.115
data_MOF--net-wgb--node1-XOMCOT_clean_sbu_0--edge1-CIFDUS_clean_linker_0
_symmetry_space_group_name_H-M    P1
_symmetry_Int_Tables_number       1
_symmetry_cell_setting            triclinic
loop_
_symmetry_equiv_pos_as_xyz
'x, y, z'
_cell_length_a     51.293438
_cell_length_b     51.119858
_cell_length_c     24.323684
_cell_angle_alpha  89.969923
_cell_angle_beta   90.253734
_cell_angle_gamma 89.951333
loop_
_atom_site_label
_atom_site_type_symbol
_atom_site_fract_x
_atom_site_fract_y
_atom_site_fract_z
_atom_type_partial_charge
Co0 Co 0.35034 0.1166 0.20491 0.0
C1 C 0.34608 0.17334 0.17915 0.0
C2 C 0.33895 0.1647 0.26426 0.0
C3 C 0.33745 0.1913 0.25701 0.0
N4 N 0.34435 0.15348 0.21559 0.0
N5 N 0.34196 0.19673 0.2036 0.0
H6 H 0.35097 0.17084 0.13624 0.0
H7 H 0.33668 0.15425 0.30262 0.0
C8 C 0.30595 0.08987 0.26603 0.0
O9 O 0.30755 0.06833 0.23693 0.0
N10 N 0.35679 0.07935 0.19566 0.0
C11 C 0.35812 0.06557 0.14848 0.0
C12 C 0.36397 0.04001 0.16067 0.0
C13 C 0.36243 0.06188 0.23591 0.0
N14 N 0.36664 0.03763 0.21561 0.0
C15 C 0.33942 0.11952 0.08841 0.0
C16 C 0.28573 0.11806 0.09574 0.0
C17 C 0.29705 0.11775 0.0434 0.0
C18 C 0.32434 0.11917 0.04017 0.0
C19 C 0.30148 0.11847 0.1428 0.0
N20 N 0.32808 0.11777 0.13904 0.0
H21 H 0.36039 0.12021 0.08491 0.0
H22 H 0.29187 0.11971 0.18188 0.0
H23 H 0.35525 0.07313 0.10763 0.0
H24 H 0.36326 0.06683 0.27914 0.0
O25 O 0.38457 0.12413 0.17351 0.0
O26 O 0.37643 0.11763 0.2617 0.0
O27 O 0.3202 0.10969 0.25546 0.0
C28 C 0.39334 0.12303 0.2239 0.0
H29 H 0.33334 0.20559 0.28865 0.0
H30 H 0.3657 0.02426 0.13118 0.0
H31 H 0.26474 0.11821 0.10046 0.0
H32 H 0.33407 0.11926 1.00075 0.0
Co33 Co 0.10544 0.67745 0.81864 0.0
C34 C 0.1608 0.67682 0.85087 0.0
C35 C 0.15572 0.6873 0.76594 0.0
C36 C 0.1819 0.68795 0.77836 0.0
N37 N 0.14263 0.68047 0.81151 0.0
N38 N 0.18508 0.68138 0.83181 0.0
H39 H 0.15623 0.67099 0.89249 0.0
H40 H 0.14683 0.69177 0.72665 0.0
C41 C 0.08797 0.70924 0.72621 0.0
O42 O 0.07429 0.68863 0.71194 0.0
N43 N 0.06776 0.6748 0.82504 0.0
C44 C 0.05178 0.69318 0.84623 0.0
C45 C 0.02633 0.68579 0.83751 0.0
C46 C 0.05166 0.65674 0.80256 0.0
N47 N 0.02638 0.66304 0.8097 0.0
C48 C 0.0979 0.68949 0.93279 0.0
C49 C 0.12027 0.73876 0.929 0.0
C50 C 0.11022 0.72968 0.97894 0.0
C51 C 0.09892 0.70469 0.98058 0.0
C52 C 0.11841 0.72318 0.88204 0.0
N53 N 0.10708 0.69904 0.8842 0.0
H54 H 0.08937 0.67017 0.93435 0.0
H55 H 0.12648 0.73042 0.844 0.0
H56 H 0.05806 0.71142 0.86444 0.0
H57 H 0.05808 0.63986 0.77951 0.0
O58 O 0.10999 0.64296 0.85116 0.0
O59 O 0.10595 0.65132 0.76204 0.0
O60 O 0.10117 0.70901 0.77074 0.0
C61 C 0.10998 0.63424 0.8008 0.0
H62 H 0.19729 0.69347 0.7504 0.0
H63 H 0.00913 0.69698 0.84797 0.0
H64 H 0.12918 0.75791 0.92608 0.0
H65 H 0.09122 0.69688 0.01859 0.0
Co66 Co 0.66189 0.89998 0.19753 0.0
C67 C 0.67102 0.84245 0.18549 0.0
C68 C 0.6785 0.85606 0.26726 0.0
C69 C 0.68202 0.82937 0.26622 0.0
N70 N 0.6721 0.86439 0.21634 0.0
N71 N 0.67728 0.82081 0.21468 0.0
H72 H 0.66457 0.84189 0.14342 0.0
H73 H 0.6801 0.86855 0.30298 0.0
C74 C 0.71652 0.90331 0.23854 0.0
O75 O 0.72201 0.88194 0.21096 0.0
N76 N 0.65096 0.93504 0.17975 0.0
C77 C 0.63836 0.94212 0.13345 0.0
C78 C 0.63244 0.96825 0.1366 0.0
C79 C 0.65233 0.95684 0.2109 0.0
N80 N 0.64122 0.97756 0.18522 0.0
C81 C 0.66719 0.88415 0.08416 0.0
C82 C 0.71202 0.91235 0.06345 0.0
C83 C 0.70167 0.8966 0.02174 0.0
C84 C 0.67858 0.88284 0.03204 0.0
C85 C 0.69983 0.91336 0.11449 0.0
N86 N 0.67864 0.89808 0.12566 0.0
H87 H 0.64896 0.87415 0.09092 0.0
H88 H 0.70723 0.9271 0.14424 0.0
H89 H 0.63332 0.92903 0.10018 0.0
H90 H 0.66114 0.95744 0.25139 0.0
O91 O 0.62712 0.88732 0.17962 0.0
O92 O 0.64071 0.9006 0.26176 0.0
O93 O 0.69412 0.91401 0.23462 0.0
C94 C 0.6221 0.89108 0.23159 0.0
H95 H 0.6875 0.81728 0.30091 0.0
H96 H 0.62175 0.97934 0.10601 0.0
H97 H 0.72905 0.92437 0.05622 0.0
H98 H 0.6695 0.87108 1.00028 0.0
Co99 Co 0.91626 0.34729 0.86107 0.0
C100 C 0.85962 0.34717 0.88354 0.0
C101 C 0.86807 0.33332 0.80226 0.0
C102 C 0.8415 0.33256 0.80995 0.0
N103 N 0.87937 0.34235 0.84849 0.0
N104 N 0.83611 0.34129 0.86112 0.0
H105 H 0.86256 0.35495 0.92443 0.0
H106 H 0.87843 0.32755 0.76557 0.0
C107 C 0.93691 0.31566 0.77204 0.0
O108 O 0.9484 0.33748 0.75732 0.0
N109 N 0.95369 0.35184 0.87319 0.0
C110 C 0.96916 0.33621 0.90408 0.0
C111 C 0.99467 0.3439 0.89823 0.0
C112 C 0.97037 0.36851 0.84783 0.0
N113 N 0.9954 0.36401 0.86259 0.0
C114 C 0.91731 0.34022 0.97757 0.0
C115 C 0.9028 0.28811 0.97901 0.0
C116 C 0.90675 0.30107 0.02927 0.0
C117 C 0.91415 0.32748 0.02794 0.0
C118 C 0.90591 0.30168 0.92932 0.0
N119 N 0.91333 0.32736 0.9291 0.0
H120 H 0.92316 0.36051 0.97741 0.0
H121 H 0.90187 0.29164 0.89119 0.0
H122 H 0.9627 0.31951 0.92757 0.0
H123 H 0.9646 0.38308 0.81791 0.0
O124 O 0.90917 0.38205 0.8896 0.0
O125 O 0.91661 0.37263 0.80226 0.0
O126 O 0.92364 0.31505 0.81638 0.0
C127 C 0.91098 0.39014 0.83905 0.0
H128 H 0.82738 0.32557 0.78025 0.0
H129 H 0.01155 0.33459 0.91661 0.0
H130 H 0.89669 0.26783 0.97812 0.0
H131 H 0.91768 0.33821 0.06562 0.0
Co132 Co 0.34228 0.40959 0.05914 0.0
C133 C 0.34009 0.35182 0.06052 0.0
C134 C 0.30965 0.36734 1.00959 0.0
C135 C 0.30707 0.34048 1.01173 0.0
N136 N 0.3303 0.3745 0.04069 0.0
N137 N 0.32612 0.33082 0.04426 0.0
H138 H 0.35693 0.35061 0.08722 0.0
H139 H 0.29674 0.3805 0.98799 0.0
C140 C 0.31284 0.43388 0.96817 0.0
O141 O 0.33566 0.43592 0.94443 0.0
N142 N 0.35467 0.44407 0.07961 0.0
C143 C 0.3662 0.4489 0.1284 0.0
C144 C 0.37343 0.47467 0.1305 0.0
C145 C 0.3552 0.46714 0.05227 0.0
N146 N 0.3665 0.48622 0.08277 0.0
C147 C 0.3293 0.39046 0.16686 0.0
C148 C 0.29057 0.42642 0.1897 0.0
C149 C 0.29718 0.40797 0.23048 0.0
C150 C 0.31671 0.38965 0.21776 0.0
C151 C 0.30341 0.42628 0.13874 0.0
N152 N 0.32248 0.40835 0.12772 0.0
H153 H 0.34501 0.37693 0.15952 0.0
H154 H 0.29856 0.44118 0.10889 0.0
H155 H 0.36935 0.43448 0.16029 0.0
H156 H 0.34741 0.47021 1.01157 0.0
O157 O 0.37588 0.39535 0.08407 0.0
O158 O 0.3668 0.40783 0.99939 0.0
O159 O 0.31138 0.42479 0.01725 0.0
C160 C 0.38357 0.39798 0.03345 0.0
H161 H 0.29163 0.32913 0.99291 0.0
H162 H 0.38353 0.48404 0.16432 0.0
H163 H 0.27613 0.44141 0.19743 0.0
H164 H 0.32249 0.37472 0.24694 0.0
Co165 Co 0.40838 0.67156 0.95684 0.0
C166 C 0.35219 0.67135 0.93383 0.0
C167 C 0.36007 0.69058 1.01037 0.0
C168 C 0.33369 0.69205 0.99975 0.0
N169 N 0.37165 0.67778 0.96862 0.0
N170 N 0.32882 0.68006 0.95136 0.0
H171 H 0.3551 0.66052 0.89628 0.0
H172 H 0.36993 0.6988 0.04562 0.0
C173 C 0.42319 0.6982 0.05993 0.0
O174 O 0.42511 0.67471 0.08128 0.0
N175 N 0.4451 0.66532 0.94414 0.0
C176 C 0.45693 0.66477 0.8948 0.0
C177 C 0.48276 0.65861 0.90229 0.0
C178 C 0.46391 0.6591 0.98098 0.0
N179 N 0.48715 0.65496 0.95647 0.0
C180 C 0.39776 0.68618 0.84493 0.0
C181 C 0.41343 0.73777 0.85191 0.0
C182 C 0.40354 0.7285 0.80173 0.0
C183 C 0.3958 0.70227 0.79865 0.0
C184 C 0.41532 0.72094 0.89727 0.0
N185 N 0.4072 0.69548 0.8938 0.0
H186 H 0.3918 0.66605 0.84107 0.0
H187 H 0.42356 0.72868 0.93466 0.0
H188 H 0.44752 0.66819 0.85567 0.0
H189 H 0.46059 0.65668 0.02443 0.0
O190 O 0.40022 0.63842 0.92038 0.0
O191 O 0.40719 0.64325 1.00922 0.0
O192 O 0.417 0.70097 1.00925 0.0
C193 C 0.40123 0.62781 0.96892 0.0
H194 H 0.31943 0.702 0.02486 0.0
H195 H 0.49718 0.65701 0.87013 0.0
H196 H 0.42006 0.75779 0.85589 0.0
H197 H 0.38794 0.69424 0.76086 0.0
Co198 Co 0.67215 0.60449 0.0709 0.0
C199 C 0.67544 0.66229 0.085 0.0
C200 C 0.69455 0.64921 1.01179 0.0
C201 C 0.69692 0.67595 1.01504 0.0
N202 N 0.6814 0.64056 0.05606 0.0
N203 N 0.68493 0.68418 0.06117 0.0
H204 H 0.66372 0.6623 0.12171 0.0
H205 H 0.70172 0.63701 0.97886 0.0
C206 C 0.71342 0.57275 1.00972 0.0
O207 O 0.70296 0.55021 0.02255 0.0
N208 N 0.66214 0.56842 0.08543 0.0
C209 C 0.66199 0.55588 0.13427 0.0
C210 C 0.65234 0.53105 0.12679 0.0
C211 C 0.65154 0.55124 0.04942 0.0
N212 N 0.64594 0.52807 0.07332 0.0
C213 C 0.67916 0.61906 0.18417 0.0
C214 C 0.72629 0.59407 0.20081 0.0
C215 C 0.71523 0.60783 0.24496 0.0
C216 C 0.69133 0.6206 0.23562 0.0
C217 C 0.71383 0.59364 0.14955 0.0
N218 N 0.69057 0.60618 0.14142 0.0
H219 H 0.66027 0.62803 0.17907 0.0
H220 H 0.72264 0.58228 0.11739 0.0
H221 H 0.66829 0.56398 0.17309 0.0
H222 H 0.64861 0.5554 1.00622 0.0
O223 O 0.6373 0.61528 0.0928 0.0
O224 O 0.6494 0.60521 1.00809 0.0
O225 O 0.70485 0.59413 0.03007 0.0
C226 C 0.63101 0.61264 0.04111 0.0
H227 H 0.70693 0.6883 0.98582 0.0
H228 H 0.65083 0.51613 0.15819 0.0
H229 H 0.74416 0.58304 0.20579 0.0
H230 H 0.68188 0.63174 0.26765 0.0
Co231 Co 0.60768 0.34106 0.96038 0.0
C232 C 0.66427 0.34485 0.93469 0.0
C233 C 0.65714 0.33319 0.01808 0.0
C234 C 0.68362 0.33369 1.00969 0.0
N235 N 0.64504 0.34002 0.97107 0.0
N236 N 0.68822 0.34103 0.95721 0.0
H237 H 0.66069 0.35086 0.89268 0.0
H238 H 0.64734 0.32781 0.0557 0.0
C239 C 0.59157 0.30386 0.04401 0.0
O240 O 0.57554 0.32238 0.05985 0.0
N241 N 0.56985 0.34159 0.95072 0.0
C242 C 0.5556 0.3232 0.92448 0.0
C243 C 0.52953 0.32856 0.93138 0.0
C244 C 0.55202 0.35759 0.97431 0.0
N245 N 0.52733 0.35005 0.96303 0.0
C246 C 0.60271 0.33546 0.84359 0.0
C247 C 0.62544 0.28647 0.83638 0.0
C248 C 0.61559 0.2981 0.78819 0.0
C249 C 0.60428 0.32308 0.79241 0.0
C250 C 0.6233 0.29945 0.88682 0.0
N251 N 0.61163 0.32341 0.89005 0.0
H252 H 0.59364 0.35451 0.84634 0.0
H253 H 0.63122 0.29026 0.92326 0.0
H254 H 0.56351 0.30631 0.90364 0.0
H255 H 0.55679 0.37393 1.00069 0.0
O256 O 0.61034 0.37726 0.93669 0.0
O257 O 0.60511 0.36401 0.02275 0.0
O258 O 0.60509 0.30698 1.00062 0.0
C259 C 0.60828 0.38328 0.98857 0.0
H260 H 0.69824 0.32828 0.03978 0.0
H261 H 0.51342 0.31681 0.9166 0.0
H262 H 0.63496 0.26757 0.8352 0.0
H263 H 0.59617 0.33283 0.75671 0.0
Co264 Co 0.84678 0.59876 0.69378 0.0
C265 C 0.84303 0.65535 0.67436 0.0
C266 C 0.82442 0.64504 0.74998 0.0
C267 C 0.82213 0.67172 0.7424 0.0
N268 N 0.83726 0.63483 0.70685 0.0
N269 N 0.83378 0.67811 0.69458 0.0
H270 H 0.85435 0.65376 0.63723 0.0
H271 H 0.81738 0.63403 0.78471 0.0
C272 C 0.80449 0.56519 0.74477 0.0
O273 O 0.81086 0.54479 0.71496 0.0
N274 N 0.85714 0.56278 0.67947 0.0
C275 C 0.85751 0.55074 0.63009 0.0
C276 C 0.86804 0.52627 0.63616 0.0
C277 C 0.86784 0.54532 0.71491 0.0
N278 N 0.87464 0.52284 0.68935 0.0
C279 C 0.84179 0.61007 0.57846 0.0
C280 C 0.79084 0.59387 0.56502 0.0
C281 C 0.80413 0.60363 0.51898 0.0
C282 C 0.82994 0.61208 0.52676 0.0
C283 C 0.80317 0.59288 0.6164 0.0
N284 N 0.82853 0.60055 0.62278 0.0
H285 H 0.86184 0.61612 0.58264 0.0
H286 H 0.79197 0.58571 0.65036 0.0
H287 H 0.85089 0.55891 0.59163 0.0
H288 H 0.87088 0.54909 0.75823 0.0
O289 O 0.88168 0.61003 0.67283 0.0
O290 O 0.86907 0.59995 0.75716 0.0
O291 O 0.81484 0.58753 0.7359 0.0
C292 C 0.88739 0.6082 0.72499 0.0
H293 H 0.81233 0.68521 0.76964 0.0
H294 H 0.87046 0.51199 0.60374 0.0
H295 H 0.77108 0.58662 0.56168 0.0
H296 H 0.84109 0.62037 0.49335 0.0
Co297 Co 0.6106 0.15672 0.3546 0.0
C298 C 0.66854 0.16447 0.36643 0.0
C299 C 0.65586 0.16211 0.28251 0.0
C300 C 0.6826 0.16409 0.28327 0.0
N301 N 0.64692 0.16243 0.33464 0.0
N302 N 0.69049 0.16561 0.33604 0.0
H303 H 0.66867 0.16424 0.41067 0.0
H304 H 0.64371 0.16025 0.24626 0.0
C305 C 0.61268 0.20834 0.29776 0.0
O306 O 0.63506 0.21302 0.32224 0.0
N307 N 0.57463 0.15026 0.37303 0.0
C308 C 0.56603 0.14119 0.42157 0.0
C309 C 0.53952 0.1378 0.41819 0.0
C310 C 0.5533 0.15202 0.34037 0.0
N311 N 0.53143 0.14464 0.36721 0.0
C312 C 0.62621 0.16672 0.4665 0.0
C313 C 0.60182 0.21463 0.47748 0.0
C314 C 0.61511 0.20421 0.52297 0.0
C315 C 0.62733 0.17982 0.51694 0.0
C316 C 0.60102 0.20078 0.42785 0.0
N317 N 0.61394 0.17752 0.42197 0.0
H318 H 0.63506 0.1476 0.46349 0.0
H319 H 0.58903 0.20849 0.39518 0.0
H320 H 0.57828 0.13685 0.45671 0.0
H321 H 0.55383 0.15851 0.29803 0.0
O322 O 0.62 0.12226 0.38243 0.0
O323 O 0.60822 0.13125 0.29675 0.0
O324 O 0.59959 0.18781 0.30895 0.0
C325 C 0.61601 0.11399 0.33243 0.0
H326 H 0.69526 0.16434 0.24779 0.0
H327 H 0.52724 0.13019 0.45053 0.0
H328 H 0.59121 0.23289 0.48077 0.0
H329 H 0.6376 0.17081 0.55104 0.0
Co330 Co 0.16468 0.41864 0.67894 0.0
C331 C 0.17181 0.36239 0.66194 0.0
C332 C 0.18531 0.37383 0.74202 0.0
C333 C 0.18963 0.34737 0.73556 0.0
N334 N 0.17431 0.38312 0.6956 0.0
N335 N 0.18121 0.34028 0.68501 0.0
H336 H 0.16308 0.3635 0.62149 0.0
H337 H 0.1901 0.38547 0.77776 0.0
C338 C 0.21043 0.45073 0.72345 0.0
O339 O 0.20899 0.46782 0.68319 0.0
N340 N 0.15441 0.45424 0.66153 0.0
C341 C 0.14417 0.46212 0.61316 0.0
C342 C 0.1377 0.48802 0.61662 0.0
C343 C 0.15305 0.47547 0.69472 0.0
N344 N 0.14344 0.49655 0.66763 0.0
C345 C 0.17075 0.40986 0.56253 0.0
C346 C 0.22379 0.41803 0.55573 0.0
C347 C 0.20982 0.41372 0.50666 0.0
C348 C 0.18298 0.40881 0.51125 0.0
C349 C 0.21079 0.41848 0.60649 0.0
N350 N 0.18426 0.41597 0.60936 0.0
H351 H 0.15011 0.40591 0.56425 0.0
H352 H 0.22244 0.42054 0.64303 0.0
H353 H 0.14056 0.4499 0.57795 0.0
H354 H 0.15918 0.47555 0.73735 0.0
O355 O 0.13032 0.40667 0.65498 0.0
O356 O 0.14064 0.41845 0.73968 0.0
O357 O 0.19569 0.43064 0.72377 0.0
C358 C 0.12305 0.40979 0.70583 0.0
H359 H 0.1988 0.33453 0.76529 0.0
H360 H 0.12878 0.49957 0.58429 0.0
H361 H 0.24461 0.4214 0.55526 0.0
H362 H 0.17129 0.40401 0.47549 0.0
Co363 Co 0.39987 0.84999 0.34197 0.0
C364 C 0.34374 0.84833 0.3626 0.0
C365 C 0.35305 0.83116 0.28455 0.0
C366 C 0.32664 0.82888 0.29302 0.0
N367 N 0.36362 0.84322 0.32837 0.0
N368 N 0.32077 0.83968 0.34221 0.0
H369 H 0.34626 0.8581 0.40168 0.0
H370 H 0.36381 0.82411 0.2494 0.0
C371 C 0.42663 0.80021 0.30743 0.0
O372 O 0.44109 0.80075 0.35217 0.0
N373 N 0.43647 0.85726 0.35455 0.0
C374 C 0.4474 0.87039 0.39685 0.0
C375 C 0.47315 0.87485 0.38537 0.0
C376 C 0.45563 0.85494 0.31693 0.0
N377 N 0.47834 0.8651 0.33515 0.0
C378 C 0.39957 0.843 0.46075 0.0
C379 C 0.39033 0.78983 0.45846 0.0
C380 C 0.39665 0.80146 0.50905 0.0
C381 C 0.40027 0.82871 0.51 0.0
C382 C 0.39016 0.8048 0.41043 0.0
N383 N 0.39689 0.83066 0.41128 0.0
H384 H 0.40105 0.86399 0.46258 0.0
H385 H 0.38467 0.79539 0.3724 0.0
H386 H 0.43736 0.87819 0.4319 0.0
H387 H 0.45275 0.84666 0.27644 0.0
O388 O 0.3913 0.88562 0.36522 0.0
O389 O 0.40078 0.87317 0.2804 0.0
O390 O 0.40912 0.81754 0.29931 0.0
C391 C 0.39487 0.89201 0.31378 0.0
H392 H 0.31303 0.81941 0.26542 0.0
H393 H 0.48659 0.88589 0.41075 0.0
H394 H 0.3856 0.76923 0.45573 0.0
H395 H 0.40417 0.83893 0.54811 0.0
Co396 Co 0.8394 0.9062 0.59004 0.0
C397 C 0.84064 0.84966 0.61696 0.0
C398 C 0.83043 0.85683 0.53253 0.0
C399 C 0.82972 0.83032 0.54185 0.0
N400 N 0.83711 0.86888 0.57964 0.0
N401 N 0.8361 0.82577 0.59497 0.0
H402 H 0.84619 0.8532 0.65926 0.0
H403 H 0.82597 0.86669 0.49428 0.0
C404 C 0.80506 0.92376 0.50273 0.0
O405 O 0.8246 0.93891 0.48882 0.0
N406 N 0.84114 0.94398 0.5997 0.0
C407 C 0.82283 0.95886 0.62431 0.0
C408 C 0.82904 0.98479 0.61747 0.0
C409 C 0.85799 0.96127 0.57715 0.0
N410 N 0.85099 0.98625 0.58749 0.0
C411 C 0.83205 0.91118 0.70574 0.0
C412 C 0.78315 0.88841 0.70917 0.0
C413 C 0.79443 0.89741 0.75836 0.0
C414 C 0.81926 0.90896 0.75603 0.0
C415 C 0.79647 0.89137 0.65958 0.0
N416 N 0.82047 0.90283 0.65839 0.0
H417 H 0.85116 0.92008 0.70442 0.0
H418 H 0.78769 0.88394 0.62227 0.0
H419 H 0.80539 0.9515 0.64368 0.0
H420 H 0.87442 0.95591 0.55184 0.0
O421 O 0.87479 0.9021 0.6173 0.0
O422 O 0.86339 0.90762 0.52994 0.0
O423 O 0.80644 0.91023 0.5467 0.0
C424 C 0.88173 0.90342 0.5659 0.0
H425 H 0.82413 0.81566 0.512 0.0
H426 H 0.8175 1.00135 0.63074 0.0
H427 H 0.76435 0.8788 0.70892 0.0
H428 H 0.82867 0.91657 0.79259 0.0
Co429 Co 0.906 0.17067 0.4789 0.0
C430 C 0.84949 0.17828 0.45896 0.0
C431 C 0.86107 0.19008 0.54014 0.0
C432 C 0.83454 0.19321 0.53512 0.0
N433 N 0.87038 0.18082 0.49241 0.0
N434 N 0.82715 0.18582 0.484 0.0
H435 H 0.85072 0.17082 0.41748 0.0
H436 H 0.87268 0.19363 0.5766 0.0
C437 C 0.93766 0.2173 0.51745 0.0
O438 O 0.95399 0.21502 0.47624 0.0
N439 N 0.9419 0.16002 0.46659 0.0
C440 C 0.95178 0.14886 0.421 0.0
C441 C 0.97748 0.14278 0.43017 0.0
C442 C 0.96169 0.15964 0.50368 0.0
N443 N 0.98384 0.14971 0.48199 0.0
C444 C 0.90128 0.17437 0.36106 0.0
C445 C 0.90452 0.22812 0.35266 0.0
C446 C 0.90363 0.21333 0.30402 0.0
C447 C 0.90121 0.18608 0.30905 0.0
C448 C 0.9043 0.21557 0.40394 0.0
N449 N 0.90444 0.18887 0.40777 0.0
H450 H 0.89894 0.15343 0.36354 0.0
H451 H 0.90376 0.22761 0.4402 0.0
H452 H 0.94115 0.14439 0.38396 0.0
H453 H 0.95994 0.1667 0.54544 0.0
O454 O 0.8943 0.1359 0.45727 0.0
O455 O 0.90475 0.14808 0.54193 0.0
O456 O 0.9177 0.20254 0.52068 0.0
C457 C 0.89649 0.12984 0.50916 0.0
H458 H 0.8217 0.19966 0.56755 0.0
H459 H 0.99032 0.13326 0.40118 0.0
H460 H 0.90577 0.24924 0.35143 0.0
H461 H 0.89913 0.17377 0.27309 0.0
Co462 Co 0.17397 0.11345 0.58445 0.0
C463 C 0.18037 0.16919 0.61115 0.0
C464 C 0.19401 0.16041 0.52986 0.0
C465 C 0.19719 0.18676 0.53926 0.0
N466 N 0.1836 0.14951 0.57504 0.0
N467 N 0.18856 0.19227 0.59037 0.0
H468 H 0.17159 0.16671 0.65116 0.0
H469 H 0.19862 0.15003 0.49244 0.0
C470 C 0.21809 0.08209 0.5352 0.0
O471 O 0.21533 0.06346 0.57193 0.0
N472 N 0.16384 0.07711 0.59247 0.0
C473 C 0.1573 0.06388 0.63836 0.0
C474 C 0.14883 0.03933 0.62369 0.0
C475 C 0.15891 0.06046 0.55053 0.0
N476 N 0.14984 0.03723 0.56849 0.0
C477 C 0.18209 0.11472 0.70223 0.0
C478 C 0.23585 0.11752 0.69908 0.0
C479 C 0.22357 0.11839 0.75041 0.0
C480 C 0.19624 0.11691 0.75154 0.0
C481 C 0.22103 0.11527 0.65099 0.0
N482 N 0.19447 0.11302 0.6527 0.0
H483 H 0.16105 0.11492 0.70384 0.0
H484 H 0.2312 0.11655 0.6125 0.0
H485 H 0.15785 0.07133 0.6797 0.0
H486 H 0.16134 0.06551 0.50764 0.0
O487 O 0.1397 0.12433 0.61141 0.0
O488 O 0.14991 0.11677 0.52455 0.0
O489 O 0.20449 0.10297 0.53779 0.0
C490 C 0.13243 0.12383 0.5599 0.0
H491 H 0.20529 0.20071 0.51057 0.0
H492 H 0.1423 0.02421 0.65159 0.0
H493 H 0.25685 0.11889 0.69582 0.0
H494 H 0.1858 0.11831 0.79002 0.0
Co495 Co 0.09378 0.8597 0.42459 0.0
C496 C 0.15064 0.85138 0.40797 0.0
C497 C 0.13986 0.84732 0.49243 0.0
C498 C 0.16634 0.84326 0.48813 0.0
N499 N 0.12994 0.85187 0.44185 0.0
N500 N 0.17301 0.84573 0.4348 0.0
H501 H 0.14982 0.85592 0.36493 0.0
H502 H 0.12853 0.84678 0.52982 0.0
C503 C 0.09444 0.80618 0.47202 0.0
O504 O 0.11498 0.8012 0.44173 0.0
N505 N 0.05816 0.86833 0.40776 0.0
C506 C 0.04987 0.87876 0.35997 0.0
C507 C 0.02368 0.88374 0.36385 0.0
C508 C 0.03707 0.86735 0.44053 0.0
N509 N 0.01563 0.87658 0.41441 0.0
C510 C 0.10728 0.84996 0.31028 0.0
C511 C 0.0786 0.80447 0.30046 0.0
C512 C 0.09276 0.81315 0.25491 0.0
C513 C 0.10708 0.83643 0.26007 0.0
C514 C 0.07931 0.81854 0.3494 0.0
N515 N 0.0948 0.84013 0.35532 0.0
H516 H 0.11699 0.86867 0.31254 0.0
H517 H 0.06652 0.81229 0.38184 0.0
H518 H 0.06217 0.88302 0.32513 0.0
H519 H 0.03749 0.86024 0.48243 0.0
O520 O 0.10431 0.89462 0.40068 0.0
O521 O 0.093 0.88331 0.48533 0.0
O522 O 0.0824 0.82798 0.46776 0.0
C523 C 0.10048 0.90147 0.45175 0.0
H524 H 0.17951 0.83859 0.5216 0.0
H525 H 0.01168 0.89274 0.3324 0.0
H526 H 0.06679 0.78694 0.29846 0.0
H527 H 0.11738 0.84455 0.22525 0.0
H528 H 0.28955 0.05074 0.33393 0.0
H529 H 0.28233 0.13363 0.30349 0.0
H530 H 0.25523 0.13845 0.38487 0.0
H531 H 0.23436 0.11961 0.46512 0.0
H532 H 0.24173 0.03706 0.49891 0.0
H533 H 0.26844 0.03168 0.41636 0.0
C534 C 0.28172 0.06974 0.34488 0.0
C535 C 0.28773 0.09176 0.31261 0.0
C536 C 0.26656 0.07252 0.39266 0.0
C537 C 0.27793 0.11639 0.32768 0.0
C538 C 0.2625 0.1192 0.37427 0.0
C539 C 0.24176 0.10039 0.4546 0.0
C540 C 0.23599 0.07877 0.48813 0.0
C541 C 0.2569 0.09747 0.40724 0.0
C542 C 0.24602 0.05408 0.47402 0.0
C543 C 0.26114 0.05097 0.4266 0.0
H544 H 0.12438 0.79563 0.55932 0.0
H545 H 0.05008 0.77777 0.48546 0.0
H546 H 0.04073 0.74659 0.55984 0.0
H547 H 0.055 0.72315 0.64354 0.0
H548 H 0.12828 0.74365 0.72002 0.0
H549 H 0.13662 0.77554 0.64751 0.0
C550 C 0.10613 0.78491 0.55988 0.0
C551 C 0.08804 0.78842 0.51717 0.0
C552 C 0.10073 0.76773 0.60323 0.0
C553 C 0.06425 0.775 0.51812 0.0
C554 C 0.05896 0.75729 0.56051 0.0
C555 C 0.07265 0.73482 0.64455 0.0
C556 C 0.0911 0.73091 0.68673 0.0
C557 C 0.07721 0.7533 0.60298 0.0
C558 C 0.11375 0.74634 0.68804 0.0
C559 C 0.11863 0.76445 0.64642 0.0
H560 H 0.79126 0.95349 0.41483 0.0
H561 H 0.7733 0.88111 0.498 0.0
H562 H 0.74509 0.86808 0.42186 0.0
H563 H 0.72763 0.87603 0.32923 0.0
H564 H 0.74253 0.94942 0.24841 0.0
H565 H 0.77034 0.96327 0.32567 0.0
C566 C 0.78088 0.93503 0.41656 0.0
C567 C 0.78452 0.91821 0.46174 0.0
C568 C 0.76463 0.92768 0.37267 0.0
C569 C 0.77078 0.89446 0.46378 0.0
C570 C 0.75483 0.88687 0.42003 0.0
C571 C 0.7371 0.895 0.3287 0.0
C572 C 0.73377 0.91156 0.28328 0.0
C573 C 0.75208 0.90306 0.37386 0.0
C574 C 0.74539 0.93634 0.28297 0.0
C575 C 0.76107 0.94423 0.32711 0.0
H576 H 0.96482 0.31053 0.67797 0.0
H577 H 0.90782 0.27087 0.77803 0.0
H578 H 0.9035 0.23679 0.70816 0.0
H579 H 0.91415 0.2196 0.61695 0.0
H580 H 0.97114 0.25909 0.51667 0.0
H581 H 0.97715 0.29205 0.58856 0.0
C582 C 0.95159 0.29433 0.68481 0.0
C583 C 0.93656 0.29336 0.73315 0.0
C584 C 0.94902 0.27495 0.64424 0.0
C585 C 0.91966 0.2721 0.74136 0.0
C586 C 0.91707 0.25268 0.70125 0.0
C587 C 0.92788 0.23544 0.61064 0.0
C588 C 0.94196 0.23705 0.56111 0.0
C589 C 0.93132 0.25417 0.65219 0.0
C590 C 0.95997 0.25745 0.55419 0.0
C591 C 0.96341 0.27629 0.59531 0.0
H592 H 0.30983 0.46285 0.87505 0.0
H593 H 0.26284 0.41612 0.98414 0.0
H594 H 0.22658 0.41798 0.91834 0.0
H595 H 0.20973 0.42969 0.82621 0.0
H596 H 0.25652 0.47746 0.71872 0.0
H597 H 0.29139 0.47841 0.78763 0.0
C598 C 0.29154 0.45332 0.88486 0.0
C599 C 0.28923 0.43899 0.93417 0.0
C600 C 0.27086 0.45443 0.84681 0.0
C601 C 0.26524 0.42716 0.94649 0.0
C602 C 0.24455 0.42809 0.90866 0.0
C603 C 0.22752 0.44042 0.81797 0.0
C604 C 0.23068 0.45318 0.76696 0.0
C605 C 0.2474 0.44109 0.85807 0.0
C606 C 0.25362 0.4674 0.75741 0.0
C607 C 0.27359 0.4679 0.7968 0.0
H608 H 0.4109 0.80086 0.20081 0.0
H609 H 0.45055 0.75282 0.32089 0.0
H610 H 0.45442 0.71759 0.25339 0.0
H611 H 0.44452 0.69973 0.16201 0.0
H612 H 0.40557 0.748 0.04132 0.0
H613 H 0.40378 0.78408 0.10725 0.0
C614 C 0.42042 0.78268 0.21223 0.0
C615 C 0.43015 0.77932 0.26603 0.0
C616 C 0.42277 0.76264 0.1731 0.0
C617 C 0.44283 0.75586 0.27986 0.0
C618 C 0.44501 0.73571 0.2413 0.0
C619 C 0.4358 0.71821 0.14993 0.0
C620 C 0.42498 0.7211 0.09696 0.0
C621 C 0.43478 0.73879 0.18805 0.0
C622 C 0.41407 0.74527 0.08177 0.0
C623 C 0.4129 0.76585 0.11957 0.0
H624 H 0.72517 0.53561 0.93338 0.0
H625 H 0.74643 0.61314 0.98783 0.0
H626 H 0.77583 0.6177 0.90992 0.0
H627 H 0.79449 0.60033 0.82548 0.0
H628 H 0.7736 0.52302 0.76967 0.0
H629 H 0.74491 0.51776 0.84903 0.0
C630 C 0.73652 0.55336 0.92864 0.0
C631 C 0.73357 0.57402 0.96643 0.0
C632 C 0.75316 0.55602 0.88319 0.0
C633 C 0.74823 0.59698 0.9593 0.0
C634 C 0.765 0.59964 0.91466 0.0
C635 C 0.78353 0.5824 0.83015 0.0
C636 C 0.78602 0.56225 0.79113 0.0
C637 C 0.76732 0.57945 0.87599 0.0
C638 C 0.77194 0.53895 0.79877 0.0
C639 C 0.7556 0.53589 0.84428 0.0
H640 H 0.64091 0.22385 0.21111 0.0
H641 H 0.56467 0.23004 0.28348 0.0
H642 H 0.55059 0.25925 0.2088 0.0
H643 H 0.56097 0.28451 0.12525 0.0
H644 H 0.63636 0.27526 0.04951 0.0
H645 H 0.64967 0.24524 0.12247 0.0
C646 C 0.62125 0.23172 0.21038 0.0
C647 C 0.60395 0.2255 0.25292 0.0
C648 C 0.61314 0.24764 0.16654 0.0
C649 C 0.5783 0.235 0.25121 0.0
C650 C 0.57029 0.25157 0.20857 0.0
C651 C 0.58017 0.27562 0.12437 0.0
C652 C 0.59773 0.28228 0.08236 0.0
C653 C 0.58764 0.2582 0.16627 0.0
C654 C 0.62245 0.27042 0.08131 0.0
C655 C 0.63017 0.25342 0.12328 0.0
H656 H 0.34583 0.3154 0.14173 0.0
H657 H 0.31246 0.28626 0.99075 0.0
H658 H 0.31558 0.24138 0.02569 0.0
H659 H 0.32646 0.21056 0.10125 0.0
H660 H 0.35938 0.24079 0.25171 0.0
H661 H 0.35816 0.28507 0.21459 0.0
C662 C 0.33967 0.29927 0.11591 0.0
C663 C 0.32905 0.30424 0.06351 0.0
C664 C 0.34138 0.27367 0.13635 0.0
C665 C 0.32054 0.28301 0.03137 0.0
C666 C 0.32241 0.25734 0.05127 0.0
C667 C 0.33364 0.22685 0.12546 0.0
C668 C 0.34282 0.22243 0.1793 0.0
C669 C 0.33261 0.25244 0.10396 0.0
C670 C 0.35185 0.24373 0.21052 0.0
C671 C 0.35125 0.26905 0.18925 0.0
H672 H 0.23321 0.67424 0.79062 0.0
H673 H 0.19157 0.68646 0.94227 0.0
H674 H 0.23258 0.68599 0.99333 0.0
H675 H 0.28044 0.68327 0.99457 0.0
H676 H 0.32177 0.6739 0.8415 0.0
H677 H 0.28072 0.67212 0.7916 0.0
C678 C 0.23303 0.67705 0.83474 0.0
C679 C 0.20924 0.68045 0.86232 0.0
C680 C 0.2567 0.67723 0.86376 0.0
C681 C 0.20948 0.68348 0.91983 0.0
C682 C 0.23299 0.68341 0.94912 0.0
C683 C 0.28051 0.68101 0.9503 0.0
C684 C 0.30432 0.6786 0.92216 0.0
C685 C 0.25674 0.68048 0.92144 0.0
C686 C 0.3039 0.67531 0.86469 0.0
C687 C 0.28036 0.67451 0.83587 0.0
H688 H 0.68309 0.80467 0.10962 0.0
H689 H 0.67287 0.77632 0.27537 0.0
H690 H 0.67429 0.73135 0.24232 0.0
H691 H 0.67874 0.69997 0.16641 0.0
H692 H 0.68699 0.72859 1.00042 0.0
H693 H 0.68577 0.77351 0.03363 0.0
C694 C 0.68081 0.78876 0.1386 0.0
C695 C 0.67787 0.79411 0.19504 0.0
C696 C 0.68131 0.76289 0.11927 0.0
C697 C 0.67551 0.77299 0.23185 0.0
C698 C 0.67614 0.74718 0.21292 0.0
C699 C 0.67993 0.71599 0.13736 0.0
C700 C 0.68307 0.71076 0.08092 0.0
C701 C 0.67904 0.74189 0.15671 0.0
C702 C 0.68499 0.73191 0.04411 0.0
C703 C 0.68415 0.75767 0.06305 0.0
H704 H 0.78883 0.34196 0.81028 0.0
H705 H 0.8255 0.34461 0.97045 0.0
H706 H 0.78291 0.34646 1.01375 0.0
H707 H 0.73537 0.34597 1.00684 0.0
H708 H 0.69847 0.34017 0.84737 0.0
H709 H 0.74107 0.34109 0.80344 0.0
C710 C 0.78767 0.34271 0.85467 0.0
C711 C 0.81069 0.34306 0.88671 0.0
C712 C 0.76297 0.34326 0.87964 0.0
C713 C 0.80841 0.3446 0.94429 0.0
C714 C 0.78394 0.3455 0.9693 0.0
C715 C 0.73647 0.34464 0.96251 0.0
C716 C 0.71343 0.34281 0.93081 0.0
C717 C 0.7611 0.34461 0.93743 0.0
C718 C 0.71561 0.34181 0.87316 0.0
C719 C 0.74008 0.34215 0.84788 0.0
H720 H 0.84234 0.7785 0.54778 0.0
H721 H 0.83085 0.81622 0.70451 0.0
H722 H 0.82986 0.77362 0.74987 0.0
H723 H 0.83108 0.72544 0.74453 0.0
H724 H 0.83994 0.6884 0.58615 0.0
H725 H 0.84293 0.73093 0.54217 0.0
C726 C 0.83936 0.77753 0.59178 0.0
C727 C 0.83655 0.80069 0.62241 0.0
C728 C 0.83831 0.75299 0.61746 0.0
C729 C 0.83335 0.79885 0.67973 0.0
C730 C 0.83257 0.77443 0.70574 0.0
C731 C 0.83348 0.72664 0.70039 0.0
C732 C 0.83544 0.70357 0.66899 0.0
C733 C 0.83482 0.75133 0.67493 0.0
C734 C 0.83886 0.70565 0.61176 0.0
C735 C 0.8404 0.73005 0.58635 0.0
H736 H 0.80965 0.15961 0.39382 0.0
H737 H 0.78454 0.21097 0.52442 0.0
H738 H 0.73997 0.20855 0.49097 0.0
H739 H 0.70768 0.19197 0.42463 0.0
H740 H 0.73286 0.14255 0.2916 0.0
H741 H 0.7778 0.14457 0.32535 0.0
C742 C 0.79463 0.17055 0.41484 0.0
C743 C 0.80081 0.18521 0.46224 0.0
C744 C 0.76887 0.1695 0.39479 0.0
C745 C 0.78064 0.19903 0.48868 0.0
C746 C 0.755 0.19783 0.46934 0.0
C747 C 0.72303 0.18155 0.40331 0.0
C748 C 0.71697 0.16706 0.35587 0.0
C749 C 0.74885 0.18302 0.42265 0.0
C750 C 0.73709 0.154 0.32799 0.0
C751 C 0.76276 0.15506 0.34741 0.0
H752 H 0.18297 0.29343 0.73651 0.0
H753 H 0.1832 0.32959 0.57607 0.0
H754 H 0.18507 0.28678 0.53272 0.0
H755 H 0.18644 0.23918 0.53994 0.0
H756 H 0.18813 0.2026 0.69984 0.0
H757 H 0.18568 0.24547 0.74373 0.0
C758 C 0.18367 0.29197 0.69211 0.0
C759 C 0.18274 0.3148 0.65976 0.0
C760 C 0.18502 0.2672 0.66726 0.0
C761 C 0.18336 0.31244 0.60214 0.0
C762 C 0.18463 0.28793 0.5772 0.0
C763 C 0.18661 0.24051 0.58437 0.0
C764 C 0.18748 0.2176 0.61639 0.0
C765 C 0.18544 0.26519 0.60933 0.0
C766 C 0.18714 0.21982 0.67405 0.0
C767 C 0.18589 0.24437 0.69923 0.0
H768 H 0.27381 0.83408 0.29284 0.0
H769 H 0.31021 0.84869 0.45036 0.0
H770 H 0.26755 0.85209 0.49298 0.0
H771 H 0.21975 0.85128 0.48556 0.0
H772 H 0.18394 0.83353 0.32894 0.0
H773 H 0.22658 0.83081 0.28638 0.0
C774 C 0.27261 0.83767 0.33659 0.0
C775 C 0.29546 0.84123 0.36789 0.0
C776 C 0.24801 0.83913 0.36122 0.0
C777 C 0.29315 0.84629 0.42461 0.0
C778 C 0.26867 0.84807 0.4493 0.0
C779 C 0.22123 0.84655 0.44229 0.0
C780 C 0.1985 0.84301 0.41057 0.0
C781 C 0.24595 0.84457 0.41798 0.0
C782 C 0.20094 0.83704 0.35432 0.0
C783 C 0.22539 0.83527 0.32987 0.0
H784 H 0.30265 0.14314 0.94481 0.0
H785 H 0.25392 0.08713 0.02829 0.0
H786 H 0.22654 0.083 0.94648 0.0
H787 H 0.21689 0.09439 0.85006 0.0
H788 H 0.26568 0.15037 0.76666 0.0
H789 H 0.29263 0.155 0.84891 0.0
C790 C 0.28616 0.12989 0.94504 0.0
C791 C 0.28043 0.11554 0.99295 0.0
C792 C 0.27048 0.12746 0.89757 0.0
C793 C 0.25867 0.09874 0.99246 0.0
C794 C 0.24304 0.09622 0.94548 0.0
C795 C 0.23326 0.10779 0.85002 0.0
C796 C 0.23928 0.12181 0.80183 0.0
C797 C 0.24875 0.11045 0.89772 0.0
C798 C 0.26079 0.13892 0.80263 0.0
C799 C 0.27618 0.14172 0.84985 0.0
H800 H 0.13253 0.80306 0.18331 0.0
H801 H 0.0503 0.78967 0.20788 0.0
H802 H 0.04874 0.76213 0.12633 0.0
H803 H 0.07066 0.74122 0.04834 0.0
H804 H 0.15229 0.75582 0.02061 0.0
H805 H 0.15409 0.78367 0.10245 0.0
C806 C 0.1142 0.7944 0.17042 0.0
C807 C 0.09167 0.7982 0.20233 0.0
C808 C 0.11333 0.77869 0.12291 0.0
C809 C 0.06812 0.78665 0.18502 0.0
C810 C 0.06714 0.77096 0.13813 0.0
C811 C 0.08886 0.7504 0.06049 0.0
C812 C 0.11134 0.74636 0.02882 0.0
C813 C 0.08965 0.76661 0.10709 0.0
C814 C 0.13471 0.75872 0.04436 0.0
C815 C 0.13575 0.7746 0.09115 0.0
H816 H 0.7529 0.88844 1.00211 0.0
H817 H 0.6795 0.90222 0.92003 0.0
H818 H 0.70161 0.9032 0.83102 0.0
H819 H 0.74212 0.90236 0.77745 0.0
H820 H 0.81526 0.88655 0.85981 0.0
H821 H 0.79297 0.88473 0.94791 0.0
C822 C 0.74178 0.89162 0.96465 0.0
C823 C 0.71467 0.89541 0.96752 0.0
C824 C 0.75459 0.89209 0.91382 0.0
C825 C 0.70038 0.89912 0.91874 0.0
C826 C 0.71303 0.89983 0.86795 0.0
C827 C 0.75319 0.89809 0.81444 0.0
C828 C 0.78046 0.89491 0.81172 0.0
C829 C 0.74018 0.89658 0.86507 0.0
C830 C 0.79439 0.88973 0.86052 0.0
C831 C 0.78163 0.88846 0.91101 0.0
H832 H 0.88357 0.26068 0.27049 0.0
H833 H 0.92815 0.1947 0.21198 0.0
H834 H 0.93183 0.21513 0.12186 0.0
H835 H 0.92382 0.25248 0.05983 0.0
H836 H 0.88098 0.31922 0.11954 0.0
H837 H 0.87573 0.29801 0.20884 0.0
C838 C 0.89433 0.25081 0.23833 0.0
C839 C 0.90546 0.22602 0.24857 0.0
C840 C 0.89685 0.26291 0.18654 0.0
C841 C 0.91891 0.21351 0.20553 0.0
C842 C 0.92124 0.22529 0.15385 0.0
C843 C 0.91314 0.26227 0.09226 0.0
C844 C 0.90289 0.28746 0.08292 0.0
C845 C 0.91039 0.25004 0.14388 0.0
C846 C 0.88935 0.29997 0.1257 0.0
C847 C 0.88625 0.28781 0.17679 0.0
H848 H 0.26015 0.39949 0.47923 0.0
H849 H 0.18906 0.42995 0.40781 0.0
H850 H 0.20913 0.43014 0.31745 0.0
H851 H 0.24674 0.42155 0.25765 0.0
H852 H 0.31905 0.39509 0.33057 0.0
H853 H 0.29859 0.39364 0.42046 0.0
C854 C 0.24902 0.40653 0.44427 0.0
C855 C 0.22281 0.41438 0.45121 0.0
C856 C 0.26091 0.40725 0.392 0.0
C857 C 0.20894 0.42307 0.4044 0.0
C858 C 0.22052 0.42345 0.35237 0.0
C859 C 0.25824 0.41577 0.29311 0.0
C860 C 0.28449 0.4081 0.28625 0.0
C861 C 0.24649 0.41554 0.34555 0.0
C862 C 0.29869 0.40042 0.33342 0.0
C863 C 0.28703 0.39981 0.38536 0.0
H864 H 0.38378 0.81349 0.61612 0.0
H865 H 0.41728 0.75226 0.51641 0.0
H866 H 0.42201 0.72458 0.59712 0.0
H867 H 0.41694 0.71743 0.69615 0.0
H868 H 0.38516 0.7788 0.79731 0.0
H869 H 0.3802 0.80688 0.71636 0.0
C870 C 0.39236 0.79422 0.61197 0.0
C871 C 0.39979 0.78502 0.55963 0.0
C872 C 0.39553 0.77838 0.65904 0.0
C873 C 0.41069 0.75979 0.55557 0.0
C874 C 0.41366 0.74393 0.60193 0.0
C875 C 0.4088 0.73691 0.70046 0.0
C876 C 0.40132 0.74592 0.75273 0.0
C877 C 0.40606 0.75295 0.6538 0.0
C878 C 0.39126 0.77142 0.75766 0.0
C879 C 0.38829 0.78744 0.7113 0.0
H880 H 0.76761 0.60549 0.26956 0.0
H881 H 0.69205 0.61076 0.34696 0.0
H882 H 0.7128 0.61181 0.43685 0.0
H883 H 0.75215 0.61058 0.49409 0.0
H884 H 0.82709 0.59878 0.41718 0.0
H885 H 0.80664 0.60094 0.32704 0.0
C886 C 0.75547 0.60643 0.30585 0.0
C887 C 0.72811 0.60824 0.30049 0.0
C888 C 0.76745 0.60595 0.358 0.0
C889 C 0.71311 0.61004 0.3488 0.0
C890 C 0.72497 0.61034 0.40066 0.0
C891 C 0.76413 0.608 0.45793 0.0
C892 C 0.79135 0.60469 0.46339 0.0
C893 C 0.75212 0.60819 0.4058 0.0
C894 C 0.80627 0.60204 0.41514 0.0
C895 C 0.79452 0.60298 0.36319 0.0
H896 H 0.60923 0.24582 0.76782 0.0
H897 H 0.6249 0.31911 0.68614 0.0
H898 H 0.62576 0.2968 0.59753 0.0
H899 H 0.62226 0.25636 0.54275 0.0
H900 H 0.60767 0.18305 0.62495 0.0
H901 H 0.60689 0.20538 0.71361 0.0
C902 C 0.61319 0.25693 0.73083 0.0
C903 C 0.61689 0.28423 0.73408 0.0
C904 C 0.61399 0.24392 0.67986 0.0
C905 C 0.62153 0.29821 0.68518 0.0
C906 C 0.62221 0.28542 0.63435 0.0
C907 C 0.61881 0.24529 0.58006 0.0
C908 C 0.61509 0.21802 0.57702 0.0
C909 C 0.61837 0.25829 0.63112 0.0
C910 C 0.61094 0.20397 0.62596 0.0
C911 C 0.61033 0.21676 0.67675 0.0
H912 H 0.39475 0.99706 0.17955 0.0
H913 H 0.35061 0.0243 0.31847 0.0
H914 H 0.35661 0.98186 0.36413 0.0
H915 H 0.3722 0.93555 0.36112 0.0
H916 H 0.41485 0.9095 0.21849 0.0
H917 H 0.41139 0.95265 0.17777 0.0
C918 C 0.38634 0.99373 0.21974 0.0
C919 C 0.37201 0.01372 0.24519 0.0
C920 C 0.38946 0.9693 0.24503 0.0
C921 C 0.36184 0.00927 0.29801 0.0
C922 C 0.36511 0.98493 0.32394 0.0
C923 C 0.38084 0.93947 0.32137 0.0
C924 C 0.3935 0.91918 0.29272 0.0
C925 C 0.37856 0.96457 0.29742 0.0
C926 C 0.40467 0.92457 0.24124 0.0
C927 C 0.4028 0.94932 0.21781 0.0
H928 H 0.93446 0.61374 0.67338 0.0
H929 H 0.89618 0.62292 0.82988 0.0
H930 H 0.93605 0.64017 0.87028 0.0
H931 H 0.98142 0.65426 0.86085 0.0
H932 H 0.02118 0.64329 0.70723 0.0
H933 H 0.98144 0.6249 0.66604 0.0
C934 C 0.93499 0.61943 0.71631 0.0
C935 C 0.9124 0.61719 0.74847 0.0
C936 C 0.95826 0.62898 0.73983 0.0
C937 C 0.91333 0.62437 0.80424 0.0
C938 C 0.93611 0.63432 0.82745 0.0
C939 C 0.98129 0.64767 0.81848 0.0
C940 C 1.00393 0.65016 0.78694 0.0
C941 C 0.95859 0.63692 0.79558 0.0
C942 C 1.00388 0.64133 0.73225 0.0
C943 C 0.98116 0.63101 0.70869 0.0
H944 H 0.63853 0.99378 0.29135 0.0
H945 H 0.63743 0.02125 0.12348 0.0
H946 H 0.62904 0.06558 0.15473 0.0
H947 H 0.62114 0.0965 0.22875 0.0
H948 H 0.62365 0.07065 0.39747 0.0
H949 H 0.6326 0.02577 0.36695 0.0
C950 C 0.63677 0.00951 0.26171 0.0
C951 C 0.63826 1.00401 0.205 0.0
C952 C 0.63207 0.03523 0.28006 0.0
C953 C 0.63579 0.02471 0.1672 0.0
C954 C 0.63112 0.05015 0.18503 0.0
C955 C 0.62353 0.08105 0.25898 0.0
C956 C 0.62145 0.0868 0.31525 0.0
C957 C 0.62893 0.05557 0.24121 0.0
C958 C 0.62505 0.06666 0.35386 0.0
C959 C 0.63017 0.04103 0.3364 0.0
H960 H 0.10683 0.40694 0.81135 0.0
H961 H 0.0798 0.39687 0.64456 0.0
H962 H 0.03672 0.38391 0.6784 0.0
H963 H 0.00732 0.37326 0.75637 0.0
H964 H 0.03607 0.3808 0.92214 0.0
H965 H 0.07779 0.39719 0.88802 0.0
C966 C 0.09149 0.40211 0.78226 0.0
C967 C 0.09655 0.40289 0.72546 0.0
C968 C 0.06703 0.39424 0.80202 0.0
C969 C 0.07645 0.39637 0.68848 0.0
C970 C 0.05181 0.38898 0.70784 0.0
C971 C 0.02265 0.37894 0.78475 0.0
C972 C 0.0187 0.37607 0.84169 0.0
C973 C 0.04692 0.3876 0.7646 0.0
C974 C 0.03879 0.38294 0.87825 0.0
C975 C 0.0626 0.39222 0.85872 0.0
H976 H 0.39132 0.60578 0.06707 0.0
H977 H 0.39533 0.58783 0.89413 0.0
H978 H 0.3839 0.5421 0.91359 0.0
H979 H 0.37384 0.50698 0.98108 0.0
H980 H 0.36856 0.52685 0.15314 0.0
H981 H 0.37939 0.57203 0.13261 0.0
C982 C 0.3898 0.59189 0.0335 0.0
C983 C 0.39444 0.60011 0.97931 0.0
C984 C 0.38296 0.56593 0.04491 0.0
C985 C 0.39198 0.58193 0.93629 0.0
C986 C 0.38542 0.55581 0.94742 0.0
C987 C 0.37477 0.52128 1.01389 0.0
C988 C 0.37076 0.51334 0.06875 0.0
C989 C 0.38093 0.54754 1.00172 0.0
C990 C 0.37214 0.53218 0.11079 0.0
C991 C 0.37821 0.55811 0.09908 0.0
H992 H 0.58991 0.63595 0.09365 0.0
H993 H 0.61243 0.60012 0.94027 0.0
H994 H 0.56957 0.60914 0.90162 0.0
H995 H 0.52623 0.62797 0.9099 0.0
H996 H 0.50313 0.66532 0.06096 0.0
H997 H 0.5454 0.6545 0.10228 0.0
C998 C 0.58533 0.63003 0.05191 0.0
C999 C 0.60441 0.61752 0.01984 0.0
C1000 C 0.56054 0.6355 0.02948 0.0
C1001 C 0.59821 0.60996 0.96578 0.0
C1002 C 0.57367 0.61507 0.94356 0.0
C1003 C 0.53044 0.63399 0.95169 0.0
C1004 C 0.51157 0.64767 0.98199 0.0
C1005 C 0.5548 0.62805 0.97478 0.0
C1006 C 0.51721 0.65464 0.03672 0.0
C1007 C 0.54146 0.64859 0.06027 0.0
H1008 H 0.61903 0.48871 0.11967 0.0
H1009 H 0.65384 0.51355 0.96726 0.0
H1010 H 0.64305 0.47151 0.92534 0.0
H1011 H 0.62691 0.42616 0.93449 0.0
H1012 H 0.59411 0.4012 0.08894 0.0
H1013 H 0.60108 0.44462 0.1275 0.0
C1014 C 0.62429 0.48496 0.07731 0.0
C1015 C 0.63742 0.50425 0.04695 0.0
C1016 C 0.61852 0.46056 0.05384 0.0
C1017 C 0.64354 0.4992 0.9916 0.0
C1018 C 0.63756 0.47504 0.96767 0.0
C1019 C 0.621 0.43038 0.97632 0.0
C1020 C 0.61018 0.41045 1.0089 0.0
C1021 C 0.62547 0.45538 0.99871 0.0
C1022 C 0.60269 0.41613 0.06312 0.0
C1023 C 0.60666 0.44097 0.08526 0.0
H1024 H 0.42972 0.39354 0.09056 0.0
H1025 H 0.39476 0.38171 0.93085 0.0
H1026 H 0.43613 0.36599 0.89489 0.0
H1027 H 0.48225 0.35518 0.90835 0.0
H1028 H 0.51872 0.36906 0.06533 0.0
H1029 H 0.47714 0.38468 0.10266 0.0
C1030 C 0.43126 0.38746 0.04799 0.0
C1031 C 0.40918 0.38867 1.01351 0.0
C1032 C 0.45545 0.37896 0.02697 0.0
C1033 C 0.41148 0.38105 0.95822 0.0
C1034 C 0.43513 0.37202 0.93755 0.0
C1035 C 0.48103 0.36166 0.9507 0.0
C1036 C 0.50341 0.36088 0.98409 0.0
C1037 C 0.45722 0.37086 0.97147 0.0
C1038 C 0.50175 0.36968 0.03872 0.0
C1039 C 0.47795 0.37844 0.06013 0.0
H1040 H 0.92314 0.4135 0.74306 0.0
H1041 H 0.88645 0.42805 0.89923 0.0
H1042 H 0.87326 0.47171 0.86802 0.0
H1043 H 0.86916 0.50428 0.79298 0.0
H1044 H 0.90671 0.48906 0.63786 0.0
H1045 H 0.92249 0.44719 0.67195 0.0
C1046 C 0.91244 0.4263 0.77047 0.0
C1047 C 0.90556 0.41751 0.82311 0.0
C1048 C 0.90488 0.4512 0.75222 0.0
C1049 C 0.89197 0.43441 0.85843 0.0
C1050 C 0.88433 0.45932 0.84051 0.0
C1051 C 0.88116 0.49198 0.76707 0.0
C1052 C 0.88631 0.49963 0.71257 0.0
C1053 C 0.89026 0.46775 0.78704 0.0
C1054 C 0.90187 0.4834 0.67944 0.0
C1055 C 0.91104 0.45947 0.69899 0.0
H1056 H 0.51501 0.13755 0.26157 0.0
H1057 H 0.4877 0.14972 0.42726 0.0
H1058 H 0.4429 0.14431 0.39676 0.0
H1059 H 0.41145 0.13462 0.32476 0.0
H1060 H 0.43692 0.12358 0.15773 0.0
H1061 H 0.4824 0.13039 0.18679 0.0
C1062 C 0.49924 0.13933 0.29079 0.0
C1063 C 0.5049 0.14359 0.34696 0.0
C1064 C 0.47318 0.13631 0.27281 0.0
C1065 C 0.48411 0.1458 0.38418 0.0
C1066 C 0.45839 0.14286 0.36673 0.0
C1067 C 0.4269 0.13368 0.29452 0.0
C1068 C 0.42084 0.1283 0.23926 0.0
C1069 C 0.45274 0.13773 0.31144 0.0
C1070 C 0.4411 0.12761 0.20057 0.0
C1071 C 0.46708 0.13146 0.21725 0.0
H1072 H 0.13156 0.51285 0.77092 0.0
H1073 H 0.14827 0.54008 0.60686 0.0
H1074 H 0.13878 0.58477 0.63394 0.0
H1075 H 0.12461 0.61602 0.70237 0.0
H1076 H 0.10918 0.59091 0.86826 0.0
H1077 H 0.11935 0.54553 0.84257 0.0
C1078 C 0.13339 0.52866 0.74148 0.0
C1079 C 0.14017 0.52305 0.68665 0.0
C1080 C 0.12794 0.55462 0.75749 0.0
C1081 C 0.14247 0.54374 0.64889 0.0
C1082 C 0.13716 0.56935 0.66437 0.0
C1083 C 0.12333 0.60064 0.733 0.0
C1084 C 0.11583 0.60672 0.78691 0.0
C1085 C 0.12951 0.57495 0.71819 0.0
C1086 C 0.11477 0.58664 0.82632 0.0
C1087 C 0.12061 0.56074 0.81164 0.0
H1088 H 0.57511 0.88184 0.18118 0.0
H1089 H 0.61323 0.88454 0.33978 0.0
H1090 H 0.5723 0.87499 0.3852 0.0
H1091 H 0.5257 0.86755 0.38092 0.0
H1092 H 0.48594 0.86686 0.22442 0.0
H1093 H 0.52748 0.87327 0.17709 0.0
C1094 C 0.57437 0.88017 0.22559 0.0
C1095 C 0.59707 0.88412 0.25706 0.0
C1096 C 0.55053 0.87497 0.25186 0.0
C1097 C 0.59595 0.88191 0.3146 0.0
C1098 C 0.57257 0.87636 0.34072 0.0
C1099 C 0.52604 0.86899 0.33648 0.0
C1100 C 0.50274 0.86705 0.30642 0.0
C1101 C 0.54974 0.87323 0.30987 0.0
C1102 C 0.50363 0.86818 0.24865 0.0
C1103 C 0.52736 0.87203 0.22157 0.0
H1104 H 0.89341 0.08288 0.45537 0.0
H1105 H 0.88197 0.11936 0.61341 0.0
H1106 H 0.86757 0.0779 0.65204 0.0
H1107 H 0.85697 0.0315 0.64075 0.0
H1108 H 0.87003 0.99379 0.48512 0.0
H1109 H 0.8854 0.0352 0.44583 0.0
C1110 C 0.88779 0.08164 0.49822 0.0
C1111 C 0.8886 0.10416 0.53138 0.0
C1112 C 0.87994 0.05749 0.52066 0.0
C1113 C 0.88157 0.10229 0.58703 0.0
C1114 C 0.87328 0.0786 0.60921 0.0
C1115 C 0.86332 0.03242 0.59833 0.0
C1116 C 0.86231 0.00981 0.56577 0.0
C1117 C 0.87224 0.05614 0.57639 0.0
C1118 C 0.87087 0.01099 0.51102 0.0
C1119 C 0.87945 0.03468 0.48851 0.0
H1120 H 0.08666 0.12848 0.61888 0.0
H1121 H 0.11908 0.13629 0.45607 0.0
H1122 H 0.07635 0.14634 0.41879 0.0
H1123 H 0.02977 0.15132 0.43048 0.0
H1124 H 0.99531 0.14242 0.59056 0.0
H1125 H 0.03868 0.13498 0.63093 0.0
C1126 C 0.0843 0.13257 0.5754 0.0
C1127 C 0.10608 0.13139 0.54033 0.0
C1128 C 0.05929 0.13814 0.55361 0.0
C1129 C 0.1027 0.13674 0.48403 0.0
C1130 C 0.07823 0.14257 0.4625 0.0
C1131 C 0.03163 0.14754 0.47416 0.0
C1132 C 0.00926 0.14702 0.5072 0.0
C1133 C 0.05639 0.14295 0.49665 0.0
C1134 C 0.01221 0.14294 0.56411 0.0
C1135 C 0.03701 0.13854 0.58713 0.0
H1136 H 0.13385 0.93954 0.41438 0.0
H1137 H 0.07566 0.92321 0.5373 0.0
H1138 H 0.08483 0.9646 0.5825 0.0
H1139 H 0.1113 1.00383 0.59157 0.0
H1140 H 0.17059 0.02083 0.472 0.0
H1141 H 0.15897 0.98116 0.42068 0.0
C1142 C 0.12295 0.94536 0.45047 0.0
C1143 C 0.10426 0.92829 0.47272 0.0
C1144 C 0.12868 0.96918 0.47718 0.0
C1145 C 0.09034 0.93591 0.51972 0.0
C1146 C 0.09556 0.95957 0.54569 0.0
C1147 C 0.12173 0.99882 0.55436 0.0
C1148 C 0.14198 0.015 0.53603 0.0
C1149 C 0.1151 0.97603 0.52562 0.0
C1150 C 0.15488 0.00865 0.48689 0.0
C1151 C 0.14831 0.98592 0.45771 0.0
H1152 H 1.00156 0.88475 0.52019 0.0
H1153 H 0.97101 0.87477 0.3559 0.0
H1154 H 0.92707 0.88301 0.3887 0.0
H1155 H 0.89743 0.8937 0.46285 0.0
H1156 H 0.92644 0.90229 0.62856 0.0
H1157 H 0.97097 0.89381 0.59649 0.0
C1158 C 0.98523 0.88406 0.49181 0.0
C1159 C 0.98962 0.87945 0.43553 0.0
C1160 C 0.95983 0.88873 0.51108 0.0
C1161 C 0.96826 0.8788 0.39916 0.0
C1162 C 0.94309 0.8834 0.4179 0.0
C1163 C 0.91348 0.89387 0.49205 0.0
C1164 C 0.90876 0.89888 0.54784 0.0
C1165 C 0.93872 0.88866 0.47354 0.0
C1166 C 0.92968 0.89861 0.58527 0.0
C1167 C 0.95509 0.89372 0.56697 0.0
loop_
_geom_bond_atom_site_label_1
_geom_bond_atom_site_label_2
_geom_bond_distance
_geom_bond_site_symmetry_2
_ccdc_geom_bond_type
Co0 N4 2.148 . S
Co0 N10 2.128 . S
Co0 N20 2.194 . S
Co0 O25 2.351 . S
Co0 O26 2.155 . S
Co0 O27 2.096 . S
C1 N4 1.301 . S
C1 N5 1.328 . S
C1 H6 0.930 . S
C2 C3 1.333 . S
C2 N4 1.317 . S
C2 H7 0.930 . S
C3 C2 1.333 . S
C3 N5 1.350 . S
C3 H29 0.931 . S
N4 Co0 2.148 . S
N4 C1 1.301 . S
N4 C2 1.317 . S
N5 C1 1.328 . S
N5 C3 1.350 . S
H6 C1 0.930 . S
H7 C2 0.930 . S
C8 O9 1.224 . S
C8 O27 1.247 . S
O9 C8 1.224 . S
N10 Co0 2.128 . S
N10 C11 1.355 . S
N10 C13 1.311 . S
C11 N10 1.355 . S
C11 C12 1.363 . S
C11 H23 0.929 . S
C12 C11 1.363 . S
C12 N14 1.375 . S
C12 H30 0.931 . S
C13 N10 1.311 . S
C13 N14 1.347 . S
C13 H24 0.929 . S
N14 C12 1.375 . S
N14 C13 1.347 . S
C15 C18 1.365 . S
C15 N20 1.328 . S
C15 H21 0.929 . S
C16 C17 1.362 . S
C16 C19 1.378 . S
C16 H31 0.929 . S
C17 C16 1.362 . S
C17 C18 1.366 . S
C18 C15 1.365 . S
C18 C17 1.366 . S
C18 H32 0.930 1_554 S
C19 C16 1.378 . S
C19 N20 1.315 . S
C19 H22 0.930 . S
N20 Co0 2.194 . S
N20 C15 1.328 . S
N20 C19 1.315 . S
H21 C15 0.929 . S
H22 C19 0.930 . S
H23 C11 0.929 . S
H24 C13 0.929 . S
O25 Co0 2.351 . S
O25 C28 1.244 . S
O26 Co0 2.155 . S
O26 C28 1.240 . S
O27 Co0 2.096 . S
O27 C8 1.247 . S
C28 O25 1.244 . S
C28 O26 1.240 . S
H29 C3 0.931 . S
H30 C12 0.931 . S
H31 C16 0.929 . S
H32 C18 0.930 1_556 S
Co33 N37 2.148 . S
Co33 N43 2.128 . S
Co33 N53 2.194 . S
Co33 O58 2.351 . S
Co33 O59 2.155 . S
Co33 O60 2.096 . S
C34 N37 1.301 . S
C34 N38 1.328 . S
C34 H39 0.930 . S
C35 C36 1.333 . S
C35 N37 1.317 . S
C35 H40 0.930 . S
C36 C35 1.333 . S
C36 N38 1.350 . S
C36 H62 0.931 . S
N37 Co33 2.148 . S
N37 C34 1.301 . S
N37 C35 1.317 . S
N38 C34 1.328 . S
N38 C36 1.350 . S
H39 C34 0.930 . S
H40 C35 0.930 . S
C41 O42 1.224 . S
C41 O60 1.247 . S
O42 C41 1.224 . S
N43 Co33 2.128 . S
N43 C44 1.355 . S
N43 C46 1.311 . S
C44 N43 1.355 . S
C44 C45 1.363 . S
C44 H56 0.929 . S
C45 C44 1.363 . S
C45 N47 1.375 . S
C45 H63 0.931 . S
C46 N43 1.311 . S
C46 N47 1.347 . S
C46 H57 0.929 . S
N47 C45 1.375 . S
N47 C46 1.347 . S
C48 C51 1.365 . S
C48 N53 1.328 . S
C48 H54 0.929 . S
C49 C50 1.362 . S
C49 C52 1.378 . S
C49 H64 0.929 . S
C50 C49 1.362 . S
C50 C51 1.366 . S
C51 C48 1.365 . S
C51 C50 1.366 . S
C51 H65 0.930 1_556 S
C52 C49 1.378 . S
C52 N53 1.315 . S
C52 H55 0.930 . S
N53 Co33 2.194 . S
N53 C48 1.328 . S
N53 C52 1.315 . S
H54 C48 0.929 . S
H55 C52 0.930 . S
H56 C44 0.929 . S
H57 C46 0.929 . S
O58 Co33 2.351 . S
O58 C61 1.244 . S
O59 Co33 2.155 . S
O59 C61 1.240 . S
O60 Co33 2.096 . S
O60 C41 1.247 . S
C61 O58 1.244 . S
C61 O59 1.240 . S
H62 C36 0.931 . S
H63 C45 0.931 . S
H64 C49 0.929 . S
H65 C51 0.930 1_554 S
Co66 N70 2.148 . S
Co66 N76 2.128 . S
Co66 N86 2.194 . S
Co66 O91 2.351 . S
Co66 O92 2.155 . S
Co66 O93 2.096 . S
C67 N70 1.301 . S
C67 N71 1.328 . S
C67 H72 0.930 . S
C68 C69 1.333 . S
C68 N70 1.317 . S
C68 H73 0.930 . S
C69 C68 1.333 . S
C69 N71 1.350 . S
C69 H95 0.931 . S
N70 Co66 2.148 . S
N70 C67 1.301 . S
N70 C68 1.317 . S
N71 C67 1.328 . S
N71 C69 1.350 . S
H72 C67 0.930 . S
H73 C68 0.930 . S
C74 O75 1.224 . S
C74 O93 1.247 . S
O75 C74 1.224 . S
N76 Co66 2.128 . S
N76 C77 1.355 . S
N76 C79 1.311 . S
C77 N76 1.355 . S
C77 C78 1.363 . S
C77 H89 0.929 . S
C78 C77 1.363 . S
C78 N80 1.375 . S
C78 H96 0.931 . S
C79 N76 1.311 . S
C79 N80 1.347 . S
C79 H90 0.929 . S
N80 C78 1.375 . S
N80 C79 1.347 . S
C81 C84 1.365 . S
C81 N86 1.328 . S
C81 H87 0.929 . S
C82 C83 1.362 . S
C82 C85 1.378 . S
C82 H97 0.929 . S
C83 C82 1.362 . S
C83 C84 1.366 . S
C84 C81 1.365 . S
C84 C83 1.366 . S
C84 H98 0.930 1_554 S
C85 C82 1.378 . S
C85 N86 1.315 . S
C85 H88 0.930 . S
N86 Co66 2.194 . S
N86 C81 1.328 . S
N86 C85 1.315 . S
H87 C81 0.929 . S
H88 C85 0.930 . S
H89 C77 0.929 . S
H90 C79 0.929 . S
O91 Co66 2.351 . S
O91 C94 1.244 . S
O92 Co66 2.155 . S
O92 C94 1.240 . S
O93 Co66 2.096 . S
O93 C74 1.247 . S
C94 O91 1.244 . S
C94 O92 1.240 . S
H95 C69 0.931 . S
H96 C78 0.931 . S
H97 C82 0.929 . S
H98 C84 0.930 1_556 S
Co99 N103 2.148 . S
Co99 N109 2.128 . S
Co99 N119 2.194 . S
Co99 O124 2.351 . S
Co99 O125 2.155 . S
Co99 O126 2.096 . S
C100 N103 1.301 . S
C100 N104 1.328 . S
C100 H105 0.930 . S
C101 C102 1.333 . S
C101 N103 1.317 . S
C101 H106 0.930 . S
C102 C101 1.333 . S
C102 N104 1.350 . S
C102 H128 0.931 . S
N103 Co99 2.148 . S
N103 C100 1.301 . S
N103 C101 1.317 . S
N104 C100 1.328 . S
N104 C102 1.350 . S
H105 C100 0.930 . S
H106 C101 0.930 . S
C107 O108 1.224 . S
C107 O126 1.247 . S
O108 C107 1.224 . S
N109 Co99 2.128 . S
N109 C110 1.355 . S
N109 C112 1.311 . S
C110 N109 1.355 . S
C110 C111 1.363 . S
C110 H122 0.929 . S
C111 C110 1.363 . S
C111 N113 1.375 . S
C111 H129 0.931 . S
C112 N109 1.311 . S
C112 N113 1.347 . S
C112 H123 0.929 . S
N113 C111 1.375 . S
N113 C112 1.347 . S
C114 C117 1.365 . S
C114 N119 1.328 . S
C114 H120 0.929 . S
C115 C116 1.362 . S
C115 C118 1.378 . S
C115 H130 0.929 . S
C116 C115 1.362 . S
C116 C117 1.366 . S
C117 C114 1.365 . S
C117 C116 1.366 . S
C117 H131 0.930 1_556 S
C118 C115 1.378 . S
C118 N119 1.315 . S
C118 H121 0.930 . S
N119 Co99 2.194 . S
N119 C114 1.328 . S
N119 C118 1.315 . S
H120 C114 0.929 . S
H121 C118 0.930 . S
H122 C110 0.929 . S
H123 C112 0.929 . S
O124 Co99 2.351 . S
O124 C127 1.244 . S
O125 Co99 2.155 . S
O125 C127 1.240 . S
O126 Co99 2.096 . S
O126 C107 1.247 . S
C127 O124 1.244 . S
C127 O125 1.240 . S
H128 C102 0.931 . S
H129 C111 0.931 . S
H130 C115 0.929 . S
H131 C117 0.930 1_554 S
Co132 N136 2.148 . S
Co132 N142 2.128 . S
Co132 N152 2.194 . S
Co132 O157 2.351 . S
Co132 O158 2.155 . S
Co132 O159 2.096 1_554 S
C133 N136 1.301 . S
C133 N137 1.328 . S
C133 H138 0.930 . S
C134 C135 1.333 . S
C134 N136 1.317 . S
C134 H139 0.930 . S
C135 C134 1.333 . S
C135 N137 1.350 . S
C135 H161 0.931 . S
N136 Co132 2.148 . S
N136 C133 1.301 . S
N136 C134 1.317 . S
N137 C133 1.328 . S
N137 C135 1.350 . S
H138 C133 0.930 . S
H139 C134 0.930 . S
C140 O141 1.224 1_556 S
C140 O159 1.247 . S
O141 C140 1.224 1_554 S
N142 Co132 2.128 . S
N142 C143 1.355 . S
N142 C145 1.311 . S
C143 N142 1.355 . S
C143 C144 1.363 . S
C143 H155 0.929 . S
C144 C143 1.363 . S
C144 N146 1.375 . S
C144 H162 0.931 . S
C145 N142 1.311 . S
C145 N146 1.347 . S
C145 H156 0.929 1_554 S
N146 C144 1.375 . S
N146 C145 1.347 . S
C147 C150 1.365 . S
C147 N152 1.328 . S
C147 H153 0.929 . S
C148 C149 1.362 . S
C148 C151 1.378 . S
C148 H163 0.929 . S
C149 C148 1.362 . S
C149 C150 1.366 . S
C150 C147 1.365 . S
C150 C149 1.366 . S
C150 H164 0.930 . S
C151 C148 1.378 . S
C151 N152 1.315 . S
C151 H154 0.930 . S
N152 Co132 2.194 . S
N152 C147 1.328 . S
N152 C151 1.315 . S
H153 C147 0.929 . S
H154 C151 0.930 . S
H155 C143 0.929 . S
H156 C145 0.929 1_556 S
O157 Co132 2.351 . S
O157 C160 1.244 . S
O158 Co132 2.155 . S
O158 C160 1.240 . S
O159 Co132 2.096 1_556 S
O159 C140 1.247 . S
C160 O157 1.244 . S
C160 O158 1.240 . S
H161 C135 0.931 . S
H162 C144 0.931 . S
H163 C148 0.929 . S
H164 C150 0.930 . S
Co165 N169 2.148 . S
Co165 N175 2.128 . S
Co165 N185 2.194 . S
Co165 O190 2.351 . S
Co165 O191 2.155 . S
Co165 O192 2.096 1_556 S
C166 N169 1.301 . S
C166 N170 1.328 . S
C166 H171 0.930 . S
C167 C168 1.333 . S
C167 N169 1.317 . S
C167 H172 0.930 . S
C168 C167 1.333 . S
C168 N170 1.350 . S
C168 H194 0.931 . S
N169 Co165 2.148 . S
N169 C166 1.301 . S
N169 C167 1.317 . S
N170 C166 1.328 . S
N170 C168 1.350 . S
H171 C166 0.930 . S
H172 C167 0.930 . S
C173 O174 1.224 1_554 S
C173 O192 1.247 . S
O174 C173 1.224 1_556 S
N175 Co165 2.128 . S
N175 C176 1.355 . S
N175 C178 1.311 . S
C176 N175 1.355 . S
C176 C177 1.363 . S
C176 H188 0.929 . S
C177 C176 1.363 . S
C177 N179 1.375 . S
C177 H195 0.931 . S
C178 N175 1.311 . S
C178 N179 1.347 . S
C178 H189 0.929 1_556 S
N179 C177 1.375 . S
N179 C178 1.347 . S
C180 C183 1.365 . S
C180 N185 1.328 . S
C180 H186 0.929 . S
C181 C182 1.362 . S
C181 C184 1.378 . S
C181 H196 0.929 . S
C182 C181 1.362 . S
C182 C183 1.366 . S
C183 C180 1.365 . S
C183 C182 1.366 . S
C183 H197 0.930 . S
C184 C181 1.378 . S
C184 N185 1.315 . S
C184 H187 0.930 . S
N185 Co165 2.194 . S
N185 C180 1.328 . S
N185 C184 1.315 . S
H186 C180 0.929 . S
H187 C184 0.930 . S
H188 C176 0.929 . S
H189 C178 0.929 1_554 S
O190 Co165 2.351 . S
O190 C193 1.244 . S
O191 Co165 2.155 . S
O191 C193 1.240 . S
O192 Co165 2.096 1_554 S
O192 C173 1.247 . S
C193 O190 1.244 . S
C193 O191 1.240 . S
H194 C168 0.931 . S
H195 C177 0.931 . S
H196 C181 0.929 . S
H197 C183 0.930 . S
Co198 N202 2.148 . S
Co198 N208 2.128 . S
Co198 N218 2.194 . S
Co198 O223 2.351 . S
Co198 O224 2.155 . S
Co198 O225 2.096 1_554 S
C199 N202 1.301 . S
C199 N203 1.328 . S
C199 H204 0.930 . S
C200 C201 1.333 . S
C200 N202 1.317 . S
C200 H205 0.930 . S
C201 C200 1.333 . S
C201 N203 1.350 . S
C201 H227 0.931 . S
N202 Co198 2.148 . S
N202 C199 1.301 . S
N202 C200 1.317 . S
N203 C199 1.328 . S
N203 C201 1.350 . S
H204 C199 0.930 . S
H205 C200 0.930 . S
C206 O207 1.224 1_556 S
C206 O225 1.247 . S
O207 C206 1.224 1_554 S
N208 Co198 2.128 . S
N208 C209 1.355 . S
N208 C211 1.311 . S
C209 N208 1.355 . S
C209 C210 1.363 . S
C209 H221 0.929 . S
C210 C209 1.363 . S
C210 N212 1.375 . S
C210 H228 0.931 . S
C211 N208 1.311 . S
C211 N212 1.347 . S
C211 H222 0.929 1_554 S
N212 C210 1.375 . S
N212 C211 1.347 . S
C213 C216 1.365 . S
C213 N218 1.328 . S
C213 H219 0.929 . S
C214 C215 1.362 . S
C214 C217 1.378 . S
C214 H229 0.929 . S
C215 C214 1.362 . S
C215 C216 1.366 . S
C216 C213 1.365 . S
C216 C215 1.366 . S
C216 H230 0.930 . S
C217 C214 1.378 . S
C217 N218 1.315 . S
C217 H220 0.930 . S
N218 Co198 2.194 . S
N218 C213 1.328 . S
N218 C217 1.315 . S
H219 C213 0.929 . S
H220 C217 0.930 . S
H221 C209 0.929 . S
H222 C211 0.929 1_556 S
O223 Co198 2.351 . S
O223 C226 1.244 . S
O224 Co198 2.155 . S
O224 C226 1.240 . S
O225 Co198 2.096 1_556 S
O225 C206 1.247 . S
C226 O223 1.244 . S
C226 O224 1.240 . S
H227 C201 0.931 . S
H228 C210 0.931 . S
H229 C214 0.929 . S
H230 C216 0.930 . S
Co231 N235 2.148 . S
Co231 N241 2.128 . S
Co231 N251 2.194 . S
Co231 O256 2.351 . S
Co231 O257 2.155 . S
Co231 O258 2.096 1_556 S
C232 N235 1.301 . S
C232 N236 1.328 . S
C232 H237 0.930 . S
C233 C234 1.333 . S
C233 N235 1.317 . S
C233 H238 0.930 . S
C234 C233 1.333 . S
C234 N236 1.350 . S
C234 H260 0.931 . S
N235 Co231 2.148 . S
N235 C232 1.301 . S
N235 C233 1.317 . S
N236 C232 1.328 . S
N236 C234 1.350 . S
H237 C232 0.930 . S
H238 C233 0.930 . S
C239 O240 1.224 1_554 S
C239 O258 1.247 . S
O240 C239 1.224 1_556 S
N241 Co231 2.128 . S
N241 C242 1.355 . S
N241 C244 1.311 . S
C242 N241 1.355 . S
C242 C243 1.363 . S
C242 H254 0.929 . S
C243 C242 1.363 . S
C243 N245 1.375 . S
C243 H261 0.931 . S
C244 N241 1.311 . S
C244 N245 1.347 . S
C244 H255 0.929 1_556 S
N245 C243 1.375 . S
N245 C244 1.347 . S
C246 C249 1.365 . S
C246 N251 1.328 . S
C246 H252 0.929 . S
C247 C248 1.362 . S
C247 C250 1.378 . S
C247 H262 0.929 . S
C248 C247 1.362 . S
C248 C249 1.366 . S
C249 C246 1.365 . S
C249 C248 1.366 . S
C249 H263 0.930 . S
C250 C247 1.378 . S
C250 N251 1.315 . S
C250 H253 0.930 . S
N251 Co231 2.194 . S
N251 C246 1.328 . S
N251 C250 1.315 . S
H252 C246 0.929 . S
H253 C250 0.930 . S
H254 C242 0.929 . S
H255 C244 0.929 1_554 S
O256 Co231 2.351 . S
O256 C259 1.244 . S
O257 Co231 2.155 . S
O257 C259 1.240 . S
O258 Co231 2.096 1_554 S
O258 C239 1.247 . S
C259 O256 1.244 . S
C259 O257 1.240 . S
H260 C234 0.931 . S
H261 C243 0.931 . S
H262 C247 0.929 . S
H263 C249 0.930 . S
Co264 N268 2.148 . S
Co264 N274 2.128 . S
Co264 N284 2.194 . S
Co264 O289 2.351 . S
Co264 O290 2.155 . S
Co264 O291 2.096 . S
C265 N268 1.301 . S
C265 N269 1.328 . S
C265 H270 0.930 . S
C266 C267 1.333 . S
C266 N268 1.317 . S
C266 H271 0.930 . S
C267 C266 1.333 . S
C267 N269 1.350 . S
C267 H293 0.931 . S
N268 Co264 2.148 . S
N268 C265 1.301 . S
N268 C266 1.317 . S
N269 C265 1.328 . S
N269 C267 1.350 . S
H270 C265 0.930 . S
H271 C266 0.930 . S
C272 O273 1.224 . S
C272 O291 1.247 . S
O273 C272 1.224 . S
N274 Co264 2.128 . S
N274 C275 1.355 . S
N274 C277 1.311 . S
C275 N274 1.355 . S
C275 C276 1.363 . S
C275 H287 0.929 . S
C276 C275 1.363 . S
C276 N278 1.375 . S
C276 H294 0.931 . S
C277 N274 1.311 . S
C277 N278 1.347 . S
C277 H288 0.929 . S
N278 C276 1.375 . S
N278 C277 1.347 . S
C279 C282 1.365 . S
C279 N284 1.328 . S
C279 H285 0.929 . S
C280 C281 1.362 . S
C280 C283 1.378 . S
C280 H295 0.929 . S
C281 C280 1.362 . S
C281 C282 1.366 . S
C282 C279 1.365 . S
C282 C281 1.366 . S
C282 H296 0.930 . S
C283 C280 1.378 . S
C283 N284 1.315 . S
C283 H286 0.930 . S
N284 Co264 2.194 . S
N284 C279 1.328 . S
N284 C283 1.315 . S
H285 C279 0.929 . S
H286 C283 0.930 . S
H287 C275 0.929 . S
H288 C277 0.929 . S
O289 Co264 2.351 . S
O289 C292 1.244 . S
O290 Co264 2.155 . S
O290 C292 1.240 . S
O291 Co264 2.096 . S
O291 C272 1.247 . S
C292 O289 1.244 . S
C292 O290 1.240 . S
H293 C267 0.931 . S
H294 C276 0.931 . S
H295 C280 0.929 . S
H296 C282 0.930 . S
Co297 N301 2.148 . S
Co297 N307 2.128 . S
Co297 N317 2.194 . S
Co297 O322 2.351 . S
Co297 O323 2.155 . S
Co297 O324 2.096 . S
C298 N301 1.301 . S
C298 N302 1.328 . S
C298 H303 0.930 . S
C299 C300 1.333 . S
C299 N301 1.317 . S
C299 H304 0.930 . S
C300 C299 1.333 . S
C300 N302 1.350 . S
C300 H326 0.931 . S
N301 Co297 2.148 . S
N301 C298 1.301 . S
N301 C299 1.317 . S
N302 C298 1.328 . S
N302 C300 1.350 . S
H303 C298 0.930 . S
H304 C299 0.930 . S
C305 O306 1.224 . S
C305 O324 1.247 . S
O306 C305 1.224 . S
N307 Co297 2.128 . S
N307 C308 1.355 . S
N307 C310 1.311 . S
C308 N307 1.355 . S
C308 C309 1.363 . S
C308 H320 0.929 . S
C309 C308 1.363 . S
C309 N311 1.375 . S
C309 H327 0.931 . S
C310 N307 1.311 . S
C310 N311 1.347 . S
C310 H321 0.929 . S
N311 C309 1.375 . S
N311 C310 1.347 . S
C312 C315 1.365 . S
C312 N317 1.328 . S
C312 H318 0.929 . S
C313 C314 1.362 . S
C313 C316 1.378 . S
C313 H328 0.929 . S
C314 C313 1.362 . S
C314 C315 1.366 . S
C315 C312 1.365 . S
C315 C314 1.366 . S
C315 H329 0.930 . S
C316 C313 1.378 . S
C316 N317 1.315 . S
C316 H319 0.930 . S
N317 Co297 2.194 . S
N317 C312 1.328 . S
N317 C316 1.315 . S
H318 C312 0.929 . S
H319 C316 0.930 . S
H320 C308 0.929 . S
H321 C310 0.929 . S
O322 Co297 2.351 . S
O322 C325 1.244 . S
O323 Co297 2.155 . S
O323 C325 1.240 . S
O324 Co297 2.096 . S
O324 C305 1.247 . S
C325 O322 1.244 . S
C325 O323 1.240 . S
H326 C300 0.931 . S
H327 C309 0.931 . S
H328 C313 0.929 . S
H329 C315 0.930 . S
Co330 N334 2.148 . S
Co330 N340 2.128 . S
Co330 N350 2.194 . S
Co330 O355 2.351 . S
Co330 O356 2.155 . S
Co330 O357 2.096 . S
C331 N334 1.301 . S
C331 N335 1.328 . S
C331 H336 0.930 . S
C332 C333 1.333 . S
C332 N334 1.317 . S
C332 H337 0.930 . S
C333 C332 1.333 . S
C333 N335 1.350 . S
C333 H359 0.931 . S
N334 Co330 2.148 . S
N334 C331 1.301 . S
N334 C332 1.317 . S
N335 C331 1.328 . S
N335 C333 1.350 . S
H336 C331 0.930 . S
H337 C332 0.930 . S
C338 O339 1.224 . S
C338 O357 1.247 . S
O339 C338 1.224 . S
N340 Co330 2.128 . S
N340 C341 1.355 . S
N340 C343 1.311 . S
C341 N340 1.355 . S
C341 C342 1.363 . S
C341 H353 0.929 . S
C342 C341 1.363 . S
C342 N344 1.375 . S
C342 H360 0.931 . S
C343 N340 1.311 . S
C343 N344 1.347 . S
C343 H354 0.929 . S
N344 C342 1.375 . S
N344 C343 1.347 . S
C345 C348 1.365 . S
C345 N350 1.328 . S
C345 H351 0.929 . S
C346 C347 1.362 . S
C346 C349 1.378 . S
C346 H361 0.929 . S
C347 C346 1.362 . S
C347 C348 1.366 . S
C348 C345 1.365 . S
C348 C347 1.366 . S
C348 H362 0.930 . S
C349 C346 1.378 . S
C349 N350 1.315 . S
C349 H352 0.930 . S
N350 Co330 2.194 . S
N350 C345 1.328 . S
N350 C349 1.315 . S
H351 C345 0.929 . S
H352 C349 0.930 . S
H353 C341 0.929 . S
H354 C343 0.929 . S
O355 Co330 2.351 . S
O355 C358 1.244 . S
O356 Co330 2.155 . S
O356 C358 1.240 . S
O357 Co330 2.096 . S
O357 C338 1.247 . S
C358 O355 1.244 . S
C358 O356 1.240 . S
H359 C333 0.931 . S
H360 C342 0.931 . S
H361 C346 0.929 . S
H362 C348 0.930 . S
Co363 N367 2.148 . S
Co363 N373 2.128 . S
Co363 N383 2.194 . S
Co363 O388 2.351 . S
Co363 O389 2.155 . S
Co363 O390 2.096 . S
C364 N367 1.301 . S
C364 N368 1.328 . S
C364 H369 0.930 . S
C365 C366 1.333 . S
C365 N367 1.317 . S
C365 H370 0.930 . S
C366 C365 1.333 . S
C366 N368 1.350 . S
C366 H392 0.931 . S
N367 Co363 2.148 . S
N367 C364 1.301 . S
N367 C365 1.317 . S
N368 C364 1.328 . S
N368 C366 1.350 . S
H369 C364 0.930 . S
H370 C365 0.930 . S
C371 O372 1.224 . S
C371 O390 1.247 . S
O372 C371 1.224 . S
N373 Co363 2.128 . S
N373 C374 1.355 . S
N373 C376 1.311 . S
C374 N373 1.355 . S
C374 C375 1.363 . S
C374 H386 0.929 . S
C375 C374 1.363 . S
C375 N377 1.375 . S
C375 H393 0.931 . S
C376 N373 1.311 . S
C376 N377 1.347 . S
C376 H387 0.929 . S
N377 C375 1.375 . S
N377 C376 1.347 . S
C378 C381 1.365 . S
C378 N383 1.328 . S
C378 H384 0.929 . S
C379 C380 1.362 . S
C379 C382 1.378 . S
C379 H394 0.929 . S
C380 C379 1.362 . S
C380 C381 1.366 . S
C381 C378 1.365 . S
C381 C380 1.366 . S
C381 H395 0.930 . S
C382 C379 1.378 . S
C382 N383 1.315 . S
C382 H385 0.930 . S
N383 Co363 2.194 . S
N383 C378 1.328 . S
N383 C382 1.315 . S
H384 C378 0.929 . S
H385 C382 0.930 . S
H386 C374 0.929 . S
H387 C376 0.929 . S
O388 Co363 2.351 . S
O388 C391 1.244 . S
O389 Co363 2.155 . S
O389 C391 1.240 . S
O390 Co363 2.096 . S
O390 C371 1.247 . S
C391 O388 1.244 . S
C391 O389 1.240 . S
H392 C366 0.931 . S
H393 C375 0.931 . S
H394 C379 0.929 . S
H395 C381 0.930 . S
Co396 N400 2.148 . S
Co396 N406 2.128 . S
Co396 N416 2.194 . S
Co396 O421 2.351 . S
Co396 O422 2.155 . S
Co396 O423 2.096 . S
C397 N400 1.301 . S
C397 N401 1.328 . S
C397 H402 0.930 . S
C398 C399 1.333 . S
C398 N400 1.317 . S
C398 H403 0.930 . S
C399 C398 1.333 . S
C399 N401 1.350 . S
C399 H425 0.931 . S
N400 Co396 2.148 . S
N400 C397 1.301 . S
N400 C398 1.317 . S
N401 C397 1.328 . S
N401 C399 1.350 . S
H402 C397 0.930 . S
H403 C398 0.930 . S
C404 O405 1.224 . S
C404 O423 1.247 . S
O405 C404 1.224 . S
N406 Co396 2.128 . S
N406 C407 1.355 . S
N406 C409 1.311 . S
C407 N406 1.355 . S
C407 C408 1.363 . S
C407 H419 0.929 . S
C408 C407 1.363 . S
C408 N410 1.375 . S
C408 H426 0.931 . S
C409 N406 1.311 . S
C409 N410 1.347 . S
C409 H420 0.929 . S
N410 C408 1.375 . S
N410 C409 1.347 . S
C411 C414 1.365 . S
C411 N416 1.328 . S
C411 H417 0.929 . S
C412 C413 1.362 . S
C412 C415 1.378 . S
C412 H427 0.929 . S
C413 C412 1.362 . S
C413 C414 1.366 . S
C414 C411 1.365 . S
C414 C413 1.366 . S
C414 H428 0.930 . S
C415 C412 1.378 . S
C415 N416 1.315 . S
C415 H418 0.930 . S
N416 Co396 2.194 . S
N416 C411 1.328 . S
N416 C415 1.315 . S
H417 C411 0.929 . S
H418 C415 0.930 . S
H419 C407 0.929 . S
H420 C409 0.929 . S
O421 Co396 2.351 . S
O421 C424 1.244 . S
O422 Co396 2.155 . S
O422 C424 1.240 . S
O423 Co396 2.096 . S
O423 C404 1.247 . S
C424 O421 1.244 . S
C424 O422 1.240 . S
H425 C399 0.931 . S
H426 C408 0.931 . S
H427 C412 0.929 . S
H428 C414 0.930 . S
Co429 N433 2.148 . S
Co429 N439 2.128 . S
Co429 N449 2.194 . S
Co429 O454 2.351 . S
Co429 O455 2.155 . S
Co429 O456 2.096 . S
C430 N433 1.301 . S
C430 N434 1.328 . S
C430 H435 0.930 . S
C431 C432 1.333 . S
C431 N433 1.317 . S
C431 H436 0.930 . S
C432 C431 1.333 . S
C432 N434 1.350 . S
C432 H458 0.931 . S
N433 Co429 2.148 . S
N433 C430 1.301 . S
N433 C431 1.317 . S
N434 C430 1.328 . S
N434 C432 1.350 . S
H435 C430 0.930 . S
H436 C431 0.930 . S
C437 O438 1.224 . S
C437 O456 1.247 . S
O438 C437 1.224 . S
N439 Co429 2.128 . S
N439 C440 1.355 . S
N439 C442 1.311 . S
C440 N439 1.355 . S
C440 C441 1.363 . S
C440 H452 0.929 . S
C441 C440 1.363 . S
C441 N443 1.375 . S
C441 H459 0.931 . S
C442 N439 1.311 . S
C442 N443 1.347 . S
C442 H453 0.929 . S
N443 C441 1.375 . S
N443 C442 1.347 . S
C444 C447 1.365 . S
C444 N449 1.328 . S
C444 H450 0.929 . S
C445 C446 1.362 . S
C445 C448 1.378 . S
C445 H460 0.929 . S
C446 C445 1.362 . S
C446 C447 1.366 . S
C447 C444 1.365 . S
C447 C446 1.366 . S
C447 H461 0.930 . S
C448 C445 1.378 . S
C448 N449 1.315 . S
C448 H451 0.930 . S
N449 Co429 2.194 . S
N449 C444 1.328 . S
N449 C448 1.315 . S
H450 C444 0.929 . S
H451 C448 0.930 . S
H452 C440 0.929 . S
H453 C442 0.929 . S
O454 Co429 2.351 . S
O454 C457 1.244 . S
O455 Co429 2.155 . S
O455 C457 1.240 . S
O456 Co429 2.096 . S
O456 C437 1.247 . S
C457 O454 1.244 . S
C457 O455 1.240 . S
H458 C432 0.931 . S
H459 C441 0.931 . S
H460 C445 0.929 . S
H461 C447 0.930 . S
Co462 N466 2.148 . S
Co462 N472 2.128 . S
Co462 N482 2.194 . S
Co462 O487 2.351 . S
Co462 O488 2.155 . S
Co462 O489 2.096 . S
C463 N466 1.301 . S
C463 N467 1.328 . S
C463 H468 0.930 . S
C464 C465 1.333 . S
C464 N466 1.317 . S
C464 H469 0.930 . S
C465 C464 1.333 . S
C465 N467 1.350 . S
C465 H491 0.931 . S
N466 Co462 2.148 . S
N466 C463 1.301 . S
N466 C464 1.317 . S
N467 C463 1.328 . S
N467 C465 1.350 . S
H468 C463 0.930 . S
H469 C464 0.930 . S
C470 O471 1.224 . S
C470 O489 1.247 . S
O471 C470 1.224 . S
N472 Co462 2.128 . S
N472 C473 1.355 . S
N472 C475 1.311 . S
C473 N472 1.355 . S
C473 C474 1.363 . S
C473 H485 0.929 . S
C474 C473 1.363 . S
C474 N476 1.375 . S
C474 H492 0.931 . S
C475 N472 1.311 . S
C475 N476 1.347 . S
C475 H486 0.929 . S
N476 C474 1.375 . S
N476 C475 1.347 . S
C477 C480 1.365 . S
C477 N482 1.328 . S
C477 H483 0.929 . S
C478 C479 1.362 . S
C478 C481 1.378 . S
C478 H493 0.929 . S
C479 C478 1.362 . S
C479 C480 1.366 . S
C480 C477 1.365 . S
C480 C479 1.366 . S
C480 H494 0.930 . S
C481 C478 1.378 . S
C481 N482 1.315 . S
C481 H484 0.930 . S
N482 Co462 2.194 . S
N482 C477 1.328 . S
N482 C481 1.315 . S
H483 C477 0.929 . S
H484 C481 0.930 . S
H485 C473 0.929 . S
H486 C475 0.929 . S
O487 Co462 2.351 . S
O487 C490 1.244 . S
O488 Co462 2.155 . S
O488 C490 1.240 . S
O489 Co462 2.096 . S
O489 C470 1.247 . S
C490 O487 1.244 . S
C490 O488 1.240 . S
H491 C465 0.931 . S
H492 C474 0.931 . S
H493 C478 0.929 . S
H494 C480 0.930 . S
Co495 N499 2.148 . S
Co495 N505 2.128 . S
Co495 N515 2.194 . S
Co495 O520 2.351 . S
Co495 O521 2.155 . S
Co495 O522 2.096 . S
C496 N499 1.301 . S
C496 N500 1.328 . S
C496 H501 0.930 . S
C497 C498 1.333 . S
C497 N499 1.317 . S
C497 H502 0.930 . S
C498 C497 1.333 . S
C498 N500 1.350 . S
C498 H524 0.931 . S
N499 Co495 2.148 . S
N499 C496 1.301 . S
N499 C497 1.317 . S
N500 C496 1.328 . S
N500 C498 1.350 . S
H501 C496 0.930 . S
H502 C497 0.930 . S
C503 O504 1.224 . S
C503 O522 1.247 . S
O504 C503 1.224 . S
N505 Co495 2.128 . S
N505 C506 1.355 . S
N505 C508 1.311 . S
C506 N505 1.355 . S
C506 C507 1.363 . S
C506 H518 0.929 . S
C507 C506 1.363 . S
C507 N509 1.375 . S
C507 H525 0.931 . S
C508 N505 1.311 . S
C508 N509 1.347 . S
C508 H519 0.929 . S
N509 C507 1.375 . S
N509 C508 1.347 . S
C510 C513 1.365 . S
C510 N515 1.328 . S
C510 H516 0.929 . S
C511 C512 1.362 . S
C511 C514 1.378 . S
C511 H526 0.929 . S
C512 C511 1.362 . S
C512 C513 1.366 . S
C513 C510 1.365 . S
C513 C512 1.366 . S
C513 H527 0.930 . S
C514 C511 1.378 . S
C514 N515 1.315 . S
C514 H517 0.930 . S
N515 Co495 2.194 . S
N515 C510 1.328 . S
N515 C514 1.315 . S
H516 C510 0.929 . S
H517 C514 0.930 . S
H518 C506 0.929 . S
H519 C508 0.929 . S
O520 Co495 2.351 . S
O520 C523 1.244 . S
O521 Co495 2.155 . S
O521 C523 1.240 . S
O522 Co495 2.096 . S
O522 C503 1.247 . S
C523 O520 1.244 . S
C523 O521 1.240 . S
H524 C498 0.931 . S
H525 C507 0.931 . S
H526 C511 0.929 . S
H527 C513 0.930 . S
H528 C534 0.930 . S
H529 C537 0.930 . S
H530 C538 0.930 . S
H531 C539 0.930 . S
H532 C542 0.930 . S
H533 C543 0.930 . S
C534 H528 0.930 . S
C534 C535 1.355 . S
C534 C536 1.415 . S
C535 C534 1.355 . S
C535 C537 1.419 . S
C536 C534 1.415 . S
C536 C541 1.425 . S
C536 C543 1.409 . S
C537 H529 0.930 . S
C537 C535 1.419 . S
C537 C538 1.362 . S
C538 H530 0.930 . S
C538 C537 1.362 . S
C538 C541 1.409 . S
C539 H531 0.930 . S
C539 C540 1.355 . S
C539 C541 1.415 . S
C540 C539 1.355 . S
C540 C542 1.419 . S
C541 C536 1.425 . S
C541 C538 1.409 . S
C541 C539 1.415 . S
C542 H532 0.930 . S
C542 C540 1.419 . S
C542 C543 1.362 . S
C543 H533 0.930 . S
C543 C536 1.409 . S
C543 C542 1.362 . S
H544 C550 0.930 . S
H545 C553 0.930 . S
H546 C554 0.930 . S
H547 C555 0.930 . S
H548 C558 0.930 . S
H549 C559 0.930 . S
C550 H544 0.930 . S
C550 C551 1.355 . S
C550 C552 1.415 . S
C551 C550 1.355 . S
C551 C553 1.419 . S
C552 C550 1.415 . S
C552 C557 1.425 . S
C552 C559 1.409 . S
C553 H545 0.930 . S
C553 C551 1.419 . S
C553 C554 1.362 . S
C554 H546 0.930 . S
C554 C553 1.362 . S
C554 C557 1.409 . S
C555 H547 0.930 . S
C555 C556 1.355 . S
C555 C557 1.415 . S
C556 C555 1.355 . S
C556 C558 1.419 . S
C557 C552 1.425 . S
C557 C554 1.409 . S
C557 C555 1.415 . S
C558 H548 0.930 . S
C558 C556 1.419 . S
C558 C559 1.362 . S
C559 H549 0.930 . S
C559 C552 1.409 . S
C559 C558 1.362 . S
H560 C566 0.930 . S
H561 C569 0.930 . S
H562 C570 0.930 . S
H563 C571 0.930 . S
H564 C574 0.930 . S
H565 C575 0.930 . S
C566 H560 0.930 . S
C566 C567 1.355 . S
C566 C568 1.415 . S
C567 C566 1.355 . S
C567 C569 1.419 . S
C568 C566 1.415 . S
C568 C573 1.425 . S
C568 C575 1.409 . S
C569 H561 0.930 . S
C569 C567 1.419 . S
C569 C570 1.362 . S
C570 H562 0.930 . S
C570 C569 1.362 . S
C570 C573 1.409 . S
C571 H563 0.930 . S
C571 C572 1.355 . S
C571 C573 1.415 . S
C572 C571 1.355 . S
C572 C574 1.419 . S
C573 C568 1.425 . S
C573 C570 1.409 . S
C573 C571 1.415 . S
C574 H564 0.930 . S
C574 C572 1.419 . S
C574 C575 1.362 . S
C575 H565 0.930 . S
C575 C568 1.409 . S
C575 C574 1.362 . S
H576 C582 0.930 . S
H577 C585 0.930 . S
H578 C586 0.930 . S
H579 C587 0.930 . S
H580 C590 0.930 . S
H581 C591 0.930 . S
C582 H576 0.930 . S
C582 C583 1.355 . S
C582 C584 1.415 . S
C583 C582 1.355 . S
C583 C585 1.419 . S
C584 C582 1.415 . S
C584 C589 1.425 . S
C584 C591 1.409 . S
C585 H577 0.930 . S
C585 C583 1.419 . S
C585 C586 1.362 . S
C586 H578 0.930 . S
C586 C585 1.362 . S
C586 C589 1.409 . S
C587 H579 0.930 . S
C587 C588 1.355 . S
C587 C589 1.415 . S
C588 C587 1.355 . S
C588 C590 1.419 . S
C589 C584 1.425 . S
C589 C586 1.409 . S
C589 C587 1.415 . S
C590 H580 0.930 . S
C590 C588 1.419 . S
C590 C591 1.362 . S
C591 H581 0.930 . S
C591 C584 1.409 . S
C591 C590 1.362 . S
H592 C598 0.930 . S
H593 C601 0.930 1_554 S
H594 C602 0.930 . S
H595 C603 0.930 . S
H596 C606 0.930 . S
H597 C607 0.930 . S
C598 H592 0.930 . S
C598 C599 1.355 . S
C598 C600 1.415 . S
C599 C598 1.355 . S
C599 C601 1.419 . S
C600 C598 1.415 . S
C600 C605 1.425 . S
C600 C607 1.409 . S
C601 H593 0.930 1_556 S
C601 C599 1.419 . S
C601 C602 1.362 . S
C602 H594 0.930 . S
C602 C601 1.362 . S
C602 C605 1.409 . S
C603 H595 0.930 . S
C603 C604 1.355 . S
C603 C605 1.415 . S
C604 C603 1.355 . S
C604 C606 1.419 . S
C605 C600 1.425 . S
C605 C602 1.409 . S
C605 C603 1.415 . S
C606 H596 0.930 . S
C606 C604 1.419 . S
C606 C607 1.362 . S
C607 H597 0.930 . S
C607 C600 1.409 . S
C607 C606 1.362 . S
H608 C614 0.930 . S
H609 C617 0.930 . S
H610 C618 0.930 . S
H611 C619 0.930 . S
H612 C622 0.930 1_556 S
H613 C623 0.930 . S
C614 H608 0.930 . S
C614 C615 1.355 . S
C614 C616 1.415 . S
C615 C614 1.355 . S
C615 C617 1.419 . S
C616 C614 1.415 . S
C616 C621 1.425 . S
C616 C623 1.409 . S
C617 H609 0.930 . S
C617 C615 1.419 . S
C617 C618 1.362 . S
C618 H610 0.930 . S
C618 C617 1.362 . S
C618 C621 1.409 . S
C619 H611 0.930 . S
C619 C620 1.355 . S
C619 C621 1.415 . S
C620 C619 1.355 . S
C620 C622 1.419 . S
C621 C616 1.425 . S
C621 C618 1.409 . S
C621 C619 1.415 . S
C622 H612 0.930 1_554 S
C622 C620 1.419 . S
C622 C623 1.362 . S
C623 H613 0.930 . S
C623 C616 1.409 . S
C623 C622 1.362 . S
H624 C630 0.930 . S
H625 C633 0.930 . S
H626 C634 0.930 . S
H627 C635 0.930 . S
H628 C638 0.930 . S
H629 C639 0.930 . S
C630 H624 0.930 . S
C630 C631 1.355 . S
C630 C632 1.415 . S
C631 C630 1.355 . S
C631 C633 1.419 . S
C632 C630 1.415 . S
C632 C637 1.425 . S
C632 C639 1.409 . S
C633 H625 0.930 . S
C633 C631 1.419 . S
C633 C634 1.362 . S
C634 H626 0.930 . S
C634 C633 1.362 . S
C634 C637 1.409 . S
C635 H627 0.930 . S
C635 C636 1.355 . S
C635 C637 1.415 . S
C636 C635 1.355 . S
C636 C638 1.419 . S
C637 C632 1.425 . S
C637 C634 1.409 . S
C637 C635 1.415 . S
C638 H628 0.930 . S
C638 C636 1.419 . S
C638 C639 1.362 . S
C639 H629 0.930 . S
C639 C632 1.409 . S
C639 C638 1.362 . S
H640 C646 0.930 . S
H641 C649 0.930 . S
H642 C650 0.930 . S
H643 C651 0.930 . S
H644 C654 0.930 . S
H645 C655 0.930 . S
C646 H640 0.930 . S
C646 C647 1.355 . S
C646 C648 1.415 . S
C647 C646 1.355 . S
C647 C649 1.419 . S
C648 C646 1.415 . S
C648 C653 1.425 . S
C648 C655 1.409 . S
C649 H641 0.930 . S
C649 C647 1.419 . S
C649 C650 1.362 . S
C650 H642 0.930 . S
C650 C649 1.362 . S
C650 C653 1.409 . S
C651 H643 0.930 . S
C651 C652 1.355 . S
C651 C653 1.415 . S
C652 C651 1.355 . S
C652 C654 1.419 . S
C653 C648 1.425 . S
C653 C650 1.409 . S
C653 C651 1.415 . S
C654 H644 0.930 . S
C654 C652 1.419 . S
C654 C655 1.362 . S
C655 H645 0.930 . S
C655 C648 1.409 . S
C655 C654 1.362 . S
H656 C662 0.930 . S
H657 C665 0.930 . S
H658 C666 0.930 . S
H659 C667 0.930 . S
H660 C670 0.930 . S
H661 C671 0.930 . S
C662 H656 0.930 . S
C662 C663 1.355 . S
C662 C664 1.415 . S
C663 C662 1.355 . S
C663 C665 1.419 . S
C664 C662 1.415 . S
C664 C669 1.425 . S
C664 C671 1.409 . S
C665 H657 0.930 . S
C665 C663 1.419 . S
C665 C666 1.362 . S
C666 H658 0.930 . S
C666 C665 1.362 . S
C666 C669 1.409 . S
C667 H659 0.930 . S
C667 C668 1.355 . S
C667 C669 1.415 . S
C668 C667 1.355 . S
C668 C670 1.419 . S
C669 C664 1.425 . S
C669 C666 1.409 . S
C669 C667 1.415 . S
C670 H660 0.930 . S
C670 C668 1.419 . S
C670 C671 1.362 . S
C671 H661 0.930 . S
C671 C664 1.409 . S
C671 C670 1.362 . S
H672 C678 0.930 . S
H673 C681 0.930 . S
H674 C682 0.930 . S
H675 C683 0.930 . S
H676 C686 0.930 . S
H677 C687 0.930 . S
C678 H672 0.930 . S
C678 C679 1.355 . S
C678 C680 1.415 . S
C679 C678 1.355 . S
C679 C681 1.419 . S
C680 C678 1.415 . S
C680 C685 1.425 . S
C680 C687 1.409 . S
C681 H673 0.930 . S
C681 C679 1.419 . S
C681 C682 1.362 . S
C682 H674 0.930 . S
C682 C681 1.362 . S
C682 C685 1.409 . S
C683 H675 0.930 . S
C683 C684 1.355 . S
C683 C685 1.415 . S
C684 C683 1.355 . S
C684 C686 1.419 . S
C685 C680 1.425 . S
C685 C682 1.409 . S
C685 C683 1.415 . S
C686 H676 0.930 . S
C686 C684 1.419 . S
C686 C687 1.362 . S
C687 H677 0.930 . S
C687 C680 1.409 . S
C687 C686 1.362 . S
H688 C694 0.930 . S
H689 C697 0.930 . S
H690 C698 0.930 . S
H691 C699 0.930 . S
H692 C702 0.930 . S
H693 C703 0.930 . S
C694 H688 0.930 . S
C694 C695 1.355 . S
C694 C696 1.415 . S
C695 C694 1.355 . S
C695 C697 1.419 . S
C696 C694 1.415 . S
C696 C701 1.425 . S
C696 C703 1.409 . S
C697 H689 0.930 . S
C697 C695 1.419 . S
C697 C698 1.362 . S
C698 H690 0.930 . S
C698 C697 1.362 . S
C698 C701 1.409 . S
C699 H691 0.930 . S
C699 C700 1.355 . S
C699 C701 1.415 . S
C700 C699 1.355 . S
C700 C702 1.419 . S
C701 C696 1.425 . S
C701 C698 1.409 . S
C701 C699 1.415 . S
C702 H692 0.930 . S
C702 C700 1.419 . S
C702 C703 1.362 . S
C703 H693 0.930 . S
C703 C696 1.409 . S
C703 C702 1.362 . S
H704 C710 0.930 . S
H705 C713 0.930 . S
H706 C714 0.930 . S
H707 C715 0.930 . S
H708 C718 0.930 . S
H709 C719 0.930 . S
C710 H704 0.930 . S
C710 C711 1.355 . S
C710 C712 1.415 . S
C711 C710 1.355 . S
C711 C713 1.419 . S
C712 C710 1.415 . S
C712 C717 1.425 . S
C712 C719 1.409 . S
C713 H705 0.930 . S
C713 C711 1.419 . S
C713 C714 1.362 . S
C714 H706 0.930 . S
C714 C713 1.362 . S
C714 C717 1.409 . S
C715 H707 0.930 . S
C715 C716 1.355 . S
C715 C717 1.415 . S
C716 C715 1.355 . S
C716 C718 1.419 . S
C717 C712 1.425 . S
C717 C714 1.409 . S
C717 C715 1.415 . S
C718 H708 0.930 . S
C718 C716 1.419 . S
C718 C719 1.362 . S
C719 H709 0.930 . S
C719 C712 1.409 . S
C719 C718 1.362 . S
H720 C726 0.930 . S
H721 C729 0.930 . S
H722 C730 0.930 . S
H723 C731 0.930 . S
H724 C734 0.930 . S
H725 C735 0.930 . S
C726 H720 0.930 . S
C726 C727 1.355 . S
C726 C728 1.415 . S
C727 C726 1.355 . S
C727 C729 1.419 . S
C728 C726 1.415 . S
C728 C733 1.425 . S
C728 C735 1.409 . S
C729 H721 0.930 . S
C729 C727 1.419 . S
C729 C730 1.362 . S
C730 H722 0.930 . S
C730 C729 1.362 . S
C730 C733 1.409 . S
C731 H723 0.930 . S
C731 C732 1.355 . S
C731 C733 1.415 . S
C732 C731 1.355 . S
C732 C734 1.419 . S
C733 C728 1.425 . S
C733 C730 1.409 . S
C733 C731 1.415 . S
C734 H724 0.930 . S
C734 C732 1.419 . S
C734 C735 1.362 . S
C735 H725 0.930 . S
C735 C728 1.409 . S
C735 C734 1.362 . S
H736 C742 0.930 . S
H737 C745 0.930 . S
H738 C746 0.930 . S
H739 C747 0.930 . S
H740 C750 0.930 . S
H741 C751 0.930 . S
C742 H736 0.930 . S
C742 C743 1.355 . S
C742 C744 1.415 . S
C743 C742 1.355 . S
C743 C745 1.419 . S
C744 C742 1.415 . S
C744 C749 1.425 . S
C744 C751 1.409 . S
C745 H737 0.930 . S
C745 C743 1.419 . S
C745 C746 1.362 . S
C746 H738 0.930 . S
C746 C745 1.362 . S
C746 C749 1.409 . S
C747 H739 0.930 . S
C747 C748 1.355 . S
C747 C749 1.415 . S
C748 C747 1.355 . S
C748 C750 1.419 . S
C749 C744 1.425 . S
C749 C746 1.409 . S
C749 C747 1.415 . S
C750 H740 0.930 . S
C750 C748 1.419 . S
C750 C751 1.362 . S
C751 H741 0.930 . S
C751 C744 1.409 . S
C751 C750 1.362 . S
H752 C758 0.930 . S
H753 C761 0.930 . S
H754 C762 0.930 . S
H755 C763 0.930 . S
H756 C766 0.930 . S
H757 C767 0.930 . S
C758 H752 0.930 . S
C758 C759 1.355 . S
C758 C760 1.415 . S
C759 C758 1.355 . S
C759 C761 1.419 . S
C760 C758 1.415 . S
C760 C765 1.425 . S
C760 C767 1.409 . S
C761 H753 0.930 . S
C761 C759 1.419 . S
C761 C762 1.362 . S
C762 H754 0.930 . S
C762 C761 1.362 . S
C762 C765 1.409 . S
C763 H755 0.930 . S
C763 C764 1.355 . S
C763 C765 1.415 . S
C764 C763 1.355 . S
C764 C766 1.419 . S
C765 C760 1.425 . S
C765 C762 1.409 . S
C765 C763 1.415 . S
C766 H756 0.930 . S
C766 C764 1.419 . S
C766 C767 1.362 . S
C767 H757 0.930 . S
C767 C760 1.409 . S
C767 C766 1.362 . S
H768 C774 0.930 . S
H769 C777 0.930 . S
H770 C778 0.930 . S
H771 C779 0.930 . S
H772 C782 0.930 . S
H773 C783 0.930 . S
C774 H768 0.930 . S
C774 C775 1.355 . S
C774 C776 1.415 . S
C775 C774 1.355 . S
C775 C777 1.419 . S
C776 C774 1.415 . S
C776 C781 1.425 . S
C776 C783 1.409 . S
C777 H769 0.930 . S
C777 C775 1.419 . S
C777 C778 1.362 . S
C778 H770 0.930 . S
C778 C777 1.362 . S
C778 C781 1.409 . S
C779 H771 0.930 . S
C779 C780 1.355 . S
C779 C781 1.415 . S
C780 C779 1.355 . S
C780 C782 1.419 . S
C781 C776 1.425 . S
C781 C778 1.409 . S
C781 C779 1.415 . S
C782 H772 0.930 . S
C782 C780 1.419 . S
C782 C783 1.362 . S
C783 H773 0.930 . S
C783 C776 1.409 . S
C783 C782 1.362 . S
H784 C790 0.930 . S
H785 C793 0.930 1_554 S
H786 C794 0.930 . S
H787 C795 0.930 . S
H788 C798 0.930 . S
H789 C799 0.930 . S
C790 H784 0.930 . S
C790 C791 1.355 . S
C790 C792 1.415 . S
C791 C790 1.355 . S
C791 C793 1.419 . S
C792 C790 1.415 . S
C792 C797 1.425 . S
C792 C799 1.409 . S
C793 H785 0.930 1_556 S
C793 C791 1.419 . S
C793 C794 1.362 . S
C794 H786 0.930 . S
C794 C793 1.362 . S
C794 C797 1.409 . S
C795 H787 0.930 . S
C795 C796 1.355 . S
C795 C797 1.415 . S
C796 C795 1.355 . S
C796 C798 1.419 . S
C797 C792 1.425 . S
C797 C794 1.409 . S
C797 C795 1.415 . S
C798 H788 0.930 . S
C798 C796 1.419 . S
C798 C799 1.362 . S
C799 H789 0.930 . S
C799 C792 1.409 . S
C799 C798 1.362 . S
H800 C806 0.930 . S
H801 C809 0.930 . S
H802 C810 0.930 . S
H803 C811 0.930 . S
H804 C814 0.930 . S
H805 C815 0.930 . S
C806 H800 0.930 . S
C806 C807 1.355 . S
C806 C808 1.415 . S
C807 C806 1.355 . S
C807 C809 1.419 . S
C808 C806 1.415 . S
C808 C813 1.425 . S
C808 C815 1.409 . S
C809 H801 0.930 . S
C809 C807 1.419 . S
C809 C810 1.362 . S
C810 H802 0.930 . S
C810 C809 1.362 . S
C810 C813 1.409 . S
C811 H803 0.930 . S
C811 C812 1.355 . S
C811 C813 1.415 . S
C812 C811 1.355 . S
C812 C814 1.419 . S
C813 C808 1.425 . S
C813 C810 1.409 . S
C813 C811 1.415 . S
C814 H804 0.930 . S
C814 C812 1.419 . S
C814 C815 1.362 . S
C815 H805 0.930 . S
C815 C808 1.409 . S
C815 C814 1.362 . S
H816 C822 0.930 . S
H817 C825 0.930 . S
H818 C826 0.930 . S
H819 C827 0.930 . S
H820 C830 0.930 . S
H821 C831 0.930 . S
C822 H816 0.930 . S
C822 C823 1.355 . S
C822 C824 1.415 . S
C823 C822 1.355 . S
C823 C825 1.419 . S
C824 C822 1.415 . S
C824 C829 1.425 . S
C824 C831 1.409 . S
C825 H817 0.930 . S
C825 C823 1.419 . S
C825 C826 1.362 . S
C826 H818 0.930 . S
C826 C825 1.362 . S
C826 C829 1.409 . S
C827 H819 0.930 . S
C827 C828 1.355 . S
C827 C829 1.415 . S
C828 C827 1.355 . S
C828 C830 1.419 . S
C829 C824 1.425 . S
C829 C826 1.409 . S
C829 C827 1.415 . S
C830 H820 0.930 . S
C830 C828 1.419 . S
C830 C831 1.362 . S
C831 H821 0.930 . S
C831 C824 1.409 . S
C831 C830 1.362 . S
H832 C838 0.930 . S
H833 C841 0.930 . S
H834 C842 0.930 . S
H835 C843 0.930 . S
H836 C846 0.930 . S
H837 C847 0.930 . S
C838 H832 0.930 . S
C838 C839 1.355 . S
C838 C840 1.415 . S
C839 C838 1.355 . S
C839 C841 1.419 . S
C840 C838 1.415 . S
C840 C845 1.425 . S
C840 C847 1.409 . S
C841 H833 0.930 . S
C841 C839 1.419 . S
C841 C842 1.362 . S
C842 H834 0.930 . S
C842 C841 1.362 . S
C842 C845 1.409 . S
C843 H835 0.930 . S
C843 C844 1.355 . S
C843 C845 1.415 . S
C844 C843 1.355 . S
C844 C846 1.419 . S
C845 C840 1.425 . S
C845 C842 1.409 . S
C845 C843 1.415 . S
C846 H836 0.930 . S
C846 C844 1.419 . S
C846 C847 1.362 . S
C847 H837 0.930 . S
C847 C840 1.409 . S
C847 C846 1.362 . S
H848 C854 0.930 . S
H849 C857 0.930 . S
H850 C858 0.930 . S
H851 C859 0.930 . S
H852 C862 0.930 . S
H853 C863 0.930 . S
C854 H848 0.930 . S
C854 C855 1.355 . S
C854 C856 1.415 . S
C855 C854 1.355 . S
C855 C857 1.419 . S
C856 C854 1.415 . S
C856 C861 1.425 . S
C856 C863 1.409 . S
C857 H849 0.930 . S
C857 C855 1.419 . S
C857 C858 1.362 . S
C858 H850 0.930 . S
C858 C857 1.362 . S
C858 C861 1.409 . S
C859 H851 0.930 . S
C859 C860 1.355 . S
C859 C861 1.415 . S
C860 C859 1.355 . S
C860 C862 1.419 . S
C861 C856 1.425 . S
C861 C858 1.409 . S
C861 C859 1.415 . S
C862 H852 0.930 . S
C862 C860 1.419 . S
C862 C863 1.362 . S
C863 H853 0.930 . S
C863 C856 1.409 . S
C863 C862 1.362 . S
H864 C870 0.930 . S
H865 C873 0.930 . S
H866 C874 0.930 . S
H867 C875 0.930 . S
H868 C878 0.930 . S
H869 C879 0.930 . S
C870 H864 0.930 . S
C870 C871 1.355 . S
C870 C872 1.415 . S
C871 C870 1.355 . S
C871 C873 1.419 . S
C872 C870 1.415 . S
C872 C877 1.425 . S
C872 C879 1.409 . S
C873 H865 0.930 . S
C873 C871 1.419 . S
C873 C874 1.362 . S
C874 H866 0.930 . S
C874 C873 1.362 . S
C874 C877 1.409 . S
C875 H867 0.930 . S
C875 C876 1.355 . S
C875 C877 1.415 . S
C876 C875 1.355 . S
C876 C878 1.419 . S
C877 C872 1.425 . S
C877 C874 1.409 . S
C877 C875 1.415 . S
C878 H868 0.930 . S
C878 C876 1.419 . S
C878 C879 1.362 . S
C879 H869 0.930 . S
C879 C872 1.409 . S
C879 C878 1.362 . S
H880 C886 0.930 . S
H881 C889 0.930 . S
H882 C890 0.930 . S
H883 C891 0.930 . S
H884 C894 0.930 . S
H885 C895 0.930 . S
C886 H880 0.930 . S
C886 C887 1.355 . S
C886 C888 1.415 . S
C887 C886 1.355 . S
C887 C889 1.419 . S
C888 C886 1.415 . S
C888 C893 1.425 . S
C888 C895 1.409 . S
C889 H881 0.930 . S
C889 C887 1.419 . S
C889 C890 1.362 . S
C890 H882 0.930 . S
C890 C889 1.362 . S
C890 C893 1.409 . S
C891 H883 0.930 . S
C891 C892 1.355 . S
C891 C893 1.415 . S
C892 C891 1.355 . S
C892 C894 1.419 . S
C893 C888 1.425 . S
C893 C890 1.409 . S
C893 C891 1.415 . S
C894 H884 0.930 . S
C894 C892 1.419 . S
C894 C895 1.362 . S
C895 H885 0.930 . S
C895 C888 1.409 . S
C895 C894 1.362 . S
H896 C902 0.930 . S
H897 C905 0.930 . S
H898 C906 0.930 . S
H899 C907 0.930 . S
H900 C910 0.930 . S
H901 C911 0.930 . S
C902 H896 0.930 . S
C902 C903 1.355 . S
C902 C904 1.415 . S
C903 C902 1.355 . S
C903 C905 1.419 . S
C904 C902 1.415 . S
C904 C909 1.425 . S
C904 C911 1.409 . S
C905 H897 0.930 . S
C905 C903 1.419 . S
C905 C906 1.362 . S
C906 H898 0.930 . S
C906 C905 1.362 . S
C906 C909 1.409 . S
C907 H899 0.930 . S
C907 C908 1.355 . S
C907 C909 1.415 . S
C908 C907 1.355 . S
C908 C910 1.419 . S
C909 C904 1.425 . S
C909 C906 1.409 . S
C909 C907 1.415 . S
C910 H900 0.930 . S
C910 C908 1.419 . S
C910 C911 1.362 . S
C911 H901 0.930 . S
C911 C904 1.409 . S
C911 C910 1.362 . S
H912 C918 0.930 . S
H913 C921 0.930 . S
H914 C922 0.930 . S
H915 C923 0.930 . S
H916 C926 0.930 . S
H917 C927 0.930 . S
C918 H912 0.930 . S
C918 C919 1.355 . S
C918 C920 1.415 . S
C919 C918 1.355 . S
C919 C921 1.419 . S
C920 C918 1.415 . S
C920 C925 1.425 . S
C920 C927 1.409 . S
C921 H913 0.930 . S
C921 C919 1.419 . S
C921 C922 1.362 . S
C922 H914 0.930 . S
C922 C921 1.362 . S
C922 C925 1.409 . S
C923 H915 0.930 . S
C923 C924 1.355 . S
C923 C925 1.415 . S
C924 C923 1.355 . S
C924 C926 1.419 . S
C925 C920 1.425 . S
C925 C922 1.409 . S
C925 C923 1.415 . S
C926 H916 0.930 . S
C926 C924 1.419 . S
C926 C927 1.362 . S
C927 H917 0.930 . S
C927 C920 1.409 . S
C927 C926 1.362 . S
H928 C934 0.930 . S
H929 C937 0.930 . S
H930 C938 0.930 . S
H931 C939 0.930 . S
H932 C942 0.930 1_455 S
H933 C943 0.930 . S
C934 H928 0.930 . S
C934 C935 1.355 . S
C934 C936 1.415 . S
C935 C934 1.355 . S
C935 C937 1.419 . S
C936 C934 1.415 . S
C936 C941 1.425 . S
C936 C943 1.409 . S
C937 H929 0.930 . S
C937 C935 1.419 . S
C937 C938 1.362 . S
C938 H930 0.930 . S
C938 C937 1.362 . S
C938 C941 1.409 . S
C939 H931 0.930 . S
C939 C940 1.355 . S
C939 C941 1.415 . S
C940 C939 1.355 . S
C940 C942 1.419 . S
C941 C936 1.425 . S
C941 C938 1.409 . S
C941 C939 1.415 . S
C942 H932 0.930 1_655 S
C942 C940 1.419 . S
C942 C943 1.362 . S
C943 H933 0.930 . S
C943 C936 1.409 . S
C943 C942 1.362 . S
H944 C950 0.930 . S
H945 C953 0.930 . S
H946 C954 0.930 . S
H947 C955 0.930 . S
H948 C958 0.930 . S
H949 C959 0.930 . S
C950 H944 0.930 . S
C950 C951 1.355 . S
C950 C952 1.415 . S
C951 C950 1.355 . S
C951 C953 1.419 . S
C952 C950 1.415 . S
C952 C957 1.425 . S
C952 C959 1.409 . S
C953 H945 0.930 . S
C953 C951 1.419 . S
C953 C954 1.362 . S
C954 H946 0.930 . S
C954 C953 1.362 . S
C954 C957 1.409 . S
C955 H947 0.930 . S
C955 C956 1.355 . S
C955 C957 1.415 . S
C956 C955 1.355 . S
C956 C958 1.419 . S
C957 C952 1.425 . S
C957 C954 1.409 . S
C957 C955 1.415 . S
C958 H948 0.930 . S
C958 C956 1.419 . S
C958 C959 1.362 . S
C959 H949 0.930 . S
C959 C952 1.409 . S
C959 C958 1.362 . S
H960 C966 0.930 . S
H961 C969 0.930 . S
H962 C970 0.930 . S
H963 C971 0.930 . S
H964 C974 0.930 . S
H965 C975 0.930 . S
C966 H960 0.930 . S
C966 C967 1.355 . S
C966 C968 1.415 . S
C967 C966 1.355 . S
C967 C969 1.419 . S
C968 C966 1.415 . S
C968 C973 1.425 . S
C968 C975 1.409 . S
C969 H961 0.930 . S
C969 C967 1.419 . S
C969 C970 1.362 . S
C970 H962 0.930 . S
C970 C969 1.362 . S
C970 C973 1.409 . S
C971 H963 0.930 . S
C971 C972 1.355 . S
C971 C973 1.415 . S
C972 C971 1.355 . S
C972 C974 1.419 . S
C973 C968 1.425 . S
C973 C970 1.409 . S
C973 C971 1.415 . S
C974 H964 0.930 . S
C974 C972 1.419 . S
C974 C975 1.362 . S
C975 H965 0.930 . S
C975 C968 1.409 . S
C975 C974 1.362 . S
H976 C982 0.930 1_554 S
H977 C985 0.930 . S
H978 C986 0.930 . S
H979 C987 0.930 . S
H980 C990 0.930 . S
H981 C991 0.930 . S
C982 H976 0.930 1_556 S
C982 C983 1.355 . S
C982 C984 1.415 1_556 S
C983 C982 1.355 . S
C983 C985 1.419 . S
C984 C982 1.415 1_554 S
C984 C989 1.425 1_554 S
C984 C991 1.409 . S
C985 H977 0.930 . S
C985 C983 1.419 . S
C985 C986 1.362 . S
C986 H978 0.930 . S
C986 C985 1.362 . S
C986 C989 1.409 . S
C987 H979 0.930 . S
C987 C988 1.355 1_556 S
C987 C989 1.415 . S
C988 C987 1.355 1_554 S
C988 C990 1.419 . S
C989 C984 1.425 1_556 S
C989 C986 1.409 . S
C989 C987 1.415 . S
C990 H980 0.930 . S
C990 C988 1.419 . S
C990 C991 1.362 . S
C991 H981 0.930 . S
C991 C984 1.409 . S
C991 C990 1.362 . S
H992 C998 0.930 . S
H993 C1001 0.930 . S
H994 C1002 0.930 . S
H995 C1003 0.930 . S
H996 C1006 0.930 . S
H997 C1007 0.930 . S
C998 H992 0.930 . S
C998 C999 1.355 . S
C998 C1000 1.415 . S
C999 C998 1.355 . S
C999 C1001 1.419 1_554 S
C1000 C998 1.415 . S
C1000 C1005 1.425 1_554 S
C1000 C1007 1.409 . S
C1001 H993 0.930 . S
C1001 C999 1.419 1_556 S
C1001 C1002 1.362 . S
C1002 H994 0.930 . S
C1002 C1001 1.362 . S
C1002 C1005 1.409 . S
C1003 H995 0.930 . S
C1003 C1004 1.355 . S
C1003 C1005 1.415 . S
C1004 C1003 1.355 . S
C1004 C1006 1.419 1_556 S
C1005 C1000 1.425 1_556 S
C1005 C1002 1.409 . S
C1005 C1003 1.415 . S
C1006 H996 0.930 . S
C1006 C1004 1.419 1_554 S
C1006 C1007 1.362 . S
C1007 H997 0.930 . S
C1007 C1000 1.409 . S
C1007 C1006 1.362 . S
H1008 C1014 0.930 . S
H1009 C1017 0.930 . S
H1010 C1018 0.930 . S
H1011 C1019 0.930 . S
H1012 C1022 0.930 . S
H1013 C1023 0.930 . S
C1014 H1008 0.930 . S
C1014 C1015 1.355 . S
C1014 C1016 1.415 . S
C1015 C1014 1.355 . S
C1015 C1017 1.419 1_554 S
C1016 C1014 1.415 . S
C1016 C1021 1.425 1_554 S
C1016 C1023 1.409 . S
C1017 H1009 0.930 . S
C1017 C1015 1.419 1_556 S
C1017 C1018 1.362 . S
C1018 H1010 0.930 . S
C1018 C1017 1.362 . S
C1018 C1021 1.409 . S
C1019 H1011 0.930 . S
C1019 C1020 1.355 . S
C1019 C1021 1.415 . S
C1020 C1019 1.355 . S
C1020 C1022 1.419 . S
C1021 C1016 1.425 1_556 S
C1021 C1018 1.409 . S
C1021 C1019 1.415 . S
C1022 H1012 0.930 . S
C1022 C1020 1.419 . S
C1022 C1023 1.362 1_556 S
C1023 H1013 0.930 . S
C1023 C1016 1.409 . S
C1023 C1022 1.362 1_554 S
H1024 C1030 0.930 . S
H1025 C1033 0.929 1_556 S
H1026 C1034 0.930 . S
H1027 C1035 0.930 . S
H1028 C1038 0.930 . S
H1029 C1039 0.930 . S
C1030 H1024 0.930 . S
C1030 C1031 1.355 . S
C1030 C1032 1.415 . S
C1031 C1030 1.355 . S
C1031 C1033 1.421 . S
C1032 C1030 1.415 . S
C1032 C1037 1.425 1_554 S
C1032 C1039 1.409 . S
C1033 H1025 0.929 1_554 S
C1033 C1031 1.421 . S
C1033 C1034 1.361 1_554 S
C1034 H1026 0.930 . S
C1034 C1033 1.361 1_556 S
C1034 C1037 1.409 . S
C1035 H1027 0.930 . S
C1035 C1036 1.355 . S
C1035 C1037 1.415 . S
C1036 C1035 1.355 . S
C1036 C1038 1.419 1_556 S
C1037 C1032 1.425 1_556 S
C1037 C1034 1.409 . S
C1037 C1035 1.415 . S
C1038 H1028 0.930 . S
C1038 C1036 1.419 1_554 S
C1038 C1039 1.362 . S
C1039 H1029 0.930 . S
C1039 C1032 1.409 . S
C1039 C1038 1.362 . S
H1040 C1046 0.930 . S
H1041 C1049 0.930 . S
H1042 C1050 0.930 . S
H1043 C1051 0.930 . S
H1044 C1054 0.930 . S
H1045 C1055 0.930 . S
C1046 H1040 0.930 . S
C1046 C1047 1.355 . S
C1046 C1048 1.415 . S
C1047 C1046 1.355 . S
C1047 C1049 1.419 . S
C1048 C1046 1.415 . S
C1048 C1053 1.425 . S
C1048 C1055 1.409 . S
C1049 H1041 0.930 . S
C1049 C1047 1.419 . S
C1049 C1050 1.362 . S
C1050 H1042 0.930 . S
C1050 C1049 1.362 . S
C1050 C1053 1.409 . S
C1051 H1043 0.930 . S
C1051 C1052 1.355 . S
C1051 C1053 1.415 . S
C1052 C1051 1.355 . S
C1052 C1054 1.419 . S
C1053 C1048 1.425 . S
C1053 C1050 1.409 . S
C1053 C1051 1.415 . S
C1054 H1044 0.930 . S
C1054 C1052 1.419 . S
C1054 C1055 1.362 . S
C1055 H1045 0.930 . S
C1055 C1048 1.409 . S
C1055 C1054 1.362 . S
H1056 C1062 0.930 . S
H1057 C1065 0.930 . S
H1058 C1066 0.930 . S
H1059 C1067 0.930 . S
H1060 C1070 0.930 . S
H1061 C1071 0.930 . S
C1062 H1056 0.930 . S
C1062 C1063 1.355 . S
C1062 C1064 1.415 . S
C1063 C1062 1.355 . S
C1063 C1065 1.419 . S
C1064 C1062 1.415 . S
C1064 C1069 1.425 . S
C1064 C1071 1.409 . S
C1065 H1057 0.930 . S
C1065 C1063 1.419 . S
C1065 C1066 1.362 . S
C1066 H1058 0.930 . S
C1066 C1065 1.362 . S
C1066 C1069 1.409 . S
C1067 H1059 0.930 . S
C1067 C1068 1.355 . S
C1067 C1069 1.415 . S
C1068 C1067 1.355 . S
C1068 C1070 1.419 . S
C1069 C1064 1.425 . S
C1069 C1066 1.409 . S
C1069 C1067 1.415 . S
C1070 H1060 0.930 . S
C1070 C1068 1.419 . S
C1070 C1071 1.362 . S
C1071 H1061 0.930 . S
C1071 C1064 1.409 . S
C1071 C1070 1.362 . S
H1072 C1078 0.930 . S
H1073 C1081 0.930 . S
H1074 C1082 0.930 . S
H1075 C1083 0.930 . S
H1076 C1086 0.930 . S
H1077 C1087 0.930 . S
C1078 H1072 0.930 . S
C1078 C1079 1.355 . S
C1078 C1080 1.415 . S
C1079 C1078 1.355 . S
C1079 C1081 1.419 . S
C1080 C1078 1.415 . S
C1080 C1085 1.425 . S
C1080 C1087 1.409 . S
C1081 H1073 0.930 . S
C1081 C1079 1.419 . S
C1081 C1082 1.362 . S
C1082 H1074 0.930 . S
C1082 C1081 1.362 . S
C1082 C1085 1.409 . S
C1083 H1075 0.930 . S
C1083 C1084 1.355 . S
C1083 C1085 1.415 . S
C1084 C1083 1.355 . S
C1084 C1086 1.419 . S
C1085 C1080 1.425 . S
C1085 C1082 1.409 . S
C1085 C1083 1.415 . S
C1086 H1076 0.930 . S
C1086 C1084 1.419 . S
C1086 C1087 1.362 . S
C1087 H1077 0.930 . S
C1087 C1080 1.409 . S
C1087 C1086 1.362 . S
H1088 C1094 0.930 . S
H1089 C1097 0.930 . S
H1090 C1098 0.930 . S
H1091 C1099 0.930 . S
H1092 C1102 0.930 . S
H1093 C1103 0.930 . S
C1094 H1088 0.930 . S
C1094 C1095 1.355 . S
C1094 C1096 1.415 . S
C1095 C1094 1.355 . S
C1095 C1097 1.419 . S
C1096 C1094 1.415 . S
C1096 C1101 1.425 . S
C1096 C1103 1.409 . S
C1097 H1089 0.930 . S
C1097 C1095 1.419 . S
C1097 C1098 1.362 . S
C1098 H1090 0.930 . S
C1098 C1097 1.362 . S
C1098 C1101 1.409 . S
C1099 H1091 0.930 . S
C1099 C1100 1.355 . S
C1099 C1101 1.415 . S
C1100 C1099 1.355 . S
C1100 C1102 1.419 . S
C1101 C1096 1.425 . S
C1101 C1098 1.409 . S
C1101 C1099 1.415 . S
C1102 H1092 0.930 . S
C1102 C1100 1.419 . S
C1102 C1103 1.362 . S
C1103 H1093 0.930 . S
C1103 C1096 1.409 . S
C1103 C1102 1.362 . S
H1104 C1110 0.930 . S
H1105 C1113 0.930 . S
H1106 C1114 0.930 . S
H1107 C1115 0.930 . S
H1108 C1118 0.930 . S
H1109 C1119 0.930 . S
C1110 H1104 0.930 . S
C1110 C1111 1.355 . S
C1110 C1112 1.415 . S
C1111 C1110 1.355 . S
C1111 C1113 1.419 . S
C1112 C1110 1.415 . S
C1112 C1117 1.425 . S
C1112 C1119 1.409 . S
C1113 H1105 0.930 . S
C1113 C1111 1.419 . S
C1113 C1114 1.362 . S
C1114 H1106 0.930 . S
C1114 C1113 1.362 . S
C1114 C1117 1.409 . S
C1115 H1107 0.930 . S
C1115 C1116 1.355 . S
C1115 C1117 1.415 . S
C1116 C1115 1.355 . S
C1116 C1118 1.419 . S
C1117 C1112 1.425 . S
C1117 C1114 1.409 . S
C1117 C1115 1.415 . S
C1118 H1108 0.930 . S
C1118 C1116 1.419 . S
C1118 C1119 1.362 . S
C1119 H1109 0.930 . S
C1119 C1112 1.409 . S
C1119 C1118 1.362 . S
H1120 C1126 0.930 . S
H1121 C1129 0.930 . S
H1122 C1130 0.930 . S
H1123 C1131 0.930 . S
H1124 C1134 0.930 1_655 S
H1125 C1135 0.930 . S
C1126 H1120 0.930 . S
C1126 C1127 1.355 . S
C1126 C1128 1.415 . S
C1127 C1126 1.355 . S
C1127 C1129 1.419 . S
C1128 C1126 1.415 . S
C1128 C1133 1.425 . S
C1128 C1135 1.409 . S
C1129 H1121 0.930 . S
C1129 C1127 1.419 . S
C1129 C1130 1.362 . S
C1130 H1122 0.930 . S
C1130 C1129 1.362 . S
C1130 C1133 1.409 . S
C1131 H1123 0.930 . S
C1131 C1132 1.355 . S
C1131 C1133 1.415 . S
C1132 C1131 1.355 . S
C1132 C1134 1.419 . S
C1133 C1128 1.425 . S
C1133 C1130 1.409 . S
C1133 C1131 1.415 . S
C1134 H1124 0.930 1_455 S
C1134 C1132 1.419 . S
C1134 C1135 1.362 . S
C1135 H1125 0.930 . S
C1135 C1128 1.409 . S
C1135 C1134 1.362 . S
H1136 C1142 0.930 . S
H1137 C1145 0.930 . S
H1138 C1146 0.930 . S
H1139 C1147 0.930 . S
H1140 C1150 0.930 . S
H1141 C1151 0.930 . S
C1142 H1136 0.930 . S
C1142 C1143 1.355 . S
C1142 C1144 1.415 . S
C1143 C1142 1.355 . S
C1143 C1145 1.419 . S
C1144 C1142 1.415 . S
C1144 C1149 1.425 . S
C1144 C1151 1.409 . S
C1145 H1137 0.930 . S
C1145 C1143 1.419 . S
C1145 C1146 1.362 . S
C1146 H1138 0.930 . S
C1146 C1145 1.362 . S
C1146 C1149 1.409 . S
C1147 H1139 0.930 . S
C1147 C1148 1.355 . S
C1147 C1149 1.415 . S
C1148 C1147 1.355 . S
C1148 C1150 1.419 . S
C1149 C1144 1.425 . S
C1149 C1146 1.409 . S
C1149 C1147 1.415 . S
C1150 H1140 0.930 . S
C1150 C1148 1.419 . S
C1150 C1151 1.362 . S
C1151 H1141 0.930 . S
C1151 C1144 1.409 . S
C1151 C1150 1.362 . S
H1152 C1158 0.930 . S
H1153 C1161 0.930 . S
H1154 C1162 0.930 . S
H1155 C1163 0.930 . S
H1156 C1166 0.930 . S
H1157 C1167 0.930 . S
C1158 H1152 0.930 . S
C1158 C1159 1.355 . S
C1158 C1160 1.415 . S
C1159 C1158 1.355 . S
C1159 C1161 1.419 . S
C1160 C1158 1.415 . S
C1160 C1165 1.425 . S
C1160 C1167 1.409 . S
C1161 H1153 0.930 . S
C1161 C1159 1.419 . S
C1161 C1162 1.362 . S
C1162 H1154 0.930 . S
C1162 C1161 1.362 . S
C1162 C1165 1.409 . S
C1163 H1155 0.930 . S
C1163 C1164 1.355 . S
C1163 C1165 1.415 . S
C1164 C1163 1.355 . S
C1164 C1166 1.419 . S
C1165 C1160 1.425 . S
C1165 C1162 1.409 . S
C1165 C1163 1.415 . S
C1166 H1156 0.930 . S
C1166 C1164 1.419 . S
C1166 C1167 1.362 . S
C1167 H1157 0.930 . S
C1167 C1160 1.409 . S
C1167 C1166 1.362 . S
C535 C8 1.094 . S
C540 C470 1.094 . S
C551 C503 1.101 . S
C556 C41 1.089 . S
C567 C404 1.088 . S
C572 C74 1.103 . S
C583 C107 1.101 . S
C588 C437 1.097 . S
C599 C140 1.096 . S
C604 C338 1.093 . S
C615 C371 1.093 . S
C620 C173 1.096 . S
C631 C206 1.093 . S
C636 C272 1.104 . S
C647 C305 1.099 . S
C652 C239 1.091 . S
C663 N137 1.341 . S
C668 N5 1.349 . S
C679 N38 1.380 . S
C684 N170 1.368 . S
C695 N71 1.340 . S
C700 N203 1.350 . S
C711 N104 1.377 . S
C716 N236 1.374 . S
C727 N401 1.371 . S
C732 N269 1.342 . S
C743 N434 1.340 . S
C748 N302 1.368 . S
C759 N335 1.339 . S
C764 N467 1.355 . S
C775 N368 1.378 . S
C780 N500 1.372 . S
C791 C17 1.525 1_556 S
C796 C479 1.525 . S
C807 C512 1.563 . S
C812 C50 1.531 1_554 S
C823 C83 1.565 1_556 S
C828 C413 1.535 . S
C839 C446 1.566 . S
C844 C116 1.539 1_554 S
C855 C347 1.561 . S
C860 C149 1.556 . S
C871 C380 1.534 . S
C876 C182 1.519 . S
C887 C215 1.562 . S
C892 C281 1.554 . S
C903 C248 1.529 . S
C908 C314 1.562 . S
C919 N14 1.585 1_565 S
C924 C391 1.600 . S
C935 C292 1.584 . S
C940 N47 1.543 1_655 S
C951 N80 1.560 1_545 S
C956 C325 1.622 . S
C967 C358 1.621 . S
C972 N113 1.562 1_455 S
C983 C193 1.621 . S
C988 N146 1.565 . S
C999 C226 1.597 . S
C1004 N179 1.583 . S
C1015 N212 1.535 . S
C1020 C259 1.585 . S
C1031 C160 1.601 . S
C1036 N245 1.585 . S
C1047 C127 1.621 . S
C1052 N278 1.533 . S
C1063 N311 1.582 . S
C1068 C28 1.612 . S
C1079 N344 1.563 . S
C1084 C61 1.621 . S
C1095 C94 1.592 . S
C1100 N377 1.517 . S
C1111 C457 1.599 . S
C1116 N410 1.584 1_545 S
C1127 C490 1.587 . S
C1132 N443 1.528 1_455 S
C1143 C523 1.587 . S
C1148 N476 1.566 1_565 S
C1159 N509 1.535 1_655 S
C1164 C424 1.621 . S
