# Generated by pormake.
# Topology wjg, (4)-cn, num edge types: 1
# Building blocks:
#     Node 0, Type 0, BuildingBlock: TATPOV_clean_sbu_0, # of connection points: 4
#     Node 1, Type 0, BuildingBlock: TATPOV_clean_sbu_0, # of connection points: 4
#     Node 2, Type 0, BuildingBlock: TATPOV_clean_sbu_0, # of connection points: 4
#     Node 3, Type 0, BuildingBlock: TATPOV_clean_sbu_0, # of connection points: 4
#     Node 4, Type 0, BuildingBlock: TATPOV_clean_sbu_0, # of connection points: 4
#     Node 5, Type 0, BuildingBlock: TATPOV_clean_sbu_0, # of connection points: 4
#     Node 6, Type 0, BuildingBlock: TATPOV_clean_sbu_0, # of connection points: 4
#     Node 7, Type 0, BuildingBlock: TATPOV_clean_sbu_0, # of connection points: 4
#     Node 8, Type 0, BuildingBlock: TATPOV_clean_sbu_0, # of connection points: 4
#     Node 9, Type 0, BuildingBlock: TATPOV_clean_sbu_0, # of connection points: 4
#     Node 10, Type 0, BuildingBlock: TATPOV_clean_sbu_0, # of connection points: 4
#     Node 11, Type 0, BuildingBlock: TATPOV_clean_sbu_0, # of connection points: 4
#     Edge 12, Type (0, 0), BuildingBlock: CIFDUS_clean_linker_0, # of connection points: 2
#     Edge 13, Type (0, 0), BuildingBlock: CIFDUS_clean_linker_0, # of connection points: 2
#     Edge 14, Type (0, 0), BuildingBlock: CIFDUS_clean_linker_0, # of connection points: 2
#     Edge 15, Type (0, 0), BuildingBlock: CIFDUS_clean_linker_0, # of connection points: 2
#     Edge 16, Type (0, 0), BuildingBlock: CIFDUS_clean_linker_0, # of connection points: 2
#     Edge 17, Type (0, 0), BuildingBlock: CIFDUS_clean_linker_0, # of connection points: 2
#     Edge 18, Type (0, 0), BuildingBlock: CIFDUS_clean_linker_0, # of connection points: 2
#     Edge 19, Type (0, 0), BuildingBlock: CIFDUS_clean_linker_0, # of connection points: 2
#     Edge 20, Type (0, 0), BuildingBlock: CIFDUS_clean_linker_0, # of connection points: 2
#     Edge 21, Type (0, 0), BuildingBlock: CIFDUS_clean_linker_0, # of connection points: 2
#     Edge 22, Type (0, 0), BuildingBlock: CIFDUS_clean_linker_0, # of connection points: 2
#     Edge 23, Type (0, 0), BuildingBlock: CIFDUS_clean_linker_0, # of connection points: 2
#     Edge 24, Type (0, 0), BuildingBlock: CIFDUS_clean_linker_0, # of connection points: 2
#     Edge 25, Type (0, 0), BuildingBlock: CIFDUS_clean_linker_0, # of connection points: 2
#     Edge 26, Type (0, 0), BuildingBlock: CIFDUS_clean_linker_0, # of connection points: 2
#     Edge 27, Type (0, 0), BuildingBlock: CIFDUS_clean_linker_0, # of connection points: 2
#     Edge 28, Type (0, 0), BuildingBlock: CIFDUS_clean_linker_0, # of connection points: 2
#     Edge 29, Type (0, 0), BuildingBlock: CIFDUS_clean_linker_0, # of connection points: 2
#     Edge 30, Type (0, 0), BuildingBlock: CIFDUS_clean_linker_0, # of connection points: 2
#     Edge 31, Type (0, 0), BuildingBlock: CIFDUS_clean_linker_0, # of connection points: 2
#     Edge 32, Type (0, 0), BuildingBlock: CIFDUS_clean_linker_0, # of connection points: 2
#     Edge 33, Type (0, 0), BuildingBlock: CIFDUS_clean_linker_0, # of connection points: 2
#     Edge 34, Type (0, 0), BuildingBlock: CIFDUS_clean_linker_0, # of connection points: 2
#     Edge 35, Type (0, 0), BuildingBlock: CIFDUS_clean_linker_0, # of connection points: 2
# Relax obj value: 0.287
# Max RMSD: 0.117
# Mean RMSD: 0.115
data_MOF--net-wjg--node1-TATPOV_clean_sbu_0--edge1-CIFDUS_clean_linker_0
_symmetry_space_group_name_H-M    P1
_symmetry_Int_Tables_number       1
_symmetry_cell_setting            triclinic
loop_
_symmetry_equiv_pos_as_xyz
'x, y, z'
_cell_length_a     31.298454
_cell_length_b     31.133968
_cell_length_c     31.808736
_cell_angle_alpha  89.778673
_cell_angle_beta   89.937077
_cell_angle_gamma 120.24232
loop_
_atom_site_label
_atom_site_type_symbol
_atom_site_fract_x
_atom_site_fract_y
_atom_site_fract_z
_atom_type_partial_charge
Zn0 Zn 0.16667 0.35212 0.41905 0.0
Zn1 Zn 0.13625 0.35934 0.34708 0.0
O2 O 0.19307 0.42878 0.34293 0.0
O3 O 0.20229 0.42953 0.41165 0.0
O4 O 0.09657 0.34248 0.29321 0.0
O5 O 0.20618 0.32254 0.40692 0.0
O6 O 0.16353 0.30879 0.34815 0.0
C7 C 0.21264 0.45254 0.3766 0.0
C8 C 0.08404 0.32852 0.42257 0.0
O9 O 0.09646 0.36455 0.39767 0.0
O10 O 0.09285 0.29627 0.40851 0.0
C11 C 0.07693 0.36459 0.27477 0.0
O12 O 0.07985 0.40431 0.29191 0.0
C13 C 0.19131 0.30024 0.37227 0.0
Zn14 Zn 0.8204 0.29338 0.60979 0.0
Zn15 Zn 0.7743 0.20962 0.63246 0.0
O16 O 0.7311 0.24235 0.62191 0.0
O17 O 0.77147 0.30333 0.57702 0.0
O18 O 0.73283 0.13648 0.61478 0.0
O19 O 0.88501 0.30508 0.5879 0.0
O20 O 0.84655 0.23097 0.61684 0.0
C21 C 0.73272 0.27611 0.59807 0.0
C22 C 0.81215 0.2698 0.70289 0.0
O23 O 0.7888 0.22356 0.69378 0.0
O24 O 0.82428 0.30258 0.67426 0.0
C25 C 0.71002 0.12981 0.58004 0.0
O26 O 0.71335 0.16872 0.56065 0.0
C27 C 0.88606 0.26769 0.60227 0.0
Zn28 Zn 0.62554 0.84465 0.06051 0.0
Zn29 Zn 0.63017 0.78599 0.0163 0.0
O30 O 0.55854 0.77127 0.00634 0.0
O31 O 0.55101 0.8042 0.06475 0.0
O32 O 0.64053 0.7411 0.97534 0.0
O33 O 0.65735 0.90376 0.02463 0.0
O34 O 0.68726 0.85818 0.00037 0.0
C35 C 0.5313 0.77747 0.03273 0.0
C36 C 0.65296 0.79342 0.10834 0.0
O37 O 0.6305 0.76358 0.07819 0.0
O38 O 0.67189 0.83921 0.10113 0.0
C39 C 0.62183 0.73466 0.93868 0.0
O40 O 0.5954 0.75542 0.92945 0.0
C41 C 0.69013 0.90042 0.00419 0.0
Zn42 Zn 0.83241 0.6779 0.36854 0.0
Zn43 Zn 0.84431 0.62977 0.3249 0.0
O44 O 0.78777 0.56218 0.32947 0.0
O45 O 0.76674 0.60352 0.37332 0.0
O46 O 0.89494 0.63191 0.28252 0.0
O47 O 0.83311 0.7306 0.33353 0.0
O48 O 0.80312 0.66168 0.29847 0.0
C49 C 0.75718 0.56252 0.35574 0.0
C50 C 0.87808 0.65994 0.4195 0.0
O51 O 0.86402 0.62871 0.38932 0.0
O52 O 0.88696 0.70315 0.41097 0.0
C53 C 0.91963 0.66932 0.2584 0.0
O54 O 0.91327 0.70779 0.26186 0.0
C55 C 0.8051 0.70317 0.30491 0.0
Zn56 Zn 0.08404 0.7369 0.67288 0.0
Zn57 Zn 0.17734 0.79983 0.6029 0.0
O58 O 0.18154 0.7371 0.60639 0.0
O59 O 0.11766 0.69676 0.65079 0.0
O60 O 0.22763 0.85167 0.56079 0.0
O61 O 0.09028 0.79636 0.63848 0.0
O62 O 0.10584 0.77364 0.5798 0.0
C63 C 0.15226 0.69856 0.62803 0.0
C64 C 0.16547 0.82801 0.68972 0.0
O65 O 0.19556 0.82513 0.66469 0.0
O66 O 0.123 0.81447 0.67508 0.0
C67 C 0.24479 0.89809 0.56648 0.0
O68 O 0.23114 0.91216 0.60036 0.0
C69 C 0.07449 0.77652 0.60309 0.0
Zn70 Zn 0.48778 0.15402 0.92402 0.0
Zn71 Zn 0.46262 0.21992 0.91866 0.0
O72 O 0.53847 0.25571 0.90124 0.0
O73 O 0.55431 0.19436 0.9011 0.0
O74 O 0.43777 0.2676 0.90303 0.0
O75 O 0.43674 0.10345 0.88743 0.0
O76 O 0.40696 0.15369 0.89252 0.0
C77 C 0.56848 0.23967 0.89532 0.0
C78 C 0.4637 0.18 0.00471 0.0
O79 O 0.45665 0.21025 0.98266 0.0
O80 O 0.47693 0.15204 0.98716 0.0
C81 C 0.44802 0.28934 0.86732 0.0
O82 O 0.47815 0.28387 0.84204 0.0
C83 C 0.4022 0.11232 0.88097 0.0
Zn84 Zn 0.47606 0.71472 0.30696 0.0
Zn85 Zn 0.54132 0.80992 0.38373 0.0
O86 O 0.47542 0.75147 0.40788 0.0
O87 O 0.44416 0.74501 0.34606 0.0
O88 O 0.5738 0.86483 0.42801 0.0
O89 O 0.54705 0.72547 0.31746 0.0
O90 O 0.58599 0.7827 0.36758 0.0
C91 C 0.43808 0.73021 0.38393 0.0
C92 C 0.51336 0.81614 0.30004 0.0
O93 O 0.54283 0.84463 0.3278 0.0
O94 O 0.4737 0.77942 0.3138 0.0
C95 C 0.55773 0.89511 0.42932 0.0
O96 O 0.52159 0.88765 0.40387 0.0
C97 C 0.58489 0.75182 0.34042 0.0
Zn98 Zn 0.7 0.4903 0.5931 0.0
Zn99 Zn 0.69192 0.55927 0.681 0.0
O100 O 0.65685 0.48333 0.69459 0.0
O101 O 0.63799 0.47383 0.62934 0.0
O102 O 0.6831 0.59457 0.73169 0.0
O103 O 0.77127 0.54358 0.61454 0.0
O104 O 0.76425 0.58141 0.67204 0.0
C105 C 0.63815 0.45377 0.66396 0.0
C106 C 0.67131 0.56046 0.59409 0.0
O107 O 0.68124 0.58861 0.62562 0.0
O108 O 0.6499 0.51439 0.60247 0.0
C109 C 0.64349 0.5965 0.73392 0.0
O110 O 0.611 0.57645 0.7035 0.0
C111 C 0.79052 0.57507 0.64448 0.0
Zn112 Zn 0.21619 0.74786 0.93063 0.0
Zn113 Zn 0.17609 0.756 -0.00468 0.0
O114 O 0.2303 0.73751 0.01507 0.0
O115 O 0.26996 0.74363 0.95613 0.0
O116 O 0.13089 0.74751 0.04537 0.0
O117 O 0.22565 0.8166 0.91656 0.0
O118 O 0.21146 0.82965 0.9818 0.0
C119 C 0.26562 0.73659 -0.00468 0.0
C120 C 0.12872 0.70099 0.91211 0.0
O121 O 0.13137 0.72976 0.94165 0.0
O122 O 0.1566 0.68286 0.91447 0.0
C123 C 0.10694 0.70943 0.06896 0.0
O124 O 0.11047 0.66974 0.06211 0.0
C125 C 0.22479 0.84543 0.94428 0.0
Zn126 Zn 0.46685 0.24896 0.29057 0.0
Zn127 Zn 0.4448 0.1857 0.33896 0.0
O128 O 0.51211 0.24828 0.36032 0.0
O129 O 0.50044 0.30502 0.3304 0.0
O130 O 0.42023 0.12893 0.38305 0.0
O131 O 0.39874 0.22921 0.27204 0.0
O132 O 0.38546 0.19798 0.3357 0.0
C133 C 0.52436 0.29406 0.35586 0.0
C134 C 0.48132 0.18284 0.25163 0.0
O135 O 0.45009 0.15789 0.2805 0.0
O136 O 0.50704 0.22943 0.25533 0.0
C137 C 0.40718 0.13713 0.41874 0.0
O138 O 0.41371 0.18163 0.42574 0.0
C139 C 0.37041 0.21111 0.30345 0.0
Zn140 Zn 0.13891 0.35873 0.65684 0.0
Zn141 Zn 0.22812 0.41141 0.71502 0.0
O142 O 0.23603 0.478 0.70495 0.0
O143 O 0.17017 0.4377 0.66363 0.0
O144 O 0.27869 0.40645 0.75282 0.0
O145 O 0.14384 0.31393 0.70373 0.0
O146 O 0.15807 0.37511 0.74267 0.0
C147 C 0.20385 0.47816 0.68028 0.0
C148 C 0.20905 0.34999 0.64118 0.0
O149 O 0.2364 0.39407 0.65379 0.0
O150 O 0.17751 0.32084 0.66757 0.0
C151 C 0.31958 0.41451 0.73714 0.0
O152 O 0.33018 0.43077 0.69819 0.0
C153 C 0.12676 0.33219 0.72959 0.0
Zn154 Zn 0.90904 0.24572 0.88672 0.0
Zn155 Zn 0.90862 0.29257 0.96732 0.0
O156 O 0.84653 0.2907 0.94767 0.0
O157 O 0.85191 0.26255 0.88501 0.0
O158 O 0.92745 0.3188 0.02695 0.0
O159 O 0.88714 0.18019 0.91097 0.0
O160 O 0.89022 0.21756 0.97079 0.0
C161 C 0.83093 0.27823 0.9101 0.0
C162 C 0.98018 0.334 0.89969 0.0
O163 O 0.96006 0.34644 0.9278 0.0
O164 O 0.97904 0.29372 0.90674 0.0
C165 C 0.95541 0.30604 0.04554 0.0
O166 O 0.96933 0.27853 0.02508 0.0
C167 C 0.88214 0.17866 0.95048 0.0
H168 H 0.28072 0.50975 0.43573 0.0
H169 H 0.22453 0.51665 0.31345 0.0
H170 H 0.28617 0.60468 0.30785 0.0
H171 H 0.35866 0.67753 0.33496 0.0
H172 H 0.42026 0.67149 0.45468 0.0
H173 H 0.35298 0.58531 0.46449 0.0
C174 C 0.28174 0.53069 0.40805 0.0
C175 C 0.24826 0.50658 0.37489 0.0
C176 C 0.31811 0.58127 0.40461 0.0
C177 C 0.25012 0.53414 0.33919 0.0
C178 C 0.28528 0.58451 0.336 0.0
C179 C 0.35743 0.65765 0.36345 0.0
C180 C 0.39483 0.6808 0.39385 0.0
C181 C 0.31989 0.60811 0.36813 0.0
C182 C 0.39208 0.65453 0.43073 0.0
C183 C 0.35377 0.6052 0.4362 0.0
H184 H 0.70625 0.29611 0.67217 0.0
H185 H 0.68407 0.29813 0.53865 0.0
H186 H 0.64204 0.34564 0.54971 0.0
H187 H 0.62458 0.3972 0.59566 0.0
H188 H 0.66022 0.40774 0.72773 0.0
H189 H 0.68278 0.34343 0.71939 0.0
C190 C 0.69067 0.30565 0.64573 0.0
C191 C 0.69742 0.29335 0.60469 0.0
C192 C 0.66977 0.33576 0.65217 0.0
C193 C 0.67864 0.30693 0.57042 0.0
C194 C 0.65504 0.33432 0.57679 0.0
C195 C 0.63672 0.38514 0.62289 0.0
C196 C 0.64189 0.4082 0.66212 0.0
C197 C 0.65239 0.35067 0.6173 0.0
C198 C 0.65662 0.3912 0.69709 0.0
C199 C 0.66972 0.35461 0.69226 0.0
H200 H 0.46468 0.78731 0.08132 0.0
H201 H 0.47694 0.71919 0.96731 0.0
H202 H 0.39098 0.69169 0.95054 0.0
H203 H 0.31678 0.69659 0.96319 0.0
H204 H 0.30495 0.7692 0.07405 0.0
H205 H 0.38576 0.78378 0.09804 0.0
C206 C 0.44842 0.76599 0.05301 0.0
C207 C 0.47763 0.75616 0.02516 0.0
C208 C 0.39903 0.75093 0.04316 0.0
C209 C 0.45567 0.72789 -0.01103 0.0
C210 C 0.40645 0.71206 0.97939 0.0
C211 C 0.33138 0.71465 -0.00686 0.0
C212 C 0.3053 0.73234 0.01663 0.0
C213 C 0.3784 0.72471 0.00556 0.0
C214 C 0.32423 0.75507 0.05553 0.0
C215 C 0.37073 0.76401 0.06888 0.0
H216 H 0.54099 0.38325 0.38264 0.0
H217 H 0.6141 0.29948 0.36036 0.0
H218 H 0.69456 0.37648 0.36063 0.0
H219 H 0.74228 0.46844 0.35603 0.0
H220 H 0.6687 0.55164 0.37976 0.0
H221 H 0.59021 0.47415 0.39002 0.0
C222 C 0.57472 0.38175 0.37933 0.0
C223 C 0.57165 0.3358 0.37134 0.0
C224 C 0.62058 0.42621 0.37857 0.0
C225 C 0.61551 0.33426 0.36704 0.0
C226 C 0.66146 0.37843 0.36646 0.0
C227 C 0.70907 0.46951 0.36376 0.0
C228 C 0.71096 0.51566 0.36605 0.0
C229 C 0.66417 0.42474 0.37025 0.0
C230 C 0.66804 0.51661 0.37725 0.0
C231 C 0.62318 0.47231 0.38317 0.0
H232 H 0.23167 0.6933 0.65548 0.0
H233 H 0.08512 0.60543 0.60457 0.0
H234 H 0.08924 0.5296 0.61441 0.0
H235 H 0.13208 0.48797 0.64145 0.0
H236 H 0.27643 0.57418 0.69746 0.0
H237 H 0.27559 0.6509 0.68204 0.0
C238 C 0.20123 0.65755 0.64579 0.0
C239 C 0.1585 0.65472 0.62859 0.0
C240 C 0.20317 0.61386 0.65311 0.0
C241 C 0.11856 0.60828 0.61729 0.0
C242 C 0.12081 0.565 0.62318 0.0
C243 C 0.16361 0.5235 0.65011 0.0
C244 C 0.20429 0.52516 0.67063 0.0
C245 C 0.16254 0.56726 0.64172 0.0
C246 C 0.24454 0.57168 0.68182 0.0
C247 C 0.24414 0.61561 0.67289 0.0
H248 H 0.78479 0.32454 0.94578 0.0
H249 H 0.777 0.23395 0.84024 0.0
H250 H 0.69889 0.22594 0.81892 0.0
H251 H 0.62604 0.2313 0.8376 0.0
H252 H 0.63034 0.31817 0.94409 0.0
H253 H 0.71693 0.34272 0.95667 0.0
C254 C 0.76623 0.30355 0.91788 0.0
C255 C 0.78633 0.27896 0.8953 0.0
C256 C 0.72071 0.29872 0.90571 0.0
C257 C 0.76223 0.25272 0.85868 0.0
C258 C 0.71747 0.24817 0.84628 0.0
C259 C 0.6468 0.2576 0.86227 0.0
C260 C 0.62208 0.27289 0.88989 0.0
C261 C 0.69551 0.26936 0.87045 0.0
C262 C 0.6489 0.30651 0.92205 0.0
C263 C 0.69809 0.31959 0.92981 0.0
H264 H 0.21918 0.28508 0.29535 0.0
H265 H 0.20009 0.23726 0.42484 0.0
H266 H 0.24704 0.19549 0.41246 0.0
H267 H 0.30692 0.18764 0.36899 0.0
H268 H 0.33074 0.23978 0.24045 0.0
H269 H 0.268 0.26365 0.24794 0.0
C270 C 0.22406 0.2641 0.32032 0.0
C271 C 0.2073 0.26487 0.361 0.0
C272 C 0.25271 0.24168 0.31338 0.0
C273 C 0.21362 0.23771 0.39335 0.0
C274 C 0.24052 0.21396 0.38637 0.0
C275 C 0.29755 0.2031 0.34231 0.0
C276 C 0.32444 0.2133 0.30474 0.0
C277 C 0.26249 0.21807 0.34714 0.0
C278 C 0.31127 0.23253 0.27015 0.0
C279 C 0.27545 0.24635 0.27437 0.0
H280 H 0.95407 0.34625 0.64541 0.0
H281 H 0.91817 0.20094 0.6019 0.0
H282 H 0.98467 0.20446 0.64517 0.0
H283 H 0.05273 0.24909 0.69481 0.0
H284 H 0.08838 0.39453 0.73852 0.0
H285 H 0.01977 0.38924 0.69783 0.0
C286 C 0.96191 0.31606 0.64436 0.0
C287 C 0.93277 0.27423 0.6191 0.0
C288 C -0.00153 0.31743 0.67078 0.0
C289 C 0.94139 0.23418 0.61987 0.0
C290 C 0.97866 0.23584 0.64523 0.0
C291 C 0.04478 0.27919 0.69631 0.0
C292 C 0.0762 0.32236 0.71942 0.0
C293 C 0.00699 0.27703 0.67114 0.0
C294 C 0.06501 0.3608 0.72121 0.0
C295 C 0.0264 0.35828 0.69714 0.0
H296 H 0.86121 0.09012 0.9166 0.0
H297 H 0.84766 0.15648 0.03123 0.0
H298 H 0.78954 0.07421 0.05915 0.0
H299 H 0.73398 0.98566 0.04677 0.0
H300 H 0.74562 0.91823 0.93247 0.0
H301 H 0.81343 0.99924 0.90831 0.0
C302 C 0.84631 0.08661 0.94804 0.0
C303 C 0.85791 0.12951 0.97144 0.0
C304 C 0.81197 0.03929 0.96347 0.0
C305 C 0.83901 0.1242 0.01239 0.0
C306 C 0.80546 0.07719 0.02825 0.0
C307 C 0.7516 0.9887 0.01662 0.0
C308 C 0.73428 0.94672 -0.00925 0.0
C309 C 0.79017 0.03489 0.00329 0.0
C310 C 0.75816 0.95043 0.95249 0.0
C311 C 0.79675 0.99661 0.93879 0.0
H312 H 0.59609 0.68145 0.2982 0.0
H313 H 0.67843 0.82364 0.35982 0.0
H314 H 0.7556 0.8264 0.34325 0.0
H315 H 0.79908 0.78541 0.31831 0.0
H316 H 0.7178 0.63845 0.26508 0.0
H317 H 0.64142 0.64196 0.26886 0.0
C318 C 0.63095 0.71296 0.30805 0.0
C319 C 0.63126 0.75171 0.33117 0.0
C320 C 0.67553 0.71395 0.29911 0.0
C321 C 0.67683 0.79263 0.34308 0.0
C322 C 0.72113 0.79458 0.33315 0.0
C323 C 0.76489 0.75442 0.30662 0.0
C324 C 0.76418 0.7114 0.29207 0.0
C325 C 0.72083 0.75504 0.31203 0.0
C326 C 0.71959 0.67206 0.27646 0.0
C327 C 0.67569 0.67369 0.27936 0.0
H328 H 0.00538 0.75646 0.66232 0.0
H329 H 0.02377 0.70764 0.54026 0.0
H330 H 0.93778 0.63846 0.54321 0.0
H331 H 0.85775 0.59167 0.58166 0.0
H332 H 0.84472 0.64089 0.7055 0.0
H333 H 0.92942 0.70913 0.70112 0.0
C334 C 0.99097 0.7309 0.63609 0.0
C335 C 0.02132 0.73739 0.6011 0.0
C336 C 0.94273 0.69061 0.63876 0.0
C337 C 0.00136 0.70372 0.56755 0.0
C338 C 0.95234 0.66393 0.56944 0.0
C339 C 0.87369 0.61684 0.60797 0.0
C340 C 0.84451 0.61104 0.64385 0.0
C341 C 0.92282 0.65671 0.6052 0.0
C342 C 0.86591 0.6443 0.67746 0.0
C343 C 0.91436 0.68366 0.67491 0.0
H344 H 0.32735 0.07675 0.93521 0.0
H345 H 0.37108 0.04871 0.81478 0.0
H346 H 0.30974 0.96021 0.82137 0.0
H347 H 0.26025 0.89036 0.86876 0.0
H348 H 0.22715 0.9181 -0.00583 0.0
H349 H 0.26774 0.00698 0.97862 0.0
C350 C 0.32148 0.05151 0.90952 0.0
C351 C 0.35312 0.06885 0.87444 0.0
C352 C 0.28962 0.00032 0.91543 0.0
C353 C 0.34646 0.03599 0.84173 0.0
C354 C 0.31215 0.98533 0.84596 0.0
C355 C 0.26121 0.9157 0.89255 0.0
C356 C 0.24199 0.89781 0.93301 0.0
C357 C 0.28619 0.96684 0.88392 0.0
C358 C 0.24264 0.93104 0.96311 0.0
C359 C 0.26572 0.98187 0.95418 0.0
H360 H -0.00108 0.26966 0.0964 0.0
H361 H 0.95082 0.37737 0.093 0.0
H362 H 0.98329 0.40466 0.16407 0.0
H363 H 0.02774 0.39923 0.22654 0.0
H364 H 0.07378 0.28965 0.2286 0.0
H365 H 0.03961 0.2619 0.15882 0.0
C366 C 0.99543 0.29912 0.11111 0.0
C367 C 0.97278 0.32167 0.08923 0.0
C368 C 0.01391 0.31437 0.15185 0.0
C369 C 0.96813 0.35938 0.1091 0.0
C370 C 0.98679 0.37507 0.14972 0.0
C371 C 0.03013 0.36917 0.21178 0.0
C372 C 0.05362 0.34682 0.23293 0.0
C373 C 0.01012 0.35305 0.17132 0.0
C374 C 0.05608 0.30771 0.21327 0.0
C375 C 0.03657 0.29175 0.17322 0.0
H376 H 0.63976 0.1016 0.5204 0.0
H377 H 0.71852 0.0468 0.59329 0.0
H378 H 0.67833 0.96876 0.55351 0.0
H379 H 0.62306 0.91754 0.49521 0.0
H380 H 0.54361 0.97404 0.42495 0.0
H381 H 0.58183 0.04962 0.46636 0.0
C382 C 0.64804 0.07252 0.52785 0.0
C383 C 0.68241 0.08026 0.55961 0.0
C384 C 0.62479 0.02797 0.50502 0.0
C385 C 0.69213 0.04184 0.56908 0.0
C386 C 0.66933 0.99729 0.54615 0.0
C387 C 0.61407 0.94636 0.4891 0.0
C388 C 0.58062 0.93996 0.45665 0.0
C389 C 0.636 0.99015 0.51358 0.0
C390 C 0.56912 0.97764 0.44953 0.0
C391 C 0.59104 0.02111 0.47322 0.0
H392 H 0.57296 0.70017 0.86508 0.0
H393 H 0.69179 0.7058 0.93793 0.0
H394 H 0.70967 0.66407 0.88113 0.0
H395 H 0.69246 0.62749 0.8095 0.0
H396 H 0.57151 0.6207 0.7388 0.0
H397 H 0.55383 0.66131 0.79584 0.0
C398 C 0.60276 0.69222 0.8687 0.0
C399 C 0.63112 0.70641 0.90574 0.0
C400 C 0.61264 0.66809 0.83606 0.0
C401 C 0.66925 0.69526 0.90986 0.0
C402 C 0.67962 0.67154 0.87727 0.0
C403 C 0.6623 0.63498 0.80659 0.0
C404 C 0.63361 0.62121 0.76959 0.0
C405 C 0.65178 0.65808 0.84 0.0
C406 C 0.59434 0.63082 0.76668 0.0
C407 C 0.58412 0.65413 0.79937 0.0
H408 H 0.05098 0.63509 0.12541 0.0
H409 H 0.09023 0.78472 0.09041 0.0
H410 H 0.03683 0.78563 0.14587 0.0
H411 H 0.97804 0.74394 0.20376 0.0
H412 H 0.9384 0.59442 0.23928 0.0
H413 H 0.99283 0.59367 0.1844 0.0
C414 C 0.04796 0.66797 0.1299 0.0
C415 C 0.07474 0.70975 0.10348 0.0
C416 C 0.017 0.66831 0.16205 0.0
C417 C 0.07021 0.75196 0.11004 0.0
C418 C 0.03958 0.75255 0.14184 0.0
C419 C 0.9813 0.71114 0.19966 0.0
C420 C 0.95391 0.66925 0.22578 0.0
C421 C 0.01266 0.71092 0.16795 0.0
C422 C 0.9589 0.62723 0.2198 0.0
C423 C 0.99005 0.62675 0.18831 0.0
H424 H 0.37009 0.0356 0.41215 0.0
H425 H 0.38657 0.14894 0.49932 0.0
H426 H 0.3399 0.08587 0.55222 0.0
H427 H 0.29116 0.99872 0.57351 0.0
H428 H 0.27291 0.88362 0.48793 0.0
H429 H 0.32336 0.94682 0.43521 0.0
C430 C 0.36387 0.0465 0.44285 0.0
C431 C 0.38191 0.09732 0.45138 0.0
C432 C 0.3363 0.00958 0.47358 0.0
C433 C 0.37316 0.11041 0.49146 0.0
C434 C 0.34631 0.07424 0.52194 0.0
C435 C 0.29826 0.98722 0.54342 0.0
C436 C 0.27783 0.93619 0.53485 0.0
C437 C 0.32715 0.02373 0.51324 0.0
C438 C 0.28796 0.92247 0.49558 0.0
C439 C 0.31682 0.9587 0.46531 0.0
H440 H 0.46983 0.34807 0.79785 0.0
H441 H 0.36805 0.29001 0.90241 0.0
H442 H 0.32085 0.32617 0.87304 0.0
H443 H 0.30505 0.36938 0.8147 0.0
H444 H 0.40801 0.42722 0.71072 0.0
H445 H 0.45796 0.39643 0.74295 0.0
C446 C 0.43756 0.34361 0.81449 0.0
C447 C 0.42241 0.31591 0.85218 0.0
C448 C 0.41048 0.36436 0.79735 0.0
C449 C 0.38068 0.31105 0.87336 0.0
C450 C 0.35349 0.3316 0.85646 0.0
C451 C 0.33871 0.37577 0.79933 0.0
C452 C 0.35229 0.40033 0.76002 0.0
C453 C 0.36752 0.35762 0.81804 0.0
C454 C 0.39623 0.40827 0.74077 0.0
C455 C 0.42494 0.39056 0.75917 0.0
H456 H 0.07867 0.26438 0.48179 0.0
H457 H 0.11678 0.41729 0.46535 0.0
H458 H 0.16506 0.43943 0.53039 0.0
H459 H 0.20306 0.41622 0.58798 0.0
H460 H 0.17015 0.26429 0.59861 0.0
H461 H 0.11664 0.24175 0.53722 0.0
C462 C 0.09675 0.30252 0.49274 0.0
C463 C 0.09475 0.33918 0.46815 0.0
C464 C 0.12794 0.3157 0.52759 0.0
C465 C 0.11761 0.38817 0.48343 0.0
C466 C 0.14631 0.40109 0.52007 0.0
C467 C 0.18544 0.37857 0.57601 0.0
C468 C 0.19125 0.34202 0.59738 0.0
C469 C 0.15354 0.36554 0.54127 0.0
C470 C 0.16705 0.29315 0.58215 0.0
C471 C 0.13561 0.28004 0.54769 0.0
H472 H 0.92188 0.37073 0.87042 0.0
H473 H 0.01191 0.30991 0.82899 0.0
H474 H 0.96437 0.28136 0.76431 0.0
H475 H 0.88948 0.26197 0.72508 0.0
H476 H 0.79891 0.32211 0.76518 0.0
H477 H 0.85348 0.36142 0.82577 0.0
C478 C 0.93237 0.35286 0.84665 0.0
C479 C 0.96898 0.34038 0.85547 0.0
C480 C 0.9033 0.33439 0.81029 0.0
C481 C 0.98302 0.31876 0.82352 0.0
C482 C 0.95528 0.30161 0.78682 0.0
C483 C 0.88124 0.28282 0.74775 0.0
C484 C 0.83899 0.28698 0.74254 0.0
C485 C 0.91358 0.30652 0.78123 0.0
C486 C 0.83014 0.3167 0.77008 0.0
C487 C 0.86183 0.33989 0.80406 0.0
H488 H 0.60922 0.83948 0.28426 0.0
H489 H 0.46276 0.76871 0.23077 0.0
H490 H 0.49124 0.74112 0.17087 0.0
H491 H 0.55842 0.74249 0.13138 0.0
H492 H 0.70636 0.81865 0.18101 0.0
H493 H 0.67583 0.83456 0.24671 0.0
C494 C 0.58371 0.81846 0.2593 0.0
C495 C 0.53401 0.80668 0.26167 0.0
C496 C 0.60008 0.80162 0.22532 0.0
C497 C 0.50129 0.77872 0.22936 0.0
C498 C 0.51732 0.76225 0.19546 0.0
C499 C 0.58364 0.76052 0.15735 0.0
C500 C 0.63446 0.7791 0.15154 0.0
C501 C 0.56658 0.77354 0.19309 0.0
C502 C 0.66692 0.8033 0.1851 0.0
C503 C 0.64966 0.8137 0.2221 0.0
H504 H 0.79813 0.57089 0.43804 0.0
H505 H 0.9058 0.70866 0.49521 0.0
H506 H 0.84975 0.69213 0.55485 0.0
H507 H 0.76572 0.64251 0.58655 0.0
H508 H 0.65549 0.51259 0.52084 0.0
H509 H 0.71566 0.52422 0.4671 0.0
C510 C 0.80995 0.59712 0.46374 0.0
C511 C 0.85605 0.64125 0.46171 0.0
C512 C 0.77583 0.59004 0.49541 0.0
C513 C 0.87061 0.67421 0.49594 0.0
C514 C 0.83803 0.66541 0.52952 0.0
C515 C 0.75463 0.61749 0.55997 0.0
C516 C 0.70601 0.57659 0.55785 0.0
C517 C 0.78963 0.6245 0.52865 0.0
C518 C 0.69255 0.54436 0.52325 0.0
C519 C 0.72713 0.55049 0.49279 0.0
H520 H 0.13221 0.78568 0.88376 0.0
H521 H 0.10895 0.64345 0.84272 0.0
H522 H 0.12514 0.67327 0.77009 0.0
H523 H 0.1534 0.74188 0.7195 0.0
H524 H 0.1728 0.88269 0.75876 0.0
H525 H 0.15436 0.85263 0.8318 0.0
C526 C 0.12924 0.76062 0.85887 0.0
C527 C 0.11953 0.71227 0.86884 0.0
C528 C 0.14066 0.77872 0.81736 0.0
C529 C 0.11601 0.68061 0.83595 0.0
C530 C 0.12627 0.69798 0.79454 0.0
C531 C 0.1541 0.76608 0.74414 0.0
C532 C 0.16578 0.8148 0.73416 0.0
C533 C 0.14042 0.74746 0.78519 0.0
C534 C 0.16545 0.84556 0.76611 0.0
C535 C 0.15392 0.82801 0.80759 0.0
H536 H 0.42603 0.19611 0.19673 0.0
H537 H 0.52044 0.13337 0.20959 0.0
H538 H 0.51985 0.12319 0.1328 0.0
H539 H 0.4997 0.1413 0.06217 0.0
H540 H 0.41222 0.21253 0.0508 0.0
H541 H 0.40312 0.21082 0.12711 0.0
C542 C 0.44531 0.1789 0.18264 0.0
C543 C 0.47244 0.16452 0.20833 0.0
C544 C 0.44689 0.17591 0.13887 0.0
C545 C 0.49849 0.14357 0.19019 0.0
C546 C 0.49861 0.13846 0.1464 0.0
C547 C 0.47828 0.15605 0.0764 0.0
C548 C 0.4569 0.17735 0.05086 0.0
C549 C 0.47415 0.15595 0.1204 0.0
C550 C 0.42946 0.19648 0.06974 0.0
C551 C 0.42405 0.19528 0.11333 0.0
loop_
_geom_bond_atom_site_label_1
_geom_bond_atom_site_label_2
_geom_bond_distance
_geom_bond_site_symmetry_2
_ccdc_geom_bond_type
Zn0 O3 2.031 . S
Zn0 O5 2.049 . S
Zn0 O10 2.067 . S
Zn1 O2 1.962 . S
Zn1 O4 1.986 . S
Zn1 O6 1.996 . S
Zn1 O9 1.943 . S
O2 Zn1 1.962 . S
O2 C7 1.254 . S
O3 Zn0 2.031 . S
O3 C7 1.269 . S
O4 Zn1 1.986 . S
O4 C11 1.262 . S
O5 Zn0 2.049 . S
O5 C13 1.260 . S
O6 Zn1 1.996 . S
O6 C13 1.257 . S
C7 O2 1.254 . S
C7 O3 1.269 . S
C8 O9 1.249 . S
C8 O10 1.270 . S
O9 Zn1 1.943 . S
O9 C8 1.249 . S
O10 Zn0 2.067 . S
O10 C8 1.270 . S
C11 O4 1.262 . S
C11 O12 1.232 . S
O12 C11 1.232 . S
C13 O5 1.260 . S
C13 O6 1.257 . S
Zn14 O17 2.031 . S
Zn14 O19 2.049 . S
Zn14 O24 2.067 . S
Zn15 O16 1.962 . S
Zn15 O18 1.986 . S
Zn15 O20 1.996 . S
Zn15 O23 1.943 . S
O16 Zn15 1.962 . S
O16 C21 1.254 . S
O17 Zn14 2.031 . S
O17 C21 1.269 . S
O18 Zn15 1.986 . S
O18 C25 1.262 . S
O19 Zn14 2.049 . S
O19 C27 1.260 . S
O20 Zn15 1.996 . S
O20 C27 1.257 . S
C21 O16 1.254 . S
C21 O17 1.269 . S
C22 O23 1.249 . S
C22 O24 1.270 . S
O23 Zn15 1.943 . S
O23 C22 1.249 . S
O24 Zn14 2.067 . S
O24 C22 1.270 . S
C25 O18 1.262 . S
C25 O26 1.232 . S
O26 C25 1.232 . S
C27 O19 1.260 . S
C27 O20 1.257 . S
Zn28 O31 2.031 . S
Zn28 O33 2.049 . S
Zn28 O38 2.067 . S
Zn29 O30 1.962 . S
Zn29 O32 1.986 . S
Zn29 O34 1.996 . S
Zn29 O37 1.943 1_556 S
O30 Zn29 1.962 . S
O30 C35 1.254 . S
O31 Zn28 2.031 . S
O31 C35 1.269 1_554 S
O32 Zn29 1.986 . S
O32 C39 1.262 . S
O33 Zn28 2.049 . S
O33 C41 1.244 1_554 S
O34 Zn29 1.996 . S
O34 C41 1.265 . S
C35 O30 1.254 . S
C35 O31 1.269 1_556 S
C36 O37 1.249 . S
C36 O38 1.270 . S
O37 Zn29 1.943 1_554 S
O37 C36 1.249 . S
O38 Zn28 2.067 . S
O38 C36 1.270 . S
C39 O32 1.262 . S
C39 O40 1.232 . S
O40 C39 1.232 . S
C41 O33 1.244 1_556 S
C41 O34 1.265 . S
Zn42 O45 2.031 . S
Zn42 O47 2.049 . S
Zn42 O52 2.067 . S
Zn43 O44 1.962 . S
Zn43 O46 1.986 . S
Zn43 O48 1.996 . S
Zn43 O51 1.943 . S
O44 Zn43 1.962 . S
O44 C49 1.254 . S
O45 Zn42 2.031 . S
O45 C49 1.269 . S
O46 Zn43 1.986 . S
O46 C53 1.262 . S
O47 Zn42 2.049 . S
O47 C55 1.260 . S
O48 Zn43 1.996 . S
O48 C55 1.257 . S
C49 O44 1.254 . S
C49 O45 1.269 . S
C50 O51 1.249 . S
C50 O52 1.270 . S
O51 Zn43 1.943 . S
O51 C50 1.249 . S
O52 Zn42 2.067 . S
O52 C50 1.270 . S
C53 O46 1.262 . S
C53 O54 1.232 . S
O54 C53 1.232 . S
C55 O47 1.260 . S
C55 O48 1.257 . S
Zn56 O59 2.031 . S
Zn56 O61 2.049 . S
Zn56 O66 2.067 . S
Zn57 O58 1.962 . S
Zn57 O60 1.986 . S
Zn57 O62 1.996 . S
Zn57 O65 1.943 . S
O58 Zn57 1.962 . S
O58 C63 1.254 . S
O59 Zn56 2.031 . S
O59 C63 1.269 . S
O60 Zn57 1.986 . S
O60 C67 1.262 . S
O61 Zn56 2.049 . S
O61 C69 1.260 . S
O62 Zn57 1.996 . S
O62 C69 1.257 . S
C63 O58 1.254 . S
C63 O59 1.269 . S
C64 O65 1.249 . S
C64 O66 1.270 . S
O65 Zn57 1.943 . S
O65 C64 1.249 . S
O66 Zn56 2.067 . S
O66 C64 1.270 . S
C67 O60 1.262 . S
C67 O68 1.232 . S
O68 C67 1.232 . S
C69 O61 1.260 . S
C69 O62 1.257 . S
Zn70 O73 2.031 . S
Zn70 O75 2.049 . S
Zn70 O80 2.067 . S
Zn71 O72 1.962 . S
Zn71 O74 1.986 . S
Zn71 O76 1.996 . S
Zn71 O79 1.943 1_556 S
O72 Zn71 1.962 . S
O72 C77 1.254 . S
O73 Zn70 2.031 . S
O73 C77 1.269 1_554 S
O74 Zn71 1.986 . S
O74 C81 1.262 . S
O75 Zn70 2.049 . S
O75 C83 1.244 1_554 S
O76 Zn71 1.996 . S
O76 C83 1.265 . S
C77 O72 1.254 . S
C77 O73 1.269 1_556 S
C78 O79 1.249 . S
C78 O80 1.270 . S
O79 Zn71 1.943 1_554 S
O79 C78 1.249 . S
O80 Zn70 2.067 . S
O80 C78 1.270 . S
C81 O74 1.262 . S
C81 O82 1.232 . S
O82 C81 1.232 . S
C83 O75 1.244 1_556 S
C83 O76 1.265 . S
Zn84 O87 2.031 . S
Zn84 O89 2.049 . S
Zn84 O94 2.067 . S
Zn85 O86 1.962 . S
Zn85 O88 1.986 . S
Zn85 O90 1.996 . S
Zn85 O93 1.943 . S
O86 Zn85 1.962 . S
O86 C91 1.254 . S
O87 Zn84 2.031 . S
O87 C91 1.269 . S
O88 Zn85 1.986 . S
O88 C95 1.262 . S
O89 Zn84 2.049 . S
O89 C97 1.260 . S
O90 Zn85 1.996 . S
O90 C97 1.257 . S
C91 O86 1.254 . S
C91 O87 1.269 . S
C92 O93 1.249 . S
C92 O94 1.270 . S
O93 Zn85 1.943 . S
O93 C92 1.249 . S
O94 Zn84 2.067 . S
O94 C92 1.270 . S
C95 O88 1.262 . S
C95 O96 1.232 . S
O96 C95 1.232 . S
C97 O89 1.260 . S
C97 O90 1.257 . S
Zn98 O101 2.031 . S
Zn98 O103 2.049 . S
Zn98 O108 2.067 . S
Zn99 O100 1.962 . S
Zn99 O102 1.986 . S
Zn99 O104 1.996 . S
Zn99 O107 1.943 . S
O100 Zn99 1.962 . S
O100 C105 1.254 . S
O101 Zn98 2.031 . S
O101 C105 1.269 . S
O102 Zn99 1.986 . S
O102 C109 1.262 . S
O103 Zn98 2.049 . S
O103 C111 1.260 . S
O104 Zn99 1.996 . S
O104 C111 1.257 . S
C105 O100 1.254 . S
C105 O101 1.269 . S
C106 O107 1.249 . S
C106 O108 1.270 . S
O107 Zn99 1.943 . S
O107 C106 1.249 . S
O108 Zn98 2.067 . S
O108 C106 1.270 . S
C109 O102 1.262 . S
C109 O110 1.232 . S
O110 C109 1.232 . S
C111 O103 1.260 . S
C111 O104 1.257 . S
Zn112 O115 2.031 . S
Zn112 O117 2.049 . S
Zn112 O122 2.067 . S
Zn113 O114 1.962 . S
Zn113 O116 1.986 . S
Zn113 O118 1.996 . S
Zn113 O121 1.943 1_554 S
O114 Zn113 1.962 . S
O114 C119 1.254 . S
O115 Zn112 2.031 . S
O115 C119 1.269 1_556 S
O116 Zn113 1.986 . S
O116 C123 1.262 . S
O117 Zn112 2.049 . S
O117 C125 1.244 1_556 S
O118 Zn113 1.996 . S
O118 C125 1.265 . S
C119 O114 1.254 . S
C119 O115 1.269 1_554 S
C120 O121 1.249 . S
C120 O122 1.270 . S
O121 Zn113 1.943 1_556 S
O121 C120 1.249 . S
O122 Zn112 2.067 . S
O122 C120 1.270 . S
C123 O116 1.262 . S
C123 O124 1.232 . S
O124 C123 1.232 . S
C125 O117 1.244 1_554 S
C125 O118 1.265 . S
Zn126 O129 2.031 . S
Zn126 O131 2.049 . S
Zn126 O136 2.067 . S
Zn127 O128 1.962 . S
Zn127 O130 1.986 . S
Zn127 O132 1.996 . S
Zn127 O135 1.943 . S
O128 Zn127 1.962 . S
O128 C133 1.254 . S
O129 Zn126 2.031 . S
O129 C133 1.269 . S
O130 Zn127 1.986 . S
O130 C137 1.262 . S
O131 Zn126 2.049 . S
O131 C139 1.260 . S
O132 Zn127 1.996 . S
O132 C139 1.257 . S
C133 O128 1.254 . S
C133 O129 1.269 . S
C134 O135 1.249 . S
C134 O136 1.270 . S
O135 Zn127 1.943 . S
O135 C134 1.249 . S
O136 Zn126 2.067 . S
O136 C134 1.270 . S
C137 O130 1.262 . S
C137 O138 1.232 . S
O138 C137 1.232 . S
C139 O131 1.260 . S
C139 O132 1.257 . S
Zn140 O143 2.031 . S
Zn140 O145 2.049 . S
Zn140 O150 2.067 . S
Zn141 O142 1.962 . S
Zn141 O144 1.986 . S
Zn141 O146 1.996 . S
Zn141 O149 1.943 . S
O142 Zn141 1.962 . S
O142 C147 1.254 . S
O143 Zn140 2.031 . S
O143 C147 1.269 . S
O144 Zn141 1.986 . S
O144 C151 1.262 . S
O145 Zn140 2.049 . S
O145 C153 1.260 . S
O146 Zn141 1.996 . S
O146 C153 1.257 . S
C147 O142 1.254 . S
C147 O143 1.269 . S
C148 O149 1.249 . S
C148 O150 1.270 . S
O149 Zn141 1.943 . S
O149 C148 1.249 . S
O150 Zn140 2.067 . S
O150 C148 1.270 . S
C151 O144 1.262 . S
C151 O152 1.232 . S
O152 C151 1.232 . S
C153 O145 1.260 . S
C153 O146 1.257 . S
Zn154 O157 2.031 . S
Zn154 O159 2.049 . S
Zn154 O164 2.067 . S
Zn155 O156 1.962 . S
Zn155 O158 1.986 . S
Zn155 O160 1.996 . S
Zn155 O163 1.943 1_554 S
O156 Zn155 1.962 . S
O156 C161 1.254 . S
O157 Zn154 2.031 . S
O157 C161 1.269 1_556 S
O158 Zn155 1.986 . S
O158 C165 1.262 . S
O159 Zn154 2.049 . S
O159 C167 1.244 1_556 S
O160 Zn155 1.996 . S
O160 C167 1.265 . S
C161 O156 1.254 . S
C161 O157 1.269 1_554 S
C162 O163 1.249 . S
C162 O164 1.270 . S
O163 Zn155 1.943 1_556 S
O163 C162 1.249 . S
O164 Zn154 2.067 . S
O164 C162 1.270 . S
C165 O158 1.262 . S
C165 O166 1.232 . S
O166 C165 1.232 . S
C167 O159 1.244 1_554 S
C167 O160 1.265 . S
H168 C174 0.930 . S
H169 C177 0.930 . S
H170 C178 0.930 . S
H171 C179 0.930 . S
H172 C182 0.930 . S
H173 C183 0.930 . S
C174 H168 0.930 . S
C174 C175 1.355 . S
C174 C176 1.415 . S
C175 C174 1.355 . S
C175 C177 1.419 . S
C176 C174 1.415 . S
C176 C181 1.425 . S
C176 C183 1.409 . S
C177 H169 0.930 . S
C177 C175 1.419 . S
C177 C178 1.362 . S
C178 H170 0.930 . S
C178 C177 1.362 . S
C178 C181 1.409 . S
C179 H171 0.930 . S
C179 C180 1.355 . S
C179 C181 1.415 . S
C180 C179 1.355 . S
C180 C182 1.419 . S
C181 C176 1.425 . S
C181 C178 1.409 . S
C181 C179 1.415 . S
C182 H172 0.930 . S
C182 C180 1.419 . S
C182 C183 1.362 . S
C183 H173 0.930 . S
C183 C176 1.409 . S
C183 C182 1.362 . S
H184 C190 0.930 . S
H185 C193 0.930 . S
H186 C194 0.930 . S
H187 C195 0.930 . S
H188 C198 0.930 . S
H189 C199 0.930 . S
C190 H184 0.930 . S
C190 C191 1.355 . S
C190 C192 1.415 . S
C191 C190 1.355 . S
C191 C193 1.419 . S
C192 C190 1.415 . S
C192 C197 1.425 . S
C192 C199 1.409 . S
C193 H185 0.930 . S
C193 C191 1.419 . S
C193 C194 1.362 . S
C194 H186 0.930 . S
C194 C193 1.362 . S
C194 C197 1.409 . S
C195 H187 0.930 . S
C195 C196 1.355 . S
C195 C197 1.415 . S
C196 C195 1.355 . S
C196 C198 1.419 . S
C197 C192 1.425 . S
C197 C194 1.409 . S
C197 C195 1.415 . S
C198 H188 0.930 . S
C198 C196 1.419 . S
C198 C199 1.362 . S
C199 H189 0.930 . S
C199 C192 1.409 . S
C199 C198 1.362 . S
H200 C206 0.930 . S
H201 C209 0.930 . S
H202 C210 0.930 . S
H203 C211 0.930 . S
H204 C214 0.930 . S
H205 C215 0.930 . S
C206 H200 0.930 . S
C206 C207 1.355 1_554 S
C206 C208 1.415 . S
C207 C206 1.355 1_556 S
C207 C209 1.419 . S
C208 C206 1.415 . S
C208 C213 1.425 1_554 S
C208 C215 1.409 . S
C209 H201 0.930 . S
C209 C207 1.419 . S
C209 C210 1.362 . S
C210 H202 0.930 . S
C210 C209 1.362 . S
C210 C213 1.409 . S
C211 H203 0.930 . S
C211 C212 1.355 1_556 S
C211 C213 1.415 . S
C212 C211 1.355 1_554 S
C212 C214 1.419 . S
C213 C208 1.425 1_556 S
C213 C210 1.409 . S
C213 C211 1.415 . S
C214 H204 0.930 . S
C214 C212 1.419 . S
C214 C215 1.362 . S
C215 H205 0.930 . S
C215 C208 1.409 . S
C215 C214 1.362 . S
H216 C222 0.930 . S
H217 C225 0.930 . S
H218 C226 0.930 . S
H219 C227 0.930 . S
H220 C230 0.930 . S
H221 C231 0.930 . S
C222 H216 0.930 . S
C222 C223 1.355 . S
C222 C224 1.415 . S
C223 C222 1.355 . S
C223 C225 1.419 . S
C224 C222 1.415 . S
C224 C229 1.425 . S
C224 C231 1.409 . S
C225 H217 0.930 . S
C225 C223 1.419 . S
C225 C226 1.362 . S
C226 H218 0.930 . S
C226 C225 1.362 . S
C226 C229 1.409 . S
C227 H219 0.930 . S
C227 C228 1.355 . S
C227 C229 1.415 . S
C228 C227 1.355 . S
C228 C230 1.419 . S
C229 C224 1.425 . S
C229 C226 1.409 . S
C229 C227 1.415 . S
C230 H220 0.930 . S
C230 C228 1.419 . S
C230 C231 1.362 . S
C231 H221 0.930 . S
C231 C224 1.409 . S
C231 C230 1.362 . S
H232 C238 0.930 . S
H233 C241 0.930 . S
H234 C242 0.930 . S
H235 C243 0.930 . S
H236 C246 0.930 . S
H237 C247 0.930 . S
C238 H232 0.930 . S
C238 C239 1.355 . S
C238 C240 1.415 . S
C239 C238 1.355 . S
C239 C241 1.419 . S
C240 C238 1.415 . S
C240 C245 1.425 . S
C240 C247 1.409 . S
C241 H233 0.930 . S
C241 C239 1.419 . S
C241 C242 1.362 . S
C242 H234 0.930 . S
C242 C241 1.362 . S
C242 C245 1.409 . S
C243 H235 0.930 . S
C243 C244 1.355 . S
C243 C245 1.415 . S
C244 C243 1.355 . S
C244 C246 1.419 . S
C245 C240 1.425 . S
C245 C242 1.409 . S
C245 C243 1.415 . S
C246 H236 0.930 . S
C246 C244 1.419 . S
C246 C247 1.362 . S
C247 H237 0.930 . S
C247 C240 1.409 . S
C247 C246 1.362 . S
H248 C254 0.930 . S
H249 C257 0.930 . S
H250 C258 0.930 . S
H251 C259 0.930 . S
H252 C262 0.930 . S
H253 C263 0.930 . S
C254 H248 0.930 . S
C254 C255 1.355 . S
C254 C256 1.415 . S
C255 C254 1.355 . S
C255 C257 1.419 1_554 S
C256 C254 1.415 . S
C256 C261 1.425 1_554 S
C256 C263 1.409 . S
C257 H249 0.930 . S
C257 C255 1.419 1_556 S
C257 C258 1.362 . S
C258 H250 0.930 . S
C258 C257 1.362 . S
C258 C261 1.409 . S
C259 H251 0.930 . S
C259 C260 1.355 . S
C259 C261 1.415 . S
C260 C259 1.355 . S
C260 C262 1.419 1_556 S
C261 C256 1.425 1_556 S
C261 C258 1.409 . S
C261 C259 1.415 . S
C262 H252 0.930 . S
C262 C260 1.419 1_554 S
C262 C263 1.362 . S
C263 H253 0.930 . S
C263 C256 1.409 . S
C263 C262 1.362 . S
H264 C270 0.930 . S
H265 C273 0.930 . S
H266 C274 0.930 . S
H267 C275 0.930 . S
H268 C278 0.930 . S
H269 C279 0.930 . S
C270 H264 0.930 . S
C270 C271 1.355 . S
C270 C272 1.415 . S
C271 C270 1.355 . S
C271 C273 1.419 . S
C272 C270 1.415 . S
C272 C277 1.425 . S
C272 C279 1.409 . S
C273 H265 0.930 . S
C273 C271 1.419 . S
C273 C274 1.362 . S
C274 H266 0.930 . S
C274 C273 1.362 . S
C274 C277 1.409 . S
C275 H267 0.930 . S
C275 C276 1.355 . S
C275 C277 1.415 . S
C276 C275 1.355 . S
C276 C278 1.419 . S
C277 C272 1.425 . S
C277 C274 1.409 . S
C277 C275 1.415 . S
C278 H268 0.930 . S
C278 C276 1.419 . S
C278 C279 1.362 . S
C279 H269 0.930 . S
C279 C272 1.409 . S
C279 C278 1.362 . S
H280 C286 0.930 . S
H281 C289 0.930 . S
H282 C290 0.930 . S
H283 C291 0.930 . S
H284 C294 0.930 . S
H285 C295 0.930 . S
C286 H280 0.930 . S
C286 C287 1.355 . S
C286 C288 1.415 . S
C287 C286 1.355 . S
C287 C289 1.419 . S
C288 C286 1.415 . S
C288 C293 1.425 1_655 S
C288 C295 1.409 1_655 S
C289 H281 0.930 . S
C289 C287 1.419 . S
C289 C290 1.362 . S
C290 H282 0.930 . S
C290 C289 1.362 . S
C290 C293 1.409 1_655 S
C291 H283 0.930 . S
C291 C292 1.355 . S
C291 C293 1.415 . S
C292 C291 1.355 . S
C292 C294 1.419 . S
C293 C288 1.425 1_455 S
C293 C290 1.409 1_455 S
C293 C291 1.415 . S
C294 H284 0.930 . S
C294 C292 1.419 . S
C294 C295 1.362 . S
C295 H285 0.930 . S
C295 C288 1.409 1_455 S
C295 C294 1.362 . S
H296 C302 0.930 . S
H297 C305 0.930 . S
H298 C306 0.930 . S
H299 C307 0.930 . S
H300 C310 0.930 . S
H301 C311 0.930 . S
C302 H296 0.930 . S
C302 C303 1.355 1_556 S
C302 C304 1.415 . S
C303 C302 1.355 1_554 S
C303 C305 1.419 . S
C304 C302 1.415 . S
C304 C309 1.425 1_546 S
C304 C311 1.409 1_545 S
C305 H297 0.930 . S
C305 C303 1.419 . S
C305 C306 1.362 . S
C306 H298 0.930 . S
C306 C305 1.362 . S
C306 C309 1.409 1_545 S
C307 H299 0.930 . S
C307 C308 1.355 1_554 S
C307 C309 1.415 . S
C308 C307 1.355 1_556 S
C308 C310 1.419 . S
C309 C304 1.425 1_564 S
C309 C306 1.409 1_565 S
C309 C307 1.415 . S
C310 H300 0.930 . S
C310 C308 1.419 . S
C310 C311 1.362 . S
C311 H301 0.930 . S
C311 C304 1.409 1_565 S
C311 C310 1.362 . S
H312 C318 0.930 . S
H313 C321 0.930 . S
H314 C322 0.930 . S
H315 C323 0.930 . S
H316 C326 0.930 . S
H317 C327 0.930 . S
C318 H312 0.930 . S
C318 C319 1.355 . S
C318 C320 1.415 . S
C319 C318 1.355 . S
C319 C321 1.419 . S
C320 C318 1.415 . S
C320 C325 1.425 . S
C320 C327 1.409 . S
C321 H313 0.930 . S
C321 C319 1.419 . S
C321 C322 1.362 . S
C322 H314 0.930 . S
C322 C321 1.362 . S
C322 C325 1.409 . S
C323 H315 0.930 . S
C323 C324 1.355 . S
C323 C325 1.415 . S
C324 C323 1.355 . S
C324 C326 1.419 . S
C325 C320 1.425 . S
C325 C322 1.409 . S
C325 C323 1.415 . S
C326 H316 0.930 . S
C326 C324 1.419 . S
C326 C327 1.362 . S
C327 H317 0.930 . S
C327 C320 1.409 . S
C327 C326 1.362 . S
H328 C334 0.930 . S
H329 C337 0.930 . S
H330 C338 0.930 . S
H331 C339 0.930 . S
H332 C342 0.930 . S
H333 C343 0.930 . S
C334 H328 0.930 . S
C334 C335 1.355 . S
C334 C336 1.415 . S
C335 C334 1.355 . S
C335 C337 1.419 . S
C336 C334 1.415 . S
C336 C341 1.425 1_455 S
C336 C343 1.409 1_455 S
C337 H329 0.930 . S
C337 C335 1.419 . S
C337 C338 1.362 . S
C338 H330 0.930 . S
C338 C337 1.362 . S
C338 C341 1.409 1_455 S
C339 H331 0.930 . S
C339 C340 1.355 . S
C339 C341 1.415 . S
C340 C339 1.355 . S
C340 C342 1.419 . S
C341 C336 1.425 1_655 S
C341 C338 1.409 1_655 S
C341 C339 1.415 . S
C342 H332 0.930 . S
C342 C340 1.419 . S
C342 C343 1.362 . S
C343 H333 0.930 . S
C343 C336 1.409 1_655 S
C343 C342 1.362 . S
H344 C350 0.930 . S
H345 C353 0.930 . S
H346 C354 0.930 . S
H347 C355 0.930 . S
H348 C358 0.930 . S
H349 C359 0.930 . S
C350 H344 0.930 . S
C350 C351 1.355 1_554 S
C350 C352 1.415 . S
C351 C350 1.355 1_556 S
C351 C353 1.419 . S
C352 C350 1.415 . S
C352 C357 1.425 1_544 S
C352 C359 1.409 1_545 S
C353 H345 0.930 . S
C353 C351 1.419 . S
C353 C354 1.362 . S
C354 H346 0.930 . S
C354 C353 1.362 . S
C354 C357 1.409 1_545 S
C355 H347 0.930 . S
C355 C356 1.355 1_556 S
C355 C357 1.415 . S
C356 C355 1.355 1_554 S
C356 C358 1.419 . S
C357 C352 1.425 1_566 S
C357 C354 1.409 1_565 S
C357 C355 1.415 . S
C358 H348 0.930 . S
C358 C356 1.419 . S
C358 C359 1.362 . S
C359 H349 0.930 . S
C359 C352 1.409 1_565 S
C359 C358 1.362 . S
H360 C366 0.930 1_455 S
H361 C369 0.930 . S
H362 C370 0.930 . S
H363 C371 0.930 1_655 S
H364 C374 0.930 . S
H365 C375 0.930 . S
C366 H360 0.930 1_655 S
C366 C367 1.355 . S
C366 C368 1.415 1_655 S
C367 C366 1.355 . S
C367 C369 1.419 . S
C368 C366 1.415 1_455 S
C368 C373 1.425 1_455 S
C368 C375 1.409 . S
C369 H361 0.930 . S
C369 C367 1.419 . S
C369 C370 1.362 . S
C370 H362 0.930 . S
C370 C369 1.362 . S
C370 C373 1.409 . S
C371 H363 0.930 1_455 S
C371 C372 1.355 . S
C371 C373 1.415 1_455 S
C372 C371 1.355 . S
C372 C374 1.419 . S
C373 C368 1.425 1_655 S
C373 C370 1.409 . S
C373 C371 1.415 1_655 S
C374 H364 0.930 . S
C374 C372 1.419 . S
C374 C375 1.362 . S
C375 H365 0.930 . S
C375 C368 1.409 . S
C375 C374 1.362 . S
H376 C382 0.930 1_565 S
H377 C385 0.930 . S
H378 C386 0.930 . S
H379 C387 0.930 1_545 S
H380 C390 0.930 . S
H381 C391 0.930 . S
C382 H376 0.930 1_545 S
C382 C383 1.355 . S
C382 C384 1.415 1_545 S
C383 C382 1.355 . S
C383 C385 1.419 . S
C384 C382 1.415 1_565 S
C384 C389 1.425 1_565 S
C384 C391 1.409 . S
C385 H377 0.930 . S
C385 C383 1.419 . S
C385 C386 1.362 . S
C386 H378 0.930 . S
C386 C385 1.362 . S
C386 C389 1.409 . S
C387 H379 0.930 1_565 S
C387 C388 1.355 . S
C387 C389 1.415 1_565 S
C388 C387 1.355 . S
C388 C390 1.419 . S
C389 C384 1.425 1_545 S
C389 C386 1.409 . S
C389 C387 1.415 1_545 S
C390 H380 0.930 . S
C390 C388 1.419 . S
C390 C391 1.362 . S
C391 H381 0.930 . S
C391 C384 1.409 . S
C391 C390 1.362 . S
H392 C398 0.930 . S
H393 C401 0.930 . S
H394 C402 0.930 . S
H395 C403 0.930 . S
H396 C406 0.930 . S
H397 C407 0.930 . S
C398 H392 0.930 . S
C398 C399 1.355 . S
C398 C400 1.415 . S
C399 C398 1.355 . S
C399 C401 1.419 . S
C400 C398 1.415 . S
C400 C405 1.425 . S
C400 C407 1.409 . S
C401 H393 0.930 . S
C401 C399 1.419 . S
C401 C402 1.362 . S
C402 H394 0.930 . S
C402 C401 1.362 . S
C402 C405 1.409 . S
C403 H395 0.930 . S
C403 C404 1.355 . S
C403 C405 1.415 . S
C404 C403 1.355 . S
C404 C406 1.419 . S
C405 C400 1.425 . S
C405 C402 1.409 . S
C405 C403 1.415 . S
C406 H396 0.930 . S
C406 C404 1.419 . S
C406 C407 1.362 . S
C407 H397 0.930 . S
C407 C400 1.409 . S
C407 C406 1.362 . S
H408 C414 0.930 1_655 S
H409 C417 0.930 . S
H410 C418 0.930 . S
H411 C419 0.930 1_455 S
H412 C422 0.930 . S
H413 C423 0.930 . S
C414 H408 0.930 1_455 S
C414 C415 1.355 . S
C414 C416 1.415 1_455 S
C415 C414 1.355 . S
C415 C417 1.419 . S
C416 C414 1.415 1_655 S
C416 C421 1.425 1_655 S
C416 C423 1.409 . S
C417 H409 0.930 . S
C417 C415 1.419 . S
C417 C418 1.362 . S
C418 H410 0.930 . S
C418 C417 1.362 . S
C418 C421 1.409 . S
C419 H411 0.930 1_655 S
C419 C420 1.355 . S
C419 C421 1.415 1_655 S
C420 C419 1.355 . S
C420 C422 1.419 . S
C421 C416 1.425 1_455 S
C421 C418 1.409 . S
C421 C419 1.415 1_455 S
C422 H412 0.930 . S
C422 C420 1.419 . S
C422 C423 1.362 . S
C423 H413 0.930 . S
C423 C416 1.409 . S
C423 C422 1.362 . S
H424 C430 0.930 1_565 S
H425 C433 0.930 . S
H426 C434 0.930 . S
H427 C435 0.930 1_545 S
H428 C438 0.930 . S
H429 C439 0.930 . S
C430 H424 0.930 1_545 S
C430 C431 1.355 . S
C430 C432 1.415 1_545 S
C431 C430 1.355 . S
C431 C433 1.419 . S
C432 C430 1.415 1_565 S
C432 C437 1.425 1_565 S
C432 C439 1.409 . S
C433 H425 0.930 . S
C433 C431 1.419 . S
C433 C434 1.362 . S
C434 H426 0.930 . S
C434 C433 1.362 . S
C434 C437 1.409 . S
C435 H427 0.930 1_565 S
C435 C436 1.355 . S
C435 C437 1.415 1_565 S
C436 C435 1.355 . S
C436 C438 1.419 . S
C437 C432 1.425 1_545 S
C437 C434 1.409 . S
C437 C435 1.415 1_545 S
C438 H428 0.930 . S
C438 C436 1.419 . S
C438 C439 1.362 . S
C439 H429 0.930 . S
C439 C432 1.409 . S
C439 C438 1.362 . S
H440 C446 0.930 . S
H441 C449 0.930 . S
H442 C450 0.930 . S
H443 C451 0.930 . S
H444 C454 0.930 . S
H445 C455 0.930 . S
C446 H440 0.930 . S
C446 C447 1.355 . S
C446 C448 1.415 . S
C447 C446 1.355 . S
C447 C449 1.419 . S
C448 C446 1.415 . S
C448 C453 1.425 . S
C448 C455 1.409 . S
C449 H441 0.930 . S
C449 C447 1.419 . S
C449 C450 1.362 . S
C450 H442 0.930 . S
C450 C449 1.362 . S
C450 C453 1.409 . S
C451 H443 0.930 . S
C451 C452 1.355 . S
C451 C453 1.415 . S
C452 C451 1.355 . S
C452 C454 1.419 . S
C453 C448 1.425 . S
C453 C450 1.409 . S
C453 C451 1.415 . S
C454 H444 0.930 . S
C454 C452 1.419 . S
C454 C455 1.362 . S
C455 H445 0.930 . S
C455 C448 1.409 . S
C455 C454 1.362 . S
H456 C462 0.930 . S
H457 C465 0.930 . S
H458 C466 0.930 . S
H459 C467 0.930 . S
H460 C470 0.930 . S
H461 C471 0.930 . S
C462 H456 0.930 . S
C462 C463 1.355 . S
C462 C464 1.415 . S
C463 C462 1.355 . S
C463 C465 1.419 . S
C464 C462 1.415 . S
C464 C469 1.425 . S
C464 C471 1.409 . S
C465 H457 0.930 . S
C465 C463 1.419 . S
C465 C466 1.362 . S
C466 H458 0.930 . S
C466 C465 1.362 . S
C466 C469 1.409 . S
C467 H459 0.930 . S
C467 C468 1.355 . S
C467 C469 1.415 . S
C468 C467 1.355 . S
C468 C470 1.419 . S
C469 C464 1.425 . S
C469 C466 1.409 . S
C469 C467 1.415 . S
C470 H460 0.930 . S
C470 C468 1.419 . S
C470 C471 1.362 . S
C471 H461 0.930 . S
C471 C464 1.409 . S
C471 C470 1.362 . S
H472 C478 0.930 . S
H473 C481 0.930 . S
H474 C482 0.930 . S
H475 C483 0.930 . S
H476 C486 0.930 . S
H477 C487 0.930 . S
C478 H472 0.930 . S
C478 C479 1.355 . S
C478 C480 1.415 . S
C479 C478 1.355 . S
C479 C481 1.419 . S
C480 C478 1.415 . S
C480 C485 1.425 . S
C480 C487 1.409 . S
C481 H473 0.930 . S
C481 C479 1.419 . S
C481 C482 1.362 . S
C482 H474 0.930 . S
C482 C481 1.362 . S
C482 C485 1.409 . S
C483 H475 0.930 . S
C483 C484 1.355 . S
C483 C485 1.415 . S
C484 C483 1.355 . S
C484 C486 1.419 . S
C485 C480 1.425 . S
C485 C482 1.409 . S
C485 C483 1.415 . S
C486 H476 0.930 . S
C486 C484 1.419 . S
C486 C487 1.362 . S
C487 H477 0.930 . S
C487 C480 1.409 . S
C487 C486 1.362 . S
H488 C494 0.930 . S
H489 C497 0.930 . S
H490 C498 0.930 . S
H491 C499 0.930 . S
H492 C502 0.930 . S
H493 C503 0.930 . S
C494 H488 0.930 . S
C494 C495 1.355 . S
C494 C496 1.415 . S
C495 C494 1.355 . S
C495 C497 1.419 . S
C496 C494 1.415 . S
C496 C501 1.425 . S
C496 C503 1.409 . S
C497 H489 0.930 . S
C497 C495 1.419 . S
C497 C498 1.362 . S
C498 H490 0.930 . S
C498 C497 1.362 . S
C498 C501 1.409 . S
C499 H491 0.930 . S
C499 C500 1.355 . S
C499 C501 1.415 . S
C500 C499 1.355 . S
C500 C502 1.419 . S
C501 C496 1.425 . S
C501 C498 1.409 . S
C501 C499 1.415 . S
C502 H492 0.930 . S
C502 C500 1.419 . S
C502 C503 1.362 . S
C503 H493 0.930 . S
C503 C496 1.409 . S
C503 C502 1.362 . S
H504 C510 0.930 . S
H505 C513 0.930 . S
H506 C514 0.930 . S
H507 C515 0.930 . S
H508 C518 0.930 . S
H509 C519 0.930 . S
C510 H504 0.930 . S
C510 C511 1.355 . S
C510 C512 1.415 . S
C511 C510 1.355 . S
C511 C513 1.419 . S
C512 C510 1.415 . S
C512 C517 1.425 . S
C512 C519 1.409 . S
C513 H505 0.930 . S
C513 C511 1.419 . S
C513 C514 1.362 . S
C514 H506 0.930 . S
C514 C513 1.362 . S
C514 C517 1.409 . S
C515 H507 0.930 . S
C515 C516 1.355 . S
C515 C517 1.415 . S
C516 C515 1.355 . S
C516 C518 1.419 . S
C517 C512 1.425 . S
C517 C514 1.409 . S
C517 C515 1.415 . S
C518 H508 0.930 . S
C518 C516 1.419 . S
C518 C519 1.362 . S
C519 H509 0.930 . S
C519 C512 1.409 . S
C519 C518 1.362 . S
H520 C526 0.930 . S
H521 C529 0.930 . S
H522 C530 0.930 . S
H523 C531 0.930 . S
H524 C534 0.930 . S
H525 C535 0.930 . S
C526 H520 0.930 . S
C526 C527 1.355 . S
C526 C528 1.415 . S
C527 C526 1.355 . S
C527 C529 1.419 . S
C528 C526 1.415 . S
C528 C533 1.425 . S
C528 C535 1.409 . S
C529 H521 0.930 . S
C529 C527 1.419 . S
C529 C530 1.362 . S
C530 H522 0.930 . S
C530 C529 1.362 . S
C530 C533 1.409 . S
C531 H523 0.930 . S
C531 C532 1.355 . S
C531 C533 1.415 . S
C532 C531 1.355 . S
C532 C534 1.419 . S
C533 C528 1.425 . S
C533 C530 1.409 . S
C533 C531 1.415 . S
C534 H524 0.930 . S
C534 C532 1.419 . S
C534 C535 1.362 . S
C535 H525 0.930 . S
C535 C528 1.409 . S
C535 C534 1.362 . S
H536 C542 0.930 . S
H537 C545 0.930 . S
H538 C546 0.930 . S
H539 C547 0.930 . S
H540 C550 0.930 . S
H541 C551 0.930 . S
C542 H536 0.930 . S
C542 C543 1.355 . S
C542 C544 1.415 . S
C543 C542 1.355 . S
C543 C545 1.419 . S
C544 C542 1.415 . S
C544 C549 1.425 . S
C544 C551 1.409 . S
C545 H537 0.930 . S
C545 C543 1.419 . S
C545 C546 1.362 . S
C546 H538 0.930 . S
C546 C545 1.362 . S
C546 C549 1.409 . S
C547 H539 0.930 . S
C547 C548 1.355 . S
C547 C549 1.415 . S
C548 C547 1.355 . S
C548 C550 1.419 . S
C549 C544 1.425 . S
C549 C546 1.409 . S
C549 C547 1.415 . S
C550 H540 0.930 . S
C550 C548 1.419 . S
C550 C551 1.362 . S
C551 H541 0.930 . S
C551 C544 1.409 . S
C551 C550 1.362 . S
C175 C7 1.403 . S
C180 C91 1.344 . S
C191 C21 1.384 . S
C196 C105 1.381 . S
C207 C35 1.378 . S
C212 C119 1.309 . S
C223 C133 1.337 . S
C228 C49 1.366 . S
C239 C63 1.333 . S
C244 C147 1.400 . S
C255 C161 1.324 . S
C260 C77 1.335 . S
C271 C13 0.870 . S
C276 C139 0.915 . S
C287 C27 1.027 . S
C292 C153 0.892 . S
C303 C167 0.859 . S
C308 C41 1.004 . S
C319 C97 1.013 . S
C324 C55 0.865 . S
C335 C69 0.851 . S
C340 C111 0.957 . S
C351 C83 0.972 . S
C356 C125 1.014 . S
C367 C165 1.699 . S
C372 C11 1.696 . S
C383 C25 1.739 . S
C388 C95 1.737 . S
C399 C39 1.739 . S
C404 C109 1.735 . S
C415 C123 1.700 . S
C420 C53 1.696 . S
C431 C137 1.731 . S
C436 C67 1.732 . S
C447 C81 1.730 . S
C452 C151 1.724 . S
C463 C8 0.671 . S
C468 C148 0.656 . S
C479 C162 0.843 . S
C484 C22 0.877 . S
C495 C92 0.916 . S
C500 C36 0.907 . S
C511 C50 0.881 . S
C516 C106 0.898 . S
C527 C120 0.916 . S
C532 C64 0.919 . S
C543 C134 0.910 . S
C548 C78 0.895 . S
