# Generated by pormake.
# Topology sxb, (6)-cn, num edge types: 1
# Building blocks:
#     Node 0, Type 0, BuildingBlock: KUMJIN_clean_sbu_1, # of connection points: 6
#     Node 1, Type 0, BuildingBlock: KUMJIN_clean_sbu_1, # of connection points: 6
#     Node 2, Type 0, BuildingBlock: KUMJIN_clean_sbu_1, # of connection points: 6
#     Node 3, Type 0, BuildingBlock: KUMJIN_clean_sbu_1, # of connection points: 6
#     Edge 4, Type (0, 0), BuildingBlock: CIFDUS_clean_linker_0, # of connection points: 2
#     Edge 5, Type (0, 0), BuildingBlock: CIFDUS_clean_linker_0, # of connection points: 2
#     Edge 6, Type (0, 0), BuildingBlock: CIFDUS_clean_linker_0, # of connection points: 2
#     Edge 7, Type (0, 0), BuildingBlock: CIFDUS_clean_linker_0, # of connection points: 2
#     Edge 8, Type (0, 0), BuildingBlock: CIFDUS_clean_linker_0, # of connection points: 2
#     Edge 9, Type (0, 0), BuildingBlock: CIFDUS_clean_linker_0, # of connection points: 2
#     Edge 10, Type (0, 0), BuildingBlock: CIFDUS_clean_linker_0, # of connection points: 2
#     Edge 11, Type (0, 0), BuildingBlock: CIFDUS_clean_linker_0, # of connection points: 2
#     Edge 12, Type (0, 0), BuildingBlock: CIFDUS_clean_linker_0, # of connection points: 2
#     Edge 13, Type (0, 0), BuildingBlock: CIFDUS_clean_linker_0, # of connection points: 2
#     Edge 14, Type (0, 0), BuildingBlock: CIFDUS_clean_linker_0, # of connection points: 2
#     Edge 15, Type (0, 0), BuildingBlock: CIFDUS_clean_linker_0, # of connection points: 2
# Relax obj value: 0.017
# Max RMSD: 0.064
# Mean RMSD: 0.064
data_MOF--net-sxb--node1-KUMJIN_clean_sbu_1--edge1-CIFDUS_clean_linker_0
_symmetry_space_group_name_H-M    P1
_symmetry_Int_Tables_number       1
_symmetry_cell_setting            triclinic
loop_
_symmetry_equiv_pos_as_xyz
'x, y, z'
_cell_length_a     13.459763
_cell_length_b     44.88997
_cell_length_c     26.046211
_cell_angle_alpha  115.18756
_cell_angle_beta   89.945322
_cell_angle_gamma 89.789126
loop_
_atom_site_label
_atom_site_type_symbol
_atom_site_fract_x
_atom_site_fract_y
_atom_site_fract_z
_atom_type_partial_charge
Eu0 Eu 0.04017 0.95699 0.97085 0.0
C1 C 0.16446 0.09361 0.13899 0.0
N2 N 0.07302 0.07963 0.13162 0.0
C3 C 0.06001 0.09586 0.23203 0.0
C4 C 0.20951 0.10755 0.19305 0.0
C5 C 1.01746 0.08335 0.17803 0.0
C6 C 0.15757 0.10722 0.23934 0.0
C7 C 0.29459 0.11679 0.10268 0.0
C8 C 0.20701 0.09809 0.09429 0.0
C9 C 0.34365 0.12826 0.15503 0.0
C10 C 0.30134 0.12355 0.20011 0.0
Eu11 Eu 1.00986 0.05744 0.03723 0.0
N12 N 0.15684 0.0875 0.04457 0.0
C13 C 0.32657 0.12536 0.0596 0.0
C14 C 0.1831 0.09815 0.00456 0.0
C15 C 0.2689 0.11678 0.01096 0.0
H16 H 0.93999 0.07648 0.17357 0.0
H17 H 0.29043 0.12444 0.97836 0.0
H18 H 0.04607 0.92568 0.82869 0.0
H19 H 0.8172 0.91894 0.10747 0.0
H20 H 0.13815 0.09218 0.96767 0.0
H21 H 0.39291 0.13993 0.06463 0.0
H22 H 0.95336 0.94774 0.08434 0.0
H23 H 1.01678 0.09738 0.26815 0.0
H24 H 0.41166 0.14227 0.16196 0.0
H25 H 0.3374 0.13406 0.24115 0.0
H26 H 0.94139 0.89096 0.7475 0.0
H27 H 0.18962 0.11766 0.28147 0.0
H28 H 0.70239 0.88381 0.03201 0.0
N29 N 0.94608 0.9243 0.89056 0.0
C30 C 0.86848 0.90806 0.90049 0.0
C31 C 0.91855 0.8962 0.79038 0.0
C32 C 0.80922 0.88659 0.85533 0.0
C33 C 0.97588 0.91682 0.83645 0.0
C34 C 0.83355 0.88155 0.79994 0.0
N35 N 0.91047 0.93187 0.99848 0.0
C36 C 0.90074 0.93398 0.05201 0.0
C37 C 0.774 0.89376 0.96646 0.0
C38 C 0.85132 0.91142 0.95557 0.0
C39 C 0.76089 0.89699 0.02196 0.0
C40 C 0.82509 0.91697 0.06479 0.0
H41 H 0.78998 0.8652 0.76412 0.0
H42 H 0.68349 0.85347 0.83235 0.0
H43 H 0.65236 0.85991 0.92955 0.0
O44 O 0.09162 0.91628 0.9907 0.0
O45 O 0.87808 0.97655 0.98661 0.0
O46 O 0.85848 0.03317 0.01666 0.0
O47 O 0.14119 0.91968 0.91334 0.0
O48 O 0.07718 0.98736 0.06288 0.0
O49 O 0.95989 0.02784 0.08527 0.0
O50 O 0.9602 0.09249 0.00378 0.0
O51 O 0.16131 0.03457 0.99679 0.0
O52 O 0.17845 0.98739 0.01073 0.0
O53 O 0.92026 0.10029 0.08863 0.0
O54 O 0.98046 0.02919 0.943 0.0
O55 O 0.06956 0.9799 0.90831 0.0
C56 C 0.82225 0.00328 9e-05 0.0
C57 C 0.20215 0.87247 0.92716 0.0
C58 C 0.25285 0.82276 0.938 0.0
C59 C 0.32018 0.81561 0.89275 0.0
C60 C 0.26792 0.86381 0.88121 0.0
C61 C 0.32662 0.83572 0.86443 0.0
C62 C 0.19409 0.85173 0.95547 0.0
C63 C 1.01614 0.00856 0.09933 0.0
C64 C 0.14261 0.90297 0.94384 0.0
C65 C 0.73016 0.86986 0.86649 0.0
C66 C 0.71268 0.87341 0.92184 0.0
C67 C 0.21762 0.01169 0.00202 0.0
C68 C 0.93827 0.14783 0.0721 0.0
C69 C 0.89714 0.20034 0.0691 0.0
C70 C 0.95287 0.21664 0.11909 0.0
C71 C 0.99577 0.16465 0.1208 0.0
C72 C 0.89146 0.16562 0.04566 0.0
C73 C 1.00287 0.19886 0.14402 0.0
C74 C 1.02859 0.00509 0.90218 0.0
C75 C 0.91882 0.11229 0.05123 0.0
H76 H 0.36953 0.79454 0.87932 0.0
H77 H 0.27508 0.879 0.85839 0.0
H78 H 0.3782 0.82962 0.82947 0.0
H79 H 0.14164 0.85786 0.9901 0.0
H80 H 0.95675 0.24321 0.1399 0.0
H81 H 0.03304 0.15147 0.14177 0.0
H82 H 0.84971 0.15218 0.0072 0.0
H83 H 0.04552 0.21177 0.18231 0.0
Eu84 Eu 0.05332 0.05238 0.5303 0.0
C85 C 0.18706 0.90757 0.36826 0.0
N86 N 0.10334 0.92505 0.36936 0.0
C87 C 0.10783 0.90427 0.26782 0.0
C88 C 0.23607 0.88865 0.31647 0.0
C89 C 0.05996 0.92176 0.31972 0.0
C90 C 0.19713 0.88808 0.26626 0.0
C91 C 0.29978 0.88547 0.41679 0.0
C92 C 0.21973 0.90619 0.41819 0.0
C93 C 0.35075 0.86784 0.36569 0.0
C94 C 0.31941 0.86958 0.31581 0.0
Eu95 Eu 1.02864 0.95173 0.46001 0.0
N96 N 0.17057 0.92378 0.46767 0.0
C97 C 0.32437 0.88223 0.46649 0.0
C98 C 0.1913 0.91973 0.51566 0.0
C99 C 0.26893 0.89908 0.51594 0.0
H100 H 0.98721 0.9319 0.31944 0.0
H101 H 0.28641 0.89639 0.5543 0.0
H102 H 0.998 0.06885 0.66673 0.0
H103 H 0.87092 0.09217 0.38322 0.0
H104 H 0.14858 0.93284 0.55375 0.0
H105 H 0.38498 0.86639 0.46689 0.0
H106 H 0.99488 0.0621 0.4127 0.0
H107 H 0.07437 0.90254 0.22886 0.0
H108 H 0.41313 0.85213 0.36402 0.0
H109 H 0.35803 0.85508 0.27643 0.0
H110 H 0.87776 0.10208 0.73963 0.0
H111 H 0.23284 0.8739 0.22575 0.0
H112 H 0.74637 0.1276 0.45238 0.0
N113 N 0.93582 0.07979 0.6021 0.0
C114 C 0.86881 0.09842 0.58925 0.0
C115 C 0.87344 0.10091 0.69731 0.0
C116 C 0.79957 0.11847 0.63016 0.0
C117 C 0.94066 0.08146 0.65549 0.0
C118 C 0.8022 0.11937 0.68454 0.0
N119 N 0.93419 0.07713 0.4952 0.0
C120 C 0.93714 0.07571 0.44191 0.0
C121 C 0.79897 0.11607 0.52044 0.0
C122 C 0.86875 0.09735 0.53476 0.0
C123 C 0.79916 0.11374 0.46506 0.0
C124 C 0.8687 0.09353 0.42571 0.0
H125 H 0.75054 0.13459 0.71718 0.0
H126 H 0.67679 0.15268 0.64681 0.0
H127 H 0.67582 0.15041 0.55088 0.0
O128 O 0.11413 0.09229 0.51225 0.0
O129 O 0.89429 0.03142 0.5124 0.0
O130 O 0.87581 0.97424 0.4685 0.0
O131 O 0.1275 0.09422 0.59739 0.0
O132 O 0.09745 0.02169 0.43883 0.0
O133 O 0.98567 0.97913 0.40734 0.0
O134 O 0.97557 0.91963 0.49769 0.0
O135 O 0.18472 0.97306 0.49059 0.0
O136 O 0.20198 0.02702 0.50168 0.0
O137 O 0.95884 0.90464 0.40757 0.0
O138 O 0.98761 0.98417 0.551 0.0
O139 O 0.09179 0.02813 0.58954 0.0
C140 C 0.83946 0.00441 0.49093 0.0
C141 C 0.19399 0.14106 0.58372 0.0
C142 C 0.247 0.18927 0.56911 0.0
C143 C 0.28917 0.20234 0.62371 0.0
C144 C 0.23541 0.15518 0.63822 0.0
C145 C 0.28278 0.18553 0.65788 0.0
C146 C 0.19953 0.15828 0.54922 0.0
C147 C 0.0418 1.00044 0.39886 0.0
C148 C 0.14303 0.10894 0.56435 0.0
C149 C 0.73046 0.13716 0.61586 0.0
C150 C 0.7301 0.13595 0.56124 0.0
C151 C 0.23948 0.99872 0.49611 0.0
C152 C 0.85792 0.87819 0.4503 0.0
C153 C 0.78619 0.8312 0.46085 0.0
C154 C 0.69197 0.84061 0.44917 0.0
C155 C 0.7639 0.88712 0.43859 0.0
C156 C 0.86884 0.85051 0.46175 0.0
C157 C 0.68113 0.86843 0.43837 0.0
C158 C 0.04889 1.00215 0.59119 0.0
C159 C 0.94686 0.8966 0.44966 0.0
H160 H 0.32869 0.22549 0.64003 0.0
H161 H 0.23156 0.14271 0.66577 0.0
H162 H 0.31528 0.19603 0.69983 0.0
H163 H 0.16564 0.14786 0.50757 0.0
H164 H 0.62675 0.82613 0.44722 0.0
H165 H 0.75483 0.90826 0.4292 0.0
H166 H 0.94205 0.8441 0.4714 0.0
H167 H 0.60842 0.87528 0.42911 0.0
Eu168 Eu 0.53835 0.4588 0.96425 0.0
C169 C 0.71809 0.59861 0.11997 0.0
N170 N 0.62935 0.58516 0.12368 0.0
C171 C 0.64329 0.60807 0.22497 0.0
C172 C 0.77374 0.61695 0.16911 0.0
C173 C 0.58993 0.59048 0.17523 0.0
C174 C 0.73586 0.62117 0.22189 0.0
C175 C 0.84358 0.60867 0.06191 0.0
C176 C 0.75313 0.59443 0.06683 0.0
C177 C 0.89937 0.62671 0.11081 0.0
C178 C 0.86477 0.63073 0.16417 0.0
Eu179 Eu 0.54763 0.55638 0.03648 0.0
N180 N 0.70017 0.57552 0.0197 0.0
C181 C 0.87547 0.60419 0.00785 0.0
C182 C 0.72802 0.57239 0.96736 0.0
C183 C 0.81686 0.58627 0.96047 0.0
H184 H 0.51656 0.58177 0.17844 0.0
H185 H 0.83965 0.58336 0.91873 0.0
H186 H 0.52459 0.4404 0.82394 0.0
H187 H 0.28384 0.43326 0.10264 0.0
H188 H 0.68127 0.55954 0.93115 0.0
H189 H 0.94456 0.61479 0.00233 0.0
H190 H 0.43625 0.45481 0.07847 0.0
H191 H 0.61241 0.61188 0.2657 0.0
H192 H 0.96949 0.63765 0.10782 0.0
H193 H 0.90868 0.6448 0.20147 0.0
H194 H 0.40862 0.41236 0.74522 0.0
H195 H 0.77666 0.635 0.26059 0.0
H196 H 0.15958 0.40447 0.02805 0.0
N197 N 0.4323 0.43492 0.88581 0.0
C198 C 0.34883 0.42113 0.89577 0.0
C199 C 0.39046 0.41497 0.78744 0.0
C200 C 0.28173 0.40412 0.8515 0.0
C201 C 0.45515 0.43148 0.83248 0.0
C202 C 0.30323 0.40133 0.79698 0.0
N203 N 0.39349 0.44182 0.99342 0.0
C204 C 0.37997 0.44411 0.04675 0.0
C205 C 0.2425 0.41087 0.96216 0.0
C206 C 0.32917 0.42455 0.95083 0.0
C207 C 0.22535 0.41465 0.01767 0.0
C208 C 0.29485 0.43111 0.06003 0.0
H209 H 0.25346 0.38842 0.76187 0.0
H210 H 0.143 0.37738 0.82938 0.0
H211 H 0.10881 0.38324 0.92595 0.0
O212 O 0.58721 0.41937 0.98958 0.0
O213 O 0.39138 0.48724 0.96788 0.0
O214 O 0.4001 0.53589 0.04855 0.0
O215 O 0.58885 0.41192 0.90092 0.0
O216 O 0.5841 0.48479 0.05731 0.0
O217 O 0.49152 0.5325 0.09212 0.0
O218 O 0.4823 0.58599 0.99589 0.0
O219 O 0.70113 0.5308 0.02698 0.0
O220 O 0.69416 0.47642 0.96057 0.0
O221 O 0.50276 0.60718 0.08678 0.0
O222 O 0.51036 0.52895 0.94243 0.0
O223 O 0.60297 0.48153 0.9092 0.0
C224 C 0.34762 0.51267 0.00918 0.0
C225 C 0.63415 0.36427 0.91554 0.0
C226 C 0.69367 0.31725 0.93117 0.0
C227 C 0.68117 0.297 0.87308 0.0
C228 C 0.62227 0.34333 0.85762 0.0
C229 C 0.64596 0.31001 0.83667 0.0
C230 C 0.67051 0.3511 0.95235 0.0
C231 C 0.53943 0.50908 0.09944 0.0
C232 C 0.60288 0.3991 0.93664 0.0
C233 C 0.1954 0.39052 0.8629 0.0
C234 C 0.17589 0.39387 0.91796 0.0
C235 C 0.74452 0.50267 0.99356 0.0
C236 C 0.38326 0.63289 0.05236 0.0
C237 C 0.29992 0.67805 0.0403 0.0
C238 C 0.22525 0.67794 0.07796 0.0
C239 C 0.30732 0.63299 0.08933 0.0
C240 C 0.37887 0.65525 0.02753 0.0
C241 C 0.22874 0.65539 0.10191 0.0
C242 C 0.56407 0.50645 0.90254 0.0
C243 C 0.47228 0.61213 0.04369 0.0
H244 H 0.70002 0.27105 0.85561 0.0
H245 H 0.59353 0.35261 0.82836 0.0
H246 H 0.63673 0.29416 0.792 0.0
H247 H 0.67923 0.36688 0.99716 0.0
H248 H 0.16322 0.69495 0.08817 0.0
H249 H 0.30988 0.61624 0.10935 0.0
H250 H 0.43826 0.6555 -0.00046 0.0
H251 H 0.17062 0.65544 0.13069 0.0
Eu252 Eu 0.52401 0.55234 0.52736 0.0
C253 C 0.68035 0.40927 0.39765 0.0
N254 N 0.60678 0.42741 0.38834 0.0
C255 C 0.65499 0.407 0.29052 0.0
C256 C 0.74626 0.3902 0.35365 0.0
C257 C 0.59053 0.42517 0.33503 0.0
C258 C 0.73377 0.38971 0.29996 0.0
C259 C 0.76503 0.39078 0.4617 0.0
C260 C 0.68965 0.40938 0.45132 0.0
C261 C 0.83074 0.37202 0.41787 0.0
C262 C 0.82149 0.37177 0.36414 0.0
Eu263 Eu 0.49845 0.45365 0.46622 0.0
N264 N 0.62729 0.42861 0.49393 0.0
C265 C 0.773 0.39194 0.51618 0.0
C266 C 0.6336 0.42955 0.54681 0.0
C267 C 0.70702 0.41141 0.55888 0.0
H268 H 0.52597 0.43604 0.32545 0.0
H269 H 0.71216 0.41223 0.60092 0.0
H270 H 0.54631 0.57609 0.67056 0.0
H271 H 0.27826 0.59999 0.41509 0.0
H272 H 0.5804 0.44355 0.57916 0.0
H273 H 0.82998 0.37798 0.52576 0.0
H274 H 0.41777 0.56675 0.42515 0.0
H275 H 0.64235 0.40568 0.24856 0.0
H276 H 0.88928 0.35764 0.42514 0.0
H277 H 0.87267 0.35702 0.33077 0.0
H278 H 0.44661 0.60582 0.7562 0.0
H279 H 0.78287 0.37534 0.26511 0.0
H280 H 0.16847 0.63069 0.49725 0.0
N281 N 0.43716 0.57981 0.614 0.0
C282 C 0.35371 0.59603 0.61001 0.0
C283 C 0.41859 0.60269 0.71527 0.0
C284 C 0.29755 0.61522 0.65889 0.0
C285 C 0.47355 0.58486 0.66609 0.0
C286 C 0.32929 0.61747 0.71157 0.0
N287 N 0.38389 0.57782 0.51108 0.0
C288 C 0.36908 0.57985 0.46078 0.0
C289 C 0.24773 0.61492 0.55383 0.0
C290 C 0.32814 0.59577 0.55775 0.0
C291 C 0.22925 0.6161 0.50174 0.0
C292 C 0.29092 0.59878 0.45519 0.0
H293 H 0.28801 0.63191 0.74999 0.0
H294 H 0.17026 0.64758 0.6914 0.0
H295 H 0.12726 0.64748 0.59971 0.0
O296 O 0.58144 0.5837 0.4891 0.0
O297 O 0.37078 0.5291 0.49382 0.0
O298 O 0.3562 0.48152 0.50648 0.0
O299 O 0.58689 0.60052 0.58015 0.0
O300 O 0.5654 0.5193 0.43638 0.0
O301 O 0.45218 0.47757 0.40822 0.0
O302 O 0.44573 0.41252 0.48387 0.0
O303 O 0.65839 0.4743 0.48552 0.0
O304 O 0.67813 0.531 0.51887 0.0
O305 O 0.41608 0.41308 0.40179 0.0
O306 O 0.4617 0.48368 0.55886 0.0
O307 O 0.56773 0.52802 0.58552 0.0
C308 C 0.31595 0.50671 0.50087 0.0
C309 C 0.69359 0.62647 0.53938 0.0
C310 C 0.76711 0.67431 0.53256 0.0
C311 C 0.86061 0.66449 0.54436 0.0
C312 C 0.78695 0.61704 0.55107 0.0
C313 C 0.87023 0.63602 0.55336 0.0
C314 C 0.6839 0.65484 0.52986 0.0
C315 C 0.50219 0.49997 0.39899 0.0
C316 C 0.60422 0.60766 0.5375 0.0
C317 C 0.21432 0.63288 0.65431 0.0
C318 C 0.18987 0.63288 0.60208 0.0
C319 C 0.71413 0.50105 0.50215 0.0
C320 C 0.35849 0.36482 0.41358 0.0
C321 C 0.30813 0.31597 0.42696 0.0
C322 C 0.26652 0.30293 0.37223 0.0
C323 C 0.31759 0.35072 0.35892 0.0
C324 C 0.35428 0.34721 0.44746 0.0
C325 C 0.27191 0.32008 0.33857 0.0
C326 C 0.51595 0.50672 0.59695 0.0
C327 C 0.40939 0.39698 0.43315 0.0
H328 H 0.92618 0.67907 0.54761 0.0
H329 H 0.79516 0.59523 0.55863 0.0
H330 H 0.9424 0.62878 0.56258 0.0
H331 H 0.61127 0.66158 0.52004 0.0
H332 H 0.22805 0.27959 0.35543 0.0
H333 H 0.32097 0.36336 0.33161 0.0
H334 H 0.38809 0.35756 0.48913 0.0
H335 H 0.23996 0.3096 0.29648 0.0
H336 H 0.26097 0.74419 0.09149 0.0
H337 H 0.32421 0.66415 0.92868 0.0
H338 H 0.30624 0.7013 0.8828 0.0
H339 H 0.27123 0.75586 0.88847 0.0
H340 H 0.22185 0.83764 0.05145 0.0
H341 H 0.23043 0.80011 0.09734 0.0
C342 C 0.27054 0.73494 0.04595 0.0
C343 C 0.29368 0.7014 0.01348 0.0
C344 C 0.26094 0.7566 0.01982 0.0
C345 C 0.30724 0.68984 0.95465 0.0
C346 C 0.29623 0.71103 0.92836 0.0
C347 C 0.2638 0.76581 0.9342 0.0
C348 C 0.24747 0.79986 0.96628 0.0
C349 C 0.27309 0.7444 0.9605 0.0
C350 C 0.2339 0.81167 0.02531 0.0
C351 C 0.23995 0.79022 0.05174 0.0
H352 H 0.6295 0.26217 0.93871 0.0
H353 H 0.8486 0.33894 0.00538 0.0
H354 H 0.93135 0.30947 0.05391 0.0
H355 H 0.94917 0.25972 0.06978 0.0
H356 H 0.7217 0.18487 0.00869 0.0
H357 H 0.63767 0.21507 0.96307 0.0
C358 C 0.69488 0.27256 0.96437 0.0
C359 C 0.73364 0.30247 0.96811 0.0
C360 C 0.74213 0.25542 0.99172 0.0
C361 C 0.81732 0.316 0.00209 0.0
C362 C 0.8651 0.29899 0.02932 0.0
C363 C 0.88005 0.25015 0.04777 0.0
C364 C 0.84343 0.21954 0.04257 0.0
C365 C 0.82929 0.26833 0.02339 0.0
C366 C 0.75443 0.20766 0.01235 0.0
C367 C 0.70505 0.2252 0.98676 0.0
H368 H 0.2351 0.25591 0.60404 0.0
H369 H 0.27742 0.1651 0.4538 0.0
H370 H 0.30301 0.19624 0.39751 0.0
H371 H 0.32017 0.24916 0.39164 0.0
H372 H 0.27736 0.33989 0.54204 0.0
H373 H 0.2519 0.30871 0.59814 0.0
C374 C 0.25106 0.24279 0.55909 0.0
C375 C 0.25518 0.20804 0.53358 0.0
C376 C 0.26793 0.26086 0.52717 0.0
C377 C 0.27286 0.1917 0.4748 0.0
C378 C 0.28863 0.20954 0.4426 0.0
C379 C 0.30418 0.26225 0.43658 0.0
C380 C 0.30008 0.29702 0.46221 0.0
C381 C 0.28723 0.24413 0.46846 0.0
C382 C 0.28217 0.3133 0.52096 0.0
C383 C 0.2664 0.29543 0.55306 0.0
H384 H 0.66234 0.8083 0.51889 0.0
H385 H 0.93829 0.78595 0.425 0.0
H386 H 0.95694 0.73604 0.4395 0.0
H387 H 0.89261 0.69771 0.47605 0.0
H388 H 0.61617 0.71989 0.56943 0.0
H389 H 0.59822 0.77006 0.55561 0.0
C390 C 0.72609 0.79238 0.50102 0.0
C391 C 0.79849 0.80102 0.47077 0.0
C392 C 0.73577 0.76336 0.50872 0.0
C393 C 0.88179 0.78031 0.44911 0.0
C394 C 0.89223 0.75154 0.45695 0.0
C395 C 0.82896 0.71367 0.49399 0.0
C396 C 0.75609 0.70489 0.52381 0.0
C397 C 0.81948 0.74275 0.48648 0.0
C398 C 0.67298 0.72566 0.54565 0.0
C399 C 0.66293 0.75456 0.53817 0.0
H400 H 0.36323 0.97278 0.01958 0.0
H401 H 0.32822 0.05328 0.97267 0.0
H402 H 0.50737 0.05979 0.97235 0.0
H403 H 0.67756 0.04169 0.98253 0.0
H404 H 0.71384 0.95907 0.02341 0.0
H405 H 0.53403 0.95323 0.0261 0.0
C406 C 0.3944 0.9918 0.00926 0.0
C407 C 0.32981 0.01363 0.9987 0.0
C408 C 0.49948 0.99437 0.00641 0.0
C409 C 0.37386 0.03741 0.9842 0.0
C410 C 0.47741 0.04071 0.9829 0.0
C411 C 0.64626 0.02231 0.99185 0.0
C412 C 0.71075 1.00009 0.00105 0.0
C413 C 0.54138 0.01936 0.99389 0.0
C414 C 0.66742 0.97548 0.01356 0.0
C415 C 0.56377 0.97254 0.01609 0.0
H416 H 0.38251 0.04149 0.49089 0.0
H417 H 0.35084 0.94988 0.5044 0.0
H418 H 0.52896 0.94227 0.50081 0.0
H419 H 0.6973 0.96261 0.49718 0.0
H420 H 0.73125 0.05368 0.48206 0.0
H421 H 0.55184 0.06167 0.48637 0.0
C422 C 0.41423 0.01985 0.49319 0.0
C423 C 0.35089 0.99562 0.49636 0.0
C424 C 0.51887 0.01613 0.49255 0.0
C425 C 0.39541 0.96816 0.49976 0.0
C426 C 0.49849 0.96407 0.49853 0.0
C427 C 0.66556 0.98409 0.49436 0.0
C428 C 0.72891 0.00817 0.49115 0.0
C429 C 0.56126 0.9879 0.495 0.0
C430 C 0.68547 0.03575 0.48767 0.0
C431 C 0.58213 0.03994 0.48894 0.0
H432 H 0.88631 0.54565 0.06353 0.0
H433 H 0.85744 0.45366 0.91473 0.0
H434 H 0.03737 0.44864 0.90575 0.0
H435 H 0.20493 0.47082 0.93801 0.0
H436 H 0.23492 0.56185 0.08834 0.0
H437 H 0.05475 0.56754 0.0965 0.0
C438 C 0.91893 0.5248 0.02852 0.0
C439 C 0.85641 0.50044 0.98946 0.0
C440 C 1.02398 0.52196 0.02327 0.0
C441 C 0.90203 0.47305 0.94557 0.0
C442 C 1.00575 0.4701 0.94018 0.0
C443 C 0.17275 0.49158 0.97323 0.0
C444 C 0.23561 0.51551 0.01284 0.0
C445 C 0.06782 0.49442 0.97862 0.0
C446 C 0.19013 0.54279 0.05706 0.0
C447 C 0.08628 0.54608 0.06199 0.0
H448 H 0.17141 0.46821 0.51931 0.0
H449 H 0.20551 0.54861 0.4724 0.0
H450 H 1.02727 0.5561 0.4735 0.0
H451 H 0.85807 0.53869 0.48441 0.0
H452 H 0.82067 0.45635 0.52579 0.0
H453 H 1.00057 0.44946 0.52703 0.0
C454 C 0.1401 0.48739 0.50932 0.0
C455 C 0.20423 0.50898 0.49843 0.0
C456 C 0.03524 0.49051 0.5073 0.0
C457 C 0.16028 0.53296 0.48426 0.0
C458 C 0.05716 0.53683 0.48375 0.0
C459 C 0.88917 0.51928 0.4939 0.0
C460 C 0.82483 0.49747 0.50368 0.0
C461 C 0.99357 0.51578 0.4952 0.0
C462 C 0.86745 0.47255 0.51578 0.0
C463 C 0.97095 0.46899 0.51742 0.0
H464 H 0.89501 0.00714 0.33313 0.0
H465 H 0.20964 0.99043 0.33704 0.0
H466 H 0.22949 0.99039 0.24351 0.0
H467 H 0.158 0.9969 0.16203 0.0
H468 H 0.8464 0.01933 0.16207 0.0
H469 H 0.82448 0.01617 0.25303 0.0
C470 C 0.96751 0.00326 0.31301 0.0
C471 C 0.05084 0.99858 0.34123 0.0
C472 C 0.97891 0.00483 0.2605 0.0
C473 C 0.14483 0.99411 0.31572 0.0
C474 C 0.15611 0.99415 0.26246 0.0
C475 C 0.08537 1.00104 0.18203 0.0
C476 C 1.00388 0.00822 0.15552 0.0
C477 C 0.0739 0.99984 0.23473 0.0
C478 C 0.91031 0.01397 0.18203 0.0
C479 C 0.89767 0.01196 0.23379 0.0
H480 H 1.00054 0.95899 0.79149 0.0
H481 H 0.07292 0.06042 0.88994 0.0
H482 H 0.10219 0.06784 0.80401 0.0
H483 H 0.10792 0.04491 0.69957 0.0
H484 H 0.99317 0.94714 0.60325 0.0
H485 H 0.98782 0.93778 0.68826 0.0
C486 C 1.02635 0.98227 0.79449 0.0
C487 C 0.04213 0.00848 0.84796 0.0
C488 C 0.03657 0.98677 0.74436 0.0
C489 C 0.06643 0.03937 0.84994 0.0
C490 C 0.08205 0.04368 0.80046 0.0
C491 C 0.07948 0.0218 0.69697 0.0
C492 C 0.05059 0.99691 0.6442 0.0
C493 C 0.06767 0.01746 0.74719 0.0
C494 C 1.01693 0.96682 0.64256 0.0
C495 C 1.01288 0.96144 0.69154 0.0
H496 H 0.6472 0.51178 0.33746 0.0
H497 H 0.33405 0.49201 0.33657 0.0
H498 H 0.31551 0.49594 0.24598 0.0
H499 H 0.3896 0.50437 0.16596 0.0
H500 H 0.70604 0.51694 0.16147 0.0
H501 H 0.72235 0.51726 0.25547 0.0
C502 C 0.57491 0.50849 0.31745 0.0
C503 C 0.49189 0.50189 0.34378 0.0
C504 C 0.56559 0.50969 0.26449 0.0
C505 C 0.39897 0.49706 0.31698 0.0
C506 C 0.38835 0.49943 0.26533 0.0
C507 C 0.46194 0.50715 0.18576 0.0
C508 C 0.54675 0.51056 0.15711 0.0
C509 C 0.47119 0.50565 0.23856 0.0
C510 C 0.6401 0.51409 0.18284 0.0
C511 C 0.64932 0.51426 0.23647 0.0
H512 H 0.66783 0.5013 0.66154 0.0
H513 H 0.35278 0.5187 0.66301 0.0
H514 H 0.34002 0.52229 0.75931 0.0
H515 H 0.41783 0.51872 0.84228 0.0
H516 H 0.72877 0.49446 0.83645 0.0
H517 H 0.74438 0.49504 0.74306 0.0
C518 C 0.59681 0.50613 0.68339 0.0
C519 C 0.51142 0.51013 0.65588 0.0
C520 C 0.58943 0.5067 0.73784 0.0
C521 C 0.4193 0.51566 0.68375 0.0
C522 C 0.41206 0.5177 0.73869 0.0
C523 C 0.48901 0.51383 0.8206 0.0
C524 C 0.57241 0.50701 0.84629 0.0
C525 C 0.49643 0.51301 0.76606 0.0
C526 C 0.66374 0.49987 0.81735 0.0
C527 C 0.67266 0.50026 0.76407 0.0
loop_
_geom_bond_atom_site_label_1
_geom_bond_atom_site_label_2
_geom_bond_distance
_geom_bond_site_symmetry_2
_ccdc_geom_bond_type
Eu0 N29 2.600 . S
Eu0 N35 2.562 . S
Eu0 O44 2.462 1_655 S
Eu0 O45 2.373 . S
Eu0 O47 2.432 1_655 S
Eu0 O48 2.291 1_556 S
Eu0 O52 2.335 1_655 S
Eu0 O55 2.372 1_655 S
Eu0 C64 2.787 1_655 S
C1 N2 1.365 . S
C1 C4 1.405 . S
C1 C8 1.448 . S
N2 C1 1.365 . S
N2 C5 1.319 . S
N2 Eu11 2.600 . S
C3 C5 1.397 . S
C3 C6 1.367 . S
C3 H23 0.931 . S
C4 C1 1.405 . S
C4 C6 1.403 . S
C4 C10 1.439 . S
C5 N2 1.319 . S
C5 C3 1.397 . S
C5 H16 0.930 . S
C6 C3 1.367 . S
C6 C4 1.403 . S
C6 H27 0.929 . S
C7 C8 1.430 . S
C7 C9 1.387 . S
C7 C13 1.404 . S
C8 C1 1.448 . S
C8 C7 1.430 . S
C8 N12 1.351 . S
C9 C7 1.387 . S
C9 C10 1.374 . S
C9 H24 0.931 . S
C10 C4 1.439 . S
C10 C9 1.374 . S
C10 H25 0.931 . S
Eu11 N2 2.600 . S
Eu11 N12 2.562 . S
Eu11 O46 2.335 1_455 S
Eu11 O49 2.372 1_455 S
Eu11 O50 2.462 1_455 S
Eu11 O51 2.373 . S
Eu11 O53 2.432 1_455 S
Eu11 O54 2.291 1_554 S
Eu11 C75 2.787 1_455 S
N12 C8 1.351 . S
N12 Eu11 2.562 . S
N12 C14 1.325 1_554 S
C13 C7 1.404 . S
C13 C15 1.366 1_554 S
C13 H21 0.930 1_554 S
C14 N12 1.325 1_556 S
C14 C15 1.416 . S
C14 H20 0.929 . S
C15 C13 1.366 1_556 S
C15 C14 1.416 . S
C15 H17 0.930 . S
H16 C5 0.930 . S
H17 C15 0.930 . S
H18 C33 0.930 . S
H19 C40 0.930 . S
H20 C14 0.929 . S
H21 C13 0.930 1_556 S
H22 C36 0.929 . S
H23 C3 0.931 . S
H24 C9 0.931 . S
H25 C10 0.931 . S
H26 C31 0.931 . S
H27 C6 0.929 . S
H28 C39 0.928 1_554 S
N29 Eu0 2.600 . S
N29 C30 1.365 . S
N29 C33 1.319 . S
C30 N29 1.365 . S
C30 C32 1.405 . S
C30 C38 1.448 . S
C31 H26 0.931 . S
C31 C33 1.397 . S
C31 C34 1.367 . S
C32 C30 1.405 . S
C32 C34 1.403 . S
C32 C65 1.439 . S
C33 H18 0.930 . S
C33 N29 1.319 . S
C33 C31 1.397 . S
C34 C31 1.367 . S
C34 C32 1.403 . S
C34 H41 0.929 . S
N35 Eu0 2.562 . S
N35 C36 1.325 1_556 S
N35 C38 1.351 . S
C36 H22 0.929 . S
C36 N35 1.325 1_554 S
C36 C40 1.416 . S
C37 C38 1.430 . S
C37 C39 1.409 . S
C37 C66 1.387 . S
C38 C30 1.448 . S
C38 N35 1.351 . S
C38 C37 1.430 . S
C39 H28 0.928 1_556 S
C39 C37 1.409 . S
C39 C40 1.363 1_556 S
C40 H19 0.930 . S
C40 C36 1.416 . S
C40 C39 1.363 1_554 S
H41 C34 0.929 . S
H42 C65 0.931 . S
H43 C66 0.931 . S
O44 Eu0 2.462 1_455 S
O44 C64 1.252 . S
O45 Eu0 2.373 . S
O45 C56 1.249 1_565 S
O46 Eu11 2.335 1_655 S
O46 C56 1.264 1_554 S
O47 Eu0 2.432 1_455 S
O47 C64 1.268 . S
O48 Eu0 2.291 1_554 S
O48 C63 1.255 1_565 S
O49 Eu11 2.372 1_655 S
O49 C63 1.257 . S
O50 Eu11 2.462 1_655 S
O50 C75 1.252 . S
O51 Eu11 2.373 . S
O51 C67 1.249 1_545 S
O52 Eu0 2.335 1_455 S
O52 C67 1.264 1_556 S
O53 Eu11 2.432 1_655 S
O53 C75 1.268 . S
O54 Eu11 2.291 1_556 S
O54 C74 1.255 1_545 S
O55 Eu0 2.372 1_455 S
O55 C74 1.257 . S
C56 O45 1.249 1_545 S
C56 O46 1.264 1_556 S
C57 C60 1.382 . S
C57 C62 1.390 . S
C57 C64 1.506 . S
C58 C59 1.398 . S
C58 C62 1.392 . S
C59 C58 1.398 . S
C59 C61 1.372 . S
C59 H76 0.931 . S
C60 C57 1.382 . S
C60 C61 1.390 . S
C60 H77 0.931 . S
C61 C59 1.372 . S
C61 C60 1.390 . S
C61 H78 0.929 . S
C62 C57 1.390 . S
C62 C58 1.392 . S
C62 H79 0.930 1_556 S
C63 O48 1.255 1_545 S
C63 O49 1.257 . S
C64 Eu0 2.787 1_455 S
C64 O44 1.252 . S
C64 O47 1.268 . S
C64 C57 1.506 . S
C65 C32 1.439 . S
C65 H42 0.931 . S
C65 C66 1.374 . S
C66 C37 1.387 . S
C66 H43 0.931 . S
C66 C65 1.374 . S
C67 O51 1.249 1_565 S
C67 O52 1.264 1_554 S
C68 C71 1.382 . S
C68 C72 1.390 . S
C68 C75 1.506 . S
C69 C70 1.398 . S
C69 C72 1.392 . S
C70 C69 1.398 . S
C70 C73 1.372 . S
C70 H80 0.931 . S
C71 C68 1.382 . S
C71 C73 1.390 . S
C71 H81 0.931 . S
C72 C68 1.390 . S
C72 C69 1.392 . S
C72 H82 0.930 1_554 S
C73 C70 1.372 . S
C73 C71 1.390 . S
C73 H83 0.929 . S
C74 O54 1.255 1_565 S
C74 O55 1.257 . S
C75 Eu11 2.787 1_655 S
C75 O50 1.252 . S
C75 O53 1.268 . S
C75 C68 1.506 . S
H76 C59 0.931 . S
H77 C60 0.931 . S
H78 C61 0.929 . S
H79 C62 0.930 1_554 S
H80 C70 0.931 . S
H81 C71 0.931 . S
H82 C72 0.930 1_556 S
H83 C73 0.929 . S
Eu84 N113 2.600 . S
Eu84 N119 2.562 . S
Eu84 O128 2.462 1_655 S
Eu84 O129 2.373 . S
Eu84 O131 2.432 1_655 S
Eu84 O132 2.291 . S
Eu84 O136 2.335 1_655 S
Eu84 O139 2.372 1_655 S
Eu84 C148 2.787 1_655 S
C85 N86 1.365 . S
C85 C88 1.405 . S
C85 C92 1.448 . S
N86 C85 1.365 . S
N86 C89 1.319 . S
N86 Eu95 2.600 . S
C87 C89 1.397 . S
C87 C90 1.367 . S
C87 H107 0.931 . S
C88 C85 1.405 . S
C88 C90 1.403 . S
C88 C94 1.439 . S
C89 N86 1.319 . S
C89 C87 1.397 . S
C89 H100 0.930 . S
C90 C87 1.367 . S
C90 C88 1.403 . S
C90 H111 0.929 . S
C91 C92 1.430 . S
C91 C93 1.387 . S
C91 C97 1.404 . S
C92 C85 1.448 . S
C92 C91 1.430 . S
C92 N96 1.351 . S
C93 C91 1.387 . S
C93 C94 1.374 . S
C93 H108 0.931 . S
C94 C88 1.439 . S
C94 C93 1.374 . S
C94 H109 0.931 . S
Eu95 N86 2.600 . S
Eu95 N96 2.562 . S
Eu95 O130 2.335 1_455 S
Eu95 O133 2.372 1_455 S
Eu95 O134 2.462 1_455 S
Eu95 O135 2.373 . S
Eu95 O137 2.432 1_455 S
Eu95 O138 2.291 . S
Eu95 C159 2.787 1_455 S
N96 C92 1.351 . S
N96 Eu95 2.562 . S
N96 C98 1.325 . S
C97 C91 1.404 . S
C97 C99 1.366 . S
C97 H105 0.930 . S
C98 N96 1.325 . S
C98 C99 1.416 . S
C98 H104 0.929 . S
C99 C97 1.366 . S
C99 C98 1.416 . S
C99 H101 0.930 . S
H100 C89 0.930 . S
H101 C99 0.930 . S
H102 C117 0.930 . S
H103 C124 0.930 . S
H104 C98 0.929 . S
H105 C97 0.930 . S
H106 C120 0.929 . S
H107 C87 0.931 . S
H108 C93 0.931 . S
H109 C94 0.931 . S
H110 C115 0.931 . S
H111 C90 0.929 . S
H112 C123 0.930 . S
N113 Eu84 2.600 . S
N113 C114 1.365 . S
N113 C117 1.319 . S
C114 N113 1.365 . S
C114 C116 1.405 . S
C114 C122 1.448 . S
C115 H110 0.931 . S
C115 C117 1.397 . S
C115 C118 1.367 . S
C116 C114 1.405 . S
C116 C118 1.403 . S
C116 C149 1.439 . S
C117 H102 0.930 . S
C117 N113 1.319 . S
C117 C115 1.397 . S
C118 C115 1.367 . S
C118 C116 1.403 . S
C118 H125 0.929 . S
N119 Eu84 2.562 . S
N119 C120 1.325 . S
N119 C122 1.351 . S
C120 H106 0.929 . S
C120 N119 1.325 . S
C120 C124 1.416 . S
C121 C122 1.430 . S
C121 C123 1.404 . S
C121 C150 1.387 . S
C122 C114 1.448 . S
C122 N119 1.351 . S
C122 C121 1.430 . S
C123 H112 0.930 . S
C123 C121 1.404 . S
C123 C124 1.366 . S
C124 H103 0.930 . S
C124 C120 1.416 . S
C124 C123 1.366 . S
H125 C118 0.929 . S
H126 C149 0.931 . S
H127 C150 0.931 . S
O128 Eu84 2.462 1_455 S
O128 C148 1.252 . S
O129 Eu84 2.373 . S
O129 C140 1.249 1_545 S
O130 Eu95 2.335 1_655 S
O130 C140 1.264 . S
O131 Eu84 2.432 1_455 S
O131 C148 1.268 . S
O132 Eu84 2.291 . S
O132 C147 1.255 1_545 S
O133 Eu95 2.372 1_655 S
O133 C147 1.257 . S
O134 Eu95 2.462 1_655 S
O134 C159 1.252 . S
O135 Eu95 2.373 . S
O135 C151 1.249 1_565 S
O136 Eu84 2.335 1_455 S
O136 C151 1.264 . S
O137 Eu95 2.432 1_655 S
O137 C159 1.268 . S
O138 Eu95 2.291 . S
O138 C158 1.255 1_565 S
O139 Eu84 2.372 1_455 S
O139 C158 1.257 . S
C140 O129 1.249 1_565 S
C140 O130 1.264 . S
C141 C144 1.382 . S
C141 C146 1.390 . S
C141 C148 1.506 . S
C142 C143 1.398 . S
C142 C146 1.392 . S
C143 C142 1.398 . S
C143 C145 1.372 . S
C143 H160 0.931 . S
C144 C141 1.382 . S
C144 C145 1.390 . S
C144 H161 0.931 . S
C145 C143 1.372 . S
C145 C144 1.390 . S
C145 H162 0.929 . S
C146 C141 1.390 . S
C146 C142 1.392 . S
C146 H163 0.930 . S
C147 O132 1.255 1_565 S
C147 O133 1.257 . S
C148 Eu84 2.787 1_455 S
C148 O128 1.252 . S
C148 O131 1.268 . S
C148 C141 1.506 . S
C149 C116 1.439 . S
C149 H126 0.931 . S
C149 C150 1.374 . S
C150 C121 1.387 . S
C150 H127 0.931 . S
C150 C149 1.374 . S
C151 O135 1.249 1_545 S
C151 O136 1.264 . S
C152 C155 1.382 . S
C152 C156 1.390 . S
C152 C159 1.506 . S
C153 C154 1.398 . S
C153 C156 1.392 . S
C154 C153 1.398 . S
C154 C157 1.372 . S
C154 H164 0.931 . S
C155 C152 1.382 . S
C155 C157 1.390 . S
C155 H165 0.931 . S
C156 C152 1.390 . S
C156 C153 1.392 . S
C156 H166 0.930 . S
C157 C154 1.372 . S
C157 C155 1.390 . S
C157 H167 0.929 . S
C158 O138 1.255 1_545 S
C158 O139 1.257 . S
C159 Eu95 2.787 1_655 S
C159 O134 1.252 . S
C159 O137 1.268 . S
C159 C152 1.506 . S
H160 C143 0.931 . S
H161 C144 0.931 . S
H162 C145 0.929 . S
H163 C146 0.930 . S
H164 C154 0.931 . S
H165 C155 0.931 . S
H166 C156 0.930 . S
H167 C157 0.929 . S
Eu168 N197 2.600 . S
Eu168 N203 2.562 . S
Eu168 O212 2.462 . S
Eu168 O213 2.373 . S
Eu168 O215 2.432 . S
Eu168 O216 2.291 1_556 S
Eu168 O220 2.335 . S
Eu168 O223 2.372 . S
Eu168 C232 2.787 . S
C169 N170 1.365 . S
C169 C172 1.405 . S
C169 C176 1.448 . S
N170 C169 1.365 . S
N170 C173 1.319 . S
N170 Eu179 2.600 . S
C171 C173 1.397 . S
C171 C174 1.367 . S
C171 H191 0.931 . S
C172 C169 1.405 . S
C172 C174 1.403 . S
C172 C178 1.439 . S
C173 N170 1.319 . S
C173 C171 1.397 . S
C173 H184 0.930 . S
C174 C171 1.367 . S
C174 C172 1.403 . S
C174 H195 0.929 . S
C175 C176 1.430 . S
C175 C177 1.387 . S
C175 C181 1.404 . S
C176 C169 1.448 . S
C176 C175 1.430 . S
C176 N180 1.351 . S
C177 C175 1.387 . S
C177 C178 1.374 . S
C177 H192 0.931 . S
C178 C172 1.439 . S
C178 C177 1.374 . S
C178 H193 0.931 . S
Eu179 N170 2.600 . S
Eu179 N180 2.562 . S
Eu179 O214 2.335 . S
Eu179 O217 2.372 . S
Eu179 O218 2.462 . S
Eu179 O219 2.373 . S
Eu179 O221 2.432 . S
Eu179 O222 2.291 1_554 S
Eu179 C243 2.787 . S
N180 C176 1.351 . S
N180 Eu179 2.562 . S
N180 C182 1.325 1_554 S
C181 C175 1.404 . S
C181 C183 1.366 1_554 S
C181 H189 0.930 1_554 S
C182 N180 1.325 1_556 S
C182 C183 1.416 . S
C182 H188 0.929 . S
C183 C181 1.366 1_556 S
C183 C182 1.416 . S
C183 H185 0.930 . S
H184 C173 0.930 . S
H185 C183 0.930 . S
H186 C201 0.930 . S
H187 C208 0.930 . S
H188 C182 0.929 . S
H189 C181 0.930 1_556 S
H190 C204 0.929 . S
H191 C171 0.931 . S
H192 C177 0.931 . S
H193 C178 0.931 . S
H194 C199 0.931 . S
H195 C174 0.929 . S
H196 C207 0.929 1_554 S
N197 Eu168 2.600 . S
N197 C198 1.365 . S
N197 C201 1.319 . S
C198 N197 1.365 . S
C198 C200 1.405 . S
C198 C206 1.448 . S
C199 H194 0.931 . S
C199 C201 1.397 . S
C199 C202 1.367 . S
C200 C198 1.405 . S
C200 C202 1.403 . S
C200 C233 1.439 . S
C201 H186 0.930 . S
C201 N197 1.319 . S
C201 C199 1.397 . S
C202 C199 1.367 . S
C202 C200 1.403 . S
C202 H209 0.929 . S
N203 Eu168 2.562 . S
N203 C204 1.325 1_556 S
N203 C206 1.351 . S
C204 H190 0.929 . S
C204 N203 1.325 1_554 S
C204 C208 1.416 . S
C205 C206 1.430 . S
C205 C207 1.408 . S
C205 C234 1.387 . S
C206 C198 1.448 . S
C206 N203 1.351 . S
C206 C205 1.430 . S
C207 H196 0.929 1_556 S
C207 C205 1.408 . S
C207 C208 1.364 1_556 S
C208 H187 0.930 . S
C208 C204 1.416 . S
C208 C207 1.364 1_554 S
H209 C202 0.929 . S
H210 C233 0.931 . S
H211 C234 0.931 . S
O212 Eu168 2.462 . S
O212 C232 1.252 . S
O213 Eu168 2.373 . S
O213 C224 1.249 . S
O214 Eu179 2.335 . S
O214 C224 1.264 1_554 S
O215 Eu168 2.432 . S
O215 C232 1.268 . S
O216 Eu168 2.291 1_554 S
O216 C231 1.255 . S
O217 Eu179 2.372 . S
O217 C231 1.257 . S
O218 Eu179 2.462 . S
O218 C243 1.252 . S
O219 Eu179 2.373 . S
O219 C235 1.249 . S
O220 Eu168 2.335 . S
O220 C235 1.264 1_556 S
O221 Eu179 2.432 . S
O221 C243 1.268 . S
O222 Eu179 2.291 1_556 S
O222 C242 1.255 . S
O223 Eu168 2.372 . S
O223 C242 1.257 . S
C224 O213 1.249 . S
C224 O214 1.264 1_556 S
C225 C228 1.382 . S
C225 C230 1.390 . S
C225 C232 1.506 . S
C226 C227 1.398 . S
C226 C230 1.392 . S
C227 C226 1.398 . S
C227 C229 1.372 . S
C227 H244 0.931 . S
C228 C225 1.382 . S
C228 C229 1.390 . S
C228 H245 0.931 . S
C229 C227 1.372 . S
C229 C228 1.390 . S
C229 H246 0.929 . S
C230 C225 1.390 . S
C230 C226 1.392 . S
C230 H247 0.930 1_556 S
C231 O216 1.255 . S
C231 O217 1.257 . S
C232 Eu168 2.787 . S
C232 O212 1.252 . S
C232 O215 1.268 . S
C232 C225 1.506 . S
C233 C200 1.439 . S
C233 H210 0.931 . S
C233 C234 1.374 . S
C234 C205 1.387 . S
C234 H211 0.931 . S
C234 C233 1.374 . S
C235 O219 1.249 . S
C235 O220 1.264 1_554 S
C236 C239 1.382 . S
C236 C240 1.390 . S
C236 C243 1.506 . S
C237 C238 1.398 . S
C237 C240 1.392 . S
C238 C237 1.398 . S
C238 C241 1.372 . S
C238 H248 0.931 . S
C239 C236 1.382 . S
C239 C241 1.390 . S
C239 H249 0.931 . S
C240 C236 1.390 . S
C240 C237 1.392 . S
C240 H250 0.930 1_554 S
C241 C238 1.372 . S
C241 C239 1.390 . S
C241 H251 0.929 . S
C242 O222 1.255 . S
C242 O223 1.257 . S
C243 Eu179 2.787 . S
C243 O218 1.252 . S
C243 O221 1.268 . S
C243 C236 1.506 . S
H244 C227 0.931 . S
H245 C228 0.931 . S
H246 C229 0.929 . S
H247 C230 0.930 1_554 S
H248 C238 0.931 . S
H249 C239 0.931 . S
H250 C240 0.930 1_556 S
H251 C241 0.929 . S
Eu252 N281 2.600 . S
Eu252 N287 2.562 . S
Eu252 O296 2.462 . S
Eu252 O297 2.373 . S
Eu252 O299 2.432 . S
Eu252 O300 2.291 . S
Eu252 O304 2.335 . S
Eu252 O307 2.372 . S
Eu252 C316 2.787 . S
C253 N254 1.365 . S
C253 C256 1.405 . S
C253 C260 1.448 . S
N254 C253 1.365 . S
N254 C257 1.319 . S
N254 Eu263 2.600 . S
C255 C257 1.397 . S
C255 C258 1.367 . S
C255 H275 0.931 . S
C256 C253 1.405 . S
C256 C258 1.403 . S
C256 C262 1.439 . S
C257 N254 1.319 . S
C257 C255 1.397 . S
C257 H268 0.930 . S
C258 C255 1.367 . S
C258 C256 1.403 . S
C258 H279 0.929 . S
C259 C260 1.430 . S
C259 C261 1.387 . S
C259 C265 1.404 . S
C260 C253 1.448 . S
C260 C259 1.430 . S
C260 N264 1.351 . S
C261 C259 1.387 . S
C261 C262 1.374 . S
C261 H276 0.931 . S
C262 C256 1.439 . S
C262 C261 1.374 . S
C262 H277 0.931 . S
Eu263 N254 2.600 . S
Eu263 N264 2.562 . S
Eu263 O298 2.335 . S
Eu263 O301 2.372 . S
Eu263 O302 2.462 . S
Eu263 O303 2.373 . S
Eu263 O305 2.432 . S
Eu263 O306 2.291 . S
Eu263 C327 2.787 . S
N264 C260 1.351 . S
N264 Eu263 2.562 . S
N264 C266 1.325 . S
C265 C259 1.404 . S
C265 C267 1.366 . S
C265 H273 0.930 . S
C266 N264 1.325 . S
C266 C267 1.416 . S
C266 H272 0.929 . S
C267 C265 1.366 . S
C267 C266 1.416 . S
C267 H269 0.930 . S
H268 C257 0.930 . S
H269 C267 0.930 . S
H270 C285 0.930 . S
H271 C292 0.930 . S
H272 C266 0.929 . S
H273 C265 0.930 . S
H274 C288 0.929 . S
H275 C255 0.931 . S
H276 C261 0.931 . S
H277 C262 0.931 . S
H278 C283 0.931 . S
H279 C258 0.929 . S
H280 C291 0.930 . S
N281 Eu252 2.600 . S
N281 C282 1.365 . S
N281 C285 1.319 . S
C282 N281 1.365 . S
C282 C284 1.405 . S
C282 C290 1.448 . S
C283 H278 0.931 . S
C283 C285 1.397 . S
C283 C286 1.367 . S
C284 C282 1.405 . S
C284 C286 1.403 . S
C284 C317 1.439 . S
C285 H270 0.930 . S
C285 N281 1.319 . S
C285 C283 1.397 . S
C286 C283 1.367 . S
C286 C284 1.403 . S
C286 H293 0.929 . S
N287 Eu252 2.562 . S
N287 C288 1.325 . S
N287 C290 1.351 . S
C288 H274 0.929 . S
C288 N287 1.325 . S
C288 C292 1.416 . S
C289 C290 1.430 . S
C289 C291 1.404 . S
C289 C318 1.387 . S
C290 C282 1.448 . S
C290 N287 1.351 . S
C290 C289 1.430 . S
C291 H280 0.930 . S
C291 C289 1.404 . S
C291 C292 1.366 . S
C292 H271 0.930 . S
C292 C288 1.416 . S
C292 C291 1.366 . S
H293 C286 0.929 . S
H294 C317 0.931 . S
H295 C318 0.931 . S
O296 Eu252 2.462 . S
O296 C316 1.252 . S
O297 Eu252 2.373 . S
O297 C308 1.249 . S
O298 Eu263 2.335 . S
O298 C308 1.264 . S
O299 Eu252 2.432 . S
O299 C316 1.268 . S
O300 Eu252 2.291 . S
O300 C315 1.255 . S
O301 Eu263 2.372 . S
O301 C315 1.257 . S
O302 Eu263 2.462 . S
O302 C327 1.252 . S
O303 Eu263 2.373 . S
O303 C319 1.249 . S
O304 Eu252 2.335 . S
O304 C319 1.264 . S
O305 Eu263 2.432 . S
O305 C327 1.268 . S
O306 Eu263 2.291 . S
O306 C326 1.255 . S
O307 Eu252 2.372 . S
O307 C326 1.257 . S
C308 O297 1.249 . S
C308 O298 1.264 . S
C309 C312 1.382 . S
C309 C314 1.390 . S
C309 C316 1.506 . S
C310 C311 1.398 . S
C310 C314 1.392 . S
C311 C310 1.398 . S
C311 C313 1.372 . S
C311 H328 0.931 . S
C312 C309 1.382 . S
C312 C313 1.390 . S
C312 H329 0.931 . S
C313 C311 1.372 . S
C313 C312 1.390 . S
C313 H330 0.929 . S
C314 C309 1.390 . S
C314 C310 1.392 . S
C314 H331 0.930 . S
C315 O300 1.255 . S
C315 O301 1.257 . S
C316 Eu252 2.787 . S
C316 O296 1.252 . S
C316 O299 1.268 . S
C316 C309 1.506 . S
C317 C284 1.439 . S
C317 H294 0.931 . S
C317 C318 1.374 . S
C318 C289 1.387 . S
C318 H295 0.931 . S
C318 C317 1.374 . S
C319 O303 1.249 . S
C319 O304 1.264 . S
C320 C323 1.382 . S
C320 C324 1.390 . S
C320 C327 1.506 . S
C321 C322 1.398 . S
C321 C324 1.392 . S
C322 C321 1.398 . S
C322 C325 1.372 . S
C322 H332 0.931 . S
C323 C320 1.382 . S
C323 C325 1.390 . S
C323 H333 0.931 . S
C324 C320 1.390 . S
C324 C321 1.392 . S
C324 H334 0.930 . S
C325 C322 1.372 . S
C325 C323 1.390 . S
C325 H335 0.929 . S
C326 O306 1.255 . S
C326 O307 1.257 . S
C327 Eu263 2.787 . S
C327 O302 1.252 . S
C327 O305 1.268 . S
C327 C320 1.506 . S
H328 C311 0.931 . S
H329 C312 0.931 . S
H330 C313 0.929 . S
H331 C314 0.930 . S
H332 C322 0.931 . S
H333 C323 0.931 . S
H334 C324 0.930 . S
H335 C325 0.929 . S
H336 C342 0.930 . S
H337 C345 0.930 . S
H338 C346 0.930 . S
H339 C347 0.930 . S
H340 C350 0.930 . S
H341 C351 0.930 . S
C342 H336 0.930 . S
C342 C343 1.355 1_554 S
C342 C344 1.415 . S
C343 C342 1.355 1_556 S
C343 C345 1.419 . S
C344 C342 1.415 . S
C344 C349 1.425 1_554 S
C344 C351 1.409 . S
C345 H337 0.930 . S
C345 C343 1.419 . S
C345 C346 1.362 . S
C346 H338 0.930 . S
C346 C345 1.362 . S
C346 C349 1.409 . S
C347 H339 0.930 . S
C347 C348 1.355 1_556 S
C347 C349 1.415 . S
C348 C347 1.355 1_554 S
C348 C350 1.419 . S
C349 C344 1.425 1_556 S
C349 C346 1.409 . S
C349 C347 1.415 . S
C350 H340 0.930 . S
C350 C348 1.419 . S
C350 C351 1.362 . S
C351 H341 0.930 . S
C351 C344 1.409 . S
C351 C350 1.362 . S
H352 C358 0.930 . S
H353 C361 0.930 . S
H354 C362 0.930 . S
H355 C363 0.930 . S
H356 C366 0.930 . S
H357 C367 0.930 . S
C358 H352 0.930 . S
C358 C359 1.336 1_554 S
C358 C360 1.415 . S
C359 C358 1.336 1_556 S
C359 C361 1.433 . S
C360 C358 1.415 . S
C360 C365 1.425 1_554 S
C360 C367 1.409 . S
C361 H353 0.930 . S
C361 C359 1.433 . S
C361 C362 1.362 . S
C362 H354 0.930 . S
C362 C361 1.362 . S
C362 C365 1.409 . S
C363 H355 0.930 . S
C363 C364 1.355 1_556 S
C363 C365 1.415 . S
C364 C363 1.355 1_554 S
C364 C366 1.419 . S
C365 C360 1.425 1_556 S
C365 C362 1.409 . S
C365 C363 1.415 . S
C366 H356 0.930 . S
C366 C364 1.419 . S
C366 C367 1.362 . S
C367 H357 0.930 . S
C367 C360 1.409 . S
C367 C366 1.362 . S
H368 C374 0.930 . S
H369 C377 0.930 . S
H370 C378 0.930 . S
H371 C379 0.930 . S
H372 C382 0.930 . S
H373 C383 0.930 . S
C374 H368 0.930 . S
C374 C375 1.355 . S
C374 C376 1.415 . S
C375 C374 1.355 . S
C375 C377 1.419 . S
C376 C374 1.415 . S
C376 C381 1.425 . S
C376 C383 1.409 . S
C377 H369 0.930 . S
C377 C375 1.419 . S
C377 C378 1.362 . S
C378 H370 0.930 . S
C378 C377 1.362 . S
C378 C381 1.409 . S
C379 H371 0.930 . S
C379 C380 1.355 . S
C379 C381 1.415 . S
C380 C379 1.355 . S
C380 C382 1.419 . S
C381 C376 1.425 . S
C381 C378 1.409 . S
C381 C379 1.415 . S
C382 H372 0.930 . S
C382 C380 1.419 . S
C382 C383 1.362 . S
C383 H373 0.930 . S
C383 C376 1.409 . S
C383 C382 1.362 . S
H384 C390 0.930 . S
H385 C393 0.930 . S
H386 C394 0.930 . S
H387 C395 0.930 . S
H388 C398 0.930 . S
H389 C399 0.930 . S
C390 H384 0.930 . S
C390 C391 1.355 . S
C390 C392 1.415 . S
C391 C390 1.355 . S
C391 C393 1.419 . S
C392 C390 1.415 . S
C392 C397 1.425 . S
C392 C399 1.409 . S
C393 H385 0.930 . S
C393 C391 1.419 . S
C393 C394 1.362 . S
C394 H386 0.930 . S
C394 C393 1.362 . S
C394 C397 1.409 . S
C395 H387 0.930 . S
C395 C396 1.355 . S
C395 C397 1.415 . S
C396 C395 1.355 . S
C396 C398 1.419 . S
C397 C392 1.425 . S
C397 C394 1.409 . S
C397 C395 1.415 . S
C398 H388 0.930 . S
C398 C396 1.419 . S
C398 C399 1.362 . S
C399 H389 0.930 . S
C399 C392 1.409 . S
C399 C398 1.362 . S
H400 C406 0.930 . S
H401 C409 0.930 . S
H402 C410 0.930 . S
H403 C411 0.930 . S
H404 C414 0.930 . S
H405 C415 0.930 . S
C406 H400 0.930 . S
C406 C407 1.331 1_564 S
C406 C408 1.415 . S
C407 C406 1.331 1_546 S
C407 C409 1.452 . S
C408 C406 1.415 . S
C408 C413 1.425 1_564 S
C408 C415 1.409 . S
C409 H401 0.930 . S
C409 C407 1.452 . S
C409 C410 1.362 . S
C410 H402 0.930 . S
C410 C409 1.362 . S
C410 C413 1.409 . S
C411 H403 0.930 . S
C411 C412 1.355 1_556 S
C411 C413 1.415 . S
C412 C411 1.355 1_554 S
C412 C414 1.419 1_545 S
C413 C408 1.425 1_546 S
C413 C410 1.409 . S
C413 C411 1.415 . S
C414 H404 0.930 . S
C414 C412 1.419 1_565 S
C414 C415 1.362 . S
C415 H405 0.930 . S
C415 C408 1.409 . S
C415 C414 1.362 . S
H416 C422 0.930 . S
H417 C425 0.930 . S
H418 C426 0.930 . S
H419 C427 0.930 . S
H420 C430 0.930 . S
H421 C431 0.930 . S
C422 H416 0.930 . S
C422 C423 1.355 . S
C422 C424 1.415 . S
C423 C422 1.355 . S
C423 C425 1.419 1_545 S
C424 C422 1.415 . S
C424 C429 1.425 1_545 S
C424 C431 1.409 . S
C425 H417 0.930 . S
C425 C423 1.419 1_565 S
C425 C426 1.362 . S
C426 H418 0.930 . S
C426 C425 1.362 . S
C426 C429 1.409 . S
C427 H419 0.930 . S
C427 C428 1.355 1_565 S
C427 C429 1.415 . S
C428 C427 1.355 1_545 S
C428 C430 1.419 . S
C429 C424 1.425 1_565 S
C429 C426 1.409 . S
C429 C427 1.415 . S
C430 H420 0.930 . S
C430 C428 1.419 . S
C430 C431 1.362 . S
C431 H421 0.930 . S
C431 C424 1.409 . S
C431 C430 1.362 . S
H432 C438 0.930 . S
H433 C441 0.930 . S
H434 C442 0.930 . S
H435 C443 0.930 . S
H436 C446 0.930 . S
H437 C447 0.930 . S
C438 H432 0.930 . S
C438 C439 1.355 1_554 S
C438 C440 1.415 . S
C439 C438 1.355 1_556 S
C439 C441 1.419 . S
C440 C438 1.415 . S
C440 C445 1.425 1_654 S
C440 C447 1.409 1_655 S
C441 H433 0.930 . S
C441 C439 1.419 . S
C441 C442 1.362 . S
C442 H434 0.930 . S
C442 C441 1.362 . S
C442 C445 1.409 1_655 S
C443 H435 0.930 . S
C443 C444 1.355 1_556 S
C443 C445 1.415 . S
C444 C443 1.355 1_554 S
C444 C446 1.419 . S
C445 C440 1.425 1_456 S
C445 C442 1.409 1_455 S
C445 C443 1.415 . S
C446 H436 0.930 . S
C446 C444 1.419 . S
C446 C447 1.362 . S
C447 H437 0.930 . S
C447 C440 1.409 1_455 S
C447 C446 1.362 . S
H448 C454 0.930 . S
H449 C457 0.930 . S
H450 C458 0.930 . S
H451 C459 0.930 . S
H452 C462 0.930 . S
H453 C463 0.930 . S
C454 H448 0.930 . S
C454 C455 1.355 . S
C454 C456 1.415 . S
C455 C454 1.355 . S
C455 C457 1.419 . S
C456 C454 1.415 . S
C456 C461 1.425 1_455 S
C456 C463 1.409 1_455 S
C457 H449 0.930 . S
C457 C455 1.419 . S
C457 C458 1.362 . S
C458 H450 0.930 . S
C458 C457 1.362 . S
C458 C461 1.409 1_455 S
C459 H451 0.930 . S
C459 C460 1.355 . S
C459 C461 1.415 . S
C460 C459 1.355 . S
C460 C462 1.419 . S
C461 C456 1.425 1_655 S
C461 C458 1.409 1_655 S
C461 C459 1.415 . S
C462 H452 0.930 . S
C462 C460 1.419 . S
C462 C463 1.362 . S
C463 H453 0.930 . S
C463 C456 1.409 1_655 S
C463 C462 1.362 . S
H464 C470 0.930 . S
H465 C473 0.930 . S
H466 C474 0.930 . S
H467 C475 0.930 . S
H468 C478 0.930 . S
H469 C479 0.930 . S
C470 H464 0.930 . S
C470 C471 1.362 1_655 S
C470 C472 1.415 . S
C471 C470 1.362 1_455 S
C471 C473 1.417 1_545 S
C472 C470 1.415 . S
C472 C477 1.425 1_645 S
C472 C479 1.409 . S
C473 H465 0.930 . S
C473 C471 1.417 1_565 S
C473 C474 1.362 . S
C474 H466 0.930 . S
C474 C473 1.362 . S
C474 C477 1.409 . S
C475 H467 0.930 . S
C475 C476 1.355 1_465 S
C475 C477 1.415 . S
C476 C475 1.355 1_645 S
C476 C478 1.419 . S
C477 C472 1.425 1_465 S
C477 C474 1.409 . S
C477 C475 1.415 . S
C478 H468 0.930 . S
C478 C476 1.419 . S
C478 C479 1.362 . S
C479 H469 0.930 . S
C479 C472 1.409 . S
C479 C478 1.362 . S
H480 C486 0.930 . S
H481 C489 0.930 . S
H482 C490 0.930 . S
H483 C491 0.930 . S
H484 C494 0.930 . S
H485 C495 0.930 . S
C486 H480 0.930 . S
C486 C487 1.355 1_665 S
C486 C488 1.415 . S
C487 C486 1.355 1_445 S
C487 C489 1.419 . S
C488 C486 1.415 . S
C488 C493 1.425 1_665 S
C488 C495 1.409 . S
C489 H481 0.930 . S
C489 C487 1.419 . S
C489 C490 1.362 . S
C490 H482 0.930 . S
C490 C489 1.362 . S
C490 C493 1.409 . S
C491 H483 0.930 . S
C491 C492 1.344 1_445 S
C491 C493 1.415 . S
C492 C491 1.344 1_665 S
C492 C494 1.450 . S
C493 C488 1.425 1_445 S
C493 C490 1.409 . S
C493 C491 1.415 . S
C494 H484 0.930 . S
C494 C492 1.450 . S
C494 C495 1.362 . S
C495 H485 0.930 . S
C495 C488 1.409 . S
C495 C494 1.362 . S
H496 C502 0.930 . S
H497 C505 0.930 . S
H498 C506 0.930 . S
H499 C507 0.930 . S
H500 C510 0.930 . S
H501 C511 0.930 . S
C502 H496 0.930 . S
C502 C503 1.355 . S
C502 C504 1.415 . S
C503 C502 1.355 . S
C503 C505 1.419 . S
C504 C502 1.415 . S
C504 C509 1.425 . S
C504 C511 1.409 . S
C505 H497 0.930 . S
C505 C503 1.419 . S
C505 C506 1.362 . S
C506 H498 0.930 . S
C506 C505 1.362 . S
C506 C509 1.409 . S
C507 H499 0.930 . S
C507 C508 1.355 . S
C507 C509 1.415 . S
C508 C507 1.355 . S
C508 C510 1.419 . S
C509 C504 1.425 . S
C509 C506 1.409 . S
C509 C507 1.415 . S
C510 H500 0.930 . S
C510 C508 1.419 . S
C510 C511 1.362 . S
C511 H501 0.930 . S
C511 C504 1.409 . S
C511 C510 1.362 . S
H512 C518 0.930 . S
H513 C521 0.930 . S
H514 C522 0.930 . S
H515 C523 0.930 . S
H516 C526 0.930 . S
H517 C527 0.930 . S
C518 H512 0.930 . S
C518 C519 1.355 . S
C518 C520 1.415 . S
C519 C518 1.355 . S
C519 C521 1.419 . S
C520 C518 1.415 . S
C520 C525 1.425 . S
C520 C527 1.409 . S
C521 H513 0.930 . S
C521 C519 1.419 . S
C521 C522 1.362 . S
C522 H514 0.930 . S
C522 C521 1.362 . S
C522 C525 1.409 . S
C523 H515 0.930 . S
C523 C524 1.355 . S
C523 C525 1.415 . S
C524 C523 1.355 . S
C524 C526 1.419 . S
C525 C520 1.425 . S
C525 C522 1.409 . S
C525 C523 1.415 . S
C526 H516 0.930 . S
C526 C524 1.419 . S
C526 C527 1.362 . S
C527 H517 0.930 . S
C527 C520 1.409 . S
C527 C526 1.362 . S
C343 C237 1.472 1_556 S
C348 C58 1.472 1_554 S
C359 C226 1.406 . S
C364 C69 1.392 . S
C375 C142 1.479 . S
C380 C321 1.479 . S
C391 C153 1.371 . S
C396 C310 1.371 . S
C407 C67 1.962 1_546 S
C412 C56 1.966 1_554 S
C423 C151 1.962 . S
C428 C140 1.962 1_545 S
C439 C235 1.976 1_556 S
C444 C224 1.976 1_554 S
C455 C308 1.969 . S
C460 C319 1.969 . S
C471 C147 1.468 1_445 S
C476 C63 1.453 . S
C487 C74 1.475 1_545 S
C492 C158 1.476 1_665 S
C503 C315 1.462 . S
C508 C231 1.491 . S
C519 C326 1.496 . S
C524 C242 1.479 . S
