# Generated by pormake.
# Topology gie, (4)-cn, num edge types: 1
# Building blocks:
#     Node 0, Type 0, BuildingBlock: NAWXER_clean_sbu_0, # of connection points: 4
#     Node 1, Type 0, BuildingBlock: NAWXER_clean_sbu_0, # of connection points: 4
#     Node 2, Type 0, BuildingBlock: NAWXER_clean_sbu_0, # of connection points: 4
#     Node 3, Type 0, BuildingBlock: NAWXER_clean_sbu_0, # of connection points: 4
#     Node 4, Type 0, BuildingBlock: NAWXER_clean_sbu_0, # of connection points: 4
#     Node 5, Type 0, BuildingBlock: NAWXER_clean_sbu_0, # of connection points: 4
#     Node 6, Type 0, BuildingBlock: NAWXER_clean_sbu_0, # of connection points: 4
#     Node 7, Type 0, BuildingBlock: NAWXER_clean_sbu_0, # of connection points: 4
#     Node 8, Type 0, BuildingBlock: NAWXER_clean_sbu_0, # of connection points: 4
#     Node 9, Type 0, BuildingBlock: NAWXER_clean_sbu_0, # of connection points: 4
#     Node 10, Type 0, BuildingBlock: NAWXER_clean_sbu_0, # of connection points: 4
#     Node 11, Type 0, BuildingBlock: NAWXER_clean_sbu_0, # of connection points: 4
#     Node 12, Type 0, BuildingBlock: NAWXER_clean_sbu_0, # of connection points: 4
#     Node 13, Type 0, BuildingBlock: NAWXER_clean_sbu_0, # of connection points: 4
#     Node 14, Type 0, BuildingBlock: NAWXER_clean_sbu_0, # of connection points: 4
#     Node 15, Type 0, BuildingBlock: NAWXER_clean_sbu_0, # of connection points: 4
#     Node 16, Type 0, BuildingBlock: NAWXER_clean_sbu_0, # of connection points: 4
#     Node 17, Type 0, BuildingBlock: NAWXER_clean_sbu_0, # of connection points: 4
#     Node 18, Type 0, BuildingBlock: NAWXER_clean_sbu_0, # of connection points: 4
#     Node 19, Type 0, BuildingBlock: NAWXER_clean_sbu_0, # of connection points: 4
#     Node 20, Type 0, BuildingBlock: NAWXER_clean_sbu_0, # of connection points: 4
#     Node 21, Type 0, BuildingBlock: NAWXER_clean_sbu_0, # of connection points: 4
#     Node 22, Type 0, BuildingBlock: NAWXER_clean_sbu_0, # of connection points: 4
#     Node 23, Type 0, BuildingBlock: NAWXER_clean_sbu_0, # of connection points: 4
#     Node 24, Type 0, BuildingBlock: NAWXER_clean_sbu_0, # of connection points: 4
#     Node 25, Type 0, BuildingBlock: NAWXER_clean_sbu_0, # of connection points: 4
#     Node 26, Type 0, BuildingBlock: NAWXER_clean_sbu_0, # of connection points: 4
#     Node 27, Type 0, BuildingBlock: NAWXER_clean_sbu_0, # of connection points: 4
#     Node 28, Type 0, BuildingBlock: NAWXER_clean_sbu_0, # of connection points: 4
#     Node 29, Type 0, BuildingBlock: NAWXER_clean_sbu_0, # of connection points: 4
#     Node 30, Type 0, BuildingBlock: NAWXER_clean_sbu_0, # of connection points: 4
#     Node 31, Type 0, BuildingBlock: NAWXER_clean_sbu_0, # of connection points: 4
#     Node 32, Type 0, BuildingBlock: NAWXER_clean_sbu_0, # of connection points: 4
#     Node 33, Type 0, BuildingBlock: NAWXER_clean_sbu_0, # of connection points: 4
#     Node 34, Type 0, BuildingBlock: NAWXER_clean_sbu_0, # of connection points: 4
#     Node 35, Type 0, BuildingBlock: NAWXER_clean_sbu_0, # of connection points: 4
#     Node 36, Type 0, BuildingBlock: NAWXER_clean_sbu_0, # of connection points: 4
#     Node 37, Type 0, BuildingBlock: NAWXER_clean_sbu_0, # of connection points: 4
#     Node 38, Type 0, BuildingBlock: NAWXER_clean_sbu_0, # of connection points: 4
#     Node 39, Type 0, BuildingBlock: NAWXER_clean_sbu_0, # of connection points: 4
#     Node 40, Type 0, BuildingBlock: NAWXER_clean_sbu_0, # of connection points: 4
#     Node 41, Type 0, BuildingBlock: NAWXER_clean_sbu_0, # of connection points: 4
#     Node 42, Type 0, BuildingBlock: NAWXER_clean_sbu_0, # of connection points: 4
#     Node 43, Type 0, BuildingBlock: NAWXER_clean_sbu_0, # of connection points: 4
#     Node 44, Type 0, BuildingBlock: NAWXER_clean_sbu_0, # of connection points: 4
#     Node 45, Type 0, BuildingBlock: NAWXER_clean_sbu_0, # of connection points: 4
#     Node 46, Type 0, BuildingBlock: NAWXER_clean_sbu_0, # of connection points: 4
#     Node 47, Type 0, BuildingBlock: NAWXER_clean_sbu_0, # of connection points: 4
#     Node 48, Type 0, BuildingBlock: NAWXER_clean_sbu_0, # of connection points: 4
#     Node 49, Type 0, BuildingBlock: NAWXER_clean_sbu_0, # of connection points: 4
#     Node 50, Type 0, BuildingBlock: NAWXER_clean_sbu_0, # of connection points: 4
#     Node 51, Type 0, BuildingBlock: NAWXER_clean_sbu_0, # of connection points: 4
#     Node 52, Type 0, BuildingBlock: NAWXER_clean_sbu_0, # of connection points: 4
#     Node 53, Type 0, BuildingBlock: NAWXER_clean_sbu_0, # of connection points: 4
#     Node 54, Type 0, BuildingBlock: NAWXER_clean_sbu_0, # of connection points: 4
#     Node 55, Type 0, BuildingBlock: NAWXER_clean_sbu_0, # of connection points: 4
#     Node 56, Type 0, BuildingBlock: NAWXER_clean_sbu_0, # of connection points: 4
#     Node 57, Type 0, BuildingBlock: NAWXER_clean_sbu_0, # of connection points: 4
#     Node 58, Type 0, BuildingBlock: NAWXER_clean_sbu_0, # of connection points: 4
#     Node 59, Type 0, BuildingBlock: NAWXER_clean_sbu_0, # of connection points: 4
#     Node 60, Type 0, BuildingBlock: NAWXER_clean_sbu_0, # of connection points: 4
#     Node 61, Type 0, BuildingBlock: NAWXER_clean_sbu_0, # of connection points: 4
#     Node 62, Type 0, BuildingBlock: NAWXER_clean_sbu_0, # of connection points: 4
#     Node 63, Type 0, BuildingBlock: NAWXER_clean_sbu_0, # of connection points: 4
#     Node 64, Type 0, BuildingBlock: NAWXER_clean_sbu_0, # of connection points: 4
#     Node 65, Type 0, BuildingBlock: NAWXER_clean_sbu_0, # of connection points: 4
#     Node 66, Type 0, BuildingBlock: NAWXER_clean_sbu_0, # of connection points: 4
#     Node 67, Type 0, BuildingBlock: NAWXER_clean_sbu_0, # of connection points: 4
#     Node 68, Type 0, BuildingBlock: NAWXER_clean_sbu_0, # of connection points: 4
#     Node 69, Type 0, BuildingBlock: NAWXER_clean_sbu_0, # of connection points: 4
#     Node 70, Type 0, BuildingBlock: NAWXER_clean_sbu_0, # of connection points: 4
#     Node 71, Type 0, BuildingBlock: NAWXER_clean_sbu_0, # of connection points: 4
#     Node 72, Type 0, BuildingBlock: NAWXER_clean_sbu_0, # of connection points: 4
#     Node 73, Type 0, BuildingBlock: NAWXER_clean_sbu_0, # of connection points: 4
#     Node 74, Type 0, BuildingBlock: NAWXER_clean_sbu_0, # of connection points: 4
#     Node 75, Type 0, BuildingBlock: NAWXER_clean_sbu_0, # of connection points: 4
#     Node 76, Type 0, BuildingBlock: NAWXER_clean_sbu_0, # of connection points: 4
#     Node 77, Type 0, BuildingBlock: NAWXER_clean_sbu_0, # of connection points: 4
#     Node 78, Type 0, BuildingBlock: NAWXER_clean_sbu_0, # of connection points: 4
#     Node 79, Type 0, BuildingBlock: NAWXER_clean_sbu_0, # of connection points: 4
#     Node 80, Type 0, BuildingBlock: NAWXER_clean_sbu_0, # of connection points: 4
#     Node 81, Type 0, BuildingBlock: NAWXER_clean_sbu_0, # of connection points: 4
#     Node 82, Type 0, BuildingBlock: NAWXER_clean_sbu_0, # of connection points: 4
#     Node 83, Type 0, BuildingBlock: NAWXER_clean_sbu_0, # of connection points: 4
#     Node 84, Type 0, BuildingBlock: NAWXER_clean_sbu_0, # of connection points: 4
#     Node 85, Type 0, BuildingBlock: NAWXER_clean_sbu_0, # of connection points: 4
#     Node 86, Type 0, BuildingBlock: NAWXER_clean_sbu_0, # of connection points: 4
#     Node 87, Type 0, BuildingBlock: NAWXER_clean_sbu_0, # of connection points: 4
#     Node 88, Type 0, BuildingBlock: NAWXER_clean_sbu_0, # of connection points: 4
#     Node 89, Type 0, BuildingBlock: NAWXER_clean_sbu_0, # of connection points: 4
#     Node 90, Type 0, BuildingBlock: NAWXER_clean_sbu_0, # of connection points: 4
#     Node 91, Type 0, BuildingBlock: NAWXER_clean_sbu_0, # of connection points: 4
#     Node 92, Type 0, BuildingBlock: NAWXER_clean_sbu_0, # of connection points: 4
#     Node 93, Type 0, BuildingBlock: NAWXER_clean_sbu_0, # of connection points: 4
#     Node 94, Type 0, BuildingBlock: NAWXER_clean_sbu_0, # of connection points: 4
#     Node 95, Type 0, BuildingBlock: NAWXER_clean_sbu_0, # of connection points: 4
#     Edge 96, Type (0, 0), BuildingBlock: AJUNOK_clean_linker_0, # of connection points: 2
#     Edge 97, Type (0, 0), BuildingBlock: AJUNOK_clean_linker_0, # of connection points: 2
#     Edge 98, Type (0, 0), BuildingBlock: AJUNOK_clean_linker_0, # of connection points: 2
#     Edge 99, Type (0, 0), BuildingBlock: AJUNOK_clean_linker_0, # of connection points: 2
#     Edge 100, Type (0, 0), BuildingBlock: AJUNOK_clean_linker_0, # of connection points: 2
#     Edge 101, Type (0, 0), BuildingBlock: AJUNOK_clean_linker_0, # of connection points: 2
#     Edge 102, Type (0, 0), BuildingBlock: AJUNOK_clean_linker_0, # of connection points: 2
#     Edge 103, Type (0, 0), BuildingBlock: AJUNOK_clean_linker_0, # of connection points: 2
#     Edge 104, Type (0, 0), BuildingBlock: AJUNOK_clean_linker_0, # of connection points: 2
#     Edge 105, Type (0, 0), BuildingBlock: AJUNOK_clean_linker_0, # of connection points: 2
#     Edge 106, Type (0, 0), BuildingBlock: AJUNOK_clean_linker_0, # of connection points: 2
#     Edge 107, Type (0, 0), BuildingBlock: AJUNOK_clean_linker_0, # of connection points: 2
#     Edge 108, Type (0, 0), BuildingBlock: AJUNOK_clean_linker_0, # of connection points: 2
#     Edge 109, Type (0, 0), BuildingBlock: AJUNOK_clean_linker_0, # of connection points: 2
#     Edge 110, Type (0, 0), BuildingBlock: AJUNOK_clean_linker_0, # of connection points: 2
#     Edge 111, Type (0, 0), BuildingBlock: AJUNOK_clean_linker_0, # of connection points: 2
#     Edge 112, Type (0, 0), BuildingBlock: AJUNOK_clean_linker_0, # of connection points: 2
#     Edge 113, Type (0, 0), BuildingBlock: AJUNOK_clean_linker_0, # of connection points: 2
#     Edge 114, Type (0, 0), BuildingBlock: AJUNOK_clean_linker_0, # of connection points: 2
#     Edge 115, Type (0, 0), BuildingBlock: AJUNOK_clean_linker_0, # of connection points: 2
#     Edge 116, Type (0, 0), BuildingBlock: AJUNOK_clean_linker_0, # of connection points: 2
#     Edge 117, Type (0, 0), BuildingBlock: AJUNOK_clean_linker_0, # of connection points: 2
#     Edge 118, Type (0, 0), BuildingBlock: AJUNOK_clean_linker_0, # of connection points: 2
#     Edge 119, Type (0, 0), BuildingBlock: AJUNOK_clean_linker_0, # of connection points: 2
#     Edge 120, Type (0, 0), BuildingBlock: AJUNOK_clean_linker_0, # of connection points: 2
#     Edge 121, Type (0, 0), BuildingBlock: AJUNOK_clean_linker_0, # of connection points: 2
#     Edge 122, Type (0, 0), BuildingBlock: AJUNOK_clean_linker_0, # of connection points: 2
#     Edge 123, Type (0, 0), BuildingBlock: AJUNOK_clean_linker_0, # of connection points: 2
#     Edge 124, Type (0, 0), BuildingBlock: AJUNOK_clean_linker_0, # of connection points: 2
#     Edge 125, Type (0, 0), BuildingBlock: AJUNOK_clean_linker_0, # of connection points: 2
#     Edge 126, Type (0, 0), BuildingBlock: AJUNOK_clean_linker_0, # of connection points: 2
#     Edge 127, Type (0, 0), BuildingBlock: AJUNOK_clean_linker_0, # of connection points: 2
#     Edge 128, Type (0, 0), BuildingBlock: AJUNOK_clean_linker_0, # of connection points: 2
#     Edge 129, Type (0, 0), BuildingBlock: AJUNOK_clean_linker_0, # of connection points: 2
#     Edge 130, Type (0, 0), BuildingBlock: AJUNOK_clean_linker_0, # of connection points: 2
#     Edge 131, Type (0, 0), BuildingBlock: AJUNOK_clean_linker_0, # of connection points: 2
#     Edge 132, Type (0, 0), BuildingBlock: AJUNOK_clean_linker_0, # of connection points: 2
#     Edge 133, Type (0, 0), BuildingBlock: AJUNOK_clean_linker_0, # of connection points: 2
#     Edge 134, Type (0, 0), BuildingBlock: AJUNOK_clean_linker_0, # of connection points: 2
#     Edge 135, Type (0, 0), BuildingBlock: AJUNOK_clean_linker_0, # of connection points: 2
#     Edge 136, Type (0, 0), BuildingBlock: AJUNOK_clean_linker_0, # of connection points: 2
#     Edge 137, Type (0, 0), BuildingBlock: AJUNOK_clean_linker_0, # of connection points: 2
#     Edge 138, Type (0, 0), BuildingBlock: AJUNOK_clean_linker_0, # of connection points: 2
#     Edge 139, Type (0, 0), BuildingBlock: AJUNOK_clean_linker_0, # of connection points: 2
#     Edge 140, Type (0, 0), BuildingBlock: AJUNOK_clean_linker_0, # of connection points: 2
#     Edge 141, Type (0, 0), BuildingBlock: AJUNOK_clean_linker_0, # of connection points: 2
#     Edge 142, Type (0, 0), BuildingBlock: AJUNOK_clean_linker_0, # of connection points: 2
#     Edge 143, Type (0, 0), BuildingBlock: AJUNOK_clean_linker_0, # of connection points: 2
#     Edge 144, Type (0, 0), BuildingBlock: AJUNOK_clean_linker_0, # of connection points: 2
#     Edge 145, Type (0, 0), BuildingBlock: AJUNOK_clean_linker_0, # of connection points: 2
#     Edge 146, Type (0, 0), BuildingBlock: AJUNOK_clean_linker_0, # of connection points: 2
#     Edge 147, Type (0, 0), BuildingBlock: AJUNOK_clean_linker_0, # of connection points: 2
#     Edge 148, Type (0, 0), BuildingBlock: AJUNOK_clean_linker_0, # of connection points: 2
#     Edge 149, Type (0, 0), BuildingBlock: AJUNOK_clean_linker_0, # of connection points: 2
#     Edge 150, Type (0, 0), BuildingBlock: AJUNOK_clean_linker_0, # of connection points: 2
#     Edge 151, Type (0, 0), BuildingBlock: AJUNOK_clean_linker_0, # of connection points: 2
#     Edge 152, Type (0, 0), BuildingBlock: AJUNOK_clean_linker_0, # of connection points: 2
#     Edge 153, Type (0, 0), BuildingBlock: AJUNOK_clean_linker_0, # of connection points: 2
#     Edge 154, Type (0, 0), BuildingBlock: AJUNOK_clean_linker_0, # of connection points: 2
#     Edge 155, Type (0, 0), BuildingBlock: AJUNOK_clean_linker_0, # of connection points: 2
#     Edge 156, Type (0, 0), BuildingBlock: AJUNOK_clean_linker_0, # of connection points: 2
#     Edge 157, Type (0, 0), BuildingBlock: AJUNOK_clean_linker_0, # of connection points: 2
#     Edge 158, Type (0, 0), BuildingBlock: AJUNOK_clean_linker_0, # of connection points: 2
#     Edge 159, Type (0, 0), BuildingBlock: AJUNOK_clean_linker_0, # of connection points: 2
#     Edge 160, Type (0, 0), BuildingBlock: AJUNOK_clean_linker_0, # of connection points: 2
#     Edge 161, Type (0, 0), BuildingBlock: AJUNOK_clean_linker_0, # of connection points: 2
#     Edge 162, Type (0, 0), BuildingBlock: AJUNOK_clean_linker_0, # of connection points: 2
#     Edge 163, Type (0, 0), BuildingBlock: AJUNOK_clean_linker_0, # of connection points: 2
#     Edge 164, Type (0, 0), BuildingBlock: AJUNOK_clean_linker_0, # of connection points: 2
#     Edge 165, Type (0, 0), BuildingBlock: AJUNOK_clean_linker_0, # of connection points: 2
#     Edge 166, Type (0, 0), BuildingBlock: AJUNOK_clean_linker_0, # of connection points: 2
#     Edge 167, Type (0, 0), BuildingBlock: AJUNOK_clean_linker_0, # of connection points: 2
#     Edge 168, Type (0, 0), BuildingBlock: AJUNOK_clean_linker_0, # of connection points: 2
#     Edge 169, Type (0, 0), BuildingBlock: AJUNOK_clean_linker_0, # of connection points: 2
#     Edge 170, Type (0, 0), BuildingBlock: AJUNOK_clean_linker_0, # of connection points: 2
#     Edge 171, Type (0, 0), BuildingBlock: AJUNOK_clean_linker_0, # of connection points: 2
#     Edge 172, Type (0, 0), BuildingBlock: AJUNOK_clean_linker_0, # of connection points: 2
#     Edge 173, Type (0, 0), BuildingBlock: AJUNOK_clean_linker_0, # of connection points: 2
#     Edge 174, Type (0, 0), BuildingBlock: AJUNOK_clean_linker_0, # of connection points: 2
#     Edge 175, Type (0, 0), BuildingBlock: AJUNOK_clean_linker_0, # of connection points: 2
#     Edge 176, Type (0, 0), BuildingBlock: AJUNOK_clean_linker_0, # of connection points: 2
#     Edge 177, Type (0, 0), BuildingBlock: AJUNOK_clean_linker_0, # of connection points: 2
#     Edge 178, Type (0, 0), BuildingBlock: AJUNOK_clean_linker_0, # of connection points: 2
#     Edge 179, Type (0, 0), BuildingBlock: AJUNOK_clean_linker_0, # of connection points: 2
#     Edge 180, Type (0, 0), BuildingBlock: AJUNOK_clean_linker_0, # of connection points: 2
#     Edge 181, Type (0, 0), BuildingBlock: AJUNOK_clean_linker_0, # of connection points: 2
#     Edge 182, Type (0, 0), BuildingBlock: AJUNOK_clean_linker_0, # of connection points: 2
#     Edge 183, Type (0, 0), BuildingBlock: AJUNOK_clean_linker_0, # of connection points: 2
#     Edge 184, Type (0, 0), BuildingBlock: AJUNOK_clean_linker_0, # of connection points: 2
#     Edge 185, Type (0, 0), BuildingBlock: AJUNOK_clean_linker_0, # of connection points: 2
#     Edge 186, Type (0, 0), BuildingBlock: AJUNOK_clean_linker_0, # of connection points: 2
#     Edge 187, Type (0, 0), BuildingBlock: AJUNOK_clean_linker_0, # of connection points: 2
#     Edge 188, Type (0, 0), BuildingBlock: AJUNOK_clean_linker_0, # of connection points: 2
#     Edge 189, Type (0, 0), BuildingBlock: AJUNOK_clean_linker_0, # of connection points: 2
#     Edge 190, Type (0, 0), BuildingBlock: AJUNOK_clean_linker_0, # of connection points: 2
#     Edge 191, Type (0, 0), BuildingBlock: AJUNOK_clean_linker_0, # of connection points: 2
#     Edge 192, Type (0, 0), BuildingBlock: AJUNOK_clean_linker_0, # of connection points: 2
#     Edge 193, Type (0, 0), BuildingBlock: AJUNOK_clean_linker_0, # of connection points: 2
#     Edge 194, Type (0, 0), BuildingBlock: AJUNOK_clean_linker_0, # of connection points: 2
#     Edge 195, Type (0, 0), BuildingBlock: AJUNOK_clean_linker_0, # of connection points: 2
#     Edge 196, Type (0, 0), BuildingBlock: AJUNOK_clean_linker_0, # of connection points: 2
#     Edge 197, Type (0, 0), BuildingBlock: AJUNOK_clean_linker_0, # of connection points: 2
#     Edge 198, Type (0, 0), BuildingBlock: AJUNOK_clean_linker_0, # of connection points: 2
#     Edge 199, Type (0, 0), BuildingBlock: AJUNOK_clean_linker_0, # of connection points: 2
#     Edge 200, Type (0, 0), BuildingBlock: AJUNOK_clean_linker_0, # of connection points: 2
#     Edge 201, Type (0, 0), BuildingBlock: AJUNOK_clean_linker_0, # of connection points: 2
#     Edge 202, Type (0, 0), BuildingBlock: AJUNOK_clean_linker_0, # of connection points: 2
#     Edge 203, Type (0, 0), BuildingBlock: AJUNOK_clean_linker_0, # of connection points: 2
#     Edge 204, Type (0, 0), BuildingBlock: AJUNOK_clean_linker_0, # of connection points: 2
#     Edge 205, Type (0, 0), BuildingBlock: AJUNOK_clean_linker_0, # of connection points: 2
#     Edge 206, Type (0, 0), BuildingBlock: AJUNOK_clean_linker_0, # of connection points: 2
#     Edge 207, Type (0, 0), BuildingBlock: AJUNOK_clean_linker_0, # of connection points: 2
#     Edge 208, Type (0, 0), BuildingBlock: AJUNOK_clean_linker_0, # of connection points: 2
#     Edge 209, Type (0, 0), BuildingBlock: AJUNOK_clean_linker_0, # of connection points: 2
#     Edge 210, Type (0, 0), BuildingBlock: AJUNOK_clean_linker_0, # of connection points: 2
#     Edge 211, Type (0, 0), BuildingBlock: AJUNOK_clean_linker_0, # of connection points: 2
#     Edge 212, Type (0, 0), BuildingBlock: AJUNOK_clean_linker_0, # of connection points: 2
#     Edge 213, Type (0, 0), BuildingBlock: AJUNOK_clean_linker_0, # of connection points: 2
#     Edge 214, Type (0, 0), BuildingBlock: AJUNOK_clean_linker_0, # of connection points: 2
#     Edge 215, Type (0, 0), BuildingBlock: AJUNOK_clean_linker_0, # of connection points: 2
#     Edge 216, Type (0, 0), BuildingBlock: AJUNOK_clean_linker_0, # of connection points: 2
#     Edge 217, Type (0, 0), BuildingBlock: AJUNOK_clean_linker_0, # of connection points: 2
#     Edge 218, Type (0, 0), BuildingBlock: AJUNOK_clean_linker_0, # of connection points: 2
#     Edge 219, Type (0, 0), BuildingBlock: AJUNOK_clean_linker_0, # of connection points: 2
#     Edge 220, Type (0, 0), BuildingBlock: AJUNOK_clean_linker_0, # of connection points: 2
#     Edge 221, Type (0, 0), BuildingBlock: AJUNOK_clean_linker_0, # of connection points: 2
#     Edge 222, Type (0, 0), BuildingBlock: AJUNOK_clean_linker_0, # of connection points: 2
#     Edge 223, Type (0, 0), BuildingBlock: AJUNOK_clean_linker_0, # of connection points: 2
#     Edge 224, Type (0, 0), BuildingBlock: AJUNOK_clean_linker_0, # of connection points: 2
#     Edge 225, Type (0, 0), BuildingBlock: AJUNOK_clean_linker_0, # of connection points: 2
#     Edge 226, Type (0, 0), BuildingBlock: AJUNOK_clean_linker_0, # of connection points: 2
#     Edge 227, Type (0, 0), BuildingBlock: AJUNOK_clean_linker_0, # of connection points: 2
#     Edge 228, Type (0, 0), BuildingBlock: AJUNOK_clean_linker_0, # of connection points: 2
#     Edge 229, Type (0, 0), BuildingBlock: AJUNOK_clean_linker_0, # of connection points: 2
#     Edge 230, Type (0, 0), BuildingBlock: AJUNOK_clean_linker_0, # of connection points: 2
#     Edge 231, Type (0, 0), BuildingBlock: AJUNOK_clean_linker_0, # of connection points: 2
#     Edge 232, Type (0, 0), BuildingBlock: AJUNOK_clean_linker_0, # of connection points: 2
#     Edge 233, Type (0, 0), BuildingBlock: AJUNOK_clean_linker_0, # of connection points: 2
#     Edge 234, Type (0, 0), BuildingBlock: AJUNOK_clean_linker_0, # of connection points: 2
#     Edge 235, Type (0, 0), BuildingBlock: AJUNOK_clean_linker_0, # of connection points: 2
#     Edge 236, Type (0, 0), BuildingBlock: AJUNOK_clean_linker_0, # of connection points: 2
#     Edge 237, Type (0, 0), BuildingBlock: AJUNOK_clean_linker_0, # of connection points: 2
#     Edge 238, Type (0, 0), BuildingBlock: AJUNOK_clean_linker_0, # of connection points: 2
#     Edge 239, Type (0, 0), BuildingBlock: AJUNOK_clean_linker_0, # of connection points: 2
#     Edge 240, Type (0, 0), BuildingBlock: AJUNOK_clean_linker_0, # of connection points: 2
#     Edge 241, Type (0, 0), BuildingBlock: AJUNOK_clean_linker_0, # of connection points: 2
#     Edge 242, Type (0, 0), BuildingBlock: AJUNOK_clean_linker_0, # of connection points: 2
#     Edge 243, Type (0, 0), BuildingBlock: AJUNOK_clean_linker_0, # of connection points: 2
#     Edge 244, Type (0, 0), BuildingBlock: AJUNOK_clean_linker_0, # of connection points: 2
#     Edge 245, Type (0, 0), BuildingBlock: AJUNOK_clean_linker_0, # of connection points: 2
#     Edge 246, Type (0, 0), BuildingBlock: AJUNOK_clean_linker_0, # of connection points: 2
#     Edge 247, Type (0, 0), BuildingBlock: AJUNOK_clean_linker_0, # of connection points: 2
#     Edge 248, Type (0, 0), BuildingBlock: AJUNOK_clean_linker_0, # of connection points: 2
#     Edge 249, Type (0, 0), BuildingBlock: AJUNOK_clean_linker_0, # of connection points: 2
#     Edge 250, Type (0, 0), BuildingBlock: AJUNOK_clean_linker_0, # of connection points: 2
#     Edge 251, Type (0, 0), BuildingBlock: AJUNOK_clean_linker_0, # of connection points: 2
#     Edge 252, Type (0, 0), BuildingBlock: AJUNOK_clean_linker_0, # of connection points: 2
#     Edge 253, Type (0, 0), BuildingBlock: AJUNOK_clean_linker_0, # of connection points: 2
#     Edge 254, Type (0, 0), BuildingBlock: AJUNOK_clean_linker_0, # of connection points: 2
#     Edge 255, Type (0, 0), BuildingBlock: AJUNOK_clean_linker_0, # of connection points: 2
#     Edge 256, Type (0, 0), BuildingBlock: AJUNOK_clean_linker_0, # of connection points: 2
#     Edge 257, Type (0, 0), BuildingBlock: AJUNOK_clean_linker_0, # of connection points: 2
#     Edge 258, Type (0, 0), BuildingBlock: AJUNOK_clean_linker_0, # of connection points: 2
#     Edge 259, Type (0, 0), BuildingBlock: AJUNOK_clean_linker_0, # of connection points: 2
#     Edge 260, Type (0, 0), BuildingBlock: AJUNOK_clean_linker_0, # of connection points: 2
#     Edge 261, Type (0, 0), BuildingBlock: AJUNOK_clean_linker_0, # of connection points: 2
#     Edge 262, Type (0, 0), BuildingBlock: AJUNOK_clean_linker_0, # of connection points: 2
#     Edge 263, Type (0, 0), BuildingBlock: AJUNOK_clean_linker_0, # of connection points: 2
#     Edge 264, Type (0, 0), BuildingBlock: AJUNOK_clean_linker_0, # of connection points: 2
#     Edge 265, Type (0, 0), BuildingBlock: AJUNOK_clean_linker_0, # of connection points: 2
#     Edge 266, Type (0, 0), BuildingBlock: AJUNOK_clean_linker_0, # of connection points: 2
#     Edge 267, Type (0, 0), BuildingBlock: AJUNOK_clean_linker_0, # of connection points: 2
#     Edge 268, Type (0, 0), BuildingBlock: AJUNOK_clean_linker_0, # of connection points: 2
#     Edge 269, Type (0, 0), BuildingBlock: AJUNOK_clean_linker_0, # of connection points: 2
#     Edge 270, Type (0, 0), BuildingBlock: AJUNOK_clean_linker_0, # of connection points: 2
#     Edge 271, Type (0, 0), BuildingBlock: AJUNOK_clean_linker_0, # of connection points: 2
#     Edge 272, Type (0, 0), BuildingBlock: AJUNOK_clean_linker_0, # of connection points: 2
#     Edge 273, Type (0, 0), BuildingBlock: AJUNOK_clean_linker_0, # of connection points: 2
#     Edge 274, Type (0, 0), BuildingBlock: AJUNOK_clean_linker_0, # of connection points: 2
#     Edge 275, Type (0, 0), BuildingBlock: AJUNOK_clean_linker_0, # of connection points: 2
#     Edge 276, Type (0, 0), BuildingBlock: AJUNOK_clean_linker_0, # of connection points: 2
#     Edge 277, Type (0, 0), BuildingBlock: AJUNOK_clean_linker_0, # of connection points: 2
#     Edge 278, Type (0, 0), BuildingBlock: AJUNOK_clean_linker_0, # of connection points: 2
#     Edge 279, Type (0, 0), BuildingBlock: AJUNOK_clean_linker_0, # of connection points: 2
#     Edge 280, Type (0, 0), BuildingBlock: AJUNOK_clean_linker_0, # of connection points: 2
#     Edge 281, Type (0, 0), BuildingBlock: AJUNOK_clean_linker_0, # of connection points: 2
#     Edge 282, Type (0, 0), BuildingBlock: AJUNOK_clean_linker_0, # of connection points: 2
#     Edge 283, Type (0, 0), BuildingBlock: AJUNOK_clean_linker_0, # of connection points: 2
#     Edge 284, Type (0, 0), BuildingBlock: AJUNOK_clean_linker_0, # of connection points: 2
#     Edge 285, Type (0, 0), BuildingBlock: AJUNOK_clean_linker_0, # of connection points: 2
#     Edge 286, Type (0, 0), BuildingBlock: AJUNOK_clean_linker_0, # of connection points: 2
#     Edge 287, Type (0, 0), BuildingBlock: AJUNOK_clean_linker_0, # of connection points: 2
# Relax obj value: 0.074
# Max RMSD: 0.230
# Mean RMSD: 0.230
data_MOF--net-gie--node1-NAWXER_clean_sbu_0--edge1-AJUNOK_clean_linker_0
_symmetry_space_group_name_H-M    P1
_symmetry_Int_Tables_number       1
_symmetry_cell_setting            triclinic
loop_
_symmetry_equiv_pos_as_xyz
'x, y, z'
_cell_length_a     64.436182
_cell_length_b     64.434323
_cell_length_c     64.430458
_cell_angle_alpha  89.997135
_cell_angle_beta   89.998521
_cell_angle_gamma 89.978603
loop_
_atom_site_label
_atom_site_type_symbol
_atom_site_fract_x
_atom_site_fract_y
_atom_site_fract_z
_atom_type_partial_charge
C0 C 0.99746 0.10472 0.39631 0.0
C1 C 0.04153 0.16516 0.38827 0.0
O2 O 0.99469 0.11729 0.41152 0.0
Zn3 Zn 0.00853 0.14648 0.42118 0.0
O4 O 0.0109 0.10901 0.38263 0.0
Zn5 Zn 0.01986 0.13502 0.39347 0.0
O6 O 0.0382 0.12681 0.42055 0.0
O7 O 0.02157 0.1404 0.44705 0.0
O8 O 0.03944 0.14935 0.37672 0.0
O9 O 0.03113 0.16627 0.40527 0.0
O10 O 0.985 0.16412 0.423 0.0
O11 O 0.99251 0.15505 0.39089 0.0
C12 C 0.03681 0.13006 0.44016 0.0
C13 C 0.98094 0.16498 0.40377 0.0
C14 C 0.09371 0.73123 0.65398 0.0
C15 C 0.12918 0.78669 0.69071 0.0
O16 O 0.104 0.74268 0.64128 0.0
Zn17 Zn 0.12436 0.76972 0.64401 0.0
O18 O 0.09416 0.73535 0.67323 0.0
Zn19 Zn 0.11227 0.75862 0.67166 0.0
O20 O 0.09312 0.78152 0.65554 0.0
O21 O 0.11035 0.7896 0.62713 0.0
O22 O 0.1185 0.77167 0.69757 0.0
O23 O 0.13264 0.78792 0.67112 0.0
O24 O 0.15035 0.75994 0.63346 0.0
O25 O 0.14105 0.74396 0.66216 0.0
C26 C 0.0945 0.79195 0.63859 0.0
C27 C 0.15383 0.74613 0.64704 0.0
C28 C 0.4735 0.87985 0.93979 0.0
C29 C 0.52818 0.84442 0.90168 0.0
O30 O 0.4724 0.88404 0.92036 0.0
Zn31 Zn 0.49044 0.87644 0.89307 0.0
O32 O 0.48827 0.86858 0.94627 0.0
Zn33 Zn 0.50139 0.86307 0.92016 0.0
O34 O 0.51661 0.89193 0.91169 0.0
O35 O 0.50058 0.90249 0.88344 0.0
O36 O 0.5244 0.84444 0.92102 0.0
O37 O 0.51695 0.85553 0.88949 0.0
O38 O 0.47046 0.86367 0.8756 0.0
O39 O 0.47836 0.84483 0.90304 0.0
C40 C 0.5145 0.90527 0.89704 0.0
C41 C 0.46811 0.84717 0.88606 0.0
C42 C 0.41578 0.2786 0.15156 0.0
C43 C 0.38112 0.2248 0.19124 0.0
O44 O 0.40498 0.26682 0.1396 0.0
Zn45 Zn 0.38446 0.24008 0.14384 0.0
O46 O 0.41559 0.27541 0.17099 0.0
Zn47 Zn 0.39738 0.25219 0.17068 0.0
O48 O 0.41607 0.22889 0.15465 0.0
O49 O 0.39799 0.21969 0.1271 0.0
O50 O 0.39196 0.2401 0.19711 0.0
O51 O 0.37706 0.22278 0.17183 0.0
O52 O 0.35819 0.24967 0.13378 0.0
O53 O 0.36842 0.26657 0.16161 0.0
C54 C 0.41425 0.21794 0.13808 0.0
C55 C 0.35516 0.26393 0.147 0.0
C56 C 0.03568 0.8781 0.06846 0.0
C57 C 0.98019 0.84543 0.10706 0.0
O58 O 0.03781 0.88196 0.08791 0.0
Zn59 Zn 0.01981 0.87504 0.11575 0.0
O60 O 0.01979 0.86829 0.06241 0.0
Zn61 Zn 0.00755 0.86319 0.08874 0.0
O62 O 0.99425 0.89277 0.09811 0.0
O63 O 0.01155 0.90152 0.12617 0.0
O64 O 0.98387 0.84588 0.08775 0.0
O65 O 0.99218 0.85541 0.11953 0.0
O66 O 0.03956 0.86082 0.13245 0.0
O67 O 0.03038 0.8434 0.10448 0.0
C68 C 0.99765 0.90566 0.11292 0.0
C69 C 0.04122 0.84476 0.12119 0.0
C70 C 0.41505 0.73135 0.35852 0.0
C71 C 0.38134 0.78736 0.3212 0.0
O72 O 0.40451 0.74271 0.37112 0.0
Zn73 Zn 0.38435 0.76998 0.36788 0.0
O74 O 0.41495 0.73562 0.33931 0.0
Zn75 Zn 0.39714 0.75903 0.3407 0.0
O76 O 0.41613 0.78151 0.3579 0.0
O77 O 0.39757 0.78944 0.38549 0.0
O78 O 0.39218 0.77232 0.31466 0.0
O79 O 0.37717 0.78851 0.34065 0.0
O80 O 0.35802 0.76088 0.37757 0.0
O81 O 0.36759 0.74481 0.349 0.0
C82 C 0.41405 0.79163 0.37499 0.0
C83 C 0.35438 0.74747 0.36369 0.0
C84 C 0.47382 0.13217 0.56879 0.0
C85 C 0.52856 0.16646 0.6073 0.0
O86 O 0.47224 0.12769 0.58815 0.0
Zn87 Zn 0.4903 0.13492 0.61582 0.0
O88 O 0.48886 0.1433 0.56287 0.0
Zn89 Zn 0.50144 0.14836 0.5891 0.0
O90 O 0.5166 0.11937 0.59748 0.0
O91 O 0.50011 0.10865 0.62536 0.0
O92 O 0.52434 0.16668 0.58808 0.0
O93 O 0.51729 0.15557 0.61968 0.0
O94 O 0.47036 0.14765 0.63338 0.0
O95 O 0.47849 0.16675 0.60623 0.0
C96 C 0.51425 0.10592 0.61199 0.0
C97 C 0.46814 0.16429 0.62313 0.0
C98 C 0.09534 0.27888 0.85663 0.0
C99 C 0.12994 0.22284 0.82005 0.0
O100 O 0.10583 0.26765 0.86938 0.0
Zn101 Zn 0.12611 0.24046 0.86655 0.0
O102 O 0.09561 0.27445 0.83746 0.0
Zn103 Zn 0.11364 0.2512 0.83916 0.0
O104 O 0.09455 0.22859 0.85612 0.0
O105 O 0.11277 0.22096 0.884 0.0
O106 O 0.11914 0.2378 0.81325 0.0
O107 O 0.13381 0.22183 0.83957 0.0
O108 O 0.15222 0.24974 0.87659 0.0
O109 O 0.14295 0.26576 0.84788 0.0
C110 C 0.09648 0.21852 0.87326 0.0
C111 C 0.15595 0.2632 0.86278 0.0
C112 C 0.44086 0.03645 0.13082 0.0
C113 C 0.40258 0.9818 0.16596 0.0
O114 O 0.42134 0.03789 0.1271 0.0
Zn115 Zn 0.39388 0.02022 0.13489 0.0
O116 O 0.44745 0.02134 0.14157 0.0
Zn117 Zn 0.42125 0.00855 0.14738 0.0
O118 O 0.41194 0.99416 0.11845 0.0
O119 O 0.38359 0.01054 0.10876 0.0
O120 O 0.42199 0.98521 0.16562 0.0
O121 O 0.39041 0.99347 0.15531 0.0
O122 O 0.37714 0.04039 0.14872 0.0
O123 O 0.40521 0.0317 0.16625 0.0
C124 C 0.39704 0.99656 0.10545 0.0
C125 C 0.38846 0.04244 0.16471 0.0
C126 C 0.22248 0.18956 0.37993 0.0
C127 C 0.27792 0.15292 0.41544 0.0
O128 O 0.22148 0.17005 0.37604 0.0
Zn129 Zn 0.23993 0.14298 0.3841 0.0
O130 O 0.23726 0.19628 0.39101 0.0
Zn131 Zn 0.25049 0.17041 0.39683 0.0
O132 O 0.26557 0.16164 0.36795 0.0
O133 O 0.24997 0.13294 0.35807 0.0
O134 O 0.27348 0.17209 0.41517 0.0
O135 O 0.26684 0.14016 0.40482 0.0
O136 O 0.22018 0.12556 0.39735 0.0
O137 O 0.22773 0.15348 0.41554 0.0
C138 C 0.26362 0.14672 0.35489 0.0
C139 C 0.21765 0.13637 0.4136 0.0
C140 C 0.06871 0.97406 0.63118 0.0
C141 C 0.10853 0.02767 0.66611 0.0
O142 O 0.08806 0.97222 0.6268 0.0
Zn143 Zn 0.11597 0.98955 0.63415 0.0
O144 O 0.06293 0.98911 0.64241 0.0
Zn145 Zn 0.0894 1.00133 0.64766 0.0
O146 O 0.09812 0.01629 0.61871 0.0
O147 O 0.12576 0.99938 0.60799 0.0
O148 O 0.08912 0.02436 0.66614 0.0
O149 O 0.12042 0.0161 0.65499 0.0
O150 O 0.133 0.96915 0.64694 0.0
O151 O 0.10603 0.978 0.66601 0.0
C152 C 0.1126 0.01374 0.60527 0.0
C153 C 0.1227 0.96727 0.6636 0.0
C154 C 0.24682 0.86276 0.8549 0.0
C155 C 0.29313 0.87322 0.91332 0.0
O156 O 0.24433 0.84831 0.86838 0.0
Zn157 Zn 0.25927 0.83974 0.89736 0.0
O158 O 0.26111 0.87599 0.8576 0.0
Zn159 Zn 0.27091 0.86634 0.88387 0.0
O160 O 0.28847 0.83847 0.87674 0.0
O161 O 0.27158 0.81331 0.8923 0.0
O162 O 0.29118 0.88352 0.89667 0.0
O163 O 0.28249 0.8565 0.91573 0.0
O164 O 0.23627 0.8393 0.91576 0.0
O165 O 0.24425 0.87068 0.90462 0.0
C166 C 0.28671 0.81912 0.8812 0.0
C167 C 0.23276 0.85868 0.91569 0.0
C168 C 0.43963 0.97358 0.38016 0.0
C169 C 0.40345 0.02953 0.34511 0.0
O170 O 0.42002 0.97231 0.38348 0.0
Zn171 Zn 0.393 0.99086 0.37537 0.0
O172 O 0.44658 0.98883 0.36988 0.0
Zn173 Zn 0.42074 1.00203 0.36386 0.0
O174 O 0.41114 0.01613 0.39297 0.0
O175 O 0.38225 1.00001 0.40136 0.0
O176 O 0.42266 0.02538 0.34603 0.0
O177 O 0.39052 0.01811 0.35515 0.0
O178 O 0.37605 0.97133 0.36113 0.0
O179 O 0.40465 0.97944 0.34422 0.0
C180 C 0.39593 0.01348 0.40555 0.0
C181 C 0.3876 0.96914 0.34534 0.0
C182 C 0.24638 0.14766 0.65466 0.0
C183 C 0.29177 0.13945 0.59509 0.0
O184 O 0.24405 0.16283 0.64197 0.0
Zn185 Zn 0.25845 0.17241 0.61308 0.0
O186 O 0.2601 0.13407 0.65094 0.0
Zn187 Zn 0.26964 0.14471 0.62495 0.0
O188 O 0.28786 0.17181 0.63315 0.0
O189 O 0.2715 0.19832 0.61924 0.0
O190 O 0.28949 0.12791 0.61089 0.0
O191 O 0.28132 0.1564 0.5938 0.0
O192 O 0.23518 0.17402 0.59503 0.0
O193 O 0.24264 0.14201 0.60456 0.0
C194 C 0.28661 0.1914 0.62975 0.0
C195 C 0.23117 0.15476 0.59434 0.0
C196 C 0.11345 0.99624 0.90597 0.0
C197 C 0.12479 0.0417 0.84711 0.0
O198 O 0.0986 0.99433 0.89282 0.0
Zn199 Zn 0.09018 0.0094 0.86382 0.0
O200 O 0.12737 0.00973 0.90279 0.0
Zn201 Zn 0.11761 0.01973 0.87667 0.0
O202 O 0.09069 0.03855 0.88447 0.0
O203 O 0.06442 0.02293 0.86939 0.0
O204 O 0.1354 0.03917 0.86349 0.0
O205 O 0.10755 0.03185 0.84509 0.0
O206 O 0.08829 0.98638 0.84555 0.0
O207 O 0.12025 0.99274 0.85599 0.0
C208 C 0.07119 0.03769 0.88046 0.0
C209 C 0.10743 0.98177 0.84531 0.0
C210 C 0.2245 0.81866 0.12958 0.0
C211 C 0.27935 0.85645 0.09462 0.0
O212 O 0.22274 0.83817 0.13331 0.0
Zn213 Zn 0.24072 0.86575 0.12546 0.0
O214 O 0.2398 0.81239 0.11897 0.0
Zn215 Zn 0.25226 0.83849 0.11319 0.0
O216 O 0.26665 0.84779 0.14212 0.0
O217 O 0.25024 0.87616 0.15164 0.0
O218 O 0.27543 0.83718 0.09514 0.0
O219 O 0.26782 0.86905 0.10498 0.0
O220 O 0.22071 0.88264 0.11162 0.0
O221 O 0.22928 0.85453 0.09411 0.0
C222 C 0.26418 0.86271 0.15507 0.0
C223 C 0.21866 0.87136 0.09561 0.0
C224 C 0.16484 0.40146 0.98234 0.0
C225 C 0.13068 0.44049 0.03711 0.0
O226 O 0.15403 0.38943 0.99402 0.0
Zn227 Zn 0.13361 0.3935 0.02081 0.0
O228 O 0.1647 0.42088 0.98568 0.0
Zn229 Zn 0.14665 0.42038 0.00913 0.0
O230 O 0.16545 0.40356 0.03208 0.0
O231 O 0.14665 0.37638 0.04083 0.0
O232 O 0.14161 0.44676 0.02201 0.0
O233 O 0.12648 0.42108 0.03857 0.0
O234 O 0.10736 0.3837 0.01161 0.0
O235 O 0.11726 0.41173 0.99482 0.0
C236 C 0.16324 0.38677 0.04268 0.0
C237 C 0.10398 0.39716 0.99771 0.0
C238 C 0.66511 0.1088 0.02829 0.0
C239 C 0.63164 0.06908 0.97379 0.0
O240 O 0.65418 0.12074 0.01659 0.0
Zn241 Zn 0.6339 0.11632 0.98957 0.0
O242 O 0.66535 0.08943 0.02478 0.0
Zn243 Zn 0.64738 0.08979 1.00138 0.0
O244 O 0.66601 0.10664 0.9784 0.0
O245 O 0.64686 0.13353 0.96949 0.0
O246 O 0.64265 0.06334 0.98901 0.0
O247 O 0.6271 0.0884 0.97196 0.0
O248 O 0.60744 0.12589 0.99886 0.0
O249 O 0.61801 0.09817 0.01572 0.0
C250 C 0.66361 0.12335 0.96773 0.0
C251 C 0.6045 0.11257 0.01301 0.0
C252 C 0.15086 0.41516 0.27807 0.0
C253 C 0.18959 0.38092 0.22307 0.0
O254 O 0.13875 0.40478 0.2661 0.0
Zn255 Zn 0.14248 0.38475 0.23905 0.0
O256 O 0.17031 0.41459 0.27496 0.0
Zn257 Zn 0.16973 0.39685 0.25123 0.0
O258 O 0.15379 0.41634 0.22842 0.0
O259 O 0.12589 0.39887 0.21907 0.0
O260 O 0.19605 0.39136 0.23844 0.0
O261 O 0.17008 0.37728 0.2214 0.0
O262 O 0.13205 0.35851 0.24789 0.0
O263 O 0.16032 0.36748 0.2648 0.0
C264 C 0.1371 0.41499 0.21755 0.0
C265 C 0.14546 0.35458 0.26171 0.0
C266 C 0.84464 0.90283 0.52875 0.0
C267 C 0.87926 0.93983 0.47306 0.0
O268 O 0.85469 0.89011 0.51711 0.0
Zn269 Zn 0.87469 0.89297 0.48978 0.0
O270 O 0.84533 0.92209 0.5248 0.0
Zn271 Zn 0.86302 0.92057 0.50127 0.0
O272 O 0.84339 0.90463 0.47857 0.0
O273 O 0.86041 0.8762 0.47007 0.0
O274 O 0.86886 0.94659 0.48832 0.0
O275 O 0.88267 0.92025 0.47161 0.0
O276 O 0.90081 0.88228 0.49875 0.0
O277 O 0.89228 0.91102 0.51509 0.0
C278 C 0.84456 0.88771 0.46805 0.0
C279 C 0.90497 0.89591 0.51229 0.0
C280 C 0.87241 0.09601 0.21812 0.0
C281 C 0.8632 0.15531 0.26381 0.0
O282 O 0.85568 0.0943 0.22885 0.0
Zn283 Zn 0.83939 0.11311 0.25189 0.0
O284 O 0.8835 0.11218 0.22006 0.0
Zn285 Zn 0.8666 0.12586 0.24018 0.0
O286 O 0.87032 0.10546 0.26696 0.0
O287 O 0.83885 0.09493 0.27531 0.0
O288 O 0.87665 0.15211 0.24981 0.0
O289 O 0.84844 0.14216 0.26623 0.0
O290 O 0.81311 0.1186 0.23905 0.0
O291 O 0.83904 0.13328 0.22245 0.0
C292 C 0.85826 0.09472 0.27866 0.0
C293 C 0.81957 0.12935 0.2239 0.0
C294 C 0.34519 0.6095 0.48216 0.0
C295 C 0.37835 0.56926 0.53649 0.0
O296 O 0.35588 0.62139 0.49411 0.0
Zn297 Zn 0.37597 0.61669 0.52123 0.0
O298 O 0.34522 0.59008 0.48535 0.0
Zn299 Zn 0.36297 0.59025 0.50888 0.0
O300 O 0.34392 0.60666 0.53197 0.0
O301 O 0.36278 0.63357 0.54137 0.0
O302 O 0.36769 0.56362 0.52098 0.0
O303 O 0.3827 0.58859 0.53861 0.0
O304 O 0.40243 0.62655 0.51254 0.0
O305 O 0.39253 0.599 0.49499 0.0
C306 C 0.3461 0.62326 0.54287 0.0
C307 C 0.40588 0.61341 0.49834 0.0
C308 C 0.14756 0.65653 0.2477 0.0
C309 C 0.13709 0.59695 0.29232 0.0
O310 O 0.1619 0.64306 0.24443 0.0
Zn311 Zn 0.17045 0.61349 0.2585 0.0
O312 O 0.13442 0.65325 0.26193 0.0
Zn313 Zn 0.14408 0.62675 0.27071 0.0
O314 O 0.1721 0.63325 0.28824 0.0
O315 O 0.19704 0.61802 0.27075 0.0
O316 O 0.12699 0.61376 0.29077 0.0
O317 O 0.15371 0.59457 0.2815 0.0
O318 O 0.17068 0.59569 0.23501 0.0
O319 O 0.13939 0.60663 0.24358 0.0
C320 C 0.1914 0.62872 0.28623 0.0
C321 C 0.15127 0.59582 0.23171 0.0
C322 C 0.35842 0.41597 0.73279 0.0
C323 C 0.32034 0.38138 0.78794 0.0
O324 O 0.37062 0.405 0.74415 0.0
Zn325 Zn 0.36705 0.38439 0.77087 0.0
O326 O 0.33908 0.41592 0.73652 0.0
Zn327 Zn 0.33995 0.39761 0.75977 0.0
O328 O 0.35709 0.41617 0.78254 0.0
O329 O 0.38455 0.39743 0.79065 0.0
O330 O 0.31383 0.39241 0.77301 0.0
O331 O 0.33977 0.37715 0.78905 0.0
O332 O 0.37667 0.35818 0.7611 0.0
O333 O 0.34839 0.36847 0.74498 0.0
C334 C 0.37409 0.41397 0.79278 0.0
C335 C 0.36304 0.35515 0.74726 0.0
C336 C 0.96709 0.84692 0.62238 0.0
C337 C 0.01214 0.90624 0.61255 0.0
O338 O 0.96879 0.8636 0.63266 0.0
Zn339 Zn 0.98905 0.87651 0.6158 0.0
O340 O 0.97799 0.84456 0.60581 0.0
Zn341 Zn 1.00127 0.8634 0.58936 0.0
O342 O 0.02464 0.84538 0.58919 0.0
O343 O 0.01592 0.85608 0.62051 0.0
O344 O 0.0154 0.89287 0.59812 0.0
O345 O 0.99793 0.90286 0.62568 0.0
O346 O 0.97162 0.88331 0.58777 0.0
O347 O 0.98911 0.86821 0.56274 0.0
C348 C 0.02778 0.84525 0.60863 0.0
C349 C 0.97366 0.87892 0.56844 0.0
C350 C 0.88081 0.22315 0.32088 0.0
C351 C 0.91515 0.2779 0.35977 0.0
O352 O 0.8918 0.2382 0.31458 0.0
Zn353 Zn 0.8968 0.25111 0.34092 0.0
O354 O 0.87661 0.22176 0.3403 0.0
Zn355 Zn 0.88379 0.23959 0.36787 0.0
O356 O 0.85752 0.24882 0.3776 0.0
O357 O 0.86732 0.26536 0.34937 0.0
O358 O 0.90429 0.26634 0.37187 0.0
O359 O 0.91494 0.27447 0.34038 0.0
O360 O 0.91552 0.22809 0.35773 0.0
O361 O 0.89679 0.21956 0.38504 0.0
C362 C 0.85403 0.26251 0.36395 0.0
C363 C 0.91332 0.21756 0.37456 0.0
C364 C 0.48166 0.16569 0.10784 0.0
C365 C 0.53621 0.13041 0.06933 0.0
O366 O 0.48493 0.16528 0.08841 0.0
Zn367 Zn 0.50842 0.14714 0.08902 0.0
O368 O 0.49344 0.1551 0.11996 0.0
Zn369 Zn 0.52022 0.13472 0.11638 0.0
O370 O 0.54046 0.14862 0.1329 0.0
O371 O 0.53157 0.16612 0.10488 0.0
O372 O 0.53772 0.12678 0.08886 0.0
O373 O 0.52114 0.14124 0.06277 0.0
O374 O 0.49431 0.11811 0.0984 0.0
O375 O 0.5107 0.1086 0.12681 0.0
C376 C 0.54239 0.16462 0.12156 0.0
C377 C 0.49681 0.10514 0.11332 0.0
C378 C 0.63054 0.78714 0.82011 0.0
C379 C 0.59633 0.73192 0.85843 0.0
O380 O 0.62023 0.77171 0.81359 0.0
Zn381 Zn 0.6146 0.75891 0.83982 0.0
O382 O 0.63409 0.78881 0.83964 0.0
Zn383 Zn 0.62655 0.77102 0.86715 0.0
O384 O 0.65278 0.76215 0.87769 0.0
O385 O 0.6439 0.74528 0.84937 0.0
O386 O 0.6066 0.74387 0.87065 0.0
O387 O 0.59693 0.73516 0.83901 0.0
O388 O 0.59498 0.78166 0.8557 0.0
O389 O 0.61226 0.79089 0.88376 0.0
C390 C 0.65674 0.74831 0.8643 0.0
C391 C 0.59622 0.79246 0.87243 0.0
C392 C 0.9686 0.1642 0.88697 0.0
C393 C 0.0145 0.10571 0.89847 0.0
O394 O 0.97086 0.14754 0.87675 0.0
Zn395 Zn 0.99066 0.1348 0.89446 0.0
O396 O 0.97884 0.16666 0.90393 0.0
Zn397 Zn 1.00171 0.14824 0.9212 0.0
O398 O 0.02463 0.16653 0.92229 0.0
O399 O 0.01767 0.1554 0.89067 0.0
O400 O 0.01684 0.11918 0.91296 0.0
O401 O 1.00042 0.10848 0.88503 0.0
O402 O 0.97241 0.12777 0.92205 0.0
O403 O 0.989 0.14331 0.9474 0.0
C404 C 0.0289 0.1663 0.90309 0.0
C405 C 0.97391 0.13228 0.94142 0.0
C406 C 0.6287 0.22467 0.6911 0.0
C407 C 0.59532 0.27907 0.65104 0.0
O408 O 0.61788 0.24005 0.69682 0.0
Zn409 Zn 0.61309 0.25226 0.67025 0.0
O410 O 0.63306 0.22265 0.67176 0.0
Zn411 Zn 0.62619 0.24006 0.64375 0.0
O412 O 0.65261 0.24881 0.63391 0.0
O413 O 0.64268 0.26614 0.6616 0.0
O414 O 0.60605 0.26716 0.63914 0.0
O415 O 0.5953 0.27582 0.67045 0.0
O416 O 0.59415 0.22914 0.65379 0.0
O417 O 0.61309 0.21989 0.62689 0.0
C418 C 0.65605 0.26288 0.64718 0.0
C419 C 0.59642 0.21826 0.6372 0.0
C420 C 0.54158 0.84579 0.38892 0.0
C421 C 0.49562 0.90486 0.39768 0.0
O422 O 0.53908 0.86161 0.37746 0.0
Zn423 Zn 0.51925 0.87544 0.39448 0.0
O424 O 0.53132 0.84438 0.40598 0.0
Zn425 Zn 0.50844 0.86341 0.42224 0.0
O426 O 0.48543 0.84508 0.42403 0.0
O427 O 0.49246 0.85474 0.39197 0.0
O428 O 0.49357 0.89211 0.41284 0.0
O429 O 0.50929 0.90135 0.38398 0.0
O430 O 0.53763 0.88378 0.42144 0.0
O431 O 0.52162 0.86969 0.44805 0.0
C432 C 0.48125 0.84436 0.40481 0.0
C433 C 0.53657 0.88036 0.44104 0.0
C434 C 0.88133 0.78618 0.19146 0.0
C435 C 0.91539 0.73248 0.15116 0.0
O436 O 0.89244 0.77099 0.19712 0.0
Zn437 Zn 0.89724 0.75886 0.17054 0.0
O438 O 0.87671 0.78806 0.17217 0.0
Zn439 Zn 0.88355 0.77074 0.14412 0.0
O440 O 0.8572 0.76117 0.13458 0.0
O441 O 0.86806 0.74419 0.16212 0.0
O442 O 0.90425 0.74412 0.13937 0.0
O443 O 0.91559 0.73576 0.17057 0.0
O444 O 0.91546 0.78229 0.15387 0.0
O445 O 0.89616 0.79116 0.12709 0.0
C446 C 0.85449 0.74686 0.14777 0.0
C447 C 0.91287 0.79311 0.13729 0.0
C448 C 0.61468 0.01281 0.90534 0.0
C449 C 0.62466 0.96841 0.84553 0.0
O450 O 0.62849 0.99938 0.90147 0.0
Zn451 Zn 0.61823 0.99018 0.87537 0.0
O452 O 0.59971 0.0154 0.89244 0.0
Zn453 Zn 0.5908 1.00106 0.86314 0.0
O454 O 0.56491 0.98793 0.86874 0.0
O455 O 0.59114 0.97167 0.88324 0.0
O456 O 0.60752 0.97852 0.84382 0.0
O457 O 0.63553 0.97067 0.86176 0.0
O458 O 0.62097 0.01749 0.85516 0.0
O459 O 0.58893 0.02434 0.84531 0.0
C460 C 0.57161 0.9729 0.87949 0.0
C461 C 0.60809 0.02877 0.84487 0.0
C462 C 0.73204 0.85824 0.5937 0.0
C463 C 0.78608 0.81801 0.62763 0.0
O464 O 0.73535 0.83882 0.59335 0.0
Zn465 Zn 0.75851 0.83881 0.61172 0.0
O466 O 0.74367 0.86995 0.60491 0.0
Zn467 Zn 0.77032 0.86524 0.62551 0.0
O468 O 0.79056 0.88252 0.6129 0.0
O469 O 0.78173 0.85577 0.59351 0.0
O470 O 0.78781 0.8373 0.63228 0.0
O471 O 0.77094 0.81227 0.6165 0.0
O472 O 0.7437 0.84713 0.64086 0.0
O473 O 0.76069 0.87461 0.65187 0.0
C474 C 0.79241 0.87243 0.59611 0.0
C475 C 0.74634 0.86143 0.65448 0.0
C476 C 0.89745 0.99657 0.40512 0.0
C477 C 0.8886 0.04263 0.3461 0.0
O478 O 0.88433 0.01092 0.40214 0.0
Zn479 Zn 0.89439 0.02052 0.37586 0.0
O480 O 0.91207 0.9939 0.39186 0.0
Zn481 Zn 0.92121 0.00836 0.36297 0.0
O482 O 0.94766 0.02045 0.36833 0.0
O483 O 0.92236 0.03788 0.38311 0.0
O484 O 0.90517 0.03167 0.34427 0.0
O485 O 0.87763 0.04089 0.36237 0.0
O486 O 0.89013 0.99384 0.35523 0.0
O487 O 0.92155 0.98522 0.34471 0.0
C488 C 0.94176 0.03587 0.379 0.0
C489 C 0.90211 0.98209 0.34443 0.0
C490 C 0.77764 0.15216 0.0946 0.0
C491 C 0.72339 0.19049 0.13038 0.0
O492 O 0.77436 0.17158 0.09522 0.0
Zn493 Zn 0.75111 0.17083 0.11356 0.0
O494 O 0.766 0.13994 0.10523 0.0
Zn495 Zn 0.73942 0.14344 0.12593 0.0
O496 O 0.71909 0.12692 0.11211 0.0
O497 O 0.72787 0.15501 0.09466 0.0
O498 O 0.72187 0.17096 0.13399 0.0
O499 O 0.73848 0.19704 0.11958 0.0
O500 O 0.7655 0.16138 0.14241 0.0
O501 O 0.74922 0.13296 0.15199 0.0
C502 C 0.71707 0.13831 0.09615 0.0
C503 C 0.76314 0.14643 0.15536 0.0
C504 C 0.62427 0.04264 0.66445 0.0
C505 C 0.61448 0.99849 0.60442 0.0
O506 O 0.63516 0.04037 0.64824 0.0
Zn507 Zn 0.6179 0.02093 0.63454 0.0
O508 O 0.60711 0.03255 0.66611 0.0
Zn509 Zn 0.59044 0.01005 0.64665 0.0
O510 O 0.58857 0.9866 0.66439 0.0
O511 O 0.6206 0.99354 0.65462 0.0
O512 O 0.59945 0.99585 0.61725 0.0
O513 O 0.62829 0.01186 0.60845 0.0
O514 O 0.59085 0.03948 0.62658 0.0
O515 O 0.56455 0.02329 0.64098 0.0
C516 C 0.60774 0.98219 0.66484 0.0
C517 C 0.57131 0.03831 0.63025 0.0
C518 C 0.71712 0.87304 0.41311 0.0
C519 C 0.76308 0.86442 0.35394 0.0
O520 O 0.71915 0.88434 0.3971 0.0
Zn521 Zn 0.73933 0.86759 0.38332 0.0
O522 O 0.72778 0.85625 0.41464 0.0
Zn523 Zn 0.75086 0.84016 0.39575 0.0
O524 O 0.7741 0.83926 0.41411 0.0
O525 O 0.76592 0.87094 0.40406 0.0
O526 O 0.76535 0.84948 0.36692 0.0
O527 O 0.74919 0.87796 0.35726 0.0
O528 O 0.72156 0.84018 0.37533 0.0
O529 O 0.73803 0.81403 0.38978 0.0
C530 C 0.77748 0.85866 0.41473 0.0
C531 C 0.72297 0.82065 0.37898 0.0
C532 C 0.90282 0.02895 0.16555 0.0
C533 C 0.94238 0.97487 0.13091 0.0
O534 O 0.92227 0.02578 0.16532 0.0
Zn535 Zn 0.92193 1.00253 0.14705 0.0
O536 O 0.89087 0.01717 0.15476 0.0
Zn537 Zn 0.89506 0.99044 0.13419 0.0
O538 O 0.87829 0.9701 0.14769 0.0
O539 O 0.90587 0.97921 0.16578 0.0
O540 O 0.92295 0.97298 0.12685 0.0
O541 O 0.94837 0.99023 0.14159 0.0
O542 O 0.91275 0.01698 0.11809 0.0
O543 O 0.88496 1.0 0.10793 0.0
C544 C 0.88928 0.96829 0.16394 0.0
C545 C 0.8981 0.01431 0.10487 0.0
C546 C 0.79184 0.13786 0.91406 0.0
C547 C 0.74587 0.14914 0.85563 0.0
O548 O 0.78951 0.12754 0.89748 0.0
Zn549 Zn 0.76967 0.14517 0.8847 0.0
O550 O 0.78159 0.15483 0.91647 0.0
Zn551 Zn 0.75868 0.17202 0.89808 0.0
O552 O 0.73572 0.17312 0.91642 0.0
O553 O 0.74267 0.14151 0.9053 0.0
O554 O 0.74357 0.16369 0.86904 0.0
O555 O 0.75989 0.13564 0.85845 0.0
O556 O 0.78789 0.17268 0.87743 0.0
O557 O 0.77148 0.19817 0.89295 0.0
C558 C 0.73144 0.15392 0.91621 0.0
C559 C 0.78648 0.19207 0.88184 0.0
C560 C 0.87874 0.56764 0.97457 0.0
C561 C 0.84506 0.60586 0.0298 0.0
O562 O 0.86858 0.56147 0.9902 0.0
Zn563 Zn 0.86305 0.58774 1.00246 0.0
O564 O 0.88239 0.58713 0.97254 0.0
Zn565 Zn 0.87487 0.61484 0.99039 0.0
O566 O 0.90111 0.62549 0.99884 0.0
O567 O 0.89244 0.59733 0.01607 0.0
O568 O 0.85507 0.6184 0.01792 0.0
O569 O 0.84556 0.58657 0.02602 0.0
O570 O 0.84334 0.60347 0.97955 0.0
O571 O 0.8608 0.63147 0.97057 0.0
C572 C 0.90522 0.61225 0.01277 0.0
C573 C 0.84476 0.62022 0.96878 0.0
C574 C 0.37923 0.94015 0.03713 0.0
C575 C 0.34483 0.9031 0.98131 0.0
O576 O 0.36821 0.94677 0.02226 0.0
Zn577 Zn 0.36291 0.9208 0.00895 0.0
O578 O 0.38338 0.92069 0.03813 0.0
Zn579 Zn 0.37589 0.89355 0.01962 0.0
O580 O 0.4021 0.8838 0.00995 0.0
O581 O 0.3921 0.91235 0.99413 0.0
O582 O 0.35549 0.89048 0.99252 0.0
O583 O 0.34479 0.92228 0.98575 0.0
O584 O 0.3442 0.9036 0.03161 0.0
O585 O 0.36278 0.87595 0.03922 0.0
C586 C 0.4053 0.89757 0.99629 0.0
C587 C 0.34636 0.8865 0.04169 0.0
C588 C 0.85876 0.59496 0.73155 0.0
C589 C 0.82078 0.63008 0.78651 0.0
O590 O 0.83936 0.59568 0.73489 0.0
Zn591 Zn 0.8403 0.61365 0.75841 0.0
O592 O 0.87108 0.60534 0.7433 0.0
Zn593 Zn 0.86773 0.62564 0.77022 0.0
O594 O 0.88435 0.61162 0.79024 0.0
O595 O 0.8562 0.59432 0.78138 0.0
O596 O 0.84033 0.63356 0.78803 0.0
O597 O 0.81414 0.61955 0.77127 0.0
O598 O 0.84979 0.6428 0.74446 0.0
O599 O 0.87829 0.6517 0.76103 0.0
C600 C 0.87297 0.59566 0.79211 0.0
C601 C 0.86477 0.65561 0.7473 0.0
C602 C 0.13099 0.07067 0.53757 0.0
C603 C 0.16563 0.10733 0.48169 0.0
O604 O 0.14215 0.06402 0.52281 0.0
Zn605 Zn 0.14753 0.08988 0.5094 0.0
O606 O 0.12684 0.09014 0.53848 0.0
Zn607 Zn 0.13447 0.11717 0.51986 0.0
O608 O 0.1083 0.12681 0.51001 0.0
O609 O 0.11845 0.09818 0.49439 0.0
O610 O 0.15494 0.12005 0.49277 0.0
O611 O 0.16569 0.0882 0.48628 0.0
O612 O 0.16615 0.10729 0.53191 0.0
O613 O 0.14751 0.13496 0.53936 0.0
C614 C 0.10522 0.11295 0.49642 0.0
C615 C 0.16396 0.12447 0.54186 0.0
C616 C 0.1897 0.88094 0.7873 0.0
C617 C 0.15261 0.91574 0.73172 0.0
O618 O 0.1963 0.89198 0.77243 0.0
Zn619 Zn 0.17031 0.89754 0.75929 0.0
O620 O 0.17021 0.87696 0.78842 0.0
Zn621 Zn 0.14301 0.88474 0.77007 0.0
O622 O 0.1331 0.85858 0.76037 0.0
O623 O 0.16166 0.86844 0.74448 0.0
O624 O 0.13998 0.90514 0.74297 0.0
O625 O 0.1718 0.91568 0.73611 0.0
O626 O 0.15339 0.91633 0.78205 0.0
O627 O 0.12558 0.89804 0.78978 0.0
C628 C 0.14682 0.85532 0.74667 0.0
C629 C 0.13631 0.91435 0.7922 0.0
C630 C 0.63184 0.44164 0.47399 0.0
C631 C 0.66441 0.40132 0.52856 0.0
O632 O 0.6426 0.44723 0.48944 0.0
Zn633 Zn 0.64687 0.42064 0.50174 0.0
O634 O 0.62716 0.42237 0.47201 0.0
Zn635 Zn 0.63343 0.39432 0.4896 0.0
O636 O 0.60684 0.38495 0.49832 0.0
O637 O 0.61718 0.41246 0.51569 0.0
O638 O 0.6535 0.38949 0.51673 0.0
O639 O 0.66464 0.42071 0.52522 0.0
O640 O 0.66564 0.40372 0.4788 0.0
O641 O 0.64629 0.37708 0.46959 0.0
C642 C 0.6036 0.39825 0.51241 0.0
C643 C 0.66315 0.38708 0.46803 0.0
C644 C 0.86292 0.35513 0.76288 0.0
C645 C 0.87154 0.41441 0.71699 0.0
O646 O 0.87602 0.35819 0.74853 0.0
Zn647 Zn 0.86595 0.38457 0.73912 0.0
O648 O 0.84834 0.36841 0.76567 0.0
Zn649 Zn 0.8392 0.39744 0.75145 0.0
O650 O 0.81266 0.3922 0.73951 0.0
O651 O 0.83783 0.37742 0.7219 0.0
O652 O 0.85505 0.4162 0.72808 0.0
O653 O 0.88256 0.39816 0.71867 0.0
O654 O 0.87038 0.405 0.76593 0.0
O655 O 0.83902 0.41556 0.7747 0.0
C656 C 0.81845 0.38157 0.72403 0.0
C657 C 0.85847 0.41575 0.7778 0.0
C658 C 0.63727 0.59606 0.21725 0.0
C659 C 0.64477 0.6563 0.26175 0.0
O660 O 0.62578 0.61196 0.21895 0.0
Zn661 Zn 0.64214 0.62615 0.23904 0.0
O662 O 0.65395 0.59483 0.22814 0.0
Zn663 Zn 0.6695 0.61434 0.25116 0.0
O664 O 0.67033 0.59653 0.27475 0.0
O665 O 0.63862 0.60598 0.26604 0.0
O666 O 0.65977 0.64354 0.2648 0.0
O667 O 0.63138 0.65226 0.24794 0.0
O668 O 0.6697 0.63401 0.22145 0.0
O669 O 0.69575 0.6202 0.23862 0.0
C670 C 0.65091 0.59573 0.27794 0.0
C671 C 0.68924 0.63058 0.22323 0.0
C672 C 0.49707 0.60594 0.89658 0.0
C673 C 0.54348 0.6647 0.88785 0.0
O674 O 0.49479 0.619 0.91145 0.0
Zn675 Zn 0.50947 0.64777 0.92068 0.0
O676 O 0.51105 0.60909 0.8831 0.0
Zn677 Zn 0.52103 0.63512 0.89332 0.0
O678 O 0.53862 0.62718 0.92081 0.0
O679 O 0.52224 0.64187 0.9469 0.0
O680 O 0.54137 0.64868 0.87657 0.0
O681 O 0.53274 0.66636 0.90458 0.0
O682 O 0.48635 0.66629 0.92132 0.0
O683 O 0.49457 0.65592 0.88976 0.0
C684 C 0.53723 0.63094 0.94032 0.0
C685 C 0.48303 0.66674 0.9019 0.0
C686 C 0.59457 0.23224 0.15118 0.0
C687 C 0.628 0.28669 0.19099 0.0
O688 O 0.60564 0.24384 0.13928 0.0
Zn689 Zn 0.62604 0.27078 0.14376 0.0
O690 O 0.59425 0.23579 0.17054 0.0
Zn691 Zn 0.61234 0.25907 0.17022 0.0
O692 O 0.59392 0.28202 0.15313 0.0
O693 O 0.61323 0.29082 0.12632 0.0
O694 O 0.61692 0.2715 0.19666 0.0
O695 O 0.63269 0.28848 0.17169 0.0
O696 O 0.65253 0.2613 0.13444 0.0
O697 O 0.64165 0.24453 0.1621 0.0
C698 C 0.59642 0.29261 0.13639 0.0
C699 C 0.65528 0.24715 0.1478 0.0
C700 C 0.97414 0.37897 0.44159 0.0
C701 C 0.02937 0.34526 0.40314 0.0
O702 O 0.9721 0.3826 0.42209 0.0
Zn703 Zn 0.98994 0.37514 0.39433 0.0
O704 O 0.98982 0.36887 0.44775 0.0
Zn705 Zn 1.00213 0.36334 0.42144 0.0
O706 O 0.01572 0.39269 0.41182 0.0
O707 O 0.99847 0.40142 0.38369 0.0
O708 O 0.02574 0.3458 0.42247 0.0
O709 O 0.01741 0.35529 0.39067 0.0
O710 O 0.97006 0.36095 0.37775 0.0
O711 O 0.97921 0.34363 0.40579 0.0
C712 C 0.01244 0.40549 0.3969 0.0
C713 C 0.96836 0.34494 0.38908 0.0
C714 C 0.91495 0.77933 0.65243 0.0
C715 C 0.88143 0.72435 0.69116 0.0
O716 O 0.905 0.76733 0.63996 0.0
Zn717 Zn 0.88518 0.73983 0.64378 0.0
O718 O 0.91435 0.77576 0.67176 0.0
Zn719 Zn 0.89691 0.75216 0.6708 0.0
O720 O 0.9167 0.72917 0.65532 0.0
O721 O 0.89936 0.71987 0.62735 0.0
O722 O 0.89146 0.74012 0.69719 0.0
O723 O 0.87778 0.72214 0.67168 0.0
O724 O 0.85888 0.7482 0.63303 0.0
O725 O 0.8675 0.76559 0.66109 0.0
C726 C 0.91537 0.71823 0.63868 0.0
C727 C 0.85473 0.7622 0.64617 0.0
C728 C 0.53547 0.38036 0.56867 0.0
C729 C 0.48211 0.34496 0.60836 0.0
O730 O 0.53756 0.38421 0.58812 0.0
Zn731 Zn 0.52055 0.37635 0.61614 0.0
O732 O 0.52023 0.36946 0.56274 0.0
Zn733 Zn 0.50834 0.36367 0.58921 0.0
O734 O 0.49401 0.39254 0.59868 0.0
O735 O 0.5109 0.4025 0.6266 0.0
O736 O 0.48515 0.34538 0.5889 0.0
O737 O 0.49394 0.35567 0.62034 0.0
O738 O 0.54119 0.36272 0.63245 0.0
O739 O 0.53189 0.34489 0.60477 0.0
C740 C 0.49663 0.40566 0.61343 0.0
C741 C 0.54299 0.3466 0.62126 0.0
C742 C 0.91585 0.23106 0.85616 0.0
C743 C 0.88088 0.28664 0.8191 0.0
O744 O 0.90581 0.24275 0.86884 0.0
Zn745 Zn 0.88568 0.26995 0.86593 0.0
O746 O 0.915 0.23486 0.83686 0.0
Zn747 Zn 0.8972 0.25837 0.83833 0.0
O748 O 0.9169 0.28117 0.85411 0.0
O749 O 0.89991 0.28973 0.88254 0.0
O750 O 0.89117 0.27133 0.81228 0.0
O751 O 0.87759 0.28808 0.8387 0.0
O752 O 0.85968 0.26103 0.87679 0.0
O753 O 0.86801 0.24447 0.84812 0.0
C754 C 0.91573 0.29174 0.87101 0.0
C755 C 0.85543 0.24738 0.8633 0.0
C756 C 0.97396 0.63152 0.06799 0.0
C757 C 0.02881 0.66609 0.10621 0.0
O758 O 0.97221 0.62771 0.08749 0.0
Zn759 Zn 0.98995 0.63554 0.11515 0.0
O760 O 0.98917 0.64226 0.06175 0.0
Zn761 Zn 1.00159 0.64794 0.08795 0.0
O762 O 0.01578 0.61888 0.09722 0.0
O763 O 0.99928 0.60933 0.12554 0.0
O764 O 0.02493 0.66583 0.08692 0.0
O765 O 0.01714 0.65575 0.11868 0.0
O766 O 0.96989 0.64939 0.1319 0.0
O767 O 0.97859 0.66704 0.10393 0.0
C768 C 0.01322 0.60588 0.1121 0.0
C769 C 0.96789 0.66546 0.12069 0.0
C770 C 0.59398 0.7787 0.35842 0.0
C771 C 0.62745 0.72472 0.31805 0.0
O772 O 0.60515 0.76706 0.37017 0.0
Zn773 Zn 0.62566 0.74029 0.36537 0.0
O774 O 0.5936 0.77532 0.33902 0.0
Zn775 Zn 0.61182 0.75215 0.33904 0.0
O776 O 0.59358 0.72891 0.35597 0.0
O777 O 0.61304 0.71999 0.38261 0.0
O778 O 0.61634 0.73993 0.31246 0.0
O779 O 0.63222 0.72286 0.33731 0.0
O780 O 0.65215 0.74978 0.37467 0.0
O781 O 0.64113 0.76674 0.34719 0.0
C782 C 0.59622 0.71814 0.37257 0.0
C783 C 0.65481 0.76406 0.36142 0.0
C784 C 0.90111 0.48155 0.66402 0.0
C785 C 0.93965 0.53647 0.62942 0.0
O786 O 0.88892 0.49354 0.65374 0.0
Zn787 Zn 0.89253 0.52058 0.63365 0.0
O788 O 0.92055 0.48467 0.66332 0.0
Zn789 Zn 0.91985 0.5084 0.64556 0.0
O790 O 0.90416 0.53136 0.66509 0.0
O791 O 0.87608 0.54063 0.64785 0.0
O792 O 0.94614 0.52107 0.63982 0.0
O793 O 0.92011 0.5382 0.62593 0.0
O794 O 0.88188 0.51173 0.60747 0.0
O795 O 0.91023 0.49484 0.61625 0.0
C796 C 0.88748 0.54226 0.66383 0.0
C797 C 0.89528 0.49791 0.60344 0.0
C798 C 0.76408 0.64773 0.85463 0.0
C799 C 0.71773 0.63706 0.91297 0.0
O800 O 0.76678 0.66198 0.86829 0.0
Zn801 Zn 0.75203 0.67032 0.89746 0.0
O802 O 0.74969 0.6346 0.85725 0.0
Zn803 Zn 0.74005 0.64404 0.88366 0.0
O804 O 0.7228 0.67223 0.87698 0.0
O805 O 0.74001 0.69699 0.89282 0.0
O806 O 0.71956 0.62698 0.89617 0.0
O807 O 0.72858 0.65361 0.91562 0.0
O808 O 0.77503 0.67019 0.91588 0.0
O809 O 0.76655 0.63904 0.9045 0.0
C810 C 0.72478 0.69149 0.88171 0.0
C811 C 0.77818 0.65075 0.91573 0.0
C812 C 0.60869 0.52818 0.16484 0.0
C813 C 0.57044 0.47318 0.1304 0.0
O814 O 0.62094 0.51658 0.15419 0.0
Zn815 Zn 0.61732 0.48966 0.13389 0.0
O816 O 0.58932 0.52462 0.16455 0.0
Zn817 Zn 0.59019 0.50119 0.14655 0.0
O818 O 0.60676 0.47829 0.16559 0.0
O819 O 0.63434 0.46974 0.14727 0.0
O820 O 0.56396 0.48828 0.14123 0.0
O821 O 0.5899 0.47178 0.12645 0.0
O822 O 0.62736 0.49882 0.1077 0.0
O823 O 0.59905 0.51542 0.11719 0.0
C824 C 0.62363 0.46778 0.16366 0.0
C825 C 0.61379 0.51257 0.10408 0.0
C826 C 0.78491 0.31791 0.38086 0.0
C827 C 0.73054 0.3561 0.4162 0.0
O828 O 0.78666 0.3374 0.37706 0.0
Zn829 Zn 0.76887 0.36502 0.38494 0.0
O830 O 0.76969 0.3117 0.39162 0.0
Zn831 Zn 0.75736 0.33789 0.3975 0.0
O832 O 0.74253 0.34721 0.36877 0.0
O833 O 0.7591 0.37535 0.35887 0.0
O834 O 0.73441 0.3368 0.41585 0.0
O835 O 0.74201 0.36856 0.40563 0.0
O836 O 0.78907 0.38187 0.39845 0.0
O837 O 0.78062 0.35392 0.41626 0.0
C838 C 0.74495 0.36207 0.35573 0.0
C839 C 0.79128 0.37069 0.41452 0.0
C840 C 0.88844 0.46771 0.8454 0.0
C841 C 0.89627 0.51214 0.90556 0.0
O842 O 0.90514 0.47855 0.84404 0.0
Zn843 Zn 0.92088 0.50152 0.86353 0.0
O844 O 0.87711 0.46943 0.86141 0.0
Zn845 Zn 0.89356 0.48946 0.87544 0.0
O846 O 0.88999 0.51642 0.85527 0.0
O847 O 0.92165 0.52516 0.8457 0.0
O848 O 0.88287 0.49836 0.90151 0.0
O849 O 0.91126 0.51521 0.8928 0.0
O850 O 0.94714 0.48883 0.86931 0.0
O851 O 0.92106 0.47183 0.88326 0.0
C852 C 0.90222 0.52832 0.84496 0.0
C853 C 0.9406 0.4735 0.87977 0.0
C854 C 0.78685 0.68986 0.1296 0.0
C855 C 0.73259 0.65114 0.09425 0.0
O856 O 0.78804 0.67045 0.13391 0.0
Zn857 Zn 0.77029 0.64298 0.1264 0.0
O858 O 0.77212 0.6962 0.1182 0.0
Zn859 Zn 0.75921 0.66995 0.11285 0.0
O860 O 0.74417 0.66162 0.14185 0.0
O861 O 0.76019 0.63341 0.15252 0.0
O862 O 0.73618 0.67051 0.09423 0.0
O863 O 0.74389 0.6391 0.10544 0.0
O864 O 0.79051 0.6257 0.11376 0.0
O865 O 0.78242 0.65295 0.09475 0.0
C866 C 0.74631 0.64706 0.15529 0.0
C867 C 0.79284 0.6361 0.09722 0.0
C868 C 0.57072 0.53781 0.38094 0.0
C869 C 0.60681 0.48215 0.34529 0.0
O870 O 0.59037 0.53917 0.38402 0.0
Zn871 Zn 0.6174 0.52084 0.37546 0.0
O872 O 0.56375 0.5226 0.3706 0.0
Zn873 Zn 0.58957 0.5096 0.3642 0.0
O874 O 0.5995 0.49553 0.39316 0.0
O875 O 0.62847 0.51164 0.40132 0.0
O876 O 0.58759 0.48623 0.34638 0.0
O877 O 0.61979 0.49364 0.35518 0.0
O878 O 0.63402 0.54055 0.36107 0.0
O879 O 0.60529 0.53232 0.34445 0.0
C880 C 0.61483 0.49815 0.40561 0.0
C881 C 0.62228 0.54273 0.34542 0.0
C882 C 0.76213 0.36413 0.6556 0.0
C883 C 0.71692 0.37159 0.59587 0.0
O884 O 0.7654 0.34938 0.64262 0.0
Zn885 Zn 0.75167 0.3398 0.61338 0.0
O886 O 0.74798 0.37725 0.65184 0.0
Zn887 Zn 0.73909 0.36664 0.62567 0.0
O888 O 0.72208 0.33856 0.6333 0.0
O889 O 0.73985 0.31323 0.61899 0.0
O890 O 0.71857 0.38282 0.61196 0.0
O891 O 0.72812 0.35514 0.59423 0.0
O892 O 0.7751 0.3396 0.5954 0.0
O893 O 0.7659 0.37104 0.60526 0.0
C894 C 0.72435 0.31912 0.62954 0.0
C895 C 0.77795 0.35907 0.59479 0.0
C896 C 0.66571 0.90321 0.48113 0.0
C897 C 0.63176 0.94279 0.53556 0.0
O898 O 0.65501 0.89126 0.493 0.0
Zn899 Zn 0.63486 0.89548 0.52006 0.0
O900 O 0.66571 0.92263 0.48444 0.0
Zn901 Zn 0.64775 0.92229 0.50791 0.0
O902 O 0.66666 0.90613 0.53099 0.0
O903 O 0.6485 0.87865 0.54022 0.0
O904 O 0.64247 0.94872 0.52019 0.0
O905 O 0.62767 0.92338 0.53751 0.0
O906 O 0.60848 0.88549 0.51083 0.0
O907 O 0.6186 0.91328 0.49378 0.0
C908 C 0.66483 0.88953 0.5419 0.0
C909 C 0.60534 0.89869 0.49659 0.0
C910 C 0.16515 0.60641 0.52844 0.0
C911 C 0.12994 0.56999 0.4727 0.0
O912 O 0.15512 0.61927 0.51692 0.0
Zn913 Zn 0.1349 0.61667 0.48973 0.0
O914 O 0.16425 0.58717 0.52442 0.0
Zn915 Zn 0.14642 0.58895 0.50102 0.0
O916 O 0.16608 0.60489 0.47832 0.0
O917 O 0.14914 0.63344 0.47005 0.0
O918 O 0.14028 0.56305 0.48792 0.0
O919 O 0.12667 0.58961 0.47139 0.0
O920 O 0.10894 0.62752 0.49891 0.0
O921 O 0.11734 0.59868 0.51514 0.0
C922 C 0.16494 0.62188 0.46791 0.0
C923 C 0.10477 0.61391 0.51246 0.0
C924 C 0.63651 0.91418 0.71727 0.0
C925 C 0.64685 0.85544 0.7633 0.0
O926 O 0.65368 0.91605 0.72728 0.0
Zn927 Zn 0.67058 0.89731 0.75003 0.0
O928 O 0.62563 0.898 0.71989 0.0
Zn929 Zn 0.64306 0.88466 0.73962 0.0
O930 O 0.64046 0.90541 0.76652 0.0
O931 O 0.67246 0.91565 0.77295 0.0
O932 O 0.63297 0.85867 0.74974 0.0
O933 O 0.66181 0.86846 0.76516 0.0
O934 O 0.69637 0.89137 0.73682 0.0
O935 O 0.67006 0.8764 0.72115 0.0
C936 C 0.65332 0.91601 0.77751 0.0
C937 C 0.68959 0.88022 0.72213 0.0
C938 C 0.34439 0.40318 0.0284 0.0
C939 C 0.37827 0.4427 0.9739 0.0
O940 O 0.35532 0.39126 0.01671 0.0
Zn941 Zn 0.37577 0.39558 0.98987 0.0
O942 O 0.34436 0.4226 0.02512 0.0
Zn943 Zn 0.36243 0.42221 1.00172 0.0
O944 O 0.34366 0.4053 0.97887 0.0
O945 O 0.36273 0.37828 0.96998 0.0
O946 O 0.36735 0.4486 0.98913 0.0
O947 O 0.38266 0.42334 0.97216 0.0
O948 O 0.40212 0.38591 0.99927 0.0
O949 O 0.39167 0.41364 0.01619 0.0
C950 C 0.34597 0.38847 0.96836 0.0
C951 C 0.40509 0.39916 0.01347 0.0
C952 C 0.31834 0.63001 0.7241 0.0
C953 C 0.35818 0.5949 0.77759 0.0
O954 O 0.33776 0.63398 0.72201 0.0
Zn955 Zn 0.36578 0.62643 0.7392 0.0
O956 O 0.31248 0.61924 0.73946 0.0
Zn957 Zn 0.33896 0.61363 0.75145 0.0
O958 O 0.34829 0.64243 0.76593 0.0
O959 O 0.37602 0.65261 0.74885 0.0
O960 O 0.33872 0.59527 0.77457 0.0
O961 O 0.37012 0.6057 0.7658 0.0
O962 O 0.38234 0.61292 0.71867 0.0
O963 O 0.35477 0.59493 0.72801 0.0
C964 C 0.36296 0.65562 0.76324 0.0
C965 C 0.37129 0.59671 0.71696 0.0
C966 C 0.84471 0.10756 0.981 0.0
C967 C 0.87968 0.07073 0.03669 0.0
O968 O 0.85477 0.1203 0.99262 0.0
Zn969 Zn 0.8749 0.1175 0.01983 0.0
O970 O 0.84551 0.08828 0.98491 0.0
Zn971 Zn 0.86329 0.08987 0.0084 0.0
O972 O 0.84366 0.10585 0.0311 0.0
O973 O 0.86067 0.1343 0.03953 0.0
O974 O 0.8693 0.06389 0.02145 0.0
O975 O 0.88301 0.09033 0.03806 0.0
O976 O 0.90092 0.12823 0.01073 0.0
O977 O 0.89244 0.09948 0.99439 0.0
C978 C 0.84483 0.1228 0.04157 0.0
C979 C 0.90507 0.11464 0.99716 0.0
C980 C 0.6459 0.15638 0.74756 0.0
C981 C 0.63643 0.09683 0.7924 0.0
O982 O 0.66098 0.14358 0.74504 0.0
Zn983 Zn 0.67012 0.11443 0.75958 0.0
O984 O 0.63212 0.15246 0.76099 0.0
Zn985 Zn 0.6426 0.12651 0.77038 0.0
O986 O 0.6696 0.13468 0.78888 0.0
O987 O 0.69598 0.12033 0.77275 0.0
O988 O 0.62543 0.11296 0.79 0.0
O989 O 0.65356 0.09516 0.78228 0.0
O990 O 0.67203 0.09637 0.73642 0.0
O991 O 0.63995 0.106 0.74328 0.0
C992 C 0.68917 0.13109 0.78772 0.0
C993 C 0.65286 0.09567 0.73208 0.0
C994 C 0.86404 0.85487 0.2474 0.0
C995 C 0.8723 0.91507 0.29167 0.0
O996 O 0.8492 0.86779 0.24423 0.0
Zn997 Zn 0.83985 0.89727 0.25769 0.0
O998 O 0.87746 0.85885 0.26119 0.0
Zn999 Zn 0.86702 0.88508 0.26991 0.0
O1000 O 0.83934 0.87767 0.28743 0.0
O1001 O 0.81344 0.89188 0.27033 0.0
O1002 O 0.88351 0.89897 0.29 0.0
O1003 O 0.85567 0.9166 0.28074 0.0
O1004 O 0.83946 0.91504 0.23394 0.0
O1005 O 0.87095 0.90512 0.24292 0.0
C1006 C 0.81985 0.8814 0.28571 0.0
C1007 C 0.85892 0.91554 0.2309 0.0
C1008 C 0.52889 0.34461 0.10587 0.0
C1009 C 0.4735 0.38045 0.06936 0.0
O1010 O 0.52478 0.34523 0.08663 0.0
Zn1011 Zn 0.50155 0.3634 0.08827 0.0
O1012 O 0.51753 0.35494 0.11862 0.0
Zn1013 Zn 0.49057 0.37545 0.11601 0.0
O1014 O 0.47073 0.36151 0.13291 0.0
O1015 O 0.47873 0.3443 0.10445 0.0
O1016 O 0.47236 0.38387 0.08895 0.0
O1017 O 0.48842 0.36966 0.06243 0.0
O1018 O 0.5161 0.39221 0.0977 0.0
O1019 O 0.50036 0.40138 0.12658 0.0
C1020 C 0.46838 0.34567 0.12145 0.0
C1021 C 0.51398 0.40496 0.11286 0.0
C1022 C 0.38112 0.72378 0.81972 0.0
C1023 C 0.41557 0.77983 0.85624 0.0
O1024 O 0.39145 0.73904 0.81286 0.0
Zn1025 Zn 0.39724 0.75219 0.83877 0.0
O1026 O 0.37771 0.72244 0.83931 0.0
Zn1027 Zn 0.38562 0.74087 0.86643 0.0
O1028 O 0.35952 0.74977 0.87707 0.0
O1029 O 0.36796 0.76604 0.84825 0.0
O1030 O 0.40555 0.76828 0.86907 0.0
O1031 O 0.41486 0.77572 0.83701 0.0
O1032 O 0.41697 0.72972 0.85495 0.0
O1033 O 0.3999 0.72139 0.8834 0.0
C1034 C 0.35531 0.76324 0.86339 0.0
C1035 C 0.41581 0.71937 0.87198 0.0
C1036 C 0.98247 0.66534 0.60903 0.0
C1037 C 0.03651 0.63147 0.569 0.0
O1038 O 0.98584 0.66548 0.58963 0.0
Zn1039 Zn 0.00894 0.64718 0.58985 0.0
O1040 O 0.99402 0.6542 0.62091 0.0
Zn1041 Zn 0.02071 0.63347 0.61629 0.0
O1042 O 0.04093 0.6462 0.63362 0.0
O1043 O 0.03201 0.6655 0.60683 0.0
O1044 O 0.03833 0.62678 0.58829 0.0
O1045 O 0.02128 0.64253 0.56335 0.0
O1046 O 0.9942 0.61803 0.59809 0.0
O1047 O 0.01101 0.60702 0.62566 0.0
C1048 C 0.04269 0.663 0.62351 0.0
C1049 C 0.99675 0.60439 0.61239 0.0
C1050 C 0.12802 0.28616 0.31797 0.0
C1051 C 0.09375 0.23255 0.35819 0.0
O1052 O 0.11684 0.27103 0.31233 0.0
Zn1053 Zn 0.11202 0.25886 0.3389 0.0
O1054 O 0.13268 0.28799 0.33726 0.0
Zn1055 Zn 0.12582 0.27059 0.36528 0.0
O1056 O 0.15214 0.26081 0.37471 0.0
O1057 O 0.14108 0.24384 0.34726 0.0
O1058 O 0.10499 0.24405 0.37001 0.0
O1059 O 0.09352 0.23594 0.3388 0.0
O1060 O 0.09392 0.28229 0.35574 0.0
O1061 O 0.11335 0.29101 0.38247 0.0
C1062 C 0.1547 0.24643 0.36156 0.0
C1063 C 0.09659 0.29302 0.37237 0.0
C1064 C 0.52874 0.66647 0.40359 0.0
C1065 C 0.47421 0.6319 0.44233 0.0
O1066 O 0.52468 0.66669 0.42285 0.0
Zn1067 Zn 0.50167 0.64837 0.42201 0.0
O1068 O 0.51735 0.65561 0.3913 0.0
Zn1069 Zn 0.49044 0.63499 0.39524 0.0
O1070 O 0.47032 0.64778 0.37793 0.0
O1071 O 0.47849 0.66672 0.40517 0.0
O1072 O 0.47263 0.62755 0.42294 0.0
O1073 O 0.48917 0.64313 0.4483 0.0
O1074 O 0.51667 0.61934 0.41352 0.0
O1075 O 0.5002 0.60877 0.38556 0.0
C1076 C 0.46803 0.66431 0.38834 0.0
C1077 C 0.51429 0.60594 0.39897 0.0
C1078 C 0.12907 0.72416 0.1908 0.0
C1079 C 0.09458 0.77796 0.15084 0.0
O1080 O 0.11796 0.73932 0.19653 0.0
Zn1081 Zn 0.11296 0.75154 0.16999 0.0
O1082 O 0.13342 0.72222 0.17145 0.0
Zn1083 Zn 0.12621 0.73958 0.14348 0.0
O1084 O 0.15246 0.74884 0.13365 0.0
O1085 O 0.14231 0.76596 0.16139 0.0
O1086 O 0.10553 0.76629 0.1389 0.0
O1087 O 0.09474 0.77474 0.17026 0.0
O1088 O 0.09433 0.72826 0.1534 0.0
O1089 O 0.11343 0.71924 0.12653 0.0
C1090 C 0.15571 0.76292 0.14696 0.0
C1091 C 0.09673 0.71746 0.13677 0.0
C1092 C 0.98297 0.34443 0.90065 0.0
C1093 C 0.03659 0.37898 0.94062 0.0
O1094 O 0.98633 0.34437 0.92005 0.0
Zn1095 Zn 0.00942 0.36268 0.9198 0.0
O1096 O 0.99454 0.3555 0.88874 0.0
Zn1097 Zn 0.02119 0.37622 0.89326 0.0
O1098 O 0.04154 0.36342 0.87619 0.0
O1099 O 0.0327 0.34432 0.90315 0.0
O1100 O 0.03849 0.38345 0.92128 0.0
O1101 O 0.02155 0.36769 0.94629 0.0
O1102 O 0.99474 0.3918 0.9113 0.0
O1103 O 0.01149 0.40251 0.88356 0.0
C1104 C 0.04339 0.34674 0.88647 0.0
C1105 C 0.99729 0.40531 0.89688 0.0
C1106 C 0.38073 0.28692 0.69086 0.0
C1107 C 0.41591 0.23157 0.65376 0.0
O1108 O 0.39146 0.27188 0.6976 0.0
Zn1109 Zn 0.39744 0.2589 0.67162 0.0
O1110 O 0.37717 0.28824 0.6713 0.0
Zn1111 Zn 0.38527 0.27013 0.64406 0.0
O1112 O 0.35919 0.26057 0.63364 0.0
O1113 O 0.36848 0.24455 0.66233 0.0
O1114 O 0.4056 0.24308 0.64112 0.0
O1115 O 0.41544 0.23555 0.67303 0.0
O1116 O 0.41659 0.28171 0.65544 0.0
O1117 O 0.39921 0.29 0.62716 0.0
C1118 C 0.35563 0.24687 0.64729 0.0
C1119 C 0.41516 0.29218 0.63851 0.0
C1120 C 0.11189 0.514 0.40413 0.0
C1121 C 0.12082 0.4683 0.34485 0.0
O1122 O 0.12524 0.49991 0.40088 0.0
Zn1123 Zn 0.11505 0.49043 0.37463 0.0
O1124 O 0.0971 0.51654 0.39104 0.0
Zn1125 Zn 0.08795 0.5021 0.36207 0.0
O1126 O 0.06171 0.48968 0.36764 0.0
O1127 O 0.08734 0.47261 0.38223 0.0
O1128 O 0.10407 0.47901 0.34317 0.0
O1129 O 0.13197 0.47033 0.36096 0.0
O1130 O 0.11871 0.51752 0.35425 0.0
O1131 O 0.087 0.5253 0.34399 0.0
C1132 C 0.06786 0.47437 0.37831 0.0
C1133 C 0.1063 0.52913 0.34377 0.0
C1134 C 0.23115 0.3571 0.09456 0.0
C1135 C 0.28673 0.32027 0.12944 0.0
O1136 O 0.23532 0.33787 0.09501 0.0
Zn1137 Zn 0.25858 0.33945 0.11299 0.0
O1138 O 0.24255 0.36983 0.10487 0.0
Zn1139 Zn 0.26965 0.36702 0.12521 0.0
O1140 O 0.28944 0.38406 0.11127 0.0
O1141 O 0.28125 0.35581 0.09384 0.0
O1142 O 0.28796 0.33982 0.13311 0.0
O1143 O 0.27165 0.3135 0.1188 0.0
O1144 O 0.2441 0.34864 0.14194 0.0
O1145 O 0.25999 0.37734 0.15137 0.0
C1146 C 0.29165 0.37277 0.09528 0.0
C1147 C 0.24629 0.36366 0.15484 0.0
C1148 C 0.3884 0.54223 0.84464 0.0
C1149 C 0.39657 0.49834 0.90517 0.0
O1150 O 0.37695 0.5402 0.86052 0.0
Zn1151 Zn 0.39381 0.52068 0.87481 0.0
O1152 O 0.4054 0.53183 0.84348 0.0
Zn1153 Zn 0.42141 0.50926 0.8633 0.0
O1154 O 0.42319 0.48575 0.84567 0.0
O1155 O 0.39112 0.49324 0.85487 0.0
O1156 O 0.41175 0.49543 0.89259 0.0
O1157 O 0.38301 0.51189 0.90088 0.0
O1158 O 0.42096 0.53906 0.88274 0.0
O1159 O 0.44736 0.52227 0.86916 0.0
C1160 C 0.40396 0.48167 0.84487 0.0
C1161 C 0.44055 0.53763 0.87938 0.0
C1162 C 0.27808 0.65262 0.5949 0.0
C1163 C 0.22196 0.68949 0.62902 0.0
O1164 O 0.27366 0.67179 0.5951 0.0
Zn1165 Zn 0.25034 0.6702 0.61301 0.0
O1166 O 0.26683 0.6399 0.6054 0.0
Zn1167 Zn 0.23956 0.64289 0.62562 0.0
O1168 O 0.22012 0.62531 0.61229 0.0
O1169 O 0.22787 0.65308 0.59394 0.0
O1170 O 0.22091 0.67001 0.63305 0.0
O1171 O 0.23696 0.69616 0.6182 0.0
O1172 O 0.26473 0.66173 0.64247 0.0
O1173 O 0.24878 0.63304 0.65187 0.0
C1174 C 0.21781 0.63594 0.5959 0.0
C1175 C 0.26216 0.64693 0.65558 0.0
C1176 C 0.12149 0.54351 0.16424 0.0
C1177 C 0.1132 0.49749 0.10506 0.0
O1178 O 0.13283 0.54147 0.14826 0.0
Zn1179 Zn 0.11625 0.5212 0.13446 0.0
O1180 O 0.10477 0.53275 0.16579 0.0
Zn1181 Zn 0.08885 0.50958 0.1469 0.0
O1182 O 0.08809 0.48626 0.16518 0.0
O1183 O 0.11971 0.49456 0.15505 0.0
O1184 O 0.09825 0.49517 0.11802 0.0
O1185 O 0.12668 0.51142 0.10839 0.0
O1186 O 0.08878 0.5388 0.12648 0.0
O1187 O 0.06265 0.52233 0.14096 0.0
C1188 C 0.10751 0.48292 0.16568 0.0
C1189 C 0.06926 0.53738 0.13014 0.0
C1190 C 0.21775 0.37156 0.91534 0.0
C1191 C 0.26394 0.36348 0.8563 0.0
O1192 O 0.21985 0.38287 0.89935 0.0
Zn1193 Zn 0.24014 0.36621 0.88564 0.0
O1194 O 0.22846 0.3548 0.91688 0.0
Zn1195 Zn 0.25169 0.33898 0.89795 0.0
O1196 O 0.27459 0.33776 0.91632 0.0
O1197 O 0.26703 0.36958 0.90638 0.0
O1198 O 0.26637 0.34851 0.86921 0.0
O1199 O 0.24988 0.37682 0.85964 0.0
O1200 O 0.22248 0.33856 0.87738 0.0
O1201 O 0.23946 0.31283 0.8919 0.0
C1202 C 0.27844 0.35704 0.91695 0.0
C1203 C 0.22431 0.31904 0.88105 0.0
C1204 C 0.43994 0.47389 0.63095 0.0
C1205 C 0.40126 0.52901 0.66501 0.0
O1206 O 0.44643 0.48926 0.64136 0.0
Zn1207 Zn 0.4201 0.50203 0.64688 0.0
O1208 O 0.42042 0.47223 0.62731 0.0
Zn1209 Zn 0.39283 0.48987 0.63479 0.0
O1210 O 0.38236 0.4987 0.60853 0.0
O1211 O 0.41062 0.51562 0.61752 0.0
O1212 O 0.38914 0.51701 0.65468 0.0
O1213 O 0.4207 0.52581 0.66457 0.0
O1214 O 0.40424 0.47919 0.66637 0.0
O1215 O 0.37627 0.46991 0.64898 0.0
C1216 C 0.39574 0.51256 0.60463 0.0
C1217 C 0.38756 0.46832 0.66504 0.0
C1218 C 0.2931 0.63904 0.41441 0.0
C1219 C 0.24805 0.64618 0.35445 0.0
O1220 O 0.29158 0.62778 0.39833 0.0
Zn1221 Zn 0.27111 0.64388 0.38441 0.0
O1222 O 0.28188 0.65548 0.4159 0.0
Zn1223 Zn 0.25846 0.67075 0.39654 0.0
O1224 O 0.23499 0.67106 0.41445 0.0
O1225 O 0.24421 0.63958 0.40472 0.0
O1226 O 0.24476 0.66098 0.36737 0.0
O1227 O 0.26226 0.63313 0.35825 0.0
O1228 O 0.28815 0.67192 0.37673 0.0
O1229 O 0.27027 0.69729 0.39084 0.0
C1230 C 0.23213 0.65159 0.41512 0.0
C1231 C 0.28584 0.69138 0.38039 0.0
C1232 C 0.37848 0.06988 0.47389 0.0
C1233 C 0.34478 0.10982 0.52808 0.0
O1234 O 0.36781 0.06416 0.48935 0.0
Zn1235 Zn 0.36289 0.09071 0.50151 0.0
O1236 O 0.38276 0.08924 0.47182 0.0
Zn1237 Zn 0.37582 0.11724 0.48926 0.0
O1238 O 0.40213 0.12722 0.49821 0.0
O1239 O 0.3923 0.09958 0.51563 0.0
O1240 O 0.3555 0.12176 0.51622 0.0
O1241 O 0.34495 0.09039 0.5249 0.0
O1242 O 0.34386 0.1071 0.47836 0.0
O1243 O 0.36264 0.13411 0.46908 0.0
C1244 C 0.40558 0.11409 0.51241 0.0
C1245 C 0.34601 0.12373 0.4675 0.0
C1246 C 0.87819 0.44171 0.53484 0.0
C1247 C 0.84445 0.40134 0.48094 0.0
O1248 O 0.86788 0.44748 0.51914 0.0
Zn1249 Zn 0.86267 0.42081 0.50728 0.0
O1250 O 0.88212 0.42231 0.53718 0.0
Zn1251 Zn 0.87502 0.39413 0.52011 0.0
O1252 O 0.90136 0.3837 0.51149 0.0
O1253 O 0.89209 0.41135 0.49376 0.0
O1254 O 0.8549 0.3895 0.49314 0.0
O1255 O 0.8449 0.42084 0.48368 0.0
O1256 O 0.84335 0.40531 0.53064 0.0
O1257 O 0.86123 0.37785 0.5405 0.0
C1258 C 0.90514 0.39669 0.49724 0.0
C1259 C 0.84499 0.38891 0.5419 0.0
C1260 C 0.32073 0.12978 0.28697 0.0
C1261 C 0.35926 0.09559 0.23186 0.0
O1262 O 0.31437 0.11892 0.27185 0.0
Zn1263 Zn 0.34063 0.1138 0.25888 0.0
O1264 O 0.34016 0.13389 0.28837 0.0
Zn1265 Zn 0.36763 0.12668 0.27039 0.0
O1266 O 0.37746 0.15295 0.26124 0.0
O1267 O 0.34922 0.14325 0.24467 0.0
O1268 O 0.37142 0.10636 0.24345 0.0
O1269 O 0.33989 0.09577 0.23541 0.0
O1270 O 0.35744 0.0949 0.28175 0.0
O1271 O 0.38485 0.11349 0.29024 0.0
C1272 C 0.36385 0.15648 0.24752 0.0
C1273 C 0.37433 0.09699 0.2922 0.0
C1274 C 0.6315 0.56846 0.03553 0.0
C1275 C 0.66593 0.60656 0.98058 0.0
O1276 O 0.64213 0.56228 0.02021 0.0
Zn1277 Zn 0.64778 0.58845 0.00785 0.0
O1278 O 0.62773 0.58795 0.03738 0.0
Zn1279 Zn 0.63549 0.61564 0.01955 0.0
O1280 O 0.60924 0.62607 0.01029 0.0
O1281 O 0.61871 0.59778 0.99372 0.0
O1282 O 0.65564 0.61908 0.99226 0.0
O1283 O 0.66561 0.58728 0.98449 0.0
O1284 O 0.667 0.60443 0.03077 0.0
O1285 O 0.64945 0.63245 0.03952 0.0
C1286 C 0.60574 0.61267 0.99632 0.0
C1287 C 0.66551 0.62122 0.04145 0.0
C1288 C 0.68832 0.38059 0.28779 0.0
C1289 C 0.65203 0.4154 0.23181 0.0
O1290 O 0.69512 0.39132 0.27279 0.0
Zn1291 Zn 0.66926 0.397 0.25952 0.0
O1292 O 0.66878 0.37688 0.2889 0.0
Zn1293 Zn 0.64177 0.38484 0.27029 0.0
O1294 O 0.63143 0.35883 0.261 0.0
O1295 O 0.66027 0.36774 0.24505 0.0
O1296 O 0.63913 0.40512 0.24305 0.0
O1297 O 0.67118 0.4149 0.23625 0.0
O1298 O 0.65249 0.41631 0.2821 0.0
O1299 O 0.62444 0.3984 0.28978 0.0
C1300 C 0.64522 0.35491 0.24757 0.0
C1301 C 0.63533 0.41458 0.29217 0.0
C1302 C 0.13017 0.93951 0.97418 0.0
C1303 C 0.16544 0.90105 0.02871 0.0
O1304 O 0.14056 0.94605 0.98956 0.0
Zn1305 Zn 0.14662 0.91977 1.00208 0.0
O1306 O 0.12685 0.91996 0.97238 0.0
Zn1307 Zn 0.13497 0.89241 0.98985 0.0
O1308 O 0.10911 0.88135 0.99881 0.0
O1309 O 0.11743 0.9098 0.01572 0.0
O1310 O 0.15524 0.88884 0.0167 0.0
O1311 O 0.1645 0.9205 0.02574 0.0
O1312 O 0.16623 0.90439 0.97893 0.0
O1313 O 0.14912 0.87624 0.96967 0.0
C1314 C 0.10487 0.89463 0.01267 0.0
C1315 C 0.16501 0.88774 0.96798 0.0
C1316 C 0.37273 0.9142 0.21806 0.0
C1317 C 0.36383 0.85529 0.26421 0.0
O1318 O 0.38398 0.89815 0.22013 0.0
Zn1319 Zn 0.36708 0.8845 0.24026 0.0
O1320 O 0.35592 0.9158 0.22867 0.0
Zn1321 Zn 0.33967 0.89706 0.25174 0.0
O1322 O 0.33882 0.91552 0.27488 0.0
O1323 O 0.37046 0.90526 0.26679 0.0
O1324 O 0.34892 0.8683 0.26645 0.0
O1325 O 0.3773 0.85846 0.25023 0.0
O1326 O 0.3397 0.87668 0.22242 0.0
O1327 O 0.31354 0.89121 0.23881 0.0
C1328 C 0.35822 0.91603 0.27829 0.0
C1329 C 0.32018 0.88043 0.22374 0.0
C1330 C 0.13886 0.09453 0.71891 0.0
C1331 C 0.14771 0.154 0.7643 0.0
O1332 O 0.12743 0.11039 0.72131 0.0
Zn1333 Zn 0.14449 0.12438 0.74099 0.0
O1334 O 0.15592 0.09318 0.72917 0.0
Zn1335 Zn 0.17224 0.11237 0.75187 0.0
O1336 O 0.17403 0.09428 0.77511 0.0
O1337 O 0.142 0.10399 0.76804 0.0
O1338 O 0.16288 0.14126 0.76645 0.0
O1339 O 0.13398 0.15037 0.7507 0.0
O1340 O 0.17145 0.13262 0.72255 0.0
O1341 O 0.19804 0.1185 0.73859 0.0
C1342 C 0.15481 0.09369 0.77936 0.0
C1343 C 0.19104 0.12916 0.72361 0.0
C1344 C 0.06179 0.18328 0.36071 0.0
C1345 C 0.05532 0.18234 0.38155 0.0
C1346 C 0.07427 0.19948 0.35347 0.0
C1347 C 0.08108 0.21537 0.36679 0.0
H1348 H 0.05693 0.17154 0.3497 0.0
H1349 H 0.07863 0.19948 0.33723 0.0
S1350 S 0.06904 0.22001 0.42294 0.0
N1351 N 0.05696 0.19864 0.41559 0.0
N1352 N 0.08069 0.22906 0.40198 0.0
C1353 C 0.07506 0.21453 0.38778 0.0
C1354 C 0.06209 0.19806 0.39514 0.0
C1355 C 0.06097 0.82584 0.604 0.0
C1356 C 0.0449 0.83246 0.61722 0.0
C1357 C 0.077 0.81307 0.61119 0.0
C1358 C 0.07758 0.80612 0.63189 0.0
H1359 H 0.06121 0.83052 0.58785 0.0
H1360 H 0.08886 0.80835 0.60025 0.0
S1361 S 0.03939 0.81925 0.67303 0.0
N1362 N 0.03072 0.8314 0.6522 0.0
N1363 N 0.06079 0.80718 0.66572 0.0
C1364 C 0.06171 0.81275 0.6454 0.0
C1365 C 0.04543 0.82599 0.63809 0.0
C1366 C 0.43447 0.79862 0.88466 0.0
C1367 C 0.42824 0.79755 0.86374 0.0
C1368 C 0.44731 0.81472 0.89179 0.0
C1369 C 0.45417 0.83053 0.87836 0.0
H1370 H 0.42974 0.78673 0.89555 0.0
H1371 H 0.45188 0.81476 0.90798 0.0
S1372 S 0.44174 0.83522 0.82223 0.0
N1373 N 0.42959 0.81398 0.82975 0.0
N1374 N 0.45351 0.84418 0.84312 0.0
C1375 C 0.44775 0.82981 0.85747 0.0
C1376 C 0.43487 0.81335 0.85018 0.0
C1377 C 0.4484 0.1851 0.10305 0.0
C1378 C 0.46441 0.17841 0.11631 0.0
C1379 C 0.43212 0.19751 0.11036 0.0
C1380 C 0.43128 0.20402 0.13119 0.0
H1381 H 0.44838 0.1807 0.08682 0.0
H1382 H 0.42029 0.20233 0.09942 0.0
S1383 S 0.46918 0.19057 0.17245 0.0
N1384 N 0.47822 0.17897 0.15147 0.0
N1385 N 0.44772 0.2025 0.16515 0.0
C1386 C 0.4471 0.19735 0.1447 0.0
C1387 C 0.46361 0.18449 0.13729 0.0
C1388 C 0.06199 0.8269 0.14857 0.0
C1389 C 0.05519 0.82767 0.12783 0.0
C1390 C 0.0748 0.81089 0.15568 0.0
C1391 C 0.08163 0.79501 0.14233 0.0
H1392 H 0.05715 0.83864 0.15959 0.0
H1393 H 0.07938 0.811 0.17186 0.0
S1394 S 0.0688 0.79001 0.08638 0.0
N1395 N 0.05654 0.81126 0.09384 0.0
N1396 N 0.08087 0.78118 0.1072 0.0
C1397 C 0.07526 0.7957 0.12144 0.0
C1398 C 0.06196 0.81197 0.11421 0.0
C1399 C 0.44694 0.81182 0.36942 0.0
C1400 C 0.43083 0.80541 0.38273 0.0
C1401 C 0.463 0.82472 0.37655 0.0
C1402 C 0.46373 0.83145 0.39733 0.0
H1403 H 0.44714 0.8069 0.35335 0.0
H1404 H 0.47511 0.82915 0.36577 0.0
S1405 S 0.42517 0.81937 0.43843 0.0
N1406 N 0.41654 0.8071 0.41769 0.0
N1407 N 0.44667 0.83111 0.43101 0.0
C1408 C 0.44766 0.82526 0.41075 0.0
C1409 C 0.43124 0.81232 0.40348 0.0
C1410 C 0.43575 0.21372 0.62538 0.0
C1411 C 0.42848 0.21392 0.64598 0.0
C1412 C 0.44849 0.19761 0.61807 0.0
C1413 C 0.4542 0.18092 0.63098 0.0
H1414 H 0.43193 0.22633 0.61493 0.0
H1415 H 0.45393 0.19829 0.60218 0.0
S1416 S 0.43829 0.17361 0.68598 0.0
N1417 N 0.42732 0.19566 0.679 0.0
N1418 N 0.45102 0.1654 0.66533 0.0
C1419 C 0.44662 0.18074 0.65151 0.0
C1420 C 0.43385 0.19722 0.65899 0.0
C1421 C 0.06315 0.19894 0.8677 0.0
C1422 C 0.07975 0.20453 0.8808 0.0
C1423 C 0.04698 0.18611 0.87478 0.0
C1424 C 0.04667 0.17866 0.89531 0.0
H1425 H 0.06257 0.20455 0.85186 0.0
H1426 H 0.0344 0.18242 0.86425 0.0
S1427 S 0.0868 0.18787 0.93562 0.0
N1428 N 0.09509 0.20086 0.91518 0.0
N1429 N 0.06478 0.17703 0.92837 0.0
C1430 C 0.06331 0.18384 0.90844 0.0
C1431 C 0.07982 0.19669 0.90123 0.0
C1432 C 0.3611 0.06325 0.18266 0.0
C1433 C 0.38188 0.05658 0.18168 0.0
C1434 C 0.35407 0.07595 0.19884 0.0
C1435 C 0.36755 0.08278 0.2146 0.0
H1436 H 0.35 0.05835 0.17104 0.0
H1437 H 0.33786 0.08043 0.19895 0.0
S1438 S 0.42365 0.07031 0.21892 0.0
N1439 N 0.41603 0.05812 0.19771 0.0
N1440 N 0.40284 0.08219 0.22802 0.0
C1441 C 0.38848 0.07657 0.21364 0.0
C1442 C 0.39562 0.0634 0.19724 0.0
C1443 C 0.18533 0.13534 0.46313 0.0
C1444 C 0.17799 0.11479 0.46378 0.0
C1445 C 0.19804 0.14225 0.44682 0.0
C1446 C 0.20364 0.12896 0.43037 0.0
H1447 H 0.18163 0.14605 0.47556 0.0
H1448 H 0.20357 0.15812 0.44717 0.0
S1449 S 0.18727 0.07398 0.42416 0.0
N1450 N 0.17648 0.08146 0.44615 0.0
N1451 N 0.20011 0.09437 0.41551 0.0
C1452 C 0.19591 0.1085 0.43061 0.0
C1453 C 0.18318 0.10144 0.4473 0.0
C1454 C 0.11711 0.94748 0.69675 0.0
C1455 C 0.13034 0.95343 0.6804 0.0
C1456 C 0.12426 0.9349 0.71308 0.0
C1457 C 0.145 0.92809 0.71384 0.0
H1458 H 0.10109 0.95259 0.69698 0.0
H1459 H 0.11356 0.93087 0.7254 0.0
S1460 S 0.18586 0.93884 0.67464 0.0
N1461 N 0.16515 0.95106 0.66585 0.0
N1462 N 0.17853 0.9277 0.69649 0.0
C1463 C 0.15833 0.93374 0.69749 0.0
C1464 C 0.15102 0.94632 0.68079 0.0
C1465 C 0.31293 0.86765 0.94648 0.0
C1466 C 0.30702 0.88086 0.93009 0.0
C1467 C 0.32556 0.87478 0.96276 0.0
C1468 C 0.33247 0.89549 0.96345 0.0
H1469 H 0.30775 0.85166 0.94678 0.0
H1470 H 0.32954 0.8641 0.97512 0.0
S1471 S 0.32193 0.93626 0.9241 0.0
N1472 N 0.30958 0.91559 0.91539 0.0
N1473 N 0.33304 0.92894 0.94597 0.0
C1474 C 0.32688 0.90878 0.94705 0.0
C1475 C 0.31424 0.90149 0.93039 0.0
C1476 C 0.36013 0.94866 0.32724 0.0
C1477 C 0.38093 0.95524 0.32822 0.0
C1478 C 0.35304 0.93598 0.3111 0.0
C1479 C 0.36649 0.92909 0.29535 0.0
H1480 H 0.34905 0.95356 0.3389 0.0
H1481 H 0.33683 0.9315 0.31105 0.0
S1482 S 0.42259 0.94148 0.29085 0.0
N1483 N 0.41504 0.95368 0.31209 0.0
N1484 N 0.40175 0.92964 0.28181 0.0
C1485 C 0.38743 0.9353 0.29623 0.0
C1486 C 0.39463 0.94844 0.31261 0.0
C1487 C 0.31269 0.1121 0.57733 0.0
C1488 C 0.30587 0.13284 0.57811 0.0
C1489 C 0.32538 0.10498 0.56123 0.0
C1490 C 0.33205 0.11832 0.54528 0.0
H1491 H 0.30792 0.10108 0.5891 0.0
H1492 H 0.32997 0.08881 0.56131 0.0
S1493 S 0.3192 0.17427 0.54033 0.0
N1494 N 0.30712 0.16683 0.56167 0.0
N1495 N 0.3312 0.15344 0.53143 0.0
C1496 C 0.32572 0.13922 0.54601 0.0
C1497 C 0.31255 0.14646 0.56237 0.0
C1498 C 0.11924 0.062 0.81428 0.0
C1499 C 0.13259 0.05543 0.8303 0.0
C1500 C 0.12643 0.07467 0.79807 0.0
C1501 C 0.14731 0.08103 0.79708 0.0
H1502 H 0.10309 0.05734 0.81425 0.0
H1503 H 0.1156 0.07921 0.78603 0.0
S1504 S 0.18857 0.06844 0.83533 0.0
N1505 N 0.1677 0.0566 0.84425 0.0
N1506 N 0.18114 0.08019 0.81382 0.0
C1507 C 0.16078 0.0747 0.81307 0.0
C1508 C 0.15344 0.06199 0.82966 0.0
C1509 C 0.19752 0.89875 0.07805 0.0
C1510 C 0.20461 0.87809 0.07861 0.0
C1511 C 0.18483 0.90592 0.06194 0.0
C1512 C 0.17843 0.89269 0.04579 0.0
H1513 H 0.20206 0.90967 0.09 0.0
H1514 H 0.17998 0.92202 0.06219 0.0
S1515 S 0.19222 0.837 0.04015 0.0
N1516 N 0.20402 0.84433 0.06168 0.0
N1517 N 0.17997 0.85777 0.03147 0.0
C1518 C 0.18512 0.87188 0.04628 0.0
C1519 C 0.19827 0.86461 0.06263 0.0
C1520 C 0.21286 0.38525 0.07479 0.0
C1521 C 0.21337 0.36466 0.08206 0.0
C1522 C 0.1966 0.39234 0.0621 0.0
C1523 C 0.18008 0.37918 0.05648 0.0
H1524 H 0.22532 0.39588 0.07857 0.0
H1525 H 0.19701 0.40824 0.05667 0.0
S1526 S 0.17366 0.32407 0.07233 0.0
N1527 N 0.19562 0.33138 0.08326 0.0
N1528 N 0.16511 0.34461 0.05965 0.0
C1529 C 0.18024 0.35865 0.06403 0.0
C1530 C 0.19686 0.35142 0.07674 0.0
C1531 C 0.6968 0.11801 0.94788 0.0
C1532 C 0.68042 0.13114 0.954 0.0
C1533 C 0.71303 0.1253 0.93526 0.0
C1534 C 0.71367 0.14609 0.92857 0.0
H1535 H 0.69711 0.10195 0.95287 0.0
H1536 H 0.72538 0.11468 0.93108 0.0
S1537 S 0.67437 0.18674 0.93983 0.0
N1538 N 0.66574 0.16592 0.95197 0.0
N1539 N 0.69618 0.17955 0.92851 0.0
C1540 C 0.69729 0.15931 0.93441 0.0
C1541 C 0.6807 0.15187 0.94704 0.0
C1542 C 0.10968 0.43312 0.197 0.0
C1543 C 0.13039 0.4323 0.20391 0.0
C1544 C 0.10252 0.4495 0.18466 0.0
C1545 C 0.11582 0.46566 0.17845 0.0
H1546 H 0.09873 0.42115 0.20139 0.0
H1547 H 0.0864 0.44943 0.1799 0.0
S1548 S 0.1716 0.47075 0.19197 0.0
N1549 N 0.16423 0.44904 0.20342 0.0
N1550 N 0.15081 0.47977 0.18001 0.0
C1551 C 0.13666 0.46495 0.18499 0.0
C1552 C 0.14392 0.44832 0.19779 0.0
C1553 C 0.81039 0.8534 0.43451 0.0
C1554 C 0.79456 0.86687 0.42782 0.0
C1555 C 0.82653 0.86041 0.44725 0.0
C1556 C 0.82743 0.88113 0.4541 0.0
H1557 H 0.81041 0.83726 0.42983 0.0
H1558 H 0.83825 0.84932 0.45198 0.0
S1559 S 0.78982 0.92278 0.44095 0.0
N1560 N 0.78086 0.90205 0.42886 0.0
N1561 N 0.81112 0.91518 0.45301 0.0
C1562 C 0.81173 0.89484 0.4475 0.0
C1563 C 0.79536 0.88773 0.43429 0.0
C1564 C 0.90009 0.07834 0.19749 0.0
C1565 C 0.8793 0.07902 0.20416 0.0
C1566 C 0.90742 0.06218 0.18497 0.0
C1567 C 0.89423 0.0461 0.17831 0.0
H1568 H 0.91097 0.09023 0.20227 0.0
H1569 H 0.92362 0.06234 0.18046 0.0
S1570 S 0.83824 0.04084 0.19085 0.0
N1571 N 0.84546 0.06232 0.20282 0.0
N1572 N 0.85921 0.03201 0.17906 0.0
C1573 C 0.8733 0.04672 0.18453 0.0
C1574 C 0.86585 0.06312 0.19752 0.0
C1575 C 0.29685 0.62436 0.57564 0.0
C1576 C 0.29589 0.64513 0.58235 0.0
C1577 C 0.3131 0.61735 0.56286 0.0
C1578 C 0.32917 0.63077 0.55661 0.0
H1579 H 0.28475 0.61351 0.57993 0.0
H1580 H 0.31307 0.60129 0.5579 0.0
S1581 S 0.33424 0.68652 0.57056 0.0
N1582 N 0.31271 0.67893 0.58214 0.0
N1583 N 0.34316 0.66583 0.55839 0.0
C1584 C 0.32854 0.6515 0.56353 0.0
C1585 C 0.31194 0.65866 0.57631 0.0
C1586 C 0.1421 0.56319 0.31133 0.0
C1587 C 0.12929 0.5801 0.30603 0.0
C1588 C 0.13476 0.54696 0.32394 0.0
C1589 C 0.11424 0.54687 0.33142 0.0
H1590 H 0.15792 0.56245 0.30571 0.0
H1591 H 0.14511 0.53418 0.32746 0.0
S1592 S 0.07454 0.58772 0.32265 0.0
N1593 N 0.09512 0.59589 0.30982 0.0
N1594 N 0.08144 0.56545 0.33323 0.0
C1595 C 0.10136 0.56377 0.32644 0.0
C1596 C 0.10885 0.58036 0.31384 0.0
C1597 C 0.37543 0.46242 0.82657 0.0
C1598 C 0.3965 0.46394 0.83216 0.0
C1599 C 0.36827 0.44624 0.81383 0.0
C1600 C 0.38185 0.43079 0.80646 0.0
H1601 H 0.3644 0.474 0.83177 0.0
H1602 H 0.35195 0.44582 0.8098 0.0
S1603 S 0.43847 0.42745 0.81682 0.0
N1604 N 0.43084 0.44838 0.82944 0.0
N1605 N 0.4174 0.41805 0.80573 0.0
C1606 C 0.40291 0.43199 0.81214 0.0
C1607 C 0.41022 0.44853 0.82492 0.0
C1608 C 0.93513 0.79713 0.62418 0.0
C1609 C 0.92729 0.7971 0.64457 0.0
C1610 C 0.94793 0.8133 0.61704 0.0
C1611 C 0.9531 0.83019 0.62993 0.0
H1612 H 0.93177 0.78433 0.6138 0.0
H1613 H 0.95385 0.8125 0.60132 0.0
S1614 S 0.93555 0.83798 0.68436 0.0
N1615 N 0.92498 0.81576 0.6773 0.0
N1616 N 0.94878 0.84605 0.66399 0.0
C1617 C 0.94492 0.83053 0.65022 0.0
C1618 C 0.9321 0.81403 0.6575 0.0
C1619 C 0.96249 0.18474 0.3757 0.0
C1620 C 0.9632 0.17766 0.39636 0.0
C1621 C 0.94632 0.1976 0.36873 0.0
C1622 C 0.93009 0.20363 0.38207 0.0
H1623 H 0.97473 0.18066 0.36492 0.0
H1624 H 0.94657 0.20285 0.35276 0.0
S1625 S 0.92429 0.18859 0.43747 0.0
N1626 N 0.94594 0.17719 0.42994 0.0
N1627 N 0.91562 0.20114 0.41691 0.0
C1628 C 0.93044 0.19632 0.40268 0.0
C1629 C 0.94697 0.18341 0.4098 0.0
C1630 C 0.56316 0.18255 0.14891 0.0
C1631 C 0.55639 0.18168 0.12817 0.0
C1632 C 0.57562 0.19884 0.15604 0.0
C1633 C 0.5821 0.21486 0.14269 0.0
H1634 H 0.55849 0.17075 0.15994 0.0
H1635 H 0.58017 0.19885 0.17223 0.0
S1636 S 0.56935 0.21956 0.08671 0.0
N1637 N 0.55752 0.19808 0.09415 0.0
N1638 N 0.58118 0.22863 0.10755 0.0
C1639 C 0.57585 0.21401 0.12178 0.0
C1640 C 0.56292 0.19747 0.11453 0.0
C1641 C 0.57779 0.81276 0.89984 0.0
C1642 C 0.57887 0.80611 0.87906 0.0
C1643 C 0.56138 0.82513 0.90691 0.0
C1644 C 0.54547 0.83164 0.89345 0.0
H1645 H 0.58956 0.80814 0.91092 0.0
H1646 H 0.56124 0.82968 0.92309 0.0
S1647 S 0.54113 0.81888 0.83742 0.0
N1648 N 0.56264 0.80716 0.84497 0.0
N1649 N 0.53189 0.83065 0.85823 0.0
C1650 C 0.54645 0.82536 0.87254 0.0
C1651 C 0.56309 0.81252 0.86537 0.0
C1652 C 0.94807 0.19696 0.89213 0.0
C1653 C 0.9547 0.18079 0.879 0.0
C1654 C 0.93518 0.21294 0.88476 0.0
C1655 C 0.92866 0.21353 0.8639 0.0
H1656 H 0.95283 0.19729 0.90825 0.0
H1657 H 0.93061 0.22511 0.89542 0.0
S1658 S 0.94146 0.17479 0.82317 0.0
N1659 N 0.9535 0.1663 0.84411 0.0
N1660 N 0.92951 0.19627 0.83033 0.0
C1661 C 0.93508 0.19739 0.85065 0.0
C1662 C 0.94801 0.18105 0.85818 0.0
C1663 C 0.54661 0.18633 0.63559 0.0
C1664 C 0.54636 0.17875 0.61511 0.0
C1665 C 0.56285 0.19906 0.64269 0.0
C1666 C 0.5796 0.20438 0.62967 0.0
H1667 H 0.53393 0.18282 0.64606 0.0
H1668 H 0.56223 0.20479 0.65848 0.0
S1669 S 0.5868 0.18739 0.57498 0.0
N1670 N 0.56465 0.17677 0.58216 0.0
N1671 N 0.5951 0.20041 0.5954 0.0
C1672 C 0.57972 0.19642 0.6093 0.0
C1673 C 0.56313 0.1837 0.60205 0.0
C1674 C 0.56191 0.82795 0.36119 0.0
C1675 C 0.55562 0.82885 0.38208 0.0
C1676 C 0.57442 0.8118 0.35385 0.0
C1677 C 0.58144 0.79594 0.36712 0.0
H1678 H 0.55682 0.83963 0.35021 0.0
H1679 H 0.57859 0.81177 0.33756 0.0
S1680 S 0.57011 0.79139 0.42342 0.0
N1681 N 0.55781 0.81266 0.41615 0.0
N1682 N 0.58156 0.78235 0.40235 0.0
C1683 C 0.57568 0.79682 0.38817 0.0
C1684 C 0.56269 0.81322 0.39564 0.0
C1685 C 0.94608 0.81288 0.14267 0.0
C1686 C 0.92944 0.80722 0.12967 0.0
C1687 C 0.96218 0.82571 0.13549 0.0
C1688 C 0.9624 0.83311 0.11493 0.0
H1689 H 0.94674 0.80731 0.15852 0.0
H1690 H 0.97479 0.82944 0.14596 0.0
S1691 S 0.92219 0.82344 0.07477 0.0
N1692 N 0.91399 0.81058 0.09533 0.0
N1693 N 0.94417 0.83446 0.0819 0.0
C1694 C 0.94571 0.82783 0.10188 0.0
C1695 C 0.92926 0.81496 0.10922 0.0
C1696 C 0.61848 0.94835 0.81262 0.0
C1697 C 0.63204 0.95459 0.82859 0.0
C1698 C 0.62531 0.93552 0.79636 0.0
C1699 C 0.64604 0.9287 0.79529 0.0
H1700 H 0.60243 0.95339 0.81266 0.0
H1701 H 0.61436 0.93125 0.78434 0.0
S1702 S 0.6877 0.94017 0.83343 0.0
N1703 N 0.66716 0.95252 0.84243 0.0
N1704 N 0.67992 0.92865 0.81194 0.0
C1705 C 0.6597 0.93467 0.81125 0.0
C1706 C 0.65273 0.94753 0.82787 0.0
C1707 C 0.82555 0.87431 0.54721 0.0
C1708 C 0.832 0.89517 0.54643 0.0
C1709 C 0.81279 0.86703 0.56332 0.0
C1710 C 0.80626 0.88026 0.57943 0.0
H1711 H 0.83006 0.86358 0.53508 0.0
H1712 H 0.80805 0.85091 0.56313 0.0
S1713 S 0.81934 0.93616 0.58495 0.0
N1714 N 0.83118 0.92888 0.56345 0.0
N1715 N 0.80743 0.91525 0.59367 0.0
C1716 C 0.81289 0.90109 0.579 0.0
C1717 C 0.82568 0.90853 0.56252 0.0
C1718 C 0.86089 0.06313 0.3283 0.0
C1719 C 0.8817 0.05653 0.32906 0.0
C1720 C 0.85355 0.0755 0.31201 0.0
C1721 C 0.86677 0.08206 0.29591 0.0
H1722 H 0.85 0.0584 0.3402 0.0
H1723 H 0.83734 0.07997 0.31209 0.0
S1724 S 0.92282 0.06963 0.29088 0.0
N1725 N 0.91558 0.05782 0.31244 0.0
N1726 N 0.90184 0.08129 0.28191 0.0
C1727 C 0.88773 0.0759 0.29664 0.0
C1728 C 0.89516 0.06307 0.31315 0.0
C1729 C 0.68392 0.10389 0.06179 0.0
C1730 C 0.6775 0.11726 0.04575 0.0
C1731 C 0.6963 0.111 0.07815 0.0
C1732 C 0.70306 0.13174 0.07908 0.0
H1733 H 0.67938 0.08771 0.06173 0.0
H1734 H 0.70093 0.09996 0.08995 0.0
S1735 S 0.69024 0.17325 0.04119 0.0
N1736 N 0.67846 0.15242 0.03203 0.0
N1737 N 0.70197 0.16577 0.06271 0.0
C1738 C 0.69659 0.14539 0.06327 0.0
C1739 C 0.68373 0.13817 0.04666 0.0
C1740 C 0.61798 0.06316 0.69708 0.0
C1741 C 0.63163 0.0565 0.68136 0.0
C1742 C 0.6248 0.07617 0.71322 0.0
C1743 C 0.6456 0.08278 0.7144 0.0
H1744 H 0.60188 0.05834 0.69692 0.0
H1745 H 0.61377 0.08077 0.72504 0.0
S1746 S 0.68757 0.06997 0.67698 0.0
N1747 N 0.66696 0.05778 0.66795 0.0
N1748 N 0.67969 0.082 0.69816 0.0
C1749 C 0.65936 0.07632 0.69871 0.0
C1750 C 0.65241 0.06327 0.68223 0.0
C1751 C 0.697 0.90072 0.43131 0.0
C1752 C 0.70329 0.87984 0.43023 0.0
C1753 C 0.68478 0.908 0.44773 0.0
C1754 C 0.67808 0.89466 0.46368 0.0
H1755 H 0.70187 0.91173 0.41957 0.0
H1756 H 0.68058 0.92428 0.44789 0.0
S1757 S 0.68957 0.83834 0.4678 0.0
N1758 N 0.70146 0.84572 0.44633 0.0
N1759 N 0.67828 0.85937 0.47713 0.0
C1760 C 0.68387 0.87362 0.46262 0.0
C1761 C 0.69655 0.86623 0.44595 0.0
C1762 C 0.86168 0.94738 0.18141 0.0
C1763 C 0.8824 0.95426 0.18089 0.0
C1764 C 0.85435 0.9348 0.19754 0.0
C1765 C 0.86748 0.92831 0.21374 0.0
H1766 H 0.85083 0.95204 0.16943 0.0
H1767 H 0.8382 0.93015 0.19728 0.0
S1768 S 0.92331 0.94145 0.21941 0.0
N1769 N 0.91613 0.9533 0.19785 0.0
N1770 N 0.9024 0.92945 0.22809 0.0
C1771 C 0.88836 0.93474 0.21326 0.0
C1772 C 0.89579 0.94778 0.1969 0.0
C1773 C 0.82495 0.13591 0.96301 0.0
C1774 C 0.83195 0.11522 0.96342 0.0
C1775 C 0.81203 0.14315 0.94701 0.0
C1776 C 0.80585 0.13005 0.93064 0.0
H1777 H 0.82914 0.14653 0.97535 0.0
H1778 H 0.80685 0.15914 0.9475 0.0
S1779 S 0.82067 0.07467 0.92404 0.0
N1780 N 0.8322 0.08186 0.94574 0.0
N1781 N 0.80815 0.09539 0.9157 0.0
C1782 C 0.81309 0.1094 0.93069 0.0
C1783 C 0.82605 0.10201 0.94706 0.0
C1784 C 0.81129 0.65509 0.93522 0.0
C1785 C 0.79516 0.64199 0.92857 0.0
C1786 C 0.82726 0.64776 0.94794 0.0
C1787 C 0.82772 0.62703 0.95483 0.0
H1788 H 0.81164 0.67124 0.93056 0.0
H1789 H 0.8392 0.65861 0.95266 0.0
S1790 S 0.78927 0.5862 0.94167 0.0
N1791 N 0.78072 0.60712 0.92956 0.0
N1792 N 0.81072 0.59333 0.95375 0.0
C1793 C 0.81176 0.61365 0.94822 0.0
C1794 C 0.79553 0.62111 0.935 0.0
C1795 C 0.29735 0.88481 0.07481 0.0
C1796 C 0.29694 0.86415 0.08191 0.0
C1797 C 0.31336 0.89196 0.06184 0.0
C1798 C 0.32973 0.87881 0.05572 0.0
H1799 H 0.28499 0.89543 0.07894 0.0
H1800 H 0.31288 0.90791 0.05657 0.0
S1801 S 0.33638 0.82354 0.07096 0.0
N1802 N 0.31467 0.83082 0.08242 0.0
N1803 N 0.34468 0.84417 0.05828 0.0
C1804 C 0.32968 0.85821 0.0631 0.0
C1805 C 0.31332 0.85092 0.07611 0.0
C1806 C 0.90723 0.56169 0.8259 0.0
C1807 C 0.89393 0.54552 0.83209 0.0
C1808 C 0.90017 0.5779 0.81328 0.0
C1809 C 0.87956 0.57854 0.80606 0.0
H1810 H 0.9233 0.56188 0.83085 0.0
H1811 H 0.91114 0.58986 0.8089 0.0
S1812 S 0.83836 0.54003 0.81788 0.0
N1813 N 0.85903 0.53124 0.83022 0.0
N1814 N 0.84579 0.56165 0.8063 0.0
C1815 C 0.86602 0.56253 0.8122 0.0
C1816 C 0.87318 0.54608 0.82528 0.0
C1817 C 0.19702 0.11919 0.56186 0.0
C1818 C 0.18063 0.1323 0.55574 0.0
C1819 C 0.2131 0.12642 0.57467 0.0
C1820 C 0.21357 0.14713 0.58161 0.0
H1821 H 0.19746 0.10318 0.55673 0.0
H1822 H 0.22544 0.11579 0.57884 0.0
S1823 S 0.17416 0.18771 0.57052 0.0
N1824 N 0.16574 0.16698 0.55807 0.0
N1825 N 0.19592 0.18051 0.58192 0.0
C1826 C 0.1972 0.16035 0.57578 0.0
C1827 C 0.18075 0.15296 0.56292 0.0
C1828 C 0.14237 0.94703 0.81266 0.0
C1829 C 0.12887 0.93107 0.80626 0.0
C1830 C 0.13549 0.96313 0.82568 0.0
C1831 C 0.11477 0.96406 0.83253 0.0
H1832 H 0.1584 0.94711 0.8076 0.0
H1833 H 0.1464 0.97515 0.83004 0.0
S1834 S 0.07326 0.92587 0.82073 0.0
N1835 N 0.09381 0.91707 0.80825 0.0
N1836 N 0.08096 0.94728 0.83246 0.0
C1837 C 0.10117 0.94811 0.82643 0.0
C1838 C 0.10819 0.93164 0.81338 0.0
C1839 C 0.69647 0.39213 0.44836 0.0
C1840 C 0.67995 0.37915 0.45437 0.0
C1841 C 0.7126 0.38473 0.43566 0.0
C1842 C 0.71296 0.36399 0.42879 0.0
H1843 H 0.69696 0.40814 0.45344 0.0
H1844 H 0.72505 0.39523 0.43153 0.0
S1845 S 0.67325 0.32372 0.43986 0.0
N1846 N 0.66488 0.34456 0.45215 0.0
N1847 N 0.6951 0.33073 0.42854 0.0
C1848 C 0.69647 0.35091 0.43458 0.0
C1849 C 0.67999 0.35847 0.44729 0.0
C1850 C 0.90599 0.44813 0.68311 0.0
C1851 C 0.89275 0.46434 0.67685 0.0
C1852 C 0.89886 0.43195 0.69574 0.0
C1853 C 0.87823 0.43139 0.70291 0.0
H1854 H 0.92208 0.4479 0.67823 0.0
H1855 H 0.90978 0.41997 0.7002 0.0
S1856 S 0.83711 0.46994 0.69081 0.0
N1857 N 0.85785 0.47867 0.67854 0.0
N1858 N 0.84448 0.44834 0.70248 0.0
C1859 C 0.86473 0.44741 0.69667 0.0
C1860 C 0.87197 0.46382 0.68358 0.0
C1861 C 0.61016 0.57772 0.19655 0.0
C1862 C 0.63088 0.57883 0.20337 0.0
C1863 C 0.60327 0.56137 0.18403 0.0
C1864 C 0.61684 0.54554 0.17755 0.0
H1865 H 0.59899 0.5894 0.20118 0.0
H1866 H 0.58711 0.56119 0.1794 0.0
S1867 S 0.67282 0.54143 0.19059 0.0
N1868 N 0.66507 0.56281 0.2024 0.0
N1869 N 0.65213 0.53214 0.17865 0.0
C1870 C 0.63771 0.5466 0.18394 0.0
C1871 C 0.64471 0.56319 0.19692 0.0
C1872 C 0.57711 0.69862 0.85339 0.0
C1873 C 0.58359 0.71463 0.86675 0.0
C1874 C 0.56451 0.68241 0.86049 0.0
C1875 C 0.55762 0.68163 0.88121 0.0
H1876 H 0.58177 0.69858 0.83724 0.0
H1877 H 0.55983 0.6706 0.84948 0.0
S1878 S 0.57047 0.71955 0.92266 0.0
N1879 N 0.58247 0.7285 0.90187 0.0
N1880 N 0.55861 0.69811 0.91518 0.0
C1881 C 0.56412 0.69743 0.89483 0.0
C1882 C 0.57717 0.71387 0.88763 0.0
C1883 C 0.54727 0.32539 0.13435 0.0
C1884 C 0.54653 0.3319 0.1135 0.0
C1885 C 0.56343 0.31271 0.14166 0.0
C1886 C 0.57965 0.30631 0.12848 0.0
H1887 H 0.53508 0.32982 0.14506 0.0
H1888 H 0.56321 0.30793 0.15778 0.0
S1889 S 0.58529 0.31963 0.07263 0.0
N1890 N 0.56367 0.33129 0.07986 0.0
N1891 N 0.59401 0.3077 0.09355 0.0
C1892 C 0.57923 0.31299 0.10766 0.0
C1893 C 0.56269 0.32569 0.10019 0.0
C1894 C 0.94748 0.32703 0.3618 0.0
C1895 C 0.9544 0.32782 0.38251 0.0
C1896 C 0.93474 0.31093 0.35474 0.0
C1897 C 0.92809 0.29503 0.36813 0.0
H1898 H 0.95219 0.3388 0.35075 0.0
H1899 H 0.93004 0.31102 0.3386 0.0
S1900 S 0.94134 0.29003 0.424 0.0
N1901 N 0.95339 0.31136 0.41648 0.0
N1902 N 0.92918 0.28116 0.40325 0.0
C1903 C 0.93459 0.29573 0.38899 0.0
C1904 C 0.94782 0.31207 0.39615 0.0
C1905 C 0.94925 0.68457 0.6043 0.0
C1906 C 0.96532 0.67811 0.61757 0.0
C1907 C 0.93314 0.69726 0.61142 0.0
C1908 C 0.9325 0.70429 0.63209 0.0
H1909 H 0.94904 0.6798 0.58817 0.0
H1910 H 0.92125 0.70183 0.60044 0.0
S1911 S 0.97073 0.69163 0.67331 0.0
N1912 N 0.9795 0.67942 0.65254 0.0
N1913 N 0.94925 0.70353 0.66593 0.0
C1914 C 0.9484 0.69786 0.64564 0.0
C1915 C 0.96476 0.68468 0.6384 0.0
C1916 C 0.56407 0.32891 0.64856 0.0
C1917 C 0.55709 0.3296 0.62787 0.0
C1918 C 0.57655 0.31264 0.65572 0.0
C1919 C 0.58285 0.29645 0.64248 0.0
H1920 H 0.55955 0.34083 0.65951 0.0
H1921 H 0.58125 0.31276 0.67187 0.0
S1922 S 0.56951 0.29125 0.58668 0.0
N1923 N 0.55783 0.31285 0.59403 0.0
N1924 N 0.58153 0.28234 0.60749 0.0
C1925 C 0.57639 0.29713 0.62162 0.0
C1926 C 0.56343 0.31364 0.61434 0.0
C1927 C 0.94983 0.32507 0.90548 0.0
C1928 C 0.96579 0.33169 0.89215 0.0
C1929 C 0.93367 0.31246 0.89835 0.0
C1930 C 0.93286 0.30567 0.87761 0.0
H1931 H 0.94975 0.32967 0.92165 0.0
H1932 H 0.92188 0.30776 0.90938 0.0
S1933 S 0.97074 0.3188 0.83621 0.0
N1934 N 0.97967 0.33077 0.85704 0.0
N1935 N 0.94934 0.30682 0.84364 0.0
C1936 C 0.94864 0.31226 0.864 0.0
C1937 C 0.96506 0.32535 0.87125 0.0
C1938 C 0.94723 0.68309 0.1483 0.0
C1939 C 0.95391 0.68245 0.12752 0.0
C1940 C 0.9347 0.69923 0.15564 0.0
C1941 C 0.92805 0.71533 0.14247 0.0
H1942 H 0.952 0.6712 0.1592 0.0
H1943 H 0.9302 0.69905 0.17184 0.0
S1944 S 0.94058 0.72067 0.08649 0.0
N1945 N 0.95257 0.69919 0.09368 0.0
N1946 N 0.92876 0.72947 0.10747 0.0
C1947 C 0.93424 0.71473 0.12153 0.0
C1948 C 0.94726 0.69835 0.11407 0.0
C1949 C 0.5465 0.68616 0.37502 0.0
C1950 C 0.54646 0.67875 0.39556 0.0
C1951 C 0.56267 0.69881 0.36764 0.0
C1952 C 0.57957 0.70422 0.38042 0.0
H1953 H 0.53371 0.68258 0.36471 0.0
H1954 H 0.56187 0.70442 0.35181 0.0
S1955 S 0.58738 0.68766 0.43514 0.0
N1956 N 0.56512 0.67703 0.42832 0.0
N1957 N 0.59547 0.7005 0.41452 0.0
C1958 C 0.57992 0.69642 0.40085 0.0
C1959 C 0.56338 0.68378 0.4084 0.0
C1960 C 0.85339 0.57564 0.69837 0.0
C1961 C 0.8669 0.58207 0.71427 0.0
C1962 C 0.86032 0.56307 0.68207 0.0
C1963 C 0.88101 0.55612 0.68107 0.0
H1964 H 0.83726 0.58038 0.69845 0.0
H1965 H 0.8492 0.5585 0.67032 0.0
S1966 S 0.92278 0.56865 0.71873 0.0
N1967 N 0.90211 0.58073 0.72789 0.0
N1968 N 0.91509 0.55688 0.69731 0.0
C1969 C 0.89476 0.56248 0.69681 0.0
C1970 C 0.88774 0.57552 0.71335 0.0
C1971 C 0.69793 0.64235 0.94616 0.0
C1972 C 0.70381 0.62931 0.92963 0.0
C1973 C 0.68526 0.63507 0.96235 0.0
C1974 C 0.67828 0.61438 0.9628 0.0
H1975 H 0.70316 0.65832 0.94664 0.0
H1976 H 0.68131 0.64562 0.97484 0.0
S1977 S 0.68881 0.574 0.92302 0.0
N1978 N 0.70121 0.59474 0.91457 0.0
N1979 N 0.67766 0.58112 0.94494 0.0
C1980 C 0.68385 0.60125 0.94625 0.0
C1981 C 0.69653 0.60869 0.92969 0.0
C1982 C 0.62414 0.43508 0.21296 0.0
C1983 C 0.64478 0.42799 0.21394 0.0
C1984 C 0.61737 0.44791 0.19666 0.0
C1985 C 0.63091 0.45388 0.18057 0.0
H1986 H 0.61321 0.43104 0.22508 0.0
H1987 H 0.6014 0.45318 0.1967 0.0
S1988 S 0.68635 0.43871 0.17546 0.0
N1989 N 0.67855 0.42741 0.19707 0.0
N1990 N 0.66591 0.45128 0.16652 0.0
C1991 C 0.65151 0.44654 0.1812 0.0
C1992 C 0.65841 0.43368 0.19785 0.0
C1993 C 0.81255 0.39822 0.43158 0.0
C1994 C 0.80547 0.37756 0.43132 0.0
C1995 C 0.82526 0.40559 0.44756 0.0
C1996 C 0.83169 0.39259 0.46389 0.0
H1997 H 0.80796 0.40899 0.41952 0.0
H1998 H 0.83005 0.4217 0.44709 0.0
S1999 S 0.8181 0.33696 0.47025 0.0
N2000 N 0.80622 0.344 0.44866 0.0
N2001 N 0.83033 0.35786 0.47864 0.0
C2002 C 0.8251 0.37176 0.46367 0.0
C2003 C 0.81192 0.36427 0.44744 0.0
C2004 C 0.85379 0.43476 0.81117 0.0
C2005 C 0.86703 0.42834 0.79505 0.0
C2006 C 0.86101 0.44716 0.82744 0.0
C2007 C 0.88175 0.45393 0.82821 0.0
H2008 H 0.83761 0.43017 0.81128 0.0
H2009 H 0.85005 0.45174 0.83935 0.0
S2010 S 0.92295 0.44122 0.78998 0.0
N2011 N 0.90207 0.42939 0.78101 0.0
N2012 N 0.91564 0.45296 0.81157 0.0
C2013 C 0.89528 0.44753 0.81228 0.0
C2014 C 0.88794 0.43465 0.79575 0.0
C2015 C 0.81284 0.64152 0.06417 0.0
C2016 C 0.80693 0.62843 0.08065 0.0
C2017 C 0.82561 0.63431 0.04802 0.0
C2018 C 0.8327 0.61366 0.0476 0.0
H2019 H 0.80752 0.65746 0.06366 0.0
H2020 H 0.82955 0.64488 0.03556 0.0
S2021 S 0.82227 0.57321 0.08733 0.0
N2022 N 0.8097 0.59387 0.09573 0.0
N2023 N 0.83347 0.5804 0.06547 0.0
C2024 C 0.82715 0.6005 0.06413 0.0
C2025 C 0.81434 0.60785 0.08062 0.0
C2026 C 0.65628 0.57628 0.31102 0.0
C2027 C 0.64274 0.58283 0.29519 0.0
C2028 C 0.64938 0.56361 0.32724 0.0
C2029 C 0.62869 0.5567 0.32825 0.0
H2030 H 0.67242 0.58098 0.31094 0.0
H2031 H 0.66054 0.55896 0.33892 0.0
S2032 S 0.58683 0.56959 0.29079 0.0
N2033 N 0.6075 0.58168 0.28166 0.0
N2034 N 0.59456 0.55765 0.31211 0.0
C2035 C 0.61489 0.56321 0.3126 0.0
C2036 C 0.6219 0.57634 0.29612 0.0
C2037 C 0.68363 0.40609 0.56179 0.0
C2038 C 0.67689 0.39272 0.54589 0.0
C2039 C 0.6962 0.39894 0.57797 0.0
C2040 C 0.70285 0.37816 0.57886 0.0
H2041 H 0.67922 0.42231 0.56176 0.0
H2042 H 0.70107 0.40999 0.58967 0.0
S2043 S 0.68915 0.33661 0.54138 0.0
N2044 N 0.67738 0.35749 0.5323 0.0
N2045 N 0.70129 0.34408 0.56268 0.0
C2046 C 0.69607 0.3645 0.56321 0.0
C2047 C 0.683 0.37176 0.54678 0.0
C2048 C 0.69861 0.85407 0.5746 0.0
C2049 C 0.71486 0.86707 0.58116 0.0
C2050 C 0.6824 0.86162 0.56226 0.0
C2051 C 0.68187 0.88245 0.55569 0.0
H2052 H 0.69834 0.83785 0.57903 0.0
H2053 H 0.67037 0.85087 0.55755 0.0
S2054 S 0.72059 0.92305 0.5688 0.0
N2055 N 0.7293 0.90194 0.58044 0.0
N2056 N 0.69892 0.91611 0.557 0.0
C2057 C 0.69796 0.8957 0.56224 0.0
C2058 C 0.71439 0.88804 0.57505 0.0
C2059 C 0.19893 0.65638 0.43447 0.0
C2060 C 0.21499 0.6431 0.42794 0.0
C2061 C 0.18279 0.64924 0.44709 0.0
C2062 C 0.18206 0.62852 0.45398 0.0
H2063 H 0.19877 0.67253 0.42979 0.0
H2064 H 0.17093 0.66022 0.45172 0.0
S2065 S 0.22019 0.58724 0.44113 0.0
N2066 N 0.22904 0.60806 0.42909 0.0
N2067 N 0.19872 0.59463 0.45303 0.0
C2068 C 0.19794 0.61496 0.44749 0.0
C2069 C 0.21435 0.62223 0.43441 0.0
C2070 C 0.64264 0.94696 0.69701 0.0
C2071 C 0.62911 0.93096 0.70326 0.0
C2072 C 0.63579 0.96323 0.68419 0.0
C2073 C 0.61506 0.96428 0.67737 0.0
H2074 H 0.65867 0.94697 0.70207 0.0
H2075 H 0.64671 0.97528 0.67997 0.0
S2076 S 0.57349 0.92601 0.68878 0.0
N2077 N 0.59404 0.91704 0.70113 0.0
N2078 N 0.58122 0.94754 0.67728 0.0
C2079 C 0.60144 0.94826 0.68329 0.0
C2080 C 0.60844 0.93163 0.69615 0.0
C2081 C 0.31434 0.39388 0.94621 0.0
C2082 C 0.32895 0.38037 0.9552 0.0
C2083 C 0.2982 0.38629 0.93365 0.0
C2084 C 0.29587 0.36486 0.9299 0.0
H2085 H 0.31551 0.41047 0.94871 0.0
H2086 H 0.28738 0.3973 0.927 0.0
S2087 S 0.32959 0.32292 0.95079 0.0
N2088 N 0.33975 0.34453 0.96 0.0
N2089 N 0.30952 0.33024 0.93669 0.0
C2090 C 0.31031 0.3512 0.93905 0.0
C2091 C 0.32681 0.35895 0.95161 0.0
C2092 C 0.40602 0.5626 0.68379 0.0
C2093 C 0.39281 0.54638 0.67756 0.0
C2094 C 0.39877 0.57895 0.69614 0.0
C2095 C 0.37805 0.57965 0.70303 0.0
H2096 H 0.42217 0.56271 0.67912 0.0
H2097 H 0.40967 0.59093 0.70063 0.0
S2098 S 0.33696 0.54116 0.6908 0.0
N2099 N 0.35783 0.53221 0.67892 0.0
N2100 N 0.34425 0.56285 0.70233 0.0
C2101 C 0.36458 0.56363 0.69678 0.0
C2102 C 0.37193 0.54705 0.68399 0.0
C2103 C 0.81058 0.15729 0.07484 0.0
C2104 C 0.79474 0.14387 0.08158 0.0
C2105 C 0.82675 0.15021 0.06218 0.0
C2106 C 0.82768 0.12944 0.05546 0.0
H2107 H 0.81057 0.17347 0.07941 0.0
H2108 H 0.83847 0.16127 0.0574 0.0
S2109 S 0.7901 0.08786 0.06882 0.0
N2110 N 0.78108 0.10867 0.08075 0.0
N2111 N 0.81141 0.09539 0.05675 0.0
C2112 C 0.81199 0.11577 0.06212 0.0
C2113 C 0.79557 0.12296 0.07524 0.0
C2114 C 0.63603 0.04769 0.82534 0.0
C2115 C 0.61535 0.04664 0.8323 0.0
C2116 C 0.64278 0.06397 0.81248 0.0
C2117 C 0.62918 0.07995 0.80634 0.0
H2118 H 0.647 0.03564 0.82949 0.0
H2119 H 0.65878 0.06398 0.80731 0.0
S2120 S 0.57363 0.08486 0.82119 0.0
N2121 N 0.58149 0.06335 0.83264 0.0
N2122 N 0.59409 0.09384 0.8087 0.0
C2123 C 0.60855 0.07925 0.81358 0.0
C2124 C 0.60167 0.06264 0.82648 0.0
C2125 C 0.90686 0.94891 0.32511 0.0
C2126 C 0.8936 0.96499 0.33162 0.0
C2127 C 0.89968 0.93279 0.31249 0.0
C2128 C 0.87897 0.93214 0.30559 0.0
H2129 H 0.92301 0.94872 0.3298 0.0
H2130 H 0.91063 0.9209 0.30786 0.0
S2131 S 0.83778 0.97035 0.31842 0.0
N2132 N 0.85861 0.97914 0.33048 0.0
N2133 N 0.84512 0.94886 0.30651 0.0
C2134 C 0.86545 0.94804 0.31206 0.0
C2135 C 0.87274 0.96442 0.32516 0.0
C2136 C 0.44777 0.32789 0.14902 0.0
C2137 C 0.45438 0.32868 0.12822 0.0
C2138 C 0.43522 0.31174 0.15628 0.0
C2139 C 0.42849 0.29576 0.143 0.0
H2140 H 0.4526 0.33968 0.15999 0.0
H2141 H 0.43077 0.31181 0.17249 0.0
S2142 S 0.44083 0.29083 0.08693 0.0
N2143 N 0.45288 0.31222 0.09425 0.0
N2144 N 0.42907 0.2819 0.10788 0.0
C2145 C 0.43463 0.2965 0.12205 0.0
C2146 C 0.44764 0.31291 0.11467 0.0
C2147 C 0.43391 0.69911 0.89962 0.0
C2148 C 0.433 0.70562 0.87878 0.0
C2149 C 0.4501 0.68655 0.90685 0.0
C2150 C 0.46597 0.67973 0.89351 0.0
H2151 H 0.42215 0.70396 0.91062 0.0
H2152 H 0.45008 0.68212 0.92307 0.0
S2153 S 0.47071 0.69201 0.83739 0.0
N2154 N 0.44934 0.70409 0.84477 0.0
N2155 N 0.47971 0.68028 0.85832 0.0
C2156 C 0.46517 0.68588 0.87254 0.0
C2157 C 0.44874 0.69889 0.86521 0.0
C2158 C 0.06189 0.69653 0.61836 0.0
C2159 C 0.05636 0.67984 0.63135 0.0
C2160 C 0.07429 0.7129 0.62565 0.0
C2161 C 0.08135 0.71339 0.64632 0.0
H2162 H 0.05659 0.69699 0.60241 0.0
H2163 H 0.07802 0.72546 0.61512 0.0
S2164 S 0.07175 0.67328 0.68657 0.0
N2165 N 0.0594 0.66468 0.66585 0.0
N2166 N 0.08244 0.69545 0.67951 0.0
C2167 C 0.07611 0.69673 0.65941 0.0
C2168 C 0.06371 0.67997 0.65195 0.0
C2169 C 0.0633 0.31276 0.36729 0.0
C2170 C 0.08004 0.30709 0.38016 0.0
C2171 C 0.0472 0.32554 0.37462 0.0
C2172 C 0.04709 0.33287 0.3952 0.0
H2173 H 0.06255 0.30725 0.35142 0.0
H2174 H 0.03454 0.32929 0.36422 0.0
S2175 S 0.08755 0.32311 0.43508 0.0
N2176 N 0.09567 0.31034 0.41443 0.0
N2177 N 0.0655 0.3341 0.42813 0.0
C2178 C 0.06386 0.32755 0.40814 0.0
C2179 C 0.0803 0.31474 0.40065 0.0
C2180 C 0.43482 0.71326 0.38681 0.0
C2181 C 0.42761 0.71365 0.3662 0.0
C2182 C 0.44782 0.69724 0.39391 0.0
C2183 C 0.45383 0.68084 0.38074 0.0
H2184 H 0.43081 0.72566 0.39743 0.0
H2185 H 0.45322 0.69776 0.40982 0.0
S2186 S 0.43818 0.67412 0.32561 0.0
N2187 N 0.42682 0.69587 0.33291 0.0
N2188 N 0.45098 0.66581 0.34617 0.0
C2189 C 0.44629 0.68085 0.36021 0.0
C2190 C 0.43326 0.69723 0.35297 0.0
C2191 C 0.04681 0.68578 0.13464 0.0
C2192 C 0.04662 0.67834 0.1141 0.0
C2193 C 0.06309 0.69834 0.14193 0.0
C2194 C 0.07995 0.70364 0.12905 0.0
H2195 H 0.03407 0.68228 0.14503 0.0
H2196 H 0.06241 0.70396 0.15776 0.0
S2197 S 0.08733 0.68707 0.07426 0.0
N2198 N 0.06507 0.67654 0.08123 0.0
N2199 N 0.09561 0.69986 0.09484 0.0
C2200 C 0.08013 0.69585 0.10861 0.0
C2201 C 0.06349 0.68329 0.10116 0.0
C2202 C 0.07687 0.29803 0.88514 0.0
C2203 C 0.08274 0.29667 0.86413 0.0
C2204 C 0.06418 0.31427 0.89229 0.0
C2205 C 0.05717 0.32994 0.87878 0.0
H2206 H 0.08179 0.28626 0.8961 0.0
H2207 H 0.05988 0.31454 0.90855 0.0
S2208 S 0.06854 0.33382 0.82237 0.0
N2209 N 0.08078 0.31265 0.82996 0.0
N2210 N 0.05719 0.3431 0.84337 0.0
C2211 C 0.06319 0.32892 0.8578 0.0
C2212 C 0.0759 0.31231 0.85049 0.0
C2213 C 0.44897 0.32549 0.60369 0.0
C2214 C 0.46502 0.33212 0.61691 0.0
C2215 C 0.43284 0.3129 0.61095 0.0
C2216 C 0.43217 0.30615 0.63172 0.0
H2217 H 0.44879 0.33007 0.58751 0.0
H2218 H 0.42097 0.30817 0.60003 0.0
S2219 S 0.47031 0.31934 0.67285 0.0
N2220 N 0.47912 0.33125 0.65194 0.0
N2221 N 0.44886 0.30736 0.66558 0.0
C2222 C 0.44805 0.31276 0.6452 0.0
C2223 C 0.46442 0.32581 0.63782 0.0
C2224 C 0.14836 0.44731 0.32736 0.0
C2225 C 0.12763 0.4542 0.32794 0.0
C2226 C 0.1556 0.43461 0.31128 0.0
C2227 C 0.14238 0.42802 0.29521 0.0
H2228 H 0.15926 0.45203 0.33925 0.0
H2229 H 0.17175 0.42995 0.3115 0.0
S2230 S 0.08653 0.44115 0.28973 0.0
N2231 N 0.09382 0.45314 0.31116 0.0
N2232 N 0.10739 0.42908 0.28102 0.0
C2233 C 0.1215 0.43447 0.29574 0.0
C2234 C 0.11416 0.44762 0.31205 0.0
C2235 C 0.32597 0.4074 0.0622 0.0
C2236 C 0.33166 0.39455 0.04551 0.0
C2237 C 0.31336 0.40006 0.0783 0.0
C2238 C 0.30565 0.37961 0.07828 0.0
H2239 H 0.33131 0.42332 0.0629 0.0
H2240 H 0.30939 0.41069 0.0907 0.0
S2241 S 0.31598 0.33964 0.03803 0.0
N2242 N 0.32877 0.3603 0.02991 0.0
N2243 N 0.30485 0.34651 0.06007 0.0
C2244 C 0.31131 0.36651 0.0617 0.0
C2245 C 0.32439 0.37396 0.04538 0.0
C2246 C 0.36084 0.56277 0.8268 0.0
C2247 C 0.38161 0.55604 0.82748 0.0
C2248 C 0.35356 0.57537 0.81069 0.0
C2249 C 0.36677 0.58202 0.79463 0.0
H2250 H 0.34992 0.55807 0.83868 0.0
H2251 H 0.33739 0.57995 0.81089 0.0
S2252 S 0.4227 0.56919 0.78928 0.0
N2253 N 0.41545 0.55721 0.81075 0.0
N2254 N 0.40178 0.58111 0.78049 0.0
C2255 C 0.38768 0.57568 0.79521 0.0
C2256 C 0.39508 0.56262 0.81158 0.0
C2257 C 0.1978 0.64161 0.56289 0.0
C2258 C 0.20397 0.62831 0.5791 0.0
C2259 C 0.18491 0.63457 0.54677 0.0
C2260 C 0.17794 0.61387 0.54609 0.0
H2261 H 0.20292 0.65762 0.56263 0.0
H2262 H 0.1807 0.64533 0.53456 0.0
S2263 S 0.18927 0.57282 0.58495 0.0
N2264 N 0.20174 0.59345 0.59356 0.0
N2265 N 0.17775 0.58028 0.56334 0.0
C2266 C 0.18386 0.60046 0.56228 0.0
C2267 C 0.19679 0.60765 0.57875 0.0
C2268 C 0.15597 0.57701 0.1982 0.0
C2269 C 0.14271 0.58337 0.21435 0.0
C2270 C 0.14881 0.56451 0.18196 0.0
C2271 C 0.12812 0.55758 0.18125 0.0
H2272 H 0.17212 0.58167 0.19809 0.0
H2273 H 0.15978 0.55994 0.17006 0.0
S2274 S 0.08689 0.57017 0.21951 0.0
N2275 N 0.10771 0.58216 0.22842 0.0
N2276 N 0.09424 0.55844 0.19795 0.0
C2277 C 0.11457 0.564 0.19717 0.0
C2278 C 0.12185 0.57696 0.21366 0.0
C2279 C 0.18322 0.4059 0.94853 0.0
C2280 C 0.1776 0.39296 0.96519 0.0
C2281 C 0.19583 0.39867 0.93239 0.0
C2282 C 0.20363 0.37825 0.93231 0.0
H2283 H 0.17782 0.42181 0.94792 0.0
H2284 H 0.19976 0.40937 0.92003 0.0
S2285 S 0.19349 0.33805 0.97238 0.0
N2286 N 0.18063 0.35864 0.98061 0.0
N2287 N 0.20457 0.34506 0.95036 0.0
C2288 C 0.19803 0.36506 0.94883 0.0
C2289 C 0.18495 0.37239 0.96521 0.0
C2290 C 0.36025 0.44771 0.68324 0.0
C2291 C 0.38098 0.45452 0.68228 0.0
C2292 C 0.35322 0.43521 0.69956 0.0
C2293 C 0.36666 0.42874 0.7155 0.0
H2294 H 0.34918 0.45231 0.67145 0.0
H2295 H 0.33706 0.43056 0.69963 0.0
S2296 S 0.42257 0.44186 0.7201 0.0
N2297 N 0.41501 0.45362 0.69862 0.0
N2298 N 0.40182 0.42991 0.72922 0.0
C2299 C 0.38753 0.43515 0.71462 0.0
C2300 C 0.39466 0.44812 0.69807 0.0
C2301 C 0.32673 0.60483 0.44848 0.0
C2302 C 0.33275 0.61805 0.46478 0.0
C2303 C 0.31429 0.61194 0.43219 0.0
C2304 C 0.30704 0.63253 0.43156 0.0
H2305 H 0.33165 0.58875 0.44828 0.0
H2306 H 0.31001 0.60099 0.42017 0.0
S2307 S 0.31863 0.67363 0.47026 0.0
N2308 N 0.33087 0.65292 0.47912 0.0
N2309 N 0.3072 0.66628 0.44853 0.0
C2310 C 0.31308 0.64605 0.44765 0.0
C2311 C 0.32602 0.63883 0.4642 0.0
C2312 C 0.31277 0.11786 0.44789 0.0
C2313 C 0.32908 0.1312 0.45372 0.0
C2314 C 0.29648 0.12483 0.43515 0.0
C2315 C 0.29571 0.14548 0.42804 0.0
H2316 H 0.31257 0.10191 0.45318 0.0
H2317 H 0.2842 0.11406 0.43118 0.0
S2318 S 0.33476 0.18655 0.43846 0.0
N2319 N 0.34353 0.16602 0.45099 0.0
N2320 N 0.31298 0.17902 0.42731 0.0
C2321 C 0.31199 0.15891 0.43362 0.0
C2322 C 0.32865 0.15179 0.44637 0.0
C2323 C 0.82753 0.36169 0.56321 0.0
C2324 C 0.82791 0.38225 0.55586 0.0
C2325 C 0.81141 0.3545 0.57585 0.0
C2326 C 0.79505 0.36761 0.58195 0.0
H2327 H 0.83963 0.35083 0.5589 0.0
H2328 H 0.81182 0.33846 0.58088 0.0
S2329 S 0.78889 0.42305 0.56748 0.0
N2330 N 0.81059 0.41582 0.55591 0.0
N2331 N 0.78034 0.40234 0.57992 0.0
C2332 C 0.79535 0.38834 0.57504 0.0
C2333 C 0.81172 0.39564 0.56192 0.0
C2334 C 0.37528 0.04829 0.32573 0.0
C2335 C 0.39612 0.04718 0.33222 0.0
C2336 C 0.36832 0.0644 0.31277 0.0
C2337 C 0.38186 0.08017 0.30605 0.0
H2338 H 0.36431 0.03645 0.3304 0.0
H2339 H 0.35218 0.06451 0.30806 0.0
S2340 S 0.43789 0.08467 0.31903 0.0
N2341 N 0.43017 0.06349 0.33115 0.0
N2342 N 0.41714 0.09366 0.30701 0.0
C2343 C 0.40269 0.07936 0.31266 0.0
C2344 C 0.4098 0.06291 0.32566 0.0
C2345 C 0.68339 0.6488 0.06199 0.0
C2346 C 0.68257 0.628 0.05537 0.0
C2347 C 0.69956 0.65602 0.07458 0.0
C2348 C 0.71548 0.64271 0.08135 0.0
H2349 H 0.67161 0.65978 0.05716 0.0
H2350 H 0.69951 0.67223 0.07906 0.0
S2351 S 0.7204 0.58666 0.06888 0.0
N2352 N 0.69903 0.59403 0.05681 0.0
N2353 N 0.72932 0.60758 0.0807 0.0
C2354 C 0.71473 0.62177 0.07515 0.0
C2355 C 0.69834 0.61444 0.06209 0.0
C2356 C 0.63463 0.46373 0.32511 0.0
C2357 C 0.61406 0.46447 0.33243 0.0
C2358 C 0.64143 0.44759 0.31211 0.0
C2359 C 0.62799 0.43141 0.30615 0.0
H2360 H 0.64549 0.47591 0.32913 0.0
H2361 H 0.65735 0.44781 0.3067 0.0
S2362 S 0.57275 0.42569 0.32187 0.0
N2363 N 0.58046 0.44728 0.33323 0.0
N2364 N 0.59314 0.41703 0.30902 0.0
C2365 C 0.60745 0.43182 0.31369 0.0
C2366 C 0.60052 0.4483 0.32675 0.0
C2367 C 0.18321 0.86059 0.94725 0.0
C2368 C 0.18222 0.88131 0.9541 0.0
C2369 C 0.19952 0.85359 0.93477 0.0
C2370 C 0.21546 0.86704 0.92833 0.0
H2371 H 0.17145 0.84949 0.95184 0.0
H2372 H 0.19958 0.83743 0.93012 0.0
S2373 S 0.21994 0.92296 0.9414 0.0
N2374 N 0.19849 0.91538 0.95319 0.0
N2375 N 0.22911 0.90222 0.92945 0.0
C2376 C 0.21454 0.88791 0.93471 0.0
C2377 C 0.19797 0.89503 0.94768 0.0
C2378 C 0.40041 0.93232 0.19783 0.0
C2379 C 0.37953 0.93125 0.20416 0.0
C2380 C 0.40762 0.94866 0.18546 0.0
C2381 C 0.39422 0.9645 0.17865 0.0
H2382 H 0.41144 0.92063 0.20277 0.0
H2383 H 0.42388 0.94882 0.1812 0.0
S2384 S 0.33793 0.96865 0.19029 0.0
N2385 N 0.34538 0.94729 0.20232 0.0
N2386 N 0.3589 0.97791 0.17887 0.0
C2387 C 0.3732 0.96347 0.18453 0.0
C2388 C 0.36588 0.9469 0.19735 0.0
C2389 C 0.11116 0.07673 0.6985 0.0
C2390 C 0.13202 0.07755 0.70492 0.0
C2391 C 0.10386 0.06063 0.68589 0.0
C2392 C 0.11713 0.04476 0.67891 0.0
H2393 H 0.1002 0.08845 0.70351 0.0
H2394 H 0.08761 0.06069 0.68158 0.0
S2395 S 0.17332 0.03992 0.69073 0.0
N2396 N 0.16602 0.0612 0.70302 0.0
N2397 N 0.1523 0.03101 0.67909 0.0
C2398 C 0.13813 0.04552 0.68488 0.0
C2399 C 0.14556 0.06186 0.69796 0.0
C2400 C 0.05346 0.13082 0.47515 0.0
C2401 C 0.0535 0.12335 0.45461 0.0
C2402 C 0.06993 0.12674 0.48869 0.0
C2403 C 0.08707 0.11478 0.48241 0.0
H2404 H 0.04091 0.14053 0.48073 0.0
H2405 H 0.06937 0.13338 0.50413 0.0
S2406 S 0.09425 0.09023 0.4308 0.0
N2407 N 0.07178 0.10243 0.42899 0.0
N2408 N 0.10269 0.09459 0.45461 0.0
C2409 C 0.08697 0.1064 0.46225 0.0
C2410 C 0.07022 0.11074 0.44831 0.0
C2411 C 0.13247 0.8202 0.73903 0.0
C2412 C 0.14477 0.83709 0.73275 0.0
C2413 C 0.12828 0.80367 0.72558 0.0
C2414 C 0.136 0.80338 0.70513 0.0
H2415 H 0.12564 0.81988 0.75439 0.0
H2416 H 0.11831 0.79133 0.73114 0.0
S2417 S 0.17005 0.84338 0.68137 0.0
N2418 N 0.16554 0.85211 0.70504 0.0
N2419 N 0.15751 0.8211 0.67961 0.0
C2420 C 0.14894 0.81986 0.69884 0.0
C2421 C 0.15338 0.83666 0.71268 0.0
C2422 C 0.44024 0.88287 0.98831 0.0
C2423 C 0.4235 0.89555 0.98231 0.0
C2424 C 0.45665 0.87862 0.97473 0.0
C2425 C 0.45698 0.88668 0.95442 0.0
H2426 H 0.4405 0.87577 1.00355 0.0
H2427 H 0.46885 0.86836 0.98007 0.0
S2428 S 0.41747 0.92184 0.9314 0.0
N2429 N 0.40875 0.91705 0.95502 0.0
N2430 N 0.43954 0.90895 0.92935 0.0
C2431 C 0.4407 0.90002 0.94842 0.0
C2432 C 0.42401 0.9045 0.96239 0.0
C2433 C 0.3634 0.1911 0.1998 0.0
C2434 C 0.37459 0.20868 0.20645 0.0
C2435 C 0.35901 0.17465 0.21344 0.0
C2436 C 0.36585 0.17509 0.23417 0.0
H2437 H 0.35848 0.1897 0.18379 0.0
H2438 H 0.35103 0.16112 0.20745 0.0
S2439 S 0.39349 0.21842 0.26011 0.0
N2440 N 0.39068 0.2262 0.23587 0.0
N2441 N 0.38266 0.19525 0.26122 0.0
C2442 C 0.37615 0.19295 0.24128 0.0
C2443 C 0.38045 0.20975 0.22751 0.0
C2444 C 0.06844 0.89713 0.0591 0.0
C2445 C 0.05225 0.88362 0.05337 0.0
C2446 C 0.08502 0.90128 0.04556 0.0
C2447 C 0.0862 0.89185 0.02587 0.0
H2448 H 0.06849 0.90434 0.07429 0.0
H2449 H 0.09734 0.91142 0.05084 0.0
S2450 S 0.0473 0.85608 1.00289 0.0
N2451 N 0.03809 0.86152 0.02615 0.0
N2452 N 0.06919 0.8692 1.00093 0.0
C2453 C 0.06983 0.87877 0.01974 0.0
C2454 C 0.05289 0.87469 0.0334 0.0
C2455 C 0.38337 0.80441 0.28641 0.0
C2456 C 0.3749 0.804 0.30656 0.0
C2457 C 0.3792 0.82074 0.2727 0.0
C2458 C 0.36618 0.83731 0.27842 0.0
H2459 H 0.39383 0.79229 0.28127 0.0
H2460 H 0.38654 0.8205 0.25758 0.0
S2461 S 0.33896 0.84316 0.32889 0.0
N2462 N 0.35206 0.82125 0.33121 0.0
N2463 N 0.34407 0.8519 0.30535 0.0
C2464 C 0.35694 0.83677 0.29822 0.0
C2465 C 0.36135 0.82017 0.31231 0.0
C2466 C 0.42388 0.10946 0.54652 0.0
C2467 C 0.42412 0.11652 0.52585 0.0
C2468 C 0.44028 0.11403 0.56018 0.0
C2469 C 0.45761 0.12565 0.55363 0.0
H2470 H 0.41057 0.10109 0.55244 0.0
H2471 H 0.43906 0.10887 0.57613 0.0
S2472 S 0.46674 0.14553 0.50019 0.0
N2473 N 0.44384 0.13417 0.49899 0.0
N2474 N 0.47463 0.14257 0.52437 0.0
C2475 C 0.45845 0.13184 0.53264 0.0
C2476 C 0.44172 0.12733 0.51885 0.0
C2477 C 0.13242 0.18873 0.7721 0.0
C2478 C 0.14538 0.17225 0.77817 0.0
C2479 C 0.12821 0.20531 0.78549 0.0
C2480 C 0.13656 0.20603 0.80568 0.0
H2481 H 0.12515 0.18871 0.75694 0.0
H2482 H 0.11777 0.21734 0.7801 0.0
S2483 S 0.17234 0.16721 0.82884 0.0
N2484 N 0.16734 0.15808 0.80542 0.0
N2485 N 0.15927 0.18917 0.83074 0.0
C2486 C 0.15008 0.18995 0.81177 0.0
C2487 C 0.15454 0.17311 0.79799 0.0
C2488 C 0.48891 0.07043 0.12869 0.0
C2489 C 0.48296 0.08688 0.11562 0.0
C2490 C 0.47549 0.05384 0.13279 0.0
C2491 C 0.45541 0.05308 0.12421 0.0
H2492 H 0.50398 0.0705 0.13614 0.0
H2493 H 0.48074 0.04186 0.14336 0.0
S2494 S 0.43262 0.09172 0.08799 0.0
N2495 N 0.45594 0.1009 0.09326 0.0
N2496 N 0.43062 0.06981 0.10112 0.0
C2497 C 0.44946 0.0691 0.11056 0.0
C2498 C 0.46326 0.08594 0.10622 0.0
C2499 C 0.20606 0.22471 0.38026 0.0
C2500 C 0.20593 0.2041 0.37297 0.0
C2501 C 0.18978 0.23839 0.37585 0.0
C2502 C 0.17269 0.23219 0.36377 0.0
H2503 H 0.21857 0.23027 0.39002 0.0
H2504 H 0.19044 0.25388 0.38234 0.0
S2505 S 0.16532 0.18041 0.33961 0.0
N2506 N 0.18763 0.17848 0.35208 0.0
N2507 N 0.15705 0.20433 0.34367 0.0
C2508 C 0.1727 0.21193 0.3556 0.0
C2509 C 0.18928 0.19786 0.36024 0.0
C2510 C 0.04635 0.92433 0.60821 0.0
C2511 C 0.02559 0.92475 0.61497 0.0
C2512 C 0.06005 0.94063 0.61293 0.0
C2513 C 0.05346 0.95806 0.62441 0.0
H2514 H 0.05231 0.91092 0.6 0.0
H2515 H 0.07607 0.93924 0.60803 0.0
S2516 S 0.99979 0.96775 0.64333 0.0
N2517 N 0.99859 0.94479 0.63207 0.0
N2518 N 0.02408 0.97543 0.64074 0.0
C2519 C 0.03239 0.95912 0.63023 0.0
C2520 C 0.01854 0.94247 0.62557 0.0
C2521 C 0.33645 0.79689 0.85821 0.0
C2522 C 0.33662 0.77642 0.86581 0.0
C2523 C 0.31996 0.81043 0.8627 0.0
C2524 C 0.3029 0.80395 0.87476 0.0
H2525 H 0.34954 0.80277 0.84946 0.0
H2526 H 0.32088 0.82626 0.8571 0.0
S2527 S 0.29483 0.75094 0.89614 0.0
N2528 N 0.31758 0.74975 0.88446 0.0
N2529 N 0.28654 0.77493 0.8927 0.0
C2530 C 0.30243 0.78312 0.88149 0.0
C2531 C 0.3193 0.76945 0.87709 0.0
C2532 C 0.48774 0.9397 0.38271 0.0
C2533 C 0.48163 0.92301 0.39537 0.0
C2534 C 0.47429 0.95625 0.37858 0.0
C2535 C 0.45401 0.95675 0.38671 0.0
H2536 H 0.50299 0.93987 0.37563 0.0
H2537 H 0.47973 0.96845 0.36838 0.0
S2538 S 0.43066 0.91727 0.42161 0.0
N2539 N 0.4542 0.90836 0.41678 0.0
N2540 N 0.42878 0.93941 0.40883 0.0
C2541 C 0.44785 0.94043 0.3999 0.0
C2542 C 0.46169 0.92362 0.40429 0.0
C2543 C 0.304 0.22604 0.62835 0.0
C2544 C 0.30341 0.20573 0.63642 0.0
C2545 C 0.32065 0.23936 0.63247 0.0
C2546 C 0.33734 0.23308 0.64505 0.0
H2547 H 0.2918 0.23158 0.61819 0.0
H2548 H 0.32057 0.25462 0.62542 0.0
S2549 S 0.34284 0.18201 0.67115 0.0
N2550 N 0.32065 0.18033 0.65845 0.0
N2551 N 0.35188 0.2055 0.66635 0.0
C2552 C 0.33662 0.21313 0.65394 0.0
C2553 C 0.31971 0.19943 0.64957 0.0
C2554 C 0.03612 0.05426 0.87998 0.0
C2555 C 0.05671 0.05435 0.88731 0.0
C2556 C 0.02247 0.07058 0.88432 0.0
C2557 C 0.02868 0.08768 0.89638 0.0
H2558 H 0.03054 0.04174 0.87024 0.0
H2559 H 0.00699 0.06995 0.87779 0.0
S2560 S 0.08044 0.09501 0.92058 0.0
N2561 N 0.08234 0.07265 0.90819 0.0
N2562 N 0.05654 0.10331 0.91648 0.0
C2563 C 0.04893 0.08764 0.90459 0.0
C2564 C 0.06297 0.07102 0.90001 0.0
C2565 C 0.19028 0.81071 0.1467 0.0
C2566 C 0.20815 0.80371 0.13618 0.0
C2567 C 0.17371 0.79721 0.15109 0.0
C2568 C 0.17431 0.77628 0.14491 0.0
H2569 H 0.18878 0.82687 0.15107 0.0
H2570 H 0.15999 0.80344 0.15855 0.0
S2571 S 0.21833 0.74947 0.11922 0.0
N2572 N 0.22604 0.77377 0.12148 0.0
N2573 N 0.19488 0.74871 0.12947 0.0
C2574 C 0.19242 0.76885 0.13529 0.0
C2575 C 0.20933 0.78247 0.131 0.0
C2576 C 0.13316 0.47521 0.05431 0.0
C2577 C 0.12422 0.45528 0.05361 0.0
C2578 C 0.12902 0.4889 0.07068 0.0
C2579 C 0.11558 0.48338 0.08698 0.0
H2580 H 0.14398 0.48015 0.04242 0.0
H2581 H 0.13673 0.50384 0.0707 0.0
S2582 S 0.08699 0.43358 0.09189 0.0
N2583 N 0.10044 0.4311 0.07022 0.0
N2584 N 0.09253 0.45691 0.10092 0.0
C2585 C 0.10587 0.46382 0.08611 0.0
C2586 C 0.11023 0.44976 0.06948 0.0
C2587 C 0.60937 0.04666 0.9238 0.0
C2588 C 0.61678 0.02612 0.92397 0.0
C2589 C 0.61368 0.0603 0.94026 0.0
C2590 C 0.62535 0.05384 0.9576 0.0
H2591 H 0.60096 0.05251 0.91047 0.0
H2592 H 0.60828 0.07618 0.93907 0.0
S2593 S 0.64596 1.00067 0.9666 0.0
N2594 N 0.63473 0.99941 0.94362 0.0
N2595 N 0.64261 0.02476 0.97459 0.0
C2596 C 0.63184 0.03295 0.9584 0.0
C2597 C 0.62762 0.01918 0.94157 0.0
C2598 C 0.22436 0.38312 0.20593 0.0
C2599 C 0.2043 0.37447 0.2065 0.0
C2600 C 0.23798 0.37904 0.18948 0.0
C2601 C 0.23226 0.36592 0.17299 0.0
H2602 H 0.22944 0.3937 0.21796 0.0
H2603 H 0.25302 0.38654 0.18955 0.0
S2604 S 0.18205 0.33817 0.16764 0.0
N2605 N 0.17977 0.3513 0.18952 0.0
N2606 N 0.20546 0.34349 0.1587 0.0
C2607 C 0.21257 0.35648 0.17372 0.0
C2608 C 0.19858 0.3608 0.19042 0.0
C2609 C 0.87801 0.97476 0.45621 0.0
C2610 C 0.88594 0.95439 0.45645 0.0
C2611 C 0.88233 0.9884 0.43986 0.0
C2612 C 0.89497 0.98239 0.42311 0.0
H2613 H 0.86783 0.98013 0.46847 0.0
H2614 H 0.87539 1.00371 0.44023 0.0
S2615 S 0.92077 0.93123 0.41678 0.0
N2616 N 0.9079 0.92919 0.43885 0.0
N2617 N 0.91617 0.95493 0.40817 0.0
C2618 C 0.90369 0.96235 0.42348 0.0
C2619 C 0.89913 0.94833 0.44009 0.0
C2620 C 0.78493 0.12694 0.20651 0.0
C2621 C 0.80491 0.13575 0.20725 0.0
C2622 C 0.7714 0.13094 0.18997 0.0
C2623 C 0.77714 0.14413 0.17354 0.0
H2624 H 0.77983 0.11631 0.2185 0.0
H2625 H 0.75641 0.12334 0.18994 0.0
S2626 S 0.82718 0.17227 0.1686 0.0
N2627 N 0.8294 0.15912 0.19048 0.0
N2628 N 0.80388 0.16678 0.15948 0.0
C2629 C 0.79676 0.15371 0.17443 0.0
C2630 C 0.81066 0.14948 0.19122 0.0
C2631 C 0.39662 0.5601 0.56973 0.0
C2632 C 0.38448 0.5539 0.55262 0.0
C2633 C 0.401 0.54636 0.58608 0.0
C2634 C 0.39323 0.52596 0.58608 0.0
H2635 H 0.4024 0.57585 0.57078 0.0
H2636 H 0.40986 0.55205 0.59919 0.0
S2637 S 0.36244 0.50123 0.54416 0.0
N2638 N 0.36614 0.52525 0.53608 0.0
N2639 N 0.3742 0.49969 0.56686 0.0
C2640 C 0.38181 0.51928 0.56873 0.0
C2641 C 0.3775 0.53316 0.55201 0.0
C2642 C 0.21426 0.65136 0.33584 0.0
C2643 C 0.23461 0.64344 0.33595 0.0
C2644 C 0.20055 0.647 0.31946 0.0
C2645 C 0.20673 0.63474 0.30244 0.0
H2646 H 0.20859 0.66038 0.34885 0.0
H2647 H 0.18485 0.65294 0.32041 0.0
S2648 S 0.25922 0.61213 0.29433 0.0
N2649 N 0.26079 0.62403 0.31694 0.0
N2650 N 0.23527 0.61599 0.28614 0.0
C2651 C 0.2274 0.62753 0.30196 0.0
C2652 C 0.24125 0.63183 0.31871 0.0
C2653 C 0.27216 0.3792 0.82181 0.0
C2654 C 0.27799 0.366 0.83819 0.0
C2655 C 0.28569 0.38343 0.80534 0.0
C2656 C 0.30577 0.37483 0.80461 0.0
H2657 H 0.25707 0.38664 0.82182 0.0
H2658 H 0.28049 0.39404 0.79338 0.0
S2659 S 0.32834 0.33839 0.84318 0.0
N2660 N 0.30494 0.34358 0.85225 0.0
N2661 N 0.33047 0.35166 0.82136 0.0
C2662 C 0.31163 0.3611 0.8206 0.0
C2663 C 0.29772 0.35664 0.83733 0.0
C2664 C 0.92386 0.90147 0.54586 0.0
C2665 C 0.92363 0.8935 0.52553 0.0
C2666 C 0.94036 0.89721 0.55946 0.0
C2667 C 0.9574 0.885 0.55317 0.0
H2668 H 0.91081 0.91039 0.5516 0.0
H2669 H 0.93948 0.90313 0.57516 0.0
S2670 S 0.96528 0.86247 0.50062 0.0
N2671 N 0.94257 0.87422 0.49922 0.0
N2672 N 0.97363 0.86639 0.52451 0.0
C2673 C 0.95779 0.87783 0.53249 0.0
C2674 C 0.94091 0.88201 0.51877 0.0
C2675 C 0.88296 0.20613 0.28604 0.0
C2676 C 0.87427 0.20668 0.30609 0.0
C2677 C 0.87877 0.1898 0.27233 0.0
C2678 C 0.86551 0.17338 0.27793 0.0
H2679 H 0.89365 0.2181 0.28103 0.0
H2680 H 0.88631 0.1899 0.2573 0.0
S2681 S 0.83754 0.16806 0.32805 0.0
N2682 N 0.85087 0.1898 0.33047 0.0
N2683 N 0.84287 0.15918 0.30461 0.0
C2684 C 0.85602 0.17411 0.29761 0.0
C2685 C 0.86044 0.1907 0.3117 0.0
C2686 C 0.55307 0.13157 0.03439 0.0
C2687 C 0.55271 0.12356 0.05471 0.0
C2688 C 0.56952 0.12732 0.02085 0.0
C2689 C 0.58626 0.11468 0.02694 0.0
H2690 H 0.54087 0.14183 0.02901 0.0
H2691 H 0.56929 0.13438 0.0056 0.0
S2692 S 0.59214 0.08844 0.0779 0.0
N2693 N 0.57007 0.10132 0.07986 0.0
N2694 N 0.60094 0.09321 0.05431 0.0
C2695 C 0.5857 0.10576 0.04687 0.0
C2696 C 0.56897 0.11024 0.06078 0.0
C2697 C 0.62842 0.80406 0.78525 0.0
C2698 C 0.63685 0.80377 0.80541 0.0
C2699 C 0.63227 0.82053 0.77161 0.0
C2700 C 0.64493 0.83733 0.77741 0.0
H2701 H 0.61818 0.79177 0.78009 0.0
H2702 H 0.62494 0.82021 0.75648 0.0
S2703 S 0.67198 0.84356 0.82789 0.0
N2704 N 0.65934 0.82139 0.83014 0.0
N2705 N 0.66672 0.85227 0.80437 0.0
C2706 C 0.65418 0.83691 0.79719 0.0
C2707 C 0.65009 0.82018 0.81122 0.0
C2708 C 0.92385 0.10965 0.9634 0.0
C2709 C 0.92372 0.11711 0.98392 0.0
C2710 C 0.94039 0.1141 0.94989 0.0
C2711 C 0.95754 0.12596 0.95647 0.0
H2712 H 0.91069 0.10103 0.95746 0.0
H2713 H 0.93945 0.1086 0.93403 0.0
S2714 S 0.96571 0.14696 0.00964 0.0
N2715 N 0.94286 0.13545 0.01072 0.0
N2716 N 0.97399 0.14359 0.98564 0.0
C2717 C 0.95802 0.13258 0.97734 0.0
C2718 C 0.94111 0.12823 0.99097 0.0
C2719 C 0.65115 0.17481 0.71367 0.0
C2720 C 0.64369 0.17496 0.73419 0.0
C2721 C 0.64677 0.19122 0.69999 0.0
C2722 C 0.63498 0.20852 0.70639 0.0
H2723 H 0.65967 0.16152 0.70787 0.0
H2724 H 0.65225 0.19006 0.68414 0.0
S2725 S 0.61412 0.21743 0.75947 0.0
N2726 N 0.6255 0.19453 0.7608 0.0
N2727 N 0.61749 0.22542 0.73537 0.0
C2728 C 0.62841 0.20929 0.72725 0.0
C2729 C 0.6327 0.19251 0.74106 0.0
C2730 C 0.55352 0.88009 0.47595 0.0
C2731 C 0.55336 0.88727 0.45529 0.0
C2732 C 0.57009 0.88442 0.4893 0.0
C2733 C 0.58714 0.89633 0.48271 0.0
H2734 H 0.54103 0.87047 0.48177 0.0
H2735 H 0.56967 0.87805 0.50486 0.0
S2736 S 0.5939 0.91997 0.4306 0.0
N2737 N 0.57143 0.90774 0.42918 0.0
N2738 N 0.60251 0.91602 0.45441 0.0
C2739 C 0.58687 0.90434 0.46239 0.0
C2740 C 0.57003 0.89977 0.44866 0.0
C2741 C 0.85844 0.83582 0.21394 0.0
C2742 C 0.86645 0.83615 0.23425 0.0
C2743 C 0.86278 0.8193 0.20039 0.0
C2744 C 0.8751 0.80237 0.20671 0.0
H2745 H 0.84946 0.84881 0.20816 0.0
H2746 H 0.85684 0.82012 0.18469 0.0
S2747 S 0.89771 0.79471 0.25926 0.0
N2748 N 0.88583 0.81736 0.26061 0.0
N2749 N 0.89381 0.78629 0.2354 0.0
C2750 C 0.88228 0.80205 0.22738 0.0
C2751 C 0.87801 0.81894 0.24107 0.0
C2752 C 0.5365 0.95653 0.87864 0.0
C2753 C 0.557 0.95636 0.88622 0.0
C2754 C 0.52275 0.94028 0.88284 0.0
C2755 C 0.52878 0.92321 0.89502 0.0
H2756 H 0.53109 0.96904 0.86879 0.0
H2757 H 0.50735 0.94096 0.87614 0.0
S2758 S 0.58018 0.91574 0.91993 0.0
N2759 N 0.58231 0.93804 0.90748 0.0
N2760 N 0.55632 0.90751 0.91554 0.0
C2761 C 0.54891 0.92317 0.90349 0.0
C2762 C 0.56306 0.93971 0.89904 0.0
C2763 C 0.83553 0.79571 0.65122 0.0
C2764 C 0.83602 0.77535 0.64333 0.0
C2765 C 0.81906 0.80922 0.64657 0.0
C2766 C 0.80231 0.80283 0.63403 0.0
H2767 H 0.84835 0.80155 0.66039 0.0
H2768 H 0.81974 0.82494 0.65247 0.0
S2769 S 0.79514 0.75019 0.61149 0.0
N2770 N 0.81759 0.74891 0.62373 0.0
N2771 N 0.78662 0.77406 0.61515 0.0
C2772 C 0.80217 0.78214 0.62691 0.0
C2773 C 0.81902 0.76848 0.6315 0.0
C2774 C 0.95047 0.06914 0.39741 0.0
C2775 C 0.95691 0.05214 0.38525 0.0
C2776 C 0.96397 0.08571 0.40175 0.0
C2777 C 0.98433 0.08601 0.39387 0.0
H2778 H 0.93472 0.06996 0.40324 0.0
H2779 H 0.95812 0.09873 0.41063 0.0
S2780 S 0.00963 0.04449 0.36301 0.0
N2781 N 0.98576 0.03604 0.3668 0.0
N2782 N 0.01084 0.06721 0.37476 0.0
C2783 C 0.99125 0.06877 0.38244 0.0
C2784 C 0.97763 0.05183 0.37819 0.0
C2785 C 0.69042 0.23919 0.13356 0.0
C2786 C 0.67344 0.2331 0.14585 0.0
C2787 C 0.70683 0.22557 0.12941 0.0
C2788 C 0.70691 0.20515 0.13719 0.0
H2789 H 0.69089 0.25453 0.12668 0.0
H2790 H 0.71923 0.23098 0.11942 0.0
S2791 S 0.66673 0.18188 0.17136 0.0
N2792 N 0.65819 0.20559 0.16673 0.0
N2793 N 0.68899 0.17988 0.15883 0.0
C2794 C 0.69039 0.19906 0.15017 0.0
C2795 C 0.6737 0.21306 0.15454 0.0
C2796 C 0.53613 0.05465 0.63066 0.0
C2797 C 0.55674 0.05486 0.62338 0.0
C2798 C 0.5224 0.07088 0.62626 0.0
C2799 C 0.52854 0.08799 0.61418 0.0
H2800 H 0.53062 0.04212 0.64042 0.0
H2801 H 0.5069 0.07017 0.63275 0.0
S2802 S 0.5803 0.09559 0.59007 0.0
N2803 N 0.5823 0.07328 0.60252 0.0
N2804 N 0.55634 0.10376 0.59411 0.0
C2805 C 0.5488 0.08807 0.60602 0.0
C2806 C 0.56293 0.07155 0.61066 0.0
C2807 C 0.68996 0.77198 0.37567 0.0
C2808 C 0.67295 0.77812 0.36344 0.0
C2809 C 0.70637 0.78558 0.37986 0.0
C2810 C 0.70643 0.80604 0.37218 0.0
H2811 H 0.69046 0.75661 0.38247 0.0
H2812 H 0.71879 0.78012 0.38979 0.0
S2813 S 0.66616 0.82948 0.33822 0.0
N2814 N 0.65765 0.80574 0.34273 0.0
N2815 N 0.68844 0.83142 0.35072 0.0
C2816 C 0.68987 0.81219 0.35928 0.0
C2817 C 0.67318 0.79822 0.35486 0.0
C2818 C 0.96418 0.92493 0.10786 0.0
C2819 C 0.98463 0.92449 0.11551 0.0
C2820 C 0.9508 0.94155 0.11237 0.0
C2821 C 0.95742 0.95851 0.12451 0.0
H2822 H 0.95818 0.91196 0.09902 0.0
H2823 H 0.93499 0.94083 0.1067 0.0
S2824 S 0.01038 0.96584 0.14625 0.0
N2825 N 0.01139 0.94315 0.13442 0.0
N2826 N 0.98651 0.97441 0.14272 0.0
C2827 C 0.97821 0.95869 0.13136 0.0
C2828 C 0.99172 0.94168 0.12692 0.0
C2829 C 0.83652 0.21364 0.85873 0.0
C2830 C 0.83673 0.23425 0.86596 0.0
C2831 C 0.81995 0.20024 0.8634 0.0
C2832 C 0.80286 0.20701 0.87528 0.0
H2833 H 0.84962 0.20756 0.85012 0.0
H2834 H 0.82083 0.18432 0.85809 0.0
S2835 S 0.79493 0.26043 0.89569 0.0
N2836 N 0.81773 0.26131 0.88407 0.0
N2837 N 0.78657 0.23643 0.89264 0.0
C2838 C 0.80247 0.22795 0.88166 0.0
C2839 C 0.8194 0.24147 0.87707 0.0
C2840 C 0.89691 0.55923 0.94107 0.0
C2841 C 0.88498 0.55263 0.95816 0.0
C2842 C 0.90133 0.54577 0.92448 0.0
C2843 C 0.89375 0.5253 0.92425 0.0
H2844 H 0.90252 0.57505 0.94022 0.0
H2845 H 0.91004 0.55173 0.91139 0.0
S2846 S 0.86347 0.49963 0.96597 0.0
N2847 N 0.867 0.52355 0.97439 0.0
N2848 N 0.87511 0.49855 0.9432 0.0
C2849 C 0.88252 0.51824 0.94157 0.0
C2850 C 0.8782 0.53181 0.95852 0.0
C2851 C 0.37747 0.97488 0.05436 0.0
C2852 C 0.38582 0.95468 0.05381 0.0
C2853 C 0.38169 0.98843 0.0708 0.0
C2854 C 0.39465 0.98252 0.08734 0.0
H2855 H 0.36704 0.98016 0.04228 0.0
H2856 H 0.37443 1.0036 0.07067 0.0
S2857 S 0.42159 0.93186 0.09284 0.0
N2858 N 0.40851 0.92977 0.0709 0.0
N2859 N 0.4166 0.95536 0.10175 0.0
C2860 C 0.40379 0.96267 0.08666 0.0
C2861 C 0.39933 0.94873 0.06995 0.0
C2862 C 0.77211 0.63328 0.81957 0.0
C2863 C 0.77821 0.64559 0.83654 0.0
C2864 C 0.78573 0.62908 0.80317 0.0
C2865 C 0.80617 0.63681 0.80308 0.0
H2866 H 0.75676 0.62646 0.81909 0.0
H2867 H 0.78031 0.6191 0.79077 0.0
S2868 S 0.82951 0.67094 0.84326 0.0
N2869 N 0.80578 0.66639 0.85179 0.0
N2870 N 0.83148 0.65837 0.82102 0.0
C2871 C 0.81229 0.64975 0.81962 0.0
C2872 C 0.79829 0.65419 0.8363 0.0
C2873 C 0.13183 0.03565 0.5542 0.0
C2874 C 0.12416 0.05612 0.55414 0.0
C2875 C 0.12742 0.02196 0.57046 0.0
C2876 C 0.11495 0.028 0.58733 0.0
H2877 H 0.14188 0.03022 0.54186 0.0
H2878 H 0.13419 0.00657 0.56994 0.0
S2879 S 0.08975 0.07938 0.59413 0.0
N2880 N 0.10254 0.08144 0.57201 0.0
N2881 N 0.09411 0.05557 0.60255 0.0
C2882 C 0.10643 0.04812 0.58713 0.0
C2883 C 0.11108 0.06221 0.57058 0.0
C2884 C 0.23856 0.87736 0.81999 0.0
C2885 C 0.23254 0.86502 0.83696 0.0
C2886 C 0.22482 0.88171 0.80375 0.0
C2887 C 0.20433 0.87412 0.80381 0.0
H2888 H 0.25396 0.88407 0.81938 0.0
H2889 H 0.23023 0.89167 0.79133 0.0
S2890 S 0.18112 0.84007 0.84412 0.0
N2891 N 0.20497 0.84439 0.85242 0.0
N2892 N 0.17902 0.85271 0.82193 0.0
C2893 C 0.19827 0.86116 0.82036 0.0
C2894 C 0.2124 0.85657 0.83689 0.0
C2895 C 0.60912 0.46461 0.42447 0.0
C2896 C 0.61742 0.4848 0.42416 0.0
C2897 C 0.6134 0.45091 0.44088 0.0
C2898 C 0.62593 0.45697 0.45775 0.0
H2899 H 0.5999 0.45905 0.41156 0.0
H2900 H 0.60718 0.43532 0.44009 0.0
S2901 S 0.64951 0.5091 0.46535 0.0
N2902 N 0.63744 0.51074 0.44282 0.0
N2903 N 0.64531 0.48527 0.47372 0.0
C2904 C 0.63349 0.47751 0.45805 0.0
C2905 C 0.62929 0.49134 0.44125 0.0
C2906 C 0.79592 0.35902 0.67423 0.0
C2907 C 0.77548 0.36671 0.67417 0.0
C2908 C 0.80954 0.36336 0.69069 0.0
C2909 C 0.80319 0.37537 0.70783 0.0
H2910 H 0.80171 0.35024 0.66111 0.0
H2911 H 0.82533 0.35765 0.68969 0.0
S2912 S 0.75039 0.39719 0.71613 0.0
N2913 N 0.74902 0.38554 0.69337 0.0
N2914 N 0.77437 0.39353 0.72432 0.0
C2915 C 0.78242 0.38228 0.70838 0.0
C2916 C 0.76865 0.37801 0.69155 0.0
C2917 C 0.73804 0.63298 0.19039 0.0
C2918 C 0.73213 0.64526 0.17334 0.0
C2919 C 0.72432 0.62908 0.20678 0.0
C2920 C 0.70399 0.63709 0.20673 0.0
H2921 H 0.7533 0.62596 0.19096 0.0
H2922 H 0.72958 0.61911 0.21925 0.0
S2923 S 0.6812 0.67127 0.16627 0.0
N2924 N 0.7049 0.66635 0.15785 0.0
N2925 N 0.679 0.65887 0.18859 0.0
C2926 C 0.69808 0.65001 0.19011 0.0
C2927 C 0.71218 0.65416 0.17345 0.0
C2928 C 0.55461 0.63265 0.975 0.0
C2929 C 0.55379 0.62413 0.95489 0.0
C2930 C 0.57114 0.62834 0.98844 0.0
C2931 C 0.58747 0.61513 0.98248 0.0
H2932 H 0.54272 0.64332 0.98026 0.0
H2933 H 0.57126 0.63576 1.00352 0.0
S2934 S 0.59209 0.58756 0.93208 0.0
N2935 N 0.57031 0.60091 0.93008 0.0
N2936 N 0.6013 0.59269 0.95543 0.0
C2937 C 0.58646 0.60578 0.96276 0.0
C2938 C 0.56968 0.61032 0.94894 0.0
C2939 C 0.64633 0.31998 0.20003 0.0
C2940 C 0.63424 0.30285 0.20629 0.0
C2941 C 0.65072 0.33636 0.21376 0.0
C2942 C 0.64299 0.33633 0.23418 0.0
H2943 H 0.65203 0.32104 0.18425 0.0
H2944 H 0.65948 0.34952 0.20805 0.0
S2945 S 0.61251 0.2943 0.25909 0.0
N2946 N 0.61612 0.28624 0.23505 0.0
N2947 N 0.62418 0.31703 0.26055 0.0
C2948 C 0.63169 0.31893 0.24092 0.0
C2949 C 0.62737 0.3022 0.22707 0.0
C2950 C 0.94056 0.39705 0.45001 0.0
C2951 C 0.9577 0.38518 0.45661 0.0
C2952 C 0.92399 0.4015 0.46348 0.0
C2953 C 0.92381 0.39404 0.48401 0.0
H2954 H 0.93967 0.4026 0.43416 0.0
H2955 H 0.91088 0.41018 0.45751 0.0
S2956 S 0.96563 0.36385 0.50968 0.0
N2957 N 0.97398 0.36731 0.48572 0.0
N2958 N 0.94285 0.37549 0.51077 0.0
C2959 C 0.94116 0.38284 0.49106 0.0
C2960 C 0.95809 0.37847 0.47745 0.0
C2961 C 0.85951 0.67417 0.71349 0.0
C2962 C 0.86711 0.67421 0.73396 0.0
C2963 C 0.8637 0.69069 0.69988 0.0
C2964 C 0.87541 0.708 0.70633 0.0
H2965 H 0.85096 0.66092 0.70766 0.0
H2966 H 0.85809 0.68964 0.68407 0.0
S2967 S 0.89685 0.71651 0.75925 0.0
N2968 N 0.88553 0.69359 0.76053 0.0
N2969 N 0.89319 0.72469 0.73526 0.0
C2970 C 0.88221 0.70861 0.72714 0.0
C2971 C 0.87813 0.69171 0.74086 0.0
C2972 C 0.56919 0.3981 0.56026 0.0
C2973 C 0.55148 0.38717 0.55348 0.0
C2974 C 0.5856 0.40263 0.54663 0.0
C2975 C 0.58499 0.39623 0.52577 0.0
H2976 H 0.57073 0.40264 0.57637 0.0
H2977 H 0.59923 0.41035 0.55272 0.0
S2978 S 0.54126 0.36955 0.49949 0.0
N2979 N 0.53365 0.37189 0.52383 0.0
N2980 N 0.56452 0.3802 0.49847 0.0
C2981 C 0.567 0.38626 0.51853 0.0
C2982 C 0.55024 0.3818 0.53231 0.0
C2983 C 0.87792 0.32023 0.77076 0.0
C2984 C 0.86536 0.337 0.77692 0.0
C2985 C 0.88216 0.30373 0.78426 0.0
C2986 C 0.87423 0.30336 0.80463 0.0
H2987 H 0.88485 0.31996 0.75545 0.0
H2988 H 0.89228 0.29147 0.7788 0.0
S2989 S 0.83962 0.34303 0.82813 0.0
N2990 N 0.84425 0.35181 0.80451 0.0
N2991 N 0.85237 0.32088 0.82998 0.0
C2992 C 0.86113 0.31974 0.81083 0.0
C2993 C 0.85665 0.3365 0.79696 0.0
C2994 C 0.92406 0.60808 0.04657 0.0
C2995 C 0.92392 0.615 0.02586 0.0
C2996 C 0.94058 0.61294 0.05995 0.0
C2997 C 0.95768 0.62471 0.05307 0.0
H2998 H 0.91094 0.59958 0.05274 0.0
H2999 H 0.93964 0.60787 0.07595 0.0
S3000 S 0.9658 0.64436 0.99939 0.0
N3001 N 0.94301 0.63271 0.99859 0.0
N3002 N 0.97408 0.64165 0.02347 0.0
C3003 C 0.95816 0.63077 0.03203 0.0
C3004 C 0.94128 0.62598 0.01852 0.0
C3005 C 0.65016 0.67508 0.29538 0.0
C3006 C 0.64222 0.6749 0.27504 0.0
C3007 C 0.64583 0.69153 0.30901 0.0
C3008 C 0.63359 0.70854 0.30275 0.0
H3009 H 0.65911 0.66205 0.3011 0.0
H3010 H 0.65174 0.69061 0.32472 0.0
S3011 S 0.61118 0.71656 0.25016 0.0
N3012 N 0.62297 0.69387 0.24873 0.0
N3013 N 0.61501 0.72483 0.27409 0.0
C3014 C 0.62645 0.70899 0.28206 0.0
C3015 C 0.63071 0.69216 0.26829 0.0
C3016 C 0.97474 0.55301 0.63086 0.0
C3017 C 0.95439 0.55298 0.62288 0.0
C3018 C 0.98846 0.56936 0.62681 0.0
C3019 C 0.98255 0.58634 0.61441 0.0
H3020 H 0.98 0.54059 0.6409 0.0
H3021 H 1.00373 0.56883 0.63381 0.0
S3022 S 0.93155 0.59323 0.58847 0.0
N3023 N 0.92938 0.571 0.60102 0.0
N3024 N 0.95526 0.60167 0.59329 0.0
C3025 C 0.96256 0.58616 0.60558 0.0
C3026 C 0.94847 0.56954 0.60986 0.0
C3027 C 0.67537 0.71458 0.85885 0.0
C3028 C 0.67528 0.73491 0.86683 0.0
C3029 C 0.69171 0.70082 0.86321 0.0
C3030 C 0.70871 0.70692 0.87553 0.0
H3031 H 0.66234 0.70896 0.84984 0.0
H3032 H 0.69072 0.68512 0.85726 0.0
S3033 S 0.71695 0.75939 0.89815 0.0
N3034 N 0.69433 0.76102 0.88625 0.0
N3035 N 0.72509 0.73542 0.89427 0.0
C3036 C 0.70925 0.72759 0.88273 0.0
C3037 C 0.69253 0.74149 0.87844 0.0
C3038 C 0.53577 0.45592 0.13259 0.0
C3039 C 0.55579 0.45663 0.12385 0.0
C3040 C 0.52221 0.43947 0.12844 0.0
C3041 C 0.52795 0.42311 0.11517 0.0
H3042 H 0.53067 0.46785 0.14329 0.0
H3043 H 0.5072 0.43943 0.13601 0.0
S3044 S 0.57804 0.41818 0.0871 0.0
N3045 N 0.58029 0.43996 0.10041 0.0
N3046 N 0.55469 0.4091 0.09247 0.0
C3047 C 0.54758 0.42399 0.10562 0.0
C3048 C 0.56152 0.4407 0.11001 0.0
C3049 C 0.81903 0.30997 0.36358 0.0
C3050 C 0.80126 0.30297 0.37426 0.0
C3051 C 0.8357 0.29655 0.35931 0.0
C3052 C 0.83529 0.2757 0.36576 0.0
H3053 H 0.8204 0.32609 0.35903 0.0
H3054 H 0.84935 0.30279 0.35174 0.0
S3055 S 0.79156 0.24885 0.39186 0.0
N3056 N 0.78364 0.27308 0.38935 0.0
N3057 N 0.81499 0.24816 0.38157 0.0
C3058 C 0.81727 0.26824 0.3755 0.0
C3059 C 0.80025 0.28178 0.37967 0.0
C3060 C 0.97555 0.45672 0.87823 0.0
C3061 C 0.95527 0.45695 0.88636 0.0
C3062 C 0.98917 0.44028 0.88229 0.0
C3063 C 0.98321 0.42343 0.89483 0.0
H3064 H 0.98084 0.46903 0.86807 0.0
H3065 H 1.0044 0.44064 0.87517 0.0
S3066 S 0.93238 0.41716 0.92123 0.0
N3067 N 0.93028 0.43932 0.90854 0.0
N3068 N 0.95598 0.40848 0.91628 0.0
C3069 C 0.9633 0.42383 0.90382 0.0
C3070 C 0.94931 0.44055 0.89953 0.0
C3071 C 0.8034 0.72494 0.12853 0.0
C3072 C 0.80323 0.70459 0.13649 0.0
C3073 C 0.81968 0.73864 0.13288 0.0
C3074 C 0.83644 0.73271 0.14556 0.0
H3075 H 0.79117 0.73022 0.11827 0.0
H3076 H 0.81928 0.75391 0.12587 0.0
S3077 S 0.84282 0.68173 0.17165 0.0
N3078 N 0.82081 0.67957 0.1587 0.0
N3079 N 0.85136 0.70543 0.16698 0.0
C3080 C 0.83608 0.71274 0.15441 0.0
C3081 C 0.81952 0.69866 0.14984 0.0
C3082 C 0.52205 0.57069 0.38503 0.0
C3083 C 0.52842 0.58789 0.39685 0.0
C3084 C 0.53563 0.5543 0.38073 0.0
C3085 C 0.5563 0.55446 0.38784 0.0
H3086 H 0.5065 0.57002 0.37867 0.0
H3087 H 0.52996 0.5417 0.37115 0.0
S3088 S 0.58042 0.59541 0.42046 0.0
N3089 N 0.55649 0.6037 0.41651 0.0
N3090 N 0.58217 0.57293 0.40826 0.0
C3091 C 0.56271 0.57125 0.4003 0.0
C3092 C 0.54874 0.58792 0.40486 0.0
C3093 C 0.67432 0.29691 0.65189 0.0
C3094 C 0.67467 0.27621 0.64498 0.0
C3095 C 0.69075 0.31053 0.64744 0.0
C3096 C 0.70825 0.3039 0.63609 0.0
H3097 H 0.66088 0.3029 0.66003 0.0
H3098 H 0.68942 0.32652 0.65245 0.0
S3099 S 0.71773 0.25034 0.61677 0.0
N3100 N 0.69466 0.24921 0.62783 0.0
N3101 N 0.72556 0.27455 0.61965 0.0
C3102 C 0.70923 0.28287 0.6301 0.0
C3103 C 0.69243 0.26911 0.63448 0.0
C3104 C 0.61366 0.95129 0.5691 0.0
C3105 C 0.62537 0.9579 0.55184 0.0
C3106 C 0.60926 0.96479 0.58566 0.0
C3107 C 0.61663 0.98533 0.58568 0.0
H3108 H 0.60827 0.9354 0.57013 0.0
H3109 H 0.60081 0.95882 0.59891 0.0
S3110 S 0.64596 0.01115 0.54338 0.0
N3111 N 0.64268 0.98712 0.53516 0.0
N3112 N 0.63463 0.01221 0.56632 0.0
C3113 C 0.62752 0.99243 0.56817 0.0
C3114 C 0.63183 0.9788 0.55124 0.0
C3115 C 0.13098 0.53517 0.4556 0.0
C3116 C 0.12322 0.55561 0.45594 0.0
C3117 C 0.12671 0.52172 0.43909 0.0
C3118 C 0.11428 0.52798 0.42227 0.0
H3119 H 0.141 0.52961 0.4679 0.0
H3120 H 0.13353 0.50635 0.43938 0.0
S3121 S 0.08901 0.5794 0.4161 0.0
N3122 N 0.10166 0.58115 0.43832 0.0
N3123 N 0.09348 0.55574 0.40735 0.0
C3124 C 0.10572 0.54808 0.42273 0.0
C3125 C 0.11024 0.56192 0.43951 0.0
C3126 C 0.72476 0.88019 0.70582 0.0
C3127 C 0.7041 0.87308 0.70564 0.0
C3128 C 0.73843 0.87566 0.68957 0.0
C3129 C 0.73215 0.86364 0.67248 0.0
H3130 H 0.73038 0.88992 0.71833 0.0
H3131 H 0.75397 0.88204 0.69026 0.0
S3132 S 0.68021 0.83987 0.66503 0.0
N3133 N 0.67835 0.85237 0.68733 0.0
N3134 N 0.70417 0.84373 0.6568 0.0
C3135 C 0.71184 0.85561 0.67246 0.0
C3136 C 0.69778 0.86037 0.689 0.0
C3137 C 0.40149 0.46471 0.92415 0.0
C3138 C 0.39396 0.4852 0.92388 0.0
C3139 C 0.39686 0.45123 0.94065 0.0
C3140 C 0.3847 0.45779 0.95762 0.0
H3141 H 0.41032 0.45876 0.91113 0.0
H3142 H 0.40244 0.43539 0.93981 0.0
S3143 S 0.36336 0.51086 0.96539 0.0
N3144 N 0.37522 0.51196 0.94272 0.0
N3145 N 0.3667 0.48689 0.97376 0.0
C3146 C 0.378 0.47863 0.95797 0.0
C3147 C 0.38256 0.49224 0.9411 0.0
C3148 C 0.30973 0.6478 0.69041 0.0
C3149 C 0.30312 0.63651 0.70796 0.0
C3150 C 0.29611 0.6521 0.67392 0.0
C3151 C 0.27545 0.64506 0.67425 0.0
H3152 H 0.3257 0.65286 0.68909 0.0
H3153 H 0.30208 0.66017 0.66042 0.0
S3154 S 0.24961 0.61707 0.71743 0.0
N3155 N 0.27378 0.6201 0.72531 0.0
N3156 N 0.24849 0.62795 0.69427 0.0
C3157 C 0.26837 0.63466 0.69207 0.0
C3158 C 0.28211 0.63046 0.70892 0.0
C3159 C 0.87866 0.03583 0.05364 0.0
C3160 C 0.88644 0.05625 0.05336 0.0
C3161 C 0.88303 0.02227 0.07005 0.0
C3162 C 0.89559 0.02841 0.08682 0.0
H3163 H 0.86855 0.03036 0.04138 0.0
H3164 H 0.8762 0.00692 0.06972 0.0
S3165 S 0.92099 0.07976 0.09307 0.0
N3166 N 0.90817 0.08165 0.07095 0.0
N3167 N 0.91654 0.05605 0.10173 0.0
C3168 C 0.90417 0.04851 0.08641 0.0
C3169 C 0.89954 0.06244 0.06973 0.0
C3170 C 0.73792 0.13501 0.8205 0.0
C3171 C 0.7317 0.14705 0.8376 0.0
C3172 C 0.72427 0.13067 0.80418 0.0
C3173 C 0.70367 0.13799 0.80431 0.0
H3174 H 0.7534 0.12849 0.81985 0.0
H3175 H 0.72984 0.12093 0.79166 0.0
S3176 S 0.67994 0.17126 0.84498 0.0
N3177 N 0.70384 0.16715 0.85327 0.0
N3178 N 0.67804 0.15886 0.82263 0.0
C3179 C 0.69741 0.15068 0.82099 0.0
C3180 C 0.71145 0.15527 0.83759 0.0
C3181 C 0.78508 0.88378 0.30285 0.0
C3182 C 0.8051 0.87502 0.30228 0.0
C3183 C 0.77147 0.8798 0.31932 0.0
C3184 C 0.77715 0.86668 0.33583 0.0
H3185 H 0.78004 0.89437 0.2908 0.0
H3186 H 0.75645 0.88736 0.31924 0.0
S3187 S 0.82724 0.83867 0.34116 0.0
N3188 N 0.82955 0.85176 0.31926 0.0
N3189 N 0.80387 0.84413 0.35012 0.0
C3190 C 0.7968 0.85714 0.33509 0.0
C3191 C 0.81079 0.86136 0.31837 0.0
C3192 C 0.45662 0.38009 0.03444 0.0
C3193 C 0.45687 0.38752 0.05499 0.0
C3194 C 0.44016 0.38457 0.021 0.0
C3195 C 0.4233 0.39688 0.0274 0.0
H3196 H 0.46893 0.37014 0.02877 0.0
H3197 H 0.4405 0.37796 0.00555 0.0
S3198 S 0.41702 0.42152 0.0791 0.0
N3199 N 0.43922 0.40882 0.08075 0.0
N3200 N 0.40833 0.41737 0.05535 0.0
C3201 C 0.42372 0.40521 0.04759 0.0
C3202 C 0.44046 0.40049 0.06141 0.0
C3203 C 0.37813 0.69035 0.77131 0.0
C3204 C 0.3655 0.67362 0.77739 0.0
C3205 C 0.38243 0.70675 0.78488 0.0
C3206 C 0.3745 0.70706 0.80526 0.0
H3207 H 0.38504 0.69067 0.75599 0.0
H3208 H 0.39258 0.719 0.77946 0.0
S3209 S 0.33976 0.66745 0.82859 0.0
N3210 N 0.34435 0.65876 0.80492 0.0
N3211 N 0.35259 0.68954 0.83054 0.0
C3212 C 0.36136 0.69072 0.81139 0.0
C3213 C 0.3568 0.67405 0.79744 0.0
C3214 C 0.08605 0.60852 0.54618 0.0
C3215 C 0.08622 0.61648 0.52584 0.0
C3216 C 0.06965 0.61294 0.55988 0.0
C3217 C 0.05269 0.62529 0.55369 0.0
H3218 H 0.09905 0.59948 0.55184 0.0
H3219 H 0.07057 0.60701 0.57559 0.0
S3220 S 0.0447 0.64786 0.50115 0.0
N3221 N 0.0673 0.63591 0.49964 0.0
N3222 N 0.03647 0.64403 0.52509 0.0
C3223 C 0.05225 0.63246 0.53301 0.0
C3224 C 0.06901 0.62812 0.51918 0.0
C3225 C 0.14632 0.31944 0.30906 0.0
C3226 C 0.13432 0.30231 0.30269 0.0
C3227 C 0.15069 0.33589 0.29544 0.0
C3228 C 0.14304 0.33595 0.27499 0.0
H3229 H 0.15197 0.32046 0.32486 0.0
H3230 H 0.15942 0.34903 0.30125 0.0
S3231 S 0.1128 0.29391 0.24979 0.0
N3232 N 0.11636 0.28575 0.2738 0.0
N3233 N 0.12438 0.31671 0.24846 0.0
C3234 C 0.13181 0.31855 0.26813 0.0
C3235 C 0.12751 0.30173 0.28189 0.0
C3236 C 0.44055 0.61391 0.45061 0.0
C3237 C 0.45805 0.62514 0.4574 0.0
C3238 C 0.42412 0.60923 0.46418 0.0
C3239 C 0.42448 0.61579 0.485 0.0
H3240 H 0.43921 0.60918 0.43453 0.0
H3241 H 0.41066 0.60122 0.45807 0.0
S3242 S 0.46761 0.64341 0.51132 0.0
N3243 N 0.47541 0.64098 0.48705 0.0
N3244 N 0.44452 0.6324 0.51228 0.0
C3245 C 0.44226 0.62614 0.49225 0.0
C3246 C 0.45903 0.63075 0.47854 0.0
C3247 C 0.14714 0.69066 0.19959 0.0
C3248 C 0.13578 0.70819 0.20612 0.0
C3249 C 0.15185 0.67442 0.21338 0.0
C3250 C 0.1452 0.675 0.23417 0.0
H3251 H 0.15197 0.68915 0.18356 0.0
H3252 H 0.15997 0.66094 0.20746 0.0
S3253 S 0.11717 0.7183 0.25982 0.0
N3254 N 0.11967 0.72582 0.23547 0.0
N3255 N 0.12833 0.69528 0.26112 0.0
C3256 C 0.13471 0.69281 0.24115 0.0
C3257 C 0.13006 0.7094 0.22722 0.0
C3258 C 0.08626 0.40162 0.96335 0.0
C3259 C 0.08556 0.39497 0.98413 0.0
C3260 C 0.07006 0.39699 0.9495 0.0
C3261 C 0.05247 0.38572 0.95598 0.0
H3262 H 0.09982 0.40964 0.95748 0.0
H3263 H 0.07166 0.40177 0.93346 0.0
S3264 S 0.04202 0.36731 0.00969 0.0
N3265 N 0.0651 0.3783 0.01104 0.0
N3266 N 0.03461 0.36981 0.9853 0.0
C3267 C 0.05112 0.38006 0.97709 0.0
C3268 C 0.06767 0.38462 0.99107 0.0
C3269 C 0.38169 0.30369 0.72581 0.0
C3270 C 0.3739 0.3035 0.70539 0.0
C3271 C 0.37746 0.32011 0.73938 0.0
C3272 C 0.36506 0.33699 0.73324 0.0
H3273 H 0.39174 0.29136 0.73126 0.0
H3274 H 0.38434 0.31972 0.75471 0.0
S3275 S 0.3395 0.34344 0.68202 0.0
N3276 N 0.35216 0.32124 0.68007 0.0
N3277 N 0.34408 0.35206 0.70571 0.0
C3278 C 0.35636 0.33664 0.71321 0.0
C3279 C 0.36084 0.31994 0.69925 0.0
C3280 C 0.05962 0.44093 0.39674 0.0
C3281 C 0.05289 0.45802 0.38486 0.0
C3282 C 0.04619 0.42439 0.40141 0.0
C3283 C 0.02559 0.42419 0.39418 0.0
H3284 H 0.07554 0.44004 0.40208 0.0
H3285 H 0.05226 0.41129 0.41004 0.0
S3286 S 0.99953 0.46596 0.36428 0.0
N3287 N 0.02353 0.47431 0.36738 0.0
N3288 N 0.99859 0.4432 0.37596 0.0
C3289 C 0.0184 0.44151 0.38303 0.0
C3290 C 0.03196 0.45842 0.37844 0.0
C3291 C 0.3038 0.28546 0.12798 0.0
C3292 C 0.30345 0.30578 0.13603 0.0
C3293 C 0.32029 0.27192 0.13211 0.0
C3294 C 0.33706 0.27799 0.14468 0.0
H3295 H 0.29153 0.28005 0.11784 0.0
H3296 H 0.32 0.25665 0.12509 0.0
S3297 S 0.34315 0.32904 0.17074 0.0
N3298 N 0.32098 0.33098 0.15803 0.0
N3299 N 0.35191 0.30543 0.16595 0.0
C3300 C 0.33658 0.29797 0.15353 0.0
C3301 C 0.31983 0.31189 0.14915 0.0
C3302 C 0.47535 0.55464 0.87771 0.0
C3303 C 0.45506 0.55436 0.88582 0.0
C3304 C 0.48893 0.5711 0.88176 0.0
C3305 C 0.48294 0.58791 0.89432 0.0
H3306 H 0.4807 0.54233 0.86758 0.0
H3307 H 0.50418 0.57075 0.8747 0.0
S3308 S 0.43199 0.5942 0.92052 0.0
N3309 N 0.42995 0.57201 0.90785 0.0
N3310 N 0.4556 0.60288 0.91565 0.0
C3311 C 0.46298 0.58751 0.90323 0.0
C3312 C 0.44902 0.57079 0.89892 0.0
C3313 C 0.20476 0.72424 0.62726 0.0
C3314 C 0.20526 0.70403 0.63558 0.0
C3315 C 0.18838 0.73786 0.63155 0.0
C3316 C 0.17187 0.732 0.64456 0.0
H3317 H 0.21684 0.7295 0.61682 0.0
H3318 H 0.18854 0.75304 0.62432 0.0
S3319 S 0.1662 0.6813 0.67136 0.0
N3320 N 0.18811 0.67915 0.65824 0.0
N3321 N 0.15739 0.70486 0.66645 0.0
C3322 C 0.17248 0.71213 0.65364 0.0
C3323 C 0.18912 0.69813 0.6491 0.0
C3324 C 0.0345 0.5546 0.13166 0.0
C3325 C 0.05471 0.55395 0.12336 0.0
C3326 C 0.02105 0.57113 0.12741 0.0
C3327 C 0.02709 0.58764 0.11447 0.0
H3328 H 0.02916 0.54256 0.14212 0.0
H3329 H 0.00587 0.57111 0.13466 0.0
S3330 S 0.0778 0.59283 0.08759 0.0
N3331 N 0.07973 0.57087 0.10067 0.0
N3332 N 0.05434 0.60187 0.09255 0.0
C3333 C 0.04693 0.58683 0.10534 0.0
C3334 C 0.06075 0.57004 0.10983 0.0
C3335 C 0.19053 0.31094 0.86314 0.0
C3336 C 0.20817 0.30402 0.87411 0.0
C3337 C 0.17408 0.29738 0.85848 0.0
C3338 C 0.17457 0.27651 0.86483 0.0
H3339 H 0.1891 0.32707 0.85865 0.0
H3340 H 0.16049 0.30355 0.85073 0.0
S3341 S 0.21803 0.24989 0.89162 0.0
N3342 N 0.22578 0.27419 0.88937 0.0
N3343 N 0.19481 0.24905 0.88088 0.0
C3344 C 0.19247 0.26915 0.87486 0.0
C3345 C 0.20928 0.28281 0.87942 0.0
C3346 C 0.47467 0.45665 0.63318 0.0
C3347 C 0.45462 0.45728 0.62451 0.0
C3348 C 0.48827 0.44019 0.62907 0.0
C3349 C 0.48254 0.42374 0.6159 0.0
H3350 H 0.47977 0.46866 0.64379 0.0
H3351 H 0.50332 0.44024 0.63656 0.0
S3352 S 0.43231 0.41858 0.58809 0.0
N3353 N 0.43007 0.44042 0.60129 0.0
N3354 N 0.4557 0.40957 0.59342 0.0
C3355 C 0.46283 0.42453 0.60647 0.0
C3356 C 0.44887 0.44124 0.61082 0.0
C3357 C 0.31957 0.69995 0.36273 0.0
C3358 C 0.30197 0.70659 0.37392 0.0
C3359 C 0.33607 0.71355 0.35847 0.0
C3360 C 0.3357 0.73422 0.36547 0.0
H3361 H 0.32092 0.68397 0.35771 0.0
H3362 H 0.34961 0.70756 0.35049 0.0
S3363 S 0.29239 0.76014 0.3932 0.0
N3364 N 0.28453 0.73596 0.3902 0.0
N3365 N 0.31559 0.76124 0.38243 0.0
C3366 C 0.31783 0.74134 0.37576 0.0
C3367 C 0.30096 0.72761 0.37992 0.0
C3368 C 0.39694 0.06083 0.44071 0.0
C3369 C 0.38468 0.05459 0.45771 0.0
C3370 C 0.40134 0.04716 0.42429 0.0
C3371 C 0.39345 0.02681 0.42414 0.0
H3372 H 0.40281 0.07656 0.43978 0.0
H3373 H 0.4103 0.05286 0.41125 0.0
S3374 S 0.36232 1.00199 0.46575 0.0
N3375 N 0.3661 0.02594 0.474 0.0
N3376 N 0.37419 1.00053 0.44311 0.0
C3377 C 0.38191 0.02009 0.44139 0.0
C3378 C 0.37759 0.03389 0.45818 0.0
C3379 C 0.89643 0.45069 0.56813 0.0
C3380 C 0.88428 0.45699 0.55106 0.0
C3381 C 0.90071 0.4643 0.58462 0.0
C3382 C 0.89279 0.48465 0.5848 0.0
H3383 H 0.90232 0.43497 0.56904 0.0
H3384 H 0.9096 0.45854 0.59767 0.0
S3385 S 0.86183 0.50957 0.54311 0.0
N3386 N 0.86571 0.48566 0.53479 0.0
N3387 N 0.87357 0.51098 0.56582 0.0
C3388 C 0.88133 0.49142 0.56751 0.0
C3389 C 0.87714 0.47768 0.55064 0.0
C3390 C 0.28583 0.12774 0.30381 0.0
C3391 C 0.30597 0.13623 0.3035 0.0
C3392 C 0.27211 0.13178 0.32016 0.0
C3393 C 0.27778 0.14467 0.33684 0.0
H3394 H 0.28074 0.11733 0.29163 0.0
H3395 H 0.25701 0.1244 0.31987 0.0
S3396 S 0.32814 0.17197 0.34292 0.0
N3397 N 0.33053 0.15904 0.32092 0.0
N3398 N 0.30461 0.16675 0.3516 0.0
C3399 C 0.29754 0.15398 0.33637 0.0
C3400 C 0.31165 0.14971 0.31975 0.0
C3401 C 0.61394 0.5603 0.06946 0.0
C3402 C 0.62487 0.55343 0.05179 0.0
C3403 C 0.60944 0.54674 0.08595 0.0
C3404 C 0.61592 0.5259 0.08548 0.0
H3405 H 0.60931 0.57639 0.07086 0.0
H3406 H 0.60165 0.55287 0.09954 0.0
S3407 S 0.64279 0.49942 0.04198 0.0
N3408 N 0.64033 0.52369 0.0342 0.0
N3409 N 0.63212 0.49853 0.06524 0.0
C3410 C 0.62597 0.51859 0.06757 0.0
C3411 C 0.63037 0.53226 0.05071 0.0
C3412 C 0.72322 0.38163 0.30469 0.0
C3413 C 0.70281 0.37382 0.30444 0.0
C3414 C 0.73683 0.37723 0.32103 0.0
C3415 C 0.73077 0.3646 0.33776 0.0
H3416 H 0.72865 0.39179 0.29244 0.0
H3417 H 0.75218 0.38408 0.32066 0.0
S3418 S 0.67949 0.33912 0.34412 0.0
N3419 N 0.6775 0.352 0.32205 0.0
N3420 N 0.70322 0.34356 0.35271 0.0
C3421 C 0.71069 0.35599 0.3374 0.0
C3422 C 0.69668 0.36065 0.32079 0.0
C3423 C 0.12769 0.98815 0.94107 0.0
C3424 C 0.11526 0.9822 0.92413 0.0
C3425 C 0.13164 0.97452 0.95752 0.0
C3426 C 0.12356 0.95422 0.95766 0.0
H3427 H 0.1348 1.00338 0.94146 0.0
H3428 H 0.14174 0.9798 0.96988 0.0
S3429 S 0.08901 0.93136 0.91757 0.0
N3430 N 0.09396 0.95499 0.90898 0.0
N3431 N 0.10154 0.92923 0.93983 0.0
C3432 C 0.11048 0.94828 0.94117 0.0
C3433 C 0.10628 0.9623 0.92445 0.0
C3434 C 0.28552 0.88223 0.20636 0.0
C3435 C 0.30566 0.87379 0.20707 0.0
C3436 C 0.27208 0.87807 0.1898 0.0
C3437 C 0.27808 0.86508 0.1733 0.0
H3438 H 0.28021 0.89272 0.21839 0.0
H3439 H 0.25695 0.88541 0.18978 0.0
S3440 S 0.32864 0.83788 0.16825 0.0
N3441 N 0.3306 0.85095 0.1902 0.0
N3442 N 0.30524 0.84299 0.15914 0.0
C3443 C 0.29787 0.85584 0.17416 0.0
C3444 C 0.31167 0.86024 0.19099 0.0
C3445 C 0.22561 0.12793 0.70604 0.0
C3446 C 0.2053 0.136 0.70681 0.0
C3447 C 0.2389 0.13231 0.68943 0.0
C3448 C 0.2326 0.14516 0.67294 0.0
H3449 H 0.23117 0.11758 0.71806 0.0
H3450 H 0.25416 0.12525 0.68937 0.0
S3451 S 0.18154 0.1714 0.66799 0.0
N3452 N 0.17989 0.15833 0.68998 0.0
N3453 N 0.20501 0.16672 0.65882 0.0
C3454 C 0.21266 0.15405 0.67385 0.0
C3455 C 0.19898 0.14941 0.69073 0.0
loop_
_geom_bond_atom_site_label_1
_geom_bond_atom_site_label_2
_geom_bond_distance
_geom_bond_site_symmetry_2
_ccdc_geom_bond_type
C0 O2 1.247 . S
C0 O4 1.258 . S
C1 O8 1.247 . S
C1 O9 1.258 . S
O2 C0 1.247 . S
O2 Zn3 2.028 1_655 S
Zn3 O2 2.028 1_455 S
Zn3 O7 2.035 . S
Zn3 O9 2.035 . S
Zn3 O10 2.028 1_455 S
O4 C0 1.258 . S
O4 Zn5 2.035 1_655 S
Zn5 O4 2.035 1_455 S
Zn5 O6 2.028 . S
Zn5 O8 2.028 . S
Zn5 O11 2.035 1_455 S
O6 Zn5 2.028 . S
O6 C12 1.247 . S
O7 Zn3 2.035 . S
O7 C12 1.258 . S
O8 C1 1.247 . S
O8 Zn5 2.028 . S
O9 C1 1.258 . S
O9 Zn3 2.035 . S
O10 Zn3 2.028 1_655 S
O10 C13 1.247 . S
O11 Zn5 2.035 1_655 S
O11 C13 1.258 . S
C12 O6 1.247 . S
C12 O7 1.258 . S
C13 O10 1.247 . S
C13 O11 1.258 . S
C14 O16 1.247 . S
C14 O18 1.258 . S
C15 O22 1.247 . S
C15 O23 1.258 . S
O16 C14 1.247 . S
O16 Zn17 2.028 . S
Zn17 O16 2.028 . S
Zn17 O21 2.035 . S
Zn17 O23 2.035 . S
Zn17 O24 2.028 . S
O18 C14 1.258 . S
O18 Zn19 2.035 . S
Zn19 O18 2.035 . S
Zn19 O20 2.028 . S
Zn19 O22 2.028 . S
Zn19 O25 2.035 . S
O20 Zn19 2.028 . S
O20 C26 1.247 . S
O21 Zn17 2.035 . S
O21 C26 1.258 . S
O22 C15 1.247 . S
O22 Zn19 2.028 . S
O23 C15 1.258 . S
O23 Zn17 2.035 . S
O24 Zn17 2.028 . S
O24 C27 1.247 . S
O25 Zn19 2.035 . S
O25 C27 1.258 . S
C26 O20 1.247 . S
C26 O21 1.258 . S
C27 O24 1.247 . S
C27 O25 1.258 . S
C28 O30 1.247 . S
C28 O32 1.258 . S
C29 O36 1.247 . S
C29 O37 1.258 . S
O30 C28 1.247 . S
O30 Zn31 2.028 . S
Zn31 O30 2.028 . S
Zn31 O35 2.035 . S
Zn31 O37 2.035 . S
Zn31 O38 2.028 . S
O32 C28 1.258 . S
O32 Zn33 2.035 . S
Zn33 O32 2.035 . S
Zn33 O34 2.028 . S
Zn33 O36 2.028 . S
Zn33 O39 2.035 . S
O34 Zn33 2.028 . S
O34 C40 1.247 . S
O35 Zn31 2.035 . S
O35 C40 1.258 . S
O36 C29 1.247 . S
O36 Zn33 2.028 . S
O37 C29 1.258 . S
O37 Zn31 2.035 . S
O38 Zn31 2.028 . S
O38 C41 1.247 . S
O39 Zn33 2.035 . S
O39 C41 1.258 . S
C40 O34 1.247 . S
C40 O35 1.258 . S
C41 O38 1.247 . S
C41 O39 1.258 . S
C42 O44 1.247 . S
C42 O46 1.258 . S
C43 O50 1.247 . S
C43 O51 1.258 . S
O44 C42 1.247 . S
O44 Zn45 2.028 . S
Zn45 O44 2.028 . S
Zn45 O49 2.035 . S
Zn45 O51 2.035 . S
Zn45 O52 2.028 . S
O46 C42 1.258 . S
O46 Zn47 2.035 . S
Zn47 O46 2.035 . S
Zn47 O48 2.028 . S
Zn47 O50 2.028 . S
Zn47 O53 2.035 . S
O48 Zn47 2.028 . S
O48 C54 1.247 . S
O49 Zn45 2.035 . S
O49 C54 1.258 . S
O50 C43 1.247 . S
O50 Zn47 2.028 . S
O51 C43 1.258 . S
O51 Zn45 2.035 . S
O52 Zn45 2.028 . S
O52 C55 1.247 . S
O53 Zn47 2.035 . S
O53 C55 1.258 . S
C54 O48 1.247 . S
C54 O49 1.258 . S
C55 O52 1.247 . S
C55 O53 1.258 . S
C56 O58 1.247 . S
C56 O60 1.258 . S
C57 O64 1.247 . S
C57 O65 1.258 . S
O58 C56 1.247 . S
O58 Zn59 2.028 . S
Zn59 O58 2.028 . S
Zn59 O63 2.035 1_455 S
Zn59 O65 2.035 1_455 S
Zn59 O66 2.028 . S
O60 C56 1.258 . S
O60 Zn61 2.035 . S
Zn61 O60 2.035 . S
Zn61 O62 2.028 1_455 S
Zn61 O64 2.028 1_455 S
Zn61 O67 2.035 . S
O62 Zn61 2.028 1_655 S
O62 C68 1.247 . S
O63 Zn59 2.035 1_655 S
O63 C68 1.258 . S
O64 C57 1.247 . S
O64 Zn61 2.028 1_655 S
O65 C57 1.258 . S
O65 Zn59 2.035 1_655 S
O66 Zn59 2.028 . S
O66 C69 1.247 . S
O67 Zn61 2.035 . S
O67 C69 1.258 . S
C68 O62 1.247 . S
C68 O63 1.258 . S
C69 O66 1.247 . S
C69 O67 1.258 . S
C70 O72 1.247 . S
C70 O74 1.258 . S
C71 O78 1.247 . S
C71 O79 1.258 . S
O72 C70 1.247 . S
O72 Zn73 2.028 . S
Zn73 O72 2.028 . S
Zn73 O77 2.035 . S
Zn73 O79 2.035 . S
Zn73 O80 2.028 . S
O74 C70 1.258 . S
O74 Zn75 2.035 . S
Zn75 O74 2.035 . S
Zn75 O76 2.028 . S
Zn75 O78 2.028 . S
Zn75 O81 2.035 . S
O76 Zn75 2.028 . S
O76 C82 1.247 . S
O77 Zn73 2.035 . S
O77 C82 1.258 . S
O78 C71 1.247 . S
O78 Zn75 2.028 . S
O79 C71 1.258 . S
O79 Zn73 2.035 . S
O80 Zn73 2.028 . S
O80 C83 1.247 . S
O81 Zn75 2.035 . S
O81 C83 1.258 . S
C82 O76 1.247 . S
C82 O77 1.258 . S
C83 O80 1.247 . S
C83 O81 1.258 . S
C84 O86 1.247 . S
C84 O88 1.258 . S
C85 O92 1.247 . S
C85 O93 1.258 . S
O86 C84 1.247 . S
O86 Zn87 2.028 . S
Zn87 O86 2.028 . S
Zn87 O91 2.035 . S
Zn87 O93 2.035 . S
Zn87 O94 2.028 . S
O88 C84 1.258 . S
O88 Zn89 2.035 . S
Zn89 O88 2.035 . S
Zn89 O90 2.028 . S
Zn89 O92 2.028 . S
Zn89 O95 2.035 . S
O90 Zn89 2.028 . S
O90 C96 1.247 . S
O91 Zn87 2.035 . S
O91 C96 1.258 . S
O92 C85 1.247 . S
O92 Zn89 2.028 . S
O93 C85 1.258 . S
O93 Zn87 2.035 . S
O94 Zn87 2.028 . S
O94 C97 1.247 . S
O95 Zn89 2.035 . S
O95 C97 1.258 . S
C96 O90 1.247 . S
C96 O91 1.258 . S
C97 O94 1.247 . S
C97 O95 1.258 . S
C98 O100 1.247 . S
C98 O102 1.258 . S
C99 O106 1.247 . S
C99 O107 1.258 . S
O100 C98 1.247 . S
O100 Zn101 2.028 . S
Zn101 O100 2.028 . S
Zn101 O105 2.035 . S
Zn101 O107 2.035 . S
Zn101 O108 2.028 . S
O102 C98 1.258 . S
O102 Zn103 2.035 . S
Zn103 O102 2.035 . S
Zn103 O104 2.028 . S
Zn103 O106 2.028 . S
Zn103 O109 2.035 . S
O104 Zn103 2.028 . S
O104 C110 1.247 . S
O105 Zn101 2.035 . S
O105 C110 1.258 . S
O106 C99 1.247 . S
O106 Zn103 2.028 . S
O107 C99 1.258 . S
O107 Zn101 2.035 . S
O108 Zn101 2.028 . S
O108 C111 1.247 . S
O109 Zn103 2.035 . S
O109 C111 1.258 . S
C110 O104 1.247 . S
C110 O105 1.258 . S
C111 O108 1.247 . S
C111 O109 1.258 . S
C112 O114 1.247 . S
C112 O116 1.258 . S
C113 O120 1.247 . S
C113 O121 1.258 . S
O114 C112 1.247 . S
O114 Zn115 2.028 . S
Zn115 O114 2.028 . S
Zn115 O119 2.035 1_545 S
Zn115 O121 2.035 1_545 S
Zn115 O122 2.028 . S
O116 C112 1.258 . S
O116 Zn117 2.035 . S
Zn117 O116 2.035 . S
Zn117 O118 2.028 1_545 S
Zn117 O120 2.028 1_545 S
Zn117 O123 2.035 . S
O118 Zn117 2.028 1_565 S
O118 C124 1.247 . S
O119 Zn115 2.035 1_565 S
O119 C124 1.258 . S
O120 C113 1.247 . S
O120 Zn117 2.028 1_565 S
O121 C113 1.258 . S
O121 Zn115 2.035 1_565 S
O122 Zn115 2.028 . S
O122 C125 1.247 . S
O123 Zn117 2.035 . S
O123 C125 1.258 . S
C124 O118 1.247 . S
C124 O119 1.258 . S
C125 O122 1.247 . S
C125 O123 1.258 . S
C126 O128 1.247 . S
C126 O130 1.258 . S
C127 O134 1.247 . S
C127 O135 1.258 . S
O128 C126 1.247 . S
O128 Zn129 2.028 . S
Zn129 O128 2.028 . S
Zn129 O133 2.035 . S
Zn129 O135 2.035 . S
Zn129 O136 2.028 . S
O130 C126 1.258 . S
O130 Zn131 2.035 . S
Zn131 O130 2.035 . S
Zn131 O132 2.028 . S
Zn131 O134 2.028 . S
Zn131 O137 2.035 . S
O132 Zn131 2.028 . S
O132 C138 1.247 . S
O133 Zn129 2.035 . S
O133 C138 1.258 . S
O134 C127 1.247 . S
O134 Zn131 2.028 . S
O135 C127 1.258 . S
O135 Zn129 2.035 . S
O136 Zn129 2.028 . S
O136 C139 1.247 . S
O137 Zn131 2.035 . S
O137 C139 1.258 . S
C138 O132 1.247 . S
C138 O133 1.258 . S
C139 O136 1.247 . S
C139 O137 1.258 . S
C140 O142 1.247 . S
C140 O144 1.258 . S
C141 O148 1.247 . S
C141 O149 1.258 . S
O142 C140 1.247 . S
O142 Zn143 2.028 . S
Zn143 O142 2.028 . S
Zn143 O147 2.035 1_565 S
Zn143 O149 2.035 1_565 S
Zn143 O150 2.028 . S
O144 C140 1.258 . S
O144 Zn145 2.035 . S
Zn145 O144 2.035 . S
Zn145 O146 2.028 1_565 S
Zn145 O148 2.028 1_565 S
Zn145 O151 2.035 . S
O146 Zn145 2.028 1_545 S
O146 C152 1.247 . S
O147 Zn143 2.035 1_545 S
O147 C152 1.258 . S
O148 C141 1.247 . S
O148 Zn145 2.028 1_545 S
O149 C141 1.258 . S
O149 Zn143 2.035 1_545 S
O150 Zn143 2.028 . S
O150 C153 1.247 . S
O151 Zn145 2.035 . S
O151 C153 1.258 . S
C152 O146 1.247 . S
C152 O147 1.258 . S
C153 O150 1.247 . S
C153 O151 1.258 . S
C154 O156 1.247 . S
C154 O158 1.258 . S
C155 O162 1.247 . S
C155 O163 1.258 . S
O156 C154 1.247 . S
O156 Zn157 2.028 . S
Zn157 O156 2.028 . S
Zn157 O161 2.035 . S
Zn157 O163 2.035 . S
Zn157 O164 2.028 . S
O158 C154 1.258 . S
O158 Zn159 2.035 . S
Zn159 O158 2.035 . S
Zn159 O160 2.028 . S
Zn159 O162 2.028 . S
Zn159 O165 2.035 . S
O160 Zn159 2.028 . S
O160 C166 1.247 . S
O161 Zn157 2.035 . S
O161 C166 1.258 . S
O162 C155 1.247 . S
O162 Zn159 2.028 . S
O163 C155 1.258 . S
O163 Zn157 2.035 . S
O164 Zn157 2.028 . S
O164 C167 1.247 . S
O165 Zn159 2.035 . S
O165 C167 1.258 . S
C166 O160 1.247 . S
C166 O161 1.258 . S
C167 O164 1.247 . S
C167 O165 1.258 . S
C168 O170 1.247 . S
C168 O172 1.258 . S
C169 O176 1.247 . S
C169 O177 1.258 . S
O170 C168 1.247 . S
O170 Zn171 2.028 . S
Zn171 O170 2.028 . S
Zn171 O175 2.035 1_565 S
Zn171 O177 2.035 1_565 S
Zn171 O178 2.028 . S
O172 C168 1.258 . S
O172 Zn173 2.035 . S
Zn173 O172 2.035 . S
Zn173 O174 2.028 1_565 S
Zn173 O176 2.028 1_565 S
Zn173 O179 2.035 . S
O174 Zn173 2.028 1_545 S
O174 C180 1.247 . S
O175 Zn171 2.035 1_545 S
O175 C180 1.258 . S
O176 C169 1.247 . S
O176 Zn173 2.028 1_545 S
O177 C169 1.258 . S
O177 Zn171 2.035 1_545 S
O178 Zn171 2.028 . S
O178 C181 1.247 . S
O179 Zn173 2.035 . S
O179 C181 1.258 . S
C180 O174 1.247 . S
C180 O175 1.258 . S
C181 O178 1.247 . S
C181 O179 1.258 . S
C182 O184 1.247 . S
C182 O186 1.258 . S
C183 O190 1.247 . S
C183 O191 1.258 . S
O184 C182 1.247 . S
O184 Zn185 2.028 . S
Zn185 O184 2.028 . S
Zn185 O189 2.035 . S
Zn185 O191 2.035 . S
Zn185 O192 2.028 . S
O186 C182 1.258 . S
O186 Zn187 2.035 . S
Zn187 O186 2.035 . S
Zn187 O188 2.028 . S
Zn187 O190 2.028 . S
Zn187 O193 2.035 . S
O188 Zn187 2.028 . S
O188 C194 1.247 . S
O189 Zn185 2.035 . S
O189 C194 1.258 . S
O190 C183 1.247 . S
O190 Zn187 2.028 . S
O191 C183 1.258 . S
O191 Zn185 2.035 . S
O192 Zn185 2.028 . S
O192 C195 1.247 . S
O193 Zn187 2.035 . S
O193 C195 1.258 . S
C194 O188 1.247 . S
C194 O189 1.258 . S
C195 O192 1.247 . S
C195 O193 1.258 . S
C196 O198 1.247 . S
C196 O200 1.258 . S
C197 O204 1.247 . S
C197 O205 1.258 . S
O198 C196 1.247 . S
O198 Zn199 2.028 1_565 S
Zn199 O198 2.028 1_545 S
Zn199 O203 2.035 . S
Zn199 O205 2.035 . S
Zn199 O206 2.028 1_545 S
O200 C196 1.258 . S
O200 Zn201 2.035 1_565 S
Zn201 O200 2.035 1_545 S
Zn201 O202 2.028 . S
Zn201 O204 2.028 . S
Zn201 O207 2.035 1_545 S
O202 Zn201 2.028 . S
O202 C208 1.247 . S
O203 Zn199 2.035 . S
O203 C208 1.258 . S
O204 C197 1.247 . S
O204 Zn201 2.028 . S
O205 C197 1.258 . S
O205 Zn199 2.035 . S
O206 Zn199 2.028 1_565 S
O206 C209 1.247 . S
O207 Zn201 2.035 1_565 S
O207 C209 1.258 . S
C208 O202 1.247 . S
C208 O203 1.258 . S
C209 O206 1.247 . S
C209 O207 1.258 . S
C210 O212 1.247 . S
C210 O214 1.258 . S
C211 O218 1.247 . S
C211 O219 1.258 . S
O212 C210 1.247 . S
O212 Zn213 2.028 . S
Zn213 O212 2.028 . S
Zn213 O217 2.035 . S
Zn213 O219 2.035 . S
Zn213 O220 2.028 . S
O214 C210 1.258 . S
O214 Zn215 2.035 . S
Zn215 O214 2.035 . S
Zn215 O216 2.028 . S
Zn215 O218 2.028 . S
Zn215 O221 2.035 . S
O216 Zn215 2.028 . S
O216 C222 1.247 . S
O217 Zn213 2.035 . S
O217 C222 1.258 . S
O218 C211 1.247 . S
O218 Zn215 2.028 . S
O219 C211 1.258 . S
O219 Zn213 2.035 . S
O220 Zn213 2.028 . S
O220 C223 1.247 . S
O221 Zn215 2.035 . S
O221 C223 1.258 . S
C222 O216 1.247 . S
C222 O217 1.258 . S
C223 O220 1.247 . S
C223 O221 1.258 . S
C224 O226 1.247 . S
C224 O228 1.258 . S
C225 O232 1.247 . S
C225 O233 1.258 . S
O226 C224 1.247 . S
O226 Zn227 2.028 1_556 S
Zn227 O226 2.028 1_554 S
Zn227 O231 2.035 . S
Zn227 O233 2.035 . S
Zn227 O234 2.028 1_554 S
O228 C224 1.258 . S
O228 Zn229 2.035 1_556 S
Zn229 O228 2.035 1_554 S
Zn229 O230 2.028 . S
Zn229 O232 2.028 . S
Zn229 O235 2.035 1_554 S
O230 Zn229 2.028 . S
O230 C236 1.247 . S
O231 Zn227 2.035 . S
O231 C236 1.258 . S
O232 C225 1.247 . S
O232 Zn229 2.028 . S
O233 C225 1.258 . S
O233 Zn227 2.035 . S
O234 Zn227 2.028 1_556 S
O234 C237 1.247 . S
O235 Zn229 2.035 1_556 S
O235 C237 1.258 . S
C236 O230 1.247 . S
C236 O231 1.258 . S
C237 O234 1.247 . S
C237 O235 1.258 . S
C238 O240 1.247 . S
C238 O242 1.258 . S
C239 O246 1.247 . S
C239 O247 1.258 . S
O240 C238 1.247 . S
O240 Zn241 2.028 1_554 S
Zn241 O240 2.028 1_556 S
Zn241 O245 2.035 . S
Zn241 O247 2.035 . S
Zn241 O248 2.028 1_556 S
O242 C238 1.258 . S
O242 Zn243 2.035 1_554 S
Zn243 O242 2.035 1_556 S
Zn243 O244 2.028 . S
Zn243 O246 2.028 . S
Zn243 O249 2.035 1_556 S
O244 Zn243 2.028 . S
O244 C250 1.247 . S
O245 Zn241 2.035 . S
O245 C250 1.258 . S
O246 C239 1.247 . S
O246 Zn243 2.028 . S
O247 C239 1.258 . S
O247 Zn241 2.035 . S
O248 Zn241 2.028 1_554 S
O248 C251 1.247 . S
O249 Zn243 2.035 1_554 S
O249 C251 1.258 . S
C250 O244 1.247 . S
C250 O245 1.258 . S
C251 O248 1.247 . S
C251 O249 1.258 . S
C252 O254 1.247 . S
C252 O256 1.258 . S
C253 O260 1.247 . S
C253 O261 1.258 . S
O254 C252 1.247 . S
O254 Zn255 2.028 . S
Zn255 O254 2.028 . S
Zn255 O259 2.035 . S
Zn255 O261 2.035 . S
Zn255 O262 2.028 . S
O256 C252 1.258 . S
O256 Zn257 2.035 . S
Zn257 O256 2.035 . S
Zn257 O258 2.028 . S
Zn257 O260 2.028 . S
Zn257 O263 2.035 . S
O258 Zn257 2.028 . S
O258 C264 1.247 . S
O259 Zn255 2.035 . S
O259 C264 1.258 . S
O260 C253 1.247 . S
O260 Zn257 2.028 . S
O261 C253 1.258 . S
O261 Zn255 2.035 . S
O262 Zn255 2.028 . S
O262 C265 1.247 . S
O263 Zn257 2.035 . S
O263 C265 1.258 . S
C264 O258 1.247 . S
C264 O259 1.258 . S
C265 O262 1.247 . S
C265 O263 1.258 . S
C266 O268 1.247 . S
C266 O270 1.258 . S
C267 O274 1.247 . S
C267 O275 1.258 . S
O268 C266 1.247 . S
O268 Zn269 2.028 . S
Zn269 O268 2.028 . S
Zn269 O273 2.035 . S
Zn269 O275 2.035 . S
Zn269 O276 2.028 . S
O270 C266 1.258 . S
O270 Zn271 2.035 . S
Zn271 O270 2.035 . S
Zn271 O272 2.028 . S
Zn271 O274 2.028 . S
Zn271 O277 2.035 . S
O272 Zn271 2.028 . S
O272 C278 1.247 . S
O273 Zn269 2.035 . S
O273 C278 1.258 . S
O274 C267 1.247 . S
O274 Zn271 2.028 . S
O275 C267 1.258 . S
O275 Zn269 2.035 . S
O276 Zn269 2.028 . S
O276 C279 1.247 . S
O277 Zn271 2.035 . S
O277 C279 1.258 . S
C278 O272 1.247 . S
C278 O273 1.258 . S
C279 O276 1.247 . S
C279 O277 1.258 . S
C280 O282 1.247 . S
C280 O284 1.258 . S
C281 O288 1.247 . S
C281 O289 1.258 . S
O282 C280 1.247 . S
O282 Zn283 2.028 . S
Zn283 O282 2.028 . S
Zn283 O287 2.035 . S
Zn283 O289 2.035 . S
Zn283 O290 2.028 . S
O284 C280 1.258 . S
O284 Zn285 2.035 . S
Zn285 O284 2.035 . S
Zn285 O286 2.028 . S
Zn285 O288 2.028 . S
Zn285 O291 2.035 . S
O286 Zn285 2.028 . S
O286 C292 1.247 . S
O287 Zn283 2.035 . S
O287 C292 1.258 . S
O288 C281 1.247 . S
O288 Zn285 2.028 . S
O289 C281 1.258 . S
O289 Zn283 2.035 . S
O290 Zn283 2.028 . S
O290 C293 1.247 . S
O291 Zn285 2.035 . S
O291 C293 1.258 . S
C292 O286 1.247 . S
C292 O287 1.258 . S
C293 O290 1.247 . S
C293 O291 1.258 . S
C294 O296 1.247 . S
C294 O298 1.258 . S
C295 O302 1.247 . S
C295 O303 1.258 . S
O296 C294 1.247 . S
O296 Zn297 2.028 . S
Zn297 O296 2.028 . S
Zn297 O301 2.035 . S
Zn297 O303 2.035 . S
Zn297 O304 2.028 . S
O298 C294 1.258 . S
O298 Zn299 2.035 . S
Zn299 O298 2.035 . S
Zn299 O300 2.028 . S
Zn299 O302 2.028 . S
Zn299 O305 2.035 . S
O300 Zn299 2.028 . S
O300 C306 1.247 . S
O301 Zn297 2.035 . S
O301 C306 1.258 . S
O302 C295 1.247 . S
O302 Zn299 2.028 . S
O303 C295 1.258 . S
O303 Zn297 2.035 . S
O304 Zn297 2.028 . S
O304 C307 1.247 . S
O305 Zn299 2.035 . S
O305 C307 1.258 . S
C306 O300 1.247 . S
C306 O301 1.258 . S
C307 O304 1.247 . S
C307 O305 1.258 . S
C308 O310 1.247 . S
C308 O312 1.258 . S
C309 O316 1.247 . S
C309 O317 1.258 . S
O310 C308 1.247 . S
O310 Zn311 2.028 . S
Zn311 O310 2.028 . S
Zn311 O315 2.035 . S
Zn311 O317 2.035 . S
Zn311 O318 2.028 . S
O312 C308 1.258 . S
O312 Zn313 2.035 . S
Zn313 O312 2.035 . S
Zn313 O314 2.028 . S
Zn313 O316 2.028 . S
Zn313 O319 2.035 . S
O314 Zn313 2.028 . S
O314 C320 1.247 . S
O315 Zn311 2.035 . S
O315 C320 1.258 . S
O316 C309 1.247 . S
O316 Zn313 2.028 . S
O317 C309 1.258 . S
O317 Zn311 2.035 . S
O318 Zn311 2.028 . S
O318 C321 1.247 . S
O319 Zn313 2.035 . S
O319 C321 1.258 . S
C320 O314 1.247 . S
C320 O315 1.258 . S
C321 O318 1.247 . S
C321 O319 1.258 . S
C322 O324 1.247 . S
C322 O326 1.258 . S
C323 O330 1.247 . S
C323 O331 1.258 . S
O324 C322 1.247 . S
O324 Zn325 2.028 . S
Zn325 O324 2.028 . S
Zn325 O329 2.035 . S
Zn325 O331 2.035 . S
Zn325 O332 2.028 . S
O326 C322 1.258 . S
O326 Zn327 2.035 . S
Zn327 O326 2.035 . S
Zn327 O328 2.028 . S
Zn327 O330 2.028 . S
Zn327 O333 2.035 . S
O328 Zn327 2.028 . S
O328 C334 1.247 . S
O329 Zn325 2.035 . S
O329 C334 1.258 . S
O330 C323 1.247 . S
O330 Zn327 2.028 . S
O331 C323 1.258 . S
O331 Zn325 2.035 . S
O332 Zn325 2.028 . S
O332 C335 1.247 . S
O333 Zn327 2.035 . S
O333 C335 1.258 . S
C334 O328 1.247 . S
C334 O329 1.258 . S
C335 O332 1.247 . S
C335 O333 1.258 . S
C336 O338 1.247 . S
C336 O340 1.258 . S
C337 O344 1.247 . S
C337 O345 1.258 . S
O338 C336 1.247 . S
O338 Zn339 2.028 . S
Zn339 O338 2.028 . S
Zn339 O343 2.035 1_655 S
Zn339 O345 2.035 1_655 S
Zn339 O346 2.028 . S
O340 C336 1.258 . S
O340 Zn341 2.035 . S
Zn341 O340 2.035 . S
Zn341 O342 2.028 1_655 S
Zn341 O344 2.028 1_655 S
Zn341 O347 2.035 . S
O342 Zn341 2.028 1_455 S
O342 C348 1.247 . S
O343 Zn339 2.035 1_455 S
O343 C348 1.258 . S
O344 C337 1.247 . S
O344 Zn341 2.028 1_455 S
O345 C337 1.258 . S
O345 Zn339 2.035 1_455 S
O346 Zn339 2.028 . S
O346 C349 1.247 . S
O347 Zn341 2.035 . S
O347 C349 1.258 . S
C348 O342 1.247 . S
C348 O343 1.258 . S
C349 O346 1.247 . S
C349 O347 1.258 . S
C350 O352 1.247 . S
C350 O354 1.258 . S
C351 O358 1.247 . S
C351 O359 1.258 . S
O352 C350 1.247 . S
O352 Zn353 2.028 . S
Zn353 O352 2.028 . S
Zn353 O357 2.035 . S
Zn353 O359 2.035 . S
Zn353 O360 2.028 . S
O354 C350 1.258 . S
O354 Zn355 2.035 . S
Zn355 O354 2.035 . S
Zn355 O356 2.028 . S
Zn355 O358 2.028 . S
Zn355 O361 2.035 . S
O356 Zn355 2.028 . S
O356 C362 1.247 . S
O357 Zn353 2.035 . S
O357 C362 1.258 . S
O358 C351 1.247 . S
O358 Zn355 2.028 . S
O359 C351 1.258 . S
O359 Zn353 2.035 . S
O360 Zn353 2.028 . S
O360 C363 1.247 . S
O361 Zn355 2.035 . S
O361 C363 1.258 . S
C362 O356 1.247 . S
C362 O357 1.258 . S
C363 O360 1.247 . S
C363 O361 1.258 . S
C364 O366 1.247 . S
C364 O368 1.258 . S
C365 O372 1.247 . S
C365 O373 1.258 . S
O366 C364 1.247 . S
O366 Zn367 2.028 . S
Zn367 O366 2.028 . S
Zn367 O371 2.035 . S
Zn367 O373 2.035 . S
Zn367 O374 2.028 . S
O368 C364 1.258 . S
O368 Zn369 2.035 . S
Zn369 O368 2.035 . S
Zn369 O370 2.028 . S
Zn369 O372 2.028 . S
Zn369 O375 2.035 . S
O370 Zn369 2.028 . S
O370 C376 1.247 . S
O371 Zn367 2.035 . S
O371 C376 1.258 . S
O372 C365 1.247 . S
O372 Zn369 2.028 . S
O373 C365 1.258 . S
O373 Zn367 2.035 . S
O374 Zn367 2.028 . S
O374 C377 1.247 . S
O375 Zn369 2.035 . S
O375 C377 1.258 . S
C376 O370 1.247 . S
C376 O371 1.258 . S
C377 O374 1.247 . S
C377 O375 1.258 . S
C378 O380 1.247 . S
C378 O382 1.258 . S
C379 O386 1.247 . S
C379 O387 1.258 . S
O380 C378 1.247 . S
O380 Zn381 2.028 . S
Zn381 O380 2.028 . S
Zn381 O385 2.035 . S
Zn381 O387 2.035 . S
Zn381 O388 2.028 . S
O382 C378 1.258 . S
O382 Zn383 2.035 . S
Zn383 O382 2.035 . S
Zn383 O384 2.028 . S
Zn383 O386 2.028 . S
Zn383 O389 2.035 . S
O384 Zn383 2.028 . S
O384 C390 1.247 . S
O385 Zn381 2.035 . S
O385 C390 1.258 . S
O386 C379 1.247 . S
O386 Zn383 2.028 . S
O387 C379 1.258 . S
O387 Zn381 2.035 . S
O388 Zn381 2.028 . S
O388 C391 1.247 . S
O389 Zn383 2.035 . S
O389 C391 1.258 . S
C390 O384 1.247 . S
C390 O385 1.258 . S
C391 O388 1.247 . S
C391 O389 1.258 . S
C392 O394 1.247 . S
C392 O396 1.258 . S
C393 O400 1.247 . S
C393 O401 1.258 . S
O394 C392 1.247 . S
O394 Zn395 2.028 . S
Zn395 O394 2.028 . S
Zn395 O399 2.035 1_655 S
Zn395 O401 2.035 1_655 S
Zn395 O402 2.028 . S
O396 C392 1.258 . S
O396 Zn397 2.035 . S
Zn397 O396 2.035 . S
Zn397 O398 2.028 1_655 S
Zn397 O400 2.028 1_655 S
Zn397 O403 2.035 . S
O398 Zn397 2.028 1_455 S
O398 C404 1.247 . S
O399 Zn395 2.035 1_455 S
O399 C404 1.258 . S
O400 C393 1.247 . S
O400 Zn397 2.028 1_455 S
O401 C393 1.258 . S
O401 Zn395 2.035 1_455 S
O402 Zn395 2.028 . S
O402 C405 1.247 . S
O403 Zn397 2.035 . S
O403 C405 1.258 . S
C404 O398 1.247 . S
C404 O399 1.258 . S
C405 O402 1.247 . S
C405 O403 1.258 . S
C406 O408 1.247 . S
C406 O410 1.258 . S
C407 O414 1.247 . S
C407 O415 1.258 . S
O408 C406 1.247 . S
O408 Zn409 2.028 . S
Zn409 O408 2.028 . S
Zn409 O413 2.035 . S
Zn409 O415 2.035 . S
Zn409 O416 2.028 . S
O410 C406 1.258 . S
O410 Zn411 2.035 . S
Zn411 O410 2.035 . S
Zn411 O412 2.028 . S
Zn411 O414 2.028 . S
Zn411 O417 2.035 . S
O412 Zn411 2.028 . S
O412 C418 1.247 . S
O413 Zn409 2.035 . S
O413 C418 1.258 . S
O414 C407 1.247 . S
O414 Zn411 2.028 . S
O415 C407 1.258 . S
O415 Zn409 2.035 . S
O416 Zn409 2.028 . S
O416 C419 1.247 . S
O417 Zn411 2.035 . S
O417 C419 1.258 . S
C418 O412 1.247 . S
C418 O413 1.258 . S
C419 O416 1.247 . S
C419 O417 1.258 . S
C420 O422 1.247 . S
C420 O424 1.258 . S
C421 O428 1.247 . S
C421 O429 1.258 . S
O422 C420 1.247 . S
O422 Zn423 2.028 . S
Zn423 O422 2.028 . S
Zn423 O427 2.035 . S
Zn423 O429 2.035 . S
Zn423 O430 2.028 . S
O424 C420 1.258 . S
O424 Zn425 2.035 . S
Zn425 O424 2.035 . S
Zn425 O426 2.028 . S
Zn425 O428 2.028 . S
Zn425 O431 2.035 . S
O426 Zn425 2.028 . S
O426 C432 1.247 . S
O427 Zn423 2.035 . S
O427 C432 1.258 . S
O428 C421 1.247 . S
O428 Zn425 2.028 . S
O429 C421 1.258 . S
O429 Zn423 2.035 . S
O430 Zn423 2.028 . S
O430 C433 1.247 . S
O431 Zn425 2.035 . S
O431 C433 1.258 . S
C432 O426 1.247 . S
C432 O427 1.258 . S
C433 O430 1.247 . S
C433 O431 1.258 . S
C434 O436 1.247 . S
C434 O438 1.258 . S
C435 O442 1.247 . S
C435 O443 1.258 . S
O436 C434 1.247 . S
O436 Zn437 2.028 . S
Zn437 O436 2.028 . S
Zn437 O441 2.035 . S
Zn437 O443 2.035 . S
Zn437 O444 2.028 . S
O438 C434 1.258 . S
O438 Zn439 2.035 . S
Zn439 O438 2.035 . S
Zn439 O440 2.028 . S
Zn439 O442 2.028 . S
Zn439 O445 2.035 . S
O440 Zn439 2.028 . S
O440 C446 1.247 . S
O441 Zn437 2.035 . S
O441 C446 1.258 . S
O442 C435 1.247 . S
O442 Zn439 2.028 . S
O443 C435 1.258 . S
O443 Zn437 2.035 . S
O444 Zn437 2.028 . S
O444 C447 1.247 . S
O445 Zn439 2.035 . S
O445 C447 1.258 . S
C446 O440 1.247 . S
C446 O441 1.258 . S
C447 O444 1.247 . S
C447 O445 1.258 . S
C448 O450 1.247 . S
C448 O452 1.258 . S
C449 O456 1.247 . S
C449 O457 1.258 . S
O450 C448 1.247 . S
O450 Zn451 2.028 1_545 S
Zn451 O450 2.028 1_565 S
Zn451 O455 2.035 . S
Zn451 O457 2.035 . S
Zn451 O458 2.028 1_565 S
O452 C448 1.258 . S
O452 Zn453 2.035 1_545 S
Zn453 O452 2.035 1_565 S
Zn453 O454 2.028 . S
Zn453 O456 2.028 . S
Zn453 O459 2.035 1_565 S
O454 Zn453 2.028 . S
O454 C460 1.247 . S
O455 Zn451 2.035 . S
O455 C460 1.258 . S
O456 C449 1.247 . S
O456 Zn453 2.028 . S
O457 C449 1.258 . S
O457 Zn451 2.035 . S
O458 Zn451 2.028 1_545 S
O458 C461 1.247 . S
O459 Zn453 2.035 1_545 S
O459 C461 1.258 . S
C460 O454 1.247 . S
C460 O455 1.258 . S
C461 O458 1.247 . S
C461 O459 1.258 . S
C462 O464 1.247 . S
C462 O466 1.258 . S
C463 O470 1.247 . S
C463 O471 1.258 . S
O464 C462 1.247 . S
O464 Zn465 2.028 . S
Zn465 O464 2.028 . S
Zn465 O469 2.035 . S
Zn465 O471 2.035 . S
Zn465 O472 2.028 . S
O466 C462 1.258 . S
O466 Zn467 2.035 . S
Zn467 O466 2.035 . S
Zn467 O468 2.028 . S
Zn467 O470 2.028 . S
Zn467 O473 2.035 . S
O468 Zn467 2.028 . S
O468 C474 1.247 . S
O469 Zn465 2.035 . S
O469 C474 1.258 . S
O470 C463 1.247 . S
O470 Zn467 2.028 . S
O471 C463 1.258 . S
O471 Zn465 2.035 . S
O472 Zn465 2.028 . S
O472 C475 1.247 . S
O473 Zn467 2.035 . S
O473 C475 1.258 . S
C474 O468 1.247 . S
C474 O469 1.258 . S
C475 O472 1.247 . S
C475 O473 1.258 . S
C476 O478 1.247 . S
C476 O480 1.258 . S
C477 O484 1.247 . S
C477 O485 1.258 . S
O478 C476 1.247 . S
O478 Zn479 2.028 1_565 S
Zn479 O478 2.028 1_545 S
Zn479 O483 2.035 . S
Zn479 O485 2.035 . S
Zn479 O486 2.028 1_545 S
O480 C476 1.258 . S
O480 Zn481 2.035 1_565 S
Zn481 O480 2.035 1_545 S
Zn481 O482 2.028 . S
Zn481 O484 2.028 . S
Zn481 O487 2.035 1_545 S
O482 Zn481 2.028 . S
O482 C488 1.247 . S
O483 Zn479 2.035 . S
O483 C488 1.258 . S
O484 C477 1.247 . S
O484 Zn481 2.028 . S
O485 C477 1.258 . S
O485 Zn479 2.035 . S
O486 Zn479 2.028 1_565 S
O486 C489 1.247 . S
O487 Zn481 2.035 1_565 S
O487 C489 1.258 . S
C488 O482 1.247 . S
C488 O483 1.258 . S
C489 O486 1.247 . S
C489 O487 1.258 . S
C490 O492 1.247 . S
C490 O494 1.258 . S
C491 O498 1.247 . S
C491 O499 1.258 . S
O492 C490 1.247 . S
O492 Zn493 2.028 . S
Zn493 O492 2.028 . S
Zn493 O497 2.035 . S
Zn493 O499 2.035 . S
Zn493 O500 2.028 . S
O494 C490 1.258 . S
O494 Zn495 2.035 . S
Zn495 O494 2.035 . S
Zn495 O496 2.028 . S
Zn495 O498 2.028 . S
Zn495 O501 2.035 . S
O496 Zn495 2.028 . S
O496 C502 1.247 . S
O497 Zn493 2.035 . S
O497 C502 1.258 . S
O498 C491 1.247 . S
O498 Zn495 2.028 . S
O499 C491 1.258 . S
O499 Zn493 2.035 . S
O500 Zn493 2.028 . S
O500 C503 1.247 . S
O501 Zn495 2.035 . S
O501 C503 1.258 . S
C502 O496 1.247 . S
C502 O497 1.258 . S
C503 O500 1.247 . S
C503 O501 1.258 . S
C504 O506 1.247 . S
C504 O508 1.258 . S
C505 O512 1.247 . S
C505 O513 1.258 . S
O506 C504 1.247 . S
O506 Zn507 2.028 . S
Zn507 O506 2.028 . S
Zn507 O511 2.035 1_545 S
Zn507 O513 2.035 1_545 S
Zn507 O514 2.028 . S
O508 C504 1.258 . S
O508 Zn509 2.035 . S
Zn509 O508 2.035 . S
Zn509 O510 2.028 1_545 S
Zn509 O512 2.028 1_545 S
Zn509 O515 2.035 . S
O510 Zn509 2.028 1_565 S
O510 C516 1.247 . S
O511 Zn507 2.035 1_565 S
O511 C516 1.258 . S
O512 C505 1.247 . S
O512 Zn509 2.028 1_565 S
O513 C505 1.258 . S
O513 Zn507 2.035 1_565 S
O514 Zn507 2.028 . S
O514 C517 1.247 . S
O515 Zn509 2.035 . S
O515 C517 1.258 . S
C516 O510 1.247 . S
C516 O511 1.258 . S
C517 O514 1.247 . S
C517 O515 1.258 . S
C518 O520 1.247 . S
C518 O522 1.258 . S
C519 O526 1.247 . S
C519 O527 1.258 . S
O520 C518 1.247 . S
O520 Zn521 2.028 . S
Zn521 O520 2.028 . S
Zn521 O525 2.035 . S
Zn521 O527 2.035 . S
Zn521 O528 2.028 . S
O522 C518 1.258 . S
O522 Zn523 2.035 . S
Zn523 O522 2.035 . S
Zn523 O524 2.028 . S
Zn523 O526 2.028 . S
Zn523 O529 2.035 . S
O524 Zn523 2.028 . S
O524 C530 1.247 . S
O525 Zn521 2.035 . S
O525 C530 1.258 . S
O526 C519 1.247 . S
O526 Zn523 2.028 . S
O527 C519 1.258 . S
O527 Zn521 2.035 . S
O528 Zn521 2.028 . S
O528 C531 1.247 . S
O529 Zn523 2.035 . S
O529 C531 1.258 . S
C530 O524 1.247 . S
C530 O525 1.258 . S
C531 O528 1.247 . S
C531 O529 1.258 . S
C532 O534 1.247 . S
C532 O536 1.258 . S
C533 O540 1.247 . S
C533 O541 1.258 . S
O534 C532 1.247 . S
O534 Zn535 2.028 1_545 S
Zn535 O534 2.028 1_565 S
Zn535 O539 2.035 . S
Zn535 O541 2.035 . S
Zn535 O542 2.028 1_565 S
O536 C532 1.258 . S
O536 Zn537 2.035 1_545 S
Zn537 O536 2.035 1_565 S
Zn537 O538 2.028 . S
Zn537 O540 2.028 . S
Zn537 O543 2.035 1_565 S
O538 Zn537 2.028 . S
O538 C544 1.247 . S
O539 Zn535 2.035 . S
O539 C544 1.258 . S
O540 C533 1.247 . S
O540 Zn537 2.028 . S
O541 C533 1.258 . S
O541 Zn535 2.035 . S
O542 Zn535 2.028 1_545 S
O542 C545 1.247 . S
O543 Zn537 2.035 1_545 S
O543 C545 1.258 . S
C544 O538 1.247 . S
C544 O539 1.258 . S
C545 O542 1.247 . S
C545 O543 1.258 . S
C546 O548 1.247 . S
C546 O550 1.258 . S
C547 O554 1.247 . S
C547 O555 1.258 . S
O548 C546 1.247 . S
O548 Zn549 2.028 . S
Zn549 O548 2.028 . S
Zn549 O553 2.035 . S
Zn549 O555 2.035 . S
Zn549 O556 2.028 . S
O550 C546 1.258 . S
O550 Zn551 2.035 . S
Zn551 O550 2.035 . S
Zn551 O552 2.028 . S
Zn551 O554 2.028 . S
Zn551 O557 2.035 . S
O552 Zn551 2.028 . S
O552 C558 1.247 . S
O553 Zn549 2.035 . S
O553 C558 1.258 . S
O554 C547 1.247 . S
O554 Zn551 2.028 . S
O555 C547 1.258 . S
O555 Zn549 2.035 . S
O556 Zn549 2.028 . S
O556 C559 1.247 . S
O557 Zn551 2.035 . S
O557 C559 1.258 . S
C558 O552 1.247 . S
C558 O553 1.258 . S
C559 O556 1.247 . S
C559 O557 1.258 . S
C560 O562 1.247 . S
C560 O564 1.258 . S
C561 O568 1.247 . S
C561 O569 1.258 . S
O562 C560 1.247 . S
O562 Zn563 2.028 . S
Zn563 O562 2.028 . S
Zn563 O567 2.035 1_556 S
Zn563 O569 2.035 1_556 S
Zn563 O570 2.028 . S
O564 C560 1.258 . S
O564 Zn565 2.035 . S
Zn565 O564 2.035 . S
Zn565 O566 2.028 1_556 S
Zn565 O568 2.028 1_556 S
Zn565 O571 2.035 . S
O566 Zn565 2.028 1_554 S
O566 C572 1.247 . S
O567 Zn563 2.035 1_554 S
O567 C572 1.258 . S
O568 C561 1.247 . S
O568 Zn565 2.028 1_554 S
O569 C561 1.258 . S
O569 Zn563 2.035 1_554 S
O570 Zn563 2.028 . S
O570 C573 1.247 . S
O571 Zn565 2.035 . S
O571 C573 1.258 . S
C572 O566 1.247 . S
C572 O567 1.258 . S
C573 O570 1.247 . S
C573 O571 1.258 . S
C574 O576 1.247 . S
C574 O578 1.258 . S
C575 O582 1.247 . S
C575 O583 1.258 . S
O576 C574 1.247 . S
O576 Zn577 2.028 . S
Zn577 O576 2.028 . S
Zn577 O581 2.035 1_554 S
Zn577 O583 2.035 1_554 S
Zn577 O584 2.028 . S
O578 C574 1.258 . S
O578 Zn579 2.035 . S
Zn579 O578 2.035 . S
Zn579 O580 2.028 1_554 S
Zn579 O582 2.028 1_554 S
Zn579 O585 2.035 . S
O580 Zn579 2.028 1_556 S
O580 C586 1.247 . S
O581 Zn577 2.035 1_556 S
O581 C586 1.258 . S
O582 C575 1.247 . S
O582 Zn579 2.028 1_556 S
O583 C575 1.258 . S
O583 Zn577 2.035 1_556 S
O584 Zn577 2.028 . S
O584 C587 1.247 . S
O585 Zn579 2.035 . S
O585 C587 1.258 . S
C586 O580 1.247 . S
C586 O581 1.258 . S
C587 O584 1.247 . S
C587 O585 1.258 . S
C588 O590 1.247 . S
C588 O592 1.258 . S
C589 O596 1.247 . S
C589 O597 1.258 . S
O590 C588 1.247 . S
O590 Zn591 2.028 . S
Zn591 O590 2.028 . S
Zn591 O595 2.035 . S
Zn591 O597 2.035 . S
Zn591 O598 2.028 . S
O592 C588 1.258 . S
O592 Zn593 2.035 . S
Zn593 O592 2.035 . S
Zn593 O594 2.028 . S
Zn593 O596 2.028 . S
Zn593 O599 2.035 . S
O594 Zn593 2.028 . S
O594 C600 1.247 . S
O595 Zn591 2.035 . S
O595 C600 1.258 . S
O596 C589 1.247 . S
O596 Zn593 2.028 . S
O597 C589 1.258 . S
O597 Zn591 2.035 . S
O598 Zn591 2.028 . S
O598 C601 1.247 . S
O599 Zn593 2.035 . S
O599 C601 1.258 . S
C600 O594 1.247 . S
C600 O595 1.258 . S
C601 O598 1.247 . S
C601 O599 1.258 . S
C602 O604 1.247 . S
C602 O606 1.258 . S
C603 O610 1.247 . S
C603 O611 1.258 . S
O604 C602 1.247 . S
O604 Zn605 2.028 . S
Zn605 O604 2.028 . S
Zn605 O609 2.035 . S
Zn605 O611 2.035 . S
Zn605 O612 2.028 . S
O606 C602 1.258 . S
O606 Zn607 2.035 . S
Zn607 O606 2.035 . S
Zn607 O608 2.028 . S
Zn607 O610 2.028 . S
Zn607 O613 2.035 . S
O608 Zn607 2.028 . S
O608 C614 1.247 . S
O609 Zn605 2.035 . S
O609 C614 1.258 . S
O610 C603 1.247 . S
O610 Zn607 2.028 . S
O611 C603 1.258 . S
O611 Zn605 2.035 . S
O612 Zn605 2.028 . S
O612 C615 1.247 . S
O613 Zn607 2.035 . S
O613 C615 1.258 . S
C614 O608 1.247 . S
C614 O609 1.258 . S
C615 O612 1.247 . S
C615 O613 1.258 . S
C616 O618 1.247 . S
C616 O620 1.258 . S
C617 O624 1.247 . S
C617 O625 1.258 . S
O618 C616 1.247 . S
O618 Zn619 2.028 . S
Zn619 O618 2.028 . S
Zn619 O623 2.035 . S
Zn619 O625 2.035 . S
Zn619 O626 2.028 . S
O620 C616 1.258 . S
O620 Zn621 2.035 . S
Zn621 O620 2.035 . S
Zn621 O622 2.028 . S
Zn621 O624 2.028 . S
Zn621 O627 2.035 . S
O622 Zn621 2.028 . S
O622 C628 1.247 . S
O623 Zn619 2.035 . S
O623 C628 1.258 . S
O624 C617 1.247 . S
O624 Zn621 2.028 . S
O625 C617 1.258 . S
O625 Zn619 2.035 . S
O626 Zn619 2.028 . S
O626 C629 1.247 . S
O627 Zn621 2.035 . S
O627 C629 1.258 . S
C628 O622 1.247 . S
C628 O623 1.258 . S
C629 O626 1.247 . S
C629 O627 1.258 . S
C630 O632 1.247 . S
C630 O634 1.258 . S
C631 O638 1.247 . S
C631 O639 1.258 . S
O632 C630 1.247 . S
O632 Zn633 2.028 . S
Zn633 O632 2.028 . S
Zn633 O637 2.035 . S
Zn633 O639 2.035 . S
Zn633 O640 2.028 . S
O634 C630 1.258 . S
O634 Zn635 2.035 . S
Zn635 O634 2.035 . S
Zn635 O636 2.028 . S
Zn635 O638 2.028 . S
Zn635 O641 2.035 . S
O636 Zn635 2.028 . S
O636 C642 1.247 . S
O637 Zn633 2.035 . S
O637 C642 1.258 . S
O638 C631 1.247 . S
O638 Zn635 2.028 . S
O639 C631 1.258 . S
O639 Zn633 2.035 . S
O640 Zn633 2.028 . S
O640 C643 1.247 . S
O641 Zn635 2.035 . S
O641 C643 1.258 . S
C642 O636 1.247 . S
C642 O637 1.258 . S
C643 O640 1.247 . S
C643 O641 1.258 . S
C644 O646 1.247 . S
C644 O648 1.258 . S
C645 O652 1.247 . S
C645 O653 1.258 . S
O646 C644 1.247 . S
O646 Zn647 2.028 . S
Zn647 O646 2.028 . S
Zn647 O651 2.035 . S
Zn647 O653 2.035 . S
Zn647 O654 2.028 . S
O648 C644 1.258 . S
O648 Zn649 2.035 . S
Zn649 O648 2.035 . S
Zn649 O650 2.028 . S
Zn649 O652 2.028 . S
Zn649 O655 2.035 . S
O650 Zn649 2.028 . S
O650 C656 1.247 . S
O651 Zn647 2.035 . S
O651 C656 1.258 . S
O652 C645 1.247 . S
O652 Zn649 2.028 . S
O653 C645 1.258 . S
O653 Zn647 2.035 . S
O654 Zn647 2.028 . S
O654 C657 1.247 . S
O655 Zn649 2.035 . S
O655 C657 1.258 . S
C656 O650 1.247 . S
C656 O651 1.258 . S
C657 O654 1.247 . S
C657 O655 1.258 . S
C658 O660 1.247 . S
C658 O662 1.258 . S
C659 O666 1.247 . S
C659 O667 1.258 . S
O660 C658 1.247 . S
O660 Zn661 2.028 . S
Zn661 O660 2.028 . S
Zn661 O665 2.035 . S
Zn661 O667 2.035 . S
Zn661 O668 2.028 . S
O662 C658 1.258 . S
O662 Zn663 2.035 . S
Zn663 O662 2.035 . S
Zn663 O664 2.028 . S
Zn663 O666 2.028 . S
Zn663 O669 2.035 . S
O664 Zn663 2.028 . S
O664 C670 1.247 . S
O665 Zn661 2.035 . S
O665 C670 1.258 . S
O666 C659 1.247 . S
O666 Zn663 2.028 . S
O667 C659 1.258 . S
O667 Zn661 2.035 . S
O668 Zn661 2.028 . S
O668 C671 1.247 . S
O669 Zn663 2.035 . S
O669 C671 1.258 . S
C670 O664 1.247 . S
C670 O665 1.258 . S
C671 O668 1.247 . S
C671 O669 1.258 . S
C672 O674 1.247 . S
C672 O676 1.258 . S
C673 O680 1.247 . S
C673 O681 1.258 . S
O674 C672 1.247 . S
O674 Zn675 2.028 . S
Zn675 O674 2.028 . S
Zn675 O679 2.035 . S
Zn675 O681 2.035 . S
Zn675 O682 2.028 . S
O676 C672 1.258 . S
O676 Zn677 2.035 . S
Zn677 O676 2.035 . S
Zn677 O678 2.028 . S
Zn677 O680 2.028 . S
Zn677 O683 2.035 . S
O678 Zn677 2.028 . S
O678 C684 1.247 . S
O679 Zn675 2.035 . S
O679 C684 1.258 . S
O680 C673 1.247 . S
O680 Zn677 2.028 . S
O681 C673 1.258 . S
O681 Zn675 2.035 . S
O682 Zn675 2.028 . S
O682 C685 1.247 . S
O683 Zn677 2.035 . S
O683 C685 1.258 . S
C684 O678 1.247 . S
C684 O679 1.258 . S
C685 O682 1.247 . S
C685 O683 1.258 . S
C686 O688 1.247 . S
C686 O690 1.258 . S
C687 O694 1.247 . S
C687 O695 1.258 . S
O688 C686 1.247 . S
O688 Zn689 2.028 . S
Zn689 O688 2.028 . S
Zn689 O693 2.035 . S
Zn689 O695 2.035 . S
Zn689 O696 2.028 . S
O690 C686 1.258 . S
O690 Zn691 2.035 . S
Zn691 O690 2.035 . S
Zn691 O692 2.028 . S
Zn691 O694 2.028 . S
Zn691 O697 2.035 . S
O692 Zn691 2.028 . S
O692 C698 1.247 . S
O693 Zn689 2.035 . S
O693 C698 1.258 . S
O694 C687 1.247 . S
O694 Zn691 2.028 . S
O695 C687 1.258 . S
O695 Zn689 2.035 . S
O696 Zn689 2.028 . S
O696 C699 1.247 . S
O697 Zn691 2.035 . S
O697 C699 1.258 . S
C698 O692 1.247 . S
C698 O693 1.258 . S
C699 O696 1.247 . S
C699 O697 1.258 . S
C700 O702 1.247 . S
C700 O704 1.258 . S
C701 O708 1.247 . S
C701 O709 1.258 . S
O702 C700 1.247 . S
O702 Zn703 2.028 . S
Zn703 O702 2.028 . S
Zn703 O707 2.035 1_655 S
Zn703 O709 2.035 1_655 S
Zn703 O710 2.028 . S
O704 C700 1.258 . S
O704 Zn705 2.035 . S
Zn705 O704 2.035 . S
Zn705 O706 2.028 1_655 S
Zn705 O708 2.028 1_655 S
Zn705 O711 2.035 . S
O706 Zn705 2.028 1_455 S
O706 C712 1.247 . S
O707 Zn703 2.035 1_455 S
O707 C712 1.258 . S
O708 C701 1.247 . S
O708 Zn705 2.028 1_455 S
O709 C701 1.258 . S
O709 Zn703 2.035 1_455 S
O710 Zn703 2.028 . S
O710 C713 1.247 . S
O711 Zn705 2.035 . S
O711 C713 1.258 . S
C712 O706 1.247 . S
C712 O707 1.258 . S
C713 O710 1.247 . S
C713 O711 1.258 . S
C714 O716 1.247 . S
C714 O718 1.258 . S
C715 O722 1.247 . S
C715 O723 1.258 . S
O716 C714 1.247 . S
O716 Zn717 2.028 . S
Zn717 O716 2.028 . S
Zn717 O721 2.035 . S
Zn717 O723 2.035 . S
Zn717 O724 2.028 . S
O718 C714 1.258 . S
O718 Zn719 2.035 . S
Zn719 O718 2.035 . S
Zn719 O720 2.028 . S
Zn719 O722 2.028 . S
Zn719 O725 2.035 . S
O720 Zn719 2.028 . S
O720 C726 1.247 . S
O721 Zn717 2.035 . S
O721 C726 1.258 . S
O722 C715 1.247 . S
O722 Zn719 2.028 . S
O723 C715 1.258 . S
O723 Zn717 2.035 . S
O724 Zn717 2.028 . S
O724 C727 1.247 . S
O725 Zn719 2.035 . S
O725 C727 1.258 . S
C726 O720 1.247 . S
C726 O721 1.258 . S
C727 O724 1.247 . S
C727 O725 1.258 . S
C728 O730 1.247 . S
C728 O732 1.258 . S
C729 O736 1.247 . S
C729 O737 1.258 . S
O730 C728 1.247 . S
O730 Zn731 2.028 . S
Zn731 O730 2.028 . S
Zn731 O735 2.035 . S
Zn731 O737 2.035 . S
Zn731 O738 2.028 . S
O732 C728 1.258 . S
O732 Zn733 2.035 . S
Zn733 O732 2.035 . S
Zn733 O734 2.028 . S
Zn733 O736 2.028 . S
Zn733 O739 2.035 . S
O734 Zn733 2.028 . S
O734 C740 1.247 . S
O735 Zn731 2.035 . S
O735 C740 1.258 . S
O736 C729 1.247 . S
O736 Zn733 2.028 . S
O737 C729 1.258 . S
O737 Zn731 2.035 . S
O738 Zn731 2.028 . S
O738 C741 1.247 . S
O739 Zn733 2.035 . S
O739 C741 1.258 . S
C740 O734 1.247 . S
C740 O735 1.258 . S
C741 O738 1.247 . S
C741 O739 1.258 . S
C742 O744 1.247 . S
C742 O746 1.258 . S
C743 O750 1.247 . S
C743 O751 1.258 . S
O744 C742 1.247 . S
O744 Zn745 2.028 . S
Zn745 O744 2.028 . S
Zn745 O749 2.035 . S
Zn745 O751 2.035 . S
Zn745 O752 2.028 . S
O746 C742 1.258 . S
O746 Zn747 2.035 . S
Zn747 O746 2.035 . S
Zn747 O748 2.028 . S
Zn747 O750 2.028 . S
Zn747 O753 2.035 . S
O748 Zn747 2.028 . S
O748 C754 1.247 . S
O749 Zn745 2.035 . S
O749 C754 1.258 . S
O750 C743 1.247 . S
O750 Zn747 2.028 . S
O751 C743 1.258 . S
O751 Zn745 2.035 . S
O752 Zn745 2.028 . S
O752 C755 1.247 . S
O753 Zn747 2.035 . S
O753 C755 1.258 . S
C754 O748 1.247 . S
C754 O749 1.258 . S
C755 O752 1.247 . S
C755 O753 1.258 . S
C756 O758 1.247 . S
C756 O760 1.258 . S
C757 O764 1.247 . S
C757 O765 1.258 . S
O758 C756 1.247 . S
O758 Zn759 2.028 . S
Zn759 O758 2.028 . S
Zn759 O763 2.035 1_655 S
Zn759 O765 2.035 1_655 S
Zn759 O766 2.028 . S
O760 C756 1.258 . S
O760 Zn761 2.035 . S
Zn761 O760 2.035 . S
Zn761 O762 2.028 1_655 S
Zn761 O764 2.028 1_655 S
Zn761 O767 2.035 . S
O762 Zn761 2.028 1_455 S
O762 C768 1.247 . S
O763 Zn759 2.035 1_455 S
O763 C768 1.258 . S
O764 C757 1.247 . S
O764 Zn761 2.028 1_455 S
O765 C757 1.258 . S
O765 Zn759 2.035 1_455 S
O766 Zn759 2.028 . S
O766 C769 1.247 . S
O767 Zn761 2.035 . S
O767 C769 1.258 . S
C768 O762 1.247 . S
C768 O763 1.258 . S
C769 O766 1.247 . S
C769 O767 1.258 . S
C770 O772 1.247 . S
C770 O774 1.258 . S
C771 O778 1.247 . S
C771 O779 1.258 . S
O772 C770 1.247 . S
O772 Zn773 2.028 . S
Zn773 O772 2.028 . S
Zn773 O777 2.035 . S
Zn773 O779 2.035 . S
Zn773 O780 2.028 . S
O774 C770 1.258 . S
O774 Zn775 2.035 . S
Zn775 O774 2.035 . S
Zn775 O776 2.028 . S
Zn775 O778 2.028 . S
Zn775 O781 2.035 . S
O776 Zn775 2.028 . S
O776 C782 1.247 . S
O777 Zn773 2.035 . S
O777 C782 1.258 . S
O778 C771 1.247 . S
O778 Zn775 2.028 . S
O779 C771 1.258 . S
O779 Zn773 2.035 . S
O780 Zn773 2.028 . S
O780 C783 1.247 . S
O781 Zn775 2.035 . S
O781 C783 1.258 . S
C782 O776 1.247 . S
C782 O777 1.258 . S
C783 O780 1.247 . S
C783 O781 1.258 . S
C784 O786 1.247 . S
C784 O788 1.258 . S
C785 O792 1.247 . S
C785 O793 1.258 . S
O786 C784 1.247 . S
O786 Zn787 2.028 . S
Zn787 O786 2.028 . S
Zn787 O791 2.035 . S
Zn787 O793 2.035 . S
Zn787 O794 2.028 . S
O788 C784 1.258 . S
O788 Zn789 2.035 . S
Zn789 O788 2.035 . S
Zn789 O790 2.028 . S
Zn789 O792 2.028 . S
Zn789 O795 2.035 . S
O790 Zn789 2.028 . S
O790 C796 1.247 . S
O791 Zn787 2.035 . S
O791 C796 1.258 . S
O792 C785 1.247 . S
O792 Zn789 2.028 . S
O793 C785 1.258 . S
O793 Zn787 2.035 . S
O794 Zn787 2.028 . S
O794 C797 1.247 . S
O795 Zn789 2.035 . S
O795 C797 1.258 . S
C796 O790 1.247 . S
C796 O791 1.258 . S
C797 O794 1.247 . S
C797 O795 1.258 . S
C798 O800 1.247 . S
C798 O802 1.258 . S
C799 O806 1.247 . S
C799 O807 1.258 . S
O800 C798 1.247 . S
O800 Zn801 2.028 . S
Zn801 O800 2.028 . S
Zn801 O805 2.035 . S
Zn801 O807 2.035 . S
Zn801 O808 2.028 . S
O802 C798 1.258 . S
O802 Zn803 2.035 . S
Zn803 O802 2.035 . S
Zn803 O804 2.028 . S
Zn803 O806 2.028 . S
Zn803 O809 2.035 . S
O804 Zn803 2.028 . S
O804 C810 1.247 . S
O805 Zn801 2.035 . S
O805 C810 1.258 . S
O806 C799 1.247 . S
O806 Zn803 2.028 . S
O807 C799 1.258 . S
O807 Zn801 2.035 . S
O808 Zn801 2.028 . S
O808 C811 1.247 . S
O809 Zn803 2.035 . S
O809 C811 1.258 . S
C810 O804 1.247 . S
C810 O805 1.258 . S
C811 O808 1.247 . S
C811 O809 1.258 . S
C812 O814 1.247 . S
C812 O816 1.258 . S
C813 O820 1.247 . S
C813 O821 1.258 . S
O814 C812 1.247 . S
O814 Zn815 2.028 . S
Zn815 O814 2.028 . S
Zn815 O819 2.035 . S
Zn815 O821 2.035 . S
Zn815 O822 2.028 . S
O816 C812 1.258 . S
O816 Zn817 2.035 . S
Zn817 O816 2.035 . S
Zn817 O818 2.028 . S
Zn817 O820 2.028 . S
Zn817 O823 2.035 . S
O818 Zn817 2.028 . S
O818 C824 1.247 . S
O819 Zn815 2.035 . S
O819 C824 1.258 . S
O820 C813 1.247 . S
O820 Zn817 2.028 . S
O821 C813 1.258 . S
O821 Zn815 2.035 . S
O822 Zn815 2.028 . S
O822 C825 1.247 . S
O823 Zn817 2.035 . S
O823 C825 1.258 . S
C824 O818 1.247 . S
C824 O819 1.258 . S
C825 O822 1.247 . S
C825 O823 1.258 . S
C826 O828 1.247 . S
C826 O830 1.258 . S
C827 O834 1.247 . S
C827 O835 1.258 . S
O828 C826 1.247 . S
O828 Zn829 2.028 . S
Zn829 O828 2.028 . S
Zn829 O833 2.035 . S
Zn829 O835 2.035 . S
Zn829 O836 2.028 . S
O830 C826 1.258 . S
O830 Zn831 2.035 . S
Zn831 O830 2.035 . S
Zn831 O832 2.028 . S
Zn831 O834 2.028 . S
Zn831 O837 2.035 . S
O832 Zn831 2.028 . S
O832 C838 1.247 . S
O833 Zn829 2.035 . S
O833 C838 1.258 . S
O834 C827 1.247 . S
O834 Zn831 2.028 . S
O835 C827 1.258 . S
O835 Zn829 2.035 . S
O836 Zn829 2.028 . S
O836 C839 1.247 . S
O837 Zn831 2.035 . S
O837 C839 1.258 . S
C838 O832 1.247 . S
C838 O833 1.258 . S
C839 O836 1.247 . S
C839 O837 1.258 . S
C840 O842 1.247 . S
C840 O844 1.258 . S
C841 O848 1.247 . S
C841 O849 1.258 . S
O842 C840 1.247 . S
O842 Zn843 2.028 . S
Zn843 O842 2.028 . S
Zn843 O847 2.035 . S
Zn843 O849 2.035 . S
Zn843 O850 2.028 . S
O844 C840 1.258 . S
O844 Zn845 2.035 . S
Zn845 O844 2.035 . S
Zn845 O846 2.028 . S
Zn845 O848 2.028 . S
Zn845 O851 2.035 . S
O846 Zn845 2.028 . S
O846 C852 1.247 . S
O847 Zn843 2.035 . S
O847 C852 1.258 . S
O848 C841 1.247 . S
O848 Zn845 2.028 . S
O849 C841 1.258 . S
O849 Zn843 2.035 . S
O850 Zn843 2.028 . S
O850 C853 1.247 . S
O851 Zn845 2.035 . S
O851 C853 1.258 . S
C852 O846 1.247 . S
C852 O847 1.258 . S
C853 O850 1.247 . S
C853 O851 1.258 . S
C854 O856 1.247 . S
C854 O858 1.258 . S
C855 O862 1.247 . S
C855 O863 1.258 . S
O856 C854 1.247 . S
O856 Zn857 2.028 . S
Zn857 O856 2.028 . S
Zn857 O861 2.035 . S
Zn857 O863 2.035 . S
Zn857 O864 2.028 . S
O858 C854 1.258 . S
O858 Zn859 2.035 . S
Zn859 O858 2.035 . S
Zn859 O860 2.028 . S
Zn859 O862 2.028 . S
Zn859 O865 2.035 . S
O860 Zn859 2.028 . S
O860 C866 1.247 . S
O861 Zn857 2.035 . S
O861 C866 1.258 . S
O862 C855 1.247 . S
O862 Zn859 2.028 . S
O863 C855 1.258 . S
O863 Zn857 2.035 . S
O864 Zn857 2.028 . S
O864 C867 1.247 . S
O865 Zn859 2.035 . S
O865 C867 1.258 . S
C866 O860 1.247 . S
C866 O861 1.258 . S
C867 O864 1.247 . S
C867 O865 1.258 . S
C868 O870 1.247 . S
C868 O872 1.258 . S
C869 O876 1.247 . S
C869 O877 1.258 . S
O870 C868 1.247 . S
O870 Zn871 2.028 . S
Zn871 O870 2.028 . S
Zn871 O875 2.035 . S
Zn871 O877 2.035 . S
Zn871 O878 2.028 . S
O872 C868 1.258 . S
O872 Zn873 2.035 . S
Zn873 O872 2.035 . S
Zn873 O874 2.028 . S
Zn873 O876 2.028 . S
Zn873 O879 2.035 . S
O874 Zn873 2.028 . S
O874 C880 1.247 . S
O875 Zn871 2.035 . S
O875 C880 1.258 . S
O876 C869 1.247 . S
O876 Zn873 2.028 . S
O877 C869 1.258 . S
O877 Zn871 2.035 . S
O878 Zn871 2.028 . S
O878 C881 1.247 . S
O879 Zn873 2.035 . S
O879 C881 1.258 . S
C880 O874 1.247 . S
C880 O875 1.258 . S
C881 O878 1.247 . S
C881 O879 1.258 . S
C882 O884 1.247 . S
C882 O886 1.258 . S
C883 O890 1.247 . S
C883 O891 1.258 . S
O884 C882 1.247 . S
O884 Zn885 2.028 . S
Zn885 O884 2.028 . S
Zn885 O889 2.035 . S
Zn885 O891 2.035 . S
Zn885 O892 2.028 . S
O886 C882 1.258 . S
O886 Zn887 2.035 . S
Zn887 O886 2.035 . S
Zn887 O888 2.028 . S
Zn887 O890 2.028 . S
Zn887 O893 2.035 . S
O888 Zn887 2.028 . S
O888 C894 1.247 . S
O889 Zn885 2.035 . S
O889 C894 1.258 . S
O890 C883 1.247 . S
O890 Zn887 2.028 . S
O891 C883 1.258 . S
O891 Zn885 2.035 . S
O892 Zn885 2.028 . S
O892 C895 1.247 . S
O893 Zn887 2.035 . S
O893 C895 1.258 . S
C894 O888 1.247 . S
C894 O889 1.258 . S
C895 O892 1.247 . S
C895 O893 1.258 . S
C896 O898 1.247 . S
C896 O900 1.258 . S
C897 O904 1.247 . S
C897 O905 1.258 . S
O898 C896 1.247 . S
O898 Zn899 2.028 . S
Zn899 O898 2.028 . S
Zn899 O903 2.035 . S
Zn899 O905 2.035 . S
Zn899 O906 2.028 . S
O900 C896 1.258 . S
O900 Zn901 2.035 . S
Zn901 O900 2.035 . S
Zn901 O902 2.028 . S
Zn901 O904 2.028 . S
Zn901 O907 2.035 . S
O902 Zn901 2.028 . S
O902 C908 1.247 . S
O903 Zn899 2.035 . S
O903 C908 1.258 . S
O904 C897 1.247 . S
O904 Zn901 2.028 . S
O905 C897 1.258 . S
O905 Zn899 2.035 . S
O906 Zn899 2.028 . S
O906 C909 1.247 . S
O907 Zn901 2.035 . S
O907 C909 1.258 . S
C908 O902 1.247 . S
C908 O903 1.258 . S
C909 O906 1.247 . S
C909 O907 1.258 . S
C910 O912 1.247 . S
C910 O914 1.258 . S
C911 O918 1.247 . S
C911 O919 1.258 . S
O912 C910 1.247 . S
O912 Zn913 2.028 . S
Zn913 O912 2.028 . S
Zn913 O917 2.035 . S
Zn913 O919 2.035 . S
Zn913 O920 2.028 . S
O914 C910 1.258 . S
O914 Zn915 2.035 . S
Zn915 O914 2.035 . S
Zn915 O916 2.028 . S
Zn915 O918 2.028 . S
Zn915 O921 2.035 . S
O916 Zn915 2.028 . S
O916 C922 1.247 . S
O917 Zn913 2.035 . S
O917 C922 1.258 . S
O918 C911 1.247 . S
O918 Zn915 2.028 . S
O919 C911 1.258 . S
O919 Zn913 2.035 . S
O920 Zn913 2.028 . S
O920 C923 1.247 . S
O921 Zn915 2.035 . S
O921 C923 1.258 . S
C922 O916 1.247 . S
C922 O917 1.258 . S
C923 O920 1.247 . S
C923 O921 1.258 . S
C924 O926 1.247 . S
C924 O928 1.258 . S
C925 O932 1.247 . S
C925 O933 1.258 . S
O926 C924 1.247 . S
O926 Zn927 2.028 . S
Zn927 O926 2.028 . S
Zn927 O931 2.035 . S
Zn927 O933 2.035 . S
Zn927 O934 2.028 . S
O928 C924 1.258 . S
O928 Zn929 2.035 . S
Zn929 O928 2.035 . S
Zn929 O930 2.028 . S
Zn929 O932 2.028 . S
Zn929 O935 2.035 . S
O930 Zn929 2.028 . S
O930 C936 1.247 . S
O931 Zn927 2.035 . S
O931 C936 1.258 . S
O932 C925 1.247 . S
O932 Zn929 2.028 . S
O933 C925 1.258 . S
O933 Zn927 2.035 . S
O934 Zn927 2.028 . S
O934 C937 1.247 . S
O935 Zn929 2.035 . S
O935 C937 1.258 . S
C936 O930 1.247 . S
C936 O931 1.258 . S
C937 O934 1.247 . S
C937 O935 1.258 . S
C938 O940 1.247 . S
C938 O942 1.258 . S
C939 O946 1.247 . S
C939 O947 1.258 . S
O940 C938 1.247 . S
O940 Zn941 2.028 1_554 S
Zn941 O940 2.028 1_556 S
Zn941 O945 2.035 . S
Zn941 O947 2.035 . S
Zn941 O948 2.028 1_556 S
O942 C938 1.258 . S
O942 Zn943 2.035 1_554 S
Zn943 O942 2.035 1_556 S
Zn943 O944 2.028 . S
Zn943 O946 2.028 . S
Zn943 O949 2.035 1_556 S
O944 Zn943 2.028 . S
O944 C950 1.247 . S
O945 Zn941 2.035 . S
O945 C950 1.258 . S
O946 C939 1.247 . S
O946 Zn943 2.028 . S
O947 C939 1.258 . S
O947 Zn941 2.035 . S
O948 Zn941 2.028 1_554 S
O948 C951 1.247 . S
O949 Zn943 2.035 1_554 S
O949 C951 1.258 . S
C950 O944 1.247 . S
C950 O945 1.258 . S
C951 O948 1.247 . S
C951 O949 1.258 . S
C952 O954 1.247 . S
C952 O956 1.258 . S
C953 O960 1.247 . S
C953 O961 1.258 . S
O954 C952 1.247 . S
O954 Zn955 2.028 . S
Zn955 O954 2.028 . S
Zn955 O959 2.035 . S
Zn955 O961 2.035 . S
Zn955 O962 2.028 . S
O956 C952 1.258 . S
O956 Zn957 2.035 . S
Zn957 O956 2.035 . S
Zn957 O958 2.028 . S
Zn957 O960 2.028 . S
Zn957 O963 2.035 . S
O958 Zn957 2.028 . S
O958 C964 1.247 . S
O959 Zn955 2.035 . S
O959 C964 1.258 . S
O960 C953 1.247 . S
O960 Zn957 2.028 . S
O961 C953 1.258 . S
O961 Zn955 2.035 . S
O962 Zn955 2.028 . S
O962 C965 1.247 . S
O963 Zn957 2.035 . S
O963 C965 1.258 . S
C964 O958 1.247 . S
C964 O959 1.258 . S
C965 O962 1.247 . S
C965 O963 1.258 . S
C966 O968 1.247 . S
C966 O970 1.258 . S
C967 O974 1.247 . S
C967 O975 1.258 . S
O968 C966 1.247 . S
O968 Zn969 2.028 1_556 S
Zn969 O968 2.028 1_554 S
Zn969 O973 2.035 . S
Zn969 O975 2.035 . S
Zn969 O976 2.028 1_554 S
O970 C966 1.258 . S
O970 Zn971 2.035 1_556 S
Zn971 O970 2.035 1_554 S
Zn971 O972 2.028 . S
Zn971 O974 2.028 . S
Zn971 O977 2.035 1_554 S
O972 Zn971 2.028 . S
O972 C978 1.247 . S
O973 Zn969 2.035 . S
O973 C978 1.258 . S
O974 C967 1.247 . S
O974 Zn971 2.028 . S
O975 C967 1.258 . S
O975 Zn969 2.035 . S
O976 Zn969 2.028 1_556 S
O976 C979 1.247 . S
O977 Zn971 2.035 1_556 S
O977 C979 1.258 . S
C978 O972 1.247 . S
C978 O973 1.258 . S
C979 O976 1.247 . S
C979 O977 1.258 . S
C980 O982 1.247 . S
C980 O984 1.258 . S
C981 O988 1.247 . S
C981 O989 1.258 . S
O982 C980 1.247 . S
O982 Zn983 2.028 . S
Zn983 O982 2.028 . S
Zn983 O987 2.035 . S
Zn983 O989 2.035 . S
Zn983 O990 2.028 . S
O984 C980 1.258 . S
O984 Zn985 2.035 . S
Zn985 O984 2.035 . S
Zn985 O986 2.028 . S
Zn985 O988 2.028 . S
Zn985 O991 2.035 . S
O986 Zn985 2.028 . S
O986 C992 1.247 . S
O987 Zn983 2.035 . S
O987 C992 1.258 . S
O988 C981 1.247 . S
O988 Zn985 2.028 . S
O989 C981 1.258 . S
O989 Zn983 2.035 . S
O990 Zn983 2.028 . S
O990 C993 1.247 . S
O991 Zn985 2.035 . S
O991 C993 1.258 . S
C992 O986 1.247 . S
C992 O987 1.258 . S
C993 O990 1.247 . S
C993 O991 1.258 . S
C994 O996 1.247 . S
C994 O998 1.258 . S
C995 O1002 1.247 . S
C995 O1003 1.258 . S
O996 C994 1.247 . S
O996 Zn997 2.028 . S
Zn997 O996 2.028 . S
Zn997 O1001 2.035 . S
Zn997 O1003 2.035 . S
Zn997 O1004 2.028 . S
O998 C994 1.258 . S
O998 Zn999 2.035 . S
Zn999 O998 2.035 . S
Zn999 O1000 2.028 . S
Zn999 O1002 2.028 . S
Zn999 O1005 2.035 . S
O1000 Zn999 2.028 . S
O1000 C1006 1.247 . S
O1001 Zn997 2.035 . S
O1001 C1006 1.258 . S
O1002 C995 1.247 . S
O1002 Zn999 2.028 . S
O1003 C995 1.258 . S
O1003 Zn997 2.035 . S
O1004 Zn997 2.028 . S
O1004 C1007 1.247 . S
O1005 Zn999 2.035 . S
O1005 C1007 1.258 . S
C1006 O1000 1.247 . S
C1006 O1001 1.258 . S
C1007 O1004 1.247 . S
C1007 O1005 1.258 . S
C1008 O1010 1.247 . S
C1008 O1012 1.258 . S
C1009 O1016 1.247 . S
C1009 O1017 1.258 . S
O1010 C1008 1.247 . S
O1010 Zn1011 2.028 . S
Zn1011 O1010 2.028 . S
Zn1011 O1015 2.035 . S
Zn1011 O1017 2.035 . S
Zn1011 O1018 2.028 . S
O1012 C1008 1.258 . S
O1012 Zn1013 2.035 . S
Zn1013 O1012 2.035 . S
Zn1013 O1014 2.028 . S
Zn1013 O1016 2.028 . S
Zn1013 O1019 2.035 . S
O1014 Zn1013 2.028 . S
O1014 C1020 1.247 . S
O1015 Zn1011 2.035 . S
O1015 C1020 1.258 . S
O1016 C1009 1.247 . S
O1016 Zn1013 2.028 . S
O1017 C1009 1.258 . S
O1017 Zn1011 2.035 . S
O1018 Zn1011 2.028 . S
O1018 C1021 1.247 . S
O1019 Zn1013 2.035 . S
O1019 C1021 1.258 . S
C1020 O1014 1.247 . S
C1020 O1015 1.258 . S
C1021 O1018 1.247 . S
C1021 O1019 1.258 . S
C1022 O1024 1.247 . S
C1022 O1026 1.258 . S
C1023 O1030 1.247 . S
C1023 O1031 1.258 . S
O1024 C1022 1.247 . S
O1024 Zn1025 2.028 . S
Zn1025 O1024 2.028 . S
Zn1025 O1029 2.035 . S
Zn1025 O1031 2.035 . S
Zn1025 O1032 2.028 . S
O1026 C1022 1.258 . S
O1026 Zn1027 2.035 . S
Zn1027 O1026 2.035 . S
Zn1027 O1028 2.028 . S
Zn1027 O1030 2.028 . S
Zn1027 O1033 2.035 . S
O1028 Zn1027 2.028 . S
O1028 C1034 1.247 . S
O1029 Zn1025 2.035 . S
O1029 C1034 1.258 . S
O1030 C1023 1.247 . S
O1030 Zn1027 2.028 . S
O1031 C1023 1.258 . S
O1031 Zn1025 2.035 . S
O1032 Zn1025 2.028 . S
O1032 C1035 1.247 . S
O1033 Zn1027 2.035 . S
O1033 C1035 1.258 . S
C1034 O1028 1.247 . S
C1034 O1029 1.258 . S
C1035 O1032 1.247 . S
C1035 O1033 1.258 . S
C1036 O1038 1.247 . S
C1036 O1040 1.258 . S
C1037 O1044 1.247 . S
C1037 O1045 1.258 . S
O1038 C1036 1.247 . S
O1038 Zn1039 2.028 1_655 S
Zn1039 O1038 2.028 1_455 S
Zn1039 O1043 2.035 . S
Zn1039 O1045 2.035 . S
Zn1039 O1046 2.028 1_455 S
O1040 C1036 1.258 . S
O1040 Zn1041 2.035 1_655 S
Zn1041 O1040 2.035 1_455 S
Zn1041 O1042 2.028 . S
Zn1041 O1044 2.028 . S
Zn1041 O1047 2.035 1_455 S
O1042 Zn1041 2.028 . S
O1042 C1048 1.247 . S
O1043 Zn1039 2.035 . S
O1043 C1048 1.258 . S
O1044 C1037 1.247 . S
O1044 Zn1041 2.028 . S
O1045 C1037 1.258 . S
O1045 Zn1039 2.035 . S
O1046 Zn1039 2.028 1_655 S
O1046 C1049 1.247 . S
O1047 Zn1041 2.035 1_655 S
O1047 C1049 1.258 . S
C1048 O1042 1.247 . S
C1048 O1043 1.258 . S
C1049 O1046 1.247 . S
C1049 O1047 1.258 . S
C1050 O1052 1.247 . S
C1050 O1054 1.258 . S
C1051 O1058 1.247 . S
C1051 O1059 1.258 . S
O1052 C1050 1.247 . S
O1052 Zn1053 2.028 . S
Zn1053 O1052 2.028 . S
Zn1053 O1057 2.035 . S
Zn1053 O1059 2.035 . S
Zn1053 O1060 2.028 . S
O1054 C1050 1.258 . S
O1054 Zn1055 2.035 . S
Zn1055 O1054 2.035 . S
Zn1055 O1056 2.028 . S
Zn1055 O1058 2.028 . S
Zn1055 O1061 2.035 . S
O1056 Zn1055 2.028 . S
O1056 C1062 1.247 . S
O1057 Zn1053 2.035 . S
O1057 C1062 1.258 . S
O1058 C1051 1.247 . S
O1058 Zn1055 2.028 . S
O1059 C1051 1.258 . S
O1059 Zn1053 2.035 . S
O1060 Zn1053 2.028 . S
O1060 C1063 1.247 . S
O1061 Zn1055 2.035 . S
O1061 C1063 1.258 . S
C1062 O1056 1.247 . S
C1062 O1057 1.258 . S
C1063 O1060 1.247 . S
C1063 O1061 1.258 . S
C1064 O1066 1.247 . S
C1064 O1068 1.258 . S
C1065 O1072 1.247 . S
C1065 O1073 1.258 . S
O1066 C1064 1.247 . S
O1066 Zn1067 2.028 . S
Zn1067 O1066 2.028 . S
Zn1067 O1071 2.035 . S
Zn1067 O1073 2.035 . S
Zn1067 O1074 2.028 . S
O1068 C1064 1.258 . S
O1068 Zn1069 2.035 . S
Zn1069 O1068 2.035 . S
Zn1069 O1070 2.028 . S
Zn1069 O1072 2.028 . S
Zn1069 O1075 2.035 . S
O1070 Zn1069 2.028 . S
O1070 C1076 1.247 . S
O1071 Zn1067 2.035 . S
O1071 C1076 1.258 . S
O1072 C1065 1.247 . S
O1072 Zn1069 2.028 . S
O1073 C1065 1.258 . S
O1073 Zn1067 2.035 . S
O1074 Zn1067 2.028 . S
O1074 C1077 1.247 . S
O1075 Zn1069 2.035 . S
O1075 C1077 1.258 . S
C1076 O1070 1.247 . S
C1076 O1071 1.258 . S
C1077 O1074 1.247 . S
C1077 O1075 1.258 . S
C1078 O1080 1.247 . S
C1078 O1082 1.258 . S
C1079 O1086 1.247 . S
C1079 O1087 1.258 . S
O1080 C1078 1.247 . S
O1080 Zn1081 2.028 . S
Zn1081 O1080 2.028 . S
Zn1081 O1085 2.035 . S
Zn1081 O1087 2.035 . S
Zn1081 O1088 2.028 . S
O1082 C1078 1.258 . S
O1082 Zn1083 2.035 . S
Zn1083 O1082 2.035 . S
Zn1083 O1084 2.028 . S
Zn1083 O1086 2.028 . S
Zn1083 O1089 2.035 . S
O1084 Zn1083 2.028 . S
O1084 C1090 1.247 . S
O1085 Zn1081 2.035 . S
O1085 C1090 1.258 . S
O1086 C1079 1.247 . S
O1086 Zn1083 2.028 . S
O1087 C1079 1.258 . S
O1087 Zn1081 2.035 . S
O1088 Zn1081 2.028 . S
O1088 C1091 1.247 . S
O1089 Zn1083 2.035 . S
O1089 C1091 1.258 . S
C1090 O1084 1.247 . S
C1090 O1085 1.258 . S
C1091 O1088 1.247 . S
C1091 O1089 1.258 . S
C1092 O1094 1.247 . S
C1092 O1096 1.258 . S
C1093 O1100 1.247 . S
C1093 O1101 1.258 . S
O1094 C1092 1.247 . S
O1094 Zn1095 2.028 1_655 S
Zn1095 O1094 2.028 1_455 S
Zn1095 O1099 2.035 . S
Zn1095 O1101 2.035 . S
Zn1095 O1102 2.028 1_455 S
O1096 C1092 1.258 . S
O1096 Zn1097 2.035 1_655 S
Zn1097 O1096 2.035 1_455 S
Zn1097 O1098 2.028 . S
Zn1097 O1100 2.028 . S
Zn1097 O1103 2.035 1_455 S
O1098 Zn1097 2.028 . S
O1098 C1104 1.247 . S
O1099 Zn1095 2.035 . S
O1099 C1104 1.258 . S
O1100 C1093 1.247 . S
O1100 Zn1097 2.028 . S
O1101 C1093 1.258 . S
O1101 Zn1095 2.035 . S
O1102 Zn1095 2.028 1_655 S
O1102 C1105 1.247 . S
O1103 Zn1097 2.035 1_655 S
O1103 C1105 1.258 . S
C1104 O1098 1.247 . S
C1104 O1099 1.258 . S
C1105 O1102 1.247 . S
C1105 O1103 1.258 . S
C1106 O1108 1.247 . S
C1106 O1110 1.258 . S
C1107 O1114 1.247 . S
C1107 O1115 1.258 . S
O1108 C1106 1.247 . S
O1108 Zn1109 2.028 . S
Zn1109 O1108 2.028 . S
Zn1109 O1113 2.035 . S
Zn1109 O1115 2.035 . S
Zn1109 O1116 2.028 . S
O1110 C1106 1.258 . S
O1110 Zn1111 2.035 . S
Zn1111 O1110 2.035 . S
Zn1111 O1112 2.028 . S
Zn1111 O1114 2.028 . S
Zn1111 O1117 2.035 . S
O1112 Zn1111 2.028 . S
O1112 C1118 1.247 . S
O1113 Zn1109 2.035 . S
O1113 C1118 1.258 . S
O1114 C1107 1.247 . S
O1114 Zn1111 2.028 . S
O1115 C1107 1.258 . S
O1115 Zn1109 2.035 . S
O1116 Zn1109 2.028 . S
O1116 C1119 1.247 . S
O1117 Zn1111 2.035 . S
O1117 C1119 1.258 . S
C1118 O1112 1.247 . S
C1118 O1113 1.258 . S
C1119 O1116 1.247 . S
C1119 O1117 1.258 . S
C1120 O1122 1.247 . S
C1120 O1124 1.258 . S
C1121 O1128 1.247 . S
C1121 O1129 1.258 . S
O1122 C1120 1.247 . S
O1122 Zn1123 2.028 . S
Zn1123 O1122 2.028 . S
Zn1123 O1127 2.035 . S
Zn1123 O1129 2.035 . S
Zn1123 O1130 2.028 . S
O1124 C1120 1.258 . S
O1124 Zn1125 2.035 . S
Zn1125 O1124 2.035 . S
Zn1125 O1126 2.028 . S
Zn1125 O1128 2.028 . S
Zn1125 O1131 2.035 . S
O1126 Zn1125 2.028 . S
O1126 C1132 1.247 . S
O1127 Zn1123 2.035 . S
O1127 C1132 1.258 . S
O1128 C1121 1.247 . S
O1128 Zn1125 2.028 . S
O1129 C1121 1.258 . S
O1129 Zn1123 2.035 . S
O1130 Zn1123 2.028 . S
O1130 C1133 1.247 . S
O1131 Zn1125 2.035 . S
O1131 C1133 1.258 . S
C1132 O1126 1.247 . S
C1132 O1127 1.258 . S
C1133 O1130 1.247 . S
C1133 O1131 1.258 . S
C1134 O1136 1.247 . S
C1134 O1138 1.258 . S
C1135 O1142 1.247 . S
C1135 O1143 1.258 . S
O1136 C1134 1.247 . S
O1136 Zn1137 2.028 . S
Zn1137 O1136 2.028 . S
Zn1137 O1141 2.035 . S
Zn1137 O1143 2.035 . S
Zn1137 O1144 2.028 . S
O1138 C1134 1.258 . S
O1138 Zn1139 2.035 . S
Zn1139 O1138 2.035 . S
Zn1139 O1140 2.028 . S
Zn1139 O1142 2.028 . S
Zn1139 O1145 2.035 . S
O1140 Zn1139 2.028 . S
O1140 C1146 1.247 . S
O1141 Zn1137 2.035 . S
O1141 C1146 1.258 . S
O1142 C1135 1.247 . S
O1142 Zn1139 2.028 . S
O1143 C1135 1.258 . S
O1143 Zn1137 2.035 . S
O1144 Zn1137 2.028 . S
O1144 C1147 1.247 . S
O1145 Zn1139 2.035 . S
O1145 C1147 1.258 . S
C1146 O1140 1.247 . S
C1146 O1141 1.258 . S
C1147 O1144 1.247 . S
C1147 O1145 1.258 . S
C1148 O1150 1.247 . S
C1148 O1152 1.258 . S
C1149 O1156 1.247 . S
C1149 O1157 1.258 . S
O1150 C1148 1.247 . S
O1150 Zn1151 2.028 . S
Zn1151 O1150 2.028 . S
Zn1151 O1155 2.035 . S
Zn1151 O1157 2.035 . S
Zn1151 O1158 2.028 . S
O1152 C1148 1.258 . S
O1152 Zn1153 2.035 . S
Zn1153 O1152 2.035 . S
Zn1153 O1154 2.028 . S
Zn1153 O1156 2.028 . S
Zn1153 O1159 2.035 . S
O1154 Zn1153 2.028 . S
O1154 C1160 1.247 . S
O1155 Zn1151 2.035 . S
O1155 C1160 1.258 . S
O1156 C1149 1.247 . S
O1156 Zn1153 2.028 . S
O1157 C1149 1.258 . S
O1157 Zn1151 2.035 . S
O1158 Zn1151 2.028 . S
O1158 C1161 1.247 . S
O1159 Zn1153 2.035 . S
O1159 C1161 1.258 . S
C1160 O1154 1.247 . S
C1160 O1155 1.258 . S
C1161 O1158 1.247 . S
C1161 O1159 1.258 . S
C1162 O1164 1.247 . S
C1162 O1166 1.258 . S
C1163 O1170 1.247 . S
C1163 O1171 1.258 . S
O1164 C1162 1.247 . S
O1164 Zn1165 2.028 . S
Zn1165 O1164 2.028 . S
Zn1165 O1169 2.035 . S
Zn1165 O1171 2.035 . S
Zn1165 O1172 2.028 . S
O1166 C1162 1.258 . S
O1166 Zn1167 2.035 . S
Zn1167 O1166 2.035 . S
Zn1167 O1168 2.028 . S
Zn1167 O1170 2.028 . S
Zn1167 O1173 2.035 . S
O1168 Zn1167 2.028 . S
O1168 C1174 1.247 . S
O1169 Zn1165 2.035 . S
O1169 C1174 1.258 . S
O1170 C1163 1.247 . S
O1170 Zn1167 2.028 . S
O1171 C1163 1.258 . S
O1171 Zn1165 2.035 . S
O1172 Zn1165 2.028 . S
O1172 C1175 1.247 . S
O1173 Zn1167 2.035 . S
O1173 C1175 1.258 . S
C1174 O1168 1.247 . S
C1174 O1169 1.258 . S
C1175 O1172 1.247 . S
C1175 O1173 1.258 . S
C1176 O1178 1.247 . S
C1176 O1180 1.258 . S
C1177 O1184 1.247 . S
C1177 O1185 1.258 . S
O1178 C1176 1.247 . S
O1178 Zn1179 2.028 . S
Zn1179 O1178 2.028 . S
Zn1179 O1183 2.035 . S
Zn1179 O1185 2.035 . S
Zn1179 O1186 2.028 . S
O1180 C1176 1.258 . S
O1180 Zn1181 2.035 . S
Zn1181 O1180 2.035 . S
Zn1181 O1182 2.028 . S
Zn1181 O1184 2.028 . S
Zn1181 O1187 2.035 . S
O1182 Zn1181 2.028 . S
O1182 C1188 1.247 . S
O1183 Zn1179 2.035 . S
O1183 C1188 1.258 . S
O1184 C1177 1.247 . S
O1184 Zn1181 2.028 . S
O1185 C1177 1.258 . S
O1185 Zn1179 2.035 . S
O1186 Zn1179 2.028 . S
O1186 C1189 1.247 . S
O1187 Zn1181 2.035 . S
O1187 C1189 1.258 . S
C1188 O1182 1.247 . S
C1188 O1183 1.258 . S
C1189 O1186 1.247 . S
C1189 O1187 1.258 . S
C1190 O1192 1.247 . S
C1190 O1194 1.258 . S
C1191 O1198 1.247 . S
C1191 O1199 1.258 . S
O1192 C1190 1.247 . S
O1192 Zn1193 2.028 . S
Zn1193 O1192 2.028 . S
Zn1193 O1197 2.035 . S
Zn1193 O1199 2.035 . S
Zn1193 O1200 2.028 . S
O1194 C1190 1.258 . S
O1194 Zn1195 2.035 . S
Zn1195 O1194 2.035 . S
Zn1195 O1196 2.028 . S
Zn1195 O1198 2.028 . S
Zn1195 O1201 2.035 . S
O1196 Zn1195 2.028 . S
O1196 C1202 1.247 . S
O1197 Zn1193 2.035 . S
O1197 C1202 1.258 . S
O1198 C1191 1.247 . S
O1198 Zn1195 2.028 . S
O1199 C1191 1.258 . S
O1199 Zn1193 2.035 . S
O1200 Zn1193 2.028 . S
O1200 C1203 1.247 . S
O1201 Zn1195 2.035 . S
O1201 C1203 1.258 . S
C1202 O1196 1.247 . S
C1202 O1197 1.258 . S
C1203 O1200 1.247 . S
C1203 O1201 1.258 . S
C1204 O1206 1.247 . S
C1204 O1208 1.258 . S
C1205 O1212 1.247 . S
C1205 O1213 1.258 . S
O1206 C1204 1.247 . S
O1206 Zn1207 2.028 . S
Zn1207 O1206 2.028 . S
Zn1207 O1211 2.035 . S
Zn1207 O1213 2.035 . S
Zn1207 O1214 2.028 . S
O1208 C1204 1.258 . S
O1208 Zn1209 2.035 . S
Zn1209 O1208 2.035 . S
Zn1209 O1210 2.028 . S
Zn1209 O1212 2.028 . S
Zn1209 O1215 2.035 . S
O1210 Zn1209 2.028 . S
O1210 C1216 1.247 . S
O1211 Zn1207 2.035 . S
O1211 C1216 1.258 . S
O1212 C1205 1.247 . S
O1212 Zn1209 2.028 . S
O1213 C1205 1.258 . S
O1213 Zn1207 2.035 . S
O1214 Zn1207 2.028 . S
O1214 C1217 1.247 . S
O1215 Zn1209 2.035 . S
O1215 C1217 1.258 . S
C1216 O1210 1.247 . S
C1216 O1211 1.258 . S
C1217 O1214 1.247 . S
C1217 O1215 1.258 . S
C1218 O1220 1.247 . S
C1218 O1222 1.258 . S
C1219 O1226 1.247 . S
C1219 O1227 1.258 . S
O1220 C1218 1.247 . S
O1220 Zn1221 2.028 . S
Zn1221 O1220 2.028 . S
Zn1221 O1225 2.035 . S
Zn1221 O1227 2.035 . S
Zn1221 O1228 2.028 . S
O1222 C1218 1.258 . S
O1222 Zn1223 2.035 . S
Zn1223 O1222 2.035 . S
Zn1223 O1224 2.028 . S
Zn1223 O1226 2.028 . S
Zn1223 O1229 2.035 . S
O1224 Zn1223 2.028 . S
O1224 C1230 1.247 . S
O1225 Zn1221 2.035 . S
O1225 C1230 1.258 . S
O1226 C1219 1.247 . S
O1226 Zn1223 2.028 . S
O1227 C1219 1.258 . S
O1227 Zn1221 2.035 . S
O1228 Zn1221 2.028 . S
O1228 C1231 1.247 . S
O1229 Zn1223 2.035 . S
O1229 C1231 1.258 . S
C1230 O1224 1.247 . S
C1230 O1225 1.258 . S
C1231 O1228 1.247 . S
C1231 O1229 1.258 . S
C1232 O1234 1.247 . S
C1232 O1236 1.258 . S
C1233 O1240 1.247 . S
C1233 O1241 1.258 . S
O1234 C1232 1.247 . S
O1234 Zn1235 2.028 . S
Zn1235 O1234 2.028 . S
Zn1235 O1239 2.035 . S
Zn1235 O1241 2.035 . S
Zn1235 O1242 2.028 . S
O1236 C1232 1.258 . S
O1236 Zn1237 2.035 . S
Zn1237 O1236 2.035 . S
Zn1237 O1238 2.028 . S
Zn1237 O1240 2.028 . S
Zn1237 O1243 2.035 . S
O1238 Zn1237 2.028 . S
O1238 C1244 1.247 . S
O1239 Zn1235 2.035 . S
O1239 C1244 1.258 . S
O1240 C1233 1.247 . S
O1240 Zn1237 2.028 . S
O1241 C1233 1.258 . S
O1241 Zn1235 2.035 . S
O1242 Zn1235 2.028 . S
O1242 C1245 1.247 . S
O1243 Zn1237 2.035 . S
O1243 C1245 1.258 . S
C1244 O1238 1.247 . S
C1244 O1239 1.258 . S
C1245 O1242 1.247 . S
C1245 O1243 1.258 . S
C1246 O1248 1.247 . S
C1246 O1250 1.258 . S
C1247 O1254 1.247 . S
C1247 O1255 1.258 . S
O1248 C1246 1.247 . S
O1248 Zn1249 2.028 . S
Zn1249 O1248 2.028 . S
Zn1249 O1253 2.035 . S
Zn1249 O1255 2.035 . S
Zn1249 O1256 2.028 . S
O1250 C1246 1.258 . S
O1250 Zn1251 2.035 . S
Zn1251 O1250 2.035 . S
Zn1251 O1252 2.028 . S
Zn1251 O1254 2.028 . S
Zn1251 O1257 2.035 . S
O1252 Zn1251 2.028 . S
O1252 C1258 1.247 . S
O1253 Zn1249 2.035 . S
O1253 C1258 1.258 . S
O1254 C1247 1.247 . S
O1254 Zn1251 2.028 . S
O1255 C1247 1.258 . S
O1255 Zn1249 2.035 . S
O1256 Zn1249 2.028 . S
O1256 C1259 1.247 . S
O1257 Zn1251 2.035 . S
O1257 C1259 1.258 . S
C1258 O1252 1.247 . S
C1258 O1253 1.258 . S
C1259 O1256 1.247 . S
C1259 O1257 1.258 . S
C1260 O1262 1.247 . S
C1260 O1264 1.258 . S
C1261 O1268 1.247 . S
C1261 O1269 1.258 . S
O1262 C1260 1.247 . S
O1262 Zn1263 2.028 . S
Zn1263 O1262 2.028 . S
Zn1263 O1267 2.035 . S
Zn1263 O1269 2.035 . S
Zn1263 O1270 2.028 . S
O1264 C1260 1.258 . S
O1264 Zn1265 2.035 . S
Zn1265 O1264 2.035 . S
Zn1265 O1266 2.028 . S
Zn1265 O1268 2.028 . S
Zn1265 O1271 2.035 . S
O1266 Zn1265 2.028 . S
O1266 C1272 1.247 . S
O1267 Zn1263 2.035 . S
O1267 C1272 1.258 . S
O1268 C1261 1.247 . S
O1268 Zn1265 2.028 . S
O1269 C1261 1.258 . S
O1269 Zn1263 2.035 . S
O1270 Zn1263 2.028 . S
O1270 C1273 1.247 . S
O1271 Zn1265 2.035 . S
O1271 C1273 1.258 . S
C1272 O1266 1.247 . S
C1272 O1267 1.258 . S
C1273 O1270 1.247 . S
C1273 O1271 1.258 . S
C1274 O1276 1.247 . S
C1274 O1278 1.258 . S
C1275 O1282 1.247 . S
C1275 O1283 1.258 . S
O1276 C1274 1.247 . S
O1276 Zn1277 2.028 . S
Zn1277 O1276 2.028 . S
Zn1277 O1281 2.035 1_554 S
Zn1277 O1283 2.035 1_554 S
Zn1277 O1284 2.028 . S
O1278 C1274 1.258 . S
O1278 Zn1279 2.035 . S
Zn1279 O1278 2.035 . S
Zn1279 O1280 2.028 1_554 S
Zn1279 O1282 2.028 1_554 S
Zn1279 O1285 2.035 . S
O1280 Zn1279 2.028 1_556 S
O1280 C1286 1.247 . S
O1281 Zn1277 2.035 1_556 S
O1281 C1286 1.258 . S
O1282 C1275 1.247 . S
O1282 Zn1279 2.028 1_556 S
O1283 C1275 1.258 . S
O1283 Zn1277 2.035 1_556 S
O1284 Zn1277 2.028 . S
O1284 C1287 1.247 . S
O1285 Zn1279 2.035 . S
O1285 C1287 1.258 . S
C1286 O1280 1.247 . S
C1286 O1281 1.258 . S
C1287 O1284 1.247 . S
C1287 O1285 1.258 . S
C1288 O1290 1.247 . S
C1288 O1292 1.258 . S
C1289 O1296 1.247 . S
C1289 O1297 1.258 . S
O1290 C1288 1.247 . S
O1290 Zn1291 2.028 . S
Zn1291 O1290 2.028 . S
Zn1291 O1295 2.035 . S
Zn1291 O1297 2.035 . S
Zn1291 O1298 2.028 . S
O1292 C1288 1.258 . S
O1292 Zn1293 2.035 . S
Zn1293 O1292 2.035 . S
Zn1293 O1294 2.028 . S
Zn1293 O1296 2.028 . S
Zn1293 O1299 2.035 . S
O1294 Zn1293 2.028 . S
O1294 C1300 1.247 . S
O1295 Zn1291 2.035 . S
O1295 C1300 1.258 . S
O1296 C1289 1.247 . S
O1296 Zn1293 2.028 . S
O1297 C1289 1.258 . S
O1297 Zn1291 2.035 . S
O1298 Zn1291 2.028 . S
O1298 C1301 1.247 . S
O1299 Zn1293 2.035 . S
O1299 C1301 1.258 . S
C1300 O1294 1.247 . S
C1300 O1295 1.258 . S
C1301 O1298 1.247 . S
C1301 O1299 1.258 . S
C1302 O1304 1.247 . S
C1302 O1306 1.258 . S
C1303 O1310 1.247 . S
C1303 O1311 1.258 . S
O1304 C1302 1.247 . S
O1304 Zn1305 2.028 . S
Zn1305 O1304 2.028 . S
Zn1305 O1309 2.035 1_556 S
Zn1305 O1311 2.035 1_556 S
Zn1305 O1312 2.028 . S
O1306 C1302 1.258 . S
O1306 Zn1307 2.035 . S
Zn1307 O1306 2.035 . S
Zn1307 O1308 2.028 1_556 S
Zn1307 O1310 2.028 1_556 S
Zn1307 O1313 2.035 . S
O1308 Zn1307 2.028 1_554 S
O1308 C1314 1.247 . S
O1309 Zn1305 2.035 1_554 S
O1309 C1314 1.258 . S
O1310 C1303 1.247 . S
O1310 Zn1307 2.028 1_554 S
O1311 C1303 1.258 . S
O1311 Zn1305 2.035 1_554 S
O1312 Zn1305 2.028 . S
O1312 C1315 1.247 . S
O1313 Zn1307 2.035 . S
O1313 C1315 1.258 . S
C1314 O1308 1.247 . S
C1314 O1309 1.258 . S
C1315 O1312 1.247 . S
C1315 O1313 1.258 . S
C1316 O1318 1.247 . S
C1316 O1320 1.258 . S
C1317 O1324 1.247 . S
C1317 O1325 1.258 . S
O1318 C1316 1.247 . S
O1318 Zn1319 2.028 . S
Zn1319 O1318 2.028 . S
Zn1319 O1323 2.035 . S
Zn1319 O1325 2.035 . S
Zn1319 O1326 2.028 . S
O1320 C1316 1.258 . S
O1320 Zn1321 2.035 . S
Zn1321 O1320 2.035 . S
Zn1321 O1322 2.028 . S
Zn1321 O1324 2.028 . S
Zn1321 O1327 2.035 . S
O1322 Zn1321 2.028 . S
O1322 C1328 1.247 . S
O1323 Zn1319 2.035 . S
O1323 C1328 1.258 . S
O1324 C1317 1.247 . S
O1324 Zn1321 2.028 . S
O1325 C1317 1.258 . S
O1325 Zn1319 2.035 . S
O1326 Zn1319 2.028 . S
O1326 C1329 1.247 . S
O1327 Zn1321 2.035 . S
O1327 C1329 1.258 . S
C1328 O1322 1.247 . S
C1328 O1323 1.258 . S
C1329 O1326 1.247 . S
C1329 O1327 1.258 . S
C1330 O1332 1.247 . S
C1330 O1334 1.258 . S
C1331 O1338 1.247 . S
C1331 O1339 1.258 . S
O1332 C1330 1.247 . S
O1332 Zn1333 2.028 . S
Zn1333 O1332 2.028 . S
Zn1333 O1337 2.035 . S
Zn1333 O1339 2.035 . S
Zn1333 O1340 2.028 . S
O1334 C1330 1.258 . S
O1334 Zn1335 2.035 . S
Zn1335 O1334 2.035 . S
Zn1335 O1336 2.028 . S
Zn1335 O1338 2.028 . S
Zn1335 O1341 2.035 . S
O1336 Zn1335 2.028 . S
O1336 C1342 1.247 . S
O1337 Zn1333 2.035 . S
O1337 C1342 1.258 . S
O1338 C1331 1.247 . S
O1338 Zn1335 2.028 . S
O1339 C1331 1.258 . S
O1339 Zn1333 2.035 . S
O1340 Zn1333 2.028 . S
O1340 C1343 1.247 . S
O1341 Zn1335 2.035 . S
O1341 C1343 1.258 . S
C1342 O1336 1.247 . S
C1342 O1337 1.258 . S
C1343 O1340 1.247 . S
C1343 O1341 1.258 . S
C1344 C1345 1.369 . S
C1344 C1346 1.419 . S
C1344 H1348 0.930 . S
C1345 C1344 1.369 . S
C1345 C1354 1.429 . S
C1346 C1344 1.419 . S
C1346 C1347 1.363 . S
C1346 H1349 0.929 . S
C1347 C1346 1.363 . S
C1347 C1353 1.428 . S
H1348 C1344 0.930 . S
H1349 C1346 0.929 . S
S1350 N1351 1.613 . S
S1350 N1352 1.610 . S
N1351 S1350 1.613 . S
N1351 C1354 1.350 . S
N1352 S1350 1.610 . S
N1352 C1353 1.351 . S
C1353 C1347 1.428 . S
C1353 N1352 1.351 . S
C1353 C1354 1.434 . S
C1354 C1345 1.429 . S
C1354 N1351 1.350 . S
C1354 C1353 1.434 . S
C1355 C1356 1.369 . S
C1355 C1357 1.419 . S
C1355 H1359 0.930 . S
C1356 C1355 1.369 . S
C1356 C1365 1.429 . S
C1357 C1355 1.419 . S
C1357 C1358 1.363 . S
C1357 H1360 0.929 . S
C1358 C1357 1.363 . S
C1358 C1364 1.428 . S
H1359 C1355 0.930 . S
H1360 C1357 0.929 . S
S1361 N1362 1.613 . S
S1361 N1363 1.610 . S
N1362 S1361 1.613 . S
N1362 C1365 1.350 . S
N1363 S1361 1.610 . S
N1363 C1364 1.351 . S
C1364 C1358 1.428 . S
C1364 N1363 1.351 . S
C1364 C1365 1.434 . S
C1365 C1356 1.429 . S
C1365 N1362 1.350 . S
C1365 C1364 1.434 . S
C1366 C1367 1.369 . S
C1366 C1368 1.419 . S
C1366 H1370 0.930 . S
C1367 C1366 1.369 . S
C1367 C1376 1.429 . S
C1368 C1366 1.419 . S
C1368 C1369 1.363 . S
C1368 H1371 0.929 . S
C1369 C1368 1.363 . S
C1369 C1375 1.428 . S
H1370 C1366 0.930 . S
H1371 C1368 0.929 . S
S1372 N1373 1.613 . S
S1372 N1374 1.610 . S
N1373 S1372 1.613 . S
N1373 C1376 1.350 . S
N1374 S1372 1.610 . S
N1374 C1375 1.351 . S
C1375 C1369 1.428 . S
C1375 N1374 1.351 . S
C1375 C1376 1.434 . S
C1376 C1367 1.429 . S
C1376 N1373 1.350 . S
C1376 C1375 1.434 . S
C1377 C1378 1.369 . S
C1377 C1379 1.419 . S
C1377 H1381 0.930 . S
C1378 C1377 1.369 . S
C1378 C1387 1.429 . S
C1379 C1377 1.419 . S
C1379 C1380 1.363 . S
C1379 H1382 0.929 . S
C1380 C1379 1.363 . S
C1380 C1386 1.428 . S
H1381 C1377 0.930 . S
H1382 C1379 0.929 . S
S1383 N1384 1.613 . S
S1383 N1385 1.610 . S
N1384 S1383 1.613 . S
N1384 C1387 1.350 . S
N1385 S1383 1.610 . S
N1385 C1386 1.351 . S
C1386 C1380 1.428 . S
C1386 N1385 1.351 . S
C1386 C1387 1.434 . S
C1387 C1378 1.429 . S
C1387 N1384 1.350 . S
C1387 C1386 1.434 . S
C1388 C1389 1.369 . S
C1388 C1390 1.419 . S
C1388 H1392 0.930 . S
C1389 C1388 1.369 . S
C1389 C1398 1.429 . S
C1390 C1388 1.419 . S
C1390 C1391 1.363 . S
C1390 H1393 0.929 . S
C1391 C1390 1.363 . S
C1391 C1397 1.428 . S
H1392 C1388 0.930 . S
H1393 C1390 0.929 . S
S1394 N1395 1.613 . S
S1394 N1396 1.610 . S
N1395 S1394 1.613 . S
N1395 C1398 1.350 . S
N1396 S1394 1.610 . S
N1396 C1397 1.351 . S
C1397 C1391 1.428 . S
C1397 N1396 1.351 . S
C1397 C1398 1.434 . S
C1398 C1389 1.429 . S
C1398 N1395 1.350 . S
C1398 C1397 1.434 . S
C1399 C1400 1.369 . S
C1399 C1401 1.419 . S
C1399 H1403 0.930 . S
C1400 C1399 1.369 . S
C1400 C1409 1.429 . S
C1401 C1399 1.419 . S
C1401 C1402 1.363 . S
C1401 H1404 0.929 . S
C1402 C1401 1.363 . S
C1402 C1408 1.428 . S
H1403 C1399 0.930 . S
H1404 C1401 0.929 . S
S1405 N1406 1.613 . S
S1405 N1407 1.610 . S
N1406 S1405 1.613 . S
N1406 C1409 1.350 . S
N1407 S1405 1.610 . S
N1407 C1408 1.351 . S
C1408 C1402 1.428 . S
C1408 N1407 1.351 . S
C1408 C1409 1.434 . S
C1409 C1400 1.429 . S
C1409 N1406 1.350 . S
C1409 C1408 1.434 . S
C1410 C1411 1.369 . S
C1410 C1412 1.419 . S
C1410 H1414 0.930 . S
C1411 C1410 1.369 . S
C1411 C1420 1.429 . S
C1412 C1410 1.419 . S
C1412 C1413 1.363 . S
C1412 H1415 0.929 . S
C1413 C1412 1.363 . S
C1413 C1419 1.428 . S
H1414 C1410 0.930 . S
H1415 C1412 0.929 . S
S1416 N1417 1.613 . S
S1416 N1418 1.610 . S
N1417 S1416 1.613 . S
N1417 C1420 1.350 . S
N1418 S1416 1.610 . S
N1418 C1419 1.351 . S
C1419 C1413 1.428 . S
C1419 N1418 1.351 . S
C1419 C1420 1.434 . S
C1420 C1411 1.429 . S
C1420 N1417 1.350 . S
C1420 C1419 1.434 . S
C1421 C1422 1.369 . S
C1421 C1423 1.419 . S
C1421 H1425 0.930 . S
C1422 C1421 1.369 . S
C1422 C1431 1.429 . S
C1423 C1421 1.419 . S
C1423 C1424 1.363 . S
C1423 H1426 0.929 . S
C1424 C1423 1.363 . S
C1424 C1430 1.428 . S
H1425 C1421 0.930 . S
H1426 C1423 0.929 . S
S1427 N1428 1.613 . S
S1427 N1429 1.610 . S
N1428 S1427 1.613 . S
N1428 C1431 1.350 . S
N1429 S1427 1.610 . S
N1429 C1430 1.351 . S
C1430 C1424 1.428 . S
C1430 N1429 1.351 . S
C1430 C1431 1.434 . S
C1431 C1422 1.429 . S
C1431 N1428 1.350 . S
C1431 C1430 1.434 . S
C1432 C1433 1.369 . S
C1432 C1434 1.419 . S
C1432 H1436 0.930 . S
C1433 C1432 1.369 . S
C1433 C1442 1.429 . S
C1434 C1432 1.419 . S
C1434 C1435 1.363 . S
C1434 H1437 0.929 . S
C1435 C1434 1.363 . S
C1435 C1441 1.428 . S
H1436 C1432 0.930 . S
H1437 C1434 0.929 . S
S1438 N1439 1.613 . S
S1438 N1440 1.610 . S
N1439 S1438 1.613 . S
N1439 C1442 1.350 . S
N1440 S1438 1.610 . S
N1440 C1441 1.351 . S
C1441 C1435 1.428 . S
C1441 N1440 1.351 . S
C1441 C1442 1.434 . S
C1442 C1433 1.429 . S
C1442 N1439 1.350 . S
C1442 C1441 1.434 . S
C1443 C1444 1.369 . S
C1443 C1445 1.419 . S
C1443 H1447 0.930 . S
C1444 C1443 1.369 . S
C1444 C1453 1.429 . S
C1445 C1443 1.419 . S
C1445 C1446 1.363 . S
C1445 H1448 0.929 . S
C1446 C1445 1.363 . S
C1446 C1452 1.428 . S
H1447 C1443 0.930 . S
H1448 C1445 0.929 . S
S1449 N1450 1.613 . S
S1449 N1451 1.610 . S
N1450 S1449 1.613 . S
N1450 C1453 1.350 . S
N1451 S1449 1.610 . S
N1451 C1452 1.351 . S
C1452 C1446 1.428 . S
C1452 N1451 1.351 . S
C1452 C1453 1.434 . S
C1453 C1444 1.429 . S
C1453 N1450 1.350 . S
C1453 C1452 1.434 . S
C1454 C1455 1.369 . S
C1454 C1456 1.419 . S
C1454 H1458 0.930 . S
C1455 C1454 1.369 . S
C1455 C1464 1.429 . S
C1456 C1454 1.419 . S
C1456 C1457 1.363 . S
C1456 H1459 0.929 . S
C1457 C1456 1.363 . S
C1457 C1463 1.428 . S
H1458 C1454 0.930 . S
H1459 C1456 0.929 . S
S1460 N1461 1.613 . S
S1460 N1462 1.610 . S
N1461 S1460 1.613 . S
N1461 C1464 1.350 . S
N1462 S1460 1.610 . S
N1462 C1463 1.351 . S
C1463 C1457 1.428 . S
C1463 N1462 1.351 . S
C1463 C1464 1.434 . S
C1464 C1455 1.429 . S
C1464 N1461 1.350 . S
C1464 C1463 1.434 . S
C1465 C1466 1.369 . S
C1465 C1467 1.419 . S
C1465 H1469 0.930 . S
C1466 C1465 1.369 . S
C1466 C1475 1.429 . S
C1467 C1465 1.419 . S
C1467 C1468 1.363 . S
C1467 H1470 0.929 . S
C1468 C1467 1.363 . S
C1468 C1474 1.428 . S
H1469 C1465 0.930 . S
H1470 C1467 0.929 . S
S1471 N1472 1.613 . S
S1471 N1473 1.610 . S
N1472 S1471 1.613 . S
N1472 C1475 1.350 . S
N1473 S1471 1.610 . S
N1473 C1474 1.351 . S
C1474 C1468 1.428 . S
C1474 N1473 1.351 . S
C1474 C1475 1.434 . S
C1475 C1466 1.429 . S
C1475 N1472 1.350 . S
C1475 C1474 1.434 . S
C1476 C1477 1.369 . S
C1476 C1478 1.419 . S
C1476 H1480 0.930 . S
C1477 C1476 1.369 . S
C1477 C1486 1.429 . S
C1478 C1476 1.419 . S
C1478 C1479 1.363 . S
C1478 H1481 0.929 . S
C1479 C1478 1.363 . S
C1479 C1485 1.428 . S
H1480 C1476 0.930 . S
H1481 C1478 0.929 . S
S1482 N1483 1.613 . S
S1482 N1484 1.610 . S
N1483 S1482 1.613 . S
N1483 C1486 1.350 . S
N1484 S1482 1.610 . S
N1484 C1485 1.351 . S
C1485 C1479 1.428 . S
C1485 N1484 1.351 . S
C1485 C1486 1.434 . S
C1486 C1477 1.429 . S
C1486 N1483 1.350 . S
C1486 C1485 1.434 . S
C1487 C1488 1.369 . S
C1487 C1489 1.419 . S
C1487 H1491 0.930 . S
C1488 C1487 1.369 . S
C1488 C1497 1.429 . S
C1489 C1487 1.419 . S
C1489 C1490 1.363 . S
C1489 H1492 0.929 . S
C1490 C1489 1.363 . S
C1490 C1496 1.428 . S
H1491 C1487 0.930 . S
H1492 C1489 0.929 . S
S1493 N1494 1.613 . S
S1493 N1495 1.610 . S
N1494 S1493 1.613 . S
N1494 C1497 1.350 . S
N1495 S1493 1.610 . S
N1495 C1496 1.351 . S
C1496 C1490 1.428 . S
C1496 N1495 1.351 . S
C1496 C1497 1.434 . S
C1497 C1488 1.429 . S
C1497 N1494 1.350 . S
C1497 C1496 1.434 . S
C1498 C1499 1.369 . S
C1498 C1500 1.419 . S
C1498 H1502 0.930 . S
C1499 C1498 1.369 . S
C1499 C1508 1.429 . S
C1500 C1498 1.419 . S
C1500 C1501 1.363 . S
C1500 H1503 0.929 . S
C1501 C1500 1.363 . S
C1501 C1507 1.428 . S
H1502 C1498 0.930 . S
H1503 C1500 0.929 . S
S1504 N1505 1.613 . S
S1504 N1506 1.610 . S
N1505 S1504 1.613 . S
N1505 C1508 1.350 . S
N1506 S1504 1.610 . S
N1506 C1507 1.351 . S
C1507 C1501 1.428 . S
C1507 N1506 1.351 . S
C1507 C1508 1.434 . S
C1508 C1499 1.429 . S
C1508 N1505 1.350 . S
C1508 C1507 1.434 . S
C1509 C1510 1.369 . S
C1509 C1511 1.419 . S
C1509 H1513 0.930 . S
C1510 C1509 1.369 . S
C1510 C1519 1.429 . S
C1511 C1509 1.419 . S
C1511 C1512 1.363 . S
C1511 H1514 0.929 . S
C1512 C1511 1.363 . S
C1512 C1518 1.428 . S
H1513 C1509 0.930 . S
H1514 C1511 0.929 . S
S1515 N1516 1.613 . S
S1515 N1517 1.610 . S
N1516 S1515 1.613 . S
N1516 C1519 1.350 . S
N1517 S1515 1.610 . S
N1517 C1518 1.351 . S
C1518 C1512 1.428 . S
C1518 N1517 1.351 . S
C1518 C1519 1.434 . S
C1519 C1510 1.429 . S
C1519 N1516 1.350 . S
C1519 C1518 1.434 . S
C1520 C1521 1.369 . S
C1520 C1522 1.419 . S
C1520 H1524 0.930 . S
C1521 C1520 1.369 . S
C1521 C1530 1.429 . S
C1522 C1520 1.419 . S
C1522 C1523 1.363 . S
C1522 H1525 0.929 . S
C1523 C1522 1.363 . S
C1523 C1529 1.428 . S
H1524 C1520 0.930 . S
H1525 C1522 0.929 . S
S1526 N1527 1.613 . S
S1526 N1528 1.610 . S
N1527 S1526 1.613 . S
N1527 C1530 1.350 . S
N1528 S1526 1.610 . S
N1528 C1529 1.351 . S
C1529 C1523 1.428 . S
C1529 N1528 1.351 . S
C1529 C1530 1.434 . S
C1530 C1521 1.429 . S
C1530 N1527 1.350 . S
C1530 C1529 1.434 . S
C1531 C1532 1.369 . S
C1531 C1533 1.419 . S
C1531 H1535 0.930 . S
C1532 C1531 1.369 . S
C1532 C1541 1.429 . S
C1533 C1531 1.419 . S
C1533 C1534 1.363 . S
C1533 H1536 0.929 . S
C1534 C1533 1.363 . S
C1534 C1540 1.428 . S
H1535 C1531 0.930 . S
H1536 C1533 0.929 . S
S1537 N1538 1.613 . S
S1537 N1539 1.610 . S
N1538 S1537 1.613 . S
N1538 C1541 1.350 . S
N1539 S1537 1.610 . S
N1539 C1540 1.351 . S
C1540 C1534 1.428 . S
C1540 N1539 1.351 . S
C1540 C1541 1.434 . S
C1541 C1532 1.429 . S
C1541 N1538 1.350 . S
C1541 C1540 1.434 . S
C1542 C1543 1.369 . S
C1542 C1544 1.419 . S
C1542 H1546 0.930 . S
C1543 C1542 1.369 . S
C1543 C1552 1.429 . S
C1544 C1542 1.419 . S
C1544 C1545 1.363 . S
C1544 H1547 0.929 . S
C1545 C1544 1.363 . S
C1545 C1551 1.428 . S
H1546 C1542 0.930 . S
H1547 C1544 0.929 . S
S1548 N1549 1.613 . S
S1548 N1550 1.610 . S
N1549 S1548 1.613 . S
N1549 C1552 1.350 . S
N1550 S1548 1.610 . S
N1550 C1551 1.351 . S
C1551 C1545 1.428 . S
C1551 N1550 1.351 . S
C1551 C1552 1.434 . S
C1552 C1543 1.429 . S
C1552 N1549 1.350 . S
C1552 C1551 1.434 . S
C1553 C1554 1.369 . S
C1553 C1555 1.419 . S
C1553 H1557 0.930 . S
C1554 C1553 1.369 . S
C1554 C1563 1.429 . S
C1555 C1553 1.419 . S
C1555 C1556 1.363 . S
C1555 H1558 0.929 . S
C1556 C1555 1.363 . S
C1556 C1562 1.428 . S
H1557 C1553 0.930 . S
H1558 C1555 0.929 . S
S1559 N1560 1.613 . S
S1559 N1561 1.610 . S
N1560 S1559 1.613 . S
N1560 C1563 1.350 . S
N1561 S1559 1.610 . S
N1561 C1562 1.351 . S
C1562 C1556 1.428 . S
C1562 N1561 1.351 . S
C1562 C1563 1.434 . S
C1563 C1554 1.429 . S
C1563 N1560 1.350 . S
C1563 C1562 1.434 . S
C1564 C1565 1.369 . S
C1564 C1566 1.419 . S
C1564 H1568 0.930 . S
C1565 C1564 1.369 . S
C1565 C1574 1.429 . S
C1566 C1564 1.419 . S
C1566 C1567 1.363 . S
C1566 H1569 0.929 . S
C1567 C1566 1.363 . S
C1567 C1573 1.428 . S
H1568 C1564 0.930 . S
H1569 C1566 0.929 . S
S1570 N1571 1.613 . S
S1570 N1572 1.610 . S
N1571 S1570 1.613 . S
N1571 C1574 1.350 . S
N1572 S1570 1.610 . S
N1572 C1573 1.351 . S
C1573 C1567 1.428 . S
C1573 N1572 1.351 . S
C1573 C1574 1.434 . S
C1574 C1565 1.429 . S
C1574 N1571 1.350 . S
C1574 C1573 1.434 . S
C1575 C1576 1.369 . S
C1575 C1577 1.419 . S
C1575 H1579 0.930 . S
C1576 C1575 1.369 . S
C1576 C1585 1.429 . S
C1577 C1575 1.419 . S
C1577 C1578 1.363 . S
C1577 H1580 0.929 . S
C1578 C1577 1.363 . S
C1578 C1584 1.428 . S
H1579 C1575 0.930 . S
H1580 C1577 0.929 . S
S1581 N1582 1.613 . S
S1581 N1583 1.610 . S
N1582 S1581 1.613 . S
N1582 C1585 1.350 . S
N1583 S1581 1.610 . S
N1583 C1584 1.351 . S
C1584 C1578 1.428 . S
C1584 N1583 1.351 . S
C1584 C1585 1.434 . S
C1585 C1576 1.429 . S
C1585 N1582 1.350 . S
C1585 C1584 1.434 . S
C1586 C1587 1.369 . S
C1586 C1588 1.419 . S
C1586 H1590 0.930 . S
C1587 C1586 1.369 . S
C1587 C1596 1.429 . S
C1588 C1586 1.419 . S
C1588 C1589 1.363 . S
C1588 H1591 0.929 . S
C1589 C1588 1.363 . S
C1589 C1595 1.428 . S
H1590 C1586 0.930 . S
H1591 C1588 0.929 . S
S1592 N1593 1.613 . S
S1592 N1594 1.610 . S
N1593 S1592 1.613 . S
N1593 C1596 1.350 . S
N1594 S1592 1.610 . S
N1594 C1595 1.351 . S
C1595 C1589 1.428 . S
C1595 N1594 1.351 . S
C1595 C1596 1.434 . S
C1596 C1587 1.429 . S
C1596 N1593 1.350 . S
C1596 C1595 1.434 . S
C1597 C1598 1.369 . S
C1597 C1599 1.419 . S
C1597 H1601 0.930 . S
C1598 C1597 1.369 . S
C1598 C1607 1.429 . S
C1599 C1597 1.419 . S
C1599 C1600 1.363 . S
C1599 H1602 0.929 . S
C1600 C1599 1.363 . S
C1600 C1606 1.428 . S
H1601 C1597 0.930 . S
H1602 C1599 0.929 . S
S1603 N1604 1.613 . S
S1603 N1605 1.610 . S
N1604 S1603 1.613 . S
N1604 C1607 1.350 . S
N1605 S1603 1.610 . S
N1605 C1606 1.351 . S
C1606 C1600 1.428 . S
C1606 N1605 1.351 . S
C1606 C1607 1.434 . S
C1607 C1598 1.429 . S
C1607 N1604 1.350 . S
C1607 C1606 1.434 . S
C1608 C1609 1.369 . S
C1608 C1610 1.419 . S
C1608 H1612 0.930 . S
C1609 C1608 1.369 . S
C1609 C1618 1.429 . S
C1610 C1608 1.419 . S
C1610 C1611 1.363 . S
C1610 H1613 0.929 . S
C1611 C1610 1.363 . S
C1611 C1617 1.428 . S
H1612 C1608 0.930 . S
H1613 C1610 0.929 . S
S1614 N1615 1.613 . S
S1614 N1616 1.610 . S
N1615 S1614 1.613 . S
N1615 C1618 1.350 . S
N1616 S1614 1.610 . S
N1616 C1617 1.351 . S
C1617 C1611 1.428 . S
C1617 N1616 1.351 . S
C1617 C1618 1.434 . S
C1618 C1609 1.429 . S
C1618 N1615 1.350 . S
C1618 C1617 1.434 . S
C1619 C1620 1.369 . S
C1619 C1621 1.419 . S
C1619 H1623 0.930 . S
C1620 C1619 1.369 . S
C1620 C1629 1.429 . S
C1621 C1619 1.419 . S
C1621 C1622 1.363 . S
C1621 H1624 0.929 . S
C1622 C1621 1.363 . S
C1622 C1628 1.428 . S
H1623 C1619 0.930 . S
H1624 C1621 0.929 . S
S1625 N1626 1.613 . S
S1625 N1627 1.610 . S
N1626 S1625 1.613 . S
N1626 C1629 1.350 . S
N1627 S1625 1.610 . S
N1627 C1628 1.351 . S
C1628 C1622 1.428 . S
C1628 N1627 1.351 . S
C1628 C1629 1.434 . S
C1629 C1620 1.429 . S
C1629 N1626 1.350 . S
C1629 C1628 1.434 . S
C1630 C1631 1.369 . S
C1630 C1632 1.419 . S
C1630 H1634 0.930 . S
C1631 C1630 1.369 . S
C1631 C1640 1.429 . S
C1632 C1630 1.419 . S
C1632 C1633 1.363 . S
C1632 H1635 0.929 . S
C1633 C1632 1.363 . S
C1633 C1639 1.428 . S
H1634 C1630 0.930 . S
H1635 C1632 0.929 . S
S1636 N1637 1.613 . S
S1636 N1638 1.610 . S
N1637 S1636 1.613 . S
N1637 C1640 1.350 . S
N1638 S1636 1.610 . S
N1638 C1639 1.351 . S
C1639 C1633 1.428 . S
C1639 N1638 1.351 . S
C1639 C1640 1.434 . S
C1640 C1631 1.429 . S
C1640 N1637 1.350 . S
C1640 C1639 1.434 . S
C1641 C1642 1.369 . S
C1641 C1643 1.419 . S
C1641 H1645 0.930 . S
C1642 C1641 1.369 . S
C1642 C1651 1.429 . S
C1643 C1641 1.419 . S
C1643 C1644 1.363 . S
C1643 H1646 0.929 . S
C1644 C1643 1.363 . S
C1644 C1650 1.428 . S
H1645 C1641 0.930 . S
H1646 C1643 0.929 . S
S1647 N1648 1.613 . S
S1647 N1649 1.610 . S
N1648 S1647 1.613 . S
N1648 C1651 1.350 . S
N1649 S1647 1.610 . S
N1649 C1650 1.351 . S
C1650 C1644 1.428 . S
C1650 N1649 1.351 . S
C1650 C1651 1.434 . S
C1651 C1642 1.429 . S
C1651 N1648 1.350 . S
C1651 C1650 1.434 . S
C1652 C1653 1.369 . S
C1652 C1654 1.419 . S
C1652 H1656 0.930 . S
C1653 C1652 1.369 . S
C1653 C1662 1.429 . S
C1654 C1652 1.419 . S
C1654 C1655 1.363 . S
C1654 H1657 0.929 . S
C1655 C1654 1.363 . S
C1655 C1661 1.428 . S
H1656 C1652 0.930 . S
H1657 C1654 0.929 . S
S1658 N1659 1.613 . S
S1658 N1660 1.610 . S
N1659 S1658 1.613 . S
N1659 C1662 1.350 . S
N1660 S1658 1.610 . S
N1660 C1661 1.351 . S
C1661 C1655 1.428 . S
C1661 N1660 1.351 . S
C1661 C1662 1.434 . S
C1662 C1653 1.429 . S
C1662 N1659 1.350 . S
C1662 C1661 1.434 . S
C1663 C1664 1.369 . S
C1663 C1665 1.419 . S
C1663 H1667 0.930 . S
C1664 C1663 1.369 . S
C1664 C1673 1.429 . S
C1665 C1663 1.419 . S
C1665 C1666 1.363 . S
C1665 H1668 0.929 . S
C1666 C1665 1.363 . S
C1666 C1672 1.428 . S
H1667 C1663 0.930 . S
H1668 C1665 0.929 . S
S1669 N1670 1.613 . S
S1669 N1671 1.610 . S
N1670 S1669 1.613 . S
N1670 C1673 1.350 . S
N1671 S1669 1.610 . S
N1671 C1672 1.351 . S
C1672 C1666 1.428 . S
C1672 N1671 1.351 . S
C1672 C1673 1.434 . S
C1673 C1664 1.429 . S
C1673 N1670 1.350 . S
C1673 C1672 1.434 . S
C1674 C1675 1.369 . S
C1674 C1676 1.419 . S
C1674 H1678 0.930 . S
C1675 C1674 1.369 . S
C1675 C1684 1.429 . S
C1676 C1674 1.419 . S
C1676 C1677 1.363 . S
C1676 H1679 0.929 . S
C1677 C1676 1.363 . S
C1677 C1683 1.428 . S
H1678 C1674 0.930 . S
H1679 C1676 0.929 . S
S1680 N1681 1.613 . S
S1680 N1682 1.610 . S
N1681 S1680 1.613 . S
N1681 C1684 1.350 . S
N1682 S1680 1.610 . S
N1682 C1683 1.351 . S
C1683 C1677 1.428 . S
C1683 N1682 1.351 . S
C1683 C1684 1.434 . S
C1684 C1675 1.429 . S
C1684 N1681 1.350 . S
C1684 C1683 1.434 . S
C1685 C1686 1.369 . S
C1685 C1687 1.419 . S
C1685 H1689 0.930 . S
C1686 C1685 1.369 . S
C1686 C1695 1.429 . S
C1687 C1685 1.419 . S
C1687 C1688 1.363 . S
C1687 H1690 0.929 . S
C1688 C1687 1.363 . S
C1688 C1694 1.428 . S
H1689 C1685 0.930 . S
H1690 C1687 0.929 . S
S1691 N1692 1.613 . S
S1691 N1693 1.610 . S
N1692 S1691 1.613 . S
N1692 C1695 1.350 . S
N1693 S1691 1.610 . S
N1693 C1694 1.351 . S
C1694 C1688 1.428 . S
C1694 N1693 1.351 . S
C1694 C1695 1.434 . S
C1695 C1686 1.429 . S
C1695 N1692 1.350 . S
C1695 C1694 1.434 . S
C1696 C1697 1.369 . S
C1696 C1698 1.419 . S
C1696 H1700 0.930 . S
C1697 C1696 1.369 . S
C1697 C1706 1.429 . S
C1698 C1696 1.419 . S
C1698 C1699 1.363 . S
C1698 H1701 0.929 . S
C1699 C1698 1.363 . S
C1699 C1705 1.428 . S
H1700 C1696 0.930 . S
H1701 C1698 0.929 . S
S1702 N1703 1.613 . S
S1702 N1704 1.610 . S
N1703 S1702 1.613 . S
N1703 C1706 1.350 . S
N1704 S1702 1.610 . S
N1704 C1705 1.351 . S
C1705 C1699 1.428 . S
C1705 N1704 1.351 . S
C1705 C1706 1.434 . S
C1706 C1697 1.429 . S
C1706 N1703 1.350 . S
C1706 C1705 1.434 . S
C1707 C1708 1.369 . S
C1707 C1709 1.419 . S
C1707 H1711 0.930 . S
C1708 C1707 1.369 . S
C1708 C1717 1.429 . S
C1709 C1707 1.419 . S
C1709 C1710 1.363 . S
C1709 H1712 0.929 . S
C1710 C1709 1.363 . S
C1710 C1716 1.428 . S
H1711 C1707 0.930 . S
H1712 C1709 0.929 . S
S1713 N1714 1.613 . S
S1713 N1715 1.610 . S
N1714 S1713 1.613 . S
N1714 C1717 1.350 . S
N1715 S1713 1.610 . S
N1715 C1716 1.351 . S
C1716 C1710 1.428 . S
C1716 N1715 1.351 . S
C1716 C1717 1.434 . S
C1717 C1708 1.429 . S
C1717 N1714 1.350 . S
C1717 C1716 1.434 . S
C1718 C1719 1.369 . S
C1718 C1720 1.419 . S
C1718 H1722 0.930 . S
C1719 C1718 1.369 . S
C1719 C1728 1.429 . S
C1720 C1718 1.419 . S
C1720 C1721 1.363 . S
C1720 H1723 0.929 . S
C1721 C1720 1.363 . S
C1721 C1727 1.428 . S
H1722 C1718 0.930 . S
H1723 C1720 0.929 . S
S1724 N1725 1.613 . S
S1724 N1726 1.610 . S
N1725 S1724 1.613 . S
N1725 C1728 1.350 . S
N1726 S1724 1.610 . S
N1726 C1727 1.351 . S
C1727 C1721 1.428 . S
C1727 N1726 1.351 . S
C1727 C1728 1.434 . S
C1728 C1719 1.429 . S
C1728 N1725 1.350 . S
C1728 C1727 1.434 . S
C1729 C1730 1.369 . S
C1729 C1731 1.419 . S
C1729 H1733 0.930 . S
C1730 C1729 1.369 . S
C1730 C1739 1.429 . S
C1731 C1729 1.419 . S
C1731 C1732 1.363 . S
C1731 H1734 0.929 . S
C1732 C1731 1.363 . S
C1732 C1738 1.428 . S
H1733 C1729 0.930 . S
H1734 C1731 0.929 . S
S1735 N1736 1.613 . S
S1735 N1737 1.610 . S
N1736 S1735 1.613 . S
N1736 C1739 1.350 . S
N1737 S1735 1.610 . S
N1737 C1738 1.351 . S
C1738 C1732 1.428 . S
C1738 N1737 1.351 . S
C1738 C1739 1.434 . S
C1739 C1730 1.429 . S
C1739 N1736 1.350 . S
C1739 C1738 1.434 . S
C1740 C1741 1.369 . S
C1740 C1742 1.419 . S
C1740 H1744 0.930 . S
C1741 C1740 1.369 . S
C1741 C1750 1.429 . S
C1742 C1740 1.419 . S
C1742 C1743 1.363 . S
C1742 H1745 0.929 . S
C1743 C1742 1.363 . S
C1743 C1749 1.428 . S
H1744 C1740 0.930 . S
H1745 C1742 0.929 . S
S1746 N1747 1.613 . S
S1746 N1748 1.610 . S
N1747 S1746 1.613 . S
N1747 C1750 1.350 . S
N1748 S1746 1.610 . S
N1748 C1749 1.351 . S
C1749 C1743 1.428 . S
C1749 N1748 1.351 . S
C1749 C1750 1.434 . S
C1750 C1741 1.429 . S
C1750 N1747 1.350 . S
C1750 C1749 1.434 . S
C1751 C1752 1.369 . S
C1751 C1753 1.419 . S
C1751 H1755 0.930 . S
C1752 C1751 1.369 . S
C1752 C1761 1.429 . S
C1753 C1751 1.419 . S
C1753 C1754 1.363 . S
C1753 H1756 0.929 . S
C1754 C1753 1.363 . S
C1754 C1760 1.428 . S
H1755 C1751 0.930 . S
H1756 C1753 0.929 . S
S1757 N1758 1.613 . S
S1757 N1759 1.610 . S
N1758 S1757 1.613 . S
N1758 C1761 1.350 . S
N1759 S1757 1.610 . S
N1759 C1760 1.351 . S
C1760 C1754 1.428 . S
C1760 N1759 1.351 . S
C1760 C1761 1.434 . S
C1761 C1752 1.429 . S
C1761 N1758 1.350 . S
C1761 C1760 1.434 . S
C1762 C1763 1.369 . S
C1762 C1764 1.419 . S
C1762 H1766 0.930 . S
C1763 C1762 1.369 . S
C1763 C1772 1.429 . S
C1764 C1762 1.419 . S
C1764 C1765 1.363 . S
C1764 H1767 0.929 . S
C1765 C1764 1.363 . S
C1765 C1771 1.428 . S
H1766 C1762 0.930 . S
H1767 C1764 0.929 . S
S1768 N1769 1.613 . S
S1768 N1770 1.610 . S
N1769 S1768 1.613 . S
N1769 C1772 1.350 . S
N1770 S1768 1.610 . S
N1770 C1771 1.351 . S
C1771 C1765 1.428 . S
C1771 N1770 1.351 . S
C1771 C1772 1.434 . S
C1772 C1763 1.429 . S
C1772 N1769 1.350 . S
C1772 C1771 1.434 . S
C1773 C1774 1.369 . S
C1773 C1775 1.419 . S
C1773 H1777 0.930 . S
C1774 C1773 1.369 . S
C1774 C1783 1.429 . S
C1775 C1773 1.419 . S
C1775 C1776 1.363 . S
C1775 H1778 0.929 . S
C1776 C1775 1.363 . S
C1776 C1782 1.428 . S
H1777 C1773 0.930 . S
H1778 C1775 0.929 . S
S1779 N1780 1.613 . S
S1779 N1781 1.610 . S
N1780 S1779 1.613 . S
N1780 C1783 1.350 . S
N1781 S1779 1.610 . S
N1781 C1782 1.351 . S
C1782 C1776 1.428 . S
C1782 N1781 1.351 . S
C1782 C1783 1.434 . S
C1783 C1774 1.429 . S
C1783 N1780 1.350 . S
C1783 C1782 1.434 . S
C1784 C1785 1.369 . S
C1784 C1786 1.419 . S
C1784 H1788 0.930 . S
C1785 C1784 1.369 . S
C1785 C1794 1.429 . S
C1786 C1784 1.419 . S
C1786 C1787 1.363 . S
C1786 H1789 0.929 . S
C1787 C1786 1.363 . S
C1787 C1793 1.428 . S
H1788 C1784 0.930 . S
H1789 C1786 0.929 . S
S1790 N1791 1.613 . S
S1790 N1792 1.610 . S
N1791 S1790 1.613 . S
N1791 C1794 1.350 . S
N1792 S1790 1.610 . S
N1792 C1793 1.351 . S
C1793 C1787 1.428 . S
C1793 N1792 1.351 . S
C1793 C1794 1.434 . S
C1794 C1785 1.429 . S
C1794 N1791 1.350 . S
C1794 C1793 1.434 . S
C1795 C1796 1.369 . S
C1795 C1797 1.419 . S
C1795 H1799 0.930 . S
C1796 C1795 1.369 . S
C1796 C1805 1.429 . S
C1797 C1795 1.419 . S
C1797 C1798 1.363 . S
C1797 H1800 0.929 . S
C1798 C1797 1.363 . S
C1798 C1804 1.428 . S
H1799 C1795 0.930 . S
H1800 C1797 0.929 . S
S1801 N1802 1.613 . S
S1801 N1803 1.610 . S
N1802 S1801 1.613 . S
N1802 C1805 1.350 . S
N1803 S1801 1.610 . S
N1803 C1804 1.351 . S
C1804 C1798 1.428 . S
C1804 N1803 1.351 . S
C1804 C1805 1.434 . S
C1805 C1796 1.429 . S
C1805 N1802 1.350 . S
C1805 C1804 1.434 . S
C1806 C1807 1.369 . S
C1806 C1808 1.419 . S
C1806 H1810 0.930 . S
C1807 C1806 1.369 . S
C1807 C1816 1.429 . S
C1808 C1806 1.419 . S
C1808 C1809 1.363 . S
C1808 H1811 0.929 . S
C1809 C1808 1.363 . S
C1809 C1815 1.428 . S
H1810 C1806 0.930 . S
H1811 C1808 0.929 . S
S1812 N1813 1.613 . S
S1812 N1814 1.610 . S
N1813 S1812 1.613 . S
N1813 C1816 1.350 . S
N1814 S1812 1.610 . S
N1814 C1815 1.351 . S
C1815 C1809 1.428 . S
C1815 N1814 1.351 . S
C1815 C1816 1.434 . S
C1816 C1807 1.429 . S
C1816 N1813 1.350 . S
C1816 C1815 1.434 . S
C1817 C1818 1.369 . S
C1817 C1819 1.419 . S
C1817 H1821 0.930 . S
C1818 C1817 1.369 . S
C1818 C1827 1.429 . S
C1819 C1817 1.419 . S
C1819 C1820 1.363 . S
C1819 H1822 0.929 . S
C1820 C1819 1.363 . S
C1820 C1826 1.428 . S
H1821 C1817 0.930 . S
H1822 C1819 0.929 . S
S1823 N1824 1.613 . S
S1823 N1825 1.610 . S
N1824 S1823 1.613 . S
N1824 C1827 1.350 . S
N1825 S1823 1.610 . S
N1825 C1826 1.351 . S
C1826 C1820 1.428 . S
C1826 N1825 1.351 . S
C1826 C1827 1.434 . S
C1827 C1818 1.429 . S
C1827 N1824 1.350 . S
C1827 C1826 1.434 . S
C1828 C1829 1.369 . S
C1828 C1830 1.419 . S
C1828 H1832 0.930 . S
C1829 C1828 1.369 . S
C1829 C1838 1.429 . S
C1830 C1828 1.419 . S
C1830 C1831 1.363 . S
C1830 H1833 0.929 . S
C1831 C1830 1.363 . S
C1831 C1837 1.428 . S
H1832 C1828 0.930 . S
H1833 C1830 0.929 . S
S1834 N1835 1.613 . S
S1834 N1836 1.610 . S
N1835 S1834 1.613 . S
N1835 C1838 1.350 . S
N1836 S1834 1.610 . S
N1836 C1837 1.351 . S
C1837 C1831 1.428 . S
C1837 N1836 1.351 . S
C1837 C1838 1.434 . S
C1838 C1829 1.429 . S
C1838 N1835 1.350 . S
C1838 C1837 1.434 . S
C1839 C1840 1.369 . S
C1839 C1841 1.419 . S
C1839 H1843 0.930 . S
C1840 C1839 1.369 . S
C1840 C1849 1.429 . S
C1841 C1839 1.419 . S
C1841 C1842 1.363 . S
C1841 H1844 0.929 . S
C1842 C1841 1.363 . S
C1842 C1848 1.428 . S
H1843 C1839 0.930 . S
H1844 C1841 0.929 . S
S1845 N1846 1.613 . S
S1845 N1847 1.610 . S
N1846 S1845 1.613 . S
N1846 C1849 1.350 . S
N1847 S1845 1.610 . S
N1847 C1848 1.351 . S
C1848 C1842 1.428 . S
C1848 N1847 1.351 . S
C1848 C1849 1.434 . S
C1849 C1840 1.429 . S
C1849 N1846 1.350 . S
C1849 C1848 1.434 . S
C1850 C1851 1.369 . S
C1850 C1852 1.419 . S
C1850 H1854 0.930 . S
C1851 C1850 1.369 . S
C1851 C1860 1.429 . S
C1852 C1850 1.419 . S
C1852 C1853 1.363 . S
C1852 H1855 0.929 . S
C1853 C1852 1.363 . S
C1853 C1859 1.428 . S
H1854 C1850 0.930 . S
H1855 C1852 0.929 . S
S1856 N1857 1.613 . S
S1856 N1858 1.610 . S
N1857 S1856 1.613 . S
N1857 C1860 1.350 . S
N1858 S1856 1.610 . S
N1858 C1859 1.351 . S
C1859 C1853 1.428 . S
C1859 N1858 1.351 . S
C1859 C1860 1.434 . S
C1860 C1851 1.429 . S
C1860 N1857 1.350 . S
C1860 C1859 1.434 . S
C1861 C1862 1.369 . S
C1861 C1863 1.419 . S
C1861 H1865 0.930 . S
C1862 C1861 1.369 . S
C1862 C1871 1.429 . S
C1863 C1861 1.419 . S
C1863 C1864 1.363 . S
C1863 H1866 0.929 . S
C1864 C1863 1.363 . S
C1864 C1870 1.428 . S
H1865 C1861 0.930 . S
H1866 C1863 0.929 . S
S1867 N1868 1.613 . S
S1867 N1869 1.610 . S
N1868 S1867 1.613 . S
N1868 C1871 1.350 . S
N1869 S1867 1.610 . S
N1869 C1870 1.351 . S
C1870 C1864 1.428 . S
C1870 N1869 1.351 . S
C1870 C1871 1.434 . S
C1871 C1862 1.429 . S
C1871 N1868 1.350 . S
C1871 C1870 1.434 . S
C1872 C1873 1.369 . S
C1872 C1874 1.419 . S
C1872 H1876 0.930 . S
C1873 C1872 1.369 . S
C1873 C1882 1.429 . S
C1874 C1872 1.419 . S
C1874 C1875 1.363 . S
C1874 H1877 0.929 . S
C1875 C1874 1.363 . S
C1875 C1881 1.428 . S
H1876 C1872 0.930 . S
H1877 C1874 0.929 . S
S1878 N1879 1.613 . S
S1878 N1880 1.610 . S
N1879 S1878 1.613 . S
N1879 C1882 1.350 . S
N1880 S1878 1.610 . S
N1880 C1881 1.351 . S
C1881 C1875 1.428 . S
C1881 N1880 1.351 . S
C1881 C1882 1.434 . S
C1882 C1873 1.429 . S
C1882 N1879 1.350 . S
C1882 C1881 1.434 . S
C1883 C1884 1.369 . S
C1883 C1885 1.419 . S
C1883 H1887 0.930 . S
C1884 C1883 1.369 . S
C1884 C1893 1.429 . S
C1885 C1883 1.419 . S
C1885 C1886 1.363 . S
C1885 H1888 0.929 . S
C1886 C1885 1.363 . S
C1886 C1892 1.428 . S
H1887 C1883 0.930 . S
H1888 C1885 0.929 . S
S1889 N1890 1.613 . S
S1889 N1891 1.610 . S
N1890 S1889 1.613 . S
N1890 C1893 1.350 . S
N1891 S1889 1.610 . S
N1891 C1892 1.351 . S
C1892 C1886 1.428 . S
C1892 N1891 1.351 . S
C1892 C1893 1.434 . S
C1893 C1884 1.429 . S
C1893 N1890 1.350 . S
C1893 C1892 1.434 . S
C1894 C1895 1.369 . S
C1894 C1896 1.419 . S
C1894 H1898 0.930 . S
C1895 C1894 1.369 . S
C1895 C1904 1.429 . S
C1896 C1894 1.419 . S
C1896 C1897 1.363 . S
C1896 H1899 0.929 . S
C1897 C1896 1.363 . S
C1897 C1903 1.428 . S
H1898 C1894 0.930 . S
H1899 C1896 0.929 . S
S1900 N1901 1.613 . S
S1900 N1902 1.610 . S
N1901 S1900 1.613 . S
N1901 C1904 1.350 . S
N1902 S1900 1.610 . S
N1902 C1903 1.351 . S
C1903 C1897 1.428 . S
C1903 N1902 1.351 . S
C1903 C1904 1.434 . S
C1904 C1895 1.429 . S
C1904 N1901 1.350 . S
C1904 C1903 1.434 . S
C1905 C1906 1.369 . S
C1905 C1907 1.419 . S
C1905 H1909 0.930 . S
C1906 C1905 1.369 . S
C1906 C1915 1.429 . S
C1907 C1905 1.419 . S
C1907 C1908 1.363 . S
C1907 H1910 0.929 . S
C1908 C1907 1.363 . S
C1908 C1914 1.428 . S
H1909 C1905 0.930 . S
H1910 C1907 0.929 . S
S1911 N1912 1.613 . S
S1911 N1913 1.610 . S
N1912 S1911 1.613 . S
N1912 C1915 1.350 . S
N1913 S1911 1.610 . S
N1913 C1914 1.351 . S
C1914 C1908 1.428 . S
C1914 N1913 1.351 . S
C1914 C1915 1.434 . S
C1915 C1906 1.429 . S
C1915 N1912 1.350 . S
C1915 C1914 1.434 . S
C1916 C1917 1.369 . S
C1916 C1918 1.419 . S
C1916 H1920 0.930 . S
C1917 C1916 1.369 . S
C1917 C1926 1.429 . S
C1918 C1916 1.419 . S
C1918 C1919 1.363 . S
C1918 H1921 0.929 . S
C1919 C1918 1.363 . S
C1919 C1925 1.428 . S
H1920 C1916 0.930 . S
H1921 C1918 0.929 . S
S1922 N1923 1.613 . S
S1922 N1924 1.610 . S
N1923 S1922 1.613 . S
N1923 C1926 1.350 . S
N1924 S1922 1.610 . S
N1924 C1925 1.351 . S
C1925 C1919 1.428 . S
C1925 N1924 1.351 . S
C1925 C1926 1.434 . S
C1926 C1917 1.429 . S
C1926 N1923 1.350 . S
C1926 C1925 1.434 . S
C1927 C1928 1.369 . S
C1927 C1929 1.419 . S
C1927 H1931 0.930 . S
C1928 C1927 1.369 . S
C1928 C1937 1.429 . S
C1929 C1927 1.419 . S
C1929 C1930 1.363 . S
C1929 H1932 0.929 . S
C1930 C1929 1.363 . S
C1930 C1936 1.428 . S
H1931 C1927 0.930 . S
H1932 C1929 0.929 . S
S1933 N1934 1.613 . S
S1933 N1935 1.610 . S
N1934 S1933 1.613 . S
N1934 C1937 1.350 . S
N1935 S1933 1.610 . S
N1935 C1936 1.351 . S
C1936 C1930 1.428 . S
C1936 N1935 1.351 . S
C1936 C1937 1.434 . S
C1937 C1928 1.429 . S
C1937 N1934 1.350 . S
C1937 C1936 1.434 . S
C1938 C1939 1.369 . S
C1938 C1940 1.419 . S
C1938 H1942 0.930 . S
C1939 C1938 1.369 . S
C1939 C1948 1.429 . S
C1940 C1938 1.419 . S
C1940 C1941 1.363 . S
C1940 H1943 0.929 . S
C1941 C1940 1.363 . S
C1941 C1947 1.428 . S
H1942 C1938 0.930 . S
H1943 C1940 0.929 . S
S1944 N1945 1.613 . S
S1944 N1946 1.610 . S
N1945 S1944 1.613 . S
N1945 C1948 1.350 . S
N1946 S1944 1.610 . S
N1946 C1947 1.351 . S
C1947 C1941 1.428 . S
C1947 N1946 1.351 . S
C1947 C1948 1.434 . S
C1948 C1939 1.429 . S
C1948 N1945 1.350 . S
C1948 C1947 1.434 . S
C1949 C1950 1.369 . S
C1949 C1951 1.419 . S
C1949 H1953 0.930 . S
C1950 C1949 1.369 . S
C1950 C1959 1.429 . S
C1951 C1949 1.419 . S
C1951 C1952 1.363 . S
C1951 H1954 0.929 . S
C1952 C1951 1.363 . S
C1952 C1958 1.428 . S
H1953 C1949 0.930 . S
H1954 C1951 0.929 . S
S1955 N1956 1.613 . S
S1955 N1957 1.610 . S
N1956 S1955 1.613 . S
N1956 C1959 1.350 . S
N1957 S1955 1.610 . S
N1957 C1958 1.351 . S
C1958 C1952 1.428 . S
C1958 N1957 1.351 . S
C1958 C1959 1.434 . S
C1959 C1950 1.429 . S
C1959 N1956 1.350 . S
C1959 C1958 1.434 . S
C1960 C1961 1.369 . S
C1960 C1962 1.419 . S
C1960 H1964 0.930 . S
C1961 C1960 1.369 . S
C1961 C1970 1.429 . S
C1962 C1960 1.419 . S
C1962 C1963 1.363 . S
C1962 H1965 0.929 . S
C1963 C1962 1.363 . S
C1963 C1969 1.428 . S
H1964 C1960 0.930 . S
H1965 C1962 0.929 . S
S1966 N1967 1.613 . S
S1966 N1968 1.610 . S
N1967 S1966 1.613 . S
N1967 C1970 1.350 . S
N1968 S1966 1.610 . S
N1968 C1969 1.351 . S
C1969 C1963 1.428 . S
C1969 N1968 1.351 . S
C1969 C1970 1.434 . S
C1970 C1961 1.429 . S
C1970 N1967 1.350 . S
C1970 C1969 1.434 . S
C1971 C1972 1.369 . S
C1971 C1973 1.419 . S
C1971 H1975 0.930 . S
C1972 C1971 1.369 . S
C1972 C1981 1.429 . S
C1973 C1971 1.419 . S
C1973 C1974 1.363 . S
C1973 H1976 0.929 . S
C1974 C1973 1.363 . S
C1974 C1980 1.428 . S
H1975 C1971 0.930 . S
H1976 C1973 0.929 . S
S1977 N1978 1.613 . S
S1977 N1979 1.610 . S
N1978 S1977 1.613 . S
N1978 C1981 1.350 . S
N1979 S1977 1.610 . S
N1979 C1980 1.351 . S
C1980 C1974 1.428 . S
C1980 N1979 1.351 . S
C1980 C1981 1.434 . S
C1981 C1972 1.429 . S
C1981 N1978 1.350 . S
C1981 C1980 1.434 . S
C1982 C1983 1.369 . S
C1982 C1984 1.419 . S
C1982 H1986 0.930 . S
C1983 C1982 1.369 . S
C1983 C1992 1.429 . S
C1984 C1982 1.419 . S
C1984 C1985 1.363 . S
C1984 H1987 0.929 . S
C1985 C1984 1.363 . S
C1985 C1991 1.428 . S
H1986 C1982 0.930 . S
H1987 C1984 0.929 . S
S1988 N1989 1.613 . S
S1988 N1990 1.610 . S
N1989 S1988 1.613 . S
N1989 C1992 1.350 . S
N1990 S1988 1.610 . S
N1990 C1991 1.351 . S
C1991 C1985 1.428 . S
C1991 N1990 1.351 . S
C1991 C1992 1.434 . S
C1992 C1983 1.429 . S
C1992 N1989 1.350 . S
C1992 C1991 1.434 . S
C1993 C1994 1.369 . S
C1993 C1995 1.419 . S
C1993 H1997 0.930 . S
C1994 C1993 1.369 . S
C1994 C2003 1.429 . S
C1995 C1993 1.419 . S
C1995 C1996 1.363 . S
C1995 H1998 0.929 . S
C1996 C1995 1.363 . S
C1996 C2002 1.428 . S
H1997 C1993 0.930 . S
H1998 C1995 0.929 . S
S1999 N2000 1.613 . S
S1999 N2001 1.610 . S
N2000 S1999 1.613 . S
N2000 C2003 1.350 . S
N2001 S1999 1.610 . S
N2001 C2002 1.351 . S
C2002 C1996 1.428 . S
C2002 N2001 1.351 . S
C2002 C2003 1.434 . S
C2003 C1994 1.429 . S
C2003 N2000 1.350 . S
C2003 C2002 1.434 . S
C2004 C2005 1.369 . S
C2004 C2006 1.419 . S
C2004 H2008 0.930 . S
C2005 C2004 1.369 . S
C2005 C2014 1.429 . S
C2006 C2004 1.419 . S
C2006 C2007 1.363 . S
C2006 H2009 0.929 . S
C2007 C2006 1.363 . S
C2007 C2013 1.428 . S
H2008 C2004 0.930 . S
H2009 C2006 0.929 . S
S2010 N2011 1.613 . S
S2010 N2012 1.610 . S
N2011 S2010 1.613 . S
N2011 C2014 1.350 . S
N2012 S2010 1.610 . S
N2012 C2013 1.351 . S
C2013 C2007 1.428 . S
C2013 N2012 1.351 . S
C2013 C2014 1.434 . S
C2014 C2005 1.429 . S
C2014 N2011 1.350 . S
C2014 C2013 1.434 . S
C2015 C2016 1.369 . S
C2015 C2017 1.419 . S
C2015 H2019 0.930 . S
C2016 C2015 1.369 . S
C2016 C2025 1.429 . S
C2017 C2015 1.419 . S
C2017 C2018 1.363 . S
C2017 H2020 0.929 . S
C2018 C2017 1.363 . S
C2018 C2024 1.428 . S
H2019 C2015 0.930 . S
H2020 C2017 0.929 . S
S2021 N2022 1.613 . S
S2021 N2023 1.610 . S
N2022 S2021 1.613 . S
N2022 C2025 1.350 . S
N2023 S2021 1.610 . S
N2023 C2024 1.351 . S
C2024 C2018 1.428 . S
C2024 N2023 1.351 . S
C2024 C2025 1.434 . S
C2025 C2016 1.429 . S
C2025 N2022 1.350 . S
C2025 C2024 1.434 . S
C2026 C2027 1.369 . S
C2026 C2028 1.419 . S
C2026 H2030 0.930 . S
C2027 C2026 1.369 . S
C2027 C2036 1.429 . S
C2028 C2026 1.419 . S
C2028 C2029 1.363 . S
C2028 H2031 0.929 . S
C2029 C2028 1.363 . S
C2029 C2035 1.428 . S
H2030 C2026 0.930 . S
H2031 C2028 0.929 . S
S2032 N2033 1.613 . S
S2032 N2034 1.610 . S
N2033 S2032 1.613 . S
N2033 C2036 1.350 . S
N2034 S2032 1.610 . S
N2034 C2035 1.351 . S
C2035 C2029 1.428 . S
C2035 N2034 1.351 . S
C2035 C2036 1.434 . S
C2036 C2027 1.429 . S
C2036 N2033 1.350 . S
C2036 C2035 1.434 . S
C2037 C2038 1.369 . S
C2037 C2039 1.419 . S
C2037 H2041 0.930 . S
C2038 C2037 1.369 . S
C2038 C2047 1.429 . S
C2039 C2037 1.419 . S
C2039 C2040 1.363 . S
C2039 H2042 0.929 . S
C2040 C2039 1.363 . S
C2040 C2046 1.428 . S
H2041 C2037 0.930 . S
H2042 C2039 0.929 . S
S2043 N2044 1.613 . S
S2043 N2045 1.610 . S
N2044 S2043 1.613 . S
N2044 C2047 1.350 . S
N2045 S2043 1.610 . S
N2045 C2046 1.351 . S
C2046 C2040 1.428 . S
C2046 N2045 1.351 . S
C2046 C2047 1.434 . S
C2047 C2038 1.429 . S
C2047 N2044 1.350 . S
C2047 C2046 1.434 . S
C2048 C2049 1.369 . S
C2048 C2050 1.419 . S
C2048 H2052 0.930 . S
C2049 C2048 1.369 . S
C2049 C2058 1.429 . S
C2050 C2048 1.419 . S
C2050 C2051 1.363 . S
C2050 H2053 0.929 . S
C2051 C2050 1.363 . S
C2051 C2057 1.428 . S
H2052 C2048 0.930 . S
H2053 C2050 0.929 . S
S2054 N2055 1.613 . S
S2054 N2056 1.610 . S
N2055 S2054 1.613 . S
N2055 C2058 1.350 . S
N2056 S2054 1.610 . S
N2056 C2057 1.351 . S
C2057 C2051 1.428 . S
C2057 N2056 1.351 . S
C2057 C2058 1.434 . S
C2058 C2049 1.429 . S
C2058 N2055 1.350 . S
C2058 C2057 1.434 . S
C2059 C2060 1.369 . S
C2059 C2061 1.419 . S
C2059 H2063 0.930 . S
C2060 C2059 1.369 . S
C2060 C2069 1.429 . S
C2061 C2059 1.419 . S
C2061 C2062 1.363 . S
C2061 H2064 0.929 . S
C2062 C2061 1.363 . S
C2062 C2068 1.428 . S
H2063 C2059 0.930 . S
H2064 C2061 0.929 . S
S2065 N2066 1.613 . S
S2065 N2067 1.610 . S
N2066 S2065 1.613 . S
N2066 C2069 1.350 . S
N2067 S2065 1.610 . S
N2067 C2068 1.351 . S
C2068 C2062 1.428 . S
C2068 N2067 1.351 . S
C2068 C2069 1.434 . S
C2069 C2060 1.429 . S
C2069 N2066 1.350 . S
C2069 C2068 1.434 . S
C2070 C2071 1.369 . S
C2070 C2072 1.419 . S
C2070 H2074 0.930 . S
C2071 C2070 1.369 . S
C2071 C2080 1.429 . S
C2072 C2070 1.419 . S
C2072 C2073 1.363 . S
C2072 H2075 0.929 . S
C2073 C2072 1.363 . S
C2073 C2079 1.428 . S
H2074 C2070 0.930 . S
H2075 C2072 0.929 . S
S2076 N2077 1.613 . S
S2076 N2078 1.610 . S
N2077 S2076 1.613 . S
N2077 C2080 1.350 . S
N2078 S2076 1.610 . S
N2078 C2079 1.351 . S
C2079 C2073 1.428 . S
C2079 N2078 1.351 . S
C2079 C2080 1.434 . S
C2080 C2071 1.429 . S
C2080 N2077 1.350 . S
C2080 C2079 1.434 . S
C2081 C2082 1.369 . S
C2081 C2083 1.419 . S
C2081 H2085 0.930 . S
C2082 C2081 1.369 . S
C2082 C2091 1.429 . S
C2083 C2081 1.419 . S
C2083 C2084 1.363 . S
C2083 H2086 0.929 . S
C2084 C2083 1.363 . S
C2084 C2090 1.428 . S
H2085 C2081 0.930 . S
H2086 C2083 0.929 . S
S2087 N2088 1.613 . S
S2087 N2089 1.610 . S
N2088 S2087 1.613 . S
N2088 C2091 1.350 . S
N2089 S2087 1.610 . S
N2089 C2090 1.351 . S
C2090 C2084 1.428 . S
C2090 N2089 1.351 . S
C2090 C2091 1.434 . S
C2091 C2082 1.429 . S
C2091 N2088 1.350 . S
C2091 C2090 1.434 . S
C2092 C2093 1.369 . S
C2092 C2094 1.419 . S
C2092 H2096 0.930 . S
C2093 C2092 1.369 . S
C2093 C2102 1.429 . S
C2094 C2092 1.419 . S
C2094 C2095 1.363 . S
C2094 H2097 0.929 . S
C2095 C2094 1.363 . S
C2095 C2101 1.428 . S
H2096 C2092 0.930 . S
H2097 C2094 0.929 . S
S2098 N2099 1.613 . S
S2098 N2100 1.610 . S
N2099 S2098 1.613 . S
N2099 C2102 1.350 . S
N2100 S2098 1.610 . S
N2100 C2101 1.351 . S
C2101 C2095 1.428 . S
C2101 N2100 1.351 . S
C2101 C2102 1.434 . S
C2102 C2093 1.429 . S
C2102 N2099 1.350 . S
C2102 C2101 1.434 . S
C2103 C2104 1.369 . S
C2103 C2105 1.419 . S
C2103 H2107 0.930 . S
C2104 C2103 1.369 . S
C2104 C2113 1.429 . S
C2105 C2103 1.419 . S
C2105 C2106 1.363 . S
C2105 H2108 0.929 . S
C2106 C2105 1.363 . S
C2106 C2112 1.428 . S
H2107 C2103 0.930 . S
H2108 C2105 0.929 . S
S2109 N2110 1.613 . S
S2109 N2111 1.610 . S
N2110 S2109 1.613 . S
N2110 C2113 1.350 . S
N2111 S2109 1.610 . S
N2111 C2112 1.351 . S
C2112 C2106 1.428 . S
C2112 N2111 1.351 . S
C2112 C2113 1.434 . S
C2113 C2104 1.429 . S
C2113 N2110 1.350 . S
C2113 C2112 1.434 . S
C2114 C2115 1.369 . S
C2114 C2116 1.419 . S
C2114 H2118 0.930 . S
C2115 C2114 1.369 . S
C2115 C2124 1.429 . S
C2116 C2114 1.419 . S
C2116 C2117 1.363 . S
C2116 H2119 0.929 . S
C2117 C2116 1.363 . S
C2117 C2123 1.428 . S
H2118 C2114 0.930 . S
H2119 C2116 0.929 . S
S2120 N2121 1.613 . S
S2120 N2122 1.610 . S
N2121 S2120 1.613 . S
N2121 C2124 1.350 . S
N2122 S2120 1.610 . S
N2122 C2123 1.351 . S
C2123 C2117 1.428 . S
C2123 N2122 1.351 . S
C2123 C2124 1.434 . S
C2124 C2115 1.429 . S
C2124 N2121 1.350 . S
C2124 C2123 1.434 . S
C2125 C2126 1.369 . S
C2125 C2127 1.419 . S
C2125 H2129 0.930 . S
C2126 C2125 1.369 . S
C2126 C2135 1.429 . S
C2127 C2125 1.419 . S
C2127 C2128 1.363 . S
C2127 H2130 0.929 . S
C2128 C2127 1.363 . S
C2128 C2134 1.428 . S
H2129 C2125 0.930 . S
H2130 C2127 0.929 . S
S2131 N2132 1.613 . S
S2131 N2133 1.610 . S
N2132 S2131 1.613 . S
N2132 C2135 1.350 . S
N2133 S2131 1.610 . S
N2133 C2134 1.351 . S
C2134 C2128 1.428 . S
C2134 N2133 1.351 . S
C2134 C2135 1.434 . S
C2135 C2126 1.429 . S
C2135 N2132 1.350 . S
C2135 C2134 1.434 . S
C2136 C2137 1.369 . S
C2136 C2138 1.419 . S
C2136 H2140 0.930 . S
C2137 C2136 1.369 . S
C2137 C2146 1.429 . S
C2138 C2136 1.419 . S
C2138 C2139 1.363 . S
C2138 H2141 0.929 . S
C2139 C2138 1.363 . S
C2139 C2145 1.428 . S
H2140 C2136 0.930 . S
H2141 C2138 0.929 . S
S2142 N2143 1.613 . S
S2142 N2144 1.610 . S
N2143 S2142 1.613 . S
N2143 C2146 1.350 . S
N2144 S2142 1.610 . S
N2144 C2145 1.351 . S
C2145 C2139 1.428 . S
C2145 N2144 1.351 . S
C2145 C2146 1.434 . S
C2146 C2137 1.429 . S
C2146 N2143 1.350 . S
C2146 C2145 1.434 . S
C2147 C2148 1.369 . S
C2147 C2149 1.419 . S
C2147 H2151 0.930 . S
C2148 C2147 1.369 . S
C2148 C2157 1.429 . S
C2149 C2147 1.419 . S
C2149 C2150 1.363 . S
C2149 H2152 0.929 . S
C2150 C2149 1.363 . S
C2150 C2156 1.428 . S
H2151 C2147 0.930 . S
H2152 C2149 0.929 . S
S2153 N2154 1.613 . S
S2153 N2155 1.610 . S
N2154 S2153 1.613 . S
N2154 C2157 1.350 . S
N2155 S2153 1.610 . S
N2155 C2156 1.351 . S
C2156 C2150 1.428 . S
C2156 N2155 1.351 . S
C2156 C2157 1.434 . S
C2157 C2148 1.429 . S
C2157 N2154 1.350 . S
C2157 C2156 1.434 . S
C2158 C2159 1.369 . S
C2158 C2160 1.419 . S
C2158 H2162 0.930 . S
C2159 C2158 1.369 . S
C2159 C2168 1.429 . S
C2160 C2158 1.419 . S
C2160 C2161 1.363 . S
C2160 H2163 0.929 . S
C2161 C2160 1.363 . S
C2161 C2167 1.428 . S
H2162 C2158 0.930 . S
H2163 C2160 0.929 . S
S2164 N2165 1.613 . S
S2164 N2166 1.610 . S
N2165 S2164 1.613 . S
N2165 C2168 1.350 . S
N2166 S2164 1.610 . S
N2166 C2167 1.351 . S
C2167 C2161 1.428 . S
C2167 N2166 1.351 . S
C2167 C2168 1.434 . S
C2168 C2159 1.429 . S
C2168 N2165 1.350 . S
C2168 C2167 1.434 . S
C2169 C2170 1.369 . S
C2169 C2171 1.419 . S
C2169 H2173 0.930 . S
C2170 C2169 1.369 . S
C2170 C2179 1.429 . S
C2171 C2169 1.419 . S
C2171 C2172 1.363 . S
C2171 H2174 0.929 . S
C2172 C2171 1.363 . S
C2172 C2178 1.428 . S
H2173 C2169 0.930 . S
H2174 C2171 0.929 . S
S2175 N2176 1.613 . S
S2175 N2177 1.610 . S
N2176 S2175 1.613 . S
N2176 C2179 1.350 . S
N2177 S2175 1.610 . S
N2177 C2178 1.351 . S
C2178 C2172 1.428 . S
C2178 N2177 1.351 . S
C2178 C2179 1.434 . S
C2179 C2170 1.429 . S
C2179 N2176 1.350 . S
C2179 C2178 1.434 . S
C2180 C2181 1.369 . S
C2180 C2182 1.419 . S
C2180 H2184 0.930 . S
C2181 C2180 1.369 . S
C2181 C2190 1.429 . S
C2182 C2180 1.419 . S
C2182 C2183 1.363 . S
C2182 H2185 0.929 . S
C2183 C2182 1.363 . S
C2183 C2189 1.428 . S
H2184 C2180 0.930 . S
H2185 C2182 0.929 . S
S2186 N2187 1.613 . S
S2186 N2188 1.610 . S
N2187 S2186 1.613 . S
N2187 C2190 1.350 . S
N2188 S2186 1.610 . S
N2188 C2189 1.351 . S
C2189 C2183 1.428 . S
C2189 N2188 1.351 . S
C2189 C2190 1.434 . S
C2190 C2181 1.429 . S
C2190 N2187 1.350 . S
C2190 C2189 1.434 . S
C2191 C2192 1.369 . S
C2191 C2193 1.419 . S
C2191 H2195 0.930 . S
C2192 C2191 1.369 . S
C2192 C2201 1.429 . S
C2193 C2191 1.419 . S
C2193 C2194 1.363 . S
C2193 H2196 0.929 . S
C2194 C2193 1.363 . S
C2194 C2200 1.428 . S
H2195 C2191 0.930 . S
H2196 C2193 0.929 . S
S2197 N2198 1.613 . S
S2197 N2199 1.610 . S
N2198 S2197 1.613 . S
N2198 C2201 1.350 . S
N2199 S2197 1.610 . S
N2199 C2200 1.351 . S
C2200 C2194 1.428 . S
C2200 N2199 1.351 . S
C2200 C2201 1.434 . S
C2201 C2192 1.429 . S
C2201 N2198 1.350 . S
C2201 C2200 1.434 . S
C2202 C2203 1.369 . S
C2202 C2204 1.419 . S
C2202 H2206 0.930 . S
C2203 C2202 1.369 . S
C2203 C2212 1.429 . S
C2204 C2202 1.419 . S
C2204 C2205 1.363 . S
C2204 H2207 0.929 . S
C2205 C2204 1.363 . S
C2205 C2211 1.428 . S
H2206 C2202 0.930 . S
H2207 C2204 0.929 . S
S2208 N2209 1.613 . S
S2208 N2210 1.610 . S
N2209 S2208 1.613 . S
N2209 C2212 1.350 . S
N2210 S2208 1.610 . S
N2210 C2211 1.351 . S
C2211 C2205 1.428 . S
C2211 N2210 1.351 . S
C2211 C2212 1.434 . S
C2212 C2203 1.429 . S
C2212 N2209 1.350 . S
C2212 C2211 1.434 . S
C2213 C2214 1.369 . S
C2213 C2215 1.419 . S
C2213 H2217 0.930 . S
C2214 C2213 1.369 . S
C2214 C2223 1.429 . S
C2215 C2213 1.419 . S
C2215 C2216 1.363 . S
C2215 H2218 0.929 . S
C2216 C2215 1.363 . S
C2216 C2222 1.428 . S
H2217 C2213 0.930 . S
H2218 C2215 0.929 . S
S2219 N2220 1.613 . S
S2219 N2221 1.610 . S
N2220 S2219 1.613 . S
N2220 C2223 1.350 . S
N2221 S2219 1.610 . S
N2221 C2222 1.351 . S
C2222 C2216 1.428 . S
C2222 N2221 1.351 . S
C2222 C2223 1.434 . S
C2223 C2214 1.429 . S
C2223 N2220 1.350 . S
C2223 C2222 1.434 . S
C2224 C2225 1.369 . S
C2224 C2226 1.419 . S
C2224 H2228 0.930 . S
C2225 C2224 1.369 . S
C2225 C2234 1.429 . S
C2226 C2224 1.419 . S
C2226 C2227 1.363 . S
C2226 H2229 0.929 . S
C2227 C2226 1.363 . S
C2227 C2233 1.428 . S
H2228 C2224 0.930 . S
H2229 C2226 0.929 . S
S2230 N2231 1.613 . S
S2230 N2232 1.610 . S
N2231 S2230 1.613 . S
N2231 C2234 1.350 . S
N2232 S2230 1.610 . S
N2232 C2233 1.351 . S
C2233 C2227 1.428 . S
C2233 N2232 1.351 . S
C2233 C2234 1.434 . S
C2234 C2225 1.429 . S
C2234 N2231 1.350 . S
C2234 C2233 1.434 . S
C2235 C2236 1.369 . S
C2235 C2237 1.419 . S
C2235 H2239 0.930 . S
C2236 C2235 1.369 . S
C2236 C2245 1.429 . S
C2237 C2235 1.419 . S
C2237 C2238 1.363 . S
C2237 H2240 0.929 . S
C2238 C2237 1.363 . S
C2238 C2244 1.428 . S
H2239 C2235 0.930 . S
H2240 C2237 0.929 . S
S2241 N2242 1.613 . S
S2241 N2243 1.610 . S
N2242 S2241 1.613 . S
N2242 C2245 1.350 . S
N2243 S2241 1.610 . S
N2243 C2244 1.351 . S
C2244 C2238 1.428 . S
C2244 N2243 1.351 . S
C2244 C2245 1.434 . S
C2245 C2236 1.429 . S
C2245 N2242 1.350 . S
C2245 C2244 1.434 . S
C2246 C2247 1.369 . S
C2246 C2248 1.419 . S
C2246 H2250 0.930 . S
C2247 C2246 1.369 . S
C2247 C2256 1.429 . S
C2248 C2246 1.419 . S
C2248 C2249 1.363 . S
C2248 H2251 0.929 . S
C2249 C2248 1.363 . S
C2249 C2255 1.428 . S
H2250 C2246 0.930 . S
H2251 C2248 0.929 . S
S2252 N2253 1.613 . S
S2252 N2254 1.610 . S
N2253 S2252 1.613 . S
N2253 C2256 1.350 . S
N2254 S2252 1.610 . S
N2254 C2255 1.351 . S
C2255 C2249 1.428 . S
C2255 N2254 1.351 . S
C2255 C2256 1.434 . S
C2256 C2247 1.429 . S
C2256 N2253 1.350 . S
C2256 C2255 1.434 . S
C2257 C2258 1.369 . S
C2257 C2259 1.419 . S
C2257 H2261 0.930 . S
C2258 C2257 1.369 . S
C2258 C2267 1.429 . S
C2259 C2257 1.419 . S
C2259 C2260 1.363 . S
C2259 H2262 0.929 . S
C2260 C2259 1.363 . S
C2260 C2266 1.428 . S
H2261 C2257 0.930 . S
H2262 C2259 0.929 . S
S2263 N2264 1.613 . S
S2263 N2265 1.610 . S
N2264 S2263 1.613 . S
N2264 C2267 1.350 . S
N2265 S2263 1.610 . S
N2265 C2266 1.351 . S
C2266 C2260 1.428 . S
C2266 N2265 1.351 . S
C2266 C2267 1.434 . S
C2267 C2258 1.429 . S
C2267 N2264 1.350 . S
C2267 C2266 1.434 . S
C2268 C2269 1.369 . S
C2268 C2270 1.419 . S
C2268 H2272 0.930 . S
C2269 C2268 1.369 . S
C2269 C2278 1.429 . S
C2270 C2268 1.419 . S
C2270 C2271 1.363 . S
C2270 H2273 0.929 . S
C2271 C2270 1.363 . S
C2271 C2277 1.428 . S
H2272 C2268 0.930 . S
H2273 C2270 0.929 . S
S2274 N2275 1.613 . S
S2274 N2276 1.610 . S
N2275 S2274 1.613 . S
N2275 C2278 1.350 . S
N2276 S2274 1.610 . S
N2276 C2277 1.351 . S
C2277 C2271 1.428 . S
C2277 N2276 1.351 . S
C2277 C2278 1.434 . S
C2278 C2269 1.429 . S
C2278 N2275 1.350 . S
C2278 C2277 1.434 . S
C2279 C2280 1.369 . S
C2279 C2281 1.419 . S
C2279 H2283 0.930 . S
C2280 C2279 1.369 . S
C2280 C2289 1.429 . S
C2281 C2279 1.419 . S
C2281 C2282 1.363 . S
C2281 H2284 0.929 . S
C2282 C2281 1.363 . S
C2282 C2288 1.428 . S
H2283 C2279 0.930 . S
H2284 C2281 0.929 . S
S2285 N2286 1.613 . S
S2285 N2287 1.610 . S
N2286 S2285 1.613 . S
N2286 C2289 1.350 . S
N2287 S2285 1.610 . S
N2287 C2288 1.351 . S
C2288 C2282 1.428 . S
C2288 N2287 1.351 . S
C2288 C2289 1.434 . S
C2289 C2280 1.429 . S
C2289 N2286 1.350 . S
C2289 C2288 1.434 . S
C2290 C2291 1.369 . S
C2290 C2292 1.419 . S
C2290 H2294 0.930 . S
C2291 C2290 1.369 . S
C2291 C2300 1.429 . S
C2292 C2290 1.419 . S
C2292 C2293 1.363 . S
C2292 H2295 0.929 . S
C2293 C2292 1.363 . S
C2293 C2299 1.428 . S
H2294 C2290 0.930 . S
H2295 C2292 0.929 . S
S2296 N2297 1.613 . S
S2296 N2298 1.610 . S
N2297 S2296 1.613 . S
N2297 C2300 1.350 . S
N2298 S2296 1.610 . S
N2298 C2299 1.351 . S
C2299 C2293 1.428 . S
C2299 N2298 1.351 . S
C2299 C2300 1.434 . S
C2300 C2291 1.429 . S
C2300 N2297 1.350 . S
C2300 C2299 1.434 . S
C2301 C2302 1.369 . S
C2301 C2303 1.419 . S
C2301 H2305 0.930 . S
C2302 C2301 1.369 . S
C2302 C2311 1.429 . S
C2303 C2301 1.419 . S
C2303 C2304 1.363 . S
C2303 H2306 0.929 . S
C2304 C2303 1.363 . S
C2304 C2310 1.428 . S
H2305 C2301 0.930 . S
H2306 C2303 0.929 . S
S2307 N2308 1.613 . S
S2307 N2309 1.610 . S
N2308 S2307 1.613 . S
N2308 C2311 1.350 . S
N2309 S2307 1.610 . S
N2309 C2310 1.351 . S
C2310 C2304 1.428 . S
C2310 N2309 1.351 . S
C2310 C2311 1.434 . S
C2311 C2302 1.429 . S
C2311 N2308 1.350 . S
C2311 C2310 1.434 . S
C2312 C2313 1.369 . S
C2312 C2314 1.419 . S
C2312 H2316 0.930 . S
C2313 C2312 1.369 . S
C2313 C2322 1.429 . S
C2314 C2312 1.419 . S
C2314 C2315 1.363 . S
C2314 H2317 0.929 . S
C2315 C2314 1.363 . S
C2315 C2321 1.428 . S
H2316 C2312 0.930 . S
H2317 C2314 0.929 . S
S2318 N2319 1.613 . S
S2318 N2320 1.610 . S
N2319 S2318 1.613 . S
N2319 C2322 1.350 . S
N2320 S2318 1.610 . S
N2320 C2321 1.351 . S
C2321 C2315 1.428 . S
C2321 N2320 1.351 . S
C2321 C2322 1.434 . S
C2322 C2313 1.429 . S
C2322 N2319 1.350 . S
C2322 C2321 1.434 . S
C2323 C2324 1.369 . S
C2323 C2325 1.419 . S
C2323 H2327 0.930 . S
C2324 C2323 1.369 . S
C2324 C2333 1.429 . S
C2325 C2323 1.419 . S
C2325 C2326 1.363 . S
C2325 H2328 0.929 . S
C2326 C2325 1.363 . S
C2326 C2332 1.428 . S
H2327 C2323 0.930 . S
H2328 C2325 0.929 . S
S2329 N2330 1.613 . S
S2329 N2331 1.610 . S
N2330 S2329 1.613 . S
N2330 C2333 1.350 . S
N2331 S2329 1.610 . S
N2331 C2332 1.351 . S
C2332 C2326 1.428 . S
C2332 N2331 1.351 . S
C2332 C2333 1.434 . S
C2333 C2324 1.429 . S
C2333 N2330 1.350 . S
C2333 C2332 1.434 . S
C2334 C2335 1.369 . S
C2334 C2336 1.419 . S
C2334 H2338 0.930 . S
C2335 C2334 1.369 . S
C2335 C2344 1.429 . S
C2336 C2334 1.419 . S
C2336 C2337 1.363 . S
C2336 H2339 0.929 . S
C2337 C2336 1.363 . S
C2337 C2343 1.428 . S
H2338 C2334 0.930 . S
H2339 C2336 0.929 . S
S2340 N2341 1.613 . S
S2340 N2342 1.610 . S
N2341 S2340 1.613 . S
N2341 C2344 1.350 . S
N2342 S2340 1.610 . S
N2342 C2343 1.351 . S
C2343 C2337 1.428 . S
C2343 N2342 1.351 . S
C2343 C2344 1.434 . S
C2344 C2335 1.429 . S
C2344 N2341 1.350 . S
C2344 C2343 1.434 . S
C2345 C2346 1.369 . S
C2345 C2347 1.419 . S
C2345 H2349 0.930 . S
C2346 C2345 1.369 . S
C2346 C2355 1.429 . S
C2347 C2345 1.419 . S
C2347 C2348 1.363 . S
C2347 H2350 0.929 . S
C2348 C2347 1.363 . S
C2348 C2354 1.428 . S
H2349 C2345 0.930 . S
H2350 C2347 0.929 . S
S2351 N2352 1.613 . S
S2351 N2353 1.610 . S
N2352 S2351 1.613 . S
N2352 C2355 1.350 . S
N2353 S2351 1.610 . S
N2353 C2354 1.351 . S
C2354 C2348 1.428 . S
C2354 N2353 1.351 . S
C2354 C2355 1.434 . S
C2355 C2346 1.429 . S
C2355 N2352 1.350 . S
C2355 C2354 1.434 . S
C2356 C2357 1.369 . S
C2356 C2358 1.419 . S
C2356 H2360 0.930 . S
C2357 C2356 1.369 . S
C2357 C2366 1.429 . S
C2358 C2356 1.419 . S
C2358 C2359 1.363 . S
C2358 H2361 0.929 . S
C2359 C2358 1.363 . S
C2359 C2365 1.428 . S
H2360 C2356 0.930 . S
H2361 C2358 0.929 . S
S2362 N2363 1.613 . S
S2362 N2364 1.610 . S
N2363 S2362 1.613 . S
N2363 C2366 1.350 . S
N2364 S2362 1.610 . S
N2364 C2365 1.351 . S
C2365 C2359 1.428 . S
C2365 N2364 1.351 . S
C2365 C2366 1.434 . S
C2366 C2357 1.429 . S
C2366 N2363 1.350 . S
C2366 C2365 1.434 . S
C2367 C2368 1.369 . S
C2367 C2369 1.419 . S
C2367 H2371 0.930 . S
C2368 C2367 1.369 . S
C2368 C2377 1.429 . S
C2369 C2367 1.419 . S
C2369 C2370 1.363 . S
C2369 H2372 0.929 . S
C2370 C2369 1.363 . S
C2370 C2376 1.428 . S
H2371 C2367 0.930 . S
H2372 C2369 0.929 . S
S2373 N2374 1.613 . S
S2373 N2375 1.610 . S
N2374 S2373 1.613 . S
N2374 C2377 1.350 . S
N2375 S2373 1.610 . S
N2375 C2376 1.351 . S
C2376 C2370 1.428 . S
C2376 N2375 1.351 . S
C2376 C2377 1.434 . S
C2377 C2368 1.429 . S
C2377 N2374 1.350 . S
C2377 C2376 1.434 . S
C2378 C2379 1.369 . S
C2378 C2380 1.419 . S
C2378 H2382 0.930 . S
C2379 C2378 1.369 . S
C2379 C2388 1.429 . S
C2380 C2378 1.419 . S
C2380 C2381 1.363 . S
C2380 H2383 0.929 . S
C2381 C2380 1.363 . S
C2381 C2387 1.428 . S
H2382 C2378 0.930 . S
H2383 C2380 0.929 . S
S2384 N2385 1.613 . S
S2384 N2386 1.610 . S
N2385 S2384 1.613 . S
N2385 C2388 1.350 . S
N2386 S2384 1.610 . S
N2386 C2387 1.351 . S
C2387 C2381 1.428 . S
C2387 N2386 1.351 . S
C2387 C2388 1.434 . S
C2388 C2379 1.429 . S
C2388 N2385 1.350 . S
C2388 C2387 1.434 . S
C2389 C2390 1.369 . S
C2389 C2391 1.419 . S
C2389 H2393 0.930 . S
C2390 C2389 1.369 . S
C2390 C2399 1.429 . S
C2391 C2389 1.419 . S
C2391 C2392 1.363 . S
C2391 H2394 0.929 . S
C2392 C2391 1.363 . S
C2392 C2398 1.428 . S
H2393 C2389 0.930 . S
H2394 C2391 0.929 . S
S2395 N2396 1.613 . S
S2395 N2397 1.610 . S
N2396 S2395 1.613 . S
N2396 C2399 1.350 . S
N2397 S2395 1.610 . S
N2397 C2398 1.351 . S
C2398 C2392 1.428 . S
C2398 N2397 1.351 . S
C2398 C2399 1.434 . S
C2399 C2390 1.429 . S
C2399 N2396 1.350 . S
C2399 C2398 1.434 . S
C2400 C2401 1.369 . S
C2400 C2402 1.419 . S
C2400 H2404 0.930 . S
C2401 C2400 1.369 . S
C2401 C2410 1.429 . S
C2402 C2400 1.419 . S
C2402 C2403 1.363 . S
C2402 H2405 0.929 . S
C2403 C2402 1.363 . S
C2403 C2409 1.428 . S
H2404 C2400 0.930 . S
H2405 C2402 0.929 . S
S2406 N2407 1.613 . S
S2406 N2408 1.610 . S
N2407 S2406 1.613 . S
N2407 C2410 1.350 . S
N2408 S2406 1.610 . S
N2408 C2409 1.351 . S
C2409 C2403 1.428 . S
C2409 N2408 1.351 . S
C2409 C2410 1.434 . S
C2410 C2401 1.429 . S
C2410 N2407 1.350 . S
C2410 C2409 1.434 . S
C2411 C2412 1.369 . S
C2411 C2413 1.419 . S
C2411 H2415 0.930 . S
C2412 C2411 1.369 . S
C2412 C2421 1.429 . S
C2413 C2411 1.419 . S
C2413 C2414 1.363 . S
C2413 H2416 0.929 . S
C2414 C2413 1.363 . S
C2414 C2420 1.428 . S
H2415 C2411 0.930 . S
H2416 C2413 0.929 . S
S2417 N2418 1.613 . S
S2417 N2419 1.610 . S
N2418 S2417 1.613 . S
N2418 C2421 1.350 . S
N2419 S2417 1.610 . S
N2419 C2420 1.351 . S
C2420 C2414 1.428 . S
C2420 N2419 1.351 . S
C2420 C2421 1.434 . S
C2421 C2412 1.429 . S
C2421 N2418 1.350 . S
C2421 C2420 1.434 . S
C2422 C2423 1.369 . S
C2422 C2424 1.419 . S
C2422 H2426 0.930 . S
C2423 C2422 1.369 . S
C2423 C2432 1.429 . S
C2424 C2422 1.419 . S
C2424 C2425 1.363 . S
C2424 H2427 0.929 . S
C2425 C2424 1.363 . S
C2425 C2431 1.428 . S
H2426 C2422 0.930 . S
H2427 C2424 0.929 . S
S2428 N2429 1.613 . S
S2428 N2430 1.610 . S
N2429 S2428 1.613 . S
N2429 C2432 1.350 . S
N2430 S2428 1.610 . S
N2430 C2431 1.351 . S
C2431 C2425 1.428 . S
C2431 N2430 1.351 . S
C2431 C2432 1.434 . S
C2432 C2423 1.429 . S
C2432 N2429 1.350 . S
C2432 C2431 1.434 . S
C2433 C2434 1.369 . S
C2433 C2435 1.419 . S
C2433 H2437 0.930 . S
C2434 C2433 1.369 . S
C2434 C2443 1.429 . S
C2435 C2433 1.419 . S
C2435 C2436 1.363 . S
C2435 H2438 0.929 . S
C2436 C2435 1.363 . S
C2436 C2442 1.428 . S
H2437 C2433 0.930 . S
H2438 C2435 0.929 . S
S2439 N2440 1.613 . S
S2439 N2441 1.610 . S
N2440 S2439 1.613 . S
N2440 C2443 1.350 . S
N2441 S2439 1.610 . S
N2441 C2442 1.351 . S
C2442 C2436 1.428 . S
C2442 N2441 1.351 . S
C2442 C2443 1.434 . S
C2443 C2434 1.429 . S
C2443 N2440 1.350 . S
C2443 C2442 1.434 . S
C2444 C2445 1.369 . S
C2444 C2446 1.419 . S
C2444 H2448 0.930 . S
C2445 C2444 1.369 . S
C2445 C2454 1.429 . S
C2446 C2444 1.419 . S
C2446 C2447 1.363 . S
C2446 H2449 0.929 . S
C2447 C2446 1.363 . S
C2447 C2453 1.428 . S
H2448 C2444 0.930 . S
H2449 C2446 0.929 . S
S2450 N2451 1.613 . S
S2450 N2452 1.610 . S
N2451 S2450 1.613 . S
N2451 C2454 1.350 . S
N2452 S2450 1.610 . S
N2452 C2453 1.351 . S
C2453 C2447 1.428 . S
C2453 N2452 1.351 . S
C2453 C2454 1.434 . S
C2454 C2445 1.429 . S
C2454 N2451 1.350 . S
C2454 C2453 1.434 . S
C2455 C2456 1.369 . S
C2455 C2457 1.419 . S
C2455 H2459 0.930 . S
C2456 C2455 1.369 . S
C2456 C2465 1.429 . S
C2457 C2455 1.419 . S
C2457 C2458 1.363 . S
C2457 H2460 0.929 . S
C2458 C2457 1.363 . S
C2458 C2464 1.428 . S
H2459 C2455 0.930 . S
H2460 C2457 0.929 . S
S2461 N2462 1.613 . S
S2461 N2463 1.610 . S
N2462 S2461 1.613 . S
N2462 C2465 1.350 . S
N2463 S2461 1.610 . S
N2463 C2464 1.351 . S
C2464 C2458 1.428 . S
C2464 N2463 1.351 . S
C2464 C2465 1.434 . S
C2465 C2456 1.429 . S
C2465 N2462 1.350 . S
C2465 C2464 1.434 . S
C2466 C2467 1.369 . S
C2466 C2468 1.419 . S
C2466 H2470 0.930 . S
C2467 C2466 1.369 . S
C2467 C2476 1.429 . S
C2468 C2466 1.419 . S
C2468 C2469 1.363 . S
C2468 H2471 0.929 . S
C2469 C2468 1.363 . S
C2469 C2475 1.428 . S
H2470 C2466 0.930 . S
H2471 C2468 0.929 . S
S2472 N2473 1.613 . S
S2472 N2474 1.610 . S
N2473 S2472 1.613 . S
N2473 C2476 1.350 . S
N2474 S2472 1.610 . S
N2474 C2475 1.351 . S
C2475 C2469 1.428 . S
C2475 N2474 1.351 . S
C2475 C2476 1.434 . S
C2476 C2467 1.429 . S
C2476 N2473 1.350 . S
C2476 C2475 1.434 . S
C2477 C2478 1.369 . S
C2477 C2479 1.419 . S
C2477 H2481 0.930 . S
C2478 C2477 1.369 . S
C2478 C2487 1.429 . S
C2479 C2477 1.419 . S
C2479 C2480 1.363 . S
C2479 H2482 0.929 . S
C2480 C2479 1.363 . S
C2480 C2486 1.428 . S
H2481 C2477 0.930 . S
H2482 C2479 0.929 . S
S2483 N2484 1.613 . S
S2483 N2485 1.610 . S
N2484 S2483 1.613 . S
N2484 C2487 1.350 . S
N2485 S2483 1.610 . S
N2485 C2486 1.351 . S
C2486 C2480 1.428 . S
C2486 N2485 1.351 . S
C2486 C2487 1.434 . S
C2487 C2478 1.429 . S
C2487 N2484 1.350 . S
C2487 C2486 1.434 . S
C2488 C2489 1.369 . S
C2488 C2490 1.419 . S
C2488 H2492 0.930 . S
C2489 C2488 1.369 . S
C2489 C2498 1.429 . S
C2490 C2488 1.419 . S
C2490 C2491 1.363 . S
C2490 H2493 0.929 . S
C2491 C2490 1.363 . S
C2491 C2497 1.428 . S
H2492 C2488 0.930 . S
H2493 C2490 0.929 . S
S2494 N2495 1.613 . S
S2494 N2496 1.610 . S
N2495 S2494 1.613 . S
N2495 C2498 1.350 . S
N2496 S2494 1.610 . S
N2496 C2497 1.351 . S
C2497 C2491 1.428 . S
C2497 N2496 1.351 . S
C2497 C2498 1.434 . S
C2498 C2489 1.429 . S
C2498 N2495 1.350 . S
C2498 C2497 1.434 . S
C2499 C2500 1.369 . S
C2499 C2501 1.419 . S
C2499 H2503 0.930 . S
C2500 C2499 1.369 . S
C2500 C2509 1.429 . S
C2501 C2499 1.419 . S
C2501 C2502 1.363 . S
C2501 H2504 0.929 . S
C2502 C2501 1.363 . S
C2502 C2508 1.428 . S
H2503 C2499 0.930 . S
H2504 C2501 0.929 . S
S2505 N2506 1.613 . S
S2505 N2507 1.610 . S
N2506 S2505 1.613 . S
N2506 C2509 1.350 . S
N2507 S2505 1.610 . S
N2507 C2508 1.351 . S
C2508 C2502 1.428 . S
C2508 N2507 1.351 . S
C2508 C2509 1.434 . S
C2509 C2500 1.429 . S
C2509 N2506 1.350 . S
C2509 C2508 1.434 . S
C2510 C2511 1.369 . S
C2510 C2512 1.419 . S
C2510 H2514 0.930 . S
C2511 C2510 1.369 . S
C2511 C2520 1.429 . S
C2512 C2510 1.419 . S
C2512 C2513 1.363 . S
C2512 H2515 0.929 . S
C2513 C2512 1.363 . S
C2513 C2519 1.428 . S
H2514 C2510 0.930 . S
H2515 C2512 0.929 . S
S2516 N2517 1.613 . S
S2516 N2518 1.610 . S
N2517 S2516 1.613 . S
N2517 C2520 1.350 . S
N2518 S2516 1.610 . S
N2518 C2519 1.351 . S
C2519 C2513 1.428 . S
C2519 N2518 1.351 . S
C2519 C2520 1.434 . S
C2520 C2511 1.429 . S
C2520 N2517 1.350 . S
C2520 C2519 1.434 . S
C2521 C2522 1.369 . S
C2521 C2523 1.419 . S
C2521 H2525 0.930 . S
C2522 C2521 1.369 . S
C2522 C2531 1.429 . S
C2523 C2521 1.419 . S
C2523 C2524 1.363 . S
C2523 H2526 0.929 . S
C2524 C2523 1.363 . S
C2524 C2530 1.428 . S
H2525 C2521 0.930 . S
H2526 C2523 0.929 . S
S2527 N2528 1.613 . S
S2527 N2529 1.610 . S
N2528 S2527 1.613 . S
N2528 C2531 1.350 . S
N2529 S2527 1.610 . S
N2529 C2530 1.351 . S
C2530 C2524 1.428 . S
C2530 N2529 1.351 . S
C2530 C2531 1.434 . S
C2531 C2522 1.429 . S
C2531 N2528 1.350 . S
C2531 C2530 1.434 . S
C2532 C2533 1.369 . S
C2532 C2534 1.419 . S
C2532 H2536 0.930 . S
C2533 C2532 1.369 . S
C2533 C2542 1.429 . S
C2534 C2532 1.419 . S
C2534 C2535 1.363 . S
C2534 H2537 0.929 . S
C2535 C2534 1.363 . S
C2535 C2541 1.428 . S
H2536 C2532 0.930 . S
H2537 C2534 0.929 . S
S2538 N2539 1.613 . S
S2538 N2540 1.610 . S
N2539 S2538 1.613 . S
N2539 C2542 1.350 . S
N2540 S2538 1.610 . S
N2540 C2541 1.351 . S
C2541 C2535 1.428 . S
C2541 N2540 1.351 . S
C2541 C2542 1.434 . S
C2542 C2533 1.429 . S
C2542 N2539 1.350 . S
C2542 C2541 1.434 . S
C2543 C2544 1.369 . S
C2543 C2545 1.419 . S
C2543 H2547 0.930 . S
C2544 C2543 1.369 . S
C2544 C2553 1.429 . S
C2545 C2543 1.419 . S
C2545 C2546 1.363 . S
C2545 H2548 0.929 . S
C2546 C2545 1.363 . S
C2546 C2552 1.428 . S
H2547 C2543 0.930 . S
H2548 C2545 0.929 . S
S2549 N2550 1.613 . S
S2549 N2551 1.610 . S
N2550 S2549 1.613 . S
N2550 C2553 1.350 . S
N2551 S2549 1.610 . S
N2551 C2552 1.351 . S
C2552 C2546 1.428 . S
C2552 N2551 1.351 . S
C2552 C2553 1.434 . S
C2553 C2544 1.429 . S
C2553 N2550 1.350 . S
C2553 C2552 1.434 . S
C2554 C2555 1.369 . S
C2554 C2556 1.419 . S
C2554 H2558 0.930 . S
C2555 C2554 1.369 . S
C2555 C2564 1.429 . S
C2556 C2554 1.419 . S
C2556 C2557 1.363 . S
C2556 H2559 0.929 . S
C2557 C2556 1.363 . S
C2557 C2563 1.428 . S
H2558 C2554 0.930 . S
H2559 C2556 0.929 . S
S2560 N2561 1.613 . S
S2560 N2562 1.610 . S
N2561 S2560 1.613 . S
N2561 C2564 1.350 . S
N2562 S2560 1.610 . S
N2562 C2563 1.351 . S
C2563 C2557 1.428 . S
C2563 N2562 1.351 . S
C2563 C2564 1.434 . S
C2564 C2555 1.429 . S
C2564 N2561 1.350 . S
C2564 C2563 1.434 . S
C2565 C2566 1.369 . S
C2565 C2567 1.419 . S
C2565 H2569 0.930 . S
C2566 C2565 1.369 . S
C2566 C2575 1.429 . S
C2567 C2565 1.419 . S
C2567 C2568 1.363 . S
C2567 H2570 0.929 . S
C2568 C2567 1.363 . S
C2568 C2574 1.428 . S
H2569 C2565 0.930 . S
H2570 C2567 0.929 . S
S2571 N2572 1.613 . S
S2571 N2573 1.610 . S
N2572 S2571 1.613 . S
N2572 C2575 1.350 . S
N2573 S2571 1.610 . S
N2573 C2574 1.351 . S
C2574 C2568 1.428 . S
C2574 N2573 1.351 . S
C2574 C2575 1.434 . S
C2575 C2566 1.429 . S
C2575 N2572 1.350 . S
C2575 C2574 1.434 . S
C2576 C2577 1.369 . S
C2576 C2578 1.419 . S
C2576 H2580 0.930 . S
C2577 C2576 1.369 . S
C2577 C2586 1.429 . S
C2578 C2576 1.419 . S
C2578 C2579 1.363 . S
C2578 H2581 0.929 . S
C2579 C2578 1.363 . S
C2579 C2585 1.428 . S
H2580 C2576 0.930 . S
H2581 C2578 0.929 . S
S2582 N2583 1.613 . S
S2582 N2584 1.610 . S
N2583 S2582 1.613 . S
N2583 C2586 1.350 . S
N2584 S2582 1.610 . S
N2584 C2585 1.351 . S
C2585 C2579 1.428 . S
C2585 N2584 1.351 . S
C2585 C2586 1.434 . S
C2586 C2577 1.429 . S
C2586 N2583 1.350 . S
C2586 C2585 1.434 . S
C2587 C2588 1.369 . S
C2587 C2589 1.419 . S
C2587 H2591 0.930 . S
C2588 C2587 1.369 . S
C2588 C2597 1.429 . S
C2589 C2587 1.419 . S
C2589 C2590 1.363 . S
C2589 H2592 0.929 . S
C2590 C2589 1.363 . S
C2590 C2596 1.428 . S
H2591 C2587 0.930 . S
H2592 C2589 0.929 . S
S2593 N2594 1.613 . S
S2593 N2595 1.610 . S
N2594 S2593 1.613 . S
N2594 C2597 1.350 . S
N2595 S2593 1.610 . S
N2595 C2596 1.351 . S
C2596 C2590 1.428 . S
C2596 N2595 1.351 . S
C2596 C2597 1.434 . S
C2597 C2588 1.429 . S
C2597 N2594 1.350 . S
C2597 C2596 1.434 . S
C2598 C2599 1.369 . S
C2598 C2600 1.419 . S
C2598 H2602 0.930 . S
C2599 C2598 1.369 . S
C2599 C2608 1.429 . S
C2600 C2598 1.419 . S
C2600 C2601 1.363 . S
C2600 H2603 0.929 . S
C2601 C2600 1.363 . S
C2601 C2607 1.428 . S
H2602 C2598 0.930 . S
H2603 C2600 0.929 . S
S2604 N2605 1.613 . S
S2604 N2606 1.610 . S
N2605 S2604 1.613 . S
N2605 C2608 1.350 . S
N2606 S2604 1.610 . S
N2606 C2607 1.351 . S
C2607 C2601 1.428 . S
C2607 N2606 1.351 . S
C2607 C2608 1.434 . S
C2608 C2599 1.429 . S
C2608 N2605 1.350 . S
C2608 C2607 1.434 . S
C2609 C2610 1.369 . S
C2609 C2611 1.419 . S
C2609 H2613 0.930 . S
C2610 C2609 1.369 . S
C2610 C2619 1.429 . S
C2611 C2609 1.419 . S
C2611 C2612 1.363 . S
C2611 H2614 0.929 . S
C2612 C2611 1.363 . S
C2612 C2618 1.428 . S
H2613 C2609 0.930 . S
H2614 C2611 0.929 . S
S2615 N2616 1.613 . S
S2615 N2617 1.610 . S
N2616 S2615 1.613 . S
N2616 C2619 1.350 . S
N2617 S2615 1.610 . S
N2617 C2618 1.351 . S
C2618 C2612 1.428 . S
C2618 N2617 1.351 . S
C2618 C2619 1.434 . S
C2619 C2610 1.429 . S
C2619 N2616 1.350 . S
C2619 C2618 1.434 . S
C2620 C2621 1.369 . S
C2620 C2622 1.419 . S
C2620 H2624 0.930 . S
C2621 C2620 1.369 . S
C2621 C2630 1.429 . S
C2622 C2620 1.419 . S
C2622 C2623 1.363 . S
C2622 H2625 0.929 . S
C2623 C2622 1.363 . S
C2623 C2629 1.428 . S
H2624 C2620 0.930 . S
H2625 C2622 0.929 . S
S2626 N2627 1.613 . S
S2626 N2628 1.610 . S
N2627 S2626 1.613 . S
N2627 C2630 1.350 . S
N2628 S2626 1.610 . S
N2628 C2629 1.351 . S
C2629 C2623 1.428 . S
C2629 N2628 1.351 . S
C2629 C2630 1.434 . S
C2630 C2621 1.429 . S
C2630 N2627 1.350 . S
C2630 C2629 1.434 . S
C2631 C2632 1.369 . S
C2631 C2633 1.419 . S
C2631 H2635 0.930 . S
C2632 C2631 1.369 . S
C2632 C2641 1.429 . S
C2633 C2631 1.419 . S
C2633 C2634 1.363 . S
C2633 H2636 0.929 . S
C2634 C2633 1.363 . S
C2634 C2640 1.428 . S
H2635 C2631 0.930 . S
H2636 C2633 0.929 . S
S2637 N2638 1.613 . S
S2637 N2639 1.610 . S
N2638 S2637 1.613 . S
N2638 C2641 1.350 . S
N2639 S2637 1.610 . S
N2639 C2640 1.351 . S
C2640 C2634 1.428 . S
C2640 N2639 1.351 . S
C2640 C2641 1.434 . S
C2641 C2632 1.429 . S
C2641 N2638 1.350 . S
C2641 C2640 1.434 . S
C2642 C2643 1.369 . S
C2642 C2644 1.419 . S
C2642 H2646 0.930 . S
C2643 C2642 1.369 . S
C2643 C2652 1.429 . S
C2644 C2642 1.419 . S
C2644 C2645 1.363 . S
C2644 H2647 0.929 . S
C2645 C2644 1.363 . S
C2645 C2651 1.428 . S
H2646 C2642 0.930 . S
H2647 C2644 0.929 . S
S2648 N2649 1.613 . S
S2648 N2650 1.610 . S
N2649 S2648 1.613 . S
N2649 C2652 1.350 . S
N2650 S2648 1.610 . S
N2650 C2651 1.351 . S
C2651 C2645 1.428 . S
C2651 N2650 1.351 . S
C2651 C2652 1.434 . S
C2652 C2643 1.429 . S
C2652 N2649 1.350 . S
C2652 C2651 1.434 . S
C2653 C2654 1.369 . S
C2653 C2655 1.419 . S
C2653 H2657 0.930 . S
C2654 C2653 1.369 . S
C2654 C2663 1.429 . S
C2655 C2653 1.419 . S
C2655 C2656 1.363 . S
C2655 H2658 0.929 . S
C2656 C2655 1.363 . S
C2656 C2662 1.428 . S
H2657 C2653 0.930 . S
H2658 C2655 0.929 . S
S2659 N2660 1.613 . S
S2659 N2661 1.610 . S
N2660 S2659 1.613 . S
N2660 C2663 1.350 . S
N2661 S2659 1.610 . S
N2661 C2662 1.351 . S
C2662 C2656 1.428 . S
C2662 N2661 1.351 . S
C2662 C2663 1.434 . S
C2663 C2654 1.429 . S
C2663 N2660 1.350 . S
C2663 C2662 1.434 . S
C2664 C2665 1.369 . S
C2664 C2666 1.419 . S
C2664 H2668 0.930 . S
C2665 C2664 1.369 . S
C2665 C2674 1.429 . S
C2666 C2664 1.419 . S
C2666 C2667 1.363 . S
C2666 H2669 0.929 . S
C2667 C2666 1.363 . S
C2667 C2673 1.428 . S
H2668 C2664 0.930 . S
H2669 C2666 0.929 . S
S2670 N2671 1.613 . S
S2670 N2672 1.610 . S
N2671 S2670 1.613 . S
N2671 C2674 1.350 . S
N2672 S2670 1.610 . S
N2672 C2673 1.351 . S
C2673 C2667 1.428 . S
C2673 N2672 1.351 . S
C2673 C2674 1.434 . S
C2674 C2665 1.429 . S
C2674 N2671 1.350 . S
C2674 C2673 1.434 . S
C2675 C2676 1.369 . S
C2675 C2677 1.419 . S
C2675 H2679 0.930 . S
C2676 C2675 1.369 . S
C2676 C2685 1.429 . S
C2677 C2675 1.419 . S
C2677 C2678 1.363 . S
C2677 H2680 0.929 . S
C2678 C2677 1.363 . S
C2678 C2684 1.428 . S
H2679 C2675 0.930 . S
H2680 C2677 0.929 . S
S2681 N2682 1.613 . S
S2681 N2683 1.610 . S
N2682 S2681 1.613 . S
N2682 C2685 1.350 . S
N2683 S2681 1.610 . S
N2683 C2684 1.351 . S
C2684 C2678 1.428 . S
C2684 N2683 1.351 . S
C2684 C2685 1.434 . S
C2685 C2676 1.429 . S
C2685 N2682 1.350 . S
C2685 C2684 1.434 . S
C2686 C2687 1.369 . S
C2686 C2688 1.419 . S
C2686 H2690 0.930 . S
C2687 C2686 1.369 . S
C2687 C2696 1.429 . S
C2688 C2686 1.419 . S
C2688 C2689 1.363 . S
C2688 H2691 0.929 . S
C2689 C2688 1.363 . S
C2689 C2695 1.428 . S
H2690 C2686 0.930 . S
H2691 C2688 0.929 . S
S2692 N2693 1.613 . S
S2692 N2694 1.610 . S
N2693 S2692 1.613 . S
N2693 C2696 1.350 . S
N2694 S2692 1.610 . S
N2694 C2695 1.351 . S
C2695 C2689 1.428 . S
C2695 N2694 1.351 . S
C2695 C2696 1.434 . S
C2696 C2687 1.429 . S
C2696 N2693 1.350 . S
C2696 C2695 1.434 . S
C2697 C2698 1.369 . S
C2697 C2699 1.419 . S
C2697 H2701 0.930 . S
C2698 C2697 1.369 . S
C2698 C2707 1.429 . S
C2699 C2697 1.419 . S
C2699 C2700 1.363 . S
C2699 H2702 0.929 . S
C2700 C2699 1.363 . S
C2700 C2706 1.428 . S
H2701 C2697 0.930 . S
H2702 C2699 0.929 . S
S2703 N2704 1.613 . S
S2703 N2705 1.610 . S
N2704 S2703 1.613 . S
N2704 C2707 1.350 . S
N2705 S2703 1.610 . S
N2705 C2706 1.351 . S
C2706 C2700 1.428 . S
C2706 N2705 1.351 . S
C2706 C2707 1.434 . S
C2707 C2698 1.429 . S
C2707 N2704 1.350 . S
C2707 C2706 1.434 . S
C2708 C2709 1.369 . S
C2708 C2710 1.419 . S
C2708 H2712 0.930 . S
C2709 C2708 1.369 . S
C2709 C2718 1.429 . S
C2710 C2708 1.419 . S
C2710 C2711 1.363 . S
C2710 H2713 0.929 . S
C2711 C2710 1.363 . S
C2711 C2717 1.428 . S
H2712 C2708 0.930 . S
H2713 C2710 0.929 . S
S2714 N2715 1.613 . S
S2714 N2716 1.610 . S
N2715 S2714 1.613 . S
N2715 C2718 1.350 . S
N2716 S2714 1.610 . S
N2716 C2717 1.351 . S
C2717 C2711 1.428 . S
C2717 N2716 1.351 . S
C2717 C2718 1.434 . S
C2718 C2709 1.429 . S
C2718 N2715 1.350 . S
C2718 C2717 1.434 . S
C2719 C2720 1.369 . S
C2719 C2721 1.419 . S
C2719 H2723 0.930 . S
C2720 C2719 1.369 . S
C2720 C2729 1.429 . S
C2721 C2719 1.419 . S
C2721 C2722 1.363 . S
C2721 H2724 0.929 . S
C2722 C2721 1.363 . S
C2722 C2728 1.428 . S
H2723 C2719 0.930 . S
H2724 C2721 0.929 . S
S2725 N2726 1.613 . S
S2725 N2727 1.610 . S
N2726 S2725 1.613 . S
N2726 C2729 1.350 . S
N2727 S2725 1.610 . S
N2727 C2728 1.351 . S
C2728 C2722 1.428 . S
C2728 N2727 1.351 . S
C2728 C2729 1.434 . S
C2729 C2720 1.429 . S
C2729 N2726 1.350 . S
C2729 C2728 1.434 . S
C2730 C2731 1.369 . S
C2730 C2732 1.419 . S
C2730 H2734 0.930 . S
C2731 C2730 1.369 . S
C2731 C2740 1.429 . S
C2732 C2730 1.419 . S
C2732 C2733 1.363 . S
C2732 H2735 0.929 . S
C2733 C2732 1.363 . S
C2733 C2739 1.428 . S
H2734 C2730 0.930 . S
H2735 C2732 0.929 . S
S2736 N2737 1.613 . S
S2736 N2738 1.610 . S
N2737 S2736 1.613 . S
N2737 C2740 1.350 . S
N2738 S2736 1.610 . S
N2738 C2739 1.351 . S
C2739 C2733 1.428 . S
C2739 N2738 1.351 . S
C2739 C2740 1.434 . S
C2740 C2731 1.429 . S
C2740 N2737 1.350 . S
C2740 C2739 1.434 . S
C2741 C2742 1.369 . S
C2741 C2743 1.419 . S
C2741 H2745 0.930 . S
C2742 C2741 1.369 . S
C2742 C2751 1.429 . S
C2743 C2741 1.419 . S
C2743 C2744 1.363 . S
C2743 H2746 0.929 . S
C2744 C2743 1.363 . S
C2744 C2750 1.428 . S
H2745 C2741 0.930 . S
H2746 C2743 0.929 . S
S2747 N2748 1.613 . S
S2747 N2749 1.610 . S
N2748 S2747 1.613 . S
N2748 C2751 1.350 . S
N2749 S2747 1.610 . S
N2749 C2750 1.351 . S
C2750 C2744 1.428 . S
C2750 N2749 1.351 . S
C2750 C2751 1.434 . S
C2751 C2742 1.429 . S
C2751 N2748 1.350 . S
C2751 C2750 1.434 . S
C2752 C2753 1.369 . S
C2752 C2754 1.419 . S
C2752 H2756 0.930 . S
C2753 C2752 1.369 . S
C2753 C2762 1.429 . S
C2754 C2752 1.419 . S
C2754 C2755 1.363 . S
C2754 H2757 0.929 . S
C2755 C2754 1.363 . S
C2755 C2761 1.428 . S
H2756 C2752 0.930 . S
H2757 C2754 0.929 . S
S2758 N2759 1.613 . S
S2758 N2760 1.610 . S
N2759 S2758 1.613 . S
N2759 C2762 1.350 . S
N2760 S2758 1.610 . S
N2760 C2761 1.351 . S
C2761 C2755 1.428 . S
C2761 N2760 1.351 . S
C2761 C2762 1.434 . S
C2762 C2753 1.429 . S
C2762 N2759 1.350 . S
C2762 C2761 1.434 . S
C2763 C2764 1.369 . S
C2763 C2765 1.419 . S
C2763 H2767 0.930 . S
C2764 C2763 1.369 . S
C2764 C2773 1.429 . S
C2765 C2763 1.419 . S
C2765 C2766 1.363 . S
C2765 H2768 0.929 . S
C2766 C2765 1.363 . S
C2766 C2772 1.428 . S
H2767 C2763 0.930 . S
H2768 C2765 0.929 . S
S2769 N2770 1.613 . S
S2769 N2771 1.610 . S
N2770 S2769 1.613 . S
N2770 C2773 1.350 . S
N2771 S2769 1.610 . S
N2771 C2772 1.351 . S
C2772 C2766 1.428 . S
C2772 N2771 1.351 . S
C2772 C2773 1.434 . S
C2773 C2764 1.429 . S
C2773 N2770 1.350 . S
C2773 C2772 1.434 . S
C2774 C2775 1.369 . S
C2774 C2776 1.419 . S
C2774 H2778 0.930 . S
C2775 C2774 1.369 . S
C2775 C2784 1.429 . S
C2776 C2774 1.419 . S
C2776 C2777 1.363 . S
C2776 H2779 0.929 . S
C2777 C2776 1.363 . S
C2777 C2783 1.428 . S
H2778 C2774 0.930 . S
H2779 C2776 0.929 . S
S2780 N2781 1.613 . S
S2780 N2782 1.610 . S
N2781 S2780 1.613 . S
N2781 C2784 1.350 . S
N2782 S2780 1.610 . S
N2782 C2783 1.351 . S
C2783 C2777 1.428 . S
C2783 N2782 1.351 . S
C2783 C2784 1.434 . S
C2784 C2775 1.429 . S
C2784 N2781 1.350 . S
C2784 C2783 1.434 . S
C2785 C2786 1.369 . S
C2785 C2787 1.419 . S
C2785 H2789 0.930 . S
C2786 C2785 1.369 . S
C2786 C2795 1.429 . S
C2787 C2785 1.419 . S
C2787 C2788 1.363 . S
C2787 H2790 0.929 . S
C2788 C2787 1.363 . S
C2788 C2794 1.428 . S
H2789 C2785 0.930 . S
H2790 C2787 0.929 . S
S2791 N2792 1.613 . S
S2791 N2793 1.610 . S
N2792 S2791 1.613 . S
N2792 C2795 1.350 . S
N2793 S2791 1.610 . S
N2793 C2794 1.351 . S
C2794 C2788 1.428 . S
C2794 N2793 1.351 . S
C2794 C2795 1.434 . S
C2795 C2786 1.429 . S
C2795 N2792 1.350 . S
C2795 C2794 1.434 . S
C2796 C2797 1.369 . S
C2796 C2798 1.419 . S
C2796 H2800 0.930 . S
C2797 C2796 1.369 . S
C2797 C2806 1.429 . S
C2798 C2796 1.419 . S
C2798 C2799 1.363 . S
C2798 H2801 0.929 . S
C2799 C2798 1.363 . S
C2799 C2805 1.428 . S
H2800 C2796 0.930 . S
H2801 C2798 0.929 . S
S2802 N2803 1.613 . S
S2802 N2804 1.610 . S
N2803 S2802 1.613 . S
N2803 C2806 1.350 . S
N2804 S2802 1.610 . S
N2804 C2805 1.351 . S
C2805 C2799 1.428 . S
C2805 N2804 1.351 . S
C2805 C2806 1.434 . S
C2806 C2797 1.429 . S
C2806 N2803 1.350 . S
C2806 C2805 1.434 . S
C2807 C2808 1.369 . S
C2807 C2809 1.419 . S
C2807 H2811 0.930 . S
C2808 C2807 1.369 . S
C2808 C2817 1.429 . S
C2809 C2807 1.419 . S
C2809 C2810 1.363 . S
C2809 H2812 0.929 . S
C2810 C2809 1.363 . S
C2810 C2816 1.428 . S
H2811 C2807 0.930 . S
H2812 C2809 0.929 . S
S2813 N2814 1.613 . S
S2813 N2815 1.610 . S
N2814 S2813 1.613 . S
N2814 C2817 1.350 . S
N2815 S2813 1.610 . S
N2815 C2816 1.351 . S
C2816 C2810 1.428 . S
C2816 N2815 1.351 . S
C2816 C2817 1.434 . S
C2817 C2808 1.429 . S
C2817 N2814 1.350 . S
C2817 C2816 1.434 . S
C2818 C2819 1.369 . S
C2818 C2820 1.419 . S
C2818 H2822 0.930 . S
C2819 C2818 1.369 . S
C2819 C2828 1.429 . S
C2820 C2818 1.419 . S
C2820 C2821 1.363 . S
C2820 H2823 0.929 . S
C2821 C2820 1.363 . S
C2821 C2827 1.428 . S
H2822 C2818 0.930 . S
H2823 C2820 0.929 . S
S2824 N2825 1.613 . S
S2824 N2826 1.610 . S
N2825 S2824 1.613 . S
N2825 C2828 1.350 . S
N2826 S2824 1.610 . S
N2826 C2827 1.351 . S
C2827 C2821 1.428 . S
C2827 N2826 1.351 . S
C2827 C2828 1.434 . S
C2828 C2819 1.429 . S
C2828 N2825 1.350 . S
C2828 C2827 1.434 . S
C2829 C2830 1.369 . S
C2829 C2831 1.419 . S
C2829 H2833 0.930 . S
C2830 C2829 1.369 . S
C2830 C2839 1.429 . S
C2831 C2829 1.419 . S
C2831 C2832 1.363 . S
C2831 H2834 0.929 . S
C2832 C2831 1.363 . S
C2832 C2838 1.428 . S
H2833 C2829 0.930 . S
H2834 C2831 0.929 . S
S2835 N2836 1.613 . S
S2835 N2837 1.610 . S
N2836 S2835 1.613 . S
N2836 C2839 1.350 . S
N2837 S2835 1.610 . S
N2837 C2838 1.351 . S
C2838 C2832 1.428 . S
C2838 N2837 1.351 . S
C2838 C2839 1.434 . S
C2839 C2830 1.429 . S
C2839 N2836 1.350 . S
C2839 C2838 1.434 . S
C2840 C2841 1.369 . S
C2840 C2842 1.419 . S
C2840 H2844 0.930 . S
C2841 C2840 1.369 . S
C2841 C2850 1.429 . S
C2842 C2840 1.419 . S
C2842 C2843 1.363 . S
C2842 H2845 0.929 . S
C2843 C2842 1.363 . S
C2843 C2849 1.428 . S
H2844 C2840 0.930 . S
H2845 C2842 0.929 . S
S2846 N2847 1.613 . S
S2846 N2848 1.610 . S
N2847 S2846 1.613 . S
N2847 C2850 1.350 . S
N2848 S2846 1.610 . S
N2848 C2849 1.351 . S
C2849 C2843 1.428 . S
C2849 N2848 1.351 . S
C2849 C2850 1.434 . S
C2850 C2841 1.429 . S
C2850 N2847 1.350 . S
C2850 C2849 1.434 . S
C2851 C2852 1.369 . S
C2851 C2853 1.419 . S
C2851 H2855 0.930 . S
C2852 C2851 1.369 . S
C2852 C2861 1.429 . S
C2853 C2851 1.419 . S
C2853 C2854 1.363 . S
C2853 H2856 0.929 . S
C2854 C2853 1.363 . S
C2854 C2860 1.428 . S
H2855 C2851 0.930 . S
H2856 C2853 0.929 . S
S2857 N2858 1.613 . S
S2857 N2859 1.610 . S
N2858 S2857 1.613 . S
N2858 C2861 1.350 . S
N2859 S2857 1.610 . S
N2859 C2860 1.351 . S
C2860 C2854 1.428 . S
C2860 N2859 1.351 . S
C2860 C2861 1.434 . S
C2861 C2852 1.429 . S
C2861 N2858 1.350 . S
C2861 C2860 1.434 . S
C2862 C2863 1.369 . S
C2862 C2864 1.419 . S
C2862 H2866 0.930 . S
C2863 C2862 1.369 . S
C2863 C2872 1.429 . S
C2864 C2862 1.419 . S
C2864 C2865 1.363 . S
C2864 H2867 0.929 . S
C2865 C2864 1.363 . S
C2865 C2871 1.428 . S
H2866 C2862 0.930 . S
H2867 C2864 0.929 . S
S2868 N2869 1.613 . S
S2868 N2870 1.610 . S
N2869 S2868 1.613 . S
N2869 C2872 1.350 . S
N2870 S2868 1.610 . S
N2870 C2871 1.351 . S
C2871 C2865 1.428 . S
C2871 N2870 1.351 . S
C2871 C2872 1.434 . S
C2872 C2863 1.429 . S
C2872 N2869 1.350 . S
C2872 C2871 1.434 . S
C2873 C2874 1.369 . S
C2873 C2875 1.419 . S
C2873 H2877 0.930 . S
C2874 C2873 1.369 . S
C2874 C2883 1.429 . S
C2875 C2873 1.419 . S
C2875 C2876 1.363 . S
C2875 H2878 0.929 . S
C2876 C2875 1.363 . S
C2876 C2882 1.428 . S
H2877 C2873 0.930 . S
H2878 C2875 0.929 . S
S2879 N2880 1.613 . S
S2879 N2881 1.610 . S
N2880 S2879 1.613 . S
N2880 C2883 1.350 . S
N2881 S2879 1.610 . S
N2881 C2882 1.351 . S
C2882 C2876 1.428 . S
C2882 N2881 1.351 . S
C2882 C2883 1.434 . S
C2883 C2874 1.429 . S
C2883 N2880 1.350 . S
C2883 C2882 1.434 . S
C2884 C2885 1.369 . S
C2884 C2886 1.419 . S
C2884 H2888 0.930 . S
C2885 C2884 1.369 . S
C2885 C2894 1.429 . S
C2886 C2884 1.419 . S
C2886 C2887 1.363 . S
C2886 H2889 0.929 . S
C2887 C2886 1.363 . S
C2887 C2893 1.428 . S
H2888 C2884 0.930 . S
H2889 C2886 0.929 . S
S2890 N2891 1.613 . S
S2890 N2892 1.610 . S
N2891 S2890 1.613 . S
N2891 C2894 1.350 . S
N2892 S2890 1.610 . S
N2892 C2893 1.351 . S
C2893 C2887 1.428 . S
C2893 N2892 1.351 . S
C2893 C2894 1.434 . S
C2894 C2885 1.429 . S
C2894 N2891 1.350 . S
C2894 C2893 1.434 . S
C2895 C2896 1.369 . S
C2895 C2897 1.419 . S
C2895 H2899 0.930 . S
C2896 C2895 1.369 . S
C2896 C2905 1.429 . S
C2897 C2895 1.419 . S
C2897 C2898 1.363 . S
C2897 H2900 0.929 . S
C2898 C2897 1.363 . S
C2898 C2904 1.428 . S
H2899 C2895 0.930 . S
H2900 C2897 0.929 . S
S2901 N2902 1.613 . S
S2901 N2903 1.610 . S
N2902 S2901 1.613 . S
N2902 C2905 1.350 . S
N2903 S2901 1.610 . S
N2903 C2904 1.351 . S
C2904 C2898 1.428 . S
C2904 N2903 1.351 . S
C2904 C2905 1.434 . S
C2905 C2896 1.429 . S
C2905 N2902 1.350 . S
C2905 C2904 1.434 . S
C2906 C2907 1.369 . S
C2906 C2908 1.419 . S
C2906 H2910 0.930 . S
C2907 C2906 1.369 . S
C2907 C2916 1.429 . S
C2908 C2906 1.419 . S
C2908 C2909 1.363 . S
C2908 H2911 0.929 . S
C2909 C2908 1.363 . S
C2909 C2915 1.428 . S
H2910 C2906 0.930 . S
H2911 C2908 0.929 . S
S2912 N2913 1.613 . S
S2912 N2914 1.610 . S
N2913 S2912 1.613 . S
N2913 C2916 1.350 . S
N2914 S2912 1.610 . S
N2914 C2915 1.351 . S
C2915 C2909 1.428 . S
C2915 N2914 1.351 . S
C2915 C2916 1.434 . S
C2916 C2907 1.429 . S
C2916 N2913 1.350 . S
C2916 C2915 1.434 . S
C2917 C2918 1.369 . S
C2917 C2919 1.419 . S
C2917 H2921 0.930 . S
C2918 C2917 1.369 . S
C2918 C2927 1.429 . S
C2919 C2917 1.419 . S
C2919 C2920 1.363 . S
C2919 H2922 0.929 . S
C2920 C2919 1.363 . S
C2920 C2926 1.428 . S
H2921 C2917 0.930 . S
H2922 C2919 0.929 . S
S2923 N2924 1.613 . S
S2923 N2925 1.610 . S
N2924 S2923 1.613 . S
N2924 C2927 1.350 . S
N2925 S2923 1.610 . S
N2925 C2926 1.351 . S
C2926 C2920 1.428 . S
C2926 N2925 1.351 . S
C2926 C2927 1.434 . S
C2927 C2918 1.429 . S
C2927 N2924 1.350 . S
C2927 C2926 1.434 . S
C2928 C2929 1.369 . S
C2928 C2930 1.419 . S
C2928 H2932 0.930 . S
C2929 C2928 1.369 . S
C2929 C2938 1.429 . S
C2930 C2928 1.419 . S
C2930 C2931 1.363 . S
C2930 H2933 0.929 . S
C2931 C2930 1.363 . S
C2931 C2937 1.428 . S
H2932 C2928 0.930 . S
H2933 C2930 0.929 . S
S2934 N2935 1.613 . S
S2934 N2936 1.610 . S
N2935 S2934 1.613 . S
N2935 C2938 1.350 . S
N2936 S2934 1.610 . S
N2936 C2937 1.351 . S
C2937 C2931 1.428 . S
C2937 N2936 1.351 . S
C2937 C2938 1.434 . S
C2938 C2929 1.429 . S
C2938 N2935 1.350 . S
C2938 C2937 1.434 . S
C2939 C2940 1.369 . S
C2939 C2941 1.419 . S
C2939 H2943 0.930 . S
C2940 C2939 1.369 . S
C2940 C2949 1.429 . S
C2941 C2939 1.419 . S
C2941 C2942 1.363 . S
C2941 H2944 0.929 . S
C2942 C2941 1.363 . S
C2942 C2948 1.428 . S
H2943 C2939 0.930 . S
H2944 C2941 0.929 . S
S2945 N2946 1.613 . S
S2945 N2947 1.610 . S
N2946 S2945 1.613 . S
N2946 C2949 1.350 . S
N2947 S2945 1.610 . S
N2947 C2948 1.351 . S
C2948 C2942 1.428 . S
C2948 N2947 1.351 . S
C2948 C2949 1.434 . S
C2949 C2940 1.429 . S
C2949 N2946 1.350 . S
C2949 C2948 1.434 . S
C2950 C2951 1.369 . S
C2950 C2952 1.419 . S
C2950 H2954 0.930 . S
C2951 C2950 1.369 . S
C2951 C2960 1.429 . S
C2952 C2950 1.419 . S
C2952 C2953 1.363 . S
C2952 H2955 0.929 . S
C2953 C2952 1.363 . S
C2953 C2959 1.428 . S
H2954 C2950 0.930 . S
H2955 C2952 0.929 . S
S2956 N2957 1.613 . S
S2956 N2958 1.610 . S
N2957 S2956 1.613 . S
N2957 C2960 1.350 . S
N2958 S2956 1.610 . S
N2958 C2959 1.351 . S
C2959 C2953 1.428 . S
C2959 N2958 1.351 . S
C2959 C2960 1.434 . S
C2960 C2951 1.429 . S
C2960 N2957 1.350 . S
C2960 C2959 1.434 . S
C2961 C2962 1.369 . S
C2961 C2963 1.419 . S
C2961 H2965 0.930 . S
C2962 C2961 1.369 . S
C2962 C2971 1.429 . S
C2963 C2961 1.419 . S
C2963 C2964 1.363 . S
C2963 H2966 0.929 . S
C2964 C2963 1.363 . S
C2964 C2970 1.428 . S
H2965 C2961 0.930 . S
H2966 C2963 0.929 . S
S2967 N2968 1.613 . S
S2967 N2969 1.610 . S
N2968 S2967 1.613 . S
N2968 C2971 1.350 . S
N2969 S2967 1.610 . S
N2969 C2970 1.351 . S
C2970 C2964 1.428 . S
C2970 N2969 1.351 . S
C2970 C2971 1.434 . S
C2971 C2962 1.429 . S
C2971 N2968 1.350 . S
C2971 C2970 1.434 . S
C2972 C2973 1.369 . S
C2972 C2974 1.419 . S
C2972 H2976 0.930 . S
C2973 C2972 1.369 . S
C2973 C2982 1.429 . S
C2974 C2972 1.419 . S
C2974 C2975 1.363 . S
C2974 H2977 0.929 . S
C2975 C2974 1.363 . S
C2975 C2981 1.428 . S
H2976 C2972 0.930 . S
H2977 C2974 0.929 . S
S2978 N2979 1.613 . S
S2978 N2980 1.610 . S
N2979 S2978 1.613 . S
N2979 C2982 1.350 . S
N2980 S2978 1.610 . S
N2980 C2981 1.351 . S
C2981 C2975 1.428 . S
C2981 N2980 1.351 . S
C2981 C2982 1.434 . S
C2982 C2973 1.429 . S
C2982 N2979 1.350 . S
C2982 C2981 1.434 . S
C2983 C2984 1.369 . S
C2983 C2985 1.419 . S
C2983 H2987 0.930 . S
C2984 C2983 1.369 . S
C2984 C2993 1.429 . S
C2985 C2983 1.419 . S
C2985 C2986 1.363 . S
C2985 H2988 0.929 . S
C2986 C2985 1.363 . S
C2986 C2992 1.428 . S
H2987 C2983 0.930 . S
H2988 C2985 0.929 . S
S2989 N2990 1.613 . S
S2989 N2991 1.610 . S
N2990 S2989 1.613 . S
N2990 C2993 1.350 . S
N2991 S2989 1.610 . S
N2991 C2992 1.351 . S
C2992 C2986 1.428 . S
C2992 N2991 1.351 . S
C2992 C2993 1.434 . S
C2993 C2984 1.429 . S
C2993 N2990 1.350 . S
C2993 C2992 1.434 . S
C2994 C2995 1.369 . S
C2994 C2996 1.419 . S
C2994 H2998 0.930 . S
C2995 C2994 1.369 . S
C2995 C3004 1.429 . S
C2996 C2994 1.419 . S
C2996 C2997 1.363 . S
C2996 H2999 0.929 . S
C2997 C2996 1.363 . S
C2997 C3003 1.428 . S
H2998 C2994 0.930 . S
H2999 C2996 0.929 . S
S3000 N3001 1.613 . S
S3000 N3002 1.610 . S
N3001 S3000 1.613 . S
N3001 C3004 1.350 . S
N3002 S3000 1.610 . S
N3002 C3003 1.351 . S
C3003 C2997 1.428 . S
C3003 N3002 1.351 . S
C3003 C3004 1.434 . S
C3004 C2995 1.429 . S
C3004 N3001 1.350 . S
C3004 C3003 1.434 . S
C3005 C3006 1.369 . S
C3005 C3007 1.419 . S
C3005 H3009 0.930 . S
C3006 C3005 1.369 . S
C3006 C3015 1.429 . S
C3007 C3005 1.419 . S
C3007 C3008 1.363 . S
C3007 H3010 0.929 . S
C3008 C3007 1.363 . S
C3008 C3014 1.428 . S
H3009 C3005 0.930 . S
H3010 C3007 0.929 . S
S3011 N3012 1.613 . S
S3011 N3013 1.610 . S
N3012 S3011 1.613 . S
N3012 C3015 1.350 . S
N3013 S3011 1.610 . S
N3013 C3014 1.351 . S
C3014 C3008 1.428 . S
C3014 N3013 1.351 . S
C3014 C3015 1.434 . S
C3015 C3006 1.429 . S
C3015 N3012 1.350 . S
C3015 C3014 1.434 . S
C3016 C3017 1.369 . S
C3016 C3018 1.419 . S
C3016 H3020 0.930 . S
C3017 C3016 1.369 . S
C3017 C3026 1.429 . S
C3018 C3016 1.419 . S
C3018 C3019 1.363 . S
C3018 H3021 0.929 . S
C3019 C3018 1.363 . S
C3019 C3025 1.428 . S
H3020 C3016 0.930 . S
H3021 C3018 0.929 . S
S3022 N3023 1.613 . S
S3022 N3024 1.610 . S
N3023 S3022 1.613 . S
N3023 C3026 1.350 . S
N3024 S3022 1.610 . S
N3024 C3025 1.351 . S
C3025 C3019 1.428 . S
C3025 N3024 1.351 . S
C3025 C3026 1.434 . S
C3026 C3017 1.429 . S
C3026 N3023 1.350 . S
C3026 C3025 1.434 . S
C3027 C3028 1.369 . S
C3027 C3029 1.419 . S
C3027 H3031 0.930 . S
C3028 C3027 1.369 . S
C3028 C3037 1.429 . S
C3029 C3027 1.419 . S
C3029 C3030 1.363 . S
C3029 H3032 0.929 . S
C3030 C3029 1.363 . S
C3030 C3036 1.428 . S
H3031 C3027 0.930 . S
H3032 C3029 0.929 . S
S3033 N3034 1.613 . S
S3033 N3035 1.610 . S
N3034 S3033 1.613 . S
N3034 C3037 1.350 . S
N3035 S3033 1.610 . S
N3035 C3036 1.351 . S
C3036 C3030 1.428 . S
C3036 N3035 1.351 . S
C3036 C3037 1.434 . S
C3037 C3028 1.429 . S
C3037 N3034 1.350 . S
C3037 C3036 1.434 . S
C3038 C3039 1.369 . S
C3038 C3040 1.419 . S
C3038 H3042 0.930 . S
C3039 C3038 1.369 . S
C3039 C3048 1.429 . S
C3040 C3038 1.419 . S
C3040 C3041 1.363 . S
C3040 H3043 0.929 . S
C3041 C3040 1.363 . S
C3041 C3047 1.428 . S
H3042 C3038 0.930 . S
H3043 C3040 0.929 . S
S3044 N3045 1.613 . S
S3044 N3046 1.610 . S
N3045 S3044 1.613 . S
N3045 C3048 1.350 . S
N3046 S3044 1.610 . S
N3046 C3047 1.351 . S
C3047 C3041 1.428 . S
C3047 N3046 1.351 . S
C3047 C3048 1.434 . S
C3048 C3039 1.429 . S
C3048 N3045 1.350 . S
C3048 C3047 1.434 . S
C3049 C3050 1.369 . S
C3049 C3051 1.419 . S
C3049 H3053 0.930 . S
C3050 C3049 1.369 . S
C3050 C3059 1.429 . S
C3051 C3049 1.419 . S
C3051 C3052 1.363 . S
C3051 H3054 0.929 . S
C3052 C3051 1.363 . S
C3052 C3058 1.428 . S
H3053 C3049 0.930 . S
H3054 C3051 0.929 . S
S3055 N3056 1.613 . S
S3055 N3057 1.610 . S
N3056 S3055 1.613 . S
N3056 C3059 1.350 . S
N3057 S3055 1.610 . S
N3057 C3058 1.351 . S
C3058 C3052 1.428 . S
C3058 N3057 1.351 . S
C3058 C3059 1.434 . S
C3059 C3050 1.429 . S
C3059 N3056 1.350 . S
C3059 C3058 1.434 . S
C3060 C3061 1.369 . S
C3060 C3062 1.419 . S
C3060 H3064 0.930 . S
C3061 C3060 1.369 . S
C3061 C3070 1.429 . S
C3062 C3060 1.419 . S
C3062 C3063 1.363 . S
C3062 H3065 0.929 . S
C3063 C3062 1.363 . S
C3063 C3069 1.428 . S
H3064 C3060 0.930 . S
H3065 C3062 0.929 . S
S3066 N3067 1.613 . S
S3066 N3068 1.610 . S
N3067 S3066 1.613 . S
N3067 C3070 1.350 . S
N3068 S3066 1.610 . S
N3068 C3069 1.351 . S
C3069 C3063 1.428 . S
C3069 N3068 1.351 . S
C3069 C3070 1.434 . S
C3070 C3061 1.429 . S
C3070 N3067 1.350 . S
C3070 C3069 1.434 . S
C3071 C3072 1.369 . S
C3071 C3073 1.419 . S
C3071 H3075 0.930 . S
C3072 C3071 1.369 . S
C3072 C3081 1.429 . S
C3073 C3071 1.419 . S
C3073 C3074 1.363 . S
C3073 H3076 0.929 . S
C3074 C3073 1.363 . S
C3074 C3080 1.428 . S
H3075 C3071 0.930 . S
H3076 C3073 0.929 . S
S3077 N3078 1.613 . S
S3077 N3079 1.610 . S
N3078 S3077 1.613 . S
N3078 C3081 1.350 . S
N3079 S3077 1.610 . S
N3079 C3080 1.351 . S
C3080 C3074 1.428 . S
C3080 N3079 1.351 . S
C3080 C3081 1.434 . S
C3081 C3072 1.429 . S
C3081 N3078 1.350 . S
C3081 C3080 1.434 . S
C3082 C3083 1.369 . S
C3082 C3084 1.419 . S
C3082 H3086 0.930 . S
C3083 C3082 1.369 . S
C3083 C3092 1.429 . S
C3084 C3082 1.419 . S
C3084 C3085 1.363 . S
C3084 H3087 0.929 . S
C3085 C3084 1.363 . S
C3085 C3091 1.428 . S
H3086 C3082 0.930 . S
H3087 C3084 0.929 . S
S3088 N3089 1.613 . S
S3088 N3090 1.610 . S
N3089 S3088 1.613 . S
N3089 C3092 1.350 . S
N3090 S3088 1.610 . S
N3090 C3091 1.351 . S
C3091 C3085 1.428 . S
C3091 N3090 1.351 . S
C3091 C3092 1.434 . S
C3092 C3083 1.429 . S
C3092 N3089 1.350 . S
C3092 C3091 1.434 . S
C3093 C3094 1.369 . S
C3093 C3095 1.419 . S
C3093 H3097 0.930 . S
C3094 C3093 1.369 . S
C3094 C3103 1.429 . S
C3095 C3093 1.419 . S
C3095 C3096 1.363 . S
C3095 H3098 0.929 . S
C3096 C3095 1.363 . S
C3096 C3102 1.428 . S
H3097 C3093 0.930 . S
H3098 C3095 0.929 . S
S3099 N3100 1.613 . S
S3099 N3101 1.610 . S
N3100 S3099 1.613 . S
N3100 C3103 1.350 . S
N3101 S3099 1.610 . S
N3101 C3102 1.351 . S
C3102 C3096 1.428 . S
C3102 N3101 1.351 . S
C3102 C3103 1.434 . S
C3103 C3094 1.429 . S
C3103 N3100 1.350 . S
C3103 C3102 1.434 . S
C3104 C3105 1.369 . S
C3104 C3106 1.419 . S
C3104 H3108 0.930 . S
C3105 C3104 1.369 . S
C3105 C3114 1.429 . S
C3106 C3104 1.419 . S
C3106 C3107 1.363 . S
C3106 H3109 0.929 . S
C3107 C3106 1.363 . S
C3107 C3113 1.428 . S
H3108 C3104 0.930 . S
H3109 C3106 0.929 . S
S3110 N3111 1.613 . S
S3110 N3112 1.610 . S
N3111 S3110 1.613 . S
N3111 C3114 1.350 . S
N3112 S3110 1.610 . S
N3112 C3113 1.351 . S
C3113 C3107 1.428 . S
C3113 N3112 1.351 . S
C3113 C3114 1.434 . S
C3114 C3105 1.429 . S
C3114 N3111 1.350 . S
C3114 C3113 1.434 . S
C3115 C3116 1.369 . S
C3115 C3117 1.419 . S
C3115 H3119 0.930 . S
C3116 C3115 1.369 . S
C3116 C3125 1.429 . S
C3117 C3115 1.419 . S
C3117 C3118 1.363 . S
C3117 H3120 0.929 . S
C3118 C3117 1.363 . S
C3118 C3124 1.428 . S
H3119 C3115 0.930 . S
H3120 C3117 0.929 . S
S3121 N3122 1.613 . S
S3121 N3123 1.610 . S
N3122 S3121 1.613 . S
N3122 C3125 1.350 . S
N3123 S3121 1.610 . S
N3123 C3124 1.351 . S
C3124 C3118 1.428 . S
C3124 N3123 1.351 . S
C3124 C3125 1.434 . S
C3125 C3116 1.429 . S
C3125 N3122 1.350 . S
C3125 C3124 1.434 . S
C3126 C3127 1.369 . S
C3126 C3128 1.419 . S
C3126 H3130 0.930 . S
C3127 C3126 1.369 . S
C3127 C3136 1.429 . S
C3128 C3126 1.419 . S
C3128 C3129 1.363 . S
C3128 H3131 0.929 . S
C3129 C3128 1.363 . S
C3129 C3135 1.428 . S
H3130 C3126 0.930 . S
H3131 C3128 0.929 . S
S3132 N3133 1.613 . S
S3132 N3134 1.610 . S
N3133 S3132 1.613 . S
N3133 C3136 1.350 . S
N3134 S3132 1.610 . S
N3134 C3135 1.351 . S
C3135 C3129 1.428 . S
C3135 N3134 1.351 . S
C3135 C3136 1.434 . S
C3136 C3127 1.429 . S
C3136 N3133 1.350 . S
C3136 C3135 1.434 . S
C3137 C3138 1.369 . S
C3137 C3139 1.419 . S
C3137 H3141 0.930 . S
C3138 C3137 1.369 . S
C3138 C3147 1.429 . S
C3139 C3137 1.419 . S
C3139 C3140 1.363 . S
C3139 H3142 0.929 . S
C3140 C3139 1.363 . S
C3140 C3146 1.428 . S
H3141 C3137 0.930 . S
H3142 C3139 0.929 . S
S3143 N3144 1.613 . S
S3143 N3145 1.610 . S
N3144 S3143 1.613 . S
N3144 C3147 1.350 . S
N3145 S3143 1.610 . S
N3145 C3146 1.351 . S
C3146 C3140 1.428 . S
C3146 N3145 1.351 . S
C3146 C3147 1.434 . S
C3147 C3138 1.429 . S
C3147 N3144 1.350 . S
C3147 C3146 1.434 . S
C3148 C3149 1.369 . S
C3148 C3150 1.419 . S
C3148 H3152 0.930 . S
C3149 C3148 1.369 . S
C3149 C3158 1.429 . S
C3150 C3148 1.419 . S
C3150 C3151 1.363 . S
C3150 H3153 0.929 . S
C3151 C3150 1.363 . S
C3151 C3157 1.428 . S
H3152 C3148 0.930 . S
H3153 C3150 0.929 . S
S3154 N3155 1.613 . S
S3154 N3156 1.610 . S
N3155 S3154 1.613 . S
N3155 C3158 1.350 . S
N3156 S3154 1.610 . S
N3156 C3157 1.351 . S
C3157 C3151 1.428 . S
C3157 N3156 1.351 . S
C3157 C3158 1.434 . S
C3158 C3149 1.429 . S
C3158 N3155 1.350 . S
C3158 C3157 1.434 . S
C3159 C3160 1.369 . S
C3159 C3161 1.419 . S
C3159 H3163 0.930 . S
C3160 C3159 1.369 . S
C3160 C3169 1.429 . S
C3161 C3159 1.419 . S
C3161 C3162 1.363 . S
C3161 H3164 0.929 . S
C3162 C3161 1.363 . S
C3162 C3168 1.428 . S
H3163 C3159 0.930 . S
H3164 C3161 0.929 . S
S3165 N3166 1.613 . S
S3165 N3167 1.610 . S
N3166 S3165 1.613 . S
N3166 C3169 1.350 . S
N3167 S3165 1.610 . S
N3167 C3168 1.351 . S
C3168 C3162 1.428 . S
C3168 N3167 1.351 . S
C3168 C3169 1.434 . S
C3169 C3160 1.429 . S
C3169 N3166 1.350 . S
C3169 C3168 1.434 . S
C3170 C3171 1.369 . S
C3170 C3172 1.419 . S
C3170 H3174 0.930 . S
C3171 C3170 1.369 . S
C3171 C3180 1.429 . S
C3172 C3170 1.419 . S
C3172 C3173 1.363 . S
C3172 H3175 0.929 . S
C3173 C3172 1.363 . S
C3173 C3179 1.428 . S
H3174 C3170 0.930 . S
H3175 C3172 0.929 . S
S3176 N3177 1.613 . S
S3176 N3178 1.610 . S
N3177 S3176 1.613 . S
N3177 C3180 1.350 . S
N3178 S3176 1.610 . S
N3178 C3179 1.351 . S
C3179 C3173 1.428 . S
C3179 N3178 1.351 . S
C3179 C3180 1.434 . S
C3180 C3171 1.429 . S
C3180 N3177 1.350 . S
C3180 C3179 1.434 . S
C3181 C3182 1.369 . S
C3181 C3183 1.419 . S
C3181 H3185 0.930 . S
C3182 C3181 1.369 . S
C3182 C3191 1.429 . S
C3183 C3181 1.419 . S
C3183 C3184 1.363 . S
C3183 H3186 0.929 . S
C3184 C3183 1.363 . S
C3184 C3190 1.428 . S
H3185 C3181 0.930 . S
H3186 C3183 0.929 . S
S3187 N3188 1.613 . S
S3187 N3189 1.610 . S
N3188 S3187 1.613 . S
N3188 C3191 1.350 . S
N3189 S3187 1.610 . S
N3189 C3190 1.351 . S
C3190 C3184 1.428 . S
C3190 N3189 1.351 . S
C3190 C3191 1.434 . S
C3191 C3182 1.429 . S
C3191 N3188 1.350 . S
C3191 C3190 1.434 . S
C3192 C3193 1.369 . S
C3192 C3194 1.419 . S
C3192 H3196 0.930 . S
C3193 C3192 1.369 . S
C3193 C3202 1.429 . S
C3194 C3192 1.419 . S
C3194 C3195 1.363 . S
C3194 H3197 0.929 . S
C3195 C3194 1.363 . S
C3195 C3201 1.428 . S
H3196 C3192 0.930 . S
H3197 C3194 0.929 . S
S3198 N3199 1.613 . S
S3198 N3200 1.610 . S
N3199 S3198 1.613 . S
N3199 C3202 1.350 . S
N3200 S3198 1.610 . S
N3200 C3201 1.351 . S
C3201 C3195 1.428 . S
C3201 N3200 1.351 . S
C3201 C3202 1.434 . S
C3202 C3193 1.429 . S
C3202 N3199 1.350 . S
C3202 C3201 1.434 . S
C3203 C3204 1.369 . S
C3203 C3205 1.419 . S
C3203 H3207 0.930 . S
C3204 C3203 1.369 . S
C3204 C3213 1.429 . S
C3205 C3203 1.419 . S
C3205 C3206 1.363 . S
C3205 H3208 0.929 . S
C3206 C3205 1.363 . S
C3206 C3212 1.428 . S
H3207 C3203 0.930 . S
H3208 C3205 0.929 . S
S3209 N3210 1.613 . S
S3209 N3211 1.610 . S
N3210 S3209 1.613 . S
N3210 C3213 1.350 . S
N3211 S3209 1.610 . S
N3211 C3212 1.351 . S
C3212 C3206 1.428 . S
C3212 N3211 1.351 . S
C3212 C3213 1.434 . S
C3213 C3204 1.429 . S
C3213 N3210 1.350 . S
C3213 C3212 1.434 . S
C3214 C3215 1.369 . S
C3214 C3216 1.419 . S
C3214 H3218 0.930 . S
C3215 C3214 1.369 . S
C3215 C3224 1.429 . S
C3216 C3214 1.419 . S
C3216 C3217 1.363 . S
C3216 H3219 0.929 . S
C3217 C3216 1.363 . S
C3217 C3223 1.428 . S
H3218 C3214 0.930 . S
H3219 C3216 0.929 . S
S3220 N3221 1.613 . S
S3220 N3222 1.610 . S
N3221 S3220 1.613 . S
N3221 C3224 1.350 . S
N3222 S3220 1.610 . S
N3222 C3223 1.351 . S
C3223 C3217 1.428 . S
C3223 N3222 1.351 . S
C3223 C3224 1.434 . S
C3224 C3215 1.429 . S
C3224 N3221 1.350 . S
C3224 C3223 1.434 . S
C3225 C3226 1.369 . S
C3225 C3227 1.419 . S
C3225 H3229 0.930 . S
C3226 C3225 1.369 . S
C3226 C3235 1.429 . S
C3227 C3225 1.419 . S
C3227 C3228 1.363 . S
C3227 H3230 0.929 . S
C3228 C3227 1.363 . S
C3228 C3234 1.428 . S
H3229 C3225 0.930 . S
H3230 C3227 0.929 . S
S3231 N3232 1.613 . S
S3231 N3233 1.610 . S
N3232 S3231 1.613 . S
N3232 C3235 1.350 . S
N3233 S3231 1.610 . S
N3233 C3234 1.351 . S
C3234 C3228 1.428 . S
C3234 N3233 1.351 . S
C3234 C3235 1.434 . S
C3235 C3226 1.429 . S
C3235 N3232 1.350 . S
C3235 C3234 1.434 . S
C3236 C3237 1.369 . S
C3236 C3238 1.419 . S
C3236 H3240 0.930 . S
C3237 C3236 1.369 . S
C3237 C3246 1.429 . S
C3238 C3236 1.419 . S
C3238 C3239 1.363 . S
C3238 H3241 0.929 . S
C3239 C3238 1.363 . S
C3239 C3245 1.428 . S
H3240 C3236 0.930 . S
H3241 C3238 0.929 . S
S3242 N3243 1.613 . S
S3242 N3244 1.610 . S
N3243 S3242 1.613 . S
N3243 C3246 1.350 . S
N3244 S3242 1.610 . S
N3244 C3245 1.351 . S
C3245 C3239 1.428 . S
C3245 N3244 1.351 . S
C3245 C3246 1.434 . S
C3246 C3237 1.429 . S
C3246 N3243 1.350 . S
C3246 C3245 1.434 . S
C3247 C3248 1.369 . S
C3247 C3249 1.419 . S
C3247 H3251 0.930 . S
C3248 C3247 1.369 . S
C3248 C3257 1.429 . S
C3249 C3247 1.419 . S
C3249 C3250 1.363 . S
C3249 H3252 0.929 . S
C3250 C3249 1.363 . S
C3250 C3256 1.428 . S
H3251 C3247 0.930 . S
H3252 C3249 0.929 . S
S3253 N3254 1.613 . S
S3253 N3255 1.610 . S
N3254 S3253 1.613 . S
N3254 C3257 1.350 . S
N3255 S3253 1.610 . S
N3255 C3256 1.351 . S
C3256 C3250 1.428 . S
C3256 N3255 1.351 . S
C3256 C3257 1.434 . S
C3257 C3248 1.429 . S
C3257 N3254 1.350 . S
C3257 C3256 1.434 . S
C3258 C3259 1.369 . S
C3258 C3260 1.419 . S
C3258 H3262 0.930 . S
C3259 C3258 1.369 . S
C3259 C3268 1.429 . S
C3260 C3258 1.419 . S
C3260 C3261 1.363 . S
C3260 H3263 0.929 . S
C3261 C3260 1.363 . S
C3261 C3267 1.428 . S
H3262 C3258 0.930 . S
H3263 C3260 0.929 . S
S3264 N3265 1.613 . S
S3264 N3266 1.610 . S
N3265 S3264 1.613 . S
N3265 C3268 1.350 . S
N3266 S3264 1.610 . S
N3266 C3267 1.351 . S
C3267 C3261 1.428 . S
C3267 N3266 1.351 . S
C3267 C3268 1.434 . S
C3268 C3259 1.429 . S
C3268 N3265 1.350 . S
C3268 C3267 1.434 . S
C3269 C3270 1.369 . S
C3269 C3271 1.419 . S
C3269 H3273 0.930 . S
C3270 C3269 1.369 . S
C3270 C3279 1.429 . S
C3271 C3269 1.419 . S
C3271 C3272 1.363 . S
C3271 H3274 0.929 . S
C3272 C3271 1.363 . S
C3272 C3278 1.428 . S
H3273 C3269 0.930 . S
H3274 C3271 0.929 . S
S3275 N3276 1.613 . S
S3275 N3277 1.610 . S
N3276 S3275 1.613 . S
N3276 C3279 1.350 . S
N3277 S3275 1.610 . S
N3277 C3278 1.351 . S
C3278 C3272 1.428 . S
C3278 N3277 1.351 . S
C3278 C3279 1.434 . S
C3279 C3270 1.429 . S
C3279 N3276 1.350 . S
C3279 C3278 1.434 . S
C3280 C3281 1.369 . S
C3280 C3282 1.419 . S
C3280 H3284 0.930 . S
C3281 C3280 1.369 . S
C3281 C3290 1.429 . S
C3282 C3280 1.419 . S
C3282 C3283 1.363 . S
C3282 H3285 0.929 . S
C3283 C3282 1.363 . S
C3283 C3289 1.428 . S
H3284 C3280 0.930 . S
H3285 C3282 0.929 . S
S3286 N3287 1.613 . S
S3286 N3288 1.610 . S
N3287 S3286 1.613 . S
N3287 C3290 1.350 . S
N3288 S3286 1.610 . S
N3288 C3289 1.351 . S
C3289 C3283 1.428 . S
C3289 N3288 1.351 . S
C3289 C3290 1.434 . S
C3290 C3281 1.429 . S
C3290 N3287 1.350 . S
C3290 C3289 1.434 . S
C3291 C3292 1.369 . S
C3291 C3293 1.419 . S
C3291 H3295 0.930 . S
C3292 C3291 1.369 . S
C3292 C3301 1.429 . S
C3293 C3291 1.419 . S
C3293 C3294 1.363 . S
C3293 H3296 0.929 . S
C3294 C3293 1.363 . S
C3294 C3300 1.428 . S
H3295 C3291 0.930 . S
H3296 C3293 0.929 . S
S3297 N3298 1.613 . S
S3297 N3299 1.610 . S
N3298 S3297 1.613 . S
N3298 C3301 1.350 . S
N3299 S3297 1.610 . S
N3299 C3300 1.351 . S
C3300 C3294 1.428 . S
C3300 N3299 1.351 . S
C3300 C3301 1.434 . S
C3301 C3292 1.429 . S
C3301 N3298 1.350 . S
C3301 C3300 1.434 . S
C3302 C3303 1.369 . S
C3302 C3304 1.419 . S
C3302 H3306 0.930 . S
C3303 C3302 1.369 . S
C3303 C3312 1.429 . S
C3304 C3302 1.419 . S
C3304 C3305 1.363 . S
C3304 H3307 0.929 . S
C3305 C3304 1.363 . S
C3305 C3311 1.428 . S
H3306 C3302 0.930 . S
H3307 C3304 0.929 . S
S3308 N3309 1.613 . S
S3308 N3310 1.610 . S
N3309 S3308 1.613 . S
N3309 C3312 1.350 . S
N3310 S3308 1.610 . S
N3310 C3311 1.351 . S
C3311 C3305 1.428 . S
C3311 N3310 1.351 . S
C3311 C3312 1.434 . S
C3312 C3303 1.429 . S
C3312 N3309 1.350 . S
C3312 C3311 1.434 . S
C3313 C3314 1.369 . S
C3313 C3315 1.419 . S
C3313 H3317 0.930 . S
C3314 C3313 1.369 . S
C3314 C3323 1.429 . S
C3315 C3313 1.419 . S
C3315 C3316 1.363 . S
C3315 H3318 0.929 . S
C3316 C3315 1.363 . S
C3316 C3322 1.428 . S
H3317 C3313 0.930 . S
H3318 C3315 0.929 . S
S3319 N3320 1.613 . S
S3319 N3321 1.610 . S
N3320 S3319 1.613 . S
N3320 C3323 1.350 . S
N3321 S3319 1.610 . S
N3321 C3322 1.351 . S
C3322 C3316 1.428 . S
C3322 N3321 1.351 . S
C3322 C3323 1.434 . S
C3323 C3314 1.429 . S
C3323 N3320 1.350 . S
C3323 C3322 1.434 . S
C3324 C3325 1.369 . S
C3324 C3326 1.419 . S
C3324 H3328 0.930 . S
C3325 C3324 1.369 . S
C3325 C3334 1.429 . S
C3326 C3324 1.419 . S
C3326 C3327 1.363 . S
C3326 H3329 0.929 . S
C3327 C3326 1.363 . S
C3327 C3333 1.428 . S
H3328 C3324 0.930 . S
H3329 C3326 0.929 . S
S3330 N3331 1.613 . S
S3330 N3332 1.610 . S
N3331 S3330 1.613 . S
N3331 C3334 1.350 . S
N3332 S3330 1.610 . S
N3332 C3333 1.351 . S
C3333 C3327 1.428 . S
C3333 N3332 1.351 . S
C3333 C3334 1.434 . S
C3334 C3325 1.429 . S
C3334 N3331 1.350 . S
C3334 C3333 1.434 . S
C3335 C3336 1.369 . S
C3335 C3337 1.419 . S
C3335 H3339 0.930 . S
C3336 C3335 1.369 . S
C3336 C3345 1.429 . S
C3337 C3335 1.419 . S
C3337 C3338 1.363 . S
C3337 H3340 0.929 . S
C3338 C3337 1.363 . S
C3338 C3344 1.428 . S
H3339 C3335 0.930 . S
H3340 C3337 0.929 . S
S3341 N3342 1.613 . S
S3341 N3343 1.610 . S
N3342 S3341 1.613 . S
N3342 C3345 1.350 . S
N3343 S3341 1.610 . S
N3343 C3344 1.351 . S
C3344 C3338 1.428 . S
C3344 N3343 1.351 . S
C3344 C3345 1.434 . S
C3345 C3336 1.429 . S
C3345 N3342 1.350 . S
C3345 C3344 1.434 . S
C3346 C3347 1.369 . S
C3346 C3348 1.419 . S
C3346 H3350 0.930 . S
C3347 C3346 1.369 . S
C3347 C3356 1.429 . S
C3348 C3346 1.419 . S
C3348 C3349 1.363 . S
C3348 H3351 0.929 . S
C3349 C3348 1.363 . S
C3349 C3355 1.428 . S
H3350 C3346 0.930 . S
H3351 C3348 0.929 . S
S3352 N3353 1.613 . S
S3352 N3354 1.610 . S
N3353 S3352 1.613 . S
N3353 C3356 1.350 . S
N3354 S3352 1.610 . S
N3354 C3355 1.351 . S
C3355 C3349 1.428 . S
C3355 N3354 1.351 . S
C3355 C3356 1.434 . S
C3356 C3347 1.429 . S
C3356 N3353 1.350 . S
C3356 C3355 1.434 . S
C3357 C3358 1.369 . S
C3357 C3359 1.419 . S
C3357 H3361 0.930 . S
C3358 C3357 1.369 . S
C3358 C3367 1.429 . S
C3359 C3357 1.419 . S
C3359 C3360 1.363 . S
C3359 H3362 0.929 . S
C3360 C3359 1.363 . S
C3360 C3366 1.428 . S
H3361 C3357 0.930 . S
H3362 C3359 0.929 . S
S3363 N3364 1.613 . S
S3363 N3365 1.610 . S
N3364 S3363 1.613 . S
N3364 C3367 1.350 . S
N3365 S3363 1.610 . S
N3365 C3366 1.351 . S
C3366 C3360 1.428 . S
C3366 N3365 1.351 . S
C3366 C3367 1.434 . S
C3367 C3358 1.429 . S
C3367 N3364 1.350 . S
C3367 C3366 1.434 . S
C3368 C3369 1.369 . S
C3368 C3370 1.419 . S
C3368 H3372 0.930 . S
C3369 C3368 1.369 . S
C3369 C3378 1.429 . S
C3370 C3368 1.419 . S
C3370 C3371 1.363 . S
C3370 H3373 0.929 . S
C3371 C3370 1.363 . S
C3371 C3377 1.428 . S
H3372 C3368 0.930 . S
H3373 C3370 0.929 . S
S3374 N3375 1.613 . S
S3374 N3376 1.610 . S
N3375 S3374 1.613 . S
N3375 C3378 1.350 . S
N3376 S3374 1.610 . S
N3376 C3377 1.351 . S
C3377 C3371 1.428 . S
C3377 N3376 1.351 . S
C3377 C3378 1.434 . S
C3378 C3369 1.429 . S
C3378 N3375 1.350 . S
C3378 C3377 1.434 . S
C3379 C3380 1.369 . S
C3379 C3381 1.419 . S
C3379 H3383 0.930 . S
C3380 C3379 1.369 . S
C3380 C3389 1.429 . S
C3381 C3379 1.419 . S
C3381 C3382 1.363 . S
C3381 H3384 0.929 . S
C3382 C3381 1.363 . S
C3382 C3388 1.428 . S
H3383 C3379 0.930 . S
H3384 C3381 0.929 . S
S3385 N3386 1.613 . S
S3385 N3387 1.610 . S
N3386 S3385 1.613 . S
N3386 C3389 1.350 . S
N3387 S3385 1.610 . S
N3387 C3388 1.351 . S
C3388 C3382 1.428 . S
C3388 N3387 1.351 . S
C3388 C3389 1.434 . S
C3389 C3380 1.429 . S
C3389 N3386 1.350 . S
C3389 C3388 1.434 . S
C3390 C3391 1.369 . S
C3390 C3392 1.419 . S
C3390 H3394 0.930 . S
C3391 C3390 1.369 . S
C3391 C3400 1.429 . S
C3392 C3390 1.419 . S
C3392 C3393 1.363 . S
C3392 H3395 0.929 . S
C3393 C3392 1.363 . S
C3393 C3399 1.428 . S
H3394 C3390 0.930 . S
H3395 C3392 0.929 . S
S3396 N3397 1.613 . S
S3396 N3398 1.610 . S
N3397 S3396 1.613 . S
N3397 C3400 1.350 . S
N3398 S3396 1.610 . S
N3398 C3399 1.351 . S
C3399 C3393 1.428 . S
C3399 N3398 1.351 . S
C3399 C3400 1.434 . S
C3400 C3391 1.429 . S
C3400 N3397 1.350 . S
C3400 C3399 1.434 . S
C3401 C3402 1.369 . S
C3401 C3403 1.419 . S
C3401 H3405 0.930 . S
C3402 C3401 1.369 . S
C3402 C3411 1.429 . S
C3403 C3401 1.419 . S
C3403 C3404 1.363 . S
C3403 H3406 0.929 . S
C3404 C3403 1.363 . S
C3404 C3410 1.428 . S
H3405 C3401 0.930 . S
H3406 C3403 0.929 . S
S3407 N3408 1.613 . S
S3407 N3409 1.610 . S
N3408 S3407 1.613 . S
N3408 C3411 1.350 . S
N3409 S3407 1.610 . S
N3409 C3410 1.351 . S
C3410 C3404 1.428 . S
C3410 N3409 1.351 . S
C3410 C3411 1.434 . S
C3411 C3402 1.429 . S
C3411 N3408 1.350 . S
C3411 C3410 1.434 . S
C3412 C3413 1.369 . S
C3412 C3414 1.419 . S
C3412 H3416 0.930 . S
C3413 C3412 1.369 . S
C3413 C3422 1.429 . S
C3414 C3412 1.419 . S
C3414 C3415 1.363 . S
C3414 H3417 0.929 . S
C3415 C3414 1.363 . S
C3415 C3421 1.428 . S
H3416 C3412 0.930 . S
H3417 C3414 0.929 . S
S3418 N3419 1.613 . S
S3418 N3420 1.610 . S
N3419 S3418 1.613 . S
N3419 C3422 1.350 . S
N3420 S3418 1.610 . S
N3420 C3421 1.351 . S
C3421 C3415 1.428 . S
C3421 N3420 1.351 . S
C3421 C3422 1.434 . S
C3422 C3413 1.429 . S
C3422 N3419 1.350 . S
C3422 C3421 1.434 . S
C3423 C3424 1.369 . S
C3423 C3425 1.419 . S
C3423 H3427 0.930 . S
C3424 C3423 1.369 . S
C3424 C3433 1.429 . S
C3425 C3423 1.419 . S
C3425 C3426 1.363 . S
C3425 H3428 0.929 . S
C3426 C3425 1.363 . S
C3426 C3432 1.428 . S
H3427 C3423 0.930 . S
H3428 C3425 0.929 . S
S3429 N3430 1.613 . S
S3429 N3431 1.610 . S
N3430 S3429 1.613 . S
N3430 C3433 1.350 . S
N3431 S3429 1.610 . S
N3431 C3432 1.351 . S
C3432 C3426 1.428 . S
C3432 N3431 1.351 . S
C3432 C3433 1.434 . S
C3433 C3424 1.429 . S
C3433 N3430 1.350 . S
C3433 C3432 1.434 . S
C3434 C3435 1.369 . S
C3434 C3436 1.419 . S
C3434 H3438 0.930 . S
C3435 C3434 1.369 . S
C3435 C3444 1.429 . S
C3436 C3434 1.419 . S
C3436 C3437 1.363 . S
C3436 H3439 0.929 . S
C3437 C3436 1.363 . S
C3437 C3443 1.428 . S
H3438 C3434 0.930 . S
H3439 C3436 0.929 . S
S3440 N3441 1.613 . S
S3440 N3442 1.610 . S
N3441 S3440 1.613 . S
N3441 C3444 1.350 . S
N3442 S3440 1.610 . S
N3442 C3443 1.351 . S
C3443 C3437 1.428 . S
C3443 N3442 1.351 . S
C3443 C3444 1.434 . S
C3444 C3435 1.429 . S
C3444 N3441 1.350 . S
C3444 C3443 1.434 . S
C3445 C3446 1.369 . S
C3445 C3447 1.419 . S
C3445 H3449 0.930 . S
C3446 C3445 1.369 . S
C3446 C3455 1.429 . S
C3447 C3445 1.419 . S
C3447 C3448 1.363 . S
C3447 H3450 0.929 . S
C3448 C3447 1.363 . S
C3448 C3454 1.428 . S
H3449 C3445 0.930 . S
H3450 C3447 0.929 . S
S3451 N3452 1.613 . S
S3451 N3453 1.610 . S
N3452 S3451 1.613 . S
N3452 C3455 1.350 . S
N3453 S3451 1.610 . S
N3453 C3454 1.351 . S
C3454 C3448 1.428 . S
C3454 N3453 1.351 . S
C3454 C3455 1.434 . S
C3455 C3446 1.429 . S
C3455 N3452 1.350 . S
C3455 C3454 1.434 . S
C1345 C1 1.683 . S
C1347 C1051 1.671 . S
C1356 C348 1.666 . S
C1358 C26 1.682 . S
C1367 C1023 1.667 . S
C1369 C41 1.680 . S
C1378 C364 1.671 . S
C1380 C54 1.682 . S
C1389 C69 1.682 . S
C1391 C1079 1.669 . S
C1400 C82 1.680 . S
C1402 C432 1.668 . S
C1411 C1107 1.672 . S
C1413 C97 1.680 . S
C1422 C110 1.682 . S
C1424 C404 1.671 . S
C1433 C125 1.682 . S
C1435 C1261 1.672 . S
C1444 C603 1.672 . S
C1446 C139 1.680 . S
C1455 C153 1.678 . S
C1457 C617 1.670 . S
C1466 C155 1.679 . S
C1468 C575 1.671 . S
C1477 C181 1.682 . S
C1479 C1328 1.668 . S
C1488 C183 1.683 . S
C1490 C1233 1.671 . S
C1499 C197 1.678 . S
C1501 C1342 1.667 . S
C1510 C223 1.679 . S
C1512 C1303 1.667 . S
C1521 C1134 1.669 . S
C1523 C236 1.681 . S
C1532 C250 1.680 . S
C1534 C558 1.668 . S
C1543 C264 1.681 . S
C1545 C1188 1.666 . S
C1554 C530 1.667 . S
C1556 C278 1.683 . S
C1565 C280 1.683 . S
C1567 C532 1.668 . S
C1576 C1162 1.666 . S
C1578 C306 1.680 . S
C1587 C309 1.681 . S
C1589 C1133 1.672 . S
C1598 C1160 1.666 . S
C1600 C334 1.682 . S
C1609 C714 1.673 . S
C1611 C336 1.680 . S
C1620 C13 1.672 . S
C1622 C363 1.682 . S
C1631 C376 1.683 . S
C1633 C686 1.670 . S
C1642 C391 1.683 . S
C1644 C29 1.667 . S
C1653 C392 1.680 . S
C1655 C742 1.667 . S
C1664 C85 1.670 . S
C1666 C419 1.681 . S
C1675 C420 1.683 . S
C1677 C770 1.671 . S
C1686 C447 1.680 . S
C1688 C57 1.668 . S
C1697 C449 1.680 . S
C1699 C936 1.668 . S
C1708 C266 1.667 . S
C1710 C474 1.679 . S
C1719 C477 1.683 . S
C1721 C292 1.672 . S
C1730 C238 1.667 . S
C1732 C502 1.680 . S
C1741 C504 1.679 . S
C1743 C993 1.667 . S
C1752 C518 1.680 . S
C1754 C896 1.672 . S
C1763 C544 1.681 . S
C1765 C1007 1.671 . S
C1774 C966 1.672 . S
C1776 C546 1.680 . S
C1785 C811 1.666 . S
C1787 C573 1.682 . S
C1796 C211 1.668 . S
C1798 C587 1.680 . S
C1807 C852 1.667 . S
C1809 C600 1.679 . S
C1818 C615 1.680 . S
C1820 C195 1.669 . S
C1829 C629 1.680 . S
C1831 C209 1.667 . S
C1840 C643 1.681 . S
C1842 C827 1.667 . S
C1851 C784 1.667 . S
C1853 C645 1.682 . S
C1862 C658 1.682 . S
C1864 C812 1.672 . S
C1873 C379 1.670 . S
C1875 C673 1.682 . S
C1884 C1008 1.666 . S
C1886 C698 1.681 . S
C1895 C713 1.681 . S
C1897 C351 1.668 . S
C1906 C1036 1.669 . S
C1908 C726 1.684 . S
C1917 C741 1.683 . S
C1919 C407 1.670 . S
C1928 C1092 1.672 . S
C1930 C754 1.683 . S
C1939 C769 1.683 . S
C1941 C435 1.671 . S
C1950 C1064 1.671 . S
C1952 C782 1.681 . S
C1961 C588 1.672 . S
C1963 C796 1.683 . S
C1972 C799 1.678 . S
C1974 C1275 1.668 . S
C1983 C1289 1.671 . S
C1985 C824 1.681 . S
C1994 C839 1.680 . S
C1996 C1247 1.668 . S
C2005 C657 1.673 . S
C2007 C840 1.683 . S
C2016 C867 1.678 . S
C2018 C561 1.669 . S
C2027 C670 1.671 . S
C2029 C881 1.682 . S
C2038 C631 1.672 . S
C2040 C883 1.680 . S
C2049 C462 1.668 . S
C2051 C908 1.684 . S
C2060 C1230 1.672 . S
C2062 C922 1.683 . S
C2071 C924 1.680 . S
C2073 C516 1.668 . S
C2082 C950 1.681 . S
C2084 C1202 1.666 . S
C2093 C1205 1.671 . S
C2095 C965 1.682 . S
C2104 C490 1.670 . S
C2106 C978 1.684 . S
C2115 C461 1.668 . S
C2117 C981 1.679 . S
C2126 C489 1.673 . S
C2128 C995 1.682 . S
C2137 C1020 1.683 . S
C2139 C42 1.669 . S
C2148 C1035 1.683 . S
C2150 C685 1.667 . S
C2159 C1048 1.679 . S
C2161 C14 1.671 . S
C2170 C1063 1.680 . S
C2172 C701 1.669 . S
C2181 C70 1.673 . S
C2183 C1076 1.681 . S
C2192 C757 1.671 . S
C2194 C1091 1.682 . S
C2203 C98 1.667 . S
C2205 C1104 1.679 . S
C2214 C729 1.666 . S
C2216 C1119 1.682 . S
C2225 C1121 1.683 . S
C2227 C252 1.672 . S
C2236 C938 1.667 . S
C2238 C1146 1.680 . S
C2247 C1148 1.682 . S
C2249 C953 1.667 . S
C2258 C1174 1.679 . S
C2260 C910 1.671 . S
C2269 C321 1.666 . S
C2271 C1176 1.681 . S
C2280 C224 1.667 . S
C2282 C1190 1.679 . S
C2291 C1217 1.684 . S
C2293 C322 1.671 . S
C2302 C294 1.668 . S
C2304 C1218 1.682 . S
C2313 C1245 1.680 . S
C2315 C127 1.669 . S
C2324 C1259 1.684 . S
C2326 C895 1.668 . S
C2335 C169 1.666 . S
C2337 C1273 1.681 . S
C2346 C1287 1.683 . S
C2348 C855 1.667 . S
C2357 C869 1.671 . S
C2359 C1301 1.682 . S
C2368 C1315 1.684 . S
C2370 C167 1.670 . S
C2379 C1316 1.681 . S
C2381 C113 1.671 . S
C2390 C1330 1.683 . S
C2392 C141 1.670 . S
C2401 C12 1.615 . S
C2403 C614 1.619 . S
C2412 C628 1.618 . S
C2414 C15 1.613 . S
C2423 C586 1.621 . S
C2425 C28 1.615 . S
C2434 C43 1.609 . S
C2436 C1272 1.619 . S
C2445 C56 1.614 . S
C2447 C1314 1.618 . S
C2456 C71 1.614 . S
C2458 C1317 1.621 . S
C2467 C1244 1.617 . S
C2469 C84 1.613 . S
C2478 C1331 1.621 . S
C2480 C99 1.614 . S
C2489 C377 1.621 . S
C2491 C112 1.615 . S
C2500 C126 1.616 . S
C2502 C1062 1.620 . S
C2511 C337 1.619 . S
C2513 C140 1.612 . S
C2522 C1034 1.621 . S
C2524 C166 1.613 . S
C2533 C421 1.620 . S
C2535 C168 1.615 . S
C2544 C194 1.615 . S
C2546 C1118 1.618 . S
C2555 C208 1.616 . S
C2557 C393 1.621 . S
C2566 C210 1.611 . S
C2568 C1090 1.619 . S
C2577 C225 1.611 . S
C2579 C1177 1.621 . S
C2588 C448 1.619 . S
C2590 C239 1.610 . S
C2599 C253 1.612 . S
C2601 C1147 1.622 . S
C2610 C267 1.612 . S
C2612 C476 1.621 . S
C2621 C293 1.614 . S
C2623 C503 1.621 . S
C2632 C295 1.611 . S
C2634 C1216 1.618 . S
C2643 C1219 1.619 . S
C2645 C320 1.612 . S
C2654 C1191 1.621 . S
C2656 C323 1.614 . S
C2665 C279 1.617 . S
C2667 C349 1.612 . S
C2676 C350 1.614 . S
C2678 C281 1.620 . S
C2687 C365 1.615 . S
C2689 C251 1.621 . S
C2698 C378 1.614 . S
C2700 C925 1.619 . S
C2709 C979 1.618 . S
C2711 C405 1.612 . S
C2720 C980 1.620 . S
C2722 C406 1.610 . S
C2731 C433 1.613 . S
C2733 C909 1.618 . S
C2742 C994 1.619 . S
C2744 C434 1.612 . S
C2753 C460 1.614 . S
C2755 C40 1.620 . S
C2764 C727 1.617 . S
C2766 C463 1.613 . S
C2775 C488 1.610 . S
C2777 C0 1.621 . S
C2786 C699 1.621 . S
C2788 C491 1.615 . S
C2797 C517 1.615 . S
C2799 C96 1.620 . S
C2808 C783 1.620 . S
C2810 C531 1.615 . S
C2819 C68 1.620 . S
C2821 C533 1.612 . S
C2830 C755 1.619 . S
C2832 C559 1.612 . S
C2841 C560 1.610 . S
C2843 C841 1.618 . S
C2852 C574 1.614 . S
C2854 C124 1.621 . S
C2863 C798 1.622 . S
C2865 C589 1.615 . S
C2874 C602 1.613 . S
C2876 C152 1.622 . S
C2885 C154 1.621 . S
C2887 C616 1.614 . S
C2896 C880 1.620 . S
C2898 C630 1.610 . S
C2907 C882 1.618 . S
C2909 C656 1.611 . S
C2918 C866 1.621 . S
C2920 C671 1.615 . S
C2929 C684 1.612 . S
C2931 C1286 1.620 . S
C2940 C687 1.612 . S
C2942 C1300 1.618 . S
C2951 C700 1.614 . S
C2953 C1258 1.618 . S
C2962 C601 1.619 . S
C2964 C715 1.610 . S
C2973 C728 1.611 . S
C2975 C642 1.619 . S
C2984 C644 1.619 . S
C2986 C743 1.613 . S
C2995 C572 1.621 . S
C2997 C756 1.613 . S
C3006 C659 1.621 . S
C3008 C771 1.610 . S
C3017 C785 1.614 . S
C3019 C1049 1.621 . S
C3028 C390 1.618 . S
C3030 C810 1.612 . S
C3039 C813 1.614 . S
C3041 C1021 1.622 . S
C3050 C826 1.611 . S
C3052 C362 1.619 . S
C3061 C853 1.611 . S
C3063 C1105 1.622 . S
C3072 C854 1.616 . S
C3074 C446 1.620 . S
C3083 C1077 1.621 . S
C3085 C868 1.615 . S
C3094 C418 1.619 . S
C3096 C894 1.612 . S
C3105 C897 1.610 . S
C3107 C505 1.619 . S
C3116 C911 1.613 . S
C3118 C1120 1.618 . S
C3127 C937 1.614 . S
C3129 C475 1.622 . S
C3138 C1149 1.621 . S
C3140 C939 1.611 . S
C3149 C952 1.612 . S
C3151 C1175 1.621 . S
C3160 C967 1.614 . S
C3162 C545 1.620 . S
C3171 C547 1.620 . S
C3173 C992 1.615 . S
C3182 C1006 1.616 . S
C3184 C519 1.621 . S
C3193 C1009 1.616 . S
C3195 C951 1.621 . S
C3204 C964 1.622 . S
C3206 C1022 1.613 . S
C3215 C923 1.617 . S
C3217 C1037 1.612 . S
C3226 C1050 1.610 . S
C3228 C265 1.619 . S
C3237 C1065 1.611 . S
C3239 C307 1.619 . S
C3248 C1078 1.611 . S
C3250 C308 1.621 . S
C3259 C237 1.618 . S
C3261 C1093 1.612 . S
C3270 C1106 1.613 . S
C3272 C335 1.621 . S
C3281 C1132 1.610 . S
C3283 C712 1.621 . S
C3292 C1135 1.616 . S
C3294 C55 1.619 . S
C3303 C1161 1.616 . S
C3305 C672 1.621 . S
C3314 C1163 1.613 . S
C3316 C27 1.618 . S
C3325 C1189 1.614 . S
C3327 C768 1.619 . S
C3336 C1203 1.613 . S
C3338 C111 1.621 . S
C3347 C1204 1.613 . S
C3349 C740 1.622 . S
C3358 C1231 1.614 . S
C3360 C83 1.621 . S
C3369 C1232 1.610 . S
C3371 C180 1.619 . S
C3380 C1246 1.610 . S
C3382 C797 1.619 . S
C3391 C1260 1.614 . S
C3393 C138 1.621 . S
C3402 C1274 1.610 . S
C3404 C825 1.620 . S
C3413 C1288 1.612 . S
C3415 C838 1.619 . S
C3424 C196 1.621 . S
C3426 C1302 1.614 . S
C3435 C1329 1.616 . S
C3437 C222 1.622 . S
C3446 C1343 1.615 . S
C3448 C182 1.620 . S
