# Generated by pormake.
# Topology umv, (4)-cn, num edge types: 1
# Building blocks:
#     Node 0, Type 0, BuildingBlock: NAHDIM_clean_sbu_0, # of connection points: 4
#     Node 1, Type 0, BuildingBlock: NAHDIM_clean_sbu_0, # of connection points: 4
#     Node 2, Type 0, BuildingBlock: NAHDIM_clean_sbu_0, # of connection points: 4
#     Node 3, Type 0, BuildingBlock: NAHDIM_clean_sbu_0, # of connection points: 4
#     Node 4, Type 0, BuildingBlock: NAHDIM_clean_sbu_0, # of connection points: 4
#     Node 5, Type 0, BuildingBlock: NAHDIM_clean_sbu_0, # of connection points: 4
#     Node 6, Type 0, BuildingBlock: NAHDIM_clean_sbu_0, # of connection points: 4
#     Node 7, Type 0, BuildingBlock: NAHDIM_clean_sbu_0, # of connection points: 4
#     Node 8, Type 0, BuildingBlock: NAHDIM_clean_sbu_0, # of connection points: 4
#     Node 9, Type 0, BuildingBlock: NAHDIM_clean_sbu_0, # of connection points: 4
#     Node 10, Type 0, BuildingBlock: NAHDIM_clean_sbu_0, # of connection points: 4
#     Node 11, Type 0, BuildingBlock: NAHDIM_clean_sbu_0, # of connection points: 4
#     Node 12, Type 0, BuildingBlock: NAHDIM_clean_sbu_0, # of connection points: 4
#     Node 13, Type 0, BuildingBlock: NAHDIM_clean_sbu_0, # of connection points: 4
#     Node 14, Type 0, BuildingBlock: NAHDIM_clean_sbu_0, # of connection points: 4
#     Node 15, Type 0, BuildingBlock: NAHDIM_clean_sbu_0, # of connection points: 4
#     Node 16, Type 0, BuildingBlock: NAHDIM_clean_sbu_0, # of connection points: 4
#     Node 17, Type 0, BuildingBlock: NAHDIM_clean_sbu_0, # of connection points: 4
#     Node 18, Type 0, BuildingBlock: NAHDIM_clean_sbu_0, # of connection points: 4
#     Node 19, Type 0, BuildingBlock: NAHDIM_clean_sbu_0, # of connection points: 4
#     Node 20, Type 0, BuildingBlock: NAHDIM_clean_sbu_0, # of connection points: 4
#     Node 21, Type 0, BuildingBlock: NAHDIM_clean_sbu_0, # of connection points: 4
#     Node 22, Type 0, BuildingBlock: NAHDIM_clean_sbu_0, # of connection points: 4
#     Node 23, Type 0, BuildingBlock: NAHDIM_clean_sbu_0, # of connection points: 4
#     Node 24, Type 0, BuildingBlock: NAHDIM_clean_sbu_0, # of connection points: 4
#     Node 25, Type 0, BuildingBlock: NAHDIM_clean_sbu_0, # of connection points: 4
#     Node 26, Type 0, BuildingBlock: NAHDIM_clean_sbu_0, # of connection points: 4
#     Node 27, Type 0, BuildingBlock: NAHDIM_clean_sbu_0, # of connection points: 4
#     Node 28, Type 0, BuildingBlock: NAHDIM_clean_sbu_0, # of connection points: 4
#     Node 29, Type 0, BuildingBlock: NAHDIM_clean_sbu_0, # of connection points: 4
#     Node 30, Type 0, BuildingBlock: NAHDIM_clean_sbu_0, # of connection points: 4
#     Node 31, Type 0, BuildingBlock: NAHDIM_clean_sbu_0, # of connection points: 4
#     Edge 32, Type (0, 0), BuildingBlock: ZUJKAS_clean_linker_0, # of connection points: 2
#     Edge 33, Type (0, 0), BuildingBlock: ZUJKAS_clean_linker_0, # of connection points: 2
#     Edge 34, Type (0, 0), BuildingBlock: ZUJKAS_clean_linker_0, # of connection points: 2
#     Edge 35, Type (0, 0), BuildingBlock: ZUJKAS_clean_linker_0, # of connection points: 2
#     Edge 36, Type (0, 0), BuildingBlock: ZUJKAS_clean_linker_0, # of connection points: 2
#     Edge 37, Type (0, 0), BuildingBlock: ZUJKAS_clean_linker_0, # of connection points: 2
#     Edge 38, Type (0, 0), BuildingBlock: ZUJKAS_clean_linker_0, # of connection points: 2
#     Edge 39, Type (0, 0), BuildingBlock: ZUJKAS_clean_linker_0, # of connection points: 2
#     Edge 40, Type (0, 0), BuildingBlock: ZUJKAS_clean_linker_0, # of connection points: 2
#     Edge 41, Type (0, 0), BuildingBlock: ZUJKAS_clean_linker_0, # of connection points: 2
#     Edge 42, Type (0, 0), BuildingBlock: ZUJKAS_clean_linker_0, # of connection points: 2
#     Edge 43, Type (0, 0), BuildingBlock: ZUJKAS_clean_linker_0, # of connection points: 2
#     Edge 44, Type (0, 0), BuildingBlock: ZUJKAS_clean_linker_0, # of connection points: 2
#     Edge 45, Type (0, 0), BuildingBlock: ZUJKAS_clean_linker_0, # of connection points: 2
#     Edge 46, Type (0, 0), BuildingBlock: ZUJKAS_clean_linker_0, # of connection points: 2
#     Edge 47, Type (0, 0), BuildingBlock: ZUJKAS_clean_linker_0, # of connection points: 2
#     Edge 48, Type (0, 0), BuildingBlock: ZUJKAS_clean_linker_0, # of connection points: 2
#     Edge 49, Type (0, 0), BuildingBlock: ZUJKAS_clean_linker_0, # of connection points: 2
#     Edge 50, Type (0, 0), BuildingBlock: ZUJKAS_clean_linker_0, # of connection points: 2
#     Edge 51, Type (0, 0), BuildingBlock: ZUJKAS_clean_linker_0, # of connection points: 2
#     Edge 52, Type (0, 0), BuildingBlock: ZUJKAS_clean_linker_0, # of connection points: 2
#     Edge 53, Type (0, 0), BuildingBlock: ZUJKAS_clean_linker_0, # of connection points: 2
#     Edge 54, Type (0, 0), BuildingBlock: ZUJKAS_clean_linker_0, # of connection points: 2
#     Edge 55, Type (0, 0), BuildingBlock: ZUJKAS_clean_linker_0, # of connection points: 2
#     Edge 56, Type (0, 0), BuildingBlock: ZUJKAS_clean_linker_0, # of connection points: 2
#     Edge 57, Type (0, 0), BuildingBlock: ZUJKAS_clean_linker_0, # of connection points: 2
#     Edge 58, Type (0, 0), BuildingBlock: ZUJKAS_clean_linker_0, # of connection points: 2
#     Edge 59, Type (0, 0), BuildingBlock: ZUJKAS_clean_linker_0, # of connection points: 2
#     Edge 60, Type (0, 0), BuildingBlock: ZUJKAS_clean_linker_0, # of connection points: 2
#     Edge 61, Type (0, 0), BuildingBlock: ZUJKAS_clean_linker_0, # of connection points: 2
#     Edge 62, Type (0, 0), BuildingBlock: ZUJKAS_clean_linker_0, # of connection points: 2
#     Edge 63, Type (0, 0), BuildingBlock: ZUJKAS_clean_linker_0, # of connection points: 2
#     Edge 64, Type (0, 0), BuildingBlock: ZUJKAS_clean_linker_0, # of connection points: 2
#     Edge 65, Type (0, 0), BuildingBlock: ZUJKAS_clean_linker_0, # of connection points: 2
#     Edge 66, Type (0, 0), BuildingBlock: ZUJKAS_clean_linker_0, # of connection points: 2
#     Edge 67, Type (0, 0), BuildingBlock: ZUJKAS_clean_linker_0, # of connection points: 2
#     Edge 68, Type (0, 0), BuildingBlock: ZUJKAS_clean_linker_0, # of connection points: 2
#     Edge 69, Type (0, 0), BuildingBlock: ZUJKAS_clean_linker_0, # of connection points: 2
#     Edge 70, Type (0, 0), BuildingBlock: ZUJKAS_clean_linker_0, # of connection points: 2
#     Edge 71, Type (0, 0), BuildingBlock: ZUJKAS_clean_linker_0, # of connection points: 2
#     Edge 72, Type (0, 0), BuildingBlock: ZUJKAS_clean_linker_0, # of connection points: 2
#     Edge 73, Type (0, 0), BuildingBlock: ZUJKAS_clean_linker_0, # of connection points: 2
#     Edge 74, Type (0, 0), BuildingBlock: ZUJKAS_clean_linker_0, # of connection points: 2
#     Edge 75, Type (0, 0), BuildingBlock: ZUJKAS_clean_linker_0, # of connection points: 2
#     Edge 76, Type (0, 0), BuildingBlock: ZUJKAS_clean_linker_0, # of connection points: 2
#     Edge 77, Type (0, 0), BuildingBlock: ZUJKAS_clean_linker_0, # of connection points: 2
#     Edge 78, Type (0, 0), BuildingBlock: ZUJKAS_clean_linker_0, # of connection points: 2
#     Edge 79, Type (0, 0), BuildingBlock: ZUJKAS_clean_linker_0, # of connection points: 2
#     Edge 80, Type (0, 0), BuildingBlock: ZUJKAS_clean_linker_0, # of connection points: 2
#     Edge 81, Type (0, 0), BuildingBlock: ZUJKAS_clean_linker_0, # of connection points: 2
#     Edge 82, Type (0, 0), BuildingBlock: ZUJKAS_clean_linker_0, # of connection points: 2
#     Edge 83, Type (0, 0), BuildingBlock: ZUJKAS_clean_linker_0, # of connection points: 2
#     Edge 84, Type (0, 0), BuildingBlock: ZUJKAS_clean_linker_0, # of connection points: 2
#     Edge 85, Type (0, 0), BuildingBlock: ZUJKAS_clean_linker_0, # of connection points: 2
#     Edge 86, Type (0, 0), BuildingBlock: ZUJKAS_clean_linker_0, # of connection points: 2
#     Edge 87, Type (0, 0), BuildingBlock: ZUJKAS_clean_linker_0, # of connection points: 2
#     Edge 88, Type (0, 0), BuildingBlock: ZUJKAS_clean_linker_0, # of connection points: 2
#     Edge 89, Type (0, 0), BuildingBlock: ZUJKAS_clean_linker_0, # of connection points: 2
#     Edge 90, Type (0, 0), BuildingBlock: ZUJKAS_clean_linker_0, # of connection points: 2
#     Edge 91, Type (0, 0), BuildingBlock: ZUJKAS_clean_linker_0, # of connection points: 2
#     Edge 92, Type (0, 0), BuildingBlock: ZUJKAS_clean_linker_0, # of connection points: 2
#     Edge 93, Type (0, 0), BuildingBlock: ZUJKAS_clean_linker_0, # of connection points: 2
#     Edge 94, Type (0, 0), BuildingBlock: ZUJKAS_clean_linker_0, # of connection points: 2
#     Edge 95, Type (0, 0), BuildingBlock: ZUJKAS_clean_linker_0, # of connection points: 2
# Relax obj value: 0.142
# Max RMSD: 0.096
# Mean RMSD: 0.096
data_MOF--net-umv--node1-NAHDIM_clean_sbu_0--edge1-ZUJKAS_clean_linker_0
_symmetry_space_group_name_H-M    P1
_symmetry_Int_Tables_number       1
_symmetry_cell_setting            triclinic
loop_
_symmetry_equiv_pos_as_xyz
'x, y, z'
_cell_length_a     123.96957
_cell_length_b     30.677721
_cell_length_c     101.19735
_cell_angle_alpha  89.994905
_cell_angle_beta   90.007488
_cell_angle_gamma 89.994385
loop_
_atom_site_label
_atom_site_type_symbol
_atom_site_fract_x
_atom_site_fract_y
_atom_site_fract_z
_atom_type_partial_charge
C0 C 0.02062 0.13109 0.29939 0.0
O1 O 0.01755 0.13621 0.31172 0.0
O2 O 0.035 0.05018 0.3224 0.0
Zn3 Zn 0.03957 0.10366 0.31241 0.0
O4 O 0.03897 0.15689 0.3239 0.0
C5 C 0.06176 0.07631 0.31267 0.0
O6 O 0.05861 0.05478 0.32321 0.0
O7 O 0.02986 0.11503 0.29704 0.0
C8 C 0.04395 0.16046 0.3348 0.0
O9 O 0.04958 0.12731 0.33927 0.0
C10 C 0.02892 0.05189 0.33249 0.0
O11 O 0.02514 0.08974 0.33641 0.0
O12 O 0.05486 0.09808 0.30613 0.0
C13 C 0.21593 0.13114 0.29291 0.0
O14 O 0.22027 0.1341 0.30471 0.0
O15 O 0.2013 0.18799 0.31959 0.0
Zn16 Zn 0.19681 0.13729 0.30822 0.0
O17 O 0.19897 0.08087 0.31789 0.0
C18 C 0.17437 0.16036 0.31083 0.0
O19 O 0.17782 0.18026 0.32152 0.0
O20 O 0.20575 0.13388 0.29178 0.0
C21 C 0.19421 0.07254 0.32872 0.0
O22 O 0.18788 0.10212 0.334 0.0
C23 C 0.20816 0.18399 0.32885 0.0
O24 O 0.21259 0.1458 0.33106 0.0
O25 O 0.18113 0.14116 0.3034 0.0
C26 C 0.03253 0.11418 0.95443 0.0
O27 O 0.03651 0.15383 0.954 0.0
O28 O 0.03665 0.16047 0.92063 0.0
Zn29 Zn 0.042 0.10433 0.92839 0.0
O30 O 0.0403 0.05489 0.91564 0.0
C31 C 0.06384 0.13567 0.92672 0.0
O32 O 0.05967 0.16195 0.91784 0.0
O33 O 0.03385 0.08882 0.94466 0.0
C34 C 0.04469 0.05475 0.9043 0.0
O35 O 0.05021 0.08898 0.90043 0.0
C36 C 0.02952 0.16191 0.91161 0.0
O37 O 0.02509 0.12551 0.90747 0.0
O38 O 0.05773 0.10902 0.93275 0.0
C39 C 0.21866 0.13681 0.94815 0.0
O40 O 0.22287 0.13957 0.93627 0.0
O41 O 0.20616 0.06107 0.92332 0.0
Zn42 Zn 0.20063 0.11398 0.93279 0.0
O43 O 0.20189 0.167 0.92131 0.0
C44 C 0.17887 0.10201 0.92669 0.0
O45 O 0.18328 0.10059 0.91489 0.0
O46 O 0.20893 0.12457 0.94936 0.0
C47 C 0.20009 0.20414 0.9264 0.0
O48 O 0.1977 0.20665 0.93903 0.0
C49 C 0.21176 0.06387 0.91284 0.0
O50 O 0.2143 0.10251 0.9082 0.0
O51 O 0.18494 0.1065 0.93671 0.0
C52 C 0.96327 0.8153 0.69421 0.0
O53 O 0.96635 0.81147 0.68185 0.0
O54 O 0.95116 0.91467 0.67513 0.0
Zn55 Zn 0.9457 0.85662 0.6815 0.0
O56 O 0.94689 0.81189 0.66714 0.0
C57 C 0.9238 0.88651 0.68064 0.0
O58 O 0.92777 0.91258 0.67156 0.0
O59 O 0.95451 0.8351 0.69679 0.0
C60 C 0.94402 0.81718 0.6552 0.0
O61 O 0.93989 0.85466 0.65148 0.0
C62 C 0.959 0.91736 0.66708 0.0
O63 O 0.96381 0.88155 0.66311 0.0
O64 O 0.93008 0.8604 0.68662 0.0
C65 C 0.76852 0.88878 0.6889 0.0
O66 O 0.76527 0.89393 0.67664 0.0
O67 O 0.78205 0.82046 0.66369 0.0
Zn68 Zn 0.78758 0.86881 0.67527 0.0
O69 O 0.7873 0.92566 0.66548 0.0
C70 C 0.80981 0.85137 0.67169 0.0
O71 O 0.80662 0.85165 0.65931 0.0
O72 O 0.77811 0.87601 0.69103 0.0
C73 C 0.79339 0.95689 0.66897 0.0
O74 O 0.79996 0.95153 0.67903 0.0
C75 C 0.78129 0.8254 0.65126 0.0
O76 O 0.78406 0.86284 0.64595 0.0
O77 O 0.80286 0.85683 0.68076 0.0
C78 C 0.96852 0.92643 0.05684 0.0
O79 O 0.97002 0.93157 0.0696 0.0
O80 O 0.95404 0.84162 0.07768 0.0
Zn81 Zn 0.94902 0.89164 0.06646 0.0
O82 O 0.94684 0.94477 0.0777 0.0
C83 C 0.92756 0.86239 0.06566 0.0
O84 O 0.92999 0.85454 0.07808 0.0
O85 O 0.95997 0.9078 0.05282 0.0
C86 C 0.94946 0.94713 0.08981 0.0
O87 O 0.95358 0.9128 0.09571 0.0
C88 C 0.9621 0.81742 0.07515 0.0
O89 O 0.96769 0.82402 0.06432 0.0
O90 O 0.9348 0.87767 0.05809 0.0
C91 C 0.77425 0.84319 0.05091 0.0
O92 O 0.77184 0.83761 0.06344 0.0
O93 O 0.78941 0.9286 0.07208 0.0
Zn94 Zn 0.79362 0.87396 0.06241 0.0
O95 O 0.79365 0.82264 0.07467 0.0
C96 C 0.81546 0.90427 0.06044 0.0
O97 O 0.8125 0.92822 0.07057 0.0
O98 O 0.78323 0.86042 0.04789 0.0
C99 C 0.79881 0.82159 0.0855 0.0
O100 O 0.80433 0.85599 0.08925 0.0
C101 C 0.78326 0.92804 0.08212 0.0
O102 O 0.77915 0.89082 0.0861 0.0
O103 O 0.80859 0.87938 0.055 0.0
C104 C 0.02467 0.61421 0.79734 0.0
O105 O 0.0216 0.62058 0.80961 0.0
O106 O 0.03936 0.5399 0.82144 0.0
Zn107 Zn 0.04384 0.5921 0.81072 0.0
O108 O 0.04287 0.64683 0.82154 0.0
C109 C 0.06603 0.56588 0.81181 0.0
O110 O 0.06272 0.54616 0.82259 0.0
O111 O 0.03412 0.59999 0.79513 0.0
C112 C 0.04751 0.65128 0.83264 0.0
O113 O 0.05303 0.61856 0.83758 0.0
C114 C 0.03291 0.5427 0.83117 0.0
O115 O 0.02876 0.58075 0.83426 0.0
O116 O 0.05923 0.58634 0.80475 0.0
C117 C 0.21899 0.58498 0.80438 0.0
O118 O 0.22157 0.57716 0.81674 0.0
O119 O 0.20475 0.67948 0.82457 0.0
Zn120 Zn 0.20045 0.62218 0.81663 0.0
O121 O 0.20127 0.57548 0.83049 0.0
C122 C 0.1782 0.64955 0.81476 0.0
O123 O 0.18104 0.67683 0.82414 0.0
O124 O 0.21033 0.60546 0.80185 0.0
C125 C 0.19531 0.57547 0.84069 0.0
O126 O 0.18832 0.60714 0.84239 0.0
C127 C 0.21205 0.68091 0.83338 0.0
O128 O 0.21698 0.64474 0.83682 0.0
O129 O 0.18523 0.62416 0.80986 0.0
C130 C 0.03009 0.58659 0.44647 0.0
O131 O 0.02515 0.5839 0.43501 0.0
O132 O 0.04092 0.67192 0.42182 0.0
Zn133 Zn 0.04652 0.61607 0.42955 0.0
O134 O 0.04365 0.5661 0.41732 0.0
C135 C 0.0676 0.64 0.44047 0.0
O136 O 0.06218 0.66167 0.44948 0.0
O137 O 0.0396 0.60193 0.44686 0.0
C138 C 0.04783 0.56449 0.40588 0.0
O139 O 0.05385 0.59707 0.40181 0.0
C140 C 0.03324 0.67229 0.41351 0.0
O141 O 0.02852 0.63544 0.41029 0.0
O142 O 0.06254 0.61949 0.43151 0.0
C143 C 0.22266 0.66028 0.43817 0.0
O144 O 0.22529 0.67252 0.42615 0.0
O145 O 0.20759 0.56875 0.41637 0.0
Zn146 Zn 0.20423 0.62639 0.4247 0.0
O147 O 0.2057 0.67449 0.41141 0.0
C148 C 0.18176 0.6063 0.42441 0.0
O149 O 0.18469 0.58406 0.41392 0.0
O150 O 0.21402 0.63876 0.43994 0.0
C151 C 0.20305 0.6705 0.39935 0.0
O152 O 0.19938 0.63289 0.39507 0.0
C153 C 0.21644 0.56024 0.4106 0.0
O154 O 0.22409 0.58985 0.41032 0.0
O155 O 0.18888 0.62671 0.43098 0.0
C156 C 0.97093 0.3728 0.19527 0.0
O157 O 0.97403 0.36406 0.18314 0.0
O158 O 0.95858 0.46375 0.17206 0.0
Zn159 Zn 0.95337 0.40964 0.18124 0.0
O160 O 0.95394 0.35818 0.16903 0.0
C161 C 0.93112 0.43421 0.17924 0.0
O162 O 0.93451 0.45224 0.16822 0.0
O163 O 0.96235 0.39462 0.19706 0.0
C164 C 0.95097 0.35841 0.15702 0.0
O165 O 0.9475 0.39483 0.15169 0.0
C166 C 0.96645 0.46276 0.16402 0.0
O167 O 0.97155 0.42583 0.16202 0.0
O168 O 0.93791 0.41581 0.1868 0.0
C169 C 0.77743 0.39094 0.19508 0.0
O170 O 0.77406 0.39426 0.18282 0.0
O171 O 0.79182 0.31076 0.17219 0.0
Zn172 Zn 0.79635 0.36538 0.18166 0.0
O173 O 0.79526 0.41773 0.16983 0.0
C174 C 0.81862 0.33961 0.18083 0.0
O175 O 0.81528 0.31664 0.17066 0.0
O176 O 0.78691 0.37696 0.19727 0.0
C177 C 0.80015 0.42089 0.15884 0.0
O178 O 0.80591 0.38789 0.15454 0.0
C179 C 0.78548 0.3113 0.16232 0.0
O180 O 0.78147 0.3486 0.15827 0.0
O181 O 0.8118 0.36154 0.18744 0.0
C182 C 0.97882 0.37178 0.55468 0.0
O183 O 0.98205 0.37593 0.56698 0.0
O184 O 0.96346 0.29982 0.57887 0.0
Zn185 Zn 0.95945 0.35176 0.56788 0.0
O186 O 0.96015 0.40676 0.57855 0.0
C187 C 0.93724 0.34805 0.57135 0.0
O188 O 0.94075 0.35058 0.58358 0.0
O189 O 0.96924 0.35917 0.55242 0.0
C190 C 0.95741 0.44182 0.57277 0.0
O191 O 0.95464 0.44035 0.56024 0.0
C192 C 0.96809 0.30341 0.59002 0.0
O193 O 0.97078 0.34227 0.59435 0.0
O194 O 0.94408 0.34621 0.56202 0.0
C195 C 0.78502 0.33543 0.55015 0.0
O196 O 0.78233 0.32626 0.56239 0.0
O197 O 0.79649 0.44016 0.56977 0.0
Zn198 Zn 0.80186 0.3824 0.56321 0.0
O199 O 0.80165 0.33822 0.57792 0.0
C200 C 0.82372 0.40227 0.56661 0.0
O201 O 0.81981 0.41297 0.57824 0.0
O202 O 0.79308 0.36005 0.548 0.0
C203 C 0.79564 0.34031 0.58807 0.0
O204 O 0.78898 0.3733 0.58946 0.0
C205 C 0.78664 0.45148 0.57034 0.0
O206 O 0.77915 0.42472 0.56604 0.0
O207 O 0.81729 0.38862 0.55776 0.0
C208 C 0.52498 0.17556 0.80365 0.0
O209 O 0.52266 0.1827 0.81613 0.0
O210 O 0.5352 0.07283 0.82335 0.0
Zn211 Zn 0.54184 0.12649 0.81546 0.0
O212 O 0.54315 0.1724 0.82951 0.0
C213 C 0.56327 0.09578 0.817 0.0
O214 O 0.5598 0.08504 0.82883 0.0
O215 O 0.53285 0.15077 0.80079 0.0
C216 C 0.55045 0.20136 0.82897 0.0
O217 O 0.55737 0.20086 0.81914 0.0
C218 C 0.5286 0.07591 0.83292 0.0
O219 O 0.52572 0.11474 0.8371 0.0
O220 O 0.55672 0.11308 0.80891 0.0
C221 C 0.71548 0.0797 0.79979 0.0
O222 O 0.72017 0.07301 0.81125 0.0
O223 O 0.70411 0.16709 0.82462 0.0
Zn224 Zn 0.69911 0.11041 0.81686 0.0
O225 O 0.70249 0.06134 0.82921 0.0
C226 C 0.67799 0.12123 0.80439 0.0
O227 O 0.6834 0.13323 0.79384 0.0
O228 O 0.70623 0.09746 0.79952 0.0
C229 C 0.69889 0.06062 0.84095 0.0
O230 O 0.69313 0.09364 0.84526 0.0
C231 C 0.71284 0.16987 0.83116 0.0
O232 O 0.71894 0.13515 0.83251 0.0
O233 O 0.68306 0.11119 0.81486 0.0
C234 C 0.52982 0.10683 0.44778 0.0
O235 O 0.52629 0.10033 0.4357 0.0
O236 O 0.5443 0.18423 0.42382 0.0
Zn237 Zn 0.54859 0.12969 0.43351 0.0
O238 O 0.54678 0.0773 0.42185 0.0
C239 C 0.57099 0.15456 0.43262 0.0
O240 O 0.5677 0.17891 0.42272 0.0
O241 O 0.53934 0.12105 0.44946 0.0
C242 C 0.5513 0.07443 0.41063 0.0
O243 O 0.55722 0.10703 0.40634 0.0
C244 C 0.53734 0.18352 0.4146 0.0
O245 O 0.53264 0.14651 0.41152 0.0
O246 O 0.56414 0.13189 0.43894 0.0
C247 C 0.72479 0.15764 0.44215 0.0
O248 O 0.72754 0.16746 0.42997 0.0
O249 O 0.70876 0.07918 0.41887 0.0
Zn250 Zn 0.70535 0.13316 0.42924 0.0
O251 O 0.70628 0.18548 0.41743 0.0
C252 C 0.68475 0.09591 0.43715 0.0
O253 O 0.68932 0.05842 0.43431 0.0
O254 O 0.71558 0.14098 0.44431 0.0
C255 C 0.69903 0.19171 0.40877 0.0
O256 O 0.6912 0.16312 0.40756 0.0
C257 C 0.71505 0.08016 0.40896 0.0
O258 O 0.71969 0.11708 0.40566 0.0
O259 O 0.69017 0.13083 0.43602 0.0
C260 C 0.46764 0.83104 0.19076 0.0
O261 O 0.47082 0.82381 0.17857 0.0
O262 O 0.45435 0.92638 0.17005 0.0
Zn263 Zn 0.44971 0.86845 0.17731 0.0
O264 O 0.451 0.82214 0.16339 0.0
C265 C 0.42745 0.89434 0.1769 0.0
O266 O 0.43084 0.92001 0.16737 0.0
O267 O 0.45882 0.85109 0.19274 0.0
C268 C 0.44751 0.82696 0.15168 0.0
O269 O 0.443 0.86405 0.14827 0.0
C270 C 0.46204 0.92942 0.1618 0.0
O271 O 0.46732 0.8941 0.15833 0.0
O272 O 0.4342 0.87028 0.18289 0.0
C273 C 0.27389 0.89989 0.19338 0.0
O274 O 0.27045 0.8998 0.1811 0.0
O275 O 0.28545 0.81326 0.17132 0.0
Zn276 Zn 0.29202 0.86463 0.18064 0.0
O277 O 0.29313 0.91566 0.16833 0.0
C278 C 0.31352 0.83985 0.1771 0.0
O279 O 0.30972 0.83586 0.16503 0.0
O280 O 0.28311 0.88394 0.19595 0.0
C281 C 0.29889 0.9479 0.17183 0.0
O282 O 0.30393 0.9465 0.18324 0.0
C283 C 0.28058 0.81785 0.16036 0.0
O284 O 0.27944 0.85708 0.15535 0.0
O285 O 0.30709 0.85045 0.18632 0.0
C286 C 0.46883 0.92996 0.55528 0.0
O287 O 0.47164 0.93543 0.56769 0.0
O288 O 0.45445 0.83189 0.57356 0.0
Zn289 Zn 0.45026 0.89151 0.56721 0.0
O290 O 0.45139 0.93461 0.58202 0.0
C291 C 0.42813 0.86393 0.56456 0.0
O292 O 0.43117 0.83341 0.57287 0.0
O293 O 0.46 0.91085 0.55263 0.0
C294 C 0.44709 0.92868 0.59327 0.0
O295 O 0.44163 0.89272 0.5955 0.0
C296 C 0.4619 0.8268 0.58204 0.0
O297 O 0.46714 0.8611 0.58641 0.0
O298 O 0.43499 0.89185 0.56065 0.0
C299 C 0.27671 0.83028 0.55197 0.0
O300 O 0.27362 0.81649 0.56366 0.0
O301 O 0.29033 0.9178 0.57632 0.0
Zn302 Zn 0.2944 0.8625 0.56707 0.0
O303 O 0.29264 0.81196 0.57942 0.0
C304 C 0.31442 0.8941 0.55522 0.0
O305 O 0.30862 0.92726 0.55109 0.0
O306 O 0.28535 0.85226 0.55099 0.0
C307 C 0.29963 0.80505 0.58834 0.0
O308 O 0.30773 0.83234 0.58966 0.0
C309 C 0.28162 0.92056 0.58288 0.0
O310 O 0.27507 0.88696 0.58326 0.0
O311 O 0.30996 0.86409 0.56191 0.0
C312 C 0.52406 0.64479 0.30049 0.0
O313 O 0.52062 0.65219 0.31256 0.0
O314 O 0.53868 0.56497 0.32408 0.0
Zn315 Zn 0.54288 0.61978 0.31455 0.0
O316 O 0.54161 0.6722 0.32635 0.0
C317 C 0.56523 0.59602 0.31564 0.0
O318 O 0.56202 0.57504 0.32625 0.0
O319 O 0.53346 0.62932 0.29881 0.0
C320 C 0.54579 0.67364 0.3378 0.0
O321 O 0.55079 0.63912 0.34243 0.0
C322 C 0.53199 0.56433 0.33358 0.0
O323 O 0.52727 0.60071 0.33725 0.0
O324 O 0.55833 0.61637 0.30871 0.0
C325 C 0.71895 0.6116 0.29712 0.0
O326 O 0.72245 0.61008 0.30937 0.0
O327 O 0.70555 0.69769 0.31881 0.0
Zn328 Zn 0.70044 0.642 0.31043 0.0
O329 O 0.70159 0.59225 0.32329 0.0
C330 C 0.67851 0.67254 0.31084 0.0
O331 O 0.68225 0.69767 0.3203 0.0
O332 O 0.70956 0.62635 0.29486 0.0
C333 C 0.69488 0.58578 0.33257 0.0
O334 O 0.68684 0.61311 0.33422 0.0
C335 C 0.71159 0.6975 0.32896 0.0
O336 O 0.71486 0.6601 0.33384 0.0
O337 O 0.68494 0.64702 0.30486 0.0
C338 C 0.52622 0.61218 0.94425 0.0
O339 O 0.5225 0.61019 0.9321 0.0
O340 O 0.53758 0.69446 0.9208 0.0
Zn341 Zn 0.5441 0.6428 0.93013 0.0
O342 O 0.54386 0.59024 0.91832 0.0
C343 C 0.56608 0.66058 0.92536 0.0
O344 O 0.56225 0.66362 0.91329 0.0
O345 O 0.53561 0.62744 0.94619 0.0
C346 C 0.55007 0.55823 0.92067 0.0
O347 O 0.55655 0.55986 0.93093 0.0
C348 C 0.53592 0.69316 0.90841 0.0
O349 O 0.53848 0.65779 0.90181 0.0
O350 O 0.55956 0.65389 0.93483 0.0
C351 C 0.71943 0.61939 0.94718 0.0
O352 O 0.72328 0.62609 0.93526 0.0
O353 O 0.70609 0.54097 0.92195 0.0
Zn354 Zn 0.70144 0.59451 0.93188 0.0
O355 O 0.70352 0.64799 0.92081 0.0
C356 C 0.67901 0.57161 0.92913 0.0
O357 O 0.68261 0.54886 0.91905 0.0
O358 O 0.71005 0.60329 0.94841 0.0
C359 C 0.69964 0.65215 0.90927 0.0
O360 O 0.69429 0.6196 0.90397 0.0
C361 C 0.71372 0.54203 0.91357 0.0
O362 O 0.71892 0.57874 0.91155 0.0
O363 O 0.68569 0.59213 0.93634 0.0
C364 C 0.46986 0.37809 0.69632 0.0
O365 O 0.47363 0.37065 0.6844 0.0
O366 O 0.45516 0.444 0.67004 0.0
Zn367 Zn 0.45105 0.39305 0.68139 0.0
O368 O 0.45287 0.33683 0.67153 0.0
C369 C 0.42882 0.395 0.67661 0.0
O370 O 0.43262 0.39303 0.6645 0.0
O371 O 0.46013 0.3902 0.69764 0.0
C372 C 0.44975 0.30206 0.67717 0.0
O373 O 0.44569 0.3044 0.68915 0.0
C374 C 0.46056 0.43959 0.65945 0.0
O375 O 0.46384 0.40059 0.6559 0.0
O376 O 0.43542 0.39702 0.68619 0.0
C377 C 0.27564 0.38361 0.69728 0.0
O378 O 0.27279 0.39458 0.68523 0.0
O379 O 0.28894 0.29328 0.67433 0.0
Zn380 Zn 0.29351 0.34856 0.68329 0.0
O381 O 0.2923 0.39851 0.67059 0.0
C382 C 0.31555 0.31778 0.68405 0.0
O383 O 0.31192 0.28848 0.67569 0.0
O384 O 0.28426 0.36191 0.699 0.0
C385 C 0.29905 0.40391 0.6613 0.0
O386 O 0.3068 0.37525 0.65965 0.0
C387 C 0.28076 0.29201 0.66679 0.0
O388 O 0.27491 0.32731 0.66519 0.0
O389 O 0.30903 0.34542 0.6889 0.0
C390 C 0.4707 0.38673 0.04758 0.0
O391 O 0.47408 0.39035 0.05984 0.0
O392 O 0.45652 0.30857 0.07121 0.0
Zn393 Zn 0.45181 0.36155 0.06107 0.0
O394 O 0.45244 0.4146 0.0726 0.0
C395 C 0.42961 0.34983 0.0647 0.0
O396 O 0.43312 0.34636 0.07691 0.0
O397 O 0.46124 0.37259 0.04544 0.0
C398 C 0.44939 0.45065 0.06768 0.0
O399 O 0.44605 0.45167 0.05537 0.0
C400 C 0.46197 0.31192 0.08179 0.0
O401 O 0.46493 0.35073 0.08591 0.0
O402 O 0.43641 0.35516 0.05547 0.0
C403 C 0.27595 0.34335 0.05351 0.0
O404 O 0.27287 0.34143 0.06591 0.0
O405 O 0.28941 0.43067 0.07429 0.0
Zn406 Zn 0.29488 0.37607 0.06559 0.0
O407 O 0.29516 0.32644 0.0785 0.0
C408 C 0.31642 0.41171 0.06351 0.0
O409 O 0.31303 0.43828 0.07281 0.0
O410 O 0.2852 0.35873 0.05078 0.0
C411 C 0.30177 0.32488 0.08807 0.0
O412 O 0.30862 0.35706 0.0898 0.0
C413 C 0.28424 0.4292 0.08513 0.0
O414 O 0.28226 0.39128 0.09064 0.0
O415 O 0.30994 0.38381 0.05873 0.0
H416 H 0.07096 0.11783 0.29156 0.0
H417 H 0.09017 0.13013 0.28757 0.0
H418 H 0.09794 0.05661 0.32264 0.0
H419 H 0.0788 0.04342 0.32656 0.0
H420 H 0.10363 0.17425 0.30381 0.0
H421 H 0.11916 0.00705 0.29626 0.0
H422 H 0.10495 0.0199 0.29557 0.0
H423 H 0.11153 0.01172 0.31125 0.0
C424 C 0.07676 0.1036 0.2983 0.0
C425 C 0.07335 0.07967 0.30939 0.0
C426 C 0.08773 0.11072 0.296 0.0
C427 C 0.09549 0.09389 0.30472 0.0
C428 C 0.09211 0.06907 0.31561 0.0
H429 H 0.15772 0.18803 0.32637 0.0
H430 H 0.1385 0.17445 0.32315 0.0
C431 C 0.08115 0.06177 0.31789 0.0
C432 C 0.10701 0.10536 0.30313 0.0
H433 H 0.13228 0.06154 0.30209 0.0
C434 C 0.1099 0.14962 0.30324 0.0
C435 C 0.11516 0.07326 0.30219 0.0
C436 C 0.11254 0.02535 0.30117 0.0
C437 C 0.12074 0.16259 0.30304 0.0
C438 C 0.1289 0.13039 0.30301 0.0
C439 C 0.12601 0.0862 0.30227 0.0
C440 C 0.14046 0.14159 0.30437 0.0
C441 C 0.12334 0.21063 0.30294 0.0
C442 C 0.14796 0.12722 0.29495 0.0
C443 C 0.15898 0.13456 0.29683 0.0
C444 C 0.16269 0.15625 0.3082 0.0
C445 C 0.15513 0.17148 0.31747 0.0
C446 C 0.14413 0.16396 0.31561 0.0
H447 H 0.1166 0.23002 0.29872 0.0
H448 H 0.12465 0.22187 0.31323 0.0
H449 H 0.13077 0.21741 0.29715 0.0
H450 H 0.1453 0.10971 0.28625 0.0
H451 H 0.16459 0.12239 0.2895 0.0
H452 H 0.16384 0.09371 0.90718 0.0
H453 H 0.14426 0.09848 0.9093 0.0
H454 H 0.14742 0.1143 0.95147 0.0
H455 H 0.16708 0.11004 0.94945 0.0
H456 H 0.12988 0.047 0.92433 0.0
H457 H 0.12951 0.22116 0.93965 0.0
H458 H 0.14122 0.19552 0.93242 0.0
H459 H 0.13784 0.18561 0.94941 0.0
C460 C 0.16039 0.09804 0.91692 0.0
C461 C 0.16701 0.10181 0.92814 0.0
C462 C 0.1492 0.10071 0.91811 0.0
C463 C 0.14444 0.10737 0.93051 0.0
C464 C 0.15098 0.10991 0.94179 0.0
H465 H 0.07507 0.08367 0.94384 0.0
H466 H 0.09466 0.0772 0.94593 0.0
C467 C 0.16219 0.10722 0.94062 0.0
C468 C 0.13261 0.11211 0.9315 0.0
H469 H 0.11269 0.18519 0.9387 0.0
C470 C 0.1261 0.07707 0.92755 0.0
C471 C 0.12776 0.15163 0.93556 0.0
C472 C 0.13441 0.19084 0.93941 0.0
C473 C 0.11483 0.08058 0.92745 0.0
C474 C 0.10997 0.11998 0.93161 0.0
C475 C 0.11647 0.15495 0.93564 0.0
C476 C 0.09816 0.12619 0.93117 0.0
C477 C 0.10822 0.04261 0.9225 0.0
C478 C 0.09369 0.15701 0.92252 0.0
C479 C 0.08251 0.16099 0.92134 0.0
C480 C 0.07563 0.13424 0.92883 0.0
C481 C 0.08015 0.10453 0.93785 0.0
C482 C 0.09133 0.10063 0.93903 0.0
H483 H 0.11322 0.01853 0.91706 0.0
H484 H 0.10447 0.02573 0.93104 0.0
H485 H 0.10165 0.05402 0.91589 0.0
H486 H 0.09886 0.17717 0.91642 0.0
H487 H 0.07929 0.1843 0.91434 0.0
H488 H 0.90814 0.93587 0.66896 0.0
H489 H 0.88863 0.92764 0.67109 0.0
H490 H 0.89324 0.82437 0.69945 0.0
H491 H 0.91281 0.83201 0.69729 0.0
H492 H 0.87942 0.8021 0.67908 0.0
H493 H 0.86779 0.96115 0.70069 0.0
H494 H 0.87612 0.96663 0.68628 0.0
H495 H 0.8815 0.94124 0.70089 0.0
C496 C 0.90502 0.91182 0.6758 0.0
C497 C 0.91203 0.88454 0.68293 0.0
C498 C 0.89386 0.90735 0.67706 0.0
C499 C 0.8895 0.87576 0.68555 0.0
C500 C 0.89646 0.84912 0.69291 0.0
H501 H 0.8194 0.85952 0.69596 0.0
H502 H 0.83875 0.86085 0.70082 0.0
C503 C 0.90763 0.85358 0.69166 0.0
C504 C 0.87772 0.86831 0.68586 0.0
H505 H 0.85363 0.92001 0.69035 0.0
C506 C 0.87378 0.82765 0.68172 0.0
C507 C 0.87038 0.90149 0.68949 0.0
C508 C 0.87415 0.94494 0.69471 0.0
C509 C 0.86267 0.82 0.68049 0.0
C510 C 0.85536 0.85411 0.6833 0.0
C511 C 0.85927 0.89404 0.68807 0.0
C512 C 0.84368 0.84999 0.68058 0.0
C513 C 0.85887 0.77565 0.67604 0.0
C514 C 0.84007 0.8434 0.6676 0.0
C515 C 0.82905 0.84265 0.66478 0.0
C516 C 0.82143 0.84872 0.6749 0.0
C517 C 0.82507 0.85459 0.68795 0.0
C518 C 0.83611 0.85544 0.69075 0.0
H519 H 0.86499 0.7501 0.67813 0.0
H520 H 0.85119 0.76652 0.68096 0.0
H521 H 0.85747 0.77626 0.66521 0.0
H522 H 0.84578 0.83999 0.65957 0.0
H523 H 0.82652 0.83821 0.65462 0.0
H524 H 0.91021 0.83391 0.07975 0.0
H525 H 0.89131 0.83603 0.07321 0.0
H526 H 0.90036 0.88404 0.0347 0.0
H527 H 0.91937 0.88275 0.04126 0.0
H528 H 0.88505 0.93416 0.04619 0.0
H529 H 0.87276 0.76158 0.04938 0.0
H530 H 0.87949 0.77841 0.0642 0.0
H531 H 0.88675 0.77804 0.04877 0.0
C532 C 0.90822 0.84421 0.0698 0.0
C533 C 0.91629 0.85836 0.06105 0.0
C534 C 0.8974 0.84506 0.06604 0.0
C535 C 0.89444 0.85959 0.0534 0.0
C536 C 0.90249 0.87242 0.04447 0.0
H537 H 0.82446 0.85606 0.04051 0.0
H538 H 0.84366 0.8475 0.03553 0.0
C539 C 0.91334 0.87163 0.04824 0.0
C540 C 0.88289 0.86568 0.05018 0.0
H541 H 0.85849 0.81495 0.05231 0.0
C542 C 0.87925 0.90791 0.04723 0.0
C543 C 0.87534 0.83132 0.05129 0.0
C544 C 0.87881 0.78472 0.05344 0.0
C545 C 0.8682 0.91728 0.04635 0.0
C546 C 0.86064 0.88371 0.04874 0.0
C547 C 0.86429 0.84087 0.05068 0.0
C548 C 0.849 0.89283 0.05054 0.0
C549 C 0.86475 0.96327 0.04318 0.0
C550 C 0.84565 0.92141 0.06056 0.0
C551 C 0.83471 0.92647 0.06341 0.0
C552 C 0.82691 0.90262 0.05639 0.0
C553 C 0.83027 0.8749 0.0461 0.0
C554 C 0.84123 0.86995 0.04324 0.0
H555 H 0.87094 0.98028 0.03714 0.0
H556 H 0.85696 0.96383 0.03777 0.0
H557 H 0.86378 0.98179 0.05252 0.0
H558 H 0.85151 0.93856 0.06655 0.0
H559 H 0.8324 0.94793 0.07142 0.0
H560 H 0.0756 0.60116 0.7899 0.0
H561 H 0.09489 0.61236 0.7861 0.0
H562 H 0.10199 0.55039 0.82337 0.0
H563 H 0.08281 0.53806 0.82707 0.0
H564 H 0.10811 0.6612 0.8007 0.0
H565 H 0.12377 0.49271 0.79977 0.0
H566 H 0.10957 0.50483 0.79837 0.0
H567 H 0.11593 0.50229 0.81436 0.0
C568 C 0.08128 0.5892 0.79717 0.0
C569 C 0.07767 0.56869 0.80879 0.0
C570 C 0.0923 0.59567 0.79499 0.0
C571 C 0.09989 0.58169 0.80436 0.0
C572 C 0.09631 0.56043 0.81583 0.0
H573 H 0.16065 0.68581 0.82677 0.0
H574 H 0.14168 0.67148 0.82204 0.0
C575 C 0.08532 0.55366 0.81798 0.0
C576 C 0.11146 0.59258 0.80279 0.0
H577 H 0.1367 0.54903 0.80502 0.0
C578 C 0.11437 0.63659 0.80142 0.0
C579 C 0.11963 0.56046 0.80348 0.0
C580 C 0.11706 0.51241 0.80392 0.0
C581 C 0.12522 0.64955 0.80144 0.0
C582 C 0.13335 0.61774 0.80322 0.0
C583 C 0.13046 0.57352 0.80385 0.0
C584 C 0.14482 0.62957 0.80525 0.0
C585 C 0.12784 0.69722 0.79966 0.0
C586 C 0.15291 0.61036 0.7975 0.0
C587 C 0.16378 0.61797 0.80032 0.0
C588 C 0.16675 0.64496 0.81095 0.0
C589 C 0.15863 0.66515 0.81845 0.0
C590 C 0.14777 0.65721 0.8157 0.0
H591 H 0.12144 0.71414 0.79392 0.0
H592 H 0.12832 0.71307 0.80949 0.0
H593 H 0.13567 0.70178 0.79452 0.0
H594 H 0.15081 0.58876 0.78943 0.0
H595 H 0.16985 0.60198 0.79434 0.0
H596 H 0.08078 0.59648 0.42349 0.0
H597 H 0.10042 0.59552 0.42317 0.0
H598 H 0.10121 0.68095 0.45699 0.0
H599 H 0.08142 0.68183 0.45751 0.0
H600 H 0.11398 0.66951 0.4204 0.0
H601 H 0.12161 0.57887 0.46719 0.0
H602 H 0.10863 0.57859 0.4591 0.0
H603 H 0.11294 0.62579 0.46814 0.0
C604 C 0.08509 0.61498 0.43092 0.0
C605 C 0.07953 0.63925 0.44054 0.0
C606 C 0.09632 0.61436 0.43071 0.0
C607 C 0.10224 0.63784 0.44012 0.0
C608 C 0.09676 0.66209 0.44977 0.0
H609 H 0.1728 0.6527 0.44478 0.0
H610 H 0.15357 0.66306 0.44944 0.0
C611 C 0.08547 0.66272 0.45001 0.0
C612 C 0.11414 0.63766 0.43936 0.0
H613 H 0.1368 0.59937 0.45463 0.0
C614 C 0.11899 0.65449 0.42793 0.0
C615 C 0.12061 0.61826 0.44925 0.0
C616 C 0.11573 0.59904 0.4616 0.0
C617 C 0.13014 0.6515 0.42595 0.0
C618 C 0.13656 0.63051 0.43557 0.0
C619 C 0.1318 0.61519 0.44726 0.0
C620 C 0.14816 0.62238 0.4333 0.0
C621 C 0.13495 0.6705 0.41352 0.0
C622 C 0.15142 0.59519 0.4229 0.0
C623 C 0.16235 0.58918 0.42021 0.0
C624 C 0.17022 0.61016 0.42792 0.0
C625 C 0.16693 0.63624 0.43863 0.0
C626 C 0.15596 0.64219 0.44131 0.0
H627 H 0.12954 0.69525 0.40899 0.0
H628 H 0.14289 0.68583 0.41556 0.0
H629 H 0.13619 0.64404 0.4062 0.0
H630 H 0.14548 0.57901 0.41676 0.0
H631 H 0.16461 0.56865 0.41196 0.0
H632 H 0.92141 0.40128 0.20138 0.0
H633 H 0.9022 0.38651 0.20459 0.0
H634 H 0.89529 0.44119 0.16625 0.0
H635 H 0.91442 0.45697 0.16306 0.0
H636 H 0.88049 0.46553 0.18509 0.0
H637 H 0.88708 0.28631 0.18571 0.0
H638 H 0.8945 0.31606 0.19799 0.0
H639 H 0.89743 0.32428 0.18078 0.0
C640 C 0.91579 0.4106 0.19369 0.0
C641 C 0.91945 0.42991 0.1819 0.0
C642 C 0.90483 0.40187 0.19551 0.0
C643 C 0.89737 0.41186 0.18553 0.0
C644 C 0.90094 0.43297 0.17404 0.0
H645 H 0.8354 0.30829 0.16617 0.0
H646 H 0.85454 0.32507 0.16883 0.0
C647 C 0.91187 0.44197 0.17223 0.0
C648 C 0.88591 0.39913 0.18678 0.0
H649 H 0.86923 0.31082 0.18888 0.0
C650 C 0.87801 0.43176 0.18601 0.0
C651 C 0.88273 0.35493 0.1878 0.0
C652 C 0.89085 0.31827 0.188 0.0
C653 C 0.86699 0.42139 0.18605 0.0
C654 C 0.86381 0.37723 0.1872 0.0
C655 C 0.87171 0.34464 0.18814 0.0
C656 C 0.85235 0.36402 0.18646 0.0
C657 C 0.85887 0.45764 0.18433 0.0
C658 C 0.84484 0.37917 0.19575 0.0
C659 C 0.83388 0.36986 0.19422 0.0
C660 C 0.83027 0.34486 0.18343 0.0
C661 C 0.8379 0.32776 0.17456 0.0
C662 C 0.84884 0.33731 0.17606 0.0
H663 H 0.86267 0.48798 0.18056 0.0
H664 H 0.85237 0.44782 0.1774 0.0
H665 H 0.85512 0.46512 0.19403 0.0
H666 H 0.84743 0.39899 0.20402 0.0
H667 H 0.82821 0.38316 0.2013 0.0
H668 H 0.92099 0.35976 0.58909 0.0
H669 H 0.90186 0.37077 0.58448 0.0
H670 H 0.90783 0.35569 0.54278 0.0
H671 H 0.92711 0.34476 0.54725 0.0
H672 H 0.8939 0.44137 0.56453 0.0
H673 H 0.88171 0.26942 0.55456 0.0
H674 H 0.89314 0.28198 0.56497 0.0
H675 H 0.894 0.29063 0.54749 0.0
C676 C 0.91826 0.3584 0.57893 0.0
C677 C 0.92557 0.35143 0.56853 0.0
C678 C 0.90734 0.3648 0.57633 0.0
C679 C 0.90351 0.36399 0.56332 0.0
C680 C 0.91069 0.35622 0.55289 0.0
H681 H 0.8346 0.37829 0.54419 0.0
H682 H 0.85417 0.37338 0.54123 0.0
C683 C 0.92167 0.35 0.55547 0.0
C684 C 0.892 0.37272 0.5608 0.0
H685 H 0.86792 0.3219 0.55563 0.0
C686 C 0.88821 0.41543 0.56241 0.0
C687 C 0.88469 0.3388 0.5579 0.0
C688 C 0.8885 0.29248 0.55613 0.0
C689 C 0.87717 0.42493 0.56164 0.0
C690 C 0.86976 0.39055 0.55954 0.0
C691 C 0.87362 0.34815 0.55729 0.0
C692 C 0.85799 0.39709 0.56081 0.0
C693 C 0.87354 0.47156 0.56326 0.0
C694 C 0.85367 0.41208 0.57279 0.0
C695 C 0.84254 0.41502 0.57451 0.0
C696 C 0.83549 0.40257 0.56432 0.0
C697 C 0.83982 0.38821 0.55223 0.0
C698 C 0.85099 0.38534 0.55051 0.0
H699 H 0.87999 0.49474 0.56029 0.0
H700 H 0.8662 0.47841 0.55732 0.0
H701 H 0.87165 0.47769 0.57382 0.0
H702 H 0.85892 0.4203 0.58098 0.0
H703 H 0.83947 0.42601 0.58396 0.0
H704 H 0.66482 0.09254 0.8241 0.0
H705 H 0.64521 0.08752 0.82395 0.0
H706 H 0.64445 0.13898 0.7843 0.0
H707 H 0.6642 0.14355 0.78425 0.0
H708 H 0.63071 0.1559 0.82056 0.0
H709 H 0.62554 0.02906 0.78175 0.0
H710 H 0.63834 0.03929 0.78969 0.0
H711 H 0.63345 0.07578 0.77717 0.0
C712 C 0.66052 0.10268 0.8153 0.0
C713 C 0.66608 0.11842 0.80417 0.0
C714 C 0.64931 0.09974 0.81524 0.0
C715 C 0.64341 0.11238 0.80407 0.0
C716 C 0.64889 0.12828 0.79293 0.0
H717 H 0.57342 0.12241 0.79436 0.0
H718 H 0.59288 0.12601 0.79035 0.0
C719 C 0.66016 0.13113 0.79296 0.0
C720 C 0.63149 0.11023 0.80443 0.0
H721 H 0.60965 0.05861 0.79107 0.0
C722 C 0.6261 0.13473 0.81409 0.0
C723 C 0.62553 0.08272 0.79592 0.0
C724 C 0.63098 0.0549 0.7856 0.0
C725 C 0.61489 0.13208 0.81559 0.0
C726 C 0.60896 0.1037 0.80733 0.0
C727 C 0.61428 0.0801 0.79741 0.0
C728 C 0.59724 0.09756 0.80915 0.0
C729 C 0.60948 0.1597 0.826 0.0
C730 C 0.5933 0.07905 0.82087 0.0
C731 C 0.58222 0.07692 0.8232 0.0
C732 C 0.57489 0.09317 0.81382 0.0
C733 C 0.57886 0.10977 0.8018 0.0
C734 C 0.58996 0.11186 0.79948 0.0
H735 H 0.6147 0.18716 0.82922 0.0
H736 H 0.60173 0.17315 0.82229 0.0
H737 H 0.60771 0.13922 0.83477 0.0
H738 H 0.59883 0.06721 0.82835 0.0
H739 H 0.57943 0.06365 0.83251 0.0
H740 H 0.67298 0.16847 0.44311 0.0
H741 H 0.65346 0.17394 0.44549 0.0
H742 H 0.65054 0.03486 0.44041 0.0
H743 H 0.67013 0.02904 0.43783 0.0
H744 H 0.63766 0.08189 0.42351 0.0
H745 H 0.63244 0.1411 0.47482 0.0
H746 H 0.64192 0.17294 0.46553 0.0
H747 H 0.64483 0.11667 0.46904 0.0
C748 C 0.66822 0.13888 0.44271 0.0
C749 C 0.6731 0.09831 0.44021 0.0
C750 C 0.65706 0.14206 0.44418 0.0
C751 C 0.65058 0.10475 0.44329 0.0
C752 C 0.65544 0.064 0.44122 0.0
H753 H 0.58048 0.10477 0.45181 0.0
H754 H 0.59977 0.09172 0.45507 0.0
C755 C 0.66662 0.06074 0.43975 0.0
C756 C 0.6387 0.10912 0.44309 0.0
H757 H 0.61732 0.15063 0.46024 0.0
C758 C 0.63319 0.09642 0.43161 0.0
C759 C 0.63289 0.12781 0.4537 0.0
C760 C 0.6383 0.14002 0.46652 0.0
C761 C 0.62208 0.10334 0.43025 0.0
C762 C 0.61637 0.12412 0.44057 0.0
C763 C 0.62177 0.13531 0.45227 0.0
C764 C 0.6048 0.13465 0.43928 0.0
C765 C 0.61654 0.08846 0.41776 0.0
C766 C 0.6013 0.16408 0.42957 0.0
C767 C 0.5903 0.17164 0.42767 0.0
C768 C 0.58262 0.14995 0.43549 0.0
C769 C 0.58619 0.12183 0.44558 0.0
C770 C 0.5972 0.11434 0.44747 0.0
H771 H 0.62139 0.06372 0.41238 0.0
H772 H 0.60848 0.07443 0.41997 0.0
H773 H 0.61538 0.11685 0.41111 0.0
H774 H 0.60708 0.18062 0.42331 0.0
H775 H 0.58783 0.19369 0.41988 0.0
H776 H 0.32428 0.85377 0.20038 0.0
H777 H 0.34382 0.85901 0.20354 0.0
H778 H 0.3488 0.82804 0.16242 0.0
H779 H 0.32935 0.82206 0.1592 0.0
H780 H 0.36325 0.78597 0.17952 0.0
H781 H 0.36079 0.96424 0.18926 0.0
H782 H 0.35279 0.93017 0.19987 0.0
H783 H 0.34963 0.93359 0.18258 0.0
C784 C 0.32954 0.84753 0.19205 0.0
C785 C 0.32527 0.83794 0.1795 0.0
C786 C 0.34069 0.85079 0.19386 0.0
C787 C 0.34771 0.84472 0.18315 0.0
C788 C 0.34349 0.83307 0.17079 0.0
H789 H 0.41077 0.93474 0.16422 0.0
H790 H 0.39148 0.92219 0.1674 0.0
C791 C 0.33237 0.82973 0.16897 0.0
C792 C 0.35943 0.85235 0.18454 0.0
H793 H 0.37808 0.9326 0.18943 0.0
C794 C 0.36652 0.81788 0.18182 0.0
C795 C 0.36362 0.89422 0.18738 0.0
C796 C 0.35634 0.93286 0.18984 0.0
C797 C 0.37772 0.82432 0.18161 0.0
C798 C 0.3819 0.86621 0.18442 0.0
C799 C 0.37482 0.90049 0.18739 0.0
C800 C 0.39356 0.87586 0.18332 0.0
C801 C 0.38494 0.78672 0.17782 0.0
C802 C 0.40108 0.8548 0.19147 0.0
C803 C 0.41211 0.86176 0.18965 0.0
C804 C 0.41579 0.89014 0.1797 0.0
C805 C 0.4082 0.91257 0.17194 0.0
C806 C 0.39718 0.90548 0.17375 0.0
H807 H 0.38034 0.75949 0.17328 0.0
H808 H 0.39126 0.79747 0.17076 0.0
H809 H 0.38902 0.77407 0.1868 0.0
H810 H 0.39841 0.83248 0.1991 0.0
H811 H 0.41775 0.84424 0.19587 0.0
H812 H 0.32715 0.95455 0.5427 0.0
H813 H 0.34679 0.95196 0.53977 0.0
H814 H 0.34775 0.82722 0.55939 0.0
H815 H 0.32827 0.82916 0.5622 0.0
H816 H 0.36179 0.94786 0.55991 0.0
H817 H 0.36634 0.80514 0.52701 0.0
H818 H 0.35362 0.8329 0.52923 0.0
H819 H 0.35809 0.7931 0.54111 0.0
C820 C 0.33154 0.92632 0.54622 0.0
C821 C 0.32615 0.89207 0.55268 0.0
C822 C 0.34274 0.9249 0.54453 0.0
C823 C 0.34868 0.88904 0.54915 0.0
C824 C 0.34329 0.85466 0.55544 0.0
H825 H 0.41142 0.81033 0.57127 0.0
H826 H 0.39237 0.81908 0.5656 0.0
C827 C 0.33215 0.85604 0.55714 0.0
C828 C 0.3606 0.88878 0.54851 0.0
H829 H 0.38202 0.82498 0.53984 0.0
C830 C 0.36625 0.92153 0.55528 0.0
C831 C 0.36637 0.85437 0.54247 0.0
C832 C 0.36079 0.81964 0.53443 0.0
C833 C 0.37747 0.91935 0.55687 0.0
C834 C 0.38317 0.88376 0.55138 0.0
C835 C 0.37759 0.85206 0.5441 0.0
C836 C 0.39479 0.87731 0.55392 0.0
C837 C 0.38309 0.95385 0.56498 0.0
C838 C 0.40244 0.90672 0.54898 0.0
C839 C 0.41334 0.90187 0.55221 0.0
C840 C 0.41674 0.86744 0.56041 0.0
C841 C 0.40906 0.83728 0.56498 0.0
C842 C 0.39819 0.84215 0.56174 0.0
H843 H 0.37728 0.97495 0.57038 0.0
H844 H 0.38864 0.93861 0.57225 0.0
H845 H 0.38797 0.97486 0.55836 0.0
H846 H 0.39997 0.93371 0.54278 0.0
H847 H 0.41905 0.92551 0.54845 0.0
H848 H 0.66229 0.70804 0.32554 0.0
H849 H 0.64296 0.6949 0.32328 0.0
H850 H 0.64879 0.61758 0.2884 0.0
H851 H 0.6682 0.62952 0.29081 0.0
H852 H 0.6282 0.71096 0.30399 0.0
H853 H 0.63275 0.53266 0.31196 0.0
H854 H 0.64365 0.57055 0.31465 0.0
H855 H 0.64021 0.55369 0.29816 0.0
C856 C 0.65947 0.68857 0.31731 0.0
C857 C 0.66679 0.66934 0.30845 0.0
C858 C 0.64841 0.6811 0.31603 0.0
C859 C 0.64447 0.65448 0.30585 0.0
C860 C 0.6517 0.63728 0.29654 0.0
H861 H 0.57458 0.6312 0.29358 0.0
H862 H 0.59381 0.64357 0.28964 0.0
C863 C 0.66278 0.64438 0.29788 0.0
C864 C 0.63285 0.64351 0.30538 0.0
H865 H 0.61517 0.55858 0.30783 0.0
C866 C 0.62533 0.67764 0.30475 0.0
C867 C 0.62916 0.60001 0.30654 0.0
C868 C 0.63684 0.56211 0.30799 0.0
C869 C 0.61421 0.66957 0.30547 0.0
C870 C 0.61052 0.62603 0.30651 0.0
C871 C 0.61804 0.59186 0.30691 0.0
C872 C 0.59896 0.61547 0.30822 0.0
C873 C 0.60656 0.70785 0.3057 0.0
C874 C 0.59553 0.59372 0.31968 0.0
C875 C 0.58458 0.58599 0.32186 0.0
C876 C 0.57685 0.60006 0.31264 0.0
C877 C 0.58033 0.62037 0.30093 0.0
C878 C 0.59131 0.62773 0.2987 0.0
H879 H 0.61078 0.73885 0.30803 0.0
H880 H 0.60276 0.71139 0.29583 0.0
H881 H 0.60006 0.70281 0.31309 0.0
H882 H 0.60131 0.58377 0.32712 0.0
H883 H 0.58217 0.57021 0.33096 0.0
H884 H 0.66254 0.53705 0.91455 0.0
H885 H 0.64333 0.55417 0.91625 0.0
H886 H 0.64972 0.63728 0.9497 0.0
H887 H 0.66897 0.62073 0.94804 0.0
H888 H 0.62845 0.5452 0.93766 0.0
H889 H 0.63458 0.71778 0.92252 0.0
H890 H 0.6448 0.6765 0.92033 0.0
H891 H 0.64247 0.69968 0.93637 0.0
C892 C 0.65986 0.55865 0.92235 0.0
C893 C 0.6673 0.57787 0.93107 0.0
C894 C 0.64888 0.56836 0.9233 0.0
C895 C 0.64517 0.59753 0.93295 0.0
C896 C 0.65248 0.61529 0.94204 0.0
H897 H 0.57668 0.64375 0.94855 0.0
H898 H 0.59603 0.63108 0.95149 0.0
C899 C 0.66346 0.60559 0.94111 0.0
C900 C 0.63368 0.61041 0.93317 0.0
H901 H 0.6168 0.69653 0.92778 0.0
C902 C 0.62588 0.57831 0.9356 0.0
C903 C 0.63041 0.65357 0.93031 0.0
C904 C 0.63847 0.68891 0.92712 0.0
C905 C 0.61484 0.58818 0.93517 0.0
C906 C 0.61157 0.6314 0.93239 0.0
C907 C 0.61937 0.66356 0.93004 0.0
C908 C 0.60006 0.64312 0.93102 0.0
C909 C 0.60675 0.55205 0.93725 0.0
C910 C 0.59604 0.6558 0.91865 0.0
C911 C 0.58502 0.66325 0.91694 0.0
C912 C 0.57785 0.6583 0.92759 0.0
C913 C 0.58199 0.64764 0.94013 0.0
C914 C 0.59302 0.64013 0.94182 0.0
H915 H 0.61056 0.5193 0.9367 0.0
H916 H 0.60303 0.55561 0.94716 0.0
H917 H 0.60021 0.55385 0.92977 0.0
H918 H 0.60138 0.65849 0.91022 0.0
H919 H 0.5821 0.6716 0.90718 0.0
H920 H 0.32573 0.37718 0.69988 0.0
H921 H 0.34512 0.39105 0.70136 0.0
H922 H 0.35124 0.28431 0.67468 0.0
H923 H 0.33189 0.26977 0.67323 0.0
H924 H 0.36586 0.28982 0.69641 0.0
H925 H 0.36108 0.44736 0.66979 0.0
H926 H 0.35301 0.44107 0.68442 0.0
H927 H 0.35055 0.40678 0.67035 0.0
C928 C 0.3312 0.35627 0.69445 0.0
C929 C 0.32726 0.32267 0.68631 0.0
C930 C 0.34227 0.36439 0.69527 0.0
C931 C 0.34955 0.3392 0.68794 0.0
C932 C 0.34571 0.30423 0.68036 0.0
H933 H 0.41278 0.38981 0.65825 0.0
H934 H 0.39357 0.37778 0.66215 0.0
C935 C 0.33465 0.29602 0.67953 0.0
C936 C 0.36113 0.35062 0.68754 0.0
H937 H 0.37864 0.42855 0.67663 0.0
C938 C 0.36868 0.32025 0.69219 0.0
C939 C 0.36473 0.39017 0.68186 0.0
C940 C 0.35695 0.42316 0.67621 0.0
C941 C 0.3798 0.32825 0.69121 0.0
C942 C 0.38339 0.36787 0.68557 0.0
C943 C 0.37583 0.3984 0.68105 0.0
C944 C 0.39496 0.377 0.68346 0.0
C945 C 0.38762 0.29367 0.69577 0.0
C946 C 0.40205 0.38145 0.69418 0.0
C947 C 0.41305 0.38836 0.69199 0.0
C948 C 0.41711 0.39103 0.67904 0.0
C949 C 0.40992 0.38778 0.66835 0.0
C950 C 0.39894 0.38092 0.67055 0.0
H951 H 0.38358 0.26181 0.69743 0.0
H952 H 0.39418 0.28913 0.68843 0.0
H953 H 0.39135 0.30408 0.70523 0.0
H954 H 0.39908 0.37926 0.70422 0.0
H955 H 0.41838 0.39088 0.70044 0.0
H956 H 0.33302 0.45823 0.07435 0.0
H957 H 0.35229 0.44798 0.07048 0.0
H958 H 0.34528 0.35118 0.04079 0.0
H959 H 0.32598 0.36068 0.04473 0.0
H960 H 0.3593 0.32178 0.05945 0.0
H961 H 0.37275 0.48258 0.04091 0.0
H962 H 0.36515 0.48679 0.05594 0.0
H963 H 0.35873 0.46661 0.04121 0.0
C964 C 0.33556 0.43536 0.06681 0.0
C965 C 0.32797 0.41009 0.0599 0.0
C966 C 0.34658 0.42974 0.06455 0.0
C967 C 0.35021 0.39915 0.05525 0.0
C968 C 0.34264 0.37509 0.04797 0.0
H969 H 0.41959 0.36686 0.04113 0.0
H970 H 0.4002 0.37517 0.0372 0.0
C971 C 0.33162 0.38058 0.05025 0.0
C972 C 0.36185 0.38905 0.05415 0.0
H973 H 0.38657 0.43566 0.04972 0.0
C974 C 0.36525 0.34652 0.05712 0.0
C975 C 0.36959 0.4212 0.05096 0.0
C976 C 0.36637 0.46674 0.04694 0.0
C977 C 0.37623 0.3358 0.05761 0.0
C978 C 0.38398 0.36866 0.05527 0.0
C979 C 0.38059 0.41064 0.05165 0.0
C980 C 0.39563 0.36087 0.05736 0.0
C981 C 0.37944 0.28953 0.06079 0.0
C982 C 0.39943 0.35006 0.06999 0.0
C983 C 0.41047 0.3453 0.07228 0.0
C984 C 0.41791 0.3515 0.06197 0.0
C985 C 0.41406 0.36169 0.04926 0.0
C986 C 0.403 0.36656 0.047 0.0
H987 H 0.37287 0.2662 0.05841 0.0
H988 H 0.38681 0.27984 0.05529 0.0
H989 H 0.38116 0.28689 0.07153 0.0
H990 H 0.39388 0.34634 0.07818 0.0
H991 H 0.41316 0.33761 0.08219 0.0
H992 H 0.00162 0.17573 0.30131 0.0
H993 H 0.99222 0.21481 0.28368 0.0
H994 H 0.01569 0.16905 0.25545 0.0
H995 H 0.0251 0.12957 0.27295 0.0
H996 H 0.00209 0.28104 0.26856 0.0
H997 H 0.9867 0.14716 0.23684 0.0
H998 H 0.99085 0.13865 0.25375 0.0
H999 H 0.00077 0.14291 0.24087 0.0
C1000 C 0.00467 0.17328 0.29131 0.0
C1001 C 0.01413 0.14969 0.28853 0.0
C1002 C -0.0007 0.1957 0.28127 0.0
C1003 C 0.00323 0.19453 0.26829 0.0
C1004 C 0.01244 0.16975 0.26539 0.0
H1005 H 0.98916 0.32305 0.19468 0.0
H1006 H 0.99718 0.28226 0.21294 0.0
C1007 C 0.01783 0.14738 0.27541 0.0
C1008 C -0.00173 0.22208 0.258 0.0
H1009 H 0.98627 0.21864 0.2277 0.0
C1010 C -0.00146 0.26748 0.25967 0.0
C1011 C 0.99371 0.20412 0.24642 0.0
C1012 C 0.99288 0.15552 0.24437 0.0
C1013 C 0.9946 0.29559 0.24987 0.0
C1014 C 0.99013 0.27764 0.23824 0.0
C1015 C 0.98976 0.23222 0.23663 0.0
C1016 C 0.98579 0.30531 0.22755 0.0
C1017 C 0.99551 0.34419 0.25189 0.0
C1018 C 0.97683 0.33218 0.2298 0.0
C1019 C 0.97225 0.35571 0.2194 0.0
C1020 C 0.97651 0.35237 0.20657 0.0
C1021 C 0.98568 0.32631 0.20444 0.0
C1022 C 0.99026 0.3029 0.21485 0.0
H1023 H 0.00148 0.35246 0.25969 0.0
H1024 H -0.0021 0.36075 0.24258 0.0
H1025 H 0.98756 0.35728 0.25497 0.0
H1026 H 0.97317 0.3339 0.2395 0.0
H1027 H 0.96516 0.37532 0.22135 0.0
H1028 H 0.23751 0.11357 0.29268 0.0
H1029 H 0.2478 0.07953 0.27487 0.0
H1030 H 0.2197 0.08259 0.24977 0.0
H1031 H 0.20932 0.1168 0.26749 0.0
H1032 H 0.24093 0.99707 0.26426 0.0
H1033 H 0.24475 0.12484 0.22557 0.0
H1034 H 0.24204 0.13755 0.24269 0.0
H1035 H 0.23145 0.1172 0.23227 0.0
C1036 C 0.23356 0.10788 0.28329 0.0
C1037 C 0.22257 0.11752 0.28153 0.0
C1038 C 0.23946 0.08842 0.27314 0.0
C1039 C 0.2345 0.07876 0.26104 0.0
C1040 C 0.22369 0.09037 0.259 0.0
H1041 H 0.25357 0.9336 0.19149 0.0
H1042 H 0.24381 0.97556 0.20821 0.0
C1043 C 0.21777 0.10973 0.26916 0.0
C1044 C 0.24027 0.05227 0.25115 0.0
H1045 H 0.24999 0.05311 0.21964 0.0
C1046 C 0.24299 0.00932 0.25452 0.0
C1047 C 0.24278 0.06839 0.23845 0.0
C1048 C 0.24019 0.11463 0.2345 0.0
C1049 C 0.24806 0.98166 0.24544 0.0
C1050 C 0.2507 0.99785 0.23277 0.0
C1051 C 0.24795 0.04085 0.22938 0.0
C1052 C 0.25642 0.97085 0.22292 0.0
C1053 C 0.25032 0.9351 0.24941 0.0
C1054 C 0.26672 0.95427 0.22571 0.0
C1055 C 0.27226 0.92997 0.21624 0.0
C1056 C 0.26766 0.92237 0.20376 0.0
C1057 C 0.25731 0.93882 0.20103 0.0
C1058 C 0.25174 0.9629 0.21054 0.0
H1059 H 0.24511 0.92458 0.25775 0.0
H1060 H 0.24906 0.91247 0.24099 0.0
H1061 H 0.25884 0.9323 0.25266 0.0
H1062 H 0.27056 0.96085 0.23511 0.0
H1063 H 0.28026 0.91812 0.21861 0.0
H1064 H 0.02501 0.03213 0.95884 0.0
H1065 H 0.01521 0.00537 0.97805 0.0
H1066 H 0.01703 0.13265 0.99599 0.0
H1067 H 0.02689 0.16011 0.97666 0.0
H1068 H 0.02205 0.00737 0.00555 0.0
H1069 H 0.98417 0.09932 0.99539 0.0
H1070 H 0.99434 0.09069 0.98289 0.0
H1071 H 0.99657 0.12979 0.99578 0.0
C1072 C 0.02334 0.05459 0.96684 0.0
C1073 C 0.02668 0.09835 0.9662 0.0
C1074 C 0.01777 0.03914 0.97782 0.0
C1075 C 0.01538 0.06713 0.98835 0.0
C1076 C 0.01876 0.11073 0.98787 0.0
H1077 H 0.98699 0.97174 0.06219 0.0
H1078 H -0.00102 0.00752 0.04634 0.0
C1079 C 0.02439 0.12628 0.97686 0.0
C1080 C 0.00916 0.05018 -0.00035 0.0
H1081 H 0.98414 0.05179 0.01362 0.0
C1082 C 0.0138 0.01735 0.00746 0.0
C1083 C -0.00161 0.06315 0.00193 0.0
C1084 C 0.99299 0.09748 0.99355 0.0
C1085 C 0.00784 0.99637 0.01736 0.0
C1086 C 0.99702 0.00893 0.01951 0.0
C1087 C 0.99246 0.04242 0.01191 0.0
C1088 C 0.99008 0.98615 0.02913 0.0
C1089 C 0.013 0.95984 0.02509 0.0
C1090 C 0.98113 0.96248 0.02465 0.0
C1091 C 0.97426 0.94208 0.03365 0.0
C1092 C 0.97622 0.94526 0.04729 0.0
C1093 C 0.98529 0.96854 0.05174 0.0
C1094 C 0.99216 0.98893 0.04271 0.0
H1095 H 0.02071 0.94892 0.02059 0.0
H1096 H 0.01471 0.97119 0.03529 0.0
H1097 H 0.00746 0.93148 0.02577 0.0
H1098 H 0.97942 0.96004 0.01417 0.0
H1099 H 0.96734 0.92444 0.0299 0.0
H1100 H 0.23902 0.17058 0.94866 0.0
H1101 H 0.24842 0.20217 0.96757 0.0
H1102 H 0.22157 0.16958 0.99281 0.0
H1103 H 0.21201 0.13839 0.9739 0.0
H1104 H 0.22817 0.25598 0.99489 0.0
H1105 H 0.26303 0.14351 -0.00091 0.0
H1106 H 0.2612 0.16513 0.98276 0.0
H1107 H 0.25106 0.13011 0.98976 0.0
C1108 C 0.23516 0.16957 0.95826 0.0
C1109 C 0.22477 0.15202 0.95979 0.0
C1110 C 0.24057 0.18744 0.96907 0.0
C1111 C 0.23573 0.1877 0.98159 0.0
C1112 C 0.22545 0.16945 0.98321 0.0
H1113 H 0.25625 0.30418 0.05607 0.0
H1114 H 0.24591 0.26692 0.03885 0.0
C1115 C 0.22002 0.15161 0.97241 0.0
C1116 C 0.24111 0.20964 0.99277 0.0
H1117 H 0.26429 0.21067 0.01091 0.0
C1118 C 0.23601 0.24586 -0.00149 0.0
C1119 C 0.25134 0.19625 -0.00258 0.0
C1120 C 0.25694 0.15637 0.99203 0.0
C1121 C 0.24105 0.27 0.00852 0.0
C1122 C 0.25138 0.25713 0.01295 0.0
C1123 C 0.25639 0.22048 0.00739 0.0
C1124 C 0.25724 0.28167 0.02322 0.0
C1125 C 0.23547 0.30979 0.01399 0.0
C1126 C 0.26702 0.30212 0.02008 0.0
C1127 C 0.27295 0.32332 0.02986 0.0
C1128 C 0.26923 0.32412 0.04298 0.0
C1129 C 0.25932 0.30424 0.04605 0.0
C1130 C 0.25338 0.28307 0.03623 0.0
H1131 H 0.22863 0.32036 0.00766 0.0
H1132 H 0.23225 0.30221 0.02396 0.0
H1133 H 0.24123 0.33731 0.01499 0.0
H1134 H 0.27011 0.30125 0.01006 0.0
H1135 H 0.28055 0.3383 0.02718 0.0
H1136 H 0.98221 0.77086 0.69178 0.0
H1137 H 0.99224 0.73316 0.70913 0.0
H1138 H 0.96877 0.77469 0.73795 0.0
H1139 H 0.95859 0.81225 0.72063 0.0
H1140 H 0.00109 0.76883 0.73255 0.0
H1141 H 0.97047 0.64114 0.74305 0.0
H1142 H 0.9702 0.67396 0.72823 0.0
H1143 H 0.96554 0.69619 0.74363 0.0
C1144 C 0.97917 0.77203 0.70181 0.0
C1145 C 0.96958 0.79436 0.70483 0.0
C1146 C 0.98491 0.75045 0.71169 0.0
C1147 C 0.98113 0.7506 0.72474 0.0
C1148 C 0.97168 0.77353 0.72787 0.0
H1149 H 0.0047 0.6513 0.79888 0.0
H1150 H 0.99409 0.6821 0.78081 0.0
C1151 C 0.96593 0.7952 0.71798 0.0
C1152 C 0.98723 0.72747 0.73511 0.0
H1153 H 0.98555 0.64445 0.75746 0.0
C1154 C 0.99774 0.74148 0.73796 0.0
C1155 C 0.98278 0.69186 0.74211 0.0
C1156 C 0.97166 0.67454 0.73906 0.0
C1157 C 0.00387 0.72137 0.74786 0.0
C1158 C -0.00058 0.6858 0.75489 0.0
C1159 C 0.98892 0.67166 0.752 0.0
C1160 C 0.00544 0.66382 0.76555 0.0
C1161 C 0.01495 0.73906 0.75096 0.0
C1162 C 0.01516 0.64219 0.76286 0.0
C1163 C 0.02127 0.62463 0.77316 0.0
C1164 C 0.0177 0.62828 0.7863 0.0
C1165 C 0.0077 0.64816 0.78887 0.0
C1166 C 0.00162 0.66575 0.77857 0.0
H1167 H 0.01613 0.77232 0.74686 0.0
H1168 H 0.01633 0.74018 0.7618 0.0
H1169 H 0.02113 0.71737 0.74655 0.0
H1170 H 0.01812 0.63965 0.75282 0.0
H1171 H 0.0289 0.6092 0.77085 0.0
H1172 H 0.73499 0.03964 0.79726 0.0
H1173 H 0.74261 0.00646 0.77743 0.0
H1174 H 0.71482 0.04707 0.75495 0.0
H1175 H 0.70713 0.08084 0.77474 0.0
H1176 H 0.73258 0.9393 0.76239 0.0
H1177 H 0.74077 0.08794 0.73248 0.0
H1178 H 0.73848 0.09 0.75009 0.0
H1179 H 0.72733 0.08284 0.73898 0.0
C1180 C 0.73053 0.04198 0.78808 0.0
C1181 C 0.72045 0.06287 0.78756 0.0
C1182 C 0.7349 0.02291 0.77677 0.0
C1183 C 0.7293 0.02458 0.76476 0.0
C1184 C 0.71932 0.04601 0.76412 0.0
H1185 H 0.74824 0.92336 0.68764 0.0
H1186 H 0.73754 0.95263 0.70591 0.0
C1187 C 0.71494 0.06517 0.77543 0.0
C1188 C 0.73376 0.00224 0.75306 0.0
H1189 H 0.74434 0.02009 0.72244 0.0
C1190 C 0.73513 0.95687 0.75362 0.0
C1191 C 0.73698 0.02536 0.74165 0.0
C1192 C 0.73591 0.07427 0.74072 0.0
C1193 C 0.73976 0.93394 0.74308 0.0
C1194 C 0.74325 0.9572 0.73182 0.0
C1195 C 0.74163 0.00242 0.73111 0.0
C1196 C 0.7492 0.93577 0.72098 0.0
C1197 C 0.74085 0.88507 0.74408 0.0
C1198 C 0.75924 0.91638 0.72346 0.0
C1199 C 0.76536 0.89961 0.71307 0.0
C1200 C 0.76157 0.90229 0.7 0.0
C1201 C 0.75138 0.92076 0.69759 0.0
C1202 C 0.74526 0.93755 0.708 0.0
H1203 H 0.73505 0.87116 0.7513 0.0
H1204 H 0.73955 0.86927 0.73433 0.0
H1205 H 0.74912 0.87691 0.74749 0.0
H1206 H 0.76251 0.91548 0.73338 0.0
H1207 H 0.7732 0.88572 0.71525 0.0
H1208 H 0.73896 0.66011 0.94757 0.0
H1209 H 0.7475 0.69661 0.96628 0.0
H1210 H 0.72156 0.65493 0.9917 0.0
H1211 H 0.71295 0.61801 0.97304 0.0
H1212 H 0.73674 0.76456 0.98099 0.0
H1213 H 0.74959 0.62531 0.01258 0.0
H1214 H 0.7467 0.61921 0.99517 0.0
H1215 H 0.73586 0.62455 0.00682 0.0
C1216 C 0.73515 0.65804 0.95717 0.0
C1217 C 0.72525 0.63633 0.95881 0.0
C1218 C 0.74003 0.679 0.96784 0.0
C1219 C 0.73516 0.67829 0.98033 0.0
C1220 C 0.72549 0.65535 0.98214 0.0
H1221 H 0.75513 0.80015 0.05411 0.0
H1222 H 0.74458 0.76301 0.03708 0.0
C1223 C 0.72058 0.63439 0.97147 0.0
C1224 C 0.73983 0.70419 0.99118 0.0
H1225 H 0.75224 0.69607 0.02114 0.0
C1226 C 0.74013 0.74968 0.98979 0.0
C1227 C 0.74411 0.68452 0.00265 0.0
C1228 C 0.74415 0.63569 0.00443 0.0
C1229 C 0.74468 0.77617 -0.00042 0.0
C1230 C 0.74923 0.75646 0.0109 0.0
C1231 C 0.74873 0.71101 0.01242 0.0
C1232 C 0.75504 0.78211 0.02099 0.0
C1233 C 0.74452 0.82499 -0.00224 0.0
C1234 C 0.76436 0.8054 0.01752 0.0
C1235 C 0.77038 0.82675 0.02719 0.0
C1236 C 0.76724 0.8248 0.04053 0.0
C1237 C 0.75776 0.8023 0.04392 0.0
C1238 C 0.75173 0.78099 0.03423 0.0
H1239 H 0.73806 0.83522 0.9908 0.0
H1240 H 0.7433 0.842 0.00733 0.0
H1241 H 0.75236 0.83567 0.99357 0.0
H1242 H 0.76716 0.80592 0.00738 0.0
H1243 H 0.77767 0.84363 0.02426 0.0
H1244 H 0.21549 0.59272 0.77782 0.0
H1245 H 0.22542 0.55691 0.76001 0.0
H1246 H 0.24696 0.49904 0.78851 0.0
H1247 H 0.23716 0.53506 0.80642 0.0
H1248 H 0.25728 0.53496 0.76588 0.0
H1249 H 0.22341 0.42484 0.75256 0.0
H1250 H 0.21997 0.48171 0.75289 0.0
H1251 H 0.22383 0.45469 0.76793 0.0
C1252 C 0.22238 0.5726 0.78031 0.0
C1253 C 0.22549 0.56641 0.79354 0.0
C1254 C 0.22799 0.55198 0.77013 0.0
C1255 C 0.23676 0.52472 0.77301 0.0
C1256 C 0.24014 0.51972 0.78614 0.0
H1257 H 0.27999 0.37134 0.72353 0.0
H1258 H 0.27054 0.4037 0.74235 0.0
C1259 C 0.23454 0.54034 0.79634 0.0
C1260 C 0.24235 0.50116 0.76231 0.0
H1261 H 0.23848 0.42539 0.73809 0.0
C1262 C 0.25322 0.51079 0.75984 0.0
C1263 C 0.23698 0.46961 0.75453 0.0
C1264 C 0.22543 0.45671 0.75715 0.0
C1265 C 0.25881 0.4905 0.7495 0.0
C1266 C 0.25341 0.45932 0.74162 0.0
C1267 C 0.24257 0.44935 0.74418 0.0
C1268 C 0.25877 0.43769 0.73038 0.0
C1269 C 0.27035 0.50347 0.74684 0.0
C1270 C 0.25501 0.44492 0.7175 0.0
C1271 C 0.26033 0.42632 0.70675 0.0
C1272 C 0.26948 0.40004 0.70872 0.0
C1273 C 0.273 0.39164 0.72168 0.0
C1274 C 0.26766 0.41028 0.73244 0.0
H1275 H 0.27252 0.53446 0.75186 0.0
H1276 H 0.27582 0.47757 0.75055 0.0
H1277 H 0.27179 0.50724 0.73607 0.0
H1278 H 0.2481 0.46579 0.71576 0.0
H1279 H 0.25739 0.43329 0.69689 0.0
H1280 H 0.03857 0.58248 0.47142 0.0
H1281 H 0.03111 0.54374 0.4905 0.0
H1282 H 0.00317 0.50803 0.46754 0.0
H1283 H 0.01055 0.54634 0.44841 0.0
H1284 H 0.01054 0.55474 0.50349 0.0
H1285 H 0.01555 0.39048 0.48126 0.0
H1286 H 0.02245 0.43811 0.47504 0.0
H1287 H 0.00852 0.42898 0.47102 0.0
C1288 C 0.0308 0.56664 0.47045 0.0
C1289 C 0.02519 0.56715 0.45837 0.0
C1290 C 0.02657 0.54451 0.48135 0.0
C1291 C 0.01672 0.5224 0.48029 0.0
C1292 C 0.01091 0.52421 0.46842 0.0
H1293 H 0.97381 0.37427 0.52842 0.0
H1294 H 0.98409 0.4092 0.51077 0.0
C1295 C 0.01511 0.54636 0.45754 0.0
C1296 C 0.01247 0.49723 0.49156 0.0
H1297 H 0.00508 0.39467 0.50092 0.0
C1298 C 0.00944 0.5197 0.50303 0.0
C1299 C 0.0111 0.45155 0.49085 0.0
C1300 C 0.01466 0.4257 0.47893 0.0
C1301 C 0.00463 0.4978 0.51366 0.0
C1302 C 0.00305 0.4522 0.51284 0.0
C1303 C 0.00632 0.42962 0.50149 0.0
C1304 C 0.99742 0.42781 0.52336 0.0
C1305 C 0.00089 0.52386 0.52546 0.0
C1306 C 0.00172 0.4255 0.53616 0.0
C1307 C 0.99585 0.40563 0.54629 0.0
C1308 C 0.98564 0.3876 0.54372 0.0
C1309 C 0.98163 0.38803 0.53073 0.0
C1310 C 0.98748 0.40796 0.52063 0.0
H1311 H 0.00062 0.55938 0.52332 0.0
H1312 H 0.99274 0.51318 0.52868 0.0
H1313 H 0.00655 0.51859 0.5338 0.0
H1314 H 0.00949 0.43989 0.53836 0.0
H1315 H -0.0008 0.40553 0.55617 0.0
H1316 H 0.24086 0.71048 0.43794 0.0
H1317 H 0.25075 0.73873 0.45703 0.0
H1318 H 0.22884 0.67201 0.48324 0.0
H1319 H 0.21898 0.64321 0.46427 0.0
H1320 H 0.24193 0.79171 0.47697 0.0
H1321 H 0.25864 0.63819 0.49755 0.0
H1322 H 0.25349 0.64213 0.4809 0.0
H1323 H 0.24436 0.63661 0.4946 0.0
C1324 C 0.23823 0.70135 0.44776 0.0
C1325 C 0.22914 0.6746 0.4496 0.0
C1326 C 0.24387 0.71758 0.45864 0.0
C1327 C 0.24057 0.70705 0.4715 0.0
C1328 C 0.23162 0.67983 0.47337 0.0
H1329 H 0.25849 0.78056 0.55062 0.0
H1330 H 0.24956 0.75326 0.53075 0.0
C1331 C 0.22597 0.66359 0.46252 0.0
C1332 C 0.2461 0.72651 0.48299 0.0
H1333 H 0.25966 0.70107 0.51127 0.0
C1334 C 0.24589 0.772 0.48443 0.0
C1335 C 0.25121 0.70056 0.49268 0.0
C1336 C 0.25205 0.65169 0.49133 0.0
C1337 C 0.25045 0.79226 0.49552 0.0
C1338 C 0.25545 0.76625 0.50528 0.0
C1339 C 0.25575 0.72081 0.50377 0.0
C1340 C 0.26043 0.78542 0.51717 0.0
C1341 C 0.24963 0.84113 0.49688 0.0
C1342 C 0.26945 0.81275 0.51606 0.0
C1343 C 0.27457 0.82849 0.52738 0.0
C1344 C 0.27078 0.81685 0.54 0.0
C1345 C 0.26161 0.79013 0.54105 0.0
C1346 C 0.2565 0.77443 0.52973 0.0
H1347 H 0.24339 0.85503 0.49022 0.0
H1348 H 0.24769 0.85043 0.50722 0.0
H1349 H 0.2575 0.85603 0.49427 0.0
H1350 H 0.27269 0.82099 0.50644 0.0
H1351 H 0.28164 0.84888 0.52624 0.0
H1352 H 0.75744 0.42794 0.19352 0.0
H1353 H 0.74748 0.4644 0.2112 0.0
H1354 H 0.77246 0.43011 0.23897 0.0
H1355 H 0.78256 0.39392 0.22135 0.0
H1356 H 0.73989 0.43301 0.23605 0.0
H1357 H 0.77046 0.56445 0.24136 0.0
H1358 H 0.77009 0.52834 0.22728 0.0
H1359 H 0.77563 0.50991 0.24271 0.0
C1360 C 0.76078 0.4278 0.20341 0.0
C1361 C 0.77084 0.40846 0.20601 0.0
C1362 C 0.75508 0.44865 0.21348 0.0
C1363 C 0.75936 0.4506 0.22628 0.0
C1364 C 0.76915 0.42964 0.22907 0.0
H1365 H 0.73874 0.57304 0.29894 0.0
H1366 H 0.74851 0.53432 0.28155 0.0
C1367 C 0.77487 0.40879 0.21901 0.0
C1368 C 0.75369 0.47551 0.23664 0.0
H1369 H 0.75608 0.5643 0.25674 0.0
C1370 C 0.7434 0.46177 0.24057 0.0
C1371 C 0.75833 0.51302 0.24245 0.0
C1372 C 0.7692 0.53015 0.23819 0.0
C1373 C 0.73765 0.48424 0.25036 0.0
C1374 C 0.74228 0.52179 0.25616 0.0
C1375 C 0.75258 0.53549 0.25224 0.0
C1376 C 0.73659 0.54706 0.26642 0.0
C1377 C 0.72677 0.46716 0.25462 0.0
C1378 C 0.72682 0.56802 0.26353 0.0
C1379 C 0.72122 0.59019 0.27342 0.0
C1380 C 0.72534 0.59188 0.28636 0.0
C1381 C 0.73533 0.5722 0.28909 0.0
C1382 C 0.74092 0.55004 0.27918 0.0
H1383 H 0.72556 0.43273 0.25155 0.0
H1384 H 0.72582 0.46939 0.26551 0.0
H1385 H 0.72035 0.48714 0.24997 0.0
H1386 H 0.72347 0.56681 0.25364 0.0
H1387 H 0.71357 0.60524 0.27099 0.0
H1388 H 0.76739 0.28233 0.55147 0.0
H1389 H 0.75772 0.24847 0.53309 0.0
H1390 H 0.77922 0.31071 0.50541 0.0
H1391 H 0.78902 0.34452 0.52371 0.0
H1392 H 0.74741 0.29147 0.51166 0.0
H1393 H 0.78006 0.18048 0.49481 0.0
H1394 H 0.78014 0.20612 0.51088 0.0
H1395 H 0.78388 0.23674 0.49646 0.0
C1396 C 0.77009 0.2888 0.54147 0.0
C1397 C 0.779 0.31597 0.53904 0.0
C1398 C 0.76455 0.2694 0.531 0.0
C1399 C 0.76788 0.27661 0.51795 0.0
C1400 C 0.77668 0.30413 0.51545 0.0
H1401 H 0.74388 0.20205 0.44117 0.0
H1402 H 0.75448 0.22897 0.45985 0.0
C1403 C 0.78221 0.32362 0.52591 0.0
C1404 C 0.76193 0.25634 0.50692 0.0
H1405 H 0.76453 0.18524 0.48119 0.0
C1406 C 0.75111 0.26806 0.50503 0.0
C1407 C 0.76684 0.22594 0.49832 0.0
C1408 C 0.77835 0.2112 0.50024 0.0
C1409 C 0.74509 0.25077 0.49455 0.0
C1410 C 0.74999 0.22033 0.48594 0.0
C1411 C 0.76081 0.20853 0.48785 0.0
C1412 C 0.74404 0.20108 0.47474 0.0
C1413 C 0.73363 0.26606 0.49259 0.0
C1414 C 0.73486 0.17541 0.47699 0.0
C1415 C 0.72877 0.16011 0.46636 0.0
C1416 C 0.73181 0.17 0.45332 0.0
C1417 C 0.74129 0.19404 0.4511 0.0
C1418 C 0.74736 0.20943 0.46175 0.0
H1419 H 0.73199 0.2969 0.49798 0.0
H1420 H 0.73185 0.27118 0.48195 0.0
H1421 H 0.72801 0.24085 0.49639 0.0
H1422 H 0.73231 0.16788 0.48697 0.0
H1423 H 0.72156 0.14132 0.46839 0.0
H1424 H 0.46451 0.3898 0.72228 0.0
H1425 H 0.47435 0.36343 0.74163 0.0
H1426 H 0.49948 0.31371 0.71629 0.0
H1427 H 0.48982 0.34063 0.69693 0.0
H1428 H 0.47881 0.27756 0.74607 0.0
H1429 H 0.51676 0.37284 0.74521 0.0
H1430 H 0.50499 0.38855 0.73584 0.0
H1431 H 0.51391 0.3469 0.72972 0.0
C1432 C 0.47223 0.37399 0.72084 0.0
C1433 C 0.47638 0.36715 0.70807 0.0
C1434 C 0.47784 0.35896 0.7319 0.0
C1435 C 0.48769 0.33703 0.73039 0.0
C1436 C 0.49201 0.3314 0.71769 0.0
H1437 H 0.5288 0.1732 0.77707 0.0
H1438 H 0.51936 0.21377 0.75978 0.0
C1439 C 0.48644 0.34658 0.70663 0.0
C1440 C 0.49291 0.31626 0.74191 0.0
H1441 H 0.51675 0.30831 0.75858 0.0
C1442 C 0.48706 0.28468 0.74893 0.0
C1443 C 0.50367 0.32557 0.74555 0.0
C1444 C 0.51017 0.36062 0.73877 0.0
C1445 C 0.49181 0.26108 0.75926 0.0
C1446 C 0.50264 0.26967 0.76269 0.0
C1447 C 0.50844 0.30177 0.75584 0.0
C1448 C 0.50817 0.24494 0.77318 0.0
C1449 C 0.48533 0.22616 0.76615 0.0
C1450 C 0.50497 0.24922 0.7864 0.0
C1451 C 0.51033 0.2261 0.7963 0.0
C1452 C 0.51899 0.19842 0.79312 0.0
C1453 C 0.52214 0.19412 0.77984 0.0
C1454 C 0.51679 0.21735 0.76996 0.0
H1455 H 0.47785 0.21785 0.76065 0.0
H1456 H 0.49021 0.19609 0.76741 0.0
H1457 H 0.48299 0.23785 0.77612 0.0
H1458 H 0.4984 0.27081 0.78906 0.0
H1459 H 0.50774 0.23026 0.80645 0.0
H1460 H 0.48797 0.97359 0.5575 0.0
H1461 H 0.49864 0.00588 0.53967 0.0
H1462 H 0.47544 0.96021 0.51109 0.0
H1463 H 0.46479 0.92732 0.52878 0.0
H1464 H 0.49695 0.9438 0.5042 0.0
H1465 H 0.49073 0.11661 0.51892 0.0
H1466 H 0.49593 0.08174 0.53168 0.0
H1467 H 0.48258 0.07265 0.52533 0.0
C1468 C 0.48515 0.97035 0.54742 0.0
C1469 C 0.47552 0.94807 0.54455 0.0
C1470 C 0.49121 0.98907 0.53727 0.0
C1471 C 0.48771 0.98602 0.52413 0.0
C1472 C 0.47822 0.96311 0.52121 0.0
H1473 H 0.50973 0.07057 0.44745 0.0
H1474 H 0.49949 0.04269 0.46628 0.0
C1475 C 0.47216 0.94434 0.53132 0.0
C1476 C 0.49399 0.00604 0.51334 0.0
H1477 H 0.50277 0.10357 0.50117 0.0
C1478 C 0.49822 0.97872 0.50351 0.0
C1479 C 0.49562 0.0516 0.51254 0.0
C1480 C 0.49091 0.0825 0.52261 0.0
C1481 C 0.5041 0.99576 0.49289 0.0
C1482 C 0.50563 0.04132 0.49202 0.0
C1483 C 0.50152 0.06865 0.50191 0.0
C1484 C 0.51145 0.06107 0.48082 0.0
C1485 C 0.50874 0.96489 0.48277 0.0
C1486 C 0.52136 0.08198 0.48289 0.0
C1487 C 0.52722 0.09807 0.47217 0.0
C1488 C 0.52321 0.09364 0.45923 0.0
C1489 C 0.51307 0.07423 0.45728 0.0
C1490 C 0.50723 0.05811 0.468 0.0
H1491 H 0.509 0.9308 0.48647 0.0
H1492 H 0.50363 0.96553 0.47376 0.0
H1493 H 0.51703 0.97489 0.47991 0.0
H1494 H 0.52468 0.08475 0.49275 0.0
H1495 H 0.53499 0.11306 0.474 0.0
H1496 H 0.46278 0.83699 0.21704 0.0
H1497 H 0.47249 0.80382 0.23551 0.0
H1498 H 0.49592 0.75078 0.20843 0.0
H1499 H 0.48635 0.78412 0.18989 0.0
H1500 H 0.47677 0.71334 0.23877 0.0
H1501 H 0.51435 0.81196 0.23685 0.0
H1502 H 0.50205 0.82857 0.22872 0.0
H1503 H 0.51046 0.78736 0.22145 0.0
C1504 C 0.47006 0.81863 0.21501 0.0
C1505 C 0.47382 0.81324 0.202 0.0
C1506 C 0.47557 0.79965 0.22557 0.0
C1507 C 0.48495 0.77526 0.22331 0.0
C1508 C 0.48878 0.7701 0.21037 0.0
H1509 H 0.52902 0.63537 0.27434 0.0
H1510 H 0.51899 0.66374 0.25541 0.0
C1511 C 0.48328 0.78905 0.19979 0.0
C1512 C 0.49051 0.7539 0.23446 0.0
H1513 H 0.51424 0.75167 0.25145 0.0
C1514 C 0.48495 0.72174 0.24159 0.0
C1515 C 0.50118 0.76496 0.23803 0.0
C1516 C 0.50736 0.80035 0.23095 0.0
C1517 C 0.48986 0.69985 0.25216 0.0
C1518 C 0.50052 0.71105 0.25577 0.0
C1519 C 0.50608 0.74311 0.2486 0.0
C1520 C 0.50602 0.69068 0.26714 0.0
C1521 C 0.48368 0.66446 0.25923 0.0
C1522 C 0.50197 0.69621 0.27997 0.0
C1523 C 0.50766 0.67997 0.29081 0.0
C1524 C 0.51754 0.65828 0.28899 0.0
C1525 C 0.52144 0.65196 0.27608 0.0
C1526 C 0.51574 0.66816 0.26526 0.0
H1527 H 0.4769 0.65194 0.25313 0.0
H1528 H 0.48905 0.63679 0.26185 0.0
H1529 H 0.48025 0.67788 0.2685 0.0
H1530 H 0.49458 0.71423 0.28163 0.0
H1531 H 0.50446 0.68552 0.30063 0.0
H1532 H 0.4654 0.38982 0.02139 0.0
H1533 H 0.47532 0.42634 0.0037 0.0
H1534 H 0.50043 0.46101 0.03125 0.0
H1535 H 0.49065 0.42423 0.049 0.0
H1536 H 0.4806 0.51587 0.00414 0.0
H1537 H 0.51712 0.41202 -0.00061 0.0
H1538 H 0.50497 0.39353 0.00749 0.0
H1539 H 0.51412 0.42941 0.01593 0.0
C1540 C 0.47312 0.40457 0.02365 0.0
C1541 C 0.47724 0.40422 0.0366 0.0
C1542 C 0.47876 0.42548 0.01354 0.0
C1543 C 0.48862 0.44604 0.01618 0.0
C1544 C 0.49291 0.44468 0.02899 0.0
H1545 H 0.53214 0.60661 0.97022 0.0
H1546 H 0.52263 0.56856 0.98797 0.0
C1547 C 0.48728 0.4238 0.03912 0.0
C1548 C 0.49403 0.47161 0.00575 0.0
H1549 H 0.51726 0.47943 0.98787 0.0
C1550 C 0.4886 0.50783 0.00051 0.0
C1551 C 0.50447 0.46107 0.00116 0.0
C1552 C 0.5105 0.42169 0.00618 0.0
C1553 C 0.4934 0.53425 0.99087 0.0
C1554 C 0.50382 0.52364 0.98624 0.0
C1555 C 0.50927 0.48748 0.99151 0.0
C1556 C 0.50916 0.54907 0.97573 0.0
C1557 C 0.48737 0.57374 0.98591 0.0
C1558 C 0.50468 0.55083 0.96302 0.0
C1559 C 0.51007 0.5726 0.95287 0.0
C1560 C 0.52007 0.59269 0.95525 0.0
C1561 C 0.52444 0.59153 0.96807 0.0
C1562 C 0.51904 0.56974 0.97821 0.0
H1563 H 0.48087 0.58371 0.99284 0.0
H1564 H 0.49292 0.60173 0.98444 0.0
H1565 H 0.48359 0.56592 0.97626 0.0
H1566 H 0.49715 0.5344 0.96086 0.0
H1567 H 0.50651 0.57274 0.94309 0.0
H1568 H 0.05527 0.55041 0.38078 0.0
H1569 H 0.0537 0.48356 0.36771 0.0
H1570 H 0.03602 0.42259 0.39943 0.0
H1571 H 0.03734 0.48932 0.41243 0.0
H1572 H 0.06158 0.40318 0.37402 0.0
H1573 H 0.01723 0.39511 0.36771 0.0
H1574 H 0.02405 0.44375 0.37328 0.0
H1575 H 0.02124 0.40019 0.38468 0.0
C1576 C 0.05093 0.52294 0.38491 0.0
C1577 C 0.04641 0.52519 0.39762 0.0
C1578 C 0.05006 0.48479 0.37744 0.0
C1579 C 0.04462 0.44837 0.38254 0.0
C1580 C 0.04004 0.45064 0.39519 0.0
H1581 H 0.05287 0.17888 0.35891 0.0
H1582 H 0.05296 0.24906 0.3704 0.0
C1583 C 0.04086 0.48877 0.40263 0.0
C1584 C 0.04426 0.40713 0.37497 0.0
H1585 H 0.02709 0.33026 0.36267 0.0
C1586 C 0.05405 0.38736 0.37144 0.0
C1587 C 0.03441 0.38686 0.37151 0.0
C1588 C 0.02364 0.40777 0.37437 0.0
C1589 C 0.05426 0.34731 0.36477 0.0
C1590 C 0.04442 0.32609 0.36184 0.0
C1591 C 0.03463 0.34634 0.3651 0.0
C1592 C 0.04411 0.28325 0.35515 0.0
C1593 C 0.06502 0.32842 0.36078 0.0
C1594 C 0.03877 0.27892 0.343 0.0
C1595 C 0.0386 0.23883 0.3365 0.0
C1596 C 0.04375 0.20229 0.34203 0.0
C1597 C 0.0489 0.20649 0.35434 0.0
C1598 C 0.04902 0.24661 0.36088 0.0
H1599 H 0.07142 0.35378 0.36048 0.0
H1600 H 0.06748 0.30341 0.36811 0.0
H1601 H 0.06454 0.31262 0.35092 0.0
H1602 H 0.03488 0.30677 0.33846 0.0
H1603 H 0.03453 0.23669 0.32704 0.0
H1604 H 0.19653 0.67584 0.37354 0.0
H1605 H 0.19615 0.74095 0.35953 0.0
H1606 H 0.20977 0.81682 0.39129 0.0
H1607 H 0.21033 0.75211 0.40526 0.0
H1608 H 0.18483 0.81665 0.36471 0.0
H1609 H 0.22848 0.8517 0.35988 0.0
H1610 H 0.22342 0.7997 0.36551 0.0
H1611 H 0.2243 0.84503 0.37674 0.0
C1612 C 0.19958 0.70626 0.37748 0.0
C1613 C 0.20346 0.70881 0.39051 0.0
C1614 C 0.19935 0.74339 0.36947 0.0
C1615 C 0.20307 0.78351 0.37433 0.0
C1616 C 0.20708 0.78598 0.38726 0.0
H1617 H 0.18571 0.04464 0.35216 0.0
H1618 H 0.18787 0.97309 0.36247 0.0
C1619 C 0.20732 0.74897 0.39526 0.0
C1620 C 0.20208 0.82353 0.36628 0.0
H1621 H 0.21641 0.91003 0.35441 0.0
C1622 C 0.19174 0.83686 0.36232 0.0
C1623 C 0.21112 0.84951 0.36305 0.0
C1624 C 0.22247 0.83558 0.3664 0.0
C1625 C 0.19016 0.87636 0.35563 0.0
C1626 C 0.19914 0.90351 0.35306 0.0
C1627 C 0.20952 0.8894 0.35657 0.0
C1628 C 0.19792 0.94691 0.34688 0.0
C1629 C 0.1789 0.88863 0.35136 0.0
C1630 C 0.20311 0.95625 0.33491 0.0
C1631 C 0.20197 0.9972 0.32905 0.0
C1632 C 0.19564 0.02959 0.3351 0.0
C1633 C 0.19058 0.02032 0.34721 0.0
C1634 C 0.19175 0.97937 0.35307 0.0
H1635 H 0.17357 0.8596 0.35066 0.0
H1636 H 0.17536 0.91117 0.35875 0.0
H1637 H 0.17898 0.90539 0.34163 0.0
H1638 H 0.20797 0.93168 0.33003 0.0
H1639 H 0.206 0.00333 0.31974 0.0
H1640 H 0.03526 0.97696 0.91042 0.0
H1641 H 0.03548 0.9099 0.89747 0.0
H1642 H 0.0529 0.97559 0.86642 0.0
H1643 H 0.05292 0.04285 0.87944 0.0
H1644 H 0.02754 0.8912 0.87274 0.0
H1645 H 0.07204 0.87053 0.87447 0.0
H1646 H 0.06498 0.90901 0.88482 0.0
H1647 H 0.06762 0.92174 0.86779 0.0
C1648 C 0.03912 0.97728 0.90082 0.0
C1649 C 0.04417 0.01515 0.89601 0.0
C1650 C 0.03923 0.93891 0.89344 0.0
C1651 C 0.04437 0.93763 0.88111 0.0
C1652 C 0.0491 0.9757 0.87605 0.0
H1653 H 0.03802 0.7267 0.82423 0.0
H1654 H 0.03712 0.79633 0.83587 0.0
C1655 C 0.04904 0.01414 0.88347 0.0
C1656 C 0.04485 0.89615 0.87368 0.0
H1657 H 0.06229 0.82036 0.86132 0.0
C1658 C 0.03513 0.87568 0.87021 0.0
C1659 C 0.05477 0.87575 0.87061 0.0
C1660 C 0.06545 0.8951 0.87471 0.0
C1661 C 0.03506 0.83536 0.86368 0.0
C1662 C 0.04498 0.81551 0.86032 0.0
C1663 C 0.0547 0.83587 0.86384 0.0
C1664 C 0.04548 0.77328 0.85329 0.0
C1665 C 0.02436 0.81393 0.86074 0.0
C1666 C 0.05071 0.73754 0.85912 0.0
C1667 C 0.05134 0.69776 0.85244 0.0
C1668 C 0.04676 0.69312 0.83981 0.0
C1669 C 0.04156 0.72909 0.83399 0.0
C1670 C 0.04098 0.76887 0.84065 0.0
H1671 H 0.01779 0.8273 0.86701 0.0
H1672 H 0.0222 0.81996 0.85026 0.0
H1673 H 0.0248 0.77814 0.86229 0.0
H1674 H 0.05427 0.7404 0.86885 0.0
H1675 H 0.05541 0.67071 0.85718 0.0
H1676 H 0.21031 0.51041 0.84139 0.0
H1677 H 0.21126 0.44933 0.85687 0.0
H1678 H 0.18319 0.49784 0.87726 0.0
H1679 H 0.18215 0.55923 0.86182 0.0
H1680 H 0.21242 0.45269 0.88608 0.0
H1681 H 0.17614 0.36833 0.8661 0.0
H1682 H 0.18336 0.40941 0.85687 0.0
H1683 H 0.17463 0.42511 0.87019 0.0
C1684 C 0.20434 0.5082 0.84918 0.0
C1685 C 0.19611 0.53951 0.85034 0.0
C1686 C 0.20493 0.47336 0.85802 0.0
C1687 C 0.19724 0.46904 0.86808 0.0
C1688 C 0.18912 0.50054 0.86944 0.0
H1689 H 0.19768 0.28868 0.9344 0.0
H1690 H 0.1973 0.35397 0.9205 0.0
C1691 C 0.18856 0.53559 0.86065 0.0
C1692 C 0.19766 0.43104 0.877 0.0
H1693 H 0.18464 0.33631 0.88457 0.0
C1694 C 0.20634 0.42727 0.88581 0.0
C1695 C 0.18976 0.39789 0.87646 0.0
C1696 C 0.18046 0.39996 0.86685 0.0
C1697 C 0.2073 0.39107 0.89421 0.0
C1698 C 0.19934 0.35813 0.89375 0.0
C1699 C 0.19069 0.36184 0.8849 0.0
C1700 C 0.19994 0.31903 0.90222 0.0
C1701 C 0.21691 0.3878 0.90331 0.0
C1702 C 0.20146 0.2779 0.89648 0.0
C1703 C 0.20169 0.24058 0.90437 0.0
C1704 C 0.20029 0.24378 0.91812 0.0
C1705 C 0.1988 0.28514 0.92384 0.0
C1706 C 0.19863 0.32247 0.91594 0.0
H1707 H 0.22333 0.41151 0.90066 0.0
H1708 H 0.21429 0.39459 0.91359 0.0
H1709 H 0.22036 0.3544 0.90307 0.0
H1710 H 0.20246 0.2747 0.88589 0.0
H1711 H 0.20283 0.2092 0.89966 0.0
H1712 H 0.93897 0.81614 0.62879 0.0
H1713 H 0.94092 0.75484 0.61339 0.0
H1714 H 0.95409 0.6758 0.64471 0.0
H1715 H 0.95215 0.7363 0.66013 0.0
H1716 H 0.96034 0.70599 0.60689 0.0
H1717 H 0.92858 0.60338 0.62983 0.0
H1718 H 0.92961 0.66131 0.63276 0.0
H1719 H 0.93837 0.62408 0.64131 0.0
C1720 C 0.94227 0.78568 0.63239 0.0
C1721 C 0.94532 0.78098 0.6457 0.0
C1722 C 0.94339 0.7508 0.62359 0.0
C1723 C 0.94749 0.71076 0.628 0.0
C1724 C 0.95072 0.70626 0.6412 0.0
H1725 H 0.96213 0.45556 0.59881 0.0
H1726 H 0.95993 0.52303 0.61137 0.0
C1727 C 0.94964 0.74097 0.64997 0.0
C1728 C 0.9485 0.67337 0.6189 0.0
H1729 H 0.94031 0.56823 0.61456 0.0
C1730 C 0.95589 0.67597 0.60843 0.0
C1731 C 0.94266 0.63443 0.621 0.0
C1732 C 0.93428 0.63059 0.63176 0.0
C1733 C 0.95791 0.63983 0.60029 0.0
C1734 C 0.95227 0.60052 0.60262 0.0
C1735 C 0.94468 0.59837 0.61288 0.0
C1736 C 0.95421 0.56079 0.59472 0.0
C1737 C 0.96633 0.64347 0.58958 0.0
C1738 C 0.95174 0.55983 0.5812 0.0
C1739 C 0.95301 0.52135 0.57399 0.0
C1740 C 0.95669 0.48314 0.58021 0.0
C1741 C 0.95928 0.48442 0.59372 0.0
C1742 C 0.95802 0.5229 0.60092 0.0
H1743 H 0.9716 0.67238 0.59099 0.0
H1744 H 0.97145 0.61379 0.58927 0.0
H1745 H 0.96226 0.64671 0.57986 0.0
H1746 H 0.94861 0.58855 0.5763 0.0
H1747 H 0.9509 0.52139 0.5636 0.0
H1748 H 0.80774 0.02424 0.67061 0.0
H1749 H 0.80764 0.09201 0.6579 0.0
H1750 H 0.7783 0.05189 0.63844 0.0
H1751 H 0.77853 0.98351 0.6508 0.0
H1752 H 0.79277 0.08069 0.62114 0.0
H1753 H 0.78934 0.19965 0.66211 0.0
H1754 H 0.80064 0.16364 0.66401 0.0
H1755 H 0.78715 0.142 0.66442 0.0
C1756 C 0.80122 0.03001 0.66369 0.0
C1757 C 0.79314 -0.00142 0.6617 0.0
C1758 C 0.80113 0.06891 0.65652 0.0
C1759 C 0.79286 0.07734 0.6474 0.0
C1760 C 0.78474 0.04612 0.64548 0.0
H1761 H 0.78092 0.32431 0.60762 0.0
H1762 H 0.78017 0.26084 0.62226 0.0
C1763 C 0.78488 0.00705 0.65254 0.0
C1764 C 0.79299 0.11748 0.63927 0.0
H1765 H 0.79401 0.22856 0.64093 0.0
C1766 C 0.79297 0.11303 0.62548 0.0
C1767 C 0.7931 0.15965 0.64494 0.0
C1768 C 0.79245 0.16663 0.65968 0.0
C1769 C 0.79326 0.14954 0.61717 0.0
C1770 C 0.79389 0.19162 0.62283 0.0
C1771 C 0.79368 0.1962 0.63663 0.0
C1772 C 0.79471 0.23122 0.61455 0.0
C1773 C 0.79269 0.14263 0.60241 0.0
C1774 C 0.80329 0.2361 0.60564 0.0
C1775 C 0.80369 0.272 0.5972 0.0
C1776 C 0.79559 0.30405 0.59766 0.0
C1777 C 0.78726 0.30009 0.60701 0.0
C1778 C 0.78682 0.26389 0.61537 0.0
H1779 H 0.78909 0.11049 0.59992 0.0
H1780 H 0.78786 0.16856 0.59756 0.0
H1781 H 0.80097 0.14344 0.59826 0.0
H1782 H 0.80962 0.21182 0.60511 0.0
H1783 H 0.81029 0.27442 0.59023 0.0
H1784 H 0.95769 0.27832 0.16534 0.0
H1785 H 0.95697 0.20964 0.15321 0.0
H1786 H 0.94339 0.27609 0.11955 0.0
H1787 H 0.94415 0.34532 0.13157 0.0
H1788 H 0.93821 0.17007 0.14267 0.0
H1789 H 0.96877 0.20578 0.10391 0.0
H1790 H 0.96769 0.23737 0.11891 0.0
H1791 H 0.95824 0.24564 0.10569 0.0
C1792 C 0.95462 0.2785 0.15532 0.0
C1793 C 0.95098 0.31732 0.14941 0.0
C1794 C 0.9542 0.23919 0.14843 0.0
C1795 C 0.95021 0.23794 0.13548 0.0
C1796 C 0.94665 0.27658 0.12948 0.0
H1797 H 0.94199 0.02451 0.0801 0.0
H1798 H 0.94145 0.09491 0.09135 0.0
C1799 C 0.94705 0.31603 0.13638 0.0
C1800 C 0.94948 0.1958 0.12848 0.0
H1801 H 0.95926 0.13928 0.10204 0.0
C1802 C 0.94281 0.16326 0.13379 0.0
C1803 C 0.95547 0.18724 0.11689 0.0
C1804 C 0.96302 0.22065 0.11103 0.0
C1805 C 0.94193 0.12226 0.12777 0.0
C1806 C 0.94803 0.11351 0.11627 0.0
C1807 C 0.9546 0.14622 0.11087 0.0
C1808 C 0.94785 0.07037 0.10978 0.0
C1809 C 0.93439 0.08887 0.13364 0.0
C1810 C 0.95164 0.03331 0.11646 0.0
C1811 C 0.95196 0.99297 0.11007 0.0
C1812 C 0.94855 0.98913 0.09687 0.0
C1813 C 0.94466 0.02631 0.09027 0.0
C1814 C 0.94435 0.06659 0.09667 0.0
H1815 H 0.92831 0.10418 0.14024 0.0
H1816 H 0.93011 0.07048 0.12578 0.0
H1817 H 0.93913 0.06529 0.1396 0.0
H1818 H 0.95455 0.03578 0.12652 0.0
H1819 H 0.95504 0.96501 0.11541 0.0
H1820 H 0.80872 0.43806 0.13447 0.0
H1821 H 0.80838 0.50729 0.12247 0.0
H1822 H 0.79048 0.56633 0.15433 0.0
H1823 H 0.79056 0.49716 0.16626 0.0
H1824 H 0.78217 0.58686 0.13029 0.0
H1825 H 0.82638 0.61459 0.13077 0.0
H1826 H 0.82257 0.56322 0.12367 0.0
H1827 H 0.81995 0.57364 0.14087 0.0
C1828 C 0.8047 0.46577 0.13891 0.0
C1829 C 0.79971 0.46218 0.15134 0.0
C1830 C 0.80459 0.50537 0.13209 0.0
C1831 C 0.79959 0.54212 0.13764 0.0
C1832 C 0.79444 0.53841 0.14992 0.0
H1833 H 0.80779 0.80909 0.10994 0.0
H1834 H 0.80763 0.7422 0.12317 0.0
C1835 C 0.7945 0.49883 0.15671 0.0
C1836 C 0.79953 0.58434 0.13056 0.0
H1837 H 0.81596 0.66184 0.11714 0.0
C1838 C 0.78955 0.60338 0.12746 0.0
C1839 C 0.80918 0.60615 0.1271 0.0
C1840 C 0.82013 0.58862 0.13088 0.0
C1841 C 0.78896 0.64325 0.12073 0.0
C1842 C 0.7986 0.66409 0.11675 0.0
C1843 C 0.80858 0.64556 0.1201 0.0
C1844 C 0.79851 0.70476 0.10889 0.0
C1845 C 0.778 0.66292 0.1181 0.0
C1846 C 0.79354 0.70565 0.09645 0.0
C1847 C 0.79356 0.74375 0.08893 0.0
C1848 C 0.79868 0.78159 0.09364 0.0
C1849 C 0.80376 0.78052 0.10606 0.0
C1850 C 0.80369 0.74236 0.11361 0.0
H1851 H 0.77183 0.65017 0.12506 0.0
H1852 H 0.77823 0.699 0.11894 0.0
H1853 H 0.77542 0.65437 0.10793 0.0
H1854 H 0.78973 0.67669 0.09248 0.0
H1855 H 0.78965 0.74335 0.07936 0.0
H1856 H 0.53557 0.21928 0.8481 0.0
H1857 H 0.53586 0.27917 0.86401 0.0
H1858 H 0.56662 0.32135 0.84875 0.0
H1859 H 0.56629 0.26216 0.83257 0.0
H1860 H 0.55004 0.29949 0.88365 0.0
H1861 H 0.54869 0.43163 0.84623 0.0
H1862 H 0.54619 0.3753 0.84213 0.0
H1863 H 0.55979 0.39475 0.84409 0.0
C1864 C 0.54241 0.24128 0.84813 0.0
C1865 C 0.55087 0.23627 0.839 0.0
C1866 C 0.54256 0.27544 0.85723 0.0
C1867 C 0.55116 0.30512 0.85739 0.0
C1868 C 0.55978 0.29942 0.84856 0.0
H1869 H 0.56437 0.49046 0.92049 0.0
H1870 H 0.56469 0.4283 0.90538 0.0
C1871 C 0.5596 0.26546 0.83938 0.0
C1872 C 0.55107 0.34207 0.86678 0.0
H1873 H 0.5516 0.45311 0.86846 0.0
C1874 C 0.55036 0.33311 0.88035 0.0
C1875 C 0.55133 0.38586 0.8624 0.0
C1876 C 0.55143 0.3976 0.84792 0.0
C1877 C 0.54999 0.36682 0.8897 0.0
C1878 C 0.5506 0.41057 0.88535 0.0
C1879 C 0.55123 0.41951 0.87177 0.0
C1880 C 0.55036 0.44774 0.89466 0.0
C1881 C 0.5487 0.35527 0.90411 0.0
C1882 C 0.54236 0.47983 0.89343 0.0
C1883 C 0.54224 0.51567 0.90191 0.0
C1884 C 0.55012 0.52001 0.91182 0.0
C1885 C 0.55813 0.48782 0.91304 0.0
C1886 C 0.55829 0.45214 0.90446 0.0
H1887 H 0.54537 0.32191 0.9054 0.0
H1888 H 0.55671 0.35627 0.909 0.0
H1889 H 0.54331 0.37877 0.90922 0.0
H1890 H 0.5362 0.47711 0.88588 0.0
H1891 H 0.53597 0.53992 0.90072 0.0
H1892 H 0.70932 0.72648 0.91816 0.0
H1893 H 0.70993 0.79749 0.90729 0.0
H1894 H 0.693 0.74433 0.87373 0.0
H1895 H 0.69217 0.67319 0.88462 0.0
H1896 H 0.71875 0.82276 0.88335 0.0
H1897 H 0.67446 0.84912 0.88424 0.0
H1898 H 0.68097 0.80691 0.89377 0.0
H1899 H 0.67846 0.79912 0.87643 0.0
C1900 C 0.70574 0.7298 0.90845 0.0
C1901 C 0.70061 0.69428 0.9023 0.0
C1902 C 0.70611 0.7704 0.90226 0.0
C1903 C 0.70134 0.77627 0.88983 0.0
C1904 C 0.69652 0.74062 0.88346 0.0
H1905 H 0.70954 0.98589 0.83432 0.0
H1906 H 0.71075 0.9187 0.8471 0.0
C1907 C 0.69611 0.69997 0.88966 0.0
C1908 C 0.70139 0.81983 0.88358 0.0
H1909 H 0.68482 0.89946 0.87169 0.0
C1910 C 0.71134 0.83968 0.88084 0.0
C1911 C 0.6917 0.84209 0.88058 0.0
C1912 C 0.68079 0.82348 0.88401 0.0
C1913 C 0.71186 0.88083 0.87483 0.0
C1914 C 0.70217 0.9022 0.8713 0.0
C1915 C 0.69223 0.88283 0.87434 0.0
C1916 C 0.70213 0.94402 0.86403 0.0
C1917 C 0.72277 0.90117 0.87243 0.0
C1918 C 0.69677 0.98044 0.86926 0.0
C1919 C 0.69596 0.01888 0.86192 0.0
C1920 C 0.70046 0.0214 0.8492 0.0
C1921 C 0.70601 0.9851 0.84411 0.0
C1922 C 0.70678 0.94671 0.85144 0.0
H1923 H 0.729 0.8873 0.87911 0.0
H1924 H 0.72529 0.89454 0.86211 0.0
H1925 H 0.72249 0.93704 0.87387 0.0
H1926 H 0.69307 0.97887 0.87895 0.0
H1927 H 0.69163 0.04625 0.86611 0.0
H1928 H 0.53737 0.75212 0.33028 0.0
H1929 H 0.53794 0.82089 0.34243 0.0
H1930 H 0.55395 0.7567 0.37488 0.0
H1931 H 0.5536 0.68784 0.36271 0.0
H1932 H 0.52954 0.84362 0.36677 0.0
H1933 H 0.57417 0.85815 0.36643 0.0
H1934 H 0.56702 0.81971 0.35616 0.0
H1935 H 0.56931 0.80793 0.37334 0.0
C1936 C 0.541 0.75255 0.34001 0.0
C1937 C 0.54553 0.71459 0.34549 0.0
C1938 C 0.54131 0.79188 0.34694 0.0
C1939 C 0.54616 0.79399 0.35944 0.0
C1940 C 0.55039 0.75592 0.36511 0.0
H1941 H 0.54054 -1e-05 0.41733 0.0
H1942 H 0.53899 0.93296 0.40447 0.0
C1943 C 0.55012 0.71656 0.35818 0.0
C1944 C 0.54681 0.83613 0.36649 0.0
H1945 H 0.5646 0.90896 0.37971 0.0
C1946 C 0.5372 0.85802 0.36958 0.0
C1947 C 0.55682 0.85511 0.36992 0.0
C1948 C 0.56743 0.83428 0.36619 0.0
C1949 C 0.53732 0.89811 0.37625 0.0
C1950 C 0.54732 0.91625 0.38012 0.0
C1951 C 0.55694 0.89475 0.37681 0.0
C1952 C 0.54801 0.95733 0.38773 0.0
C1953 C 0.52676 0.92093 0.37891 0.0
C1954 C 0.5538 0.99294 0.38268 0.0
C1955 C 0.5548 0.03122 0.39006 0.0
C1956 C 0.55005 0.03443 0.40264 0.0
C1957 C 0.54424 -0.00132 0.40764 0.0
C1958 C 0.54328 0.96041 0.40028 0.0
H1959 H 0.52029 0.90938 0.37217 0.0
H1960 H 0.52418 0.91395 0.3892 0.0
H1961 H 0.52759 0.95678 0.3778 0.0
H1962 H 0.55756 0.99106 0.37303 0.0
H1963 H 0.55934 0.05815 0.38594 0.0
H1964 H 0.68402 0.21786 0.39065 0.0
H1965 H 0.68398 0.28511 0.3777 0.0
H1966 H 0.71429 0.32265 0.39525 0.0
H1967 H 0.71434 0.2558 0.4084 0.0
H1968 H 0.69907 0.38877 0.39546 0.0
H1969 H 0.70257 0.31492 0.34559 0.0
H1970 H 0.6916 0.29362 0.35522 0.0
H1971 H 0.70527 0.28474 0.36054 0.0
C1972 C 0.69072 0.24025 0.39169 0.0
C1973 C 0.6992 0.23146 0.40053 0.0
C1974 C 0.69071 0.27856 0.38423 0.0
C1975 C 0.6992 0.30851 0.3854 0.0
C1976 C 0.70768 0.29981 0.39418 0.0
H1977 H 0.71113 0.52566 0.33253 0.0
H1978 H 0.7125 0.45965 0.34593 0.0
C1979 C 0.7077 0.26158 0.40167 0.0
C1980 C 0.69907 0.34966 0.37778 0.0
H1981 H 0.69835 0.39052 0.34645 0.0
C1982 C 0.69897 0.38923 0.38474 0.0
C1983 C 0.69907 0.35005 0.36382 0.0
C1984 C 0.69974 0.30859 0.35583 0.0
C1985 C 0.69865 0.42932 0.37808 0.0
C1986 C 0.69825 0.42966 0.36412 0.0
C1987 C 0.69856 0.3901 0.35716 0.0
C1988 C 0.69757 0.47069 0.35649 0.0
C1989 C 0.69891 0.47089 0.38604 0.0
C1990 C 0.68871 0.4987 0.35799 0.0
C1991 C 0.68792 0.53658 0.35039 0.0
C1992 C 0.69593 0.54682 0.34106 0.0
C1993 C 0.70481 0.51872 0.33962 0.0
C1994 C 0.70561 0.48097 0.34726 0.0
H1995 H 0.70212 0.46534 0.39615 0.0
H1996 H 0.70391 0.49609 0.3811 0.0
H1997 H 0.69058 0.48377 0.38701 0.0
H1998 H 0.68231 0.49087 0.36488 0.0
H1999 H 0.68094 0.5574 0.35167 0.0
H2000 H 0.45623 0.45985 0.0932 0.0
H2001 H 0.45593 0.52587 0.1067 0.0
H2002 H 0.44226 0.59786 0.07414 0.0
H2003 H 0.44266 0.53209 0.06047 0.0
H2004 H 0.45928 0.6412 0.08699 0.0
H2005 H 0.42875 0.58083 0.12268 0.0
H2006 H 0.44011 0.54514 0.12069 0.0
H2007 H 0.43119 0.55467 0.10698 0.0
C2008 C 0.45315 0.48969 0.0889 0.0
C2009 C 0.4494 0.49069 0.07579 0.0
C2010 C 0.45294 0.52731 0.09665 0.0
C2011 C 0.4489 0.56646 0.09147 0.0
C2012 C 0.44534 0.56782 0.07833 0.0
H2013 H 0.44065 0.82523 0.12596 0.0
H2014 H 0.44113 0.76327 0.11071 0.0
C2015 C 0.44557 0.53022 0.07055 0.0
C2016 C 0.44846 0.60604 0.09978 0.0
H2017 H 0.43786 0.64639 0.12838 0.0
C2018 C 0.45454 0.64256 0.09599 0.0
C2019 C 0.44223 0.6076 0.11147 0.0
C2020 C 0.43511 0.57014 0.11566 0.0
C2021 C 0.45481 0.68026 0.10384 0.0
C2022 C 0.44875 0.68143 0.11565 0.0
C2023 C 0.44254 0.64518 0.11933 0.0
C2024 C 0.44888 0.71958 0.12455 0.0
C2025 C 0.46181 0.71806 0.09965 0.0
C2026 C 0.45299 0.71525 0.13739 0.0
C2027 C 0.4527 0.75041 0.14612 0.0
C2028 C 0.44822 0.79048 0.14219 0.0
C2029 C 0.44418 0.79483 0.12927 0.0
C2030 C 0.44449 0.75958 0.12052 0.0
H2031 H 0.46763 0.70864 0.09181 0.0
H2032 H 0.45661 0.74451 0.09572 0.0
H2033 H 0.46635 0.73127 0.10821 0.0
H2034 H 0.45637 0.68453 0.14067 0.0
H2035 H 0.45588 0.74594 0.156 0.0
H2036 H 0.28815 0.96403 0.14876 0.0
H2037 H 0.28928 0.02929 0.13494 0.0
H2038 H 0.31251 0.08505 0.16177 0.0
H2039 H 0.31148 0.01989 0.17565 0.0
H2040 H 0.28496 0.11764 0.14366 0.0
H2041 H 0.32668 0.09537 0.12452 0.0
H2042 H 0.31896 0.05118 0.13157 0.0
H2043 H 0.32505 0.09122 0.14214 0.0
C2044 C 0.29355 0.99004 0.15169 0.0
C2045 C 0.29974 0.9868 0.16329 0.0
C2046 C 0.29417 0.02727 0.14379 0.0
C2047 C 0.30105 0.06163 0.14729 0.0
C2048 C 0.30727 0.05851 0.15883 0.0
H2049 H 0.31445 0.31149 0.10986 0.0
H2050 H 0.31417 0.24872 0.12481 0.0
C2051 C 0.30662 0.02137 0.16677 0.0
C2052 C 0.30143 0.10138 0.13909 0.0
H2053 H 0.31778 0.16088 0.11884 0.0
C2054 C 0.29212 0.12715 0.13821 0.0
C2055 C 0.31082 0.11365 0.13211 0.0
C2056 C 0.32094 0.08634 0.1325 0.0
C2057 C 0.29195 0.16518 0.13054 0.0
C2058 C 0.30128 0.17709 0.12336 0.0
C2059 C 0.31065 0.15159 0.12437 0.0
C2060 C 0.30138 0.21518 0.11441 0.0
C2061 C 0.28184 0.19257 0.13033 0.0
C2062 C 0.29437 0.21672 0.10355 0.0
C2063 C 0.29448 0.25247 0.09504 0.0
C2064 C 0.30167 0.28719 0.09716 0.0
C2065 C 0.30878 0.28533 0.10798 0.0
C2066 C 0.30865 0.24952 0.11652 0.0
H2067 H 0.27667 0.18607 0.13908 0.0
H2068 H 0.28381 0.22787 0.13007 0.0
H2069 H 0.27709 0.18456 0.12136 0.0
H2070 H 0.28886 0.19008 0.1016 0.0
H2071 H 0.28894 0.25273 0.08675 0.0
H2072 H 0.4582 0.28572 0.65273 0.0
H2073 H 0.45822 0.2165 0.64075 0.0
H2074 H 0.44253 0.15382 0.67369 0.0
H2075 H 0.44241 0.22295 0.68576 0.0
H2076 H 0.46719 0.13267 0.64888 0.0
H2077 H 0.4227 0.12943 0.64119 0.0
H2078 H 0.42983 0.17852 0.64573 0.0
H2079 H 0.42735 0.13706 0.65787 0.0
C2080 C 0.45478 0.25722 0.65746 0.0
C2081 C 0.45024 0.25987 0.67016 0.0
C2082 C 0.45482 0.21772 0.65061 0.0
C2083 C 0.45027 0.18034 0.6563 0.0
C2084 C 0.44595 0.18255 0.66908 0.0
H2085 H 0.43856 0.92824 0.61826 0.0
H2086 H 0.43989 0.98588 0.63495 0.0
C2087 C 0.44593 0.22202 0.67596 0.0
C2088 C 0.44991 0.13929 0.6487 0.0
H2089 H 0.4327 0.07094 0.63249 0.0
C2090 C 0.45966 0.11894 0.64536 0.0
C2091 C 0.44005 0.12147 0.64422 0.0
C2092 C 0.42937 0.14275 0.64733 0.0
C2093 C 0.45983 0.0814 0.63746 0.0
C2094 C 0.44999 0.06447 0.63257 0.0
C2095 C 0.44022 0.08405 0.63626 0.0
C2096 C 0.44969 0.02847 0.62286 0.0
C2097 C 0.47053 0.06026 0.6344 0.0
C2098 C 0.45469 0.03357 0.61053 0.0
C2099 C 0.45395 0.00086 0.60101 0.0
C2100 C 0.44811 0.96251 0.60359 0.0
C2101 C 0.44313 0.95737 0.61598 0.0
C2102 C 0.44388 0.9902 0.62552 0.0
H2103 H 0.47667 0.06824 0.64202 0.0
H2104 H 0.46975 0.02427 0.63373 0.0
H2105 H 0.47353 0.07259 0.62477 0.0
H2106 H 0.45899 0.0633 0.60816 0.0
H2107 H 0.45785 0.00596 0.59155 0.0
H2108 H 0.31359 0.43096 0.64271 0.0
H2109 H 0.31344 0.49954 0.63037 0.0
H2110 H 0.28336 0.53507 0.64886 0.0
H2111 H 0.28351 0.46702 0.6614 0.0
H2112 H 0.29846 0.53351 0.61279 0.0
H2113 H 0.3028 0.63937 0.65695 0.0
H2114 H 0.30505 0.58127 0.65749 0.0
H2115 H 0.29154 0.60263 0.65776 0.0
C2116 C 0.30692 0.45328 0.64412 0.0
C2117 C 0.29861 0.44375 0.65312 0.0
C2118 C 0.30685 0.49243 0.63707 0.0
C2119 C 0.2985 0.52266 0.63892 0.0
C2120 C 0.29001 0.51259 0.64755 0.0
H2121 H 0.2837 0.74351 0.58851 0.0
H2122 H 0.28335 0.67519 0.60093 0.0
C2123 C 0.29008 0.47357 0.65464 0.0
C2124 C 0.29868 0.56479 0.63183 0.0
H2125 H 0.29912 0.67492 0.63659 0.0
C2126 C 0.29862 0.56446 0.61797 0.0
C2127 C 0.29906 0.60502 0.63865 0.0
C2128 C 0.29972 0.60728 0.65353 0.0
C2129 C 0.29877 0.60341 0.61072 0.0
C2130 C 0.29877 0.64365 0.61755 0.0
C2131 C 0.299 0.64397 0.6314 0.0
C2132 C 0.29874 0.68582 0.61048 0.0
C2133 C 0.29913 0.60112 0.59583 0.0
C2134 C 0.30732 0.71511 0.61213 0.0
C2135 C 0.30751 0.75438 0.60515 0.0
C2136 C 0.29909 0.76501 0.59642 0.0
C2137 C 0.29035 0.73611 0.59508 0.0
C2138 C 0.29016 0.69694 0.6021 0.0
H2139 H 0.30191 0.56871 0.59231 0.0
H2140 H 0.2909 0.60671 0.59184 0.0
H2141 H 0.30455 0.62654 0.59172 0.0
H2142 H 0.31398 0.70719 0.61864 0.0
H2143 H 0.31434 0.77597 0.60643 0.0
H2144 H 0.01983 0.68204 0.39226 0.0
H2145 H 0.01719 0.74771 0.37893 0.0
H2146 H 0.03764 0.82014 0.4055 0.0
H2147 H 0.0405 0.75456 0.41875 0.0
H2148 H 0.00962 0.83266 0.38434 0.0
H2149 H 0.05277 0.83128 0.3696 0.0
H2150 H 0.04642 0.78573 0.37776 0.0
H2151 H 0.05063 0.83251 0.38715 0.0
C2152 C 0.02367 0.71205 0.39536 0.0
C2153 C 0.03051 0.71297 0.40645 0.0
C2154 C 0.02213 0.74953 0.38774 0.0
C2155 C 0.02739 0.78843 0.39111 0.0
C2156 C 0.0337 0.79012 0.4026 0.0
H2157 H 0.01977 0.04608 0.35702 0.0
H2158 H 0.01835 0.98117 0.37093 0.0
C2159 C 0.03529 0.75265 0.41018 0.0
C2160 C 0.02683 0.82645 0.38217 0.0
H2161 H 0.04246 0.89227 0.36293 0.0
C2162 C 0.01678 0.84575 0.37962 0.0
C2163 C 0.03617 0.84282 0.37586 0.0
C2164 C 0.0471 0.82182 0.3776 0.0
C2165 C 0.01585 0.88164 0.37108 0.0
C2166 C 0.02525 0.89885 0.36512 0.0
C2167 C 0.03527 0.87912 0.36756 0.0
C2168 C 0.02501 0.93729 0.3563 0.0
C2169 C 0.00481 0.90026 0.36832 0.0
C2170 C 0.02928 0.9342 0.34349 0.0
C2171 C 0.03024 0.97126 0.3356 0.0
C2172 C 0.02694 0.01217 0.34037 0.0
C2173 C 0.02233 0.01499 0.35304 0.0
C2174 C 0.02145 0.97787 0.36097 0.0
H2175 H -0.00167 0.87638 0.37057 0.0
H2176 H 0.00352 0.92931 0.37466 0.0
H2177 H 0.00406 0.91053 0.35784 0.0
H2178 H 0.03211 0.90317 0.33972 0.0
H2179 H 0.03379 0.96798 0.32587 0.0
H2180 H 0.23425 0.53 0.3974 0.0
H2181 H 0.23565 0.46319 0.38423 0.0
H2182 H 0.20277 0.43069 0.39407 0.0
H2183 H 0.20136 0.4965 0.40742 0.0
H2184 H 0.21637 0.36001 0.39542 0.0
H2185 H 0.22145 0.44986 0.34805 0.0
H2186 H 0.23127 0.4617 0.36061 0.0
H2187 H 0.2174 0.47655 0.36314 0.0
C2188 C 0.22735 0.50845 0.39682 0.0
C2189 C 0.21767 0.51872 0.40337 0.0
C2190 C 0.22815 0.47044 0.38924 0.0
C2191 C 0.21925 0.44245 0.38801 0.0
C2192 C 0.20972 0.45196 0.39487 0.0
H2193 H 0.19843 0.26378 0.32925 0.0
H2194 H 0.20248 0.32513 0.34379 0.0
C2195 C 0.20893 0.48967 0.40248 0.0
C2196 C 0.21961 0.4038 0.37928 0.0
H2197 H 0.22096 0.37335 0.34689 0.0
C2198 C 0.21748 0.36275 0.38481 0.0
C2199 C 0.22095 0.40775 0.36545 0.0
C2200 C 0.22281 0.45132 0.3589 0.0
C2201 C 0.21634 0.32563 0.37685 0.0
C2202 C 0.21761 0.32964 0.36301 0.0
C2203 C 0.22005 0.37045 0.35752 0.0
C2204 C 0.21558 0.29267 0.35396 0.0
C2205 C 0.21328 0.28296 0.38327 0.0
C2206 C 0.22171 0.25432 0.35474 0.0
C2207 C 0.21935 0.21899 0.34652 0.0
C2208 C 0.2109 0.22171 0.33727 0.0
C2209 C 0.20498 0.26063 0.33628 0.0
C2210 C 0.20729 0.29574 0.34456 0.0
H2211 H 0.21026 0.28762 0.39351 0.0
H2212 H 0.20697 0.26594 0.37744 0.0
H2213 H 0.22048 0.26153 0.38373 0.0
H2214 H 0.22828 0.25164 0.36174 0.0
H2215 H 0.22412 0.18958 0.34743 0.0
H2216 H 0.02132 0.53898 0.85414 0.0
H2217 H 0.01898 0.47598 0.86871 0.0
H2218 H 0.03701 0.39618 0.84145 0.0
H2219 H 0.03954 0.45896 0.82694 0.0
H2220 H 0.00994 0.39252 0.86457 0.0
H2221 H 0.0536 0.38415 0.87636 0.0
H2222 H 0.04756 0.43067 0.86834 0.0
H2223 H 0.05076 0.38256 0.85898 0.0
C2224 C 0.02473 0.50797 0.85121 0.0
C2225 C 0.03072 0.50406 0.83946 0.0
C2226 C 0.02337 0.47204 0.85953 0.0
C2227 C 0.02798 0.43174 0.85624 0.0
C2228 C 0.03357 0.42729 0.84427 0.0
H2229 H 0.01859 0.17457 0.88846 0.0
H2230 H 0.01703 0.24243 0.87595 0.0
C2231 C 0.03498 0.46317 0.83598 0.0
C2232 C 0.02729 0.39463 0.86552 0.0
H2233 H 0.04284 0.32443 0.88336 0.0
C2234 C 0.01711 0.3777 0.86877 0.0
C2235 C 0.03665 0.37602 0.87115 0.0
C2236 C 0.04776 0.3945 0.86865 0.0
C2237 C 0.01608 0.34164 0.87722 0.0
C2238 C 0.02549 0.32178 0.88235 0.0
C2239 C 0.03563 0.33953 0.87936 0.0
C2240 C 0.02515 0.28199 0.89061 0.0
C2241 C 0.00494 0.32541 0.88067 0.0
C2242 C 0.03024 0.28168 0.903 0.0
C2243 C 0.03128 0.24288 0.91007 0.0
C2244 C 0.02724 0.20363 0.90489 0.0
C2245 C 0.02173 0.20432 0.89274 0.0
C2246 C 0.02077 0.24314 0.88562 0.0
H2247 H -0.00123 0.35132 0.87935 0.0
H2248 H 0.00281 0.29796 0.87403 0.0
H2249 H 0.0046 0.31354 0.89103 0.0
H2250 H 0.03369 0.3113 0.90701 0.0
H2251 H 0.03552 0.24346 0.91943 0.0
H2252 H 0.20908 0.97937 0.92058 0.0
H2253 H 0.21171 0.91384 0.90727 0.0
H2254 H 0.22276 0.9927 0.87468 0.0
H2255 H 0.22037 0.05842 0.88801 0.0
H2256 H 0.2007 0.89809 0.88462 0.0
H2257 H 0.24471 0.89393 0.87486 0.0
H2258 H 0.23882 0.9272 0.8877 0.0
H2259 H 0.23849 0.94505 0.87078 0.0
C2260 C 0.21224 0.98276 0.91066 0.0
C2261 C 0.21446 0.02409 0.90532 0.0
C2262 C 0.21375 0.94528 0.90308 0.0
C2263 C 0.21751 0.9484 0.89004 0.0
C2264 C 0.22007 0.98949 0.88481 0.0
H2265 H 0.20344 0.76134 0.82856 0.0
H2266 H 0.20558 0.82724 0.84187 0.0
C2267 C 0.21862 0.02704 0.89242 0.0
C2268 C 0.21767 0.90921 0.88154 0.0
H2269 H 0.23374 0.84649 0.86181 0.0
C2270 C 0.20794 0.88666 0.8797 0.0
C2271 C 0.22714 0.89428 0.8752 0.0
C2272 C 0.23791 0.9161 0.87732 0.0
C2273 C 0.20738 0.84986 0.87156 0.0
C2274 C 0.21676 0.83582 0.86485 0.0
C2275 C 0.22655 0.85782 0.86684 0.0
C2276 C 0.2165 0.79771 0.85594 0.0
C2277 C 0.19677 0.82598 0.87036 0.0
C2278 C 0.22231 0.75997 0.85916 0.0
C2279 C 0.22117 0.72231 0.85153 0.0
C2280 C 0.21419 0.7219 0.84057 0.0
C2281 C 0.20879 0.76047 0.83702 0.0
C2282 C 0.20998 0.79811 0.84462 0.0
H2283 H 0.19118 0.8343 0.87856 0.0
H2284 H 0.19282 0.83524 0.86093 0.0
H2285 H 0.19804 0.79014 0.8703 0.0
H2286 H 0.22743 0.75919 0.86784 0.0
H2287 H 0.22548 0.69319 0.85448 0.0
H2288 H 0.96367 0.21872 0.58379 0.0
H2289 H 0.96397 0.15581 0.59857 0.0
H2290 H 0.97553 0.23709 0.63031 0.0
H2291 H 0.97538 0.30039 0.61555 0.0
H2292 H 0.98571 0.15277 0.62848 0.0
H2293 H 0.94099 0.14388 0.62805 0.0
H2294 H 0.947 0.14366 0.6119 0.0
H2295 H 0.94832 0.191 0.62225 0.0
C2296 C 0.96638 0.22324 0.59388 0.0
C2297 C 0.96938 0.26467 0.59855 0.0
C2298 C 0.96651 0.18727 0.6023 0.0
C2299 C 0.96958 0.19211 0.61556 0.0
C2300 C 0.97308 0.23289 0.62011 0.0
H2301 H 0.95137 0.99781 0.67394 0.0
H2302 H 0.95508 0.06726 0.66302 0.0
C2303 C 0.97297 0.26896 0.61167 0.0
C2304 C 0.96862 0.15494 0.62475 0.0
H2305 H 0.95027 0.08383 0.63757 0.0
C2306 C 0.97797 0.13779 0.63058 0.0
C2307 C 0.95848 0.13615 0.62763 0.0
C2308 C 0.9481 0.15481 0.62224 0.0
C2309 C 0.97748 0.10113 0.63887 0.0
C2310 C 0.96738 0.08099 0.64119 0.0
C2311 C 0.95801 0.09916 0.63571 0.0
C2312 C 0.9663 0.04013 0.64885 0.0
C2313 C 0.98773 0.08443 0.64509 0.0
C2314 C 0.97147 0.00196 0.64459 0.0
C2315 C 0.9694 0.96225 0.65084 0.0
C2316 C 0.96202 0.95996 0.66136 0.0
C2317 C 0.95707 -0.00154 0.66584 0.0
C2318 C 0.95919 0.03818 0.65963 0.0
H2319 H 0.99395 0.11042 0.64572 0.0
H2320 H 0.98622 0.07143 0.65516 0.0
H2321 H 0.99105 0.05771 0.63891 0.0
H2322 H 0.97678 0.00253 0.63609 0.0
H2323 H 0.97331 0.93315 0.64712 0.0
H2324 H 0.8001 0.51682 0.578 0.0
H2325 H 0.79573 0.57986 0.59165 0.0
H2326 H 0.76229 0.54117 0.59237 0.0
H2327 H 0.76657 0.47791 0.57848 0.0
H2328 H 0.7657 0.63286 0.58917 0.0
H2329 H 0.78879 0.56475 0.63123 0.0
H2330 H 0.79657 0.56732 0.6163 0.0
H2331 H 0.78492 0.53241 0.6171 0.0
C2332 C 0.79179 0.52182 0.58095 0.0
C2333 C 0.7837 0.49209 0.5773 0.0
C2334 C 0.78932 0.55778 0.58879 0.0
C2335 C 0.77874 0.56449 0.59324 0.0
C2336 C 0.77052 0.53621 0.5891 0.0
H2337 H 0.77278 0.74713 0.65888 0.0
H2338 H 0.76947 0.6833 0.64498 0.0
C2339 C 0.77298 0.50018 0.58117 0.0
C2340 C 0.77649 0.60024 0.60261 0.0
H2341 H 0.78462 0.64081 0.63231 0.0
C2342 C 0.7697 0.63446 0.59869 0.0
C2343 C 0.78149 0.60161 0.61515 0.0
C2344 C 0.78826 0.56433 0.62027 0.0
C2345 C 0.76831 0.67141 0.60671 0.0
C2346 C 0.77404 0.6743 0.61878 0.0
C2347 C 0.78031 0.63885 0.623 0.0
C2348 C 0.77437 0.7147 0.62679 0.0
C2349 C 0.76081 0.70702 0.60212 0.0
C2350 C 0.77808 0.75371 0.62115 0.0
C2351 C 0.7799 0.79029 0.62904 0.0
C2352 C 0.77823 0.78828 0.64276 0.0
C2353 C 0.7742 0.7496 0.64834 0.0
C2354 C 0.77228 0.71316 0.64042 0.0
H2355 H 0.75434 0.69374 0.59567 0.0
H2356 H 0.75702 0.72419 0.61059 0.0
H2357 H 0.76544 0.7311 0.59623 0.0
H2358 H 0.78005 0.75537 0.61074 0.0
H2359 H 0.78305 0.81954 0.62445 0.0
H2360 H 0.98199 0.47062 0.14496 0.0
H2361 H 0.98516 0.53302 0.1304 0.0
H2362 H 0.95995 0.60448 0.15024 0.0
H2363 H 0.95682 0.54274 0.16492 0.0
H2364 H 0.97002 0.56652 0.11342 0.0
H2365 H 0.98381 0.695 0.14782 0.0
H2366 H 0.98381 0.63789 0.15218 0.0
H2367 H 0.9716 0.66943 0.15334 0.0
C2368 C 0.97724 0.4999 0.14638 0.0
C2369 C 0.96913 0.50171 0.15608 0.0
C2370 C 0.97908 0.53549 0.13805 0.0
C2371 C 0.9729 0.57355 0.13937 0.0
C2372 C 0.96499 0.57581 0.14926 0.0
H2373 H 0.95217 0.79638 0.09832 0.0
H2374 H 0.95664 0.73708 0.1134 0.0
C2375 C 0.96316 0.54032 0.15758 0.0
C2376 C 0.97388 0.60925 0.12962 0.0
H2377 H 0.97638 0.71967 0.12707 0.0
C2378 C 0.97164 0.59992 0.11632 0.0
C2379 C 0.97601 0.6527 0.13347 0.0
C2380 C 0.97905 0.66432 0.14747 0.0
C2381 C 0.97078 0.63329 0.10691 0.0
C2382 C 0.97237 0.67697 0.11091 0.0
C2383 C 0.97513 0.6861 0.12407 0.0
C2384 C 0.97018 0.71382 0.1019 0.0
C2385 C 0.96759 0.62183 0.09294 0.0
C2386 C 0.97641 0.72061 0.09052 0.0
C2387 C 0.97385 0.75447 0.0818 0.0
C2388 C 0.96504 0.78209 0.0844 0.0
C2389 C 0.95897 0.7756 0.09598 0.0
C2390 C 0.96154 0.74184 0.10464 0.0
H2391 H 0.96493 0.58738 0.09202 0.0
H2392 H 0.96098 0.64338 0.08947 0.0
H2393 H 0.97461 0.62673 0.0863 0.0
H2394 H 0.9832 0.69961 0.08834 0.0
H2395 H 0.97872 0.75882 0.07302 0.0
H2396 H 0.77475 0.30245 0.13886 0.0
H2397 H 0.7726 0.23611 0.12575 0.0
H2398 H 0.78906 0.16219 0.15589 0.0
H2399 H 0.79145 0.22845 0.16894 0.0
H2400 H 0.79745 0.14887 0.13148 0.0
H2401 H 0.75295 0.13082 0.12991 0.0
H2402 H 0.75759 0.18353 0.1247 0.0
H2403 H 0.75968 0.16637 0.1415 0.0
C2404 C 0.77779 0.27198 0.14278 0.0
C2405 C 0.7833 0.27072 0.15492 0.0
C2406 C 0.77648 0.23404 0.13531 0.0
C2407 C 0.78055 0.19416 0.13993 0.0
C2408 C 0.78582 0.19265 0.15218 0.0
H2409 H 0.77253 0.93666 0.1056 0.0
H2410 H 0.77139 0.00179 0.11949 0.0
C2411 C 0.78718 0.23055 0.15962 0.0
C2412 C 0.78013 0.15474 0.13152 0.0
H2413 H 0.76306 0.08654 0.11497 0.0
C2414 C 0.78992 0.1351 0.12793 0.0
C2415 C 0.7703 0.13667 0.127 0.0
C2416 C 0.75952 0.15515 0.13107 0.0
C2417 C 0.79018 0.09822 0.11979 0.0
C2418 C 0.78038 0.08111 0.11486 0.0
C2419 C 0.77056 0.10017 0.11863 0.0
C2420 C 0.78023 0.04298 0.10594 0.0
C2421 C 0.80093 0.07756 0.11666 0.0
C2422 C 0.78531 0.04507 0.09358 0.0
C2423 C 0.78603 0.00796 0.08565 0.0
C2424 C 0.7816 0.96818 0.08992 0.0
C2425 C 0.77607 0.96674 0.10205 0.0
C2426 C 0.77539 0.0039 0.10999 0.0
H2427 H 0.80726 0.0876 0.12382 0.0
H2428 H 0.80034 0.04144 0.11673 0.0
H2429 H 0.80356 0.08795 0.10666 0.0
H2430 H 0.78891 0.07522 0.09018 0.0
H2431 H 0.79025 0.01027 0.07631 0.0
H2432 H 0.52814 0.76892 0.91907 0.0
H2433 H 0.52243 0.8345 0.9072 0.0
H2434 H 0.52896 0.77072 0.87006 0.0
H2435 H 0.53437 0.70489 0.88178 0.0
H2436 H 0.53508 0.88265 0.89187 0.0
H2437 H 0.50046 0.82676 0.86198 0.0
H2438 H 0.50574 0.79538 0.87563 0.0
H2439 H 0.51197 0.79232 0.85957 0.0
C2440 C 0.5282 0.76866 0.90837 0.0
C2441 C 0.53173 0.73177 0.90136 0.0
C2442 C 0.5249 0.80609 0.90161 0.0
C2443 C 0.52509 0.80726 0.88774 0.0
C2444 C 0.52844 0.77018 0.88074 0.0
H2445 H 0.53283 0.99097 0.82668 0.0
H2446 H 0.52985 0.92697 0.84059 0.0
C2447 C 0.53164 0.73267 0.88747 0.0
C2448 C 0.52299 0.84854 0.8806 0.0
H2449 H 0.50967 0.89147 0.85408 0.0
C2450 C 0.52935 0.88489 0.8838 0.0
C2451 C 0.51551 0.85139 0.87007 0.0
C2452 C 0.50796 0.81446 0.86671 0.0
C2453 C 0.52887 0.92318 0.87629 0.0
C2454 C 0.52179 0.92519 0.86536 0.0
C2455 C 0.51511 0.88959 0.86245 0.0
C2456 C 0.52196 0.96274 0.85627 0.0
C2457 C 0.53632 0.96049 0.87966 0.0
C2458 C 0.51819 0.00363 0.86036 0.0
C2459 C 0.51987 0.0403 0.85243 0.0
C2460 C 0.5254 0.03654 0.84035 0.0
C2461 C 0.52862 0.99502 0.83598 0.0
C2462 C 0.52689 0.9584 0.84388 0.0
H2463 H 0.54226 0.9516 0.88742 0.0
H2464 H 0.54076 0.97137 0.87072 0.0
H2465 H 0.53148 0.98851 0.88328 0.0
H2466 H 0.51431 0.00739 0.86988 0.0
H2467 H 0.51724 0.07179 0.85605 0.0
H2468 H 0.70295 0.46446 0.91315 0.0
H2469 H 0.70635 0.40203 0.89884 0.0
H2470 H 0.73357 0.46857 0.88158 0.0
H2471 H 0.73009 0.53179 0.8957 0.0
H2472 H 0.72044 0.4349 0.86299 0.0
H2473 H 0.72923 0.30858 0.90038 0.0
H2474 H 0.7167 0.33552 0.90378 0.0
H2475 H 0.72912 0.366 0.90429 0.0
C2476 C 0.70975 0.46568 0.90643 0.0
C2477 C 0.71626 0.50307 0.90557 0.0
C2478 C 0.71173 0.4298 0.89832 0.0
C2479 C 0.72034 0.43034 0.88932 0.0
C2480 C 0.72694 0.46739 0.88854 0.0
H2481 H 0.73108 0.18795 0.84537 0.0
H2482 H 0.73486 0.25356 0.85833 0.0
C2483 C 0.72493 0.50345 0.89661 0.0
C2484 C 0.72188 0.39344 0.8801 0.0
H2485 H 0.72344 0.28255 0.87899 0.0
C2486 C 0.72129 0.40163 0.86647 0.0
C2487 C 0.72321 0.35017 0.88463 0.0
C2488 C 0.72472 0.33958 0.89907 0.0
C2489 C 0.72133 0.36741 0.85728 0.0
C2490 C 0.72173 0.32392 0.8619 0.0
C2491 C 0.72299 0.3159 0.87547 0.0
C2492 C 0.72002 0.28625 0.853 0.0
C2493 C 0.72082 0.37821 0.84275 0.0
C2494 C 0.71044 0.28299 0.84567 0.0
C2495 C 0.70828 0.24576 0.83822 0.0
C2496 C 0.7156 0.21075 0.8381 0.0
C2497 C 0.72528 0.21436 0.84526 0.0
C2498 C 0.72746 0.25179 0.85267 0.0
H2499 H 0.72436 0.41081 0.84072 0.0
H2500 H 0.72513 0.35354 0.83672 0.0
H2501 H 0.71225 0.37907 0.83957 0.0
H2502 H 0.70445 0.30865 0.84606 0.0
H2503 H 0.70072 0.24393 0.83288 0.0
H2504 H 0.53845 0.48234 0.32686 0.0
H2505 H 0.53729 0.41637 0.34027 0.0
H2506 H 0.52114 0.48865 0.37102 0.0
H2507 H 0.52202 0.55466 0.35751 0.0
H2508 H 0.54686 0.40595 0.36387 0.0
H2509 H 0.50282 0.37947 0.36901 0.0
H2510 H 0.50848 0.41602 0.35687 0.0
H2511 H 0.50704 0.43319 0.37377 0.0
C2512 C 0.5345 0.48408 0.33639 0.0
C2513 C 0.53035 0.52372 0.34115 0.0
C2514 C 0.53384 0.44635 0.34403 0.0
C2515 C 0.52904 0.44751 0.35658 0.0
C2516 C 0.52466 0.48679 0.36124 0.0
H2517 H 0.5445 0.2662 0.41943 0.0
H2518 H 0.54187 0.33084 0.40569 0.0
C2519 C 0.52523 0.52455 0.35354 0.0
C2520 C 0.52953 0.40858 0.3652 0.0
H2521 H 0.5142 0.33798 0.38331 0.0
C2522 C 0.53971 0.39095 0.36806 0.0
C2523 C 0.52019 0.3889 0.37057 0.0
C2524 C 0.509 0.40507 0.36731 0.0
C2525 C 0.54084 0.35442 0.37623 0.0
C2526 C 0.53153 0.33569 0.38199 0.0
C2527 C 0.52132 0.35285 0.379 0.0
C2528 C 0.53229 0.29765 0.39091 0.0
C2529 C 0.55197 0.33577 0.37843 0.0
C2530 C 0.52739 0.2581 0.38742 0.0
C2531 C 0.52879 0.22118 0.39532 0.0
C2532 C 0.53512 0.22328 0.40683 0.0
C2533 C 0.53968 0.26341 0.41055 0.0
C2534 C 0.53822 0.30033 0.40269 0.0
H2535 H 0.55772 0.34644 0.37065 0.0
H2536 H 0.5551 0.34725 0.38809 0.0
H2537 H 0.55176 0.29959 0.37858 0.0
H2538 H 0.52274 0.25549 0.37839 0.0
H2539 H 0.52514 0.19079 0.39221 0.0
H2540 H 0.7264 0.0727 0.38588 0.0
H2541 H 0.72737 0.00913 0.3713 0.0
H2542 H 0.70799 0.93547 0.39874 0.0
H2543 H 0.70683 -0.00118 0.41328 0.0
H2544 H 0.73475 0.92265 0.37562 0.0
H2545 H 0.69107 0.92898 0.36379 0.0
H2546 H 0.69808 0.97353 0.37166 0.0
H2547 H 0.6939 0.92699 0.38118 0.0
C2548 C 0.72239 0.04289 0.38885 0.0
C2549 C 0.71644 0.04093 0.40066 0.0
C2550 C 0.72298 0.00664 0.38052 0.0
C2551 C 0.71759 0.96799 0.38386 0.0
C2552 C 0.71202 0.96536 0.39588 0.0
H2553 H 0.72186 0.70785 0.35264 0.0
H2554 H 0.72436 0.77548 0.365 0.0
C2555 C 0.7114 0.00154 0.4042 0.0
C2556 C 0.71751 0.93071 0.37461 0.0
H2557 H 0.70056 0.86564 0.35689 0.0
C2558 C 0.7273 0.91026 0.37144 0.0
C2559 C 0.70779 0.91527 0.369 0.0
C2560 C 0.69712 0.93754 0.37146 0.0
C2561 C 0.72757 0.87371 0.36309 0.0
C2562 C 0.71778 0.85701 0.358 0.0
C2563 C 0.70805 0.87833 0.36088 0.0
C2564 C 0.71731 0.81679 0.34996 0.0
C2565 C 0.73833 0.85352 0.35975 0.0
C2566 C 0.71244 0.81752 0.33744 0.0
C2567 C 0.71087 0.77887 0.33043 0.0
C2568 C 0.71413 0.73874 0.33582 0.0
C2569 C 0.7193 0.73825 0.34819 0.0
C2570 C 0.72081 0.77692 0.35523 0.0
H2571 H 0.74503 0.8772 0.36103 0.0
H2572 H 0.73984 0.82564 0.36648 0.0
H2573 H 0.73844 0.84124 0.34943 0.0
H2574 H 0.70964 0.84796 0.33323 0.0
H2575 H 0.70689 0.78038 0.32091 0.0
H2576 H 0.45767 0.22693 0.0757 0.0
H2577 H 0.45957 0.16345 0.0901 0.0
H2578 H 0.4727 0.24507 0.12083 0.0
H2579 H 0.47101 0.30878 0.10643 0.0
H2580 H 0.48339 0.16426 0.11811 0.0
H2581 H 0.43895 0.14497 0.12135 0.0
H2582 H 0.44404 0.14522 0.10474 0.0
H2583 H 0.44524 0.19337 0.11476 0.0
C2584 C 0.46105 0.23138 0.08548 0.0
C2585 C 0.46407 0.27298 0.08999 0.0
C2586 C 0.46209 0.1951 0.0937 0.0
C2587 C 0.46607 0.19983 0.10659 0.0
C2588 C 0.46955 0.24089 0.11093 0.0
H2589 H 0.45372 0.00926 0.16796 0.0
H2590 H 0.45587 0.07717 0.15564 0.0
C2591 C 0.46856 0.27722 0.10269 0.0
C2592 C 0.46614 0.16226 0.11574 0.0
H2593 H 0.44956 0.088 0.13041 0.0
C2594 C 0.47601 0.14761 0.12087 0.0
C2595 C 0.45646 0.14127 0.11949 0.0
C2596 C 0.44555 0.1572 0.11491 0.0
C2597 C 0.47648 0.11161 0.12943 0.0
C2598 C 0.46683 0.0895 0.13272 0.0
C2599 C 0.45695 0.10486 0.12781 0.0
C2600 C 0.4667 0.04985 0.14105 0.0
C2601 C 0.48725 0.09794 0.13497 0.0
C2602 C 0.47219 0.01213 0.13703 0.0
C2603 C 0.47103 0.9733 0.1441 0.0
C2604 C 0.46423 0.97143 0.15521 0.0
C2605 C 0.45899 0.00959 0.15942 0.0
C2606 C 0.46021 0.04843 0.1524 0.0
H2607 H 0.49316 0.12516 0.13474 0.0
H2608 H 0.48646 0.08622 0.14531 0.0
H2609 H 0.49055 0.07094 0.12889 0.0
H2610 H 0.47705 0.01223 0.12813 0.0
H2611 H 0.47514 0.9444 0.14056 0.0
H2612 H 0.27432 0.81504 0.1345 0.0
H2613 H 0.2717 0.75003 0.12087 0.0
H2614 H 0.27725 0.66831 0.15484 0.0
H2615 H 0.27999 0.73303 0.16857 0.0
H2616 H 0.2899 0.68338 0.12044 0.0
H2617 H 0.24967 0.61708 0.1343 0.0
H2618 H 0.25296 0.67434 0.13571 0.0
H2619 H 0.25828 0.63616 0.14744 0.0
C2620 C 0.27478 0.78328 0.13914 0.0
C2621 C 0.27746 0.77912 0.15259 0.0
C2622 C 0.27326 0.74625 0.13134 0.0
C2623 C 0.27422 0.70462 0.13691 0.0
C2624 C 0.27636 0.70031 0.15044 0.0
H2625 H 0.27873 0.43927 0.11104 0.0
H2626 H 0.27546 0.50758 0.1228 0.0
C2627 C 0.27798 0.73728 0.15824 0.0
C2628 C 0.27439 0.66583 0.12833 0.0
H2629 H 0.26078 0.57244 0.12088 0.0
C2630 C 0.2835 0.65926 0.12038 0.0
C2631 C 0.26607 0.63449 0.1285 0.0
C2632 C 0.25613 0.6407 0.13688 0.0
C2633 C 0.28468 0.62129 0.11285 0.0
C2634 C 0.27633 0.58978 0.11294 0.0
C2635 C 0.26713 0.59677 0.12076 0.0
C2636 C 0.2773 0.54842 0.1055 0.0
C2637 C 0.29509 0.61452 0.10536 0.0
C2638 C 0.27911 0.54865 0.0918 0.0
C2639 C 0.28118 0.50975 0.08511 0.0
C2640 C 0.28121 0.46989 0.09195 0.0
C2641 C 0.27879 0.46951 0.10551 0.0
C2642 C 0.2769 0.50849 0.11224 0.0
H2643 H 0.30167 0.63559 0.1092 0.0
H2644 H 0.29778 0.58004 0.10592 0.0
H2645 H 0.29382 0.623 0.09481 0.0
H2646 H 0.27915 0.57901 0.08635 0.0
H2647 H 0.28286 0.51095 0.07461 0.0
H2648 H 0.45559 0.52465 0.66445 0.0
H2649 H 0.45747 0.58671 0.64954 0.0
H2650 H 0.47151 0.50307 0.61993 0.0
H2651 H 0.4698 0.44062 0.63487 0.0
H2652 H 0.48205 0.58471 0.62272 0.0
H2653 H 0.43776 0.60264 0.6172 0.0
H2654 H 0.44217 0.60282 0.6341 0.0
H2655 H 0.44391 0.55459 0.62422 0.0
C2656 C 0.45913 0.5194 0.6548 0.0
C2657 C 0.46244 0.47761 0.65079 0.0
C2658 C 0.46016 0.55488 0.64628 0.0
C2659 C 0.46443 0.5492 0.63357 0.0
C2660 C 0.46813 0.50795 0.62969 0.0
H2661 H 0.45368 0.74867 0.57393 0.0
H2662 H 0.45552 0.67805 0.58486 0.0
C2663 C 0.46713 0.47236 0.63823 0.0
C2664 C 0.46472 0.58626 0.62425 0.0
H2665 H 0.44854 0.66139 0.60933 0.0
C2666 C 0.47473 0.60133 0.61967 0.0
C2667 C 0.45515 0.60721 0.6201 0.0
C2668 C 0.44413 0.59077 0.62404 0.0
C2669 C 0.47544 0.63807 0.61144 0.0
C2670 C 0.46589 0.66051 0.60792 0.0
C2671 C 0.45587 0.64435 0.61211 0.0
C2672 C 0.46602 0.70181 0.60036 0.0
C2673 C 0.48638 0.6524 0.60658 0.0
C2674 C 0.47142 0.73846 0.60535 0.0
C2675 C 0.47044 0.77883 0.59908 0.0
C2676 C 0.4639 0.78333 0.58781 0.0
C2677 C 0.45874 0.7463 0.58262 0.0
C2678 C 0.4598 0.70591 0.58884 0.0
H2679 H 0.49221 0.62487 0.60653 0.0
H2680 H 0.48589 0.66624 0.59646 0.0
H2681 H 0.48959 0.67787 0.6133 0.0
H2682 H 0.47605 0.7363 0.61441 0.0
H2683 H 0.47447 0.80678 0.60336 0.0
H2684 H 0.2944 0.99224 0.58594 0.0
H2685 H 0.29122 0.05502 0.60021 0.0
H2686 H 0.26041 0.00184 0.61169 0.0
H2687 H 0.26362 0.93822 0.59761 0.0
H2688 H 0.27492 0.11658 0.60052 0.0
H2689 H 0.27568 0.02008 0.64707 0.0
H2690 H 0.28004 -0.00211 0.63145 0.0
H2691 H 0.2659 0.00317 0.63502 0.0
C2692 C 0.28692 0.99389 0.59145 0.0
C2693 C 0.27931 0.96003 0.59075 0.0
C2694 C 0.28511 0.02985 0.59958 0.0
C2695 C 0.27566 0.03269 0.60715 0.0
C2696 C 0.26785 -0.00022 0.60612 0.0
H2697 H 0.26352 0.27653 0.65054 0.0
H2698 H 0.26054 0.21279 0.63643 0.0
C2699 C 0.26968 0.9636 0.59803 0.0
C2700 C 0.27424 0.06975 0.61633 0.0
H2701 H 0.27319 0.09579 0.64909 0.0
C2702 C 0.27443 0.11214 0.61114 0.0
C2703 C 0.2737 0.06364 0.63017 0.0
C2704 C 0.2739 0.01881 0.63632 0.0
C2705 C 0.27442 0.14874 0.61944 0.0
C2706 C 0.27397 0.14263 0.63329 0.0
C2707 C 0.27345 0.10025 0.63846 0.0
C2708 C 0.2751 0.17954 0.64258 0.0
C2709 C 0.27543 0.19347 0.61334 0.0
C2710 C 0.28403 0.18105 0.65109 0.0
C2711 C 0.28568 0.21706 0.65924 0.0
C2712 C 0.27845 0.25233 0.65902 0.0
C2713 C 0.26929 0.25005 0.65084 0.0
C2714 C 0.2676 0.2138 0.64273 0.0
H2715 H 0.27795 0.19186 0.60281 0.0
H2716 H 0.2675 0.21018 0.61378 0.0
H2717 H 0.28137 0.21359 0.61883 0.0
H2718 H 0.28989 0.15484 0.65114 0.0
H2719 H 0.2928 0.21772 0.66545 0.0
loop_
_geom_bond_atom_site_label_1
_geom_bond_atom_site_label_2
_geom_bond_distance
_geom_bond_site_symmetry_2
_ccdc_geom_bond_type
C0 O1 1.160 . S
C0 O7 1.185 . S
O1 C0 1.160 . S
O2 Zn3 1.899 . S
O2 C10 1.284 . S
Zn3 O2 1.899 . S
Zn3 O4 2.032 . S
Zn3 O7 2.086 . S
Zn3 O12 1.977 . S
O4 Zn3 2.032 . S
O4 C8 1.278 . S
C5 O6 1.203 . S
C5 O12 1.267 . S
O6 C5 1.203 . S
O7 C0 1.185 . S
O7 Zn3 2.086 . S
C8 O4 1.278 . S
C8 O9 1.211 . S
O9 C8 1.211 . S
C10 O2 1.284 . S
C10 O11 1.273 . S
O11 C10 1.273 . S
O12 Zn3 1.977 . S
O12 C5 1.267 . S
C13 O14 1.160 . S
C13 O20 1.185 . S
O14 C13 1.160 . S
O15 Zn16 1.899 . S
O15 C23 1.284 . S
Zn16 O15 1.899 . S
Zn16 O17 2.032 . S
Zn16 O20 2.086 . S
Zn16 O25 1.977 . S
O17 Zn16 2.032 . S
O17 C21 1.278 . S
C18 O19 1.203 . S
C18 O25 1.267 . S
O19 C18 1.203 . S
O20 C13 1.185 . S
O20 Zn16 2.086 . S
C21 O17 1.278 . S
C21 O22 1.211 . S
O22 C21 1.211 . S
C23 O15 1.284 . S
C23 O24 1.273 . S
O24 C23 1.273 . S
O25 Zn16 1.977 . S
O25 C18 1.267 . S
C26 O27 1.160 . S
C26 O33 1.185 . S
O27 C26 1.160 . S
O28 Zn29 1.899 . S
O28 C36 1.284 . S
Zn29 O28 1.899 . S
Zn29 O30 2.032 . S
Zn29 O33 2.086 . S
Zn29 O38 1.977 . S
O30 Zn29 2.032 . S
O30 C34 1.278 . S
C31 O32 1.203 . S
C31 O38 1.267 . S
O32 C31 1.203 . S
O33 C26 1.185 . S
O33 Zn29 2.086 . S
C34 O30 1.278 . S
C34 O35 1.211 . S
O35 C34 1.211 . S
C36 O28 1.284 . S
C36 O37 1.273 . S
O37 C36 1.273 . S
O38 Zn29 1.977 . S
O38 C31 1.267 . S
C39 O40 1.160 . S
C39 O46 1.185 . S
O40 C39 1.160 . S
O41 Zn42 1.899 . S
O41 C49 1.284 . S
Zn42 O41 1.899 . S
Zn42 O43 2.032 . S
Zn42 O46 2.086 . S
Zn42 O51 1.977 . S
O43 Zn42 2.032 . S
O43 C47 1.278 . S
C44 O45 1.203 . S
C44 O51 1.267 . S
O45 C44 1.203 . S
O46 C39 1.185 . S
O46 Zn42 2.086 . S
C47 O43 1.278 . S
C47 O48 1.211 . S
O48 C47 1.211 . S
C49 O41 1.284 . S
C49 O50 1.273 . S
O50 C49 1.273 . S
O51 Zn42 1.977 . S
O51 C44 1.267 . S
C52 O53 1.160 . S
C52 O59 1.185 . S
O53 C52 1.160 . S
O54 Zn55 1.899 . S
O54 C62 1.284 . S
Zn55 O54 1.899 . S
Zn55 O56 2.032 . S
Zn55 O59 2.086 . S
Zn55 O64 1.977 . S
O56 Zn55 2.032 . S
O56 C60 1.278 . S
C57 O58 1.203 . S
C57 O64 1.267 . S
O58 C57 1.203 . S
O59 C52 1.185 . S
O59 Zn55 2.086 . S
C60 O56 1.278 . S
C60 O61 1.211 . S
O61 C60 1.211 . S
C62 O54 1.284 . S
C62 O63 1.273 . S
O63 C62 1.273 . S
O64 Zn55 1.977 . S
O64 C57 1.267 . S
C65 O66 1.160 . S
C65 O72 1.185 . S
O66 C65 1.160 . S
O67 Zn68 1.899 . S
O67 C75 1.284 . S
Zn68 O67 1.899 . S
Zn68 O69 2.032 . S
Zn68 O72 2.086 . S
Zn68 O77 1.977 . S
O69 Zn68 2.032 . S
O69 C73 1.278 . S
C70 O71 1.203 . S
C70 O77 1.267 . S
O71 C70 1.203 . S
O72 C65 1.185 . S
O72 Zn68 2.086 . S
C73 O69 1.278 . S
C73 O74 1.211 . S
O74 C73 1.211 . S
C75 O67 1.284 . S
C75 O76 1.273 . S
O76 C75 1.273 . S
O77 Zn68 1.977 . S
O77 C70 1.267 . S
C78 O79 1.160 . S
C78 O85 1.185 . S
O79 C78 1.160 . S
O80 Zn81 1.899 . S
O80 C88 1.284 . S
Zn81 O80 1.899 . S
Zn81 O82 2.032 . S
Zn81 O85 2.086 . S
Zn81 O90 1.977 . S
O82 Zn81 2.032 . S
O82 C86 1.278 . S
C83 O84 1.203 . S
C83 O90 1.267 . S
O84 C83 1.203 . S
O85 C78 1.185 . S
O85 Zn81 2.086 . S
C86 O82 1.278 . S
C86 O87 1.211 . S
O87 C86 1.211 . S
C88 O80 1.284 . S
C88 O89 1.273 . S
O89 C88 1.273 . S
O90 Zn81 1.977 . S
O90 C83 1.267 . S
C91 O92 1.160 . S
C91 O98 1.185 . S
O92 C91 1.160 . S
O93 Zn94 1.899 . S
O93 C101 1.284 . S
Zn94 O93 1.899 . S
Zn94 O95 2.032 . S
Zn94 O98 2.086 . S
Zn94 O103 1.977 . S
O95 Zn94 2.032 . S
O95 C99 1.278 . S
C96 O97 1.203 . S
C96 O103 1.267 . S
O97 C96 1.203 . S
O98 C91 1.185 . S
O98 Zn94 2.086 . S
C99 O95 1.278 . S
C99 O100 1.211 . S
O100 C99 1.211 . S
C101 O93 1.284 . S
C101 O102 1.273 . S
O102 C101 1.273 . S
O103 Zn94 1.977 . S
O103 C96 1.267 . S
C104 O105 1.160 . S
C104 O111 1.185 . S
O105 C104 1.160 . S
O106 Zn107 1.899 . S
O106 C114 1.284 . S
Zn107 O106 1.899 . S
Zn107 O108 2.032 . S
Zn107 O111 2.086 . S
Zn107 O116 1.977 . S
O108 Zn107 2.032 . S
O108 C112 1.278 . S
C109 O110 1.203 . S
C109 O116 1.267 . S
O110 C109 1.203 . S
O111 C104 1.185 . S
O111 Zn107 2.086 . S
C112 O108 1.278 . S
C112 O113 1.211 . S
O113 C112 1.211 . S
C114 O106 1.284 . S
C114 O115 1.273 . S
O115 C114 1.273 . S
O116 Zn107 1.977 . S
O116 C109 1.267 . S
C117 O118 1.160 . S
C117 O124 1.185 . S
O118 C117 1.160 . S
O119 Zn120 1.899 . S
O119 C127 1.284 . S
Zn120 O119 1.899 . S
Zn120 O121 2.032 . S
Zn120 O124 2.086 . S
Zn120 O129 1.977 . S
O121 Zn120 2.032 . S
O121 C125 1.278 . S
C122 O123 1.203 . S
C122 O129 1.267 . S
O123 C122 1.203 . S
O124 C117 1.185 . S
O124 Zn120 2.086 . S
C125 O121 1.278 . S
C125 O126 1.211 . S
O126 C125 1.211 . S
C127 O119 1.284 . S
C127 O128 1.273 . S
O128 C127 1.273 . S
O129 Zn120 1.977 . S
O129 C122 1.267 . S
C130 O131 1.160 . S
C130 O137 1.185 . S
O131 C130 1.160 . S
O132 Zn133 1.899 . S
O132 C140 1.284 . S
Zn133 O132 1.899 . S
Zn133 O134 2.032 . S
Zn133 O137 2.086 . S
Zn133 O142 1.977 . S
O134 Zn133 2.032 . S
O134 C138 1.278 . S
C135 O136 1.203 . S
C135 O142 1.267 . S
O136 C135 1.203 . S
O137 C130 1.185 . S
O137 Zn133 2.086 . S
C138 O134 1.278 . S
C138 O139 1.211 . S
O139 C138 1.211 . S
C140 O132 1.284 . S
C140 O141 1.273 . S
O141 C140 1.273 . S
O142 Zn133 1.977 . S
O142 C135 1.267 . S
C143 O144 1.160 . S
C143 O150 1.185 . S
O144 C143 1.160 . S
O145 Zn146 1.899 . S
O145 C153 1.284 . S
Zn146 O145 1.899 . S
Zn146 O147 2.032 . S
Zn146 O150 2.086 . S
Zn146 O155 1.977 . S
O147 Zn146 2.032 . S
O147 C151 1.278 . S
C148 O149 1.203 . S
C148 O155 1.267 . S
O149 C148 1.203 . S
O150 C143 1.185 . S
O150 Zn146 2.086 . S
C151 O147 1.278 . S
C151 O152 1.211 . S
O152 C151 1.211 . S
C153 O145 1.284 . S
C153 O154 1.273 . S
O154 C153 1.273 . S
O155 Zn146 1.977 . S
O155 C148 1.267 . S
C156 O157 1.160 . S
C156 O163 1.185 . S
O157 C156 1.160 . S
O158 Zn159 1.899 . S
O158 C166 1.284 . S
Zn159 O158 1.899 . S
Zn159 O160 2.032 . S
Zn159 O163 2.086 . S
Zn159 O168 1.977 . S
O160 Zn159 2.032 . S
O160 C164 1.278 . S
C161 O162 1.203 . S
C161 O168 1.267 . S
O162 C161 1.203 . S
O163 C156 1.185 . S
O163 Zn159 2.086 . S
C164 O160 1.278 . S
C164 O165 1.211 . S
O165 C164 1.211 . S
C166 O158 1.284 . S
C166 O167 1.273 . S
O167 C166 1.273 . S
O168 Zn159 1.977 . S
O168 C161 1.267 . S
C169 O170 1.160 . S
C169 O176 1.185 . S
O170 C169 1.160 . S
O171 Zn172 1.899 . S
O171 C179 1.284 . S
Zn172 O171 1.899 . S
Zn172 O173 2.032 . S
Zn172 O176 2.086 . S
Zn172 O181 1.977 . S
O173 Zn172 2.032 . S
O173 C177 1.278 . S
C174 O175 1.203 . S
C174 O181 1.267 . S
O175 C174 1.203 . S
O176 C169 1.185 . S
O176 Zn172 2.086 . S
C177 O173 1.278 . S
C177 O178 1.211 . S
O178 C177 1.211 . S
C179 O171 1.284 . S
C179 O180 1.273 . S
O180 C179 1.273 . S
O181 Zn172 1.977 . S
O181 C174 1.267 . S
C182 O183 1.160 . S
C182 O189 1.185 . S
O183 C182 1.160 . S
O184 Zn185 1.899 . S
O184 C192 1.284 . S
Zn185 O184 1.899 . S
Zn185 O186 2.032 . S
Zn185 O189 2.086 . S
Zn185 O194 1.977 . S
O186 Zn185 2.032 . S
O186 C190 1.278 . S
C187 O188 1.203 . S
C187 O194 1.267 . S
O188 C187 1.203 . S
O189 C182 1.185 . S
O189 Zn185 2.086 . S
C190 O186 1.278 . S
C190 O191 1.211 . S
O191 C190 1.211 . S
C192 O184 1.284 . S
C192 O193 1.273 . S
O193 C192 1.273 . S
O194 Zn185 1.977 . S
O194 C187 1.267 . S
C195 O196 1.160 . S
C195 O202 1.185 . S
O196 C195 1.160 . S
O197 Zn198 1.899 . S
O197 C205 1.284 . S
Zn198 O197 1.899 . S
Zn198 O199 2.032 . S
Zn198 O202 2.086 . S
Zn198 O207 1.977 . S
O199 Zn198 2.032 . S
O199 C203 1.278 . S
C200 O201 1.203 . S
C200 O207 1.267 . S
O201 C200 1.203 . S
O202 C195 1.185 . S
O202 Zn198 2.086 . S
C203 O199 1.278 . S
C203 O204 1.211 . S
O204 C203 1.211 . S
C205 O197 1.284 . S
C205 O206 1.273 . S
O206 C205 1.273 . S
O207 Zn198 1.977 . S
O207 C200 1.267 . S
C208 O209 1.160 . S
C208 O215 1.185 . S
O209 C208 1.160 . S
O210 Zn211 1.899 . S
O210 C218 1.284 . S
Zn211 O210 1.899 . S
Zn211 O212 2.032 . S
Zn211 O215 2.086 . S
Zn211 O220 1.977 . S
O212 Zn211 2.032 . S
O212 C216 1.278 . S
C213 O214 1.203 . S
C213 O220 1.267 . S
O214 C213 1.203 . S
O215 C208 1.185 . S
O215 Zn211 2.086 . S
C216 O212 1.278 . S
C216 O217 1.211 . S
O217 C216 1.211 . S
C218 O210 1.284 . S
C218 O219 1.273 . S
O219 C218 1.273 . S
O220 Zn211 1.977 . S
O220 C213 1.267 . S
C221 O222 1.160 . S
C221 O228 1.185 . S
O222 C221 1.160 . S
O223 Zn224 1.899 . S
O223 C231 1.284 . S
Zn224 O223 1.899 . S
Zn224 O225 2.032 . S
Zn224 O228 2.086 . S
Zn224 O233 1.977 . S
O225 Zn224 2.032 . S
O225 C229 1.278 . S
C226 O227 1.203 . S
C226 O233 1.267 . S
O227 C226 1.203 . S
O228 C221 1.185 . S
O228 Zn224 2.086 . S
C229 O225 1.278 . S
C229 O230 1.211 . S
O230 C229 1.211 . S
C231 O223 1.284 . S
C231 O232 1.273 . S
O232 C231 1.273 . S
O233 Zn224 1.977 . S
O233 C226 1.267 . S
C234 O235 1.160 . S
C234 O241 1.185 . S
O235 C234 1.160 . S
O236 Zn237 1.899 . S
O236 C244 1.284 . S
Zn237 O236 1.899 . S
Zn237 O238 2.032 . S
Zn237 O241 2.086 . S
Zn237 O246 1.977 . S
O238 Zn237 2.032 . S
O238 C242 1.278 . S
C239 O240 1.203 . S
C239 O246 1.267 . S
O240 C239 1.203 . S
O241 C234 1.185 . S
O241 Zn237 2.086 . S
C242 O238 1.278 . S
C242 O243 1.211 . S
O243 C242 1.211 . S
C244 O236 1.284 . S
C244 O245 1.273 . S
O245 C244 1.273 . S
O246 Zn237 1.977 . S
O246 C239 1.267 . S
C247 O248 1.160 . S
C247 O254 1.185 . S
O248 C247 1.160 . S
O249 Zn250 1.899 . S
O249 C257 1.284 . S
Zn250 O249 1.899 . S
Zn250 O251 2.032 . S
Zn250 O254 2.086 . S
Zn250 O259 1.977 . S
O251 Zn250 2.032 . S
O251 C255 1.278 . S
C252 O253 1.203 . S
C252 O259 1.267 . S
O253 C252 1.203 . S
O254 C247 1.185 . S
O254 Zn250 2.086 . S
C255 O251 1.278 . S
C255 O256 1.211 . S
O256 C255 1.211 . S
C257 O249 1.284 . S
C257 O258 1.273 . S
O258 C257 1.273 . S
O259 Zn250 1.977 . S
O259 C252 1.267 . S
C260 O261 1.160 . S
C260 O267 1.185 . S
O261 C260 1.160 . S
O262 Zn263 1.899 . S
O262 C270 1.284 . S
Zn263 O262 1.899 . S
Zn263 O264 2.032 . S
Zn263 O267 2.086 . S
Zn263 O272 1.977 . S
O264 Zn263 2.032 . S
O264 C268 1.278 . S
C265 O266 1.203 . S
C265 O272 1.267 . S
O266 C265 1.203 . S
O267 C260 1.185 . S
O267 Zn263 2.086 . S
C268 O264 1.278 . S
C268 O269 1.211 . S
O269 C268 1.211 . S
C270 O262 1.284 . S
C270 O271 1.273 . S
O271 C270 1.273 . S
O272 Zn263 1.977 . S
O272 C265 1.267 . S
C273 O274 1.160 . S
C273 O280 1.185 . S
O274 C273 1.160 . S
O275 Zn276 1.899 . S
O275 C283 1.284 . S
Zn276 O275 1.899 . S
Zn276 O277 2.032 . S
Zn276 O280 2.086 . S
Zn276 O285 1.977 . S
O277 Zn276 2.032 . S
O277 C281 1.278 . S
C278 O279 1.203 . S
C278 O285 1.267 . S
O279 C278 1.203 . S
O280 C273 1.185 . S
O280 Zn276 2.086 . S
C281 O277 1.278 . S
C281 O282 1.211 . S
O282 C281 1.211 . S
C283 O275 1.284 . S
C283 O284 1.273 . S
O284 C283 1.273 . S
O285 Zn276 1.977 . S
O285 C278 1.267 . S
C286 O287 1.160 . S
C286 O293 1.185 . S
O287 C286 1.160 . S
O288 Zn289 1.899 . S
O288 C296 1.284 . S
Zn289 O288 1.899 . S
Zn289 O290 2.032 . S
Zn289 O293 2.086 . S
Zn289 O298 1.977 . S
O290 Zn289 2.032 . S
O290 C294 1.278 . S
C291 O292 1.203 . S
C291 O298 1.267 . S
O292 C291 1.203 . S
O293 C286 1.185 . S
O293 Zn289 2.086 . S
C294 O290 1.278 . S
C294 O295 1.211 . S
O295 C294 1.211 . S
C296 O288 1.284 . S
C296 O297 1.273 . S
O297 C296 1.273 . S
O298 Zn289 1.977 . S
O298 C291 1.267 . S
C299 O300 1.160 . S
C299 O306 1.185 . S
O300 C299 1.160 . S
O301 Zn302 1.899 . S
O301 C309 1.284 . S
Zn302 O301 1.899 . S
Zn302 O303 2.032 . S
Zn302 O306 2.086 . S
Zn302 O311 1.977 . S
O303 Zn302 2.032 . S
O303 C307 1.278 . S
C304 O305 1.203 . S
C304 O311 1.267 . S
O305 C304 1.203 . S
O306 C299 1.185 . S
O306 Zn302 2.086 . S
C307 O303 1.278 . S
C307 O308 1.211 . S
O308 C307 1.211 . S
C309 O301 1.284 . S
C309 O310 1.273 . S
O310 C309 1.273 . S
O311 Zn302 1.977 . S
O311 C304 1.267 . S
C312 O313 1.160 . S
C312 O319 1.185 . S
O313 C312 1.160 . S
O314 Zn315 1.899 . S
O314 C322 1.284 . S
Zn315 O314 1.899 . S
Zn315 O316 2.032 . S
Zn315 O319 2.086 . S
Zn315 O324 1.977 . S
O316 Zn315 2.032 . S
O316 C320 1.278 . S
C317 O318 1.203 . S
C317 O324 1.267 . S
O318 C317 1.203 . S
O319 C312 1.185 . S
O319 Zn315 2.086 . S
C320 O316 1.278 . S
C320 O321 1.211 . S
O321 C320 1.211 . S
C322 O314 1.284 . S
C322 O323 1.273 . S
O323 C322 1.273 . S
O324 Zn315 1.977 . S
O324 C317 1.267 . S
C325 O326 1.160 . S
C325 O332 1.185 . S
O326 C325 1.160 . S
O327 Zn328 1.899 . S
O327 C335 1.284 . S
Zn328 O327 1.899 . S
Zn328 O329 2.032 . S
Zn328 O332 2.086 . S
Zn328 O337 1.977 . S
O329 Zn328 2.032 . S
O329 C333 1.278 . S
C330 O331 1.203 . S
C330 O337 1.267 . S
O331 C330 1.203 . S
O332 C325 1.185 . S
O332 Zn328 2.086 . S
C333 O329 1.278 . S
C333 O334 1.211 . S
O334 C333 1.211 . S
C335 O327 1.284 . S
C335 O336 1.273 . S
O336 C335 1.273 . S
O337 Zn328 1.977 . S
O337 C330 1.267 . S
C338 O339 1.160 . S
C338 O345 1.185 . S
O339 C338 1.160 . S
O340 Zn341 1.899 . S
O340 C348 1.284 . S
Zn341 O340 1.899 . S
Zn341 O342 2.032 . S
Zn341 O345 2.086 . S
Zn341 O350 1.977 . S
O342 Zn341 2.032 . S
O342 C346 1.278 . S
C343 O344 1.203 . S
C343 O350 1.267 . S
O344 C343 1.203 . S
O345 C338 1.185 . S
O345 Zn341 2.086 . S
C346 O342 1.278 . S
C346 O347 1.211 . S
O347 C346 1.211 . S
C348 O340 1.284 . S
C348 O349 1.273 . S
O349 C348 1.273 . S
O350 Zn341 1.977 . S
O350 C343 1.267 . S
C351 O352 1.160 . S
C351 O358 1.185 . S
O352 C351 1.160 . S
O353 Zn354 1.899 . S
O353 C361 1.284 . S
Zn354 O353 1.899 . S
Zn354 O355 2.032 . S
Zn354 O358 2.086 . S
Zn354 O363 1.977 . S
O355 Zn354 2.032 . S
O355 C359 1.278 . S
C356 O357 1.203 . S
C356 O363 1.267 . S
O357 C356 1.203 . S
O358 C351 1.185 . S
O358 Zn354 2.086 . S
C359 O355 1.278 . S
C359 O360 1.211 . S
O360 C359 1.211 . S
C361 O353 1.284 . S
C361 O362 1.273 . S
O362 C361 1.273 . S
O363 Zn354 1.977 . S
O363 C356 1.267 . S
C364 O365 1.160 . S
C364 O371 1.185 . S
O365 C364 1.160 . S
O366 Zn367 1.899 . S
O366 C374 1.284 . S
Zn367 O366 1.899 . S
Zn367 O368 2.032 . S
Zn367 O371 2.086 . S
Zn367 O376 1.977 . S
O368 Zn367 2.032 . S
O368 C372 1.278 . S
C369 O370 1.203 . S
C369 O376 1.267 . S
O370 C369 1.203 . S
O371 C364 1.185 . S
O371 Zn367 2.086 . S
C372 O368 1.278 . S
C372 O373 1.211 . S
O373 C372 1.211 . S
C374 O366 1.284 . S
C374 O375 1.273 . S
O375 C374 1.273 . S
O376 Zn367 1.977 . S
O376 C369 1.267 . S
C377 O378 1.160 . S
C377 O384 1.185 . S
O378 C377 1.160 . S
O379 Zn380 1.899 . S
O379 C387 1.284 . S
Zn380 O379 1.899 . S
Zn380 O381 2.032 . S
Zn380 O384 2.086 . S
Zn380 O389 1.977 . S
O381 Zn380 2.032 . S
O381 C385 1.278 . S
C382 O383 1.203 . S
C382 O389 1.267 . S
O383 C382 1.203 . S
O384 C377 1.185 . S
O384 Zn380 2.086 . S
C385 O381 1.278 . S
C385 O386 1.211 . S
O386 C385 1.211 . S
C387 O379 1.284 . S
C387 O388 1.273 . S
O388 C387 1.273 . S
O389 Zn380 1.977 . S
O389 C382 1.267 . S
C390 O391 1.160 . S
C390 O397 1.185 . S
O391 C390 1.160 . S
O392 Zn393 1.899 . S
O392 C400 1.284 . S
Zn393 O392 1.899 . S
Zn393 O394 2.032 . S
Zn393 O397 2.086 . S
Zn393 O402 1.977 . S
O394 Zn393 2.032 . S
O394 C398 1.278 . S
C395 O396 1.203 . S
C395 O402 1.267 . S
O396 C395 1.203 . S
O397 C390 1.185 . S
O397 Zn393 2.086 . S
C398 O394 1.278 . S
C398 O399 1.211 . S
O399 C398 1.211 . S
C400 O392 1.284 . S
C400 O401 1.273 . S
O401 C400 1.273 . S
O402 Zn393 1.977 . S
O402 C395 1.267 . S
C403 O404 1.160 . S
C403 O410 1.185 . S
O404 C403 1.160 . S
O405 Zn406 1.899 . S
O405 C413 1.284 . S
Zn406 O405 1.899 . S
Zn406 O407 2.032 . S
Zn406 O410 2.086 . S
Zn406 O415 1.977 . S
O407 Zn406 2.032 . S
O407 C411 1.278 . S
C408 O409 1.203 . S
C408 O415 1.267 . S
O409 C408 1.203 . S
O410 C403 1.185 . S
O410 Zn406 2.086 . S
C411 O407 1.278 . S
C411 O412 1.211 . S
O412 C411 1.211 . S
C413 O405 1.284 . S
C413 O414 1.273 . S
O414 C413 1.273 . S
O415 Zn406 1.977 . S
O415 C408 1.267 . S
H416 C424 0.929 . S
H417 C426 0.930 . S
H418 C428 0.930 . S
H419 C431 0.929 . S
H420 C434 0.930 . S
H421 C436 0.960 . S
H422 C436 0.960 . S
H423 C436 0.960 . S
C424 H416 0.929 . S
C424 C425 1.377 . S
C424 C426 1.384 . S
C425 C424 1.377 . S
C425 C431 1.390 . S
C426 H417 0.930 . S
C426 C424 1.384 . S
C426 C427 1.372 . S
C427 C426 1.372 . S
C427 C428 1.400 . S
C427 C432 1.490 . S
C428 H418 0.930 . S
C428 C427 1.400 . S
C428 C431 1.386 . S
H429 C445 0.930 . S
H430 C446 0.931 . S
C431 H419 0.929 . S
C431 C425 1.390 . S
C431 C428 1.386 . S
C432 C427 1.490 . S
C432 C434 1.395 . S
C432 C435 1.403 . S
H433 C439 0.930 . S
C434 H420 0.930 . S
C434 C432 1.395 . S
C434 C437 1.403 . S
C435 C432 1.403 . S
C435 C436 1.524 . S
C435 C439 1.400 . S
C436 H421 0.960 . S
C436 H422 0.960 . S
C436 H423 0.960 . S
C436 C435 1.524 . S
C437 C434 1.403 . S
C437 C438 1.392 . S
C437 C441 1.495 . S
C438 C437 1.392 . S
C438 C439 1.385 . S
C438 C440 1.478 . S
C439 H433 0.930 . S
C439 C435 1.400 . S
C439 C438 1.385 . S
C440 C438 1.478 . S
C440 C442 1.381 . S
C440 C446 1.383 . S
C441 C437 1.495 . S
C441 H447 0.959 . S
C441 H448 0.961 . S
C441 H449 0.960 . S
C442 C440 1.381 . S
C442 C443 1.394 . S
C442 H450 0.930 . S
C443 C442 1.394 . S
C443 C444 1.383 . S
C443 H451 0.929 . S
C444 C443 1.383 . S
C444 C445 1.377 . S
C445 H429 0.930 . S
C445 C444 1.377 . S
C445 C446 1.379 . S
C446 H430 0.931 . S
C446 C440 1.383 . S
C446 C445 1.379 . S
H447 C441 0.959 . S
H448 C441 0.961 . S
H449 C441 0.960 . S
H450 C442 0.930 . S
H451 C443 0.929 . S
H452 C460 0.929 . S
H453 C462 0.930 . S
H454 C464 0.930 . S
H455 C467 0.929 . S
H456 C470 0.930 . S
H457 C472 0.960 . S
H458 C472 0.960 . S
H459 C472 0.960 . S
C460 H452 0.929 . S
C460 C461 1.377 . S
C460 C462 1.384 . S
C461 C460 1.377 . S
C461 C467 1.390 . S
C462 H453 0.930 . S
C462 C460 1.384 . S
C462 C463 1.372 . S
C463 C462 1.372 . S
C463 C464 1.400 . S
C463 C468 1.490 . S
C464 H454 0.930 . S
C464 C463 1.400 . S
C464 C467 1.386 . S
H465 C481 0.930 . S
H466 C482 0.931 . S
C467 H455 0.929 . S
C467 C461 1.390 . S
C467 C464 1.386 . S
C468 C463 1.490 . S
C468 C470 1.395 . S
C468 C471 1.403 . S
H469 C475 0.930 . S
C470 H456 0.930 . S
C470 C468 1.395 . S
C470 C473 1.403 . S
C471 C468 1.403 . S
C471 C472 1.524 . S
C471 C475 1.400 . S
C472 H457 0.960 . S
C472 H458 0.960 . S
C472 H459 0.960 . S
C472 C471 1.524 . S
C473 C470 1.403 . S
C473 C474 1.392 . S
C473 C477 1.495 . S
C474 C473 1.392 . S
C474 C475 1.385 . S
C474 C476 1.478 . S
C475 H469 0.930 . S
C475 C471 1.400 . S
C475 C474 1.385 . S
C476 C474 1.478 . S
C476 C478 1.381 . S
C476 C482 1.383 . S
C477 C473 1.495 . S
C477 H483 0.959 . S
C477 H484 0.961 . S
C477 H485 0.960 . S
C478 C476 1.381 . S
C478 C479 1.394 . S
C478 H486 0.930 . S
C479 C478 1.394 . S
C479 C480 1.383 . S
C479 H487 0.929 . S
C480 C479 1.383 . S
C480 C481 1.377 . S
C481 H465 0.930 . S
C481 C480 1.377 . S
C481 C482 1.379 . S
C482 H466 0.931 . S
C482 C476 1.383 . S
C482 C481 1.379 . S
H483 C477 0.959 . S
H484 C477 0.961 . S
H485 C477 0.960 . S
H486 C478 0.930 . S
H487 C479 0.929 . S
H488 C496 0.929 . S
H489 C498 0.930 . S
H490 C500 0.930 . S
H491 C503 0.929 . S
H492 C506 0.930 . S
H493 C508 0.960 . S
H494 C508 0.960 . S
H495 C508 0.960 . S
C496 H488 0.929 . S
C496 C497 1.377 . S
C496 C498 1.384 . S
C497 C496 1.377 . S
C497 C503 1.390 . S
C498 H489 0.930 . S
C498 C496 1.384 . S
C498 C499 1.372 . S
C499 C498 1.372 . S
C499 C500 1.400 . S
C499 C504 1.490 . S
C500 H490 0.930 . S
C500 C499 1.400 . S
C500 C503 1.386 . S
H501 C517 0.930 . S
H502 C518 0.931 . S
C503 H491 0.929 . S
C503 C497 1.390 . S
C503 C500 1.386 . S
C504 C499 1.490 . S
C504 C506 1.395 . S
C504 C507 1.403 . S
H505 C511 0.930 . S
C506 H492 0.930 . S
C506 C504 1.395 . S
C506 C509 1.403 . S
C507 C504 1.403 . S
C507 C508 1.524 . S
C507 C511 1.400 . S
C508 H493 0.960 . S
C508 H494 0.960 . S
C508 H495 0.960 . S
C508 C507 1.524 . S
C509 C506 1.403 . S
C509 C510 1.392 . S
C509 C513 1.495 . S
C510 C509 1.392 . S
C510 C511 1.385 . S
C510 C512 1.478 . S
C511 H505 0.930 . S
C511 C507 1.400 . S
C511 C510 1.385 . S
C512 C510 1.478 . S
C512 C514 1.381 . S
C512 C518 1.383 . S
C513 C509 1.495 . S
C513 H519 0.959 . S
C513 H520 0.961 . S
C513 H521 0.960 . S
C514 C512 1.381 . S
C514 C515 1.394 . S
C514 H522 0.930 . S
C515 C514 1.394 . S
C515 C516 1.383 . S
C515 H523 0.929 . S
C516 C515 1.383 . S
C516 C517 1.377 . S
C517 H501 0.930 . S
C517 C516 1.377 . S
C517 C518 1.379 . S
C518 H502 0.931 . S
C518 C512 1.383 . S
C518 C517 1.379 . S
H519 C513 0.959 . S
H520 C513 0.961 . S
H521 C513 0.960 . S
H522 C514 0.930 . S
H523 C515 0.929 . S
H524 C532 0.929 . S
H525 C534 0.930 . S
H526 C536 0.930 . S
H527 C539 0.929 . S
H528 C542 0.930 . S
H529 C544 0.960 . S
H530 C544 0.960 . S
H531 C544 0.960 . S
C532 H524 0.929 . S
C532 C533 1.377 . S
C532 C534 1.384 . S
C533 C532 1.377 . S
C533 C539 1.390 . S
C534 H525 0.930 . S
C534 C532 1.384 . S
C534 C535 1.372 . S
C535 C534 1.372 . S
C535 C536 1.400 . S
C535 C540 1.490 . S
C536 H526 0.930 . S
C536 C535 1.400 . S
C536 C539 1.386 . S
H537 C553 0.930 . S
H538 C554 0.931 . S
C539 H527 0.929 . S
C539 C533 1.390 . S
C539 C536 1.386 . S
C540 C535 1.490 . S
C540 C542 1.395 . S
C540 C543 1.403 . S
H541 C547 0.930 . S
C542 H528 0.930 . S
C542 C540 1.395 . S
C542 C545 1.403 . S
C543 C540 1.403 . S
C543 C544 1.524 . S
C543 C547 1.400 . S
C544 H529 0.960 . S
C544 H530 0.960 . S
C544 H531 0.960 . S
C544 C543 1.524 . S
C545 C542 1.403 . S
C545 C546 1.392 . S
C545 C549 1.495 . S
C546 C545 1.392 . S
C546 C547 1.385 . S
C546 C548 1.478 . S
C547 H541 0.930 . S
C547 C543 1.400 . S
C547 C546 1.385 . S
C548 C546 1.478 . S
C548 C550 1.381 . S
C548 C554 1.383 . S
C549 C545 1.495 . S
C549 H555 0.959 . S
C549 H556 0.961 . S
C549 H557 0.960 . S
C550 C548 1.381 . S
C550 C551 1.394 . S
C550 H558 0.930 . S
C551 C550 1.394 . S
C551 C552 1.383 . S
C551 H559 0.929 . S
C552 C551 1.383 . S
C552 C553 1.377 . S
C553 H537 0.930 . S
C553 C552 1.377 . S
C553 C554 1.379 . S
C554 H538 0.931 . S
C554 C548 1.383 . S
C554 C553 1.379 . S
H555 C549 0.959 . S
H556 C549 0.961 . S
H557 C549 0.960 . S
H558 C550 0.930 . S
H559 C551 0.929 . S
H560 C568 0.929 . S
H561 C570 0.930 . S
H562 C572 0.930 . S
H563 C575 0.929 . S
H564 C578 0.930 . S
H565 C580 0.960 . S
H566 C580 0.960 . S
H567 C580 0.960 . S
C568 H560 0.929 . S
C568 C569 1.377 . S
C568 C570 1.384 . S
C569 C568 1.377 . S
C569 C575 1.390 . S
C570 H561 0.930 . S
C570 C568 1.384 . S
C570 C571 1.372 . S
C571 C570 1.372 . S
C571 C572 1.400 . S
C571 C576 1.490 . S
C572 H562 0.930 . S
C572 C571 1.400 . S
C572 C575 1.386 . S
H573 C589 0.930 . S
H574 C590 0.931 . S
C575 H563 0.929 . S
C575 C569 1.390 . S
C575 C572 1.386 . S
C576 C571 1.490 . S
C576 C578 1.395 . S
C576 C579 1.403 . S
H577 C583 0.930 . S
C578 H564 0.930 . S
C578 C576 1.395 . S
C578 C581 1.403 . S
C579 C576 1.403 . S
C579 C580 1.524 . S
C579 C583 1.400 . S
C580 H565 0.960 . S
C580 H566 0.960 . S
C580 H567 0.960 . S
C580 C579 1.524 . S
C581 C578 1.403 . S
C581 C582 1.392 . S
C581 C585 1.495 . S
C582 C581 1.392 . S
C582 C583 1.385 . S
C582 C584 1.478 . S
C583 H577 0.930 . S
C583 C579 1.400 . S
C583 C582 1.385 . S
C584 C582 1.478 . S
C584 C586 1.381 . S
C584 C590 1.383 . S
C585 C581 1.495 . S
C585 H591 0.959 . S
C585 H592 0.961 . S
C585 H593 0.960 . S
C586 C584 1.381 . S
C586 C587 1.394 . S
C586 H594 0.930 . S
C587 C586 1.394 . S
C587 C588 1.383 . S
C587 H595 0.929 . S
C588 C587 1.383 . S
C588 C589 1.377 . S
C589 H573 0.930 . S
C589 C588 1.377 . S
C589 C590 1.379 . S
C590 H574 0.931 . S
C590 C584 1.383 . S
C590 C589 1.379 . S
H591 C585 0.959 . S
H592 C585 0.961 . S
H593 C585 0.960 . S
H594 C586 0.930 . S
H595 C587 0.929 . S
H596 C604 0.929 . S
H597 C606 0.930 . S
H598 C608 0.930 . S
H599 C611 0.929 . S
H600 C614 0.930 . S
H601 C616 0.960 . S
H602 C616 0.960 . S
H603 C616 0.960 . S
C604 H596 0.929 . S
C604 C605 1.377 . S
C604 C606 1.384 . S
C605 C604 1.377 . S
C605 C611 1.390 . S
C606 H597 0.930 . S
C606 C604 1.384 . S
C606 C607 1.372 . S
C607 C606 1.372 . S
C607 C608 1.400 . S
C607 C612 1.490 . S
C608 H598 0.930 . S
C608 C607 1.400 . S
C608 C611 1.386 . S
H609 C625 0.930 . S
H610 C626 0.931 . S
C611 H599 0.929 . S
C611 C605 1.390 . S
C611 C608 1.386 . S
C612 C607 1.490 . S
C612 C614 1.395 . S
C612 C615 1.403 . S
H613 C619 0.930 . S
C614 H600 0.930 . S
C614 C612 1.395 . S
C614 C617 1.403 . S
C615 C612 1.403 . S
C615 C616 1.524 . S
C615 C619 1.400 . S
C616 H601 0.960 . S
C616 H602 0.960 . S
C616 H603 0.960 . S
C616 C615 1.524 . S
C617 C614 1.403 . S
C617 C618 1.392 . S
C617 C621 1.495 . S
C618 C617 1.392 . S
C618 C619 1.385 . S
C618 C620 1.478 . S
C619 H613 0.930 . S
C619 C615 1.400 . S
C619 C618 1.385 . S
C620 C618 1.478 . S
C620 C622 1.381 . S
C620 C626 1.383 . S
C621 C617 1.495 . S
C621 H627 0.959 . S
C621 H628 0.961 . S
C621 H629 0.960 . S
C622 C620 1.381 . S
C622 C623 1.394 . S
C622 H630 0.930 . S
C623 C622 1.394 . S
C623 C624 1.383 . S
C623 H631 0.929 . S
C624 C623 1.383 . S
C624 C625 1.377 . S
C625 H609 0.930 . S
C625 C624 1.377 . S
C625 C626 1.379 . S
C626 H610 0.931 . S
C626 C620 1.383 . S
C626 C625 1.379 . S
H627 C621 0.959 . S
H628 C621 0.961 . S
H629 C621 0.960 . S
H630 C622 0.930 . S
H631 C623 0.929 . S
H632 C640 0.929 . S
H633 C642 0.930 . S
H634 C644 0.930 . S
H635 C647 0.929 . S
H636 C650 0.930 . S
H637 C652 0.960 . S
H638 C652 0.960 . S
H639 C652 0.960 . S
C640 H632 0.929 . S
C640 C641 1.377 . S
C640 C642 1.384 . S
C641 C640 1.377 . S
C641 C647 1.390 . S
C642 H633 0.930 . S
C642 C640 1.384 . S
C642 C643 1.372 . S
C643 C642 1.372 . S
C643 C644 1.400 . S
C643 C648 1.490 . S
C644 H634 0.930 . S
C644 C643 1.400 . S
C644 C647 1.386 . S
H645 C661 0.930 . S
H646 C662 0.931 . S
C647 H635 0.929 . S
C647 C641 1.390 . S
C647 C644 1.386 . S
C648 C643 1.490 . S
C648 C650 1.395 . S
C648 C651 1.403 . S
H649 C655 0.930 . S
C650 H636 0.930 . S
C650 C648 1.395 . S
C650 C653 1.403 . S
C651 C648 1.403 . S
C651 C652 1.524 . S
C651 C655 1.400 . S
C652 H637 0.960 . S
C652 H638 0.960 . S
C652 H639 0.960 . S
C652 C651 1.524 . S
C653 C650 1.403 . S
C653 C654 1.392 . S
C653 C657 1.495 . S
C654 C653 1.392 . S
C654 C655 1.385 . S
C654 C656 1.478 . S
C655 H649 0.930 . S
C655 C651 1.400 . S
C655 C654 1.385 . S
C656 C654 1.478 . S
C656 C658 1.381 . S
C656 C662 1.383 . S
C657 C653 1.495 . S
C657 H663 0.959 . S
C657 H664 0.961 . S
C657 H665 0.960 . S
C658 C656 1.381 . S
C658 C659 1.394 . S
C658 H666 0.930 . S
C659 C658 1.394 . S
C659 C660 1.383 . S
C659 H667 0.929 . S
C660 C659 1.383 . S
C660 C661 1.377 . S
C661 H645 0.930 . S
C661 C660 1.377 . S
C661 C662 1.379 . S
C662 H646 0.931 . S
C662 C656 1.383 . S
C662 C661 1.379 . S
H663 C657 0.959 . S
H664 C657 0.961 . S
H665 C657 0.960 . S
H666 C658 0.930 . S
H667 C659 0.929 . S
H668 C676 0.929 . S
H669 C678 0.930 . S
H670 C680 0.930 . S
H671 C683 0.929 . S
H672 C686 0.930 . S
H673 C688 0.960 . S
H674 C688 0.960 . S
H675 C688 0.960 . S
C676 H668 0.929 . S
C676 C677 1.377 . S
C676 C678 1.384 . S
C677 C676 1.377 . S
C677 C683 1.390 . S
C678 H669 0.930 . S
C678 C676 1.384 . S
C678 C679 1.372 . S
C679 C678 1.372 . S
C679 C680 1.400 . S
C679 C684 1.490 . S
C680 H670 0.930 . S
C680 C679 1.400 . S
C680 C683 1.386 . S
H681 C697 0.930 . S
H682 C698 0.931 . S
C683 H671 0.929 . S
C683 C677 1.390 . S
C683 C680 1.386 . S
C684 C679 1.490 . S
C684 C686 1.395 . S
C684 C687 1.403 . S
H685 C691 0.930 . S
C686 H672 0.930 . S
C686 C684 1.395 . S
C686 C689 1.403 . S
C687 C684 1.403 . S
C687 C688 1.524 . S
C687 C691 1.400 . S
C688 H673 0.960 . S
C688 H674 0.960 . S
C688 H675 0.960 . S
C688 C687 1.524 . S
C689 C686 1.403 . S
C689 C690 1.392 . S
C689 C693 1.495 . S
C690 C689 1.392 . S
C690 C691 1.385 . S
C690 C692 1.478 . S
C691 H685 0.930 . S
C691 C687 1.400 . S
C691 C690 1.385 . S
C692 C690 1.478 . S
C692 C694 1.381 . S
C692 C698 1.383 . S
C693 C689 1.495 . S
C693 H699 0.959 . S
C693 H700 0.961 . S
C693 H701 0.960 . S
C694 C692 1.381 . S
C694 C695 1.394 . S
C694 H702 0.930 . S
C695 C694 1.394 . S
C695 C696 1.383 . S
C695 H703 0.929 . S
C696 C695 1.383 . S
C696 C697 1.377 . S
C697 H681 0.930 . S
C697 C696 1.377 . S
C697 C698 1.379 . S
C698 H682 0.931 . S
C698 C692 1.383 . S
C698 C697 1.379 . S
H699 C693 0.959 . S
H700 C693 0.961 . S
H701 C693 0.960 . S
H702 C694 0.930 . S
H703 C695 0.929 . S
H704 C712 0.929 . S
H705 C714 0.930 . S
H706 C716 0.930 . S
H707 C719 0.929 . S
H708 C722 0.930 . S
H709 C724 0.960 . S
H710 C724 0.960 . S
H711 C724 0.960 . S
C712 H704 0.929 . S
C712 C713 1.377 . S
C712 C714 1.384 . S
C713 C712 1.377 . S
C713 C719 1.390 . S
C714 H705 0.930 . S
C714 C712 1.384 . S
C714 C715 1.372 . S
C715 C714 1.372 . S
C715 C716 1.400 . S
C715 C720 1.490 . S
C716 H706 0.930 . S
C716 C715 1.400 . S
C716 C719 1.386 . S
H717 C733 0.930 . S
H718 C734 0.931 . S
C719 H707 0.929 . S
C719 C713 1.390 . S
C719 C716 1.386 . S
C720 C715 1.490 . S
C720 C722 1.395 . S
C720 C723 1.403 . S
H721 C727 0.930 . S
C722 H708 0.930 . S
C722 C720 1.395 . S
C722 C725 1.403 . S
C723 C720 1.403 . S
C723 C724 1.524 . S
C723 C727 1.400 . S
C724 H709 0.960 . S
C724 H710 0.960 . S
C724 H711 0.960 . S
C724 C723 1.524 . S
C725 C722 1.403 . S
C725 C726 1.392 . S
C725 C729 1.495 . S
C726 C725 1.392 . S
C726 C727 1.385 . S
C726 C728 1.478 . S
C727 H721 0.930 . S
C727 C723 1.400 . S
C727 C726 1.385 . S
C728 C726 1.478 . S
C728 C730 1.381 . S
C728 C734 1.383 . S
C729 C725 1.495 . S
C729 H735 0.959 . S
C729 H736 0.961 . S
C729 H737 0.960 . S
C730 C728 1.381 . S
C730 C731 1.394 . S
C730 H738 0.930 . S
C731 C730 1.394 . S
C731 C732 1.383 . S
C731 H739 0.929 . S
C732 C731 1.383 . S
C732 C733 1.377 . S
C733 H717 0.930 . S
C733 C732 1.377 . S
C733 C734 1.379 . S
C734 H718 0.931 . S
C734 C728 1.383 . S
C734 C733 1.379 . S
H735 C729 0.959 . S
H736 C729 0.961 . S
H737 C729 0.960 . S
H738 C730 0.930 . S
H739 C731 0.929 . S
H740 C748 0.929 . S
H741 C750 0.930 . S
H742 C752 0.930 . S
H743 C755 0.929 . S
H744 C758 0.930 . S
H745 C760 0.960 . S
H746 C760 0.960 . S
H747 C760 0.960 . S
C748 H740 0.929 . S
C748 C749 1.377 . S
C748 C750 1.384 . S
C749 C748 1.377 . S
C749 C755 1.390 . S
C750 H741 0.930 . S
C750 C748 1.384 . S
C750 C751 1.372 . S
C751 C750 1.372 . S
C751 C752 1.400 . S
C751 C756 1.490 . S
C752 H742 0.930 . S
C752 C751 1.400 . S
C752 C755 1.386 . S
H753 C769 0.930 . S
H754 C770 0.931 . S
C755 H743 0.929 . S
C755 C749 1.390 . S
C755 C752 1.386 . S
C756 C751 1.490 . S
C756 C758 1.395 . S
C756 C759 1.403 . S
H757 C763 0.930 . S
C758 H744 0.930 . S
C758 C756 1.395 . S
C758 C761 1.403 . S
C759 C756 1.403 . S
C759 C760 1.524 . S
C759 C763 1.400 . S
C760 H745 0.960 . S
C760 H746 0.960 . S
C760 H747 0.960 . S
C760 C759 1.524 . S
C761 C758 1.403 . S
C761 C762 1.392 . S
C761 C765 1.495 . S
C762 C761 1.392 . S
C762 C763 1.385 . S
C762 C764 1.478 . S
C763 H757 0.930 . S
C763 C759 1.400 . S
C763 C762 1.385 . S
C764 C762 1.478 . S
C764 C766 1.381 . S
C764 C770 1.383 . S
C765 C761 1.495 . S
C765 H771 0.959 . S
C765 H772 0.961 . S
C765 H773 0.960 . S
C766 C764 1.381 . S
C766 C767 1.394 . S
C766 H774 0.930 . S
C767 C766 1.394 . S
C767 C768 1.383 . S
C767 H775 0.929 . S
C768 C767 1.383 . S
C768 C769 1.377 . S
C769 H753 0.930 . S
C769 C768 1.377 . S
C769 C770 1.379 . S
C770 H754 0.931 . S
C770 C764 1.383 . S
C770 C769 1.379 . S
H771 C765 0.959 . S
H772 C765 0.961 . S
H773 C765 0.960 . S
H774 C766 0.930 . S
H775 C767 0.929 . S
H776 C784 0.929 . S
H777 C786 0.930 . S
H778 C788 0.930 . S
H779 C791 0.929 . S
H780 C794 0.930 . S
H781 C796 0.960 . S
H782 C796 0.960 . S
H783 C796 0.960 . S
C784 H776 0.929 . S
C784 C785 1.377 . S
C784 C786 1.384 . S
C785 C784 1.377 . S
C785 C791 1.390 . S
C786 H777 0.930 . S
C786 C784 1.384 . S
C786 C787 1.372 . S
C787 C786 1.372 . S
C787 C788 1.400 . S
C787 C792 1.490 . S
C788 H778 0.930 . S
C788 C787 1.400 . S
C788 C791 1.386 . S
H789 C805 0.930 . S
H790 C806 0.931 . S
C791 H779 0.929 . S
C791 C785 1.390 . S
C791 C788 1.386 . S
C792 C787 1.490 . S
C792 C794 1.395 . S
C792 C795 1.403 . S
H793 C799 0.930 . S
C794 H780 0.930 . S
C794 C792 1.395 . S
C794 C797 1.403 . S
C795 C792 1.403 . S
C795 C796 1.524 . S
C795 C799 1.400 . S
C796 H781 0.960 . S
C796 H782 0.960 . S
C796 H783 0.960 . S
C796 C795 1.524 . S
C797 C794 1.403 . S
C797 C798 1.392 . S
C797 C801 1.495 . S
C798 C797 1.392 . S
C798 C799 1.385 . S
C798 C800 1.478 . S
C799 H793 0.930 . S
C799 C795 1.400 . S
C799 C798 1.385 . S
C800 C798 1.478 . S
C800 C802 1.381 . S
C800 C806 1.383 . S
C801 C797 1.495 . S
C801 H807 0.959 . S
C801 H808 0.961 . S
C801 H809 0.960 . S
C802 C800 1.381 . S
C802 C803 1.394 . S
C802 H810 0.930 . S
C803 C802 1.394 . S
C803 C804 1.383 . S
C803 H811 0.929 . S
C804 C803 1.383 . S
C804 C805 1.377 . S
C805 H789 0.930 . S
C805 C804 1.377 . S
C805 C806 1.379 . S
C806 H790 0.931 . S
C806 C800 1.383 . S
C806 C805 1.379 . S
H807 C801 0.959 . S
H808 C801 0.961 . S
H809 C801 0.960 . S
H810 C802 0.930 . S
H811 C803 0.929 . S
H812 C820 0.929 . S
H813 C822 0.930 . S
H814 C824 0.930 . S
H815 C827 0.929 . S
H816 C830 0.930 . S
H817 C832 0.960 . S
H818 C832 0.960 . S
H819 C832 0.960 . S
C820 H812 0.929 . S
C820 C821 1.377 . S
C820 C822 1.384 . S
C821 C820 1.377 . S
C821 C827 1.390 . S
C822 H813 0.930 . S
C822 C820 1.384 . S
C822 C823 1.372 . S
C823 C822 1.372 . S
C823 C824 1.400 . S
C823 C828 1.490 . S
C824 H814 0.930 . S
C824 C823 1.400 . S
C824 C827 1.386 . S
H825 C841 0.930 . S
H826 C842 0.931 . S
C827 H815 0.929 . S
C827 C821 1.390 . S
C827 C824 1.386 . S
C828 C823 1.490 . S
C828 C830 1.395 . S
C828 C831 1.403 . S
H829 C835 0.930 . S
C830 H816 0.930 . S
C830 C828 1.395 . S
C830 C833 1.403 . S
C831 C828 1.403 . S
C831 C832 1.524 . S
C831 C835 1.400 . S
C832 H817 0.960 . S
C832 H818 0.960 . S
C832 H819 0.960 . S
C832 C831 1.524 . S
C833 C830 1.403 . S
C833 C834 1.392 . S
C833 C837 1.495 . S
C834 C833 1.392 . S
C834 C835 1.385 . S
C834 C836 1.478 . S
C835 H829 0.930 . S
C835 C831 1.400 . S
C835 C834 1.385 . S
C836 C834 1.478 . S
C836 C838 1.381 . S
C836 C842 1.383 . S
C837 C833 1.495 . S
C837 H843 0.959 . S
C837 H844 0.961 . S
C837 H845 0.960 . S
C838 C836 1.381 . S
C838 C839 1.394 . S
C838 H846 0.930 . S
C839 C838 1.394 . S
C839 C840 1.383 . S
C839 H847 0.929 . S
C840 C839 1.383 . S
C840 C841 1.377 . S
C841 H825 0.930 . S
C841 C840 1.377 . S
C841 C842 1.379 . S
C842 H826 0.931 . S
C842 C836 1.383 . S
C842 C841 1.379 . S
H843 C837 0.959 . S
H844 C837 0.961 . S
H845 C837 0.960 . S
H846 C838 0.930 . S
H847 C839 0.929 . S
H848 C856 0.929 . S
H849 C858 0.930 . S
H850 C860 0.930 . S
H851 C863 0.929 . S
H852 C866 0.930 . S
H853 C868 0.960 . S
H854 C868 0.960 . S
H855 C868 0.960 . S
C856 H848 0.929 . S
C856 C857 1.377 . S
C856 C858 1.384 . S
C857 C856 1.377 . S
C857 C863 1.390 . S
C858 H849 0.930 . S
C858 C856 1.384 . S
C858 C859 1.372 . S
C859 C858 1.372 . S
C859 C860 1.400 . S
C859 C864 1.490 . S
C860 H850 0.930 . S
C860 C859 1.400 . S
C860 C863 1.386 . S
H861 C877 0.930 . S
H862 C878 0.931 . S
C863 H851 0.929 . S
C863 C857 1.390 . S
C863 C860 1.386 . S
C864 C859 1.490 . S
C864 C866 1.395 . S
C864 C867 1.403 . S
H865 C871 0.930 . S
C866 H852 0.930 . S
C866 C864 1.395 . S
C866 C869 1.403 . S
C867 C864 1.403 . S
C867 C868 1.524 . S
C867 C871 1.400 . S
C868 H853 0.960 . S
C868 H854 0.960 . S
C868 H855 0.960 . S
C868 C867 1.524 . S
C869 C866 1.403 . S
C869 C870 1.392 . S
C869 C873 1.495 . S
C870 C869 1.392 . S
C870 C871 1.385 . S
C870 C872 1.478 . S
C871 H865 0.930 . S
C871 C867 1.400 . S
C871 C870 1.385 . S
C872 C870 1.478 . S
C872 C874 1.381 . S
C872 C878 1.383 . S
C873 C869 1.495 . S
C873 H879 0.959 . S
C873 H880 0.961 . S
C873 H881 0.960 . S
C874 C872 1.381 . S
C874 C875 1.394 . S
C874 H882 0.930 . S
C875 C874 1.394 . S
C875 C876 1.383 . S
C875 H883 0.929 . S
C876 C875 1.383 . S
C876 C877 1.377 . S
C877 H861 0.930 . S
C877 C876 1.377 . S
C877 C878 1.379 . S
C878 H862 0.931 . S
C878 C872 1.383 . S
C878 C877 1.379 . S
H879 C873 0.959 . S
H880 C873 0.961 . S
H881 C873 0.960 . S
H882 C874 0.930 . S
H883 C875 0.929 . S
H884 C892 0.929 . S
H885 C894 0.930 . S
H886 C896 0.930 . S
H887 C899 0.929 . S
H888 C902 0.930 . S
H889 C904 0.960 . S
H890 C904 0.960 . S
H891 C904 0.960 . S
C892 H884 0.929 . S
C892 C893 1.377 . S
C892 C894 1.384 . S
C893 C892 1.377 . S
C893 C899 1.390 . S
C894 H885 0.930 . S
C894 C892 1.384 . S
C894 C895 1.372 . S
C895 C894 1.372 . S
C895 C896 1.400 . S
C895 C900 1.490 . S
C896 H886 0.930 . S
C896 C895 1.400 . S
C896 C899 1.386 . S
H897 C913 0.930 . S
H898 C914 0.931 . S
C899 H887 0.929 . S
C899 C893 1.390 . S
C899 C896 1.386 . S
C900 C895 1.490 . S
C900 C902 1.395 . S
C900 C903 1.403 . S
H901 C907 0.930 . S
C902 H888 0.930 . S
C902 C900 1.395 . S
C902 C905 1.403 . S
C903 C900 1.403 . S
C903 C904 1.524 . S
C903 C907 1.400 . S
C904 H889 0.960 . S
C904 H890 0.960 . S
C904 H891 0.960 . S
C904 C903 1.524 . S
C905 C902 1.403 . S
C905 C906 1.392 . S
C905 C909 1.495 . S
C906 C905 1.392 . S
C906 C907 1.385 . S
C906 C908 1.478 . S
C907 H901 0.930 . S
C907 C903 1.400 . S
C907 C906 1.385 . S
C908 C906 1.478 . S
C908 C910 1.381 . S
C908 C914 1.383 . S
C909 C905 1.495 . S
C909 H915 0.959 . S
C909 H916 0.961 . S
C909 H917 0.960 . S
C910 C908 1.381 . S
C910 C911 1.394 . S
C910 H918 0.930 . S
C911 C910 1.394 . S
C911 C912 1.383 . S
C911 H919 0.929 . S
C912 C911 1.383 . S
C912 C913 1.377 . S
C913 H897 0.930 . S
C913 C912 1.377 . S
C913 C914 1.379 . S
C914 H898 0.931 . S
C914 C908 1.383 . S
C914 C913 1.379 . S
H915 C909 0.959 . S
H916 C909 0.961 . S
H917 C909 0.960 . S
H918 C910 0.930 . S
H919 C911 0.929 . S
H920 C928 0.929 . S
H921 C930 0.930 . S
H922 C932 0.930 . S
H923 C935 0.929 . S
H924 C938 0.930 . S
H925 C940 0.960 . S
H926 C940 0.960 . S
H927 C940 0.960 . S
C928 H920 0.929 . S
C928 C929 1.377 . S
C928 C930 1.384 . S
C929 C928 1.377 . S
C929 C935 1.390 . S
C930 H921 0.930 . S
C930 C928 1.384 . S
C930 C931 1.372 . S
C931 C930 1.372 . S
C931 C932 1.400 . S
C931 C936 1.490 . S
C932 H922 0.930 . S
C932 C931 1.400 . S
C932 C935 1.386 . S
H933 C949 0.930 . S
H934 C950 0.931 . S
C935 H923 0.929 . S
C935 C929 1.390 . S
C935 C932 1.386 . S
C936 C931 1.490 . S
C936 C938 1.395 . S
C936 C939 1.403 . S
H937 C943 0.930 . S
C938 H924 0.930 . S
C938 C936 1.395 . S
C938 C941 1.403 . S
C939 C936 1.403 . S
C939 C940 1.524 . S
C939 C943 1.400 . S
C940 H925 0.960 . S
C940 H926 0.960 . S
C940 H927 0.960 . S
C940 C939 1.524 . S
C941 C938 1.403 . S
C941 C942 1.392 . S
C941 C945 1.495 . S
C942 C941 1.392 . S
C942 C943 1.385 . S
C942 C944 1.478 . S
C943 H937 0.930 . S
C943 C939 1.400 . S
C943 C942 1.385 . S
C944 C942 1.478 . S
C944 C946 1.381 . S
C944 C950 1.383 . S
C945 C941 1.495 . S
C945 H951 0.959 . S
C945 H952 0.961 . S
C945 H953 0.960 . S
C946 C944 1.381 . S
C946 C947 1.394 . S
C946 H954 0.930 . S
C947 C946 1.394 . S
C947 C948 1.383 . S
C947 H955 0.929 . S
C948 C947 1.383 . S
C948 C949 1.377 . S
C949 H933 0.930 . S
C949 C948 1.377 . S
C949 C950 1.379 . S
C950 H934 0.931 . S
C950 C944 1.383 . S
C950 C949 1.379 . S
H951 C945 0.959 . S
H952 C945 0.961 . S
H953 C945 0.960 . S
H954 C946 0.930 . S
H955 C947 0.929 . S
H956 C964 0.929 . S
H957 C966 0.930 . S
H958 C968 0.930 . S
H959 C971 0.929 . S
H960 C974 0.930 . S
H961 C976 0.960 . S
H962 C976 0.960 . S
H963 C976 0.960 . S
C964 H956 0.929 . S
C964 C965 1.377 . S
C964 C966 1.384 . S
C965 C964 1.377 . S
C965 C971 1.390 . S
C966 H957 0.930 . S
C966 C964 1.384 . S
C966 C967 1.372 . S
C967 C966 1.372 . S
C967 C968 1.400 . S
C967 C972 1.490 . S
C968 H958 0.930 . S
C968 C967 1.400 . S
C968 C971 1.386 . S
H969 C985 0.930 . S
H970 C986 0.931 . S
C971 H959 0.929 . S
C971 C965 1.390 . S
C971 C968 1.386 . S
C972 C967 1.490 . S
C972 C974 1.395 . S
C972 C975 1.403 . S
H973 C979 0.930 . S
C974 H960 0.930 . S
C974 C972 1.395 . S
C974 C977 1.403 . S
C975 C972 1.403 . S
C975 C976 1.524 . S
C975 C979 1.400 . S
C976 H961 0.960 . S
C976 H962 0.960 . S
C976 H963 0.960 . S
C976 C975 1.524 . S
C977 C974 1.403 . S
C977 C978 1.392 . S
C977 C981 1.495 . S
C978 C977 1.392 . S
C978 C979 1.385 . S
C978 C980 1.478 . S
C979 H973 0.930 . S
C979 C975 1.400 . S
C979 C978 1.385 . S
C980 C978 1.478 . S
C980 C982 1.381 . S
C980 C986 1.383 . S
C981 C977 1.495 . S
C981 H987 0.959 . S
C981 H988 0.961 . S
C981 H989 0.960 . S
C982 C980 1.381 . S
C982 C983 1.394 . S
C982 H990 0.930 . S
C983 C982 1.394 . S
C983 C984 1.383 . S
C983 H991 0.929 . S
C984 C983 1.383 . S
C984 C985 1.377 . S
C985 H969 0.930 . S
C985 C984 1.377 . S
C985 C986 1.379 . S
C986 H970 0.931 . S
C986 C980 1.383 . S
C986 C985 1.379 . S
H987 C981 0.959 . S
H988 C981 0.961 . S
H989 C981 0.960 . S
H990 C982 0.930 . S
H991 C983 0.929 . S
H992 C1000 0.929 . S
H993 C1002 0.930 . S
H994 C1004 0.930 . S
H995 C1007 0.929 . S
H996 C1010 0.930 . S
H997 C1012 0.960 1_655 S
H998 C1012 0.960 1_655 S
H999 C1012 0.960 . S
C1000 H992 0.929 . S
C1000 C1001 1.377 . S
C1000 C1002 1.384 . S
C1001 C1000 1.377 . S
C1001 C1007 1.390 . S
C1002 H993 0.930 . S
C1002 C1000 1.384 . S
C1002 C1003 1.372 . S
C1003 C1002 1.372 . S
C1003 C1004 1.400 . S
C1003 C1008 1.490 . S
C1004 H994 0.930 . S
C1004 C1003 1.400 . S
C1004 C1007 1.386 . S
H1005 C1021 0.930 . S
H1006 C1022 0.931 . S
C1007 H995 0.929 . S
C1007 C1001 1.390 . S
C1007 C1004 1.386 . S
C1008 C1003 1.490 . S
C1008 C1010 1.395 . S
C1008 C1011 1.403 . S
H1009 C1015 0.930 . S
C1010 H996 0.930 . S
C1010 C1008 1.395 . S
C1010 C1013 1.403 1_455 S
C1011 C1008 1.403 . S
C1011 C1012 1.524 . S
C1011 C1015 1.400 1_455 S
C1012 H997 0.960 1_455 S
C1012 H998 0.960 1_455 S
C1012 H999 0.960 . S
C1012 C1011 1.524 . S
C1013 C1010 1.403 1_655 S
C1013 C1014 1.392 . S
C1013 C1017 1.495 . S
C1014 C1013 1.392 . S
C1014 C1015 1.385 . S
C1014 C1016 1.478 . S
C1015 H1009 0.930 . S
C1015 C1011 1.400 1_655 S
C1015 C1014 1.385 . S
C1016 C1014 1.478 . S
C1016 C1018 1.381 . S
C1016 C1022 1.383 . S
C1017 C1013 1.495 . S
C1017 H1023 0.964 . S
C1017 H1024 0.974 . S
C1017 H1025 0.960 . S
C1018 C1016 1.381 . S
C1018 C1019 1.394 . S
C1018 H1026 0.930 . S
C1019 C1018 1.394 . S
C1019 C1020 1.383 . S
C1019 H1027 0.929 . S
C1020 C1019 1.383 . S
C1020 C1021 1.377 . S
C1021 H1005 0.930 . S
C1021 C1020 1.377 . S
C1021 C1022 1.379 . S
C1022 H1006 0.931 . S
C1022 C1016 1.383 . S
C1022 C1021 1.379 . S
H1023 C1017 0.964 . S
H1024 C1017 0.974 . S
H1025 C1017 0.960 . S
H1026 C1018 0.930 . S
H1027 C1019 0.929 . S
H1028 C1036 0.929 . S
H1029 C1038 0.930 . S
H1030 C1040 0.930 . S
H1031 C1043 0.929 . S
H1032 C1046 0.930 . S
H1033 C1048 0.960 . S
H1034 C1048 0.960 . S
H1035 C1048 0.960 . S
C1036 H1028 0.929 . S
C1036 C1037 1.377 . S
C1036 C1038 1.384 . S
C1037 C1036 1.377 . S
C1037 C1043 1.390 . S
C1038 H1029 0.930 . S
C1038 C1036 1.384 . S
C1038 C1039 1.372 . S
C1039 C1038 1.372 . S
C1039 C1040 1.400 . S
C1039 C1044 1.490 . S
C1040 H1030 0.930 . S
C1040 C1039 1.400 . S
C1040 C1043 1.386 . S
H1041 C1057 0.930 . S
H1042 C1058 0.931 . S
C1043 H1031 0.929 . S
C1043 C1037 1.390 . S
C1043 C1040 1.386 . S
C1044 C1039 1.490 . S
C1044 C1046 1.395 . S
C1044 C1047 1.403 . S
H1045 C1051 0.930 . S
C1046 H1032 0.930 . S
C1046 C1044 1.395 . S
C1046 C1049 1.403 1_545 S
C1047 C1044 1.403 . S
C1047 C1048 1.524 . S
C1047 C1051 1.400 1_545 S
C1048 H1033 0.960 . S
C1048 H1034 0.960 . S
C1048 H1035 0.960 . S
C1048 C1047 1.524 . S
C1049 C1046 1.403 1_565 S
C1049 C1050 1.392 . S
C1049 C1053 1.495 . S
C1050 C1049 1.392 . S
C1050 C1051 1.385 . S
C1050 C1052 1.478 . S
C1051 H1045 0.930 . S
C1051 C1047 1.400 1_565 S
C1051 C1050 1.385 . S
C1052 C1050 1.478 . S
C1052 C1054 1.381 . S
C1052 C1058 1.383 . S
C1053 C1049 1.495 . S
C1053 H1059 0.959 . S
C1053 H1060 0.961 . S
C1053 H1061 0.960 . S
C1054 C1052 1.381 . S
C1054 C1055 1.394 . S
C1054 H1062 0.918 1_565 S
C1055 C1054 1.394 . S
C1055 C1056 1.383 . S
C1055 H1063 0.929 . S
C1056 C1055 1.383 . S
C1056 C1057 1.377 . S
C1057 H1041 0.930 . S
C1057 C1056 1.377 . S
C1057 C1058 1.379 . S
C1058 H1042 0.931 . S
C1058 C1052 1.383 . S
C1058 C1057 1.379 . S
H1059 C1053 0.959 . S
H1060 C1053 0.961 . S
H1061 C1053 0.960 . S
H1062 C1054 0.918 1_545 S
H1063 C1055 0.929 . S
H1064 C1072 0.929 . S
H1065 C1074 0.930 1_565 S
H1066 C1076 0.930 . S
H1067 C1079 0.929 . S
H1068 C1082 0.929 . S
H1069 C1084 0.960 . S
H1070 C1084 0.960 . S
H1071 C1084 0.960 . S
C1072 H1064 0.929 . S
C1072 C1073 1.377 . S
C1072 C1074 1.384 . S
C1073 C1072 1.377 . S
C1073 C1079 1.390 . S
C1074 H1065 0.930 1_545 S
C1074 C1072 1.384 . S
C1074 C1075 1.372 . S
C1075 C1074 1.372 . S
C1075 C1076 1.400 . S
C1075 C1080 1.490 . S
C1076 H1066 0.930 . S
C1076 C1075 1.400 . S
C1076 C1079 1.386 . S
H1077 C1093 0.930 . S
H1078 C1094 0.931 1_545 S
C1079 H1067 0.929 . S
C1079 C1073 1.390 . S
C1079 C1076 1.386 . S
C1080 C1075 1.490 . S
C1080 C1082 1.397 1_545 S
C1080 C1083 1.403 1_455 S
H1081 C1087 0.930 . S
C1082 H1068 0.929 . S
C1082 C1080 1.397 1_565 S
C1082 C1085 1.401 1_556 S
C1083 C1080 1.403 1_655 S
C1083 C1084 1.524 . S
C1083 C1087 1.400 1_546 S
C1084 H1069 0.960 . S
C1084 H1070 0.960 . S
C1084 H1071 0.960 . S
C1084 C1083 1.524 . S
C1085 C1082 1.401 1_554 S
C1085 C1086 1.392 1_455 S
C1085 C1089 1.495 . S
C1086 C1085 1.392 1_655 S
C1086 C1087 1.385 . S
C1086 C1088 1.478 . S
C1087 H1081 0.930 . S
C1087 C1083 1.400 1_564 S
C1087 C1086 1.385 . S
C1088 C1086 1.478 . S
C1088 C1090 1.381 . S
C1088 C1094 1.383 . S
C1089 C1085 1.495 . S
C1089 H1095 0.959 . S
C1089 H1096 0.961 . S
C1089 H1097 0.960 . S
C1090 C1088 1.381 . S
C1090 C1091 1.394 . S
C1090 H1098 0.930 . S
C1091 C1090 1.394 . S
C1091 C1092 1.383 . S
C1091 H1099 0.929 . S
C1092 C1091 1.383 . S
C1092 C1093 1.377 . S
C1093 H1077 0.930 . S
C1093 C1092 1.377 . S
C1093 C1094 1.379 . S
C1094 H1078 0.931 1_565 S
C1094 C1088 1.383 . S
C1094 C1093 1.379 . S
H1095 C1089 0.959 . S
H1096 C1089 0.961 . S
H1097 C1089 0.960 . S
H1098 C1090 0.930 . S
H1099 C1091 0.929 . S
H1100 C1108 0.929 . S
H1101 C1110 0.930 . S
H1102 C1112 0.930 . S
H1103 C1115 0.929 . S
H1104 C1118 0.930 . S
H1105 C1120 0.960 . S
H1106 C1120 0.960 . S
H1107 C1120 0.960 . S
C1108 H1100 0.929 . S
C1108 C1109 1.377 . S
C1108 C1110 1.384 . S
C1109 C1108 1.377 . S
C1109 C1115 1.390 . S
C1110 H1101 0.930 . S
C1110 C1108 1.384 . S
C1110 C1111 1.372 . S
C1111 C1110 1.372 . S
C1111 C1112 1.400 . S
C1111 C1116 1.490 . S
C1112 H1102 0.930 . S
C1112 C1111 1.400 . S
C1112 C1115 1.386 . S
H1113 C1129 0.930 . S
H1114 C1130 0.931 . S
C1115 H1103 0.929 . S
C1115 C1109 1.390 . S
C1115 C1112 1.386 . S
C1116 C1111 1.490 . S
C1116 C1118 1.395 . S
C1116 C1119 1.403 . S
H1117 C1123 0.930 . S
C1118 H1104 0.930 . S
C1118 C1116 1.395 . S
C1118 C1121 1.403 1_556 S
C1119 C1116 1.403 . S
C1119 C1120 1.524 . S
C1119 C1123 1.400 1_556 S
C1120 H1105 0.960 . S
C1120 H1106 0.960 . S
C1120 H1107 0.960 . S
C1120 C1119 1.524 . S
C1121 C1118 1.403 1_554 S
C1121 C1122 1.392 . S
C1121 C1125 1.495 . S
C1122 C1121 1.392 . S
C1122 C1123 1.385 . S
C1122 C1124 1.478 . S
C1123 H1117 0.930 . S
C1123 C1119 1.400 1_554 S
C1123 C1122 1.385 . S
C1124 C1122 1.478 . S
C1124 C1126 1.381 . S
C1124 C1130 1.383 . S
C1125 C1121 1.495 . S
C1125 H1131 0.959 . S
C1125 H1132 0.961 . S
C1125 H1133 0.960 . S
C1126 C1124 1.381 . S
C1126 C1127 1.394 . S
C1126 H1134 0.930 . S
C1127 C1126 1.394 . S
C1127 C1128 1.383 . S
C1127 H1135 0.929 . S
C1128 C1127 1.383 . S
C1128 C1129 1.377 . S
C1129 H1113 0.930 . S
C1129 C1128 1.377 . S
C1129 C1130 1.379 . S
C1130 H1114 0.931 . S
C1130 C1124 1.383 . S
C1130 C1129 1.379 . S
H1131 C1125 0.959 . S
H1132 C1125 0.961 . S
H1133 C1125 0.960 . S
H1134 C1126 0.930 . S
H1135 C1127 0.929 . S
H1136 C1144 0.929 . S
H1137 C1146 0.930 . S
H1138 C1148 0.930 . S
H1139 C1151 0.929 . S
H1140 C1154 0.930 . S
H1141 C1156 0.960 . S
H1142 C1156 0.960 . S
H1143 C1156 0.960 . S
C1144 H1136 0.929 . S
C1144 C1145 1.377 . S
C1144 C1146 1.384 . S
C1145 C1144 1.377 . S
C1145 C1151 1.390 . S
C1146 H1137 0.930 . S
C1146 C1144 1.384 . S
C1146 C1147 1.372 . S
C1147 C1146 1.372 . S
C1147 C1148 1.400 . S
C1147 C1152 1.490 . S
C1148 H1138 0.930 . S
C1148 C1147 1.400 . S
C1148 C1151 1.386 . S
H1149 C1165 0.930 . S
H1150 C1166 0.931 . S
C1151 H1139 0.929 . S
C1151 C1145 1.390 . S
C1151 C1148 1.386 . S
C1152 C1147 1.490 . S
C1152 C1154 1.395 1_655 S
C1152 C1155 1.403 . S
H1153 C1159 0.930 . S
C1154 H1140 0.930 . S
C1154 C1152 1.395 1_455 S
C1154 C1157 1.403 . S
C1155 C1152 1.403 . S
C1155 C1156 1.524 . S
C1155 C1159 1.400 . S
C1156 H1141 0.960 . S
C1156 H1142 0.960 . S
C1156 H1143 0.960 . S
C1156 C1155 1.524 . S
C1157 C1154 1.403 . S
C1157 C1158 1.392 . S
C1157 C1161 1.495 . S
C1158 C1157 1.392 . S
C1158 C1159 1.385 1_455 S
C1158 C1160 1.478 . S
C1159 H1153 0.930 . S
C1159 C1155 1.400 . S
C1159 C1158 1.385 1_655 S
C1160 C1158 1.478 . S
C1160 C1162 1.381 . S
C1160 C1166 1.383 . S
C1161 C1157 1.495 . S
C1161 H1167 0.959 . S
C1161 H1168 0.961 . S
C1161 H1169 0.960 . S
C1162 C1160 1.381 . S
C1162 C1163 1.394 . S
C1162 H1170 0.930 . S
C1163 C1162 1.394 . S
C1163 C1164 1.383 . S
C1163 H1171 0.929 . S
C1164 C1163 1.383 . S
C1164 C1165 1.377 . S
C1165 H1149 0.930 . S
C1165 C1164 1.377 . S
C1165 C1166 1.379 . S
C1166 H1150 0.931 . S
C1166 C1160 1.383 . S
C1166 C1165 1.379 . S
H1167 C1161 0.959 . S
H1168 C1161 0.961 . S
H1169 C1161 0.960 . S
H1170 C1162 0.930 . S
H1171 C1163 0.929 . S
H1172 C1180 0.929 . S
H1173 C1182 0.930 . S
H1174 C1184 0.930 . S
H1175 C1187 0.929 . S
H1176 C1190 0.930 . S
H1177 C1192 0.960 . S
H1178 C1192 0.960 . S
H1179 C1192 0.960 . S
C1180 H1172 0.929 . S
C1180 C1181 1.377 . S
C1180 C1182 1.384 . S
C1181 C1180 1.377 . S
C1181 C1187 1.390 . S
C1182 H1173 0.930 . S
C1182 C1180 1.384 . S
C1182 C1183 1.372 . S
C1183 C1182 1.372 . S
C1183 C1184 1.400 . S
C1183 C1188 1.490 . S
C1184 H1174 0.930 . S
C1184 C1183 1.400 . S
C1184 C1187 1.386 . S
H1185 C1201 0.930 . S
H1186 C1202 0.931 . S
C1187 H1175 0.929 . S
C1187 C1181 1.390 . S
C1187 C1184 1.386 . S
C1188 C1183 1.490 . S
C1188 C1190 1.395 1_545 S
C1188 C1191 1.403 . S
H1189 C1195 0.930 . S
C1190 H1176 0.930 . S
C1190 C1188 1.395 1_565 S
C1190 C1193 1.403 . S
C1191 C1188 1.403 . S
C1191 C1192 1.524 . S
C1191 C1195 1.400 . S
C1192 H1177 0.960 . S
C1192 H1178 0.960 . S
C1192 H1179 0.960 . S
C1192 C1191 1.524 . S
C1193 C1190 1.403 . S
C1193 C1194 1.392 . S
C1193 C1197 1.495 . S
C1194 C1193 1.392 . S
C1194 C1195 1.385 1_565 S
C1194 C1196 1.478 . S
C1195 H1189 0.930 . S
C1195 C1191 1.400 . S
C1195 C1194 1.385 1_545 S
C1196 C1194 1.478 . S
C1196 C1198 1.381 . S
C1196 C1202 1.383 . S
C1197 C1193 1.495 . S
C1197 H1203 0.959 . S
C1197 H1204 0.961 . S
C1197 H1205 0.960 . S
C1198 C1196 1.381 . S
C1198 C1199 1.394 . S
C1198 H1206 0.930 . S
C1199 C1198 1.394 . S
C1199 C1200 1.383 . S
C1199 H1207 0.929 . S
C1200 C1199 1.383 . S
C1200 C1201 1.377 . S
C1201 H1185 0.930 . S
C1201 C1200 1.377 . S
C1201 C1202 1.379 . S
C1202 H1186 0.931 . S
C1202 C1196 1.383 . S
C1202 C1201 1.379 . S
H1203 C1197 0.959 . S
H1204 C1197 0.961 . S
H1205 C1197 0.960 . S
H1206 C1198 0.930 . S
H1207 C1199 0.929 . S
H1208 C1216 0.929 . S
H1209 C1218 0.930 . S
H1210 C1220 0.930 . S
H1211 C1223 0.929 . S
H1212 C1226 0.930 . S
H1213 C1228 0.960 . S
H1214 C1228 0.960 1_556 S
H1215 C1228 0.960 . S
C1216 H1208 0.929 . S
C1216 C1217 1.377 . S
C1216 C1218 1.384 . S
C1217 C1216 1.377 . S
C1217 C1223 1.390 . S
C1218 H1209 0.930 . S
C1218 C1216 1.384 . S
C1218 C1219 1.372 . S
C1219 C1218 1.372 . S
C1219 C1220 1.400 . S
C1219 C1224 1.490 . S
C1220 H1210 0.930 . S
C1220 C1219 1.400 . S
C1220 C1223 1.386 . S
H1221 C1237 0.930 . S
H1222 C1238 0.931 . S
C1223 H1211 0.929 . S
C1223 C1217 1.390 . S
C1223 C1220 1.386 . S
C1224 C1219 1.490 . S
C1224 C1226 1.395 . S
C1224 C1227 1.403 1_556 S
H1225 C1231 0.930 . S
C1226 H1212 0.930 . S
C1226 C1224 1.395 . S
C1226 C1229 1.403 . S
C1227 C1224 1.403 1_554 S
C1227 C1228 1.524 . S
C1227 C1231 1.400 . S
C1228 H1213 0.960 . S
C1228 H1214 0.960 1_554 S
C1228 H1215 0.960 . S
C1228 C1227 1.524 . S
C1229 C1226 1.403 . S
C1229 C1230 1.392 1_556 S
C1229 C1233 1.495 . S
C1230 C1229 1.392 1_554 S
C1230 C1231 1.385 . S
C1230 C1232 1.478 . S
C1231 H1225 0.930 . S
C1231 C1227 1.400 . S
C1231 C1230 1.385 . S
C1232 C1230 1.478 . S
C1232 C1234 1.381 . S
C1232 C1238 1.383 . S
C1233 C1229 1.495 . S
C1233 H1239 0.959 . S
C1233 H1240 0.935 1_556 S
C1233 H1241 0.960 . S
C1234 C1232 1.381 . S
C1234 C1235 1.394 . S
C1234 H1242 0.930 . S
C1235 C1234 1.394 . S
C1235 C1236 1.383 . S
C1235 H1243 0.929 . S
C1236 C1235 1.383 . S
C1236 C1237 1.377 . S
C1237 H1221 0.930 . S
C1237 C1236 1.377 . S
C1237 C1238 1.379 . S
C1238 H1222 0.931 . S
C1238 C1232 1.383 . S
C1238 C1237 1.379 . S
H1239 C1233 0.959 . S
H1240 C1233 0.935 1_554 S
H1241 C1233 0.960 . S
H1242 C1234 0.930 . S
H1243 C1235 0.929 . S
H1244 C1252 0.929 . S
H1245 C1254 0.930 . S
H1246 C1256 0.930 . S
H1247 C1259 0.929 . S
H1248 C1262 0.930 . S
H1249 C1264 0.960 . S
H1250 C1264 0.960 . S
H1251 C1264 0.960 . S
C1252 H1244 0.929 . S
C1252 C1253 1.377 . S
C1252 C1254 1.384 . S
C1253 C1252 1.377 . S
C1253 C1259 1.390 . S
C1254 H1245 0.930 . S
C1254 C1252 1.384 . S
C1254 C1255 1.372 . S
C1255 C1254 1.372 . S
C1255 C1256 1.400 . S
C1255 C1260 1.490 . S
C1256 H1246 0.930 . S
C1256 C1255 1.400 . S
C1256 C1259 1.386 . S
H1257 C1273 0.930 . S
H1258 C1274 0.931 . S
C1259 H1247 0.929 . S
C1259 C1253 1.390 . S
C1259 C1256 1.386 . S
C1260 C1255 1.490 . S
C1260 C1262 1.395 . S
C1260 C1263 1.403 . S
H1261 C1267 0.930 . S
C1262 H1248 0.930 . S
C1262 C1260 1.395 . S
C1262 C1265 1.403 . S
C1263 C1260 1.403 . S
C1263 C1264 1.524 . S
C1263 C1267 1.400 . S
C1264 H1249 0.960 . S
C1264 H1250 0.960 . S
C1264 H1251 0.960 . S
C1264 C1263 1.524 . S
C1265 C1262 1.403 . S
C1265 C1266 1.392 . S
C1265 C1269 1.495 . S
C1266 C1265 1.392 . S
C1266 C1267 1.385 . S
C1266 C1268 1.478 . S
C1267 H1261 0.930 . S
C1267 C1263 1.400 . S
C1267 C1266 1.385 . S
C1268 C1266 1.478 . S
C1268 C1270 1.381 . S
C1268 C1274 1.383 . S
C1269 C1265 1.495 . S
C1269 H1275 0.959 . S
C1269 H1276 0.961 . S
C1269 H1277 0.960 . S
C1270 C1268 1.381 . S
C1270 C1271 1.394 . S
C1270 H1278 0.930 . S
C1271 C1270 1.394 . S
C1271 C1272 1.383 . S
C1271 H1279 0.929 . S
C1272 C1271 1.383 . S
C1272 C1273 1.377 . S
C1273 H1257 0.930 . S
C1273 C1272 1.377 . S
C1273 C1274 1.379 . S
C1274 H1258 0.931 . S
C1274 C1268 1.383 . S
C1274 C1273 1.379 . S
H1275 C1269 0.959 . S
H1276 C1269 0.961 . S
H1277 C1269 0.960 . S
H1278 C1270 0.930 . S
H1279 C1271 0.929 . S
H1280 C1288 0.929 . S
H1281 C1290 0.930 . S
H1282 C1292 1.020 . S
H1283 C1295 0.929 . S
H1284 C1298 0.930 . S
H1285 C1300 0.960 . S
H1286 C1300 0.960 . S
H1287 C1300 0.960 . S
C1288 H1280 0.929 . S
C1288 C1289 1.377 . S
C1288 C1290 1.384 . S
C1289 C1288 1.377 . S
C1289 C1295 1.390 . S
C1290 H1281 0.930 . S
C1290 C1288 1.384 . S
C1290 C1291 1.372 . S
C1291 C1290 1.372 . S
C1291 C1292 1.400 . S
C1291 C1296 1.490 . S
C1292 H1282 1.020 . S
C1292 C1291 1.400 . S
C1292 C1295 1.386 . S
H1293 C1309 0.930 . S
H1294 C1310 0.931 . S
C1295 H1283 0.929 . S
C1295 C1289 1.390 . S
C1295 C1292 1.386 . S
C1296 C1291 1.490 . S
C1296 C1298 1.395 . S
C1296 C1299 1.403 1_455 S
H1297 C1303 0.930 . S
C1298 H1284 0.930 . S
C1298 C1296 1.395 . S
C1298 C1301 1.403 . S
C1299 C1296 1.403 1_655 S
C1299 C1300 1.524 . S
C1299 C1303 1.400 . S
C1300 H1285 0.960 . S
C1300 H1286 0.960 . S
C1300 H1287 0.960 . S
C1300 C1299 1.524 . S
C1301 C1298 1.403 . S
C1301 C1302 1.392 1_455 S
C1301 C1305 1.495 . S
C1302 C1301 1.392 1_655 S
C1302 C1303 1.385 . S
C1302 C1304 1.478 . S
C1303 H1297 0.930 . S
C1303 C1299 1.400 . S
C1303 C1302 1.385 . S
C1304 C1302 1.478 . S
C1304 C1306 1.381 . S
C1304 C1310 1.383 . S
C1305 C1301 1.495 . S
C1305 H1311 0.959 . S
C1305 H1312 0.961 . S
C1305 H1313 0.960 . S
C1306 C1304 1.381 . S
C1306 C1307 1.394 . S
C1306 H1314 0.949 . S
C1307 C1306 1.394 . S
C1307 C1308 1.383 . S
C1307 H1315 0.929 . S
C1308 C1307 1.383 . S
C1308 C1309 1.377 . S
C1309 H1293 0.930 . S
C1309 C1308 1.377 . S
C1309 C1310 1.379 . S
C1310 H1294 0.931 . S
C1310 C1304 1.383 . S
C1310 C1309 1.379 . S
H1311 C1305 0.959 . S
H1312 C1305 0.961 . S
H1313 C1305 0.960 . S
H1314 C1306 0.949 . S
H1315 C1307 0.929 . S
H1316 C1324 0.929 . S
H1317 C1326 0.930 . S
H1318 C1328 0.930 . S
H1319 C1331 0.929 . S
H1320 C1334 0.930 . S
H1321 C1336 0.960 . S
H1322 C1336 0.960 . S
H1323 C1336 0.960 . S
C1324 H1316 0.929 . S
C1324 C1325 1.377 . S
C1324 C1326 1.384 . S
C1325 C1324 1.377 . S
C1325 C1331 1.390 . S
C1326 H1317 0.930 . S
C1326 C1324 1.384 . S
C1326 C1327 1.372 . S
C1327 C1326 1.372 . S
C1327 C1328 1.400 . S
C1327 C1332 1.490 . S
C1328 H1318 0.930 . S
C1328 C1327 1.400 . S
C1328 C1331 1.386 . S
H1329 C1345 0.930 . S
H1330 C1346 0.931 . S
C1331 H1319 0.929 . S
C1331 C1325 1.390 . S
C1331 C1328 1.386 . S
C1332 C1327 1.490 . S
C1332 C1334 1.395 . S
C1332 C1335 1.403 . S
H1333 C1339 0.930 . S
C1334 H1320 0.930 . S
C1334 C1332 1.395 . S
C1334 C1337 1.403 . S
C1335 C1332 1.403 . S
C1335 C1336 1.524 . S
C1335 C1339 1.400 . S
C1336 H1321 0.960 . S
C1336 H1322 0.960 . S
C1336 H1323 0.960 . S
C1336 C1335 1.524 . S
C1337 C1334 1.403 . S
C1337 C1338 1.392 . S
C1337 C1341 1.495 . S
C1338 C1337 1.392 . S
C1338 C1339 1.385 . S
C1338 C1340 1.478 . S
C1339 H1333 0.930 . S
C1339 C1335 1.400 . S
C1339 C1338 1.385 . S
C1340 C1338 1.478 . S
C1340 C1342 1.381 . S
C1340 C1346 1.383 . S
C1341 C1337 1.495 . S
C1341 H1347 0.959 . S
C1341 H1348 0.961 . S
C1341 H1349 0.960 . S
C1342 C1340 1.381 . S
C1342 C1343 1.394 . S
C1342 H1350 0.930 . S
C1343 C1342 1.394 . S
C1343 C1344 1.383 . S
C1343 H1351 0.929 . S
C1344 C1343 1.383 . S
C1344 C1345 1.377 . S
C1345 H1329 0.930 . S
C1345 C1344 1.377 . S
C1345 C1346 1.379 . S
C1346 H1330 0.931 . S
C1346 C1340 1.383 . S
C1346 C1345 1.379 . S
H1347 C1341 0.959 . S
H1348 C1341 0.961 . S
H1349 C1341 0.960 . S
H1350 C1342 0.930 . S
H1351 C1343 0.929 . S
H1352 C1360 0.929 . S
H1353 C1362 0.930 . S
H1354 C1364 0.930 . S
H1355 C1367 0.929 . S
H1356 C1370 0.930 . S
H1357 C1372 0.960 . S
H1358 C1372 0.960 . S
H1359 C1372 0.960 . S
C1360 H1352 0.929 . S
C1360 C1361 1.377 . S
C1360 C1362 1.384 . S
C1361 C1360 1.377 . S
C1361 C1367 1.390 . S
C1362 H1353 0.930 . S
C1362 C1360 1.384 . S
C1362 C1363 1.372 . S
C1363 C1362 1.372 . S
C1363 C1364 1.400 . S
C1363 C1368 1.490 . S
C1364 H1354 0.930 . S
C1364 C1363 1.400 . S
C1364 C1367 1.386 . S
H1365 C1381 0.930 . S
H1366 C1382 0.931 . S
C1367 H1355 0.929 . S
C1367 C1361 1.390 . S
C1367 C1364 1.386 . S
C1368 C1363 1.490 . S
C1368 C1370 1.395 . S
C1368 C1371 1.403 . S
H1369 C1375 0.930 . S
C1370 H1356 0.930 . S
C1370 C1368 1.395 . S
C1370 C1373 1.403 . S
C1371 C1368 1.403 . S
C1371 C1372 1.524 . S
C1371 C1375 1.400 . S
C1372 H1357 0.960 . S
C1372 H1358 0.960 . S
C1372 H1359 0.960 . S
C1372 C1371 1.524 . S
C1373 C1370 1.403 . S
C1373 C1374 1.392 . S
C1373 C1377 1.495 . S
C1374 C1373 1.392 . S
C1374 C1375 1.385 . S
C1374 C1376 1.478 . S
C1375 H1369 0.930 . S
C1375 C1371 1.400 . S
C1375 C1374 1.385 . S
C1376 C1374 1.478 . S
C1376 C1378 1.381 . S
C1376 C1382 1.383 . S
C1377 C1373 1.495 . S
C1377 H1383 0.959 . S
C1377 H1384 0.961 . S
C1377 H1385 0.960 . S
C1378 C1376 1.381 . S
C1378 C1379 1.394 . S
C1378 H1386 0.930 . S
C1379 C1378 1.394 . S
C1379 C1380 1.383 . S
C1379 H1387 0.929 . S
C1380 C1379 1.383 . S
C1380 C1381 1.377 . S
C1381 H1365 0.930 . S
C1381 C1380 1.377 . S
C1381 C1382 1.379 . S
C1382 H1366 0.931 . S
C1382 C1376 1.383 . S
C1382 C1381 1.379 . S
H1383 C1377 0.959 . S
H1384 C1377 0.961 . S
H1385 C1377 0.960 . S
H1386 C1378 0.930 . S
H1387 C1379 0.929 . S
H1388 C1396 0.929 . S
H1389 C1398 0.930 . S
H1390 C1400 0.930 . S
H1391 C1403 0.929 . S
H1392 C1406 0.930 . S
H1393 C1408 0.960 . S
H1394 C1408 0.960 . S
H1395 C1408 0.960 . S
C1396 H1388 0.929 . S
C1396 C1397 1.377 . S
C1396 C1398 1.384 . S
C1397 C1396 1.377 . S
C1397 C1403 1.390 . S
C1398 H1389 0.930 . S
C1398 C1396 1.384 . S
C1398 C1399 1.372 . S
C1399 C1398 1.372 . S
C1399 C1400 1.400 . S
C1399 C1404 1.490 . S
C1400 H1390 0.930 . S
C1400 C1399 1.400 . S
C1400 C1403 1.386 . S
H1401 C1417 0.930 . S
H1402 C1418 0.931 . S
C1403 H1391 0.929 . S
C1403 C1397 1.390 . S
C1403 C1400 1.386 . S
C1404 C1399 1.490 . S
C1404 C1406 1.395 . S
C1404 C1407 1.403 . S
H1405 C1411 0.930 . S
C1406 H1392 0.930 . S
C1406 C1404 1.395 . S
C1406 C1409 1.403 . S
C1407 C1404 1.403 . S
C1407 C1408 1.524 . S
C1407 C1411 1.400 . S
C1408 H1393 0.960 . S
C1408 H1394 0.960 . S
C1408 H1395 0.960 . S
C1408 C1407 1.524 . S
C1409 C1406 1.403 . S
C1409 C1410 1.392 . S
C1409 C1413 1.495 . S
C1410 C1409 1.392 . S
C1410 C1411 1.385 . S
C1410 C1412 1.478 . S
C1411 H1405 0.930 . S
C1411 C1407 1.400 . S
C1411 C1410 1.385 . S
C1412 C1410 1.478 . S
C1412 C1414 1.381 . S
C1412 C1418 1.383 . S
C1413 C1409 1.495 . S
C1413 H1419 0.959 . S
C1413 H1420 0.961 . S
C1413 H1421 0.960 . S
C1414 C1412 1.381 . S
C1414 C1415 1.394 . S
C1414 H1422 0.930 . S
C1415 C1414 1.394 . S
C1415 C1416 1.383 . S
C1415 H1423 0.929 . S
C1416 C1415 1.383 . S
C1416 C1417 1.377 . S
C1417 H1401 0.930 . S
C1417 C1416 1.377 . S
C1417 C1418 1.379 . S
C1418 H1402 0.931 . S
C1418 C1412 1.383 . S
C1418 C1417 1.379 . S
H1419 C1413 0.959 . S
H1420 C1413 0.961 . S
H1421 C1413 0.960 . S
H1422 C1414 0.930 . S
H1423 C1415 0.929 . S
H1424 C1432 0.929 . S
H1425 C1434 0.930 . S
H1426 C1436 0.930 . S
H1427 C1439 0.929 . S
H1428 C1442 0.930 . S
H1429 C1444 0.960 . S
H1430 C1444 0.960 . S
H1431 C1444 0.960 . S
C1432 H1424 0.929 . S
C1432 C1433 1.377 . S
C1432 C1434 1.384 . S
C1433 C1432 1.377 . S
C1433 C1439 1.390 . S
C1434 H1425 0.930 . S
C1434 C1432 1.384 . S
C1434 C1435 1.372 . S
C1435 C1434 1.372 . S
C1435 C1436 1.400 . S
C1435 C1440 1.490 . S
C1436 H1426 0.930 . S
C1436 C1435 1.400 . S
C1436 C1439 1.386 . S
H1437 C1453 0.930 . S
H1438 C1454 0.931 . S
C1439 H1427 0.929 . S
C1439 C1433 1.390 . S
C1439 C1436 1.386 . S
C1440 C1435 1.490 . S
C1440 C1442 1.395 . S
C1440 C1443 1.403 . S
H1441 C1447 0.930 . S
C1442 H1428 0.930 . S
C1442 C1440 1.395 . S
C1442 C1445 1.403 . S
C1443 C1440 1.403 . S
C1443 C1444 1.524 . S
C1443 C1447 1.400 . S
C1444 H1429 0.960 . S
C1444 H1430 0.960 . S
C1444 H1431 0.960 . S
C1444 C1443 1.524 . S
C1445 C1442 1.403 . S
C1445 C1446 1.392 . S
C1445 C1449 1.495 . S
C1446 C1445 1.392 . S
C1446 C1447 1.385 . S
C1446 C1448 1.478 . S
C1447 H1441 0.930 . S
C1447 C1443 1.400 . S
C1447 C1446 1.385 . S
C1448 C1446 1.478 . S
C1448 C1450 1.381 . S
C1448 C1454 1.383 . S
C1449 C1445 1.495 . S
C1449 H1455 0.959 . S
C1449 H1456 0.961 . S
C1449 H1457 0.960 . S
C1450 C1448 1.381 . S
C1450 C1451 1.394 . S
C1450 H1458 0.930 . S
C1451 C1450 1.394 . S
C1451 C1452 1.383 . S
C1451 H1459 0.929 . S
C1452 C1451 1.383 . S
C1452 C1453 1.377 . S
C1453 H1437 0.930 . S
C1453 C1452 1.377 . S
C1453 C1454 1.379 . S
C1454 H1438 0.931 . S
C1454 C1448 1.383 . S
C1454 C1453 1.379 . S
H1455 C1449 0.959 . S
H1456 C1449 0.961 . S
H1457 C1449 0.960 . S
H1458 C1450 0.930 . S
H1459 C1451 0.929 . S
H1460 C1468 0.929 . S
H1461 C1470 0.930 . S
H1462 C1472 0.930 1_545 S
H1463 C1475 0.929 . S
H1464 C1478 0.930 . S
H1465 C1480 0.960 . S
H1466 C1480 0.960 . S
H1467 C1480 0.960 . S
C1468 H1460 0.929 . S
C1468 C1469 1.377 . S
C1468 C1470 1.384 . S
C1469 C1468 1.377 . S
C1469 C1475 1.390 . S
C1470 H1461 0.930 . S
C1470 C1468 1.384 . S
C1470 C1471 1.372 . S
C1471 C1470 1.372 . S
C1471 C1472 1.400 . S
C1471 C1476 1.490 . S
C1472 H1462 0.930 1_565 S
C1472 C1471 1.400 . S
C1472 C1475 1.386 . S
H1473 C1489 0.930 . S
H1474 C1490 0.931 . S
C1475 H1463 0.929 . S
C1475 C1469 1.390 . S
C1475 C1472 1.386 . S
C1476 C1471 1.490 . S
C1476 C1478 1.395 . S
C1476 C1479 1.403 1_565 S
H1477 C1483 0.930 . S
C1478 H1464 0.930 . S
C1478 C1476 1.395 . S
C1478 C1481 1.403 . S
C1479 C1476 1.403 1_545 S
C1479 C1480 1.524 . S
C1479 C1483 1.400 . S
C1480 H1465 0.960 . S
C1480 H1466 0.960 . S
C1480 H1467 0.960 . S
C1480 C1479 1.524 . S
C1481 C1478 1.403 . S
C1481 C1482 1.392 1_565 S
C1481 C1485 1.495 . S
C1482 C1481 1.392 1_545 S
C1482 C1483 1.385 . S
C1482 C1484 1.478 . S
C1483 H1477 0.930 . S
C1483 C1479 1.400 . S
C1483 C1482 1.385 . S
C1484 C1482 1.478 . S
C1484 C1486 1.381 . S
C1484 C1490 1.383 . S
C1485 C1481 1.495 . S
C1485 H1491 0.959 . S
C1485 H1492 0.961 . S
C1485 H1493 0.960 . S
C1486 C1484 1.381 . S
C1486 C1487 1.394 . S
C1486 H1494 0.930 1_545 S
C1487 C1486 1.394 . S
C1487 C1488 1.383 . S
C1487 H1495 0.929 . S
C1488 C1487 1.383 . S
C1488 C1489 1.377 . S
C1489 H1473 0.930 . S
C1489 C1488 1.377 . S
C1489 C1490 1.379 . S
C1490 H1474 0.931 . S
C1490 C1484 1.383 . S
C1490 C1489 1.379 . S
H1491 C1485 0.959 . S
H1492 C1485 0.961 . S
H1493 C1485 0.960 . S
H1494 C1486 0.930 1_565 S
H1495 C1487 0.929 . S
H1496 C1504 0.929 . S
H1497 C1506 0.930 . S
H1498 C1508 0.930 . S
H1499 C1511 0.929 . S
H1500 C1514 0.930 . S
H1501 C1516 0.960 . S
H1502 C1516 0.960 . S
H1503 C1516 0.960 . S
C1504 H1496 0.929 . S
C1504 C1505 1.377 . S
C1504 C1506 1.384 . S
C1505 C1504 1.377 . S
C1505 C1511 1.390 . S
C1506 H1497 0.930 . S
C1506 C1504 1.384 . S
C1506 C1507 1.372 . S
C1507 C1506 1.372 . S
C1507 C1508 1.400 . S
C1507 C1512 1.490 . S
C1508 H1498 0.930 . S
C1508 C1507 1.400 . S
C1508 C1511 1.386 . S
H1509 C1525 0.930 . S
H1510 C1526 0.931 . S
C1511 H1499 0.929 . S
C1511 C1505 1.390 . S
C1511 C1508 1.386 . S
C1512 C1507 1.490 . S
C1512 C1514 1.395 . S
C1512 C1515 1.403 . S
H1513 C1519 0.930 . S
C1514 H1500 0.930 . S
C1514 C1512 1.395 . S
C1514 C1517 1.403 . S
C1515 C1512 1.403 . S
C1515 C1516 1.524 . S
C1515 C1519 1.400 . S
C1516 H1501 0.960 . S
C1516 H1502 0.960 . S
C1516 H1503 0.960 . S
C1516 C1515 1.524 . S
C1517 C1514 1.403 . S
C1517 C1518 1.392 . S
C1517 C1521 1.495 . S
C1518 C1517 1.392 . S
C1518 C1519 1.385 . S
C1518 C1520 1.478 . S
C1519 H1513 0.930 . S
C1519 C1515 1.400 . S
C1519 C1518 1.385 . S
C1520 C1518 1.478 . S
C1520 C1522 1.381 . S
C1520 C1526 1.383 . S
C1521 C1517 1.495 . S
C1521 H1527 0.959 . S
C1521 H1528 0.961 . S
C1521 H1529 0.960 . S
C1522 C1520 1.381 . S
C1522 C1523 1.394 . S
C1522 H1530 0.930 . S
C1523 C1522 1.394 . S
C1523 C1524 1.383 . S
C1523 H1531 0.929 . S
C1524 C1523 1.383 . S
C1524 C1525 1.377 . S
C1525 H1509 0.930 . S
C1525 C1524 1.377 . S
C1525 C1526 1.379 . S
C1526 H1510 0.931 . S
C1526 C1520 1.383 . S
C1526 C1525 1.379 . S
H1527 C1521 0.959 . S
H1528 C1521 0.961 . S
H1529 C1521 0.960 . S
H1530 C1522 0.930 . S
H1531 C1523 0.929 . S
H1532 C1540 0.929 . S
H1533 C1542 0.930 . S
H1534 C1544 0.930 . S
H1535 C1547 0.929 . S
H1536 C1550 0.930 . S
H1537 C1552 0.960 . S
H1538 C1552 0.960 . S
H1539 C1552 0.960 . S
C1540 H1532 0.929 . S
C1540 C1541 1.377 . S
C1540 C1542 1.384 . S
C1541 C1540 1.377 . S
C1541 C1547 1.390 . S
C1542 H1533 0.930 . S
C1542 C1540 1.384 . S
C1542 C1543 1.372 . S
C1543 C1542 1.372 . S
C1543 C1544 1.400 . S
C1543 C1548 1.490 . S
C1544 H1534 0.930 . S
C1544 C1543 1.400 . S
C1544 C1547 1.386 . S
H1545 C1561 0.930 . S
H1546 C1562 0.931 . S
C1547 H1535 0.929 . S
C1547 C1541 1.390 . S
C1547 C1544 1.386 . S
C1548 C1543 1.490 . S
C1548 C1550 1.395 . S
C1548 C1551 1.403 . S
H1549 C1555 0.930 . S
C1550 H1536 0.930 . S
C1550 C1548 1.395 . S
C1550 C1553 1.403 1_554 S
C1551 C1548 1.403 . S
C1551 C1552 1.524 . S
C1551 C1555 1.400 1_554 S
C1552 H1537 0.960 . S
C1552 H1538 0.960 . S
C1552 H1539 0.960 . S
C1552 C1551 1.524 . S
C1553 C1550 1.403 1_556 S
C1553 C1554 1.392 . S
C1553 C1557 1.495 . S
C1554 C1553 1.392 . S
C1554 C1555 1.385 . S
C1554 C1556 1.478 . S
C1555 H1549 0.930 . S
C1555 C1551 1.400 1_556 S
C1555 C1554 1.385 . S
C1556 C1554 1.478 . S
C1556 C1558 1.381 . S
C1556 C1562 1.383 . S
C1557 C1553 1.495 . S
C1557 H1563 0.959 . S
C1557 H1564 0.961 . S
C1557 H1565 0.960 . S
C1558 C1556 1.381 . S
C1558 C1559 1.394 . S
C1558 H1566 0.930 . S
C1559 C1558 1.394 . S
C1559 C1560 1.383 . S
C1559 H1567 0.929 . S
C1560 C1559 1.383 . S
C1560 C1561 1.377 . S
C1561 H1545 0.930 . S
C1561 C1560 1.377 . S
C1561 C1562 1.379 . S
C1562 H1546 0.931 . S
C1562 C1556 1.383 . S
C1562 C1561 1.379 . S
H1563 C1557 0.959 . S
H1564 C1557 0.961 . S
H1565 C1557 0.960 . S
H1566 C1558 0.930 . S
H1567 C1559 0.929 . S
H1568 C1576 0.929 . S
H1569 C1578 0.930 . S
H1570 C1580 0.930 . S
H1571 C1583 0.929 . S
H1572 C1586 0.930 . S
H1573 C1588 0.960 . S
H1574 C1588 0.960 . S
H1575 C1588 0.960 . S
C1576 H1568 0.929 . S
C1576 C1577 1.377 . S
C1576 C1578 1.384 . S
C1577 C1576 1.377 . S
C1577 C1583 1.390 . S
C1578 H1569 0.930 . S
C1578 C1576 1.384 . S
C1578 C1579 1.372 . S
C1579 C1578 1.372 . S
C1579 C1580 1.400 . S
C1579 C1584 1.490 . S
C1580 H1570 0.930 . S
C1580 C1579 1.400 . S
C1580 C1583 1.386 . S
H1581 C1597 0.930 . S
H1582 C1598 0.931 . S
C1583 H1571 0.929 . S
C1583 C1577 1.390 . S
C1583 C1580 1.386 . S
C1584 C1579 1.490 . S
C1584 C1586 1.395 . S
C1584 C1587 1.403 . S
H1585 C1591 0.930 . S
C1586 H1572 0.930 . S
C1586 C1584 1.395 . S
C1586 C1589 1.403 . S
C1587 C1584 1.403 . S
C1587 C1588 1.524 . S
C1587 C1591 1.400 . S
C1588 H1573 0.960 . S
C1588 H1574 0.960 . S
C1588 H1575 0.960 . S
C1588 C1587 1.524 . S
C1589 C1586 1.403 . S
C1589 C1590 1.392 . S
C1589 C1593 1.495 . S
C1590 C1589 1.392 . S
C1590 C1591 1.385 . S
C1590 C1592 1.478 . S
C1591 H1585 0.930 . S
C1591 C1587 1.400 . S
C1591 C1590 1.385 . S
C1592 C1590 1.478 . S
C1592 C1594 1.381 . S
C1592 C1598 1.383 . S
C1593 C1589 1.495 . S
C1593 H1599 0.959 . S
C1593 H1600 0.961 . S
C1593 H1601 0.960 . S
C1594 C1592 1.381 . S
C1594 C1595 1.394 . S
C1594 H1602 0.930 . S
C1595 C1594 1.394 . S
C1595 C1596 1.383 . S
C1595 H1603 0.929 . S
C1596 C1595 1.383 . S
C1596 C1597 1.377 . S
C1597 H1581 0.930 . S
C1597 C1596 1.377 . S
C1597 C1598 1.379 . S
C1598 H1582 0.931 . S
C1598 C1592 1.383 . S
C1598 C1597 1.379 . S
H1599 C1593 0.959 . S
H1600 C1593 0.961 . S
H1601 C1593 0.960 . S
H1602 C1594 0.930 . S
H1603 C1595 0.929 . S
H1604 C1612 0.929 . S
H1605 C1614 0.930 . S
H1606 C1616 0.930 . S
H1607 C1619 0.929 . S
H1608 C1622 0.930 . S
H1609 C1624 0.960 . S
H1610 C1624 0.960 . S
H1611 C1624 0.960 . S
C1612 H1604 0.929 . S
C1612 C1613 1.377 . S
C1612 C1614 1.384 . S
C1613 C1612 1.377 . S
C1613 C1619 1.390 . S
C1614 H1605 0.930 . S
C1614 C1612 1.384 . S
C1614 C1615 1.372 . S
C1615 C1614 1.372 . S
C1615 C1616 1.400 . S
C1615 C1620 1.490 . S
C1616 H1606 0.930 . S
C1616 C1615 1.400 . S
C1616 C1619 1.386 . S
H1617 C1633 0.930 . S
H1618 C1634 0.931 . S
C1619 H1607 0.929 . S
C1619 C1613 1.390 . S
C1619 C1616 1.386 . S
C1620 C1615 1.490 . S
C1620 C1622 1.395 . S
C1620 C1623 1.403 . S
H1621 C1627 0.930 . S
C1622 H1608 0.930 . S
C1622 C1620 1.395 . S
C1622 C1625 1.403 . S
C1623 C1620 1.403 . S
C1623 C1624 1.524 . S
C1623 C1627 1.400 . S
C1624 H1609 0.960 . S
C1624 H1610 0.960 . S
C1624 H1611 0.960 . S
C1624 C1623 1.524 . S
C1625 C1622 1.403 . S
C1625 C1626 1.392 . S
C1625 C1629 1.495 . S
C1626 C1625 1.392 . S
C1626 C1627 1.385 . S
C1626 C1628 1.478 . S
C1627 H1621 0.930 . S
C1627 C1623 1.400 . S
C1627 C1626 1.385 . S
C1628 C1626 1.478 . S
C1628 C1630 1.381 . S
C1628 C1634 1.383 . S
C1629 C1625 1.495 . S
C1629 H1635 0.959 . S
C1629 H1636 0.961 . S
C1629 H1637 0.960 . S
C1630 C1628 1.381 . S
C1630 C1631 1.394 . S
C1630 H1638 0.930 . S
C1631 C1630 1.394 . S
C1631 C1632 1.383 1_565 S
C1631 H1639 0.929 . S
C1632 C1631 1.383 1_545 S
C1632 C1633 1.377 . S
C1633 H1617 0.930 . S
C1633 C1632 1.377 . S
C1633 C1634 1.379 1_545 S
C1634 H1618 0.931 . S
C1634 C1628 1.383 . S
C1634 C1633 1.379 1_565 S
H1635 C1629 0.959 . S
H1636 C1629 0.961 . S
H1637 C1629 0.960 . S
H1638 C1630 0.930 . S
H1639 C1631 0.929 . S
H1640 C1648 0.929 . S
H1641 C1650 0.930 . S
H1642 C1652 0.930 . S
H1643 C1655 0.929 . S
H1644 C1658 0.930 . S
H1645 C1660 0.960 . S
H1646 C1660 0.960 . S
H1647 C1660 0.960 . S
C1648 H1640 0.929 . S
C1648 C1649 1.377 1_565 S
C1648 C1650 1.384 . S
C1649 C1648 1.377 1_545 S
C1649 C1655 1.390 . S
C1650 H1641 0.930 . S
C1650 C1648 1.384 . S
C1650 C1651 1.372 . S
C1651 C1650 1.372 . S
C1651 C1652 1.400 . S
C1651 C1656 1.490 . S
C1652 H1642 0.930 . S
C1652 C1651 1.400 . S
C1652 C1655 1.386 1_565 S
H1653 C1669 0.930 . S
H1654 C1670 0.931 . S
C1655 H1643 0.929 . S
C1655 C1649 1.390 . S
C1655 C1652 1.386 1_545 S
C1656 C1651 1.490 . S
C1656 C1658 1.395 . S
C1656 C1659 1.403 . S
H1657 C1663 0.930 . S
C1658 H1644 0.930 . S
C1658 C1656 1.395 . S
C1658 C1661 1.403 . S
C1659 C1656 1.403 . S
C1659 C1660 1.524 . S
C1659 C1663 1.400 . S
C1660 H1645 0.960 . S
C1660 H1646 0.960 . S
C1660 H1647 0.960 . S
C1660 C1659 1.524 . S
C1661 C1658 1.403 . S
C1661 C1662 1.392 . S
C1661 C1665 1.495 . S
C1662 C1661 1.392 . S
C1662 C1663 1.385 . S
C1662 C1664 1.478 . S
C1663 H1657 0.930 . S
C1663 C1659 1.400 . S
C1663 C1662 1.385 . S
C1664 C1662 1.478 . S
C1664 C1666 1.381 . S
C1664 C1670 1.383 . S
C1665 C1661 1.495 . S
C1665 H1671 0.959 . S
C1665 H1672 0.961 . S
C1665 H1673 0.960 . S
C1666 C1664 1.381 . S
C1666 C1667 1.394 . S
C1666 H1674 0.930 . S
C1667 C1666 1.394 . S
C1667 C1668 1.383 . S
C1667 H1675 0.929 . S
C1668 C1667 1.383 . S
C1668 C1669 1.377 . S
C1669 H1653 0.930 . S
C1669 C1668 1.377 . S
C1669 C1670 1.379 . S
C1670 H1654 0.931 . S
C1670 C1664 1.383 . S
C1670 C1669 1.379 . S
H1671 C1665 0.959 . S
H1672 C1665 0.961 . S
H1673 C1665 0.960 . S
H1674 C1666 0.930 . S
H1675 C1667 0.929 . S
H1676 C1684 0.929 . S
H1677 C1686 0.930 . S
H1678 C1688 0.930 . S
H1679 C1691 0.929 . S
H1680 C1694 0.930 . S
H1681 C1696 0.960 . S
H1682 C1696 0.960 . S
H1683 C1696 0.960 . S
C1684 H1676 0.929 . S
C1684 C1685 1.377 . S
C1684 C1686 1.384 . S
C1685 C1684 1.377 . S
C1685 C1691 1.390 . S
C1686 H1677 0.930 . S
C1686 C1684 1.384 . S
C1686 C1687 1.372 . S
C1687 C1686 1.372 . S
C1687 C1688 1.400 . S
C1687 C1692 1.490 . S
C1688 H1678 0.930 . S
C1688 C1687 1.400 . S
C1688 C1691 1.386 . S
H1689 C1705 0.930 . S
H1690 C1706 0.931 . S
C1691 H1679 0.929 . S
C1691 C1685 1.390 . S
C1691 C1688 1.386 . S
C1692 C1687 1.490 . S
C1692 C1694 1.395 . S
C1692 C1695 1.403 . S
H1693 C1699 0.930 . S
C1694 H1680 0.930 . S
C1694 C1692 1.395 . S
C1694 C1697 1.403 . S
C1695 C1692 1.403 . S
C1695 C1696 1.524 . S
C1695 C1699 1.400 . S
C1696 H1681 0.960 . S
C1696 H1682 0.960 . S
C1696 H1683 0.960 . S
C1696 C1695 1.524 . S
C1697 C1694 1.403 . S
C1697 C1698 1.392 . S
C1697 C1701 1.495 . S
C1698 C1697 1.392 . S
C1698 C1699 1.385 . S
C1698 C1700 1.478 . S
C1699 H1693 0.930 . S
C1699 C1695 1.400 . S
C1699 C1698 1.385 . S
C1700 C1698 1.478 . S
C1700 C1702 1.381 . S
C1700 C1706 1.383 . S
C1701 C1697 1.495 . S
C1701 H1707 0.959 . S
C1701 H1708 0.961 . S
C1701 H1709 0.960 . S
C1702 C1700 1.381 . S
C1702 C1703 1.394 . S
C1702 H1710 0.930 . S
C1703 C1702 1.394 . S
C1703 C1704 1.383 . S
C1703 H1711 0.929 . S
C1704 C1703 1.383 . S
C1704 C1705 1.377 . S
C1705 H1689 0.930 . S
C1705 C1704 1.377 . S
C1705 C1706 1.379 . S
C1706 H1690 0.931 . S
C1706 C1700 1.383 . S
C1706 C1705 1.379 . S
H1707 C1701 0.959 . S
H1708 C1701 0.961 . S
H1709 C1701 0.960 . S
H1710 C1702 0.930 . S
H1711 C1703 0.929 . S
H1712 C1720 0.929 . S
H1713 C1722 0.930 . S
H1714 C1724 0.930 . S
H1715 C1727 0.929 . S
H1716 C1730 0.930 . S
H1717 C1732 0.960 . S
H1718 C1732 0.960 . S
H1719 C1732 0.960 . S
C1720 H1712 0.929 . S
C1720 C1721 1.377 . S
C1720 C1722 1.384 . S
C1721 C1720 1.377 . S
C1721 C1727 1.390 . S
C1722 H1713 0.930 . S
C1722 C1720 1.384 . S
C1722 C1723 1.372 . S
C1723 C1722 1.372 . S
C1723 C1724 1.400 . S
C1723 C1728 1.490 . S
C1724 H1714 0.930 . S
C1724 C1723 1.400 . S
C1724 C1727 1.386 . S
H1725 C1741 0.930 . S
H1726 C1742 0.931 . S
C1727 H1715 0.929 . S
C1727 C1721 1.390 . S
C1727 C1724 1.386 . S
C1728 C1723 1.490 . S
C1728 C1730 1.395 . S
C1728 C1731 1.403 . S
H1729 C1735 0.930 . S
C1730 H1716 0.930 . S
C1730 C1728 1.395 . S
C1730 C1733 1.403 . S
C1731 C1728 1.403 . S
C1731 C1732 1.524 . S
C1731 C1735 1.400 . S
C1732 H1717 0.960 . S
C1732 H1718 0.960 . S
C1732 H1719 0.960 . S
C1732 C1731 1.524 . S
C1733 C1730 1.403 . S
C1733 C1734 1.392 . S
C1733 C1737 1.495 . S
C1734 C1733 1.392 . S
C1734 C1735 1.385 . S
C1734 C1736 1.478 . S
C1735 H1729 0.930 . S
C1735 C1731 1.400 . S
C1735 C1734 1.385 . S
C1736 C1734 1.478 . S
C1736 C1738 1.381 . S
C1736 C1742 1.383 . S
C1737 C1733 1.495 . S
C1737 H1743 0.959 . S
C1737 H1744 0.961 . S
C1737 H1745 0.960 . S
C1738 C1736 1.381 . S
C1738 C1739 1.394 . S
C1738 H1746 0.930 . S
C1739 C1738 1.394 . S
C1739 C1740 1.383 . S
C1739 H1747 0.929 . S
C1740 C1739 1.383 . S
C1740 C1741 1.377 . S
C1741 H1725 0.930 . S
C1741 C1740 1.377 . S
C1741 C1742 1.379 . S
C1742 H1726 0.931 . S
C1742 C1736 1.383 . S
C1742 C1741 1.379 . S
H1743 C1737 0.959 . S
H1744 C1737 0.961 . S
H1745 C1737 0.960 . S
H1746 C1738 0.930 . S
H1747 C1739 0.929 . S
H1748 C1756 0.929 . S
H1749 C1758 0.930 . S
H1750 C1760 0.930 . S
H1751 C1763 0.929 . S
H1752 C1766 0.930 . S
H1753 C1768 0.960 . S
H1754 C1768 0.960 . S
H1755 C1768 0.960 . S
C1756 H1748 0.929 . S
C1756 C1757 1.377 . S
C1756 C1758 1.384 1_565 S
C1757 C1756 1.377 . S
C1757 C1763 1.390 1_565 S
C1758 H1749 0.930 . S
C1758 C1756 1.384 1_545 S
C1758 C1759 1.372 . S
C1759 C1758 1.372 . S
C1759 C1760 1.400 . S
C1759 C1764 1.490 . S
C1760 H1750 0.930 . S
C1760 C1759 1.400 . S
C1760 C1763 1.386 . S
H1761 C1777 0.930 . S
H1762 C1778 0.931 . S
C1763 H1751 0.929 . S
C1763 C1757 1.390 1_545 S
C1763 C1760 1.386 . S
C1764 C1759 1.490 . S
C1764 C1766 1.395 . S
C1764 C1767 1.403 . S
H1765 C1771 0.930 . S
C1766 H1752 0.930 . S
C1766 C1764 1.395 . S
C1766 C1769 1.403 . S
C1767 C1764 1.403 . S
C1767 C1768 1.524 . S
C1767 C1771 1.400 . S
C1768 H1753 0.960 . S
C1768 H1754 0.960 . S
C1768 H1755 0.960 . S
C1768 C1767 1.524 . S
C1769 C1766 1.403 . S
C1769 C1770 1.392 . S
C1769 C1773 1.495 . S
C1770 C1769 1.392 . S
C1770 C1771 1.385 . S
C1770 C1772 1.478 . S
C1771 H1765 0.930 . S
C1771 C1767 1.400 . S
C1771 C1770 1.385 . S
C1772 C1770 1.478 . S
C1772 C1774 1.381 . S
C1772 C1778 1.383 . S
C1773 C1769 1.495 . S
C1773 H1779 0.959 . S
C1773 H1780 0.961 . S
C1773 H1781 0.960 . S
C1774 C1772 1.381 . S
C1774 C1775 1.394 . S
C1774 H1782 0.930 . S
C1775 C1774 1.394 . S
C1775 C1776 1.383 . S
C1775 H1783 0.929 . S
C1776 C1775 1.383 . S
C1776 C1777 1.377 . S
C1777 H1761 0.930 . S
C1777 C1776 1.377 . S
C1777 C1778 1.379 . S
C1778 H1762 0.931 . S
C1778 C1772 1.383 . S
C1778 C1777 1.379 . S
H1779 C1773 0.959 . S
H1780 C1773 0.961 . S
H1781 C1773 0.960 . S
H1782 C1774 0.930 . S
H1783 C1775 0.929 . S
H1784 C1792 0.929 . S
H1785 C1794 0.930 . S
H1786 C1796 0.930 . S
H1787 C1799 0.929 . S
H1788 C1802 0.930 . S
H1789 C1804 0.960 . S
H1790 C1804 0.960 . S
H1791 C1804 0.960 . S
C1792 H1784 0.929 . S
C1792 C1793 1.377 . S
C1792 C1794 1.384 . S
C1793 C1792 1.377 . S
C1793 C1799 1.390 . S
C1794 H1785 0.930 . S
C1794 C1792 1.384 . S
C1794 C1795 1.372 . S
C1795 C1794 1.372 . S
C1795 C1796 1.400 . S
C1795 C1800 1.490 . S
C1796 H1786 0.930 . S
C1796 C1795 1.400 . S
C1796 C1799 1.386 . S
H1797 C1813 0.930 . S
H1798 C1814 0.931 . S
C1799 H1787 0.929 . S
C1799 C1793 1.390 . S
C1799 C1796 1.386 . S
C1800 C1795 1.490 . S
C1800 C1802 1.395 . S
C1800 C1803 1.403 . S
H1801 C1807 0.930 . S
C1802 H1788 0.930 . S
C1802 C1800 1.395 . S
C1802 C1805 1.403 . S
C1803 C1800 1.403 . S
C1803 C1804 1.524 . S
C1803 C1807 1.400 . S
C1804 H1789 0.960 . S
C1804 H1790 0.960 . S
C1804 H1791 0.960 . S
C1804 C1803 1.524 . S
C1805 C1802 1.403 . S
C1805 C1806 1.392 . S
C1805 C1809 1.495 . S
C1806 C1805 1.392 . S
C1806 C1807 1.385 . S
C1806 C1808 1.478 . S
C1807 H1801 0.930 . S
C1807 C1803 1.400 . S
C1807 C1806 1.385 . S
C1808 C1806 1.478 . S
C1808 C1810 1.381 . S
C1808 C1814 1.383 . S
C1809 C1805 1.495 . S
C1809 H1815 0.959 . S
C1809 H1816 0.961 . S
C1809 H1817 0.960 . S
C1810 C1808 1.381 . S
C1810 C1811 1.394 1_545 S
C1810 H1818 0.930 1_545 S
C1811 C1810 1.394 1_565 S
C1811 C1812 1.383 . S
C1811 H1819 0.929 . S
C1812 C1811 1.383 . S
C1812 C1813 1.377 1_565 S
C1813 H1797 0.930 . S
C1813 C1812 1.377 1_545 S
C1813 C1814 1.379 . S
C1814 H1798 0.931 . S
C1814 C1808 1.383 . S
C1814 C1813 1.379 . S
H1815 C1809 0.959 . S
H1816 C1809 0.961 . S
H1817 C1809 0.960 . S
H1818 C1810 0.930 1_565 S
H1819 C1811 0.929 . S
H1820 C1828 0.929 . S
H1821 C1830 0.930 . S
H1822 C1832 0.930 . S
H1823 C1835 0.929 . S
H1824 C1838 0.930 . S
H1825 C1840 0.960 . S
H1826 C1840 0.960 . S
H1827 C1840 0.960 . S
C1828 H1820 0.929 . S
C1828 C1829 1.377 . S
C1828 C1830 1.384 . S
C1829 C1828 1.377 . S
C1829 C1835 1.390 . S
C1830 H1821 0.930 . S
C1830 C1828 1.384 . S
C1830 C1831 1.372 . S
C1831 C1830 1.372 . S
C1831 C1832 1.400 . S
C1831 C1836 1.490 . S
C1832 H1822 0.930 . S
C1832 C1831 1.400 . S
C1832 C1835 1.386 . S
H1833 C1849 0.930 . S
H1834 C1850 0.931 . S
C1835 H1823 0.929 . S
C1835 C1829 1.390 . S
C1835 C1832 1.386 . S
C1836 C1831 1.490 . S
C1836 C1838 1.395 . S
C1836 C1839 1.403 . S
H1837 C1843 0.930 . S
C1838 H1824 0.930 . S
C1838 C1836 1.395 . S
C1838 C1841 1.403 . S
C1839 C1836 1.403 . S
C1839 C1840 1.524 . S
C1839 C1843 1.400 . S
C1840 H1825 0.960 . S
C1840 H1826 0.960 . S
C1840 H1827 0.960 . S
C1840 C1839 1.524 . S
C1841 C1838 1.403 . S
C1841 C1842 1.392 . S
C1841 C1845 1.495 . S
C1842 C1841 1.392 . S
C1842 C1843 1.385 . S
C1842 C1844 1.478 . S
C1843 H1837 0.930 . S
C1843 C1839 1.400 . S
C1843 C1842 1.385 . S
C1844 C1842 1.478 . S
C1844 C1846 1.381 . S
C1844 C1850 1.383 . S
C1845 C1841 1.495 . S
C1845 H1851 0.959 . S
C1845 H1852 0.961 . S
C1845 H1853 0.960 . S
C1846 C1844 1.381 . S
C1846 C1847 1.394 . S
C1846 H1854 0.930 . S
C1847 C1846 1.394 . S
C1847 C1848 1.383 . S
C1847 H1855 0.929 . S
C1848 C1847 1.383 . S
C1848 C1849 1.377 . S
C1849 H1833 0.930 . S
C1849 C1848 1.377 . S
C1849 C1850 1.379 . S
C1850 H1834 0.931 . S
C1850 C1844 1.383 . S
C1850 C1849 1.379 . S
H1851 C1845 0.959 . S
H1852 C1845 0.961 . S
H1853 C1845 0.960 . S
H1854 C1846 0.930 . S
H1855 C1847 0.929 . S
H1856 C1864 0.929 . S
H1857 C1866 0.930 . S
H1858 C1868 0.930 . S
H1859 C1871 0.929 . S
H1860 C1874 0.930 . S
H1861 C1876 0.960 . S
H1862 C1876 0.960 . S
H1863 C1876 0.960 . S
C1864 H1856 0.929 . S
C1864 C1865 1.377 . S
C1864 C1866 1.384 . S
C1865 C1864 1.377 . S
C1865 C1871 1.390 . S
C1866 H1857 0.930 . S
C1866 C1864 1.384 . S
C1866 C1867 1.372 . S
C1867 C1866 1.372 . S
C1867 C1868 1.400 . S
C1867 C1872 1.490 . S
C1868 H1858 0.930 . S
C1868 C1867 1.400 . S
C1868 C1871 1.386 . S
H1869 C1885 0.930 . S
H1870 C1886 0.931 . S
C1871 H1859 0.929 . S
C1871 C1865 1.390 . S
C1871 C1868 1.386 . S
C1872 C1867 1.490 . S
C1872 C1874 1.395 . S
C1872 C1875 1.403 . S
H1873 C1879 0.930 . S
C1874 H1860 0.930 . S
C1874 C1872 1.395 . S
C1874 C1877 1.403 . S
C1875 C1872 1.403 . S
C1875 C1876 1.524 . S
C1875 C1879 1.400 . S
C1876 H1861 0.960 . S
C1876 H1862 0.960 . S
C1876 H1863 0.960 . S
C1876 C1875 1.524 . S
C1877 C1874 1.403 . S
C1877 C1878 1.392 . S
C1877 C1881 1.495 . S
C1878 C1877 1.392 . S
C1878 C1879 1.385 . S
C1878 C1880 1.478 . S
C1879 H1873 0.930 . S
C1879 C1875 1.400 . S
C1879 C1878 1.385 . S
C1880 C1878 1.478 . S
C1880 C1882 1.381 . S
C1880 C1886 1.383 . S
C1881 C1877 1.495 . S
C1881 H1887 0.959 . S
C1881 H1888 0.961 . S
C1881 H1889 0.960 . S
C1882 C1880 1.381 . S
C1882 C1883 1.394 . S
C1882 H1890 0.930 . S
C1883 C1882 1.394 . S
C1883 C1884 1.383 . S
C1883 H1891 0.929 . S
C1884 C1883 1.383 . S
C1884 C1885 1.377 . S
C1885 H1869 0.930 . S
C1885 C1884 1.377 . S
C1885 C1886 1.379 . S
C1886 H1870 0.931 . S
C1886 C1880 1.383 . S
C1886 C1885 1.379 . S
H1887 C1881 0.959 . S
H1888 C1881 0.961 . S
H1889 C1881 0.960 . S
H1890 C1882 0.930 . S
H1891 C1883 0.929 . S
H1892 C1900 0.929 . S
H1893 C1902 0.930 . S
H1894 C1904 0.930 . S
H1895 C1907 0.929 . S
H1896 C1910 0.930 . S
H1897 C1912 0.960 . S
H1898 C1912 0.960 . S
H1899 C1912 0.960 . S
C1900 H1892 0.929 . S
C1900 C1901 1.377 . S
C1900 C1902 1.384 . S
C1901 C1900 1.377 . S
C1901 C1907 1.390 . S
C1902 H1893 0.930 . S
C1902 C1900 1.384 . S
C1902 C1903 1.372 . S
C1903 C1902 1.372 . S
C1903 C1904 1.400 . S
C1903 C1908 1.490 . S
C1904 H1894 0.930 . S
C1904 C1903 1.400 . S
C1904 C1907 1.386 . S
H1905 C1921 0.930 . S
H1906 C1922 0.931 . S
C1907 H1895 0.929 . S
C1907 C1901 1.390 . S
C1907 C1904 1.386 . S
C1908 C1903 1.490 . S
C1908 C1910 1.395 . S
C1908 C1911 1.403 . S
H1909 C1915 0.930 . S
C1910 H1896 0.930 . S
C1910 C1908 1.395 . S
C1910 C1913 1.403 . S
C1911 C1908 1.403 . S
C1911 C1912 1.524 . S
C1911 C1915 1.400 . S
C1912 H1897 0.960 . S
C1912 H1898 0.960 . S
C1912 H1899 0.960 . S
C1912 C1911 1.524 . S
C1913 C1910 1.403 . S
C1913 C1914 1.392 . S
C1913 C1917 1.495 . S
C1914 C1913 1.392 . S
C1914 C1915 1.385 . S
C1914 C1916 1.478 . S
C1915 H1909 0.930 . S
C1915 C1911 1.400 . S
C1915 C1914 1.385 . S
C1916 C1914 1.478 . S
C1916 C1918 1.381 . S
C1916 C1922 1.383 . S
C1917 C1913 1.495 . S
C1917 H1923 0.959 . S
C1917 H1924 0.961 . S
C1917 H1925 0.960 . S
C1918 C1916 1.381 . S
C1918 C1919 1.394 1_565 S
C1918 H1926 0.930 . S
C1919 C1918 1.394 1_545 S
C1919 C1920 1.383 . S
C1919 H1927 0.929 . S
C1920 C1919 1.383 . S
C1920 C1921 1.377 1_545 S
C1921 H1905 0.930 . S
C1921 C1920 1.377 1_565 S
C1921 C1922 1.379 . S
C1922 H1906 0.931 . S
C1922 C1916 1.383 . S
C1922 C1921 1.379 . S
H1923 C1917 0.959 . S
H1924 C1917 0.961 . S
H1925 C1917 0.960 . S
H1926 C1918 0.930 . S
H1927 C1919 0.929 . S
H1928 C1936 0.929 . S
H1929 C1938 0.930 . S
H1930 C1940 0.930 . S
H1931 C1943 0.929 . S
H1932 C1946 0.930 . S
H1933 C1948 0.960 . S
H1934 C1948 0.960 . S
H1935 C1948 0.960 . S
C1936 H1928 0.929 . S
C1936 C1937 1.377 . S
C1936 C1938 1.384 . S
C1937 C1936 1.377 . S
C1937 C1943 1.390 . S
C1938 H1929 0.930 . S
C1938 C1936 1.384 . S
C1938 C1939 1.372 . S
C1939 C1938 1.372 . S
C1939 C1940 1.400 . S
C1939 C1944 1.490 . S
C1940 H1930 0.930 . S
C1940 C1939 1.400 . S
C1940 C1943 1.386 . S
H1941 C1957 0.930 . S
H1942 C1958 0.931 . S
C1943 H1931 0.929 . S
C1943 C1937 1.390 . S
C1943 C1940 1.386 . S
C1944 C1939 1.490 . S
C1944 C1946 1.395 . S
C1944 C1947 1.403 . S
H1945 C1951 0.930 . S
C1946 H1932 0.930 . S
C1946 C1944 1.395 . S
C1946 C1949 1.403 . S
C1947 C1944 1.403 . S
C1947 C1948 1.524 . S
C1947 C1951 1.400 . S
C1948 H1933 0.960 . S
C1948 H1934 0.960 . S
C1948 H1935 0.960 . S
C1948 C1947 1.524 . S
C1949 C1946 1.403 . S
C1949 C1950 1.392 . S
C1949 C1953 1.495 . S
C1950 C1949 1.392 . S
C1950 C1951 1.385 . S
C1950 C1952 1.478 . S
C1951 H1945 0.930 . S
C1951 C1947 1.400 . S
C1951 C1950 1.385 . S
C1952 C1950 1.478 . S
C1952 C1954 1.381 . S
C1952 C1958 1.383 . S
C1953 C1949 1.495 . S
C1953 H1959 0.959 . S
C1953 H1960 0.961 . S
C1953 H1961 0.960 . S
C1954 C1952 1.381 . S
C1954 C1955 1.394 1_565 S
C1954 H1962 0.930 . S
C1955 C1954 1.394 1_545 S
C1955 C1956 1.383 . S
C1955 H1963 0.929 . S
C1956 C1955 1.383 . S
C1956 C1957 1.377 1_545 S
C1957 H1941 0.930 . S
C1957 C1956 1.377 1_565 S
C1957 C1958 1.379 . S
C1958 H1942 0.931 . S
C1958 C1952 1.383 . S
C1958 C1957 1.379 . S
H1959 C1953 0.959 . S
H1960 C1953 0.961 . S
H1961 C1953 0.960 . S
H1962 C1954 0.930 . S
H1963 C1955 0.929 . S
H1964 C1972 0.929 . S
H1965 C1974 0.930 . S
H1966 C1976 0.930 . S
H1967 C1979 0.929 . S
H1968 C1982 0.930 . S
H1969 C1984 0.960 . S
H1970 C1984 0.960 . S
H1971 C1984 0.960 . S
C1972 H1964 0.929 . S
C1972 C1973 1.377 . S
C1972 C1974 1.384 . S
C1973 C1972 1.377 . S
C1973 C1979 1.390 . S
C1974 H1965 0.930 . S
C1974 C1972 1.384 . S
C1974 C1975 1.372 . S
C1975 C1974 1.372 . S
C1975 C1976 1.400 . S
C1975 C1980 1.490 . S
C1976 H1966 0.930 . S
C1976 C1975 1.400 . S
C1976 C1979 1.386 . S
H1977 C1993 0.930 . S
H1978 C1994 0.931 . S
C1979 H1967 0.929 . S
C1979 C1973 1.390 . S
C1979 C1976 1.386 . S
C1980 C1975 1.490 . S
C1980 C1982 1.395 . S
C1980 C1983 1.403 . S
H1981 C1987 0.930 . S
C1982 H1968 0.930 . S
C1982 C1980 1.395 . S
C1982 C1985 1.403 . S
C1983 C1980 1.403 . S
C1983 C1984 1.524 . S
C1983 C1987 1.400 . S
C1984 H1969 0.960 . S
C1984 H1970 0.960 . S
C1984 H1971 0.960 . S
C1984 C1983 1.524 . S
C1985 C1982 1.403 . S
C1985 C1986 1.392 . S
C1985 C1989 1.495 . S
C1986 C1985 1.392 . S
C1986 C1987 1.385 . S
C1986 C1988 1.478 . S
C1987 H1981 0.930 . S
C1987 C1983 1.400 . S
C1987 C1986 1.385 . S
C1988 C1986 1.478 . S
C1988 C1990 1.381 . S
C1988 C1994 1.383 . S
C1989 C1985 1.495 . S
C1989 H1995 0.959 . S
C1989 H1996 0.961 . S
C1989 H1997 0.960 . S
C1990 C1988 1.381 . S
C1990 C1991 1.394 . S
C1990 H1998 0.930 . S
C1991 C1990 1.394 . S
C1991 C1992 1.383 . S
C1991 H1999 0.929 . S
C1992 C1991 1.383 . S
C1992 C1993 1.377 . S
C1993 H1977 0.930 . S
C1993 C1992 1.377 . S
C1993 C1994 1.379 . S
C1994 H1978 0.931 . S
C1994 C1988 1.383 . S
C1994 C1993 1.379 . S
H1995 C1989 0.959 . S
H1996 C1989 0.961 . S
H1997 C1989 0.960 . S
H1998 C1990 0.930 . S
H1999 C1991 0.929 . S
H2000 C2008 0.929 . S
H2001 C2010 0.930 . S
H2002 C2012 0.930 . S
H2003 C2015 0.929 . S
H2004 C2018 0.930 . S
H2005 C2020 0.960 . S
H2006 C2020 0.960 . S
H2007 C2020 0.960 . S
C2008 H2000 0.929 . S
C2008 C2009 1.377 . S
C2008 C2010 1.384 . S
C2009 C2008 1.377 . S
C2009 C2015 1.390 . S
C2010 H2001 0.930 . S
C2010 C2008 1.384 . S
C2010 C2011 1.372 . S
C2011 C2010 1.372 . S
C2011 C2012 1.400 . S
C2011 C2016 1.490 . S
C2012 H2002 0.930 . S
C2012 C2011 1.400 . S
C2012 C2015 1.386 . S
H2013 C2029 0.930 . S
H2014 C2030 0.931 . S
C2015 H2003 0.929 . S
C2015 C2009 1.390 . S
C2015 C2012 1.386 . S
C2016 C2011 1.490 . S
C2016 C2018 1.395 . S
C2016 C2019 1.403 . S
H2017 C2023 0.930 . S
C2018 H2004 0.930 . S
C2018 C2016 1.395 . S
C2018 C2021 1.403 . S
C2019 C2016 1.403 . S
C2019 C2020 1.524 . S
C2019 C2023 1.400 . S
C2020 H2005 0.960 . S
C2020 H2006 0.960 . S
C2020 H2007 0.960 . S
C2020 C2019 1.524 . S
C2021 C2018 1.403 . S
C2021 C2022 1.392 . S
C2021 C2025 1.495 . S
C2022 C2021 1.392 . S
C2022 C2023 1.385 . S
C2022 C2024 1.478 . S
C2023 H2017 0.930 . S
C2023 C2019 1.400 . S
C2023 C2022 1.385 . S
C2024 C2022 1.478 . S
C2024 C2026 1.381 . S
C2024 C2030 1.383 . S
C2025 C2021 1.495 . S
C2025 H2031 0.959 . S
C2025 H2032 0.961 . S
C2025 H2033 0.960 . S
C2026 C2024 1.381 . S
C2026 C2027 1.394 . S
C2026 H2034 0.930 . S
C2027 C2026 1.394 . S
C2027 C2028 1.383 . S
C2027 H2035 0.929 . S
C2028 C2027 1.383 . S
C2028 C2029 1.377 . S
C2029 H2013 0.930 . S
C2029 C2028 1.377 . S
C2029 C2030 1.379 . S
C2030 H2014 0.931 . S
C2030 C2024 1.383 . S
C2030 C2029 1.379 . S
H2031 C2025 0.959 . S
H2032 C2025 0.961 . S
H2033 C2025 0.960 . S
H2034 C2026 0.930 . S
H2035 C2027 0.929 . S
H2036 C2044 0.929 . S
H2037 C2046 0.930 . S
H2038 C2048 0.930 . S
H2039 C2051 0.929 . S
H2040 C2054 0.930 . S
H2041 C2056 0.960 . S
H2042 C2056 0.960 . S
H2043 C2056 0.960 . S
C2044 H2036 0.929 . S
C2044 C2045 1.377 . S
C2044 C2046 1.384 1_565 S
C2045 C2044 1.377 . S
C2045 C2051 1.390 . S
C2046 H2037 0.930 . S
C2046 C2044 1.384 1_545 S
C2046 C2047 1.372 . S
C2047 C2046 1.372 . S
C2047 C2048 1.400 . S
C2047 C2052 1.490 . S
C2048 H2038 0.930 . S
C2048 C2047 1.400 . S
C2048 C2051 1.386 1_545 S
H2049 C2065 0.930 . S
H2050 C2066 0.931 . S
C2051 H2039 0.929 . S
C2051 C2045 1.390 . S
C2051 C2048 1.386 1_565 S
C2052 C2047 1.490 . S
C2052 C2054 1.395 . S
C2052 C2055 1.403 . S
H2053 C2059 0.930 . S
C2054 H2040 0.930 . S
C2054 C2052 1.395 . S
C2054 C2057 1.403 . S
C2055 C2052 1.403 . S
C2055 C2056 1.524 . S
C2055 C2059 1.400 . S
C2056 H2041 0.960 . S
C2056 H2042 0.960 . S
C2056 H2043 0.960 . S
C2056 C2055 1.524 . S
C2057 C2054 1.403 . S
C2057 C2058 1.392 . S
C2057 C2061 1.495 . S
C2058 C2057 1.392 . S
C2058 C2059 1.385 . S
C2058 C2060 1.478 . S
C2059 H2053 0.930 . S
C2059 C2055 1.400 . S
C2059 C2058 1.385 . S
C2060 C2058 1.478 . S
C2060 C2062 1.381 . S
C2060 C2066 1.383 . S
C2061 C2057 1.495 . S
C2061 H2067 0.959 . S
C2061 H2068 0.961 . S
C2061 H2069 0.960 . S
C2062 C2060 1.381 . S
C2062 C2063 1.394 . S
C2062 H2070 0.930 . S
C2063 C2062 1.394 . S
C2063 C2064 1.383 . S
C2063 H2071 0.929 . S
C2064 C2063 1.383 . S
C2064 C2065 1.377 . S
C2065 H2049 0.930 . S
C2065 C2064 1.377 . S
C2065 C2066 1.379 . S
C2066 H2050 0.931 . S
C2066 C2060 1.383 . S
C2066 C2065 1.379 . S
H2067 C2061 0.959 . S
H2068 C2061 0.961 . S
H2069 C2061 0.960 . S
H2070 C2062 0.930 . S
H2071 C2063 0.929 . S
H2072 C2080 0.929 . S
H2073 C2082 0.930 . S
H2074 C2084 0.930 . S
H2075 C2087 0.929 . S
H2076 C2090 0.930 . S
H2077 C2092 0.960 . S
H2078 C2092 0.960 . S
H2079 C2092 0.960 . S
C2080 H2072 0.929 . S
C2080 C2081 1.377 . S
C2080 C2082 1.384 . S
C2081 C2080 1.377 . S
C2081 C2087 1.390 . S
C2082 H2073 0.930 . S
C2082 C2080 1.384 . S
C2082 C2083 1.372 . S
C2083 C2082 1.372 . S
C2083 C2084 1.400 . S
C2083 C2088 1.490 . S
C2084 H2074 0.930 . S
C2084 C2083 1.400 . S
C2084 C2087 1.386 . S
H2085 C2101 0.930 . S
H2086 C2102 0.931 . S
C2087 H2075 0.929 . S
C2087 C2081 1.390 . S
C2087 C2084 1.386 . S
C2088 C2083 1.490 . S
C2088 C2090 1.395 . S
C2088 C2091 1.403 . S
H2089 C2095 0.930 . S
C2090 H2076 0.930 . S
C2090 C2088 1.395 . S
C2090 C2093 1.403 . S
C2091 C2088 1.403 . S
C2091 C2092 1.524 . S
C2091 C2095 1.400 . S
C2092 H2077 0.960 . S
C2092 H2078 0.960 . S
C2092 H2079 0.960 . S
C2092 C2091 1.524 . S
C2093 C2090 1.403 . S
C2093 C2094 1.392 . S
C2093 C2097 1.495 . S
C2094 C2093 1.392 . S
C2094 C2095 1.385 . S
C2094 C2096 1.478 . S
C2095 H2089 0.930 . S
C2095 C2091 1.400 . S
C2095 C2094 1.385 . S
C2096 C2094 1.478 . S
C2096 C2098 1.381 . S
C2096 C2102 1.383 . S
C2097 C2093 1.495 . S
C2097 H2103 0.959 . S
C2097 H2104 0.961 . S
C2097 H2105 0.960 . S
C2098 C2096 1.381 . S
C2098 C2099 1.394 1_545 S
C2098 H2106 0.930 . S
C2099 C2098 1.394 1_565 S
C2099 C2100 1.383 . S
C2099 H2107 0.929 . S
C2100 C2099 1.383 . S
C2100 C2101 1.377 . S
C2101 H2085 0.930 . S
C2101 C2100 1.377 . S
C2101 C2102 1.379 1_565 S
C2102 H2086 0.931 . S
C2102 C2096 1.383 . S
C2102 C2101 1.379 1_545 S
H2103 C2097 0.959 . S
H2104 C2097 0.961 . S
H2105 C2097 0.960 . S
H2106 C2098 0.930 . S
H2107 C2099 0.929 . S
H2108 C2116 0.929 . S
H2109 C2118 0.930 . S
H2110 C2120 0.930 . S
H2111 C2123 0.929 . S
H2112 C2126 0.930 . S
H2113 C2128 0.960 . S
H2114 C2128 0.960 . S
H2115 C2128 0.960 . S
C2116 H2108 0.929 . S
C2116 C2117 1.377 . S
C2116 C2118 1.384 . S
C2117 C2116 1.377 . S
C2117 C2123 1.390 . S
C2118 H2109 0.930 . S
C2118 C2116 1.384 . S
C2118 C2119 1.372 . S
C2119 C2118 1.372 . S
C2119 C2120 1.400 . S
C2119 C2124 1.490 . S
C2120 H2110 0.930 . S
C2120 C2119 1.400 . S
C2120 C2123 1.386 . S
H2121 C2137 0.930 . S
H2122 C2138 0.931 . S
C2123 H2111 0.929 . S
C2123 C2117 1.390 . S
C2123 C2120 1.386 . S
C2124 C2119 1.490 . S
C2124 C2126 1.395 . S
C2124 C2127 1.403 . S
H2125 C2131 0.930 . S
C2126 H2112 0.930 . S
C2126 C2124 1.395 . S
C2126 C2129 1.403 . S
C2127 C2124 1.403 . S
C2127 C2128 1.524 . S
C2127 C2131 1.400 . S
C2128 H2113 0.960 . S
C2128 H2114 0.960 . S
C2128 H2115 0.960 . S
C2128 C2127 1.524 . S
C2129 C2126 1.403 . S
C2129 C2130 1.392 . S
C2129 C2133 1.495 . S
C2130 C2129 1.392 . S
C2130 C2131 1.385 . S
C2130 C2132 1.478 . S
C2131 H2125 0.930 . S
C2131 C2127 1.400 . S
C2131 C2130 1.385 . S
C2132 C2130 1.478 . S
C2132 C2134 1.381 . S
C2132 C2138 1.383 . S
C2133 C2129 1.495 . S
C2133 H2139 0.959 . S
C2133 H2140 0.961 . S
C2133 H2141 0.960 . S
C2134 C2132 1.381 . S
C2134 C2135 1.394 . S
C2134 H2142 0.930 . S
C2135 C2134 1.394 . S
C2135 C2136 1.383 . S
C2135 H2143 0.929 . S
C2136 C2135 1.383 . S
C2136 C2137 1.377 . S
C2137 H2121 0.930 . S
C2137 C2136 1.377 . S
C2137 C2138 1.379 . S
C2138 H2122 0.931 . S
C2138 C2132 1.383 . S
C2138 C2137 1.379 . S
H2139 C2133 0.959 . S
H2140 C2133 0.961 . S
H2141 C2133 0.960 . S
H2142 C2134 0.930 . S
H2143 C2135 0.929 . S
H2144 C2152 0.929 . S
H2145 C2154 0.930 . S
H2146 C2156 0.930 . S
H2147 C2159 0.929 . S
H2148 C2162 0.930 . S
H2149 C2164 0.960 . S
H2150 C2164 0.960 . S
H2151 C2164 0.960 . S
C2152 H2144 0.929 . S
C2152 C2153 1.377 . S
C2152 C2154 1.384 . S
C2153 C2152 1.377 . S
C2153 C2159 1.390 . S
C2154 H2145 0.930 . S
C2154 C2152 1.384 . S
C2154 C2155 1.372 . S
C2155 C2154 1.372 . S
C2155 C2156 1.400 . S
C2155 C2160 1.490 . S
C2156 H2146 0.930 . S
C2156 C2155 1.400 . S
C2156 C2159 1.386 . S
H2157 C2173 0.930 . S
H2158 C2174 0.931 . S
C2159 H2147 0.929 . S
C2159 C2153 1.390 . S
C2159 C2156 1.386 . S
C2160 C2155 1.490 . S
C2160 C2162 1.395 . S
C2160 C2163 1.403 . S
H2161 C2167 0.930 . S
C2162 H2148 0.930 . S
C2162 C2160 1.395 . S
C2162 C2165 1.403 . S
C2163 C2160 1.403 . S
C2163 C2164 1.524 . S
C2163 C2167 1.400 . S
C2164 H2149 0.960 . S
C2164 H2150 0.960 . S
C2164 H2151 0.960 . S
C2164 C2163 1.524 . S
C2165 C2162 1.403 . S
C2165 C2166 1.392 . S
C2165 C2169 1.495 . S
C2166 C2165 1.392 . S
C2166 C2167 1.385 . S
C2166 C2168 1.478 . S
C2167 H2161 0.930 . S
C2167 C2163 1.400 . S
C2167 C2166 1.385 . S
C2168 C2166 1.478 . S
C2168 C2170 1.381 . S
C2168 C2174 1.383 . S
C2169 C2165 1.495 . S
C2169 H2175 0.959 . S
C2169 H2176 0.961 . S
C2169 H2177 0.960 . S
C2170 C2168 1.381 . S
C2170 C2171 1.394 . S
C2170 H2178 0.930 . S
C2171 C2170 1.394 . S
C2171 C2172 1.383 1_565 S
C2171 H2179 0.929 . S
C2172 C2171 1.383 1_545 S
C2172 C2173 1.377 . S
C2173 H2157 0.930 . S
C2173 C2172 1.377 . S
C2173 C2174 1.379 1_545 S
C2174 H2158 0.931 . S
C2174 C2168 1.383 . S
C2174 C2173 1.379 1_565 S
H2175 C2169 0.959 . S
H2176 C2169 0.961 . S
H2177 C2169 0.960 . S
H2178 C2170 0.930 . S
H2179 C2171 0.929 . S
H2180 C2188 0.929 . S
H2181 C2190 0.930 . S
H2182 C2192 0.930 . S
H2183 C2195 0.929 . S
H2184 C2198 0.930 . S
H2185 C2200 0.960 . S
H2186 C2200 0.960 . S
H2187 C2200 0.960 . S
C2188 H2180 0.929 . S
C2188 C2189 1.377 . S
C2188 C2190 1.384 . S
C2189 C2188 1.377 . S
C2189 C2195 1.390 . S
C2190 H2181 0.930 . S
C2190 C2188 1.384 . S
C2190 C2191 1.372 . S
C2191 C2190 1.372 . S
C2191 C2192 1.400 . S
C2191 C2196 1.490 . S
C2192 H2182 0.930 . S
C2192 C2191 1.400 . S
C2192 C2195 1.386 . S
H2193 C2209 0.930 . S
H2194 C2210 0.931 . S
C2195 H2183 0.929 . S
C2195 C2189 1.390 . S
C2195 C2192 1.386 . S
C2196 C2191 1.490 . S
C2196 C2198 1.395 . S
C2196 C2199 1.403 . S
H2197 C2203 0.930 . S
C2198 H2184 0.930 . S
C2198 C2196 1.395 . S
C2198 C2201 1.403 . S
C2199 C2196 1.403 . S
C2199 C2200 1.524 . S
C2199 C2203 1.400 . S
C2200 H2185 0.960 . S
C2200 H2186 0.960 . S
C2200 H2187 0.960 . S
C2200 C2199 1.524 . S
C2201 C2198 1.403 . S
C2201 C2202 1.392 . S
C2201 C2205 1.495 . S
C2202 C2201 1.392 . S
C2202 C2203 1.385 . S
C2202 C2204 1.478 . S
C2203 H2197 0.930 . S
C2203 C2199 1.400 . S
C2203 C2202 1.385 . S
C2204 C2202 1.478 . S
C2204 C2206 1.381 . S
C2204 C2210 1.383 . S
C2205 C2201 1.495 . S
C2205 H2211 0.959 . S
C2205 H2212 0.961 . S
C2205 H2213 0.960 . S
C2206 C2204 1.381 . S
C2206 C2207 1.394 . S
C2206 H2214 0.930 . S
C2207 C2206 1.394 . S
C2207 C2208 1.383 . S
C2207 H2215 0.929 . S
C2208 C2207 1.383 . S
C2208 C2209 1.377 . S
C2209 H2193 0.930 . S
C2209 C2208 1.377 . S
C2209 C2210 1.379 . S
C2210 H2194 0.931 . S
C2210 C2204 1.383 . S
C2210 C2209 1.379 . S
H2211 C2205 0.959 . S
H2212 C2205 0.961 . S
H2213 C2205 0.960 . S
H2214 C2206 0.930 . S
H2215 C2207 0.929 . S
H2216 C2224 0.929 . S
H2217 C2226 0.930 . S
H2218 C2228 0.930 . S
H2219 C2231 0.929 . S
H2220 C2234 0.930 . S
H2221 C2236 0.960 . S
H2222 C2236 0.960 . S
H2223 C2236 0.960 . S
C2224 H2216 0.929 . S
C2224 C2225 1.377 . S
C2224 C2226 1.384 . S
C2225 C2224 1.377 . S
C2225 C2231 1.390 . S
C2226 H2217 0.930 . S
C2226 C2224 1.384 . S
C2226 C2227 1.372 . S
C2227 C2226 1.372 . S
C2227 C2228 1.400 . S
C2227 C2232 1.490 . S
C2228 H2218 0.930 . S
C2228 C2227 1.400 . S
C2228 C2231 1.386 . S
H2229 C2245 0.930 . S
H2230 C2246 0.931 . S
C2231 H2219 0.929 . S
C2231 C2225 1.390 . S
C2231 C2228 1.386 . S
C2232 C2227 1.490 . S
C2232 C2234 1.395 . S
C2232 C2235 1.403 . S
H2233 C2239 0.930 . S
C2234 H2220 0.930 . S
C2234 C2232 1.395 . S
C2234 C2237 1.403 . S
C2235 C2232 1.403 . S
C2235 C2236 1.524 . S
C2235 C2239 1.400 . S
C2236 H2221 0.960 . S
C2236 H2222 0.960 . S
C2236 H2223 0.960 . S
C2236 C2235 1.524 . S
C2237 C2234 1.403 . S
C2237 C2238 1.392 . S
C2237 C2241 1.495 . S
C2238 C2237 1.392 . S
C2238 C2239 1.385 . S
C2238 C2240 1.478 . S
C2239 H2233 0.930 . S
C2239 C2235 1.400 . S
C2239 C2238 1.385 . S
C2240 C2238 1.478 . S
C2240 C2242 1.381 . S
C2240 C2246 1.383 . S
C2241 C2237 1.495 . S
C2241 H2247 0.959 . S
C2241 H2248 0.961 . S
C2241 H2249 0.960 . S
C2242 C2240 1.381 . S
C2242 C2243 1.394 . S
C2242 H2250 0.930 . S
C2243 C2242 1.394 . S
C2243 C2244 1.383 . S
C2243 H2251 0.929 . S
C2244 C2243 1.383 . S
C2244 C2245 1.377 . S
C2245 H2229 0.930 . S
C2245 C2244 1.377 . S
C2245 C2246 1.379 . S
C2246 H2230 0.931 . S
C2246 C2240 1.383 . S
C2246 C2245 1.379 . S
H2247 C2241 0.959 . S
H2248 C2241 0.961 . S
H2249 C2241 0.960 . S
H2250 C2242 0.930 . S
H2251 C2243 0.929 . S
H2252 C2260 0.929 1_545 S
H2253 C2262 0.930 . S
H2254 C2264 0.930 . S
H2255 C2267 0.929 . S
H2256 C2270 0.930 . S
H2257 C2272 0.960 . S
H2258 C2272 0.960 . S
H2259 C2272 0.960 . S
C2260 H2252 0.929 1_565 S
C2260 C2261 1.377 1_565 S
C2260 C2262 1.384 . S
C2261 C2260 1.377 1_545 S
C2261 C2267 1.390 . S
C2262 H2253 0.930 . S
C2262 C2260 1.384 . S
C2262 C2263 1.372 . S
C2263 C2262 1.372 . S
C2263 C2264 1.400 . S
C2263 C2268 1.490 . S
C2264 H2254 0.930 . S
C2264 C2263 1.400 . S
C2264 C2267 1.386 1_565 S
H2265 C2281 0.930 . S
H2266 C2282 0.931 . S
C2267 H2255 0.929 . S
C2267 C2261 1.390 . S
C2267 C2264 1.386 1_545 S
C2268 C2263 1.490 . S
C2268 C2270 1.395 . S
C2268 C2271 1.403 . S
H2269 C2275 0.930 . S
C2270 H2256 0.930 . S
C2270 C2268 1.395 . S
C2270 C2273 1.403 . S
C2271 C2268 1.403 . S
C2271 C2272 1.524 . S
C2271 C2275 1.400 . S
C2272 H2257 0.960 . S
C2272 H2258 0.960 . S
C2272 H2259 0.960 . S
C2272 C2271 1.524 . S
C2273 C2270 1.403 . S
C2273 C2274 1.392 . S
C2273 C2277 1.495 . S
C2274 C2273 1.392 . S
C2274 C2275 1.385 . S
C2274 C2276 1.478 . S
C2275 H2269 0.930 . S
C2275 C2271 1.400 . S
C2275 C2274 1.385 . S
C2276 C2274 1.478 . S
C2276 C2278 1.381 . S
C2276 C2282 1.383 . S
C2277 C2273 1.495 . S
C2277 H2283 0.959 . S
C2277 H2284 0.961 . S
C2277 H2285 0.960 . S
C2278 C2276 1.381 . S
C2278 C2279 1.394 . S
C2278 H2286 0.930 . S
C2279 C2278 1.394 . S
C2279 C2280 1.383 . S
C2279 H2287 0.929 . S
C2280 C2279 1.383 . S
C2280 C2281 1.377 . S
C2281 H2265 0.930 . S
C2281 C2280 1.377 . S
C2281 C2282 1.379 . S
C2282 H2266 0.931 . S
C2282 C2276 1.383 . S
C2282 C2281 1.379 . S
H2283 C2277 0.959 . S
H2284 C2277 0.961 . S
H2285 C2277 0.960 . S
H2286 C2278 0.930 . S
H2287 C2279 0.929 . S
H2288 C2296 0.929 . S
H2289 C2298 0.930 . S
H2290 C2300 0.930 . S
H2291 C2303 0.929 . S
H2292 C2306 0.930 . S
H2293 C2308 0.960 . S
H2294 C2308 0.960 . S
H2295 C2308 0.960 . S
C2296 H2288 0.929 . S
C2296 C2297 1.377 . S
C2296 C2298 1.384 . S
C2297 C2296 1.377 . S
C2297 C2303 1.390 . S
C2298 H2289 0.930 . S
C2298 C2296 1.384 . S
C2298 C2299 1.372 . S
C2299 C2298 1.372 . S
C2299 C2300 1.400 . S
C2299 C2304 1.490 . S
C2300 H2290 0.930 . S
C2300 C2299 1.400 . S
C2300 C2303 1.386 . S
H2301 C2317 0.930 . S
H2302 C2318 0.931 . S
C2303 H2291 0.929 . S
C2303 C2297 1.390 . S
C2303 C2300 1.386 . S
C2304 C2299 1.490 . S
C2304 C2306 1.395 . S
C2304 C2307 1.403 . S
H2305 C2311 0.930 . S
C2306 H2292 0.930 . S
C2306 C2304 1.395 . S
C2306 C2309 1.403 . S
C2307 C2304 1.403 . S
C2307 C2308 1.524 . S
C2307 C2311 1.400 . S
C2308 H2293 0.960 . S
C2308 H2294 0.960 . S
C2308 H2295 0.960 . S
C2308 C2307 1.524 . S
C2309 C2306 1.403 . S
C2309 C2310 1.392 . S
C2309 C2313 1.495 . S
C2310 C2309 1.392 . S
C2310 C2311 1.385 . S
C2310 C2312 1.478 . S
C2311 H2305 0.930 . S
C2311 C2307 1.400 . S
C2311 C2310 1.385 . S
C2312 C2310 1.478 . S
C2312 C2314 1.381 . S
C2312 C2318 1.383 . S
C2313 C2309 1.495 . S
C2313 H2319 0.959 . S
C2313 H2320 0.961 . S
C2313 H2321 0.960 . S
C2314 C2312 1.381 . S
C2314 C2315 1.394 1_545 S
C2314 H2322 0.930 . S
C2315 C2314 1.394 1_565 S
C2315 C2316 1.383 . S
C2315 H2323 0.929 . S
C2316 C2315 1.383 . S
C2316 C2317 1.377 1_565 S
C2317 H2301 0.930 . S
C2317 C2316 1.377 1_545 S
C2317 C2318 1.379 . S
C2318 H2302 0.931 . S
C2318 C2312 1.383 . S
C2318 C2317 1.379 . S
H2319 C2313 0.959 . S
H2320 C2313 0.961 . S
H2321 C2313 0.960 . S
H2322 C2314 0.930 . S
H2323 C2315 0.929 . S
H2324 C2332 0.929 . S
H2325 C2334 0.930 . S
H2326 C2336 0.930 . S
H2327 C2339 0.929 . S
H2328 C2342 0.930 . S
H2329 C2344 0.960 . S
H2330 C2344 0.960 . S
H2331 C2344 0.960 . S
C2332 H2324 0.929 . S
C2332 C2333 1.377 . S
C2332 C2334 1.384 . S
C2333 C2332 1.377 . S
C2333 C2339 1.390 . S
C2334 H2325 0.930 . S
C2334 C2332 1.384 . S
C2334 C2335 1.372 . S
C2335 C2334 1.372 . S
C2335 C2336 1.400 . S
C2335 C2340 1.490 . S
C2336 H2326 0.930 . S
C2336 C2335 1.400 . S
C2336 C2339 1.386 . S
H2337 C2353 0.930 . S
H2338 C2354 0.931 . S
C2339 H2327 0.929 . S
C2339 C2333 1.390 . S
C2339 C2336 1.386 . S
C2340 C2335 1.490 . S
C2340 C2342 1.395 . S
C2340 C2343 1.403 . S
H2341 C2347 0.930 . S
C2342 H2328 0.930 . S
C2342 C2340 1.395 . S
C2342 C2345 1.403 . S
C2343 C2340 1.403 . S
C2343 C2344 1.524 . S
C2343 C2347 1.400 . S
C2344 H2329 0.960 . S
C2344 H2330 0.960 . S
C2344 H2331 0.960 . S
C2344 C2343 1.524 . S
C2345 C2342 1.403 . S
C2345 C2346 1.392 . S
C2345 C2349 1.495 . S
C2346 C2345 1.392 . S
C2346 C2347 1.385 . S
C2346 C2348 1.478 . S
C2347 H2341 0.930 . S
C2347 C2343 1.400 . S
C2347 C2346 1.385 . S
C2348 C2346 1.478 . S
C2348 C2350 1.381 . S
C2348 C2354 1.383 . S
C2349 C2345 1.495 . S
C2349 H2355 0.959 . S
C2349 H2356 0.961 . S
C2349 H2357 0.960 . S
C2350 C2348 1.381 . S
C2350 C2351 1.394 . S
C2350 H2358 0.930 . S
C2351 C2350 1.394 . S
C2351 C2352 1.383 . S
C2351 H2359 0.929 . S
C2352 C2351 1.383 . S
C2352 C2353 1.377 . S
C2353 H2337 0.930 . S
C2353 C2352 1.377 . S
C2353 C2354 1.379 . S
C2354 H2338 0.931 . S
C2354 C2348 1.383 . S
C2354 C2353 1.379 . S
H2355 C2349 0.959 . S
H2356 C2349 0.961 . S
H2357 C2349 0.960 . S
H2358 C2350 0.930 . S
H2359 C2351 0.929 . S
H2360 C2368 0.929 . S
H2361 C2370 0.930 . S
H2362 C2372 0.930 . S
H2363 C2375 0.929 . S
H2364 C2378 0.930 . S
H2365 C2380 0.960 . S
H2366 C2380 0.960 . S
H2367 C2380 0.960 . S
C2368 H2360 0.929 . S
C2368 C2369 1.377 . S
C2368 C2370 1.384 . S
C2369 C2368 1.377 . S
C2369 C2375 1.390 . S
C2370 H2361 0.930 . S
C2370 C2368 1.384 . S
C2370 C2371 1.372 . S
C2371 C2370 1.372 . S
C2371 C2372 1.400 . S
C2371 C2376 1.490 . S
C2372 H2362 0.930 . S
C2372 C2371 1.400 . S
C2372 C2375 1.386 . S
H2373 C2389 0.930 . S
H2374 C2390 0.931 . S
C2375 H2363 0.929 . S
C2375 C2369 1.390 . S
C2375 C2372 1.386 . S
C2376 C2371 1.490 . S
C2376 C2378 1.395 . S
C2376 C2379 1.403 . S
H2377 C2383 0.930 . S
C2378 H2364 0.930 . S
C2378 C2376 1.395 . S
C2378 C2381 1.403 . S
C2379 C2376 1.403 . S
C2379 C2380 1.524 . S
C2379 C2383 1.400 . S
C2380 H2365 0.960 . S
C2380 H2366 0.960 . S
C2380 H2367 0.960 . S
C2380 C2379 1.524 . S
C2381 C2378 1.403 . S
C2381 C2382 1.392 . S
C2381 C2385 1.495 . S
C2382 C2381 1.392 . S
C2382 C2383 1.385 . S
C2382 C2384 1.478 . S
C2383 H2377 0.930 . S
C2383 C2379 1.400 . S
C2383 C2382 1.385 . S
C2384 C2382 1.478 . S
C2384 C2386 1.381 . S
C2384 C2390 1.383 . S
C2385 C2381 1.495 . S
C2385 H2391 0.959 . S
C2385 H2392 0.961 . S
C2385 H2393 0.960 . S
C2386 C2384 1.381 . S
C2386 C2387 1.394 . S
C2386 H2394 0.930 . S
C2387 C2386 1.394 . S
C2387 C2388 1.383 . S
C2387 H2395 0.929 . S
C2388 C2387 1.383 . S
C2388 C2389 1.377 . S
C2389 H2373 0.930 . S
C2389 C2388 1.377 . S
C2389 C2390 1.379 . S
C2390 H2374 0.931 . S
C2390 C2384 1.383 . S
C2390 C2389 1.379 . S
H2391 C2385 0.959 . S
H2392 C2385 0.961 . S
H2393 C2385 0.960 . S
H2394 C2386 0.930 . S
H2395 C2387 0.929 . S
H2396 C2404 0.929 . S
H2397 C2406 0.930 . S
H2398 C2408 0.930 . S
H2399 C2411 0.929 . S
H2400 C2414 0.930 . S
H2401 C2416 0.960 . S
H2402 C2416 0.960 . S
H2403 C2416 0.960 . S
C2404 H2396 0.929 . S
C2404 C2405 1.377 . S
C2404 C2406 1.384 . S
C2405 C2404 1.377 . S
C2405 C2411 1.390 . S
C2406 H2397 0.930 . S
C2406 C2404 1.384 . S
C2406 C2407 1.372 . S
C2407 C2406 1.372 . S
C2407 C2408 1.400 . S
C2407 C2412 1.490 . S
C2408 H2398 0.930 . S
C2408 C2407 1.400 . S
C2408 C2411 1.386 . S
H2409 C2425 0.930 . S
H2410 C2426 0.931 . S
C2411 H2399 0.929 . S
C2411 C2405 1.390 . S
C2411 C2408 1.386 . S
C2412 C2407 1.490 . S
C2412 C2414 1.395 . S
C2412 C2415 1.403 . S
H2413 C2419 0.930 . S
C2414 H2400 0.930 . S
C2414 C2412 1.395 . S
C2414 C2417 1.403 . S
C2415 C2412 1.403 . S
C2415 C2416 1.524 . S
C2415 C2419 1.400 . S
C2416 H2401 0.960 . S
C2416 H2402 0.960 . S
C2416 H2403 0.960 . S
C2416 C2415 1.524 . S
C2417 C2414 1.403 . S
C2417 C2418 1.392 . S
C2417 C2421 1.495 . S
C2418 C2417 1.392 . S
C2418 C2419 1.385 . S
C2418 C2420 1.478 . S
C2419 H2413 0.930 . S
C2419 C2415 1.400 . S
C2419 C2418 1.385 . S
C2420 C2418 1.478 . S
C2420 C2422 1.381 . S
C2420 C2426 1.383 . S
C2421 C2417 1.495 . S
C2421 H2427 0.959 . S
C2421 H2428 0.961 . S
C2421 H2429 0.960 . S
C2422 C2420 1.381 . S
C2422 C2423 1.394 . S
C2422 H2430 0.930 . S
C2423 C2422 1.394 . S
C2423 C2424 1.383 1_545 S
C2423 H2431 0.929 . S
C2424 C2423 1.383 1_565 S
C2424 C2425 1.377 . S
C2425 H2409 0.930 . S
C2425 C2424 1.377 . S
C2425 C2426 1.379 1_565 S
C2426 H2410 0.931 . S
C2426 C2420 1.383 . S
C2426 C2425 1.379 1_545 S
H2427 C2421 0.959 . S
H2428 C2421 0.961 . S
H2429 C2421 0.960 . S
H2430 C2422 0.930 . S
H2431 C2423 0.929 . S
H2432 C2440 0.929 . S
H2433 C2442 0.930 . S
H2434 C2444 0.930 . S
H2435 C2447 0.929 . S
H2436 C2450 0.930 . S
H2437 C2452 0.960 . S
H2438 C2452 0.960 . S
H2439 C2452 0.960 . S
C2440 H2432 0.929 . S
C2440 C2441 1.377 . S
C2440 C2442 1.384 . S
C2441 C2440 1.377 . S
C2441 C2447 1.390 . S
C2442 H2433 0.930 . S
C2442 C2440 1.384 . S
C2442 C2443 1.372 . S
C2443 C2442 1.372 . S
C2443 C2444 1.400 . S
C2443 C2448 1.490 . S
C2444 H2434 0.930 . S
C2444 C2443 1.400 . S
C2444 C2447 1.386 . S
H2445 C2461 0.930 . S
H2446 C2462 0.931 . S
C2447 H2435 0.929 . S
C2447 C2441 1.390 . S
C2447 C2444 1.386 . S
C2448 C2443 1.490 . S
C2448 C2450 1.395 . S
C2448 C2451 1.403 . S
H2449 C2455 0.930 . S
C2450 H2436 0.930 . S
C2450 C2448 1.395 . S
C2450 C2453 1.403 . S
C2451 C2448 1.403 . S
C2451 C2452 1.524 . S
C2451 C2455 1.400 . S
C2452 H2437 0.960 . S
C2452 H2438 0.960 . S
C2452 H2439 0.960 . S
C2452 C2451 1.524 . S
C2453 C2450 1.403 . S
C2453 C2454 1.392 . S
C2453 C2457 1.495 . S
C2454 C2453 1.392 . S
C2454 C2455 1.385 . S
C2454 C2456 1.478 . S
C2455 H2449 0.930 . S
C2455 C2451 1.400 . S
C2455 C2454 1.385 . S
C2456 C2454 1.478 . S
C2456 C2458 1.381 . S
C2456 C2462 1.383 . S
C2457 C2453 1.495 . S
C2457 H2463 0.959 . S
C2457 H2464 0.961 . S
C2457 H2465 0.960 . S
C2458 C2456 1.381 . S
C2458 C2459 1.394 1_565 S
C2458 H2466 0.930 . S
C2459 C2458 1.394 1_545 S
C2459 C2460 1.383 . S
C2459 H2467 0.929 . S
C2460 C2459 1.383 . S
C2460 C2461 1.377 . S
C2461 H2445 0.930 . S
C2461 C2460 1.377 . S
C2461 C2462 1.379 1_545 S
C2462 H2446 0.931 . S
C2462 C2456 1.383 . S
C2462 C2461 1.379 1_565 S
H2463 C2457 0.959 . S
H2464 C2457 0.961 . S
H2465 C2457 0.960 . S
H2466 C2458 0.930 . S
H2467 C2459 0.929 . S
H2468 C2476 0.929 . S
H2469 C2478 0.930 . S
H2470 C2480 0.930 . S
H2471 C2483 0.929 . S
H2472 C2486 0.930 . S
H2473 C2488 0.960 . S
H2474 C2488 0.960 . S
H2475 C2488 0.960 . S
C2476 H2468 0.929 . S
C2476 C2477 1.377 . S
C2476 C2478 1.384 . S
C2477 C2476 1.377 . S
C2477 C2483 1.390 . S
C2478 H2469 0.930 . S
C2478 C2476 1.384 . S
C2478 C2479 1.372 . S
C2479 C2478 1.372 . S
C2479 C2480 1.400 . S
C2479 C2484 1.490 . S
C2480 H2470 0.930 . S
C2480 C2479 1.400 . S
C2480 C2483 1.386 . S
H2481 C2497 0.930 . S
H2482 C2498 0.931 . S
C2483 H2471 0.929 . S
C2483 C2477 1.390 . S
C2483 C2480 1.386 . S
C2484 C2479 1.490 . S
C2484 C2486 1.395 . S
C2484 C2487 1.403 . S
H2485 C2491 0.930 . S
C2486 H2472 0.930 . S
C2486 C2484 1.395 . S
C2486 C2489 1.403 . S
C2487 C2484 1.403 . S
C2487 C2488 1.524 . S
C2487 C2491 1.400 . S
C2488 H2473 0.960 . S
C2488 H2474 0.960 . S
C2488 H2475 0.960 . S
C2488 C2487 1.524 . S
C2489 C2486 1.403 . S
C2489 C2490 1.392 . S
C2489 C2493 1.495 . S
C2490 C2489 1.392 . S
C2490 C2491 1.385 . S
C2490 C2492 1.478 . S
C2491 H2485 0.930 . S
C2491 C2487 1.400 . S
C2491 C2490 1.385 . S
C2492 C2490 1.478 . S
C2492 C2494 1.381 . S
C2492 C2498 1.383 . S
C2493 C2489 1.495 . S
C2493 H2499 0.959 . S
C2493 H2500 0.961 . S
C2493 H2501 0.960 . S
C2494 C2492 1.381 . S
C2494 C2495 1.394 . S
C2494 H2502 0.930 . S
C2495 C2494 1.394 . S
C2495 C2496 1.383 . S
C2495 H2503 0.929 . S
C2496 C2495 1.383 . S
C2496 C2497 1.377 . S
C2497 H2481 0.930 . S
C2497 C2496 1.377 . S
C2497 C2498 1.379 . S
C2498 H2482 0.931 . S
C2498 C2492 1.383 . S
C2498 C2497 1.379 . S
H2499 C2493 0.959 . S
H2500 C2493 0.961 . S
H2501 C2493 0.960 . S
H2502 C2494 0.930 . S
H2503 C2495 0.929 . S
H2504 C2512 0.929 . S
H2505 C2514 0.930 . S
H2506 C2516 0.930 . S
H2507 C2519 0.929 . S
H2508 C2522 0.930 . S
H2509 C2524 0.960 . S
H2510 C2524 0.960 . S
H2511 C2524 0.960 . S
C2512 H2504 0.929 . S
C2512 C2513 1.377 . S
C2512 C2514 1.384 . S
C2513 C2512 1.377 . S
C2513 C2519 1.390 . S
C2514 H2505 0.930 . S
C2514 C2512 1.384 . S
C2514 C2515 1.372 . S
C2515 C2514 1.372 . S
C2515 C2516 1.400 . S
C2515 C2520 1.490 . S
C2516 H2506 0.930 . S
C2516 C2515 1.400 . S
C2516 C2519 1.386 . S
H2517 C2533 0.930 . S
H2518 C2534 0.931 . S
C2519 H2507 0.929 . S
C2519 C2513 1.390 . S
C2519 C2516 1.386 . S
C2520 C2515 1.490 . S
C2520 C2522 1.395 . S
C2520 C2523 1.403 . S
H2521 C2527 0.930 . S
C2522 H2508 0.930 . S
C2522 C2520 1.395 . S
C2522 C2525 1.403 . S
C2523 C2520 1.403 . S
C2523 C2524 1.524 . S
C2523 C2527 1.400 . S
C2524 H2509 0.960 . S
C2524 H2510 0.960 . S
C2524 H2511 0.960 . S
C2524 C2523 1.524 . S
C2525 C2522 1.403 . S
C2525 C2526 1.392 . S
C2525 C2529 1.495 . S
C2526 C2525 1.392 . S
C2526 C2527 1.385 . S
C2526 C2528 1.478 . S
C2527 H2521 0.930 . S
C2527 C2523 1.400 . S
C2527 C2526 1.385 . S
C2528 C2526 1.478 . S
C2528 C2530 1.381 . S
C2528 C2534 1.383 . S
C2529 C2525 1.495 . S
C2529 H2535 0.959 . S
C2529 H2536 0.961 . S
C2529 H2537 0.960 . S
C2530 C2528 1.381 . S
C2530 C2531 1.394 . S
C2530 H2538 0.930 . S
C2531 C2530 1.394 . S
C2531 C2532 1.383 . S
C2531 H2539 0.929 . S
C2532 C2531 1.383 . S
C2532 C2533 1.377 . S
C2533 H2517 0.930 . S
C2533 C2532 1.377 . S
C2533 C2534 1.379 . S
C2534 H2518 0.931 . S
C2534 C2528 1.383 . S
C2534 C2533 1.379 . S
H2535 C2529 0.959 . S
H2536 C2529 0.961 . S
H2537 C2529 0.960 . S
H2538 C2530 0.930 . S
H2539 C2531 0.929 . S
H2540 C2548 0.929 . S
H2541 C2550 0.930 . S
H2542 C2552 0.930 . S
H2543 C2555 0.929 1_545 S
H2544 C2558 0.930 . S
H2545 C2560 0.960 . S
H2546 C2560 0.960 . S
H2547 C2560 0.960 . S
C2548 H2540 0.929 . S
C2548 C2549 1.377 . S
C2548 C2550 1.384 1_545 S
C2549 C2548 1.377 . S
C2549 C2555 1.390 1_545 S
C2550 H2541 0.930 . S
C2550 C2548 1.384 1_565 S
C2550 C2551 1.372 . S
C2551 C2550 1.372 . S
C2551 C2552 1.400 . S
C2551 C2556 1.490 . S
C2552 H2542 0.930 . S
C2552 C2551 1.400 . S
C2552 C2555 1.386 . S
H2553 C2569 0.930 . S
H2554 C2570 0.931 . S
C2555 H2543 0.929 1_565 S
C2555 C2549 1.390 1_565 S
C2555 C2552 1.386 . S
C2556 C2551 1.490 . S
C2556 C2558 1.395 . S
C2556 C2559 1.403 . S
H2557 C2563 0.930 . S
C2558 H2544 0.930 . S
C2558 C2556 1.395 . S
C2558 C2561 1.403 . S
C2559 C2556 1.403 . S
C2559 C2560 1.524 . S
C2559 C2563 1.400 . S
C2560 H2545 0.960 . S
C2560 H2546 0.960 . S
C2560 H2547 0.960 . S
C2560 C2559 1.524 . S
C2561 C2558 1.403 . S
C2561 C2562 1.392 . S
C2561 C2565 1.495 . S
C2562 C2561 1.392 . S
C2562 C2563 1.385 . S
C2562 C2564 1.478 . S
C2563 H2557 0.930 . S
C2563 C2559 1.400 . S
C2563 C2562 1.385 . S
C2564 C2562 1.478 . S
C2564 C2566 1.381 . S
C2564 C2570 1.383 . S
C2565 C2561 1.495 . S
C2565 H2571 0.959 . S
C2565 H2572 0.961 . S
C2565 H2573 0.960 . S
C2566 C2564 1.381 . S
C2566 C2567 1.394 . S
C2566 H2574 0.930 . S
C2567 C2566 1.394 . S
C2567 C2568 1.383 . S
C2567 H2575 0.929 . S
C2568 C2567 1.383 . S
C2568 C2569 1.377 . S
C2569 H2553 0.930 . S
C2569 C2568 1.377 . S
C2569 C2570 1.379 . S
C2570 H2554 0.931 . S
C2570 C2564 1.383 . S
C2570 C2569 1.379 . S
H2571 C2565 0.959 . S
H2572 C2565 0.961 . S
H2573 C2565 0.960 . S
H2574 C2566 0.930 . S
H2575 C2567 0.929 . S
H2576 C2584 0.929 . S
H2577 C2586 0.930 . S
H2578 C2588 0.930 . S
H2579 C2591 0.929 . S
H2580 C2594 0.930 . S
H2581 C2596 0.960 . S
H2582 C2596 0.960 . S
H2583 C2596 0.960 . S
C2584 H2576 0.929 . S
C2584 C2585 1.377 . S
C2584 C2586 1.384 . S
C2585 C2584 1.377 . S
C2585 C2591 1.390 . S
C2586 H2577 0.930 . S
C2586 C2584 1.384 . S
C2586 C2587 1.372 . S
C2587 C2586 1.372 . S
C2587 C2588 1.400 . S
C2587 C2592 1.490 . S
C2588 H2578 0.930 . S
C2588 C2587 1.400 . S
C2588 C2591 1.386 . S
H2589 C2605 0.930 . S
H2590 C2606 0.931 . S
C2591 H2579 0.929 . S
C2591 C2585 1.390 . S
C2591 C2588 1.386 . S
C2592 C2587 1.490 . S
C2592 C2594 1.395 . S
C2592 C2595 1.403 . S
H2593 C2599 0.930 . S
C2594 H2580 0.930 . S
C2594 C2592 1.395 . S
C2594 C2597 1.403 . S
C2595 C2592 1.403 . S
C2595 C2596 1.524 . S
C2595 C2599 1.400 . S
C2596 H2581 0.960 . S
C2596 H2582 0.960 . S
C2596 H2583 0.960 . S
C2596 C2595 1.524 . S
C2597 C2594 1.403 . S
C2597 C2598 1.392 . S
C2597 C2601 1.495 . S
C2598 C2597 1.392 . S
C2598 C2599 1.385 . S
C2598 C2600 1.478 . S
C2599 H2593 0.930 . S
C2599 C2595 1.400 . S
C2599 C2598 1.385 . S
C2600 C2598 1.478 . S
C2600 C2602 1.381 . S
C2600 C2606 1.383 . S
C2601 C2597 1.495 . S
C2601 H2607 0.959 . S
C2601 H2608 0.961 . S
C2601 H2609 0.960 . S
C2602 C2600 1.381 . S
C2602 C2603 1.394 1_545 S
C2602 H2610 0.930 . S
C2603 C2602 1.394 1_565 S
C2603 C2604 1.383 . S
C2603 H2611 0.929 . S
C2604 C2603 1.383 . S
C2604 C2605 1.377 1_565 S
C2605 H2589 0.930 . S
C2605 C2604 1.377 1_545 S
C2605 C2606 1.379 . S
C2606 H2590 0.931 . S
C2606 C2600 1.383 . S
C2606 C2605 1.379 . S
H2607 C2601 0.959 . S
H2608 C2601 0.961 . S
H2609 C2601 0.960 . S
H2610 C2602 0.930 . S
H2611 C2603 0.929 . S
H2612 C2620 0.929 . S
H2613 C2622 0.930 . S
H2614 C2624 0.930 . S
H2615 C2627 0.929 . S
H2616 C2630 0.930 . S
H2617 C2632 0.960 . S
H2618 C2632 0.960 . S
H2619 C2632 0.960 . S
C2620 H2612 0.929 . S
C2620 C2621 1.377 . S
C2620 C2622 1.384 . S
C2621 C2620 1.377 . S
C2621 C2627 1.390 . S
C2622 H2613 0.930 . S
C2622 C2620 1.384 . S
C2622 C2623 1.372 . S
C2623 C2622 1.372 . S
C2623 C2624 1.400 . S
C2623 C2628 1.490 . S
C2624 H2614 0.930 . S
C2624 C2623 1.400 . S
C2624 C2627 1.386 . S
H2625 C2641 0.930 . S
H2626 C2642 0.931 . S
C2627 H2615 0.929 . S
C2627 C2621 1.390 . S
C2627 C2624 1.386 . S
C2628 C2623 1.490 . S
C2628 C2630 1.395 . S
C2628 C2631 1.403 . S
H2629 C2635 0.930 . S
C2630 H2616 0.930 . S
C2630 C2628 1.395 . S
C2630 C2633 1.403 . S
C2631 C2628 1.403 . S
C2631 C2632 1.524 . S
C2631 C2635 1.400 . S
C2632 H2617 0.960 . S
C2632 H2618 0.960 . S
C2632 H2619 0.960 . S
C2632 C2631 1.524 . S
C2633 C2630 1.403 . S
C2633 C2634 1.392 . S
C2633 C2637 1.495 . S
C2634 C2633 1.392 . S
C2634 C2635 1.385 . S
C2634 C2636 1.478 . S
C2635 H2629 0.930 . S
C2635 C2631 1.400 . S
C2635 C2634 1.385 . S
C2636 C2634 1.478 . S
C2636 C2638 1.381 . S
C2636 C2642 1.383 . S
C2637 C2633 1.495 . S
C2637 H2643 0.959 . S
C2637 H2644 0.961 . S
C2637 H2645 0.960 . S
C2638 C2636 1.381 . S
C2638 C2639 1.394 . S
C2638 H2646 0.930 . S
C2639 C2638 1.394 . S
C2639 C2640 1.383 . S
C2639 H2647 0.929 . S
C2640 C2639 1.383 . S
C2640 C2641 1.377 . S
C2641 H2625 0.930 . S
C2641 C2640 1.377 . S
C2641 C2642 1.379 . S
C2642 H2626 0.931 . S
C2642 C2636 1.383 . S
C2642 C2641 1.379 . S
H2643 C2637 0.959 . S
H2644 C2637 0.961 . S
H2645 C2637 0.960 . S
H2646 C2638 0.930 . S
H2647 C2639 0.929 . S
H2648 C2656 0.929 . S
H2649 C2658 0.930 . S
H2650 C2660 0.930 . S
H2651 C2663 0.929 . S
H2652 C2666 0.930 . S
H2653 C2668 0.960 . S
H2654 C2668 0.960 . S
H2655 C2668 0.960 . S
C2656 H2648 0.929 . S
C2656 C2657 1.377 . S
C2656 C2658 1.384 . S
C2657 C2656 1.377 . S
C2657 C2663 1.390 . S
C2658 H2649 0.930 . S
C2658 C2656 1.384 . S
C2658 C2659 1.372 . S
C2659 C2658 1.372 . S
C2659 C2660 1.400 . S
C2659 C2664 1.490 . S
C2660 H2650 0.930 . S
C2660 C2659 1.400 . S
C2660 C2663 1.386 . S
H2661 C2677 0.930 . S
H2662 C2678 0.931 . S
C2663 H2651 0.929 . S
C2663 C2657 1.390 . S
C2663 C2660 1.386 . S
C2664 C2659 1.490 . S
C2664 C2666 1.395 . S
C2664 C2667 1.403 . S
H2665 C2671 0.930 . S
C2666 H2652 0.930 . S
C2666 C2664 1.395 . S
C2666 C2669 1.403 . S
C2667 C2664 1.403 . S
C2667 C2668 1.524 . S
C2667 C2671 1.400 . S
C2668 H2653 0.960 . S
C2668 H2654 0.960 . S
C2668 H2655 0.960 . S
C2668 C2667 1.524 . S
C2669 C2666 1.403 . S
C2669 C2670 1.392 . S
C2669 C2673 1.495 . S
C2670 C2669 1.392 . S
C2670 C2671 1.385 . S
C2670 C2672 1.478 . S
C2671 H2665 0.930 . S
C2671 C2667 1.400 . S
C2671 C2670 1.385 . S
C2672 C2670 1.478 . S
C2672 C2674 1.381 . S
C2672 C2678 1.383 . S
C2673 C2669 1.495 . S
C2673 H2679 0.959 . S
C2673 H2680 0.961 . S
C2673 H2681 0.960 . S
C2674 C2672 1.381 . S
C2674 C2675 1.394 . S
C2674 H2682 0.930 . S
C2675 C2674 1.394 . S
C2675 C2676 1.383 . S
C2675 H2683 0.929 . S
C2676 C2675 1.383 . S
C2676 C2677 1.377 . S
C2677 H2661 0.930 . S
C2677 C2676 1.377 . S
C2677 C2678 1.379 . S
C2678 H2662 0.931 . S
C2678 C2672 1.383 . S
C2678 C2677 1.379 . S
H2679 C2673 0.959 . S
H2680 C2673 0.961 . S
H2681 C2673 0.960 . S
H2682 C2674 0.930 . S
H2683 C2675 0.929 . S
H2684 C2692 0.929 . S
H2685 C2694 0.930 . S
H2686 C2696 0.930 . S
H2687 C2699 0.929 . S
H2688 C2702 0.930 . S
H2689 C2704 0.960 . S
H2690 C2704 0.960 . S
H2691 C2704 0.960 . S
C2692 H2684 0.929 . S
C2692 C2693 1.377 . S
C2692 C2694 1.384 1_565 S
C2693 C2692 1.377 . S
C2693 C2699 1.390 . S
C2694 H2685 0.930 . S
C2694 C2692 1.384 1_545 S
C2694 C2695 1.372 . S
C2695 C2694 1.372 . S
C2695 C2696 1.400 . S
C2695 C2700 1.490 . S
C2696 H2686 0.930 . S
C2696 C2695 1.400 . S
C2696 C2699 1.386 1_545 S
H2697 C2713 0.930 . S
H2698 C2714 0.931 . S
C2699 H2687 0.929 . S
C2699 C2693 1.390 . S
C2699 C2696 1.386 1_565 S
C2700 C2695 1.490 . S
C2700 C2702 1.395 . S
C2700 C2703 1.403 . S
H2701 C2707 0.930 . S
C2702 H2688 0.930 . S
C2702 C2700 1.395 . S
C2702 C2705 1.403 . S
C2703 C2700 1.403 . S
C2703 C2704 1.524 . S
C2703 C2707 1.400 . S
C2704 H2689 0.960 . S
C2704 H2690 0.960 . S
C2704 H2691 0.960 . S
C2704 C2703 1.524 . S
C2705 C2702 1.403 . S
C2705 C2706 1.392 . S
C2705 C2709 1.495 . S
C2706 C2705 1.392 . S
C2706 C2707 1.385 . S
C2706 C2708 1.478 . S
C2707 H2701 0.930 . S
C2707 C2703 1.400 . S
C2707 C2706 1.385 . S
C2708 C2706 1.478 . S
C2708 C2710 1.381 . S
C2708 C2714 1.383 . S
C2709 C2705 1.495 . S
C2709 H2715 0.959 . S
C2709 H2716 0.961 . S
C2709 H2717 0.960 . S
C2710 C2708 1.381 . S
C2710 C2711 1.394 . S
C2710 H2718 0.930 . S
C2711 C2710 1.394 . S
C2711 C2712 1.383 . S
C2711 H2719 0.929 . S
C2712 C2711 1.383 . S
C2712 C2713 1.377 . S
C2713 H2697 0.930 . S
C2713 C2712 1.377 . S
C2713 C2714 1.379 . S
C2714 H2698 0.931 . S
C2714 C2708 1.383 . S
C2714 C2713 1.379 . S
H2715 C2709 0.959 . S
H2716 C2709 0.961 . S
H2717 C2709 0.960 . S
H2718 C2710 0.930 . S
H2719 C2711 0.929 . S
C425 C5 1.405 . S
C444 C18 1.378 . S
C461 C44 1.399 . S
C480 C31 1.395 . S
C497 C57 1.396 . S
C516 C70 1.381 . S
C533 C83 1.395 . S
C552 C96 1.393 . S
C569 C109 1.404 . S
C588 C122 1.389 . S
C605 C135 1.404 . S
C624 C148 1.372 . S
C641 C161 1.405 . S
C660 C174 1.392 . S
C677 C187 1.396 . S
C696 C200 1.377 . S
C713 C226 1.405 . S
C732 C213 1.371 . S
C749 C252 1.405 . S
C768 C239 1.371 . S
C785 C278 1.405 . S
C804 C265 1.415 . S
C821 C304 1.403 . S
C840 C291 1.379 . S
C857 C330 1.395 . S
C876 C317 1.415 . S
C893 C356 1.395 . S
C912 C343 1.415 . S
C929 C382 1.404 . S
C948 C369 1.419 . S
C965 C408 1.395 . S
C984 C395 1.388 . S
C1001 C0 1.265 . S
C1020 C156 1.264 . S
C1037 C13 1.267 . S
C1056 C273 1.273 . S
C1073 C26 1.266 . S
C1092 C78 1.255 . S
C1109 C39 1.265 . S
C1128 C403 1.258 . S
C1145 C52 1.267 . S
C1164 C104 1.273 . S
C1181 C221 1.266 . S
C1200 C65 1.270 . S
C1217 C351 1.266 . S
C1236 C91 1.265 . S
C1253 C117 1.269 . S
C1272 C377 1.274 . S
C1289 C130 1.268 . S
C1308 C182 1.257 . S
C1325 C143 1.267 . S
C1344 C299 1.272 . S
C1361 C169 1.268 . S
C1380 C325 1.275 . S
C1397 C195 1.269 . S
C1416 C247 1.274 . S
C1433 C364 1.267 . S
C1452 C208 1.255 . S
C1469 C286 1.265 . S
C1488 C234 1.260 . S
C1505 C260 1.266 . S
C1524 C312 1.255 . S
C1541 C390 1.268 . S
C1560 C338 1.256 . S
C1577 C138 0.798 . S
C1596 C8 0.753 . S
C1613 C151 0.793 . S
C1632 C21 0.740 . S
C1649 C34 0.784 . S
C1668 C112 0.836 . S
C1685 C125 0.791 . S
C1704 C47 0.822 . S
C1721 C60 0.779 . S
C1740 C190 0.791 . S
C1757 C73 0.779 . S
C1776 C203 0.812 . S
C1793 C164 0.796 . S
C1812 C86 0.743 . S
C1829 C177 0.780 . S
C1848 C99 0.828 . S
C1865 C216 0.799 . S
C1884 C346 0.769 . S
C1901 C359 0.781 . S
C1920 C229 0.835 . S
C1937 C320 0.781 . S
C1956 C242 0.835 . S
C1973 C255 0.779 . S
C1992 C333 0.801 . S
C2009 C398 0.792 . S
C2028 C268 0.825 . S
C2045 C281 0.794 . S
C2064 C411 0.814 . S
C2081 C372 0.793 . S
C2100 C294 0.823 . S
C2117 C385 0.781 . S
C2136 C307 0.772 . S
C2153 C140 1.444 . S
C2172 C10 1.452 . S
C2189 C153 1.447 . S
C2208 C23 1.428 . S
C2225 C114 1.444 . S
C2244 C36 1.453 . S
C2261 C49 1.452 . S
C2280 C127 1.451 . S
C2297 C192 1.451 . S
C2316 C62 1.451 . S
C2333 C205 1.445 . S
C2352 C75 1.427 . S
C2369 C166 1.453 . S
C2388 C88 1.467 . S
C2405 C179 1.444 . S
C2424 C101 1.431 . S
C2441 C348 1.448 . S
C2460 C218 1.425 . S
C2477 C361 1.450 . S
C2496 C231 1.462 . S
C2513 C322 1.452 . S
C2532 C244 1.451 . S
C2549 C257 1.445 . S
C2568 C335 1.438 . S
C2585 C400 1.453 . S
C2604 C270 1.464 . S
C2621 C283 1.450 . S
C2640 C413 1.459 . S
C2657 C374 1.448 . S
C2676 C296 1.437 . S
C2693 C309 1.444 . S
C2712 C387 1.424 . S
