# Generated by pormake.
# Topology xff, (7)-cn, num edge types: 1
# Building blocks:
#     Node 0, Type 0, BuildingBlock: NUHQUE_clean_sbu_2, # of connection points: 7
#     Node 1, Type 0, BuildingBlock: NUHQUE_clean_sbu_2, # of connection points: 7
#     Node 2, Type 0, BuildingBlock: NUHQUE_clean_sbu_2, # of connection points: 7
#     Node 3, Type 0, BuildingBlock: NUHQUE_clean_sbu_2, # of connection points: 7
#     Node 4, Type 0, BuildingBlock: NUHQUE_clean_sbu_2, # of connection points: 7
#     Node 5, Type 0, BuildingBlock: NUHQUE_clean_sbu_2, # of connection points: 7
#     Node 6, Type 0, BuildingBlock: NUHQUE_clean_sbu_2, # of connection points: 7
#     Node 7, Type 0, BuildingBlock: NUHQUE_clean_sbu_2, # of connection points: 7
#     Node 8, Type 0, BuildingBlock: NUHQUE_clean_sbu_2, # of connection points: 7
#     Node 9, Type 0, BuildingBlock: NUHQUE_clean_sbu_2, # of connection points: 7
#     Node 10, Type 0, BuildingBlock: NUHQUE_clean_sbu_2, # of connection points: 7
#     Node 11, Type 0, BuildingBlock: NUHQUE_clean_sbu_2, # of connection points: 7
#     Node 12, Type 0, BuildingBlock: NUHQUE_clean_sbu_2, # of connection points: 7
#     Node 13, Type 0, BuildingBlock: NUHQUE_clean_sbu_2, # of connection points: 7
#     Node 14, Type 0, BuildingBlock: NUHQUE_clean_sbu_2, # of connection points: 7
#     Node 15, Type 0, BuildingBlock: NUHQUE_clean_sbu_2, # of connection points: 7
#     Edge 16, Type (0, 0), BuildingBlock: TEMPAE_clean_linker_10, # of connection points: 2
#     Edge 17, Type (0, 0), BuildingBlock: TEMPAE_clean_linker_10, # of connection points: 2
#     Edge 18, Type (0, 0), BuildingBlock: TEMPAE_clean_linker_10, # of connection points: 2
#     Edge 19, Type (0, 0), BuildingBlock: TEMPAE_clean_linker_10, # of connection points: 2
#     Edge 20, Type (0, 0), BuildingBlock: TEMPAE_clean_linker_10, # of connection points: 2
#     Edge 21, Type (0, 0), BuildingBlock: TEMPAE_clean_linker_10, # of connection points: 2
#     Edge 22, Type (0, 0), BuildingBlock: TEMPAE_clean_linker_10, # of connection points: 2
#     Edge 23, Type (0, 0), BuildingBlock: TEMPAE_clean_linker_10, # of connection points: 2
#     Edge 24, Type (0, 0), BuildingBlock: TEMPAE_clean_linker_10, # of connection points: 2
#     Edge 25, Type (0, 0), BuildingBlock: TEMPAE_clean_linker_10, # of connection points: 2
#     Edge 26, Type (0, 0), BuildingBlock: TEMPAE_clean_linker_10, # of connection points: 2
#     Edge 27, Type (0, 0), BuildingBlock: TEMPAE_clean_linker_10, # of connection points: 2
#     Edge 28, Type (0, 0), BuildingBlock: TEMPAE_clean_linker_10, # of connection points: 2
#     Edge 29, Type (0, 0), BuildingBlock: TEMPAE_clean_linker_10, # of connection points: 2
#     Edge 30, Type (0, 0), BuildingBlock: TEMPAE_clean_linker_10, # of connection points: 2
#     Edge 31, Type (0, 0), BuildingBlock: TEMPAE_clean_linker_10, # of connection points: 2
#     Edge 32, Type (0, 0), BuildingBlock: TEMPAE_clean_linker_10, # of connection points: 2
#     Edge 33, Type (0, 0), BuildingBlock: TEMPAE_clean_linker_10, # of connection points: 2
#     Edge 34, Type (0, 0), BuildingBlock: TEMPAE_clean_linker_10, # of connection points: 2
#     Edge 35, Type (0, 0), BuildingBlock: TEMPAE_clean_linker_10, # of connection points: 2
#     Edge 36, Type (0, 0), BuildingBlock: TEMPAE_clean_linker_10, # of connection points: 2
#     Edge 37, Type (0, 0), BuildingBlock: TEMPAE_clean_linker_10, # of connection points: 2
#     Edge 38, Type (0, 0), BuildingBlock: TEMPAE_clean_linker_10, # of connection points: 2
#     Edge 39, Type (0, 0), BuildingBlock: TEMPAE_clean_linker_10, # of connection points: 2
#     Edge 40, Type (0, 0), BuildingBlock: TEMPAE_clean_linker_10, # of connection points: 2
#     Edge 41, Type (0, 0), BuildingBlock: TEMPAE_clean_linker_10, # of connection points: 2
#     Edge 42, Type (0, 0), BuildingBlock: TEMPAE_clean_linker_10, # of connection points: 2
#     Edge 43, Type (0, 0), BuildingBlock: TEMPAE_clean_linker_10, # of connection points: 2
#     Edge 44, Type (0, 0), BuildingBlock: TEMPAE_clean_linker_10, # of connection points: 2
#     Edge 45, Type (0, 0), BuildingBlock: TEMPAE_clean_linker_10, # of connection points: 2
#     Edge 46, Type (0, 0), BuildingBlock: TEMPAE_clean_linker_10, # of connection points: 2
#     Edge 47, Type (0, 0), BuildingBlock: TEMPAE_clean_linker_10, # of connection points: 2
#     Edge 48, Type (0, 0), BuildingBlock: TEMPAE_clean_linker_10, # of connection points: 2
#     Edge 49, Type (0, 0), BuildingBlock: TEMPAE_clean_linker_10, # of connection points: 2
#     Edge 50, Type (0, 0), BuildingBlock: TEMPAE_clean_linker_10, # of connection points: 2
#     Edge 51, Type (0, 0), BuildingBlock: TEMPAE_clean_linker_10, # of connection points: 2
#     Edge 52, Type (0, 0), BuildingBlock: TEMPAE_clean_linker_10, # of connection points: 2
#     Edge 53, Type (0, 0), BuildingBlock: TEMPAE_clean_linker_10, # of connection points: 2
#     Edge 54, Type (0, 0), BuildingBlock: TEMPAE_clean_linker_10, # of connection points: 2
#     Edge 55, Type (0, 0), BuildingBlock: TEMPAE_clean_linker_10, # of connection points: 2
#     Edge 56, Type (0, 0), BuildingBlock: TEMPAE_clean_linker_10, # of connection points: 2
#     Edge 57, Type (0, 0), BuildingBlock: TEMPAE_clean_linker_10, # of connection points: 2
#     Edge 58, Type (0, 0), BuildingBlock: TEMPAE_clean_linker_10, # of connection points: 2
#     Edge 59, Type (0, 0), BuildingBlock: TEMPAE_clean_linker_10, # of connection points: 2
#     Edge 60, Type (0, 0), BuildingBlock: TEMPAE_clean_linker_10, # of connection points: 2
#     Edge 61, Type (0, 0), BuildingBlock: TEMPAE_clean_linker_10, # of connection points: 2
#     Edge 62, Type (0, 0), BuildingBlock: TEMPAE_clean_linker_10, # of connection points: 2
#     Edge 63, Type (0, 0), BuildingBlock: TEMPAE_clean_linker_10, # of connection points: 2
#     Edge 64, Type (0, 0), BuildingBlock: TEMPAE_clean_linker_10, # of connection points: 2
#     Edge 65, Type (0, 0), BuildingBlock: TEMPAE_clean_linker_10, # of connection points: 2
#     Edge 66, Type (0, 0), BuildingBlock: TEMPAE_clean_linker_10, # of connection points: 2
#     Edge 67, Type (0, 0), BuildingBlock: TEMPAE_clean_linker_10, # of connection points: 2
#     Edge 68, Type (0, 0), BuildingBlock: TEMPAE_clean_linker_10, # of connection points: 2
#     Edge 69, Type (0, 0), BuildingBlock: TEMPAE_clean_linker_10, # of connection points: 2
#     Edge 70, Type (0, 0), BuildingBlock: TEMPAE_clean_linker_10, # of connection points: 2
#     Edge 71, Type (0, 0), BuildingBlock: TEMPAE_clean_linker_10, # of connection points: 2
# Relax obj value: 0.134
# Max RMSD: 0.234
# Mean RMSD: 0.234
data_MOF--net-xff--node1-NUHQUE_clean_sbu_2--edge1-TEMPAE_clean_linker_10
_symmetry_space_group_name_H-M    P1
_symmetry_Int_Tables_number       1
_symmetry_cell_setting            triclinic
loop_
_symmetry_equiv_pos_as_xyz
'x, y, z'
_cell_length_a     35.395966
_cell_length_b     35.40963
_cell_length_c     69.987918
_cell_angle_alpha  89.965732
_cell_angle_beta   89.990618
_cell_angle_gamma 89.944413
loop_
_atom_site_label
_atom_site_type_symbol
_atom_site_fract_x
_atom_site_fract_y
_atom_site_fract_z
_atom_type_partial_charge
O0 O 0.28751 0.24304 0.06399 0.0
Tb1 Tb 0.285 0.22093 0.09306 0.0
Eu2 Eu 0.32896 0.12894 0.08548 0.0
C3 C 0.318 0.25922 0.05697 0.0
O4 O 0.34999 0.25629 0.06628 0.0
C5 C 0.37406 0.20554 0.0958 0.0
O6 O 0.34976 0.08975 0.10898 0.0
C7 C 0.32007 0.10155 0.05132 0.0
C8 C 0.34895 0.10421 0.12636 0.0
O9 O 0.34035 0.14016 0.12809 0.0
C10 C 0.24426 0.14329 0.09941 0.0
C11 C 0.3028 0.07594 0.03686 0.0
C12 C 0.2867 0.09166 0.02006 0.0
C13 C 0.27571 0.06823 1.00475 0.0
C14 C 0.27956 0.02914 1.00675 0.0
C15 C 0.29688 0.01299 0.02277 0.0
C16 C 0.30777 0.03635 0.03804 0.0
O17 O 0.34367 0.22075 0.10369 0.0
O18 O 0.37238 0.17509 0.0851 0.0
O19 O 0.25863 0.2767 0.09553 0.0
O20 O 0.25978 0.2414 0.11991 0.0
C21 C 0.24883 0.27405 0.11336 0.0
O22 O 0.27635 0.12664 0.10322 0.0
O23 O 0.24317 0.17557 0.0901 0.0
O24 O 0.34401 0.08746 0.06392 0.0
O25 O 0.30073 0.13087 0.05765 0.0
H26 H 0.2847 0.12205 0.01847 0.0
H27 H 0.27053 0.01095 0.99514 0.0
H28 H 0.32193 0.02394 0.05025 0.0
O29 O 0.52317 0.51783 0.30873 0.0
Tb30 Tb 0.54417 0.52609 0.33762 0.0
Eu31 Eu 0.63781 0.57056 0.33801 0.0
C32 C 0.51805 0.5459 0.29666 0.0
O33 O 0.53362 0.57878 0.30027 0.0
C34 C 0.55844 0.61787 0.34157 0.0
O35 O 0.68195 0.58529 0.36036 0.0
C36 C 0.66229 0.56256 0.30309 0.0
C37 C 0.67121 0.60509 0.37539 0.0
O38 O 0.63692 0.61928 0.37551 0.0
C39 C 0.61989 0.4857 0.34929 0.0
C40 C 0.6875 0.54434 0.28864 0.0
C41 C 0.67227 0.53288 0.27079 0.0
C42 C 0.69625 0.52097 0.25582 0.0
C43 C 0.73516 0.51913 0.25919 0.0
C44 C 0.75108 0.53039 0.27661 0.0
C45 C 0.72712 0.54323 0.29131 0.0
O46 O 0.53659 0.58764 0.34035 0.0
O47 O 0.5956 0.6174 0.34116 0.0
O48 O 0.48854 0.50037 0.34147 0.0
O49 O 0.52311 0.50794 0.36585 0.0
C50 C 0.49055 0.49549 0.35983 0.0
O51 O 0.63408 0.51764 0.35529 0.0
O52 O 0.59086 0.48504 0.3375 0.0
O53 O 0.67766 0.58557 0.3157 0.0
O54 O 0.63277 0.54398 0.30974 0.0
H55 H 0.64215 0.53512 0.26823 0.0
H56 H 0.75359 0.51035 0.24763 0.0
H57 H 0.73941 0.55313 0.30457 0.0
O58 O 0.23074 0.77915 0.56769 0.0
Tb59 Tb 0.23095 0.79998 0.597 0.0
Eu60 Eu 0.19583 0.89643 0.58704 0.0
C61 C 0.20056 0.76291 0.56037 0.0
O62 O 0.16838 0.7653 0.56959 0.0
C63 C 0.14494 0.82418 0.59626 0.0
O64 O 0.1756 0.93535 0.61077 0.0
C65 C 0.21144 0.93103 0.55535 0.0
C66 C 0.15475 0.92236 0.62496 0.0
O67 O 0.14123 0.88795 0.6238 0.0
C68 C 0.27749 0.87446 0.6035 0.0
C69 C 0.22006 0.95253 0.53751 0.0
C70 C 0.23222 0.93412 0.52056 0.0
C71 C 0.23835 0.9551 0.50362 0.0
C72 C 0.23368 0.99435 0.50411 0.0
C73 C 0.22175 0.01315 0.52061 0.0
C74 C 0.21514 0.99216 0.53733 0.0
O75 O 0.17282 0.8105 0.60677 0.0
O76 O 0.15066 0.85187 0.58403 0.0
O77 O 0.24232 0.73965 0.60117 0.0
O78 O 0.25831 0.77777 0.62294 0.0
C79 C 0.25818 0.74242 0.61784 0.0
O80 O 0.24613 0.89323 0.60649 0.0
O81 O 0.27736 0.84089 0.59538 0.0
O82 O 0.18662 0.94379 0.56784 0.0
O83 O 0.22783 0.89879 0.56 0.0
H84 H 0.23578 0.90373 0.52038 0.0
H85 H 0.23971 0.01071 0.49135 0.0
H86 H 0.20575 1.00667 0.55011 0.0
O87 O 0.98709 0.47492 0.82098 0.0
Tb88 Tb 0.96832 0.47863 0.85068 0.0
Eu89 Eu 0.87987 0.44352 0.8309 0.0
C90 C 0.01051 0.44762 0.816 0.0
O91 O 0.01722 0.4203 0.8282 0.0
C92 C 0.95013 0.39192 0.8478 0.0
O93 O 0.84532 0.43033 0.8577 0.0
C94 C 0.84565 0.43092 0.79849 0.0
C95 C 0.86055 0.435 0.87478 0.0
O96 O 0.89607 0.44523 0.87586 0.0
C97 C 0.89231 0.52382 0.84959 0.0
C98 C 0.82432 0.44838 0.78229 0.0
C99 C 0.84375 0.46245 0.76602 0.0
C100 C 0.82365 0.47445 0.74974 0.0
C101 C 0.78417 0.47355 0.75009 0.0
C102 C 0.76419 0.45829 0.76555 0.0
C103 C 0.78438 0.44624 0.78179 0.0
O104 O 0.96418 0.41924 0.85846 0.0
O105 O 0.92462 0.39798 0.83436 0.0
O106 O 0.00985 0.5241 0.85235 0.0
O107 O 0.01 0.48205 0.8739 0.0
C108 C 0.02606 0.513 0.86801 0.0
O109 O 0.88356 0.50689 0.83353 0.0
O110 O 0.91991 0.51123 0.86036 0.0
O111 O 0.82888 0.42747 0.81521 0.0
O112 O 0.88189 0.43861 0.79995 0.0
H113 H 0.87435 0.46257 0.76566 0.0
H114 H 0.76872 0.48394 0.73777 0.0
H115 H 0.76916 0.4336 0.7936 0.0
O116 O 0.73095 0.78195 0.95763 0.0
Tb117 Tb 0.72095 0.79811 0.92797 0.0
Eu118 Eu 0.69386 0.88974 0.94917 0.0
C119 C 0.70284 0.76913 0.96815 0.0
O120 O 0.66815 0.7737 0.96196 0.0
C121 C 0.6367 0.82489 0.93271 0.0
O122 O 0.68399 0.92228 0.92135 0.0
C123 C 0.68472 0.92969 0.98022 0.0
C124 C 0.69061 0.90618 0.90466 0.0
O125 O 0.70165 0.87086 0.90433 0.0
C126 C 0.77446 0.86859 0.9324 0.0
C127 C 0.70518 0.95179 0.99523 0.0
C128 C 0.7238 0.93366 1.01074 0.0
C129 C 0.74046 0.95515 0.02549 0.0
C130 C 0.73762 0.9945 0.02485 0.0
C131 C 0.71775 0.01295 1.01031 0.0
C132 C 0.70227 0.99164 0.99529 0.0
O133 O 0.66235 0.81094 0.92101 0.0
O134 O 0.64543 0.84793 0.94689 0.0
O135 O 0.72702 0.73692 0.92365 0.0
O136 O 0.74641 0.77394 0.90215 0.0
C137 C 0.74342 0.73874 0.90708 0.0
O138 O 0.75636 0.87788 0.94807 0.0
O139 O 0.76246 0.84129 0.92129 0.0
O140 O 0.68236 0.94405 0.96291 0.0
O141 O 0.6887 0.89277 0.98017 0.0
H142 H 0.72499 0.90313 1.01151 0.0
H143 H 0.74945 0.01106 0.03644 0.0
H144 H 0.68635 1.00595 0.98421 0.0
O145 O 0.48719 0.4712 0.70746 0.0
Tb146 Tb 0.47136 0.47405 0.67736 0.0
Eu147 Eu 0.38392 0.44308 0.69898 0.0
C148 C 0.51033 0.44418 0.71307 0.0
O149 O 0.51869 0.417 0.70106 0.0
C150 C 0.45181 0.38788 0.68218 0.0
O151 O 0.34854 0.42825 0.67273 0.0
C152 C 0.35005 0.43398 0.7319 0.0
C153 C 0.36352 0.43172 0.65554 0.0
O154 O 0.39901 0.44185 0.65411 0.0
C155 C 0.39706 0.52247 0.67807 0.0
C156 C 0.32778 0.45159 0.74783 0.0
C157 C 0.34646 0.46607 0.76426 0.0
C158 C 0.32563 0.47783 0.78038 0.0
C159 C 0.28622 0.47621 0.77975 0.0
C160 C 0.26692 0.46054 0.76419 0.0
C161 C 0.28779 0.44881 0.74808 0.0
O162 O 0.46591 0.41408 0.67078 0.0
O163 O 0.42756 0.39591 0.69601 0.0
O164 O 0.51636 0.51636 0.67682 0.0
O165 O 0.51302 0.47732 0.65401 0.0
C166 C 0.53152 0.5062 0.66074 0.0
O167 O 0.38687 0.5063 0.69418 0.0
O168 O 0.42433 0.50846 0.66751 0.0
O169 O 0.33346 0.42772 0.71535 0.0
O170 O 0.38591 0.44313 0.73013 0.0
H171 H 0.37703 0.4666 0.76488 0.0
H172 H 0.27028 0.48618 0.792 0.0
H173 H 0.27308 0.43587 0.7362 0.0
O174 O 0.77605 0.24349 0.46965 0.0
Tb175 Tb 0.78003 0.21945 0.44111 0.0
Eu176 Eu 0.82797 0.12968 0.44011 0.0
C177 C 0.80509 0.24688 0.48126 0.0
O178 O 0.83627 0.22813 0.4776 0.0
C179 C 0.87251 0.20982 0.43846 0.0
O180 O 0.84774 0.0907 0.4164 0.0
C181 C 0.81181 0.09786 0.47245 0.0
C182 C 0.84947 0.10581 0.39919 0.0
O183 O 0.84367 0.14234 0.39753 0.0
C184 C 0.74501 0.14452 0.42745 0.0
C185 C 0.80284 0.07828 0.49081 0.0
C186 C 0.78856 0.09813 0.50691 0.0
C187 C 0.77928 0.07848 0.52386 0.0
C188 C 0.78474 0.03937 0.52457 0.0
C189 C 0.79816 0.01903 0.50879 0.0
C190 C 0.80764 0.03874 0.49203 0.0
O191 O 0.841 0.22987 0.43669 0.0
O192 O 0.87379 0.17312 0.44141 0.0
O193 O 0.74306 0.26833 0.43722 0.0
O194 O 0.76554 0.24171 0.41262 0.0
C195 C 0.74389 0.26901 0.41867 0.0
O196 O 0.77817 0.13569 0.42075 0.0
O197 O 0.74247 0.1701 0.44098 0.0
O198 O 0.83511 0.08277 0.45985 0.0
O199 O 0.79734 0.13082 0.46751 0.0
H200 H 0.78432 0.12841 0.50619 0.0
H201 H 0.77866 0.0246 0.5378 0.0
H202 H 0.81786 0.02311 0.47976 0.0
O203 O 0.01718 0.54733 0.21081 0.0
Tb204 Tb 0.0433 0.53699 0.18306 0.0
Eu205 Eu 0.13607 0.57642 0.19587 0.0
C206 C 0.98838 0.57092 0.2112 0.0
O207 O 0.98093 0.59033 0.19564 0.0
C208 C 0.06196 0.62345 0.18369 0.0
O209 O 0.17698 0.59632 0.17286 0.0
C210 C 0.16385 0.56766 0.23003 0.0
C211 C 0.16466 0.61674 0.15833 0.0
O212 O 0.13023 0.63043 0.15908 0.0
C213 C 0.12005 0.4924 0.17984 0.0
C214 C 0.19142 0.55089 0.24373 0.0
C215 C 0.17817 0.53602 0.26135 0.0
C216 C 0.20379 0.5253 0.27585 0.0
C217 C 0.24253 0.52835 0.27219 0.0
C218 C 0.25629 0.54412 0.25521 0.0
C219 C 0.23075 0.5547 0.2408 0.0
O220 O 0.0507 0.59511 0.17286 0.0
O221 O 0.08851 0.61889 0.19662 0.0
O222 O 0.98686 0.51286 0.17955 0.0
O223 O 0.02269 0.51565 0.1554 0.0
C224 C 0.98952 0.50529 0.16147 0.0
O225 O 0.13995 0.52348 0.17834 0.0
O226 O 0.08553 0.49233 0.18689 0.0
O227 O 0.17599 0.59331 0.21779 0.0
O228 O 0.13598 0.54672 0.22338 0.0
H229 H 0.14808 0.53465 0.26412 0.0
H230 H 0.26255 0.51945 0.28304 0.0
H231 H 0.24141 0.56759 0.22784 0.0
O232 O 0.81227 0.74684 0.57178 0.0
Tb233 Tb 0.79731 0.71883 0.59841 0.0
Eu234 Eu 0.84051 0.62883 0.5843 0.0
C235 C 0.83398 0.77685 0.57345 0.0
O236 O 0.84779 0.78454 0.59044 0.0
C237 C 0.88442 0.70353 0.59744 0.0
O238 O 0.86393 0.59289 0.60846 0.0
C239 C 0.83531 0.60016 0.55021 0.0
C240 C 0.85866 0.60701 0.62572 0.0
O241 O 0.84466 0.64127 0.62702 0.0
C242 C 0.7559 0.63971 0.60132 0.0
C243 C 0.81822 0.57355 0.53618 0.0
C244 C 0.80039 0.58837 0.51967 0.0
C245 C 0.78701 0.56425 0.50516 0.0
C246 C 0.79229 0.52529 0.50719 0.0
C247 C 0.81103 0.50996 0.52305 0.0
C248 C 0.82333 0.53409 0.53776 0.0
O249 O 0.85591 0.7133 0.6086 0.0
O250 O 0.87992 0.67861 0.58374 0.0
O251 O 0.76277 0.76993 0.59984 0.0
O252 O 0.78094 0.745 0.62578 0.0
C253 C 0.76154 0.77265 0.61832 0.0
O254 O 0.78718 0.61997 0.60096 0.0
O255 O 0.75422 0.67475 0.59503 0.0
O256 O 0.85875 0.58711 0.56335 0.0
O257 O 0.81503 0.62933 0.55594 0.0
H258 H 0.79735 0.61865 0.51799 0.0
H259 H 0.78276 0.50659 0.49591 0.0
H260 H 0.83819 0.52228 0.54991 0.0
O261 O 0.0294 0.03458 0.82379 0.0
Tb262 Tb 0.04417 0.0451 0.8536 0.0
Eu263 Eu 0.13318 0.07432 0.83268 0.0
C264 C 0.01608 0.06212 0.81303 0.0
O265 O 0.01852 0.09696 0.81924 0.0
C266 C 0.06665 0.13002 0.84881 0.0
O267 O 0.16563 0.08823 0.85997 0.0
C268 C 0.17033 0.08514 0.80094 0.0
C269 C 0.15033 0.0807 0.87674 0.0
O270 O 0.11605 0.06678 0.87723 0.0
C271 C 0.11621 0.99221 0.85054 0.0
C272 C 0.19257 0.0662 0.78552 0.0
C273 C 0.17437 0.04672 0.77038 0.0
C274 C 0.19553 0.03134 0.75518 0.0
C275 C 0.23476 0.03613 0.7551 0.0
C276 C 0.25327 0.0571 0.76925 0.0
C277 C 0.23214 0.07142 0.78467 0.0
O278 O 0.05359 0.10418 0.8606 0.0
O279 O 0.08992 0.12156 0.83472 0.0
O280 O 0.98335 0.03499 0.85718 0.0
O281 O 0.0203 0.02125 0.87984 0.0
C282 C 0.98533 0.02098 0.87431 0.0
O283 O 0.12855 0.01083 0.83552 0.0
O284 O 0.08768 1.00426 0.86086 0.0
O285 O 0.18579 0.08872 0.81796 0.0
O286 O 0.13379 0.07853 0.80168 0.0
H287 H 0.14391 0.04377 0.77026 0.0
H288 H 0.25102 0.02468 0.74331 0.0
H289 H 0.24621 0.08808 0.79553 0.0
O290 O 0.72668 0.28253 0.07293 0.0
Tb291 Tb 0.71852 0.29816 0.10277 0.0
Eu292 Eu 0.69274 0.38869 0.08071 0.0
C293 C 0.69831 0.26747 0.06343 0.0
O294 O 0.66449 0.26852 0.07109 0.0
C295 C 0.6349 0.32492 0.09756 0.0
O296 O 0.68097 0.4219 0.10815 0.0
C297 C 0.6837 0.42661 0.04892 0.0
C298 C 0.68841 0.40651 0.12495 0.0
O299 O 0.70139 0.37185 0.12538 0.0
C300 C 0.77462 0.36766 0.09815 0.0
C301 C 0.70223 0.44993 0.03365 0.0
C302 C 0.71674 0.43287 0.01672 0.0
C303 C 0.72925 0.45535 1.00126 0.0
C304 C 0.72831 0.49465 1.00315 0.0
C305 C 0.71283 0.51218 0.01923 0.0
C306 C 0.70034 0.48986 0.0346 0.0
O307 O 0.6601 0.31203 0.10981 0.0
O308 O 0.64466 0.34624 0.08286 0.0
O309 O 0.72442 0.23678 0.10676 0.0
O310 O 0.74374 0.27317 0.1285 0.0
C311 C 0.74079 0.23808 0.12336 0.0
O312 O 0.7559 0.38069 0.08331 0.0
O313 O 0.76193 0.3399 0.10885 0.0
O314 O 0.67877 0.44144 0.066 0.0
O315 O 0.69105 0.39021 0.04953 0.0
H316 H 0.71667 0.40243 0.01521 0.0
H317 H 0.73843 0.51214 0.99148 0.0
H318 H 0.68742 0.50355 0.04681 0.0
O319 O 0.48485 0.98115 0.31694 0.0
Tb320 Tb 0.46973 0.97261 0.34694 0.0
Eu321 Eu 0.37634 0.93615 0.33095 0.0
C322 C 0.49233 0.9531 0.30514 0.0
O323 O 0.47948 0.91926 0.30906 0.0
C324 C 0.45141 0.88338 0.34381 0.0
O325 O 0.34119 0.92666 0.35782 0.0
C326 C 0.34108 0.92526 0.29864 0.0
C327 C 0.3579 0.92816 0.37466 0.0
O328 O 0.39454 0.93357 0.37537 0.0
C329 C 0.3924 0.01407 0.35058 0.0
C330 C 0.31848 0.9441 0.28323 0.0
C331 C 0.33613 0.95585 0.26599 0.0
C332 C 0.31449 0.97005 0.25064 0.0
C333 C 0.27537 0.97379 0.25299 0.0
C334 C 0.257 0.96199 0.26968 0.0
C335 C 0.27862 0.9467 0.28471 0.0
O336 O 0.47417 0.91123 0.34897 0.0
O337 O 0.417 0.88768 0.33669 0.0
O338 O 0.50997 0.01906 0.35002 0.0
O339 O 0.51218 0.97424 0.36997 0.0
C340 C 0.52704 1.00651 0.36515 0.0
O341 O 0.38166 0.9991 0.33436 0.0
O342 O 0.42111 0.99996 0.36002 0.0
O343 O 0.32524 0.92015 0.31548 0.0
O344 O 0.37736 0.93326 0.29981 0.0
H345 H 0.36636 0.9526 0.26422 0.0
H346 H 0.25865 0.98495 0.24129 0.0
H347 H 0.26431 0.93651 0.29739 0.0
O348 O 0.23953 0.28194 0.46027 0.0
Tb349 Tb 0.22519 0.29146 0.43039 0.0
Eu350 Eu 0.19742 0.38347 0.44887 0.0
C351 C 0.21295 0.27345 0.47273 0.0
O352 O 0.17785 0.28218 0.46865 0.0
C353 C 0.13841 0.31485 0.43527 0.0
O354 O 0.18697 0.41805 0.42191 0.0
C355 C 0.18901 0.41926 0.48121 0.0
C356 C 0.18916 0.40112 0.40514 0.0
O357 O 0.19587 0.36467 0.4047 0.0
C358 C 0.2767 0.36406 0.42907 0.0
C359 C 0.20688 0.44221 0.49674 0.0
C360 C 0.22188 0.42468 0.5134 0.0
C361 C 0.23379 0.4467 0.5291 0.0
C362 C 0.23181 0.48604 0.52772 0.0
C363 C 0.21535 0.504 0.51198 0.0
C364 C 0.20358 0.48207 0.49634 0.0
O365 O 0.16411 0.29363 0.42681 0.0
O366 O 0.14602 0.34563 0.44522 0.0
O367 O 0.24253 0.23185 0.43027 0.0
O368 O 0.24258 0.26191 0.40423 0.0
C369 C 0.24979 0.22951 0.41214 0.0
O370 O 0.26048 0.3772 0.44461 0.0
O371 O 0.26243 0.33547 0.41957 0.0
O372 O 0.1834 0.43508 0.46439 0.0
O373 O 0.19728 0.38305 0.48006 0.0
H374 H 0.22265 0.39417 0.51454 0.0
H375 H 0.24183 0.50302 0.53959 0.0
H376 H 0.19004 0.49591 0.48434 0.0
O377 O 0.98854 0.96433 0.20019 0.0
Tb378 Tb 0.9623 0.97133 0.1722 0.0
Eu379 Eu 0.88048 0.94029 0.19715 0.0
C380 C 0.02057 0.9453 0.19952 0.0
O381 O 0.0298 0.92983 0.1831 0.0
C382 C 0.94714 0.88665 0.18 0.0
O383 O 0.85416 0.92453 0.16859 0.0
C384 C 0.83998 0.92633 0.22752 0.0
C385 C 0.82721 0.9454 0.16096 0.0
O386 O 0.81364 0.97378 0.17091 0.0
C387 C 0.88943 0.01912 0.1775 0.0
C388 C 0.8164 0.94345 0.24303 0.0
C389 C 0.83348 0.95759 0.25995 0.0
C390 C 0.81122 0.96921 0.2756 0.0
C391 C 0.77184 0.96762 0.27395 0.0
C392 C 0.75419 0.95267 0.25775 0.0
C393 C 0.77649 0.94107 0.24217 0.0
O394 O 0.95581 0.91124 0.1665 0.0
O395 O 0.92778 0.89679 0.19534 0.0
O396 O 1.00153 0.01839 0.16946 0.0
O397 O 1.00123 0.97646 0.14776 0.0
C398 C 0.0167 1.00804 0.1534 0.0
O399 O 0.88404 1.00365 0.19433 0.0
O400 O 0.91138 1.00256 0.16495 0.0
O401 O 0.82625 0.92478 0.21005 0.0
O402 O 0.87661 0.93263 0.22791 0.0
H403 H 0.86397 0.95814 0.26128 0.0
H404 H 0.7544 0.97746 0.28569 0.0
H405 H 0.76288 0.92867 0.2298 0.0
O406 O 0.28875 0.7433 0.96439 0.0
Tb407 Tb 0.28966 0.72383 0.93485 0.0
Eu408 Eu 0.33075 0.63241 0.94728 0.0
C409 C 0.31862 0.75826 0.97264 0.0
O410 O 0.35152 0.75592 0.9641 0.0
C411 C 0.37693 0.70575 0.9342 0.0
O412 O 0.35295 0.5944 0.92355 0.0
C413 C 0.3235 0.606 0.98176 0.0
C414 C 0.34871 0.60786 0.90606 0.0
O415 O 0.33573 0.64244 0.90417 0.0
C416 C 0.24657 0.64627 0.92978 0.0
C417 C 0.30505 0.5811 0.9962 0.0
C418 C 0.28663 0.59761 1.01214 0.0
C419 C 0.27227 0.57494 0.02704 0.0
C420 C 0.27706 0.53577 0.02594 0.0
C421 C 0.29681 0.51886 1.01082 0.0
C422 C 0.31001 0.54152 0.99572 0.0
O423 O 0.3477 0.71782 0.92424 0.0
O424 O 0.37347 0.67917 0.94716 0.0
O425 O 0.27392 0.78321 0.93079 0.0
O426 O 0.26183 0.74419 0.90874 0.0
C427 C 0.25914 0.77937 0.9139 0.0
O428 O 0.27749 0.62596 0.93035 0.0
O429 O 0.24492 0.68126 0.93609 0.0
O430 O 0.34629 0.59095 0.96889 0.0
O431 O 0.30491 0.63591 0.97554 0.0
H432 H 0.28404 0.62805 1.01312 0.0
H433 H 0.26674 0.51821 0.03752 0.0
H434 H 0.32571 0.52853 0.98417 0.0
O435 O 0.53211 0.0467 0.71412 0.0
Tb436 Tb 0.55502 0.03902 0.68543 0.0
Eu437 Eu 0.64943 0.08022 0.69373 0.0
C438 C 0.51028 0.07583 0.71808 0.0
O439 O 0.50687 0.10299 0.70545 0.0
C440 C 0.5733 0.12693 0.68369 0.0
O441 O 0.69025 0.09929 0.67045 0.0
C442 C 0.67706 0.06889 0.72777 0.0
C443 C 0.67784 0.12 0.65603 0.0
O444 O 0.64357 0.13409 0.65703 0.0
C445 C 0.63203 0.9965 0.67929 0.0
C446 C 0.70234 0.05179 0.74255 0.0
C447 C 0.68618 0.03712 0.75961 0.0
C448 C 0.70931 0.02636 0.77514 0.0
C449 C 0.7485 0.02894 0.77311 0.0
C450 C 0.76515 0.04443 0.75677 0.0
C451 C 0.74212 0.05535 0.74132 0.0
O452 O 0.55892 0.09741 0.67467 0.0
O453 O 0.60319 0.12402 0.6948 0.0
O454 O 0.49978 0.01134 0.68405 0.0
O455 O 0.53137 0.01671 0.65856 0.0
C456 C 0.5001 1.00384 0.6659 0.0
O457 O 0.64924 0.0283 0.67543 0.0
O458 O 0.59934 0.99601 0.68828 0.0
O459 O 0.69105 0.09363 0.71556 0.0
O460 O 0.64795 0.04975 0.72107 0.0
H461 H 0.65574 0.03608 0.76119 0.0
H462 H 0.76652 0.02035 0.78489 0.0
H463 H 0.75499 0.0683 0.7289 0.0
C464 C 0.17683 0.45458 0.17044 0.0
C465 C 0.13745 0.45681 0.17266 0.0
C466 C 0.19404 0.42298 0.16199 0.0
C467 C 0.17141 0.39279 0.15533 0.0
C468 C 0.1317 0.39429 0.15802 0.0
C469 C 0.1152 0.42618 0.16677 0.0
C470 C 0.23647 0.42249 0.15966 0.0
C471 C 0.10651 0.36291 0.15096 0.0
C472 C 0.21448 0.33566 0.11465 0.0
C473 C 0.22802 0.30353 0.12417 0.0
C474 C 0.19507 0.36429 0.12454 0.0
C475 C 0.18933 0.36098 0.14451 0.0
C476 C 0.20264 0.32835 0.15417 0.0
C477 C 0.22167 0.29992 0.14386 0.0
C478 C 0.18123 0.3984 0.11361 0.0
C479 C 0.19752 0.32389 0.17545 0.0
H480 H 0.19436 0.47792 0.17508 0.0
H481 H 0.08477 0.42772 0.16832 0.0
H482 H 0.24837 0.39594 0.16556 0.0
H483 H 0.2438 0.42344 0.14426 0.0
H484 H 0.25026 0.44677 0.16689 0.0
H485 H 0.07657 0.36706 0.15525 0.0
H486 H 0.10794 0.36144 0.13514 0.0
H487 H 0.11641 0.33531 0.15656 0.0
H488 H 0.21914 0.33853 0.09941 0.0
H489 H 0.23206 0.27511 0.15127 0.0
H490 H 0.19604 0.42407 0.11873 0.0
H491 H 0.15059 0.40269 0.11618 0.0
H492 H 0.18601 0.3957 0.09798 0.0
H493 H 0.21296 0.34667 0.18303 0.0
H494 H 0.20801 0.29619 0.18071 0.0
H495 H 0.16724 0.3267 0.17928 0.0
C496 C 0.33532 0.36384 0.40891 0.0
C497 C 0.31083 0.3832 0.42128 0.0
C498 C 0.36612 0.38219 0.40023 0.0
C499 C 0.37221 0.42118 0.40359 0.0
C500 C 0.34793 0.44075 0.41631 0.0
C501 C 0.31782 0.42145 0.42515 0.0
C502 C 0.39162 0.35998 0.38708 0.0
C503 C 0.35283 0.48245 0.42 0.0
C504 C 0.4677 0.46418 0.38998 0.0
C505 C 0.46032 0.47798 0.37157 0.0
C506 C 0.43932 0.44577 0.40064 0.0
C507 C 0.40251 0.44181 0.39287 0.0
C508 C 0.3948 0.45666 0.37446 0.0
C509 C 0.42385 0.47412 0.36399 0.0
C510 C 0.44896 0.42977 0.42002 0.0
C511 C 0.35587 0.45381 0.36572 0.0
H512 H 0.33029 0.33424 0.4059 0.0
H513 H 0.29884 0.43675 0.43453 0.0
H514 H 0.38858 0.37056 0.37223 0.0
H515 H 0.4216 0.3639 0.39127 0.0
H516 H 0.38506 0.32931 0.38721 0.0
H517 H 0.33286 0.49316 0.43099 0.0
H518 H 0.3821 0.48844 0.42476 0.0
H519 H 0.34816 0.49839 0.40655 0.0
H520 H 0.4959 0.46693 0.39585 0.0
H521 H 0.41794 0.48491 0.3498 0.0
H522 H 0.44464 0.39873 0.41996 0.0
H523 H 0.42984 0.4417 0.43104 0.0
H524 H 0.47863 0.43572 0.42421 0.0
H525 H 0.34835 0.42372 0.36355 0.0
H526 H 0.35396 0.4686 0.35175 0.0
H527 H 0.33452 0.46606 0.37554 0.0
C528 C 0.27158 0.67351 0.62185 0.0
C529 C 0.27584 0.71067 0.62842 0.0
C530 C 0.28994 0.64318 0.63095 0.0
C531 C 0.31355 0.65018 0.64692 0.0
C532 C 0.31742 0.68763 0.65381 0.0
C533 C 0.29836 0.7174 0.64453 0.0
C534 C 0.28469 0.60373 0.62321 0.0
C535 C 0.34258 0.69642 0.67063 0.0
C536 C 0.34119 0.56666 0.67862 0.0
C537 C 0.37647 0.55647 0.67103 0.0
C538 C 0.32053 0.59728 0.67108 0.0
C539 C 0.33565 0.61856 0.65572 0.0
C540 C 0.37164 0.60894 0.64832 0.0
C541 C 0.39143 0.57798 0.65596 0.0
C542 C 0.28211 0.6063 0.67925 0.0
C543 C 0.38907 0.63102 0.63209 0.0
H544 H 0.25414 0.66814 0.60941 0.0
H545 H 0.30186 0.74609 0.64962 0.0
H546 H 0.31202 0.5928 0.61775 0.0
H547 H 0.27534 0.58444 0.63478 0.0
H548 H 0.26366 0.60271 0.61144 0.0
H549 H 0.34133 0.72669 0.67476 0.0
H550 H 0.33435 0.679 0.68313 0.0
H551 H 0.37226 0.68915 0.66708 0.0
H552 H 0.32923 0.55013 0.69017 0.0
H553 H 0.41872 0.57054 0.65001 0.0
H554 H 0.26024 0.60278 0.66804 0.0
H555 H 0.28106 0.63618 0.68398 0.0
H556 H 0.2748 0.58788 0.69156 0.0
H557 H 0.37121 0.62845 0.61914 0.0
H558 H 0.41802 0.62108 0.62856 0.0
H559 H 0.39042 0.66144 0.63582 0.0
C560 C 0.21738 0.59759 0.90877 0.0
C561 C 0.21269 0.62827 0.92127 0.0
C562 C 0.18629 0.57959 0.9004 0.0
C563 C 0.14934 0.59214 0.90478 0.0
C564 C 0.14428 0.62313 0.91737 0.0
C565 C 0.17608 0.64108 0.92535 0.0
C566 C 0.19309 0.5472 0.88676 0.0
C567 C 0.10528 0.63715 0.92245 0.0
C568 C 0.07274 0.5656 0.86919 0.0
C569 C 0.05704 0.53338 0.8777 0.0
C570 C 0.10223 0.58547 0.87805 0.0
C571 C 0.11624 0.57293 0.89591 0.0
C572 C 0.10008 0.54067 0.9047 0.0
C573 C 0.07071 0.52118 0.89544 0.0
C574 C 0.11892 0.61944 0.8681 0.0
C575 C 0.11418 0.52646 0.92374 0.0
H576 H 0.24558 0.5878 0.90528 0.0
H577 H 0.17226 0.66473 0.93498 0.0
H578 H 0.17951 0.52119 0.89231 0.0
H579 H 0.18008 0.5535 0.87269 0.0
H580 H 0.22365 0.54144 0.88455 0.0
H581 H 0.10609 0.66122 0.93262 0.0
H582 H 0.09017 0.64622 0.90935 0.0
H583 H 0.08861 0.61392 0.92894 0.0
H584 H 0.06219 0.57514 0.85547 0.0
H585 H 0.05848 0.49637 0.90208 0.0
H586 H 0.14908 0.61405 0.86472 0.0
H587 H 0.11788 0.64442 0.87764 0.0
H588 H 0.10388 0.62639 0.85461 0.0
H589 H 0.14406 0.51732 0.92241 0.0
H590 H 0.09727 0.5023 0.92916 0.0
H591 H 0.11332 0.54951 0.93446 0.0
C592 C 0.83386 0.5642 0.84839 0.0
C593 C 0.86926 0.55615 0.85649 0.0
C594 C 0.81096 0.59333 0.85569 0.0
C595 C 0.82392 0.61525 0.87129 0.0
C596 C 0.85986 0.6076 0.87931 0.0
C597 C 0.88194 0.57808 0.8719 0.0
C598 C 0.77266 0.60033 0.84688 0.0
C599 C 0.87497 0.63052 0.89582 0.0
C600 C 0.78374 0.71315 0.88083 0.0
C601 C 0.76071 0.70658 0.89678 0.0
C602 C 0.80366 0.68351 0.87206 0.0
C603 C 0.80017 0.64631 0.8793 0.0
C604 C 0.77576 0.63931 0.89497 0.0
C605 C 0.75648 0.6696 0.90359 0.0
C606 C 0.82963 0.69228 0.85552 0.0
C607 C 0.77093 0.60002 0.90301 0.0
H608 H 0.82366 0.54722 0.8366 0.0
H609 H 0.90925 0.57218 0.87824 0.0
H610 H 0.75031 0.59667 0.85785 0.0
H611 H 0.77077 0.62984 0.84164 0.0
H612 H 0.76673 0.58091 0.83478 0.0
H613 H 0.9038 0.62153 0.90016 0.0
H614 H 0.87582 0.66087 0.8919 0.0
H615 H 0.85591 0.62775 0.90833 0.0
H616 H 0.78718 0.74174 0.87556 0.0
H617 H 0.73867 0.66442 0.91592 0.0
H618 H 0.8229 0.67391 0.84315 0.0
H619 H 0.85929 0.68631 0.85969 0.0
H620 H 0.8276 0.72224 0.85092 0.0
H621 H 0.76347 0.57995 0.89144 0.0
H622 H 0.74871 0.59881 0.91421 0.0
H623 H 0.79797 0.59025 0.90932 0.0
C624 C 0.57566 0.51566 0.63304 0.0
C625 C 0.56358 0.52586 0.6514 0.0
C626 C 0.60567 0.53485 0.62406 0.0
C627 C 0.62418 0.56478 0.63372 0.0
C628 C 0.61193 0.57516 0.65227 0.0
C629 C 0.58177 0.55567 0.66083 0.0
C630 C 0.61779 0.52291 0.60429 0.0
C631 C 0.63105 0.60655 0.66319 0.0
C632 C 0.72568 0.58784 0.62018 0.0
C633 C 0.72161 0.62083 0.60917 0.0
C634 C 0.6943 0.56942 0.62814 0.0
C635 C 0.6576 0.58395 0.62493 0.0
C636 C 0.65313 0.61713 0.61376 0.0
C637 C 0.68521 0.63534 0.60612 0.0
C638 C 0.70057 0.53456 0.6402 0.0
C639 C 0.61446 0.63343 0.60993 0.0
H640 H 0.56157 0.49275 0.62566 0.0
H641 H 0.57252 0.5637 0.67503 0.0
H642 H 0.61706 0.54749 0.59445 0.0
H643 H 0.64736 0.51251 0.60467 0.0
H644 H 0.59952 0.50027 0.59836 0.0
H645 H 0.61754 0.61183 0.67727 0.0
H646 H 0.66119 0.59934 0.66559 0.0
H647 H 0.63033 0.63307 0.65475 0.0
H648 H 0.75365 0.57654 0.62288 0.0
H649 H 0.68173 0.66076 0.59767 0.0
H650 H 0.68504 0.51029 0.63399 0.0
H651 H 0.68929 0.5392 0.6548 0.0
H652 H 0.73093 0.52688 0.64135 0.0
H653 H 0.59626 0.61186 0.60306 0.0
H654 H 0.6156 0.65875 0.60058 0.0
H655 H 0.60078 0.64138 0.62362 0.0
C656 C 0.72864 0.29836 0.38685 0.0
C657 C 0.7235 0.29696 0.4067 0.0
C658 C 0.71054 0.32619 0.3757 0.0
C659 C 0.68659 0.35307 0.38462 0.0
C660 C 0.68049 0.3509 0.4046 0.0
C661 C 0.69908 0.32303 0.41537 0.0
C662 C 0.71802 0.32763 0.35449 0.0
C663 C 0.65519 0.37882 0.41474 0.0
C664 C 0.67423 0.45167 0.36417 0.0
C665 C 0.63769 0.45025 0.35637 0.0
C666 C 0.69091 0.41987 0.37265 0.0
C667 C 0.67058 0.38553 0.37356 0.0
C668 C 0.63416 0.38341 0.36514 0.0
C669 C 0.61818 0.41578 0.35654 0.0
C670 C 0.72987 0.42352 0.38128 0.0
C671 C 0.61147 0.3474 0.3659 0.0
H672 H 0.74742 0.2782 0.38008 0.0
H673 H 0.69483 0.32196 0.4307 0.0
H674 H 0.69099 0.32849 0.34648 0.0
H675 H 0.73369 0.35385 0.35096 0.0
H676 H 0.73481 0.30303 0.34948 0.0
H677 H 0.6511 0.37158 0.43005 0.0
H678 H 0.66769 0.4075 0.41386 0.0
H679 H 0.62714 0.38001 0.40771 0.0
H680 H 0.68981 0.47802 0.36393 0.0
H681 H 0.58993 0.41444 0.35061 0.0
H682 H 0.74871 0.40099 0.37573 0.0
H683 H 0.72816 0.41995 0.39701 0.0
H684 H 0.74297 0.45137 0.37821 0.0
H685 H 0.62859 0.32331 0.36061 0.0
H686 H 0.58515 0.34928 0.3573 0.0
H687 H 0.60374 0.34111 0.38093 0.0
C688 C 0.81714 0.42432 0.0988 0.0
C689 C 0.81011 0.38673 0.10407 0.0
C690 C 0.84787 0.44437 0.10649 0.0
C691 C 0.87255 0.42623 0.11954 0.0
C692 C 0.86671 0.3877 0.12411 0.0
C693 C 0.83543 0.36854 0.11647 0.0
C694 C 0.85274 0.48553 0.10144 0.0
C695 C 0.89266 0.36706 0.1377 0.0
C696 C 0.96742 0.47101 0.13216 0.0
C697 C 0.95958 0.48675 0.1501 0.0
C698 C 0.93933 0.45146 0.12191 0.0
C699 C 0.90246 0.4482 0.12967 0.0
C700 C 0.89429 0.46499 0.14758 0.0
C701 C 0.92302 0.48374 0.15763 0.0
C702 C 0.9493 0.43352 0.10302 0.0
C703 C 0.85528 0.46274 0.15628 0.0
H704 H 0.79759 0.43872 0.08935 0.0
H705 H 0.83039 0.33943 0.12053 0.0
H706 H 0.84728 0.50313 0.11426 0.0
H707 H 0.88218 0.49116 0.09684 0.0
H708 H 0.83321 0.49463 0.08989 0.0
H709 H 0.88656 0.33631 0.13828 0.0
H710 H 0.92256 0.37106 0.1334 0.0
H711 H 0.88946 0.37887 0.15229 0.0
H712 H 0.99573 0.47318 0.12636 0.0
H713 H 0.91683 0.49604 0.17146 0.0
H714 H 0.92997 0.44381 0.09168 0.0
H715 H 0.9456 0.40246 0.10399 0.0
H716 H 0.97886 0.43957 0.09866 0.0
H717 H 0.83396 0.47377 0.14607 0.0
H718 H 0.85306 0.47897 0.16981 0.0
H719 H 0.84799 0.43285 0.15926 0.0
C720 C 0.63025 0.92666 0.67197 0.0
C721 C 0.65029 0.96079 0.67285 0.0
C722 C 0.64712 0.89373 0.66446 0.0
C723 C 0.68499 0.89491 0.65783 0.0
C724 C 0.70566 0.92897 0.65932 0.0
C725 C 0.68811 0.96136 0.66673 0.0
C726 C 0.62405 0.85805 0.66303 0.0
C727 C 0.74611 0.93159 0.65254 0.0
C728 C 0.74269 0.80541 0.64876 0.0
C729 C 0.74085 0.8026 0.62881 0.0
C730 C 0.72378 0.83469 0.65853 0.0
C731 C 0.70242 0.8616 0.64807 0.0
C732 C 0.69986 0.85822 0.62795 0.0
C733 C 0.71917 0.82891 0.61859 0.0
C734 C 0.72744 0.8374 0.67996 0.0
C735 C 0.67743 0.88615 0.6162 0.0
H736 H 0.60106 0.92589 0.67662 0.0
H737 H 0.70409 0.98741 0.66749 0.0
H738 H 0.61954 0.85086 0.64777 0.0
H739 H 0.63946 0.83408 0.66964 0.0
H740 H 0.59605 0.86088 0.67006 0.0
H741 H 0.75903 0.95942 0.65583 0.0
H742 H 0.76344 0.90913 0.65929 0.0
H743 H 0.74728 0.92714 0.63686 0.0
H744 H 0.75935 0.78508 0.65672 0.0
H745 H 0.7175 0.82679 0.60316 0.0
H746 H 0.69907 0.83885 0.68666 0.0
H747 H 0.74257 0.86377 0.68379 0.0
H748 H 0.74307 0.81305 0.68612 0.0
H749 H 0.6481 0.88818 0.6217 0.0
H750 H 0.67636 0.87828 0.60085 0.0
H751 H 0.69026 0.91463 0.61742 0.0
C752 C 0.96129 0.98224 0.90146 0.0
C753 C 0.95394 1.00281 0.88475 0.0
C754 C 0.93265 0.96148 0.91053 0.0
C755 C 0.89567 0.96165 0.90281 0.0
C756 C 0.88779 0.98357 0.88633 0.0
C757 C 0.91712 1.00373 0.87742 0.0
C758 C 0.94231 0.93821 0.92795 0.0
C759 C 0.84864 0.98483 0.87777 0.0
C760 C 0.83134 0.8776 0.9117 0.0
C761 C 0.80751 0.89118 0.92617 0.0
C762 C 0.86056 0.9 0.90427 0.0
C763 C 0.86582 0.93713 0.91128 0.0
C764 C 0.84228 0.95082 0.92611 0.0
C765 C 0.81355 0.92758 0.93347 0.0
C766 C 0.88538 0.88412 0.88865 0.0
C767 C 0.84673 0.99038 0.93381 0.0
H768 H 0.98979 0.98138 0.90713 0.0
H769 H 0.91138 0.01965 0.8645 0.0
H770 H 0.92296 0.94523 0.9399 0.0
H771 H 0.93845 0.90779 0.92469 0.0
H772 H 0.97187 0.9427 0.93276 0.0
H773 H 0.84653 1.00539 0.86582 0.0
H774 H 0.84089 0.95647 0.87232 0.0
H775 H 0.8276 0.99253 0.88886 0.0
H776 H 0.82693 0.8495 0.90599 0.0
H777 H 0.79501 0.93846 0.9445 0.0
H778 H 0.91552 0.88601 0.89289 0.0
H779 H 0.88187 0.90101 0.87542 0.0
H780 H 0.87866 0.85418 0.88537 0.0
H781 H 0.87605 0.99479 0.93894 0.0
H782 H 0.82691 0.99638 0.94573 0.0
H783 H 0.8416 0.01115 0.92221 0.0
C784 C 0.87807 0.07347 0.1554 0.0
C785 C 0.86687 0.05249 0.17144 0.0
C786 C 0.85618 0.10372 0.14858 0.0
C787 C 0.82176 0.11296 0.15779 0.0
C788 C 0.81033 0.09203 0.17406 0.0
C789 C 0.83322 0.06231 0.18083 0.0
C790 C 0.86986 0.12566 0.13141 0.0
C791 C 0.77353 0.10051 0.18408 0.0
C792 C 0.78325 0.21186 0.14863 0.0
C793 C 0.75829 0.2056 0.13341 0.0
C794 C 0.80335 0.18186 0.15703 0.0
C795 C 0.79794 0.14455 0.15025 0.0
C796 C 0.77156 0.13791 0.13538 0.0
C797 C 0.7523 0.16857 0.12702 0.0
C798 C 0.83159 0.19034 0.17261 0.0
C799 C 0.7645 0.09854 0.12791 0.0
H800 H 0.90411 0.06622 0.14811 0.0
H801 H 0.82417 0.04606 0.19313 0.0
H802 H 0.84932 0.12286 0.11953 0.0
H803 H 0.87185 0.15613 0.13496 0.0
H804 H 0.89793 0.11583 0.12632 0.0
H805 H 0.76873 0.0818 0.19659 0.0
H806 H 0.77314 0.13029 0.18899 0.0
H807 H 0.74968 0.09701 0.17395 0.0
H808 H 0.78812 0.24047 0.15356 0.0
H809 H 0.733 0.16361 0.11526 0.0
H810 H 0.86047 0.18326 0.16757 0.0
H811 H 0.82587 0.17262 0.18536 0.0
H812 H 0.8311 0.2205 0.17696 0.0
H813 H 0.79028 0.08777 0.12073 0.0
H814 H 0.74075 0.09766 0.11754 0.0
H815 H 0.75811 0.07904 0.1399 0.0
C816 C 0.7163 0.09794 0.40492 0.0
C817 C 0.71136 0.12468 0.41956 0.0
C818 C 0.68556 0.07864 0.39692 0.0
C819 C 0.6486 0.08604 0.40366 0.0
C820 C 0.64326 0.11281 0.41851 0.0
C821 C 0.67471 0.13186 0.42629 0.0
C822 C 0.69271 0.05052 0.38108 0.0
C823 C 0.60429 0.12156 0.42604 0.0
C824 C 0.5695 0.06228 0.36884 0.0
C825 C 0.55747 0.02687 0.37543 0.0
C826 C 0.59831 0.08228 0.37822 0.0
C827 C 0.61571 0.06649 0.39461 0.0
C828 C 0.6033 0.03091 0.40149 0.0
C829 C 0.57429 0.01152 0.39182 0.0
C830 C 0.61068 0.12001 0.37034 0.0
C831 C 0.62119 0.013 0.41885 0.0
H832 H 0.74441 0.09204 0.39954 0.0
H833 H 0.67057 0.1524 0.43757 0.0
H834 H 0.68152 0.02241 0.38518 0.0
H835 H 0.67762 0.05945 0.36794 0.0
H836 H 0.72323 0.04756 0.37767 0.0
H837 H 0.6049 0.14229 0.43795 0.0
H838 H 0.58644 0.13309 0.41438 0.0
H839 H 0.59055 0.09528 0.43116 0.0
H840 H 0.55648 0.07437 0.35622 0.0
H841 H 0.56498 0.98422 0.39701 0.0
H842 H 0.64048 0.11825 0.3655 0.0
H843 H 0.60933 0.14188 0.38166 0.0
H844 H 0.59298 0.12932 0.3581 0.0
H845 H 0.6514 1.00694 0.41593 0.0
H846 H 0.60702 0.98625 0.42301 0.0
H847 H 0.62014 0.0328 0.43112 0.0
C848 C 0.38714 0.06983 0.37237 0.0
C849 C 0.37025 0.04536 0.35914 0.0
C850 C 0.36652 0.09937 0.38081 0.0
C851 C 0.32776 0.10403 0.37631 0.0
C852 C 0.3104 0.079 0.36319 0.0
C853 C 0.33197 0.05026 0.35459 0.0
C854 C 0.38634 0.12585 0.39442 0.0
C855 C 0.26897 0.08238 0.35837 0.0
C856 C 0.26956 0.16159 0.41173 0.0
C857 C 0.26735 0.19667 0.4025 0.0
C858 C 0.28816 0.13082 0.40314 0.0
C859 C 0.30569 0.13556 0.38508 0.0
C860 C 0.30319 0.17092 0.37566 0.0
C861 C 0.28371 0.20091 0.38439 0.0
C862 C 0.28948 0.0934 0.4135 0.0
C863 C 0.32206 0.17742 0.35659 0.0
H864 H 0.41673 0.06621 0.37592 0.0
H865 H 0.31862 0.03111 0.34458 0.0
H866 H 0.3839 0.15533 0.38917 0.0
H867 H 0.37267 0.12473 0.40866 0.0
H868 H 0.41676 0.11886 0.39612 0.0
H869 H 0.25946 0.05999 0.34836 0.0
H870 H 0.25183 0.08059 0.37162 0.0
H871 H 0.26319 0.11031 0.3518 0.0
H872 H 0.25687 0.15823 0.42573 0.0
H873 H 0.28227 0.22807 0.37728 0.0
H874 H 0.31911 0.08626 0.4172 0.0
H875 H 0.27879 0.07057 0.40408 0.0
H876 H 0.27248 0.09367 0.42684 0.0
H877 H 0.35297 0.17284 0.35796 0.0
H878 H 0.31713 0.20641 0.35104 0.0
H879 H 0.31145 0.15683 0.34593 0.0
C880 C 0.06307 0.01623 0.12648 0.0
C881 C 0.04742 0.02902 0.1437 0.0
C882 C 0.09328 0.03566 0.1178 0.0
C883 C 0.10822 0.06849 0.12662 0.0
C884 C 0.09183 0.08188 0.14379 0.0
C885 C 0.06166 0.06204 0.15207 0.0
C886 C 0.10988 0.02054 0.09948 0.0
C887 C 0.10696 0.11651 0.15377 0.0
C888 C 0.21131 0.09371 0.11862 0.0
C889 C 0.20896 0.12443 0.10594 0.0
C890 C 0.17885 0.0751 0.12519 0.0
C891 C 0.14284 0.08716 0.11887 0.0
C892 C 0.14011 0.11791 0.10593 0.0
C893 C 0.17321 0.13633 0.09969 0.0
C894 C 0.18317 0.04283 0.13917 0.0
C895 C 0.10222 0.13148 0.09882 0.0
H896 H 0.05205 0.99079 0.11993 0.0
H897 H 0.04961 0.07213 0.16536 0.0
H898 H 0.11118 0.04322 0.08855 0.0
H899 H 0.13925 0.01082 0.10206 0.0
H900 H 0.09329 0.99655 0.09365 0.0
H901 H 0.08968 0.12452 0.16639 0.0
H902 H 0.13636 0.11121 0.15859 0.0
H903 H 0.1078 0.14079 0.14376 0.0
H904 H 0.23869 0.0843 0.12368 0.0
H905 H 0.17107 0.15989 0.08986 0.0
H906 H 0.16975 0.01698 0.13335 0.0
H907 H 0.16853 0.04977 0.15274 0.0
H908 H 0.21323 0.03647 0.14241 0.0
H909 H 0.08657 0.10776 0.09216 0.0
H910 H 0.10492 0.15466 0.0882 0.0
H911 H 0.08499 0.14174 0.111 0.0
C912 C 0.22142 0.80166 0.88579 0.0
C913 C 0.24029 0.80979 0.90291 0.0
C914 C 0.20169 0.82998 0.87578 0.0
C915 C 0.20103 0.86735 0.88301 0.0
C916 C 0.22079 0.8758 0.9001 0.0
C917 C 0.24005 0.8469 0.90986 0.0
C918 C 0.18081 0.81971 0.85771 0.0
C919 C 0.22099 0.91527 0.90828 0.0
C920 C 0.17372 0.95039 0.85106 0.0
C921 C 0.13664 0.95783 0.85711 0.0
C922 C 0.1948 0.92054 0.85904 0.0
C923 C 0.1783 0.89731 0.87327 0.0
C924 C 0.1404 0.90379 0.87887 0.0
C925 C 0.12015 0.93399 0.87081 0.0
C926 C 0.23519 0.91475 0.85276 0.0
C927 C 0.12152 0.87949 0.89382 0.0
H928 H 0.22148 0.77298 0.88038 0.0
H929 H 0.25465 0.85331 0.92308 0.0
H930 H 0.15008 0.82445 0.85973 0.0
H931 H 0.19004 0.83815 0.84577 0.0
H932 H 0.18537 0.78978 0.85354 0.0
H933 H 0.23919 0.9176 0.92116 0.0
H934 H 0.23115 0.93567 0.89739 0.0
H935 H 0.19182 0.92373 0.91222 0.0
H936 H 0.18684 0.96876 0.8406 0.0
H937 H 0.09147 0.93932 0.87554 0.0
H938 H 0.23969 0.88505 0.84827 0.0
H939 H 0.25446 0.92024 0.86495 0.0
H940 H 0.24315 0.93369 0.84076 0.0
H941 H 0.12379 0.84923 0.88986 0.0
H942 H 0.09119 0.88667 0.89571 0.0
H943 H 0.13605 0.8831 0.90774 0.0
C944 C 0.34528 0.86986 0.61462 0.0
C945 C 0.31333 0.89179 0.61036 0.0
C946 C 0.37782 0.88637 0.62273 0.0
C947 C 0.3786 0.92578 0.62642 0.0
C948 C 0.34692 0.94814 0.62145 0.0
C949 C 0.31475 0.93091 0.61363 0.0
C950 C 0.41083 0.86147 0.62799 0.0
C951 C 0.34651 0.99026 0.62489 0.0
C952 C 0.43986 0.96718 0.66594 0.0
C953 C 0.46998 0.98291 0.65565 0.0
C954 C 0.41071 0.94746 0.65666 0.0
C955 C 0.41137 0.94362 0.63651 0.0
C956 C 0.442 0.95909 0.62604 0.0
C957 C 0.47105 0.97841 0.63575 0.0
C958 C 0.37879 0.93133 0.66843 0.0
C959 C 0.44362 0.95604 0.60455 0.0
H960 H 0.3444 0.83963 0.61222 0.0
H961 H 0.2904 0.94823 0.61021 0.0
H962 H 0.43726 0.87267 0.62163 0.0
H963 H 0.4146 0.86147 0.64373 0.0
H964 H 0.40686 0.83187 0.62314 0.0
H965 H 0.32076 1.00399 0.61903 0.0
H966 H 0.34782 0.996 0.64046 0.0
H967 H 0.37169 1.00355 0.61827 0.0
H968 H 0.43897 0.97038 0.68134 0.0
H969 H 0.49432 0.99045 0.62774 0.0
H970 H 0.37513 0.90088 0.6652 0.0
H971 H 0.35194 0.94574 0.66467 0.0
H972 H 0.38365 0.93462 0.68402 0.0
H973 H 0.44115 0.92607 0.60012 0.0
H974 H 0.47021 0.96782 0.5986 0.0
H975 H 0.41939 0.97145 0.59818 0.0
C976 C 0.32369 0.95845 1.00513 0.0
C977 C 0.30675 0.97223 0.02184 0.0
C978 C 0.3264 0.91974 1.00155 0.0
C979 C 0.31304 0.89376 0.01537 0.0
C980 C 0.29919 0.90736 0.03312 0.0
C981 C 0.2958 0.94664 0.03609 0.0
C982 C 0.34125 0.90686 0.98236 0.0
C983 C 0.28611 0.88068 0.04855 0.0
C984 C 0.27981 0.8064 0.98967 0.0
C985 C 0.31371 0.78611 0.98822 0.0
C986 C 0.27795 0.84004 1.00024 0.0
C987 C 0.3105 0.85309 1.00999 0.0
C988 C 0.34318 0.83003 1.01061 0.0
C989 C 0.34468 0.79712 0.99941 0.0
C990 C 0.24254 0.86374 0.99905 0.0
C991 C 0.37781 0.84188 0.02164 0.0
H992 H 0.33306 0.97824 0.99428 0.0
H993 H 0.28297 0.95719 0.0491 0.0
H994 H 0.36538 0.88726 0.98432 0.0
H995 H 0.31883 0.89132 0.97455 0.0
H996 H 0.35076 0.93081 0.9733 0.0
H997 H 0.28675 0.89437 0.06282 0.0
H998 H 0.25658 0.87198 0.04561 0.0
H999 H 0.30382 0.85481 0.04897 0.0
H1000 H 0.2557 0.79803 0.98111 0.0
H1001 H 0.3708 0.78118 0.99859 0.0
H1002 H 0.24792 0.88863 0.98979 0.0
H1003 H 0.23447 0.87439 1.01337 0.0
H1004 H 0.21837 0.84772 0.993 0.0
H1005 H 0.39397 0.86288 1.01318 0.0
H1006 H 0.39666 0.81747 0.0246 0.0
H1007 H 0.36981 0.85536 0.03537 0.0
C1008 C 0.92202 0.57886 0.22212 0.0
C1009 C 0.95936 0.56881 0.22649 0.0
C1010 C 0.89251 0.57243 0.23504 0.0
C1011 C 0.90049 0.55682 0.25325 0.0
C1012 C 0.93852 0.54891 0.2583 0.0
C1013 C 0.96746 0.55421 0.24468 0.0
C1014 C 0.85243 0.58045 0.22869 0.0
C1015 C 0.94877 0.53365 0.27774 0.0
C1016 C 0.81092 0.56685 0.28213 0.0
C1017 C 0.79308 0.53261 0.27768 0.0
C1018 C 0.84857 0.57351 0.27653 0.0
C1019 C 0.86814 0.54575 0.26579 0.0
C1020 C 0.85185 0.50952 0.26356 0.0
C1021 C 0.81477 0.50322 0.26986 0.0
C1022 C 0.86596 0.6116 0.28037 0.0
C1023 C 0.87157 0.47886 0.25236 0.0
H1024 H 0.91535 0.58998 0.20808 0.0
H1025 H 0.99629 0.54657 0.24822 0.0
H1026 H 0.83549 0.5541 0.22919 0.0
H1027 H 0.83895 0.60103 0.23849 0.0
H1028 H 0.85107 0.59201 0.21395 0.0
H1029 H 0.97775 0.54247 0.28188 0.0
H1030 H 0.92865 0.54321 0.2889 0.0
H1031 H 0.94833 0.50235 0.27733 0.0
H1032 H 0.79458 0.5896 0.28839 0.0
H1033 H 0.80134 0.47636 0.26684 0.0
H1034 H 0.86316 0.62964 0.26748 0.0
H1035 H 0.89653 0.60873 0.28362 0.0
H1036 H 0.85175 0.62614 0.29246 0.0
H1037 H 0.87264 0.48696 0.23704 0.0
H1038 H 0.85686 0.45125 0.25356 0.0
H1039 H 0.90105 0.47536 0.25738 0.0
C1040 C 0.19219 0.2348 0.50078 0.0
C1041 C 0.21999 0.24349 0.48716 0.0
C1042 C 0.193 0.20043 0.51085 0.0
C1043 C 0.2219 0.17385 0.50694 0.0
C1044 C 0.25197 0.1841 0.49461 0.0
C1045 C 0.25085 0.21896 0.48501 0.0
C1046 C 0.16102 0.19121 0.52431 0.0
C1047 C 0.28332 0.15667 0.48992 0.0
C1048 C 0.23386 0.07925 0.53254 0.0
C1049 C 0.21613 0.05477 0.51959 0.0
C1050 C 0.23437 0.11857 0.52926 0.0
C1051 C 0.2171 0.13345 0.51258 0.0
C1052 C 0.19722 0.10893 0.50017 0.0
C1053 C 0.19671 0.07009 0.50393 0.0
C1054 C 0.25507 0.14382 0.54307 0.0
C1055 C 0.17827 0.12334 0.48223 0.0
H1056 H 0.16845 0.2538 0.5027 0.0
H1057 H 0.27255 0.22536 0.47458 0.0
H1058 H 0.14058 0.17239 0.517 0.0
H1059 H 0.17159 0.17608 0.53714 0.0
H1060 H 0.14574 0.21705 0.52896 0.0
H1061 H 0.3071 0.17058 0.48232 0.0
H1062 H 0.29436 0.14322 0.5031 0.0
H1063 H 0.27204 0.13389 0.48065 0.0
H1064 H 0.24895 0.06755 0.54465 0.0
H1065 H 0.18245 0.05129 0.49406 0.0
H1066 H 0.2387 0.16998 0.54587 0.0
H1067 H 0.28253 0.15233 0.53676 0.0
H1068 H 0.26069 0.12936 0.55688 0.0
H1069 H 0.15803 0.14622 0.48577 0.0
H1070 H 0.16281 0.10075 0.47449 0.0
H1071 H 0.19981 0.13541 0.47245 0.0
C1072 C 0.69693 0.4628 0.77785 0.0
C1073 C 0.72259 0.45275 0.76343 0.0
C1074 C 0.65757 0.46168 0.77452 0.0
C1075 C 0.64383 0.45101 0.75626 0.0
C1076 C 0.66972 0.43935 0.742 0.0
C1077 C 0.70846 0.43968 0.7459 0.0
C1078 C 0.63094 0.47309 0.79032 0.0
C1079 C 0.6567 0.42776 0.72227 0.0
C1080 C 0.54808 0.41792 0.73992 0.0
C1081 C 0.5357 0.44951 0.7296 0.0
C1082 C 0.58101 0.41951 0.75111 0.0
C1083 C 0.60283 0.45301 0.75127 0.0
C1084 C 0.58824 0.48605 0.74246 0.0
C1085 C 0.55449 0.48399 0.73191 0.0
C1086 C 0.59452 0.38411 0.76099 0.0
C1087 C 0.61059 0.5223 0.74207 0.0
H1088 H 0.70756 0.47273 0.79147 0.0
H1089 H 0.72801 0.43067 0.73487 0.0
H1090 H 0.62085 0.50231 0.78774 0.0
H1091 H 0.60581 0.45437 0.79067 0.0
H1092 H 0.64497 0.4723 0.80451 0.0
H1093 H 0.68064 0.42049 0.71268 0.0
H1094 H 0.6378 0.40288 0.72326 0.0
H1095 H 0.64034 0.45104 0.71559 0.0
H1096 H 0.53349 0.39122 0.73819 0.0
H1097 H 0.54519 0.50837 0.72378 0.0
H1098 H 0.60786 0.39092 0.77492 0.0
H1099 H 0.61607 0.36995 0.75197 0.0
H1100 H 0.57098 0.36393 0.76342 0.0
H1101 H 0.62255 0.52858 0.75635 0.0
H1102 H 0.59309 0.54666 0.73738 0.0
H1103 H 0.63458 0.5192 0.73196 0.0
C1104 C 0.67518 0.2289 0.03601 0.0
C1105 C 0.70524 0.24017 0.04776 0.0
C1106 C 0.6774 0.1957 0.02509 0.0
C1107 C 0.71016 0.17286 0.02627 0.0
C1108 C 0.74203 0.18626 0.03649 0.0
C1109 C 0.73929 0.21998 0.04702 0.0
C1110 C 0.64318 0.18315 1.01393 0.0
C1111 C 0.77758 0.16292 0.03814 0.0
C1112 C 0.69599 0.06714 0.02992 0.0
C1113 C 0.71065 0.05408 1.01253 0.0
C1114 C 0.69484 0.10569 0.03422 0.0
C1115 C 0.70818 0.13223 0.02066 0.0
C1116 C 0.72089 0.11944 1.00255 0.0
C1117 C 0.72212 0.08032 0.9987 0.0
C1118 C 0.68087 0.1178 0.0537 0.0
C1119 C 0.73472 0.14682 0.9876 0.0
H1120 H 0.64891 0.24468 0.03635 0.0
H1121 H 0.76267 0.22849 0.05604 0.0
H1122 H 0.65161 0.17011 1.00016 0.0
H1123 H 0.62757 0.16156 0.02228 0.0
H1124 H 0.62368 0.20707 1.01101 0.0
H1125 H 0.80161 0.17966 0.04383 0.0
H1126 H 0.7724 0.13885 0.04797 0.0
H1127 H 0.78568 0.15105 0.02407 0.0
H1128 H 0.68668 0.04685 0.04053 0.0
H1129 H 0.73357 0.07024 0.98527 0.0
H1130 H 0.65733 0.13827 0.05219 0.0
H1131 H 0.70394 0.13215 0.0616 0.0
H1132 H 0.67083 0.09359 0.06243 0.0
H1133 H 0.71557 0.17156 0.98655 0.0
H1134 H 0.73702 0.13335 0.97331 0.0
H1135 H 0.76303 0.15746 0.99173 0.0
C1136 C 0.05725 0.4865 0.79812 0.0
C1137 C 0.03748 0.45245 0.80003 0.0
C1138 C 0.09148 0.48802 0.7879 0.0
C1139 C 0.10563 0.45493 0.77896 0.0
C1140 C 0.08317 0.42183 0.77889 0.0
C1141 C 0.04979 0.42073 0.78978 0.0
C1142 C 0.11455 0.5238 0.78864 0.0
C1143 C 0.09619 0.3864 0.76889 0.0
C1144 C 0.19949 0.46486 0.75199 0.0
C1145 C 0.22534 0.45422 0.76621 0.0
C1146 C 0.16014 0.46377 0.75548 0.0
C1147 C 0.14659 0.45254 0.77372 0.0
C1148 C 0.17267 0.44013 0.78772 0.0
C1149 C 0.21138 0.44043 0.78365 0.0
C1150 C 0.1333 0.47589 0.73991 0.0
C1151 C 0.15992 0.42799 0.80742 0.0
H1152 H 0.04809 0.51094 0.80623 0.0
H1153 H 0.03453 0.39434 0.79123 0.0
H1154 H 0.13864 0.51973 0.79859 0.0
H1155 H 0.12642 0.53051 0.77438 0.0
H1156 H 0.09763 0.54829 0.79367 0.0
H1157 H 0.07237 0.36662 0.76635 0.0
H1158 H 0.1097 0.39326 0.75501 0.0
H1159 H 0.11748 0.37175 0.77787 0.0
H1160 H 0.20997 0.47535 0.73844 0.0
H1161 H 0.23109 0.43106 0.79454 0.0
H1162 H 0.12302 0.50488 0.74291 0.0
H1163 H 0.1083 0.45703 0.73939 0.0
H1164 H 0.14719 0.47596 0.72568 0.0
H1165 H 0.14409 0.45128 0.8144 0.0
H1166 H 0.18396 0.41999 0.8168 0.0
H1167 H 0.14058 0.40348 0.80633 0.0
C1168 C 0.77478 0.95661 0.52053 0.0
C1169 C 0.80228 0.97725 0.51053 0.0
C1170 C 0.78168 0.91958 0.52663 0.0
C1171 C 0.81645 0.90204 0.522 0.0
C1172 C 0.84228 0.92095 0.50983 0.0
C1173 C 0.83516 0.95863 0.50443 0.0
C1174 C 0.75323 0.90075 0.53961 0.0
C1175 C 0.87867 0.90243 0.50367 0.0
C1176 C 0.85145 0.8415 0.56276 0.0
C1177 C 0.836 0.80611 0.55829 0.0
C1178 C 0.84719 0.87241 0.55047 0.0
C1179 C 0.82812 0.86769 0.53286 0.0
C1180 C 0.81578 0.83118 0.52737 0.0
C1181 C 0.81928 0.80085 0.54031 0.0
C1182 C 0.86039 0.9108 0.55715 0.0
C1183 C 0.79699 0.82443 0.50834 0.0
H1184 H 0.74865 0.97036 0.52468 0.0
H1185 H 0.85637 0.97411 0.49647 0.0
H1186 H 0.74633 0.87211 0.53429 0.0
H1187 H 0.76549 0.89754 0.55412 0.0
H1188 H 0.72659 0.9172 0.54081 0.0
H1189 H 0.89059 0.91624 0.49075 0.0
H1190 H 0.89978 0.90467 0.51533 0.0
H1191 H 0.87427 0.87198 0.50065 0.0
H1192 H 0.86488 0.84586 0.5765 0.0
H1193 H 0.80775 0.77347 0.5366 0.0
H1194 H 0.83564 0.9297 0.5591 0.0
H1195 H 0.879 0.92393 0.54628 0.0
H1196 H 0.87608 0.90936 0.57088 0.0
H1197 H 0.76638 0.83071 0.50954 0.0
H1198 H 0.80003 0.79452 0.50379 0.0
H1199 H 0.80898 0.84299 0.49708 0.0
C1200 C 0.32025 0.5367 0.2398 0.0
C1201 C 0.29736 0.55228 0.25411 0.0
C1202 C 0.35996 0.53739 0.24153 0.0
C1203 C 0.37669 0.55334 0.25809 0.0
C1204 C 0.35354 0.57181 0.2717 0.0
C1205 C 0.3143 0.57143 0.26939 0.0
C1206 C 0.38368 0.51884 0.2263 0.0
C1207 C 0.36983 0.58917 0.28962 0.0
C1208 C 0.46165 0.51281 0.28335 0.0
C1209 C 0.48699 0.54322 0.28245 0.0
C1210 C 0.42669 0.51426 0.27395 0.0
C1211 C 0.41715 0.54649 0.26295 0.0
C1212 C 0.44449 0.57512 0.26009 0.0
C1213 C 0.47895 0.57342 0.27009 0.0
C1214 C 0.39844 0.48309 0.27753 0.0
C1215 C 0.43618 0.60911 0.24778 0.0
H1216 H 0.3072 0.52207 0.22791 0.0
H1217 H 0.29654 0.58405 0.28029 0.0
H1218 H 0.4106 0.53431 0.22411 0.0
H1219 H 0.39075 0.48963 0.23078 0.0
H1220 H 0.36831 0.51729 0.21248 0.0
H1221 H 0.34809 0.60404 0.29826 0.0
H1222 H 0.38272 0.56674 0.2986 0.0
H1223 H 0.39241 0.60959 0.28596 0.0
H1224 H 0.46767 0.48909 0.29266 0.0
H1225 H 0.49861 0.59679 0.26902 0.0
H1226 H 0.38556 0.47361 0.26393 0.0
H1227 H 0.37534 0.49391 0.28676 0.0
H1228 H 0.41146 0.45828 0.2847 0.0
H1229 H 0.41938 0.60107 0.23503 0.0
H1230 H 0.46258 0.6232 0.24302 0.0
H1231 H 0.4194 0.62985 0.2561 0.0
C1232 C 0.80711 0.44529 0.538 0.0
C1233 C 0.81905 0.46876 0.52304 0.0
C1234 C 0.8076 0.40567 0.53593 0.0
C1235 C 0.81976 0.38954 0.51843 0.0
C1236 C 0.83463 0.41322 0.50395 0.0
C1237 C 0.83443 0.45239 0.50654 0.0
C1238 C 0.79286 0.38136 0.55198 0.0
C1239 C 0.84798 0.3975 0.48504 0.0
C1240 C 0.83819 0.28718 0.50563 0.0
C1241 C 0.80548 0.27864 0.49514 0.0
C1242 C 0.84188 0.32197 0.51517 0.0
C1243 C 0.81251 0.34904 0.51384 0.0
C1244 C 0.77816 0.3391 0.50477 0.0
C1245 C 0.77494 0.30392 0.49572 0.0
C1246 C 0.87842 0.33082 0.5253 0.0
C1247 C 0.74607 0.36702 0.5029 0.0
H1248 H 0.7954 0.45786 0.55083 0.0
H1249 H 0.84438 0.47053 0.49511 0.0
H1250 H 0.76331 0.37302 0.54886 0.0
H1251 H 0.80981 0.35513 0.5534 0.0
H1252 H 0.79316 0.39668 0.56583 0.0
H1253 H 0.86068 0.41954 0.47575 0.0
H1254 H 0.86923 0.37494 0.48736 0.0
H1255 H 0.82376 0.3847 0.47733 0.0
H1256 H 0.86181 0.26767 0.50552 0.0
H1257 H 0.74932 0.29749 0.48789 0.0
H1258 H 0.87324 0.34783 0.53836 0.0
H1259 H 0.89688 0.34757 0.5157 0.0
H1260 H 0.89384 0.30466 0.52933 0.0
H1261 H 0.73952 0.38 0.51692 0.0
H1262 H 0.71997 0.35371 0.49722 0.0
H1263 H 0.75454 0.3901 0.49305 0.0
C1264 C 0.30736 0.0754 0.74838 0.0
C1265 C 0.29421 0.06559 0.76664 0.0
C1266 C 0.34599 0.07803 0.74441 0.0
C1267 C 0.37255 0.07208 0.75924 0.0
C1268 C 0.35955 0.06493 0.77807 0.0
C1269 C 0.32042 0.0614 0.78154 0.0
C1270 C 0.35829 0.08564 0.72407 0.0
C1271 C 0.38687 0.05968 0.79439 0.0
C1272 C 0.46479 0.03892 0.73781 0.0
C1273 C 0.48198 0.07357 0.73359 0.0
C1274 C 0.43047 0.03756 0.74789 0.0
C1275 C 0.41359 0.0716 0.75432 0.0
C1276 C 0.43336 0.10608 0.75212 0.0
C1277 C 0.46699 0.10677 0.74145 0.0
C1278 C 0.41027 1.0002 0.74966 0.0
C1279 C 0.41724 0.1428 0.75942 0.0
H1280 H 0.28725 0.0799 0.73692 0.0
H1281 H 0.31049 0.05404 0.79571 0.0
H1282 H 0.37566 0.11166 0.72345 0.0
H1283 H 0.37606 0.06198 0.71882 0.0
H1284 H 0.33397 0.0891 0.71419 0.0
H1285 H 0.37259 0.06213 0.80847 0.0
H1286 H 0.3999 0.03124 0.79344 0.0
H1287 H 0.41 0.08077 0.79365 0.0
H1288 H 0.47615 0.01319 0.73167 0.0
H1289 H 0.48041 0.1336 0.73834 0.0
H1290 H 0.3863 0.99953 0.73944 0.0
H1291 H 0.39845 0.99661 0.76422 0.0
H1292 H 0.42921 0.97596 0.7465 0.0
H1293 H 0.39511 0.15298 0.74944 0.0
H1294 H 0.43931 0.16498 0.76055 0.0
H1295 H 0.40389 0.13884 0.77363 0.0
C1296 C 0.74119 0.71633 0.98179 0.0
C1297 C 0.70978 0.74034 0.98315 0.0
C1298 C 0.74255 0.68218 0.99203 0.0
C1299 C 0.71217 0.67224 1.00426 0.0
C1300 C 0.68266 0.69855 1.00737 0.0
C1301 C 0.68152 0.73205 0.99657 0.0
C1302 C 0.77448 0.65497 0.98812 0.0
C1303 C 0.65044 0.68983 0.02078 0.0
C1304 C 0.6875 0.56827 1.00228 0.0
C1305 C 0.70659 0.55366 0.01821 0.0
C1306 C 0.68801 0.60691 0.99808 0.0
C1307 C 0.7075 0.63203 1.01035 0.0
C1308 C 0.72437 0.61787 0.02732 0.0
C1309 C 0.72397 0.57864 0.031 0.0
C1310 C 0.66961 0.62042 0.97982 0.0
C1311 C 0.7445 0.64377 0.04103 0.0
H1312 H 0.7631 0.72244 0.97141 0.0
H1313 H 0.65732 0.75068 0.99783 0.0
H1314 H 0.78531 0.64271 1.00163 0.0
H1315 H 0.76387 0.63132 0.97921 0.0
H1316 H 0.79826 0.66871 0.98044 0.0
H1317 H 0.63469 0.71577 0.02484 0.0
H1318 H 0.63046 0.67022 1.01367 0.0
H1319 H 0.66089 0.67578 0.03393 0.0
H1320 H 0.6738 0.54895 0.99246 0.0
H1321 H 0.73885 0.5674 0.04328 0.0
H1322 H 0.69136 0.6325 0.97016 0.0
H1323 H 0.64887 0.64307 0.98294 0.0
H1324 H 0.65482 0.59734 0.97211 0.0
H1325 H 0.77251 0.65139 0.03508 0.0
H1326 H 0.74896 0.63014 0.05516 0.0
H1327 H 0.72837 0.67034 0.0431 0.0
C1328 C 0.08671 0.93644 0.21059 0.0
C1329 C 0.04927 0.94617 0.21507 0.0
C1330 C 0.11582 0.93963 0.22402 0.0
C1331 C 0.1075 0.95184 0.24281 0.0
C1332 C 0.06949 0.96015 0.2478 0.0
C1333 C 0.04084 0.95786 0.23375 0.0
C1334 C 0.15587 0.93115 0.21775 0.0
C1335 C 0.05905 0.9723 0.26776 0.0
C1336 C 0.19414 0.9295 0.2723 0.0
C1337 C 0.21487 0.96286 0.26976 0.0
C1338 C 0.15649 0.92688 0.26585 0.0
C1339 C 0.13967 0.95805 0.25635 0.0
C1340 C 0.15893 0.99308 0.25605 0.0
C1341 C 0.19611 0.99513 0.26295 0.0
C1342 C 0.13626 0.88955 0.26735 0.0
C1343 C 0.14232 0.02719 0.2462 0.0
H1344 H 0.09377 0.92749 0.19622 0.0
H1345 H 0.01201 0.96529 0.23738 0.0
H1346 H 0.17387 0.9565 0.21975 0.0
H1347 H 0.16795 0.90819 0.22664 0.0
H1348 H 0.15756 0.92246 0.20253 0.0
H1349 H 0.02873 0.9669 0.27081 0.0
H1350 H 0.07647 0.95747 0.27861 0.0
H1351 H 0.06412 1.00305 0.2693 0.0
H1352 H 0.20829 0.9045 0.27768 0.0
H1353 H 0.21184 0.02119 0.26128 0.0
H1354 H 0.13859 0.8743 0.25355 0.0
H1355 H 0.10578 0.89387 0.27038 0.0
H1356 H 0.14868 0.87145 0.2787 0.0
H1357 H 0.1433 0.02288 0.23049 0.0
H1358 H 0.15809 0.05343 0.24965 0.0
H1359 H 0.11232 0.0311 0.25029 0.0
C1360 C 0.17304 0.72171 0.53492 0.0
C1361 C 0.20467 0.73372 0.54534 0.0
C1362 C 0.17388 0.68791 0.5244 0.0
C1363 C 0.20669 0.665 0.52487 0.0
C1364 C 0.23976 0.6788 0.53391 0.0
C1365 C 0.23847 0.71326 0.54383 0.0
C1366 C 0.13853 0.67511 0.51426 0.0
C1367 C 0.27527 0.65526 0.53498 0.0
C1368 C 0.19305 0.55965 0.53054 0.0
C1369 C 0.2078 0.54532 0.5134 0.0
C1370 C 0.19165 0.59847 0.53411 0.0
C1371 C 0.20408 0.62408 0.51991 0.0
C1372 C 0.21611 0.61003 0.50191 0.0
C1373 C 0.21818 0.57064 0.49891 0.0
C1374 C 0.17871 0.61185 0.55357 0.0
C1375 C 0.22833 0.63638 0.48616 0.0
H1376 H 0.14693 0.73767 0.53585 0.0
H1377 H 0.26304 0.72231 0.55186 0.0
H1378 H 0.14557 0.6611 0.50053 0.0
H1379 H 0.12341 0.65428 0.5233 0.0
H1380 H 0.11909 0.69911 0.51141 0.0
H1381 H 0.29983 0.67187 0.54017 0.0
H1382 H 0.27064 0.63129 0.54495 0.0
H1383 H 0.28229 0.64323 0.5208 0.0
H1384 H 0.18396 0.54021 0.5416 0.0
H1385 H 0.22935 0.55975 0.48558 0.0
H1386 H 0.15454 0.63156 0.55206 0.0
H1387 H 0.20191 0.62744 0.56074 0.0
H1388 H 0.16992 0.58816 0.56298 0.0
H1389 H 0.20957 0.66147 0.48542 0.0
H1390 H 0.22839 0.62207 0.47204 0.0
H1391 H 0.25739 0.64654 0.48909 0.0
C1392 C 0.68818 0.96418 0.24533 0.0
C1393 C 0.71254 0.94708 0.25855 0.0
C1394 C 0.64881 0.96526 0.24863 0.0
C1395 C 0.63381 0.94926 0.26562 0.0
C1396 C 0.65825 0.92987 0.2783 0.0
C1397 C 0.69709 0.92878 0.27452 0.0
C1398 C 0.62367 0.98529 0.23448 0.0
C1399 C 0.6438 0.91231 0.29659 0.0
C1400 C 0.54908 0.98729 0.29259 0.0
C1401 C 0.52359 0.95711 0.29105 0.0
C1402 C 0.58405 0.98658 0.28306 0.0
C1403 C 0.59354 0.95528 0.27137 0.0
C1404 C 0.56625 0.92674 0.26816 0.0
C1405 C 0.53177 0.92778 0.27819 0.0
C1406 C 0.61223 0.01758 0.28702 0.0
C1407 C 0.57461 0.8935 0.25537 0.0
H1408 H 0.70002 0.97841 0.23299 0.0
H1409 H 0.71587 0.91519 0.28466 0.0
H1410 H 0.59715 0.96925 0.23216 0.0
H1411 H 0.61582 0.01342 0.24021 0.0
H1412 H 0.63799 0.98944 0.22051 0.0
H1413 H 0.66628 0.89695 0.3045 0.0
H1414 H 0.63222 0.93467 0.30604 0.0
H1415 H 0.62055 0.89229 0.29346 0.0
H1416 H 0.54312 0.01017 0.30242 0.0
H1417 H 0.51211 0.90451 0.27672 0.0
H1418 H 0.62517 0.02772 0.27353 0.0
H1419 H 0.63533 1.00631 0.29612 0.0
H1420 H 0.59915 0.04199 0.29449 0.0
H1421 H 0.58977 0.90268 0.24229 0.0
H1422 H 0.54839 0.87844 0.25114 0.0
H1423 H 0.59313 0.87326 0.26305 0.0
C1424 C 0.27978 0.30745 0.03956 0.0
C1425 C 0.31432 0.28866 0.04203 0.0
C1426 C 0.27802 0.34215 0.02989 0.0
C1427 C 0.31146 0.35793 0.02213 0.0
C1428 C 0.34535 0.33667 0.02249 0.0
C1429 C 0.34654 0.3025 0.03269 0.0
C1430 C 0.24128 0.36384 0.02995 0.0
C1431 C 0.38125 0.35167 1.0137 0.0
C1432 C 0.29881 0.45293 0.99703 0.0
C1433 C 0.30574 0.47788 1.01218 0.0
C1434 C 0.30246 0.41357 0.9996 0.0
C1435 C 0.31267 0.39914 0.0178 0.0
C1436 C 0.32169 0.42449 0.03276 0.0
C1437 C 0.31864 0.46337 0.02966 0.0
C1438 C 0.29378 0.38757 0.98313 0.0
C1439 C 0.33274 0.41062 0.05242 0.0
H1440 H 0.2547 0.2969 0.04667 0.0
H1441 H 0.37323 0.28779 0.0343 0.0
H1442 H 0.24327 0.38743 0.04035 0.0
H1443 H 0.23564 0.37631 0.0157 0.0
H1444 H 0.21695 0.34575 0.03404 0.0
H1445 H 0.40214 0.32877 1.01119 0.0
H1446 H 0.37531 0.36612 0.99994 0.0
H1447 H 0.39417 0.37265 0.02348 0.0
H1448 H 0.28907 0.46401 0.98345 0.0
H1449 H 0.32509 0.48262 0.04125 0.0
H1450 H 0.26492 0.37591 0.98487 0.0
H1451 H 0.31379 0.36343 0.98276 0.0
H1452 H 0.29501 0.40264 0.96922 0.0
H1453 H 0.30945 0.39355 0.0586 0.0
H1454 H 0.33913 0.43415 0.0624 0.0
H1455 H 0.35799 0.39216 0.05148 0.0
C1456 C 0.9823 0.08106 0.78316 0.0
C1457 C 0.98901 0.05399 0.79741 0.0
C1458 C 0.9501 0.07898 0.77143 0.0
C1459 C 0.92332 0.04993 0.77451 0.0
C1460 C 0.93173 0.02072 0.78774 0.0
C1461 C 0.96476 0.02285 0.79885 0.0
C1462 C 0.94316 0.10977 0.75694 0.0
C1463 C 0.9039 0.98939 0.79171 0.0
C1464 C 0.81927 0.07448 0.77316 0.0
C1465 C 0.8062 0.05281 0.75777 0.0
C1466 C 0.85754 0.07502 0.77816 0.0
C1467 C 0.88387 0.05411 0.76718 0.0
C1468 C 0.87136 0.03495 0.75053 0.0
C1469 C 0.83243 0.03414 0.74611 0.0
C1470 C 0.8692 0.09572 0.7961 0.0
C1471 C 0.89861 0.01348 0.73803 0.0
H1472 H 1.00115 0.10506 0.78189 0.0
H1473 H 0.96964 1.00194 0.8099 0.0
H1474 H 0.93038 0.09805 0.74374 0.0
H1475 H 0.92309 0.13072 0.76293 0.0
H1476 H 0.9697 0.12475 0.75315 0.0
H1477 H 0.91642 0.96661 0.80062 0.0
H1478 H 0.87906 1.00112 0.79937 0.0
H1479 H 0.89357 0.97689 0.77817 0.0
H1480 H 0.79893 0.08901 0.78214 0.0
H1481 H 0.82237 0.01722 0.73426 0.0
H1482 H 0.89213 0.11607 0.79289 0.0
H1483 H 0.88033 0.07525 0.80673 0.0
H1484 H 0.84536 0.1114 0.80272 0.0
H1485 H 0.92562 0.02906 0.73645 0.0
H1486 H 0.88658 1.00815 0.72362 0.0
H1487 H 0.90506 0.98582 0.74472 0.0
C1488 C 0.23113 0.10564 0.98372 0.0
C1489 C 0.26327 0.08283 0.98572 0.0
C1490 C 0.21466 0.11166 0.96557 0.0
C1491 C 0.23048 0.09411 0.94914 0.0
C1492 C 0.26455 0.07349 0.95102 0.0
C1493 C 0.28063 0.0685 0.96918 0.0
C1494 C 0.17889 0.13467 0.96416 0.0
C1495 C 0.28237 0.0538 0.93413 0.0
C1496 C 0.16384 0.06001 0.91008 0.0
C1497 C 0.17145 0.08496 0.89499 0.0
C1498 C 0.18259 0.06301 0.9277 0.0
C1499 C 0.20903 0.09246 0.93066 0.0
C1500 C 0.2164 0.11827 0.91557 0.0
C1501 C 0.19796 0.11385 0.89779 0.0
C1502 C 0.17462 0.03402 0.94302 0.0
C1503 C 0.24368 0.15053 0.91824 0.0
H1504 H 0.21757 0.1168 0.99641 0.0
H1505 H 0.30578 0.0512 0.97061 0.0
H1506 H 0.18002 0.15388 0.95164 0.0
H1507 H 0.15446 0.1155 0.96211 0.0
H1508 H 0.1739 0.15168 0.97726 0.0
H1509 H 0.31082 0.04237 0.93755 0.0
H1510 H 0.26406 0.03001 0.92958 0.0
H1511 H 0.28494 0.07335 0.92182 0.0
H1512 H 0.14359 0.03743 0.90798 0.0
H1513 H 0.20366 0.13344 0.88624 0.0
H1514 H 0.16424 0.04816 0.95615 0.0
H1515 H 0.20106 0.0189 0.94681 0.0
H1516 H 0.15329 0.01286 0.93846 0.0
H1517 H 0.23553 0.16737 0.93096 0.0
H1518 H 0.24463 0.16948 0.90559 0.0
H1519 H 0.2725 0.1394 0.92089 0.0
C1520 C 0.6577 0.45657 0.14573 0.0
C1521 C 0.68416 0.4274 0.14335 0.0
C1522 C 0.65301 0.47457 0.16364 0.0
C1523 C 0.67597 0.46383 0.17938 0.0
C1524 C 0.70304 0.43474 0.17686 0.0
C1525 C 0.70645 0.41674 0.15905 0.0
C1526 C 0.62338 0.50492 0.16575 0.0
C1527 C 0.72898 0.4229 0.19293 0.0
C1528 C 0.70126 0.52941 0.22043 0.0
C1529 C 0.68285 0.51235 0.236 0.0
C1530 C 0.6973 0.51548 0.20174 0.0
C1531 C 0.67371 0.48395 0.19828 0.0
C1532 C 0.65231 0.46877 0.21366 0.0
C1533 C 0.65727 0.48301 0.23238 0.0
C1534 C 0.72108 0.53252 0.18603 0.0
C1535 C 0.62618 0.43572 0.21061 0.0
H1536 H 0.64014 0.46477 0.13374 0.0
H1537 H 0.72719 0.39444 0.15735 0.0
H1538 H 0.6038 0.49755 0.17756 0.0
H1539 H 0.63694 0.53211 0.16957 0.0
H1540 H 0.60672 0.50898 0.15246 0.0
H1541 H 0.7486 0.3999 0.18865 0.0
H1542 H 0.74599 0.44742 0.19776 0.0
H1543 H 0.71213 0.4131 0.20534 0.0
H1544 H 0.72087 0.55233 0.2231 0.0
H1545 H 0.64304 0.46959 0.2443 0.0
H1546 H 0.7038 0.53779 0.17309 0.0
H1547 H 0.74376 0.51237 0.182 0.0
H1548 H 0.73446 0.55949 0.19048 0.0
H1549 H 0.609 0.43984 0.19751 0.0
H1550 H 0.60692 0.43142 0.22296 0.0
H1551 H 0.64313 0.40964 0.20862 0.0
C1552 C 0.31112 0.89818 0.39717 0.0
C1553 C 0.3362 0.92756 0.3928 0.0
C1554 C 0.29338 0.8962 0.41524 0.0
C1555 C 0.29994 0.92495 0.42898 0.0
C1556 C 0.32451 0.9552 0.42429 0.0
C1557 C 0.34279 0.95571 0.40645 0.0
C1558 C 0.26812 0.86309 0.41975 0.0
C1559 C 0.33134 0.9873 0.43806 0.0
C1560 C 0.2298 0.94903 0.46832 0.0
C1561 C 0.24938 0.93799 0.48489 0.0
C1562 C 0.24488 0.94304 0.45 0.0
C1563 C 0.28022 0.92471 0.448 0.0
C1564 C 0.29847 0.91035 0.46458 0.0
C1565 C 0.28296 0.91736 0.48286 0.0
C1566 C 0.22446 0.95935 0.43293 0.0
C1567 C 0.33572 0.88984 0.46312 0.0
H1568 H 0.30639 0.87612 0.38671 0.0
H1569 H 0.3621 0.97853 0.40305 0.0
H1570 H 0.2788 0.84815 0.4326 0.0
H1571 H 0.23918 0.87311 0.4231 0.0
H1572 H 0.2665 0.84267 0.40773 0.0
H1573 H 0.35049 0.00914 0.43206 0.0
H1574 H 0.30411 1.00096 0.44184 0.0
H1575 H 0.3439 0.97631 0.45148 0.0
H1576 H 0.20369 0.96483 0.46978 0.0
H1577 H 0.29837 0.90893 0.49555 0.0
H1578 H 0.22255 0.93826 0.42127 0.0
H1579 H 0.24059 0.98385 0.42733 0.0
H1580 H 0.19548 0.96902 0.43658 0.0
H1581 H 0.33486 0.8687 0.45143 0.0
H1582 H 0.34322 0.87533 0.47667 0.0
H1583 H 0.3584 0.91034 0.45965 0.0
C1584 C 0.83426 0.59041 0.65787 0.0
C1585 C 0.86071 0.58366 0.64333 0.0
C1586 C 0.83463 0.56972 0.67495 0.0
C1587 C 0.86282 0.54193 0.67795 0.0
C1588 C 0.89002 0.53517 0.66341 0.0
C1589 C 0.8883 0.55576 0.6461 0.0
C1590 C 0.80423 0.57722 0.68964 0.0
C1591 C 0.92092 0.50635 0.66621 0.0
C1592 C 0.86746 0.51651 0.73081 0.0
C1593 C 0.84232 0.486 0.73153 0.0
C1594 C 0.87748 0.53304 0.71315 0.0
C1595 C 0.86168 0.51891 0.69592 0.0
C1596 C 0.83898 0.48605 0.69657 0.0
C1597 C 0.82988 0.46991 0.7143 0.0
C1598 C 0.90246 0.56751 0.7131 0.0
C1599 C 0.82107 0.47004 0.67875 0.0
H1600 H 0.81251 0.61159 0.65574 0.0
H1601 H 0.90892 0.55061 0.63495 0.0
H1602 H 0.78789 0.55102 0.69234 0.0
H1603 H 0.81722 0.58585 0.70338 0.0
H1604 H 0.78425 0.59969 0.68505 0.0
H1605 H 0.94082 0.50549 0.65394 0.0
H1606 H 0.93703 0.51287 0.6794 0.0
H1607 H 0.90845 0.47787 0.66811 0.0
H1608 H 0.87721 0.52903 0.74405 0.0
H1609 H 0.81079 0.44598 0.71478 0.0
H1610 H 0.88484 0.5931 0.71098 0.0
H1611 H 0.92305 0.5662 0.70116 0.0
H1612 H 0.91812 0.5706 0.72676 0.0
H1613 H 0.79818 0.48921 0.67388 0.0
H1614 H 0.80873 0.44163 0.68125 0.0
H1615 H 0.842 0.46799 0.66701 0.0
C1616 C 0.7939 0.95081 0.04866 0.0
C1617 C 0.75801 0.93835 0.04291 0.0
C1618 C 0.80656 0.94605 0.06755 0.0
C1619 C 0.78283 0.92824 0.08115 0.0
C1620 C 0.74798 0.91259 0.07498 0.0
C1621 C 0.73593 0.91791 0.05594 0.0
C1622 C 0.84392 0.96313 0.07331 0.0
C1623 C 0.72197 0.89298 0.08887 0.0
C1624 C 0.8258 0.90755 0.13034 0.0
C1625 C 0.81422 0.93925 0.1409 0.0
C1626 C 0.81491 0.90285 0.11107 0.0
C1627 C 0.79228 0.93069 0.10203 0.0
C1628 C 0.78014 0.96245 0.11274 0.0
C1629 C 0.79108 0.96623 0.13197 0.0
C1630 C 0.82824 0.86846 0.10027 0.0
C1631 C 0.75641 0.99317 0.10375 0.0
H1632 H 0.81095 0.96685 0.03867 0.0
H1633 H 0.70797 0.90869 0.05168 0.0
H1634 H 0.83877 0.98852 0.08223 0.0
H1635 H 0.86055 0.94292 0.08202 0.0
H1636 H 0.86106 0.97164 0.06072 0.0
H1637 H 0.69923 0.87716 0.08143 0.0
H1638 H 0.73802 0.87313 0.09808 0.0
H1639 H 0.70865 0.91429 0.09834 0.0
H1640 H 0.84363 0.88651 0.13707 0.0
H1641 H 0.78211 0.99097 0.13988 0.0
H1642 H 0.84765 0.87717 0.08863 0.0
H1643 H 0.8039 0.85398 0.09351 0.0
H1644 H 0.84325 0.84805 0.10965 0.0
H1645 H 0.77262 1.00709 0.09215 0.0
H1646 H 0.7477 0.01506 0.11423 0.0
H1647 H 0.73064 0.98088 0.09723 0.0
C1648 C 0.36486 0.52242 0.80033 0.0
C1649 C 0.34324 0.48943 0.79886 0.0
C1650 C 0.37247 0.53876 0.81835 0.0
C1651 C 0.35778 0.52188 0.83522 0.0
C1652 C 0.33869 0.48688 0.8338 0.0
C1653 C 0.3319 0.47107 0.81571 0.0
C1654 C 0.39362 0.57566 0.81918 0.0
C1655 C 0.32208 0.46785 0.85119 0.0
C1656 C 0.38125 0.5586 0.88555 0.0
C1657 C 0.35138 0.5839 0.88867 0.0
C1658 C 0.3844 0.53871 0.86807 0.0
C1659 C 0.35648 0.54352 0.85368 0.0
C1660 C 0.3258 0.56832 0.85713 0.0
C1661 C 0.32395 0.58842 0.87438 0.0
C1662 C 0.41783 0.51306 0.86487 0.0
C1663 C 0.29461 0.57359 0.84263 0.0
H1664 H 0.37353 0.53685 0.78739 0.0
H1665 H 0.31523 0.44547 0.81465 0.0
H1666 H 0.37337 0.59902 0.82182 0.0
H1667 H 0.41422 0.57551 0.83113 0.0
H1668 H 0.40887 0.58159 0.80563 0.0
H1669 H 0.31287 0.43849 0.8481 0.0
H1670 H 0.3428 0.46719 0.86306 0.0
H1671 H 0.29718 0.48417 0.85617 0.0
H1672 H 0.40268 0.55528 0.89648 0.0
H1673 H 0.30058 0.60767 0.87678 0.0
H1674 H 0.43391 0.52268 0.85216 0.0
H1675 H 0.40807 0.4839 0.86189 0.0
H1676 H 0.43716 0.5124 0.87737 0.0
H1677 H 0.30647 0.58477 0.82909 0.0
H1678 H 0.2723 0.59328 0.84769 0.0
H1679 H 0.28126 0.54599 0.83936 0.0
C1680 C 0.72586 0.09505 0.63254 0.0
C1681 C 0.69883 0.12235 0.63753 0.0
C1682 C 0.74076 0.0932 0.61384 0.0
C1683 C 0.72885 0.11959 0.59978 0.0
C1684 C 0.70337 0.14861 0.60511 0.0
C1685 C 0.6885 0.14944 0.62379 0.0
C1686 C 0.76759 0.06156 0.60885 0.0
C1687 C 0.69023 0.17771 0.59081 0.0
C1688 C 0.7846 0.12104 0.55266 0.0
C1689 C 0.76298 0.09669 0.54127 0.0
C1690 C 0.77322 0.13011 0.57149 0.0
C1691 C 0.73962 0.11419 0.57915 0.0
C1692 C 0.71678 0.09128 0.56723 0.0
C1693 C 0.72866 0.08297 0.54853 0.0
C1694 C 0.79816 0.15509 0.58352 0.0
C1695 C 0.68073 0.07369 0.57458 0.0
H1696 H 0.73387 0.07381 0.64294 0.0
H1697 H 0.66777 0.1708 0.62748 0.0
H1698 H 0.75367 0.04194 0.59869 0.0
H1699 H 0.79309 0.07293 0.60166 0.0
H1700 H 0.77655 0.04524 0.62164 0.0
H1701 H 0.67446 0.20116 0.5977 0.0
H1702 H 0.71466 0.18965 0.58292 0.0
H1703 H 0.67145 0.16411 0.58015 0.0
H1704 H 0.81145 0.13119 0.54727 0.0
H1705 H 0.71204 0.06382 0.53985 0.0
H1706 H 0.81188 0.13792 0.59483 0.0
H1707 H 0.78111 0.17718 0.59075 0.0
H1708 H 0.82056 0.16898 0.5749 0.0
H1709 H 0.68739 0.05373 0.58634 0.0
H1710 H 0.66524 0.0581 0.56326 0.0
H1711 H 0.66181 0.09574 0.5805 0.0
C1712 C 0.16214 0.45299 0.38442 0.0
C1713 C 0.18676 0.42229 0.38681 0.0
C1714 C 0.15898 0.47155 0.3666 0.0
C1715 C 0.18191 0.45995 0.35101 0.0
C1716 C 0.20721 0.4293 0.35356 0.0
C1717 C 0.20885 0.41058 0.37125 0.0
C1718 C 0.13103 0.50345 0.36441 0.0
C1719 C 0.23325 0.4167 0.33769 0.0
C1720 C 0.16537 0.48416 0.2983 0.0
C1721 C 0.19183 0.51308 0.29545 0.0
C1722 C 0.15989 0.46813 0.31661 0.0
C1723 C 0.18166 0.48103 0.33237 0.0
C1724 C 0.20655 0.51185 0.32973 0.0
C1725 C 0.21089 0.5277 0.31146 0.0
C1726 C 0.13234 0.43597 0.31886 0.0
C1727 C 0.23077 0.52643 0.34589 0.0
H1728 H 0.14473 0.46191 0.39634 0.0
H1729 H 0.22816 0.38705 0.37305 0.0
H1730 H 0.14618 0.53013 0.36124 0.0
H1731 H 0.11195 0.49775 0.35217 0.0
H1732 H 0.11367 0.50759 0.37747 0.0
H1733 H 0.25126 0.39239 0.34195 0.0
H1734 H 0.21654 0.4085 0.32495 0.0
H1735 H 0.25191 0.44041 0.33339 0.0
H1736 H 0.15044 0.47273 0.28609 0.0
H1737 H 0.2308 0.55064 0.30951 0.0
H1738 H 0.11463 0.44016 0.33177 0.0
H1739 H 0.14812 0.40916 0.32078 0.0
H1740 H 0.11361 0.43305 0.30621 0.0
H1741 H 0.21323 0.5325 0.35865 0.0
H1742 H 0.24638 0.55248 0.34191 0.0
H1743 H 0.25163 0.50447 0.35002 0.0
C1744 C 0.72343 0.58068 0.3966 0.0
C1745 C 0.6941 0.60654 0.39326 0.0
C1746 C 0.74068 0.57789 0.41472 0.0
C1747 C 0.72853 0.60166 0.42986 0.0
C1748 C 0.7005 0.62928 0.4262 0.0
C1749 C 0.68361 0.63129 0.40804 0.0
C1750 C 0.77046 0.54803 0.41794 0.0
C1751 C 0.68676 0.65539 0.44178 0.0
C1752 C 0.73644 0.56128 0.48017 0.0
C1753 C 0.76939 0.5785 0.48714 0.0
C1754 C 0.72264 0.56914 0.46178 0.0
C1755 C 0.74212 0.59501 0.44989 0.0
C1756 C 0.77452 0.61377 0.45712 0.0
C1757 C 0.78775 0.60533 0.47567 0.0
C1758 C 0.68777 0.54875 0.45485 0.0
C1759 C 0.79601 0.64168 0.44499 0.0
H1760 H 0.73165 0.56133 0.38535 0.0
H1761 H 0.66115 0.65157 0.40561 0.0
H1762 H 0.79562 0.56051 0.42496 0.0
H1763 H 0.7592 0.52595 0.42765 0.0
H1764 H 0.77943 0.53434 0.4044 0.0
H1765 H 0.66805 0.67802 0.43616 0.0
H1766 H 0.67077 0.6389 0.45257 0.0
H1767 H 0.711 0.66867 0.44923 0.0
H1768 H 0.722 0.54067 0.489 0.0
H1769 H 0.81345 0.61841 0.48086 0.0
H1770 H 0.69496 0.531 0.4423 0.0
H1771 H 0.6661 0.56943 0.45017 0.0
H1772 H 0.67524 0.53036 0.46604 0.0
H1773 H 0.80873 0.62686 0.43259 0.0
H1774 H 0.81889 0.65591 0.45311 0.0
H1775 H 0.77657 0.66348 0.43924 0.0
C1776 C 0.17719 0.97221 0.6479 0.0
C1777 C 0.15172 0.94321 0.6434 0.0
C1778 C 0.17873 0.98764 0.66644 0.0
C1779 C 0.15388 0.97416 0.68082 0.0
C1780 C 0.12654 0.94659 0.67601 0.0
C1781 C 0.12597 0.93129 0.65744 0.0
C1782 C 0.2085 0.01682 0.67092 0.0
C1783 C 0.09911 0.93179 0.69072 0.0
C1784 C 0.19342 0.97888 0.73131 0.0
C1785 C 0.17798 0.01274 0.73824 0.0
C1786 C 0.18462 0.96535 0.71299 0.0
C1787 C 0.15935 0.98592 0.70122 0.0
C1788 C 0.14151 0.01868 0.70865 0.0
C1789 C 0.15112 0.03179 0.72707 0.0
C1790 C 0.20424 0.93021 0.70581 0.0
C1791 C 0.11393 0.0411 0.69675 0.0
H1792 H 0.19731 0.98153 0.63722 0.0
H1793 H 0.10599 0.90907 0.6541 0.0
H1794 H 0.19553 0.04165 0.67802 0.0
H1795 H 0.22948 1.00468 0.68098 0.0
H1796 H 0.22363 0.02655 0.65791 0.0
H1797 H 0.07651 0.9143 0.68419 0.0
H1798 H 0.11451 0.91422 0.7013 0.0
H1799 H 0.08582 0.95547 0.69863 0.0
H1800 H 0.2141 0.96397 0.73992 0.0
H1801 H 0.13937 0.05816 0.73223 0.0
H1802 H 0.22318 0.93764 0.69374 0.0
H1803 H 0.18324 0.90965 0.70035 0.0
H1804 H 0.22136 0.91626 0.7171 0.0
H1805 H 0.12935 0.05573 0.6851 0.0
H1806 H 0.09872 0.06264 0.70536 0.0
H1807 H 0.09292 0.02212 0.68997 0.0
C1808 C 0.77131 0.4143 0.98053 0.0
C1809 C 0.74122 0.43985 0.98227 0.0
C1810 C 0.78829 0.40733 0.96256 0.0
C1811 C 0.77526 0.42682 0.94605 0.0
C1812 C 0.74309 0.4504 0.94762 0.0
C1813 C 0.72626 0.45611 0.96556 0.0
C1814 C 0.82176 0.38105 0.96148 0.0
C1815 C 0.72837 0.47239 0.93067 0.0
C1816 C 0.84731 0.45551 0.90821 0.0
C1817 C 0.83812 0.43206 0.89274 0.0
C1818 C 0.82732 0.45374 0.92554 0.0
C1819 C 0.7979 0.42699 0.92786 0.0
C1820 C 0.7889 0.40264 0.91239 0.0
C1821 C 0.80868 0.40589 0.8949 0.0
C1822 C 0.83722 0.48124 0.94126 0.0
C1823 C 0.75845 0.37312 0.91436 0.0
H1824 H 0.78306 0.4016 0.99331 0.0
H1825 H 0.70265 0.47552 0.96674 0.0
H1826 H 0.81965 0.36255 0.94874 0.0
H1827 H 0.84805 0.39784 0.96006 0.0
H1828 H 0.82418 0.36312 0.97446 0.0
H1829 H 0.70098 0.48646 0.93378 0.0
H1830 H 0.74922 0.49441 0.92665 0.0
H1831 H 0.72466 0.45366 0.91813 0.0
H1832 H 0.86981 0.47603 0.90662 0.0
H1833 H 0.80168 0.38744 0.88307 0.0
H1834 H 0.84547 0.46567 0.95437 0.0
H1835 H 0.81216 0.4987 0.94486 0.0
H1836 H 0.86074 0.50038 0.93719 0.0
H1837 H 0.76406 0.35523 0.92708 0.0
H1838 H 0.75653 0.3547 0.90156 0.0
H1839 H 0.73068 0.38693 0.91661 0.0
C1840 C 0.36149 1.00538 0.23002 0.0
C1841 C 0.33097 0.98035 0.23162 0.0
C1842 C 0.37109 0.0216 0.21221 0.0
C1843 C 0.3493 0.01301 0.19572 0.0
C1844 C 0.32053 0.9854 0.19707 0.0
C1845 C 0.31217 0.9691 0.21487 0.0
C1846 C 0.40276 0.04999 0.21133 0.0
C1847 C 0.29603 0.97556 0.18012 0.0
C1848 C 0.33027 0.09191 0.16008 0.0
C1849 C 0.35086 0.08052 0.14393 0.0
C1850 C 0.33008 0.07045 0.17694 0.0
C1851 C 0.35191 0.03699 0.17807 0.0
C1852 C 0.37362 0.02569 0.16198 0.0
C1853 C 0.37234 0.04726 0.14495 0.0
C1854 C 0.30548 0.08318 0.19338 0.0
C1855 C 0.39807 0.99082 0.16275 0.0
H1856 H 0.37633 0.01411 0.24282 0.0
H1857 H 0.28907 0.9491 0.21589 0.0
H1858 H 0.41997 0.04584 0.19825 0.0
H1859 H 0.39074 0.07891 0.21075 0.0
H1860 H 0.42148 0.04806 0.22404 0.0
H1861 H 0.27785 0.95061 0.18293 0.0
H1862 H 0.27751 0.99994 0.17665 0.0
H1863 H 0.3136 0.96974 0.16734 0.0
H1864 H 0.31324 0.11734 0.15939 0.0
H1865 H 0.3885 0.03842 0.13258 0.0
H1866 H 0.32295 0.08754 0.20635 0.0
H1867 H 0.2844 0.06098 0.19678 0.0
H1868 H 0.29015 0.10984 0.19021 0.0
H1869 H 0.4169 0.99197 0.17541 0.0
H1870 H 0.41567 0.98756 0.14971 0.0
H1871 H 0.3801 0.96536 0.16432 0.0
C1872 C 0.27781 0.40773 0.54968 0.0
C1873 C 0.2457 0.43065 0.54793 0.0
C1874 C 0.29459 0.40133 0.56774 0.0
C1875 C 0.27923 0.41879 0.58431 0.0
C1876 C 0.2451 0.43941 0.58268 0.0
C1877 C 0.22861 0.44461 0.56463 0.0
C1878 C 0.33028 0.37817 0.56887 0.0
C1879 C 0.22782 0.45917 0.5997 0.0
C1880 C 0.31387 0.39936 0.63538 0.0
C1881 C 0.34084 0.42797 0.63776 0.0
C1882 C 0.29451 0.39498 0.61784 0.0
C1883 C 0.30135 0.42059 0.60261 0.0
C1884 C 0.32811 0.4499 0.6052 0.0
C1885 C 0.34786 0.45279 0.62255 0.0
C1886 C 0.26701 0.36278 0.61554 0.0
C1887 C 0.33553 0.47877 0.58974 0.0
H1888 H 0.29122 0.3969 0.53688 0.0
H1889 H 0.20358 0.46214 0.56337 0.0
H1890 H 0.3549 0.39726 0.57056 0.0
H1891 H 0.32959 0.35918 0.58148 0.0
H1892 H 0.33462 0.36093 0.5558 0.0
H1893 H 0.19916 0.47036 0.59653 0.0
H1894 H 0.22587 0.43977 0.61209 0.0
H1895 H 0.24614 0.48314 0.60397 0.0
H1896 H 0.3087 0.37984 0.64702 0.0
H1897 H 0.36852 0.4751 0.62435 0.0
H1898 H 0.27496 0.34549 0.60294 0.0
H1899 H 0.23821 0.37394 0.61287 0.0
H1900 H 0.26613 0.34425 0.62835 0.0
H1901 H 0.34575 0.46453 0.57661 0.0
H1902 H 0.3568 0.50013 0.59412 0.0
H1903 H 0.3089 0.49365 0.58604 0.0
C1904 C 0.8267 0.09279 0.3663 0.0
C1905 C 0.85001 0.08237 0.38162 0.0
C1906 C 0.82562 0.07161 0.34938 0.0
C1907 C 0.84939 0.03965 0.34736 0.0
C1908 C 0.87368 0.02935 0.36265 0.0
C1909 C 0.8732 0.05047 0.37978 0.0
C1910 C 0.79821 0.08298 0.33385 0.0
C1911 C 0.90014 0.99612 0.36088 0.0
C1912 C 0.81107 0.96936 0.3114 0.0
C1913 C 0.82761 0.98182 0.29425 0.0
C1914 C 0.81962 0.98639 0.32897 0.0
C1915 C 0.84638 0.01602 0.32966 0.0
C1916 C 0.86594 0.02626 0.31271 0.0
C1917 C 0.85614 0.00922 0.29515 0.0
C1918 C 0.79754 0.97476 0.34649 0.0
C1919 C 0.89544 0.05695 0.31288 0.0
H1920 H 0.80838 0.11719 0.36774 0.0
H1921 H 0.89143 0.04251 0.39156 0.0
H1922 H 0.81367 0.08875 0.32038 0.0
H1923 H 0.77826 0.0595 0.331 0.0
H1924 H 0.7816 0.10851 0.3377 0.0
H1925 H 0.91908 0.99336 0.37346 0.0
H1926 H 0.88369 0.96966 0.35937 0.0
H1927 H 0.91769 0.9991 0.34783 0.0
H1928 H 0.7897 0.94746 0.31094 0.0
H1929 H 0.86926 0.01889 0.28204 0.0
H1930 H 0.77802 0.99791 0.35062 0.0
H1931 H 0.81675 0.96973 0.35874 0.0
H1932 H 0.7806 0.94882 0.34402 0.0
H1933 H 0.88139 0.08486 0.31416 0.0
H1934 H 0.91268 0.05689 0.29962 0.0
H1935 H 0.91447 0.05367 0.32538 0.0
C1936 C 0.27386 0.61776 0.05586 0.0
C1937 C 0.2548 0.59082 0.04477 0.0
C1938 C 0.26142 0.62684 0.07449 0.0
C1939 C 0.22921 0.60851 0.08222 0.0
C1940 C 0.20883 0.58278 0.07066 0.0
C1941 C 0.22176 0.57441 0.05215 0.0
C1942 C 0.28375 0.65474 0.0862 0.0
C1943 C 0.17422 0.56269 0.07813 0.0
C1944 C 0.21508 0.59321 0.13583 0.0
C1945 C 0.18597 0.61888 0.13995 0.0
C1946 C 0.23072 0.59078 0.11732 0.0
C1947 C 0.21724 0.61481 0.10257 0.0
C1948 C 0.18949 0.64229 0.10699 0.0
C1949 C 0.17412 0.64386 0.12553 0.0
C1950 C 0.26016 0.56097 0.1133 0.0
C1951 C 0.1745 0.66878 0.09186 0.0
H1952 H 0.29963 0.63025 0.05038 0.0
H1953 H 0.20677 0.5537 0.04363 0.0
H1954 H 0.26468 0.67619 0.09258 0.0
H1955 H 0.2979 0.63977 0.09815 0.0
H1956 H 0.30562 0.66941 0.07757 0.0
H1957 H 0.16064 0.54474 0.06708 0.0
H1958 H 0.18212 0.54454 0.09043 0.0
H1959 H 0.15318 0.58351 0.08334 0.0
H1960 H 0.22436 0.57365 0.14678 0.0
H1961 H 0.15179 0.66396 0.12855 0.0
H1962 H 0.2848 0.57361 0.10589 0.0
H1963 H 0.24812 0.53921 0.10366 0.0
H1964 H 0.27014 0.54684 0.12655 0.0
H1965 H 0.19813 0.68204 0.0839 0.0
H1966 H 0.15649 0.69141 0.09803 0.0
H1967 H 0.15742 0.65261 0.0814 0.0
C1968 C 0.71308 0.91804 0.87142 0.0
C1969 C 0.68809 0.92723 0.88628 0.0
C1970 C 0.71128 0.93627 0.8536 0.0
C1971 C 0.68298 0.96381 0.85017 0.0
C1972 C 0.65724 0.97292 0.86505 0.0
C1973 C 0.66047 0.95495 0.88304 0.0
C1974 C 0.74021 0.92642 0.83853 0.0
C1975 C 0.62618 1.00143 0.86191 0.0
C1976 C 0.7095 0.03267 0.81071 0.0
C1977 C 0.69442 0.01523 0.79436 0.0
C1978 C 0.70413 0.01751 0.82905 0.0
C1979 C 0.68232 0.98433 0.83136 0.0
C1980 C 0.66416 0.96848 0.81512 0.0
C1981 C 0.6706 0.98398 0.79677 0.0
C1982 C 0.72455 0.0353 0.84572 0.0
C1983 C 0.63992 0.93367 0.81695 0.0
H1984 H 0.73468 0.89684 0.87386 0.0
H1985 H 0.64083 0.96188 0.89439 0.0
H1986 H 0.72589 0.91592 0.82548 0.0
H1987 H 0.75634 0.95206 0.83446 0.0
H1988 H 0.76051 0.90455 0.84348 0.0
H1989 H 0.60734 1.00411 0.87454 0.0
H1990 H 0.63853 0.02952 0.85873 0.0
H1991 H 0.60893 0.99317 0.84935 0.0
H1992 H 0.72762 0.05713 0.80898 0.0
H1993 H 0.65888 0.9703 0.78425 0.0
H1994 H 0.7476 0.01625 0.85053 0.0
H1995 H 0.7051 0.03926 0.85798 0.0
H1996 H 0.73709 0.06307 0.84196 0.0
H1997 H 0.65821 0.9087 0.81945 0.0
H1998 H 0.62291 0.92855 0.80387 0.0
H1999 H 0.62059 0.93622 0.82937 0.0
C2000 C 0.56846 0.31981 0.08479 0.0
C2001 C 0.59504 0.3112 0.09907 0.0
C2002 C 0.53165 0.3047 0.08526 0.0
C2003 C 0.52082 0.2804 0.1004 0.0
C2004 C 0.54707 0.27259 0.11518 0.0
C2005 C 0.58374 0.28797 0.11433 0.0
C2006 C 0.50473 0.31375 0.06916 0.0
C2007 C 0.53679 0.247 0.13163 0.0
C2008 C 0.41552 0.25914 0.1074 0.0
C2009 C 0.41171 0.22429 0.09801 0.0
C2010 C 0.45082 0.2776 0.1085 0.0
C2011 C 0.48317 0.26093 0.09999 0.0
C2012 C 0.47955 0.22558 0.09073 0.0
C2013 C 0.44409 0.20778 0.08988 0.0
C2014 C 0.45341 0.31518 0.11856 0.0
C2015 C 0.51313 0.20667 0.08143 0.0
H2016 H 0.57663 0.3377 0.07293 0.0
H2017 H 0.60379 0.28117 0.12552 0.0
H2018 H 0.49835 0.28764 0.06102 0.0
H2019 H 0.4776 0.32451 0.07494 0.0
H2020 H 0.51644 0.33506 0.05913 0.0
H2021 H 0.55923 0.24601 0.14272 0.0
H2022 H 0.51009 0.25659 0.13838 0.0
H2023 H 0.53199 0.21792 0.12627 0.0
H2024 H 0.39084 0.27233 0.11369 0.0
H2025 H 0.4418 0.18089 0.08259 0.0
H2026 H 0.46249 0.33729 0.1083 0.0
H2027 H 0.47506 0.31386 0.13 0.0
H2028 H 0.42605 0.32386 0.12498 0.0
H2029 H 0.52475 0.22514 0.07005 0.0
H2030 H 0.50579 0.17894 0.07502 0.0
H2031 H 0.53587 0.20225 0.09211 0.0
C2032 C 0.51302 0.66686 0.32968 0.0
C2033 C 0.54006 0.65542 0.34312 0.0
C2034 C 0.49803 0.70376 0.32995 0.0
C2035 C 0.50919 0.72937 0.3445 0.0
C2036 C 0.53541 0.71725 0.35855 0.0
C2037 C 0.55114 0.68077 0.35743 0.0
C2038 C 0.47131 0.71575 0.31427 0.0
C2039 C 0.54703 0.74289 0.37474 0.0
C2040 C 0.50169 0.8359 0.33647 0.0
C2041 C 0.4666 0.84434 0.34472 0.0
C2042 C 0.51548 0.79859 0.33598 0.0
C2043 C 0.49444 0.76913 0.34467 0.0
C2044 C 0.4594 0.77781 0.3535 0.0
C2045 C 0.44551 0.81514 0.35303 0.0
C2046 C 0.55222 0.79061 0.32578 0.0
C2047 C 0.43674 0.74774 0.3636 0.0
H2048 H 0.50476 0.64742 0.31848 0.0
H2049 H 0.57196 0.67189 0.36787 0.0
H2050 H 0.44406 0.72519 0.32046 0.0
H2051 H 0.48343 0.74013 0.30641 0.0
H2052 H 0.46565 0.69263 0.30394 0.0
H2053 H 0.56498 0.72813 0.38542 0.0
H2054 H 0.56301 0.76735 0.36905 0.0
H2055 H 0.52163 0.7542 0.38207 0.0
H2056 H 0.51781 0.85837 0.32982 0.0
H2057 H 0.41841 0.82166 0.35945 0.0
H2058 H 0.54778 0.76874 0.31465 0.0
H2059 H 0.57332 0.77931 0.336 0.0
H2060 H 0.56415 0.81625 0.31889 0.0
H2061 H 0.42773 0.72581 0.35327 0.0
H2062 H 0.4112 0.75944 0.37069 0.0
H2063 H 0.4545 0.73357 0.37454 0.0
C2064 C 0.09843 0.77894 0.61131 0.0
C2065 C 0.10587 0.80861 0.5985 0.0
C2066 C 0.06205 0.76298 0.61286 0.0
C2067 C 0.03217 0.77682 0.6013 0.0
C2068 C 0.03928 0.80736 0.58871 0.0
C2069 C 0.07586 0.82282 0.58747 0.0
C2070 C 0.05586 0.73052 0.62648 0.0
C2071 C 1.00845 0.823 0.57605 0.0
C2072 C 0.95232 0.70992 0.58758 0.0
C2073 C 0.92238 0.72177 0.59938 0.0
C2074 C 0.98799 0.72725 0.58828 0.0
C2075 C 0.99444 0.7574 0.60114 0.0
C2076 C 0.96463 0.76927 0.61333 0.0
C2077 C 0.929 0.75136 0.61231 0.0
C2078 C 0.01872 0.71356 0.57498 0.0
C2079 C 0.97026 0.80124 0.62728 0.0
H2080 H 0.1212 0.76769 0.61996 0.0
H2081 H 0.08101 0.84576 0.57756 0.0
H2082 H 0.03134 0.73642 0.6359 0.0
H2083 H 0.04923 0.70454 0.6183 0.0
H2084 H 0.08103 0.72494 0.63554 0.0
H2085 H 0.01773 0.84841 0.56802 0.0
H2086 H 0.99951 0.80114 0.56564 0.0
H2087 H 0.9833 0.8305 0.58472 0.0
H2088 H 0.94789 0.68708 0.57754 0.0
H2089 H 0.90623 0.76086 0.62149 0.0
H2090 H 0.04392 0.70487 0.58332 0.0
H2091 H 0.02759 0.73683 0.56536 0.0
H2092 H 0.00948 0.6893 0.56608 0.0
H2093 H 0.99464 0.79508 0.63675 0.0
H2094 H 0.94488 0.80626 0.63626 0.0
H2095 H 0.97695 0.82759 0.61939 0.0
C2096 C 0.06376 0.19753 0.8376 0.0
C2097 C 0.05144 0.16924 0.85022 0.0
C2098 C 0.04796 0.23402 0.83799 0.0
C2099 C 0.01902 0.2426 0.85129 0.0
C2100 C 1.00698 0.21446 0.86432 0.0
C2101 C 0.02332 0.17823 0.86366 0.0
C2102 C 0.06176 0.2632 0.82388 0.0
C2103 C 0.97621 0.22237 0.87872 0.0
C2104 C 0.99771 0.34635 0.86154 0.0
C2105 C 0.96652 0.35323 0.84961 0.0
C2106 C 0.01484 0.31048 0.86238 0.0
C2107 C 1.00045 0.28058 0.85109 0.0
C2108 C 0.96858 0.28712 0.8393 0.0
C2109 C 0.95208 0.32325 0.83869 0.0
C2110 C 0.04877 0.30475 0.87513 0.0
C2111 C 0.9522 0.25603 0.82709 0.0
H2112 H 0.08547 0.19109 0.82718 0.0
H2113 H 0.01349 0.15675 0.8735 0.0
H2114 H 0.03828 0.27168 0.81429 0.0
H2115 H 0.07119 0.28894 0.83154 0.0
H2116 H 0.08551 0.25262 0.81499 0.0
H2117 H 0.97106 0.19798 0.88837 0.0
H2118 H 0.98377 0.24728 0.88753 0.0
H2119 H 0.9495 0.22923 0.87118 0.0
H2120 H 0.00927 0.36918 0.87001 0.0
H2121 H 0.92799 0.32802 0.82944 0.0
H2122 H 0.07363 0.29672 0.86636 0.0
H2123 H 0.04346 0.28125 0.88527 0.0
H2124 H 0.0559 0.33051 0.88342 0.0
H2125 H 0.97369 0.24611 0.81669 0.0
H2126 H 0.92676 0.26538 0.81907 0.0
H2127 H 0.94443 0.23151 0.83614 0.0
C2128 C 0.58697 0.78574 0.91638 0.0
C2129 C 0.59701 0.81119 0.93091 0.0
C2130 C 0.55046 0.77021 0.9154 0.0
C2131 C 0.52313 0.78025 0.92928 0.0
C2132 C 0.53263 0.80689 0.94359 0.0
C2133 C 0.56936 0.82202 0.94423 0.0
C2134 C 0.54155 0.74198 0.89988 0.0
C2135 C 0.50438 0.81841 0.95867 0.0
C2136 C 0.41893 0.75711 0.92099 0.0
C2137 C 0.41455 0.72406 0.93187 0.0
C2138 C 0.45412 0.7756 0.91985 0.0
C2139 C 0.48571 0.76068 0.92977 0.0
C2140 C 0.48157 0.72701 0.94048 0.0
C2141 C 0.44619 0.70921 0.9414 0.0
C2142 C 0.45736 0.81143 0.90828 0.0
C2143 C 0.51447 0.70998 0.95122 0.0
H2144 H 0.60789 0.77722 0.90592 0.0
H2145 H 0.5766 0.84171 0.9555 0.0
H2146 H 0.5365 0.71382 0.90635 0.0
H2147 H 0.51532 0.75023 0.89226 0.0
H2148 H 0.5648 0.7394 0.8893 0.0
H2149 H 0.51515 0.84147 0.96794 0.0
H2150 H 0.47766 0.82787 0.95189 0.0
H2151 H 0.49752 0.79374 0.96782 0.0
H2152 H 0.39472 0.76895 0.91364 0.0
H2153 H 0.44333 0.68365 0.9498 0.0
H2154 H 0.47997 0.80844 0.8974 0.0
H2155 H 0.46544 0.83522 0.91774 0.0
H2156 H 0.43053 0.81877 0.90093 0.0
H2157 H 0.5381 0.70409 0.94124 0.0
H2158 H 0.50677 0.6833 0.95861 0.0
H2159 H 0.525 0.73032 0.96202 0.0
C2160 C 0.56969 0.19623 0.69167 0.0
C2161 C 0.55494 0.16494 0.6818 0.0
C2162 C 0.55211 0.23188 0.69093 0.0
C2163 C 0.51878 0.23686 0.68001 0.0
C2164 C 0.50391 0.20561 0.6698 0.0
C2165 C 0.52208 0.17012 0.67082 0.0
C2166 C 0.56903 0.26421 0.70209 0.0
C2167 C 0.46854 0.20959 0.65794 0.0
C2168 C 0.45605 0.32053 0.69395 0.0
C2169 C 0.46699 0.34842 0.68075 0.0
C2170 C 0.4719 0.28398 0.69356 0.0
C2171 C 0.49942 0.27469 0.6796 0.0
C2172 C 0.50988 0.30236 0.66594 0.0
C2173 C 0.49367 0.33874 0.66668 0.0
C2174 C 0.45989 0.25555 0.70845 0.0
C2175 C 0.53897 0.2938 0.65076 0.0
H2176 H 0.59497 0.19288 0.70023 0.0
H2177 H 0.51025 0.14633 0.66316 0.0
H2178 H 0.57558 0.28806 0.69236 0.0
H2179 H 0.54834 0.27468 0.71276 0.0
H2180 H 0.59533 0.25594 0.70969 0.0
H2181 H 0.46109 0.183 0.65042 0.0
H2182 H 0.44451 0.2179 0.66721 0.0
H2183 H 0.47225 0.23231 0.64718 0.0
H2184 H 0.43552 0.3274 0.7049 0.0
H2185 H 0.50241 0.35979 0.65635 0.0
H2186 H 0.48436 0.24813 0.71763 0.0
H2187 H 0.45023 0.22914 0.70148 0.0
H2188 H 0.4368 0.26637 0.71771 0.0
H2189 H 0.56668 0.28807 0.65758 0.0
H2190 H 0.54242 0.31747 0.64048 0.0
H2191 H 0.53086 0.26804 0.64274 0.0
C2192 C 0.09003 0.26531 0.44194 0.0
C2193 C 0.09873 0.30138 0.43499 0.0
C2194 C 0.05245 0.25239 0.44269 0.0
C2195 C 0.02284 0.27548 0.43557 0.0
C2196 C 0.03169 0.31176 0.42818 0.0
C2197 C 0.06943 0.32459 0.42837 0.0
C2198 C 0.04441 0.21414 0.45132 0.0
C2199 C 1.00139 0.33676 0.41978 0.0
C2200 C 0.93344 0.22179 0.42156 0.0
C2201 C 0.90927 0.22958 0.43691 0.0
C2202 C 0.96976 0.2379 0.42053 0.0
C2203 C 0.98286 0.26124 0.43561 0.0
C2204 C 0.95827 0.26935 0.45111 0.0
C2205 C 0.92157 0.25387 0.45142 0.0
C2206 C 0.99434 0.2294 0.40344 0.0
C2207 C 0.97125 0.29306 0.46777 0.0
H2208 H 0.11264 0.24752 0.44729 0.0
H2209 H 0.07617 0.35248 0.42296 0.0
H2210 H 0.0231 0.21687 0.46287 0.0
H2211 H 0.03238 0.19509 0.44032 0.0
H2212 H 0.07019 0.2007 0.45731 0.0
H2213 H 0.01299 0.36364 0.41408 0.0
H2214 H 0.9867 0.32166 0.40805 0.0
H2215 H 0.97988 0.34349 0.43079 0.0
H2216 H 0.92391 0.20292 0.41036 0.0
H2217 H 0.90301 0.25956 0.4634 0.0
H2218 H 0.01887 0.212 0.4079 0.0
H2219 H 1.00561 0.25601 0.3973 0.0
H2220 H 0.97874 0.21394 0.39211 0.0
H2221 H 0.99543 0.27897 0.47494 0.0
H2222 H 0.94847 0.2976 0.47846 0.0
H2223 H 0.98133 0.32095 0.46271 0.0
C2224 C 0.01298 0.66784 0.16988 0.0
C2225 C 0.04506 0.66189 0.1813 0.0
C2226 C 0.99611 0.70388 0.16842 0.0
C2227 C 0.01174 0.73489 0.17852 0.0
C2228 C 0.04454 0.72916 0.18975 0.0
C2229 C 0.06065 0.69292 0.19103 0.0
C2230 C 0.96111 0.70864 0.15635 0.0
C2231 C 0.06238 0.76128 0.20069 0.0
C2232 C 0.9886 0.83695 0.16475 0.0
C2233 C 0.9623 0.84727 0.17886 0.0
C2234 C 1.00426 0.80031 0.16418 0.0
C2235 C 0.99332 0.77309 0.17797 0.0
C2236 C 0.96616 0.78309 0.19197 0.0
C2237 C 0.95113 0.81991 0.19227 0.0
C2238 C 0.03323 0.79102 0.14906 0.0
C2239 C 0.95352 0.75506 0.20692 0.0
H2240 H 1.00059 0.6442 0.16232 0.0
H2241 H 0.08552 0.68893 0.19983 0.0
H2242 H 0.9371 0.71759 0.16549 0.0
H2243 H 0.96558 0.73118 0.14557 0.0
H2244 H 0.95317 0.68218 0.14884 0.0
H2245 H 0.08862 0.75256 0.2082 0.0
H2246 H 0.06926 0.78486 0.19084 0.0
H2247 H 0.04212 0.77234 0.21142 0.0
H2248 H 0.99756 0.85771 0.15431 0.0
H2249 H 0.93071 0.82732 0.20319 0.0
H2250 H 0.02456 0.76544 0.14105 0.0
H2251 H 0.06075 0.78462 0.15594 0.0
H2252 H 0.03733 0.81456 0.13878 0.0
H2253 H 0.94319 0.72885 0.19999 0.0
H2254 H 0.93072 0.76649 0.21618 0.0
H2255 H 0.97782 0.7471 0.2161 0.0
loop_
_geom_bond_atom_site_label_1
_geom_bond_atom_site_label_2
_geom_bond_distance
_geom_bond_site_symmetry_2
_ccdc_geom_bond_type
O0 Tb1 2.292 . S
O0 C3 1.255 . S
Tb1 O0 2.292 . S
Tb1 O17 2.326 . S
Tb1 O19 2.500 . S
Tb1 O20 2.473 . S
Tb1 O23 2.324 . S
Eu2 O6 2.292 . S
Eu2 C7 2.852 . S
Eu2 O18 2.324 . S
Eu2 O22 2.326 . S
Eu2 O24 2.500 . S
Eu2 O25 2.473 . S
C3 O0 1.255 . S
C3 O4 1.247 . S
O4 C3 1.247 . S
C5 O17 1.242 . S
C5 O18 1.258 . S
O6 Eu2 2.292 . S
O6 C8 1.255 . S
C7 Eu2 2.852 . S
C7 C11 1.503 . S
C7 O24 1.273 . S
C7 O25 1.257 . S
C8 O6 1.255 . S
C8 O9 1.247 . S
O9 C8 1.247 . S
C10 O22 1.242 . S
C10 O23 1.258 . S
C11 C7 1.503 . S
C11 C12 1.379 . S
C11 C16 1.392 . S
C12 C11 1.379 . S
C12 C13 1.404 . S
C12 H26 0.929 . S
C13 C12 1.404 . S
C13 C14 1.389 . S
C14 C13 1.389 . S
C14 C15 1.399 1_545 S
C14 H27 0.918 1_544 S
C15 C14 1.399 1_565 S
C15 C16 1.390 1_565 S
C16 C11 1.392 . S
C16 C15 1.390 1_545 S
C16 H28 0.929 1_545 S
O17 Tb1 2.326 . S
O17 C5 1.242 . S
O18 Eu2 2.324 . S
O18 C5 1.258 . S
O19 Tb1 2.500 . S
O19 C21 1.273 . S
O20 Tb1 2.473 . S
O20 C21 1.257 . S
C21 O19 1.273 . S
C21 O20 1.257 . S
O22 Eu2 2.326 . S
O22 C10 1.242 . S
O23 Tb1 2.324 . S
O23 C10 1.258 . S
O24 Eu2 2.500 . S
O24 C7 1.273 . S
O25 Eu2 2.473 . S
O25 C7 1.257 . S
H26 C12 0.929 . S
H27 C14 0.918 1_566 S
H28 C16 0.929 1_565 S
O29 Tb30 2.292 . S
O29 C32 1.255 . S
Tb30 O29 2.292 . S
Tb30 O46 2.326 . S
Tb30 O48 2.500 . S
Tb30 O49 2.473 . S
Tb30 O52 2.324 . S
Eu31 O35 2.292 . S
Eu31 C36 2.852 . S
Eu31 O47 2.324 . S
Eu31 O51 2.326 . S
Eu31 O53 2.500 . S
Eu31 O54 2.473 . S
C32 O29 1.255 . S
C32 O33 1.247 . S
O33 C32 1.247 . S
C34 O46 1.242 . S
C34 O47 1.258 . S
O35 Eu31 2.292 . S
O35 C37 1.255 . S
C36 Eu31 2.852 . S
C36 C40 1.503 . S
C36 O53 1.273 . S
C36 O54 1.257 . S
C37 O35 1.255 . S
C37 O38 1.247 . S
O38 C37 1.247 . S
C39 O51 1.242 . S
C39 O52 1.258 . S
C40 C36 1.503 . S
C40 C41 1.379 . S
C40 C45 1.392 . S
C41 C40 1.379 . S
C41 C42 1.404 . S
C41 H55 0.929 . S
C42 C41 1.404 . S
C42 C43 1.389 . S
C43 C42 1.389 . S
C43 C44 1.399 . S
C43 H56 0.931 . S
C44 C43 1.399 . S
C44 C45 1.390 . S
C45 C40 1.392 . S
C45 C44 1.390 . S
C45 H57 0.929 . S
O46 Tb30 2.326 . S
O46 C34 1.242 . S
O47 Eu31 2.324 . S
O47 C34 1.258 . S
O48 Tb30 2.500 . S
O48 C50 1.273 . S
O49 Tb30 2.473 . S
O49 C50 1.257 . S
C50 O48 1.273 . S
C50 O49 1.257 . S
O51 Eu31 2.326 . S
O51 C39 1.242 . S
O52 Tb30 2.324 . S
O52 C39 1.258 . S
O53 Eu31 2.500 . S
O53 C36 1.273 . S
O54 Eu31 2.473 . S
O54 C36 1.257 . S
H55 C41 0.929 . S
H56 C43 0.931 . S
H57 C45 0.929 . S
O58 Tb59 2.292 . S
O58 C61 1.255 . S
Tb59 O58 2.292 . S
Tb59 O75 2.326 . S
Tb59 O77 2.500 . S
Tb59 O78 2.473 . S
Tb59 O81 2.324 . S
Eu60 O64 2.292 . S
Eu60 C65 2.852 . S
Eu60 O76 2.324 . S
Eu60 O80 2.326 . S
Eu60 O82 2.500 . S
Eu60 O83 2.473 . S
C61 O58 1.255 . S
C61 O62 1.247 . S
O62 C61 1.247 . S
C63 O75 1.242 . S
C63 O76 1.258 . S
O64 Eu60 2.292 . S
O64 C66 1.255 . S
C65 Eu60 2.852 . S
C65 C69 1.503 . S
C65 O82 1.273 . S
C65 O83 1.257 . S
C66 O64 1.255 . S
C66 O67 1.247 . S
O67 C66 1.247 . S
C68 O80 1.242 . S
C68 O81 1.258 . S
C69 C65 1.503 . S
C69 C70 1.379 . S
C69 C74 1.392 . S
C70 C69 1.379 . S
C70 C71 1.404 . S
C70 H84 0.929 . S
C71 C70 1.404 . S
C71 C72 1.389 . S
C72 C71 1.389 . S
C72 C73 1.399 1_565 S
C72 H85 0.918 1_565 S
C73 C72 1.399 1_545 S
C73 C74 1.390 1_545 S
C74 C69 1.392 . S
C74 C73 1.390 1_565 S
C74 H86 0.929 1_565 S
O75 Tb59 2.326 . S
O75 C63 1.242 . S
O76 Eu60 2.324 . S
O76 C63 1.258 . S
O77 Tb59 2.500 . S
O77 C79 1.273 . S
O78 Tb59 2.473 . S
O78 C79 1.257 . S
C79 O77 1.273 . S
C79 O78 1.257 . S
O80 Eu60 2.326 . S
O80 C68 1.242 . S
O81 Tb59 2.324 . S
O81 C68 1.258 . S
O82 Eu60 2.500 . S
O82 C65 1.273 . S
O83 Eu60 2.473 . S
O83 C65 1.257 . S
H84 C70 0.929 . S
H85 C72 0.918 1_545 S
H86 C74 0.929 1_545 S
O87 Tb88 2.292 . S
O87 C90 1.255 . S
Tb88 O87 2.292 . S
Tb88 O104 2.326 . S
Tb88 O106 2.500 1_655 S
Tb88 O107 2.473 . S
Tb88 O110 2.324 . S
Eu89 O93 2.292 . S
Eu89 C94 2.852 . S
Eu89 O105 2.324 . S
Eu89 O109 2.326 . S
Eu89 O111 2.500 . S
Eu89 O112 2.473 . S
C90 O87 1.255 . S
C90 O91 1.247 . S
O91 C90 1.247 . S
C92 O104 1.242 . S
C92 O105 1.258 . S
O93 Eu89 2.292 . S
O93 C95 1.255 . S
C94 Eu89 2.852 . S
C94 C98 1.503 . S
C94 O111 1.273 . S
C94 O112 1.257 . S
C95 O93 1.255 . S
C95 O96 1.247 . S
O96 C95 1.247 . S
C97 O109 1.242 . S
C97 O110 1.258 . S
C98 C94 1.503 . S
C98 C99 1.379 . S
C98 C103 1.392 . S
C99 C98 1.379 . S
C99 C100 1.404 . S
C99 H113 0.929 . S
C100 C99 1.404 . S
C100 C101 1.389 . S
C101 C100 1.389 . S
C101 C102 1.399 . S
C101 H114 0.931 . S
C102 C101 1.399 . S
C102 C103 1.390 . S
C103 C98 1.392 . S
C103 C102 1.390 . S
C103 H115 0.929 . S
O104 Tb88 2.326 . S
O104 C92 1.242 . S
O105 Eu89 2.324 . S
O105 C92 1.258 . S
O106 Tb88 2.500 1_455 S
O106 C108 1.273 1_455 S
O107 Tb88 2.473 . S
O107 C108 1.257 . S
C108 O106 1.273 1_655 S
C108 O107 1.257 . S
O109 Eu89 2.326 . S
O109 C97 1.242 . S
O110 Tb88 2.324 . S
O110 C97 1.258 . S
O111 Eu89 2.500 . S
O111 C94 1.273 . S
O112 Eu89 2.473 . S
O112 C94 1.257 . S
H113 C99 0.929 . S
H114 C101 0.931 . S
H115 C103 0.929 . S
O116 Tb117 2.292 . S
O116 C119 1.255 . S
Tb117 O116 2.292 . S
Tb117 O133 2.326 . S
Tb117 O135 2.500 . S
Tb117 O136 2.473 . S
Tb117 O139 2.324 . S
Eu118 O122 2.292 . S
Eu118 C123 2.852 . S
Eu118 O134 2.324 . S
Eu118 O138 2.326 . S
Eu118 O140 2.500 . S
Eu118 O141 2.473 . S
C119 O116 1.255 . S
C119 O120 1.247 . S
O120 C119 1.247 . S
C121 O133 1.242 . S
C121 O134 1.258 . S
O122 Eu118 2.292 . S
O122 C124 1.255 . S
C123 Eu118 2.852 . S
C123 C127 1.503 . S
C123 O140 1.273 . S
C123 O141 1.257 . S
C124 O122 1.255 . S
C124 O125 1.247 . S
O125 C124 1.247 . S
C126 O138 1.242 . S
C126 O139 1.258 . S
C127 C123 1.503 . S
C127 C128 1.379 . S
C127 C132 1.392 . S
C128 C127 1.379 . S
C128 C129 1.404 . S
C128 H142 0.929 . S
C129 C128 1.404 . S
C129 C130 1.389 . S
C130 C129 1.389 . S
C130 C131 1.399 1_565 S
C130 H143 0.918 1_566 S
C131 C130 1.399 1_545 S
C131 C132 1.390 1_545 S
C132 C127 1.392 . S
C132 C131 1.390 1_565 S
C132 H144 0.929 1_565 S
O133 Tb117 2.326 . S
O133 C121 1.242 . S
O134 Eu118 2.324 . S
O134 C121 1.258 . S
O135 Tb117 2.500 . S
O135 C137 1.273 . S
O136 Tb117 2.473 . S
O136 C137 1.257 . S
C137 O135 1.273 . S
C137 O136 1.257 . S
O138 Eu118 2.326 . S
O138 C126 1.242 . S
O139 Tb117 2.324 . S
O139 C126 1.258 . S
O140 Eu118 2.500 . S
O140 C123 1.273 . S
O141 Eu118 2.473 . S
O141 C123 1.257 . S
H142 C128 0.929 . S
H143 C130 0.918 1_544 S
H144 C132 0.929 1_545 S
O145 Tb146 2.292 . S
O145 C148 1.255 . S
Tb146 O145 2.292 . S
Tb146 O162 2.326 . S
Tb146 O164 2.500 . S
Tb146 O165 2.473 . S
Tb146 O168 2.324 . S
Eu147 O151 2.292 . S
Eu147 C152 2.852 . S
Eu147 O163 2.324 . S
Eu147 O167 2.326 . S
Eu147 O169 2.500 . S
Eu147 O170 2.473 . S
C148 O145 1.255 . S
C148 O149 1.247 . S
O149 C148 1.247 . S
C150 O162 1.242 . S
C150 O163 1.258 . S
O151 Eu147 2.292 . S
O151 C153 1.255 . S
C152 Eu147 2.852 . S
C152 C156 1.503 . S
C152 O169 1.273 . S
C152 O170 1.257 . S
C153 O151 1.255 . S
C153 O154 1.247 . S
O154 C153 1.247 . S
C155 O167 1.242 . S
C155 O168 1.258 . S
C156 C152 1.503 . S
C156 C157 1.379 . S
C156 C161 1.392 . S
C157 C156 1.379 . S
C157 C158 1.404 . S
C157 H171 0.929 . S
C158 C157 1.404 . S
C158 C159 1.389 . S
C159 C158 1.389 . S
C159 C160 1.399 . S
C159 H172 0.931 . S
C160 C159 1.399 . S
C160 C161 1.390 . S
C161 C156 1.392 . S
C161 C160 1.390 . S
C161 H173 0.929 . S
O162 Tb146 2.326 . S
O162 C150 1.242 . S
O163 Eu147 2.324 . S
O163 C150 1.258 . S
O164 Tb146 2.500 . S
O164 C166 1.273 . S
O165 Tb146 2.473 . S
O165 C166 1.257 . S
C166 O164 1.273 . S
C166 O165 1.257 . S
O167 Eu147 2.326 . S
O167 C155 1.242 . S
O168 Tb146 2.324 . S
O168 C155 1.258 . S
O169 Eu147 2.500 . S
O169 C152 1.273 . S
O170 Eu147 2.473 . S
O170 C152 1.257 . S
H171 C157 0.929 . S
H172 C159 0.931 . S
H173 C161 0.929 . S
O174 Tb175 2.292 . S
O174 C177 1.255 . S
Tb175 O174 2.292 . S
Tb175 O191 2.326 . S
Tb175 O193 2.500 . S
Tb175 O194 2.473 . S
Tb175 O197 2.324 . S
Eu176 O180 2.292 . S
Eu176 C181 2.852 . S
Eu176 O192 2.324 . S
Eu176 O196 2.326 . S
Eu176 O198 2.500 . S
Eu176 O199 2.473 . S
C177 O174 1.255 . S
C177 O178 1.247 . S
O178 C177 1.247 . S
C179 O191 1.242 . S
C179 O192 1.258 . S
O180 Eu176 2.292 . S
O180 C182 1.255 . S
C181 Eu176 2.852 . S
C181 C185 1.503 . S
C181 O198 1.273 . S
C181 O199 1.257 . S
C182 O180 1.255 . S
C182 O183 1.247 . S
O183 C182 1.247 . S
C184 O196 1.242 . S
C184 O197 1.258 . S
C185 C181 1.503 . S
C185 C186 1.379 . S
C185 C190 1.392 . S
C186 C185 1.379 . S
C186 C187 1.404 . S
C186 H200 0.929 . S
C187 C186 1.404 . S
C187 C188 1.389 . S
C188 C187 1.389 . S
C188 C189 1.399 1_545 S
C188 H201 0.918 1_545 S
C189 C188 1.399 1_565 S
C189 C190 1.390 1_565 S
C190 C185 1.392 . S
C190 C189 1.390 1_545 S
C190 H202 0.929 1_545 S
O191 Tb175 2.326 . S
O191 C179 1.242 . S
O192 Eu176 2.324 . S
O192 C179 1.258 . S
O193 Tb175 2.500 . S
O193 C195 1.273 . S
O194 Tb175 2.473 . S
O194 C195 1.257 . S
C195 O193 1.273 . S
C195 O194 1.257 . S
O196 Eu176 2.326 . S
O196 C184 1.242 . S
O197 Tb175 2.324 . S
O197 C184 1.258 . S
O198 Eu176 2.500 . S
O198 C181 1.273 . S
O199 Eu176 2.473 . S
O199 C181 1.257 . S
H200 C186 0.929 . S
H201 C188 0.918 1_565 S
H202 C190 0.929 1_565 S
O203 Tb204 2.292 . S
O203 C206 1.255 . S
Tb204 O203 2.292 . S
Tb204 O220 2.326 . S
Tb204 O222 2.500 1_455 S
Tb204 O223 2.473 . S
Tb204 O226 2.324 . S
Eu205 O209 2.292 . S
Eu205 C210 2.852 . S
Eu205 O221 2.324 . S
Eu205 O225 2.326 . S
Eu205 O227 2.500 . S
Eu205 O228 2.473 . S
C206 O203 1.255 . S
C206 O207 1.247 . S
O207 C206 1.247 . S
C208 O220 1.242 . S
C208 O221 1.258 . S
O209 Eu205 2.292 . S
O209 C211 1.255 . S
C210 Eu205 2.852 . S
C210 C214 1.503 . S
C210 O227 1.273 . S
C210 O228 1.257 . S
C211 O209 1.255 . S
C211 O212 1.247 . S
O212 C211 1.247 . S
C213 O225 1.242 . S
C213 O226 1.258 . S
C214 C210 1.503 . S
C214 C215 1.379 . S
C214 C219 1.392 . S
C215 C214 1.379 . S
C215 C216 1.404 . S
C215 H229 0.929 . S
C216 C215 1.404 . S
C216 C217 1.389 . S
C217 C216 1.389 . S
C217 C218 1.399 . S
C217 H230 0.931 . S
C218 C217 1.399 . S
C218 C219 1.390 . S
C219 C214 1.392 . S
C219 C218 1.390 . S
C219 H231 0.929 . S
O220 Tb204 2.326 . S
O220 C208 1.242 . S
O221 Eu205 2.324 . S
O221 C208 1.258 . S
O222 Tb204 2.500 1_655 S
O222 C224 1.273 1_655 S
O223 Tb204 2.473 . S
O223 C224 1.257 . S
C224 O222 1.273 1_455 S
C224 O223 1.257 . S
O225 Eu205 2.326 . S
O225 C213 1.242 . S
O226 Tb204 2.324 . S
O226 C213 1.258 . S
O227 Eu205 2.500 . S
O227 C210 1.273 . S
O228 Eu205 2.473 . S
O228 C210 1.257 . S
H229 C215 0.929 . S
H230 C217 0.931 . S
H231 C219 0.929 . S
O232 Tb233 2.292 . S
O232 C235 1.255 . S
Tb233 O232 2.292 . S
Tb233 O249 2.326 . S
Tb233 O251 2.500 . S
Tb233 O252 2.473 . S
Tb233 O255 2.324 . S
Eu234 O238 2.292 . S
Eu234 C239 2.852 . S
Eu234 O250 2.324 . S
Eu234 O254 2.326 . S
Eu234 O256 2.500 . S
Eu234 O257 2.473 . S
C235 O232 1.255 . S
C235 O236 1.247 . S
O236 C235 1.247 . S
C237 O249 1.242 . S
C237 O250 1.258 . S
O238 Eu234 2.292 . S
O238 C240 1.255 . S
C239 Eu234 2.852 . S
C239 C243 1.503 . S
C239 O256 1.273 . S
C239 O257 1.257 . S
C240 O238 1.255 . S
C240 O241 1.247 . S
O241 C240 1.247 . S
C242 O254 1.242 . S
C242 O255 1.258 . S
C243 C239 1.503 . S
C243 C244 1.379 . S
C243 C248 1.392 . S
C244 C243 1.379 . S
C244 C245 1.404 . S
C244 H258 0.929 . S
C245 C244 1.404 . S
C245 C246 1.389 . S
C246 C245 1.389 . S
C246 C247 1.399 . S
C246 H259 0.931 . S
C247 C246 1.399 . S
C247 C248 1.390 . S
C248 C243 1.392 . S
C248 C247 1.390 . S
C248 H260 0.929 . S
O249 Tb233 2.326 . S
O249 C237 1.242 . S
O250 Eu234 2.324 . S
O250 C237 1.258 . S
O251 Tb233 2.500 . S
O251 C253 1.273 . S
O252 Tb233 2.473 . S
O252 C253 1.257 . S
C253 O251 1.273 . S
C253 O252 1.257 . S
O254 Eu234 2.326 . S
O254 C242 1.242 . S
O255 Tb233 2.324 . S
O255 C242 1.258 . S
O256 Eu234 2.500 . S
O256 C239 1.273 . S
O257 Eu234 2.473 . S
O257 C239 1.257 . S
H258 C244 0.929 . S
H259 C246 0.931 . S
H260 C248 0.929 . S
O261 Tb262 2.292 . S
O261 C264 1.255 . S
Tb262 O261 2.292 . S
Tb262 O278 2.326 . S
Tb262 O280 2.500 1_455 S
Tb262 O281 2.473 . S
Tb262 O284 2.324 1_545 S
Eu263 O267 2.292 . S
Eu263 C268 2.852 . S
Eu263 O279 2.324 . S
Eu263 O283 2.326 . S
Eu263 O285 2.500 . S
Eu263 O286 2.473 . S
C264 O261 1.255 . S
C264 O265 1.247 . S
O265 C264 1.247 . S
C266 O278 1.242 . S
C266 O279 1.258 . S
O267 Eu263 2.292 . S
O267 C269 1.255 . S
C268 Eu263 2.852 . S
C268 C272 1.503 . S
C268 O285 1.273 . S
C268 O286 1.257 . S
C269 O267 1.255 . S
C269 O270 1.247 . S
O270 C269 1.247 . S
C271 O283 1.242 1_565 S
C271 O284 1.258 . S
C272 C268 1.503 . S
C272 C273 1.379 . S
C272 C277 1.392 . S
C273 C272 1.379 . S
C273 C274 1.404 . S
C273 H287 0.929 . S
C274 C273 1.404 . S
C274 C275 1.389 . S
C275 C274 1.389 . S
C275 C276 1.399 . S
C275 H288 0.931 . S
C276 C275 1.399 . S
C276 C277 1.390 . S
C277 C272 1.392 . S
C277 C276 1.390 . S
C277 H289 0.929 . S
O278 Tb262 2.326 . S
O278 C266 1.242 . S
O279 Eu263 2.324 . S
O279 C266 1.258 . S
O280 Tb262 2.500 1_655 S
O280 C282 1.273 1_655 S
O281 Tb262 2.473 . S
O281 C282 1.257 . S
C282 O280 1.273 1_455 S
C282 O281 1.257 . S
O283 Eu263 2.326 . S
O283 C271 1.242 1_545 S
O284 Tb262 2.324 1_565 S
O284 C271 1.258 . S
O285 Eu263 2.500 . S
O285 C268 1.273 . S
O286 Eu263 2.473 . S
O286 C268 1.257 . S
H287 C273 0.929 . S
H288 C275 0.931 . S
H289 C277 0.929 . S
O290 Tb291 2.292 . S
O290 C293 1.255 . S
Tb291 O290 2.292 . S
Tb291 O307 2.326 . S
Tb291 O309 2.500 . S
Tb291 O310 2.473 . S
Tb291 O313 2.324 . S
Eu292 O296 2.292 . S
Eu292 C297 2.852 . S
Eu292 O308 2.324 . S
Eu292 O312 2.326 . S
Eu292 O314 2.500 . S
Eu292 O315 2.473 . S
C293 O290 1.255 . S
C293 O294 1.247 . S
O294 C293 1.247 . S
C295 O307 1.242 . S
C295 O308 1.258 . S
O296 Eu292 2.292 . S
O296 C298 1.255 . S
C297 Eu292 2.852 . S
C297 C301 1.503 . S
C297 O314 1.273 . S
C297 O315 1.257 . S
C298 O296 1.255 . S
C298 O299 1.247 . S
O299 C298 1.247 . S
C300 O312 1.242 . S
C300 O313 1.258 . S
C301 C297 1.503 . S
C301 C302 1.379 . S
C301 C306 1.392 . S
C302 C301 1.379 . S
C302 C303 1.404 . S
C302 H316 0.929 . S
C303 C302 1.404 . S
C303 C304 1.389 . S
C304 C303 1.389 . S
C304 C305 1.399 . S
C304 H317 0.931 1_554 S
C305 C304 1.399 . S
C305 C306 1.390 . S
C306 C301 1.392 . S
C306 C305 1.390 . S
C306 H318 0.929 . S
O307 Tb291 2.326 . S
O307 C295 1.242 . S
O308 Eu292 2.324 . S
O308 C295 1.258 . S
O309 Tb291 2.500 . S
O309 C311 1.273 . S
O310 Tb291 2.473 . S
O310 C311 1.257 . S
C311 O309 1.273 . S
C311 O310 1.257 . S
O312 Eu292 2.326 . S
O312 C300 1.242 . S
O313 Tb291 2.324 . S
O313 C300 1.258 . S
O314 Eu292 2.500 . S
O314 C297 1.273 . S
O315 Eu292 2.473 . S
O315 C297 1.257 . S
H316 C302 0.929 . S
H317 C304 0.931 1_556 S
H318 C306 0.929 . S
O319 Tb320 2.292 . S
O319 C322 1.255 . S
Tb320 O319 2.292 . S
Tb320 O336 2.326 . S
Tb320 O338 2.500 . S
Tb320 O339 2.473 . S
Tb320 O342 2.324 1_565 S
Eu321 O325 2.292 . S
Eu321 C326 2.852 . S
Eu321 O337 2.324 . S
Eu321 O341 2.326 . S
Eu321 O343 2.500 . S
Eu321 O344 2.473 . S
C322 O319 1.255 . S
C322 O323 1.247 . S
O323 C322 1.247 . S
C324 O336 1.242 . S
C324 O337 1.258 . S
O325 Eu321 2.292 . S
O325 C327 1.255 . S
C326 Eu321 2.852 . S
C326 C330 1.503 . S
C326 O343 1.273 . S
C326 O344 1.257 . S
C327 O325 1.255 . S
C327 O328 1.247 . S
O328 C327 1.247 . S
C329 O341 1.242 1_545 S
C329 O342 1.258 . S
C330 C326 1.503 . S
C330 C331 1.379 . S
C330 C335 1.392 . S
C331 C330 1.379 . S
C331 C332 1.404 . S
C331 H345 0.929 . S
C332 C331 1.404 . S
C332 C333 1.389 . S
C333 C332 1.389 . S
C333 C334 1.399 . S
C333 H346 0.931 . S
C334 C333 1.399 . S
C334 C335 1.390 . S
C335 C330 1.392 . S
C335 C334 1.390 . S
C335 H347 0.929 . S
O336 Tb320 2.326 . S
O336 C324 1.242 . S
O337 Eu321 2.324 . S
O337 C324 1.258 . S
O338 Tb320 2.500 . S
O338 C340 1.273 . S
O339 Tb320 2.473 . S
O339 C340 1.257 . S
C340 O338 1.273 . S
C340 O339 1.257 . S
O341 Eu321 2.326 . S
O341 C329 1.242 1_565 S
O342 Tb320 2.324 1_545 S
O342 C329 1.258 . S
O343 Eu321 2.500 . S
O343 C326 1.273 . S
O344 Eu321 2.473 . S
O344 C326 1.257 . S
H345 C331 0.929 . S
H346 C333 0.931 . S
H347 C335 0.929 . S
O348 Tb349 2.292 . S
O348 C351 1.255 . S
Tb349 O348 2.292 . S
Tb349 O365 2.326 . S
Tb349 O367 2.500 . S
Tb349 O368 2.473 . S
Tb349 O371 2.324 . S
Eu350 O354 2.292 . S
Eu350 C355 2.852 . S
Eu350 O366 2.324 . S
Eu350 O370 2.326 . S
Eu350 O372 2.500 . S
Eu350 O373 2.473 . S
C351 O348 1.255 . S
C351 O352 1.247 . S
O352 C351 1.247 . S
C353 O365 1.242 . S
C353 O366 1.258 . S
O354 Eu350 2.292 . S
O354 C356 1.255 . S
C355 Eu350 2.852 . S
C355 C359 1.503 . S
C355 O372 1.273 . S
C355 O373 1.257 . S
C356 O354 1.255 . S
C356 O357 1.247 . S
O357 C356 1.247 . S
C358 O370 1.242 . S
C358 O371 1.258 . S
C359 C355 1.503 . S
C359 C360 1.379 . S
C359 C364 1.392 . S
C360 C359 1.379 . S
C360 C361 1.404 . S
C360 H374 0.929 . S
C361 C360 1.404 . S
C361 C362 1.389 . S
C362 C361 1.389 . S
C362 C363 1.399 . S
C362 H375 0.931 . S
C363 C362 1.399 . S
C363 C364 1.390 . S
C364 C359 1.392 . S
C364 C363 1.390 . S
C364 H376 0.929 . S
O365 Tb349 2.326 . S
O365 C353 1.242 . S
O366 Eu350 2.324 . S
O366 C353 1.258 . S
O367 Tb349 2.500 . S
O367 C369 1.273 . S
O368 Tb349 2.473 . S
O368 C369 1.257 . S
C369 O367 1.273 . S
C369 O368 1.257 . S
O370 Eu350 2.326 . S
O370 C358 1.242 . S
O371 Tb349 2.324 . S
O371 C358 1.258 . S
O372 Eu350 2.500 . S
O372 C355 1.273 . S
O373 Eu350 2.473 . S
O373 C355 1.257 . S
H374 C360 0.929 . S
H375 C362 0.931 . S
H376 C364 0.929 . S
O377 Tb378 2.292 . S
O377 C380 1.255 . S
Tb378 O377 2.292 . S
Tb378 O394 2.326 . S
Tb378 O396 2.500 1_655 S
Tb378 O397 2.473 . S
Tb378 O400 2.324 1_565 S
Eu379 O383 2.292 . S
Eu379 C384 2.852 . S
Eu379 O395 2.324 . S
Eu379 O399 2.326 . S
Eu379 O401 2.500 . S
Eu379 O402 2.473 . S
C380 O377 1.255 . S
C380 O381 1.247 . S
O381 C380 1.247 . S
C382 O394 1.242 . S
C382 O395 1.258 . S
O383 Eu379 2.292 . S
O383 C385 1.255 . S
C384 Eu379 2.852 . S
C384 C388 1.503 . S
C384 O401 1.273 . S
C384 O402 1.257 . S
C385 O383 1.255 . S
C385 O386 1.247 . S
O386 C385 1.247 . S
C387 O399 1.242 1_545 S
C387 O400 1.258 . S
C388 C384 1.503 . S
C388 C389 1.379 . S
C388 C393 1.392 . S
C389 C388 1.379 . S
C389 C390 1.404 . S
C389 H403 0.929 . S
C390 C389 1.404 . S
C390 C391 1.389 . S
C391 C390 1.389 . S
C391 C392 1.399 . S
C391 H404 0.931 . S
C392 C391 1.399 . S
C392 C393 1.390 . S
C393 C388 1.392 . S
C393 C392 1.390 . S
C393 H405 0.929 . S
O394 Tb378 2.326 . S
O394 C382 1.242 . S
O395 Eu379 2.324 . S
O395 C382 1.258 . S
O396 Tb378 2.500 1_455 S
O396 C398 1.273 1_455 S
O397 Tb378 2.473 . S
O397 C398 1.257 . S
C398 O396 1.273 1_655 S
C398 O397 1.257 . S
O399 Eu379 2.326 . S
O399 C387 1.242 1_565 S
O400 Tb378 2.324 1_545 S
O400 C387 1.258 . S
O401 Eu379 2.500 . S
O401 C384 1.273 . S
O402 Eu379 2.473 . S
O402 C384 1.257 . S
H403 C389 0.929 . S
H404 C391 0.931 . S
H405 C393 0.929 . S
O406 Tb407 2.292 . S
O406 C409 1.255 . S
Tb407 O406 2.292 . S
Tb407 O423 2.326 . S
Tb407 O425 2.500 . S
Tb407 O426 2.473 . S
Tb407 O429 2.324 . S
Eu408 O412 2.292 . S
Eu408 C413 2.852 . S
Eu408 O424 2.324 . S
Eu408 O428 2.326 . S
Eu408 O430 2.500 . S
Eu408 O431 2.473 . S
C409 O406 1.255 . S
C409 O410 1.247 . S
O410 C409 1.247 . S
C411 O423 1.242 . S
C411 O424 1.258 . S
O412 Eu408 2.292 . S
O412 C414 1.255 . S
C413 Eu408 2.852 . S
C413 C417 1.503 . S
C413 O430 1.273 . S
C413 O431 1.257 . S
C414 O412 1.255 . S
C414 O415 1.247 . S
O415 C414 1.247 . S
C416 O428 1.242 . S
C416 O429 1.258 . S
C417 C413 1.503 . S
C417 C418 1.379 . S
C417 C422 1.392 . S
C418 C417 1.379 . S
C418 C419 1.404 . S
C418 H432 0.929 . S
C419 C418 1.404 . S
C419 C420 1.389 . S
C420 C419 1.389 . S
C420 C421 1.399 . S
C420 H433 0.931 1_556 S
C421 C420 1.399 . S
C421 C422 1.390 . S
C422 C417 1.392 . S
C422 C421 1.390 . S
C422 H434 0.929 . S
O423 Tb407 2.326 . S
O423 C411 1.242 . S
O424 Eu408 2.324 . S
O424 C411 1.258 . S
O425 Tb407 2.500 . S
O425 C427 1.273 . S
O426 Tb407 2.473 . S
O426 C427 1.257 . S
C427 O425 1.273 . S
C427 O426 1.257 . S
O428 Eu408 2.326 . S
O428 C416 1.242 . S
O429 Tb407 2.324 . S
O429 C416 1.258 . S
O430 Eu408 2.500 . S
O430 C413 1.273 . S
O431 Eu408 2.473 . S
O431 C413 1.257 . S
H432 C418 0.929 . S
H433 C420 0.931 1_554 S
H434 C422 0.929 . S
O435 Tb436 2.292 . S
O435 C438 1.255 . S
Tb436 O435 2.292 . S
Tb436 O452 2.326 . S
Tb436 O454 2.500 . S
Tb436 O455 2.473 . S
Tb436 O458 2.324 1_545 S
Eu437 O441 2.292 . S
Eu437 C442 2.852 . S
Eu437 O453 2.324 . S
Eu437 O457 2.326 . S
Eu437 O459 2.500 . S
Eu437 O460 2.473 . S
C438 O435 1.255 . S
C438 O439 1.247 . S
O439 C438 1.247 . S
C440 O452 1.242 . S
C440 O453 1.258 . S
O441 Eu437 2.292 . S
O441 C443 1.255 . S
C442 Eu437 2.852 . S
C442 C446 1.503 . S
C442 O459 1.273 . S
C442 O460 1.257 . S
C443 O441 1.255 . S
C443 O444 1.247 . S
O444 C443 1.247 . S
C445 O457 1.242 1_565 S
C445 O458 1.258 . S
C446 C442 1.503 . S
C446 C447 1.379 . S
C446 C451 1.392 . S
C447 C446 1.379 . S
C447 C448 1.404 . S
C447 H461 0.929 . S
C448 C447 1.404 . S
C448 C449 1.389 . S
C449 C448 1.389 . S
C449 C450 1.399 . S
C449 H462 0.931 . S
C450 C449 1.399 . S
C450 C451 1.390 . S
C451 C446 1.392 . S
C451 C450 1.390 . S
C451 H463 0.929 . S
O452 Tb436 2.326 . S
O452 C440 1.242 . S
O453 Eu437 2.324 . S
O453 C440 1.258 . S
O454 Tb436 2.500 . S
O454 C456 1.273 . S
O455 Tb436 2.473 . S
O455 C456 1.257 . S
C456 O454 1.273 . S
C456 O455 1.257 . S
O457 Eu437 2.326 . S
O457 C445 1.242 1_545 S
O458 Tb436 2.324 1_565 S
O458 C445 1.258 . S
O459 Eu437 2.500 . S
O459 C442 1.273 . S
O460 Eu437 2.473 . S
O460 C442 1.257 . S
H461 C447 0.929 . S
H462 C449 0.931 . S
H463 C451 0.929 . S
C464 C465 1.391 . S
C464 C466 1.394 . S
C464 H480 0.931 . S
C465 C464 1.391 . S
C465 C469 1.376 . S
C466 C464 1.394 . S
C466 C467 1.369 . S
C466 C470 1.531 . S
C467 C466 1.369 . S
C467 C468 1.410 . S
C467 C475 1.503 . S
C468 C467 1.410 . S
C468 C469 1.392 . S
C468 C471 1.511 . S
C469 C465 1.376 . S
C469 C468 1.392 . S
C469 H481 0.929 . S
C470 C466 1.531 . S
C470 H482 0.960 . S
C470 H483 0.962 . S
C470 H484 0.960 . S
C471 C468 1.511 . S
C471 H485 0.961 . S
C471 H486 0.961 . S
C471 H487 0.961 . S
C472 C473 1.370 . S
C472 C474 1.363 . S
C472 H488 0.931 . S
C473 C472 1.370 . S
C473 C477 1.408 . S
C474 C472 1.363 . S
C474 C475 1.370 . S
C474 C478 1.524 . S
C475 C467 1.503 . S
C475 C474 1.370 . S
C475 C476 1.403 . S
C476 C475 1.403 . S
C476 C477 1.404 . S
C476 C479 1.539 . S
C477 C473 1.408 . S
C477 C476 1.404 . S
C477 H489 0.930 . S
C478 C474 1.524 . S
C478 H490 0.956 . S
C478 H491 0.961 . S
C478 H492 0.961 . S
C479 C476 1.539 . S
C479 H493 0.958 . S
C479 H494 0.961 . S
C479 H495 0.960 . S
H480 C464 0.931 . S
H481 C469 0.929 . S
H482 C470 0.960 . S
H483 C470 0.962 . S
H484 C470 0.960 . S
H485 C471 0.961 . S
H486 C471 0.961 . S
H487 C471 0.961 . S
H488 C472 0.931 . S
H489 C477 0.930 . S
H490 C478 0.956 . S
H491 C478 0.961 . S
H492 C478 0.961 . S
H493 C479 0.958 . S
H494 C479 0.961 . S
H495 C479 0.960 . S
C496 C497 1.391 . S
C496 C498 1.394 . S
C496 H512 0.931 . S
C497 C496 1.391 . S
C497 C501 1.376 . S
C498 C496 1.394 . S
C498 C499 1.369 . S
C498 C502 1.531 . S
C499 C498 1.369 . S
C499 C500 1.410 . S
C499 C507 1.503 . S
C500 C499 1.410 . S
C500 C501 1.392 . S
C500 C503 1.511 . S
C501 C497 1.376 . S
C501 C500 1.392 . S
C501 H513 0.929 . S
C502 C498 1.531 . S
C502 H514 0.960 . S
C502 H515 0.962 . S
C502 H516 0.960 . S
C503 C500 1.511 . S
C503 H517 0.961 . S
C503 H518 0.961 . S
C503 H519 0.961 . S
C504 C505 1.370 . S
C504 C506 1.363 . S
C504 H520 0.931 . S
C505 C504 1.370 . S
C505 C509 1.408 . S
C506 C504 1.363 . S
C506 C507 1.370 . S
C506 C510 1.524 . S
C507 C499 1.503 . S
C507 C506 1.370 . S
C507 C508 1.403 . S
C508 C507 1.403 . S
C508 C509 1.404 . S
C508 C511 1.539 . S
C509 C505 1.408 . S
C509 C508 1.404 . S
C509 H521 0.930 . S
C510 C506 1.524 . S
C510 H522 0.956 . S
C510 H523 0.961 . S
C510 H524 0.961 . S
C511 C508 1.539 . S
C511 H525 0.958 . S
C511 H526 0.961 . S
C511 H527 0.960 . S
H512 C496 0.931 . S
H513 C501 0.929 . S
H514 C502 0.960 . S
H515 C502 0.962 . S
H516 C502 0.960 . S
H517 C503 0.961 . S
H518 C503 0.961 . S
H519 C503 0.961 . S
H520 C504 0.931 . S
H521 C509 0.930 . S
H522 C510 0.956 . S
H523 C510 0.961 . S
H524 C510 0.961 . S
H525 C511 0.958 . S
H526 C511 0.961 . S
H527 C511 0.960 . S
C528 C529 1.391 . S
C528 C530 1.394 . S
C528 H544 0.931 . S
C529 C528 1.391 . S
C529 C533 1.376 . S
C530 C528 1.394 . S
C530 C531 1.369 . S
C530 C534 1.531 . S
C531 C530 1.369 . S
C531 C532 1.410 . S
C531 C539 1.503 . S
C532 C531 1.410 . S
C532 C533 1.392 . S
C532 C535 1.511 . S
C533 C529 1.376 . S
C533 C532 1.392 . S
C533 H545 0.929 . S
C534 C530 1.531 . S
C534 H546 0.960 . S
C534 H547 0.962 . S
C534 H548 0.960 . S
C535 C532 1.511 . S
C535 H549 0.961 . S
C535 H550 0.961 . S
C535 H551 0.961 . S
C536 C537 1.370 . S
C536 C538 1.363 . S
C536 H552 0.931 . S
C537 C536 1.370 . S
C537 C541 1.408 . S
C538 C536 1.363 . S
C538 C539 1.370 . S
C538 C542 1.524 . S
C539 C531 1.503 . S
C539 C538 1.370 . S
C539 C540 1.403 . S
C540 C539 1.403 . S
C540 C541 1.404 . S
C540 C543 1.539 . S
C541 C537 1.408 . S
C541 C540 1.404 . S
C541 H553 0.930 . S
C542 C538 1.524 . S
C542 H554 0.956 . S
C542 H555 0.961 . S
C542 H556 0.961 . S
C543 C540 1.539 . S
C543 H557 0.958 . S
C543 H558 0.961 . S
C543 H559 0.960 . S
H544 C528 0.931 . S
H545 C533 0.929 . S
H546 C534 0.960 . S
H547 C534 0.962 . S
H548 C534 0.960 . S
H549 C535 0.961 . S
H550 C535 0.961 . S
H551 C535 0.961 . S
H552 C536 0.931 . S
H553 C541 0.930 . S
H554 C542 0.956 . S
H555 C542 0.961 . S
H556 C542 0.961 . S
H557 C543 0.958 . S
H558 C543 0.961 . S
H559 C543 0.960 . S
C560 C561 1.391 . S
C560 C562 1.394 . S
C560 H576 0.931 . S
C561 C560 1.391 . S
C561 C565 1.376 . S
C562 C560 1.394 . S
C562 C563 1.369 . S
C562 C566 1.531 . S
C563 C562 1.369 . S
C563 C564 1.410 . S
C563 C571 1.503 . S
C564 C563 1.410 . S
C564 C565 1.392 . S
C564 C567 1.511 . S
C565 C561 1.376 . S
C565 C564 1.392 . S
C565 H577 0.929 . S
C566 C562 1.531 . S
C566 H578 0.960 . S
C566 H579 0.962 . S
C566 H580 0.960 . S
C567 C564 1.511 . S
C567 H581 0.961 . S
C567 H582 0.961 . S
C567 H583 0.961 . S
C568 C569 1.370 . S
C568 C570 1.363 . S
C568 H584 0.931 . S
C569 C568 1.370 . S
C569 C573 1.408 . S
C570 C568 1.363 . S
C570 C571 1.370 . S
C570 C574 1.524 . S
C571 C563 1.503 . S
C571 C570 1.370 . S
C571 C572 1.403 . S
C572 C571 1.403 . S
C572 C573 1.404 . S
C572 C575 1.539 . S
C573 C569 1.408 . S
C573 C572 1.404 . S
C573 H585 0.930 . S
C574 C570 1.524 . S
C574 H586 0.956 . S
C574 H587 0.961 . S
C574 H588 0.961 . S
C575 C572 1.539 . S
C575 H589 0.958 . S
C575 H590 0.961 . S
C575 H591 0.960 . S
H576 C560 0.931 . S
H577 C565 0.929 . S
H578 C566 0.960 . S
H579 C566 0.962 . S
H580 C566 0.960 . S
H581 C567 0.961 . S
H582 C567 0.961 . S
H583 C567 0.961 . S
H584 C568 0.931 . S
H585 C573 0.930 . S
H586 C574 0.956 . S
H587 C574 0.961 . S
H588 C574 0.961 . S
H589 C575 0.958 . S
H590 C575 0.961 . S
H591 C575 0.960 . S
C592 C593 1.391 . S
C592 C594 1.394 . S
C592 H608 0.931 . S
C593 C592 1.391 . S
C593 C597 1.376 . S
C594 C592 1.394 . S
C594 C595 1.369 . S
C594 C598 1.531 . S
C595 C594 1.369 . S
C595 C596 1.410 . S
C595 C603 1.503 . S
C596 C595 1.410 . S
C596 C597 1.392 . S
C596 C599 1.511 . S
C597 C593 1.376 . S
C597 C596 1.392 . S
C597 H609 0.929 . S
C598 C594 1.531 . S
C598 H610 0.960 . S
C598 H611 0.962 . S
C598 H612 0.960 . S
C599 C596 1.511 . S
C599 H613 0.961 . S
C599 H614 0.961 . S
C599 H615 0.961 . S
C600 C601 1.370 . S
C600 C602 1.363 . S
C600 H616 0.931 . S
C601 C600 1.370 . S
C601 C605 1.408 . S
C602 C600 1.363 . S
C602 C603 1.370 . S
C602 C606 1.524 . S
C603 C595 1.503 . S
C603 C602 1.370 . S
C603 C604 1.403 . S
C604 C603 1.403 . S
C604 C605 1.404 . S
C604 C607 1.539 . S
C605 C601 1.408 . S
C605 C604 1.404 . S
C605 H617 0.930 . S
C606 C602 1.524 . S
C606 H618 0.956 . S
C606 H619 0.961 . S
C606 H620 0.961 . S
C607 C604 1.539 . S
C607 H621 0.958 . S
C607 H622 0.961 . S
C607 H623 0.960 . S
H608 C592 0.931 . S
H609 C597 0.929 . S
H610 C598 0.960 . S
H611 C598 0.962 . S
H612 C598 0.960 . S
H613 C599 0.961 . S
H614 C599 0.961 . S
H615 C599 0.961 . S
H616 C600 0.931 . S
H617 C605 0.930 . S
H618 C606 0.956 . S
H619 C606 0.961 . S
H620 C606 0.961 . S
H621 C607 0.958 . S
H622 C607 0.961 . S
H623 C607 0.960 . S
C624 C625 1.391 . S
C624 C626 1.394 . S
C624 H640 0.931 . S
C625 C624 1.391 . S
C625 C629 1.376 . S
C626 C624 1.394 . S
C626 C627 1.369 . S
C626 C630 1.531 . S
C627 C626 1.369 . S
C627 C628 1.410 . S
C627 C635 1.503 . S
C628 C627 1.410 . S
C628 C629 1.392 . S
C628 C631 1.511 . S
C629 C625 1.376 . S
C629 C628 1.392 . S
C629 H641 0.929 . S
C630 C626 1.531 . S
C630 H642 0.960 . S
C630 H643 0.962 . S
C630 H644 0.960 . S
C631 C628 1.511 . S
C631 H645 0.961 . S
C631 H646 0.961 . S
C631 H647 0.961 . S
C632 C633 1.370 . S
C632 C634 1.363 . S
C632 H648 0.931 . S
C633 C632 1.370 . S
C633 C637 1.408 . S
C634 C632 1.363 . S
C634 C635 1.370 . S
C634 C638 1.524 . S
C635 C627 1.503 . S
C635 C634 1.370 . S
C635 C636 1.403 . S
C636 C635 1.403 . S
C636 C637 1.404 . S
C636 C639 1.539 . S
C637 C633 1.408 . S
C637 C636 1.404 . S
C637 H649 0.930 . S
C638 C634 1.524 . S
C638 H650 0.956 . S
C638 H651 0.961 . S
C638 H652 0.961 . S
C639 C636 1.539 . S
C639 H653 0.958 . S
C639 H654 0.961 . S
C639 H655 0.960 . S
H640 C624 0.931 . S
H641 C629 0.929 . S
H642 C630 0.960 . S
H643 C630 0.962 . S
H644 C630 0.960 . S
H645 C631 0.961 . S
H646 C631 0.961 . S
H647 C631 0.961 . S
H648 C632 0.931 . S
H649 C637 0.930 . S
H650 C638 0.956 . S
H651 C638 0.961 . S
H652 C638 0.961 . S
H653 C639 0.958 . S
H654 C639 0.961 . S
H655 C639 0.960 . S
C656 C657 1.391 . S
C656 C658 1.394 . S
C656 H672 0.931 . S
C657 C656 1.391 . S
C657 C661 1.376 . S
C658 C656 1.394 . S
C658 C659 1.369 . S
C658 C662 1.531 . S
C659 C658 1.369 . S
C659 C660 1.410 . S
C659 C667 1.503 . S
C660 C659 1.410 . S
C660 C661 1.392 . S
C660 C663 1.511 . S
C661 C657 1.376 . S
C661 C660 1.392 . S
C661 H673 0.929 . S
C662 C658 1.531 . S
C662 H674 0.960 . S
C662 H675 0.962 . S
C662 H676 0.960 . S
C663 C660 1.511 . S
C663 H677 0.961 . S
C663 H678 0.961 . S
C663 H679 0.961 . S
C664 C665 1.370 . S
C664 C666 1.363 . S
C664 H680 0.931 . S
C665 C664 1.370 . S
C665 C669 1.408 . S
C666 C664 1.363 . S
C666 C667 1.370 . S
C666 C670 1.524 . S
C667 C659 1.503 . S
C667 C666 1.370 . S
C667 C668 1.403 . S
C668 C667 1.403 . S
C668 C669 1.404 . S
C668 C671 1.539 . S
C669 C665 1.408 . S
C669 C668 1.404 . S
C669 H681 0.930 . S
C670 C666 1.524 . S
C670 H682 0.956 . S
C670 H683 0.961 . S
C670 H684 0.961 . S
C671 C668 1.539 . S
C671 H685 0.958 . S
C671 H686 0.961 . S
C671 H687 0.960 . S
H672 C656 0.931 . S
H673 C661 0.929 . S
H674 C662 0.960 . S
H675 C662 0.962 . S
H676 C662 0.960 . S
H677 C663 0.961 . S
H678 C663 0.961 . S
H679 C663 0.961 . S
H680 C664 0.931 . S
H681 C669 0.930 . S
H682 C670 0.956 . S
H683 C670 0.961 . S
H684 C670 0.961 . S
H685 C671 0.958 . S
H686 C671 0.961 . S
H687 C671 0.960 . S
C688 C689 1.391 . S
C688 C690 1.394 . S
C688 H704 0.931 . S
C689 C688 1.391 . S
C689 C693 1.376 . S
C690 C688 1.394 . S
C690 C691 1.369 . S
C690 C694 1.531 . S
C691 C690 1.369 . S
C691 C692 1.410 . S
C691 C699 1.503 . S
C692 C691 1.410 . S
C692 C693 1.392 . S
C692 C695 1.511 . S
C693 C689 1.376 . S
C693 C692 1.392 . S
C693 H705 0.929 . S
C694 C690 1.531 . S
C694 H706 0.960 . S
C694 H707 0.962 . S
C694 H708 0.960 . S
C695 C692 1.511 . S
C695 H709 0.961 . S
C695 H710 0.961 . S
C695 H711 0.961 . S
C696 C697 1.370 . S
C696 C698 1.363 . S
C696 H712 0.931 . S
C697 C696 1.370 . S
C697 C701 1.408 . S
C698 C696 1.363 . S
C698 C699 1.370 . S
C698 C702 1.524 . S
C699 C691 1.503 . S
C699 C698 1.370 . S
C699 C700 1.403 . S
C700 C699 1.403 . S
C700 C701 1.404 . S
C700 C703 1.539 . S
C701 C697 1.408 . S
C701 C700 1.404 . S
C701 H713 0.930 . S
C702 C698 1.524 . S
C702 H714 0.956 . S
C702 H715 0.961 . S
C702 H716 0.961 . S
C703 C700 1.539 . S
C703 H717 0.958 . S
C703 H718 0.961 . S
C703 H719 0.960 . S
H704 C688 0.931 . S
H705 C693 0.929 . S
H706 C694 0.960 . S
H707 C694 0.962 . S
H708 C694 0.960 . S
H709 C695 0.961 . S
H710 C695 0.961 . S
H711 C695 0.961 . S
H712 C696 0.931 . S
H713 C701 0.930 . S
H714 C702 0.956 . S
H715 C702 0.961 . S
H716 C702 0.961 . S
H717 C703 0.958 . S
H718 C703 0.961 . S
H719 C703 0.960 . S
C720 C721 1.391 . S
C720 C722 1.394 . S
C720 H736 0.931 . S
C721 C720 1.391 . S
C721 C725 1.376 . S
C722 C720 1.394 . S
C722 C723 1.369 . S
C722 C726 1.531 . S
C723 C722 1.369 . S
C723 C724 1.410 . S
C723 C731 1.503 . S
C724 C723 1.410 . S
C724 C725 1.392 . S
C724 C727 1.511 . S
C725 C721 1.376 . S
C725 C724 1.392 . S
C725 H737 0.929 . S
C726 C722 1.531 . S
C726 H738 0.960 . S
C726 H739 0.962 . S
C726 H740 0.960 . S
C727 C724 1.511 . S
C727 H741 0.961 . S
C727 H742 0.961 . S
C727 H743 0.961 . S
C728 C729 1.370 . S
C728 C730 1.363 . S
C728 H744 0.931 . S
C729 C728 1.370 . S
C729 C733 1.408 . S
C730 C728 1.363 . S
C730 C731 1.370 . S
C730 C734 1.524 . S
C731 C723 1.503 . S
C731 C730 1.370 . S
C731 C732 1.403 . S
C732 C731 1.403 . S
C732 C733 1.404 . S
C732 C735 1.539 . S
C733 C729 1.408 . S
C733 C732 1.404 . S
C733 H745 0.930 . S
C734 C730 1.524 . S
C734 H746 0.956 . S
C734 H747 0.961 . S
C734 H748 0.961 . S
C735 C732 1.539 . S
C735 H749 0.958 . S
C735 H750 0.961 . S
C735 H751 0.960 . S
H736 C720 0.931 . S
H737 C725 0.929 . S
H738 C726 0.960 . S
H739 C726 0.962 . S
H740 C726 0.960 . S
H741 C727 0.961 . S
H742 C727 0.961 . S
H743 C727 0.961 . S
H744 C728 0.931 . S
H745 C733 0.930 . S
H746 C734 0.956 . S
H747 C734 0.961 . S
H748 C734 0.961 . S
H749 C735 0.958 . S
H750 C735 0.961 . S
H751 C735 0.960 . S
C752 C753 1.391 1_565 S
C752 C754 1.394 . S
C752 H768 0.931 . S
C753 C752 1.391 1_545 S
C753 C757 1.376 . S
C754 C752 1.394 . S
C754 C755 1.369 . S
C754 C758 1.531 . S
C755 C754 1.369 . S
C755 C756 1.423 . S
C755 C763 1.503 . S
C756 C755 1.423 . S
C756 C757 1.382 1_565 S
C756 C759 1.509 1_565 S
C757 C753 1.376 . S
C757 C756 1.382 1_545 S
C757 H769 0.929 . S
C758 C754 1.531 . S
C758 H770 0.960 . S
C758 H771 0.962 . S
C758 H772 0.960 . S
C759 C756 1.509 1_545 S
C759 H773 0.961 . S
C759 H774 0.961 1_545 S
C759 H775 0.961 . S
C760 C761 1.370 . S
C760 C762 1.363 . S
C760 H776 0.931 . S
C761 C760 1.370 . S
C761 C765 1.408 . S
C762 C760 1.363 . S
C762 C763 1.370 . S
C762 C766 1.524 . S
C763 C755 1.503 . S
C763 C762 1.370 . S
C763 C764 1.403 . S
C764 C763 1.403 . S
C764 C765 1.404 . S
C764 C767 1.539 1_565 S
C765 C761 1.408 . S
C765 C764 1.404 . S
C765 H777 0.930 . S
C766 C762 1.524 . S
C766 H778 0.956 . S
C766 H779 0.961 . S
C766 H780 0.961 . S
C767 C764 1.539 1_545 S
C767 H781 0.958 . S
C767 H782 0.961 . S
C767 H783 0.960 . S
H768 C752 0.931 . S
H769 C757 0.929 . S
H770 C758 0.960 . S
H771 C758 0.962 . S
H772 C758 0.960 . S
H773 C759 0.961 . S
H774 C759 0.961 1_565 S
H775 C759 0.961 . S
H776 C760 0.931 . S
H777 C765 0.930 . S
H778 C766 0.956 . S
H779 C766 0.961 . S
H780 C766 0.961 . S
H781 C767 0.958 . S
H782 C767 0.961 . S
H783 C767 0.960 . S
C784 C785 1.391 . S
C784 C786 1.394 . S
C784 H800 0.931 . S
C785 C784 1.391 . S
C785 C789 1.376 . S
C786 C784 1.394 . S
C786 C787 1.369 . S
C786 C790 1.531 . S
C787 C786 1.369 . S
C787 C788 1.410 . S
C787 C795 1.503 . S
C788 C787 1.410 . S
C788 C789 1.392 . S
C788 C791 1.511 . S
C789 C785 1.376 . S
C789 C788 1.392 . S
C789 H801 0.929 . S
C790 C786 1.531 . S
C790 H802 0.960 . S
C790 H803 0.962 . S
C790 H804 0.960 . S
C791 C788 1.511 . S
C791 H805 0.961 . S
C791 H806 0.961 . S
C791 H807 0.961 . S
C792 C793 1.370 . S
C792 C794 1.363 . S
C792 H808 0.931 . S
C793 C792 1.370 . S
C793 C797 1.408 . S
C794 C792 1.363 . S
C794 C795 1.370 . S
C794 C798 1.524 . S
C795 C787 1.503 . S
C795 C794 1.370 . S
C795 C796 1.403 . S
C796 C795 1.403 . S
C796 C797 1.404 . S
C796 C799 1.539 . S
C797 C793 1.408 . S
C797 C796 1.404 . S
C797 H809 0.930 . S
C798 C794 1.524 . S
C798 H810 0.956 . S
C798 H811 0.961 . S
C798 H812 0.961 . S
C799 C796 1.539 . S
C799 H813 0.958 . S
C799 H814 0.961 . S
C799 H815 0.960 . S
H800 C784 0.931 . S
H801 C789 0.929 . S
H802 C790 0.960 . S
H803 C790 0.962 . S
H804 C790 0.960 . S
H805 C791 0.961 . S
H806 C791 0.961 . S
H807 C791 0.961 . S
H808 C792 0.931 . S
H809 C797 0.930 . S
H810 C798 0.956 . S
H811 C798 0.961 . S
H812 C798 0.961 . S
H813 C799 0.958 . S
H814 C799 0.961 . S
H815 C799 0.960 . S
C816 C817 1.391 . S
C816 C818 1.394 . S
C816 H832 0.931 . S
C817 C816 1.391 . S
C817 C821 1.376 . S
C818 C816 1.394 . S
C818 C819 1.369 . S
C818 C822 1.531 . S
C819 C818 1.369 . S
C819 C820 1.410 . S
C819 C827 1.503 . S
C820 C819 1.410 . S
C820 C821 1.392 . S
C820 C823 1.511 . S
C821 C817 1.376 . S
C821 C820 1.392 . S
C821 H833 0.929 . S
C822 C818 1.531 . S
C822 H834 0.960 . S
C822 H835 0.962 . S
C822 H836 0.960 . S
C823 C820 1.511 . S
C823 H837 0.961 . S
C823 H838 0.961 . S
C823 H839 0.961 . S
C824 C825 1.370 1_545 S
C824 C826 1.363 . S
C824 H840 0.931 . S
C825 C824 1.370 1_565 S
C825 C829 1.408 . S
C826 C824 1.363 . S
C826 C827 1.370 . S
C826 C830 1.524 . S
C827 C819 1.503 . S
C827 C826 1.370 . S
C827 C828 1.403 1_545 S
C828 C827 1.403 1_565 S
C828 C829 1.404 . S
C828 C831 1.539 . S
C829 C825 1.408 . S
C829 C828 1.404 . S
C829 H841 0.930 . S
C830 C826 1.524 . S
C830 H842 0.956 . S
C830 H843 0.961 . S
C830 H844 0.961 . S
C831 C828 1.539 . S
C831 H845 0.958 . S
C831 H846 0.961 . S
C831 H847 0.960 . S
H832 C816 0.931 . S
H833 C821 0.929 . S
H834 C822 0.960 . S
H835 C822 0.962 . S
H836 C822 0.960 . S
H837 C823 0.961 . S
H838 C823 0.961 . S
H839 C823 0.961 . S
H840 C824 0.931 . S
H841 C829 0.930 . S
H842 C830 0.956 . S
H843 C830 0.961 . S
H844 C830 0.961 . S
H845 C831 0.958 . S
H846 C831 0.961 . S
H847 C831 0.960 . S
C848 C849 1.391 . S
C848 C850 1.394 . S
C848 H864 0.931 . S
C849 C848 1.391 . S
C849 C853 1.376 . S
C850 C848 1.394 . S
C850 C851 1.369 . S
C850 C854 1.531 . S
C851 C850 1.369 . S
C851 C852 1.410 . S
C851 C859 1.503 . S
C852 C851 1.410 . S
C852 C853 1.392 . S
C852 C855 1.511 . S
C853 C849 1.376 . S
C853 C852 1.392 . S
C853 H865 0.929 . S
C854 C850 1.531 . S
C854 H866 0.960 . S
C854 H867 0.962 . S
C854 H868 0.960 . S
C855 C852 1.511 . S
C855 H869 0.961 . S
C855 H870 0.961 . S
C855 H871 0.961 . S
C856 C857 1.370 . S
C856 C858 1.363 . S
C856 H872 0.931 . S
C857 C856 1.370 . S
C857 C861 1.408 . S
C858 C856 1.363 . S
C858 C859 1.370 . S
C858 C862 1.524 . S
C859 C851 1.503 . S
C859 C858 1.370 . S
C859 C860 1.403 . S
C860 C859 1.403 . S
C860 C861 1.404 . S
C860 C863 1.539 . S
C861 C857 1.408 . S
C861 C860 1.404 . S
C861 H873 0.930 . S
C862 C858 1.524 . S
C862 H874 0.956 . S
C862 H875 0.961 . S
C862 H876 0.961 . S
C863 C860 1.539 . S
C863 H877 0.958 . S
C863 H878 0.961 . S
C863 H879 0.960 . S
H864 C848 0.931 . S
H865 C853 0.929 . S
H866 C854 0.960 . S
H867 C854 0.962 . S
H868 C854 0.960 . S
H869 C855 0.961 . S
H870 C855 0.961 . S
H871 C855 0.961 . S
H872 C856 0.931 . S
H873 C861 0.930 . S
H874 C862 0.956 . S
H875 C862 0.961 . S
H876 C862 0.961 . S
H877 C863 0.958 . S
H878 C863 0.961 . S
H879 C863 0.960 . S
C880 C881 1.391 . S
C880 C882 1.394 . S
C880 H896 0.931 . S
C881 C880 1.391 . S
C881 C885 1.376 1_565 S
C882 C880 1.394 . S
C882 C883 1.369 1_565 S
C882 C886 1.531 . S
C883 C882 1.369 1_545 S
C883 C884 1.410 . S
C883 C891 1.503 . S
C884 C883 1.410 . S
C884 C885 1.392 . S
C884 C887 1.511 . S
C885 C881 1.376 1_545 S
C885 C884 1.392 . S
C885 H897 0.929 . S
C886 C882 1.531 . S
C886 H898 0.960 . S
C886 H899 0.962 . S
C886 H900 0.960 . S
C887 C884 1.511 . S
C887 H901 0.961 . S
C887 H902 0.961 . S
C887 H903 0.961 . S
C888 C889 1.370 . S
C888 C890 1.363 . S
C888 H904 0.931 . S
C889 C888 1.370 . S
C889 C893 1.408 . S
C890 C888 1.363 . S
C890 C891 1.370 . S
C890 C894 1.524 . S
C891 C883 1.503 . S
C891 C890 1.370 . S
C891 C892 1.403 . S
C892 C891 1.403 . S
C892 C893 1.404 . S
C892 C895 1.539 . S
C893 C889 1.408 . S
C893 C892 1.404 . S
C893 H905 0.930 . S
C894 C890 1.524 . S
C894 H906 0.956 . S
C894 H907 0.961 . S
C894 H908 0.961 . S
C895 C892 1.539 . S
C895 H909 0.958 . S
C895 H910 0.961 . S
C895 H911 0.960 . S
H896 C880 0.931 . S
H897 C885 0.929 . S
H898 C886 0.960 . S
H899 C886 0.962 . S
H900 C886 0.960 . S
H901 C887 0.961 . S
H902 C887 0.961 . S
H903 C887 0.961 . S
H904 C888 0.931 . S
H905 C893 0.930 . S
H906 C894 0.956 . S
H907 C894 0.961 . S
H908 C894 0.961 . S
H909 C895 0.958 . S
H910 C895 0.961 . S
H911 C895 0.960 . S
C912 C913 1.391 . S
C912 C914 1.394 . S
C912 H928 0.931 . S
C913 C912 1.391 . S
C913 C917 1.376 . S
C914 C912 1.394 . S
C914 C915 1.369 . S
C914 C918 1.531 . S
C915 C914 1.369 . S
C915 C916 1.410 . S
C915 C923 1.503 . S
C916 C915 1.410 . S
C916 C917 1.392 . S
C916 C919 1.511 . S
C917 C913 1.376 . S
C917 C916 1.392 . S
C917 H929 0.929 . S
C918 C914 1.531 . S
C918 H930 0.960 . S
C918 H931 0.962 . S
C918 H932 0.960 . S
C919 C916 1.511 . S
C919 H933 0.961 . S
C919 H934 0.961 . S
C919 H935 0.961 . S
C920 C921 1.370 . S
C920 C922 1.363 . S
C920 H936 0.931 . S
C921 C920 1.370 . S
C921 C925 1.408 . S
C922 C920 1.363 . S
C922 C923 1.370 . S
C922 C926 1.524 . S
C923 C915 1.503 . S
C923 C922 1.370 . S
C923 C924 1.403 . S
C924 C923 1.403 . S
C924 C925 1.404 . S
C924 C927 1.539 . S
C925 C921 1.408 . S
C925 C924 1.404 . S
C925 H937 0.930 . S
C926 C922 1.524 . S
C926 H938 0.956 . S
C926 H939 0.961 . S
C926 H940 0.961 . S
C927 C924 1.539 . S
C927 H941 0.958 . S
C927 H942 0.961 . S
C927 H943 0.960 . S
H928 C912 0.931 . S
H929 C917 0.929 . S
H930 C918 0.960 . S
H931 C918 0.962 . S
H932 C918 0.960 . S
H933 C919 0.961 . S
H934 C919 0.961 . S
H935 C919 0.961 . S
H936 C920 0.931 . S
H937 C925 0.930 . S
H938 C926 0.956 . S
H939 C926 0.961 . S
H940 C926 0.961 . S
H941 C927 0.958 . S
H942 C927 0.961 . S
H943 C927 0.960 . S
C944 C945 1.391 . S
C944 C946 1.394 . S
C944 H960 0.931 . S
C945 C944 1.391 . S
C945 C949 1.376 . S
C946 C944 1.394 . S
C946 C947 1.369 . S
C946 C950 1.531 . S
C947 C946 1.369 . S
C947 C948 1.410 . S
C947 C955 1.503 . S
C948 C947 1.410 . S
C948 C949 1.392 . S
C948 C951 1.511 . S
C949 C945 1.376 . S
C949 C948 1.392 . S
C949 H961 0.929 . S
C950 C946 1.531 . S
C950 H962 0.960 . S
C950 H963 0.962 . S
C950 H964 0.960 . S
C951 C948 1.511 . S
C951 H965 0.961 . S
C951 H966 0.961 . S
C951 H967 0.961 1_565 S
C952 C953 1.370 1_565 S
C952 C954 1.363 . S
C952 H968 0.931 . S
C953 C952 1.370 1_545 S
C953 C957 1.408 . S
C954 C952 1.363 . S
C954 C955 1.370 . S
C954 C958 1.524 . S
C955 C947 1.503 . S
C955 C954 1.370 . S
C955 C956 1.403 1_565 S
C956 C955 1.403 1_545 S
C956 C957 1.404 . S
C956 C959 1.539 . S
C957 C953 1.408 . S
C957 C956 1.404 . S
C957 H969 0.930 . S
C958 C954 1.524 . S
C958 H970 0.956 . S
C958 H971 0.961 . S
C958 H972 0.961 . S
C959 C956 1.539 . S
C959 H973 0.958 . S
C959 H974 0.961 . S
C959 H975 0.960 . S
H960 C944 0.931 . S
H961 C949 0.929 . S
H962 C950 0.960 . S
H963 C950 0.962 . S
H964 C950 0.960 . S
H965 C951 0.961 . S
H966 C951 0.961 . S
H967 C951 0.961 1_545 S
H968 C952 0.931 . S
H969 C957 0.930 . S
H970 C958 0.956 . S
H971 C958 0.961 . S
H972 C958 0.961 . S
H973 C959 0.958 . S
H974 C959 0.961 . S
H975 C959 0.960 . S
C976 C977 1.392 1_556 S
C976 C978 1.393 . S
C976 H992 0.930 . S
C977 C976 1.392 1_554 S
C977 C981 1.376 . S
C978 C976 1.393 . S
C978 C979 1.369 1_556 S
C978 C982 1.531 . S
C979 C978 1.369 1_554 S
C979 C980 1.410 . S
C979 C987 1.503 1_554 S
C980 C979 1.410 . S
C980 C981 1.392 . S
C980 C983 1.511 . S
C981 C977 1.376 . S
C981 C980 1.392 . S
C981 H993 0.929 . S
C982 C978 1.531 . S
C982 H994 0.960 . S
C982 H995 0.962 . S
C982 H996 0.960 . S
C983 C980 1.511 . S
C983 H997 0.961 . S
C983 H998 0.961 . S
C983 H999 0.961 . S
C984 C985 1.370 . S
C984 C986 1.363 . S
C984 H1000 0.931 . S
C985 C984 1.370 . S
C985 C989 1.408 . S
C986 C984 1.363 . S
C986 C987 1.370 . S
C986 C990 1.524 . S
C987 C979 1.503 1_556 S
C987 C986 1.370 . S
C987 C988 1.403 . S
C988 C987 1.403 . S
C988 C989 1.404 . S
C988 C991 1.539 1_556 S
C989 C985 1.408 . S
C989 C988 1.404 . S
C989 H1001 0.930 . S
C990 C986 1.524 . S
C990 H1002 0.956 . S
C990 H1003 0.961 . S
C990 H1004 0.961 . S
C991 C988 1.539 1_554 S
C991 H1005 0.958 1_554 S
C991 H1006 0.961 . S
C991 H1007 0.960 . S
H992 C976 0.930 . S
H993 C981 0.929 . S
H994 C982 0.960 . S
H995 C982 0.962 . S
H996 C982 0.960 . S
H997 C983 0.961 . S
H998 C983 0.961 . S
H999 C983 0.961 . S
H1000 C984 0.931 . S
H1001 C989 0.930 . S
H1002 C990 0.956 . S
H1003 C990 0.961 . S
H1004 C990 0.961 . S
H1005 C991 0.958 1_556 S
H1006 C991 0.961 . S
H1007 C991 0.960 . S
C1008 C1009 1.391 . S
C1008 C1010 1.394 . S
C1008 H1024 0.931 . S
C1009 C1008 1.391 . S
C1009 C1013 1.376 . S
C1010 C1008 1.394 . S
C1010 C1011 1.369 . S
C1010 C1014 1.531 . S
C1011 C1010 1.369 . S
C1011 C1012 1.410 . S
C1011 C1019 1.503 . S
C1012 C1011 1.410 . S
C1012 C1013 1.392 . S
C1012 C1015 1.511 . S
C1013 C1009 1.376 . S
C1013 C1012 1.392 . S
C1013 H1025 0.929 . S
C1014 C1010 1.531 . S
C1014 H1026 0.960 . S
C1014 H1027 0.962 . S
C1014 H1028 0.960 . S
C1015 C1012 1.511 . S
C1015 H1029 0.961 . S
C1015 H1030 0.961 . S
C1015 H1031 0.961 . S
C1016 C1017 1.370 . S
C1016 C1018 1.363 . S
C1016 H1032 0.931 . S
C1017 C1016 1.370 . S
C1017 C1021 1.408 . S
C1018 C1016 1.363 . S
C1018 C1019 1.370 . S
C1018 C1022 1.524 . S
C1019 C1011 1.503 . S
C1019 C1018 1.370 . S
C1019 C1020 1.403 . S
C1020 C1019 1.403 . S
C1020 C1021 1.404 . S
C1020 C1023 1.539 . S
C1021 C1017 1.408 . S
C1021 C1020 1.404 . S
C1021 H1033 0.930 . S
C1022 C1018 1.524 . S
C1022 H1034 0.956 . S
C1022 H1035 0.961 . S
C1022 H1036 0.961 . S
C1023 C1020 1.539 . S
C1023 H1037 0.958 . S
C1023 H1038 0.961 . S
C1023 H1039 0.960 . S
H1024 C1008 0.931 . S
H1025 C1013 0.929 . S
H1026 C1014 0.960 . S
H1027 C1014 0.962 . S
H1028 C1014 0.960 . S
H1029 C1015 0.961 . S
H1030 C1015 0.961 . S
H1031 C1015 0.961 . S
H1032 C1016 0.931 . S
H1033 C1021 0.930 . S
H1034 C1022 0.956 . S
H1035 C1022 0.961 . S
H1036 C1022 0.961 . S
H1037 C1023 0.958 . S
H1038 C1023 0.961 . S
H1039 C1023 0.960 . S
C1040 C1041 1.391 . S
C1040 C1042 1.394 . S
C1040 H1056 0.931 . S
C1041 C1040 1.391 . S
C1041 C1045 1.376 . S
C1042 C1040 1.394 . S
C1042 C1043 1.369 . S
C1042 C1046 1.531 . S
C1043 C1042 1.369 . S
C1043 C1044 1.410 . S
C1043 C1051 1.503 . S
C1044 C1043 1.410 . S
C1044 C1045 1.392 . S
C1044 C1047 1.511 . S
C1045 C1041 1.376 . S
C1045 C1044 1.392 . S
C1045 H1057 0.929 . S
C1046 C1042 1.531 . S
C1046 H1058 0.960 . S
C1046 H1059 0.962 . S
C1046 H1060 0.960 . S
C1047 C1044 1.511 . S
C1047 H1061 0.961 . S
C1047 H1062 0.961 . S
C1047 H1063 0.961 . S
C1048 C1049 1.370 . S
C1048 C1050 1.363 . S
C1048 H1064 0.931 . S
C1049 C1048 1.370 . S
C1049 C1053 1.408 . S
C1050 C1048 1.363 . S
C1050 C1051 1.370 . S
C1050 C1054 1.524 . S
C1051 C1043 1.503 . S
C1051 C1050 1.370 . S
C1051 C1052 1.403 . S
C1052 C1051 1.403 . S
C1052 C1053 1.404 . S
C1052 C1055 1.539 . S
C1053 C1049 1.408 . S
C1053 C1052 1.404 . S
C1053 H1065 0.930 . S
C1054 C1050 1.524 . S
C1054 H1066 0.956 . S
C1054 H1067 0.961 . S
C1054 H1068 0.961 . S
C1055 C1052 1.539 . S
C1055 H1069 0.958 . S
C1055 H1070 0.961 . S
C1055 H1071 0.960 . S
H1056 C1040 0.931 . S
H1057 C1045 0.929 . S
H1058 C1046 0.960 . S
H1059 C1046 0.962 . S
H1060 C1046 0.960 . S
H1061 C1047 0.961 . S
H1062 C1047 0.961 . S
H1063 C1047 0.961 . S
H1064 C1048 0.931 . S
H1065 C1053 0.930 . S
H1066 C1054 0.956 . S
H1067 C1054 0.961 . S
H1068 C1054 0.961 . S
H1069 C1055 0.958 . S
H1070 C1055 0.961 . S
H1071 C1055 0.960 . S
C1072 C1073 1.391 . S
C1072 C1074 1.394 . S
C1072 H1088 0.931 . S
C1073 C1072 1.391 . S
C1073 C1077 1.376 . S
C1074 C1072 1.394 . S
C1074 C1075 1.369 . S
C1074 C1078 1.531 . S
C1075 C1074 1.369 . S
C1075 C1076 1.410 . S
C1075 C1083 1.503 . S
C1076 C1075 1.410 . S
C1076 C1077 1.392 . S
C1076 C1079 1.511 . S
C1077 C1073 1.376 . S
C1077 C1076 1.392 . S
C1077 H1089 0.929 . S
C1078 C1074 1.531 . S
C1078 H1090 0.960 . S
C1078 H1091 0.962 . S
C1078 H1092 0.960 . S
C1079 C1076 1.511 . S
C1079 H1093 0.961 . S
C1079 H1094 0.961 . S
C1079 H1095 0.961 . S
C1080 C1081 1.370 . S
C1080 C1082 1.363 . S
C1080 H1096 0.931 . S
C1081 C1080 1.370 . S
C1081 C1085 1.408 . S
C1082 C1080 1.363 . S
C1082 C1083 1.370 . S
C1082 C1086 1.524 . S
C1083 C1075 1.503 . S
C1083 C1082 1.370 . S
C1083 C1084 1.403 . S
C1084 C1083 1.403 . S
C1084 C1085 1.404 . S
C1084 C1087 1.539 . S
C1085 C1081 1.408 . S
C1085 C1084 1.404 . S
C1085 H1097 0.930 . S
C1086 C1082 1.524 . S
C1086 H1098 0.956 . S
C1086 H1099 0.961 . S
C1086 H1100 0.961 . S
C1087 C1084 1.539 . S
C1087 H1101 0.958 . S
C1087 H1102 0.961 . S
C1087 H1103 0.960 . S
H1088 C1072 0.931 . S
H1089 C1077 0.929 . S
H1090 C1078 0.960 . S
H1091 C1078 0.962 . S
H1092 C1078 0.960 . S
H1093 C1079 0.961 . S
H1094 C1079 0.961 . S
H1095 C1079 0.961 . S
H1096 C1080 0.931 . S
H1097 C1085 0.930 . S
H1098 C1086 0.956 . S
H1099 C1086 0.961 . S
H1100 C1086 0.961 . S
H1101 C1087 0.958 . S
H1102 C1087 0.961 . S
H1103 C1087 0.960 . S
C1104 C1105 1.391 . S
C1104 C1106 1.394 1_554 S
C1104 H1120 0.931 1_554 S
C1105 C1104 1.391 . S
C1105 C1109 1.376 . S
C1106 C1104 1.394 1_556 S
C1106 C1107 1.369 1_556 S
C1106 C1110 1.531 . S
C1107 C1106 1.369 1_554 S
C1107 C1108 1.410 . S
C1107 C1115 1.503 1_554 S
C1108 C1107 1.410 . S
C1108 C1109 1.392 . S
C1108 C1111 1.511 . S
C1109 C1105 1.376 . S
C1109 C1108 1.392 . S
C1109 H1121 0.929 . S
C1110 C1106 1.531 . S
C1110 H1122 0.960 . S
C1110 H1123 0.962 . S
C1110 H1124 0.960 . S
C1111 C1108 1.511 . S
C1111 H1125 0.961 . S
C1111 H1126 0.961 . S
C1111 H1127 0.961 . S
C1112 C1113 1.370 . S
C1112 C1114 1.362 1_556 S
C1112 H1128 0.931 . S
C1113 C1112 1.370 . S
C1113 C1117 1.408 . S
C1114 C1112 1.362 1_554 S
C1114 C1115 1.370 1_554 S
C1114 C1118 1.526 . S
C1115 C1107 1.503 1_556 S
C1115 C1114 1.370 1_556 S
C1115 C1116 1.403 . S
C1116 C1115 1.403 . S
C1116 C1117 1.404 . S
C1116 C1119 1.539 . S
C1117 C1113 1.408 . S
C1117 C1116 1.404 . S
C1117 H1129 0.930 . S
C1118 C1114 1.526 . S
C1118 H1130 0.956 . S
C1118 H1131 0.961 . S
C1118 H1132 0.961 . S
C1119 C1116 1.539 . S
C1119 H1133 0.958 . S
C1119 H1134 0.961 . S
C1119 H1135 0.960 . S
H1120 C1104 0.931 1_556 S
H1121 C1109 0.929 . S
H1122 C1110 0.960 . S
H1123 C1110 0.962 . S
H1124 C1110 0.960 . S
H1125 C1111 0.961 . S
H1126 C1111 0.961 . S
H1127 C1111 0.961 . S
H1128 C1112 0.931 . S
H1129 C1117 0.930 . S
H1130 C1118 0.956 . S
H1131 C1118 0.961 . S
H1132 C1118 0.961 . S
H1133 C1119 0.958 . S
H1134 C1119 0.961 . S
H1135 C1119 0.960 . S
C1136 C1137 1.391 . S
C1136 C1138 1.394 . S
C1136 H1152 0.931 . S
C1137 C1136 1.391 . S
C1137 C1141 1.376 . S
C1138 C1136 1.394 . S
C1138 C1139 1.369 . S
C1138 C1142 1.531 . S
C1139 C1138 1.369 . S
C1139 C1140 1.410 . S
C1139 C1147 1.503 . S
C1140 C1139 1.410 . S
C1140 C1141 1.392 . S
C1140 C1143 1.511 . S
C1141 C1137 1.376 . S
C1141 C1140 1.392 . S
C1141 H1153 0.929 . S
C1142 C1138 1.531 . S
C1142 H1154 0.960 . S
C1142 H1155 0.962 . S
C1142 H1156 0.960 . S
C1143 C1140 1.511 . S
C1143 H1157 0.961 . S
C1143 H1158 0.961 . S
C1143 H1159 0.961 . S
C1144 C1145 1.370 . S
C1144 C1146 1.363 . S
C1144 H1160 0.931 . S
C1145 C1144 1.370 . S
C1145 C1149 1.408 . S
C1146 C1144 1.363 . S
C1146 C1147 1.370 . S
C1146 C1150 1.524 . S
C1147 C1139 1.503 . S
C1147 C1146 1.370 . S
C1147 C1148 1.403 . S
C1148 C1147 1.403 . S
C1148 C1149 1.404 . S
C1148 C1151 1.539 . S
C1149 C1145 1.408 . S
C1149 C1148 1.404 . S
C1149 H1161 0.930 . S
C1150 C1146 1.524 . S
C1150 H1162 0.956 . S
C1150 H1163 0.961 . S
C1150 H1164 0.961 . S
C1151 C1148 1.539 . S
C1151 H1165 0.958 . S
C1151 H1166 0.961 . S
C1151 H1167 0.960 . S
H1152 C1136 0.931 . S
H1153 C1141 0.929 . S
H1154 C1142 0.960 . S
H1155 C1142 0.962 . S
H1156 C1142 0.960 . S
H1157 C1143 0.961 . S
H1158 C1143 0.961 . S
H1159 C1143 0.961 . S
H1160 C1144 0.931 . S
H1161 C1149 0.930 . S
H1162 C1150 0.956 . S
H1163 C1150 0.961 . S
H1164 C1150 0.961 . S
H1165 C1151 0.958 . S
H1166 C1151 0.961 . S
H1167 C1151 0.960 . S
C1168 C1169 1.391 . S
C1168 C1170 1.394 . S
C1168 H1184 0.931 . S
C1169 C1168 1.391 . S
C1169 C1173 1.376 . S
C1170 C1168 1.394 . S
C1170 C1171 1.369 . S
C1170 C1174 1.531 . S
C1171 C1170 1.369 . S
C1171 C1172 1.410 . S
C1171 C1179 1.503 . S
C1172 C1171 1.410 . S
C1172 C1173 1.392 . S
C1172 C1175 1.511 . S
C1173 C1169 1.376 . S
C1173 C1172 1.392 . S
C1173 H1185 0.929 . S
C1174 C1170 1.531 . S
C1174 H1186 0.960 . S
C1174 H1187 0.962 . S
C1174 H1188 0.960 . S
C1175 C1172 1.511 . S
C1175 H1189 0.961 . S
C1175 H1190 0.961 . S
C1175 H1191 0.961 . S
C1176 C1177 1.370 . S
C1176 C1178 1.363 . S
C1176 H1192 0.931 . S
C1177 C1176 1.370 . S
C1177 C1181 1.408 . S
C1178 C1176 1.363 . S
C1178 C1179 1.370 . S
C1178 C1182 1.524 . S
C1179 C1171 1.503 . S
C1179 C1178 1.370 . S
C1179 C1180 1.403 . S
C1180 C1179 1.403 . S
C1180 C1181 1.404 . S
C1180 C1183 1.539 . S
C1181 C1177 1.408 . S
C1181 C1180 1.404 . S
C1181 H1193 0.930 . S
C1182 C1178 1.524 . S
C1182 H1194 0.956 . S
C1182 H1195 0.961 . S
C1182 H1196 0.961 . S
C1183 C1180 1.539 . S
C1183 H1197 0.958 . S
C1183 H1198 0.961 . S
C1183 H1199 0.960 . S
H1184 C1168 0.931 . S
H1185 C1173 0.929 . S
H1186 C1174 0.960 . S
H1187 C1174 0.962 . S
H1188 C1174 0.960 . S
H1189 C1175 0.961 . S
H1190 C1175 0.961 . S
H1191 C1175 0.961 . S
H1192 C1176 0.931 . S
H1193 C1181 0.930 . S
H1194 C1182 0.956 . S
H1195 C1182 0.961 . S
H1196 C1182 0.961 . S
H1197 C1183 0.958 . S
H1198 C1183 0.961 . S
H1199 C1183 0.960 . S
C1200 C1201 1.391 . S
C1200 C1202 1.394 . S
C1200 H1216 0.931 . S
C1201 C1200 1.391 . S
C1201 C1205 1.376 . S
C1202 C1200 1.394 . S
C1202 C1203 1.369 . S
C1202 C1206 1.531 . S
C1203 C1202 1.369 . S
C1203 C1204 1.410 . S
C1203 C1211 1.503 . S
C1204 C1203 1.410 . S
C1204 C1205 1.392 . S
C1204 C1207 1.511 . S
C1205 C1201 1.376 . S
C1205 C1204 1.392 . S
C1205 H1217 0.929 . S
C1206 C1202 1.531 . S
C1206 H1218 0.960 . S
C1206 H1219 0.962 . S
C1206 H1220 0.960 . S
C1207 C1204 1.511 . S
C1207 H1221 0.961 . S
C1207 H1222 0.961 . S
C1207 H1223 0.961 . S
C1208 C1209 1.370 . S
C1208 C1210 1.363 . S
C1208 H1224 0.931 . S
C1209 C1208 1.370 . S
C1209 C1213 1.408 . S
C1210 C1208 1.363 . S
C1210 C1211 1.370 . S
C1210 C1214 1.524 . S
C1211 C1203 1.503 . S
C1211 C1210 1.370 . S
C1211 C1212 1.403 . S
C1212 C1211 1.403 . S
C1212 C1213 1.404 . S
C1212 C1215 1.539 . S
C1213 C1209 1.408 . S
C1213 C1212 1.404 . S
C1213 H1225 0.930 . S
C1214 C1210 1.524 . S
C1214 H1226 0.956 . S
C1214 H1227 0.961 . S
C1214 H1228 0.961 . S
C1215 C1212 1.539 . S
C1215 H1229 0.958 . S
C1215 H1230 0.961 . S
C1215 H1231 0.960 . S
H1216 C1200 0.931 . S
H1217 C1205 0.929 . S
H1218 C1206 0.960 . S
H1219 C1206 0.962 . S
H1220 C1206 0.960 . S
H1221 C1207 0.961 . S
H1222 C1207 0.961 . S
H1223 C1207 0.961 . S
H1224 C1208 0.931 . S
H1225 C1213 0.930 . S
H1226 C1214 0.956 . S
H1227 C1214 0.961 . S
H1228 C1214 0.961 . S
H1229 C1215 0.958 . S
H1230 C1215 0.961 . S
H1231 C1215 0.960 . S
C1232 C1233 1.391 . S
C1232 C1234 1.394 . S
C1232 H1248 0.931 . S
C1233 C1232 1.391 . S
C1233 C1237 1.376 . S
C1234 C1232 1.394 . S
C1234 C1235 1.369 . S
C1234 C1238 1.531 . S
C1235 C1234 1.369 . S
C1235 C1236 1.410 . S
C1235 C1243 1.503 . S
C1236 C1235 1.410 . S
C1236 C1237 1.392 . S
C1236 C1239 1.511 . S
C1237 C1233 1.376 . S
C1237 C1236 1.392 . S
C1237 H1249 0.929 . S
C1238 C1234 1.531 . S
C1238 H1250 0.960 . S
C1238 H1251 0.962 . S
C1238 H1252 0.960 . S
C1239 C1236 1.511 . S
C1239 H1253 0.961 . S
C1239 H1254 0.961 . S
C1239 H1255 0.961 . S
C1240 C1241 1.370 . S
C1240 C1242 1.363 . S
C1240 H1256 0.931 . S
C1241 C1240 1.370 . S
C1241 C1245 1.408 . S
C1242 C1240 1.363 . S
C1242 C1243 1.370 . S
C1242 C1246 1.524 . S
C1243 C1235 1.503 . S
C1243 C1242 1.370 . S
C1243 C1244 1.403 . S
C1244 C1243 1.403 . S
C1244 C1245 1.404 . S
C1244 C1247 1.539 . S
C1245 C1241 1.408 . S
C1245 C1244 1.404 . S
C1245 H1257 0.930 . S
C1246 C1242 1.524 . S
C1246 H1258 0.956 . S
C1246 H1259 0.961 . S
C1246 H1260 0.961 . S
C1247 C1244 1.539 . S
C1247 H1261 0.958 . S
C1247 H1262 0.961 . S
C1247 H1263 0.960 . S
H1248 C1232 0.931 . S
H1249 C1237 0.929 . S
H1250 C1238 0.960 . S
H1251 C1238 0.962 . S
H1252 C1238 0.960 . S
H1253 C1239 0.961 . S
H1254 C1239 0.961 . S
H1255 C1239 0.961 . S
H1256 C1240 0.931 . S
H1257 C1245 0.930 . S
H1258 C1246 0.956 . S
H1259 C1246 0.961 . S
H1260 C1246 0.961 . S
H1261 C1247 0.958 . S
H1262 C1247 0.961 . S
H1263 C1247 0.960 . S
C1264 C1265 1.391 . S
C1264 C1266 1.394 . S
C1264 H1280 0.931 . S
C1265 C1264 1.391 . S
C1265 C1269 1.376 . S
C1266 C1264 1.394 . S
C1266 C1267 1.369 . S
C1266 C1270 1.531 . S
C1267 C1266 1.369 . S
C1267 C1268 1.410 . S
C1267 C1275 1.503 . S
C1268 C1267 1.410 . S
C1268 C1269 1.392 . S
C1268 C1271 1.511 1_545 S
C1269 C1265 1.376 . S
C1269 C1268 1.392 . S
C1269 H1281 0.929 1_545 S
C1270 C1266 1.531 . S
C1270 H1282 0.960 . S
C1270 H1283 0.962 . S
C1270 H1284 0.960 . S
C1271 C1268 1.511 1_565 S
C1271 H1285 0.961 . S
C1271 H1286 0.961 . S
C1271 H1287 0.961 1_565 S
C1272 C1273 1.370 . S
C1272 C1274 1.363 . S
C1272 H1288 0.931 1_545 S
C1273 C1272 1.370 . S
C1273 C1277 1.408 . S
C1274 C1272 1.363 . S
C1274 C1275 1.370 . S
C1274 C1278 1.524 1_545 S
C1275 C1267 1.503 . S
C1275 C1274 1.370 . S
C1275 C1276 1.403 . S
C1276 C1275 1.403 . S
C1276 C1277 1.404 . S
C1276 C1279 1.539 . S
C1277 C1273 1.408 . S
C1277 C1276 1.404 . S
C1277 H1289 0.930 . S
C1278 C1274 1.524 1_565 S
C1278 H1290 0.956 . S
C1278 H1291 0.961 . S
C1278 H1292 0.961 . S
C1279 C1276 1.539 . S
C1279 H1293 0.958 . S
C1279 H1294 0.961 . S
C1279 H1295 0.960 . S
H1280 C1264 0.931 . S
H1281 C1269 0.929 1_565 S
H1282 C1270 0.960 . S
H1283 C1270 0.962 . S
H1284 C1270 0.960 . S
H1285 C1271 0.961 . S
H1286 C1271 0.961 . S
H1287 C1271 0.961 1_545 S
H1288 C1272 0.931 1_565 S
H1289 C1277 0.930 . S
H1290 C1278 0.956 . S
H1291 C1278 0.961 . S
H1292 C1278 0.961 . S
H1293 C1279 0.958 . S
H1294 C1279 0.961 . S
H1295 C1279 0.960 . S
C1296 C1297 1.391 . S
C1296 C1298 1.394 . S
C1296 H1312 0.931 . S
C1297 C1296 1.391 . S
C1297 C1301 1.376 . S
C1298 C1296 1.394 . S
C1298 C1299 1.369 . S
C1298 C1302 1.531 . S
C1299 C1298 1.369 . S
C1299 C1300 1.410 1_556 S
C1299 C1307 1.503 1_556 S
C1300 C1299 1.410 1_554 S
C1300 C1301 1.392 1_554 S
C1300 C1303 1.511 . S
C1301 C1297 1.376 . S
C1301 C1300 1.392 1_556 S
C1301 H1313 0.929 1_556 S
C1302 C1298 1.531 . S
C1302 H1314 0.960 . S
C1302 H1315 0.962 . S
C1302 H1316 0.960 . S
C1303 C1300 1.511 . S
C1303 H1317 0.961 . S
C1303 H1318 0.961 . S
C1303 H1319 0.961 . S
C1304 C1305 1.370 . S
C1304 C1306 1.363 . S
C1304 H1320 0.931 . S
C1305 C1304 1.370 . S
C1305 C1309 1.408 . S
C1306 C1304 1.363 . S
C1306 C1307 1.370 . S
C1306 C1310 1.524 1_554 S
C1307 C1299 1.503 1_554 S
C1307 C1306 1.370 . S
C1307 C1308 1.403 . S
C1308 C1307 1.403 . S
C1308 C1309 1.404 . S
C1308 C1311 1.539 . S
C1309 C1305 1.408 . S
C1309 C1308 1.404 . S
C1309 H1321 0.930 . S
C1310 C1306 1.524 1_556 S
C1310 H1322 0.956 . S
C1310 H1323 0.961 1_556 S
C1310 H1324 0.961 . S
C1311 C1308 1.539 . S
C1311 H1325 0.958 1_554 S
C1311 H1326 0.961 . S
C1311 H1327 0.960 . S
H1312 C1296 0.931 . S
H1313 C1301 0.929 1_554 S
H1314 C1302 0.960 . S
H1315 C1302 0.962 . S
H1316 C1302 0.960 . S
H1317 C1303 0.961 . S
H1318 C1303 0.961 . S
H1319 C1303 0.961 . S
H1320 C1304 0.931 . S
H1321 C1309 0.930 . S
H1322 C1310 0.956 . S
H1323 C1310 0.961 1_554 S
H1324 C1310 0.961 . S
H1325 C1311 0.958 1_556 S
H1326 C1311 0.961 . S
H1327 C1311 0.960 . S
C1328 C1329 1.391 . S
C1328 C1330 1.394 . S
C1328 H1344 0.931 . S
C1329 C1328 1.391 . S
C1329 C1333 1.376 . S
C1330 C1328 1.394 . S
C1330 C1331 1.369 . S
C1330 C1334 1.531 . S
C1331 C1330 1.369 . S
C1331 C1332 1.410 . S
C1331 C1339 1.503 . S
C1332 C1331 1.410 . S
C1332 C1333 1.392 . S
C1332 C1335 1.511 . S
C1333 C1329 1.376 . S
C1333 C1332 1.392 . S
C1333 H1345 0.929 . S
C1334 C1330 1.531 . S
C1334 H1346 0.960 . S
C1334 H1347 0.962 . S
C1334 H1348 0.960 . S
C1335 C1332 1.511 . S
C1335 H1349 0.961 . S
C1335 H1350 0.961 . S
C1335 H1351 0.961 1_565 S
C1336 C1337 1.370 . S
C1336 C1338 1.363 . S
C1336 H1352 0.931 . S
C1337 C1336 1.370 . S
C1337 C1341 1.408 1_565 S
C1338 C1336 1.363 . S
C1338 C1339 1.370 . S
C1338 C1342 1.524 . S
C1339 C1331 1.503 . S
C1339 C1338 1.370 . S
C1339 C1340 1.403 1_565 S
C1340 C1339 1.403 1_545 S
C1340 C1341 1.404 . S
C1340 C1343 1.539 . S
C1341 C1337 1.408 1_545 S
C1341 C1340 1.404 . S
C1341 H1353 0.930 . S
C1342 C1338 1.524 . S
C1342 H1354 0.956 . S
C1342 H1355 0.961 . S
C1342 H1356 0.961 . S
C1343 C1340 1.539 . S
C1343 H1357 0.958 . S
C1343 H1358 0.961 . S
C1343 H1359 0.960 . S
H1344 C1328 0.931 . S
H1345 C1333 0.929 . S
H1346 C1334 0.960 . S
H1347 C1334 0.962 . S
H1348 C1334 0.960 . S
H1349 C1335 0.961 . S
H1350 C1335 0.961 . S
H1351 C1335 0.961 1_545 S
H1352 C1336 0.931 . S
H1353 C1341 0.930 . S
H1354 C1342 0.956 . S
H1355 C1342 0.961 . S
H1356 C1342 0.961 . S
H1357 C1343 0.958 . S
H1358 C1343 0.961 . S
H1359 C1343 0.960 . S
C1360 C1361 1.391 . S
C1360 C1362 1.394 . S
C1360 H1376 0.931 . S
C1361 C1360 1.391 . S
C1361 C1365 1.376 . S
C1362 C1360 1.394 . S
C1362 C1363 1.369 . S
C1362 C1366 1.531 . S
C1363 C1362 1.369 . S
C1363 C1364 1.410 . S
C1363 C1371 1.503 . S
C1364 C1363 1.410 . S
C1364 C1365 1.392 . S
C1364 C1367 1.511 . S
C1365 C1361 1.376 . S
C1365 C1364 1.392 . S
C1365 H1377 0.929 . S
C1366 C1362 1.531 . S
C1366 H1378 0.960 . S
C1366 H1379 0.962 . S
C1366 H1380 0.960 . S
C1367 C1364 1.511 . S
C1367 H1381 0.961 . S
C1367 H1382 0.961 . S
C1367 H1383 0.961 . S
C1368 C1369 1.370 . S
C1368 C1370 1.363 . S
C1368 H1384 0.931 . S
C1369 C1368 1.370 . S
C1369 C1373 1.408 . S
C1370 C1368 1.363 . S
C1370 C1371 1.370 . S
C1370 C1374 1.524 . S
C1371 C1363 1.503 . S
C1371 C1370 1.370 . S
C1371 C1372 1.403 . S
C1372 C1371 1.403 . S
C1372 C1373 1.404 . S
C1372 C1375 1.539 . S
C1373 C1369 1.408 . S
C1373 C1372 1.404 . S
C1373 H1385 0.930 . S
C1374 C1370 1.524 . S
C1374 H1386 0.956 . S
C1374 H1387 0.961 . S
C1374 H1388 0.961 . S
C1375 C1372 1.539 . S
C1375 H1389 0.958 . S
C1375 H1390 0.961 . S
C1375 H1391 0.960 . S
H1376 C1360 0.931 . S
H1377 C1365 0.929 . S
H1378 C1366 0.960 . S
H1379 C1366 0.962 . S
H1380 C1366 0.960 . S
H1381 C1367 0.961 . S
H1382 C1367 0.961 . S
H1383 C1367 0.961 . S
H1384 C1368 0.931 . S
H1385 C1373 0.930 . S
H1386 C1374 0.956 . S
H1387 C1374 0.961 . S
H1388 C1374 0.961 . S
H1389 C1375 0.958 . S
H1390 C1375 0.961 . S
H1391 C1375 0.960 . S
C1392 C1393 1.391 . S
C1392 C1394 1.394 . S
C1392 H1408 0.931 . S
C1393 C1392 1.391 . S
C1393 C1397 1.376 . S
C1394 C1392 1.394 . S
C1394 C1395 1.369 . S
C1394 C1398 1.531 . S
C1395 C1394 1.369 . S
C1395 C1396 1.410 . S
C1395 C1403 1.503 . S
C1396 C1395 1.410 . S
C1396 C1397 1.392 . S
C1396 C1399 1.511 . S
C1397 C1393 1.376 . S
C1397 C1396 1.392 . S
C1397 H1409 0.929 . S
C1398 C1394 1.531 . S
C1398 H1410 0.960 . S
C1398 H1411 0.962 1_565 S
C1398 H1412 0.960 . S
C1399 C1396 1.511 . S
C1399 H1413 0.961 . S
C1399 H1414 0.961 . S
C1399 H1415 0.961 . S
C1400 C1401 1.370 . S
C1400 C1402 1.363 . S
C1400 H1416 0.931 1_565 S
C1401 C1400 1.370 . S
C1401 C1405 1.408 . S
C1402 C1400 1.363 . S
C1402 C1403 1.370 . S
C1402 C1406 1.524 1_565 S
C1403 C1395 1.503 . S
C1403 C1402 1.370 . S
C1403 C1404 1.403 . S
C1404 C1403 1.403 . S
C1404 C1405 1.404 . S
C1404 C1407 1.539 . S
C1405 C1401 1.408 . S
C1405 C1404 1.404 . S
C1405 H1417 0.930 . S
C1406 C1402 1.524 1_545 S
C1406 H1418 0.956 . S
C1406 H1419 0.961 . S
C1406 H1420 0.961 . S
C1407 C1404 1.539 . S
C1407 H1421 0.958 . S
C1407 H1422 0.961 . S
C1407 H1423 0.960 . S
H1408 C1392 0.931 . S
H1409 C1397 0.929 . S
H1410 C1398 0.960 . S
H1411 C1398 0.962 1_545 S
H1412 C1398 0.960 . S
H1413 C1399 0.961 . S
H1414 C1399 0.961 . S
H1415 C1399 0.961 . S
H1416 C1400 0.931 1_545 S
H1417 C1405 0.930 . S
H1418 C1406 0.956 . S
H1419 C1406 0.961 . S
H1420 C1406 0.961 . S
H1421 C1407 0.958 . S
H1422 C1407 0.961 . S
H1423 C1407 0.960 . S
C1424 C1425 1.391 . S
C1424 C1426 1.394 . S
C1424 H1440 0.931 . S
C1425 C1424 1.391 . S
C1425 C1429 1.376 . S
C1426 C1424 1.394 . S
C1426 C1427 1.369 . S
C1426 C1430 1.531 . S
C1427 C1426 1.369 . S
C1427 C1428 1.410 . S
C1427 C1435 1.525 . S
C1428 C1427 1.410 . S
C1428 C1429 1.392 . S
C1428 C1431 1.518 . S
C1429 C1425 1.376 . S
C1429 C1428 1.392 . S
C1429 H1441 0.929 . S
C1430 C1426 1.531 . S
C1430 H1442 0.960 . S
C1430 H1443 0.962 . S
C1430 H1444 0.960 . S
C1431 C1428 1.518 . S
C1431 H1445 0.954 1_554 S
C1431 H1446 0.949 1_554 S
C1431 H1447 0.972 . S
C1432 C1433 1.370 . S
C1432 C1434 1.363 . S
C1432 H1448 0.931 . S
C1433 C1432 1.370 . S
C1433 C1437 1.408 1_556 S
C1434 C1432 1.363 . S
C1434 C1435 1.326 1_556 S
C1434 C1438 1.524 . S
C1435 C1427 1.525 . S
C1435 C1434 1.326 1_554 S
C1435 C1436 1.427 . S
C1436 C1435 1.427 . S
C1436 C1437 1.404 . S
C1436 C1439 1.539 . S
C1437 C1433 1.408 1_554 S
C1437 C1436 1.404 . S
C1437 H1449 0.930 . S
C1438 C1434 1.524 . S
C1438 H1450 0.956 . S
C1438 H1451 0.961 . S
C1438 H1452 0.961 . S
C1439 C1436 1.539 . S
C1439 H1453 0.958 . S
C1439 H1454 0.961 . S
C1439 H1455 0.960 . S
H1440 C1424 0.931 . S
H1441 C1429 0.929 . S
H1442 C1430 0.960 . S
H1443 C1430 0.962 . S
H1444 C1430 0.960 . S
H1445 C1431 0.954 1_556 S
H1446 C1431 0.949 1_556 S
H1447 C1431 0.972 . S
H1448 C1432 0.931 . S
H1449 C1437 0.930 . S
H1450 C1438 0.956 . S
H1451 C1438 0.961 . S
H1452 C1438 0.961 . S
H1453 C1439 0.958 . S
H1454 C1439 0.961 . S
H1455 C1439 0.960 . S
C1456 C1457 1.391 . S
C1456 C1458 1.394 . S
C1456 H1472 0.931 . S
C1457 C1456 1.391 . S
C1457 C1461 1.399 . S
C1458 C1456 1.394 . S
C1458 C1459 1.369 . S
C1458 C1462 1.531 . S
C1459 C1458 1.369 . S
C1459 C1460 1.410 1_545 S
C1459 C1467 1.503 . S
C1460 C1459 1.410 1_565 S
C1460 C1461 1.389 1_565 S
C1460 C1463 1.511 . S
C1461 C1457 1.399 . S
C1461 C1460 1.389 1_545 S
C1461 H1473 0.909 1_545 S
C1462 C1458 1.531 . S
C1462 H1474 0.960 . S
C1462 H1475 0.962 . S
C1462 H1476 0.960 . S
C1463 C1460 1.511 . S
C1463 H1477 0.961 . S
C1463 H1478 0.961 . S
C1463 H1479 0.961 . S
C1464 C1465 1.370 . S
C1464 C1466 1.363 . S
C1464 H1480 0.931 . S
C1465 C1464 1.370 . S
C1465 C1469 1.408 . S
C1466 C1464 1.363 . S
C1466 C1467 1.370 . S
C1466 C1470 1.524 . S
C1467 C1459 1.503 . S
C1467 C1466 1.370 . S
C1467 C1468 1.403 . S
C1468 C1467 1.403 . S
C1468 C1469 1.404 . S
C1468 C1471 1.539 1_545 S
C1469 C1465 1.408 . S
C1469 C1468 1.404 . S
C1469 H1481 0.930 1_545 S
C1470 C1466 1.524 . S
C1470 H1482 0.956 . S
C1470 H1483 0.961 . S
C1470 H1484 0.961 . S
C1471 C1468 1.539 1_565 S
C1471 H1485 0.958 . S
C1471 H1486 0.961 . S
C1471 H1487 0.960 . S
H1472 C1456 0.931 . S
H1473 C1461 0.909 1_565 S
H1474 C1462 0.960 . S
H1475 C1462 0.962 . S
H1476 C1462 0.960 . S
H1477 C1463 0.961 . S
H1478 C1463 0.961 . S
H1479 C1463 0.961 . S
H1480 C1464 0.931 . S
H1481 C1469 0.930 1_565 S
H1482 C1470 0.956 . S
H1483 C1470 0.961 . S
H1484 C1470 0.961 . S
H1485 C1471 0.958 . S
H1486 C1471 0.961 . S
H1487 C1471 0.960 . S
C1488 C1489 1.391 . S
C1488 C1490 1.394 . S
C1488 H1504 0.931 . S
C1489 C1488 1.391 . S
C1489 C1493 1.376 . S
C1490 C1488 1.394 . S
C1490 C1491 1.369 . S
C1490 C1494 1.531 . S
C1491 C1490 1.369 . S
C1491 C1492 1.410 . S
C1491 C1499 1.503 . S
C1492 C1491 1.410 . S
C1492 C1493 1.392 . S
C1492 C1495 1.511 1_545 S
C1493 C1489 1.376 . S
C1493 C1492 1.392 . S
C1493 H1505 0.929 . S
C1494 C1490 1.531 . S
C1494 H1506 0.960 . S
C1494 H1507 0.962 . S
C1494 H1508 0.960 . S
C1495 C1492 1.511 1_565 S
C1495 H1509 0.961 . S
C1495 H1510 0.961 . S
C1495 H1511 0.961 . S
C1496 C1497 1.370 . S
C1496 C1498 1.363 . S
C1496 H1512 0.931 . S
C1497 C1496 1.370 . S
C1497 C1501 1.408 . S
C1498 C1496 1.363 . S
C1498 C1499 1.370 . S
C1498 C1502 1.524 . S
C1499 C1491 1.503 . S
C1499 C1498 1.370 . S
C1499 C1500 1.403 . S
C1500 C1499 1.403 . S
C1500 C1501 1.404 . S
C1500 C1503 1.539 . S
C1501 C1497 1.408 . S
C1501 C1500 1.404 . S
C1501 H1513 0.930 . S
C1502 C1498 1.524 . S
C1502 H1514 0.956 . S
C1502 H1515 0.961 . S
C1502 H1516 0.961 . S
C1503 C1500 1.539 . S
C1503 H1517 0.958 . S
C1503 H1518 0.961 . S
C1503 H1519 0.960 . S
H1504 C1488 0.931 . S
H1505 C1493 0.929 . S
H1506 C1494 0.960 . S
H1507 C1494 0.962 . S
H1508 C1494 0.960 . S
H1509 C1495 0.961 . S
H1510 C1495 0.961 . S
H1511 C1495 0.961 . S
H1512 C1496 0.931 . S
H1513 C1501 0.930 . S
H1514 C1502 0.956 . S
H1515 C1502 0.961 . S
H1516 C1502 0.961 . S
H1517 C1503 0.958 . S
H1518 C1503 0.961 . S
H1519 C1503 0.960 . S
C1520 C1521 1.391 . S
C1520 C1522 1.394 . S
C1520 H1536 0.931 . S
C1521 C1520 1.391 . S
C1521 C1525 1.376 . S
C1522 C1520 1.394 . S
C1522 C1523 1.369 . S
C1522 C1526 1.531 . S
C1523 C1522 1.369 . S
C1523 C1524 1.410 . S
C1523 C1531 1.503 . S
C1524 C1523 1.410 . S
C1524 C1525 1.392 . S
C1524 C1527 1.511 . S
C1525 C1521 1.376 . S
C1525 C1524 1.392 . S
C1525 H1537 0.929 . S
C1526 C1522 1.531 . S
C1526 H1538 0.960 . S
C1526 H1539 0.962 . S
C1526 H1540 0.960 . S
C1527 C1524 1.511 . S
C1527 H1541 0.961 . S
C1527 H1542 0.961 . S
C1527 H1543 0.961 . S
C1528 C1529 1.370 . S
C1528 C1530 1.363 . S
C1528 H1544 0.931 . S
C1529 C1528 1.370 . S
C1529 C1533 1.408 . S
C1530 C1528 1.363 . S
C1530 C1531 1.370 . S
C1530 C1534 1.524 . S
C1531 C1523 1.503 . S
C1531 C1530 1.370 . S
C1531 C1532 1.403 . S
C1532 C1531 1.403 . S
C1532 C1533 1.404 . S
C1532 C1535 1.539 . S
C1533 C1529 1.408 . S
C1533 C1532 1.404 . S
C1533 H1545 0.930 . S
C1534 C1530 1.524 . S
C1534 H1546 0.956 . S
C1534 H1547 0.961 . S
C1534 H1548 0.961 . S
C1535 C1532 1.539 . S
C1535 H1549 0.958 . S
C1535 H1550 0.961 . S
C1535 H1551 0.960 . S
H1536 C1520 0.931 . S
H1537 C1525 0.929 . S
H1538 C1526 0.960 . S
H1539 C1526 0.962 . S
H1540 C1526 0.960 . S
H1541 C1527 0.961 . S
H1542 C1527 0.961 . S
H1543 C1527 0.961 . S
H1544 C1528 0.931 . S
H1545 C1533 0.930 . S
H1546 C1534 0.956 . S
H1547 C1534 0.961 . S
H1548 C1534 0.961 . S
H1549 C1535 0.958 . S
H1550 C1535 0.961 . S
H1551 C1535 0.960 . S
C1552 C1553 1.391 . S
C1552 C1554 1.394 . S
C1552 H1568 0.931 . S
C1553 C1552 1.391 . S
C1553 C1557 1.376 . S
C1554 C1552 1.394 . S
C1554 C1555 1.369 . S
C1554 C1558 1.531 . S
C1555 C1554 1.369 . S
C1555 C1556 1.410 . S
C1555 C1563 1.503 . S
C1556 C1555 1.410 . S
C1556 C1557 1.392 . S
C1556 C1559 1.511 . S
C1557 C1553 1.376 . S
C1557 C1556 1.392 . S
C1557 H1569 0.929 . S
C1558 C1554 1.531 . S
C1558 H1570 0.960 . S
C1558 H1571 0.962 . S
C1558 H1572 0.960 . S
C1559 C1556 1.511 . S
C1559 H1573 0.961 . S
C1559 H1574 0.961 . S
C1559 H1575 0.961 . S
C1560 C1561 1.370 . S
C1560 C1562 1.363 . S
C1560 H1576 0.931 . S
C1561 C1560 1.370 . S
C1561 C1565 1.408 . S
C1562 C1560 1.363 . S
C1562 C1563 1.370 . S
C1562 C1566 1.524 . S
C1563 C1555 1.503 . S
C1563 C1562 1.370 . S
C1563 C1564 1.403 . S
C1564 C1563 1.403 . S
C1564 C1565 1.404 . S
C1564 C1567 1.539 . S
C1565 C1561 1.408 . S
C1565 C1564 1.404 . S
C1565 H1577 0.930 . S
C1566 C1562 1.524 . S
C1566 H1578 0.956 . S
C1566 H1579 0.961 1_565 S
C1566 H1580 0.961 1_565 S
C1567 C1564 1.539 . S
C1567 H1581 0.958 . S
C1567 H1582 0.961 . S
C1567 H1583 0.960 . S
H1568 C1552 0.931 . S
H1569 C1557 0.929 . S
H1570 C1558 0.960 . S
H1571 C1558 0.962 . S
H1572 C1558 0.960 . S
H1573 C1559 0.961 . S
H1574 C1559 0.961 . S
H1575 C1559 0.961 . S
H1576 C1560 0.931 . S
H1577 C1565 0.930 . S
H1578 C1566 0.956 . S
H1579 C1566 0.961 1_545 S
H1580 C1566 0.961 1_545 S
H1581 C1567 0.958 . S
H1582 C1567 0.961 . S
H1583 C1567 0.960 . S
C1584 C1585 1.391 . S
C1584 C1586 1.394 . S
C1584 H1600 0.931 . S
C1585 C1584 1.391 . S
C1585 C1589 1.376 . S
C1586 C1584 1.394 . S
C1586 C1587 1.369 . S
C1586 C1590 1.531 . S
C1587 C1586 1.369 . S
C1587 C1588 1.410 . S
C1587 C1595 1.503 . S
C1588 C1587 1.410 . S
C1588 C1589 1.392 . S
C1588 C1591 1.511 . S
C1589 C1585 1.376 . S
C1589 C1588 1.392 . S
C1589 H1601 0.929 . S
C1590 C1586 1.531 . S
C1590 H1602 0.960 . S
C1590 H1603 0.962 . S
C1590 H1604 0.960 . S
C1591 C1588 1.511 . S
C1591 H1605 0.961 . S
C1591 H1606 0.961 . S
C1591 H1607 0.961 . S
C1592 C1593 1.370 . S
C1592 C1594 1.363 . S
C1592 H1608 0.931 . S
C1593 C1592 1.370 . S
C1593 C1597 1.408 . S
C1594 C1592 1.363 . S
C1594 C1595 1.370 . S
C1594 C1598 1.524 . S
C1595 C1587 1.503 . S
C1595 C1594 1.370 . S
C1595 C1596 1.403 . S
C1596 C1595 1.403 . S
C1596 C1597 1.404 . S
C1596 C1599 1.539 . S
C1597 C1593 1.408 . S
C1597 C1596 1.404 . S
C1597 H1609 0.930 . S
C1598 C1594 1.524 . S
C1598 H1610 0.956 . S
C1598 H1611 0.961 . S
C1598 H1612 0.961 . S
C1599 C1596 1.539 . S
C1599 H1613 0.958 . S
C1599 H1614 0.961 . S
C1599 H1615 0.960 . S
H1600 C1584 0.931 . S
H1601 C1589 0.929 . S
H1602 C1590 0.960 . S
H1603 C1590 0.962 . S
H1604 C1590 0.960 . S
H1605 C1591 0.961 . S
H1606 C1591 0.961 . S
H1607 C1591 0.961 . S
H1608 C1592 0.931 . S
H1609 C1597 0.930 . S
H1610 C1598 0.956 . S
H1611 C1598 0.961 . S
H1612 C1598 0.961 . S
H1613 C1599 0.958 . S
H1614 C1599 0.961 . S
H1615 C1599 0.960 . S
C1616 C1617 1.391 . S
C1616 C1618 1.394 . S
C1616 H1632 0.931 . S
C1617 C1616 1.391 . S
C1617 C1621 1.376 . S
C1618 C1616 1.394 . S
C1618 C1619 1.369 . S
C1618 C1622 1.531 1_565 S
C1619 C1618 1.369 . S
C1619 C1620 1.410 . S
C1619 C1627 1.503 . S
C1620 C1619 1.410 . S
C1620 C1621 1.392 . S
C1620 C1623 1.511 . S
C1621 C1617 1.376 . S
C1621 C1620 1.392 . S
C1621 H1633 0.929 . S
C1622 C1618 1.531 1_545 S
C1622 H1634 0.960 . S
C1622 H1635 0.962 1_545 S
C1622 H1636 0.960 . S
C1623 C1620 1.511 . S
C1623 H1637 0.961 . S
C1623 H1638 0.961 . S
C1623 H1639 0.961 . S
C1624 C1625 1.370 . S
C1624 C1626 1.363 . S
C1624 H1640 0.931 . S
C1625 C1624 1.370 . S
C1625 C1629 1.408 . S
C1626 C1624 1.363 . S
C1626 C1627 1.370 . S
C1626 C1630 1.524 . S
C1627 C1619 1.503 . S
C1627 C1626 1.370 . S
C1627 C1628 1.403 . S
C1628 C1627 1.403 . S
C1628 C1629 1.404 . S
C1628 C1631 1.539 . S
C1629 C1625 1.408 . S
C1629 C1628 1.404 . S
C1629 H1641 0.930 . S
C1630 C1626 1.524 . S
C1630 H1642 0.956 . S
C1630 H1643 0.961 . S
C1630 H1644 0.961 . S
C1631 C1628 1.539 . S
C1631 H1645 0.958 1_565 S
C1631 H1646 0.961 . S
C1631 H1647 0.960 . S
H1632 C1616 0.931 . S
H1633 C1621 0.929 . S
H1634 C1622 0.960 . S
H1635 C1622 0.962 1_565 S
H1636 C1622 0.960 . S
H1637 C1623 0.961 . S
H1638 C1623 0.961 . S
H1639 C1623 0.961 . S
H1640 C1624 0.931 . S
H1641 C1629 0.930 . S
H1642 C1630 0.956 . S
H1643 C1630 0.961 . S
H1644 C1630 0.961 . S
H1645 C1631 0.958 1_545 S
H1646 C1631 0.961 . S
H1647 C1631 0.960 . S
C1648 C1649 1.391 . S
C1648 C1650 1.394 . S
C1648 H1664 0.931 . S
C1649 C1648 1.391 . S
C1649 C1653 1.376 . S
C1650 C1648 1.394 . S
C1650 C1651 1.369 . S
C1650 C1654 1.531 . S
C1651 C1650 1.369 . S
C1651 C1652 1.410 . S
C1651 C1659 1.503 . S
C1652 C1651 1.410 . S
C1652 C1653 1.392 . S
C1652 C1655 1.511 . S
C1653 C1649 1.376 . S
C1653 C1652 1.392 . S
C1653 H1665 0.929 . S
C1654 C1650 1.531 . S
C1654 H1666 0.960 . S
C1654 H1667 0.962 . S
C1654 H1668 0.960 . S
C1655 C1652 1.511 . S
C1655 H1669 0.961 . S
C1655 H1670 0.961 . S
C1655 H1671 0.961 . S
C1656 C1657 1.370 . S
C1656 C1658 1.363 . S
C1656 H1672 0.931 . S
C1657 C1656 1.370 . S
C1657 C1661 1.408 . S
C1658 C1656 1.363 . S
C1658 C1659 1.370 . S
C1658 C1662 1.524 . S
C1659 C1651 1.503 . S
C1659 C1658 1.370 . S
C1659 C1660 1.403 . S
C1660 C1659 1.403 . S
C1660 C1661 1.404 . S
C1660 C1663 1.539 . S
C1661 C1657 1.408 . S
C1661 C1660 1.404 . S
C1661 H1673 0.930 . S
C1662 C1658 1.524 . S
C1662 H1674 0.956 . S
C1662 H1675 0.961 . S
C1662 H1676 0.961 . S
C1663 C1660 1.539 . S
C1663 H1677 0.958 . S
C1663 H1678 0.961 . S
C1663 H1679 0.960 . S
H1664 C1648 0.931 . S
H1665 C1653 0.929 . S
H1666 C1654 0.960 . S
H1667 C1654 0.962 . S
H1668 C1654 0.960 . S
H1669 C1655 0.961 . S
H1670 C1655 0.961 . S
H1671 C1655 0.961 . S
H1672 C1656 0.931 . S
H1673 C1661 0.930 . S
H1674 C1662 0.956 . S
H1675 C1662 0.961 . S
H1676 C1662 0.961 . S
H1677 C1663 0.958 . S
H1678 C1663 0.961 . S
H1679 C1663 0.960 . S
C1680 C1681 1.391 . S
C1680 C1682 1.394 . S
C1680 H1696 0.931 . S
C1681 C1680 1.391 . S
C1681 C1685 1.376 . S
C1682 C1680 1.394 . S
C1682 C1683 1.369 . S
C1682 C1686 1.531 1_545 S
C1683 C1682 1.369 . S
C1683 C1684 1.410 . S
C1683 C1691 1.503 . S
C1684 C1683 1.410 . S
C1684 C1685 1.392 . S
C1684 C1687 1.511 . S
C1685 C1681 1.376 . S
C1685 C1684 1.392 . S
C1685 H1697 0.929 . S
C1686 C1682 1.531 1_565 S
C1686 H1698 0.960 . S
C1686 H1699 0.962 . S
C1686 H1700 0.960 . S
C1687 C1684 1.511 . S
C1687 H1701 0.961 . S
C1687 H1702 0.961 . S
C1687 H1703 0.961 . S
C1688 C1689 1.370 . S
C1688 C1690 1.363 . S
C1688 H1704 0.931 . S
C1689 C1688 1.370 . S
C1689 C1693 1.408 . S
C1690 C1688 1.363 . S
C1690 C1691 1.370 . S
C1690 C1694 1.524 . S
C1691 C1683 1.503 . S
C1691 C1690 1.370 . S
C1691 C1692 1.403 . S
C1692 C1691 1.403 . S
C1692 C1693 1.404 . S
C1692 C1695 1.539 . S
C1693 C1689 1.408 . S
C1693 C1692 1.404 . S
C1693 H1705 0.930 . S
C1694 C1690 1.524 . S
C1694 H1706 0.956 . S
C1694 H1707 0.961 . S
C1694 H1708 0.961 . S
C1695 C1692 1.539 . S
C1695 H1709 0.958 1_545 S
C1695 H1710 0.961 . S
C1695 H1711 0.960 . S
H1696 C1680 0.931 . S
H1697 C1685 0.929 . S
H1698 C1686 0.960 . S
H1699 C1686 0.962 . S
H1700 C1686 0.960 . S
H1701 C1687 0.961 . S
H1702 C1687 0.961 . S
H1703 C1687 0.961 . S
H1704 C1688 0.931 . S
H1705 C1693 0.930 . S
H1706 C1694 0.956 . S
H1707 C1694 0.961 . S
H1708 C1694 0.961 . S
H1709 C1695 0.958 1_565 S
H1710 C1695 0.961 . S
H1711 C1695 0.960 . S
C1712 C1713 1.391 . S
C1712 C1714 1.394 . S
C1712 H1728 0.931 . S
C1713 C1712 1.391 . S
C1713 C1717 1.376 . S
C1714 C1712 1.394 . S
C1714 C1715 1.369 . S
C1714 C1718 1.531 . S
C1715 C1714 1.369 . S
C1715 C1716 1.410 . S
C1715 C1723 1.503 . S
C1716 C1715 1.410 . S
C1716 C1717 1.392 . S
C1716 C1719 1.511 . S
C1717 C1713 1.376 . S
C1717 C1716 1.392 . S
C1717 H1729 0.929 . S
C1718 C1714 1.531 . S
C1718 H1730 0.960 . S
C1718 H1731 0.962 . S
C1718 H1732 0.960 . S
C1719 C1716 1.511 . S
C1719 H1733 0.961 . S
C1719 H1734 0.961 . S
C1719 H1735 0.961 . S
C1720 C1721 1.370 . S
C1720 C1722 1.363 . S
C1720 H1736 0.931 . S
C1721 C1720 1.370 . S
C1721 C1725 1.408 . S
C1722 C1720 1.363 . S
C1722 C1723 1.370 . S
C1722 C1726 1.524 . S
C1723 C1715 1.503 . S
C1723 C1722 1.370 . S
C1723 C1724 1.403 . S
C1724 C1723 1.403 . S
C1724 C1725 1.404 . S
C1724 C1727 1.539 . S
C1725 C1721 1.408 . S
C1725 C1724 1.404 . S
C1725 H1737 0.930 . S
C1726 C1722 1.524 . S
C1726 H1738 0.956 . S
C1726 H1739 0.961 . S
C1726 H1740 0.961 . S
C1727 C1724 1.539 . S
C1727 H1741 0.958 . S
C1727 H1742 0.961 . S
C1727 H1743 0.960 . S
H1728 C1712 0.931 . S
H1729 C1717 0.929 . S
H1730 C1718 0.960 . S
H1731 C1718 0.962 . S
H1732 C1718 0.960 . S
H1733 C1719 0.961 . S
H1734 C1719 0.961 . S
H1735 C1719 0.961 . S
H1736 C1720 0.931 . S
H1737 C1725 0.930 . S
H1738 C1726 0.956 . S
H1739 C1726 0.961 . S
H1740 C1726 0.961 . S
H1741 C1727 0.958 . S
H1742 C1727 0.961 . S
H1743 C1727 0.960 . S
C1744 C1745 1.391 . S
C1744 C1746 1.394 . S
C1744 H1760 0.931 . S
C1745 C1744 1.391 . S
C1745 C1749 1.376 . S
C1746 C1744 1.394 . S
C1746 C1747 1.369 . S
C1746 C1750 1.531 . S
C1747 C1746 1.369 . S
C1747 C1748 1.410 . S
C1747 C1755 1.503 . S
C1748 C1747 1.410 . S
C1748 C1749 1.392 . S
C1748 C1751 1.511 . S
C1749 C1745 1.376 . S
C1749 C1748 1.392 . S
C1749 H1761 0.929 . S
C1750 C1746 1.531 . S
C1750 H1762 0.960 . S
C1750 H1763 0.962 . S
C1750 H1764 0.960 . S
C1751 C1748 1.511 . S
C1751 H1765 0.961 . S
C1751 H1766 0.961 . S
C1751 H1767 0.961 . S
C1752 C1753 1.370 . S
C1752 C1754 1.363 . S
C1752 H1768 0.931 . S
C1753 C1752 1.370 . S
C1753 C1757 1.408 . S
C1754 C1752 1.363 . S
C1754 C1755 1.370 . S
C1754 C1758 1.524 . S
C1755 C1747 1.503 . S
C1755 C1754 1.370 . S
C1755 C1756 1.403 . S
C1756 C1755 1.403 . S
C1756 C1757 1.404 . S
C1756 C1759 1.539 . S
C1757 C1753 1.408 . S
C1757 C1756 1.404 . S
C1757 H1769 0.930 . S
C1758 C1754 1.524 . S
C1758 H1770 0.956 . S
C1758 H1771 0.961 . S
C1758 H1772 0.961 . S
C1759 C1756 1.539 . S
C1759 H1773 0.958 . S
C1759 H1774 0.961 . S
C1759 H1775 0.960 . S
H1760 C1744 0.931 . S
H1761 C1749 0.929 . S
H1762 C1750 0.960 . S
H1763 C1750 0.962 . S
H1764 C1750 0.960 . S
H1765 C1751 0.961 . S
H1766 C1751 0.961 . S
H1767 C1751 0.961 . S
H1768 C1752 0.931 . S
H1769 C1757 0.930 . S
H1770 C1758 0.956 . S
H1771 C1758 0.961 . S
H1772 C1758 0.961 . S
H1773 C1759 0.958 . S
H1774 C1759 0.961 . S
H1775 C1759 0.960 . S
C1776 C1777 1.391 . S
C1776 C1778 1.394 1_565 S
C1776 H1792 0.931 1_565 S
C1777 C1776 1.391 . S
C1777 C1781 1.376 . S
C1778 C1776 1.394 1_545 S
C1778 C1779 1.369 1_545 S
C1778 C1782 1.531 . S
C1779 C1778 1.369 1_565 S
C1779 C1780 1.410 . S
C1779 C1787 1.503 . S
C1780 C1779 1.410 . S
C1780 C1781 1.392 . S
C1780 C1783 1.511 . S
C1781 C1777 1.376 . S
C1781 C1780 1.392 . S
C1781 H1793 0.929 . S
C1782 C1778 1.531 . S
C1782 H1794 0.960 . S
C1782 H1795 0.962 . S
C1782 H1796 0.960 . S
C1783 C1780 1.511 . S
C1783 H1797 0.961 . S
C1783 H1798 0.961 . S
C1783 H1799 0.961 . S
C1784 C1785 1.358 1_565 S
C1784 C1786 1.372 . S
C1784 H1800 0.936 . S
C1785 C1784 1.358 1_545 S
C1785 C1789 1.408 . S
C1786 C1784 1.372 . S
C1786 C1787 1.370 . S
C1786 C1790 1.524 . S
C1787 C1779 1.503 . S
C1787 C1786 1.370 . S
C1787 C1788 1.403 1_565 S
C1788 C1787 1.403 1_545 S
C1788 C1789 1.404 . S
C1788 C1791 1.539 . S
C1789 C1785 1.408 . S
C1789 C1788 1.404 . S
C1789 H1801 0.930 . S
C1790 C1786 1.524 . S
C1790 H1802 0.956 . S
C1790 H1803 0.961 . S
C1790 H1804 0.961 . S
C1791 C1788 1.539 . S
C1791 H1805 0.958 . S
C1791 H1806 0.961 . S
C1791 H1807 0.958 . S
H1792 C1776 0.931 1_545 S
H1793 C1781 0.929 . S
H1794 C1782 0.960 . S
H1795 C1782 0.962 . S
H1796 C1782 0.960 . S
H1797 C1783 0.961 . S
H1798 C1783 0.961 . S
H1799 C1783 0.961 . S
H1800 C1784 0.936 . S
H1801 C1789 0.930 . S
H1802 C1790 0.956 . S
H1803 C1790 0.961 . S
H1804 C1790 0.961 . S
H1805 C1791 0.958 . S
H1806 C1791 0.961 . S
H1807 C1791 0.958 . S
C1808 C1809 1.391 . S
C1808 C1810 1.394 . S
C1808 H1824 0.931 . S
C1809 C1808 1.391 . S
C1809 C1813 1.376 . S
C1810 C1808 1.394 . S
C1810 C1811 1.369 . S
C1810 C1814 1.531 . S
C1811 C1810 1.369 . S
C1811 C1812 1.410 . S
C1811 C1819 1.503 . S
C1812 C1811 1.410 . S
C1812 C1813 1.392 . S
C1812 C1815 1.511 . S
C1813 C1809 1.376 . S
C1813 C1812 1.392 . S
C1813 H1825 0.929 . S
C1814 C1810 1.531 . S
C1814 H1826 0.960 . S
C1814 H1827 0.962 . S
C1814 H1828 0.960 . S
C1815 C1812 1.511 . S
C1815 H1829 0.961 . S
C1815 H1830 0.961 . S
C1815 H1831 0.961 . S
C1816 C1817 1.370 . S
C1816 C1818 1.363 . S
C1816 H1832 0.931 . S
C1817 C1816 1.370 . S
C1817 C1821 1.408 . S
C1818 C1816 1.363 . S
C1818 C1819 1.370 . S
C1818 C1822 1.524 . S
C1819 C1811 1.503 . S
C1819 C1818 1.370 . S
C1819 C1820 1.403 . S
C1820 C1819 1.403 . S
C1820 C1821 1.404 . S
C1820 C1823 1.539 . S
C1821 C1817 1.408 . S
C1821 C1820 1.404 . S
C1821 H1833 0.930 . S
C1822 C1818 1.524 . S
C1822 H1834 0.956 . S
C1822 H1835 0.961 . S
C1822 H1836 0.961 . S
C1823 C1820 1.539 . S
C1823 H1837 0.958 . S
C1823 H1838 0.961 . S
C1823 H1839 0.960 . S
H1824 C1808 0.931 . S
H1825 C1813 0.929 . S
H1826 C1814 0.960 . S
H1827 C1814 0.962 . S
H1828 C1814 0.960 . S
H1829 C1815 0.961 . S
H1830 C1815 0.961 . S
H1831 C1815 0.961 . S
H1832 C1816 0.931 . S
H1833 C1821 0.930 . S
H1834 C1822 0.956 . S
H1835 C1822 0.961 . S
H1836 C1822 0.961 . S
H1837 C1823 0.958 . S
H1838 C1823 0.961 . S
H1839 C1823 0.960 . S
C1840 C1841 1.391 1_545 S
C1840 C1842 1.394 . S
C1840 H1856 0.931 . S
C1841 C1840 1.391 1_565 S
C1841 C1845 1.376 . S
C1842 C1840 1.394 . S
C1842 C1843 1.369 . S
C1842 C1846 1.531 . S
C1843 C1842 1.369 . S
C1843 C1844 1.410 1_545 S
C1843 C1851 1.503 . S
C1844 C1843 1.410 1_565 S
C1844 C1845 1.392 . S
C1844 C1847 1.511 . S
C1845 C1841 1.376 . S
C1845 C1844 1.392 . S
C1845 H1857 0.929 . S
C1846 C1842 1.531 . S
C1846 H1858 0.960 . S
C1846 H1859 0.962 . S
C1846 H1860 0.960 . S
C1847 C1844 1.511 . S
C1847 H1861 0.961 . S
C1847 H1862 0.961 . S
C1847 H1863 0.961 . S
C1848 C1849 1.370 . S
C1848 C1850 1.363 . S
C1848 H1864 0.931 . S
C1849 C1848 1.370 . S
C1849 C1853 1.408 . S
C1850 C1848 1.363 . S
C1850 C1851 1.370 . S
C1850 C1854 1.524 . S
C1851 C1843 1.503 . S
C1851 C1850 1.370 . S
C1851 C1852 1.403 . S
C1852 C1851 1.403 . S
C1852 C1853 1.404 . S
C1852 C1855 1.539 1_545 S
C1853 C1849 1.408 . S
C1853 C1852 1.404 . S
C1853 H1865 0.930 . S
C1854 C1850 1.524 . S
C1854 H1866 0.956 . S
C1854 H1867 0.961 . S
C1854 H1868 0.961 . S
C1855 C1852 1.539 1_565 S
C1855 H1869 0.958 1_565 S
C1855 H1870 0.961 . S
C1855 H1871 0.960 . S
H1856 C1840 0.931 . S
H1857 C1845 0.929 . S
H1858 C1846 0.960 . S
H1859 C1846 0.962 . S
H1860 C1846 0.960 . S
H1861 C1847 0.961 . S
H1862 C1847 0.961 . S
H1863 C1847 0.961 . S
H1864 C1848 0.931 . S
H1865 C1853 0.930 . S
H1866 C1854 0.956 . S
H1867 C1854 0.961 . S
H1868 C1854 0.961 . S
H1869 C1855 0.958 1_545 S
H1870 C1855 0.961 . S
H1871 C1855 0.960 . S
C1872 C1873 1.391 . S
C1872 C1874 1.394 . S
C1872 H1888 0.931 . S
C1873 C1872 1.391 . S
C1873 C1877 1.376 . S
C1874 C1872 1.394 . S
C1874 C1875 1.369 . S
C1874 C1878 1.531 . S
C1875 C1874 1.369 . S
C1875 C1876 1.410 . S
C1875 C1883 1.503 . S
C1876 C1875 1.410 . S
C1876 C1877 1.392 . S
C1876 C1879 1.511 . S
C1877 C1873 1.376 . S
C1877 C1876 1.392 . S
C1877 H1889 0.929 . S
C1878 C1874 1.531 . S
C1878 H1890 0.960 . S
C1878 H1891 0.962 . S
C1878 H1892 0.960 . S
C1879 C1876 1.511 . S
C1879 H1893 0.961 . S
C1879 H1894 0.961 . S
C1879 H1895 0.961 . S
C1880 C1881 1.370 . S
C1880 C1882 1.363 . S
C1880 H1896 0.931 . S
C1881 C1880 1.370 . S
C1881 C1885 1.408 . S
C1882 C1880 1.363 . S
C1882 C1883 1.370 . S
C1882 C1886 1.524 . S
C1883 C1875 1.503 . S
C1883 C1882 1.370 . S
C1883 C1884 1.403 . S
C1884 C1883 1.403 . S
C1884 C1885 1.404 . S
C1884 C1887 1.539 . S
C1885 C1881 1.408 . S
C1885 C1884 1.404 . S
C1885 H1897 0.930 . S
C1886 C1882 1.524 . S
C1886 H1898 0.956 . S
C1886 H1899 0.961 . S
C1886 H1900 0.961 . S
C1887 C1884 1.539 . S
C1887 H1901 0.958 . S
C1887 H1902 0.961 . S
C1887 H1903 0.960 . S
H1888 C1872 0.931 . S
H1889 C1877 0.929 . S
H1890 C1878 0.960 . S
H1891 C1878 0.962 . S
H1892 C1878 0.960 . S
H1893 C1879 0.961 . S
H1894 C1879 0.961 . S
H1895 C1879 0.961 . S
H1896 C1880 0.931 . S
H1897 C1885 0.930 . S
H1898 C1886 0.956 . S
H1899 C1886 0.961 . S
H1900 C1886 0.961 . S
H1901 C1887 0.958 . S
H1902 C1887 0.961 . S
H1903 C1887 0.960 . S
C1904 C1905 1.391 . S
C1904 C1906 1.394 . S
C1904 H1920 0.931 . S
C1905 C1904 1.391 . S
C1905 C1909 1.376 . S
C1906 C1904 1.394 . S
C1906 C1907 1.369 . S
C1906 C1910 1.531 . S
C1907 C1906 1.369 . S
C1907 C1908 1.410 . S
C1907 C1915 1.503 . S
C1908 C1907 1.410 . S
C1908 C1909 1.392 . S
C1908 C1911 1.511 1_545 S
C1909 C1905 1.376 . S
C1909 C1908 1.392 . S
C1909 H1921 0.929 . S
C1910 C1906 1.531 . S
C1910 H1922 0.960 . S
C1910 H1923 0.962 . S
C1910 H1924 0.960 . S
C1911 C1908 1.511 1_565 S
C1911 H1925 0.961 . S
C1911 H1926 0.961 . S
C1911 H1927 0.961 . S
C1912 C1913 1.370 . S
C1912 C1914 1.363 . S
C1912 H1928 0.931 . S
C1913 C1912 1.370 . S
C1913 C1917 1.408 1_565 S
C1914 C1912 1.363 . S
C1914 C1915 1.370 1_565 S
C1914 C1918 1.524 . S
C1915 C1907 1.503 . S
C1915 C1914 1.370 1_545 S
C1915 C1916 1.403 . S
C1916 C1915 1.403 . S
C1916 C1917 1.404 . S
C1916 C1919 1.539 . S
C1917 C1913 1.408 1_545 S
C1917 C1916 1.404 . S
C1917 H1929 0.930 . S
C1918 C1914 1.524 . S
C1918 H1930 0.956 . S
C1918 H1931 0.961 . S
C1918 H1932 0.961 . S
C1919 C1916 1.539 . S
C1919 H1933 0.958 . S
C1919 H1934 0.961 . S
C1919 H1935 0.960 . S
H1920 C1904 0.931 . S
H1921 C1909 0.929 . S
H1922 C1910 0.960 . S
H1923 C1910 0.962 . S
H1924 C1910 0.960 . S
H1925 C1911 0.961 . S
H1926 C1911 0.961 . S
H1927 C1911 0.961 . S
H1928 C1912 0.931 . S
H1929 C1917 0.930 . S
H1930 C1918 0.956 . S
H1931 C1918 0.961 . S
H1932 C1918 0.961 . S
H1933 C1919 0.958 . S
H1934 C1919 0.961 . S
H1935 C1919 0.960 . S
C1936 C1937 1.391 . S
C1936 C1938 1.394 . S
C1936 H1952 0.931 . S
C1937 C1936 1.391 . S
C1937 C1941 1.376 . S
C1938 C1936 1.394 . S
C1938 C1939 1.369 . S
C1938 C1942 1.531 . S
C1939 C1938 1.369 . S
C1939 C1940 1.410 . S
C1939 C1947 1.503 . S
C1940 C1939 1.410 . S
C1940 C1941 1.392 . S
C1940 C1943 1.511 . S
C1941 C1937 1.376 . S
C1941 C1940 1.392 . S
C1941 H1953 0.929 . S
C1942 C1938 1.531 . S
C1942 H1954 0.960 . S
C1942 H1955 0.962 . S
C1942 H1956 0.960 . S
C1943 C1940 1.511 . S
C1943 H1957 0.961 . S
C1943 H1958 0.961 . S
C1943 H1959 0.961 . S
C1944 C1945 1.370 . S
C1944 C1946 1.363 . S
C1944 H1960 0.931 . S
C1945 C1944 1.370 . S
C1945 C1949 1.408 . S
C1946 C1944 1.363 . S
C1946 C1947 1.370 . S
C1946 C1950 1.524 . S
C1947 C1939 1.503 . S
C1947 C1946 1.370 . S
C1947 C1948 1.403 . S
C1948 C1947 1.403 . S
C1948 C1949 1.404 . S
C1948 C1951 1.539 . S
C1949 C1945 1.408 . S
C1949 C1948 1.404 . S
C1949 H1961 0.930 . S
C1950 C1946 1.524 . S
C1950 H1962 0.956 . S
C1950 H1963 0.961 . S
C1950 H1964 0.961 . S
C1951 C1948 1.539 . S
C1951 H1965 0.958 . S
C1951 H1966 0.961 . S
C1951 H1967 0.960 . S
H1952 C1936 0.931 . S
H1953 C1941 0.929 . S
H1954 C1942 0.960 . S
H1955 C1942 0.962 . S
H1956 C1942 0.960 . S
H1957 C1943 0.961 . S
H1958 C1943 0.961 . S
H1959 C1943 0.961 . S
H1960 C1944 0.931 . S
H1961 C1949 0.930 . S
H1962 C1950 0.956 . S
H1963 C1950 0.961 . S
H1964 C1950 0.961 . S
H1965 C1951 0.958 . S
H1966 C1951 0.961 . S
H1967 C1951 0.960 . S
C1968 C1969 1.391 . S
C1968 C1970 1.394 . S
C1968 H1984 0.931 . S
C1969 C1968 1.391 . S
C1969 C1973 1.376 . S
C1970 C1968 1.394 . S
C1970 C1971 1.369 . S
C1970 C1974 1.531 . S
C1971 C1970 1.369 . S
C1971 C1972 1.410 1_565 S
C1971 C1979 1.503 . S
C1972 C1971 1.410 1_545 S
C1972 C1973 1.392 1_545 S
C1972 C1975 1.511 . S
C1973 C1969 1.376 . S
C1973 C1972 1.392 1_565 S
C1973 H1985 0.929 1_565 S
C1974 C1970 1.531 . S
C1974 H1986 0.960 . S
C1974 H1987 0.962 . S
C1974 H1988 0.960 . S
C1975 C1972 1.511 . S
C1975 H1989 0.961 . S
C1975 H1990 0.961 . S
C1975 H1991 0.961 . S
C1976 C1977 1.370 . S
C1976 C1978 1.363 . S
C1976 H1992 0.931 . S
C1977 C1976 1.370 . S
C1977 C1981 1.408 1_545 S
C1978 C1976 1.363 . S
C1978 C1979 1.370 1_545 S
C1978 C1982 1.524 . S
C1979 C1971 1.503 . S
C1979 C1978 1.370 1_565 S
C1979 C1980 1.403 . S
C1980 C1979 1.403 . S
C1980 C1981 1.404 . S
C1980 C1983 1.539 . S
C1981 C1977 1.408 1_565 S
C1981 C1980 1.404 . S
C1981 H1993 0.930 . S
C1982 C1978 1.524 . S
C1982 H1994 0.956 . S
C1982 H1995 0.961 . S
C1982 H1996 0.961 . S
C1983 C1980 1.539 . S
C1983 H1997 0.958 . S
C1983 H1998 0.961 . S
C1983 H1999 0.960 . S
H1984 C1968 0.931 . S
H1985 C1973 0.929 1_545 S
H1986 C1974 0.960 . S
H1987 C1974 0.962 . S
H1988 C1974 0.960 . S
H1989 C1975 0.961 . S
H1990 C1975 0.961 . S
H1991 C1975 0.961 . S
H1992 C1976 0.931 . S
H1993 C1981 0.930 . S
H1994 C1982 0.956 . S
H1995 C1982 0.961 . S
H1996 C1982 0.961 . S
H1997 C1983 0.958 . S
H1998 C1983 0.961 . S
H1999 C1983 0.960 . S
C2000 C2001 1.391 . S
C2000 C2002 1.394 . S
C2000 H2016 0.931 . S
C2001 C2000 1.391 . S
C2001 C2005 1.376 . S
C2002 C2000 1.394 . S
C2002 C2003 1.369 . S
C2002 C2006 1.531 . S
C2003 C2002 1.369 . S
C2003 C2004 1.410 . S
C2003 C2011 1.503 . S
C2004 C2003 1.410 . S
C2004 C2005 1.392 . S
C2004 C2007 1.511 . S
C2005 C2001 1.376 . S
C2005 C2004 1.392 . S
C2005 H2017 0.929 . S
C2006 C2002 1.531 . S
C2006 H2018 0.960 . S
C2006 H2019 0.962 . S
C2006 H2020 0.960 . S
C2007 C2004 1.511 . S
C2007 H2021 0.961 . S
C2007 H2022 0.961 . S
C2007 H2023 0.961 . S
C2008 C2009 1.370 . S
C2008 C2010 1.363 . S
C2008 H2024 0.931 . S
C2009 C2008 1.370 . S
C2009 C2013 1.408 . S
C2010 C2008 1.363 . S
C2010 C2011 1.370 . S
C2010 C2014 1.524 . S
C2011 C2003 1.503 . S
C2011 C2010 1.370 . S
C2011 C2012 1.403 . S
C2012 C2011 1.403 . S
C2012 C2013 1.404 . S
C2012 C2015 1.539 . S
C2013 C2009 1.408 . S
C2013 C2012 1.404 . S
C2013 H2025 0.930 . S
C2014 C2010 1.524 . S
C2014 H2026 0.956 . S
C2014 H2027 0.961 . S
C2014 H2028 0.961 . S
C2015 C2012 1.539 . S
C2015 H2029 0.958 . S
C2015 H2030 0.961 . S
C2015 H2031 0.960 . S
H2016 C2000 0.931 . S
H2017 C2005 0.929 . S
H2018 C2006 0.960 . S
H2019 C2006 0.962 . S
H2020 C2006 0.960 . S
H2021 C2007 0.961 . S
H2022 C2007 0.961 . S
H2023 C2007 0.961 . S
H2024 C2008 0.931 . S
H2025 C2013 0.930 . S
H2026 C2014 0.956 . S
H2027 C2014 0.961 . S
H2028 C2014 0.961 . S
H2029 C2015 0.958 . S
H2030 C2015 0.961 . S
H2031 C2015 0.960 . S
C2032 C2033 1.391 . S
C2032 C2034 1.394 . S
C2032 H2048 0.931 . S
C2033 C2032 1.391 . S
C2033 C2037 1.376 . S
C2034 C2032 1.394 . S
C2034 C2035 1.369 . S
C2034 C2038 1.531 . S
C2035 C2034 1.369 . S
C2035 C2036 1.410 . S
C2035 C2043 1.503 . S
C2036 C2035 1.410 . S
C2036 C2037 1.392 . S
C2036 C2039 1.511 . S
C2037 C2033 1.376 . S
C2037 C2036 1.392 . S
C2037 H2049 0.929 . S
C2038 C2034 1.531 . S
C2038 H2050 0.960 . S
C2038 H2051 0.962 . S
C2038 H2052 0.960 . S
C2039 C2036 1.511 . S
C2039 H2053 0.961 . S
C2039 H2054 0.961 . S
C2039 H2055 0.961 . S
C2040 C2041 1.370 . S
C2040 C2042 1.363 . S
C2040 H2056 0.931 . S
C2041 C2040 1.370 . S
C2041 C2045 1.408 . S
C2042 C2040 1.363 . S
C2042 C2043 1.370 . S
C2042 C2046 1.524 . S
C2043 C2035 1.503 . S
C2043 C2042 1.370 . S
C2043 C2044 1.403 . S
C2044 C2043 1.403 . S
C2044 C2045 1.404 . S
C2044 C2047 1.539 . S
C2045 C2041 1.408 . S
C2045 C2044 1.404 . S
C2045 H2057 0.930 . S
C2046 C2042 1.524 . S
C2046 H2058 0.956 . S
C2046 H2059 0.961 . S
C2046 H2060 0.961 . S
C2047 C2044 1.539 . S
C2047 H2061 0.958 . S
C2047 H2062 0.961 . S
C2047 H2063 0.960 . S
H2048 C2032 0.931 . S
H2049 C2037 0.929 . S
H2050 C2038 0.960 . S
H2051 C2038 0.962 . S
H2052 C2038 0.960 . S
H2053 C2039 0.961 . S
H2054 C2039 0.961 . S
H2055 C2039 0.961 . S
H2056 C2040 0.931 . S
H2057 C2045 0.930 . S
H2058 C2046 0.956 . S
H2059 C2046 0.961 . S
H2060 C2046 0.961 . S
H2061 C2047 0.958 . S
H2062 C2047 0.961 . S
H2063 C2047 0.960 . S
C2064 C2065 1.391 . S
C2064 C2066 1.394 . S
C2064 H2080 0.931 . S
C2065 C2064 1.391 . S
C2065 C2069 1.376 . S
C2066 C2064 1.394 . S
C2066 C2067 1.369 . S
C2066 C2070 1.531 . S
C2067 C2066 1.369 . S
C2067 C2068 1.410 . S
C2067 C2075 1.503 1_455 S
C2068 C2067 1.410 . S
C2068 C2069 1.392 . S
C2068 C2071 1.511 1_455 S
C2069 C2065 1.376 . S
C2069 C2068 1.392 . S
C2069 H2081 0.929 . S
C2070 C2066 1.531 . S
C2070 H2082 0.960 . S
C2070 H2083 0.962 . S
C2070 H2084 0.960 . S
C2071 C2068 1.511 1_655 S
C2071 H2085 0.961 1_655 S
C2071 H2086 0.961 . S
C2071 H2087 0.961 . S
C2072 C2073 1.370 . S
C2072 C2074 1.363 . S
C2072 H2088 0.931 . S
C2073 C2072 1.370 . S
C2073 C2077 1.408 . S
C2074 C2072 1.363 . S
C2074 C2075 1.370 . S
C2074 C2078 1.524 . S
C2075 C2067 1.503 1_655 S
C2075 C2074 1.370 . S
C2075 C2076 1.403 . S
C2076 C2075 1.403 . S
C2076 C2077 1.404 . S
C2076 C2079 1.539 . S
C2077 C2073 1.408 . S
C2077 C2076 1.404 . S
C2077 H2089 0.930 . S
C2078 C2074 1.524 . S
C2078 H2090 0.956 1_655 S
C2078 H2091 0.961 . S
C2078 H2092 0.961 . S
C2079 C2076 1.539 . S
C2079 H2093 0.958 . S
C2079 H2094 0.961 . S
C2079 H2095 0.960 . S
H2080 C2064 0.931 . S
H2081 C2069 0.929 . S
H2082 C2070 0.960 . S
H2083 C2070 0.962 . S
H2084 C2070 0.960 . S
H2085 C2071 0.961 1_455 S
H2086 C2071 0.961 . S
H2087 C2071 0.961 . S
H2088 C2072 0.931 . S
H2089 C2077 0.930 . S
H2090 C2078 0.956 1_455 S
H2091 C2078 0.961 . S
H2092 C2078 0.961 . S
H2093 C2079 0.958 . S
H2094 C2079 0.961 . S
H2095 C2079 0.960 . S
C2096 C2097 1.391 . S
C2096 C2098 1.394 . S
C2096 H2112 0.931 . S
C2097 C2096 1.391 . S
C2097 C2101 1.376 1_455 S
C2098 C2096 1.394 . S
C2098 C2099 1.369 . S
C2098 C2102 1.531 . S
C2099 C2098 1.369 . S
C2099 C2100 1.410 1_455 S
C2099 C2107 1.503 1_455 S
C2100 C2099 1.410 1_655 S
C2100 C2101 1.392 . S
C2100 C2103 1.511 . S
C2101 C2097 1.376 1_655 S
C2101 C2100 1.392 . S
C2101 H2113 0.929 . S
C2102 C2098 1.531 . S
C2102 H2114 0.960 . S
C2102 H2115 0.962 . S
C2102 H2116 0.960 . S
C2103 C2100 1.511 . S
C2103 H2117 0.961 . S
C2103 H2118 0.961 . S
C2103 H2119 0.961 . S
C2104 C2105 1.370 . S
C2104 C2106 1.363 . S
C2104 H2120 0.931 . S
C2105 C2104 1.370 . S
C2105 C2109 1.408 . S
C2106 C2104 1.363 . S
C2106 C2107 1.370 . S
C2106 C2110 1.524 1_655 S
C2107 C2099 1.503 1_655 S
C2107 C2106 1.370 . S
C2107 C2108 1.403 . S
C2108 C2107 1.403 . S
C2108 C2109 1.404 . S
C2108 C2111 1.539 . S
C2109 C2105 1.408 . S
C2109 C2108 1.404 . S
C2109 H2121 0.930 . S
C2110 C2106 1.524 1_455 S
C2110 H2122 0.956 . S
C2110 H2123 0.961 1_455 S
C2110 H2124 0.961 . S
C2111 C2108 1.539 . S
C2111 H2125 0.958 . S
C2111 H2126 0.961 . S
C2111 H2127 0.960 . S
H2112 C2096 0.931 . S
H2113 C2101 0.929 . S
H2114 C2102 0.960 . S
H2115 C2102 0.962 . S
H2116 C2102 0.960 . S
H2117 C2103 0.961 . S
H2118 C2103 0.961 . S
H2119 C2103 0.961 . S
H2120 C2104 0.931 . S
H2121 C2109 0.930 . S
H2122 C2110 0.956 . S
H2123 C2110 0.961 1_655 S
H2124 C2110 0.961 . S
H2125 C2111 0.958 . S
H2126 C2111 0.961 . S
H2127 C2111 0.960 . S
C2128 C2129 1.391 . S
C2128 C2130 1.394 . S
C2128 H2144 0.931 . S
C2129 C2128 1.391 . S
C2129 C2133 1.376 . S
C2130 C2128 1.394 . S
C2130 C2131 1.369 . S
C2130 C2134 1.531 . S
C2131 C2130 1.369 . S
C2131 C2132 1.410 . S
C2131 C2139 1.503 . S
C2132 C2131 1.410 . S
C2132 C2133 1.392 . S
C2132 C2135 1.511 . S
C2133 C2129 1.376 . S
C2133 C2132 1.392 . S
C2133 H2145 0.929 . S
C2134 C2130 1.531 . S
C2134 H2146 0.960 . S
C2134 H2147 0.962 . S
C2134 H2148 0.960 . S
C2135 C2132 1.511 . S
C2135 H2149 0.961 . S
C2135 H2150 0.961 . S
C2135 H2151 0.961 . S
C2136 C2137 1.370 . S
C2136 C2138 1.363 . S
C2136 H2152 0.931 . S
C2137 C2136 1.370 . S
C2137 C2141 1.408 . S
C2138 C2136 1.363 . S
C2138 C2139 1.370 . S
C2138 C2142 1.524 . S
C2139 C2131 1.503 . S
C2139 C2138 1.370 . S
C2139 C2140 1.403 . S
C2140 C2139 1.403 . S
C2140 C2141 1.404 . S
C2140 C2143 1.539 . S
C2141 C2137 1.408 . S
C2141 C2140 1.404 . S
C2141 H2153 0.930 . S
C2142 C2138 1.524 . S
C2142 H2154 0.956 . S
C2142 H2155 0.961 . S
C2142 H2156 0.961 . S
C2143 C2140 1.539 . S
C2143 H2157 0.958 . S
C2143 H2158 0.961 . S
C2143 H2159 0.960 . S
H2144 C2128 0.931 . S
H2145 C2133 0.929 . S
H2146 C2134 0.960 . S
H2147 C2134 0.962 . S
H2148 C2134 0.960 . S
H2149 C2135 0.961 . S
H2150 C2135 0.961 . S
H2151 C2135 0.961 . S
H2152 C2136 0.931 . S
H2153 C2141 0.930 . S
H2154 C2142 0.956 . S
H2155 C2142 0.961 . S
H2156 C2142 0.961 . S
H2157 C2143 0.958 . S
H2158 C2143 0.961 . S
H2159 C2143 0.960 . S
C2160 C2161 1.391 . S
C2160 C2162 1.394 . S
C2160 H2176 0.931 . S
C2161 C2160 1.391 . S
C2161 C2165 1.376 . S
C2162 C2160 1.394 . S
C2162 C2163 1.369 . S
C2162 C2166 1.531 . S
C2163 C2162 1.369 . S
C2163 C2164 1.410 . S
C2163 C2171 1.503 . S
C2164 C2163 1.410 . S
C2164 C2165 1.392 . S
C2164 C2167 1.511 . S
C2165 C2161 1.376 . S
C2165 C2164 1.392 . S
C2165 H2177 0.929 . S
C2166 C2162 1.531 . S
C2166 H2178 0.960 . S
C2166 H2179 0.962 . S
C2166 H2180 0.960 . S
C2167 C2164 1.511 . S
C2167 H2181 0.961 . S
C2167 H2182 0.961 . S
C2167 H2183 0.961 . S
C2168 C2169 1.370 . S
C2168 C2170 1.363 . S
C2168 H2184 0.931 . S
C2169 C2168 1.370 . S
C2169 C2173 1.408 . S
C2170 C2168 1.363 . S
C2170 C2171 1.370 . S
C2170 C2174 1.524 . S
C2171 C2163 1.503 . S
C2171 C2170 1.370 . S
C2171 C2172 1.403 . S
C2172 C2171 1.403 . S
C2172 C2173 1.404 . S
C2172 C2175 1.539 . S
C2173 C2169 1.408 . S
C2173 C2172 1.404 . S
C2173 H2185 0.930 . S
C2174 C2170 1.524 . S
C2174 H2186 0.956 . S
C2174 H2187 0.961 . S
C2174 H2188 0.961 . S
C2175 C2172 1.539 . S
C2175 H2189 0.958 . S
C2175 H2190 0.961 . S
C2175 H2191 0.960 . S
H2176 C2160 0.931 . S
H2177 C2165 0.929 . S
H2178 C2166 0.960 . S
H2179 C2166 0.962 . S
H2180 C2166 0.960 . S
H2181 C2167 0.961 . S
H2182 C2167 0.961 . S
H2183 C2167 0.961 . S
H2184 C2168 0.931 . S
H2185 C2173 0.930 . S
H2186 C2174 0.956 . S
H2187 C2174 0.961 . S
H2188 C2174 0.961 . S
H2189 C2175 0.958 . S
H2190 C2175 0.961 . S
H2191 C2175 0.960 . S
C2192 C2193 1.391 . S
C2192 C2194 1.394 . S
C2192 H2208 0.931 . S
C2193 C2192 1.391 . S
C2193 C2197 1.376 . S
C2194 C2192 1.394 . S
C2194 C2195 1.369 . S
C2194 C2198 1.531 . S
C2195 C2194 1.369 . S
C2195 C2196 1.410 . S
C2195 C2203 1.503 1_455 S
C2196 C2195 1.410 . S
C2196 C2197 1.392 . S
C2196 C2199 1.489 1_455 S
C2197 C2193 1.376 . S
C2197 C2196 1.392 . S
C2197 H2209 0.929 . S
C2198 C2194 1.531 . S
C2198 H2210 0.960 . S
C2198 H2211 0.962 . S
C2198 H2212 0.960 . S
C2199 C2196 1.489 1_655 S
C2199 H2213 0.948 1_655 S
C2199 H2214 0.985 . S
C2199 H2215 0.972 . S
C2200 C2201 1.370 . S
C2200 C2202 1.363 . S
C2200 H2216 0.931 . S
C2201 C2200 1.370 . S
C2201 C2205 1.408 . S
C2202 C2200 1.363 . S
C2202 C2203 1.370 . S
C2202 C2206 1.524 . S
C2203 C2195 1.503 1_655 S
C2203 C2202 1.370 . S
C2203 C2204 1.403 . S
C2204 C2203 1.403 . S
C2204 C2205 1.404 . S
C2204 C2207 1.539 . S
C2205 C2201 1.408 . S
C2205 C2204 1.404 . S
C2205 H2217 0.930 . S
C2206 C2202 1.524 . S
C2206 H2218 0.956 1_655 S
C2206 H2219 0.961 1_655 S
C2206 H2220 0.961 . S
C2207 C2204 1.539 . S
C2207 H2221 0.958 . S
C2207 H2222 0.961 . S
C2207 H2223 0.960 . S
H2208 C2192 0.931 . S
H2209 C2197 0.929 . S
H2210 C2198 0.960 . S
H2211 C2198 0.962 . S
H2212 C2198 0.960 . S
H2213 C2199 0.948 1_455 S
H2214 C2199 0.985 . S
H2215 C2199 0.972 . S
H2216 C2200 0.931 . S
H2217 C2205 0.930 . S
H2218 C2206 0.956 1_455 S
H2219 C2206 0.961 1_455 S
H2220 C2206 0.961 . S
H2221 C2207 0.958 . S
H2222 C2207 0.961 . S
H2223 C2207 0.960 . S
C2224 C2225 1.389 1_655 S
C2224 C2226 1.394 . S
C2224 H2240 0.932 . S
C2225 C2224 1.389 1_455 S
C2225 C2229 1.376 . S
C2226 C2224 1.394 . S
C2226 C2227 1.369 1_655 S
C2226 C2230 1.531 . S
C2227 C2226 1.369 1_455 S
C2227 C2228 1.410 . S
C2227 C2235 1.503 1_455 S
C2228 C2227 1.410 . S
C2228 C2229 1.392 . S
C2228 C2231 1.511 . S
C2229 C2225 1.376 . S
C2229 C2228 1.392 . S
C2229 H2241 0.929 . S
C2230 C2226 1.531 . S
C2230 H2242 0.960 . S
C2230 H2243 0.962 . S
C2230 H2244 0.960 . S
C2231 C2228 1.511 . S
C2231 H2245 0.961 . S
C2231 H2246 0.961 . S
C2231 H2247 0.961 . S
C2232 C2233 1.370 . S
C2232 C2234 1.363 . S
C2232 H2248 0.931 . S
C2233 C2232 1.370 . S
C2233 C2237 1.408 . S
C2234 C2232 1.363 . S
C2234 C2235 1.370 . S
C2234 C2238 1.524 . S
C2235 C2227 1.503 1_655 S
C2235 C2234 1.370 . S
C2235 C2236 1.403 1_655 S
C2236 C2235 1.403 1_455 S
C2236 C2237 1.404 1_455 S
C2236 C2239 1.539 . S
C2237 C2233 1.408 . S
C2237 C2236 1.404 1_655 S
C2237 H2249 0.925 1_655 S
C2238 C2234 1.524 . S
C2238 H2250 0.956 . S
C2238 H2251 0.961 . S
C2238 H2252 0.961 . S
C2239 C2236 1.539 . S
C2239 H2253 0.958 . S
C2239 H2254 0.961 . S
C2239 H2255 0.960 . S
H2240 C2224 0.932 . S
H2241 C2229 0.929 . S
H2242 C2230 0.960 . S
H2243 C2230 0.962 . S
H2244 C2230 0.960 . S
H2245 C2231 0.961 . S
H2246 C2231 0.961 . S
H2247 C2231 0.961 . S
H2248 C2232 0.931 . S
H2249 C2237 0.925 1_455 S
H2250 C2238 0.956 . S
H2251 C2238 0.961 . S
H2252 C2238 0.961 . S
H2253 C2239 0.958 . S
H2254 C2239 0.961 . S
H2255 C2239 0.960 . S
C465 C213 2.277 . S
C473 C21 2.040 . S
C497 C358 2.261 . S
C505 C50 2.011 . S
C529 C79 1.992 . S
C537 C155 2.272 . S
C561 C416 2.283 . S
C569 C108 2.041 1_455 S
C593 C97 2.274 . S
C601 C137 2.017 . S
C625 C166 2.033 . S
C633 C242 2.275 . S
C657 C195 2.035 . S
C665 C39 2.275 . S
C689 C300 2.271 . S
C697 C224 2.014 1_655 S
C721 C445 2.261 . S
C729 C253 2.011 . S
C753 C282 2.059 1_655 S
C761 C126 2.281 . S
C785 C387 2.281 . S
C793 C311 2.035 . S
C817 C184 2.282 . S
C825 C340 2.042 . S
C849 C329 2.268 . S
C857 C369 2.033 . S
C881 C398 2.040 1_455 S
C889 C10 2.276 . S
C913 C427 2.050 . S
C921 C271 2.277 . S
C945 C68 2.282 . S
C953 C456 2.041 . S
C977 C15 1.184 . S
C985 C409 1.250 . S
C1009 C206 1.233 1_655 S
C1017 C44 1.198 . S
C1041 C351 1.241 . S
C1049 C73 1.187 . S
C1073 C102 1.213 . S
C1081 C148 1.239 . S
C1105 C293 1.231 . S
C1113 C131 1.214 . S
C1137 C90 1.247 1_455 S
C1145 C160 1.183 . S
C1169 C189 1.231 . S
C1177 C235 1.240 . S
C1201 C218 1.223 . S
C1209 C32 1.247 . S
C1233 C247 1.161 . S
C1241 C177 1.246 . S
C1265 C276 1.196 . S
C1273 C438 1.249 . S
C1297 C119 1.230 . S
C1305 C305 1.215 . S
C1329 C380 1.229 1_455 S
C1337 C334 1.213 . S
C1361 C61 1.233 . S
C1369 C363 1.216 . S
C1393 C392 1.178 . S
C1401 C322 1.250 . S
C1425 C3 1.243 . S
C1433 C421 1.183 . S
C1457 C264 1.236 1_655 S
C1465 C450 1.217 . S
C1489 C13 1.539 1_556 S
C1497 C269 1.489 . S
C1521 C298 1.430 . S
C1529 C42 1.543 . S
C1553 C327 1.435 . S
C1561 C71 1.561 . S
C1585 C240 1.463 . S
C1593 C100 1.538 . S
C1617 C129 1.526 1_554 S
C1625 C385 1.488 . S
C1649 C158 1.527 . S
C1657 C414 1.460 . S
C1681 C443 1.431 . S
C1689 C187 1.547 . S
C1713 C356 1.512 . S
C1721 C216 1.545 . S
C1745 C37 1.508 . S
C1753 C245 1.557 . S
C1777 C66 1.474 . S
C1785 C274 1.564 . S
C1809 C303 1.563 1_556 S
C1817 C95 1.487 . S
C1841 C332 1.577 . S
C1849 C8 1.476 . S
C1873 C361 1.516 . S
C1881 C153 1.473 . S
C1905 C182 1.428 . S
C1913 C390 1.562 . S
C1937 C419 1.578 1_554 S
C1945 C211 1.459 . S
C1969 C124 1.438 . S
C1977 C448 1.564 . S
C2001 C295 2.429 . S
C2009 C5 2.411 . S
C2033 C34 2.423 . S
C2041 C324 2.411 . S
C2065 C63 2.400 . S
C2073 C237 2.417 . S
C2097 C266 2.431 . S
C2105 C92 2.421 . S
C2129 C121 2.428 . S
C2137 C411 2.425 . S
C2161 C440 2.393 . S
C2169 C150 2.422 . S
C2193 C353 2.415 . S
C2201 C179 2.429 . S
C2225 C208 2.415 . S
C2233 C382 2.429 . S
