# Generated by pormake.
# Topology vma, (5)-cn, num edge types: 1
# Building blocks:
#     Node 0, Type 0, BuildingBlock: BEQFEK_clean_sbu_0, # of connection points: 5
#     Node 1, Type 0, BuildingBlock: BEQFEK_clean_sbu_0, # of connection points: 5
#     Node 2, Type 0, BuildingBlock: BEQFEK_clean_sbu_0, # of connection points: 5
#     Node 3, Type 0, BuildingBlock: BEQFEK_clean_sbu_0, # of connection points: 5
#     Node 4, Type 0, BuildingBlock: BEQFEK_clean_sbu_0, # of connection points: 5
#     Node 5, Type 0, BuildingBlock: BEQFEK_clean_sbu_0, # of connection points: 5
#     Node 6, Type 0, BuildingBlock: BEQFEK_clean_sbu_0, # of connection points: 5
#     Node 7, Type 0, BuildingBlock: BEQFEK_clean_sbu_0, # of connection points: 5
#     Edge 8, Type (0, 0), BuildingBlock: OJICUG_clean_linker_0, # of connection points: 2
#     Edge 9, Type (0, 0), BuildingBlock: OJICUG_clean_linker_0, # of connection points: 2
#     Edge 10, Type (0, 0), BuildingBlock: OJICUG_clean_linker_0, # of connection points: 2
#     Edge 11, Type (0, 0), BuildingBlock: OJICUG_clean_linker_0, # of connection points: 2
#     Edge 12, Type (0, 0), BuildingBlock: OJICUG_clean_linker_0, # of connection points: 2
#     Edge 13, Type (0, 0), BuildingBlock: OJICUG_clean_linker_0, # of connection points: 2
#     Edge 14, Type (0, 0), BuildingBlock: OJICUG_clean_linker_0, # of connection points: 2
#     Edge 15, Type (0, 0), BuildingBlock: OJICUG_clean_linker_0, # of connection points: 2
#     Edge 16, Type (0, 0), BuildingBlock: OJICUG_clean_linker_0, # of connection points: 2
#     Edge 17, Type (0, 0), BuildingBlock: OJICUG_clean_linker_0, # of connection points: 2
#     Edge 18, Type (0, 0), BuildingBlock: OJICUG_clean_linker_0, # of connection points: 2
#     Edge 19, Type (0, 0), BuildingBlock: OJICUG_clean_linker_0, # of connection points: 2
#     Edge 20, Type (0, 0), BuildingBlock: OJICUG_clean_linker_0, # of connection points: 2
#     Edge 21, Type (0, 0), BuildingBlock: OJICUG_clean_linker_0, # of connection points: 2
#     Edge 22, Type (0, 0), BuildingBlock: OJICUG_clean_linker_0, # of connection points: 2
#     Edge 23, Type (0, 0), BuildingBlock: OJICUG_clean_linker_0, # of connection points: 2
#     Edge 24, Type (0, 0), BuildingBlock: OJICUG_clean_linker_0, # of connection points: 2
#     Edge 25, Type (0, 0), BuildingBlock: OJICUG_clean_linker_0, # of connection points: 2
#     Edge 26, Type (0, 0), BuildingBlock: OJICUG_clean_linker_0, # of connection points: 2
#     Edge 27, Type (0, 0), BuildingBlock: OJICUG_clean_linker_0, # of connection points: 2
# Relax obj value: 0.015
# Max RMSD: 0.084
# Mean RMSD: 0.084
data_MOF--net-vma--node1-BEQFEK_clean_sbu_0--edge1-OJICUG_clean_linker_0
_symmetry_space_group_name_H-M    P1
_symmetry_Int_Tables_number       1
_symmetry_cell_setting            triclinic
loop_
_symmetry_equiv_pos_as_xyz
'x, y, z'
_cell_length_a     28.448966
_cell_length_b     22.527666
_cell_length_c     32.366975
_cell_angle_alpha  90.045702
_cell_angle_beta   94.008024
_cell_angle_gamma 89.923787
loop_
_atom_site_label
_atom_site_type_symbol
_atom_site_fract_x
_atom_site_fract_y
_atom_site_fract_z
_atom_type_partial_charge
Co0 Co 0.38227 0.1127 0.37503 0.0
Co1 Co 0.31449 0.18135 0.31135 0.0
C2 C 0.42065 0.17647 0.30515 0.0
O3 O 0.42781 0.14749 0.33873 0.0
O4 O 0.37913 0.19073 0.2913 0.0
C5 C 0.45852 0.07917 0.43415 0.0
O6 O 0.48372 0.11797 0.41501 0.0
C7 C 0.27973 0.29345 0.27367 0.0
C8 C 0.21179 0.26603 0.24238 0.0
C9 C 0.24076 0.31495 0.24987 0.0
N10 N 0.27359 0.23498 0.28018 0.0
N11 N 0.23293 0.21892 0.26132 0.0
C12 C 0.32293 0.32705 0.28886 0.0
H13 H 0.35261 0.29648 0.29697 0.0
H14 H 0.31564 0.35214 0.3172 0.0
H15 H 0.33304 0.35913 0.26504 0.0
C16 C 0.33365 0.18534 0.43442 0.0
N17 N 0.34227 0.17061 0.39535 0.0
N18 N 0.31224 0.19819 0.36923 0.0
C19 C 0.28269 0.23069 0.39114 0.0
C20 C 0.29561 0.22395 0.43316 0.0
C21 C 0.35803 0.15745 0.47207 0.0
H22 H 0.35273 0.10869 0.47072 0.0
H23 H 0.39641 0.16619 0.47231 0.0
H24 H 0.34458 0.17441 0.50116 0.0
O25 O 0.34452 0.05137 0.34437 0.0
O26 O 0.29426 0.09746 0.29955 0.0
H27 H 0.22135 0.23795 0.3491 0.0
H28 H 0.21845 0.28168 0.39587 0.0
C29 C 0.24186 0.26561 0.37227 0.0
H30 H 0.25526 0.30476 0.35614 0.0
H31 H 0.21956 0.17581 0.26145 0.0
O32 O 0.41573 0.0709 0.42176 0.0
C33 C 0.3112 0.04983 0.316 0.0
Co34 Co 0.61431 0.10734 0.13543 0.0
Co35 Co 0.68464 0.17314 0.19775 0.0
C36 C 0.57794 0.17511 0.20366 0.0
O37 O 0.56954 0.1465 0.17008 0.0
O38 O 0.62004 0.18659 0.21748 0.0
C39 C 0.53772 0.0718 0.0776 0.0
O40 O 0.51182 0.10854 0.09792 0.0
C41 C 0.72208 0.28493 0.23161 0.0
C42 C 0.7848 0.25584 0.27031 0.0
C43 C 0.7594 0.30621 0.25772 0.0
N44 N 0.72575 0.22551 0.22917 0.0
N45 N 0.76316 0.20832 0.25251 0.0
C46 C 0.68462 0.31945 0.20735 0.0
H47 H 0.6671 0.29155 0.18258 0.0
H48 H 0.69993 0.35937 0.19339 0.0
H49 H 0.65746 0.33369 0.22828 0.0
C50 C 0.66479 0.17568 0.07501 0.0
N51 N 0.65656 0.16175 0.11427 0.0
N52 N 0.68784 0.1881 0.13985 0.0
C53 C 0.71794 0.21867 0.11738 0.0
C54 C 0.7042 0.21189 0.07551 0.0
C55 C 0.63476 0.15531 0.03788 0.0
H56 H 0.59705 0.16002 0.04392 0.0
H57 H 0.6416 0.18138 0.00988 0.0
H58 H 0.64196 0.10771 0.0321 0.0
O59 O 0.64851 0.04506 0.16845 0.0
O60 O 0.70307 0.08929 0.21019 0.0
H61 H 0.7762 0.22452 0.1632 0.0
H62 H 0.78892 0.25048 0.11233 0.0
C63 C 0.76173 0.24855 0.13526 0.0
H64 H 0.75307 0.2946 0.1442 0.0
H65 H 0.77406 0.16426 0.25605 0.0
O66 O 0.58099 0.06531 0.08896 0.0
C67 C 0.6827 0.04244 0.19595 0.0
Co68 Co 0.61555 0.9115 0.63295 0.0
Co69 Co 0.68433 0.84339 0.6961 0.0
C70 C 0.57818 0.84774 0.70307 0.0
O71 O 0.5705 0.87668 0.66954 0.0
O72 O 0.61988 0.83367 0.71658 0.0
C73 C 0.53861 0.94855 0.57561 0.0
O74 O 0.51262 0.91245 0.59626 0.0
C75 C 0.71977 0.73084 0.73196 0.0
C76 C 0.78507 0.75888 0.76741 0.0
C77 C 0.75749 0.70942 0.75742 0.0
N78 N 0.72523 0.78975 0.72715 0.0
N79 N 0.76437 0.80618 0.74838 0.0
C80 C 0.67794 0.69705 0.71396 0.0
H81 H 0.64861 0.72755 0.70441 0.0
H82 H 0.68771 0.6727 0.68602 0.0
H83 H 0.66618 0.66434 0.7367 0.0
C84 C 0.66285 0.83813 0.5733 0.0
N85 N 0.65521 0.85346 0.61244 0.0
N86 N 0.68601 0.82654 0.6382 0.0
C87 C 0.71524 0.79412 0.61593 0.0
C88 C 0.70143 0.80037 0.57402 0.0
C89 C 0.63343 0.85939 0.53607 0.0
H90 H 0.59563 0.85707 0.54221 0.0
H91 H 0.63931 0.83226 0.50828 0.0
H92 H 0.64224 0.90639 0.52988 0.0
O93 O 0.65357 0.97282 0.66344 0.0
O94 O 0.70452 0.92709 0.70782 0.0
H95 H 0.77467 0.78951 0.66055 0.0
H96 H 0.78517 0.75838 0.61057 0.0
C97 C 0.75877 0.7637 0.63397 0.0
H98 H 0.74931 0.71906 0.64512 0.0
H99 H 0.77683 0.84973 0.75004 0.0
O100 O 0.58216 0.9538 0.58635 0.0
C101 C 0.6872 0.97458 0.69152 0.0
Co102 Co 0.38355 0.91302 0.87428 0.0
Co103 Co 0.31485 0.84662 0.81065 0.0
C104 C 0.42116 0.8478 0.80491 0.0
O105 O 0.42876 0.87713 0.83829 0.0
O106 O 0.37944 0.8343 0.7912 0.0
C107 C 0.45993 0.94753 0.93266 0.0
O108 O 0.48589 0.91112 0.91213 0.0
C109 C 0.27809 0.73465 0.77614 0.0
C110 C 0.21583 0.76376 0.73687 0.0
C111 C 0.24111 0.71337 0.74963 0.0
N112 N 0.27432 0.79408 0.77865 0.0
N113 N 0.23719 0.81126 0.75495 0.0
C114 C 0.31533 0.70007 0.80063 0.0
H115 H 0.33277 0.72799 0.82543 0.0
H116 H 0.2998 0.66027 0.81456 0.0
H117 H 0.34258 0.6856 0.77987 0.0
C118 C 0.33399 0.84212 0.93354 0.0
N119 N 0.34261 0.85643 0.89446 0.0
N120 N 0.31152 0.83046 0.86848 0.0
C121 C 0.28113 0.79971 0.89056 0.0
C122 C 0.29447 0.80612 0.93255 0.0
C123 C 0.36331 0.86272 0.97102 0.0
H124 H 0.3556 0.91019 0.97681 0.0
H125 H 0.40118 0.85853 0.96543 0.0
H126 H 0.35624 0.83639 0.99885 0.0
O127 O 0.34688 0.97535 0.84366 0.0
O128 O 0.29606 0.93068 0.79866 0.0
H129 H 0.22323 0.79497 0.84433 0.0
H130 H 0.20982 0.7687 0.89496 0.0
C131 C 0.23725 0.77053 0.87224 0.0
H132 H 0.24564 0.72446 0.86315 0.0
H133 H 0.22627 0.85531 0.75137 0.0
O134 O 0.41668 0.95414 0.92125 0.0
C135 C 0.31366 0.9778 0.81524 0.0
Co136 Co 0.88411 0.60692 0.37316 0.0
Co137 Co 0.81385 0.67307 0.31085 0.0
C138 C 0.9206 0.67545 0.30546 0.0
O139 O 0.92897 0.64644 0.33886 0.0
O140 O 0.8785 0.6869 0.29159 0.0
C141 C 0.95998 0.57336 0.43232 0.0
O142 O 0.98465 0.61384 0.41426 0.0
C143 C 0.77643 0.78493 0.27694 0.0
C144 C 0.71397 0.75587 0.23793 0.0
C145 C 0.73927 0.80622 0.25061 0.0
N146 N 0.77278 0.72553 0.27939 0.0
N147 N 0.73552 0.70837 0.25587 0.0
C148 C 0.81375 0.81943 0.30134 0.0
H149 H 0.83109 0.79158 0.32623 0.0
H150 H 0.79833 0.85947 0.31517 0.0
H151 H 0.84106 0.83348 0.28055 0.0
C152 C 0.833 0.67492 0.43361 0.0
N153 N 0.84151 0.66113 0.39436 0.0
N154 N 0.81035 0.68764 0.36872 0.0
C155 C 0.78009 0.71821 0.39111 0.0
C156 C 0.79358 0.71126 0.43299 0.0
C157 C 0.86284 0.65439 0.47081 0.0
H158 H 0.90056 0.6599 0.46515 0.0
H159 H 0.85537 0.67981 0.49897 0.0
H160 H 0.8562 0.60655 0.47605 0.0
O161 O 0.8502 0.54485 0.33975 0.0
O162 O 0.79569 0.5893 0.29802 0.0
H163 H 0.72204 0.72432 0.3451 0.0
H164 H 0.70911 0.75042 0.39592 0.0
C165 C 0.73641 0.74831 0.37309 0.0
H166 H 0.74517 0.79431 0.36421 0.0
H167 H 0.72468 0.66432 0.25227 0.0
O168 O 0.9175 0.56422 0.41935 0.0
C169 C 0.81611 0.54238 0.31215 0.0
Co170 Co 0.11411 0.61337 0.13335 0.0
Co171 Co 0.18334 0.68112 0.19611 0.0
C172 C 0.07715 0.67776 0.20341 0.0
O173 O 0.06931 0.64874 0.16992 0.0
O174 O 0.11894 0.69151 0.21684 0.0
C175 C 0.03686 0.57519 0.07677 0.0
O176 O 0.01022 0.60889 0.09867 0.0
C177 C 0.21931 0.79367 0.23148 0.0
C178 C 0.28444 0.76533 0.26712 0.0
C179 C 0.25708 0.81498 0.2569 0.0
N180 N 0.22451 0.73465 0.22692 0.0
N181 N 0.26356 0.71804 0.24825 0.0
C182 C 0.17765 0.82771 0.21329 0.0
H183 H 0.14823 0.79739 0.20379 0.0
H184 H 0.1876 0.8517 0.18531 0.0
H185 H 0.16596 0.86074 0.2359 0.0
C186 C 0.16151 0.68543 0.07337 0.0
N187 N 0.15381 0.67085 0.11261 0.0
N188 N 0.18487 0.6976 0.13819 0.0
C189 C 0.21436 0.72912 0.11569 0.0
C190 C 0.20044 0.72242 0.07382 0.0
C191 C 0.13195 0.66403 0.03626 0.0
H192 H 0.14059 0.61689 0.03025 0.0
H193 H 0.09417 0.66681 0.04242 0.0
H194 H 0.13792 0.69078 0.00835 0.0
O195 O 0.15203 0.5518 0.16366 0.0
O196 O 0.20345 0.59725 0.20773 0.0
H197 H 0.27394 0.73311 0.16017 0.0
H198 H 0.28459 0.76348 0.11003 0.0
C199 C 0.25822 0.75892 0.13351 0.0
H200 H 0.2492 0.80385 0.14453 0.0
H201 H 0.27582 0.67437 0.25011 0.0
O202 O 0.08068 0.57153 0.08672 0.0
C203 C 0.18588 0.54984 0.19153 0.0
Co204 Co 0.11421 0.41351 0.63516 0.0
Co205 Co 0.18396 0.34628 0.69745 0.0
C206 C 0.07735 0.34783 0.70405 0.0
O207 O 0.06918 0.37559 0.67011 0.0
O208 O 0.11936 0.33595 0.71799 0.0
C209 C 0.03911 0.44392 0.5745 0.0
O210 O 0.01571 0.40064 0.59086 0.0
C211 C 0.21974 0.23435 0.73424 0.0
C212 C 0.28771 0.26213 0.76532 0.0
C213 C 0.25901 0.21301 0.75768 0.0
N214 N 0.22546 0.29294 0.72805 0.0
N215 N 0.26614 0.30923 0.74677 0.0
C216 C 0.17668 0.20046 0.71906 0.0
H217 H 0.14675 0.2308 0.71132 0.0
H218 H 0.18392 0.17589 0.69049 0.0
H219 H 0.16696 0.16792 0.74273 0.0
C220 C 0.16438 0.34429 0.57457 0.0
N221 N 0.15569 0.35801 0.61382 0.0
N222 N 0.18613 0.33043 0.63956 0.0
C223 C 0.21597 0.29899 0.61727 0.0
C224 C 0.20285 0.3064 0.57536 0.0
C225 C 0.13934 0.37206 0.53718 0.0
H226 H 0.14267 0.42104 0.53934 0.0
H227 H 0.10136 0.36075 0.53641 0.0
H228 H 0.15379 0.35712 0.50799 0.0
O229 O 0.14936 0.47502 0.66796 0.0
O230 O 0.20388 0.43001 0.70937 0.0
H231 H 0.27761 0.29177 0.65896 0.0
H232 H 0.28042 0.24863 0.61193 0.0
C233 C 0.2571 0.2642 0.63574 0.0
H234 H 0.24401 0.22474 0.65173 0.0
H235 H 0.27921 0.35249 0.74681 0.0
O236 O 0.08049 0.45603 0.58915 0.0
C237 C 0.18383 0.47718 0.69521 0.0
Co238 Co 0.88207 0.41102 0.87558 0.0
Co239 Co 0.81375 0.34319 0.81216 0.0
C240 C 0.92006 0.3472 0.80569 0.0
O241 O 0.92746 0.37617 0.83925 0.0
O242 O 0.87844 0.33317 0.79198 0.0
C243 C 0.95877 0.44898 0.93265 0.0
O244 O 0.98546 0.41532 0.91078 0.0
C245 C 0.77841 0.23081 0.77617 0.0
C246 C 0.71333 0.25906 0.74042 0.0
C247 C 0.7408 0.20949 0.75058 0.0
N248 N 0.773 0.28976 0.78091 0.0
N249 N 0.73399 0.30633 0.75949 0.0
C250 C 0.8201 0.19686 0.7944 0.0
H251 H 0.84945 0.22724 0.80399 0.0
H252 H 0.81015 0.17278 0.82235 0.0
H253 H 0.83192 0.16393 0.77179 0.0
C254 C 0.83458 0.33783 0.93497 0.0
N255 N 0.84234 0.3531 0.89588 0.0
N256 N 0.8116 0.32633 0.87001 0.0
C257 C 0.78223 0.2941 0.89219 0.0
C258 C 0.79591 0.30032 0.93415 0.0
C259 C 0.86401 0.35879 0.97229 0.0
H260 H 0.90181 0.35656 0.96609 0.0
H261 H 0.85824 0.33139 0.99994 0.0
H262 H 0.85509 0.4057 0.97875 0.0
O263 O 0.8443 0.47261 0.84504 0.0
O264 O 0.79364 0.42699 0.80038 0.0
H265 H 0.72306 0.28953 0.84731 0.0
H266 H 0.7122 0.25884 0.8973 0.0
C267 C 0.73876 0.26383 0.87402 0.0
H268 H 0.74822 0.21904 0.86303 0.0
H269 H 0.7216 0.34994 0.75775 0.0
O270 O 0.91498 0.45276 0.92253 0.0
C271 C 0.81085 0.47445 0.81678 0.0
C272 C 0.27398 0.29977 0.53436 0.0
C273 C 0.2269 0.28451 0.53932 0.0
H274 H 0.33253 0.29272 0.49623 0.0
C275 C 0.20215 0.25033 0.50876 0.0
H276 H 0.29345 0.32688 0.55729 0.0
C277 C 0.22428 0.23128 0.47385 0.0
C278 C 0.27139 0.24644 0.46893 0.0
H279 H 0.16575 0.23826 0.51201 0.0
H280 H 0.20483 0.20408 0.45095 0.0
C281 C 0.2961 0.28073 0.49945 0.0
C282 C 0.73825 0.19597 0.00704 0.0
C283 C 0.72796 0.23442 0.03943 0.0
H284 H 0.76799 0.18687 0.9482 0.0
C285 C 0.73994 0.2946 0.03692 0.0
H286 H 0.72985 0.14917 0.00854 0.0
C287 C 0.76158 0.31607 1.00247 0.0
C288 C 0.77199 0.27761 0.97011 0.0
H289 H 0.73194 0.32517 0.06132 0.0
H290 H 0.76984 0.3629 1.00097 0.0
C291 C 0.75998 0.21742 0.97261 0.0
C292 C 0.73595 0.81584 0.50581 0.0
C293 C 0.72526 0.77745 0.53804 0.0
H294 H 0.76604 0.82473 0.44716 0.0
C295 C 0.73709 0.71716 0.53552 0.0
H296 H 0.72782 0.86273 0.50735 0.0
C297 C 0.75899 0.69555 0.50119 0.0
C298 C 0.76963 0.73395 0.46895 0.0
H299 H 0.72886 0.68668 0.55985 0.0
H300 H 0.76728 0.64869 0.49967 0.0
C301 C 0.75778 0.79421 0.47147 0.0
C302 C 0.25713 0.72488 0.97136 0.0
C303 C 0.26967 0.78479 0.96835 0.0
H304 H 0.22631 0.65788 0.00781 0.0
C305 C 0.25918 0.82421 1.00012 0.0
H306 H 0.26522 0.69364 0.94739 0.0
C307 C 0.23693 0.8039 0.03457 0.0
C308 C 0.22455 0.74393 0.03767 0.0
H309 H 0.26795 0.87085 0.99819 0.0
H310 H 0.22891 0.83513 0.05857 0.0
C311 C 0.23493 0.70455 0.00583 0.0
C312 C 0.5456 0.18854 0.27295 0.0
C313 C 0.53827 0.1878 0.22956 0.0
H314 H 0.51392 0.18501 0.33106 0.0
C315 C 0.49195 0.19125 0.21151 0.0
H316 H 0.58088 0.18572 0.28777 0.0
C317 C 0.45364 0.19195 0.23633 0.0
C318 C 0.46089 0.18777 0.27963 0.0
H319 H 0.48525 0.19098 0.17815 0.0
H320 H 0.41833 0.19198 0.22144 0.0
C321 C 0.50726 0.18782 0.29775 0.0
C322 C 0.54575 0.834 0.77227 0.0
C323 C 0.5383 0.83633 0.72892 0.0
H324 H 0.51426 0.83619 0.83051 0.0
C325 C 0.49192 0.83447 0.71091 0.0
H326 H 0.5811 0.83547 0.78705 0.0
C327 C 0.45368 0.83361 0.7358 0.0
C328 C 0.46111 0.83605 0.77916 0.0
H329 H 0.48515 0.83589 0.67757 0.0
H330 H 0.41834 0.83485 0.721 0.0
C331 C 0.5075 0.83459 0.79717 0.0
C332 C 0.9909 0.69092 0.21142 0.0
C333 C 0.03734 0.68942 0.22934 0.0
H334 H 0.91738 0.68951 0.22162 0.0
C335 C 0.04487 0.69192 0.27268 0.0
H336 H 0.98405 0.68942 0.17809 0.0
C337 C 0.00669 0.69084 0.29765 0.0
C338 C 0.96026 0.68866 0.27972 0.0
H339 H 0.08026 0.69076 0.28739 0.0
H340 H 0.01356 0.68919 0.33098 0.0
C341 C 0.95272 0.69125 0.23638 0.0
C342 C 0.9912 0.3331 0.71187 0.0
C343 C 0.03755 0.3359 0.72993 0.0
H344 H 0.91757 0.33284 0.72183 0.0
C345 C 0.0449 0.33453 0.77331 0.0
H346 H 0.98448 0.33379 0.67851 0.0
C347 C 0.00657 0.33518 0.79812 0.0
C348 C 0.96018 0.33581 0.78003 0.0
H349 H 0.08019 0.33676 0.78814 0.0
H350 H 0.01326 0.33745 0.83144 0.0
C351 C 0.95289 0.33236 0.7367 0.0
C352 C 0.29261 0.88359 0.31085 0.0
C353 C 0.26737 0.87613 0.27234 0.0
H354 H 0.32545 0.94367 0.3549 0.0
C355 C 0.25481 0.92696 0.24875 0.0
H356 H 0.30282 0.84557 0.32991 0.0
C357 C 0.26749 0.9838 0.26336 0.0
C358 C 0.29361 0.99084 0.30154 0.0
H359 H 0.23685 0.92313 0.21836 0.0
H360 H 0.25824 0.02196 0.24413 0.0
C361 C 0.30553 0.94003 0.32524 0.0
C362 C 0.66543 0.93628 0.20993 0.0
C363 C 0.69781 0.98332 0.21167 0.0
H364 H 0.65291 0.84478 0.22166 0.0
C365 C 0.74434 0.97251 0.22717 0.0
H366 H 0.62919 0.94324 0.19832 0.0
C367 C 0.75841 0.91527 0.2398 0.0
C368 C 0.72583 0.86808 0.23838 0.0
H369 H 0.77021 1.00782 0.22827 0.0
H370 H 0.79506 0.90839 0.24933 0.0
C371 C 0.67915 0.87965 0.22332 0.0
C372 C 0.69263 0.08437 0.68219 0.0
C373 C 0.70468 0.03362 0.70589 0.0
H374 H 0.69516 0.17885 0.67753 0.0
C375 C 0.73078 0.04072 0.74407 0.0
H376 H 0.67271 0.08065 0.65253 0.0
C377 C 0.74331 0.09758 0.75869 0.0
C378 C 0.73066 0.14836 0.73509 0.0
H379 H 0.74009 1.00259 0.76331 0.0
H380 H 0.76122 0.10143 0.7891 0.0
C381 C 0.70544 0.14085 0.69658 0.0
C382 C 0.29707 0.14443 0.81033 0.0
C383 C 0.26986 0.15198 0.77283 0.0
H384 H 0.33155 0.08406 0.85326 0.0
C385 C 0.25584 0.1013 0.74969 0.0
H386 H 0.3085 0.18245 0.82892 0.0
C387 C 0.26878 0.04439 0.76385 0.0
C388 C 0.29662 0.03714 0.80112 0.0
H389 H 0.23641 0.10528 0.71994 0.0
H390 H 0.25819 1.0063 0.74502 0.0
C391 C 0.31023 0.08787 0.82431 0.0
C392 C 0.75442 0.47258 0.28108 0.0
C393 C 0.80102 0.48332 0.29633 0.0
H394 H 0.7036 0.40852 0.25924 0.0
C395 C 0.83345 0.43623 0.29788 0.0
H396 H 0.72851 0.50793 0.28015 0.0
C397 C 0.81968 0.3796 0.28458 0.0
C398 C 0.77291 0.36808 0.26981 0.0
H399 H 0.86974 0.44315 0.30931 0.0
H400 H 0.84595 0.34467 0.28611 0.0
C401 C 0.74031 0.41535 0.26854 0.0
C402 C 0.23147 0.48367 0.24284 0.0
C403 C 0.20345 0.49067 0.20564 0.0
H404 H 0.26394 0.42309 0.28694 0.0
C405 C 0.18986 0.43974 0.18265 0.0
H406 H 0.24207 0.52191 0.26153 0.0
C407 C 0.20305 0.38327 0.19683 0.0
C408 C 0.23027 0.37594 0.23435 0.0
H409 H 0.16843 0.44332 0.15375 0.0
H410 H 0.19151 0.34512 0.17842 0.0
C411 C 0.24445 0.42684 0.25721 0.0
C412 C 0.16708 0.5836 0.70902 0.0
C413 C 0.19928 0.53624 0.71089 0.0
H414 H 0.1548 0.67525 0.72051 0.0
C415 C 0.24581 0.54674 0.72651 0.0
H416 H 0.13083 0.57694 0.69736 0.0
C417 C 0.26002 0.60397 0.7391 0.0
C418 C 0.22761 0.65148 0.73746 0.0
H419 H 0.27154 0.51118 0.72776 0.0
H420 H 0.29666 0.61059 0.74878 0.0
C421 C 0.18094 0.64019 0.72231 0.0
C422 C 0.79295 0.64085 0.81144 0.0
C423 C 0.76759 0.6483 0.77298 0.0
H424 H 0.82573 0.58072 0.85552 0.0
C425 C 0.75477 0.59745 0.74951 0.0
H426 H 0.80338 0.67891 0.83039 0.0
C427 C 0.76726 0.5406 0.7642 0.0
C428 C 0.79348 0.53354 0.80232 0.0
H429 H 0.73674 0.60123 0.71915 0.0
H430 H 0.75779 0.50241 0.74505 0.0
C431 C 0.8057 0.58438 0.8259 0.0
C432 C 0.45083 1.00777 0.49244 0.0
C433 C 0.47911 0.0459 0.47035 0.0
H434 H 0.44736 0.94723 0.54304 0.0
C435 C 0.52701 0.05186 0.48324 0.0
H436 H 0.41372 1.0023 0.48337 0.0
C437 C 0.54627 0.02021 0.51744 0.0
C438 C 0.51799 0.98207 0.53954 0.0
H439 H 0.54971 0.08082 0.46687 0.0
H440 H 0.58339 0.02567 0.52651 0.0
C441 C 0.47007 0.97622 0.52669 0.0
C442 C 0.54647 1.00325 0.01785 0.0
C443 C 0.51762 0.03973 0.04073 0.0
H444 H 0.55094 0.94559 0.96571 0.0
C445 C 0.46976 0.04567 0.02775 0.0
H446 H 0.58359 0.99786 0.02699 0.0
C447 C 0.45111 0.01573 0.99258 0.0
C448 C 0.47997 0.9793 0.96967 0.0
H449 H 0.44665 0.07342 0.0447 0.0
H450 H 0.414 0.02115 0.98343 0.0
C451 C 0.52782 0.97332 0.98268 0.0
C452 C 0.97226 0.46632 0.52248 0.0
C453 C 0.01866 0.47707 0.53823 0.0
H454 H 0.9173 0.48839 0.47668 0.0
C455 C 0.04577 0.51956 0.51875 0.0
H456 H 0.9505 0.43389 0.53678 0.0
C457 C 0.02685 0.5507 0.48422 0.0
C458 C 0.98041 0.54005 0.46851 0.0
H459 H 0.08177 0.52874 0.53006 0.0
H460 H 0.04861 0.58314 0.46994 0.0
C461 C 0.95329 0.49756 0.488 0.0
C462 C 0.96825 0.54544 0.02866 0.0
C463 C 0.01671 0.54279 0.04003 0.0
H464 H 0.91192 0.51781 0.98585 0.0
C465 C 0.04605 0.50908 0.01576 0.0
H466 H 0.94473 0.571 0.0467 0.0
C467 C 0.02731 0.47862 0.98084 0.0
C468 C 0.97885 0.48128 0.96946 0.0
H469 H 0.08363 0.50623 0.02363 0.0
H470 H 0.05083 0.45307 0.9628 0.0
C471 C 0.94949 0.51497 0.99374 0.0
loop_
_geom_bond_atom_site_label_1
_geom_bond_atom_site_label_2
_geom_bond_distance
_geom_bond_site_symmetry_2
_ccdc_geom_bond_type
Co0 O3 1.970 . S
Co0 N17 1.989 . S
Co0 O25 1.967 . S
Co0 O32 1.920 . S
Co1 O4 1.966 . S
Co1 N10 2.022 . S
Co1 N18 1.993 . S
Co1 O26 1.941 . S
C2 O3 1.258 . S
C2 O4 1.263 . S
O3 Co0 1.970 . S
O3 C2 1.258 . S
O4 Co1 1.966 . S
O4 C2 1.263 . S
C5 O6 1.235 . S
C5 O32 1.289 . S
O6 C5 1.235 . S
C7 C9 1.400 . S
C7 N10 1.351 . S
C7 C12 1.501 . S
C8 C9 1.387 . S
C8 N11 1.341 . S
C9 C7 1.400 . S
C9 C8 1.387 . S
N10 Co1 2.022 . S
N10 C7 1.351 . S
N10 N11 1.365 . S
N11 C8 1.341 . S
N11 N10 1.365 . S
N11 H31 0.862 . S
C12 C7 1.501 . S
C12 H13 0.961 . S
C12 H14 0.961 . S
C12 H15 0.960 . S
H13 C12 0.961 . S
H14 C12 0.961 . S
H15 C12 0.960 . S
C16 N17 1.342 . S
C16 C20 1.401 . S
C16 C21 1.499 . S
N17 Co0 1.989 . S
N17 C16 1.342 . S
N17 N18 1.388 . S
N18 Co1 1.993 . S
N18 N17 1.388 . S
N18 C19 1.346 . S
C19 N18 1.346 . S
C19 C20 1.396 . S
C19 C29 1.510 . S
C20 C16 1.401 . S
C20 C19 1.396 . S
C21 C16 1.499 . S
C21 H22 0.959 . S
C21 H23 0.960 . S
C21 H24 0.961 . S
H22 C21 0.959 . S
H23 C21 0.960 . S
H24 C21 0.961 . S
O25 Co0 1.967 . S
O25 C33 1.258 . S
O26 Co1 1.941 . S
O26 C33 1.266 . S
H27 C29 0.959 . S
H28 C29 0.961 . S
C29 C19 1.510 . S
C29 H27 0.959 . S
C29 H28 0.961 . S
C29 H30 0.960 . S
H30 C29 0.960 . S
H31 N11 0.862 . S
O32 Co0 1.920 . S
O32 C5 1.289 . S
C33 O25 1.258 . S
C33 O26 1.266 . S
Co34 O37 1.970 . S
Co34 N51 1.989 . S
Co34 O59 1.967 . S
Co34 O66 1.920 . S
Co35 O38 1.966 . S
Co35 N44 2.022 . S
Co35 N52 1.993 . S
Co35 O60 1.941 . S
C36 O37 1.258 . S
C36 O38 1.263 . S
O37 Co34 1.970 . S
O37 C36 1.258 . S
O38 Co35 1.966 . S
O38 C36 1.263 . S
C39 O40 1.235 . S
C39 O66 1.289 . S
O40 C39 1.235 . S
C41 C43 1.400 . S
C41 N44 1.351 . S
C41 C46 1.501 . S
C42 C43 1.387 . S
C42 N45 1.341 . S
C43 C41 1.400 . S
C43 C42 1.387 . S
N44 Co35 2.022 . S
N44 C41 1.351 . S
N44 N45 1.365 . S
N45 C42 1.341 . S
N45 N44 1.365 . S
N45 H65 0.862 . S
C46 C41 1.501 . S
C46 H47 0.961 . S
C46 H48 0.961 . S
C46 H49 0.960 . S
H47 C46 0.961 . S
H48 C46 0.961 . S
H49 C46 0.960 . S
C50 N51 1.342 . S
C50 C54 1.401 . S
C50 C55 1.499 . S
N51 Co34 1.989 . S
N51 C50 1.342 . S
N51 N52 1.388 . S
N52 Co35 1.993 . S
N52 N51 1.388 . S
N52 C53 1.346 . S
C53 N52 1.346 . S
C53 C54 1.396 . S
C53 C63 1.510 . S
C54 C50 1.401 . S
C54 C53 1.396 . S
C55 C50 1.499 . S
C55 H56 0.959 . S
C55 H57 0.960 . S
C55 H58 0.961 . S
H56 C55 0.959 . S
H57 C55 0.960 . S
H58 C55 0.961 . S
O59 Co34 1.967 . S
O59 C67 1.258 . S
O60 Co35 1.941 . S
O60 C67 1.266 . S
H61 C63 0.959 . S
H62 C63 0.961 . S
C63 C53 1.510 . S
C63 H61 0.959 . S
C63 H62 0.961 . S
C63 H64 0.960 . S
H64 C63 0.960 . S
H65 N45 0.862 . S
O66 Co34 1.920 . S
O66 C39 1.289 . S
C67 O59 1.258 . S
C67 O60 1.266 . S
Co68 O71 1.970 . S
Co68 N85 1.989 . S
Co68 O93 1.967 . S
Co68 O100 1.920 . S
Co69 O72 1.966 . S
Co69 N78 2.022 . S
Co69 N86 1.993 . S
Co69 O94 1.941 . S
C70 O71 1.258 . S
C70 O72 1.263 . S
O71 Co68 1.970 . S
O71 C70 1.258 . S
O72 Co69 1.966 . S
O72 C70 1.263 . S
C73 O74 1.235 . S
C73 O100 1.289 . S
O74 C73 1.235 . S
C75 C77 1.400 . S
C75 N78 1.351 . S
C75 C80 1.501 . S
C76 C77 1.387 . S
C76 N79 1.341 . S
C77 C75 1.400 . S
C77 C76 1.387 . S
N78 Co69 2.022 . S
N78 C75 1.351 . S
N78 N79 1.365 . S
N79 C76 1.341 . S
N79 N78 1.365 . S
N79 H99 0.862 . S
C80 C75 1.501 . S
C80 H81 0.961 . S
C80 H82 0.961 . S
C80 H83 0.960 . S
H81 C80 0.961 . S
H82 C80 0.961 . S
H83 C80 0.960 . S
C84 N85 1.342 . S
C84 C88 1.401 . S
C84 C89 1.499 . S
N85 Co68 1.989 . S
N85 C84 1.342 . S
N85 N86 1.388 . S
N86 Co69 1.993 . S
N86 N85 1.388 . S
N86 C87 1.346 . S
C87 N86 1.346 . S
C87 C88 1.396 . S
C87 C97 1.510 . S
C88 C84 1.401 . S
C88 C87 1.396 . S
C89 C84 1.499 . S
C89 H90 0.959 . S
C89 H91 0.960 . S
C89 H92 0.961 . S
H90 C89 0.959 . S
H91 C89 0.960 . S
H92 C89 0.961 . S
O93 Co68 1.967 . S
O93 C101 1.258 . S
O94 Co69 1.941 . S
O94 C101 1.266 . S
H95 C97 0.959 . S
H96 C97 0.961 . S
C97 C87 1.510 . S
C97 H95 0.959 . S
C97 H96 0.961 . S
C97 H98 0.960 . S
H98 C97 0.960 . S
H99 N79 0.862 . S
O100 Co68 1.920 . S
O100 C73 1.289 . S
C101 O93 1.258 . S
C101 O94 1.266 . S
Co102 O105 1.970 . S
Co102 N119 1.989 . S
Co102 O127 1.967 . S
Co102 O134 1.920 . S
Co103 O106 1.966 . S
Co103 N112 2.022 . S
Co103 N120 1.993 . S
Co103 O128 1.941 . S
C104 O105 1.258 . S
C104 O106 1.263 . S
O105 Co102 1.970 . S
O105 C104 1.258 . S
O106 Co103 1.966 . S
O106 C104 1.263 . S
C107 O108 1.235 . S
C107 O134 1.289 . S
O108 C107 1.235 . S
C109 C111 1.400 . S
C109 N112 1.351 . S
C109 C114 1.501 . S
C110 C111 1.387 . S
C110 N113 1.341 . S
C111 C109 1.400 . S
C111 C110 1.387 . S
N112 Co103 2.022 . S
N112 C109 1.351 . S
N112 N113 1.365 . S
N113 C110 1.341 . S
N113 N112 1.365 . S
N113 H133 0.862 . S
C114 C109 1.501 . S
C114 H115 0.961 . S
C114 H116 0.961 . S
C114 H117 0.960 . S
H115 C114 0.961 . S
H116 C114 0.961 . S
H117 C114 0.960 . S
C118 N119 1.342 . S
C118 C122 1.401 . S
C118 C123 1.499 . S
N119 Co102 1.989 . S
N119 C118 1.342 . S
N119 N120 1.388 . S
N120 Co103 1.993 . S
N120 N119 1.388 . S
N120 C121 1.346 . S
C121 N120 1.346 . S
C121 C122 1.396 . S
C121 C131 1.510 . S
C122 C118 1.401 . S
C122 C121 1.396 . S
C123 C118 1.499 . S
C123 H124 0.959 . S
C123 H125 0.960 . S
C123 H126 0.961 . S
H124 C123 0.959 . S
H125 C123 0.960 . S
H126 C123 0.961 . S
O127 Co102 1.967 . S
O127 C135 1.258 . S
O128 Co103 1.941 . S
O128 C135 1.266 . S
H129 C131 0.959 . S
H130 C131 0.961 . S
C131 C121 1.510 . S
C131 H129 0.959 . S
C131 H130 0.961 . S
C131 H132 0.960 . S
H132 C131 0.960 . S
H133 N113 0.862 . S
O134 Co102 1.920 . S
O134 C107 1.289 . S
C135 O127 1.258 . S
C135 O128 1.266 . S
Co136 O139 1.970 . S
Co136 N153 1.989 . S
Co136 O161 1.967 . S
Co136 O168 1.920 . S
Co137 O140 1.966 . S
Co137 N146 2.022 . S
Co137 N154 1.993 . S
Co137 O162 1.941 . S
C138 O139 1.258 . S
C138 O140 1.263 . S
O139 Co136 1.970 . S
O139 C138 1.258 . S
O140 Co137 1.966 . S
O140 C138 1.263 . S
C141 O142 1.235 . S
C141 O168 1.289 . S
O142 C141 1.235 . S
C143 C145 1.400 . S
C143 N146 1.351 . S
C143 C148 1.501 . S
C144 C145 1.387 . S
C144 N147 1.341 . S
C145 C143 1.400 . S
C145 C144 1.387 . S
N146 Co137 2.022 . S
N146 C143 1.351 . S
N146 N147 1.365 . S
N147 C144 1.341 . S
N147 N146 1.365 . S
N147 H167 0.862 . S
C148 C143 1.501 . S
C148 H149 0.961 . S
C148 H150 0.961 . S
C148 H151 0.960 . S
H149 C148 0.961 . S
H150 C148 0.961 . S
H151 C148 0.960 . S
C152 N153 1.342 . S
C152 C156 1.401 . S
C152 C157 1.499 . S
N153 Co136 1.989 . S
N153 C152 1.342 . S
N153 N154 1.388 . S
N154 Co137 1.993 . S
N154 N153 1.388 . S
N154 C155 1.346 . S
C155 N154 1.346 . S
C155 C156 1.396 . S
C155 C165 1.510 . S
C156 C152 1.401 . S
C156 C155 1.396 . S
C157 C152 1.499 . S
C157 H158 0.959 . S
C157 H159 0.960 . S
C157 H160 0.961 . S
H158 C157 0.959 . S
H159 C157 0.960 . S
H160 C157 0.961 . S
O161 Co136 1.967 . S
O161 C169 1.258 . S
O162 Co137 1.941 . S
O162 C169 1.266 . S
H163 C165 0.959 . S
H164 C165 0.961 . S
C165 C155 1.510 . S
C165 H163 0.959 . S
C165 H164 0.961 . S
C165 H166 0.960 . S
H166 C165 0.960 . S
H167 N147 0.862 . S
O168 Co136 1.920 . S
O168 C141 1.289 . S
C169 O161 1.258 . S
C169 O162 1.266 . S
Co170 O173 1.970 . S
Co170 N187 1.989 . S
Co170 O195 1.967 . S
Co170 O202 1.920 . S
Co171 O174 1.966 . S
Co171 N180 2.022 . S
Co171 N188 1.993 . S
Co171 O196 1.941 . S
C172 O173 1.258 . S
C172 O174 1.263 . S
O173 Co170 1.970 . S
O173 C172 1.258 . S
O174 Co171 1.966 . S
O174 C172 1.263 . S
C175 O176 1.235 . S
C175 O202 1.289 . S
O176 C175 1.235 . S
C177 C179 1.400 . S
C177 N180 1.351 . S
C177 C182 1.501 . S
C178 C179 1.387 . S
C178 N181 1.341 . S
C179 C177 1.400 . S
C179 C178 1.387 . S
N180 Co171 2.022 . S
N180 C177 1.351 . S
N180 N181 1.365 . S
N181 C178 1.341 . S
N181 N180 1.365 . S
N181 H201 0.862 . S
C182 C177 1.501 . S
C182 H183 0.961 . S
C182 H184 0.961 . S
C182 H185 0.960 . S
H183 C182 0.961 . S
H184 C182 0.961 . S
H185 C182 0.960 . S
C186 N187 1.342 . S
C186 C190 1.401 . S
C186 C191 1.499 . S
N187 Co170 1.989 . S
N187 C186 1.342 . S
N187 N188 1.388 . S
N188 Co171 1.993 . S
N188 N187 1.388 . S
N188 C189 1.346 . S
C189 N188 1.346 . S
C189 C190 1.396 . S
C189 C199 1.510 . S
C190 C186 1.401 . S
C190 C189 1.396 . S
C191 C186 1.499 . S
C191 H192 0.959 . S
C191 H193 0.960 . S
C191 H194 0.961 . S
H192 C191 0.959 . S
H193 C191 0.960 . S
H194 C191 0.961 . S
O195 Co170 1.967 . S
O195 C203 1.258 . S
O196 Co171 1.941 . S
O196 C203 1.266 . S
H197 C199 0.959 . S
H198 C199 0.961 . S
C199 C189 1.510 . S
C199 H197 0.959 . S
C199 H198 0.961 . S
C199 H200 0.960 . S
H200 C199 0.960 . S
H201 N181 0.862 . S
O202 Co170 1.920 . S
O202 C175 1.289 . S
C203 O195 1.258 . S
C203 O196 1.266 . S
Co204 O207 1.970 . S
Co204 N221 1.989 . S
Co204 O229 1.967 . S
Co204 O236 1.920 . S
Co205 O208 1.966 . S
Co205 N214 2.022 . S
Co205 N222 1.993 . S
Co205 O230 1.941 . S
C206 O207 1.258 . S
C206 O208 1.263 . S
O207 Co204 1.970 . S
O207 C206 1.258 . S
O208 Co205 1.966 . S
O208 C206 1.263 . S
C209 O210 1.235 . S
C209 O236 1.289 . S
O210 C209 1.235 . S
C211 C213 1.400 . S
C211 N214 1.351 . S
C211 C216 1.501 . S
C212 C213 1.387 . S
C212 N215 1.341 . S
C213 C211 1.400 . S
C213 C212 1.387 . S
N214 Co205 2.022 . S
N214 C211 1.351 . S
N214 N215 1.365 . S
N215 C212 1.341 . S
N215 N214 1.365 . S
N215 H235 0.862 . S
C216 C211 1.501 . S
C216 H217 0.961 . S
C216 H218 0.961 . S
C216 H219 0.960 . S
H217 C216 0.961 . S
H218 C216 0.961 . S
H219 C216 0.960 . S
C220 N221 1.342 . S
C220 C224 1.401 . S
C220 C225 1.499 . S
N221 Co204 1.989 . S
N221 C220 1.342 . S
N221 N222 1.388 . S
N222 Co205 1.993 . S
N222 N221 1.388 . S
N222 C223 1.346 . S
C223 N222 1.346 . S
C223 C224 1.396 . S
C223 C233 1.510 . S
C224 C220 1.401 . S
C224 C223 1.396 . S
C225 C220 1.499 . S
C225 H226 0.959 . S
C225 H227 0.960 . S
C225 H228 0.961 . S
H226 C225 0.959 . S
H227 C225 0.960 . S
H228 C225 0.961 . S
O229 Co204 1.967 . S
O229 C237 1.258 . S
O230 Co205 1.941 . S
O230 C237 1.266 . S
H231 C233 0.959 . S
H232 C233 0.961 . S
C233 C223 1.510 . S
C233 H231 0.959 . S
C233 H232 0.961 . S
C233 H234 0.960 . S
H234 C233 0.960 . S
H235 N215 0.862 . S
O236 Co204 1.920 . S
O236 C209 1.289 . S
C237 O229 1.258 . S
C237 O230 1.266 . S
Co238 O241 1.970 . S
Co238 N255 1.989 . S
Co238 O263 1.967 . S
Co238 O270 1.920 . S
Co239 O242 1.966 . S
Co239 N248 2.022 . S
Co239 N256 1.993 . S
Co239 O264 1.941 . S
C240 O241 1.258 . S
C240 O242 1.263 . S
O241 Co238 1.970 . S
O241 C240 1.258 . S
O242 Co239 1.966 . S
O242 C240 1.263 . S
C243 O244 1.235 . S
C243 O270 1.289 . S
O244 C243 1.235 . S
C245 C247 1.400 . S
C245 N248 1.351 . S
C245 C250 1.501 . S
C246 C247 1.387 . S
C246 N249 1.341 . S
C247 C245 1.400 . S
C247 C246 1.387 . S
N248 Co239 2.022 . S
N248 C245 1.351 . S
N248 N249 1.365 . S
N249 C246 1.341 . S
N249 N248 1.365 . S
N249 H269 0.862 . S
C250 C245 1.501 . S
C250 H251 0.961 . S
C250 H252 0.961 . S
C250 H253 0.960 . S
H251 C250 0.961 . S
H252 C250 0.961 . S
H253 C250 0.960 . S
C254 N255 1.342 . S
C254 C258 1.401 . S
C254 C259 1.499 . S
N255 Co238 1.989 . S
N255 C254 1.342 . S
N255 N256 1.388 . S
N256 Co239 1.993 . S
N256 N255 1.388 . S
N256 C257 1.346 . S
C257 N256 1.346 . S
C257 C258 1.396 . S
C257 C267 1.510 . S
C258 C254 1.401 . S
C258 C257 1.396 . S
C259 C254 1.499 . S
C259 H260 0.959 . S
C259 H261 0.960 . S
C259 H262 0.961 . S
H260 C259 0.959 . S
H261 C259 0.960 . S
H262 C259 0.961 . S
O263 Co238 1.967 . S
O263 C271 1.258 . S
O264 Co239 1.941 . S
O264 C271 1.266 . S
H265 C267 0.959 . S
H266 C267 0.961 . S
C267 C257 1.510 . S
C267 H265 0.959 . S
C267 H266 0.961 . S
C267 H268 0.960 . S
H268 C267 0.960 . S
H269 N249 0.862 . S
O270 Co238 1.920 . S
O270 C243 1.289 . S
C271 O263 1.258 . S
C271 O264 1.266 . S
C272 C273 1.387 . S
C272 H276 0.950 . S
C272 C281 1.390 . S
C273 C272 1.387 . S
C273 C275 1.387 . S
H274 C281 0.950 . S
C275 C273 1.387 . S
C275 C277 1.390 . S
C275 H279 0.950 . S
H276 C272 0.950 . S
C277 C275 1.390 . S
C277 C278 1.387 . S
C277 H280 0.950 . S
C278 C277 1.387 . S
C278 C281 1.387 . S
H279 C275 0.950 . S
H280 C277 0.950 . S
C281 C272 1.390 . S
C281 H274 0.950 . S
C281 C278 1.387 . S
C282 C283 1.387 . S
C282 H286 0.950 . S
C282 C291 1.390 1_554 S
C283 C282 1.387 . S
C283 C285 1.387 . S
H284 C291 0.950 . S
C285 C283 1.387 . S
C285 C287 1.390 1_554 S
C285 H289 0.950 . S
H286 C282 0.950 . S
C287 C285 1.390 1_556 S
C287 C288 1.387 . S
C287 H290 0.950 . S
C288 C287 1.387 . S
C288 C291 1.387 . S
H289 C285 0.950 . S
H290 C287 0.950 . S
C291 C282 1.390 1_556 S
C291 H284 0.950 . S
C291 C288 1.387 . S
C292 C293 1.387 . S
C292 H296 0.950 . S
C292 C301 1.390 . S
C293 C292 1.387 . S
C293 C295 1.387 . S
H294 C301 0.950 . S
C295 C293 1.387 . S
C295 C297 1.390 . S
C295 H299 0.950 . S
H296 C292 0.950 . S
C297 C295 1.390 . S
C297 C298 1.387 . S
C297 H300 0.950 . S
C298 C297 1.387 . S
C298 C301 1.387 . S
H299 C295 0.950 . S
H300 C297 0.950 . S
C301 C292 1.390 . S
C301 H294 0.950 . S
C301 C298 1.387 . S
C302 C303 1.387 . S
C302 H306 0.950 . S
C302 C311 1.390 1_556 S
C303 C302 1.387 . S
C303 C305 1.387 . S
H304 C311 0.950 . S
C305 C303 1.387 . S
C305 C307 1.390 1_556 S
C305 H309 0.950 . S
H306 C302 0.950 . S
C307 C305 1.390 1_554 S
C307 C308 1.387 . S
C307 H310 0.950 . S
C308 C307 1.387 . S
C308 C311 1.387 . S
H309 C305 0.950 . S
H310 C307 0.950 . S
C311 C302 1.390 1_554 S
C311 H304 0.950 . S
C311 C308 1.387 . S
C312 C313 1.387 . S
C312 H316 0.950 . S
C312 C321 1.390 . S
C313 C312 1.387 . S
C313 C315 1.387 . S
H314 C321 0.950 . S
C315 C313 1.387 . S
C315 C317 1.390 . S
C315 H319 0.950 . S
H316 C312 0.950 . S
C317 C315 1.390 . S
C317 C318 1.387 . S
C317 H320 0.950 . S
C318 C317 1.387 . S
C318 C321 1.387 . S
H319 C315 0.950 . S
H320 C317 0.950 . S
C321 C312 1.390 . S
C321 H314 0.950 . S
C321 C318 1.387 . S
C322 C323 1.387 . S
C322 H326 0.950 . S
C322 C331 1.390 . S
C323 C322 1.387 . S
C323 C325 1.387 . S
H324 C331 0.950 . S
C325 C323 1.387 . S
C325 C327 1.390 . S
C325 H329 0.950 . S
H326 C322 0.950 . S
C327 C325 1.390 . S
C327 C328 1.387 . S
C327 H330 0.950 . S
C328 C327 1.387 . S
C328 C331 1.387 . S
H329 C325 0.950 . S
H330 C327 0.950 . S
C331 C322 1.390 . S
C331 H324 0.950 . S
C331 C328 1.387 . S
C332 C333 1.387 . S
C332 H336 0.950 . S
C332 C341 1.390 1_455 S
C333 C332 1.387 . S
C333 C335 1.387 . S
H334 C341 0.950 . S
C335 C333 1.387 . S
C335 C337 1.390 1_455 S
C335 H339 0.950 . S
H336 C332 0.950 . S
C337 C335 1.390 1_655 S
C337 C338 1.387 . S
C337 H340 0.950 . S
C338 C337 1.387 . S
C338 C341 1.387 . S
H339 C335 0.950 . S
H340 C337 0.950 . S
C341 C332 1.390 1_655 S
C341 H334 0.950 . S
C341 C338 1.387 . S
C342 C343 1.387 . S
C342 H346 0.950 . S
C342 C351 1.390 1_455 S
C343 C342 1.387 . S
C343 C345 1.387 . S
H344 C351 0.950 . S
C345 C343 1.387 . S
C345 C347 1.390 1_455 S
C345 H349 0.950 . S
H346 C342 0.950 . S
C347 C345 1.390 1_655 S
C347 C348 1.387 . S
C347 H350 0.950 . S
C348 C347 1.387 . S
C348 C351 1.387 . S
H349 C345 0.950 . S
H350 C347 0.950 . S
C351 C342 1.390 1_655 S
C351 H344 0.950 . S
C351 C348 1.387 . S
C352 C353 1.387 . S
C352 H356 0.950 . S
C352 C361 1.390 . S
C353 C352 1.387 . S
C353 C355 1.387 . S
H354 C361 0.950 . S
C355 C353 1.387 . S
C355 C357 1.390 . S
C355 H359 0.950 . S
H356 C352 0.950 . S
C357 C355 1.390 . S
C357 C358 1.387 1_565 S
C357 H360 0.950 1_565 S
C358 C357 1.387 1_545 S
C358 C361 1.387 1_545 S
H359 C355 0.950 . S
H360 C357 0.950 1_545 S
C361 C352 1.390 . S
C361 H354 0.950 . S
C361 C358 1.387 1_565 S
C362 C363 1.387 1_565 S
C362 H366 0.950 . S
C362 C371 1.390 . S
C363 C362 1.387 1_545 S
C363 C365 1.387 . S
H364 C371 0.950 . S
C365 C363 1.387 . S
C365 C367 1.390 1_545 S
C365 H369 0.950 . S
H366 C362 0.950 . S
C367 C365 1.390 1_565 S
C367 C368 1.387 . S
C367 H370 0.950 . S
C368 C367 1.387 . S
C368 C371 1.387 . S
H369 C365 0.950 . S
H370 C367 0.950 . S
C371 C362 1.390 . S
C371 H364 0.950 . S
C371 C368 1.387 . S
C372 C373 1.387 1_545 S
C372 H376 0.950 . S
C372 C381 1.390 . S
C373 C372 1.387 1_565 S
C373 C375 1.387 . S
H374 C381 0.950 . S
C375 C373 1.387 . S
C375 C377 1.390 1_565 S
C375 H379 0.950 . S
H376 C372 0.950 . S
C377 C375 1.390 1_545 S
C377 C378 1.387 . S
C377 H380 0.950 . S
C378 C377 1.387 . S
C378 C381 1.387 . S
H379 C375 0.950 . S
H380 C377 0.950 . S
C381 C372 1.390 . S
C381 H374 0.950 . S
C381 C378 1.387 . S
C382 C383 1.387 . S
C382 H386 0.950 . S
C382 C391 1.390 . S
C383 C382 1.387 . S
C383 C385 1.387 . S
H384 C391 0.950 . S
C385 C383 1.387 . S
C385 C387 1.390 1_545 S
C385 H389 0.950 . S
H386 C382 0.950 . S
C387 C385 1.390 1_565 S
C387 C388 1.387 . S
C387 H390 0.950 . S
C388 C387 1.387 . S
C388 C391 1.387 1_565 S
H389 C385 0.950 . S
H390 C387 0.950 . S
C391 C382 1.390 . S
C391 H384 0.950 . S
C391 C388 1.387 1_545 S
C392 C393 1.387 . S
C392 H396 0.950 . S
C392 C401 1.390 . S
C393 C392 1.387 . S
C393 C395 1.387 . S
H394 C401 0.950 . S
C395 C393 1.387 . S
C395 C397 1.390 . S
C395 H399 0.950 . S
H396 C392 0.950 . S
C397 C395 1.390 . S
C397 C398 1.387 . S
C397 H400 0.950 . S
C398 C397 1.387 . S
C398 C401 1.387 . S
H399 C395 0.950 . S
H400 C397 0.950 . S
C401 C392 1.390 . S
C401 H394 0.950 . S
C401 C398 1.387 . S
C402 C403 1.387 . S
C402 H406 0.950 . S
C402 C411 1.390 . S
C403 C402 1.387 . S
C403 C405 1.387 . S
H404 C411 0.950 . S
C405 C403 1.387 . S
C405 C407 1.390 . S
C405 H409 0.950 . S
H406 C402 0.950 . S
C407 C405 1.390 . S
C407 C408 1.387 . S
C407 H410 0.950 . S
C408 C407 1.387 . S
C408 C411 1.387 . S
H409 C405 0.950 . S
H410 C407 0.950 . S
C411 C402 1.390 . S
C411 H404 0.950 . S
C411 C408 1.387 . S
C412 C413 1.387 . S
C412 H416 0.950 . S
C412 C421 1.390 . S
C413 C412 1.387 . S
C413 C415 1.387 . S
H414 C421 0.950 . S
C415 C413 1.387 . S
C415 C417 1.390 . S
C415 H419 0.950 . S
H416 C412 0.950 . S
C417 C415 1.390 . S
C417 C418 1.387 . S
C417 H420 0.950 . S
C418 C417 1.387 . S
C418 C421 1.387 . S
H419 C415 0.950 . S
H420 C417 0.950 . S
C421 C412 1.390 . S
C421 H414 0.950 . S
C421 C418 1.387 . S
C422 C423 1.387 . S
C422 H426 0.950 . S
C422 C431 1.390 . S
C423 C422 1.387 . S
C423 C425 1.387 . S
H424 C431 0.950 . S
C425 C423 1.387 . S
C425 C427 1.390 . S
C425 H429 0.950 . S
H426 C422 0.950 . S
C427 C425 1.390 . S
C427 C428 1.387 . S
C427 H430 0.950 . S
C428 C427 1.387 . S
C428 C431 1.387 . S
H429 C425 0.950 . S
H430 C427 0.950 . S
C431 C422 1.390 . S
C431 H424 0.950 . S
C431 C428 1.387 . S
C432 C433 1.387 1_565 S
C432 H436 0.950 . S
C432 C441 1.390 . S
C433 C432 1.387 1_545 S
C433 C435 1.387 . S
H434 C441 0.950 . S
C435 C433 1.387 . S
C435 C437 1.390 . S
C435 H439 0.950 . S
H436 C432 0.950 . S
C437 C435 1.390 . S
C437 C438 1.387 1_545 S
C437 H440 0.950 . S
C438 C437 1.387 1_565 S
C438 C441 1.387 . S
H439 C435 0.950 . S
H440 C437 0.950 . S
C441 C432 1.390 . S
C441 H434 0.950 . S
C441 C438 1.387 . S
C442 C443 1.387 1_565 S
C442 H446 0.950 . S
C442 C451 1.390 . S
C443 C442 1.387 1_545 S
C443 C445 1.387 1_554 S
H444 C451 0.950 . S
C445 C443 1.387 1_556 S
C445 C447 1.390 . S
C445 H449 0.950 . S
H446 C442 0.950 . S
C447 C445 1.390 . S
C447 C448 1.387 1_545 S
C447 H450 0.950 . S
C448 C447 1.387 1_565 S
C448 C451 1.387 1_556 S
H449 C445 0.950 . S
H450 C447 0.950 . S
C451 C442 1.390 . S
C451 H444 0.950 . S
C451 C448 1.387 1_554 S
C452 C453 1.387 . S
C452 H456 0.950 . S
C452 C461 1.390 1_455 S
C453 C452 1.387 . S
C453 C455 1.387 . S
H454 C461 0.950 . S
C455 C453 1.387 . S
C455 C457 1.390 1_455 S
C455 H459 0.950 . S
H456 C452 0.950 . S
C457 C455 1.390 1_655 S
C457 C458 1.387 . S
C457 H460 0.950 . S
C458 C457 1.387 . S
C458 C461 1.387 . S
H459 C455 0.950 . S
H460 C457 0.950 . S
C461 C452 1.390 1_655 S
C461 H454 0.950 . S
C461 C458 1.387 . S
C462 C463 1.387 1_556 S
C462 H466 0.950 . S
C462 C471 1.390 . S
C463 C462 1.387 1_554 S
C463 C465 1.387 1_455 S
H464 C471 0.950 . S
C465 C463 1.387 1_655 S
C465 C467 1.390 . S
C465 H469 0.950 . S
H466 C462 0.950 . S
C467 C465 1.390 . S
C467 C468 1.387 1_554 S
C467 H470 0.950 . S
C468 C467 1.387 1_556 S
C468 C471 1.387 1_655 S
H469 C465 0.950 . S
H470 C467 0.950 . S
C471 C462 1.390 . S
C471 H464 0.950 . S
C471 C468 1.387 1_455 S
C273 C224 1.279 . S
C278 C20 1.279 . S
C283 C54 1.279 . S
C288 C258 1.279 . S
C293 C88 1.279 . S
C298 C156 1.279 . S
C303 C122 1.279 . S
C308 C190 1.279 . S
C313 C36 1.652 . S
C318 C2 1.652 . S
C323 C70 1.652 . S
C328 C104 1.652 . S
C333 C172 1.652 . S
C338 C138 1.652 . S
C343 C206 1.652 . S
C348 C240 1.652 . S
C353 C179 1.535 . S
C358 C33 1.571 . S
C363 C67 1.572 . S
C368 C145 1.534 . S
C373 C101 1.572 . S
C378 C247 1.533 . S
C383 C213 1.533 . S
C388 C135 1.572 . S
C393 C169 1.571 . S
C398 C43 1.534 . S
C403 C203 1.572 . S
C408 C9 1.533 . S
C413 C237 1.571 . S
C418 C111 1.534 . S
C423 C77 1.533 . S
C428 C271 1.572 . S
C433 C5 1.524 . S
C438 C73 1.524 . S
C443 C39 1.525 . S
C448 C107 1.525 . S
C453 C209 1.524 . S
C458 C141 1.524 . S
C463 C175 1.523 . S
C468 C243 1.523 . S
