# Generated by pormake.
# Topology smb, (6)-cn, num edge types: 1
# Building blocks:
#     Node 0, Type 0, BuildingBlock: IZENUY_clean_sbu_0, # of connection points: 6
#     Node 1, Type 0, BuildingBlock: IZENUY_clean_sbu_0, # of connection points: 6
#     Node 2, Type 0, BuildingBlock: IZENUY_clean_sbu_0, # of connection points: 6
#     Node 3, Type 0, BuildingBlock: IZENUY_clean_sbu_0, # of connection points: 6
#     Node 4, Type 0, BuildingBlock: IZENUY_clean_sbu_0, # of connection points: 6
#     Node 5, Type 0, BuildingBlock: IZENUY_clean_sbu_0, # of connection points: 6
#     Node 6, Type 0, BuildingBlock: IZENUY_clean_sbu_0, # of connection points: 6
#     Node 7, Type 0, BuildingBlock: IZENUY_clean_sbu_0, # of connection points: 6
#     Node 8, Type 0, BuildingBlock: IZENUY_clean_sbu_0, # of connection points: 6
#     Edge 9, Type (0, 0), BuildingBlock: UVAHIK_clean_linker_0, # of connection points: 2
#     Edge 10, Type (0, 0), BuildingBlock: UVAHIK_clean_linker_0, # of connection points: 2
#     Edge 11, Type (0, 0), BuildingBlock: UVAHIK_clean_linker_0, # of connection points: 2
#     Edge 12, Type (0, 0), BuildingBlock: UVAHIK_clean_linker_0, # of connection points: 2
#     Edge 13, Type (0, 0), BuildingBlock: UVAHIK_clean_linker_0, # of connection points: 2
#     Edge 14, Type (0, 0), BuildingBlock: UVAHIK_clean_linker_0, # of connection points: 2
#     Edge 15, Type (0, 0), BuildingBlock: UVAHIK_clean_linker_0, # of connection points: 2
#     Edge 16, Type (0, 0), BuildingBlock: UVAHIK_clean_linker_0, # of connection points: 2
#     Edge 17, Type (0, 0), BuildingBlock: UVAHIK_clean_linker_0, # of connection points: 2
#     Edge 18, Type (0, 0), BuildingBlock: UVAHIK_clean_linker_0, # of connection points: 2
#     Edge 19, Type (0, 0), BuildingBlock: UVAHIK_clean_linker_0, # of connection points: 2
#     Edge 20, Type (0, 0), BuildingBlock: UVAHIK_clean_linker_0, # of connection points: 2
#     Edge 21, Type (0, 0), BuildingBlock: UVAHIK_clean_linker_0, # of connection points: 2
#     Edge 22, Type (0, 0), BuildingBlock: UVAHIK_clean_linker_0, # of connection points: 2
#     Edge 23, Type (0, 0), BuildingBlock: UVAHIK_clean_linker_0, # of connection points: 2
#     Edge 24, Type (0, 0), BuildingBlock: UVAHIK_clean_linker_0, # of connection points: 2
#     Edge 25, Type (0, 0), BuildingBlock: UVAHIK_clean_linker_0, # of connection points: 2
#     Edge 26, Type (0, 0), BuildingBlock: UVAHIK_clean_linker_0, # of connection points: 2
#     Edge 27, Type (0, 0), BuildingBlock: UVAHIK_clean_linker_0, # of connection points: 2
#     Edge 28, Type (0, 0), BuildingBlock: UVAHIK_clean_linker_0, # of connection points: 2
#     Edge 29, Type (0, 0), BuildingBlock: UVAHIK_clean_linker_0, # of connection points: 2
#     Edge 30, Type (0, 0), BuildingBlock: UVAHIK_clean_linker_0, # of connection points: 2
#     Edge 31, Type (0, 0), BuildingBlock: UVAHIK_clean_linker_0, # of connection points: 2
#     Edge 32, Type (0, 0), BuildingBlock: UVAHIK_clean_linker_0, # of connection points: 2
#     Edge 33, Type (0, 0), BuildingBlock: UVAHIK_clean_linker_0, # of connection points: 2
#     Edge 34, Type (0, 0), BuildingBlock: UVAHIK_clean_linker_0, # of connection points: 2
#     Edge 35, Type (0, 0), BuildingBlock: UVAHIK_clean_linker_0, # of connection points: 2
# Relax obj value: 0.326
# Max RMSD: 0.238
# Mean RMSD: 0.238
data_MOF--net-smb--node1-IZENUY_clean_sbu_0--edge1-UVAHIK_clean_linker_0
_symmetry_space_group_name_H-M    P1
_symmetry_Int_Tables_number       1
_symmetry_cell_setting            triclinic
loop_
_symmetry_equiv_pos_as_xyz
'x, y, z'
_cell_length_a     49.06762
_cell_length_b     49.088238
_cell_length_c     38.077128
_cell_angle_alpha  89.938739
_cell_angle_beta   90.211959
_cell_angle_gamma 119.91173
loop_
_atom_site_label
_atom_site_type_symbol
_atom_site_fract_x
_atom_site_fract_y
_atom_site_fract_z
_atom_type_partial_charge
Fe0 Fe 0.40746 0.19205 0.97558 0.0
Fe1 Fe 0.35349 0.17167 0.02823 0.0
O2 O 0.39416 0.18836 0.01934 0.0
Fe3 Fe 0.42167 0.20115 0.05419 0.0
O4 O 0.45333 0.23316 0.02924 0.0
O5 O 0.43132 0.23444 0.97947 0.0
O6 O 0.37648 0.19814 0.95695 0.0
C7 C 0.35937 0.20772 0.97082 0.0
C8 C 0.44574 0.17345 0.01231 0.0
O9 O 0.35108 0.20165 0.00252 0.0
C10 C 0.37099 0.14517 0.08041 0.0
O11 O 0.38468 0.15008 0.96902 0.0
O12 O 0.34067 0.14417 0.99089 0.0
O13 O 0.43479 0.17384 0.04209 0.0
O14 O 0.44082 0.18645 0.98623 0.0
C15 C 0.38287 0.22192 0.07722 0.0
O16 O 0.35329 0.14049 0.05432 0.0
O17 O 0.39505 0.17172 0.08559 0.0
C18 C 0.35541 0.1337 0.97333 0.0
O19 O 0.35925 0.19634 0.06721 0.0
O20 O 0.41035 0.22904 0.06841 0.0
C21 C 0.45268 0.24789 0.00222 0.0
Fe22 Fe 0.82236 0.17306 0.02514 0.0
Fe23 Fe 0.79025 0.20996 0.0469 0.0
O24 O 0.80174 0.19284 0.01365 0.0
Fe25 Fe 0.79275 0.19595 0.96928 0.0
O26 O 0.7705 0.15378 0.96445 0.0
O27 O 0.80515 0.14394 0.9896 0.0
O28 O 0.79024 0.14531 0.05254 0.0
C29 C 0.77998 0.15364 0.07819 0.0
C30 C 0.85445 0.20515 0.96648 0.0
O31 O 0.78574 0.18166 0.08093 0.0
C32 C 0.80993 0.25471 0.99319 0.0
O33 O 0.84343 0.19911 0.06274 0.0
O34 O 0.83061 0.23601 0.05869 0.0
O35 O 0.82858 0.19812 0.95164 0.0
O36 O 0.85556 0.19935 -0.00147 0.0
C37 C 0.73759 0.18328 0.00633 0.0
O38 O 0.79276 0.24173 0.01955 0.0
O39 O 0.81473 0.2386 0.971 0.0
C40 C 0.84934 0.22701 0.06862 0.0
O41 O 0.74925 0.18465 0.0363 0.0
O42 O 0.75512 0.19408 0.97949 0.0
C43 C 0.78069 0.13529 0.97098 0.0
Fe44 Fe 0.79975 0.57759 0.96306 0.0
Fe45 Fe 0.81891 0.63008 0.01787 0.0
O46 O 0.8037 0.58988 0.00739 0.0
Fe47 Fe 0.79251 0.56168 0.04128 0.0
O48 O 0.82136 0.55111 0.02754 0.0
O49 O 0.8077 0.54545 0.97187 0.0
O50 O 0.84141 0.60216 0.95566 0.0
C51 C 0.85705 0.63129 0.96142 0.0
C52 C 0.74538 0.53021 0.98994 0.0
O53 O 0.8462 0.64476 0.98059 0.0
C54 C 0.76897 0.59761 0.06629 0.0
O55 O 0.79141 0.60761 0.94619 0.0
O56 O 0.78806 0.63173 0.99312 0.0
O57 O 0.76132 0.52964 0.01583 0.0
O58 O 0.75756 0.55202 0.96763 0.0
C59 C 0.847 0.61346 0.06896 0.0
O60 O 0.79394 0.62217 0.05692 0.0
O61 O 0.76328 0.57063 0.05696 0.0
C62 C 0.78152 0.62392 0.96133 0.0
O63 O 0.85104 0.63137 0.04338 0.0
O64 O 0.82124 0.58837 0.07328 0.0
C65 C 0.82213 0.54132 0.99714 0.0
Fe66 Fe 0.07258 0.52883 0.30729 0.0
Fe67 Fe 0.02007 0.50571 0.36248 0.0
O68 O 0.06058 0.52505 0.35171 0.0
Fe69 Fe 0.08921 0.54046 0.38529 0.0
O70 O 0.11818 0.57335 0.35899 0.0
O71 O 0.09368 0.5714 0.30984 0.0
O72 O 0.03904 0.53144 0.28993 0.0
C73 C 0.02129 0.53971 0.30486 0.0
C74 C 0.11535 0.51539 0.34251 0.0
O75 O 0.01425 0.53357 0.33684 0.0
C76 C 0.04221 0.48321 0.41424 0.0
O77 O 0.05253 0.48671 0.30207 0.0
O78 O 0.00801 0.47758 0.3259 0.0
O79 O 0.10488 0.51547 0.37264 0.0
O80 O 0.1083 0.52683 0.31653 0.0
C81 C 0.04773 0.55698 0.41032 0.0
O82 O 0.02331 0.47657 0.38889 0.0
O83 O 0.06542 0.51062 0.41782 0.0
C84 C 0.02386 0.46838 0.30836 0.0
O85 O 0.0251 0.53045 0.4011 0.0
O86 O 0.07534 0.56617 0.40008 0.0
C87 C 0.1149 0.58676 0.33219 0.0
Fe88 Fe 0.46058 0.53184 0.30042 0.0
Fe89 Fe 0.48844 0.50625 0.3552 0.0
O90 O 0.46959 0.52802 0.34454 0.0
Fe91 Fe 0.45976 0.54608 0.37833 0.0
O92 O 0.41837 0.52295 0.36788 0.0
O93 O 0.42427 0.53225 0.3111 0.0
O94 O 0.43637 0.48972 0.2957 0.0
C95 C 0.4454 0.4702 0.3015 0.0
C96 C 0.48091 0.59122 0.32459 0.0
O97 O 0.47017 0.47791 0.31913 0.0
C98 C 0.51803 0.55938 0.39947 0.0
O99 O 0.49527 0.53209 0.28233 0.0
O100 O 0.52219 0.53179 0.32865 0.0
O101 O 0.4644 0.57905 0.35163 0.0
O102 O 0.48428 0.57437 0.3021 0.0
C103 C 0.44535 0.48789 0.40776 0.0
O104 O 0.51029 0.53104 0.39324 0.0
O105 O 0.50059 0.57013 0.39019 0.0
C106 C 0.52104 0.53837 0.29684 0.0
O107 O 0.45557 0.47926 0.38229 0.0
O108 O 0.45336 0.51651 0.41155 0.0
C109 C 0.40684 0.52227 0.33802 0.0
Fe110 Fe 0.45091 0.89292 0.37049 0.0
Fe111 Fe 0.46274 0.91194 0.29325 0.0
O112 O 0.46618 0.9226 0.33819 0.0
Fe113 Fe 0.48462 0.9626 0.35105 0.0
O114 O 0.51381 0.95903 0.37732 0.0
O115 O 0.47934 0.91637 0.40455 0.0
O116 O 0.47753 0.87925 0.35745 0.0
C117 C 0.47891 0.87051 0.32665 0.0
C118 C 0.4315 0.93243 0.39508 0.0
O119 O 0.46652 0.87705 0.30111 0.0
C120 C 0.4503 0.96222 0.29369 0.0
O121 O 0.41939 0.86385 0.34287 0.0
O122 O 0.42004 0.88957 0.29558 0.0
O123 O 0.45881 0.95537 0.38923 0.0
O124 O 0.4236 0.9051 0.38469 0.0
C125 C 0.52266 0.96197 0.29562 0.0
O126 O 0.45864 0.94501 0.27768 0.0
O127 O 0.45682 0.96888 0.32574 0.0
C128 C 0.40522 0.86785 0.3174 0.0
O129 O 0.50487 0.93348 0.28786 0.0
O130 O 0.51328 0.97654 0.31514 0.0
C131 C 0.50682 0.9396 0.40207 0.0
Fe132 Fe 0.73747 0.86446 0.63996 0.0
Fe133 Fe 0.68359 0.8356 0.69348 0.0
O134 O 0.7243 0.85493 0.6838 0.0
Fe135 Fe 0.75187 0.86443 0.71809 0.0
O136 O 0.77027 0.90602 0.70832 0.0
O137 O 0.774 0.90054 0.65151 0.0
O138 O 0.71944 0.8886 0.63538 0.0
C139 C 0.69063 0.87899 0.63986 0.0
C140 C 0.7767 0.84419 0.66414 0.0
O141 O 0.67363 0.85415 0.65729 0.0
C142 C 0.70693 0.80581 0.73782 0.0
O143 O 0.70322 0.83008 0.62091 0.0
O144 O 0.67647 0.80223 0.66655 0.0
O145 O 0.78048 0.86004 0.69169 0.0
O146 O 0.75648 0.84084 0.6415 0.0
C147 C 0.70688 0.87748 0.74739 0.0
O148 O 0.68624 0.81341 0.73133 0.0
O149 O 0.73521 0.82351 0.72944 0.0
C150 C 0.68444 0.80388 0.63483 0.0
O151 O 0.68865 0.86798 0.72118 0.0
O152 O 0.7282 0.87034 0.751 0.0
C153 C 0.7816 0.91771 0.67872 0.0
Fe154 Fe 0.1193 0.86493 0.62032 0.0
Fe155 Fe 0.14908 0.84506 0.67891 0.0
O156 O 0.12842 0.86424 0.66524 0.0
Fe157 Fe 0.11681 0.88281 0.69648 0.0
O158 O 0.07573 0.85737 0.6856 0.0
O159 O 0.08236 0.86475 0.62868 0.0
O160 O 0.09623 0.82262 0.61925 0.0
C161 C 0.10624 0.80436 0.62774 0.0
C162 C 0.13767 0.92492 0.63991 0.0
O163 O 0.13174 0.81437 0.64483 0.0
C164 C 0.17562 0.90038 0.72027 0.0
O165 O 0.15445 0.86496 0.60407 0.0
O166 O 0.18234 0.87054 0.65159 0.0
O167 O 0.12038 0.91352 0.66661 0.0
O168 O 0.14194 0.9076 0.61892 0.0
C169 C 0.10603 0.82763 0.73138 0.0
O170 O 0.16994 0.87244 0.71551 0.0
O171 O 0.15712 0.90912 0.70877 0.0
C172 C 0.18071 0.87405 0.61899 0.0
O173 O 0.11698 0.81847 0.70713 0.0
O174 O 0.11145 0.85564 0.73223 0.0
C175 C 0.06445 0.85483 0.65517 0.0
Fe176 Fe 0.15481 0.30439 0.68775 0.0
Fe177 Fe 0.12717 0.23623 0.71109 0.0
O178 O 0.13584 0.26386 0.6773 0.0
Fe179 Fe 0.12575 0.25111 0.63328 0.0
O180 O 0.16001 0.28583 0.61454 0.0
O181 O 0.18804 0.31188 0.66072 0.0
O182 O 0.17722 0.30173 0.72554 0.0
C183 C 0.18548 0.28143 0.73125 0.0
C184 C 0.11068 0.29748 0.63531 0.0
O185 O 0.16827 0.25333 0.72191 0.0
C186 C 0.07328 0.20624 0.67234 0.0
O187 O 0.12228 0.29856 0.71532 0.0
O188 O 0.12092 0.25935 0.7447 0.0
O189 O 0.10127 0.26883 0.63012 0.0
O190 O 0.13604 0.31454 0.65199 0.0
C191 C 0.14705 0.21231 0.65563 0.0
O192 O 0.08553 0.21741 0.70183 0.0
O193 O 0.08985 0.21425 0.64468 0.0
C194 C 0.11283 0.27998 0.74108 0.0
O195 O 0.13191 0.20827 0.68379 0.0
O196 O 0.14951 0.23234 0.63334 0.0
C197 C 0.18628 0.30436 0.62878 0.0
C198 C 0.30487 0.08602 0.95583 0.0
C199 C 0.33779 0.10393 0.95357 0.0
C200 C 0.28806 0.05973 0.93437 0.0
C201 C 0.29535 0.0046 0.87339 0.0
H202 H 0.22521 0.00478 0.8264 0.0
C203 C 0.21259 0.95415 0.74179 0.0
C204 C 0.20059 0.92164 0.74463 0.0
C205 C 0.23162 0.97435 0.76815 0.0
C206 C 0.24482 0.00448 0.83919 0.0
H207 H 0.379 0.10706 0.92862 0.0
H208 H 0.3496 0.06162 0.89078 0.0
H209 H 0.25254 0.04209 0.87333 0.0
H210 H 0.20095 0.88488 0.77588 0.0
H211 H 0.23438 0.92048 0.82248 0.0
H212 H 0.28786 0.96733 0.83816 0.0
C213 C 0.3368 0.06772 0.90931 0.0
C214 C 0.26019 0.02556 0.86647 0.0
C215 C 0.35362 0.09396 0.93081 0.0
C216 C 0.20991 0.90989 0.7731 0.0
C217 C 0.22897 0.93021 0.79973 0.0
C218 C 0.2798 0.98332 0.84603 0.0
C219 C 0.3038 0.05083 0.91018 0.0
C220 C 0.28587 0.02617 0.8836 0.0
C221 C 0.23896 0.96246 0.79805 0.0
C222 C 0.25477 0.98353 0.82826 0.0
H223 H 0.29198 0.09278 0.97344 0.0
H224 H 0.26265 0.04682 0.93607 0.0
H225 H 0.31495 0.0044 0.88631 0.0
H226 H 0.20631 0.96389 0.71975 0.0
H227 H 0.23973 -0.00077 0.76572 0.0
C228 C 0.91089 0.22018 0.9597 0.0
C229 C 0.88351 0.21821 0.94542 0.0
C230 C 0.93809 0.23155 0.93957 0.0
C231 C 0.97908 0.27864 0.86238 0.0
H232 H 0.01646 0.2253 0.85931 0.0
C233 C 0.07023 0.29106 0.75812 0.0
C234 C 0.09225 0.28204 0.76765 0.0
C235 C 0.04724 0.28787 0.78201 0.0
C236 C 0.00684 0.24091 0.86037 0.0
H237 H 0.86355 0.22775 0.89925 0.0
H238 H 0.91131 0.24773 0.86406 0.0
H239 H 0.97151 0.21107 0.89689 0.0
H240 H 0.10941 0.26523 0.8102 0.0
H241 H 0.07037 0.26104 0.85235 0.0
H242 H 0.01459 0.30861 0.82588 0.0
C243 C 0.91156 0.2404 0.89085 0.0
C244 C 0.98094 0.2326 0.8818 0.0
C245 C 0.8842 0.22872 0.91089 0.0
C246 C 0.09235 0.2719 0.80208 0.0
C247 C 0.06983 0.26928 0.8261 0.0
C248 C 0.00533 0.2872 0.84114 0.0
C249 C 0.93858 0.24148 0.90488 0.0
C250 C 0.96671 0.25126 0.88289 0.0
C251 C 0.04625 0.27605 0.81598 0.0
C252 C 0.01943 0.26832 0.83978 0.0
H253 H 0.91124 0.21246 0.98628 0.0
H254 H 0.95874 0.23242 0.95108 0.0
H255 H 0.96859 0.29351 0.86297 0.0
H256 H 0.06961 0.2988 0.73162 0.0
H257 H 0.02935 0.29311 0.77322 0.0
C258 C 0.70137 0.75337 0.74577 0.0
C259 C 0.69972 0.77875 0.76006 0.0
C260 C 0.70181 0.73085 0.76776 0.0
C261 C 0.69458 0.70398 0.86097 0.0
H262 H 0.75876 0.6848 0.83163 0.0
C263 C 0.75802 0.65894 0.95396 0.0
C264 C 0.76485 0.63645 0.94017 0.0
C265 C 0.74441 0.67227 0.93266 0.0
C266 C 0.74042 0.68948 0.84003 0.0
H267 H 0.69609 0.80042 0.80786 0.0
H268 H 0.69781 0.76157 0.84671 0.0
H269 H 0.74378 0.71422 0.7928 0.0
H270 H 0.76093 0.60894 0.89382 0.0
H271 H 0.73726 0.63206 0.85701 0.0
H272 H 0.69239 0.68001 0.909 0.0
C273 C 0.69783 0.75833 0.81859 0.0
C274 C 0.73167 0.70627 0.81765 0.0
C275 C 0.69686 0.7806 0.79645 0.0
C276 C 0.75649 0.62658 0.90518 0.0
C277 C 0.74294 0.63984 0.88402 0.0
C278 C 0.70355 0.68726 0.88357 0.0
C279 C 0.70152 0.73385 0.80452 0.0
C280 C 0.70872 0.71386 0.82779 0.0
C281 C 0.73741 0.66333 0.89724 0.0
C282 C 0.72664 0.67994 0.8733 0.0
H283 H 0.70375 0.75176 0.71767 0.0
H284 H 0.70387 0.71188 0.75599 0.0
H285 H 0.67669 0.70925 0.86953 0.0
H286 H 0.76398 0.66692 0.98087 0.0
H287 H 0.74055 0.69045 0.94352 0.0
C288 C 0.0829 0.81858 0.79117 0.0
C289 C 0.0873 0.80614 0.75989 0.0
C290 C 0.06203 0.79885 0.81653 0.0
C291 C 0.01469 0.71675 0.84648 0.0
H292 H 0.95821 0.7455 0.87811 0.0
C293 C 0.89651 0.63685 0.91629 0.0
C294 C 0.887 0.65038 0.94263 0.0
C295 C 0.92378 0.65534 0.89699 0.0
C296 C 0.97408 0.73733 0.8701 0.0
H297 H 0.07469 0.76318 0.73146 0.0
H298 H 0.03757 0.72848 0.77586 0.0
H299 H 0.00126 0.77836 0.83919 0.0
H300 H 0.89956 0.69355 0.97065 0.0
H301 H 0.94735 0.7257 0.93733 0.0
H302 H 0.987 0.6754 0.87725 0.0
C303 C 0.05057 0.75355 0.78077 0.0
C304 C -0.00125 0.75616 0.84772 0.0
C305 C 0.07172 0.77338 0.75534 0.0
C306 C 0.90599 0.68251 0.9502 0.0
C307 C 0.93332 0.70094 0.93104 0.0
C308 C 0.98993 0.69784 0.86906 0.0
C309 C 0.04486 0.76624 0.8111 0.0
C310 C 0.01933 0.74612 0.83565 0.0
C311 C 0.94218 0.6877 0.90375 0.0
C312 C 0.96934 0.70796 0.88104 0.0
H313 H 0.09498 0.84371 0.79571 0.0
H314 H 0.05865 0.80923 0.84002 0.0
H315 H 0.03031 0.70852 0.83771 0.0
H316 H 0.88247 0.61212 0.90988 0.0
H317 H 0.92979 0.64449 0.87594 0.0
C318 C 0.23504 0.28149 0.74257 0.0
C319 C 0.21211 0.28832 0.75431 0.0
C320 C 0.25611 0.28028 0.76629 0.0
C321 C 0.28345 0.29351 0.85979 0.0
H322 H 0.29319 0.22128 0.84044 0.0
C323 C 0.32496 0.23175 0.96102 0.0
C324 C 0.34647 0.22316 0.94812 0.0
C325 C 0.3116 0.24448 0.93841 0.0
C326 C 0.29099 0.24173 0.84607 0.0
H327 H 0.19369 0.30061 0.79932 0.0
H328 H 0.22985 0.2974 0.84136 0.0
H329 H 0.26578 0.23626 0.79856 0.0
H330 H 0.37201 0.22284 0.90176 0.0
H331 H 0.34864 0.24468 0.86272 0.0
H332 H 0.30793 0.29789 0.90826 0.0
C333 C 0.23231 0.29388 0.81375 0.0
C334 C 0.27545 0.25052 0.82191 0.0
C335 C 0.21162 0.29577 0.78976 0.0
C336 C 0.3552 0.22872 0.91257 0.0
C337 C 0.34181 0.24124 0.89011 0.0
C338 C 0.29884 0.28445 0.88427 0.0
C339 C 0.25395 0.28482 0.80245 0.0
C340 C 0.27164 0.27666 0.82823 0.0
C341 C 0.31942 0.24866 0.90257 0.0
C342 C 0.30291 0.25858 0.87744 0.0
H343 H 0.23568 0.27563 0.71526 0.0
H344 H 0.27309 0.27421 0.75646 0.0
H345 H 0.28101 0.31379 0.86548 0.0
H346 H 0.31792 0.22799 0.98832 0.0
H347 H 0.2943 0.24994 0.94864 0.0
C348 C 0.6911 0.91626 0.76761 0.0
C349 C 0.70345 0.8965 0.77508 0.0
C350 C 0.69327 0.9382 0.79258 0.0
C351 C 0.74549 0.98351 0.86443 0.0
H352 H 0.68422 0.00921 0.88459 0.0
C353 C 0.7739 0.08167 0.96332 0.0
C354 C 0.76595 0.10437 0.95333 0.0
C355 C 0.76176 0.05336 0.94497 0.0
C356 C 0.70161 0.00238 0.87904 0.0
H357 H 0.72491 0.88199 0.81541 0.0
H358 H 0.72819 0.91971 0.85887 0.0
H359 H 0.66996 0.96426 0.84575 0.0
H360 H 0.73796 0.11465 0.91713 0.0
H361 H 0.71753 0.06567 0.8845 0.0
H362 H 0.7775 0.02185 0.89648 0.0
C363 C 0.71768 0.91898 0.83356 0.0
C364 C 0.69341 0.97666 0.85688 0.0
C365 C 0.71573 0.89734 0.80869 0.0
C366 C 0.74464 0.09766 0.92544 0.0
C367 C 0.73272 0.06947 0.90687 0.0
C368 C 0.75371 0.00916 0.8863 0.0
C369 C 0.70766 0.94047 0.82531 0.0
C370 C 0.71531 0.96699 0.84945 0.0
C371 C 0.74165 0.04726 0.91599 0.0
C372 C 0.73193 0.01896 0.89391 0.0
H373 H 0.68152 0.91605 0.74187 0.0
H374 H 0.68539 0.95454 0.78553 0.0
H375 H 0.76315 0.97709 0.85852 0.0
H376 H 0.78987 0.08591 0.98504 0.0
H377 H 0.76855 0.03645 0.95317 0.0
C378 C 0.88607 0.28033 0.09092 0.0
C379 C 0.87479 0.24787 0.09265 0.0
C380 C 0.9049 0.30004 0.11763 0.0
C381 C 0.91408 0.32523 0.19101 0.0
H382 H 0.99289 0.3377 0.22904 0.0
C383 C 0.97628 0.41554 0.29904 0.0
C384 C 0.00792 0.43705 0.29164 0.0
C385 C 0.96054 0.38706 0.28094 0.0
C386 C 0.97076 0.33424 0.21879 0.0
H387 H 0.8765 0.21086 0.12195 0.0
H388 H 0.9099 0.24585 0.1692 0.0
H389 H 0.96606 0.29872 0.18229 0.0
H390 H 0.04847 0.44462 0.26119 0.0
H391 H 0.02074 0.39542 0.22897 0.0
H392 H 0.91893 0.36126 0.22592 0.0
C393 C 0.90389 0.25574 0.14706 0.0
C394 C 0.95544 0.31191 0.19227 0.0
C395 C 0.88491 0.23583 0.12009 0.0
C396 C 0.02397 0.42871 0.26726 0.0
C397 C 0.00818 0.40031 0.24904 0.0
C398 C 0.92918 0.34728 0.21745 0.0
C399 C 0.9128 0.28773 0.14664 0.0
C400 C 0.92749 0.30803 0.1775 0.0
C401 C 0.97607 0.37961 0.25496 0.0
C402 C 0.95808 0.35263 0.23104 0.0
H403 H 0.87902 0.2903 0.06974 0.0
H404 H 0.91211 0.32479 0.11642 0.0
H405 H 0.89227 0.32228 0.18031 0.0
H406 H 0.96342 0.42101 0.31817 0.0
H407 H 0.9359 0.37129 0.28648 0.0
C408 C 0.55265 0.5703 0.24592 0.0
C409 C 0.54981 0.55193 0.27545 0.0
C410 C 0.57967 0.58293 0.22526 0.0
C411 C 0.66159 0.59587 0.22313 0.0
H412 H 0.64925 0.59418 0.12229 0.0
C413 C 0.73374 0.57654 0.11791 0.0
C414 C 0.74806 0.59992 0.09216 0.0
C415 C 0.7132 0.57785 0.14208 0.0
C416 C 0.65308 0.59532 0.15042 0.0
H417 H 0.57298 0.53257 0.30686 0.0
H418 H 0.61937 0.55304 0.2699 0.0
H419 H 0.60547 0.58207 0.16138 0.0
H420 H 0.75249 0.64305 0.07138 0.0
H421 H 0.715 0.6445 0.11315 0.0
H422 H 0.70867 0.60659 0.21152 0.0
C423 C 0.60137 0.55878 0.26319 0.0
C424 C 0.62807 0.58848 0.17292 0.0
C425 C 0.57461 0.54672 0.28426 0.0
C426 C 0.74173 0.62484 0.09113 0.0
C427 C 0.72043 0.62568 0.11485 0.0
C428 C 0.68637 0.60204 0.20056 0.0
C429 C 0.6042 0.57692 0.23328 0.0
C430 C 0.63178 0.58793 0.20959 0.0
C431 C 0.7061 0.60215 0.14043 0.0
C432 C 0.68205 0.60122 0.1641 0.0
H433 H 0.53404 0.57512 0.23891 0.0
H434 H 0.58123 0.59732 0.20295 0.0
H435 H 0.66562 0.59651 0.25116 0.0
H436 H 0.73845 0.55723 0.11938 0.0
H437 H 0.70212 0.55935 0.16147 0.0
C438 C 0.37587 0.12709 0.13992 0.0
C439 C 0.36455 0.11965 0.10531 0.0
C440 C 0.37532 0.10414 0.16196 0.0
C441 C 0.38373 0.03564 0.15509 0.0
H442 H 0.36967 0.02964 0.25565 0.0
C443 C 0.41944 0.96241 0.2415 0.0
C444 C 0.43392 0.97572 0.27378 0.0
C445 C 0.40428 0.97516 0.22215 0.0
C446 C 0.3739 0.03118 0.22764 0.0
H447 H 0.34208 0.08207 0.06716 0.0
H448 H 0.3416 0.04178 0.10574 0.0
H449 H 0.35269 0.05977 0.21973 0.0
H450 H 0.4433 0.01248 0.31146 0.0
H451 H 0.4179 0.03556 0.27707 0.0
H452 H 0.40651 0.00874 0.16288 0.0
C453 C 0.35075 0.06542 0.11574 0.0
C454 C 0.36393 0.04821 0.20708 0.0
C455 C 0.35085 0.08837 0.09379 0.0
C456 C 0.4324 0.00173 0.28664 0.0
C457 C 0.41756 0.01477 0.26703 0.0
C458 C 0.39397 0.0189 0.17564 0.0
C459 C 0.36383 0.07335 0.14968 0.0
C460 C 0.36934 0.05113 0.1707 0.0
C461 C 0.40355 0.0018 0.23437 0.0
C462 C 0.38979 0.01699 0.21228 0.0
H463 H 0.38642 0.15102 0.14952 0.0
H464 H 0.38579 0.11102 0.18785 0.0
H465 H 0.38871 0.03793 0.1272 0.0
H466 H 0.41971 0.94199 0.23115 0.0
H467 H 0.3932 0.96413 0.19751 0.0
C468 C 0.76046 0.14265 0.13952 0.0
C469 C 0.76182 0.13124 0.10617 0.0
C470 C 0.73959 0.12258 0.16466 0.0
C471 C 0.68446 0.03978 0.18802 0.0
H472 H 0.63626 0.07561 0.22682 0.0
C473 C 0.56184 0.96608 0.25095 0.0
C474 C 0.5539 0.97936 0.27902 0.0
C475 C 0.59058 0.98338 0.23378 0.0
C476 C 0.64981 0.06538 0.21688 0.0
H477 H 0.74411 0.08958 0.07364 0.0
H478 H 0.70682 0.05434 0.11759 0.0
H479 H 0.68127 0.10764 0.19007 0.0
H480 H 0.57063 0.02038 0.31253 0.0
H481 H 0.62097 0.05034 0.28297 0.0
H482 H 0.6523 -0.00281 0.21451 0.0
C483 C 0.72222 0.07879 0.12435 0.0
C484 C 0.67564 0.08376 0.19574 0.0
C485 C 0.74345 0.09893 0.09919 0.0
C486 C 0.57583 0.0097 0.29059 0.0
C487 C 0.60465 0.02688 0.27362 0.0
C488 C 0.65853 0.02131 0.20938 0.0
C489 C 0.71934 0.09073 0.15684 0.0
C490 C 0.69317 0.07117 0.18094 0.0
C491 C 0.61203 0.01419 0.24451 0.0
C492 C 0.64082 0.03392 0.22382 0.0
H493 H 0.77481 0.16739 0.14584 0.0
H494 H 0.73841 0.13227 0.18978 0.0
H495 H 0.69766 0.02955 0.17705 0.0
H496 H 0.54549 0.94267 0.24149 0.0
H497 H 0.59542 0.97304 0.21124 0.0
C498 C 0.0161 0.56328 0.24864 0.0
C499 C 0.00703 0.55478 0.28377 0.0
C500 C 0.00234 0.57696 0.22836 0.0
C501 C 0.92971 0.57994 0.22153 0.0
H502 H 0.97631 0.64677 0.15449 0.0
C503 C 0.86338 0.61896 0.1312 0.0
C504 C 0.87156 0.62169 0.09563 0.0
C505 C 0.88362 0.61884 0.15689 0.0
C506 C 0.96296 0.62804 0.17299 0.0
H507 H 0.97704 0.55492 0.32543 0.0
H508 H 0.95286 0.57864 0.28986 0.0
H509 H 0.00452 0.63035 0.19455 0.0
H510 H 0.90775 0.62822 0.05877 0.0
H511 H 0.94297 0.62692 0.10359 0.0
H512 H 0.88816 0.57644 0.19938 0.0
C513 C 0.97049 0.57447 0.27801 0.0
C514 C 0.97911 0.61866 0.19594 0.0
C515 C 0.98437 0.56092 0.29838 0.0
C516 C 0.90121 0.62646 0.08618 0.0
C517 C 0.9213 0.62569 0.1119 0.0
C518 C 0.91361 0.58911 0.19855 0.0
C519 C 0.97912 0.58236 0.24269 0.0
C520 C 0.96258 0.59427 0.22019 0.0
C521 C 0.91209 0.62051 0.14742 0.0
C522 C 0.92995 0.61309 0.17374 0.0
H523 H 0.03366 0.55911 0.23661 0.0
H524 H 0.00923 0.58245 0.20113 0.0
H525 H 0.91625 0.56069 0.23945 0.0
H526 H 0.84059 0.61537 0.13899 0.0
H527 H 0.87618 0.61579 0.18405 0.0
C528 C 0.40344 0.2581 0.12826 0.0
C529 C 0.37914 0.24151 0.10389 0.0
C530 C 0.40067 0.27689 0.15366 0.0
C531 C 0.37011 0.3277 0.16854 0.0
H532 H 0.39235 0.32388 0.26559 0.0
C533 C 0.40104 0.42978 0.26485 0.0
C534 C 0.42872 0.43902 0.28434 0.0
C535 C 0.38644 0.4011 0.24692 0.0
C536 C 0.38605 0.32528 0.23862 0.0
H537 H 0.33281 0.2314 0.08694 0.0
H538 H 0.3285 0.26575 0.13106 0.0
H539 H 0.38172 0.28085 0.22559 0.0
H540 H 0.46211 0.42486 0.30124 0.0
H541 H 0.43722 0.37544 0.26947 0.0
H542 H 0.37674 0.37314 0.18067 0.0
C543 C 0.34936 0.2635 0.1306 0.0
C544 C 0.37974 0.30055 0.21588 0.0
C545 C 0.35183 0.24396 0.10551 0.0
C546 C 0.44087 0.41853 0.28644 0.0
C547 C 0.42637 0.38998 0.26845 0.0
C548 C 0.37678 0.35266 0.19122 0.0
C549 C 0.37378 0.27997 0.15492 0.0
C550 C 0.37288 0.30213 0.18038 0.0
C551 C 0.39922 0.38108 0.2481 0.0
C552 C 0.38608 0.35226 0.22615 0.0
H553 H 0.42465 0.25644 0.12785 0.0
H554 H 0.41999 0.28972 0.17183 0.0
H555 H 0.36509 0.32948 0.14117 0.0
H556 H 0.39087 0.4449 0.26299 0.0
H557 H 0.36537 0.39478 0.23179 0.0
C558 C 0.65694 0.74523 0.62886 0.0
C559 C 0.67121 0.77511 0.61315 0.0
C560 C 0.64592 0.71819 0.60819 0.0
C561 C 0.65129 0.69215 0.51775 0.0
H562 H 0.56921 0.62115 0.53881 0.0
C563 C 0.56261 0.61139 0.41583 0.0
C564 C 0.54478 0.57905 0.42251 0.0
C565 C 0.58448 0.63147 0.4404 0.0
C566 C 0.59249 0.64047 0.53303 0.0
H567 H 0.68486 0.80006 0.56352 0.0
H568 H 0.66472 0.75314 0.52757 0.0
H569 H 0.59421 0.66444 0.58053 0.0
H570 H 0.53645 0.54191 0.45912 0.0
H571 H 0.5743 0.5775 0.50305 0.0
H572 H 0.64832 0.669 0.46903 0.0
C573 C 0.66284 0.75045 0.55584 0.0
C574 C 0.60684 0.66532 0.5569 0.0
C575 C 0.67408 0.7774 0.57645 0.0
C576 C 0.5502 0.56679 0.45338 0.0
C577 C 0.57164 0.58707 0.47846 0.0
C578 C 0.63675 0.6675 0.49373 0.0
C579 C 0.64877 0.7205 0.57141 0.0
C580 C 0.63591 0.69197 0.54895 0.0
C581 C 0.58842 0.61964 0.47243 0.0
C582 C 0.60681 0.64194 0.50069 0.0
H583 H 0.65476 0.74275 0.65714 0.0
H584 H 0.63544 0.69553 0.62106 0.0
H585 H 0.67409 0.71191 0.51125 0.0
H586 H 0.55873 0.62129 0.39216 0.0
H587 H 0.59685 0.65652 0.43529 0.0
C588 C 0.42008 0.95822 0.44511 0.0
C589 C 0.40937 0.93661 0.4172 0.0
C590 C 0.39852 0.95963 0.46791 0.0
C591 C 0.31735 0.94172 0.47621 0.0
H592 H 0.32002 0.91576 0.57178 0.0
C593 C 0.2071 0.88272 0.56091 0.0
C594 C 0.20943 0.88709 0.59745 0.0
C595 C 0.23406 0.89521 0.54029 0.0
C596 C 0.31923 0.92379 0.54551 0.0
H597 H 0.36816 0.90082 0.38993 0.0
H598 H 0.33058 0.90402 0.42907 0.0
H599 H 0.36377 0.92841 0.53227 0.0
H600 H 0.2418 0.90859 0.64103 0.0
H601 H 0.28905 0.93111 0.60483 0.0
H602 H 0.27285 0.93697 0.489 0.0
C603 C 0.3555 0.91952 0.43359 0.0
C604 C 0.34429 0.93099 0.52292 0.0
C605 C 0.37695 0.91755 0.41141 0.0
C606 C 0.23932 0.90454 0.61294 0.0
C607 C 0.26637 0.91741 0.5922 0.0
C608 C 0.29255 0.93506 0.4989 0.0
C609 C 0.3661 0.94011 0.46237 0.0
C610 C 0.34299 0.93894 0.48782 0.0
C611 C 0.26405 0.91279 0.55561 0.0
C612 C 0.29261 0.92482 0.53342 0.0
H613 H 0.44501 0.97305 0.45011 0.0
H614 H 0.40709 0.9756 0.49008 0.0
H615 H 0.31605 0.94805 0.44924 0.0
H616 H 0.18441 0.86924 0.5482 0.0
H617 H 0.23132 0.89044 0.51235 0.0
C618 C 0.10394 0.34389 0.62255 0.0
C619 C 0.09393 0.31187 0.61788 0.0
C620 C 0.0894 0.35783 0.60415 0.0
C621 C 0.04756 0.34962 0.52207 0.0
H622 H 0.03442 0.41473 0.56213 0.0
C623 C 0.01749 0.42715 0.43472 0.0
C624 C 0.03717 0.45943 0.44113 0.0
C625 C 0.01591 0.40496 0.45902 0.0
C626 C 0.03787 0.39652 0.55058 0.0
H627 H 0.05984 0.26907 0.5913 0.0
H628 H 0.03469 0.29356 0.55911 0.0
H629 H 0.04825 0.38352 0.60045 0.0
H630 H 0.06919 0.49375 0.47883 0.0
H631 H 0.06667 0.45539 0.5206 0.0
H632 H 0.03873 0.36358 0.47204 0.0
C633 C 0.05394 0.30787 0.5768 0.0
C634 C 0.04582 0.37871 0.57251 0.0
C635 C 0.06834 0.29387 0.59533 0.0
C636 C 0.05395 0.46906 0.47294 0.0
C637 C 0.05225 0.44702 0.49715 0.0
C638 C 0.03976 0.36754 0.50011 0.0
C639 C 0.06461 0.34008 0.58063 0.0
C640 C 0.05166 0.35573 0.55833 0.0
C641 C 0.03376 0.41472 0.4902 0.0
C642 C 0.03585 0.39187 0.51401 0.0
H643 H 0.12346 0.35837 0.63984 0.0
H644 H 0.09837 0.38281 0.60736 0.0
H645 H 0.05215 0.33222 0.51035 0.0
H646 H 0.00425 0.41904 0.41044 0.0
H647 H 0.00128 0.3802 0.45308 0.0
C648 C 0.21368 0.32102 0.57091 0.0
C649 C 0.21513 0.31845 0.60748 0.0
C650 C 0.2412 0.33477 0.551 0.0
C651 C 0.30129 0.35397 0.51137 0.0
H652 H 0.37316 0.42685 0.55202 0.0
C653 C 0.41294 0.43257 0.43021 0.0
C654 C 0.42424 0.46496 0.43404 0.0
C655 C 0.39069 0.41109 0.45371 0.0
C656 C 0.3533 0.40655 0.54023 0.0
H657 H 0.24617 0.32663 0.6518 0.0
H658 H 0.29405 0.34959 0.61705 0.0
H659 H 0.32686 0.39607 0.5875 0.0
H660 H 0.42166 0.50019 0.46611 0.0
H661 H 0.38283 0.4631 0.50615 0.0
H662 H 0.3271 0.36605 0.46326 0.0
C663 C 0.27189 0.34212 0.60373 0.0
C664 C 0.32681 0.38856 0.56077 0.0
C665 C 0.24445 0.32892 0.62368 0.0
C666 C 0.41358 0.47543 0.46236 0.0
C667 C 0.39142 0.4541 0.48562 0.0
C668 C 0.32769 0.37227 0.49064 0.0
C669 C 0.2707 0.3457 0.56719 0.0
C670 C 0.30013 0.36249 0.54638 0.0
C671 C 0.37939 0.42165 0.48141 0.0
C672 C 0.35363 0.3993 0.5046 0.0
H673 H 0.19136 0.3131 0.55776 0.0
H674 H 0.23933 0.33761 0.52305 0.0
H675 H 0.28147 0.33362 0.49963 0.0
H676 H 0.4207 0.42377 0.40864 0.0
H677 H 0.38207 0.38624 0.44995 0.0
C678 C 0.5624 0.96388 0.42474 0.0
C679 C 0.52993 0.94425 0.42984 0.0
C680 C 0.58389 0.9653 0.4501 0.0
C681 C 0.5895 0.94421 0.54285 0.0
H682 H 0.6564 0.93136 0.5081 0.0
C683 C 0.6436 0.88381 0.62362 0.0
C684 C 0.67591 0.89453 0.62039 0.0
C685 C 0.62931 0.89678 0.60301 0.0
C686 C 0.63822 0.93553 0.51831 0.0
H687 H 0.49453 0.91192 0.4662 0.0
H688 H 0.53163 0.91428 0.50983 0.0
H689 H 0.62547 0.94301 0.46686 0.0
H690 H 0.71878 0.9283 0.59394 0.0
H691 H 0.69372 0.95077 0.558 0.0
H692 H 0.60144 0.93544 0.59415 0.0
C693 C 0.5407 0.92876 0.48658 0.0
C694 C 0.62054 0.94229 0.49465 0.0
C695 C 0.51939 0.92718 0.46131 0.0
C696 C 0.69378 0.91929 0.59696 0.0
C697 C 0.67945 0.93213 0.57624 0.0
C698 C 0.6071 0.93735 0.56646 0.0
C699 C 0.57321 0.94739 0.48109 0.0
C700 C 0.59538 0.94578 0.50656 0.0
C701 C 0.64697 0.9207 0.57865 0.0
C702 C 0.63108 0.93209 0.55434 0.0
H703 H 0.57122 0.97729 0.40074 0.0
H704 H 0.60882 0.98002 0.44524 0.0
H705 H 0.57063 0.94736 0.55291 0.0
H706 H 0.62916 0.86487 0.64145 0.0
H707 H 0.60416 0.88723 0.60523 0.0
C708 C 0.01429 0.57431 0.44223 0.0
C709 C 0.04317 0.57521 0.43799 0.0
C710 C 0.01086 0.59232 0.46852 0.0
C711 C 0.04424 0.63204 0.55215 0.0
H712 H 0.03125 0.69932 0.51875 0.0
C713 C 0.10394 0.75322 0.61544 0.0
C714 C 0.08971 0.77189 0.61406 0.0
C715 C 0.0893 0.72348 0.59999 0.0
C716 C 0.03407 0.68027 0.52892 0.0
H717 H 0.09058 0.59446 0.45855 0.0
H718 H 0.08437 0.62519 0.50447 0.0
H719 H 0.02015 0.65554 0.4799 0.0
H720 H 0.048 0.77324 0.59748 0.0
H721 H 0.02231 0.72114 0.57088 0.0
H722 H 0.05932 0.65719 0.60068 0.0
C723 C 0.0645 0.61085 0.48751 0.0
C724 C 0.02768 0.6552 0.50661 0.0
C725 C 0.06814 0.59356 0.46095 0.0
C726 C 0.05983 0.7596 0.59846 0.0
C727 C 0.04509 0.72976 0.58321 0.0
C728 C 0.05031 0.65689 0.57458 0.0
C729 C 0.03598 0.61061 0.49138 0.0
C730 C 0.03416 0.63174 0.51754 0.0
C731 C 0.05998 0.71165 0.58311 0.0
C732 C 0.04678 0.68205 0.56261 0.0
H733 H -0.00529 0.56028 0.42482 0.0
H734 H 0.98875 0.59207 0.47096 0.0
H735 H 0.04912 0.61395 0.56116 0.0
H736 H 0.12689 0.76196 0.62736 0.0
H737 H 0.10171 0.7104 0.59993 0.0
C738 C 0.48023 0.16112 0.97552 0.0
C739 C 0.46892 0.16273 0.00887 0.0
C740 C 0.50518 0.15534 0.9722 0.0
C741 C 0.55467 0.1298 0.01979 0.0
H742 H 0.62027 0.19046 0.95912 0.0
C743 C 0.68495 0.16475 0.03376 0.0
C744 C 0.7037 0.17283 0.00346 0.0
C745 C 0.65358 0.15728 0.03153 0.0
C746 C 0.60202 0.17287 0.97561 0.0
H747 H 0.47352 0.15735 0.06479 0.0
H748 H 0.51748 0.14771 0.05899 0.0
H749 H 0.56953 0.18771 0.96051 0.0
H750 H 0.70367 0.17758 0.9468 0.0
H751 H 0.64875 0.16416 0.94289 0.0
H752 H 0.58767 0.11558 0.03553 0.0
C753 C 0.50688 0.15073 0.03539 0.0
C754 C 0.57288 0.17131 0.97643 0.0
C755 C 0.4818 0.15644 0.03873 0.0
C756 C 0.68999 0.17187 0.9707 0.0
C757 C 0.65855 0.16427 0.96846 0.0
C758 C 0.58388 0.13131 0.0189 0.0
C759 C 0.51944 0.15109 0.00214 0.0
C760 C 0.54905 0.15013 -0.00107 0.0
C761 C 0.64018 0.15753 -0.00106 0.0
C762 C 0.60806 0.15326 0.99724 0.0
H763 H 0.47048 0.16536 0.95193 0.0
H764 H 0.51394 0.15511 0.94619 0.0
H765 H 0.53663 0.11301 0.0371 0.0
H766 H 0.6947 0.16507 0.05943 0.0
H767 H 0.64024 0.15256 0.05557 0.0
C768 C 0.83908 0.51178 0.95791 0.0
C769 C 0.83526 0.5203 0.992 0.0
C770 C 0.84743 0.48874 0.95283 0.0
C771 C 0.87381 0.43888 -0.00061 0.0
H772 H 0.81862 0.37566 0.93244 0.0
C773 C 0.82648 0.30773 0.01722 0.0
C774 C 0.82287 0.28873 0.98805 0.0
C775 C 0.83729 0.33967 0.01302 0.0
C776 C 0.83477 0.39336 0.95063 0.0
H777 H 0.83922 0.51284 0.0475 0.0
H778 H 0.85287 0.47207 0.03872 0.0
H779 H 0.82128 0.42641 0.93374 0.0
H780 H 0.82889 0.2884 0.93171 0.0
H781 H 0.84714 0.3446 0.92418 0.0
H782 H 0.88562 0.40476 0.01769 0.0
C783 C 0.84993 0.48346 0.01582 0.0
C784 C 0.83635 0.42253 0.95141 0.0
C785 C 0.84185 0.50671 0.0209 0.0
C786 C 0.83128 0.30252 0.9546 0.0
C787 C 0.8417 0.33457 0.9503 0.0
C788 C 0.87204 0.4096 -0.00124 0.0
C789 C 0.85191 0.47355 0.98172 0.0
C790 C 0.85503 0.44523 0.97664 0.0
C791 C 0.84447 0.35332 0.97949 0.0
C792 C 0.85164 0.3862 0.97521 0.0
H793 H 0.8347 0.52224 0.93508 0.0
H794 H 0.8494 0.48211 0.92624 0.0
H795 H 0.88894 0.45609 0.01862 0.0
H796 H 0.82059 0.29783 0.0434 0.0
H797 H 0.83878 0.35343 0.03593 0.0
C798 C 0.70197 0.47759 0.00771 0.0
C799 C 0.71362 0.50294 0.98412 0.0
C800 C 0.67273 0.4511 0.00227 0.0
C801 C 0.59585 0.42131 0.96284 0.0
H802 H 0.59224 0.34138 0.97788 0.0
C803 C 0.48175 0.29604 0.96425 0.0
C804 C 0.47997 0.2793 0.99503 0.0
C805 C 0.50904 0.32452 0.95669 0.0
C806 C 0.59292 0.36351 0.97333 0.0
H807 H 0.7031 0.52073 0.93683 0.0
H808 H 0.65126 0.47389 0.92746 0.0
H809 H 0.64309 0.38939 0.97481 0.0
H810 H 0.5049 0.28015 0.0427 0.0
H811 H 0.55214 0.32922 0.02926 0.0
H812 H 0.54529 0.39507 0.96265 0.0
C813 C 0.66523 0.4748 0.95 0.0
C814 C 0.62194 0.39093 0.97161 0.0
C815 C 0.69484 0.50147 0.95533 0.0
C816 C 0.50549 0.29215 0.01858 0.0
C817 C 0.53264 0.32023 0.01087 0.0
C818 C 0.56659 0.39365 0.96446 0.0
C819 C 0.65423 0.44921 0.97318 0.0
C820 C 0.62369 0.4202 0.96781 0.0
C821 C 0.53493 0.33634 0.97961 0.0
C822 C 0.56502 0.36475 0.97111 0.0
H823 H 0.71555 0.47795 0.03038 0.0
H824 H 0.66452 0.432 0.021 0.0
H825 H 0.59664 0.44364 0.95989 0.0
H826 H 0.46239 0.28685 0.9457 0.0
H827 H 0.51033 0.33672 0.93248 0.0
C828 C 0.36014 0.51312 0.3022 0.0
C829 C 0.37331 0.51316 0.33506 0.0
C830 C 0.32906 0.50654 0.29966 0.0
C831 C 0.25385 0.47389 0.34823 0.0
H832 H 0.24212 0.53312 0.29188 0.0
C833 C 0.15195 0.4988 0.36801 0.0
C834 C 0.13969 0.50628 0.33847 0.0
C835 C 0.17726 0.49353 0.36454 0.0
C836 C 0.24474 0.51595 0.30718 0.0
H837 H 0.36369 0.50492 0.39086 0.0
H838 H 0.30966 0.49401 0.38644 0.0
H839 H 0.29251 0.53499 0.29126 0.0
H840 H 0.14299 0.51197 0.28183 0.0
H841 H 0.18695 0.50247 0.2758 0.0
H842 H 0.20619 0.45548 0.3649 0.0
C843 C 0.32327 0.49876 0.3626 0.0
C844 C 0.27367 0.51704 0.30683 0.0
C845 C 0.35434 0.50528 0.36515 0.0
C846 C 0.15217 0.5067 0.30518 0.0
C847 C 0.17741 0.50135 0.30172 0.0
C848 C 0.22484 0.47279 0.34857 0.0
C849 C 0.31048 0.49988 0.32991 0.0
C850 C 0.27872 0.49638 0.32779 0.0
C851 C 0.19075 0.49551 0.33146 0.0
C852 C 0.22017 0.49417 0.32848 0.0
H853 H 0.37398 0.5187 0.27844 0.0
H854 H 0.31969 0.5071 0.27403 0.0
H855 H 0.25693 0.45739 0.36428 0.0
H856 H 0.14277 0.49812 0.39402 0.0
H857 H 0.18716 0.48934 0.38802 0.0
C858 C 0.49953 0.83631 0.34937 0.0
C859 C 0.49151 0.84911 0.32083 0.0
C860 C 0.50885 0.81405 0.3438 0.0
C861 C 0.49745 0.75361 0.28001 0.0
H862 H 0.55341 0.74263 0.34316 0.0
C863 C 0.50003 0.63774 0.28438 0.0
C864 C 0.49383 0.62509 0.31845 0.0
C865 C 0.50918 0.66939 0.27912 0.0
C866 C 0.53797 0.74557 0.32507 0.0
H867 H 0.48906 0.85019 0.26393 0.0
H868 H 0.50561 0.81155 0.25428 0.0
H869 H 0.55235 0.79184 0.34404 0.0
H870 H 0.49457 0.63589 0.37379 0.0
H871 H 0.51051 0.6908 0.36465 0.0
H872 H 0.48211 0.70686 0.26213 0.0
C873 C 0.50405 0.81823 0.28097 0.0
C874 C 0.53725 0.77364 0.32568 0.0
C875 C 0.49458 0.84039 0.28654 0.0
C876 C 0.49877 0.64493 0.34719 0.0
C877 C 0.50829 0.67649 0.34199 0.0
C878 C 0.49829 0.72562 0.2793 0.0
C879 C 0.51057 0.80427 0.30957 0.0
C880 C 0.51604 0.77744 0.30417 0.0
C881 C 0.51284 0.68888 0.3079 0.0
C882 C 0.51761 0.72086 0.30283 0.0
H883 H 0.49758 0.84264 0.37611 0.0
H884 H 0.51329 0.80347 0.36647 0.0
H885 H 0.48064 0.75562 0.26329 0.0
H886 H 0.49656 0.62294 0.26179 0.0
H887 H 0.51264 0.67845 0.25257 0.0
C888 C 0.3537 0.82962 0.34223 0.0
C889 C 0.37166 0.84482 0.31248 0.0
C890 C 0.3233 0.80456 0.33865 0.0
C891 C 0.25429 0.76087 0.28412 0.0
H892 H 0.24793 0.69058 0.33761 0.0
C893 C 0.1458 0.63187 0.2909 0.0
C894 C 0.13914 0.61961 0.32521 0.0
C895 C 0.17209 0.66148 0.28457 0.0
C896 C 0.24929 0.70999 0.3226 0.0
H897 H 0.37121 0.84753 0.25567 0.0
H898 H 0.31736 0.80267 0.24933 0.0
H899 H 0.29801 0.73913 0.33438 0.0
H900 H 0.15273 0.62977 0.38 0.0
H901 H 0.1981 0.68114 0.36899 0.0
H902 H 0.20493 0.73132 0.27306 0.0
C903 C 0.32714 0.81048 0.27536 0.0
C904 C 0.27793 0.73772 0.3207 0.0
C905 C 0.35782 0.83597 0.27898 0.0
C906 C 0.15767 0.6383 0.35321 0.0
C907 C 0.18364 0.6677 0.34693 0.0
C908 C 0.22531 0.73281 0.28604 0.0
C909 C 0.31021 0.79393 0.30523 0.0
C910 C 0.28051 0.76372 0.30243 0.0
C911 C 0.19181 0.67904 0.31249 0.0
C912 C 0.22249 0.70756 0.30629 0.0
H913 H 0.36355 0.83647 0.36841 0.0
H914 H 0.31043 0.79256 0.3621 0.0
H915 H 0.25587 0.78066 0.26975 0.0
H916 H 0.13175 0.61798 0.26885 0.0
H917 H 0.17793 0.66985 0.25781 0.0
C918 C 0.01747 0.84031 0.61701 0.0
C919 C 0.03047 0.84329 0.65073 0.0
C920 C 0.98572 0.83102 0.61287 0.0
C921 C 0.90961 0.79648 0.66043 0.0
H922 H 0.8935 0.84992 0.59888 0.0
C923 C 0.81474 0.82846 0.68553 0.0
C924 C 0.79875 0.83265 0.65726 0.0
C925 C 0.83802 0.82071 0.67958 0.0
C926 C 0.89734 0.83423 0.61553 0.0
H927 H 0.02 0.83757 0.70647 0.0
H928 H 0.96489 0.82207 0.69929 0.0
H929 H 0.94476 0.8535 0.5981 0.0
H930 H 0.79335 0.83041 0.60062 0.0
H931 H 0.8348 0.81733 0.5901 0.0
H932 H 0.86263 0.77852 0.6792 0.0
C933 C 0.97908 0.82647 0.67598 0.0
C934 C 0.92676 0.83629 0.61513 0.0
C935 C 0.01079 0.83569 0.68013 0.0
C936 C 0.80544 0.82745 0.62288 0.0
C937 C 0.82914 0.82005 0.61687 0.0
C938 C 0.88023 0.79451 0.66092 0.0
C939 C 0.96629 0.8245 0.64234 0.0
C940 C 0.93356 0.81824 0.63847 0.0
C941 C 0.84603 0.81721 0.64519 0.0
C942 C 0.87422 0.81418 0.63936 0.0
H943 H 0.03191 0.8456 0.59377 0.0
H944 H 0.97647 0.82934 0.58659 0.0
H945 H 0.91393 0.78177 0.67817 0.0
H946 H 0.80982 0.83198 0.71235 0.0
H947 H 0.85086 0.81906 0.70192 0.0
C948 C 0.16411 0.97903 0.66243 0.0
C949 C 0.15154 0.95873 0.63363 0.0
C950 C 0.17216 0.01034 0.65946 0.0
C951 C 0.18278 0.07501 0.60185 0.0
H952 H 0.14158 0.09094 0.67944 0.0
C953 C 0.15675 0.17892 0.61348 0.0
C954 C 0.15856 0.19054 0.64762 0.0
C955 C 0.16241 0.15399 0.60776 0.0
C956 C 0.15367 0.08716 0.65788 0.0
H957 H 0.13959 0.95527 0.57841 0.0
H958 H 0.15261 0.01053 0.57343 0.0
H959 H 0.14011 0.0411 0.67586 0.0
H960 H 0.17097 0.18806 0.7017 0.0
H961 H 0.18175 0.14541 0.69164 0.0
H962 H 0.19588 0.12151 0.58384 0.0
C963 C 0.15679 0.00219 0.59808 0.0
C964 C 0.15277 0.05854 0.65579 0.0
C965 C 0.14926 0.97069 0.60092 0.0
C966 C 0.16879 0.17898 0.67528 0.0
C967 C 0.17491 0.15458 0.6695 0.0
C968 C 0.18371 0.10401 0.60397 0.0
C969 C 0.16695 0.0218 0.62786 0.0
C970 C 0.16774 0.0523 0.62819 0.0
C971 C 0.17025 0.14079 0.63609 0.0
C972 C 0.16956 0.11044 0.63243 0.0
H973 H 0.16632 0.97032 0.6878 0.0
H974 H 0.18063 0.02514 0.6826 0.0
H975 H 0.19427 0.07058 0.58016 0.0
H976 H 0.14899 0.18765 0.59174 0.0
H977 H 0.15868 0.1438 0.58175 0.0
C978 C 0.82003 0.96909 0.70678 0.0
C979 C 0.80721 0.9508 0.67636 0.0
C980 C 0.84607 -0.00064 0.7045 0.0
C981 C 0.91365 0.04613 0.64737 0.0
H982 H 0.92549 0.11578 0.706 0.0
C983 C 0.02617 0.16657 0.63857 0.0
C984 C 0.0401 0.18067 0.67079 0.0
C985 C -0.00438 0.14093 0.63747 0.0
C986 C 0.92256 0.09649 0.68958 0.0
H987 H 0.8106 0.95067 0.61952 0.0
H988 H 0.85574 0.00344 0.61562 0.0
H989 H 0.87548 0.06636 0.70752 0.0
H990 H 0.03231 0.17967 0.72701 0.0
H991 H 0.97932 0.13468 0.72509 0.0
H992 H 0.96081 0.07578 0.63 0.0
C993 C 0.84608 0.99416 0.64127 0.0
C994 C 0.89394 0.06822 0.69046 0.0
C995 C 0.82012 0.96394 0.64353 0.0
C996 C 0.02238 0.16928 0.70173 0.0
C997 C 0.99186 0.14361 0.70063 0.0
C998 C 0.9422 0.0743 0.64653 0.0
C999 C 0.85975 0.01195 0.67177 0.0
C1000 C 0.88929 0.04265 0.66956 0.0
C1001 C 0.97834 0.1288 0.66856 0.0
C1002 C 0.94712 0.09972 0.66784 0.0
H1003 H 0.81057 0.95973 0.73247 0.0
H1004 H 0.8562 0.0124 0.7285 0.0
H1005 H 0.91104 0.0267 0.63142 0.0
H1006 H 0.03904 0.17496 0.6142 0.0
H1007 H 0.98566 0.13036 0.61228 0.0
loop_
_geom_bond_atom_site_label_1
_geom_bond_atom_site_label_2
_geom_bond_distance
_geom_bond_site_symmetry_2
_ccdc_geom_bond_type
Fe0 O2 1.918 1_556 S
Fe0 O5 1.997 . S
Fe0 O6 2.002 . S
Fe0 O11 1.976 . S
Fe0 O14 1.996 . S
Fe1 O2 1.918 . S
Fe1 O9 1.997 1_554 S
Fe1 O12 1.996 1_554 S
Fe1 O16 1.976 . S
Fe1 O19 2.002 . S
O2 Fe0 1.918 1_554 S
O2 Fe1 1.918 . S
O2 Fe3 1.918 . S
Fe3 O2 1.918 . S
Fe3 O4 2.002 . S
Fe3 O13 1.976 . S
Fe3 O17 1.996 . S
Fe3 O20 1.997 . S
O4 Fe3 2.002 . S
O4 C21 1.295 1_554 S
O5 Fe0 1.997 . S
O5 C21 1.235 . S
O6 Fe0 2.002 . S
O6 C7 1.295 . S
C7 O6 1.295 . S
C7 O9 1.235 . S
C8 O13 1.287 1_556 S
C8 O14 1.255 . S
O9 Fe1 1.997 1_556 S
O9 C7 1.235 . S
C10 O16 1.287 . S
C10 O17 1.255 . S
O11 Fe0 1.976 . S
O11 C18 1.287 . S
O12 Fe1 1.996 1_556 S
O12 C18 1.255 . S
O13 Fe3 1.976 . S
O13 C8 1.287 1_554 S
O14 Fe0 1.996 . S
O14 C8 1.255 . S
C15 O19 1.295 . S
C15 O20 1.235 . S
O16 Fe1 1.976 . S
O16 C10 1.287 . S
O17 Fe3 1.996 . S
O17 C10 1.255 . S
C18 O11 1.287 . S
C18 O12 1.255 . S
O19 Fe1 2.002 . S
O19 C15 1.295 . S
O20 Fe3 1.997 . S
O20 C15 1.235 . S
C21 O4 1.295 1_556 S
C21 O5 1.235 . S
Fe22 O24 1.918 . S
Fe22 O27 1.997 1_554 S
Fe22 O28 2.002 . S
Fe22 O33 1.976 . S
Fe22 O36 1.996 1_554 S
Fe23 O24 1.918 . S
Fe23 O31 1.997 . S
Fe23 O34 1.996 . S
Fe23 O38 1.976 . S
Fe23 O41 2.002 . S
O24 Fe22 1.918 . S
O24 Fe23 1.918 . S
O24 Fe25 1.918 1_554 S
Fe25 O24 1.918 1_556 S
Fe25 O26 2.002 . S
Fe25 O35 1.976 . S
Fe25 O39 1.996 . S
Fe25 O42 1.997 . S
O26 Fe25 2.002 . S
O26 C43 1.295 . S
O27 Fe22 1.997 1_556 S
O27 C43 1.235 . S
O28 Fe22 2.002 . S
O28 C29 1.295 . S
C29 O28 1.295 . S
C29 O31 1.235 . S
C30 O35 1.287 . S
C30 O36 1.255 . S
O31 Fe23 1.997 . S
O31 C29 1.235 . S
C32 O38 1.287 1_556 S
C32 O39 1.255 . S
O33 Fe22 1.976 . S
O33 C40 1.287 . S
O34 Fe23 1.996 . S
O34 C40 1.255 . S
O35 Fe25 1.976 . S
O35 C30 1.287 . S
O36 Fe22 1.996 1_556 S
O36 C30 1.255 . S
C37 O41 1.295 1_556 S
C37 O42 1.235 . S
O38 Fe23 1.976 . S
O38 C32 1.287 1_554 S
O39 Fe25 1.996 . S
O39 C32 1.255 . S
C40 O33 1.287 . S
C40 O34 1.255 . S
O41 Fe23 2.002 . S
O41 C37 1.295 1_554 S
O42 Fe25 1.997 . S
O42 C37 1.235 . S
C43 O26 1.295 . S
C43 O27 1.235 . S
Fe44 O46 1.918 1_556 S
Fe44 O49 1.997 . S
Fe44 O50 2.002 . S
Fe44 O55 1.976 . S
Fe44 O58 1.996 . S
Fe45 O46 1.918 . S
Fe45 O53 1.997 1_554 S
Fe45 O56 1.996 1_554 S
Fe45 O60 1.976 . S
Fe45 O63 2.002 . S
O46 Fe44 1.918 1_554 S
O46 Fe45 1.918 . S
O46 Fe47 1.918 . S
Fe47 O46 1.918 . S
Fe47 O48 2.002 . S
Fe47 O57 1.976 . S
Fe47 O61 1.996 . S
Fe47 O64 1.997 . S
O48 Fe47 2.002 . S
O48 C65 1.295 1_554 S
O49 Fe44 1.997 . S
O49 C65 1.235 . S
O50 Fe44 2.002 . S
O50 C51 1.295 . S
C51 O50 1.295 . S
C51 O53 1.235 . S
C52 O57 1.287 1_556 S
C52 O58 1.255 . S
O53 Fe45 1.997 1_556 S
O53 C51 1.235 . S
C54 O60 1.287 . S
C54 O61 1.255 . S
O55 Fe44 1.976 . S
O55 C62 1.287 . S
O56 Fe45 1.996 1_556 S
O56 C62 1.255 . S
O57 Fe47 1.976 . S
O57 C52 1.287 1_554 S
O58 Fe44 1.996 . S
O58 C52 1.255 . S
C59 O63 1.295 . S
C59 O64 1.235 . S
O60 Fe45 1.976 . S
O60 C54 1.287 . S
O61 Fe47 1.996 . S
O61 C54 1.255 . S
C62 O55 1.287 . S
C62 O56 1.255 . S
O63 Fe45 2.002 . S
O63 C59 1.295 . S
O64 Fe47 1.997 . S
O64 C59 1.235 . S
C65 O48 1.295 1_556 S
C65 O49 1.235 . S
Fe66 O68 1.918 . S
Fe66 O71 1.997 . S
Fe66 O72 2.002 . S
Fe66 O77 1.976 . S
Fe66 O80 1.996 . S
Fe67 O68 1.918 . S
Fe67 O75 1.997 . S
Fe67 O78 1.996 . S
Fe67 O82 1.976 . S
Fe67 O85 2.002 . S
O68 Fe66 1.918 . S
O68 Fe67 1.918 . S
O68 Fe69 1.918 . S
Fe69 O68 1.918 . S
Fe69 O70 2.002 . S
Fe69 O79 1.976 . S
Fe69 O83 1.996 . S
Fe69 O86 1.997 . S
O70 Fe69 2.002 . S
O70 C87 1.295 . S
O71 Fe66 1.997 . S
O71 C87 1.235 . S
O72 Fe66 2.002 . S
O72 C73 1.295 . S
C73 O72 1.295 . S
C73 O75 1.235 . S
C74 O79 1.287 . S
C74 O80 1.255 . S
O75 Fe67 1.997 . S
O75 C73 1.235 . S
C76 O82 1.287 . S
C76 O83 1.255 . S
O77 Fe66 1.976 . S
O77 C84 1.287 . S
O78 Fe67 1.996 . S
O78 C84 1.255 . S
O79 Fe69 1.976 . S
O79 C74 1.287 . S
O80 Fe66 1.996 . S
O80 C74 1.255 . S
C81 O85 1.295 . S
C81 O86 1.235 . S
O82 Fe67 1.976 . S
O82 C76 1.287 . S
O83 Fe69 1.996 . S
O83 C76 1.255 . S
C84 O77 1.287 . S
C84 O78 1.255 . S
O85 Fe67 2.002 . S
O85 C81 1.295 . S
O86 Fe69 1.997 . S
O86 C81 1.235 . S
C87 O70 1.295 . S
C87 O71 1.235 . S
Fe88 O90 1.918 . S
Fe88 O93 1.997 . S
Fe88 O94 2.002 . S
Fe88 O99 1.976 . S
Fe88 O102 1.996 . S
Fe89 O90 1.918 . S
Fe89 O97 1.997 . S
Fe89 O100 1.996 . S
Fe89 O104 1.976 . S
Fe89 O107 2.002 . S
O90 Fe88 1.918 . S
O90 Fe89 1.918 . S
O90 Fe91 1.918 . S
Fe91 O90 1.918 . S
Fe91 O92 2.002 . S
Fe91 O101 1.976 . S
Fe91 O105 1.996 . S
Fe91 O108 1.997 . S
O92 Fe91 2.002 . S
O92 C109 1.295 . S
O93 Fe88 1.997 . S
O93 C109 1.235 . S
O94 Fe88 2.002 . S
O94 C95 1.295 . S
C95 O94 1.295 . S
C95 O97 1.235 . S
C96 O101 1.287 . S
C96 O102 1.255 . S
O97 Fe89 1.997 . S
O97 C95 1.235 . S
C98 O104 1.287 . S
C98 O105 1.255 . S
O99 Fe88 1.976 . S
O99 C106 1.287 . S
O100 Fe89 1.996 . S
O100 C106 1.255 . S
O101 Fe91 1.976 . S
O101 C96 1.287 . S
O102 Fe88 1.996 . S
O102 C96 1.255 . S
C103 O107 1.295 . S
C103 O108 1.235 . S
O104 Fe89 1.976 . S
O104 C98 1.287 . S
O105 Fe91 1.996 . S
O105 C98 1.255 . S
C106 O99 1.287 . S
C106 O100 1.255 . S
O107 Fe89 2.002 . S
O107 C103 1.295 . S
O108 Fe91 1.997 . S
O108 C103 1.235 . S
C109 O92 1.295 . S
C109 O93 1.235 . S
Fe110 O112 1.918 . S
Fe110 O115 1.997 . S
Fe110 O116 2.002 . S
Fe110 O121 1.976 . S
Fe110 O124 1.996 . S
Fe111 O112 1.918 . S
Fe111 O119 1.997 . S
Fe111 O122 1.996 . S
Fe111 O126 1.976 . S
Fe111 O129 2.002 . S
O112 Fe110 1.918 . S
O112 Fe111 1.918 . S
O112 Fe113 1.918 . S
Fe113 O112 1.918 . S
Fe113 O114 2.002 . S
Fe113 O123 1.976 . S
Fe113 O127 1.996 . S
Fe113 O130 1.997 . S
O114 Fe113 2.002 . S
O114 C131 1.295 . S
O115 Fe110 1.997 . S
O115 C131 1.235 . S
O116 Fe110 2.002 . S
O116 C117 1.295 . S
C117 O116 1.295 . S
C117 O119 1.235 . S
C118 O123 1.287 . S
C118 O124 1.255 . S
O119 Fe111 1.997 . S
O119 C117 1.235 . S
C120 O126 1.287 . S
C120 O127 1.255 . S
O121 Fe110 1.976 . S
O121 C128 1.287 . S
O122 Fe111 1.996 . S
O122 C128 1.255 . S
O123 Fe113 1.976 . S
O123 C118 1.287 . S
O124 Fe110 1.996 . S
O124 C118 1.255 . S
C125 O129 1.295 . S
C125 O130 1.235 . S
O126 Fe111 1.976 . S
O126 C120 1.287 . S
O127 Fe113 1.996 . S
O127 C120 1.255 . S
C128 O121 1.287 . S
C128 O122 1.255 . S
O129 Fe111 2.002 . S
O129 C125 1.295 . S
O130 Fe113 1.997 . S
O130 C125 1.235 . S
C131 O114 1.295 . S
C131 O115 1.235 . S
Fe132 O134 1.918 . S
Fe132 O137 1.997 . S
Fe132 O138 2.002 . S
Fe132 O143 1.976 . S
Fe132 O146 1.996 . S
Fe133 O134 1.918 . S
Fe133 O141 1.997 . S
Fe133 O144 1.996 . S
Fe133 O148 1.976 . S
Fe133 O151 2.002 . S
O134 Fe132 1.918 . S
O134 Fe133 1.918 . S
O134 Fe135 1.918 . S
Fe135 O134 1.918 . S
Fe135 O136 2.002 . S
Fe135 O145 1.976 . S
Fe135 O149 1.996 . S
Fe135 O152 1.997 . S
O136 Fe135 2.002 . S
O136 C153 1.295 . S
O137 Fe132 1.997 . S
O137 C153 1.235 . S
O138 Fe132 2.002 . S
O138 C139 1.295 . S
C139 O138 1.295 . S
C139 O141 1.235 . S
C140 O145 1.287 . S
C140 O146 1.255 . S
O141 Fe133 1.997 . S
O141 C139 1.235 . S
C142 O148 1.287 . S
C142 O149 1.255 . S
O143 Fe132 1.976 . S
O143 C150 1.287 . S
O144 Fe133 1.996 . S
O144 C150 1.255 . S
O145 Fe135 1.976 . S
O145 C140 1.287 . S
O146 Fe132 1.996 . S
O146 C140 1.255 . S
C147 O151 1.295 . S
C147 O152 1.235 . S
O148 Fe133 1.976 . S
O148 C142 1.287 . S
O149 Fe135 1.996 . S
O149 C142 1.255 . S
C150 O143 1.287 . S
C150 O144 1.255 . S
O151 Fe133 2.002 . S
O151 C147 1.295 . S
O152 Fe135 1.997 . S
O152 C147 1.235 . S
C153 O136 1.295 . S
C153 O137 1.235 . S
Fe154 O156 1.918 . S
Fe154 O159 1.997 . S
Fe154 O160 2.002 . S
Fe154 O165 1.976 . S
Fe154 O168 1.996 . S
Fe155 O156 1.918 . S
Fe155 O163 1.997 . S
Fe155 O166 1.996 . S
Fe155 O170 1.976 . S
Fe155 O173 2.002 . S
O156 Fe154 1.918 . S
O156 Fe155 1.918 . S
O156 Fe157 1.918 . S
Fe157 O156 1.918 . S
Fe157 O158 2.002 . S
Fe157 O167 1.976 . S
Fe157 O171 1.996 . S
Fe157 O174 1.997 . S
O158 Fe157 2.002 . S
O158 C175 1.295 . S
O159 Fe154 1.997 . S
O159 C175 1.235 . S
O160 Fe154 2.002 . S
O160 C161 1.295 . S
C161 O160 1.295 . S
C161 O163 1.235 . S
C162 O167 1.287 . S
C162 O168 1.255 . S
O163 Fe155 1.997 . S
O163 C161 1.235 . S
C164 O170 1.287 . S
C164 O171 1.255 . S
O165 Fe154 1.976 . S
O165 C172 1.287 . S
O166 Fe155 1.996 . S
O166 C172 1.255 . S
O167 Fe157 1.976 . S
O167 C162 1.287 . S
O168 Fe154 1.996 . S
O168 C162 1.255 . S
C169 O173 1.295 . S
C169 O174 1.235 . S
O170 Fe155 1.976 . S
O170 C164 1.287 . S
O171 Fe157 1.996 . S
O171 C164 1.255 . S
C172 O165 1.287 . S
C172 O166 1.255 . S
O173 Fe155 2.002 . S
O173 C169 1.295 . S
O174 Fe157 1.997 . S
O174 C169 1.235 . S
C175 O158 1.295 . S
C175 O159 1.235 . S
Fe176 O178 1.918 . S
Fe176 O181 1.997 . S
Fe176 O182 2.002 . S
Fe176 O187 1.976 . S
Fe176 O190 1.996 . S
Fe177 O178 1.918 . S
Fe177 O185 1.997 . S
Fe177 O188 1.996 . S
Fe177 O192 1.976 . S
Fe177 O195 2.002 . S
O178 Fe176 1.918 . S
O178 Fe177 1.918 . S
O178 Fe179 1.918 . S
Fe179 O178 1.918 . S
Fe179 O180 2.002 . S
Fe179 O189 1.976 . S
Fe179 O193 1.996 . S
Fe179 O196 1.997 . S
O180 Fe179 2.002 . S
O180 C197 1.295 . S
O181 Fe176 1.997 . S
O181 C197 1.235 . S
O182 Fe176 2.002 . S
O182 C183 1.295 . S
C183 O182 1.295 . S
C183 O185 1.235 . S
C184 O189 1.287 . S
C184 O190 1.255 . S
O185 Fe177 1.997 . S
O185 C183 1.235 . S
C186 O192 1.287 . S
C186 O193 1.255 . S
O187 Fe176 1.976 . S
O187 C194 1.287 . S
O188 Fe177 1.996 . S
O188 C194 1.255 . S
O189 Fe179 1.976 . S
O189 C184 1.287 . S
O190 Fe176 1.996 . S
O190 C184 1.255 . S
C191 O195 1.295 . S
C191 O196 1.235 . S
O192 Fe177 1.976 . S
O192 C186 1.287 . S
O193 Fe179 1.996 . S
O193 C186 1.255 . S
C194 O187 1.287 . S
C194 O188 1.255 . S
O195 Fe177 2.002 . S
O195 C191 1.295 . S
O196 Fe179 1.997 . S
O196 C191 1.235 . S
C197 O180 1.295 . S
C197 O181 1.235 . S
C198 C199 1.349 . S
C198 C200 1.327 . S
C198 H223 0.950 . S
C199 C198 1.349 . S
C199 C215 1.349 . S
C200 C198 1.327 . S
C200 C219 1.429 . S
C200 H224 0.950 . S
C201 C218 1.574 . S
C201 C220 1.368 . S
C201 H225 0.949 . S
H202 C206 0.949 . S
C203 C204 1.349 . S
C203 C205 1.327 . S
C203 H226 0.950 . S
C204 C203 1.349 . S
C204 C216 1.349 . S
C205 C203 1.327 . S
C205 C221 1.429 . S
C205 H227 0.950 . S
C206 H202 0.949 . S
C206 C214 1.574 1_565 S
C206 C222 1.368 . S
H207 C215 0.950 . S
H208 C213 0.950 . S
H209 C214 0.949 . S
H210 C216 0.950 . S
H211 C217 0.950 . S
H212 C218 0.949 . S
C213 H208 0.950 . S
C213 C215 1.327 . S
C213 C219 1.429 . S
C214 C206 1.574 1_545 S
C214 H209 0.949 . S
C214 C220 1.368 . S
C215 C199 1.349 . S
C215 H207 0.950 . S
C215 C213 1.327 . S
C216 C204 1.349 . S
C216 H210 0.950 . S
C216 C217 1.327 . S
C217 H211 0.950 . S
C217 C216 1.327 . S
C217 C221 1.429 . S
C218 C201 1.574 . S
C218 H212 0.949 . S
C218 C222 1.368 1_545 S
C219 C200 1.429 . S
C219 C213 1.429 . S
C219 C220 1.523 . S
C220 C201 1.368 . S
C220 C214 1.368 . S
C220 C219 1.523 . S
C221 C205 1.429 . S
C221 C217 1.429 . S
C221 C222 1.523 . S
C222 C206 1.368 . S
C222 C218 1.368 1_565 S
C222 C221 1.523 . S
H223 C198 0.950 . S
H224 C200 0.950 . S
H225 C201 0.949 . S
H226 C203 0.950 . S
H227 C205 0.950 . S
C228 C229 1.349 . S
C228 C230 1.327 . S
C228 H253 0.950 . S
C229 C228 1.349 . S
C229 C245 1.349 . S
C230 C228 1.327 . S
C230 C249 1.429 . S
C230 H254 0.950 . S
C231 C248 1.574 1_655 S
C231 C250 1.368 . S
C231 H255 0.949 . S
H232 C236 0.949 1_455 S
C233 C234 1.349 . S
C233 C235 1.327 . S
C233 H256 0.950 . S
C234 C233 1.349 . S
C234 C246 1.349 . S
C235 C233 1.327 . S
C235 C251 1.429 . S
C235 H257 0.950 . S
C236 H232 0.949 1_655 S
C236 C244 1.574 . S
C236 C252 1.368 1_655 S
H237 C245 0.950 . S
H238 C243 0.950 . S
H239 C244 0.949 . S
H240 C246 0.950 . S
H241 C247 0.950 . S
H242 C248 0.949 . S
C243 H238 0.950 . S
C243 C245 1.327 . S
C243 C249 1.429 . S
C244 C236 1.574 . S
C244 H239 0.949 . S
C244 C250 1.368 . S
C245 C229 1.349 . S
C245 H237 0.950 . S
C245 C243 1.327 . S
C246 C234 1.349 . S
C246 H240 0.950 . S
C246 C247 1.327 . S
C247 H241 0.950 . S
C247 C246 1.327 . S
C247 C251 1.429 . S
C248 C231 1.574 1_455 S
C248 H242 0.949 . S
C248 C252 1.368 . S
C249 C230 1.429 . S
C249 C243 1.429 . S
C249 C250 1.523 . S
C250 C231 1.368 . S
C250 C244 1.368 . S
C250 C249 1.523 . S
C251 C235 1.429 . S
C251 C247 1.429 . S
C251 C252 1.523 . S
C252 C236 1.368 1_455 S
C252 C248 1.368 . S
C252 C251 1.523 . S
H253 C228 0.950 . S
H254 C230 0.950 . S
H255 C231 0.949 . S
H256 C233 0.950 . S
H257 C235 0.950 . S
C258 C259 1.349 . S
C258 C260 1.327 . S
C258 H283 0.950 . S
C259 C258 1.349 . S
C259 C275 1.349 . S
C260 C258 1.327 . S
C260 C279 1.429 . S
C260 H284 0.950 . S
C261 C278 1.574 . S
C261 C280 1.368 . S
C261 H285 0.949 . S
H262 C266 0.949 . S
C263 C264 1.349 . S
C263 C265 1.327 . S
C263 H286 0.950 . S
C264 C263 1.349 . S
C264 C276 1.349 . S
C265 C263 1.327 . S
C265 C281 1.429 . S
C265 H287 0.950 . S
C266 H262 0.949 . S
C266 C274 1.574 . S
C266 C282 1.368 . S
H267 C275 0.950 . S
H268 C273 0.950 . S
H269 C274 0.949 . S
H270 C276 0.950 . S
H271 C277 0.950 . S
H272 C278 0.949 . S
C273 H268 0.950 . S
C273 C275 1.327 . S
C273 C279 1.429 . S
C274 C266 1.574 . S
C274 H269 0.949 . S
C274 C280 1.368 . S
C275 C259 1.349 . S
C275 H267 0.950 . S
C275 C273 1.327 . S
C276 C264 1.349 . S
C276 H270 0.950 . S
C276 C277 1.327 . S
C277 H271 0.950 . S
C277 C276 1.327 . S
C277 C281 1.429 . S
C278 C261 1.574 . S
C278 H272 0.949 . S
C278 C282 1.368 . S
C279 C260 1.429 . S
C279 C273 1.429 . S
C279 C280 1.523 . S
C280 C261 1.368 . S
C280 C274 1.368 . S
C280 C279 1.523 . S
C281 C265 1.429 . S
C281 C277 1.429 . S
C281 C282 1.523 . S
C282 C266 1.368 . S
C282 C278 1.368 . S
C282 C281 1.523 . S
H283 C258 0.950 . S
H284 C260 0.950 . S
H285 C261 0.949 . S
H286 C263 0.950 . S
H287 C265 0.950 . S
C288 C289 1.349 . S
C288 C290 1.327 . S
C288 H313 0.950 . S
C289 C288 1.349 . S
C289 C305 1.349 . S
C290 C288 1.327 . S
C290 C309 1.429 . S
C290 H314 0.950 . S
C291 C308 1.574 . S
C291 C310 1.368 1_655 S
C291 H315 0.949 . S
H292 C296 0.949 . S
C293 C294 1.349 . S
C293 C295 1.327 . S
C293 H316 0.950 . S
C294 C293 1.349 . S
C294 C306 1.349 . S
C295 C293 1.327 . S
C295 C311 1.429 . S
C295 H317 0.950 . S
C296 H292 0.949 . S
C296 C304 1.574 1_655 S
C296 C312 1.368 . S
H297 C305 0.950 . S
H298 C303 0.950 . S
H299 C304 0.949 . S
H300 C306 0.950 . S
H301 C307 0.950 . S
H302 C308 0.949 . S
C303 H298 0.950 . S
C303 C305 1.327 . S
C303 C309 1.429 . S
C304 C296 1.574 1_455 S
C304 H299 0.949 . S
C304 C310 1.368 . S
C305 C289 1.349 . S
C305 H297 0.950 . S
C305 C303 1.327 . S
C306 C294 1.349 . S
C306 H300 0.950 . S
C306 C307 1.327 . S
C307 H301 0.950 . S
C307 C306 1.327 . S
C307 C311 1.429 . S
C308 C291 1.574 . S
C308 H302 0.949 . S
C308 C312 1.368 . S
C309 C290 1.429 . S
C309 C303 1.429 . S
C309 C310 1.523 . S
C310 C291 1.368 1_455 S
C310 C304 1.368 . S
C310 C309 1.523 . S
C311 C295 1.429 . S
C311 C307 1.429 . S
C311 C312 1.523 . S
C312 C296 1.368 . S
C312 C308 1.368 . S
C312 C311 1.523 . S
H313 C288 0.950 . S
H314 C290 0.950 . S
H315 C291 0.949 . S
H316 C293 0.950 . S
H317 C295 0.950 . S
C318 C319 1.349 . S
C318 C320 1.327 . S
C318 H343 0.950 . S
C319 C318 1.349 . S
C319 C335 1.349 . S
C320 C318 1.327 . S
C320 C339 1.429 . S
C320 H344 0.950 . S
C321 C338 1.574 . S
C321 C340 1.368 . S
C321 H345 0.949 . S
H322 C326 0.949 . S
C323 C324 1.349 . S
C323 C325 1.327 . S
C323 H346 0.950 . S
C324 C323 1.349 . S
C324 C336 1.349 . S
C325 C323 1.327 . S
C325 C341 1.429 . S
C325 H347 0.950 . S
C326 H322 0.949 . S
C326 C334 1.574 . S
C326 C342 1.368 . S
H327 C335 0.950 . S
H328 C333 0.950 . S
H329 C334 0.949 . S
H330 C336 0.950 . S
H331 C337 0.950 . S
H332 C338 0.949 . S
C333 H328 0.950 . S
C333 C335 1.327 . S
C333 C339 1.429 . S
C334 C326 1.574 . S
C334 H329 0.949 . S
C334 C340 1.368 . S
C335 C319 1.349 . S
C335 H327 0.950 . S
C335 C333 1.327 . S
C336 C324 1.349 . S
C336 H330 0.950 . S
C336 C337 1.327 . S
C337 H331 0.950 . S
C337 C336 1.327 . S
C337 C341 1.429 . S
C338 C321 1.574 . S
C338 H332 0.949 . S
C338 C342 1.368 . S
C339 C320 1.429 . S
C339 C333 1.429 . S
C339 C340 1.523 . S
C340 C321 1.368 . S
C340 C334 1.368 . S
C340 C339 1.523 . S
C341 C325 1.429 . S
C341 C337 1.429 . S
C341 C342 1.523 . S
C342 C326 1.368 . S
C342 C338 1.368 . S
C342 C341 1.523 . S
H343 C318 0.950 . S
H344 C320 0.950 . S
H345 C321 0.949 . S
H346 C323 0.950 . S
H347 C325 0.950 . S
C348 C349 1.349 . S
C348 C350 1.327 . S
C348 H373 0.950 . S
C349 C348 1.349 . S
C349 C365 1.349 . S
C350 C348 1.327 . S
C350 C369 1.429 . S
C350 H374 0.950 . S
C351 C368 1.574 1_565 S
C351 C370 1.368 . S
C351 H375 0.949 . S
H352 C356 0.949 . S
C353 C354 1.349 . S
C353 C355 1.327 . S
C353 H376 0.950 . S
C354 C353 1.349 . S
C354 C366 1.349 . S
C355 C353 1.327 . S
C355 C371 1.429 . S
C355 H377 0.950 . S
C356 H352 0.949 . S
C356 C364 1.574 . S
C356 C372 1.368 . S
H357 C365 0.950 . S
H358 C363 0.950 . S
H359 C364 0.949 . S
H360 C366 0.950 . S
H361 C367 0.950 . S
H362 C368 0.949 . S
C363 H358 0.950 . S
C363 C365 1.327 . S
C363 C369 1.429 . S
C364 C356 1.574 . S
C364 H359 0.949 . S
C364 C370 1.368 1_545 S
C365 C349 1.349 . S
C365 H357 0.950 . S
C365 C363 1.327 . S
C366 C354 1.349 . S
C366 H360 0.950 . S
C366 C367 1.327 . S
C367 H361 0.950 . S
C367 C366 1.327 . S
C367 C371 1.429 . S
C368 C351 1.574 1_545 S
C368 H362 0.949 . S
C368 C372 1.368 . S
C369 C350 1.429 . S
C369 C363 1.429 . S
C369 C370 1.523 . S
C370 C351 1.368 . S
C370 C364 1.368 1_565 S
C370 C369 1.523 . S
C371 C355 1.429 . S
C371 C367 1.429 . S
C371 C372 1.523 . S
C372 C356 1.368 . S
C372 C368 1.368 . S
C372 C371 1.523 . S
H373 C348 0.950 . S
H374 C350 0.950 . S
H375 C351 0.949 . S
H376 C353 0.950 . S
H377 C355 0.950 . S
C378 C379 1.349 . S
C378 C380 1.327 . S
C378 H403 0.950 . S
C379 C378 1.349 . S
C379 C395 1.349 . S
C380 C378 1.327 . S
C380 C399 1.429 . S
C380 H404 0.950 . S
C381 C398 1.574 . S
C381 C400 1.368 . S
C381 H405 0.949 . S
H382 C386 0.962 . S
C383 C384 1.349 1_655 S
C383 C385 1.327 . S
C383 H406 0.950 . S
C384 C383 1.349 1_455 S
C384 C396 1.349 . S
C385 C383 1.327 . S
C385 C401 1.429 . S
C385 H407 0.950 . S
C386 H382 0.962 . S
C386 C394 1.574 . S
C386 C402 1.368 . S
H387 C395 0.950 . S
H388 C393 0.950 . S
H389 C394 0.949 . S
H390 C396 0.950 . S
H391 C397 0.950 . S
H392 C398 0.949 . S
C393 H388 0.950 . S
C393 C395 1.327 . S
C393 C399 1.429 . S
C394 C386 1.574 . S
C394 H389 0.949 . S
C394 C400 1.368 . S
C395 C379 1.349 . S
C395 H387 0.950 . S
C395 C393 1.327 . S
C396 C384 1.349 . S
C396 H390 0.950 . S
C396 C397 1.327 . S
C397 H391 0.950 . S
C397 C396 1.327 . S
C397 C401 1.429 1_455 S
C398 C381 1.574 . S
C398 H392 0.949 . S
C398 C402 1.368 . S
C399 C380 1.429 . S
C399 C393 1.429 . S
C399 C400 1.523 . S
C400 C381 1.368 . S
C400 C394 1.368 . S
C400 C399 1.523 . S
C401 C385 1.429 . S
C401 C397 1.429 1_655 S
C401 C402 1.523 . S
C402 C386 1.368 . S
C402 C398 1.368 . S
C402 C401 1.523 . S
H403 C378 0.950 . S
H404 C380 0.950 . S
H405 C381 0.949 . S
H406 C383 0.950 . S
H407 C385 0.950 . S
C408 C409 1.349 . S
C408 C410 1.327 . S
C408 H433 0.950 . S
C409 C408 1.349 . S
C409 C425 1.349 . S
C410 C408 1.327 . S
C410 C429 1.429 . S
C410 H434 0.950 . S
C411 C428 1.574 . S
C411 C430 1.368 . S
C411 H435 0.949 . S
H412 C416 0.949 . S
C413 C414 1.349 . S
C413 C415 1.327 . S
C413 H436 0.950 . S
C414 C413 1.349 . S
C414 C426 1.349 . S
C415 C413 1.327 . S
C415 C431 1.429 . S
C415 H437 0.950 . S
C416 H412 0.949 . S
C416 C424 1.574 . S
C416 C432 1.368 . S
H417 C425 0.950 . S
H418 C423 0.950 . S
H419 C424 0.949 . S
H420 C426 0.950 . S
H421 C427 0.950 . S
H422 C428 0.949 . S
C423 H418 0.950 . S
C423 C425 1.327 . S
C423 C429 1.429 . S
C424 C416 1.574 . S
C424 H419 0.949 . S
C424 C430 1.368 . S
C425 C409 1.349 . S
C425 H417 0.950 . S
C425 C423 1.327 . S
C426 C414 1.349 . S
C426 H420 0.950 . S
C426 C427 1.327 . S
C427 H421 0.950 . S
C427 C426 1.327 . S
C427 C431 1.429 . S
C428 C411 1.574 . S
C428 H422 0.949 . S
C428 C432 1.368 . S
C429 C410 1.429 . S
C429 C423 1.429 . S
C429 C430 1.523 . S
C430 C411 1.368 . S
C430 C424 1.368 . S
C430 C429 1.523 . S
C431 C415 1.429 . S
C431 C427 1.429 . S
C431 C432 1.523 . S
C432 C416 1.368 . S
C432 C428 1.368 . S
C432 C431 1.523 . S
H433 C408 0.950 . S
H434 C410 0.950 . S
H435 C411 0.949 . S
H436 C413 0.950 . S
H437 C415 0.950 . S
C438 C439 1.349 . S
C438 C440 1.327 . S
C438 H463 0.950 . S
C439 C438 1.349 . S
C439 C455 1.349 . S
C440 C438 1.327 . S
C440 C459 1.429 . S
C440 H464 0.950 . S
C441 C458 1.574 . S
C441 C460 1.368 . S
C441 H465 0.949 . S
H442 C446 0.949 . S
C443 C444 1.349 . S
C443 C445 1.327 . S
C443 H466 0.950 . S
C444 C443 1.349 . S
C444 C456 1.334 1_565 S
C445 C443 1.327 . S
C445 C461 1.429 1_565 S
C445 H467 0.950 . S
C446 H442 0.949 . S
C446 C454 1.574 . S
C446 C462 1.368 . S
H447 C455 0.950 . S
H448 C453 0.950 . S
H449 C454 0.949 . S
H450 C456 0.952 . S
H451 C457 0.950 . S
H452 C458 0.949 . S
C453 H448 0.950 . S
C453 C455 1.327 . S
C453 C459 1.429 . S
C454 C446 1.574 . S
C454 H449 0.949 . S
C454 C460 1.368 . S
C455 C439 1.349 . S
C455 H447 0.950 . S
C455 C453 1.327 . S
C456 C444 1.334 1_545 S
C456 H450 0.952 . S
C456 C457 1.340 . S
C457 H451 0.950 . S
C457 C456 1.340 . S
C457 C461 1.429 . S
C458 C441 1.574 . S
C458 H452 0.949 . S
C458 C462 1.368 . S
C459 C440 1.429 . S
C459 C453 1.429 . S
C459 C460 1.523 . S
C460 C441 1.368 . S
C460 C454 1.368 . S
C460 C459 1.523 . S
C461 C445 1.429 1_545 S
C461 C457 1.429 . S
C461 C462 1.523 . S
C462 C446 1.368 . S
C462 C458 1.368 . S
C462 C461 1.523 . S
H463 C438 0.950 . S
H464 C440 0.950 . S
H465 C441 0.949 . S
H466 C443 0.950 . S
H467 C445 0.950 . S
C468 C469 1.349 . S
C468 C470 1.327 . S
C468 H493 0.950 . S
C469 C468 1.349 . S
C469 C485 1.349 . S
C470 C468 1.327 . S
C470 C489 1.429 . S
C470 H494 0.950 . S
C471 C488 1.574 . S
C471 C490 1.368 . S
C471 H495 0.949 . S
H472 C476 0.949 . S
C473 C474 1.349 . S
C473 C475 1.327 . S
C473 H496 0.950 . S
C474 C473 1.349 . S
C474 C486 1.349 1_565 S
C475 C473 1.327 . S
C475 C491 1.429 1_565 S
C475 H497 0.950 . S
C476 H472 0.949 . S
C476 C484 1.574 . S
C476 C492 1.368 . S
H477 C485 0.950 . S
H478 C483 0.950 . S
H479 C484 0.949 . S
H480 C486 0.950 . S
H481 C487 0.950 . S
H482 C488 0.917 1_565 S
C483 H478 0.950 . S
C483 C485 1.327 . S
C483 C489 1.429 . S
C484 C476 1.574 . S
C484 H479 0.949 . S
C484 C490 1.368 . S
C485 C469 1.349 . S
C485 H477 0.950 . S
C485 C483 1.327 . S
C486 C474 1.349 1_545 S
C486 H480 0.950 . S
C486 C487 1.327 . S
C487 H481 0.950 . S
C487 C486 1.327 . S
C487 C491 1.429 . S
C488 C471 1.574 . S
C488 H482 0.917 1_545 S
C488 C492 1.368 . S
C489 C470 1.429 . S
C489 C483 1.429 . S
C489 C490 1.523 . S
C490 C471 1.368 . S
C490 C484 1.368 . S
C490 C489 1.523 . S
C491 C475 1.429 1_545 S
C491 C487 1.429 . S
C491 C492 1.523 . S
C492 C476 1.368 . S
C492 C488 1.368 . S
C492 C491 1.523 . S
H493 C468 0.950 . S
H494 C470 0.950 . S
H495 C471 0.949 . S
H496 C473 0.950 . S
H497 C475 0.950 . S
C498 C499 1.349 . S
C498 C500 1.327 . S
C498 H523 0.950 . S
C499 C498 1.349 . S
C499 C515 1.349 1_455 S
C500 C498 1.327 . S
C500 C519 1.429 1_455 S
C500 H524 0.950 . S
C501 C518 1.574 . S
C501 C520 1.368 . S
C501 H525 0.949 . S
H502 C506 0.949 . S
C503 C504 1.349 . S
C503 C505 1.327 . S
C503 H526 0.950 . S
C504 C503 1.349 . S
C504 C516 1.349 . S
C505 C503 1.327 . S
C505 C521 1.429 . S
C505 H527 0.950 . S
C506 H502 0.949 . S
C506 C514 1.574 . S
C506 C522 1.368 . S
H507 C515 0.950 . S
H508 C513 0.950 . S
H509 C514 0.949 . S
H510 C516 0.950 . S
H511 C517 0.950 . S
H512 C518 0.949 . S
C513 H508 0.950 . S
C513 C515 1.327 . S
C513 C519 1.429 . S
C514 C506 1.574 . S
C514 H509 0.949 . S
C514 C520 1.368 . S
C515 C499 1.349 1_655 S
C515 H507 0.950 . S
C515 C513 1.327 . S
C516 C504 1.349 . S
C516 H510 0.950 . S
C516 C517 1.327 . S
C517 H511 0.950 . S
C517 C516 1.327 . S
C517 C521 1.429 . S
C518 C501 1.574 . S
C518 H512 0.949 . S
C518 C522 1.368 . S
C519 C500 1.429 1_655 S
C519 C513 1.429 . S
C519 C520 1.523 . S
C520 C501 1.368 . S
C520 C514 1.368 . S
C520 C519 1.523 . S
C521 C505 1.429 . S
C521 C517 1.429 . S
C521 C522 1.523 . S
C522 C506 1.368 . S
C522 C518 1.368 . S
C522 C521 1.523 . S
H523 C498 0.950 . S
H524 C500 0.950 . S
H525 C501 0.949 . S
H526 C503 0.950 . S
H527 C505 0.950 . S
C528 C529 1.349 . S
C528 C530 1.327 . S
C528 H553 0.950 . S
C529 C528 1.349 . S
C529 C545 1.349 . S
C530 C528 1.327 . S
C530 C549 1.429 . S
C530 H554 0.950 . S
C531 C548 1.574 . S
C531 C550 1.368 . S
C531 H555 0.949 . S
H532 C536 0.949 . S
C533 C534 1.349 . S
C533 C535 1.327 . S
C533 H556 0.950 . S
C534 C533 1.349 . S
C534 C546 1.349 . S
C535 C533 1.327 . S
C535 C551 1.429 . S
C535 H557 0.950 . S
C536 H532 0.949 . S
C536 C544 1.574 . S
C536 C552 1.368 . S
H537 C545 0.950 . S
H538 C543 0.950 . S
H539 C544 0.949 . S
H540 C546 0.950 . S
H541 C547 0.950 . S
H542 C548 0.949 . S
C543 H538 0.950 . S
C543 C545 1.327 . S
C543 C549 1.429 . S
C544 C536 1.574 . S
C544 H539 0.949 . S
C544 C550 1.368 . S
C545 C529 1.349 . S
C545 H537 0.950 . S
C545 C543 1.327 . S
C546 C534 1.349 . S
C546 H540 0.950 . S
C546 C547 1.327 . S
C547 H541 0.950 . S
C547 C546 1.327 . S
C547 C551 1.429 . S
C548 C531 1.574 . S
C548 H542 0.949 . S
C548 C552 1.368 . S
C549 C530 1.429 . S
C549 C543 1.429 . S
C549 C550 1.523 . S
C550 C531 1.368 . S
C550 C544 1.368 . S
C550 C549 1.523 . S
C551 C535 1.429 . S
C551 C547 1.429 . S
C551 C552 1.523 . S
C552 C536 1.368 . S
C552 C548 1.368 . S
C552 C551 1.523 . S
H553 C528 0.950 . S
H554 C530 0.950 . S
H555 C531 0.949 . S
H556 C533 0.950 . S
H557 C535 0.950 . S
C558 C559 1.349 . S
C558 C560 1.327 . S
C558 H583 0.950 . S
C559 C558 1.349 . S
C559 C575 1.349 . S
C560 C558 1.327 . S
C560 C579 1.429 . S
C560 H584 0.950 . S
C561 C578 1.574 . S
C561 C580 1.368 . S
C561 H585 0.949 . S
H562 C566 0.949 . S
C563 C564 1.349 . S
C563 C565 1.327 . S
C563 H586 0.950 . S
C564 C563 1.349 . S
C564 C576 1.349 . S
C565 C563 1.327 . S
C565 C581 1.429 . S
C565 H587 0.950 . S
C566 H562 0.949 . S
C566 C574 1.574 . S
C566 C582 1.368 . S
H567 C575 0.950 . S
H568 C573 0.950 . S
H569 C574 0.949 . S
H570 C576 0.950 . S
H571 C577 0.950 . S
H572 C578 0.949 . S
C573 H568 0.950 . S
C573 C575 1.327 . S
C573 C579 1.429 . S
C574 C566 1.574 . S
C574 H569 0.949 . S
C574 C580 1.368 . S
C575 C559 1.349 . S
C575 H567 0.950 . S
C575 C573 1.327 . S
C576 C564 1.349 . S
C576 H570 0.950 . S
C576 C577 1.327 . S
C577 H571 0.950 . S
C577 C576 1.327 . S
C577 C581 1.429 . S
C578 C561 1.574 . S
C578 H572 0.949 . S
C578 C582 1.368 . S
C579 C560 1.429 . S
C579 C573 1.429 . S
C579 C580 1.523 . S
C580 C561 1.368 . S
C580 C574 1.368 . S
C580 C579 1.523 . S
C581 C565 1.429 . S
C581 C577 1.429 . S
C581 C582 1.523 . S
C582 C566 1.368 . S
C582 C578 1.368 . S
C582 C581 1.523 . S
H583 C558 0.950 . S
H584 C560 0.950 . S
H585 C561 0.949 . S
H586 C563 0.950 . S
H587 C565 0.950 . S
C588 C589 1.349 . S
C588 C590 1.327 . S
C588 H613 0.950 . S
C589 C588 1.349 . S
C589 C605 1.349 . S
C590 C588 1.327 . S
C590 C609 1.429 . S
C590 H614 0.950 . S
C591 C608 1.574 . S
C591 C610 1.368 . S
C591 H615 0.949 . S
H592 C596 0.949 . S
C593 C594 1.349 . S
C593 C595 1.327 . S
C593 H616 0.950 . S
C594 C593 1.349 . S
C594 C606 1.349 . S
C595 C593 1.327 . S
C595 C611 1.429 . S
C595 H617 0.950 . S
C596 H592 0.949 . S
C596 C604 1.574 . S
C596 C612 1.368 . S
H597 C605 0.950 . S
H598 C603 0.950 . S
H599 C604 0.949 . S
H600 C606 0.950 . S
H601 C607 0.950 . S
H602 C608 0.949 . S
C603 H598 0.950 . S
C603 C605 1.327 . S
C603 C609 1.429 . S
C604 C596 1.574 . S
C604 H599 0.949 . S
C604 C610 1.368 . S
C605 C589 1.349 . S
C605 H597 0.950 . S
C605 C603 1.327 . S
C606 C594 1.349 . S
C606 H600 0.950 . S
C606 C607 1.327 . S
C607 H601 0.950 . S
C607 C606 1.327 . S
C607 C611 1.429 . S
C608 C591 1.574 . S
C608 H602 0.949 . S
C608 C612 1.368 . S
C609 C590 1.429 . S
C609 C603 1.429 . S
C609 C610 1.523 . S
C610 C591 1.368 . S
C610 C604 1.368 . S
C610 C609 1.523 . S
C611 C595 1.429 . S
C611 C607 1.429 . S
C611 C612 1.523 . S
C612 C596 1.368 . S
C612 C608 1.368 . S
C612 C611 1.523 . S
H613 C588 0.950 . S
H614 C590 0.950 . S
H615 C591 0.949 . S
H616 C593 0.950 . S
H617 C595 0.950 . S
C618 C619 1.349 . S
C618 C620 1.327 . S
C618 H643 0.950 . S
C619 C618 1.349 . S
C619 C635 1.349 . S
C620 C618 1.327 . S
C620 C639 1.429 . S
C620 H644 0.950 . S
C621 C638 1.574 . S
C621 C640 1.368 . S
C621 H645 0.949 . S
H622 C626 0.949 . S
C623 C624 1.349 . S
C623 C625 1.327 . S
C623 H646 0.950 . S
C624 C623 1.349 . S
C624 C636 1.349 . S
C625 C623 1.327 . S
C625 C641 1.429 . S
C625 H647 0.950 . S
C626 H622 0.949 . S
C626 C634 1.574 . S
C626 C642 1.368 . S
H627 C635 0.950 . S
H628 C633 0.950 . S
H629 C634 0.949 . S
H630 C636 0.950 . S
H631 C637 0.950 . S
H632 C638 0.949 . S
C633 H628 0.950 . S
C633 C635 1.327 . S
C633 C639 1.429 . S
C634 C626 1.574 . S
C634 H629 0.949 . S
C634 C640 1.368 . S
C635 C619 1.349 . S
C635 H627 0.950 . S
C635 C633 1.327 . S
C636 C624 1.349 . S
C636 H630 0.950 . S
C636 C637 1.327 . S
C637 H631 0.950 . S
C637 C636 1.327 . S
C637 C641 1.429 . S
C638 C621 1.574 . S
C638 H632 0.949 . S
C638 C642 1.368 . S
C639 C620 1.429 . S
C639 C633 1.429 . S
C639 C640 1.523 . S
C640 C621 1.368 . S
C640 C634 1.368 . S
C640 C639 1.523 . S
C641 C625 1.429 . S
C641 C637 1.429 . S
C641 C642 1.523 . S
C642 C626 1.368 . S
C642 C638 1.368 . S
C642 C641 1.523 . S
H643 C618 0.950 . S
H644 C620 0.950 . S
H645 C621 0.949 . S
H646 C623 0.950 . S
H647 C625 0.950 . S
C648 C649 1.349 . S
C648 C650 1.327 . S
C648 H673 0.950 . S
C649 C648 1.349 . S
C649 C665 1.349 . S
C650 C648 1.327 . S
C650 C669 1.429 . S
C650 H674 0.950 . S
C651 C668 1.574 . S
C651 C670 1.368 . S
C651 H675 0.949 . S
H652 C656 0.949 . S
C653 C654 1.349 . S
C653 C655 1.327 . S
C653 H676 0.950 . S
C654 C653 1.349 . S
C654 C666 1.349 . S
C655 C653 1.327 . S
C655 C671 1.429 . S
C655 H677 0.950 . S
C656 H652 0.949 . S
C656 C664 1.574 . S
C656 C672 1.368 . S
H657 C665 0.950 . S
H658 C663 0.950 . S
H659 C664 0.949 . S
H660 C666 0.950 . S
H661 C667 0.950 . S
H662 C668 0.949 . S
C663 H658 0.950 . S
C663 C665 1.327 . S
C663 C669 1.429 . S
C664 C656 1.574 . S
C664 H659 0.949 . S
C664 C670 1.368 . S
C665 C649 1.349 . S
C665 H657 0.950 . S
C665 C663 1.327 . S
C666 C654 1.349 . S
C666 H660 0.950 . S
C666 C667 1.327 . S
C667 H661 0.950 . S
C667 C666 1.327 . S
C667 C671 1.429 . S
C668 C651 1.574 . S
C668 H662 0.949 . S
C668 C672 1.368 . S
C669 C650 1.429 . S
C669 C663 1.429 . S
C669 C670 1.523 . S
C670 C651 1.368 . S
C670 C664 1.368 . S
C670 C669 1.523 . S
C671 C655 1.429 . S
C671 C667 1.429 . S
C671 C672 1.523 . S
C672 C656 1.368 . S
C672 C668 1.368 . S
C672 C671 1.523 . S
H673 C648 0.950 . S
H674 C650 0.950 . S
H675 C651 0.949 . S
H676 C653 0.950 . S
H677 C655 0.950 . S
C678 C679 1.349 . S
C678 C680 1.327 . S
C678 H703 0.950 . S
C679 C678 1.349 . S
C679 C695 1.349 . S
C680 C678 1.327 . S
C680 C699 1.429 . S
C680 H704 0.950 . S
C681 C698 1.574 . S
C681 C700 1.368 . S
C681 H705 0.949 . S
H682 C686 0.949 . S
C683 C684 1.349 . S
C683 C685 1.327 . S
C683 H706 0.950 . S
C684 C683 1.349 . S
C684 C696 1.349 . S
C685 C683 1.327 . S
C685 C701 1.429 . S
C685 H707 0.950 . S
C686 H682 0.949 . S
C686 C694 1.574 . S
C686 C702 1.368 . S
H687 C695 0.950 . S
H688 C693 0.950 . S
H689 C694 0.949 . S
H690 C696 0.950 . S
H691 C697 0.950 . S
H692 C698 0.949 . S
C693 H688 0.950 . S
C693 C695 1.327 . S
C693 C699 1.429 . S
C694 C686 1.574 . S
C694 H689 0.949 . S
C694 C700 1.368 . S
C695 C679 1.349 . S
C695 H687 0.950 . S
C695 C693 1.327 . S
C696 C684 1.349 . S
C696 H690 0.950 . S
C696 C697 1.327 . S
C697 H691 0.950 . S
C697 C696 1.327 . S
C697 C701 1.429 . S
C698 C681 1.574 . S
C698 H692 0.949 . S
C698 C702 1.368 . S
C699 C680 1.429 . S
C699 C693 1.429 . S
C699 C700 1.523 . S
C700 C681 1.368 . S
C700 C694 1.368 . S
C700 C699 1.523 . S
C701 C685 1.429 . S
C701 C697 1.429 . S
C701 C702 1.523 . S
C702 C686 1.368 . S
C702 C698 1.368 . S
C702 C701 1.523 . S
H703 C678 0.950 . S
H704 C680 0.950 . S
H705 C681 0.949 . S
H706 C683 0.950 . S
H707 C685 0.950 . S
C708 C709 1.349 . S
C708 C710 1.327 . S
C708 H733 0.950 . S
C709 C708 1.349 . S
C709 C725 1.349 . S
C710 C708 1.327 . S
C710 C729 1.429 . S
C710 H734 0.950 . S
C711 C728 1.574 . S
C711 C730 1.368 . S
C711 H735 0.949 . S
H712 C716 0.949 . S
C713 C714 1.349 . S
C713 C715 1.327 . S
C713 H736 0.950 . S
C714 C713 1.349 . S
C714 C726 1.349 . S
C715 C713 1.327 . S
C715 C731 1.429 . S
C715 H737 0.950 . S
C716 H712 0.949 . S
C716 C724 1.574 . S
C716 C732 1.368 . S
H717 C725 0.950 . S
H718 C723 0.950 . S
H719 C724 0.949 . S
H720 C726 0.950 . S
H721 C727 0.950 . S
H722 C728 0.949 . S
C723 H718 0.950 . S
C723 C725 1.327 . S
C723 C729 1.429 . S
C724 C716 1.574 . S
C724 H719 0.949 . S
C724 C730 1.368 . S
C725 C709 1.349 . S
C725 H717 0.950 . S
C725 C723 1.327 . S
C726 C714 1.349 . S
C726 H720 0.950 . S
C726 C727 1.327 . S
C727 H721 0.950 . S
C727 C726 1.327 . S
C727 C731 1.429 . S
C728 C711 1.574 . S
C728 H722 0.949 . S
C728 C732 1.368 . S
C729 C710 1.429 . S
C729 C723 1.429 . S
C729 C730 1.523 . S
C730 C711 1.368 . S
C730 C724 1.368 . S
C730 C729 1.523 . S
C731 C715 1.429 . S
C731 C727 1.429 . S
C731 C732 1.523 . S
C732 C716 1.368 . S
C732 C728 1.368 . S
C732 C731 1.523 . S
H733 C708 0.950 . S
H734 C710 0.950 . S
H735 C711 0.949 . S
H736 C713 0.950 . S
H737 C715 0.950 . S
C738 C739 1.349 . S
C738 C740 1.327 . S
C738 H763 0.950 . S
C739 C738 1.349 . S
C739 C755 1.349 1_556 S
C740 C738 1.327 . S
C740 C759 1.429 . S
C740 H764 0.950 . S
C741 C758 1.574 . S
C741 C760 1.368 1_554 S
C741 H765 0.949 . S
H742 C746 0.949 . S
C743 C744 1.349 1_554 S
C743 C745 1.327 . S
C743 H766 0.950 . S
C744 C743 1.349 1_556 S
C744 C756 1.349 . S
C745 C743 1.327 . S
C745 C761 1.429 1_554 S
C745 H767 0.950 . S
C746 H742 0.949 . S
C746 C754 1.574 . S
C746 C762 1.368 . S
H747 C755 0.950 . S
H748 C753 0.950 . S
H749 C754 0.949 . S
H750 C756 0.950 . S
H751 C757 0.950 . S
H752 C758 0.949 . S
C753 H748 0.950 . S
C753 C755 1.327 . S
C753 C759 1.429 1_554 S
C754 C746 1.574 . S
C754 H749 0.949 . S
C754 C760 1.368 . S
C755 C739 1.349 1_554 S
C755 H747 0.950 . S
C755 C753 1.327 . S
C756 C744 1.349 . S
C756 H750 0.950 . S
C756 C757 1.327 . S
C757 H751 0.950 . S
C757 C756 1.327 . S
C757 C761 1.429 . S
C758 C741 1.574 . S
C758 H752 0.949 . S
C758 C762 1.368 1_554 S
C759 C740 1.429 . S
C759 C753 1.429 1_556 S
C759 C760 1.523 . S
C760 C741 1.368 1_556 S
C760 C754 1.368 . S
C760 C759 1.523 . S
C761 C745 1.429 1_556 S
C761 C757 1.429 . S
C761 C762 1.523 . S
C762 C746 1.368 . S
C762 C758 1.368 1_556 S
C762 C761 1.523 . S
H763 C738 0.950 . S
H764 C740 0.950 . S
H765 C741 0.949 . S
H766 C743 0.950 . S
H767 C745 0.950 . S
C768 C769 1.349 . S
C768 C770 1.327 . S
C768 H793 0.950 . S
C769 C768 1.349 . S
C769 C785 1.349 1_556 S
C770 C768 1.327 . S
C770 C789 1.429 . S
C770 H794 0.950 . S
C771 C788 1.574 . S
C771 C790 1.368 1_554 S
C771 H795 0.949 . S
H772 C776 0.949 . S
C773 C774 1.349 1_554 S
C773 C775 1.327 . S
C773 H796 0.950 . S
C774 C773 1.349 1_556 S
C774 C786 1.349 . S
C775 C773 1.327 . S
C775 C791 1.429 1_554 S
C775 H797 0.950 . S
C776 H772 0.949 . S
C776 C784 1.574 . S
C776 C792 1.368 . S
H777 C785 0.950 . S
H778 C783 0.950 . S
H779 C784 0.949 . S
H780 C786 0.950 . S
H781 C787 0.950 . S
H782 C788 0.949 . S
C783 H778 0.950 . S
C783 C785 1.327 . S
C783 C789 1.429 1_554 S
C784 C776 1.574 . S
C784 H779 0.949 . S
C784 C790 1.368 . S
C785 C769 1.349 1_554 S
C785 H777 0.950 . S
C785 C783 1.327 . S
C786 C774 1.349 . S
C786 H780 0.950 . S
C786 C787 1.327 . S
C787 H781 0.950 . S
C787 C786 1.327 . S
C787 C791 1.429 . S
C788 C771 1.574 . S
C788 H782 0.949 . S
C788 C792 1.368 1_554 S
C789 C770 1.429 . S
C789 C783 1.429 1_556 S
C789 C790 1.523 . S
C790 C771 1.368 1_556 S
C790 C784 1.368 . S
C790 C789 1.523 . S
C791 C775 1.429 1_556 S
C791 C787 1.429 . S
C791 C792 1.523 . S
C792 C776 1.368 . S
C792 C788 1.368 1_556 S
C792 C791 1.523 . S
H793 C768 0.950 . S
H794 C770 0.950 . S
H795 C771 0.949 . S
H796 C773 0.950 . S
H797 C775 0.950 . S
C798 C799 1.349 1_554 S
C798 C800 1.327 . S
C798 H823 0.950 . S
C799 C798 1.349 1_556 S
C799 C815 1.349 . S
C800 C798 1.327 . S
C800 C819 1.429 1_554 S
C800 H824 0.950 . S
C801 C818 1.574 . S
C801 C820 1.368 . S
C801 H825 0.949 . S
H802 C806 0.949 . S
C803 C804 1.349 . S
C803 C805 1.327 . S
C803 H826 0.950 . S
C804 C803 1.349 . S
C804 C816 1.349 1_556 S
C805 C803 1.327 . S
C805 C821 1.429 . S
C805 H827 0.950 . S
C806 H802 0.949 . S
C806 C814 1.574 . S
C806 C822 1.368 1_554 S
H807 C815 0.950 . S
H808 C813 0.950 . S
H809 C814 0.949 . S
H810 C816 0.950 . S
H811 C817 0.950 . S
H812 C818 0.949 . S
C813 H808 0.950 . S
C813 C815 1.327 . S
C813 C819 1.429 . S
C814 C806 1.574 . S
C814 H809 0.949 . S
C814 C820 1.368 1_554 S
C815 C799 1.349 . S
C815 H807 0.950 . S
C815 C813 1.327 . S
C816 C804 1.349 1_554 S
C816 H810 0.950 . S
C816 C817 1.327 . S
C817 H811 0.950 . S
C817 C816 1.327 . S
C817 C821 1.429 1_554 S
C818 C801 1.574 . S
C818 H812 0.949 . S
C818 C822 1.368 . S
C819 C800 1.429 1_556 S
C819 C813 1.429 . S
C819 C820 1.523 . S
C820 C801 1.368 . S
C820 C814 1.368 1_556 S
C820 C819 1.523 . S
C821 C805 1.429 . S
C821 C817 1.429 1_556 S
C821 C822 1.523 . S
C822 C806 1.368 1_556 S
C822 C818 1.368 . S
C822 C821 1.523 . S
H823 C798 0.950 . S
H824 C800 0.950 . S
H825 C801 0.949 . S
H826 C803 0.950 . S
H827 C805 0.950 . S
C828 C829 1.349 . S
C828 C830 1.327 . S
C828 H853 0.950 . S
C829 C828 1.349 . S
C829 C845 1.349 . S
C830 C828 1.327 . S
C830 C849 1.429 . S
C830 H854 0.950 . S
C831 C848 1.574 . S
C831 C850 1.368 . S
C831 H855 0.949 . S
H832 C836 0.949 . S
C833 C834 1.349 . S
C833 C835 1.327 . S
C833 H856 0.950 . S
C834 C833 1.349 . S
C834 C846 1.349 . S
C835 C833 1.327 . S
C835 C851 1.429 . S
C835 H857 0.950 . S
C836 H832 0.949 . S
C836 C844 1.574 . S
C836 C852 1.368 . S
H837 C845 0.950 . S
H838 C843 0.950 . S
H839 C844 0.949 . S
H840 C846 0.950 . S
H841 C847 0.950 . S
H842 C848 0.949 . S
C843 H838 0.950 . S
C843 C845 1.327 . S
C843 C849 1.429 . S
C844 C836 1.574 . S
C844 H839 0.949 . S
C844 C850 1.368 . S
C845 C829 1.349 . S
C845 H837 0.950 . S
C845 C843 1.327 . S
C846 C834 1.349 . S
C846 H840 0.950 . S
C846 C847 1.327 . S
C847 H841 0.950 . S
C847 C846 1.327 . S
C847 C851 1.429 . S
C848 C831 1.574 . S
C848 H842 0.949 . S
C848 C852 1.368 . S
C849 C830 1.429 . S
C849 C843 1.429 . S
C849 C850 1.523 . S
C850 C831 1.368 . S
C850 C844 1.368 . S
C850 C849 1.523 . S
C851 C835 1.429 . S
C851 C847 1.429 . S
C851 C852 1.523 . S
C852 C836 1.368 . S
C852 C848 1.368 . S
C852 C851 1.523 . S
H853 C828 0.950 . S
H854 C830 0.950 . S
H855 C831 0.949 . S
H856 C833 0.950 . S
H857 C835 0.950 . S
C858 C859 1.349 . S
C858 C860 1.327 . S
C858 H883 0.950 . S
C859 C858 1.349 . S
C859 C875 1.349 . S
C860 C858 1.327 . S
C860 C879 1.429 . S
C860 H884 0.950 . S
C861 C878 1.574 . S
C861 C880 1.368 . S
C861 H885 0.949 . S
H862 C866 0.949 . S
C863 C864 1.349 . S
C863 C865 1.327 . S
C863 H886 0.950 . S
C864 C863 1.349 . S
C864 C876 1.349 . S
C865 C863 1.327 . S
C865 C881 1.429 . S
C865 H887 0.950 . S
C866 H862 0.949 . S
C866 C874 1.574 . S
C866 C882 1.368 . S
H867 C875 0.950 . S
H868 C873 0.950 . S
H869 C874 0.949 . S
H870 C876 0.950 . S
H871 C877 0.950 . S
H872 C878 0.949 . S
C873 H868 0.950 . S
C873 C875 1.327 . S
C873 C879 1.429 . S
C874 C866 1.574 . S
C874 H869 0.949 . S
C874 C880 1.368 . S
C875 C859 1.349 . S
C875 H867 0.950 . S
C875 C873 1.327 . S
C876 C864 1.349 . S
C876 H870 0.950 . S
C876 C877 1.327 . S
C877 H871 0.950 . S
C877 C876 1.327 . S
C877 C881 1.429 . S
C878 C861 1.574 . S
C878 H872 0.949 . S
C878 C882 1.368 . S
C879 C860 1.429 . S
C879 C873 1.429 . S
C879 C880 1.523 . S
C880 C861 1.368 . S
C880 C874 1.368 . S
C880 C879 1.523 . S
C881 C865 1.429 . S
C881 C877 1.429 . S
C881 C882 1.523 . S
C882 C866 1.368 . S
C882 C878 1.368 . S
C882 C881 1.523 . S
H883 C858 0.950 . S
H884 C860 0.950 . S
H885 C861 0.949 . S
H886 C863 0.950 . S
H887 C865 0.950 . S
C888 C889 1.349 . S
C888 C890 1.327 . S
C888 H913 0.950 . S
C889 C888 1.349 . S
C889 C905 1.349 . S
C890 C888 1.327 . S
C890 C909 1.429 . S
C890 H914 0.950 . S
C891 C908 1.574 . S
C891 C910 1.368 . S
C891 H915 0.949 . S
H892 C896 0.949 . S
C893 C894 1.349 . S
C893 C895 1.327 . S
C893 H916 0.950 . S
C894 C893 1.349 . S
C894 C906 1.349 . S
C895 C893 1.327 . S
C895 C911 1.429 . S
C895 H917 0.950 . S
C896 H892 0.949 . S
C896 C904 1.574 . S
C896 C912 1.368 . S
H897 C905 0.950 . S
H898 C903 0.950 . S
H899 C904 0.949 . S
H900 C906 0.950 . S
H901 C907 0.950 . S
H902 C908 0.949 . S
C903 H898 0.950 . S
C903 C905 1.327 . S
C903 C909 1.429 . S
C904 C896 1.574 . S
C904 H899 0.949 . S
C904 C910 1.368 . S
C905 C889 1.349 . S
C905 H897 0.950 . S
C905 C903 1.327 . S
C906 C894 1.349 . S
C906 H900 0.950 . S
C906 C907 1.327 . S
C907 H901 0.950 . S
C907 C906 1.327 . S
C907 C911 1.429 . S
C908 C891 1.574 . S
C908 H902 0.949 . S
C908 C912 1.368 . S
C909 C890 1.429 . S
C909 C903 1.429 . S
C909 C910 1.523 . S
C910 C891 1.368 . S
C910 C904 1.368 . S
C910 C909 1.523 . S
C911 C895 1.429 . S
C911 C907 1.429 . S
C911 C912 1.523 . S
C912 C896 1.368 . S
C912 C908 1.368 . S
C912 C911 1.523 . S
H913 C888 0.950 . S
H914 C890 0.950 . S
H915 C891 0.949 . S
H916 C893 0.950 . S
H917 C895 0.950 . S
C918 C919 1.349 . S
C918 C920 1.327 . S
C918 H943 0.950 . S
C919 C918 1.349 . S
C919 C935 1.349 . S
C920 C918 1.327 . S
C920 C939 1.429 1_455 S
C920 H944 0.950 . S
C921 C938 1.574 . S
C921 C940 1.368 . S
C921 H945 0.949 . S
H922 C926 0.949 . S
C923 C924 1.349 . S
C923 C925 1.327 . S
C923 H946 0.950 . S
C924 C923 1.349 . S
C924 C936 1.349 . S
C925 C923 1.327 . S
C925 C941 1.429 . S
C925 H947 0.950 . S
C926 H922 0.949 . S
C926 C934 1.574 . S
C926 C942 1.368 . S
H927 C935 0.950 . S
H928 C933 0.950 . S
H929 C934 0.949 . S
H930 C936 0.950 . S
H931 C937 0.950 . S
H932 C938 0.949 . S
C933 H928 0.950 . S
C933 C935 1.327 1_655 S
C933 C939 1.429 . S
C934 C926 1.574 . S
C934 H929 0.949 . S
C934 C940 1.368 . S
C935 C919 1.349 . S
C935 H927 0.950 . S
C935 C933 1.327 1_455 S
C936 C924 1.349 . S
C936 H930 0.950 . S
C936 C937 1.327 . S
C937 H931 0.950 . S
C937 C936 1.327 . S
C937 C941 1.429 . S
C938 C921 1.574 . S
C938 H932 0.949 . S
C938 C942 1.368 . S
C939 C920 1.429 1_655 S
C939 C933 1.429 . S
C939 C940 1.523 . S
C940 C921 1.368 . S
C940 C934 1.368 . S
C940 C939 1.523 . S
C941 C925 1.429 . S
C941 C937 1.429 . S
C941 C942 1.523 . S
C942 C926 1.368 . S
C942 C938 1.368 . S
C942 C941 1.523 . S
H943 C918 0.950 . S
H944 C920 0.950 . S
H945 C921 0.949 . S
H946 C923 0.950 . S
H947 C925 0.950 . S
C948 C949 1.349 . S
C948 C950 1.327 1_565 S
C948 H973 0.950 . S
C949 C948 1.349 . S
C949 C965 1.349 . S
C950 C948 1.327 1_545 S
C950 C969 1.429 . S
C950 H974 0.950 . S
C951 C968 1.574 . S
C951 C970 1.368 . S
C951 H975 0.949 . S
H952 C956 0.949 . S
C953 C954 1.349 . S
C953 C955 1.327 . S
C953 H976 0.950 . S
C954 C953 1.349 . S
C954 C966 1.349 . S
C955 C953 1.327 . S
C955 C971 1.429 . S
C955 H977 0.950 . S
C956 H952 0.949 . S
C956 C964 1.574 . S
C956 C972 1.368 . S
H957 C965 0.950 . S
H958 C963 0.950 . S
H959 C964 0.949 . S
H960 C966 0.950 . S
H961 C967 0.950 . S
H962 C968 0.949 . S
C963 H958 0.950 . S
C963 C965 1.327 . S
C963 C969 1.429 1_565 S
C964 C956 1.574 . S
C964 H959 0.949 . S
C964 C970 1.368 . S
C965 C949 1.349 . S
C965 H957 0.950 . S
C965 C963 1.327 . S
C966 C954 1.349 . S
C966 H960 0.950 . S
C966 C967 1.327 . S
C967 H961 0.950 . S
C967 C966 1.327 . S
C967 C971 1.429 . S
C968 C951 1.574 . S
C968 H962 0.949 . S
C968 C972 1.368 . S
C969 C950 1.429 . S
C969 C963 1.429 1_545 S
C969 C970 1.523 . S
C970 C951 1.368 . S
C970 C964 1.368 . S
C970 C969 1.523 . S
C971 C955 1.429 . S
C971 C967 1.429 . S
C971 C972 1.523 . S
C972 C956 1.368 . S
C972 C968 1.368 . S
C972 C971 1.523 . S
H973 C948 0.950 . S
H974 C950 0.950 . S
H975 C951 0.949 . S
H976 C953 0.950 . S
H977 C955 0.950 . S
C978 C979 1.349 . S
C978 C980 1.327 . S
C978 H1003 0.950 . S
C979 C978 1.349 . S
C979 C995 1.349 . S
C980 C978 1.327 . S
C980 C999 1.429 1_565 S
C980 H1004 0.950 . S
C981 C998 1.574 . S
C981 C1000 1.368 . S
C981 H1005 0.949 . S
H982 C986 0.949 . S
C983 C984 1.349 . S
C983 C985 1.327 1_455 S
C983 H1006 0.950 . S
C984 C983 1.349 . S
C984 C996 1.349 . S
C985 C983 1.327 1_655 S
C985 C1001 1.429 . S
C985 H1007 0.950 . S
C986 H982 0.949 . S
C986 C994 1.574 . S
C986 C1002 1.368 . S
H987 C995 0.950 . S
H988 C993 0.950 1_545 S
H989 C994 0.949 . S
H990 C996 0.950 . S
H991 C997 0.950 . S
H992 C998 0.949 . S
C993 H988 0.950 1_565 S
C993 C995 1.327 . S
C993 C999 1.428 1_565 S
C994 C986 1.574 . S
C994 H989 0.949 . S
C994 C1000 1.368 . S
C995 C979 1.349 . S
C995 H987 0.950 . S
C995 C993 1.327 . S
C996 C984 1.349 . S
C996 H990 0.950 . S
C996 C997 1.327 . S
C997 H991 0.950 . S
C997 C996 1.327 . S
C997 C1001 1.429 1_455 S
C998 C981 1.574 . S
C998 H992 0.949 . S
C998 C1002 1.368 . S
C999 C980 1.429 1_545 S
C999 C993 1.428 1_545 S
C999 C1000 1.523 . S
C1000 C981 1.368 . S
C1000 C994 1.368 . S
C1000 C999 1.523 . S
C1001 C985 1.429 . S
C1001 C997 1.429 1_655 S
C1001 C1002 1.523 . S
C1002 C986 1.368 . S
C1002 C998 1.368 . S
C1002 C1001 1.523 . S
H1003 C978 0.950 . S
H1004 C980 0.950 . S
H1005 C981 0.949 . S
H1006 C983 0.950 . S
H1007 C985 0.950 . S
C199 C18 1.152 . S
C204 C164 1.133 . S
C229 C30 1.152 . S
C234 C194 1.133 . S
C259 C142 1.133 . S
C264 C62 1.152 . S
C289 C169 1.262 . S
C294 C51 1.256 . S
C319 C183 1.262 . S
C324 C7 1.256 . S
C349 C147 1.262 . S
C354 C43 1.256 . S
C379 C40 1.133 . S
C384 C84 1.152 . S
C409 C106 1.152 . S
C414 C54 1.133 . S
C439 C10 1.133 . S
C444 C120 1.152 . S
C469 C29 1.262 . S
C474 C125 1.256 . S
C499 C73 1.256 . S
C504 C59 1.262 . S
C529 C15 1.262 . S
C534 C95 1.256 . S
C559 C150 1.152 . S
C564 C98 1.133 . S
C589 C118 1.133 . S
C594 C172 1.152 . S
C619 C184 1.152 . S
C624 C76 1.133 . S
C649 C197 1.256 . S
C654 C103 1.262 . S
C679 C131 1.262 . S
C684 C139 1.256 . S
C709 C81 1.262 . S
C714 C161 1.256 . S
C739 C8 0.719 . S
C744 C37 0.721 . S
C769 C65 0.721 . S
C774 C32 0.719 . S
C799 C52 0.719 . S
C804 C21 0.721 . S
C829 C109 0.721 . S
C834 C74 0.719 . S
C859 C117 0.721 . S
C864 C96 0.719 . S
C889 C128 0.719 . S
C894 C87 0.721 . S
C919 C175 0.721 . S
C924 C140 0.719 . S
C949 C162 0.719 . S
C954 C191 0.721 . S
C979 C153 0.721 . S
C984 C186 0.719 . S
