# Generated by pormake.
# Topology uov, (4)-cn, num edge types: 1
# Building blocks:
#     Node 0, Type 0, BuildingBlock: KUFVIS_clean_sbu_0, # of connection points: 4
#     Node 1, Type 0, BuildingBlock: KUFVIS_clean_sbu_0, # of connection points: 4
#     Node 2, Type 0, BuildingBlock: KUFVIS_clean_sbu_0, # of connection points: 4
#     Node 3, Type 0, BuildingBlock: KUFVIS_clean_sbu_0, # of connection points: 4
#     Node 4, Type 0, BuildingBlock: KUFVIS_clean_sbu_0, # of connection points: 4
#     Node 5, Type 0, BuildingBlock: KUFVIS_clean_sbu_0, # of connection points: 4
#     Node 6, Type 0, BuildingBlock: KUFVIS_clean_sbu_0, # of connection points: 4
#     Node 7, Type 0, BuildingBlock: KUFVIS_clean_sbu_0, # of connection points: 4
#     Edge 8, Type (0, 0), BuildingBlock: XIVTED_clean_linker_0, # of connection points: 2
#     Edge 9, Type (0, 0), BuildingBlock: XIVTED_clean_linker_0, # of connection points: 2
#     Edge 10, Type (0, 0), BuildingBlock: XIVTED_clean_linker_0, # of connection points: 2
#     Edge 11, Type (0, 0), BuildingBlock: XIVTED_clean_linker_0, # of connection points: 2
#     Edge 12, Type (0, 0), BuildingBlock: XIVTED_clean_linker_0, # of connection points: 2
#     Edge 13, Type (0, 0), BuildingBlock: XIVTED_clean_linker_0, # of connection points: 2
#     Edge 14, Type (0, 0), BuildingBlock: XIVTED_clean_linker_0, # of connection points: 2
#     Edge 15, Type (0, 0), BuildingBlock: XIVTED_clean_linker_0, # of connection points: 2
#     Edge 16, Type (0, 0), BuildingBlock: XIVTED_clean_linker_0, # of connection points: 2
#     Edge 17, Type (0, 0), BuildingBlock: XIVTED_clean_linker_0, # of connection points: 2
#     Edge 18, Type (0, 0), BuildingBlock: XIVTED_clean_linker_0, # of connection points: 2
#     Edge 19, Type (0, 0), BuildingBlock: XIVTED_clean_linker_0, # of connection points: 2
#     Edge 20, Type (0, 0), BuildingBlock: XIVTED_clean_linker_0, # of connection points: 2
#     Edge 21, Type (0, 0), BuildingBlock: XIVTED_clean_linker_0, # of connection points: 2
#     Edge 22, Type (0, 0), BuildingBlock: XIVTED_clean_linker_0, # of connection points: 2
#     Edge 23, Type (0, 0), BuildingBlock: XIVTED_clean_linker_0, # of connection points: 2
# Relax obj value: 0.168
# Max RMSD: 0.184
# Mean RMSD: 0.181
data_MOF--net-uov--node1-KUFVIS_clean_sbu_0--edge1-XIVTED_clean_linker_0
_symmetry_space_group_name_H-M    P1
_symmetry_Int_Tables_number       1
_symmetry_cell_setting            triclinic
loop_
_symmetry_equiv_pos_as_xyz
'x, y, z'
_cell_length_a     29.318322
_cell_length_b     30.273688
_cell_length_c     42.747764
_cell_angle_alpha  89.968279
_cell_angle_beta   89.995046
_cell_angle_gamma 91.432627
loop_
_atom_site_label
_atom_site_type_symbol
_atom_site_fract_x
_atom_site_fract_y
_atom_site_fract_z
_atom_type_partial_charge
Mn0 Mn 0.05489 0.2637 0.59581 0.0
Mn1 Mn 0.97027 0.26578 0.64928 0.0
C2 C 0.98061 0.2708 0.57982 0.0
C3 C 0.10146 0.22389 0.56256 0.0
C4 C 0.0306 0.34533 0.63401 0.0
O5 O 0.08507 0.23969 0.63466 0.0
O6 O 0.02646 0.24195 0.66868 0.0
C7 C 0.95709 0.16929 0.65828 0.0
N8 N 0.93989 0.20918 0.6504 0.0
C9 C 0.8656 0.17634 0.64083 0.0
C10 C 0.88244 0.13498 0.64907 0.0
C11 C 0.9284 0.13146 0.65781 0.0
C12 C 0.89566 0.21298 0.6421 0.0
H13 H 0.99245 0.16633 0.66481 0.0
C14 C 0.06777 0.23305 0.66166 0.0
O15 O 0.11385 0.26316 0.57207 0.0
O16 O 0.06345 0.20741 0.57335 0.0
N17 N 0.91388 0.28727 0.63349 0.0
C18 C 0.90378 0.32898 0.62421 0.0
C19 C 0.85963 0.33772 0.61353 0.0
C20 C 0.8263 0.30361 0.61263 0.0
C21 C 0.83739 0.26104 0.62252 0.0
C22 C 0.88187 0.25435 0.63318 0.0
H23 H 0.92933 0.35528 0.62464 0.0
O24 O 0.01416 0.28329 0.56183 0.0
O25 O 0.9916 0.25378 0.6067 0.0
O26 O 0.05572 0.32648 0.61385 0.0
O27 O -0.00149 0.32548 0.64904 0.0
C28 C 0.80637 0.22476 0.62154 0.0
C29 C 0.82045 0.18246 0.63071 0.0
H30 H 0.86053 0.10564 0.64847 0.0
H31 H 0.94172 0.09961 0.66403 0.0
H32 H 0.85136 0.37064 0.60585 0.0
H33 H 0.7924 0.31039 0.60408 0.0
H34 H 0.77177 0.22892 0.61336 0.0
H35 H 0.79645 0.15472 0.62947 0.0
Mn36 Mn 0.24685 0.94311 0.39373 0.0
Mn37 Mn 0.29935 0.84513 0.39193 0.0
C38 C 0.21635 0.88365 0.42048 0.0
C39 C 0.23813 0.01242 0.41633 0.0
C40 C 0.24063 0.87835 0.33891 0.0
O41 O 0.30949 0.95939 0.37688 0.0
O42 O 0.34312 0.8934 0.37982 0.0
C43 C 0.3635 0.8614 0.44441 0.0
N44 N 0.329 0.83682 0.43127 0.0
C45 C 0.32471 0.78889 0.47617 0.0
C46 C 0.3604 0.81352 0.49008 0.0
C47 C 0.37985 0.84994 0.47413 0.0
C48 C 0.31 0.80175 0.44644 0.0
H49 H 0.3783 0.88967 0.43238 0.0
C50 C 0.34406 0.93499 0.37408 0.0
O51 O 0.22512 0.00446 0.38777 0.0
O52 O 0.25766 0.98071 0.43119 0.0
N53 N 0.26113 0.79564 0.40367 0.0
C54 C 0.22711 0.77519 0.38695 0.0
C55 C 0.20415 0.73804 0.39963 0.0
C56 C 0.21656 0.72216 0.42923 0.0
C57 C 0.25231 0.74317 0.44569 0.0
C58 C 0.27439 0.77967 0.43168 0.0
H59 H 0.21731 0.78731 0.36423 0.0
O60 O 0.19122 0.91692 0.41359 0.0
O61 O 0.259 0.88675 0.41232 0.0
O62 O 0.22915 0.91422 0.35212 0.0
O63 O 0.26796 0.85094 0.35116 0.0
C64 C 0.26668 0.72953 0.47555 0.0
C65 C 0.3028 0.75243 0.4908 0.0
H66 H 0.37296 0.80492 0.51307 0.0
H67 H 0.40726 0.86924 0.48478 0.0
H68 H 0.17674 0.72188 0.38671 0.0
H69 H 0.19841 0.69382 0.43909 0.0
H70 H 0.25005 0.70161 0.48706 0.0
H71 H 0.31335 0.7418 0.51383 0.0
Mn72 Mn 0.94783 0.74955 0.6001 0.0
Mn73 Mn 0.04441 0.75394 0.64285 0.0
C74 C 0.01731 0.75185 0.57514 0.0
C75 C 0.88918 0.78806 0.57671 0.0
C76 C 0.98727 0.67009 0.6328 0.0
O77 O 0.92588 0.76491 0.64378 0.0
O78 O 0.99324 0.77729 0.66814 0.0
C79 C 0.05701 0.85094 0.6486 0.0
N80 N 0.0733 0.81109 0.63978 0.0
C81 C 0.14358 0.84499 0.62165 0.0
C82 C 0.12784 0.88629 0.63103 0.0
C83 C 0.08431 0.88927 0.64449 0.0
C84 C 0.11512 0.80784 0.62677 0.0
H85 H 0.02331 0.85349 0.65848 0.0
C86 C 0.94953 0.77812 0.66719 0.0
O87 O 0.88399 0.74629 0.58326 0.0
O88 O 0.92751 0.80724 0.58432 0.0
N89 N 0.09648 0.73314 0.6207 0.0
C90 C 0.10498 0.69151 0.61047 0.0
C91 C 0.14609 0.68334 0.5949 0.0
C92 C 0.17809 0.71796 0.59008 0.0
C93 C 0.16876 0.76045 0.601 0.0
C94 C 0.12741 0.76654 0.61665 0.0
H95 H 0.08049 0.66476 0.61391 0.0
O96 O 0.98081 0.73892 0.56031 0.0
O97 O 0.0117 0.76483 0.60386 0.0
O98 O 0.95879 0.68582 0.61341 0.0
O99 O 0.01807 0.69337 0.64672 0.0
C100 C 0.19834 0.79722 0.5962 0.0
C101 C 0.18578 0.83945 0.60654 0.0
H102 H 0.14858 0.91601 0.62756 0.0
H103 H 0.07171 0.92109 0.65145 0.0
H104 H 0.15297 0.65047 0.58647 0.0
H105 H 0.20951 0.71163 0.57772 0.0
H106 H 0.23048 0.79352 0.5841 0.0
H107 H 0.20846 0.86759 0.60224 0.0
Mn108 Mn 0.74413 0.07349 0.41165 0.0
Mn109 Mn 0.69289 0.17146 0.40341 0.0
C110 C 0.77407 0.1353 0.43593 0.0
C111 C 0.74973 0.00679 0.43871 0.0
C112 C 0.75394 0.13256 0.35376 0.0
O113 O 0.6824 0.05616 0.39384 0.0
O114 O 0.64942 0.12252 0.39212 0.0
C115 C 0.62563 0.1603 0.45463 0.0
N116 N 0.66104 0.18348 0.44137 0.0
C117 C 0.66306 0.23541 0.48398 0.0
C118 C 0.6264 0.21226 0.49799 0.0
C119 C 0.60764 0.17453 0.48325 0.0
C120 C 0.67944 0.21975 0.4554 0.0
H121 H 0.61134 0.13106 0.44353 0.0
C122 C 0.64851 0.08052 0.38831 0.0
O123 O 0.76452 0.01082 0.41014 0.0
O124 O 0.73054 0.04082 0.45084 0.0
N125 N 0.73073 0.22175 0.41384 0.0
C126 C 0.76562 0.24063 0.39706 0.0
C127 C 0.78802 0.27885 0.40854 0.0
C128 C 0.77411 0.29741 0.43699 0.0
C129 C 0.73742 0.278 0.45346 0.0
C130 C 0.71601 0.24029 0.44065 0.0
H131 H 0.77653 0.22646 0.37521 0.0
O132 O 0.79902 0.10108 0.43158 0.0
O133 O 0.73189 0.1318 0.42678 0.0
O134 O 0.76439 0.09781 0.36893 0.0
O135 O 0.7266 0.16146 0.36409 0.0
C136 C 0.72139 0.29445 0.48214 0.0
C137 C 0.6843 0.27311 0.49743 0.0
H138 H 0.61254 0.22303 0.52012 0.0
H139 H 0.57948 0.15637 0.49399 0.0
H140 H 0.81613 0.29378 0.39559 0.0
H141 H 0.7918 0.3266 0.44594 0.0
H142 H 0.73744 0.32339 0.49271 0.0
H143 H 0.67243 0.28594 0.51955 0.0
Mn144 Mn 0.94474 0.2435 0.0969 0.0
Mn145 Mn 0.03704 0.2318 0.1429 0.0
C146 C 0.01488 0.23076 0.07477 0.0
C147 C 0.88142 0.21378 0.07136 0.0
C148 C 0.99557 0.32009 0.12834 0.0
O149 O 0.91717 0.23264 0.14001 0.0
O150 O 0.98082 0.2184 0.16758 0.0
C151 C 0.03026 0.13532 0.15405 0.0
N152 N 0.05426 0.1713 0.14327 0.0
C153 C 0.11672 0.12628 0.12749 0.0
C154 C 0.09285 0.08881 0.13871 0.0
C155 C 0.04941 0.09337 0.15201 0.0
C156 C 0.09613 0.16731 0.13047 0.0
H157 H 0.99666 0.13857 0.164 0.0
C158 C 0.93734 0.22069 0.16502 0.0
O159 O 0.88435 0.25562 0.07788 0.0
O160 O 0.91427 0.18905 0.08067 0.0
N161 N 0.09334 0.24297 0.12123 0.0
C162 C 0.11063 0.28192 0.10976 0.0
C163 C 0.15324 0.2828 0.09474 0.0
C164 C 0.17762 0.2437 0.09168 0.0
C165 C 0.15925 0.20405 0.10381 0.0
C166 C 0.11687 0.20528 0.11886 0.0
H167 H 0.09193 0.31205 0.11183 0.0
O168 O 0.98271 0.24796 0.05829 0.0
O169 O 0.00461 0.22079 0.10354 0.0
O170 O 0.96544 0.30538 0.10935 0.0
O171 O 0.02279 0.29556 0.14341 0.0
C172 C 0.1809 0.16323 0.10097 0.0
C173 C 0.15966 0.12437 0.11281 0.0
H174 H 0.10732 0.05634 0.13691 0.0
H175 H 0.03063 0.06456 0.16051 0.0
H176 H 0.16712 0.31351 0.08536 0.0
H177 H 0.21024 0.24443 0.07977 0.0
H178 H 0.21364 0.16125 0.08937 0.0
H179 H 0.17639 0.0931 0.11012 0.0
Mn180 Mn 0.24678 0.02957 0.88923 0.0
Mn181 Mn 0.24153 0.95117 0.83358 0.0
C182 C 0.24465 0.95608 0.90301 0.0
C183 C 0.20995 0.07593 0.92372 0.0
C184 C 0.32881 0.00022 0.85112 0.0
O185 O 0.22675 0.06379 0.85116 0.0
O186 O 0.22461 0.00924 0.81524 0.0
C187 C 0.14171 0.95043 0.8229 0.0
N188 N 0.18003 0.92882 0.8313 0.0
C189 C 0.13665 0.86174 0.84123 0.0
C190 C 0.09679 0.8832 0.83246 0.0
C191 C 0.09935 0.92774 0.82326 0.0
C192 C 0.17798 0.8859 0.84006 0.0
H193 H 0.14339 0.98477 0.81607 0.0
C194 C 0.21964 0.04962 0.82346 0.0
O195 O 0.25179 0.08461 0.91515 0.0
O196 O 0.18942 0.04207 0.91109 0.0
N197 N 0.25615 0.8937 0.84871 0.0
C198 C 0.29733 0.87854 0.85811 0.0
C199 C 0.30039 0.83492 0.86894 0.0
C200 C 0.26116 0.80737 0.87 0.0
C201 C 0.21919 0.82366 0.86009 0.0
C202 C 0.21829 0.86728 0.84924 0.0
H203 H 0.32752 0.8997 0.85764 0.0
O204 O 0.26135 0.98565 0.92204 0.0
O205 O 0.22996 0.97071 0.87631 0.0
O206 O 0.31123 0.02509 0.87172 0.0
O207 O 0.30603 0.97157 0.8352 0.0
C208 C 0.17809 0.79858 0.86112 0.0
C209 C 0.13686 0.81759 0.85167 0.0
H210 H 0.06399 0.86593 0.83298 0.0
H211 H 0.06871 0.94461 0.81663 0.0
H212 H 0.33287 0.82265 0.87666 0.0
H213 H 0.26358 0.77388 0.87866 0.0
H214 H 0.17772 0.76477 0.86945 0.0
H215 H 0.1054 0.79812 0.85288 0.0
Mn216 Mn 0.0423 0.73027 0.09312 0.0
Mn217 Mn 0.95788 0.72862 0.14641 0.0
C218 C 0.96691 0.72932 0.07729 0.0
C219 C 0.09155 0.76892 0.0599 0.0
C220 C 0.01318 0.64851 0.13031 0.0
O221 O 0.07506 0.75045 0.13273 0.0
O222 O 0.01532 0.75164 0.16614 0.0
C223 C 0.94994 0.82486 0.15672 0.0
N224 N 0.93073 0.78538 0.14789 0.0
C225 C 0.85932 0.81938 0.13635 0.0
C226 C 0.87821 0.8603 0.14566 0.0
C227 C 0.92373 0.86304 0.15585 0.0
C228 C 0.8869 0.78234 0.13811 0.0
H229 H 0.98508 0.8273 0.16416 0.0
C230 C 0.0577 0.75822 0.15954 0.0
O231 O 0.10028 0.72885 0.06858 0.0
O232 O 0.05619 0.78707 0.07212 0.0
N233 N 0.90085 0.70804 0.1293 0.0
C234 C 0.88883 0.66679 0.11897 0.0
C235 C 0.84493 0.65887 0.10676 0.0
C236 C 0.8139 0.6934 0.10525 0.0
C237 C 0.82705 0.73558 0.11599 0.0
C238 C 0.87111 0.74141 0.12819 0.0
H239 H 0.91267 0.6402 0.1198 0.0
O240 O -0.00159 0.71497 0.05887 0.0
O241 O 0.98073 0.74255 0.10466 0.0
O242 O 0.03792 0.66741 0.10955 0.0
O243 O 0.98279 0.66836 0.14602 0.0
C244 C 0.79847 0.77224 0.11446 0.0
C245 C 0.81458 0.8141 0.12466 0.0
H246 H 0.85826 0.88991 0.14471 0.0
H247 H 0.93868 0.89456 0.16282 0.0
H248 H 0.83512 0.62627 0.09838 0.0
H249 H 0.7802 0.68725 0.09555 0.0
H250 H 0.76423 0.76873 0.10512 0.0
H251 H 0.79249 0.84216 0.123 0.0
Mn252 Mn 0.74671 0.94919 0.89771 0.0
Mn253 Mn 0.75138 0.03679 0.84902 0.0
C254 C 0.74343 0.01966 0.91786 0.0
C255 C 0.78349 0.89831 0.92883 0.0
C256 C 0.66638 0.97928 0.85871 0.0
O257 O 0.7702 0.92292 0.85736 0.0
O258 O 0.77736 0.98439 0.82769 0.0
C259 C 0.85169 0.0495 0.84496 0.0
N260 N 0.80992 0.06581 0.85162 0.0
C261 C 0.84317 0.13656 0.86562 0.0
C262 C 0.88646 0.12073 0.85839 0.0
C263 C 0.89073 0.07696 0.8481 0.0
C264 C 0.80542 0.10786 0.86158 0.0
H265 H 0.85523 0.01571 0.83752 0.0
C266 C 0.78198 0.94282 0.83221 0.0
O267 O 0.74265 0.88986 0.91823 0.0
O268 O 0.80338 0.93491 0.91996 0.0
N269 N 0.72826 0.08957 0.86712 0.0
C270 C 0.68474 0.09835 0.87592 0.0
C271 C 0.67503 0.13993 0.88845 0.0
C272 C 0.71009 0.17205 0.89175 0.0
C273 C 0.75459 0.16229 0.88247 0.0
C274 C 0.76216 0.12042 0.86986 0.0
H275 H 0.65768 0.07372 0.87364 0.0
O276 O 0.72809 0.98594 0.93375 0.0
O277 O 0.76075 0.01099 0.89054 0.0
O278 O 0.68319 0.95369 0.87912 0.0
O279 O 0.68924 0.01024 0.84515 0.0
C280 C 0.79193 0.19207 0.88601 0.0
C281 C 0.83619 0.17922 0.87758 0.0
H282 H 0.91671 0.14164 0.86114 0.0
H283 H 0.92407 0.06434 0.84284 0.0
H284 H 0.64064 0.14714 0.89569 0.0
H285 H 0.70255 0.20394 0.90171 0.0
H286 H 0.78712 0.22467 0.89571 0.0
H287 H 0.86474 0.20213 0.88094 0.0
H288 H 0.01202 0.623 0.6845 0.0
H289 H 0.05443 0.40464 0.58861 0.0
H290 H 0.97044 0.60778 0.58821 0.0
H291 H 0.01028 0.39629 0.6848 0.0
H292 H 0.04278 0.48443 0.58979 0.0
H293 H 0.02696 0.54347 0.6867 0.0
C294 C 0.00543 0.60279 0.66401 0.0
C295 C 0.9895 0.62175 0.63623 0.0
C296 C 0.03627 0.46508 0.61071 0.0
C297 C 0.0083 0.5319 0.63825 0.0
C298 C 0.04351 0.41975 0.61023 0.0
C299 C 0.03334 0.3939 0.63668 0.0
C300 C 0.01966 0.48474 0.638 0.0
C301 C 0.01847 0.41513 0.66392 0.0
C302 C 0.01415 0.55767 0.66526 0.0
C303 C 0.982 0.59431 0.61021 0.0
N304 N 0.01207 0.45946 0.66392 0.0
N305 N 0.9921 0.55083 0.61171 0.0
H306 H 0.63136 0.99251 0.37686 0.0
H307 H 0.3629 0.02288 0.36301 0.0
H308 H 0.56658 0.1192 0.37693 0.0
H309 H 0.42714 0.89616 0.36861 0.0
H310 H 0.4381 0.05861 0.35901 0.0
H311 H 0.55784 0.95695 0.36524 0.0
C312 C 0.60181 0.01295 0.3742 0.0
C313 C 0.60513 0.05892 0.37836 0.0
C314 C 0.43569 0.02294 0.36075 0.0
C315 C 0.52077 0.01827 0.36508 0.0
C316 C 0.39272 0.00245 0.36298 0.0
C317 C 0.38862 0.95643 0.3667 0.0
C318 C 0.47485 0.99729 0.36236 0.0
C319 C 0.42855 0.93176 0.36619 0.0
C320 C 0.5598 0.99257 0.36751 0.0
C321 C 0.56566 0.08363 0.37427 0.0
N322 N 0.47001 0.95256 0.36448 0.0
N323 N 0.52504 0.06294 0.36816 0.0
H324 H 0.9888 0.37917 0.08143 0.0
H325 H 0.98358 0.59598 0.1793 0.0
H326 H 0.0158 0.37021 0.18042 0.0
H327 H 0.05124 0.59098 0.08962 0.0
H328 H 0.98377 0.51471 0.18141 0.0
H329 H -0.0016 0.45935 0.08452 0.0
C330 C 0.99653 0.39423 0.10387 0.0
C331 C 0.00139 0.36831 0.13075 0.0
C332 C -0.00091 0.53176 0.1616 0.0
C333 C 0.01196 0.45976 0.13444 0.0
C334 C -0.00114 0.57792 0.16028 0.0
C335 C 0.0172 0.60028 0.13416 0.0
C336 C 0.01668 0.50818 0.13629 0.0
C337 C 0.03672 0.57527 0.11021 0.0
C338 C 0.00232 0.43981 0.10555 0.0
C339 C 0.01192 0.3893 0.15921 0.0
N340 N 0.03524 0.53056 0.11162 0.0
N341 N 0.01631 0.43417 0.16046 0.0
H342 H 0.3807 0.98011 0.79976 0.0
H343 H 0.60191 0.9455 0.89834 0.0
H344 H 0.39058 0.01974 0.89657 0.0
H345 H 0.61747 0.00856 0.80815 0.0
H346 H 0.51938 0.95168 0.89382 0.0
H347 H 0.4643 0.97304 0.79846 0.0
C348 C 0.40047 0.98774 0.82055 0.0
C349 C 0.37889 0.00075 0.84828 0.0
C350 C 0.54098 0.96366 0.87491 0.0
C351 C 0.47313 0.99125 0.84714 0.0
C352 C 0.58799 0.95982 0.87728 0.0
C353 C 0.61662 0.97673 0.85361 0.0
C354 C 0.52237 0.98367 0.84846 0.0
C355 C 0.59653 0.99534 0.82698 0.0
C356 C 0.44786 0.98369 0.81976 0.0
C357 C 0.40588 0.01007 0.87465 0.0
N358 N 0.55037 -0.0017 0.82504 0.0
N359 N 0.45156 0.00445 0.87357 0.0
H360 H 0.17134 0.06985 0.4012 0.0
H361 H 0.19443 0.22022 0.55396 0.0
H362 H 0.27664 0.04726 0.46946 0.0
H363 H 0.06564 0.17325 0.51637 0.0
H364 H 0.23413 0.17554 0.51448 0.0
H365 H 0.14218 0.12882 0.43436 0.0
C366 C 0.18901 0.07803 0.42276 0.0
C367 C 0.22612 0.05338 0.4328 0.0
C368 C 0.19719 0.17558 0.51485 0.0
C369 C 0.19317 0.12071 0.47057 0.0
C370 C 0.17466 0.20093 0.53721 0.0
C371 C 0.12685 0.19984 0.5385 0.0
C372 C 0.17148 0.15044 0.49321 0.0
C373 C 0.10259 0.17445 0.51636 0.0
C374 C 0.1722 0.11143 0.44171 0.0
C375 C 0.24763 0.06525 0.46106 0.0
N376 N 0.12515 0.15092 0.49454 0.0
N377 N 0.23068 0.098 0.47912 0.0
H378 H 0.14439 0.8273 0.41206 0.0
H379 H 0.05855 0.69678 0.5345 0.0
H380 H 0.24599 0.86895 0.47939 0.0
H381 H 0.06645 0.82851 0.57252 0.0
H382 H 0.11864 0.71782 0.49657 0.0
H383 H 0.10654 0.78221 0.45269 0.0
C384 C 0.15928 0.82582 0.43523 0.0
C385 C 0.19872 0.85058 0.44248 0.0
C386 C 0.10818 0.74137 0.51408 0.0
C387 C 0.15509 0.80128 0.48883 0.0
C388 C 0.0742 0.72955 0.53554 0.0
C389 C 0.05902 0.76066 0.55719 0.0
C390 C 0.1266 0.78451 0.51447 0.0
C391 C 0.07889 0.80315 0.5571 0.0
C392 C 0.13797 0.80011 0.45821 0.0
C393 C 0.21614 0.84919 0.47297 0.0
N394 N 0.11189 0.81391 0.53603 0.0
N395 N 0.19345 0.8257 0.49542 0.0
H396 H 0.78686 0.92779 0.42103 0.0
H397 H 0.85746 0.86838 0.59149 0.0
H398 H 0.73273 0.99624 0.50087 0.0
H399 H 0.84616 0.76565 0.52203 0.0
H400 H 0.81291 0.91649 0.55791 0.0
H401 H 0.81017 0.8679 0.45603 0.0
C402 C 0.77926 0.92992 0.44577 0.0
C403 C 0.75828 0.9673 0.45809 0.0
C404 C 0.8193 0.88313 0.55022 0.0
C405 C 0.78528 0.89954 0.49806 0.0
C406 C 0.8446 0.85573 0.56939 0.0
C407 C 0.85492 0.81307 0.55952 0.0
C408 C 0.80566 0.86829 0.52045 0.0
C409 C 0.8382 0.79825 0.53052 0.0
C410 C 0.79242 0.89573 0.46567 0.0
C411 C 0.74914 0.96828 0.49033 0.0
N412 N 0.8151 0.82622 0.5116 0.0
N413 N 0.76338 0.93535 0.50923 0.0
H414 H 0.84643 0.19048 0.42571 0.0
H415 H 0.93589 0.32708 0.54174 0.0
H416 H 0.74277 0.15608 0.49351 0.0
H417 H 0.9269 0.19689 0.58238 0.0
H418 H 0.87194 0.30673 0.5068 0.0
H419 H 0.88388 0.23868 0.46462 0.0
C420 C 0.83096 0.19427 0.44854 0.0
C421 C 0.79112 0.17054 0.45643 0.0
C422 C 0.88284 0.28357 0.52445 0.0
C423 C 0.83435 0.22341 0.501 0.0
C424 C 0.91905 0.29501 0.54426 0.0
C425 C 0.93554 0.26395 0.56552 0.0
C426 C 0.86335 0.24091 0.52616 0.0
C427 C 0.91377 0.22234 0.56733 0.0
C428 C 0.85204 0.22178 0.47056 0.0
C429 C 0.77297 0.17496 0.48657 0.0
N430 N 0.87875 0.2119 0.54776 0.0
N431 N 0.79553 0.20004 0.50822 0.0
H432 H 0.82236 0.06822 0.91773 0.0
H433 H 0.83147 0.13758 0.07849 0.0
H434 H 0.68899 0.06033 0.9599 0.0
H435 H 0.85404 0.2477 0.01594 0.0
H436 H 0.78529 0.10035 0.03784 0.0
H437 H 0.84352 0.12832 0.95355 0.0
C438 C 0.79678 0.08076 0.93342 0.0
C439 C 0.75309 0.0611 0.93477 0.0
C440 C 0.7993 0.13324 0.03349 0.0
C441 C 0.77847 0.12641 0.9776 0.0
C442 C 0.82557 0.15431 0.0565 0.0
C443 C 0.84603 0.19569 0.05042 0.0
C444 C 0.7953 0.15304 0.004 0.0
C445 C 0.83819 0.21596 0.02146 0.0
C446 C 0.80909 0.11445 0.95414 0.0
C447 C 0.72258 0.07569 0.95762 0.0
N448 N 0.81452 0.19376 -0.00119 0.0
N449 N 0.73621 0.10687 0.97876 0.0
H450 H 0.14332 0.04441 0.9616 0.0
H451 H 0.07531 0.27172 0.03495 0.0
H452 H 0.22518 0.16204 0.94333 0.0
H453 H 0.0389 0.14551 0.07566 0.0
H454 H 0.13075 0.23504 0.00102 0.0
H455 H 0.10376 0.08312 0.00276 0.0
C456 C 0.15288 0.0786 0.96624 0.0
C457 C 0.18719 0.10028 0.94884 0.0
C458 C 0.11142 0.21564 0.01794 0.0
C459 C 0.14179 0.14502 0.9961 0.0
C460 C 0.07994 0.23646 0.03719 0.0
C461 C 0.05359 0.21153 0.05846 0.0
C462 C 0.11503 0.16951 0.0194 0.0
C463 C 0.05959 0.16593 0.0601 0.0
C464 C 0.13054 0.10058 0.98998 0.0
C465 C 0.19871 0.14433 0.9562 0.0
N466 N 0.08943 0.14632 0.04065 0.0
N467 N 0.1755 0.16563 0.9791 0.0
H468 H 0.06193 0.83607 0.02422 0.0
H469 H 0.28982 0.8976 0.93958 0.0
H470 H 0.17726 0.75193 0.03671 0.0
H471 H 0.15801 0.92437 0.90036 0.0
H472 H 0.25336 0.84336 0.97513 0.0
H473 H 0.10025 0.87119 0.98007 0.0
C474 C 0.09559 0.82518 0.0178 0.0
C475 C 0.11667 0.79131 0.03432 0.0
C476 C 0.23275 0.86003 0.95797 0.0
C477 C 0.16074 0.83137 0.98346 0.0
C478 C 0.25349 0.8907 0.93768 0.0
C479 C 0.22684 0.91474 0.91679 0.0
C480 C 0.18505 0.85483 0.95787 0.0
C481 C 0.17984 0.90568 0.9156 0.0
C482 C 0.1172 0.84488 0.99229 0.0
C483 C 0.16003 0.77814 0.02461 0.0
N484 N 0.16031 0.87698 0.93625 0.0
N485 N 0.18107 0.79867 -6e-05 0.0
H486 H 0.85141 0.92284 0.96825 0.0
H487 H 0.90779 0.69019 0.03537 0.0
H488 H 0.76415 0.81109 0.94403 0.0
H489 H 0.93772 0.81232 0.08377 0.0
H490 H 0.85466 0.72964 0.00118 0.0
H491 H 0.886 0.87924 0.00906 0.0
C492 C 0.83969 0.88891 0.97141 0.0
C493 C 0.8051 0.87042 0.95259 0.0
C494 C 0.87176 0.74731 0.02001 0.0
C495 C 0.84462 0.82012 -0.00041 0.0
C496 C 0.90183 0.72487 0.03949 0.0
C497 C 0.9263 0.74797 0.06274 0.0
C498 C 0.86762 0.79317 0.02342 0.0
C499 C 0.9185 0.79303 0.06676 0.0
C500 C 0.85912 0.86415 0.995 0.0
C501 C 0.7909 0.82642 0.95805 0.0
N502 N 0.89032 0.81425 0.04705 0.0
N503 N 0.81118 0.80239 0.98093 0.0
H504 H 0.14349 0.18343 0.65268 0.0
H505 H 0.17828 0.12843 0.83364 0.0
H506 H 0.05554 0.23233 0.72521 0.0
H507 H 0.22176 0.04214 0.75957 0.0
H508 H 0.14554 0.17723 0.79441 0.0
H509 H 0.18502 0.14199 0.69224 0.0
C510 C 0.13326 0.18593 0.67695 0.0
C511 C 0.0958 0.21123 0.68563 0.0
C512 C 0.1625 0.14773 0.78681 0.0
C513 C 0.14329 0.16404 0.73088 0.0
C514 C 0.18139 0.11995 0.80913 0.0
C515 C 0.20261 0.08098 0.79988 0.0
C516 C 0.16544 0.13684 0.75499 0.0
C517 C 0.20541 0.07164 0.76777 0.0
C518 C 0.15682 0.16207 0.69944 0.0
C519 C 0.08397 0.213 0.71743 0.0
N520 N 0.18706 0.0994 0.74646 0.0
N521 N 0.10765 0.18971 0.73892 0.0
H522 H 0.15113 0.75534 0.16442 0.0
H523 H 0.16311 0.91227 0.31398 0.0
H524 H 0.03211 0.80503 0.2109 0.0
H525 H 0.26552 0.81519 0.29642 0.0
H526 H 0.12071 0.88515 0.26847 0.0
H527 H 0.19906 0.78794 0.206 0.0
C528 C 0.13511 0.77319 0.18324 0.0
C529 C 0.08751 0.77732 0.18424 0.0
C530 C 0.15267 0.87006 0.27448 0.0
C531 C 0.14203 0.81515 0.23126 0.0
C532 C 0.1771 0.8857 0.30032 0.0
C533 C 0.21787 0.86581 0.30919 0.0
C534 C 0.16932 0.83466 0.25708 0.0
C535 C 0.23409 0.8313 0.29057 0.0
C536 C 0.16243 0.79165 0.20691 0.0
C537 C 0.06857 0.80075 0.20922 0.0
N538 N 0.20972 0.81674 0.26536 0.0
N539 N 0.09589 0.81897 0.23161 0.0
H540 H 0.98339 0.83974 0.70826 0.0
H541 H 0.76968 0.85479 0.81885 0.0
H542 H 0.86081 0.76413 0.68607 0.0
H543 H 0.84545 0.97176 0.78964 0.0
H544 H 0.81021 0.81203 0.77911 0.0
H545 H 0.94122 0.87918 0.74844 0.0
C546 C 0.94778 0.83105 0.71203 0.0
C547 C 0.92547 0.79881 0.69359 0.0
C548 C 0.81769 0.84709 0.78152 0.0
C549 C 0.87751 0.84335 0.73981 0.0
C550 C 0.79479 0.87143 0.80412 0.0
C551 C 0.80428 0.91688 0.80754 0.0
C552 C 0.85117 0.86815 0.763 0.0
C553 C 0.83701 0.93687 0.78778 0.0
C554 C 0.92378 0.85376 0.73482 0.0
C555 C 0.87919 0.78899 0.69961 0.0
N556 N 0.85974 0.91224 0.76662 0.0
N557 N 0.85669 0.81105 0.72239 0.0
H558 H 0.73001 0.1917 0.30839 0.0
H559 H 0.96409 0.17367 0.21616 0.0
H560 H 0.8312 0.09529 0.33062 0.0
H561 H 0.84644 0.23533 0.17591 0.0
H562 H 0.91738 0.14926 0.26032 0.0
H563 H 0.77313 0.21176 0.26129 0.0
C564 C 0.76107 0.17447 0.30326 0.0
C565 C 0.77706 0.1418 0.32358 0.0
C566 C 0.90174 0.16802 0.24179 0.0
C567 C 0.82678 0.16511 0.26995 0.0
C568 C 0.92846 0.18228 0.21662 0.0
C569 C 0.90923 0.20677 0.19225 0.0
C570 C 0.85551 0.17874 0.24294 0.0
C571 C 0.86272 0.21653 0.19414 0.0
C572 C 0.7856 0.18594 0.27635 0.0
C573 C 0.81747 0.12056 0.31564 0.0
N574 N 0.83748 0.20272 0.21917 0.0
N575 N 0.84118 0.13291 0.28963 0.0
loop_
_geom_bond_atom_site_label_1
_geom_bond_atom_site_label_2
_geom_bond_distance
_geom_bond_site_symmetry_2
_ccdc_geom_bond_type
Mn0 O5 2.095 . S
Mn0 O15 2.162 . S
Mn0 O16 2.297 . S
Mn0 O24 2.385 . S
Mn0 O25 2.209 . S
Mn0 O26 2.094 . S
Mn1 O6 2.121 . S
Mn1 N8 2.257 1_455 S
Mn1 N17 2.282 1_455 S
Mn1 O25 2.215 . S
Mn1 O27 2.117 . S
C2 O24 1.234 . S
C2 O25 1.283 . S
C3 O15 1.281 . S
C3 O16 1.236 . S
C4 O26 1.240 . S
C4 O27 1.264 . S
O5 Mn0 2.095 . S
O5 C14 1.250 . S
O6 Mn1 2.121 . S
O6 C14 1.258 . S
C7 N8 1.326 . S
C7 C11 1.460 . S
C7 H13 0.929 . S
N8 Mn1 2.257 1_655 S
N8 C7 1.326 . S
N8 C12 1.362 . S
C9 C10 1.258 . S
C9 C12 1.431 . S
C9 C29 1.449 . S
C10 C9 1.258 . S
C10 C11 1.477 . S
C10 H30 0.931 . S
C11 C7 1.460 . S
C11 C10 1.477 . S
C11 H31 0.930 . S
C12 N8 1.362 . S
C12 C9 1.431 . S
C12 C22 1.476 . S
H13 C7 0.929 . S
C14 O5 1.250 . S
C14 O6 1.258 . S
O15 Mn0 2.162 . S
O15 C3 1.281 . S
O16 Mn0 2.297 . S
O16 C3 1.236 . S
N17 Mn1 2.282 1_655 S
N17 C18 1.328 . S
N17 C22 1.318 . S
C18 N17 1.328 . S
C18 C19 1.457 . S
C18 H23 0.929 . S
C19 C18 1.457 . S
C19 C20 1.291 . S
C19 H32 0.931 . S
C20 C19 1.291 . S
C20 C21 1.373 . S
C20 H33 0.929 . S
C21 C20 1.373 . S
C21 C22 1.396 . S
C21 C28 1.403 . S
C22 C12 1.476 . S
C22 N17 1.318 . S
C22 C21 1.396 . S
H23 C18 0.929 . S
O24 Mn0 2.385 . S
O24 C2 1.234 . S
O25 Mn0 2.209 . S
O25 Mn1 2.215 . S
O25 C2 1.283 . S
O26 Mn0 2.094 . S
O26 C4 1.240 . S
O27 Mn1 2.117 . S
O27 C4 1.264 . S
C28 C21 1.403 . S
C28 C29 1.399 . S
C28 H34 0.929 . S
C29 C9 1.449 . S
C29 C28 1.399 . S
C29 H35 0.930 . S
H30 C10 0.931 . S
H31 C11 0.930 . S
H32 C19 0.931 . S
H33 C20 0.929 . S
H34 C28 0.929 . S
H35 C29 0.930 . S
Mn36 O41 2.095 . S
Mn36 O51 2.162 . S
Mn36 O52 2.297 . S
Mn36 O60 2.385 . S
Mn36 O61 2.209 . S
Mn36 O62 2.094 . S
Mn37 O42 2.121 . S
Mn37 N44 2.257 . S
Mn37 N53 2.282 . S
Mn37 O61 2.215 . S
Mn37 O63 2.117 . S
C38 O60 1.234 . S
C38 O61 1.283 . S
C39 O51 1.281 . S
C39 O52 1.236 . S
C40 O62 1.240 . S
C40 O63 1.264 . S
O41 Mn36 2.095 . S
O41 C50 1.250 . S
O42 Mn37 2.121 . S
O42 C50 1.258 . S
C43 N44 1.326 . S
C43 C47 1.460 . S
C43 H49 0.929 . S
N44 Mn37 2.257 . S
N44 C43 1.326 . S
N44 C48 1.362 . S
C45 C46 1.258 . S
C45 C48 1.431 . S
C45 C65 1.449 . S
C46 C45 1.258 . S
C46 C47 1.477 . S
C46 H66 0.931 . S
C47 C43 1.460 . S
C47 C46 1.477 . S
C47 H67 0.930 . S
C48 N44 1.362 . S
C48 C45 1.431 . S
C48 C58 1.476 . S
H49 C43 0.929 . S
C50 O41 1.250 . S
C50 O42 1.258 . S
O51 Mn36 2.162 . S
O51 C39 1.281 . S
O52 Mn36 2.297 . S
O52 C39 1.236 . S
N53 Mn37 2.282 . S
N53 C54 1.328 . S
N53 C58 1.318 . S
C54 N53 1.328 . S
C54 C55 1.457 . S
C54 H59 0.929 . S
C55 C54 1.457 . S
C55 C56 1.291 . S
C55 H68 0.931 . S
C56 C55 1.291 . S
C56 C57 1.373 . S
C56 H69 0.929 . S
C57 C56 1.373 . S
C57 C58 1.396 . S
C57 C64 1.403 . S
C58 C48 1.476 . S
C58 N53 1.318 . S
C58 C57 1.396 . S
H59 C54 0.929 . S
O60 Mn36 2.385 . S
O60 C38 1.234 . S
O61 Mn36 2.209 . S
O61 Mn37 2.215 . S
O61 C38 1.283 . S
O62 Mn36 2.094 . S
O62 C40 1.240 . S
O63 Mn37 2.117 . S
O63 C40 1.264 . S
C64 C57 1.403 . S
C64 C65 1.399 . S
C64 H70 0.929 . S
C65 C45 1.449 . S
C65 C64 1.399 . S
C65 H71 0.930 . S
H66 C46 0.931 . S
H67 C47 0.930 . S
H68 C55 0.931 . S
H69 C56 0.929 . S
H70 C64 0.929 . S
H71 C65 0.930 . S
Mn72 O77 2.095 . S
Mn72 O87 2.162 . S
Mn72 O88 2.297 . S
Mn72 O96 2.385 . S
Mn72 O97 2.209 . S
Mn72 O98 2.094 . S
Mn73 O78 2.121 . S
Mn73 N80 2.257 1_655 S
Mn73 N89 2.282 1_655 S
Mn73 O97 2.215 . S
Mn73 O99 2.117 . S
C74 O96 1.234 . S
C74 O97 1.283 . S
C75 O87 1.281 . S
C75 O88 1.236 . S
C76 O98 1.240 . S
C76 O99 1.264 . S
O77 Mn72 2.095 . S
O77 C86 1.250 . S
O78 Mn73 2.121 . S
O78 C86 1.258 . S
C79 N80 1.326 . S
C79 C83 1.460 . S
C79 H85 0.929 . S
N80 Mn73 2.257 1_455 S
N80 C79 1.326 . S
N80 C84 1.362 . S
C81 C82 1.258 . S
C81 C84 1.431 . S
C81 C101 1.449 . S
C82 C81 1.258 . S
C82 C83 1.477 . S
C82 H102 0.931 . S
C83 C79 1.460 . S
C83 C82 1.477 . S
C83 H103 0.930 . S
C84 N80 1.362 . S
C84 C81 1.431 . S
C84 C94 1.476 . S
H85 C79 0.929 . S
C86 O77 1.250 . S
C86 O78 1.258 . S
O87 Mn72 2.162 . S
O87 C75 1.281 . S
O88 Mn72 2.297 . S
O88 C75 1.236 . S
N89 Mn73 2.282 1_455 S
N89 C90 1.328 . S
N89 C94 1.318 . S
C90 N89 1.328 . S
C90 C91 1.457 . S
C90 H95 0.929 . S
C91 C90 1.457 . S
C91 C92 1.291 . S
C91 H104 0.931 . S
C92 C91 1.291 . S
C92 C93 1.373 . S
C92 H105 0.929 . S
C93 C92 1.373 . S
C93 C94 1.396 . S
C93 C100 1.403 . S
C94 C84 1.476 . S
C94 N89 1.318 . S
C94 C93 1.396 . S
H95 C90 0.929 . S
O96 Mn72 2.385 . S
O96 C74 1.234 . S
O97 Mn72 2.209 . S
O97 Mn73 2.215 . S
O97 C74 1.283 . S
O98 Mn72 2.094 . S
O98 C76 1.240 . S
O99 Mn73 2.117 . S
O99 C76 1.264 . S
C100 C93 1.403 . S
C100 C101 1.399 . S
C100 H106 0.929 . S
C101 C81 1.449 . S
C101 C100 1.399 . S
C101 H107 0.930 . S
H102 C82 0.931 . S
H103 C83 0.930 . S
H104 C91 0.931 . S
H105 C92 0.929 . S
H106 C100 0.929 . S
H107 C101 0.930 . S
Mn108 O113 2.095 . S
Mn108 O123 2.162 . S
Mn108 O124 2.297 . S
Mn108 O132 2.385 . S
Mn108 O133 2.209 . S
Mn108 O134 2.094 . S
Mn109 O114 2.121 . S
Mn109 N116 2.257 . S
Mn109 N125 2.282 . S
Mn109 O133 2.215 . S
Mn109 O135 2.117 . S
C110 O132 1.234 . S
C110 O133 1.283 . S
C111 O123 1.281 . S
C111 O124 1.236 . S
C112 O134 1.240 . S
C112 O135 1.264 . S
O113 Mn108 2.095 . S
O113 C122 1.250 . S
O114 Mn109 2.121 . S
O114 C122 1.258 . S
C115 N116 1.326 . S
C115 C119 1.460 . S
C115 H121 0.929 . S
N116 Mn109 2.257 . S
N116 C115 1.326 . S
N116 C120 1.362 . S
C117 C118 1.258 . S
C117 C120 1.431 . S
C117 C137 1.449 . S
C118 C117 1.258 . S
C118 C119 1.477 . S
C118 H138 0.931 . S
C119 C115 1.460 . S
C119 C118 1.477 . S
C119 H139 0.930 . S
C120 N116 1.362 . S
C120 C117 1.431 . S
C120 C130 1.476 . S
H121 C115 0.929 . S
C122 O113 1.250 . S
C122 O114 1.258 . S
O123 Mn108 2.162 . S
O123 C111 1.281 . S
O124 Mn108 2.297 . S
O124 C111 1.236 . S
N125 Mn109 2.282 . S
N125 C126 1.328 . S
N125 C130 1.318 . S
C126 N125 1.328 . S
C126 C127 1.457 . S
C126 H131 0.929 . S
C127 C126 1.457 . S
C127 C128 1.291 . S
C127 H140 0.931 . S
C128 C127 1.291 . S
C128 C129 1.373 . S
C128 H141 0.929 . S
C129 C128 1.373 . S
C129 C130 1.396 . S
C129 C136 1.403 . S
C130 C120 1.476 . S
C130 N125 1.318 . S
C130 C129 1.396 . S
H131 C126 0.929 . S
O132 Mn108 2.385 . S
O132 C110 1.234 . S
O133 Mn108 2.209 . S
O133 Mn109 2.215 . S
O133 C110 1.283 . S
O134 Mn108 2.094 . S
O134 C112 1.240 . S
O135 Mn109 2.117 . S
O135 C112 1.264 . S
C136 C129 1.403 . S
C136 C137 1.399 . S
C136 H142 0.929 . S
C137 C117 1.449 . S
C137 C136 1.399 . S
C137 H143 0.930 . S
H138 C118 0.931 . S
H139 C119 0.930 . S
H140 C127 0.931 . S
H141 C128 0.929 . S
H142 C136 0.929 . S
H143 C137 0.930 . S
Mn144 O149 2.095 . S
Mn144 O159 2.162 . S
Mn144 O160 2.297 . S
Mn144 O168 2.385 . S
Mn144 O169 2.209 . S
Mn144 O170 2.094 . S
Mn145 O150 2.121 . S
Mn145 N152 2.257 1_655 S
Mn145 N161 2.282 1_655 S
Mn145 O169 2.215 . S
Mn145 O171 2.117 . S
C146 O168 1.234 . S
C146 O169 1.283 . S
C147 O159 1.281 . S
C147 O160 1.236 . S
C148 O170 1.240 . S
C148 O171 1.264 . S
O149 Mn144 2.095 . S
O149 C158 1.250 . S
O150 Mn145 2.121 . S
O150 C158 1.258 . S
C151 N152 1.326 . S
C151 C155 1.460 . S
C151 H157 0.934 . S
N152 Mn145 2.257 1_455 S
N152 C151 1.326 . S
N152 C156 1.362 . S
C153 C154 1.258 . S
C153 C156 1.431 . S
C153 C173 1.449 . S
C154 C153 1.258 . S
C154 C155 1.477 . S
C154 H174 0.931 . S
C155 C151 1.460 . S
C155 C154 1.477 . S
C155 H175 0.930 . S
C156 N152 1.362 . S
C156 C153 1.431 . S
C156 C166 1.476 . S
H157 C151 0.934 . S
C158 O149 1.250 . S
C158 O150 1.258 . S
O159 Mn144 2.162 . S
O159 C147 1.281 . S
O160 Mn144 2.297 . S
O160 C147 1.236 . S
N161 Mn145 2.282 1_455 S
N161 C162 1.328 . S
N161 C166 1.318 . S
C162 N161 1.328 . S
C162 C163 1.457 . S
C162 H167 0.929 . S
C163 C162 1.457 . S
C163 C164 1.291 . S
C163 H176 0.931 . S
C164 C163 1.291 . S
C164 C165 1.373 . S
C164 H177 0.929 . S
C165 C164 1.373 . S
C165 C166 1.396 . S
C165 C172 1.403 . S
C166 C156 1.476 . S
C166 N161 1.318 . S
C166 C165 1.396 . S
H167 C162 0.929 . S
O168 Mn144 2.385 . S
O168 C146 1.234 . S
O169 Mn144 2.209 . S
O169 Mn145 2.215 . S
O169 C146 1.283 . S
O170 Mn144 2.094 . S
O170 C148 1.240 . S
O171 Mn145 2.117 . S
O171 C148 1.264 . S
C172 C165 1.403 . S
C172 C173 1.399 . S
C172 H178 0.929 . S
C173 C153 1.449 . S
C173 C172 1.399 . S
C173 H179 0.930 . S
H174 C154 0.931 . S
H175 C155 0.930 . S
H176 C163 0.931 . S
H177 C164 0.929 . S
H178 C172 0.929 . S
H179 C173 0.930 . S
Mn180 O185 2.095 . S
Mn180 O195 2.162 . S
Mn180 O196 2.297 . S
Mn180 O204 2.385 . S
Mn180 O205 2.209 . S
Mn180 O206 2.094 . S
Mn181 O186 2.121 . S
Mn181 N188 2.257 1_545 S
Mn181 N197 2.282 1_545 S
Mn181 O205 2.215 . S
Mn181 O207 2.117 . S
C182 O204 1.234 . S
C182 O205 1.283 . S
C183 O195 1.281 . S
C183 O196 1.236 . S
C184 O206 1.240 . S
C184 O207 1.264 . S
O185 Mn180 2.095 . S
O185 C194 1.250 . S
O186 Mn181 2.121 . S
O186 C194 1.258 . S
C187 N188 1.326 . S
C187 C191 1.460 . S
C187 H193 0.929 1_565 S
N188 Mn181 2.257 1_565 S
N188 C187 1.326 . S
N188 C192 1.362 . S
C189 C190 1.258 . S
C189 C192 1.431 . S
C189 C209 1.449 . S
C190 C189 1.258 . S
C190 C191 1.477 . S
C190 H210 0.931 . S
C191 C187 1.460 . S
C191 C190 1.477 . S
C191 H211 0.930 . S
C192 N188 1.362 . S
C192 C189 1.431 . S
C192 C202 1.476 . S
H193 C187 0.929 1_545 S
C194 O185 1.250 . S
C194 O186 1.258 . S
O195 Mn180 2.162 . S
O195 C183 1.281 . S
O196 Mn180 2.297 . S
O196 C183 1.236 . S
N197 Mn181 2.282 1_565 S
N197 C198 1.328 . S
N197 C202 1.318 . S
C198 N197 1.328 . S
C198 C199 1.457 . S
C198 H203 0.929 . S
C199 C198 1.457 . S
C199 C200 1.291 . S
C199 H212 0.931 . S
C200 C199 1.291 . S
C200 C201 1.373 . S
C200 H213 0.929 . S
C201 C200 1.373 . S
C201 C202 1.396 . S
C201 C208 1.403 . S
C202 C192 1.476 . S
C202 N197 1.318 . S
C202 C201 1.396 . S
H203 C198 0.929 . S
O204 Mn180 2.385 . S
O204 C182 1.234 . S
O205 Mn180 2.209 . S
O205 Mn181 2.215 . S
O205 C182 1.283 . S
O206 Mn180 2.094 . S
O206 C184 1.240 . S
O207 Mn181 2.117 . S
O207 C184 1.264 . S
C208 C201 1.403 . S
C208 C209 1.399 . S
C208 H214 0.929 . S
C209 C189 1.449 . S
C209 C208 1.399 . S
C209 H215 0.930 . S
H210 C190 0.931 . S
H211 C191 0.930 . S
H212 C199 0.931 . S
H213 C200 0.929 . S
H214 C208 0.929 . S
H215 C209 0.930 . S
Mn216 O221 2.095 . S
Mn216 O231 2.162 . S
Mn216 O232 2.297 . S
Mn216 O240 2.385 . S
Mn216 O241 2.209 . S
Mn216 O242 2.094 . S
Mn217 O222 2.121 . S
Mn217 N224 2.257 1_455 S
Mn217 N233 2.282 1_455 S
Mn217 O241 2.215 . S
Mn217 O243 2.117 . S
C218 O240 1.234 . S
C218 O241 1.283 . S
C219 O231 1.281 . S
C219 O232 1.236 . S
C220 O242 1.240 . S
C220 O243 1.264 . S
O221 Mn216 2.095 . S
O221 C230 1.250 . S
O222 Mn217 2.121 . S
O222 C230 1.258 . S
C223 N224 1.326 . S
C223 C227 1.460 . S
C223 H229 0.934 . S
N224 Mn217 2.257 1_655 S
N224 C223 1.326 . S
N224 C228 1.362 . S
C225 C226 1.258 . S
C225 C228 1.431 . S
C225 C245 1.449 . S
C226 C225 1.258 . S
C226 C227 1.477 . S
C226 H246 0.931 . S
C227 C223 1.460 . S
C227 C226 1.477 . S
C227 H247 0.930 . S
C228 N224 1.362 . S
C228 C225 1.431 . S
C228 C238 1.476 . S
H229 C223 0.934 . S
C230 O221 1.250 . S
C230 O222 1.258 . S
O231 Mn216 2.162 . S
O231 C219 1.281 . S
O232 Mn216 2.297 . S
O232 C219 1.236 . S
N233 Mn217 2.282 1_655 S
N233 C234 1.328 . S
N233 C238 1.318 . S
C234 N233 1.328 . S
C234 C235 1.457 . S
C234 H239 0.929 . S
C235 C234 1.457 . S
C235 C236 1.291 . S
C235 H248 0.931 . S
C236 C235 1.291 . S
C236 C237 1.373 . S
C236 H249 0.929 . S
C237 C236 1.373 . S
C237 C238 1.396 . S
C237 C244 1.403 . S
C238 C228 1.476 . S
C238 N233 1.318 . S
C238 C237 1.396 . S
H239 C234 0.929 . S
O240 Mn216 2.385 . S
O240 C218 1.234 . S
O241 Mn216 2.209 . S
O241 Mn217 2.215 . S
O241 C218 1.283 . S
O242 Mn216 2.094 . S
O242 C220 1.240 . S
O243 Mn217 2.117 . S
O243 C220 1.264 . S
C244 C237 1.403 . S
C244 C245 1.399 . S
C244 H250 0.929 . S
C245 C225 1.449 . S
C245 C244 1.399 . S
C245 H251 0.930 . S
H246 C226 0.931 . S
H247 C227 0.930 . S
H248 C235 0.931 . S
H249 C236 0.929 . S
H250 C244 0.929 . S
H251 C245 0.930 . S
Mn252 O257 2.095 . S
Mn252 O267 2.162 . S
Mn252 O268 2.297 . S
Mn252 O276 2.385 . S
Mn252 O277 2.209 . S
Mn252 O278 2.094 . S
Mn253 O258 2.121 . S
Mn253 N260 2.257 1_565 S
Mn253 N269 2.282 1_565 S
Mn253 O277 2.215 . S
Mn253 O279 2.117 . S
C254 O276 1.234 . S
C254 O277 1.283 . S
C255 O267 1.281 . S
C255 O268 1.236 . S
C256 O278 1.240 . S
C256 O279 1.264 . S
O257 Mn252 2.095 . S
O257 C266 1.250 . S
O258 Mn253 2.121 . S
O258 C266 1.258 . S
C259 N260 1.326 . S
C259 C263 1.460 . S
C259 H265 0.929 1_545 S
N260 Mn253 2.257 1_545 S
N260 C259 1.326 . S
N260 C264 1.362 . S
C261 C262 1.258 . S
C261 C264 1.431 . S
C261 C281 1.449 . S
C262 C261 1.258 . S
C262 C263 1.477 . S
C262 H282 0.931 . S
C263 C259 1.460 . S
C263 C262 1.477 . S
C263 H283 0.930 . S
C264 N260 1.362 . S
C264 C261 1.431 . S
C264 C274 1.476 . S
H265 C259 0.929 1_565 S
C266 O257 1.250 . S
C266 O258 1.258 . S
O267 Mn252 2.162 . S
O267 C255 1.281 . S
O268 Mn252 2.297 . S
O268 C255 1.236 . S
N269 Mn253 2.282 1_545 S
N269 C270 1.328 . S
N269 C274 1.318 . S
C270 N269 1.328 . S
C270 C271 1.457 . S
C270 H275 0.929 . S
C271 C270 1.457 . S
C271 C272 1.291 . S
C271 H284 0.931 . S
C272 C271 1.291 . S
C272 C273 1.373 . S
C272 H285 0.929 . S
C273 C272 1.373 . S
C273 C274 1.396 . S
C273 C280 1.403 . S
C274 C264 1.476 . S
C274 N269 1.318 . S
C274 C273 1.396 . S
H275 C270 0.929 . S
O276 Mn252 2.385 . S
O276 C254 1.234 . S
O277 Mn252 2.209 . S
O277 Mn253 2.215 . S
O277 C254 1.283 . S
O278 Mn252 2.094 . S
O278 C256 1.240 . S
O279 Mn253 2.117 . S
O279 C256 1.264 . S
C280 C273 1.403 . S
C280 C281 1.399 . S
C280 H286 0.929 . S
C281 C261 1.449 . S
C281 C280 1.399 . S
C281 H287 0.930 . S
H282 C262 0.931 . S
H283 C263 0.930 . S
H284 C271 0.931 . S
H285 C272 0.929 . S
H286 C280 0.929 . S
H287 C281 0.930 . S
H288 C294 0.930 . S
H289 C298 0.930 . S
H290 C303 0.929 . S
H291 C301 0.929 . S
H292 C296 0.929 1_655 S
H293 C302 0.929 1_455 S
C294 H288 0.930 . S
C294 C295 1.367 . S
C294 C302 1.378 . S
C295 C294 1.367 . S
C295 C303 1.433 . S
C296 H292 0.929 1_455 S
C296 C298 1.378 . S
C296 C300 1.350 . S
C297 C300 1.463 1_655 S
C297 C302 1.350 . S
C297 N305 1.427 . S
C298 H289 0.930 . S
C298 C296 1.378 . S
C298 C299 1.367 . S
C299 C298 1.367 . S
C299 C301 1.433 . S
C300 C296 1.350 . S
C300 C297 1.463 1_455 S
C300 N304 1.427 . S
C301 H291 0.929 . S
C301 C299 1.433 . S
C301 N304 1.384 . S
C302 H293 0.929 1_655 S
C302 C294 1.378 . S
C302 C297 1.350 . S
C303 H290 0.929 . S
C303 C295 1.433 . S
C303 N305 1.384 . S
N304 C300 1.427 . S
N304 C301 1.384 . S
N305 C297 1.427 . S
N305 C303 1.384 . S
H306 C312 0.930 . S
H307 C316 0.930 . S
H308 C321 0.929 . S
H309 C319 0.929 . S
H310 C314 0.929 . S
H311 C320 0.929 . S
C312 H306 0.930 . S
C312 C313 1.367 . S
C312 C320 1.378 . S
C313 C312 1.367 . S
C313 C321 1.433 . S
C314 H310 0.929 . S
C314 C316 1.378 . S
C314 C318 1.350 . S
C315 C318 1.463 1_545 S
C315 C320 1.350 . S
C315 N323 1.427 . S
C316 H307 0.930 . S
C316 C314 1.378 . S
C316 C317 1.367 . S
C317 C316 1.367 . S
C317 C319 1.433 . S
C318 C314 1.350 . S
C318 C315 1.463 1_565 S
C318 N322 1.427 . S
C319 H309 0.929 . S
C319 C317 1.433 . S
C319 N322 1.384 . S
C320 H311 0.929 . S
C320 C312 1.378 . S
C320 C315 1.350 . S
C321 H308 0.929 . S
C321 C313 1.433 . S
C321 N323 1.384 . S
N322 C318 1.427 . S
N322 C319 1.384 . S
N323 C315 1.427 . S
N323 C321 1.384 . S
H324 C330 0.930 . S
H325 C334 0.930 . S
H326 C339 0.929 . S
H327 C337 0.929 . S
H328 C332 0.929 . S
H329 C338 0.929 . S
C330 H324 0.930 . S
C330 C331 1.367 . S
C330 C338 1.378 . S
C331 C330 1.367 . S
C331 C339 1.433 . S
C332 H328 0.929 . S
C332 C334 1.378 . S
C332 C336 1.350 . S
C333 C336 1.463 1_655 S
C333 C338 1.350 . S
C333 N341 1.427 . S
C334 H325 0.930 . S
C334 C332 1.378 . S
C334 C335 1.367 . S
C335 C334 1.367 . S
C335 C337 1.433 . S
C336 C332 1.350 . S
C336 C333 1.463 1_455 S
C336 N340 1.427 . S
C337 H327 0.929 . S
C337 C335 1.433 . S
C337 N340 1.384 . S
C338 H329 0.929 . S
C338 C330 1.378 . S
C338 C333 1.350 . S
C339 H326 0.929 . S
C339 C331 1.433 . S
C339 N341 1.384 . S
N340 C336 1.427 . S
N340 C337 1.384 . S
N341 C333 1.427 . S
N341 C339 1.384 . S
H342 C348 0.930 . S
H343 C352 0.930 . S
H344 C357 0.929 . S
H345 C355 0.929 . S
H346 C350 0.929 . S
H347 C356 0.929 . S
C348 H342 0.930 . S
C348 C349 1.367 . S
C348 C356 1.378 . S
C349 C348 1.367 . S
C349 C357 1.433 . S
C350 H346 0.929 . S
C350 C352 1.378 . S
C350 C354 1.350 . S
C351 C354 1.463 1_545 S
C351 C356 1.350 . S
C351 N359 1.427 . S
C352 H343 0.930 . S
C352 C350 1.378 . S
C352 C353 1.367 . S
C353 C352 1.367 . S
C353 C355 1.433 . S
C354 C350 1.350 . S
C354 C351 1.463 1_565 S
C354 N358 1.427 . S
C355 H345 0.929 . S
C355 C353 1.433 . S
C355 N358 1.384 . S
C356 H347 0.929 . S
C356 C348 1.378 . S
C356 C351 1.350 . S
C357 H344 0.929 . S
C357 C349 1.433 . S
C357 N359 1.384 . S
N358 C354 1.427 . S
N358 C355 1.384 . S
N359 C351 1.427 . S
N359 C357 1.384 . S
H360 C366 0.930 . S
H361 C370 0.930 . S
H362 C375 0.929 . S
H363 C373 0.929 . S
H364 C368 0.929 . S
H365 C374 0.929 . S
C366 H360 0.930 . S
C366 C367 1.367 . S
C366 C374 1.378 . S
C367 C366 1.367 . S
C367 C375 1.433 . S
C368 H364 0.929 . S
C368 C370 1.378 . S
C368 C372 1.350 . S
C369 C372 1.463 . S
C369 C374 1.350 . S
C369 N377 1.427 . S
C370 H361 0.930 . S
C370 C368 1.378 . S
C370 C371 1.367 . S
C371 C370 1.367 . S
C371 C373 1.433 . S
C372 C368 1.350 . S
C372 C369 1.463 . S
C372 N376 1.427 . S
C373 H363 0.929 . S
C373 C371 1.433 . S
C373 N376 1.384 . S
C374 H365 0.929 . S
C374 C366 1.378 . S
C374 C369 1.350 . S
C375 H362 0.929 . S
C375 C367 1.433 . S
C375 N377 1.384 . S
N376 C372 1.427 . S
N376 C373 1.384 . S
N377 C369 1.427 . S
N377 C375 1.384 . S
H378 C384 0.930 . S
H379 C388 0.930 . S
H380 C393 0.929 . S
H381 C391 0.929 1_655 S
H382 C386 0.929 . S
H383 C392 0.929 . S
C384 H378 0.930 . S
C384 C385 1.367 . S
C384 C392 1.378 . S
C385 C384 1.367 . S
C385 C393 1.433 . S
C386 H382 0.929 . S
C386 C388 1.378 . S
C386 C390 1.350 . S
C387 C390 1.463 . S
C387 C392 1.350 . S
C387 N395 1.427 . S
C388 H379 0.930 . S
C388 C386 1.378 . S
C388 C389 1.367 . S
C389 C388 1.367 . S
C389 C391 1.433 . S
C390 C386 1.350 . S
C390 C387 1.463 . S
C390 N394 1.427 . S
C391 H381 0.929 1_455 S
C391 C389 1.433 . S
C391 N394 1.384 . S
C392 H383 0.929 . S
C392 C384 1.378 . S
C392 C387 1.350 . S
C393 H380 0.929 . S
C393 C385 1.433 . S
C393 N395 1.384 . S
N394 C390 1.427 . S
N394 C391 1.384 . S
N395 C387 1.427 . S
N395 C393 1.384 . S
H396 C402 0.930 . S
H397 C406 0.930 . S
H398 C411 0.929 1_545 S
H399 C409 0.929 . S
H400 C404 0.929 . S
H401 C410 0.929 . S
C402 H396 0.930 . S
C402 C403 1.367 . S
C402 C410 1.378 . S
C403 C402 1.367 . S
C403 C411 1.433 . S
C404 H400 0.929 . S
C404 C406 1.378 . S
C404 C408 1.350 . S
C405 C408 1.463 . S
C405 C410 1.350 . S
C405 N413 1.427 . S
C406 H397 0.930 . S
C406 C404 1.378 . S
C406 C407 1.367 . S
C407 C406 1.367 . S
C407 C409 1.433 . S
C408 C404 1.350 . S
C408 C405 1.463 . S
C408 N412 1.427 . S
C409 H399 0.929 . S
C409 C407 1.433 . S
C409 N412 1.384 . S
C410 H401 0.929 . S
C410 C402 1.378 . S
C410 C405 1.350 . S
C411 H398 0.929 1_565 S
C411 C403 1.433 . S
C411 N413 1.384 . S
N412 C408 1.427 . S
N412 C409 1.384 . S
N413 C405 1.427 . S
N413 C411 1.384 . S
H414 C420 0.930 . S
H415 C424 0.930 . S
H416 C429 0.929 . S
H417 C427 0.929 1_455 S
H418 C422 0.929 . S
H419 C428 0.929 . S
C420 H414 0.930 . S
C420 C421 1.367 . S
C420 C428 1.378 . S
C421 C420 1.367 . S
C421 C429 1.433 . S
C422 H418 0.929 . S
C422 C424 1.378 . S
C422 C426 1.350 . S
C423 C426 1.463 . S
C423 C428 1.350 . S
C423 N431 1.427 . S
C424 H415 0.930 . S
C424 C422 1.378 . S
C424 C425 1.367 . S
C425 C424 1.367 . S
C425 C427 1.433 . S
C426 C422 1.350 . S
C426 C423 1.463 . S
C426 N430 1.427 . S
C427 H417 0.929 1_655 S
C427 C425 1.433 . S
C427 N430 1.384 . S
C428 H419 0.929 . S
C428 C420 1.378 . S
C428 C423 1.350 . S
C429 H416 0.929 . S
C429 C421 1.433 . S
C429 N431 1.384 . S
N430 C426 1.427 . S
N430 C427 1.384 . S
N431 C423 1.427 . S
N431 C429 1.384 . S
H432 C438 0.930 . S
H433 C442 0.930 . S
H434 C447 0.929 . S
H435 C445 0.929 1_556 S
H436 C440 0.929 . S
H437 C446 0.929 . S
C438 H432 0.930 . S
C438 C439 1.367 . S
C438 C446 1.378 . S
C439 C438 1.367 . S
C439 C447 1.433 1_545 S
C440 H436 0.929 . S
C440 C442 1.378 . S
C440 C444 1.316 1_554 S
C441 C444 1.484 . S
C441 C446 1.350 . S
C441 N449 1.427 . S
C442 H433 0.930 . S
C442 C440 1.378 . S
C442 C443 1.367 . S
C443 C442 1.367 . S
C443 C445 1.433 . S
C444 C440 1.316 1_556 S
C444 C441 1.484 . S
C444 N448 1.443 . S
C445 H435 0.929 1_554 S
C445 C443 1.433 . S
C445 N448 1.384 1_554 S
C446 H437 0.929 . S
C446 C438 1.378 . S
C446 C441 1.350 . S
C447 H434 0.929 . S
C447 C439 1.433 1_565 S
C447 N449 1.384 1_565 S
N448 C444 1.443 . S
N448 C445 1.384 1_556 S
N449 C441 1.427 . S
N449 C447 1.384 1_545 S
H450 C456 0.930 . S
H451 C460 0.930 1_655 S
H452 C465 0.929 . S
H453 C463 0.929 . S
H454 C458 0.929 1_556 S
H455 C464 0.929 . S
C456 H450 0.930 . S
C456 C457 1.367 . S
C456 C464 1.378 1_556 S
C457 C456 1.367 . S
C457 C465 1.433 . S
C458 H454 0.929 1_554 S
C458 C460 1.378 . S
C458 C462 1.350 . S
C459 C462 1.463 1_556 S
C459 C464 1.350 1_556 S
C459 N467 1.427 . S
C460 H451 0.930 1_455 S
C460 C458 1.378 . S
C460 C461 1.367 . S
C461 C460 1.367 . S
C461 C463 1.433 . S
C462 C458 1.350 . S
C462 C459 1.463 1_554 S
C462 N466 1.427 . S
C463 H453 0.929 . S
C463 C461 1.433 . S
C463 N466 1.384 . S
C464 H455 0.929 . S
C464 C456 1.378 1_554 S
C464 C459 1.350 1_554 S
C465 H452 0.929 . S
C465 C457 1.433 . S
C465 N467 1.384 . S
N466 C462 1.427 . S
N466 C463 1.384 . S
N467 C459 1.427 . S
N467 C465 1.384 . S
H468 C474 0.930 . S
H469 C478 0.930 . S
H470 C483 0.929 . S
H471 C481 0.942 . S
H472 C476 0.929 . S
H473 C482 0.929 1_556 S
C474 H468 0.930 . S
C474 C475 1.367 . S
C474 C482 1.378 . S
C475 C474 1.367 . S
C475 C483 1.433 . S
C476 H472 0.929 . S
C476 C478 1.378 . S
C476 C480 1.350 . S
C477 C480 1.463 . S
C477 C482 1.350 1_556 S
C477 N485 1.427 1_556 S
C478 H469 0.930 . S
C478 C476 1.378 . S
C478 C479 1.367 . S
C479 C478 1.367 . S
C479 C481 1.433 . S
C480 C476 1.350 . S
C480 C477 1.463 . S
C480 N484 1.427 . S
C481 H471 0.942 . S
C481 C479 1.433 . S
C481 N484 1.384 . S
C482 H473 0.929 1_554 S
C482 C474 1.378 . S
C482 C477 1.350 1_554 S
C483 H470 0.929 . S
C483 C475 1.433 . S
C483 N485 1.384 . S
N484 C480 1.427 . S
N484 C481 1.384 . S
N485 C477 1.427 1_554 S
N485 C483 1.384 . S
H486 C492 0.930 . S
H487 C496 0.930 . S
H488 C501 0.929 . S
H489 C499 0.929 1_455 S
H490 C494 0.929 . S
H491 C500 0.929 . S
C492 H486 0.930 . S
C492 C493 1.367 . S
C492 C500 1.378 . S
C493 C492 1.367 . S
C493 C501 1.433 . S
C494 H490 0.929 . S
C494 C496 1.378 . S
C494 C498 1.350 . S
C495 C498 1.463 1_556 S
C495 C500 1.350 . S
C495 N503 1.427 . S
C496 H487 0.930 . S
C496 C494 1.378 . S
C496 C497 1.367 . S
C497 C496 1.367 . S
C497 C499 1.433 . S
C498 C494 1.350 . S
C498 C495 1.463 1_554 S
C498 N502 1.427 . S
C499 H489 0.929 1_655 S
C499 C497 1.433 . S
C499 N502 1.384 . S
C500 H491 0.929 . S
C500 C492 1.378 . S
C500 C495 1.350 . S
C501 H488 0.929 . S
C501 C493 1.433 . S
C501 N503 1.384 . S
N502 C498 1.427 . S
N502 C499 1.384 . S
N503 C495 1.427 . S
N503 C501 1.384 . S
H504 C510 0.930 . S
H505 C514 0.930 . S
H506 C519 0.929 . S
H507 C517 0.929 . S
H508 C512 0.929 . S
H509 C518 0.929 . S
C510 H504 0.930 . S
C510 C511 1.367 . S
C510 C518 1.378 . S
C511 C510 1.367 . S
C511 C519 1.433 . S
C512 H508 0.929 . S
C512 C514 1.378 . S
C512 C516 1.350 . S
C513 C516 1.463 . S
C513 C518 1.350 . S
C513 N521 1.427 . S
C514 H505 0.930 . S
C514 C512 1.378 . S
C514 C515 1.367 . S
C515 C514 1.367 . S
C515 C517 1.433 . S
C516 C512 1.350 . S
C516 C513 1.463 . S
C516 N520 1.427 . S
C517 H507 0.929 . S
C517 C515 1.433 . S
C517 N520 1.384 . S
C518 H509 0.929 . S
C518 C510 1.378 . S
C518 C513 1.350 . S
C519 H506 0.929 . S
C519 C511 1.433 . S
C519 N521 1.384 . S
N520 C516 1.427 . S
N520 C517 1.384 . S
N521 C513 1.427 . S
N521 C519 1.384 . S
H522 C528 0.930 . S
H523 C532 0.930 . S
H524 C537 0.929 . S
H525 C535 0.929 . S
H526 C530 0.929 . S
H527 C536 0.929 . S
C528 H522 0.930 . S
C528 C529 1.367 . S
C528 C536 1.378 . S
C529 C528 1.367 . S
C529 C537 1.433 . S
C530 H526 0.929 . S
C530 C532 1.378 . S
C530 C534 1.350 . S
C531 C534 1.463 . S
C531 C536 1.350 . S
C531 N539 1.427 . S
C532 H523 0.930 . S
C532 C530 1.378 . S
C532 C533 1.367 . S
C533 C532 1.367 . S
C533 C535 1.433 . S
C534 C530 1.350 . S
C534 C531 1.463 . S
C534 N538 1.427 . S
C535 H525 0.929 . S
C535 C533 1.433 . S
C535 N538 1.384 . S
C536 H527 0.929 . S
C536 C528 1.378 . S
C536 C531 1.350 . S
C537 H524 0.929 . S
C537 C529 1.433 . S
C537 N539 1.384 . S
N538 C534 1.427 . S
N538 C535 1.384 . S
N539 C531 1.427 . S
N539 C537 1.384 . S
H540 C546 0.930 . S
H541 C550 0.930 . S
H542 C555 0.929 . S
H543 C553 0.929 . S
H544 C548 0.929 . S
H545 C554 0.929 . S
C546 H540 0.930 . S
C546 C547 1.367 . S
C546 C554 1.378 . S
C547 C546 1.367 . S
C547 C555 1.433 . S
C548 H544 0.929 . S
C548 C550 1.378 . S
C548 C552 1.350 . S
C549 C552 1.463 . S
C549 C554 1.350 . S
C549 N557 1.427 . S
C550 H541 0.930 . S
C550 C548 1.378 . S
C550 C551 1.367 . S
C551 C550 1.367 . S
C551 C553 1.433 . S
C552 C548 1.350 . S
C552 C549 1.463 . S
C552 N556 1.427 . S
C553 H543 0.929 . S
C553 C551 1.433 . S
C553 N556 1.384 . S
C554 H545 0.929 . S
C554 C546 1.378 . S
C554 C549 1.350 . S
C555 H542 0.929 . S
C555 C547 1.433 . S
C555 N557 1.384 . S
N556 C552 1.427 . S
N556 C553 1.384 . S
N557 C549 1.427 . S
N557 C555 1.384 . S
H558 C564 0.930 . S
H559 C568 0.930 . S
H560 C573 0.929 . S
H561 C571 0.929 . S
H562 C566 0.929 . S
H563 C572 0.929 . S
C564 H558 0.930 . S
C564 C565 1.367 . S
C564 C572 1.378 . S
C565 C564 1.367 . S
C565 C573 1.433 . S
C566 H562 0.929 . S
C566 C568 1.378 . S
C566 C570 1.350 . S
C567 C570 1.463 . S
C567 C572 1.350 . S
C567 N575 1.427 . S
C568 H559 0.930 . S
C568 C566 1.378 . S
C568 C569 1.367 . S
C569 C568 1.367 . S
C569 C571 1.433 . S
C570 C566 1.350 . S
C570 C567 1.463 . S
C570 N574 1.427 . S
C571 H561 0.929 . S
C571 C569 1.433 . S
C571 N574 1.384 . S
C572 H563 0.929 . S
C572 C564 1.378 . S
C572 C567 1.350 . S
C573 H560 0.929 . S
C573 C565 1.433 . S
C573 N575 1.384 . S
N574 C570 1.427 . S
N574 C571 1.384 . S
N575 C567 1.427 . S
N575 C573 1.384 . S
C295 C76 1.391 . S
C299 C4 1.392 . S
C313 C122 1.541 . S
C317 C50 1.536 . S
C331 C148 1.409 . S
C335 C220 1.408 . S
C349 C184 1.437 . S
C353 C256 1.437 . S
C367 C39 0.982 1_545 S
C371 C3 0.973 . S
C385 C38 1.096 . S
C389 C74 1.147 1_455 S
C403 C111 0.982 1_565 S
C407 C75 0.969 . S
C421 C110 1.095 . S
C425 C2 1.144 1_655 S
C439 C254 1.090 1_545 S
C443 C147 1.080 . S
C457 C183 1.023 . S
C461 C146 1.016 1_455 S
C475 C219 1.076 . S
C479 C182 1.078 1_565 S
C493 C255 1.017 . S
C497 C218 1.025 1_655 S
C511 C14 1.688 . S
C515 C194 1.683 . S
C529 C230 1.663 . S
C533 C40 1.668 . S
C547 C86 1.685 . S
C551 C266 1.685 . S
C565 C112 1.668 . S
C569 C158 1.661 . S
