# Generated by pormake.
# Topology neb, (4)-cn, num edge types: 1
# Building blocks:
#     Node 0, Type 0, BuildingBlock: AZAVOO_clean_sbu_0, # of connection points: 4
#     Node 1, Type 0, BuildingBlock: AZAVOO_clean_sbu_0, # of connection points: 4
#     Node 2, Type 0, BuildingBlock: AZAVOO_clean_sbu_0, # of connection points: 4
#     Node 3, Type 0, BuildingBlock: AZAVOO_clean_sbu_0, # of connection points: 4
#     Node 4, Type 0, BuildingBlock: AZAVOO_clean_sbu_0, # of connection points: 4
#     Node 5, Type 0, BuildingBlock: AZAVOO_clean_sbu_0, # of connection points: 4
#     Node 6, Type 0, BuildingBlock: AZAVOO_clean_sbu_0, # of connection points: 4
#     Node 7, Type 0, BuildingBlock: AZAVOO_clean_sbu_0, # of connection points: 4
#     Node 8, Type 0, BuildingBlock: AZAVOO_clean_sbu_0, # of connection points: 4
#     Node 9, Type 0, BuildingBlock: AZAVOO_clean_sbu_0, # of connection points: 4
#     Node 10, Type 0, BuildingBlock: AZAVOO_clean_sbu_0, # of connection points: 4
#     Node 11, Type 0, BuildingBlock: AZAVOO_clean_sbu_0, # of connection points: 4
#     Node 12, Type 0, BuildingBlock: AZAVOO_clean_sbu_0, # of connection points: 4
#     Node 13, Type 0, BuildingBlock: AZAVOO_clean_sbu_0, # of connection points: 4
#     Node 14, Type 0, BuildingBlock: AZAVOO_clean_sbu_0, # of connection points: 4
#     Node 15, Type 0, BuildingBlock: AZAVOO_clean_sbu_0, # of connection points: 4
#     Edge 16, Type (0, 0), BuildingBlock: UVAHIK_clean_linker_0, # of connection points: 2
#     Edge 17, Type (0, 0), BuildingBlock: UVAHIK_clean_linker_0, # of connection points: 2
#     Edge 18, Type (0, 0), BuildingBlock: UVAHIK_clean_linker_0, # of connection points: 2
#     Edge 19, Type (0, 0), BuildingBlock: UVAHIK_clean_linker_0, # of connection points: 2
#     Edge 20, Type (0, 0), BuildingBlock: UVAHIK_clean_linker_0, # of connection points: 2
#     Edge 21, Type (0, 0), BuildingBlock: UVAHIK_clean_linker_0, # of connection points: 2
#     Edge 22, Type (0, 0), BuildingBlock: UVAHIK_clean_linker_0, # of connection points: 2
#     Edge 23, Type (0, 0), BuildingBlock: UVAHIK_clean_linker_0, # of connection points: 2
#     Edge 24, Type (0, 0), BuildingBlock: UVAHIK_clean_linker_0, # of connection points: 2
#     Edge 25, Type (0, 0), BuildingBlock: UVAHIK_clean_linker_0, # of connection points: 2
#     Edge 26, Type (0, 0), BuildingBlock: UVAHIK_clean_linker_0, # of connection points: 2
#     Edge 27, Type (0, 0), BuildingBlock: UVAHIK_clean_linker_0, # of connection points: 2
#     Edge 28, Type (0, 0), BuildingBlock: UVAHIK_clean_linker_0, # of connection points: 2
#     Edge 29, Type (0, 0), BuildingBlock: UVAHIK_clean_linker_0, # of connection points: 2
#     Edge 30, Type (0, 0), BuildingBlock: UVAHIK_clean_linker_0, # of connection points: 2
#     Edge 31, Type (0, 0), BuildingBlock: UVAHIK_clean_linker_0, # of connection points: 2
#     Edge 32, Type (0, 0), BuildingBlock: UVAHIK_clean_linker_0, # of connection points: 2
#     Edge 33, Type (0, 0), BuildingBlock: UVAHIK_clean_linker_0, # of connection points: 2
#     Edge 34, Type (0, 0), BuildingBlock: UVAHIK_clean_linker_0, # of connection points: 2
#     Edge 35, Type (0, 0), BuildingBlock: UVAHIK_clean_linker_0, # of connection points: 2
#     Edge 36, Type (0, 0), BuildingBlock: UVAHIK_clean_linker_0, # of connection points: 2
#     Edge 37, Type (0, 0), BuildingBlock: UVAHIK_clean_linker_0, # of connection points: 2
#     Edge 38, Type (0, 0), BuildingBlock: UVAHIK_clean_linker_0, # of connection points: 2
#     Edge 39, Type (0, 0), BuildingBlock: UVAHIK_clean_linker_0, # of connection points: 2
#     Edge 40, Type (0, 0), BuildingBlock: UVAHIK_clean_linker_0, # of connection points: 2
#     Edge 41, Type (0, 0), BuildingBlock: UVAHIK_clean_linker_0, # of connection points: 2
#     Edge 42, Type (0, 0), BuildingBlock: UVAHIK_clean_linker_0, # of connection points: 2
#     Edge 43, Type (0, 0), BuildingBlock: UVAHIK_clean_linker_0, # of connection points: 2
#     Edge 44, Type (0, 0), BuildingBlock: UVAHIK_clean_linker_0, # of connection points: 2
#     Edge 45, Type (0, 0), BuildingBlock: UVAHIK_clean_linker_0, # of connection points: 2
#     Edge 46, Type (0, 0), BuildingBlock: UVAHIK_clean_linker_0, # of connection points: 2
#     Edge 47, Type (0, 0), BuildingBlock: UVAHIK_clean_linker_0, # of connection points: 2
# Relax obj value: 0.100
# Max RMSD: 0.147
# Mean RMSD: 0.147
data_MOF--net-neb--node1-AZAVOO_clean_sbu_0--edge1-UVAHIK_clean_linker_0
_symmetry_space_group_name_H-M    P1
_symmetry_Int_Tables_number       1
_symmetry_cell_setting            triclinic
loop_
_symmetry_equiv_pos_as_xyz
'x, y, z'
_cell_length_a     62.685092
_cell_length_b     26.547769
_cell_length_c     93.278374
_cell_angle_alpha  97.394154
_cell_angle_beta   89.832392
_cell_angle_gamma 89.77707
loop_
_atom_site_label
_atom_site_type_symbol
_atom_site_fract_x
_atom_site_fract_y
_atom_site_fract_z
_atom_type_partial_charge
Mg0 Mg 0.10472 0.18622 0.44414 0.0
O1 O 0.11127 0.1249 0.42492 0.0
O2 O 0.13056 0.15957 0.40861 0.0
Mg3 Mg 0.13576 0.24337 0.41725 0.0
C4 C 0.12107 0.12157 0.41281 0.0
C5 C 0.08169 0.14419 0.46838 0.0
O6 O 0.08086 0.19368 0.47199 0.0
O7 O 0.13901 0.18099 0.45198 0.0
O8 O 0.15639 0.22071 0.43573 0.0
O9 O 0.07529 0.21052 0.43344 0.0
O10 O 0.10736 0.24288 0.43107 0.0
C11 C 0.15614 0.1988 0.44716 0.0
C12 C 0.08749 0.24164 0.42766 0.0
O13 O 0.09243 0.12655 0.45728 0.0
Mg14 Mg 0.10838 0.06191 0.79404 0.0
O15 O 0.11614 0.13071 0.81088 0.0
O16 O 0.13611 0.10225 0.828 0.0
Mg17 Mg 0.14 0.01619 0.82264 0.0
C18 C 0.12668 0.13832 0.82268 0.0
C19 C 0.08302 0.09359 0.76937 0.0
O20 O 0.07941 0.04464 0.76883 0.0
O21 O 0.14239 0.05996 0.78533 0.0
O22 O 0.16016 0.02666 0.80262 0.0
O23 O 0.07871 0.04784 0.80593 0.0
O24 O 0.11034 0.01518 0.8101 0.0
C25 C 0.15956 0.04292 0.79032 0.0
C26 C 0.09055 0.02196 0.81368 0.0
O27 O 0.09657 0.11396 0.77839 0.0
Mg28 Mg 0.89208 0.80217 0.54411 0.0
O29 O 0.88532 0.86326 0.56334 0.0
O30 O 0.86568 0.82852 0.57946 0.0
Mg31 Mg 0.86043 0.74487 0.57066 0.0
C32 C 0.87533 0.86651 0.57538 0.0
C33 C 0.91579 0.84441 0.5202 0.0
O34 O 0.91672 0.79494 0.5166 0.0
O35 O 0.85796 0.80781 0.536 0.0
O36 O 0.84018 0.76798 0.55205 0.0
O37 O 0.92127 0.77754 0.55498 0.0
O38 O 0.88911 0.74529 0.5571 0.0
C39 C 0.84069 0.79007 0.54065 0.0
C40 C 0.90893 0.74643 0.56065 0.0
O41 O 0.90474 0.862 0.53115 0.0
Mg42 Mg 0.89359 0.92788 0.1934 0.0
O43 O 0.8852 0.85995 0.17639 0.0
O44 O 0.86704 0.89079 0.1588 0.0
Mg45 Mg 0.86346 0.97675 0.16459 0.0
C46 C 0.87545 0.85374 0.16427 0.0
C47 C 0.91729 0.89458 0.21854 0.0
O48 O 0.92066 0.94374 0.21958 0.0
O49 O 0.85943 0.93172 0.20177 0.0
O50 O 0.84252 0.96601 0.18429 0.0
O51 O 0.92373 0.94057 0.18176 0.0
O52 O 0.89262 0.97547 0.17749 0.0
C53 C 0.84258 0.9495 0.19657 0.0
C54 C 0.91239 0.96763 0.17405 0.0
O55 O 0.90441 0.87461 0.20899 0.0
Mg56 Mg 0.10322 0.68684 0.94355 0.0
O57 O 0.1113 0.62505 0.92468 0.0
O58 O 0.13222 0.65962 0.9092 0.0
Mg59 Mg 0.13711 0.74322 0.91801 0.0
C60 C 0.12219 0.62169 0.91299 0.0
C61 C 0.07853 0.64552 0.96723 0.0
O62 O 0.07776 0.69502 0.9708 0.0
O63 O 0.13656 0.68226 0.95292 0.0
O64 O 0.15607 0.71999 0.93721 0.0
O65 O 0.07497 0.71055 0.93164 0.0
O66 O 0.10728 0.7431 0.9305 0.0
C67 C 0.15434 0.69875 0.9487 0.0
C68 C 0.08774 0.74152 0.92627 0.0
O69 O 0.08967 0.62759 0.95636 0.0
Mg70 Mg 0.10639 0.55797 0.29535 0.0
O71 O 0.11435 0.62667 0.31218 0.0
O72 O 0.13433 0.59789 0.32924 0.0
Mg73 Mg 0.13818 0.51183 0.32379 0.0
C74 C 0.12493 0.6341 0.32396 0.0
C75 C 0.08138 0.58976 0.2705 0.0
O76 O 0.07809 0.54061 0.26967 0.0
O77 O 0.14032 0.55589 0.28653 0.0
O78 O 0.15826 0.52237 0.30371 0.0
O79 O 0.07679 0.54405 0.3073 0.0
O80 O 0.10838 0.51107 0.31139 0.0
C81 C 0.15754 0.53875 0.29142 0.0
C82 C 0.08861 0.51798 0.31501 0.0
O83 O 0.09457 0.61019 0.27977 0.0
Mg84 Mg 0.89314 0.30053 0.04579 0.0
O85 O 0.88541 0.36168 0.06481 0.0
O86 O 0.86732 0.32547 0.08141 0.0
Mg87 Mg 0.86271 0.24156 0.07259 0.0
C88 C 0.87598 0.36421 0.07703 0.0
C89 C 0.91541 0.34364 0.02144 0.0
O90 O 0.91666 0.29419 0.01785 0.0
O91 O 0.85897 0.30302 0.03771 0.0
O92 O 0.84182 0.26295 0.05398 0.0
O93 O 0.92277 0.27893 0.05678 0.0
O94 O 0.89117 0.24388 0.05894 0.0
C95 C 0.84196 0.2845 0.04248 0.0
C96 C 0.91098 0.24689 0.06251 0.0
O97 O 0.9047 0.3608 0.0326 0.0
Mg98 Mg 0.89227 0.42855 0.69323 0.0
O99 O 0.88377 0.35992 0.67651 0.0
O100 O 0.86361 0.38911 0.65961 0.0
Mg101 Mg 0.8601 0.47522 0.66504 0.0
C102 C 0.87296 0.3527 0.66482 0.0
C103 C 0.91803 0.39659 0.71765 0.0
O104 O 0.92163 0.44553 0.71818 0.0
O105 O 0.8585 0.43138 0.7024 0.0
O106 O 0.84045 0.46506 0.6853 0.0
O107 O 0.92167 0.44185 0.68093 0.0
O108 O 0.89007 0.47537 0.67718 0.0
C109 C 0.84128 0.44881 0.69761 0.0
C110 C 0.90973 0.46806 0.67333 0.0
O111 O 0.90434 0.37627 0.70873 0.0
Mg112 Mg 0.60902 0.17656 0.94557 0.0
O113 O 0.6173 0.11314 0.92723 0.0
O114 O 0.63596 0.14728 0.91048 0.0
Mg115 Mg 0.64066 0.23173 0.91862 0.0
C116 C 0.62709 0.10923 0.9151 0.0
C117 C 0.58491 0.13704 0.9697 0.0
O118 O 0.58378 0.1867 0.97277 0.0
O119 O 0.64283 0.1748 0.95437 0.0
O120 O 0.66067 0.21238 0.93787 0.0
O121 O 0.57999 0.19626 0.93371 0.0
O122 O 0.61163 0.23149 0.93181 0.0
C123 C 0.66006 0.19244 0.94964 0.0
C124 C 0.59202 0.22737 0.9278 0.0
O125 O 0.59648 0.11832 0.95913 0.0
Mg126 Mg 0.60732 0.05939 0.29278 0.0
O127 O 0.61481 0.12278 0.31123 0.0
O128 O 0.63507 0.0896 0.32733 0.0
Mg129 Mg 0.63986 0.00496 0.31937 0.0
C130 C 0.6253 0.12722 0.32304 0.0
C131 C 0.58225 0.09775 0.26907 0.0
O132 O 0.58081 0.04802 0.26656 0.0
O133 O 0.64112 0.06275 0.28384 0.0
O134 O 0.65948 0.02485 0.30001 0.0
O135 O 0.57853 0.03835 0.30464 0.0
O136 O 0.61057 0.00455 0.30648 0.0
C137 C 0.65856 0.04532 0.28835 0.0
C138 C 0.59091 0.00779 0.31053 0.0
O139 O 0.59423 0.11715 0.27925 0.0
Mg140 Mg 0.39116 0.80344 0.04189 0.0
O141 O 0.38313 0.86503 0.06068 0.0
O142 O 0.36483 0.82926 0.07723 0.0
Mg143 Mg 0.36206 0.74396 0.06923 0.0
C144 C 0.3733 0.86808 0.07277 0.0
C145 C 0.41317 0.84625 0.01746 0.0
O146 O 0.41467 0.79675 0.01408 0.0
O147 O 0.35665 0.80311 0.0339 0.0
O148 O 0.34112 0.76001 0.0502 0.0
O149 O 0.4212 0.78482 0.05303 0.0
O150 O 0.39014 0.74747 0.05536 0.0
C151 C 0.34043 0.78125 0.03867 0.0
C152 C 0.40988 0.75236 0.05894 0.0
O153 O 0.40206 0.86359 0.02841 0.0
Mg154 Mg 0.39401 0.93492 0.69294 0.0
O155 O 0.38569 0.87251 0.67439 0.0
O156 O 0.36583 0.90686 0.65832 0.0
Mg157 Mg 0.36152 0.99138 0.66661 0.0
C158 C 0.37526 0.86872 0.66256 0.0
C159 C 0.4215 0.8469 0.70043 0.0
O160 O 0.42623 0.84868 0.68677 0.0
O161 O 0.36024 0.9325 0.70205 0.0
O162 O 0.342 0.97104 0.68594 0.0
O163 O 0.42277 0.95581 0.68092 0.0
O164 O 0.39084 0.99039 0.6794 0.0
C165 C 0.34285 0.95034 0.69757 0.0
C166 C 0.41043 0.98691 0.67522 0.0
O167 O 0.40696 0.87611 0.70632 0.0
Mg168 Mg 0.60815 0.68053 0.44349 0.0
O169 O 0.61596 0.6164 0.42525 0.0
O170 O 0.63599 0.64863 0.40885 0.0
Mg171 Mg 0.64032 0.73362 0.41643 0.0
C172 C 0.62641 0.61132 0.41338 0.0
C173 C 0.58407 0.6422 0.46787 0.0
O174 O 0.58294 0.6919 0.47081 0.0
O175 O 0.64197 0.67844 0.45234 0.0
O176 O 0.66006 0.71565 0.43589 0.0
O177 O 0.57923 0.70044 0.43159 0.0
O178 O 0.61108 0.73456 0.42951 0.0
C179 C 0.65927 0.69604 0.4477 0.0
C180 C 0.59144 0.73084 0.42554 0.0
O181 O 0.59549 0.62314 0.45726 0.0
Mg182 Mg 0.6074 0.55676 0.7952 0.0
O183 O 0.61579 0.61946 0.81365 0.0
O184 O 0.63455 0.58488 0.83024 0.0
Mg185 Mg 0.63945 0.50062 0.82181 0.0
C186 C 0.62559 0.6231 0.82572 0.0
C187 C 0.58022 0.64501 0.78751 0.0
O188 O 0.57546 0.64368 0.80118 0.0
O189 O 0.6412 0.55892 0.78627 0.0
O190 O 0.65934 0.52119 0.80259 0.0
O191 O 0.5785 0.53631 0.80717 0.0
O192 O 0.61034 0.50141 0.80882 0.0
C193 C 0.65857 0.54154 0.79089 0.0
C194 C 0.59073 0.50514 0.81294 0.0
O195 O 0.59468 0.61543 0.78168 0.0
Mg196 Mg 0.39003 0.31371 0.54248 0.0
O197 O 0.38218 0.37792 0.56068 0.0
O198 O 0.3627 0.34543 0.5773 0.0
Mg199 Mg 0.3585 0.26036 0.5698 0.0
C200 C 0.37197 0.38291 0.57265 0.0
C201 C 0.4137 0.35206 0.51794 0.0
O202 O 0.41494 0.30235 0.51506 0.0
O203 O 0.35609 0.31501 0.5338 0.0
O204 O 0.33841 0.27782 0.55044 0.0
O205 O 0.41919 0.29453 0.55425 0.0
O206 O 0.38752 0.25981 0.55653 0.0
C207 C 0.33893 0.29723 0.53859 0.0
C208 C 0.4072 0.26396 0.56039 0.0
O209 O 0.40231 0.37111 0.52857 0.0
Mg210 Mg 0.38943 0.42611 0.19161 0.0
O211 O 0.38143 0.36082 0.1738 0.0
O212 O 0.36099 0.39241 0.15751 0.0
Mg213 Mg 0.35655 0.4777 0.16469 0.0
C214 C 0.37071 0.35525 0.16208 0.0
C215 C 0.41457 0.39042 0.21576 0.0
O216 O 0.41606 0.44019 0.21789 0.0
O217 O 0.35582 0.42464 0.20092 0.0
O218 O 0.33722 0.46099 0.18455 0.0
O219 O 0.41811 0.44508 0.17931 0.0
O220 O 0.38615 0.47907 0.1773 0.0
C221 C 0.33835 0.44198 0.19645 0.0
C222 C 0.40577 0.47507 0.17317 0.0
O223 O 0.40257 0.37017 0.20569 0.0
C224 C 0.32024 0.30345 0.51509 0.0
C225 C 0.31944 0.29405 0.52957 0.0
C226 C 0.30253 0.29346 0.50609 0.0
C227 C 0.25428 0.21398 0.50264 0.0
H228 H 0.23746 0.30083 0.47423 0.0
C229 C 0.17554 0.18908 0.47017 0.0
C230 C 0.17599 0.19938 0.45576 0.0
C231 C 0.1936 0.19759 0.47891 0.0
C232 C 0.24214 0.2758 0.48198 0.0
H233 H 0.29894 0.26964 0.54617 0.0
H234 H 0.26811 0.25308 0.53056 0.0
H235 H 0.26734 0.32533 0.49025 0.0
H236 H 0.19623 0.22333 0.43897 0.0
H237 H 0.22767 0.2373 0.45413 0.0
H238 H 0.22903 0.16451 0.49438 0.0
C239 C 0.28257 0.26694 0.52605 0.0
C240 C 0.25923 0.28994 0.49118 0.0
C241 C 0.30023 0.27684 0.53503 0.0
C242 C 0.19522 0.21556 0.45007 0.0
C243 C 0.21323 0.22395 0.45879 0.0
C244 C 0.23718 0.19984 0.49344 0.0
C245 C 0.28367 0.27398 0.51141 0.0
C246 C 0.26545 0.25927 0.50164 0.0
C247 C 0.21246 0.21642 0.47341 0.0
C248 C 0.23091 0.23059 0.48301 0.0
H249 H 0.33478 0.31659 0.51052 0.0
H250 H 0.30391 0.29911 0.49483 0.0
H251 H 0.25893 0.18903 0.51041 0.0
H252 H 0.16099 0.17668 0.47491 0.0
H253 H 0.19247 0.19157 0.49016 0.0
C254 C 0.9436 0.8573 0.50181 0.0
C255 C 0.93038 0.87777 0.51331 0.0
C256 C 0.95968 0.8866 0.49669 0.0
C257 C 0.97904 0.01801 0.4969 0.0
H258 H 0.03427 0.95209 0.49074 0.0
C259 C 0.05425 0.13149 0.48704 0.0
C260 C 0.06729 0.11091 0.47545 0.0
C261 C 0.03829 0.10225 0.49231 0.0
C262 C 0.01892 0.97091 0.4923 0.0
H263 H 0.92293 0.94588 0.52796 0.0
H264 H 0.95108 -0.00306 0.51907 0.0
H265 H 0.00377 0.90369 0.49764 0.0
H266 H 0.07458 0.04263 0.46082 0.0
H267 H 0.04663 0.99166 0.46998 0.0
H268 H 0.99418 0.08521 0.49156 0.0
C269 C 0.94896 0.95829 0.51397 0.0
C270 C 0.00143 0.94317 0.49621 0.0
C271 C 0.93285 0.92898 0.51908 0.0
C272 C 0.06479 0.05963 0.46976 0.0
C273 C 0.0488 0.03037 0.47503 0.0
C274 C 0.99653 0.04574 0.493 0.0
C275 C 0.96288 0.93699 0.50296 0.0
C276 C 0.98129 0.96639 0.49852 0.0
C277 C 0.03502 0.05179 0.48611 0.0
C278 C 0.01666 0.0225 0.49066 0.0
H279 H 0.94201 0.81808 0.49705 0.0
H280 H 0.96987 0.86948 0.48799 0.0
H281 H 0.96369 0.03681 0.49846 0.0
H282 H 0.05587 0.17077 0.49174 0.0
H283 H 0.02821 0.11947 0.50106 0.0
C284 C 0.30387 0.96779 0.70132 0.0
C285 C 0.32335 0.95149 0.70663 0.0
C286 C 0.28604 0.97554 0.71031 0.0
C287 C 0.26283 0.94813 0.74488 0.0
H288 H 0.23129 0.07287 0.74256 0.0
C289 C 0.19815 0.01991 0.78659 0.0
C290 C 0.17904 0.03801 0.7812 0.0
C291 C 0.21598 0.0103 0.77765 0.0
C292 C 0.23978 0.03766 0.74324 0.0
H293 H 0.33902 0.92821 0.72544 0.0
H294 H 0.3078 0.94199 0.7412 0.0
H295 H 0.26154 0.05107 0.72646 0.0
H296 H 0.16399 0.06165 0.76222 0.0
H297 H 0.1951 0.04462 0.74659 0.0
H298 H 0.24104 0.93474 0.76166 0.0
C299 C 0.30637 0.94859 0.73002 0.0
C300 C 0.2571 0.0251 0.73401 0.0
C301 C 0.32427 0.94075 0.72099 0.0
C302 C 0.17844 0.04786 0.76675 0.0
C303 C 0.1963 0.03819 0.75779 0.0
C304 C 0.24548 0.96068 0.75411 0.0
C305 C 0.28722 0.96724 0.72486 0.0
C306 C 0.26878 0.98013 0.73469 0.0
C307 C 0.21516 0.01855 0.76309 0.0
C308 C 0.23375 0.00558 0.75339 0.0
H309 H 0.30248 0.9759 0.69027 0.0
H310 H 0.27138 0.9888 0.70592 0.0
H311 H 0.27137 0.91298 0.74556 0.0
H312 H 0.19927 0.01219 0.79769 0.0
H313 H 0.23039 -0.00387 0.78213 0.0
C314 C 0.05231 0.10285 0.75291 0.0
C315 C 0.0686 0.12547 0.76181 0.0
C316 C 0.03646 0.13265 0.74768 0.0
C317 C 0.00975 0.25557 0.7571 0.0
H318 H 0.98499 0.22651 0.71891 0.0
C319 C 0.9489 0.3873 0.73398 0.0
C320 C 0.93256 0.36467 0.72512 0.0
C321 C 0.96481 0.35751 0.73915 0.0
C322 C 0.99155 0.23461 0.72969 0.0
H323 H 0.08183 0.19734 0.77144 0.0
H324 H 0.05426 0.24941 0.76214 0.0
H325 H 0.01559 0.17716 0.72536 0.0
H326 H 0.91935 0.29282 0.71548 0.0
H327 H 0.94702 0.24076 0.72468 0.0
H328 H 0.98571 0.31301 0.76144 0.0
C329 C 0.05353 0.20853 0.75946 0.0
C330 C 0.00913 0.20651 0.73335 0.0
C331 C 0.06942 0.17871 0.76468 0.0
C332 C 0.93178 0.31144 0.72222 0.0
C333 C 0.94773 0.28164 0.72737 0.0
C334 C 0.99217 0.28367 0.75344 0.0
C335 C 0.03658 0.1857 0.75123 0.0
C336 C 0.01843 0.21671 0.74709 0.0
C337 C 0.96471 0.30446 0.73557 0.0
C338 C 0.98287 0.27347 0.7397 0.0
H339 H 0.05125 0.06193 0.75046 0.0
H340 H 0.02356 0.1139 0.74142 0.0
H341 H 0.0163 0.26366 0.76788 0.0
H342 H 0.94994 0.42822 0.73644 0.0
H343 H 0.97773 0.37626 0.74539 0.0
C344 C 0.82177 0.80051 0.51752 0.0
C345 C 0.82102 0.7898 0.53188 0.0
C346 C 0.80387 0.79236 0.50861 0.0
C347 C 0.75521 0.7146 0.50495 0.0
H348 H 0.73914 0.80249 0.47664 0.0
C349 C 0.67758 0.68891 0.47129 0.0
C350 C 0.67862 0.69873 0.45685 0.0
C351 C 0.69517 0.69841 0.48041 0.0
C352 C 0.74359 0.77723 0.48438 0.0
H353 H 0.80041 0.76546 0.54842 0.0
H354 H 0.76924 0.75212 0.53298 0.0
H355 H 0.76882 0.82622 0.49294 0.0
H356 H 0.69945 0.72339 0.44047 0.0
H357 H 0.73009 0.73911 0.4563 0.0
H358 H 0.73002 0.66555 0.49638 0.0
C359 C 0.7838 0.76552 0.52848 0.0
C360 C 0.76056 0.79092 0.49373 0.0
C361 C 0.80165 0.77355 0.53736 0.0
C362 C 0.69797 0.71587 0.45157 0.0
C363 C 0.71552 0.72528 0.46067 0.0
C364 C 0.73824 0.70091 0.4956 0.0
C365 C 0.78487 0.77349 0.5139 0.0
C366 C 0.76656 0.75976 0.50413 0.0
C367 C 0.71417 0.71781 0.47527 0.0
C368 C 0.73227 0.73201 0.48519 0.0
H369 H 0.83643 0.81298 0.51294 0.0
H370 H 0.80523 0.79871 0.4974 0.0
H371 H 0.75969 0.68926 0.51267 0.0
H372 H 0.66292 0.67581 0.47572 0.0
H373 H 0.69361 0.69244 0.49164 0.0
C374 C 0.67713 0.05662 0.26505 0.0
C375 C 0.67804 0.04453 0.27928 0.0
C376 C 0.69502 0.04959 0.256 0.0
C377 C 0.7536 0.0292 0.25601 0.0
H378 H 0.7442 0.96173 0.21716 0.0
C379 C 0.823 0.94497 0.2199 0.0
C380 C 0.82288 0.95519 0.20548 0.0
C381 C 0.80506 0.95562 0.22872 0.0
C382 C 0.74707 0.981 0.22793 0.0
H383 H 0.69884 0.01786 0.29533 0.0
H384 H 0.72979 0.00541 0.27958 0.0
H385 H 0.71373 0.98539 0.23295 0.0
H386 H 0.80342 0.98284 0.18889 0.0
H387 H 0.77224 0.00143 0.20427 0.0
H388 H 0.78694 0.02444 0.25103 0.0
C389 C 0.71534 0.02053 0.27541 0.0
C390 C 0.72962 -0.00524 0.23696 0.0
C391 C 0.6975 0.02743 0.28443 0.0
C392 C 0.80412 0.97453 0.19994 0.0
C393 C 0.78618 0.98504 0.20874 0.0
C394 C 0.77104 0.01538 0.24699 0.0
C395 C 0.7142 0.03057 0.26101 0.0
C396 C 0.73269 0.01877 0.25113 0.0
C397 C 0.78657 0.97653 0.22329 0.0
C398 C 0.76798 0.99088 0.23288 0.0
H399 H 0.66242 0.06997 0.26074 0.0
H400 H 0.69374 0.0584 0.24502 0.0
H401 H 0.75649 0.04826 0.2668 0.0
H402 H 0.83714 0.92996 0.22452 0.0
H403 H 0.80571 0.94785 0.23982 0.0
C404 C 0.94711 0.88461 0.23565 0.0
C405 C 0.93146 0.86226 0.22615 0.0
C406 C 0.96294 0.85478 0.24089 0.0
C407 C 0.97827 0.72311 0.24526 0.0
H408 H 0.03585 0.77465 0.24289 0.0
C409 C 0.05116 0.59886 0.25361 0.0
C410 C 0.06694 0.62162 0.26294 0.0
C411 C 0.03523 0.62837 0.24835 0.0
C412 C 0.01987 0.75993 0.24372 0.0
H413 H 0.91932 0.79074 0.21543 0.0
H414 H 0.947 0.73872 0.22457 0.0
H415 H 0.00573 0.82577 0.2366 0.0
H416 H 0.07911 0.6935 0.27339 0.0
H417 H 0.05124 0.74494 0.26426 0.0
H418 H 0.99241 0.65731 0.2524 0.0
C419 C 0.94703 0.77929 0.22797 0.0
C420 C 0.00261 0.78926 0.24018 0.0
C421 C 0.93118 0.80914 0.22272 0.0
C422 C 0.06718 0.67478 0.26622 0.0
C423 C 0.05121 0.7043 0.26097 0.0
C424 C 0.99554 0.69379 0.24881 0.0
C425 C 0.96342 0.802 0.23677 0.0
C426 C 0.98162 0.77121 0.24093 0.0
C427 C 0.03474 0.68125 0.25231 0.0
C428 C 0.01652 0.71187 0.24808 0.0
H429 H 0.94767 0.92539 0.2386 0.0
H430 H 0.9751 0.87321 0.24792 0.0
H431 H 0.96228 0.70841 0.24608 0.0
H432 H 0.05063 0.55801 0.25078 0.0
H433 H 0.02301 0.60964 0.24144 0.0
C434 C 0.30727 0.73409 0.03118 0.0
C435 C 0.32066 0.77568 0.03003 0.0
C436 C 0.28914 0.72605 0.02262 0.0
C437 C 0.26381 0.76325 0.98947 0.0
H438 H 0.21547 0.69462 0.00409 0.0
C439 C 0.17073 0.7071 0.97321 0.0
C440 C 0.17317 0.69884 0.95814 0.0
C441 C 0.18856 0.71567 0.98214 0.0
C442 C 0.22863 0.71446 -0.00017 0.0
H443 H 0.32534 0.84215 0.01917 0.0
H444 H 0.2929 0.82983 0.00467 0.0
H445 H 0.24561 0.71701 0.01967 0.0
H446 H 0.19607 0.69001 0.94057 0.0
H447 H 0.22727 0.70138 0.95611 0.0
H448 H 0.24619 0.76378 0.96995 0.0
C449 C 0.29681 0.80229 0.01187 0.0
C450 C 0.24621 0.72656 0.00874 0.0
C451 C 0.31532 0.80969 0.02026 0.0
C452 C 0.19377 0.69661 0.95218 0.0
C453 C 0.21164 0.70386 0.96111 0.0
C454 C 0.24599 0.75223 0.98066 0.0
C455 C 0.28354 0.76007 0.01287 0.0
C456 C 0.26422 0.75042 0.00363 0.0
C457 C 0.20928 0.71494 0.97621 0.0
C458 C 0.22823 0.7271 0.98565 0.0
H459 H 0.31112 0.70662 0.03843 0.0
H460 H 0.27983 0.69231 0.02346 0.0
H461 H 0.27739 0.78107 0.98502 0.0
H462 H 0.15499 0.70974 0.97808 0.0
H463 H 0.18592 0.72483 0.99365 0.0
C464 C 0.06168 0.56093 0.96866 0.0
C465 C 0.06393 0.61241 0.97421 0.0
C466 C 0.04575 0.53156 0.97396 0.0
C467 C 0.0082 0.52642 0.00435 0.0
H468 H 0.97465 0.44303 0.97562 0.0
C469 C 0.93121 0.42918 0.01977 0.0
C470 C 0.92929 0.37762 0.01423 0.0
C471 C 0.94673 0.45932 0.01434 0.0
C472 C 0.98396 0.46585 0.98377 0.0
H473 H 0.05197 0.67273 0.99015 0.0
H474 H 0.0242 0.62153 -0.00065 0.0
H475 H 0.00496 0.49048 0.96797 0.0
H476 H 0.9413 0.31801 -0.00192 0.0
H477 H 0.96837 0.37049 0.98866 0.0
H478 H 0.98725 0.5017 0.02015 0.0
C479 C 0.03474 0.60382 0.99094 0.0
C480 C 0.00137 0.49285 0.97941 0.0
C481 C 0.05063 0.63321 0.98563 0.0
C482 C 0.94241 0.35757 0.00262 0.0
C483 C 0.95789 0.38771 -0.00282 0.0
C484 C 0.9908 0.49941 0.00872 0.0
C485 C 0.03182 0.55302 0.98493 0.0
C486 C 0.0137 0.52335 0.98965 0.0
C487 C 0.96058 0.43854 0.00322 0.0
C488 C 0.9785 0.4688 -0.00152 0.0
H489 H 0.07173 0.54371 0.9599 0.0
H490 H 0.04412 0.49224 0.9693 0.0
H491 H 0.01754 0.54918 0.01251 0.0
H492 H 0.92128 0.44585 0.02868 0.0
H493 H 0.94818 0.49865 0.01903 0.0
C494 C 0.32038 0.43377 0.22017 0.0
C495 C 0.31913 0.44458 0.20582 0.0
C496 C 0.30283 0.44248 0.22947 0.0
C497 C 0.25408 0.52084 0.23429 0.0
H498 H 0.2383 0.43012 0.26192 0.0
C499 C 0.17614 0.5444 0.2678 0.0
C500 C 0.17691 0.5339 0.28218 0.0
C501 C 0.19386 0.5348 0.2587 0.0
C502 C 0.24268 0.45618 0.25439 0.0
H503 H 0.298 0.47039 0.18982 0.0
H504 H 0.26747 0.48484 0.20596 0.0
H505 H 0.26813 0.40788 0.24542 0.0
H506 H 0.19729 0.50699 0.29842 0.0
H507 H 0.22817 0.49102 0.28261 0.0
H508 H 0.22869 0.56918 0.24325 0.0
C509 C 0.28215 0.47075 0.21011 0.0
C510 C 0.25974 0.44336 0.24492 0.0
C511 C 0.29965 0.4621 0.20083 0.0
C512 C 0.19605 0.51523 0.28738 0.0
C513 C 0.21373 0.50568 0.27829 0.0
C514 C 0.23705 0.53368 0.24376 0.0
C515 C 0.28367 0.46213 0.22462 0.0
C516 C 0.26557 0.47545 0.23472 0.0
C517 C 0.21274 0.51456 0.26378 0.0
C518 C 0.23112 0.50146 0.2539 0.0
H519 H 0.33513 0.42031 0.22438 0.0
H520 H 0.30453 0.43564 0.24061 0.0
H521 H 0.25844 0.54688 0.22675 0.0
H522 H 0.16167 0.55867 0.26341 0.0
H523 H 0.19251 0.54171 0.24754 0.0
C524 C 0.69869 0.21342 0.95352 0.0
C525 C 0.67954 0.19477 0.95867 0.0
C526 C 0.71631 0.22225 0.96259 0.0
C527 C 0.73978 0.19368 -0.00309 0.0
H528 H 0.76921 0.32137 -0.00436 0.0
C529 C 0.8032 0.26413 0.03903 0.0
C530 C 0.82222 0.28295 0.03374 0.0
C531 C 0.78535 0.25583 0.03016 0.0
C532 C 0.76129 0.28539 -0.00396 0.0
H533 H 0.66431 0.16857 0.97727 0.0
H534 H 0.69512 0.18415 0.99311 0.0
H535 H 0.73952 0.29857 0.97929 0.0
H536 H 0.83698 0.31002 0.0151 0.0
H537 H 0.80582 0.29524 -0.00041 0.0
H538 H 0.76158 0.18042 0.01363 0.0
C539 C 0.69647 0.19178 0.98202 0.0
C540 C 0.74431 0.27224 0.98665 0.0
C541 C 0.67879 0.1829 0.97293 0.0
C542 C 0.8226 0.29557 0.01955 0.0
C543 C 0.80472 0.28715 0.01065 0.0
C544 C 0.75677 0.20681 0.00629 0.0
C545 C 0.71525 0.21264 0.97703 0.0
C546 C 0.73339 0.22619 0.98696 0.0
C547 C 0.78606 0.26608 0.01576 0.0
C548 C 0.76773 0.25282 0.00596 0.0
H549 H 0.69994 0.22257 0.94256 0.0
H550 H 0.73071 0.23729 0.95833 0.0
H551 H 0.73186 0.15768 -0.00271 0.0
H552 H 0.80224 0.25443 0.04995 0.0
H553 H 0.77106 0.24062 0.03451 0.0
C554 C 0.67734 0.55312 0.76771 0.0
C555 C 0.67813 0.54055 0.78189 0.0
C556 C 0.69523 0.5459 0.75867 0.0
C557 C 0.75369 0.52438 0.75851 0.0
H558 H 0.7438 0.45815 0.71958 0.0
C559 C 0.82276 0.44365 0.72131 0.0
C560 C 0.82198 0.45408 0.70692 0.0
C561 C 0.80507 0.45353 0.73043 0.0
C562 C 0.74682 0.47708 0.73037 0.0
H563 H 0.69874 0.51289 0.79788 0.0
H564 H 0.72974 0.50019 0.78213 0.0
H565 H 0.71356 0.48119 0.7356 0.0
H566 H 0.80167 0.48153 0.69073 0.0
H567 H 0.77103 0.49889 0.70661 0.0
H568 H 0.78697 0.52012 0.75329 0.0
C569 C 0.71535 0.51576 0.778 0.0
C570 C 0.72949 0.49046 0.73954 0.0
C571 C 0.6975 0.52283 0.78701 0.0
C572 C 0.80289 0.47303 0.70174 0.0
C573 C 0.78524 0.48281 0.71084 0.0
C574 C 0.77103 0.51102 0.74935 0.0
C575 C 0.7143 0.5262 0.76363 0.0
C576 C 0.73272 0.51417 0.75372 0.0
C577 C 0.78621 0.47387 0.72534 0.0
C578 C 0.7678 0.48713 0.73518 0.0
H579 H 0.66273 0.56699 0.76341 0.0
H580 H 0.69404 0.55507 0.74771 0.0
H581 H 0.7567 0.54312 0.76933 0.0
H582 H 0.83717 0.42896 0.72565 0.0
H583 H 0.8062 0.44549 0.7415 0.0
C584 C 0.55584 0.12636 0.98743 0.0
C585 C 0.56971 0.10466 0.97645 0.0
C586 C 0.53907 0.09816 0.99215 0.0
C587 C 0.50477 0.99064 0.97901 0.0
H588 H 0.48661 -7e-05 0.01903 0.0
C589 C 0.4413 0.85958 -0.00067 0.0
C590 C 0.42764 0.87997 0.0106 0.0
C591 C 0.4576 0.88895 -0.00549 0.0
C592 C 0.49129 -0.00241 0.00778 0.0
H593 H 0.57765 0.03535 0.96244 0.0
H594 H 0.54849 0.98594 0.97084 0.0
H595 H 0.51858 0.04468 0.01285 0.0
H596 H 0.41946 0.94826 0.02497 0.0
H597 H 0.44777 -0.00023 0.01639 0.0
H598 H 0.47749 0.94355 0.97392 0.0
C599 C 0.55037 0.0251 0.97558 0.0
C600 C 0.50966 0.02299 0.00426 0.0
C601 C 0.56719 0.05328 0.97088 0.0
C602 C 0.42979 0.93131 0.01632 0.0
C603 C 0.44613 0.96069 0.01151 0.0
C604 C 0.48638 0.96528 0.98252 0.0
C605 C 0.53581 0.04767 0.98599 0.0
C606 C 0.51664 0.01966 0.98984 0.0
C607 C 0.46058 0.93938 0.00084 0.0
C608 C 0.47946 0.96837 -0.00305 0.0
H609 H 0.55738 0.16583 0.99197 0.0
H610 H 0.52809 0.11668 0.00016 0.0
H611 H 0.5095 0.98817 0.96776 0.0
H612 H 0.44004 0.82019 -0.00534 0.0
H613 H 0.46851 0.87131 0.98632 0.0
C614 C 0.44364 0.38218 0.23357 0.0
C615 C 0.42942 0.35899 0.22314 0.0
C616 C 0.45984 0.35391 0.23901 0.0
C617 C 0.47806 0.22316 0.24212 0.0
H618 H 0.53422 0.28457 0.2441 0.0
C619 C 0.55308 0.10743 0.25145 0.0
C620 C 0.56736 0.12988 0.26195 0.0
C621 C 0.53684 0.13618 0.24625 0.0
C622 C 0.51862 0.2671 0.24372 0.0
H623 H 0.42036 0.28742 0.21079 0.0
H624 H 0.44871 0.23812 0.22026 0.0
H625 H 0.50365 0.33262 0.23699 0.0
H626 H 0.57651 0.20071 0.27466 0.0
H627 H 0.54809 0.2509 0.26557 0.0
H628 H 0.49304 0.15758 0.24881 0.0
C629 C 0.44728 0.27813 0.22427 0.0
C630 C 0.50109 0.29464 0.2397 0.0
C631 C 0.43105 0.30641 0.21882 0.0
C632 C 0.56576 0.18229 0.26657 0.0
C633 C 0.5495 0.21107 0.26135 0.0
C634 C 0.49559 0.19561 0.24613 0.0
C635 C 0.46216 0.30184 0.23416 0.0
C636 C 0.48062 0.27296 0.23885 0.0
C637 C 0.53455 0.188 0.25141 0.0
C638 C 0.51606 0.21723 0.24694 0.0
H639 H 0.44272 0.42256 0.2372 0.0
H640 H 0.47079 0.37303 0.24685 0.0
H641 H 0.46246 0.20565 0.24173 0.0
H642 H 0.55398 0.06722 0.24758 0.0
H643 H 0.52583 0.11759 0.23836 0.0
C644 C 0.4526 0.78956 0.70287 0.0
C645 C 0.43553 0.81866 0.70933 0.0
C646 C 0.46791 0.76937 0.71137 0.0
C647 C 0.49146 0.79359 0.74754 0.0
H648 H 0.51758 0.66119 0.73728 0.0
C649 C 0.54926 0.70263 0.78494 0.0
C650 C 0.5663 0.67327 0.77854 0.0
C651 C 0.53404 0.72287 0.77638 0.0
C652 C 0.51065 0.69857 0.74016 0.0
H653 H 0.42043 0.84681 0.72978 0.0
H654 H 0.44706 0.81096 0.74462 0.0
H655 H 0.48818 0.68742 0.72282 0.0
H656 H 0.58145 0.64468 0.75815 0.0
H657 H 0.55499 0.68065 0.7432 0.0
H658 H 0.51393 0.80475 0.76487 0.0
C659 C 0.4488 0.80466 0.73297 0.0
C660 C 0.49375 0.71347 0.73192 0.0
C661 C 0.43345 0.82479 0.72446 0.0
C662 C 0.56845 0.66691 0.76341 0.0
C663 C 0.55319 0.68711 0.75485 0.0
C664 C 0.50837 0.7787 0.75577 0.0
C665 C 0.46648 0.77784 0.72652 0.0
C666 C 0.48395 0.76112 0.73553 0.0
C667 C 0.53554 0.71421 0.76123 0.0
C668 C 0.51815 0.73102 0.75218 0.0
H669 H 0.45464 0.784 0.69123 0.0
H670 H 0.48139 0.74909 0.70607 0.0
H671 H 0.48452 0.83095 0.75042 0.0
H672 H 0.54717 0.70836 0.79657 0.0
H673 H 0.52058 0.74335 0.78164 0.0
C674 C 0.43077 0.43609 0.51607 0.0
C675 C 0.42854 0.38431 0.51086 0.0
C676 C 0.44726 0.46444 0.51101 0.0
C677 C 0.50082 0.44634 0.49506 0.0
H678 H 0.49479 0.58711 0.4887 0.0
C679 C 0.56688 0.55824 0.46967 0.0
C680 C 0.56914 0.60999 0.4749 0.0
C681 C 0.55037 0.5299 0.4747 0.0
C682 C 0.49679 0.54801 0.49063 0.0
H683 H 0.44093 0.32259 0.49554 0.0
H684 H 0.46945 0.37231 0.48657 0.0
H685 H 0.46351 0.54021 0.49502 0.0
H686 H 0.55674 0.6717 0.49022 0.0
H687 H 0.52817 0.62202 0.49914 0.0
H688 H 0.5341 0.45413 0.49068 0.0
C689 C 0.45878 0.39064 0.49482 0.0
C690 C 0.47885 0.52112 0.49419 0.0
C691 C 0.44233 0.36229 0.49988 0.0
C692 C 0.55532 0.63202 0.48587 0.0
C693 C 0.53884 0.6037 0.4909 0.0
C694 C 0.51876 0.47322 0.4915 0.0
C695 C 0.46179 0.44161 0.50062 0.0
C696 C 0.48067 0.46998 0.49644 0.0
C697 C 0.53582 0.55274 0.48508 0.0
C698 C 0.51694 0.52436 0.48926 0.0
H699 H 0.42041 0.45419 0.52454 0.0
H700 H 0.4492 0.5036 0.51574 0.0
H701 H 0.50282 0.40724 0.497 0.0
H702 H 0.57726 0.54012 0.46121 0.0
H703 H 0.54842 0.49076 0.46996 0.0
C704 C 0.13845 0.69563 0.34457 0.0
C705 C 0.12564 0.68586 0.33217 0.0
C706 C 0.13828 0.7434 0.35283 0.0
C707 C 0.12334 0.87831 0.35202 0.0
H708 H 0.12436 0.88277 0.39373 0.0
C709 C 0.10984 0.03045 0.40708 0.0
C710 C 0.12141 0.07213 0.40333 0.0
C711 C 0.1102 0.98388 0.39817 0.0
C712 C 0.12388 0.88227 0.38211 0.0
H713 H 0.10287 0.71931 0.31863 0.0
H714 H 0.10239 0.80252 0.33318 0.0
H715 H 0.1251 0.80114 0.37853 0.0
H716 H 0.14248 0.09721 0.38717 0.0
H717 H 0.14336 0.01586 0.37178 0.0
H718 H 0.12158 0.95952 0.35564 0.0
C719 C 0.11277 0.7733 0.3364 0.0
C720 C 0.1246 0.83541 0.37337 0.0
C721 C 0.11298 0.72547 0.32809 0.0
C722 C 0.13331 0.06604 0.3904 0.0
C723 C 0.13372 0.01942 0.38151 0.0
C724 C 0.12258 0.92525 0.36077 0.0
C725 C 0.12525 0.78268 0.34897 0.0
C726 C 0.1244 0.83279 0.35821 0.0
C727 C 0.12219 0.9777 0.38529 0.0
C728 C 0.12286 0.92782 0.37593 0.0
H729 H 0.14853 0.66622 0.348 0.0
H730 H 0.14842 0.74953 0.36227 0.0
H731 H 0.12334 0.87776 0.34039 0.0
H732 H 0.10039 0.03374 0.41691 0.0
H733 H 0.10087 0.95282 0.40132 0.0
C734 C 0.09153 0.31625 0.41444 0.0
C735 C 0.0792 0.27495 0.41749 0.0
C736 C 0.08405 0.34871 0.40502 0.0
C737 C 0.05208 0.35111 0.3734 0.0
H738 H 0.06511 0.49484 0.3809 0.0
C739 C 0.05912 0.48009 0.32803 0.0
C740 C 0.07996 0.49933 0.32797 0.0
C741 C 0.05147 0.45917 0.34006 0.0
C742 C 0.06098 0.455 0.37872 0.0
H743 H 0.04926 0.23526 0.4132 0.0
H744 H 0.03631 0.29192 0.3962 0.0
H745 H 0.06479 0.44369 0.40085 0.0
H746 H 0.10858 0.51532 0.34066 0.0
H747 H 0.09529 0.47939 0.36165 0.0
H748 H 0.0497 0.36193 0.35109 0.0
C749 C 0.05167 0.29917 0.40133 0.0
C750 C 0.06083 0.42577 0.39009 0.0
C751 C 0.05909 0.26685 0.41099 0.0
C752 C 0.09266 0.49971 0.34031 0.0
C753 C 0.08491 0.47987 0.3524 0.0
C754 C 0.05214 0.38049 0.362 0.0
C755 C 0.06411 0.34048 0.39832 0.0
C756 C 0.05765 0.37307 0.38738 0.0
C757 C 0.0644 0.45868 0.3523 0.0
C758 C 0.05782 0.43199 0.36449 0.0
H759 H 0.10702 0.32372 0.41936 0.0
H760 H 0.09419 0.37959 0.40266 0.0
H761 H 0.04961 0.31053 0.37103 0.0
H762 H 0.04905 0.47961 0.31859 0.0
H763 H 0.03565 0.44281 0.33975 0.0
C764 C 0.11361 0.22868 0.82728 0.0
C765 C 0.12732 0.19012 0.83084 0.0
C766 C 0.11337 0.2765 0.8356 0.0
C767 C 0.14524 0.36182 0.86149 0.0
H768 H 0.0906 0.42247 0.87347 0.0
C769 C 0.13707 0.56569 0.89151 0.0
C770 C 0.12302 0.57252 0.9034 0.0
C771 C 0.13773 0.51964 0.88237 0.0
C772 C 0.10598 0.4059 0.87025 0.0
H773 H 0.15192 0.17222 0.84575 0.0
H774 H 0.15155 0.25554 0.86013 0.0
H775 H 0.09176 0.34136 0.85776 0.0
H776 H 0.09861 0.53599 0.91495 0.0
H777 H 0.09978 0.45569 0.89894 0.0
H778 H 0.15947 0.42606 0.8741 0.0
C779 C 0.14101 0.2488 0.85091 0.0
C780 C 0.10664 0.35976 0.86114 0.0
C781 C 0.14112 0.20093 0.8427 0.0
C782 C 0.10964 0.53211 0.90591 0.0
C783 C 0.1102 0.48618 0.89669 0.0
C784 C 0.14458 0.40816 0.8705 0.0
C785 C 0.12699 0.28697 0.84755 0.0
C786 C 0.12628 0.33704 0.85673 0.0
C787 C 0.12426 0.47943 0.88482 0.0
C788 C 0.12494 0.43057 0.87505 0.0
H789 H 0.10275 0.2217 0.81824 0.0
H790 H 0.10254 0.30534 0.83266 0.0
H791 H 0.16062 0.34543 0.8582 0.0
H792 H 0.14761 0.59592 0.88923 0.0
H793 H 0.14861 0.51576 0.87324 0.0
C794 C 0.09318 0.81504 0.91275 0.0
C795 C 0.08033 0.77452 0.91575 0.0
C796 C 0.08627 0.84771 0.90321 0.0
C797 C 0.05457 0.85262 0.87149 0.0
H798 H 0.06786 -0.00391 0.87959 0.0
C799 C 0.06119 0.98339 0.82664 0.0
C800 C 0.08192 0.00331 0.82664 0.0
C801 C 0.05368 0.96201 0.83863 0.0
C802 C 0.0637 0.95631 0.87724 0.0
H803 H 0.05015 0.73623 0.91113 0.0
H804 H 0.03822 0.79324 0.89397 0.0
H805 H 0.06774 0.94363 0.89925 0.0
H806 H 0.1104 0.02027 0.83939 0.0
H807 H 0.09738 0.98341 0.86028 0.0
H808 H 0.05194 0.86478 0.8493 0.0
C809 C 0.05353 0.79973 0.89922 0.0
C810 C 0.06366 0.92635 0.88845 0.0
C811 C 0.06037 0.7672 0.90898 0.0
C812 C 0.09459 0.00407 0.839 0.0
C813 C 0.08698 0.98372 0.85104 0.0
C814 C 0.05455 0.88272 0.86025 0.0
C815 C 0.06641 0.84046 0.89635 0.0
C816 C 0.06031 0.87376 0.88552 0.0
C817 C 0.06663 0.96168 0.85087 0.0
C818 C 0.06029 0.93415 0.86296 0.0
H819 H 0.10858 0.82188 0.91786 0.0
H820 H 0.09673 0.87814 0.90094 0.0
H821 H 0.05195 0.81215 0.86896 0.0
H822 H 0.05114 0.98264 0.81719 0.0
H823 H 0.03796 0.94507 0.83827 0.0
C824 C 0.8589 0.29152 0.64432 0.0
C825 C 0.87194 0.30097 0.65662 0.0
C826 C 0.85881 0.24381 0.63603 0.0
C827 C 0.87213 0.15203 0.61529 0.0
H828 H 0.87509 0.0274 0.63277 0.0
C829 C 0.8866 0.95754 0.58124 0.0
C830 C 0.87499 0.91581 0.58493 0.0
C831 C 0.88629 0.00394 0.59023 0.0
C832 C 0.8741 0.06183 0.62771 0.0
H833 H 0.89482 0.26698 0.66996 0.0
H834 H 0.89486 0.18386 0.65536 0.0
H835 H 0.87359 0.10892 0.64817 0.0
H836 H 0.85389 0.89046 0.60103 0.0
H837 H 0.85309 0.97155 0.61656 0.0
H838 H 0.87214 0.10509 0.59487 0.0
C839 C 0.8845 0.2133 0.65224 0.0
C840 C 0.87349 0.10861 0.63655 0.0
C841 C 0.88454 0.26107 0.66058 0.0
C842 C 0.86308 0.92168 0.59785 0.0
C843 C 0.86273 0.96815 0.60682 0.0
C844 C 0.87271 0.10533 0.60648 0.0
C845 C 0.87182 0.20427 0.63976 0.0
C846 C 0.87246 0.15431 0.63044 0.0
C847 C 0.8743 0.0099 0.60312 0.0
C848 C 0.87372 0.0596 0.61256 0.0
H849 H 0.84884 0.32114 0.64099 0.0
H850 H 0.84852 0.23795 0.62666 0.0
H851 H 0.87164 0.18645 0.6102 0.0
H852 H 0.89605 0.95441 0.57143 0.0
H853 H 0.89565 0.03504 0.58714 0.0
C854 C 0.9051 0.48562 0.64803 0.0
C855 C 0.91807 0.48642 0.66025 0.0
C856 C 0.91245 0.50561 0.63586 0.0
C857 C 0.94473 0.60586 0.62605 0.0
H858 H 0.93077 0.54387 0.5873 0.0
C859 C 0.93722 0.72058 0.57729 0.0
C860 C 0.91704 0.71303 0.57086 0.0
C861 C 0.94455 0.68804 0.58692 0.0
C862 C 0.93507 0.56146 0.59802 0.0
H863 H 0.9491 0.50683 0.66932 0.0
H864 H 0.96182 0.5438 0.64801 0.0
H865 H 0.93106 0.49208 0.6071 0.0
H866 H 0.88896 0.66509 0.56912 0.0
H867 H 0.90165 0.60884 0.58577 0.0
H868 H 0.9471 0.67609 0.61714 0.0
C869 C 0.94607 0.52709 0.64786 0.0
C870 C 0.93527 0.53187 0.60931 0.0
C871 C 0.93882 0.50605 0.65998 0.0
C872 C 0.90452 0.67212 0.57398 0.0
C873 C 0.91191 0.63945 0.58338 0.0
C874 C 0.94447 0.63559 0.61473 0.0
C875 C 0.93284 0.52733 0.63576 0.0
C876 C 0.93894 0.55442 0.62353 0.0
C877 C 0.93195 0.64707 0.58997 0.0
C878 C 0.93845 0.61407 0.6008 0.0
H879 H 0.88925 0.46966 0.64785 0.0
H880 H 0.90183 0.50586 0.62673 0.0
H881 H 0.94756 0.62409 0.63695 0.0
H882 H 0.9472 0.75185 0.57503 0.0
H883 H 0.96 0.69481 0.59196 0.0
C884 C 0.8777 0.45933 0.08053 0.0
C885 C 0.87514 0.4136 0.08644 0.0
C886 C 0.87681 0.50597 0.08938 0.0
C887 C 0.886 0.56616 0.12604 0.0
H888 H 0.84853 0.67249 0.11592 0.0
C889 C 0.87741 0.75857 0.16275 0.0
C890 C 0.87445 0.80233 0.15595 0.0
C891 C 0.87659 0.71023 0.15474 0.0
C892 C 0.85936 0.64363 0.11882 0.0
H893 H 0.86993 0.38099 0.10632 0.0
H894 H 0.86893 0.46269 0.12184 0.0
H895 H 0.84935 0.59039 0.10088 0.0
H896 H 0.86874 0.82967 0.13537 0.0
H897 H 0.8682 0.74613 0.12137 0.0
H898 H 0.89672 0.61961 0.14363 0.0
C899 C 0.8714 0.46221 0.11032 0.0
C900 C 0.8597 0.59647 0.11022 0.0
C901 C 0.87187 0.41556 0.10143 0.0
C902 C 0.87082 0.79672 0.14098 0.0
C903 C 0.87036 0.74858 0.13294 0.0
C904 C 0.88596 0.61366 0.13452 0.0
C905 C 0.87375 0.50783 0.10437 0.0
C906 C 0.87306 0.55737 0.11372 0.0
C907 C 0.87314 0.70455 0.13969 0.0
C908 C 0.87271 0.65322 0.13099 0.0
H909 H 0.88019 0.45913 0.06902 0.0
H910 H 0.87881 0.54064 0.08455 0.0
H911 H 0.89657 0.53668 0.1289 0.0
H912 H 0.88012 0.76162 0.17429 0.0
H913 H 0.87846 0.67736 0.16039 0.0
C914 C 0.90929 0.98424 0.14858 0.0
C915 C 0.92143 0.98625 0.16121 0.0
C916 C 0.91712 0.00498 0.13667 0.0
C917 C 0.94804 0.109 0.12808 0.0
H918 H 0.93722 0.04664 0.08887 0.0
C919 C 0.93957 0.22424 0.07942 0.0
C920 C 0.91967 0.21435 0.07275 0.0
C921 C 0.94744 0.19242 0.08907 0.0
C922 C 0.94068 0.06437 0.09973 0.0
H923 H 0.95151 0.00953 0.1713 0.0
H924 H 0.96503 0.04793 0.15043 0.0
H925 H 0.93778 -0.00588 0.10851 0.0
H926 H 0.89267 0.16305 0.07065 0.0
H927 H 0.90632 0.10797 0.08732 0.0
H928 H 0.94921 0.17991 0.11942 0.0
C929 C 0.94959 0.02962 0.14975 0.0
C930 C 0.94103 0.03437 0.11093 0.0
C931 C 0.94189 0.00778 0.16162 0.0
C932 C 0.90799 0.17188 0.07568 0.0
C933 C 0.91594 0.13991 0.08509 0.0
C934 C 0.94764 0.13913 0.11684 0.0
C935 C 0.93714 0.02874 0.13724 0.0
C936 C 0.9435 0.0569 0.12528 0.0
C937 C 0.93569 0.14983 0.0919 0.0
C938 C 0.9427 0.11734 0.10273 0.0
H939 H 0.89369 0.96687 0.1479 0.0
H940 H 0.90709 0.00433 0.12721 0.0
H941 H 0.94992 0.12723 0.13908 0.0
H942 H 0.9489 0.25677 0.07731 0.0
H943 H 0.96264 0.20098 0.0943 0.0
C944 C 0.63016 0.67623 0.84975 0.0
C945 C 0.62637 0.67311 0.83482 0.0
C946 C 0.63047 0.72334 0.8584 0.0
C947 C 0.6146 0.85933 0.85835 0.0
H948 H 0.65161 0.87958 0.89183 0.0
C949 C 0.6311 0.05622 0.89097 0.0
C950 C 0.62779 0.05923 0.90598 0.0
C951 C 0.63112 0.00918 0.88228 0.0
C952 C 0.64114 0.8743 0.88254 0.0
H953 H 0.62034 0.71714 0.81722 0.0
H954 H 0.62184 0.79929 0.83212 0.0
H955 H 0.65177 0.79796 0.87648 0.0
H956 H 0.62233 0.01509 0.92365 0.0
H957 H 0.62296 0.93272 0.90845 0.0
H958 H 0.60462 0.9366 0.86426 0.0
C959 C 0.62384 0.7654 0.83732 0.0
C960 C 0.64109 0.82741 0.87377 0.0
C961 C 0.62314 0.71822 0.82871 0.0
C962 C 0.62486 0.01406 0.91212 0.0
C963 C 0.62531 0.96694 0.90346 0.0
C964 C 0.61497 0.90647 0.86698 0.0
C965 C 0.62738 0.76871 0.85232 0.0
C966 C 0.62773 0.81908 0.86157 0.0
C967 C 0.62826 0.96411 0.88844 0.0
C968 C 0.62815 0.91431 0.8792 0.0
H969 H 0.6325 0.64215 0.85482 0.0
H970 H 0.63279 0.72394 0.86992 0.0
H971 H 0.60374 0.85436 0.84929 0.0
H972 H 0.63332 0.0903 0.88589 0.0
H973 H 0.63354 0.00796 0.87073 0.0
C974 C 0.59473 0.30042 0.91377 0.0
C975 C 0.5839 0.25656 0.91658 0.0
C976 C 0.58751 0.32831 0.90309 0.0
C977 C 0.56281 0.31246 0.86855 0.0
H978 H 0.56302 0.4599 0.87379 0.0
C979 C 0.56442 0.49037 0.83223 0.0
C980 C 0.58284 0.47553 0.82413 0.0
C981 C 0.55764 0.46255 0.84316 0.0
C982 C 0.56239 0.41878 0.87218 0.0
H983 H 0.55691 0.20761 0.91058 0.0
H984 H 0.54467 0.25583 0.89134 0.0
H985 H 0.5633 0.41414 0.89493 0.0
H986 H 0.6081 0.41919 0.82062 0.0
H987 H 0.59614 0.3705 0.8395 0.0
H988 H 0.56352 0.31712 0.84579 0.0
C989 C 0.55852 0.26882 0.89766 0.0
C990 C 0.56267 0.39268 0.88424 0.0
C991 C 0.56553 0.24133 0.9086 0.0
C992 C 0.59394 0.43169 0.82678 0.0
C993 C 0.58696 0.40349 0.83746 0.0
C994 C 0.56279 0.33857 0.85648 0.0
C995 C 0.56951 0.3125 0.89484 0.0
C996 C 0.56378 0.33938 0.88249 0.0
C997 C 0.56892 0.41894 0.84585 0.0
C998 C 0.56348 0.39189 0.85823 0.0
H999 H 0.60885 0.31322 0.91983 0.0
H1000 H 0.59648 0.36136 0.90095 0.0
H1001 H 0.56375 0.27136 0.86694 0.0
H1002 H 0.55558 0.52405 0.83037 0.0
H1003 H 0.54375 0.47527 0.84959 0.0
C1004 C 0.61245 0.21722 0.32925 0.0
C1005 C 0.62595 0.17734 0.33217 0.0
C1006 C 0.61274 0.26404 0.33806 0.0
C1007 C 0.64627 0.34522 0.36377 0.0
H1008 H 0.59274 0.41036 0.3764 0.0
C1009 C 0.64076 0.55193 0.39237 0.0
C1010 C 0.62704 0.56087 0.40441 0.0
C1011 C 0.64098 0.5048 0.38372 0.0
C1012 C 0.60782 0.39251 0.37302 0.0
H1013 H 0.65054 0.15587 0.34659 0.0
H1014 H 0.65111 0.23764 0.36186 0.0
H1015 H 0.59245 0.32881 0.36091 0.0
H1016 H 0.60284 0.5269 0.41677 0.0
H1017 H 0.60318 0.44484 0.4016 0.0
H1018 H 0.66163 0.40891 0.37591 0.0
C1019 C 0.64033 0.23262 0.35274 0.0
C1020 C 0.60765 0.34608 0.36404 0.0
C1021 C 0.6399 0.18565 0.34402 0.0
C1022 C 0.61362 0.52141 0.4076 0.0
C1023 C 0.61371 0.47445 0.39886 0.0
C1024 C 0.64643 0.39191 0.37264 0.0
C1025 C 0.62668 0.27225 0.34991 0.0
C1026 C 0.62687 0.32185 0.35934 0.0
C1027 C 0.62735 0.46566 0.38681 0.0
C1028 C 0.62721 0.41601 0.37739 0.0
H1029 H 0.60149 0.2122 0.32023 0.0
H1030 H 0.60218 0.29402 0.33552 0.0
H1031 H 0.66134 0.32766 0.36024 0.0
H1032 H 0.65133 0.58138 0.38959 0.0
H1033 H 0.65155 0.49932 0.37444 0.0
C1034 C 0.56504 0.74467 0.40629 0.0
C1035 C 0.58344 0.75982 0.41424 0.0
C1036 C 0.55809 0.77202 0.39531 0.0
C1037 C 0.56229 0.89547 0.38177 0.0
H1038 H 0.56386 0.81976 0.34335 0.0
C1039 C 0.59437 0.9349 0.32458 0.0
C1040 C 0.58307 0.97823 0.32175 0.0
C1041 C 0.58734 0.90666 0.33523 0.0
C1042 C 0.56292 0.84123 0.35403 0.0
H1043 H 0.60853 0.81616 0.41741 0.0
H1044 H 0.59625 0.86412 0.39845 0.0
H1045 H 0.56385 0.7741 0.36452 0.0
H1046 H 0.55543 0.02587 0.32765 0.0
H1047 H 0.54352 0.97708 0.34684 0.0
H1048 H 0.56267 0.96263 0.37129 0.0
C1049 C 0.58722 0.83121 0.40065 0.0
C1050 C 0.5628 0.81519 0.3661 0.0
C1051 C 0.59438 0.80344 0.41137 0.0
C1052 C 0.56443 0.99258 0.32966 0.0
C1053 C 0.5576 0.96475 0.34057 0.0
C1054 C 0.56214 0.9215 0.3697 0.0
C1055 C 0.56918 0.81549 0.39242 0.0
C1056 C 0.56352 0.8422 0.38004 0.0
C1057 C 0.56905 0.92161 0.34342 0.0
C1058 C 0.56349 0.89456 0.35576 0.0
H1059 H 0.55634 0.71113 0.40833 0.0
H1060 H 0.54422 0.7591 0.389 0.0
H1061 H 0.56275 0.91698 0.39246 0.0
H1062 H 0.60871 0.92278 0.31857 0.0
H1063 H 0.59665 0.87402 0.33741 0.0
C1064 C 0.35667 0.29595 0.14109 0.0
C1065 C 0.36982 0.30436 0.15335 0.0
C1066 C 0.35623 0.24849 0.13263 0.0
C1067 C 0.36807 0.1555 0.11172 0.0
H1068 H 0.37168 0.03127 0.12936 0.0
C1069 C 0.38282 0.96046 0.07795 0.0
C1070 C 0.37203 0.91805 0.08197 0.0
C1071 C 0.38201 0.00729 0.08672 0.0
C1072 C 0.37045 0.06555 0.12425 0.0
H1073 H 0.39276 0.26896 0.16634 0.0
H1074 H 0.39225 0.18656 0.15145 0.0
H1075 H 0.37064 0.11294 0.14463 0.0
H1076 H 0.35171 0.8921 0.09839 0.0
H1077 H 0.35001 0.97395 0.11355 0.0
H1078 H 0.36739 0.10816 0.09135 0.0
C1079 C 0.382 0.21646 0.1485 0.0
C1080 C 0.37013 0.11248 0.13301 0.0
C1081 C 0.38237 0.26389 0.15701 0.0
C1082 C 0.36029 0.92382 0.09496 0.0
C1083 C 0.35942 0.97075 0.10371 0.0
C1084 C 0.36833 0.10861 0.10296 0.0
C1085 C 0.369 0.2082 0.13615 0.0
C1086 C 0.369 0.15809 0.12686 0.0
C1087 C 0.37031 0.01308 0.09973 0.0
C1088 C 0.36961 0.063 0.1091 0.0
H1089 H 0.34667 0.32607 0.13798 0.0
H1090 H 0.34574 0.24333 0.12335 0.0
H1091 H 0.36744 0.18979 0.10657 0.0
H1092 H 0.39212 0.95748 0.06807 0.0
H1093 H 0.39087 0.03879 0.0834 0.0
C1094 C 0.40209 0.54558 0.1582 0.0
C1095 C 0.41377 0.50381 0.16179 0.0
C1096 C 0.40964 0.57387 0.14769 0.0
C1097 C 0.43932 0.56186 0.11467 0.0
H1098 H 0.43429 0.70885 0.1197 0.0
C1099 C 0.43599 0.74053 0.07856 0.0
C1100 C 0.41875 0.72266 0.06978 0.0
C1101 C 0.44297 0.71321 0.08956 0.0
C1102 C 0.43633 0.66797 0.11819 0.0
H1103 H 0.44252 0.45878 0.15726 0.0
H1104 H 0.45542 0.50765 0.13839 0.0
H1105 H 0.4322 0.663 0.14077 0.0
H1106 H 0.39612 0.66133 0.06494 0.0
H1107 H 0.40848 0.61349 0.08386 0.0
H1108 H 0.44183 0.56661 0.09198 0.0
C1109 C 0.4406 0.51872 0.14394 0.0
C1110 C 0.43496 0.64177 0.1302 0.0
C1111 C 0.4332 0.49082 0.15467 0.0
C1112 C 0.40933 0.67612 0.07165 0.0
C1113 C 0.41656 0.64845 0.08237 0.0
C1114 C 0.44045 0.58804 0.10264 0.0
C1115 C 0.42889 0.56059 0.14042 0.0
C1116 C 0.43551 0.58843 0.12845 0.0
C1117 C 0.43315 0.66714 0.0916 0.0
C1118 C 0.43802 0.6411 0.10426 0.0
H1119 H 0.38714 0.55668 0.16357 0.0
H1120 H 0.40011 0.60543 0.14498 0.0
H1121 H 0.43974 0.52072 0.11305 0.0
H1122 H 0.44349 0.77638 0.07729 0.0
H1123 H 0.45571 0.72843 0.09664 0.0
C1124 C 0.36158 0.81219 0.64088 0.0
C1125 C 0.37424 0.81869 0.6534 0.0
C1126 C 0.36081 0.76525 0.63216 0.0
C1127 C 0.37169 0.67148 0.61117 0.0
H1128 H 0.37176 0.54677 0.62871 0.0
C1129 C 0.38315 0.47434 0.57758 0.0
C1130 C 0.37129 0.43346 0.58158 0.0
C1131 C 0.38302 0.52147 0.58624 0.0
C1132 C 0.37153 0.5812 0.62362 0.0
H1133 H 0.39607 0.78056 0.66653 0.0
H1134 H 0.39497 0.6991 0.65122 0.0
H1135 H 0.37198 0.62824 0.64404 0.0
H1136 H 0.34966 0.41064 0.59776 0.0
H1137 H 0.34917 0.49292 0.61268 0.0
H1138 H 0.37074 0.62445 0.59075 0.0
C1139 C 0.38534 0.73008 0.64825 0.0
C1140 C 0.37194 0.62799 0.63243 0.0
C1141 C 0.38606 0.77697 0.657 0.0
C1142 C 0.35909 0.44112 0.59437 0.0
C1143 C 0.35891 0.4883 0.60299 0.0
C1144 C 0.37123 0.62469 0.60236 0.0
C1145 C 0.37272 0.72361 0.63571 0.0
C1146 C 0.37208 0.67375 0.62632 0.0
C1147 C 0.37097 0.52901 0.59909 0.0
C1148 C 0.37119 0.57892 0.60847 0.0
H1149 H 0.35218 0.84334 0.63779 0.0
H1150 H 0.35066 0.7615 0.62271 0.0
H1151 H 0.37203 0.70589 0.60608 0.0
H1152 H 0.3928 0.46985 0.56785 0.0
H1153 H 0.39273 0.55172 0.58298 0.0
C1154 C 0.43402 0.25055 0.57943 0.0
C1155 C 0.41547 0.23521 0.57166 0.0
C1156 C 0.44127 0.22333 0.59036 0.0
C1157 C 0.43764 0.09981 0.60393 0.0
H1158 H 0.43707 0.17548 0.64237 0.0
C1159 C 0.40698 0.06046 0.66144 0.0
C1160 C 0.41819 0.01672 0.66404 0.0
C1161 C 0.41385 0.08882 0.65077 0.0
C1162 C 0.43773 0.15402 0.63168 0.0
H1163 H 0.39044 0.17867 0.56877 0.0
H1164 H 0.40325 0.13095 0.58764 0.0
H1165 H 0.43644 0.22116 0.6212 0.0
H1166 H 0.44554 0.96856 0.65774 0.0
H1167 H 0.45716 0.0176 0.63853 0.0
H1168 H 0.4376 0.03264 0.6144 0.0
C1169 C 0.41215 0.16391 0.58534 0.0
C1170 C 0.43749 0.18008 0.61961 0.0
C1171 C 0.40469 0.19155 0.57467 0.0
C1172 C 0.43662 0.00216 0.65591 0.0
C1173 C 0.44328 0.03013 0.64499 0.0
C1174 C 0.43815 0.07376 0.61599 0.0
C1175 C 0.43035 0.17979 0.59337 0.0
C1176 C 0.43639 0.15308 0.60567 0.0
C1177 C 0.43189 0.07362 0.64234 0.0
C1178 C 0.43715 0.10069 0.62995 0.0
H1179 H 0.44261 0.28413 0.57728 0.0
H1180 H 0.45526 0.23638 0.59652 0.0
H1181 H 0.43691 0.07831 0.59325 0.0
H1182 H 0.39282 0.07275 0.66762 0.0
H1183 H 0.40458 0.12171 0.64876 0.0
loop_
_geom_bond_atom_site_label_1
_geom_bond_atom_site_label_2
_geom_bond_distance
_geom_bond_site_symmetry_2
_ccdc_geom_bond_type
Mg0 O1 2.028 . S
Mg0 O7 1.986 . S
Mg0 O9 2.114 . S
Mg0 O10 2.251 . S
Mg0 O13 2.010 . S
O1 Mg0 2.028 . S
O1 C4 1.250 . S
O2 Mg3 2.028 . S
O2 C4 1.248 . S
Mg3 O2 2.028 . S
Mg3 O8 2.032 . S
Mg3 O10 2.079 . S
C4 O1 1.250 . S
C4 O2 1.248 . S
C5 O6 1.264 . S
C5 O13 1.249 . S
O6 C5 1.264 . S
O7 Mg0 1.986 . S
O7 C11 1.246 . S
O8 Mg3 2.032 . S
O8 C11 1.259 . S
O9 Mg0 2.114 . S
O9 C12 1.252 . S
O10 Mg0 2.251 . S
O10 Mg3 2.079 . S
O10 C12 1.273 . S
C11 O7 1.246 . S
C11 O8 1.259 . S
C12 O9 1.252 . S
C12 O10 1.273 . S
O13 Mg0 2.010 . S
O13 C5 1.249 . S
Mg14 O15 2.028 . S
Mg14 O21 1.986 . S
Mg14 O23 2.114 . S
Mg14 O24 2.251 . S
Mg14 O27 2.010 . S
O15 Mg14 2.028 . S
O15 C18 1.250 . S
O16 Mg17 2.028 . S
O16 C18 1.248 . S
Mg17 O16 2.028 . S
Mg17 O22 2.032 . S
Mg17 O24 2.079 . S
C18 O15 1.250 . S
C18 O16 1.248 . S
C19 O20 1.264 . S
C19 O27 1.249 . S
O20 C19 1.264 . S
O21 Mg14 1.986 . S
O21 C25 1.246 . S
O22 Mg17 2.032 . S
O22 C25 1.259 . S
O23 Mg14 2.114 . S
O23 C26 1.252 . S
O24 Mg14 2.251 . S
O24 Mg17 2.079 . S
O24 C26 1.273 . S
C25 O21 1.246 . S
C25 O22 1.259 . S
C26 O23 1.252 . S
C26 O24 1.273 . S
O27 Mg14 2.010 . S
O27 C19 1.249 . S
Mg28 O29 2.028 . S
Mg28 O35 1.986 . S
Mg28 O37 2.114 . S
Mg28 O38 2.251 . S
Mg28 O41 2.010 . S
O29 Mg28 2.028 . S
O29 C32 1.250 . S
O30 Mg31 2.028 . S
O30 C32 1.248 . S
Mg31 O30 2.028 . S
Mg31 O36 2.032 . S
Mg31 O38 2.079 . S
C32 O29 1.250 . S
C32 O30 1.248 . S
C33 O34 1.264 . S
C33 O41 1.249 . S
O34 C33 1.264 . S
O35 Mg28 1.986 . S
O35 C39 1.246 . S
O36 Mg31 2.032 . S
O36 C39 1.259 . S
O37 Mg28 2.114 . S
O37 C40 1.252 . S
O38 Mg28 2.251 . S
O38 Mg31 2.079 . S
O38 C40 1.273 . S
C39 O35 1.246 . S
C39 O36 1.259 . S
C40 O37 1.252 . S
C40 O38 1.273 . S
O41 Mg28 2.010 . S
O41 C33 1.249 . S
Mg42 O43 2.028 . S
Mg42 O49 1.986 . S
Mg42 O51 2.114 . S
Mg42 O52 2.251 . S
Mg42 O55 2.010 . S
O43 Mg42 2.028 . S
O43 C46 1.250 . S
O44 Mg45 2.028 . S
O44 C46 1.248 . S
Mg45 O44 2.028 . S
Mg45 O50 2.032 . S
Mg45 O52 2.079 . S
C46 O43 1.250 . S
C46 O44 1.248 . S
C47 O48 1.264 . S
C47 O55 1.249 . S
O48 C47 1.264 . S
O49 Mg42 1.986 . S
O49 C53 1.246 . S
O50 Mg45 2.032 . S
O50 C53 1.259 . S
O51 Mg42 2.114 . S
O51 C54 1.252 . S
O52 Mg42 2.251 . S
O52 Mg45 2.079 . S
O52 C54 1.273 . S
C53 O49 1.246 . S
C53 O50 1.259 . S
C54 O51 1.252 . S
C54 O52 1.273 . S
O55 Mg42 2.010 . S
O55 C47 1.249 . S
Mg56 O57 2.028 . S
Mg56 O63 1.986 . S
Mg56 O65 2.114 . S
Mg56 O66 2.251 . S
Mg56 O69 2.010 . S
O57 Mg56 2.028 . S
O57 C60 1.250 . S
O58 Mg59 2.028 . S
O58 C60 1.248 . S
Mg59 O58 2.028 . S
Mg59 O64 2.032 . S
Mg59 O66 2.079 . S
C60 O57 1.250 . S
C60 O58 1.248 . S
C61 O62 1.264 . S
C61 O69 1.249 . S
O62 C61 1.264 . S
O63 Mg56 1.986 . S
O63 C67 1.246 . S
O64 Mg59 2.032 . S
O64 C67 1.259 . S
O65 Mg56 2.114 . S
O65 C68 1.252 . S
O66 Mg56 2.251 . S
O66 Mg59 2.079 . S
O66 C68 1.273 . S
C67 O63 1.246 . S
C67 O64 1.259 . S
C68 O65 1.252 . S
C68 O66 1.273 . S
O69 Mg56 2.010 . S
O69 C61 1.249 . S
Mg70 O71 2.028 . S
Mg70 O77 1.986 . S
Mg70 O79 2.114 . S
Mg70 O80 2.251 . S
Mg70 O83 2.010 . S
O71 Mg70 2.028 . S
O71 C74 1.250 . S
O72 Mg73 2.028 . S
O72 C74 1.248 . S
Mg73 O72 2.028 . S
Mg73 O78 2.032 . S
Mg73 O80 2.079 . S
C74 O71 1.250 . S
C74 O72 1.248 . S
C75 O76 1.264 . S
C75 O83 1.249 . S
O76 C75 1.264 . S
O77 Mg70 1.986 . S
O77 C81 1.246 . S
O78 Mg73 2.032 . S
O78 C81 1.259 . S
O79 Mg70 2.114 . S
O79 C82 1.252 . S
O80 Mg70 2.251 . S
O80 Mg73 2.079 . S
O80 C82 1.273 . S
C81 O77 1.246 . S
C81 O78 1.259 . S
C82 O79 1.252 . S
C82 O80 1.273 . S
O83 Mg70 2.010 . S
O83 C75 1.249 . S
Mg84 O85 2.028 . S
Mg84 O91 1.986 . S
Mg84 O93 2.114 . S
Mg84 O94 2.251 . S
Mg84 O97 2.010 . S
O85 Mg84 2.028 . S
O85 C88 1.250 . S
O86 Mg87 2.028 . S
O86 C88 1.248 . S
Mg87 O86 2.028 . S
Mg87 O92 2.032 . S
Mg87 O94 2.079 . S
C88 O85 1.250 . S
C88 O86 1.248 . S
C89 O90 1.264 . S
C89 O97 1.249 . S
O90 C89 1.264 . S
O91 Mg84 1.986 . S
O91 C95 1.246 . S
O92 Mg87 2.032 . S
O92 C95 1.259 . S
O93 Mg84 2.114 . S
O93 C96 1.252 . S
O94 Mg84 2.251 . S
O94 Mg87 2.079 . S
O94 C96 1.273 . S
C95 O91 1.246 . S
C95 O92 1.259 . S
C96 O93 1.252 . S
C96 O94 1.273 . S
O97 Mg84 2.010 . S
O97 C89 1.249 . S
Mg98 O99 2.028 . S
Mg98 O105 1.986 . S
Mg98 O107 2.114 . S
Mg98 O108 2.251 . S
Mg98 O111 2.010 . S
O99 Mg98 2.028 . S
O99 C102 1.250 . S
O100 Mg101 2.028 . S
O100 C102 1.248 . S
Mg101 O100 2.028 . S
Mg101 O106 2.032 . S
Mg101 O108 2.079 . S
C102 O99 1.250 . S
C102 O100 1.248 . S
C103 O104 1.264 . S
C103 O111 1.249 . S
O104 C103 1.264 . S
O105 Mg98 1.986 . S
O105 C109 1.246 . S
O106 Mg101 2.032 . S
O106 C109 1.259 . S
O107 Mg98 2.114 . S
O107 C110 1.252 . S
O108 Mg98 2.251 . S
O108 Mg101 2.079 . S
O108 C110 1.273 . S
C109 O105 1.246 . S
C109 O106 1.259 . S
C110 O107 1.252 . S
C110 O108 1.273 . S
O111 Mg98 2.010 . S
O111 C103 1.249 . S
Mg112 O113 2.028 . S
Mg112 O119 1.986 . S
Mg112 O121 2.114 . S
Mg112 O122 2.251 . S
Mg112 O125 2.010 . S
O113 Mg112 2.028 . S
O113 C116 1.250 . S
O114 Mg115 2.028 . S
O114 C116 1.248 . S
Mg115 O114 2.028 . S
Mg115 O120 2.032 . S
Mg115 O122 2.079 . S
C116 O113 1.250 . S
C116 O114 1.248 . S
C117 O118 1.264 . S
C117 O125 1.249 . S
O118 C117 1.264 . S
O119 Mg112 1.986 . S
O119 C123 1.246 . S
O120 Mg115 2.032 . S
O120 C123 1.259 . S
O121 Mg112 2.114 . S
O121 C124 1.252 . S
O122 Mg112 2.251 . S
O122 Mg115 2.079 . S
O122 C124 1.273 . S
C123 O119 1.246 . S
C123 O120 1.259 . S
C124 O121 1.252 . S
C124 O122 1.273 . S
O125 Mg112 2.010 . S
O125 C117 1.249 . S
Mg126 O127 2.028 . S
Mg126 O133 1.986 . S
Mg126 O135 2.114 . S
Mg126 O136 2.251 . S
Mg126 O139 2.010 . S
O127 Mg126 2.028 . S
O127 C130 1.250 . S
O128 Mg129 2.028 . S
O128 C130 1.248 . S
Mg129 O128 2.028 . S
Mg129 O134 2.032 . S
Mg129 O136 2.079 . S
C130 O127 1.250 . S
C130 O128 1.248 . S
C131 O132 1.264 . S
C131 O139 1.249 . S
O132 C131 1.264 . S
O133 Mg126 1.986 . S
O133 C137 1.246 . S
O134 Mg129 2.032 . S
O134 C137 1.259 . S
O135 Mg126 2.114 . S
O135 C138 1.252 . S
O136 Mg126 2.251 . S
O136 Mg129 2.079 . S
O136 C138 1.273 . S
C137 O133 1.246 . S
C137 O134 1.259 . S
C138 O135 1.252 . S
C138 O136 1.273 . S
O139 Mg126 2.010 . S
O139 C131 1.249 . S
Mg140 O141 2.028 . S
Mg140 O147 1.986 . S
Mg140 O149 2.114 . S
Mg140 O150 2.251 . S
Mg140 O153 2.010 . S
O141 Mg140 2.028 . S
O141 C144 1.250 . S
O142 Mg143 2.028 . S
O142 C144 1.248 . S
Mg143 O142 2.028 . S
Mg143 O148 2.032 . S
Mg143 O150 2.079 . S
C144 O141 1.250 . S
C144 O142 1.248 . S
C145 O146 1.264 . S
C145 O153 1.249 . S
O146 C145 1.264 . S
O147 Mg140 1.986 . S
O147 C151 1.246 . S
O148 Mg143 2.032 . S
O148 C151 1.259 . S
O149 Mg140 2.114 . S
O149 C152 1.252 . S
O150 Mg140 2.251 . S
O150 Mg143 2.079 . S
O150 C152 1.273 . S
C151 O147 1.246 . S
C151 O148 1.259 . S
C152 O149 1.252 . S
C152 O150 1.273 . S
O153 Mg140 2.010 . S
O153 C145 1.249 . S
Mg154 O155 2.028 . S
Mg154 O161 1.986 . S
Mg154 O163 2.114 . S
Mg154 O164 2.251 . S
Mg154 O167 2.010 . S
O155 Mg154 2.028 . S
O155 C158 1.250 . S
O156 Mg157 2.028 . S
O156 C158 1.248 . S
Mg157 O156 2.028 . S
Mg157 O162 2.032 . S
Mg157 O164 2.079 . S
C158 O155 1.250 . S
C158 O156 1.248 . S
C159 O160 1.264 . S
C159 O167 1.249 . S
O160 C159 1.264 . S
O161 Mg154 1.986 . S
O161 C165 1.246 . S
O162 Mg157 2.032 . S
O162 C165 1.259 . S
O163 Mg154 2.114 . S
O163 C166 1.252 . S
O164 Mg154 2.251 . S
O164 Mg157 2.079 . S
O164 C166 1.273 . S
C165 O161 1.246 . S
C165 O162 1.259 . S
C166 O163 1.252 . S
C166 O164 1.273 . S
O167 Mg154 2.010 . S
O167 C159 1.249 . S
Mg168 O169 2.028 . S
Mg168 O175 1.986 . S
Mg168 O177 2.114 . S
Mg168 O178 2.251 . S
Mg168 O181 2.010 . S
O169 Mg168 2.028 . S
O169 C172 1.250 . S
O170 Mg171 2.028 . S
O170 C172 1.248 . S
Mg171 O170 2.028 . S
Mg171 O176 2.032 . S
Mg171 O178 2.079 . S
C172 O169 1.250 . S
C172 O170 1.248 . S
C173 O174 1.264 . S
C173 O181 1.249 . S
O174 C173 1.264 . S
O175 Mg168 1.986 . S
O175 C179 1.246 . S
O176 Mg171 2.032 . S
O176 C179 1.259 . S
O177 Mg168 2.114 . S
O177 C180 1.252 . S
O178 Mg168 2.251 . S
O178 Mg171 2.079 . S
O178 C180 1.273 . S
C179 O175 1.246 . S
C179 O176 1.259 . S
C180 O177 1.252 . S
C180 O178 1.273 . S
O181 Mg168 2.010 . S
O181 C173 1.249 . S
Mg182 O183 2.028 . S
Mg182 O189 1.986 . S
Mg182 O191 2.114 . S
Mg182 O192 2.251 . S
Mg182 O195 2.010 . S
O183 Mg182 2.028 . S
O183 C186 1.250 . S
O184 Mg185 2.028 . S
O184 C186 1.248 . S
Mg185 O184 2.028 . S
Mg185 O190 2.032 . S
Mg185 O192 2.079 . S
C186 O183 1.250 . S
C186 O184 1.248 . S
C187 O188 1.264 . S
C187 O195 1.249 . S
O188 C187 1.264 . S
O189 Mg182 1.986 . S
O189 C193 1.246 . S
O190 Mg185 2.032 . S
O190 C193 1.259 . S
O191 Mg182 2.114 . S
O191 C194 1.252 . S
O192 Mg182 2.251 . S
O192 Mg185 2.079 . S
O192 C194 1.273 . S
C193 O189 1.246 . S
C193 O190 1.259 . S
C194 O191 1.252 . S
C194 O192 1.273 . S
O195 Mg182 2.010 . S
O195 C187 1.249 . S
Mg196 O197 2.028 . S
Mg196 O203 1.986 . S
Mg196 O205 2.114 . S
Mg196 O206 2.251 . S
Mg196 O209 2.010 . S
O197 Mg196 2.028 . S
O197 C200 1.250 . S
O198 Mg199 2.028 . S
O198 C200 1.248 . S
Mg199 O198 2.028 . S
Mg199 O204 2.032 . S
Mg199 O206 2.079 . S
C200 O197 1.250 . S
C200 O198 1.248 . S
C201 O202 1.264 . S
C201 O209 1.249 . S
O202 C201 1.264 . S
O203 Mg196 1.986 . S
O203 C207 1.246 . S
O204 Mg199 2.032 . S
O204 C207 1.259 . S
O205 Mg196 2.114 . S
O205 C208 1.252 . S
O206 Mg196 2.251 . S
O206 Mg199 2.079 . S
O206 C208 1.273 . S
C207 O203 1.246 . S
C207 O204 1.259 . S
C208 O205 1.252 . S
C208 O206 1.273 . S
O209 Mg196 2.010 . S
O209 C201 1.249 . S
Mg210 O211 2.028 . S
Mg210 O217 1.986 . S
Mg210 O219 2.114 . S
Mg210 O220 2.251 . S
Mg210 O223 2.010 . S
O211 Mg210 2.028 . S
O211 C214 1.250 . S
O212 Mg213 2.028 . S
O212 C214 1.248 . S
Mg213 O212 2.028 . S
Mg213 O218 2.032 . S
Mg213 O220 2.079 . S
C214 O211 1.250 . S
C214 O212 1.248 . S
C215 O216 1.264 . S
C215 O223 1.249 . S
O216 C215 1.264 . S
O217 Mg210 1.986 . S
O217 C221 1.246 . S
O218 Mg213 2.032 . S
O218 C221 1.259 . S
O219 Mg210 2.114 . S
O219 C222 1.252 . S
O220 Mg210 2.251 . S
O220 Mg213 2.079 . S
O220 C222 1.273 . S
C221 O217 1.246 . S
C221 O218 1.259 . S
C222 O219 1.252 . S
C222 O220 1.273 . S
O223 Mg210 2.010 . S
O223 C215 1.249 . S
C224 C225 1.349 . S
C224 C226 1.327 . S
C224 H249 0.950 . S
C225 C224 1.349 . S
C225 C241 1.349 . S
C226 C224 1.327 . S
C226 C245 1.429 . S
C226 H250 0.950 . S
C227 C244 1.574 . S
C227 C246 1.368 . S
C227 H251 0.949 . S
H228 C232 0.949 . S
C229 C230 1.349 . S
C229 C231 1.327 . S
C229 H252 0.950 . S
C230 C229 1.349 . S
C230 C242 1.349 . S
C231 C229 1.327 . S
C231 C247 1.429 . S
C231 H253 0.950 . S
C232 H228 0.949 . S
C232 C240 1.574 . S
C232 C248 1.368 . S
H233 C241 0.950 . S
H234 C239 0.950 . S
H235 C240 0.949 . S
H236 C242 0.950 . S
H237 C243 0.950 . S
H238 C244 0.949 . S
C239 H234 0.950 . S
C239 C241 1.327 . S
C239 C245 1.429 . S
C240 C232 1.574 . S
C240 H235 0.949 . S
C240 C246 1.368 . S
C241 C225 1.349 . S
C241 H233 0.950 . S
C241 C239 1.327 . S
C242 C230 1.349 . S
C242 H236 0.950 . S
C242 C243 1.327 . S
C243 H237 0.950 . S
C243 C242 1.327 . S
C243 C247 1.429 . S
C244 C227 1.574 . S
C244 H238 0.949 . S
C244 C248 1.368 . S
C245 C226 1.429 . S
C245 C239 1.429 . S
C245 C246 1.523 . S
C246 C227 1.368 . S
C246 C240 1.368 . S
C246 C245 1.523 . S
C247 C231 1.429 . S
C247 C243 1.429 . S
C247 C248 1.523 . S
C248 C232 1.368 . S
C248 C244 1.368 . S
C248 C247 1.523 . S
H249 C224 0.950 . S
H250 C226 0.950 . S
H251 C227 0.949 . S
H252 C229 0.950 . S
H253 C231 0.950 . S
C254 C255 1.349 . S
C254 C256 1.327 . S
C254 H279 0.950 . S
C255 C254 1.349 . S
C255 C271 1.349 . S
C256 C254 1.327 . S
C256 C275 1.429 . S
C256 H280 0.950 . S
C257 C274 1.574 1_655 S
C257 C276 1.368 1_545 S
C257 H281 0.949 . S
H258 C262 0.949 . S
C259 C260 1.349 . S
C259 C261 1.327 . S
C259 H282 0.950 . S
C260 C259 1.349 . S
C260 C272 1.349 . S
C261 C259 1.327 . S
C261 C277 1.429 . S
C261 H283 0.950 . S
C262 H258 0.949 . S
C262 C270 1.574 1_455 S
C262 C278 1.368 1_565 S
H263 C271 0.950 . S
H264 C269 0.950 1_545 S
H265 C270 0.949 . S
H266 C272 0.950 . S
H267 C273 0.950 1_565 S
H268 C274 0.949 . S
C269 H264 0.950 1_565 S
C269 C271 1.327 . S
C269 C275 1.429 . S
C270 C262 1.574 1_655 S
C270 H265 0.949 . S
C270 C276 1.368 . S
C271 C255 1.349 . S
C271 H263 0.950 . S
C271 C269 1.327 . S
C272 C260 1.349 . S
C272 H266 0.950 . S
C272 C273 1.327 . S
C273 H267 0.950 1_545 S
C273 C272 1.327 . S
C273 C277 1.429 . S
C274 C257 1.574 1_455 S
C274 H268 0.949 . S
C274 C278 1.368 . S
C275 C256 1.429 . S
C275 C269 1.429 . S
C275 C276 1.523 . S
C276 C257 1.368 1_565 S
C276 C270 1.368 . S
C276 C275 1.523 . S
C277 C261 1.429 . S
C277 C273 1.429 . S
C277 C278 1.523 . S
C278 C262 1.368 1_545 S
C278 C274 1.368 . S
C278 C277 1.523 . S
H279 C254 0.950 . S
H280 C256 0.950 . S
H281 C257 0.949 . S
H282 C259 0.950 . S
H283 C261 0.950 . S
C284 C285 1.349 . S
C284 C286 1.327 . S
C284 H309 0.950 . S
C285 C284 1.349 . S
C285 C301 1.349 . S
C286 C284 1.327 . S
C286 C305 1.429 . S
C286 H310 0.950 . S
C287 C304 1.574 . S
C287 C306 1.368 . S
C287 H311 0.949 . S
H288 C292 0.949 . S
C289 C290 1.349 . S
C289 C291 1.327 . S
C289 H312 0.950 . S
C290 C289 1.349 . S
C290 C302 1.349 . S
C291 C289 1.327 . S
C291 C307 1.429 . S
C291 H313 0.950 . S
C292 H288 0.949 . S
C292 C300 1.574 . S
C292 C308 1.368 . S
H293 C301 0.950 . S
H294 C299 0.950 . S
H295 C300 0.949 . S
H296 C302 0.950 . S
H297 C303 0.950 . S
H298 C304 0.949 . S
C299 H294 0.950 . S
C299 C301 1.327 . S
C299 C305 1.429 . S
C300 C292 1.574 . S
C300 H295 0.949 . S
C300 C306 1.368 1_545 S
C301 C285 1.349 . S
C301 H293 0.950 . S
C301 C299 1.327 . S
C302 C290 1.349 . S
C302 H296 0.950 . S
C302 C303 1.327 . S
C303 H297 0.950 . S
C303 C302 1.327 . S
C303 C307 1.429 . S
C304 C287 1.574 . S
C304 H298 0.949 . S
C304 C308 1.368 1_565 S
C305 C286 1.429 . S
C305 C299 1.429 . S
C305 C306 1.523 . S
C306 C287 1.368 . S
C306 C300 1.368 1_565 S
C306 C305 1.523 . S
C307 C291 1.429 . S
C307 C303 1.429 . S
C307 C308 1.523 . S
C308 C292 1.368 . S
C308 C304 1.368 1_545 S
C308 C307 1.523 . S
H309 C284 0.950 . S
H310 C286 0.950 . S
H311 C287 0.949 . S
H312 C289 0.950 . S
H313 C291 0.950 . S
C314 C315 1.349 . S
C314 C316 1.327 . S
C314 H339 0.950 . S
C315 C314 1.349 . S
C315 C331 1.349 . S
C316 C314 1.327 . S
C316 C335 1.429 . S
C316 H340 0.950 . S
C317 C334 1.574 1_455 S
C317 C336 1.368 . S
C317 H341 0.949 . S
H318 C322 0.949 . S
C319 C320 1.349 . S
C319 C321 1.327 . S
C319 H342 0.950 . S
C320 C319 1.349 . S
C320 C332 1.349 . S
C321 C319 1.327 . S
C321 C337 1.429 . S
C321 H343 0.950 . S
C322 H318 0.949 . S
C322 C330 1.574 1_655 S
C322 C338 1.368 . S
H323 C331 0.950 . S
H324 C329 0.950 . S
H325 C330 0.949 . S
H326 C332 0.950 . S
H327 C333 0.950 . S
H328 C334 0.949 . S
C329 H324 0.950 . S
C329 C331 1.327 . S
C329 C335 1.429 . S
C330 C322 1.574 1_455 S
C330 H325 0.949 . S
C330 C336 1.368 . S
C331 C315 1.349 . S
C331 H323 0.950 . S
C331 C329 1.327 . S
C332 C320 1.349 . S
C332 H326 0.950 . S
C332 C333 1.327 . S
C333 H327 0.950 . S
C333 C332 1.327 . S
C333 C337 1.429 . S
C334 C317 1.574 1_655 S
C334 H328 0.949 . S
C334 C338 1.368 . S
C335 C316 1.429 . S
C335 C329 1.429 . S
C335 C336 1.523 . S
C336 C317 1.368 . S
C336 C330 1.368 . S
C336 C335 1.523 . S
C337 C321 1.429 . S
C337 C333 1.429 . S
C337 C338 1.523 . S
C338 C322 1.368 . S
C338 C334 1.368 . S
C338 C337 1.523 . S
H339 C314 0.950 . S
H340 C316 0.950 . S
H341 C317 0.949 . S
H342 C319 0.950 . S
H343 C321 0.950 . S
C344 C345 1.349 . S
C344 C346 1.327 . S
C344 H369 0.950 . S
C345 C344 1.349 . S
C345 C361 1.349 . S
C346 C344 1.327 . S
C346 C365 1.429 . S
C346 H370 0.950 . S
C347 C364 1.574 . S
C347 C366 1.368 . S
C347 H371 0.949 . S
H348 C352 0.949 . S
C349 C350 1.349 . S
C349 C351 1.327 . S
C349 H372 0.950 . S
C350 C349 1.349 . S
C350 C362 1.349 . S
C351 C349 1.327 . S
C351 C367 1.429 . S
C351 H373 0.950 . S
C352 H348 0.949 . S
C352 C360 1.574 . S
C352 C368 1.368 . S
H353 C361 0.950 . S
H354 C359 0.950 . S
H355 C360 0.949 . S
H356 C362 0.950 . S
H357 C363 0.950 . S
H358 C364 0.949 . S
C359 H354 0.950 . S
C359 C361 1.327 . S
C359 C365 1.429 . S
C360 C352 1.574 . S
C360 H355 0.949 . S
C360 C366 1.368 . S
C361 C345 1.349 . S
C361 H353 0.950 . S
C361 C359 1.327 . S
C362 C350 1.349 . S
C362 H356 0.950 . S
C362 C363 1.327 . S
C363 H357 0.950 . S
C363 C362 1.327 . S
C363 C367 1.429 . S
C364 C347 1.574 . S
C364 H358 0.949 . S
C364 C368 1.368 . S
C365 C346 1.429 . S
C365 C359 1.429 . S
C365 C366 1.523 . S
C366 C347 1.368 . S
C366 C360 1.368 . S
C366 C365 1.523 . S
C367 C351 1.429 . S
C367 C363 1.429 . S
C367 C368 1.523 . S
C368 C352 1.368 . S
C368 C364 1.368 . S
C368 C367 1.523 . S
H369 C344 0.950 . S
H370 C346 0.950 . S
H371 C347 0.949 . S
H372 C349 0.950 . S
H373 C351 0.950 . S
C374 C375 1.349 . S
C374 C376 1.327 . S
C374 H399 0.950 . S
C375 C374 1.349 . S
C375 C391 1.349 . S
C376 C374 1.327 . S
C376 C395 1.429 . S
C376 H400 0.950 1_545 S
C377 C394 1.574 . S
C377 C396 1.368 . S
C377 H401 0.949 . S
H378 C382 0.949 . S
C379 C380 1.349 . S
C379 C381 1.327 . S
C379 H402 0.950 . S
C380 C379 1.349 . S
C380 C392 1.349 . S
C381 C379 1.327 . S
C381 C397 1.429 . S
C381 H403 0.950 1_565 S
C382 H378 0.949 . S
C382 C390 1.574 . S
C382 C398 1.368 . S
H383 C391 0.950 . S
H384 C389 0.950 . S
H385 C390 0.949 . S
H386 C392 0.950 . S
H387 C393 0.950 . S
H388 C394 0.949 . S
C389 H384 0.950 . S
C389 C391 1.327 . S
C389 C395 1.429 . S
C390 C382 1.574 . S
C390 H385 0.949 . S
C390 C396 1.368 1_565 S
C391 C375 1.349 . S
C391 H383 0.950 . S
C391 C389 1.327 . S
C392 C380 1.349 . S
C392 H386 0.950 . S
C392 C393 1.327 . S
C393 H387 0.950 . S
C393 C392 1.327 . S
C393 C397 1.429 . S
C394 C377 1.574 . S
C394 H388 0.949 . S
C394 C398 1.368 1_545 S
C395 C376 1.429 . S
C395 C389 1.429 . S
C395 C396 1.523 . S
C396 C377 1.368 . S
C396 C390 1.368 1_545 S
C396 C395 1.523 . S
C397 C381 1.429 . S
C397 C393 1.429 . S
C397 C398 1.523 . S
C398 C382 1.368 . S
C398 C394 1.368 1_565 S
C398 C397 1.523 . S
H399 C374 0.950 . S
H400 C376 0.950 1_565 S
H401 C377 0.949 . S
H402 C379 0.950 . S
H403 C381 0.950 1_545 S
C404 C405 1.349 . S
C404 C406 1.327 . S
C404 H429 0.950 . S
C405 C404 1.349 . S
C405 C421 1.349 . S
C406 C404 1.327 . S
C406 C425 1.429 . S
C406 H430 0.950 . S
C407 C424 1.574 1_655 S
C407 C426 1.368 . S
C407 H431 0.949 . S
H408 C412 0.949 . S
C409 C410 1.349 . S
C409 C411 1.327 . S
C409 H432 0.950 . S
C410 C409 1.349 . S
C410 C422 1.349 . S
C411 C409 1.327 . S
C411 C427 1.429 . S
C411 H433 0.950 . S
C412 H408 0.949 . S
C412 C420 1.574 1_455 S
C412 C428 1.368 . S
H413 C421 0.950 . S
H414 C419 0.950 . S
H415 C420 0.949 . S
H416 C422 0.950 . S
H417 C423 0.950 . S
H418 C424 0.949 . S
C419 H414 0.950 . S
C419 C421 1.327 . S
C419 C425 1.429 . S
C420 C412 1.574 1_655 S
C420 H415 0.949 . S
C420 C426 1.368 . S
C421 C405 1.349 . S
C421 H413 0.950 . S
C421 C419 1.327 . S
C422 C410 1.349 . S
C422 H416 0.950 . S
C422 C423 1.327 . S
C423 H417 0.950 . S
C423 C422 1.327 . S
C423 C427 1.429 . S
C424 C407 1.574 1_455 S
C424 H418 0.949 . S
C424 C428 1.368 . S
C425 C406 1.429 . S
C425 C419 1.429 . S
C425 C426 1.523 . S
C426 C407 1.368 . S
C426 C420 1.368 . S
C426 C425 1.523 . S
C427 C411 1.429 . S
C427 C423 1.429 . S
C427 C428 1.523 . S
C428 C412 1.368 . S
C428 C424 1.368 . S
C428 C427 1.523 . S
H429 C404 0.950 . S
H430 C406 0.950 . S
H431 C407 0.949 . S
H432 C409 0.950 . S
H433 C411 0.950 . S
C434 C435 1.349 . S
C434 C436 1.327 . S
C434 H459 0.950 . S
C435 C434 1.349 . S
C435 C451 1.349 . S
C436 C434 1.327 . S
C436 C455 1.429 . S
C436 H460 0.950 . S
C437 C454 1.574 . S
C437 C456 1.368 1_556 S
C437 H461 0.949 . S
H438 C442 0.949 . S
C439 C440 1.349 . S
C439 C441 1.327 . S
C439 H462 0.950 . S
C440 C439 1.349 . S
C440 C452 1.349 . S
C441 C439 1.327 . S
C441 C457 1.429 . S
C441 H463 0.950 . S
C442 H438 0.949 . S
C442 C450 1.574 . S
C442 C458 1.368 1_554 S
H443 C451 0.950 . S
H444 C449 0.950 . S
H445 C450 0.949 . S
H446 C452 0.950 . S
H447 C453 0.950 . S
H448 C454 0.949 . S
C449 H444 0.950 . S
C449 C451 1.327 . S
C449 C455 1.429 . S
C450 C442 1.574 . S
C450 H445 0.949 . S
C450 C456 1.368 . S
C451 C435 1.349 . S
C451 H443 0.950 . S
C451 C449 1.327 . S
C452 C440 1.349 . S
C452 H446 0.950 . S
C452 C453 1.327 . S
C453 H447 0.950 . S
C453 C452 1.327 . S
C453 C457 1.429 . S
C454 C437 1.574 . S
C454 H448 0.949 . S
C454 C458 1.368 . S
C455 C436 1.429 . S
C455 C449 1.429 . S
C455 C456 1.523 . S
C456 C437 1.368 1_554 S
C456 C450 1.368 . S
C456 C455 1.523 . S
C457 C441 1.429 . S
C457 C453 1.429 . S
C457 C458 1.523 . S
C458 C442 1.368 1_556 S
C458 C454 1.368 . S
C458 C457 1.523 . S
H459 C434 0.950 . S
H460 C436 0.950 . S
H461 C437 0.949 . S
H462 C439 0.950 . S
H463 C441 0.950 . S
C464 C465 1.349 . S
C464 C466 1.327 . S
C464 H489 0.950 . S
C465 C464 1.349 . S
C465 C481 1.349 . S
C466 C464 1.327 . S
C466 C485 1.429 . S
C466 H490 0.950 . S
C467 C484 1.572 1_456 S
C467 C486 1.370 . S
C467 H491 0.949 . S
H468 C472 0.949 . S
C469 C470 1.349 . S
C469 C471 1.327 . S
C469 H492 0.950 . S
C470 C469 1.349 . S
C470 C482 1.349 . S
C471 C469 1.327 . S
C471 C487 1.429 . S
C471 H493 0.950 . S
C472 H468 0.949 . S
C472 C480 1.572 1_654 S
C472 C488 1.370 . S
H473 C481 0.950 . S
H474 C479 0.950 . S
H475 C480 0.949 . S
H476 C482 0.950 . S
H477 C483 0.950 . S
H478 C484 0.949 . S
C479 H474 0.950 . S
C479 C481 1.327 . S
C479 C485 1.429 . S
C480 C472 1.572 1_456 S
C480 H475 0.949 . S
C480 C486 1.368 . S
C481 C465 1.349 . S
C481 H473 0.950 . S
C481 C479 1.327 . S
C482 C470 1.349 . S
C482 H476 0.950 . S
C482 C483 1.327 . S
C483 H477 0.950 . S
C483 C482 1.327 . S
C483 C487 1.429 . S
C484 C467 1.572 1_654 S
C484 H478 0.949 . S
C484 C488 1.368 . S
C485 C466 1.429 . S
C485 C479 1.429 . S
C485 C486 1.523 . S
C486 C467 1.370 . S
C486 C480 1.368 . S
C486 C485 1.523 . S
C487 C471 1.429 . S
C487 C483 1.429 . S
C487 C488 1.523 . S
C488 C472 1.370 . S
C488 C484 1.368 . S
C488 C487 1.523 . S
H489 C464 0.950 . S
H490 C466 0.950 . S
H491 C467 0.949 . S
H492 C469 0.950 . S
H493 C471 0.950 . S
C494 C495 1.349 . S
C494 C496 1.327 . S
C494 H519 0.950 . S
C495 C494 1.349 . S
C495 C511 1.349 . S
C496 C494 1.327 . S
C496 C515 1.429 . S
C496 H520 0.950 . S
C497 C514 1.574 . S
C497 C516 1.368 . S
C497 H521 0.949 . S
H498 C502 0.949 . S
C499 C500 1.349 . S
C499 C501 1.327 . S
C499 H522 0.950 . S
C500 C499 1.349 . S
C500 C512 1.349 . S
C501 C499 1.327 . S
C501 C517 1.429 . S
C501 H523 0.950 . S
C502 H498 0.949 . S
C502 C510 1.574 . S
C502 C518 1.368 . S
H503 C511 0.950 . S
H504 C509 0.950 . S
H505 C510 0.949 . S
H506 C512 0.950 . S
H507 C513 0.950 . S
H508 C514 0.949 . S
C509 H504 0.950 . S
C509 C511 1.327 . S
C509 C515 1.429 . S
C510 C502 1.574 . S
C510 H505 0.949 . S
C510 C516 1.368 . S
C511 C495 1.349 . S
C511 H503 0.950 . S
C511 C509 1.327 . S
C512 C500 1.349 . S
C512 H506 0.950 . S
C512 C513 1.327 . S
C513 H507 0.950 . S
C513 C512 1.327 . S
C513 C517 1.429 . S
C514 C497 1.574 . S
C514 H508 0.949 . S
C514 C518 1.368 . S
C515 C496 1.429 . S
C515 C509 1.429 . S
C515 C516 1.523 . S
C516 C497 1.368 . S
C516 C510 1.368 . S
C516 C515 1.523 . S
C517 C501 1.429 . S
C517 C513 1.429 . S
C517 C518 1.523 . S
C518 C502 1.368 . S
C518 C514 1.368 . S
C518 C517 1.523 . S
H519 C494 0.950 . S
H520 C496 0.950 . S
H521 C497 0.949 . S
H522 C499 0.950 . S
H523 C501 0.950 . S
C524 C525 1.349 . S
C524 C526 1.327 . S
C524 H549 0.950 . S
C525 C524 1.349 . S
C525 C541 1.349 . S
C526 C524 1.327 . S
C526 C545 1.429 . S
C526 H550 0.950 . S
C527 C544 1.574 . S
C527 C546 1.368 1_554 S
C527 H551 0.949 . S
H528 C532 0.949 . S
C529 C530 1.349 . S
C529 C531 1.327 . S
C529 H552 0.950 . S
C530 C529 1.349 . S
C530 C542 1.349 . S
C531 C529 1.327 . S
C531 C547 1.429 . S
C531 H553 0.950 . S
C532 H528 0.949 . S
C532 C540 1.574 . S
C532 C548 1.368 1_556 S
H533 C541 0.950 . S
H534 C539 0.948 1_554 S
H535 C540 0.949 . S
H536 C542 0.950 . S
H537 C543 0.948 1_556 S
H538 C544 0.949 . S
C539 H534 0.948 1_556 S
C539 C541 1.327 . S
C539 C545 1.429 . S
C540 C532 1.574 . S
C540 H535 0.949 . S
C540 C546 1.368 . S
C541 C525 1.349 . S
C541 H533 0.950 . S
C541 C539 1.327 . S
C542 C530 1.349 . S
C542 H536 0.950 . S
C542 C543 1.327 . S
C543 H537 0.948 1_554 S
C543 C542 1.327 . S
C543 C547 1.429 . S
C544 C527 1.574 . S
C544 H538 0.949 . S
C544 C548 1.368 . S
C545 C526 1.429 . S
C545 C539 1.429 . S
C545 C546 1.523 . S
C546 C527 1.368 1_556 S
C546 C540 1.368 . S
C546 C545 1.523 . S
C547 C531 1.429 . S
C547 C543 1.429 . S
C547 C548 1.523 . S
C548 C532 1.368 1_554 S
C548 C544 1.368 . S
C548 C547 1.523 . S
H549 C524 0.950 . S
H550 C526 0.950 . S
H551 C527 0.949 . S
H552 C529 0.950 . S
H553 C531 0.950 . S
C554 C555 1.349 . S
C554 C556 1.327 . S
C554 H579 0.950 . S
C555 C554 1.349 . S
C555 C571 1.349 . S
C556 C554 1.327 . S
C556 C575 1.429 . S
C556 H580 0.950 . S
C557 C574 1.574 . S
C557 C576 1.368 . S
C557 H581 0.949 . S
H558 C562 0.949 . S
C559 C560 1.349 . S
C559 C561 1.327 . S
C559 H582 0.950 . S
C560 C559 1.349 . S
C560 C572 1.349 . S
C561 C559 1.327 . S
C561 C577 1.429 . S
C561 H583 0.950 . S
C562 H558 0.949 . S
C562 C570 1.574 . S
C562 C578 1.368 . S
H563 C571 0.950 . S
H564 C569 0.950 . S
H565 C570 0.949 . S
H566 C572 0.950 . S
H567 C573 0.950 . S
H568 C574 0.949 . S
C569 H564 0.950 . S
C569 C571 1.327 . S
C569 C575 1.429 . S
C570 C562 1.574 . S
C570 H565 0.949 . S
C570 C576 1.368 . S
C571 C555 1.349 . S
C571 H563 0.950 . S
C571 C569 1.327 . S
C572 C560 1.349 . S
C572 H566 0.950 . S
C572 C573 1.327 . S
C573 H567 0.950 . S
C573 C572 1.327 . S
C573 C577 1.429 . S
C574 C557 1.574 . S
C574 H568 0.949 . S
C574 C578 1.368 . S
C575 C556 1.429 . S
C575 C569 1.429 . S
C575 C576 1.523 . S
C576 C557 1.368 . S
C576 C570 1.368 . S
C576 C575 1.523 . S
C577 C561 1.429 . S
C577 C573 1.429 . S
C577 C578 1.523 . S
C578 C562 1.368 . S
C578 C574 1.368 . S
C578 C577 1.523 . S
H579 C554 0.950 . S
H580 C556 0.950 . S
H581 C557 0.949 . S
H582 C559 0.950 . S
H583 C561 0.950 . S
C584 C585 1.349 . S
C584 C586 1.327 . S
C584 H609 0.950 . S
C585 C584 1.349 . S
C585 C601 1.349 . S
C586 C584 1.327 . S
C586 C605 1.429 . S
C586 H610 0.950 . S
C587 C604 1.563 1_556 S
C587 C606 1.368 1_565 S
C587 H611 0.949 . S
H588 C592 0.949 . S
C589 C590 1.349 . S
C589 C591 1.327 . S
C589 H612 0.950 . S
C590 C589 1.349 . S
C590 C602 1.349 . S
C591 C589 1.327 . S
C591 C607 1.429 . S
C591 H613 0.950 . S
C592 H588 0.949 . S
C592 C600 1.563 1_554 S
C592 C608 1.368 1_545 S
H593 C601 0.950 . S
H594 C599 0.950 1_565 S
H595 C600 0.945 . S
H596 C602 0.950 . S
H597 C603 0.950 1_545 S
H598 C604 0.945 . S
C599 H594 0.950 1_545 S
C599 C601 1.327 . S
C599 C605 1.429 . S
C600 C592 1.563 1_556 S
C600 H595 0.945 . S
C600 C606 1.376 . S
C601 C585 1.349 . S
C601 H593 0.950 . S
C601 C599 1.327 . S
C602 C590 1.349 . S
C602 H596 0.950 . S
C602 C603 1.327 . S
C603 H597 0.950 1_565 S
C603 C602 1.327 . S
C603 C607 1.429 . S
C604 C587 1.563 1_554 S
C604 H598 0.945 . S
C604 C608 1.376 . S
C605 C586 1.429 . S
C605 C599 1.429 . S
C605 C606 1.523 . S
C606 C587 1.368 1_545 S
C606 C600 1.376 . S
C606 C605 1.523 . S
C607 C591 1.429 . S
C607 C603 1.429 . S
C607 C608 1.523 . S
C608 C592 1.368 1_565 S
C608 C604 1.376 . S
C608 C607 1.523 . S
H609 C584 0.950 . S
H610 C586 0.950 . S
H611 C587 0.949 . S
H612 C589 0.950 . S
H613 C591 0.950 . S
C614 C615 1.349 . S
C614 C616 1.327 . S
C614 H639 0.950 . S
C615 C614 1.349 . S
C615 C631 1.349 . S
C616 C614 1.327 . S
C616 C635 1.429 . S
C616 H640 0.950 . S
C617 C634 1.574 . S
C617 C636 1.368 . S
C617 H641 0.949 . S
H618 C622 0.949 . S
C619 C620 1.349 . S
C619 C621 1.327 . S
C619 H642 0.950 . S
C620 C619 1.349 . S
C620 C632 1.349 . S
C621 C619 1.327 . S
C621 C637 1.429 . S
C621 H643 0.950 . S
C622 H618 0.949 . S
C622 C630 1.574 . S
C622 C638 1.368 . S
H623 C631 0.950 . S
H624 C629 0.950 . S
H625 C630 0.949 . S
H626 C632 0.950 . S
H627 C633 0.950 . S
H628 C634 0.949 . S
C629 H624 0.950 . S
C629 C631 1.327 . S
C629 C635 1.429 . S
C630 C622 1.574 . S
C630 H625 0.949 . S
C630 C636 1.368 . S
C631 C615 1.349 . S
C631 H623 0.950 . S
C631 C629 1.327 . S
C632 C620 1.349 . S
C632 H626 0.950 . S
C632 C633 1.327 . S
C633 H627 0.950 . S
C633 C632 1.327 . S
C633 C637 1.429 . S
C634 C617 1.574 . S
C634 H628 0.949 . S
C634 C638 1.368 . S
C635 C616 1.429 . S
C635 C629 1.429 . S
C635 C636 1.523 . S
C636 C617 1.368 . S
C636 C630 1.368 . S
C636 C635 1.523 . S
C637 C621 1.429 . S
C637 C633 1.429 . S
C637 C638 1.523 . S
C638 C622 1.368 . S
C638 C634 1.368 . S
C638 C637 1.523 . S
H639 C614 0.950 . S
H640 C616 0.950 . S
H641 C617 0.949 . S
H642 C619 0.950 . S
H643 C621 0.950 . S
C644 C645 1.349 . S
C644 C646 1.327 . S
C644 H669 0.950 . S
C645 C644 1.349 . S
C645 C661 1.349 . S
C646 C644 1.327 . S
C646 C665 1.429 . S
C646 H670 0.950 . S
C647 C664 1.574 . S
C647 C666 1.368 . S
C647 H671 0.949 . S
H648 C652 0.949 . S
C649 C650 1.349 . S
C649 C651 1.327 . S
C649 H672 0.950 . S
C650 C649 1.349 . S
C650 C662 1.349 . S
C651 C649 1.327 . S
C651 C667 1.429 . S
C651 H673 0.950 . S
C652 H648 0.949 . S
C652 C660 1.574 . S
C652 C668 1.368 . S
H653 C661 0.950 . S
H654 C659 0.950 . S
H655 C660 0.949 . S
H656 C662 0.950 . S
H657 C663 0.950 . S
H658 C664 0.949 . S
C659 H654 0.950 . S
C659 C661 1.327 . S
C659 C665 1.429 . S
C660 C652 1.574 . S
C660 H655 0.949 . S
C660 C666 1.368 . S
C661 C645 1.349 . S
C661 H653 0.950 . S
C661 C659 1.327 . S
C662 C650 1.349 . S
C662 H656 0.950 . S
C662 C663 1.327 . S
C663 H657 0.950 . S
C663 C662 1.327 . S
C663 C667 1.429 . S
C664 C647 1.574 . S
C664 H658 0.949 . S
C664 C668 1.368 . S
C665 C646 1.429 . S
C665 C659 1.429 . S
C665 C666 1.523 . S
C666 C647 1.368 . S
C666 C660 1.368 . S
C666 C665 1.523 . S
C667 C651 1.429 . S
C667 C663 1.429 . S
C667 C668 1.523 . S
C668 C652 1.368 . S
C668 C664 1.368 . S
C668 C667 1.523 . S
H669 C644 0.950 . S
H670 C646 0.950 . S
H671 C647 0.949 . S
H672 C649 0.950 . S
H673 C651 0.950 . S
C674 C675 1.349 . S
C674 C676 1.327 . S
C674 H699 0.950 . S
C675 C674 1.349 . S
C675 C691 1.349 . S
C676 C674 1.327 . S
C676 C695 1.429 . S
C676 H700 0.950 . S
C677 C694 1.574 . S
C677 C696 1.368 . S
C677 H701 0.949 . S
H678 C682 0.949 . S
C679 C680 1.349 . S
C679 C681 1.327 . S
C679 H702 0.950 . S
C680 C679 1.349 . S
C680 C692 1.349 . S
C681 C679 1.327 . S
C681 C697 1.429 . S
C681 H703 0.950 . S
C682 H678 0.949 . S
C682 C690 1.574 . S
C682 C698 1.368 . S
H683 C691 0.950 . S
H684 C689 0.950 . S
H685 C690 0.949 . S
H686 C692 0.950 . S
H687 C693 0.950 . S
H688 C694 0.949 . S
C689 H684 0.950 . S
C689 C691 1.327 . S
C689 C695 1.429 . S
C690 C682 1.574 . S
C690 H685 0.949 . S
C690 C696 1.368 . S
C691 C675 1.349 . S
C691 H683 0.950 . S
C691 C689 1.327 . S
C692 C680 1.349 . S
C692 H686 0.950 . S
C692 C693 1.327 . S
C693 H687 0.950 . S
C693 C692 1.327 . S
C693 C697 1.429 . S
C694 C677 1.574 . S
C694 H688 0.949 . S
C694 C698 1.368 . S
C695 C676 1.429 . S
C695 C689 1.429 . S
C695 C696 1.523 . S
C696 C677 1.368 . S
C696 C690 1.368 . S
C696 C695 1.523 . S
C697 C681 1.429 . S
C697 C693 1.429 . S
C697 C698 1.523 . S
C698 C682 1.368 . S
C698 C694 1.368 . S
C698 C697 1.523 . S
H699 C674 0.950 . S
H700 C676 0.950 . S
H701 C677 0.949 . S
H702 C679 0.950 . S
H703 C681 0.950 . S
C704 C705 1.349 . S
C704 C706 1.327 . S
C704 H729 0.950 . S
C705 C704 1.349 . S
C705 C721 1.349 . S
C706 C704 1.327 . S
C706 C725 1.429 . S
C706 H730 0.950 . S
C707 C724 1.574 . S
C707 C726 1.368 . S
C707 H731 0.949 . S
H708 C712 0.949 . S
C709 C710 1.349 . S
C709 C711 1.327 1_545 S
C709 H732 0.950 . S
C710 C709 1.349 . S
C710 C722 1.349 1_545 S
C711 C709 1.327 1_565 S
C711 C727 1.429 . S
C711 H733 0.948 1_565 S
C712 H708 0.949 . S
C712 C720 1.574 . S
C712 C728 1.368 . S
H713 C721 0.950 . S
H714 C719 0.950 . S
H715 C720 0.949 . S
H716 C722 0.950 . S
H717 C723 0.950 . S
H718 C724 0.949 . S
C719 H714 0.950 . S
C719 C721 1.327 . S
C719 C725 1.429 . S
C720 C712 1.574 . S
C720 H715 0.949 . S
C720 C726 1.368 . S
C721 C705 1.349 . S
C721 H713 0.950 . S
C721 C719 1.327 . S
C722 C710 1.349 1_565 S
C722 H716 0.950 . S
C722 C723 1.327 . S
C723 H717 0.950 . S
C723 C722 1.327 . S
C723 C727 1.429 . S
C724 C707 1.574 . S
C724 H718 0.949 . S
C724 C728 1.368 . S
C725 C706 1.429 . S
C725 C719 1.429 . S
C725 C726 1.523 . S
C726 C707 1.368 . S
C726 C720 1.368 . S
C726 C725 1.523 . S
C727 C711 1.429 . S
C727 C723 1.429 . S
C727 C728 1.523 . S
C728 C712 1.368 . S
C728 C724 1.368 . S
C728 C727 1.523 . S
H729 C704 0.950 . S
H730 C706 0.950 . S
H731 C707 0.949 . S
H732 C709 0.950 . S
H733 C711 0.948 1_545 S
C734 C735 1.349 . S
C734 C736 1.327 . S
C734 H759 0.950 . S
C735 C734 1.349 . S
C735 C751 1.349 . S
C736 C734 1.327 . S
C736 C755 1.429 . S
C736 H760 0.950 . S
C737 C754 1.574 . S
C737 C756 1.368 . S
C737 H761 0.949 . S
H738 C742 0.949 . S
C739 C740 1.349 . S
C739 C741 1.327 . S
C739 H762 0.950 . S
C740 C739 1.349 . S
C740 C752 1.349 . S
C741 C739 1.327 . S
C741 C757 1.429 . S
C741 H763 0.950 . S
C742 H738 0.949 . S
C742 C750 1.574 . S
C742 C758 1.368 . S
H743 C751 0.950 . S
H744 C749 0.950 . S
H745 C750 0.949 . S
H746 C752 0.950 . S
H747 C753 0.950 . S
H748 C754 0.949 . S
C749 H744 0.950 . S
C749 C751 1.327 . S
C749 C755 1.429 . S
C750 C742 1.574 . S
C750 H745 0.949 . S
C750 C756 1.368 . S
C751 C735 1.349 . S
C751 H743 0.950 . S
C751 C749 1.327 . S
C752 C740 1.349 . S
C752 H746 0.950 . S
C752 C753 1.327 . S
C753 H747 0.950 . S
C753 C752 1.327 . S
C753 C757 1.429 . S
C754 C737 1.574 . S
C754 H748 0.949 . S
C754 C758 1.368 . S
C755 C736 1.429 . S
C755 C749 1.429 . S
C755 C756 1.523 . S
C756 C737 1.368 . S
C756 C750 1.368 . S
C756 C755 1.523 . S
C757 C741 1.429 . S
C757 C753 1.429 . S
C757 C758 1.523 . S
C758 C742 1.368 . S
C758 C754 1.368 . S
C758 C757 1.523 . S
H759 C734 0.950 . S
H760 C736 0.950 . S
H761 C737 0.949 . S
H762 C739 0.950 . S
H763 C741 0.950 . S
C764 C765 1.349 . S
C764 C766 1.327 . S
C764 H789 0.950 . S
C765 C764 1.349 . S
C765 C781 1.349 . S
C766 C764 1.327 . S
C766 C785 1.429 . S
C766 H790 0.950 . S
C767 C784 1.574 . S
C767 C786 1.368 . S
C767 H791 0.949 . S
H768 C772 0.949 . S
C769 C770 1.349 . S
C769 C771 1.327 . S
C769 H792 0.950 . S
C770 C769 1.349 . S
C770 C782 1.349 . S
C771 C769 1.327 . S
C771 C787 1.429 . S
C771 H793 0.950 . S
C772 H768 0.949 . S
C772 C780 1.574 . S
C772 C788 1.368 . S
H773 C781 0.950 . S
H774 C779 0.950 . S
H775 C780 0.949 . S
H776 C782 0.950 . S
H777 C783 0.950 . S
H778 C784 0.949 . S
C779 H774 0.950 . S
C779 C781 1.327 . S
C779 C785 1.429 . S
C780 C772 1.574 . S
C780 H775 0.949 . S
C780 C786 1.368 . S
C781 C765 1.349 . S
C781 H773 0.950 . S
C781 C779 1.327 . S
C782 C770 1.349 . S
C782 H776 0.950 . S
C782 C783 1.327 . S
C783 H777 0.950 . S
C783 C782 1.327 . S
C783 C787 1.429 . S
C784 C767 1.574 . S
C784 H778 0.949 . S
C784 C788 1.368 . S
C785 C766 1.429 . S
C785 C779 1.429 . S
C785 C786 1.523 . S
C786 C767 1.368 . S
C786 C780 1.368 . S
C786 C785 1.523 . S
C787 C771 1.429 . S
C787 C783 1.429 . S
C787 C788 1.523 . S
C788 C772 1.368 . S
C788 C784 1.368 . S
C788 C787 1.523 . S
H789 C764 0.950 . S
H790 C766 0.950 . S
H791 C767 0.949 . S
H792 C769 0.950 . S
H793 C771 0.950 . S
C794 C795 1.349 . S
C794 C796 1.327 . S
C794 H819 0.950 . S
C795 C794 1.349 . S
C795 C811 1.349 . S
C796 C794 1.327 . S
C796 C815 1.429 . S
C796 H820 0.950 . S
C797 C814 1.574 . S
C797 C816 1.368 . S
C797 H821 0.949 . S
H798 C802 0.949 . S
C799 C800 1.349 1_565 S
C799 C801 1.327 . S
C799 H822 0.950 . S
C800 C799 1.349 1_545 S
C800 C812 1.349 . S
C801 C799 1.327 . S
C801 C817 1.429 . S
C801 H823 0.950 . S
C802 H798 0.949 . S
C802 C810 1.574 . S
C802 C818 1.368 . S
H803 C811 0.950 . S
H804 C809 0.950 . S
H805 C810 0.949 . S
H806 C812 0.950 . S
H807 C813 0.950 1_545 S
H808 C814 0.949 . S
C809 H804 0.950 . S
C809 C811 1.327 . S
C809 C815 1.429 . S
C810 C802 1.574 . S
C810 H805 0.949 . S
C810 C816 1.368 . S
C811 C795 1.349 . S
C811 H803 0.950 . S
C811 C809 1.327 . S
C812 C800 1.349 . S
C812 H806 0.950 . S
C812 C813 1.327 1_545 S
C813 H807 0.950 1_565 S
C813 C812 1.327 1_565 S
C813 C817 1.429 . S
C814 C797 1.574 . S
C814 H808 0.949 . S
C814 C818 1.368 . S
C815 C796 1.429 . S
C815 C809 1.429 . S
C815 C816 1.523 . S
C816 C797 1.368 . S
C816 C810 1.368 . S
C816 C815 1.523 . S
C817 C801 1.429 . S
C817 C813 1.429 . S
C817 C818 1.523 . S
C818 C802 1.368 . S
C818 C814 1.368 . S
C818 C817 1.523 . S
H819 C794 0.950 . S
H820 C796 0.950 . S
H821 C797 0.949 . S
H822 C799 0.950 . S
H823 C801 0.950 . S
C824 C825 1.349 . S
C824 C826 1.327 . S
C824 H849 0.950 . S
C825 C824 1.349 . S
C825 C841 1.349 . S
C826 C824 1.327 . S
C826 C845 1.429 . S
C826 H850 0.950 . S
C827 C844 1.574 . S
C827 C846 1.368 . S
C827 H851 0.949 . S
H828 C832 0.949 . S
C829 C830 1.349 1_545 S
C829 C831 1.327 . S
C829 H852 0.950 . S
C830 C829 1.349 1_565 S
C830 C842 1.349 . S
C831 C829 1.327 . S
C831 C847 1.429 . S
C831 H853 0.950 . S
C832 H828 0.949 . S
C832 C840 1.574 . S
C832 C848 1.368 . S
H833 C841 0.950 . S
H834 C839 0.950 . S
H835 C840 0.949 . S
H836 C842 0.950 . S
H837 C843 0.952 . S
H838 C844 0.949 . S
C839 H834 0.950 . S
C839 C841 1.327 . S
C839 C845 1.429 . S
C840 C832 1.574 . S
C840 H835 0.949 . S
C840 C846 1.368 . S
C841 C825 1.349 . S
C841 H833 0.950 . S
C841 C839 1.327 . S
C842 C830 1.349 . S
C842 H836 0.950 . S
C842 C843 1.327 1_565 S
C843 H837 0.952 . S
C843 C842 1.327 1_545 S
C843 C847 1.429 . S
C844 C827 1.574 . S
C844 H838 0.949 . S
C844 C848 1.368 . S
C845 C826 1.429 . S
C845 C839 1.429 . S
C845 C846 1.523 . S
C846 C827 1.368 . S
C846 C840 1.368 . S
C846 C845 1.523 . S
C847 C831 1.429 . S
C847 C843 1.429 . S
C847 C848 1.523 . S
C848 C832 1.368 . S
C848 C844 1.368 . S
C848 C847 1.523 . S
H849 C824 0.950 . S
H850 C826 0.950 . S
H851 C827 0.949 . S
H852 C829 0.950 . S
H853 C831 0.950 . S
C854 C855 1.349 . S
C854 C856 1.327 . S
C854 H879 0.950 . S
C855 C854 1.349 . S
C855 C871 1.349 . S
C856 C854 1.327 . S
C856 C875 1.429 . S
C856 H880 0.950 . S
C857 C874 1.574 . S
C857 C876 1.368 . S
C857 H881 0.949 . S
H858 C862 0.949 . S
C859 C860 1.349 . S
C859 C861 1.327 . S
C859 H882 0.950 . S
C860 C859 1.349 . S
C860 C872 1.349 . S
C861 C859 1.327 . S
C861 C877 1.429 . S
C861 H883 0.950 . S
C862 H858 0.949 . S
C862 C870 1.574 . S
C862 C878 1.368 . S
H863 C871 0.950 . S
H864 C869 0.950 . S
H865 C870 0.949 . S
H866 C872 0.950 . S
H867 C873 0.950 . S
H868 C874 0.949 . S
C869 H864 0.950 . S
C869 C871 1.327 . S
C869 C875 1.429 . S
C870 C862 1.574 . S
C870 H865 0.949 . S
C870 C876 1.368 . S
C871 C855 1.349 . S
C871 H863 0.950 . S
C871 C869 1.327 . S
C872 C860 1.349 . S
C872 H866 0.950 . S
C872 C873 1.327 . S
C873 H867 0.950 . S
C873 C872 1.327 . S
C873 C877 1.429 . S
C874 C857 1.574 . S
C874 H868 0.949 . S
C874 C878 1.368 . S
C875 C856 1.429 . S
C875 C869 1.429 . S
C875 C876 1.523 . S
C876 C857 1.368 . S
C876 C870 1.368 . S
C876 C875 1.523 . S
C877 C861 1.429 . S
C877 C873 1.429 . S
C877 C878 1.523 . S
C878 C862 1.368 . S
C878 C874 1.368 . S
C878 C877 1.523 . S
H879 C854 0.950 . S
H880 C856 0.950 . S
H881 C857 0.949 . S
H882 C859 0.950 . S
H883 C861 0.950 . S
C884 C885 1.349 . S
C884 C886 1.327 . S
C884 H909 0.950 . S
C885 C884 1.349 . S
C885 C901 1.349 . S
C886 C884 1.327 . S
C886 C905 1.429 . S
C886 H910 0.950 . S
C887 C904 1.574 . S
C887 C906 1.368 . S
C887 H911 0.949 . S
H888 C892 0.949 . S
C889 C890 1.349 . S
C889 C891 1.327 . S
C889 H912 0.950 . S
C890 C889 1.349 . S
C890 C902 1.349 . S
C891 C889 1.327 . S
C891 C907 1.429 . S
C891 H913 0.950 . S
C892 H888 0.949 . S
C892 C900 1.574 . S
C892 C908 1.368 . S
H893 C901 0.950 . S
H894 C899 0.950 . S
H895 C900 0.949 . S
H896 C902 0.950 . S
H897 C903 0.950 . S
H898 C904 0.949 . S
C899 H894 0.950 . S
C899 C901 1.327 . S
C899 C905 1.429 . S
C900 C892 1.574 . S
C900 H895 0.949 . S
C900 C906 1.368 . S
C901 C885 1.349 . S
C901 H893 0.950 . S
C901 C899 1.327 . S
C902 C890 1.349 . S
C902 H896 0.950 . S
C902 C903 1.327 . S
C903 H897 0.950 . S
C903 C902 1.327 . S
C903 C907 1.429 . S
C904 C887 1.574 . S
C904 H898 0.949 . S
C904 C908 1.368 . S
C905 C886 1.429 . S
C905 C899 1.429 . S
C905 C906 1.523 . S
C906 C887 1.368 . S
C906 C900 1.368 . S
C906 C905 1.523 . S
C907 C891 1.429 . S
C907 C903 1.429 . S
C907 C908 1.523 . S
C908 C892 1.368 . S
C908 C904 1.368 . S
C908 C907 1.523 . S
H909 C884 0.950 . S
H910 C886 0.950 . S
H911 C887 0.949 . S
H912 C889 0.950 . S
H913 C891 0.950 . S
C914 C915 1.349 . S
C914 C916 1.327 1_565 S
C914 H939 0.950 . S
C915 C914 1.349 . S
C915 C931 1.349 1_565 S
C916 C914 1.327 1_545 S
C916 C935 1.429 . S
C916 H940 0.950 1_545 S
C917 C934 1.574 . S
C917 C936 1.368 . S
C917 H941 0.949 . S
H918 C922 0.949 . S
C919 C920 1.349 . S
C919 C921 1.327 . S
C919 H942 0.950 . S
C920 C919 1.349 . S
C920 C932 1.349 . S
C921 C919 1.327 . S
C921 C937 1.429 . S
C921 H943 0.950 . S
C922 H918 0.949 . S
C922 C930 1.574 . S
C922 C938 1.368 . S
H923 C931 0.950 . S
H924 C929 0.950 . S
H925 C930 0.949 . S
H926 C932 0.950 . S
H927 C933 0.950 . S
H928 C934 0.949 . S
C929 H924 0.950 . S
C929 C931 1.327 . S
C929 C935 1.429 . S
C930 C922 1.574 . S
C930 H925 0.949 . S
C930 C936 1.368 . S
C931 C915 1.349 1_545 S
C931 H923 0.950 . S
C931 C929 1.327 . S
C932 C920 1.349 . S
C932 H926 0.950 . S
C932 C933 1.327 . S
C933 H927 0.950 . S
C933 C932 1.327 . S
C933 C937 1.429 . S
C934 C917 1.574 . S
C934 H928 0.949 . S
C934 C938 1.368 . S
C935 C916 1.429 . S
C935 C929 1.429 . S
C935 C936 1.523 . S
C936 C917 1.368 . S
C936 C930 1.368 . S
C936 C935 1.523 . S
C937 C921 1.429 . S
C937 C933 1.429 . S
C937 C938 1.523 . S
C938 C922 1.368 . S
C938 C934 1.368 . S
C938 C937 1.523 . S
H939 C914 0.950 . S
H940 C916 0.950 1_565 S
H941 C917 0.949 . S
H942 C919 0.950 . S
H943 C921 0.950 . S
C944 C945 1.349 . S
C944 C946 1.327 . S
C944 H969 0.950 . S
C945 C944 1.349 . S
C945 C961 1.349 . S
C946 C944 1.327 . S
C946 C965 1.429 . S
C946 H970 0.950 . S
C947 C964 1.574 . S
C947 C966 1.368 . S
C947 H971 0.949 . S
H948 C952 0.949 . S
C949 C950 1.349 . S
C949 C951 1.327 . S
C949 H972 0.950 . S
C950 C949 1.349 . S
C950 C962 1.349 1_545 S
C951 C949 1.327 . S
C951 C967 1.429 1_545 S
C951 H973 0.950 . S
C952 H948 0.949 . S
C952 C960 1.574 . S
C952 C968 1.368 . S
H953 C961 0.950 . S
H954 C959 0.950 . S
H955 C960 0.949 . S
H956 C962 0.950 . S
H957 C963 0.950 . S
H958 C964 0.949 . S
C959 H954 0.950 . S
C959 C961 1.327 . S
C959 C965 1.429 . S
C960 C952 1.574 . S
C960 H955 0.949 . S
C960 C966 1.368 . S
C961 C945 1.349 . S
C961 H953 0.950 . S
C961 C959 1.327 . S
C962 C950 1.349 1_565 S
C962 H956 0.950 . S
C962 C963 1.327 . S
C963 H957 0.950 . S
C963 C962 1.327 . S
C963 C967 1.429 . S
C964 C947 1.574 . S
C964 H958 0.949 . S
C964 C968 1.368 . S
C965 C946 1.429 . S
C965 C959 1.429 . S
C965 C966 1.523 . S
C966 C947 1.368 . S
C966 C960 1.368 . S
C966 C965 1.523 . S
C967 C951 1.429 1_565 S
C967 C963 1.429 . S
C967 C968 1.523 . S
C968 C952 1.368 . S
C968 C964 1.368 . S
C968 C967 1.523 . S
H969 C944 0.950 . S
H970 C946 0.950 . S
H971 C947 0.949 . S
H972 C949 0.950 . S
H973 C951 0.950 . S
C974 C975 1.349 . S
C974 C976 1.327 . S
C974 H999 0.950 . S
C975 C974 1.349 . S
C975 C991 1.349 . S
C976 C974 1.327 . S
C976 C995 1.429 . S
C976 H1000 0.950 . S
C977 C994 1.574 . S
C977 C996 1.368 . S
C977 H1001 0.949 . S
H978 C982 0.949 . S
C979 C980 1.349 . S
C979 C981 1.327 . S
C979 H1002 0.950 . S
C980 C979 1.349 . S
C980 C992 1.349 . S
C981 C979 1.327 . S
C981 C997 1.429 . S
C981 H1003 0.950 . S
C982 H978 0.949 . S
C982 C990 1.574 . S
C982 C998 1.368 . S
H983 C991 0.950 . S
H984 C989 0.950 . S
H985 C990 0.949 . S
H986 C992 0.950 . S
H987 C993 0.950 . S
H988 C994 0.949 . S
C989 H984 0.950 . S
C989 C991 1.327 . S
C989 C995 1.429 . S
C990 C982 1.574 . S
C990 H985 0.949 . S
C990 C996 1.368 . S
C991 C975 1.349 . S
C991 H983 0.950 . S
C991 C989 1.327 . S
C992 C980 1.349 . S
C992 H986 0.950 . S
C992 C993 1.327 . S
C993 H987 0.950 . S
C993 C992 1.327 . S
C993 C997 1.429 . S
C994 C977 1.574 . S
C994 H988 0.949 . S
C994 C998 1.368 . S
C995 C976 1.429 . S
C995 C989 1.429 . S
C995 C996 1.523 . S
C996 C977 1.368 . S
C996 C990 1.368 . S
C996 C995 1.523 . S
C997 C981 1.429 . S
C997 C993 1.429 . S
C997 C998 1.523 . S
C998 C982 1.368 . S
C998 C994 1.368 . S
C998 C997 1.523 . S
H999 C974 0.950 . S
H1000 C976 0.950 . S
H1001 C977 0.949 . S
H1002 C979 0.950 . S
H1003 C981 0.950 . S
C1004 C1005 1.349 . S
C1004 C1006 1.327 . S
C1004 H1029 0.950 . S
C1005 C1004 1.349 . S
C1005 C1021 1.349 . S
C1006 C1004 1.327 . S
C1006 C1025 1.429 . S
C1006 H1030 0.950 . S
C1007 C1024 1.574 . S
C1007 C1026 1.368 . S
C1007 H1031 0.949 . S
H1008 C1012 0.949 . S
C1009 C1010 1.349 . S
C1009 C1011 1.327 . S
C1009 H1032 0.950 . S
C1010 C1009 1.349 . S
C1010 C1022 1.349 . S
C1011 C1009 1.327 . S
C1011 C1027 1.429 . S
C1011 H1033 0.950 . S
C1012 H1008 0.949 . S
C1012 C1020 1.574 . S
C1012 C1028 1.368 . S
H1013 C1021 0.950 . S
H1014 C1019 0.950 . S
H1015 C1020 0.949 . S
H1016 C1022 0.950 . S
H1017 C1023 0.950 . S
H1018 C1024 0.949 . S
C1019 H1014 0.950 . S
C1019 C1021 1.327 . S
C1019 C1025 1.429 . S
C1020 C1012 1.574 . S
C1020 H1015 0.949 . S
C1020 C1026 1.368 . S
C1021 C1005 1.349 . S
C1021 H1013 0.950 . S
C1021 C1019 1.327 . S
C1022 C1010 1.349 . S
C1022 H1016 0.950 . S
C1022 C1023 1.327 . S
C1023 H1017 0.950 . S
C1023 C1022 1.327 . S
C1023 C1027 1.429 . S
C1024 C1007 1.574 . S
C1024 H1018 0.949 . S
C1024 C1028 1.368 . S
C1025 C1006 1.429 . S
C1025 C1019 1.429 . S
C1025 C1026 1.523 . S
C1026 C1007 1.368 . S
C1026 C1020 1.368 . S
C1026 C1025 1.523 . S
C1027 C1011 1.429 . S
C1027 C1023 1.429 . S
C1027 C1028 1.523 . S
C1028 C1012 1.368 . S
C1028 C1024 1.368 . S
C1028 C1027 1.523 . S
H1029 C1004 0.950 . S
H1030 C1006 0.950 . S
H1031 C1007 0.949 . S
H1032 C1009 0.950 . S
H1033 C1011 0.950 . S
C1034 C1035 1.349 . S
C1034 C1036 1.327 . S
C1034 H1059 0.950 . S
C1035 C1034 1.349 . S
C1035 C1051 1.349 . S
C1036 C1034 1.327 . S
C1036 C1055 1.429 . S
C1036 H1060 0.950 . S
C1037 C1054 1.574 . S
C1037 C1056 1.368 . S
C1037 H1061 0.949 . S
H1038 C1042 0.949 . S
C1039 C1040 1.349 . S
C1039 C1041 1.327 1_545 S
C1039 H1062 0.950 . S
C1040 C1039 1.349 . S
C1040 C1052 1.349 1_545 S
C1041 C1039 1.327 1_565 S
C1041 C1057 1.429 . S
C1041 H1063 0.950 . S
C1042 H1038 0.949 . S
C1042 C1050 1.574 . S
C1042 C1058 1.368 . S
H1043 C1051 0.950 . S
H1044 C1049 0.950 . S
H1045 C1050 0.949 . S
H1046 C1052 0.950 . S
H1047 C1053 0.950 . S
H1048 C1054 0.949 . S
C1049 H1044 0.950 . S
C1049 C1051 1.327 . S
C1049 C1055 1.429 . S
C1050 C1042 1.574 . S
C1050 H1045 0.949 . S
C1050 C1056 1.368 . S
C1051 C1035 1.349 . S
C1051 H1043 0.950 . S
C1051 C1049 1.327 . S
C1052 C1040 1.349 1_565 S
C1052 H1046 0.950 . S
C1052 C1053 1.327 . S
C1053 H1047 0.950 . S
C1053 C1052 1.327 . S
C1053 C1057 1.429 . S
C1054 C1037 1.574 . S
C1054 H1048 0.949 . S
C1054 C1058 1.368 . S
C1055 C1036 1.429 . S
C1055 C1049 1.429 . S
C1055 C1056 1.523 . S
C1056 C1037 1.368 . S
C1056 C1050 1.368 . S
C1056 C1055 1.523 . S
C1057 C1041 1.429 . S
C1057 C1053 1.429 . S
C1057 C1058 1.523 . S
C1058 C1042 1.368 . S
C1058 C1054 1.368 . S
C1058 C1057 1.523 . S
H1059 C1034 0.950 . S
H1060 C1036 0.950 . S
H1061 C1037 0.949 . S
H1062 C1039 0.950 . S
H1063 C1041 0.950 . S
C1064 C1065 1.349 . S
C1064 C1066 1.327 . S
C1064 H1089 0.950 . S
C1065 C1064 1.349 . S
C1065 C1081 1.349 . S
C1066 C1064 1.327 . S
C1066 C1085 1.429 . S
C1066 H1090 0.950 . S
C1067 C1084 1.574 . S
C1067 C1086 1.368 . S
C1067 H1091 0.949 . S
H1068 C1072 0.949 . S
C1069 C1070 1.349 1_545 S
C1069 C1071 1.327 . S
C1069 H1092 0.950 . S
C1070 C1069 1.349 1_565 S
C1070 C1082 1.349 . S
C1071 C1069 1.327 . S
C1071 C1087 1.429 . S
C1071 H1093 0.950 . S
C1072 H1068 0.949 . S
C1072 C1080 1.574 . S
C1072 C1088 1.368 . S
H1073 C1081 0.950 . S
H1074 C1079 0.950 . S
H1075 C1080 0.949 . S
H1076 C1082 0.950 . S
H1077 C1083 0.950 . S
H1078 C1084 0.949 . S
C1079 H1074 0.950 . S
C1079 C1081 1.327 . S
C1079 C1085 1.429 . S
C1080 C1072 1.574 . S
C1080 H1075 0.949 . S
C1080 C1086 1.368 . S
C1081 C1065 1.349 . S
C1081 H1073 0.950 . S
C1081 C1079 1.327 . S
C1082 C1070 1.349 . S
C1082 H1076 0.950 . S
C1082 C1083 1.327 1_565 S
C1083 H1077 0.950 . S
C1083 C1082 1.327 1_545 S
C1083 C1087 1.429 . S
C1084 C1067 1.574 . S
C1084 H1078 0.949 . S
C1084 C1088 1.368 . S
C1085 C1066 1.429 . S
C1085 C1079 1.429 . S
C1085 C1086 1.523 . S
C1086 C1067 1.368 . S
C1086 C1080 1.368 . S
C1086 C1085 1.523 . S
C1087 C1071 1.429 . S
C1087 C1083 1.429 . S
C1087 C1088 1.523 . S
C1088 C1072 1.368 . S
C1088 C1084 1.368 . S
C1088 C1087 1.523 . S
H1089 C1064 0.950 . S
H1090 C1066 0.950 . S
H1091 C1067 0.949 . S
H1092 C1069 0.950 . S
H1093 C1071 0.950 . S
C1094 C1095 1.349 . S
C1094 C1096 1.327 . S
C1094 H1119 0.950 . S
C1095 C1094 1.349 . S
C1095 C1111 1.349 . S
C1096 C1094 1.327 . S
C1096 C1115 1.429 . S
C1096 H1120 0.950 . S
C1097 C1114 1.574 . S
C1097 C1116 1.368 . S
C1097 H1121 0.949 . S
H1098 C1102 0.949 . S
C1099 C1100 1.349 . S
C1099 C1101 1.327 . S
C1099 H1122 0.950 . S
C1100 C1099 1.349 . S
C1100 C1112 1.349 . S
C1101 C1099 1.327 . S
C1101 C1117 1.429 . S
C1101 H1123 0.950 . S
C1102 H1098 0.949 . S
C1102 C1110 1.574 . S
C1102 C1118 1.368 . S
H1103 C1111 0.950 . S
H1104 C1109 0.950 . S
H1105 C1110 0.949 . S
H1106 C1112 0.950 . S
H1107 C1113 0.950 . S
H1108 C1114 0.949 . S
C1109 H1104 0.950 . S
C1109 C1111 1.327 . S
C1109 C1115 1.429 . S
C1110 C1102 1.574 . S
C1110 H1105 0.949 . S
C1110 C1116 1.368 . S
C1111 C1095 1.349 . S
C1111 H1103 0.950 . S
C1111 C1109 1.327 . S
C1112 C1100 1.349 . S
C1112 H1106 0.950 . S
C1112 C1113 1.327 . S
C1113 H1107 0.950 . S
C1113 C1112 1.327 . S
C1113 C1117 1.429 . S
C1114 C1097 1.574 . S
C1114 H1108 0.949 . S
C1114 C1118 1.368 . S
C1115 C1096 1.429 . S
C1115 C1109 1.429 . S
C1115 C1116 1.523 . S
C1116 C1097 1.368 . S
C1116 C1110 1.368 . S
C1116 C1115 1.523 . S
C1117 C1101 1.429 . S
C1117 C1113 1.429 . S
C1117 C1118 1.523 . S
C1118 C1102 1.368 . S
C1118 C1114 1.368 . S
C1118 C1117 1.523 . S
H1119 C1094 0.950 . S
H1120 C1096 0.950 . S
H1121 C1097 0.949 . S
H1122 C1099 0.950 . S
H1123 C1101 0.950 . S
C1124 C1125 1.349 . S
C1124 C1126 1.327 . S
C1124 H1149 0.950 . S
C1125 C1124 1.349 . S
C1125 C1141 1.349 . S
C1126 C1124 1.327 . S
C1126 C1145 1.429 . S
C1126 H1150 0.950 . S
C1127 C1144 1.574 . S
C1127 C1146 1.368 . S
C1127 H1151 0.949 . S
H1128 C1132 0.949 . S
C1129 C1130 1.349 . S
C1129 C1131 1.327 . S
C1129 H1152 0.950 . S
C1130 C1129 1.349 . S
C1130 C1142 1.349 . S
C1131 C1129 1.327 . S
C1131 C1147 1.429 . S
C1131 H1153 0.950 . S
C1132 H1128 0.949 . S
C1132 C1140 1.574 . S
C1132 C1148 1.368 . S
H1133 C1141 0.950 . S
H1134 C1139 0.950 . S
H1135 C1140 0.949 . S
H1136 C1142 0.950 . S
H1137 C1143 0.950 . S
H1138 C1144 0.949 . S
C1139 H1134 0.950 . S
C1139 C1141 1.327 . S
C1139 C1145 1.429 . S
C1140 C1132 1.574 . S
C1140 H1135 0.949 . S
C1140 C1146 1.368 . S
C1141 C1125 1.349 . S
C1141 H1133 0.950 . S
C1141 C1139 1.327 . S
C1142 C1130 1.349 . S
C1142 H1136 0.950 . S
C1142 C1143 1.327 . S
C1143 H1137 0.950 . S
C1143 C1142 1.327 . S
C1143 C1147 1.429 . S
C1144 C1127 1.574 . S
C1144 H1138 0.949 . S
C1144 C1148 1.368 . S
C1145 C1126 1.429 . S
C1145 C1139 1.429 . S
C1145 C1146 1.523 . S
C1146 C1127 1.368 . S
C1146 C1140 1.368 . S
C1146 C1145 1.523 . S
C1147 C1131 1.429 . S
C1147 C1143 1.429 . S
C1147 C1148 1.523 . S
C1148 C1132 1.368 . S
C1148 C1144 1.368 . S
C1148 C1147 1.523 . S
H1149 C1124 0.950 . S
H1150 C1126 0.950 . S
H1151 C1127 0.949 . S
H1152 C1129 0.950 . S
H1153 C1131 0.950 . S
C1154 C1155 1.349 . S
C1154 C1156 1.327 . S
C1154 H1179 0.950 . S
C1155 C1154 1.349 . S
C1155 C1171 1.349 . S
C1156 C1154 1.327 . S
C1156 C1175 1.429 . S
C1156 H1180 0.950 . S
C1157 C1174 1.574 . S
C1157 C1176 1.368 . S
C1157 H1181 0.949 . S
H1158 C1162 0.949 . S
C1159 C1160 1.349 1_545 S
C1159 C1161 1.327 . S
C1159 H1182 0.950 . S
C1160 C1159 1.349 1_565 S
C1160 C1172 1.349 . S
C1161 C1159 1.327 . S
C1161 C1177 1.429 . S
C1161 H1183 0.950 . S
C1162 H1158 0.949 . S
C1162 C1170 1.574 . S
C1162 C1178 1.368 . S
H1163 C1171 0.950 . S
H1164 C1169 0.950 . S
H1165 C1170 0.949 . S
H1166 C1172 0.950 . S
H1167 C1173 0.950 . S
H1168 C1174 0.949 . S
C1169 H1164 0.950 . S
C1169 C1171 1.327 . S
C1169 C1175 1.429 . S
C1170 C1162 1.574 . S
C1170 H1165 0.949 . S
C1170 C1176 1.368 . S
C1171 C1155 1.349 . S
C1171 H1163 0.950 . S
C1171 C1169 1.327 . S
C1172 C1160 1.349 . S
C1172 H1166 0.950 . S
C1172 C1173 1.327 1_565 S
C1173 H1167 0.950 . S
C1173 C1172 1.327 1_545 S
C1173 C1177 1.429 . S
C1174 C1157 1.574 . S
C1174 H1168 0.949 . S
C1174 C1178 1.368 . S
C1175 C1156 1.429 . S
C1175 C1169 1.429 . S
C1175 C1176 1.523 . S
C1176 C1157 1.368 . S
C1176 C1170 1.368 . S
C1176 C1175 1.523 . S
C1177 C1161 1.429 . S
C1177 C1173 1.429 . S
C1177 C1178 1.523 . S
C1178 C1162 1.368 . S
C1178 C1174 1.368 . S
C1178 C1177 1.523 . S
H1179 C1154 0.950 . S
H1180 C1156 0.950 . S
H1181 C1157 0.949 . S
H1182 C1159 0.950 . S
H1183 C1161 0.950 . S
C225 C207 1.483 . S
C230 C11 1.483 . S
C255 C33 1.360 . S
C260 C5 1.360 . S
C285 C165 1.483 . S
C290 C25 1.483 . S
C315 C19 1.360 . S
C320 C103 1.360 . S
C345 C39 1.483 . S
C350 C179 1.483 . S
C375 C137 1.483 . S
C380 C53 1.483 . S
C405 C47 1.360 . S
C410 C75 1.360 . S
C435 C151 1.483 . S
C440 C67 1.483 . S
C465 C61 1.360 . S
C470 C89 1.360 . S
C495 C221 1.483 . S
C500 C81 1.483 . S
C525 C123 1.483 . S
C530 C95 1.483 . S
C555 C193 1.483 . S
C560 C109 1.483 . S
C585 C117 1.360 . S
C590 C145 1.360 . S
C615 C215 1.360 . S
C620 C131 1.360 . S
C645 C159 1.360 . S
C650 C187 1.360 . S
C675 C201 1.360 . S
C680 C173 1.360 . S
C705 C74 0.983 . S
C710 C4 0.983 . S
C735 C12 1.061 . S
C740 C82 1.061 . S
C765 C18 0.983 . S
C770 C60 0.983 . S
C795 C68 1.061 . S
C800 C26 1.061 . S
C825 C102 0.983 . S
C830 C32 0.983 . S
C855 C110 1.061 . S
C860 C40 1.061 . S
C885 C88 0.983 . S
C890 C46 0.983 . S
C915 C54 1.061 . S
C920 C96 1.061 . S
C945 C186 0.983 . S
C950 C116 0.983 . S
C975 C124 1.061 . S
C980 C194 1.061 . S
C1005 C130 0.983 . S
C1010 C172 0.983 . S
C1035 C180 1.061 . S
C1040 C138 1.061 . S
C1065 C214 0.983 . S
C1070 C144 0.983 . S
C1095 C222 1.061 . S
C1100 C152 1.061 . S
C1125 C158 0.983 . S
C1130 C200 0.983 . S
C1155 C208 1.061 . S
C1160 C166 1.061 . S
