# Generated by pormake.
# Topology sra, (4)-cn, num edge types: 1
# Building blocks:
#     Node 0, Type 0, BuildingBlock: UXUYUI_clean_sbu_0, # of connection points: 4
#     Node 1, Type 0, BuildingBlock: UXUYUI_clean_sbu_0, # of connection points: 4
#     Node 2, Type 0, BuildingBlock: UXUYUI_clean_sbu_0, # of connection points: 4
#     Node 3, Type 0, BuildingBlock: UXUYUI_clean_sbu_0, # of connection points: 4
#     Node 4, Type 0, BuildingBlock: UXUYUI_clean_sbu_0, # of connection points: 4
#     Node 5, Type 0, BuildingBlock: UXUYUI_clean_sbu_0, # of connection points: 4
#     Node 6, Type 0, BuildingBlock: UXUYUI_clean_sbu_0, # of connection points: 4
#     Node 7, Type 0, BuildingBlock: UXUYUI_clean_sbu_0, # of connection points: 4
#     Edge 8, Type (0, 0), BuildingBlock: MIFKUJ_clean_linker_0, # of connection points: 2
#     Edge 9, Type (0, 0), BuildingBlock: MIFKUJ_clean_linker_0, # of connection points: 2
#     Edge 10, Type (0, 0), BuildingBlock: MIFKUJ_clean_linker_0, # of connection points: 2
#     Edge 11, Type (0, 0), BuildingBlock: MIFKUJ_clean_linker_0, # of connection points: 2
#     Edge 12, Type (0, 0), BuildingBlock: MIFKUJ_clean_linker_0, # of connection points: 2
#     Edge 13, Type (0, 0), BuildingBlock: MIFKUJ_clean_linker_0, # of connection points: 2
#     Edge 14, Type (0, 0), BuildingBlock: MIFKUJ_clean_linker_0, # of connection points: 2
#     Edge 15, Type (0, 0), BuildingBlock: MIFKUJ_clean_linker_0, # of connection points: 2
#     Edge 16, Type (0, 0), BuildingBlock: MIFKUJ_clean_linker_0, # of connection points: 2
#     Edge 17, Type (0, 0), BuildingBlock: MIFKUJ_clean_linker_0, # of connection points: 2
#     Edge 18, Type (0, 0), BuildingBlock: MIFKUJ_clean_linker_0, # of connection points: 2
#     Edge 19, Type (0, 0), BuildingBlock: MIFKUJ_clean_linker_0, # of connection points: 2
#     Edge 20, Type (0, 0), BuildingBlock: MIFKUJ_clean_linker_0, # of connection points: 2
#     Edge 21, Type (0, 0), BuildingBlock: MIFKUJ_clean_linker_0, # of connection points: 2
#     Edge 22, Type (0, 0), BuildingBlock: MIFKUJ_clean_linker_0, # of connection points: 2
#     Edge 23, Type (0, 0), BuildingBlock: MIFKUJ_clean_linker_0, # of connection points: 2
# Relax obj value: 0.133
# Max RMSD: 0.099
# Mean RMSD: 0.099
data_MOF--net-sra--node1-UXUYUI_clean_sbu_0--edge1-MIFKUJ_clean_linker_0
_symmetry_space_group_name_H-M    P1
_symmetry_Int_Tables_number       1
_symmetry_cell_setting            triclinic
loop_
_symmetry_equiv_pos_as_xyz
'x, y, z'
_cell_length_a     45.430674
_cell_length_b     75.770096
_cell_length_c     75.464821
_cell_angle_alpha  89.995174
_cell_angle_beta   90.001623
_cell_angle_gamma 90.001321
loop_
_atom_site_label
_atom_site_type_symbol
_atom_site_fract_x
_atom_site_fract_y
_atom_site_fract_z
_atom_type_partial_charge
Li0 Li 0.99899 0.0937 0.15613 0.0
Li1 Li 0.02678 0.06996 0.17032 0.0
Li2 Li 0.99802 0.06489 0.14206 0.0
Li3 Li 0.97249 0.06847 0.17048 0.0
C4 C 0.04837 0.09268 0.13717 0.0
N5 N 0.07904 0.11842 0.11897 0.0
C6 C 0.07528 0.09884 0.14368 0.0
C7 C 0.03727 0.09942 0.12129 0.0
C8 C 0.0904 0.11191 0.13431 0.0
C9 C 0.05304 0.11248 0.11231 0.0
C10 C 0.00243 0.08826 0.19916 0.0
C11 C 0.00031 0.0761 0.22866 0.0
N12 N 0.01057 0.09162 0.23528 0.0
C13 C 0.0127 0.10415 0.20626 0.0
C14 C 0.99598 0.07416 0.21044 0.0
C15 C 0.01679 0.10556 0.22456 0.0
C16 C 0.97553 0.12662 0.14508 0.0
N17 N 0.99889 0.11852 0.15286 0.0
C18 C 0.02292 0.14621 0.15729 0.0
C19 C 0.02222 0.1279 0.15907 0.0
C20 C 0.99906 0.15496 0.14938 0.0
C21 C 0.9751 0.14496 0.14325 0.0
H22 H 0.95707 0.11885 0.14052 0.0
H23 H 0.04016 0.12114 0.16559 0.0
C24 C 0.07447 0.04923 0.18376 0.0
N25 N 0.06206 0.06555 0.18301 0.0
C26 C 0.10097 0.04669 0.19283 0.0
C27 C 0.10156 0.07783 0.19983 0.0
C28 C 0.07508 0.07974 0.19072 0.0
C29 C 0.11493 0.06116 0.20092 0.0
H30 H 0.064 0.03825 0.17713 0.0
H31 H 0.06512 0.09263 0.18952 0.0
C32 C 0.9433 0.07834 0.13481 0.0
N33 N 0.90138 0.0736 0.10871 0.0
C34 C 0.91881 0.0676 0.13796 0.0
C35 C 0.94627 0.08683 0.11847 0.0
C36 C 0.8979 0.06535 0.12457 0.0
C37 C 0.92491 0.08421 0.10541 0.0
C38 C 0.99495 0.0333 0.17016 0.0
C39 C 0.97978 0.02103 0.15977 0.0
C40 C 0.00405 0.02862 0.18723 0.0
C41 C 0.97362 0.00434 0.16672 0.0
C42 C 0.99746 0.0118 0.1937 0.0
N43 N 0.98249 0.00012 0.1834 0.0
C44 C 0.02299 0.05393 0.10977 0.0
C45 C 0.974 0.04408 0.11402 0.0
C46 C 0.02391 0.04609 0.09303 0.0
N47 N 0.99815 0.053 0.11977 0.0
C48 C 0.97384 0.0362 0.09731 0.0
C49 C 0.99898 0.03726 0.08655 0.0
H50 H 0.04207 0.06087 0.11473 0.0
H51 H 0.95479 0.04308 0.12236 0.0
C52 C 0.92233 0.07812 0.18839 0.0
N53 N 0.93799 0.06348 0.18402 0.0
C54 C 0.8959 0.07662 0.19766 0.0
C55 C 0.90231 0.04496 0.19806 0.0
C56 C 0.92856 0.04707 0.18866 0.0
C57 C 0.88551 0.05986 0.20254 0.0
H58 H 0.93035 0.09099 0.18449 0.0
H59 H 0.941 0.03557 0.18494 0.0
O60 O 0.03298 0.0801 0.1463 0.0
O61 O 0.9985 0.08665 0.18127 0.0
O62 O 0.964 0.08071 0.14776 0.0
O63 O 0.00131 0.04966 0.16351 0.0
H64 H 0.08432 0.09367 0.15587 0.0
H65 H 0.01666 0.09465 0.11599 0.0
H66 H 0.11116 0.11688 0.13924 0.0
H67 H 0.04461 0.11789 0.10006 0.0
H68 H 0.99546 0.06528 0.23754 0.0
H69 H 0.01763 0.11523 0.19771 0.0
H70 H 0.98758 0.06189 0.20521 0.0
H71 H 0.02488 0.11774 0.23022 0.0
H72 H 0.04155 0.1535 0.16246 0.0
H73 H 0.95631 0.15126 0.13708 0.0
H74 H 0.11078 0.03367 0.19317 0.0
H75 H 0.11144 0.08931 0.20597 0.0
H76 H 0.91611 0.06093 0.15051 0.0
H77 H 0.96486 0.09535 0.11587 0.0
H78 H 0.87894 0.05699 0.12679 0.0
H79 H 0.92701 0.09063 0.09267 0.0
H80 H 0.97272 0.02437 0.14652 0.0
H81 H 0.01612 0.03783 0.1954 0.0
H82 H 0.96179 0.99475 0.15885 0.0
H83 H 0.00428 0.00803 0.2069 0.0
H84 H 0.0437 0.04725 0.08511 0.0
H85 H 0.95435 0.02923 0.09291 0.0
H86 H 0.88378 0.08846 0.20105 0.0
H87 H 0.89489 0.0318 0.20142 0.0
Li88 Li 0.0016 0.43532 0.14334 0.0
Li89 Li 0.02686 0.4322 0.17187 0.0
Li90 Li 0.99952 0.40633 0.15858 0.0
Li91 Li 0.97371 0.43155 0.1719 0.0
C92 C 0.05338 0.41445 0.13619 0.0
N93 N 0.09162 0.40471 0.10943 0.0
C94 C 0.08159 0.42177 0.13535 0.0
C95 C 0.04484 0.40192 0.1236 0.0
C96 C 0.10053 0.41676 0.12166 0.0
C97 C 0.06443 0.39723 0.11014 0.0
C98 C 0.01311 0.46649 0.16957 0.0
C99 C 0.02768 0.48664 0.1927 0.0
N100 N 0.04166 0.4968 0.18045 0.0
C101 C 0.02739 0.47721 0.15719 0.0
C102 C 0.013 0.4713 0.18745 0.0
C103 C 0.04177 0.49246 0.16296 0.0
C104 C 0.97543 0.45085 0.11335 0.0
N105 N 0.00176 0.44658 0.12076 0.0
C106 C 0.02747 0.45787 0.09557 0.0
C107 C 0.02754 0.4502 0.11238 0.0
C108 C 0.00058 0.46204 0.08739 0.0
C109 C 0.97431 0.45859 0.09657 0.0
H110 H 0.95525 0.44806 0.12042 0.0
H111 H 0.0482 0.44726 0.11877 0.0
C112 C 0.06678 0.42998 0.20032 0.0
N113 N 0.06147 0.43838 0.18474 0.0
C114 C 0.09273 0.43322 0.20967 0.0
C115 C 0.10716 0.45389 0.18688 0.0
C116 C 0.081 0.45015 0.17792 0.0
C117 C 0.11349 0.44523 0.20292 0.0
H118 H 0.05119 0.42042 0.20529 0.0
H119 H 0.07655 0.45642 0.16534 0.0
C120 C 0.94912 0.41211 0.13634 0.0
N121 N 0.91374 0.39547 0.11166 0.0
C122 C 0.91981 0.40819 0.14039 0.0
C123 C 0.96027 0.4078 0.11963 0.0
C124 C 0.90232 0.3997 0.12777 0.0
C125 C 0.94208 0.39934 0.10736 0.0
C126 C 0.98788 0.41046 0.19926 0.0
C127 C 0.97468 0.39396 0.2016 0.0
C128 C 0.98731 0.42277 0.21304 0.0
C129 C 0.96066 0.39016 0.21763 0.0
C130 C 0.97303 0.41848 0.22886 0.0
N131 N 0.96008 0.40241 0.2308 0.0
C132 C 0.02526 0.3726 0.15659 0.0
C133 C 0.97333 0.37264 0.15376 0.0
C134 C 0.02595 0.35423 0.15517 0.0
N135 N 0.99922 0.38139 0.15577 0.0
C136 C 0.97299 0.3543 0.15216 0.0
C137 C 0.99954 0.3448 0.15294 0.0
H138 H 0.04549 0.37988 0.15854 0.0
H139 H 0.95285 0.37984 0.15366 0.0
C140 C 0.93214 0.45443 0.1885 0.0
N141 N 0.93878 0.4374 0.18447 0.0
C142 C 0.9065 0.45838 0.19796 0.0
C143 C 0.89528 0.4272 0.19898 0.0
C144 C 0.92075 0.4239 0.18924 0.0
C145 C 0.88794 0.44461 0.20346 0.0
H146 H 0.94674 0.46493 0.18438 0.0
H147 H 0.92623 0.41053 0.18551 0.0
O148 O 0.03462 0.41918 0.14957 0.0
O149 O 0.99909 0.45145 0.16418 0.0
O150 O 0.96652 0.42039 0.14859 0.0
O151 O 0.00134 0.4145 0.18356 0.0
H152 H 0.08872 0.43132 0.14508 0.0
H153 H 0.0235 0.39569 0.12433 0.0
H154 H 0.12234 0.42243 0.12078 0.0
H155 H 0.05806 0.38759 0.10029 0.0
H156 H 0.02793 0.49047 0.20651 0.0
H157 H 0.02753 0.47373 0.14329 0.0
H158 H 0.0018 0.46326 0.19716 0.0
H159 H 0.05306 0.50082 0.15354 0.0
H160 H 0.04824 0.46067 0.08911 0.0
H161 H 0.9531 0.46153 0.09072 0.0
H162 H 0.09686 0.42596 0.22178 0.0
H163 H 0.12233 0.46336 0.18123 0.0
H164 H 0.91069 0.41159 0.15318 0.0
H165 H 0.98258 0.41117 0.11606 0.0
H166 H 0.87967 0.39649 0.13078 0.0
H167 H 0.95047 0.39592 0.09439 0.0
H168 H 0.97506 0.38424 0.1911 0.0
H169 H 0.99765 0.43552 0.2115 0.0
H170 H 0.95018 0.37749 0.21958 0.0
H171 H 0.97223 0.42793 0.23959 0.0
H172 H 0.04689 0.34748 0.15619 0.0
H173 H 0.95211 0.34766 0.15031 0.0
H174 H 0.90146 0.47198 0.2012 0.0
H175 H 0.88125 0.41627 0.20277 0.0
Li176 Li 0.99835 0.93533 0.8555 0.0
Li177 Li 0.97448 0.93181 0.82657 0.0
Li178 Li 0.00211 0.90634 0.84042 0.0
Li179 Li 0.02731 0.93182 0.82761 0.0
C180 C 0.94574 0.9138 0.86116 0.0
N181 N 0.90394 0.9035 0.88572 0.0
C182 C 0.91786 0.92162 0.86122 0.0
C183 C 0.95212 0.9005 0.87342 0.0
C184 C 0.89711 0.91631 0.87379 0.0
C185 C 0.93076 0.89554 0.88577 0.0
C186 C 0.98625 0.96628 0.8295 0.0
C187 C 0.9697 0.9861 0.80657 0.0
N188 N 0.95608 0.99617 0.81904 0.0
C189 C 0.97228 0.97688 0.84211 0.0
C190 C 0.98517 0.97097 0.8116 0.0
C191 C 0.95708 0.99192 0.83654 0.0
C192 C 0.02316 0.95261 0.88469 0.0
N193 N 0.99719 0.94675 0.87796 0.0
C194 C 0.97144 0.9567 0.90369 0.0
C195 C 0.97152 0.94886 0.88696 0.0
C196 C 0.99803 0.96257 0.91118 0.0
C197 C 0.02411 0.96056 0.90137 0.0
H198 H 0.04319 0.95097 0.87713 0.0
H199 H 0.95108 0.94448 0.88121 0.0
C200 C 0.93612 0.92895 0.79743 0.0
N201 N 0.94035 0.93754 0.81303 0.0
C202 C 0.91074 0.932 0.78746 0.0
C203 C 0.89462 0.95279 0.80972 0.0
C204 C 0.92028 0.94931 0.81927 0.0
C205 C 0.88943 0.94396 0.79365 0.0
H206 H 0.95219 0.91946 0.79289 0.0
H207 H 0.92397 0.95583 0.8318 0.0
C208 C 0.04885 0.91301 0.86489 0.0
N209 N 0.07858 0.89765 0.89289 0.0
C210 C 0.07903 0.90962 0.86361 0.0
C211 C 0.03392 0.9088 0.88051 0.0
C212 C 0.09363 0.90178 0.87787 0.0
C213 C 0.0493 0.901 0.8945 0.0
C214 C 0.01724 0.91098 0.80042 0.0
C215 C 0.03379 0.89548 0.79917 0.0
C216 C 0.01745 0.92305 0.78641 0.0
C217 C 0.05068 0.89244 0.784 0.0
C218 C 0.03465 0.91954 0.77148 0.0
N219 N 0.05079 0.90445 0.7706 0.0
C220 C 0.97732 0.87242 0.8412 0.0
C221 C 0.02869 0.87293 0.84661 0.0
C222 C 0.97685 0.85406 0.8427 0.0
N223 N 0.00294 0.88143 0.84328 0.0
C224 C 0.02926 0.85458 0.84824 0.0
C225 C 0.00309 0.84488 0.84624 0.0
H226 H 0.95726 0.87952 0.83823 0.0
H227 H 0.0489 0.88033 0.84775 0.0
C228 C 0.06675 0.95437 0.80866 0.0
N229 N 0.06264 0.93804 0.8157 0.0
C230 C 0.09287 0.95837 0.79972 0.0
C231 C 0.10991 0.9287 0.80556 0.0
C232 C 0.08357 0.92531 0.81438 0.0
C233 C 0.1149 0.94543 0.79811 0.0
H234 H 0.0498 0.96428 0.81 0.0
H235 H 0.0796 0.91242 0.82004 0.0
O236 O 0.96624 0.91877 0.84881 0.0
O237 O 0.00111 0.95146 0.83469 0.0
O238 O 0.03425 0.92068 0.851 0.0
O239 O 0.00112 0.91438 0.81533 0.0
H240 H 0.91235 0.93179 0.85177 0.0
H241 H 0.97316 0.89388 0.87332 0.0
H242 H 0.87555 0.92237 0.87406 0.0
H243 H 0.93547 0.88529 0.89534 0.0
H244 H 0.9685 0.98982 0.79275 0.0
H245 H 0.97302 0.97349 0.85602 0.0
H246 H 0.99591 0.96294 0.80169 0.0
H247 H 0.94604 0.00021 0.84614 0.0
H248 H 0.95083 0.95787 0.9108 0.0
H249 H 0.04503 0.96518 0.90645 0.0
H250 H 0.90746 0.92466 0.7753 0.0
H251 H 0.87897 0.96224 0.81491 0.0
H252 H 0.09106 0.91298 0.85171 0.0
H253 H 0.01084 0.91178 0.88196 0.0
H254 H 0.11694 0.899 0.87701 0.0
H255 H 0.03797 0.89768 0.90666 0.0
H256 H 0.03384 0.88599 0.80987 0.0
H257 H 0.00466 0.93506 0.78714 0.0
H258 H 0.06375 0.88056 0.7829 0.0
H259 H 0.0352 0.92884 0.7606 0.0
H260 H 0.95628 0.84711 0.84074 0.0
H261 H 0.04996 0.84808 0.85106 0.0
H262 H 0.09593 0.97148 0.79432 0.0
H263 H 0.126 0.91823 0.80438 0.0
Li264 Li 0.97343 0.56877 0.8276 0.0
Li265 Li 0.99971 0.5935 0.84159 0.0
Li266 Li 0.02714 0.56779 0.82801 0.0
Li267 Li 0.00121 0.56455 0.85635 0.0
C268 C 0.99146 0.58958 0.7999 0.0
N269 N 0.97065 0.59734 0.76638 0.0
C270 C 0.98035 0.60637 0.79614 0.0
C271 C 0.9924 0.57683 0.78654 0.0
C272 C 0.96983 0.61001 0.77913 0.0
C273 C 0.98166 0.58097 0.7697 0.0
C274 C 0.94803 0.59015 0.86097 0.0
C275 C 0.93746 0.6064 0.88771 0.0
N276 N 0.91135 0.61167 0.88065 0.0
C277 C 0.92092 0.59553 0.85408 0.0
C278 C 0.95623 0.59546 0.87801 0.0
C279 C 0.90276 0.60648 0.86419 0.0
C280 C 0.93026 0.54572 0.81328 0.0
N281 N 0.93891 0.56285 0.81459 0.0
C282 C 0.89799 0.57225 0.79709 0.0
C283 C 0.92314 0.57606 0.80694 0.0
C284 C 0.88859 0.55469 0.79543 0.0
C285 C 0.90488 0.54131 0.80378 0.0
H286 H 0.94299 0.53549 0.81969 0.0
H287 H 0.92995 0.58961 0.80863 0.0
C288 C 0.0256 0.62653 0.84897 0.0
N289 N 0.99983 0.61841 0.8448 0.0
C290 C 0.02676 0.64486 0.85073 0.0
C291 C 0.9749 0.64617 0.84372 0.0
C292 C 0.97477 0.62782 0.84206 0.0
C293 C 0.00119 0.65493 0.84803 0.0
H294 H 0.04538 0.61879 0.85069 0.0
H295 H 0.95484 0.62114 0.8381 0.0
C296 C 0.01077 0.53328 0.82925 0.0
N297 N 0.0348 0.50201 0.81718 0.0
C298 C 0.02576 0.52213 0.84093 0.0
C299 C 0.00755 0.52837 0.81151 0.0
C300 C 0.03787 0.50642 0.83456 0.0
C301 C 0.01999 0.51255 0.80564 0.0
C302 C 0.0532 0.58243 0.86474 0.0
C303 C 0.08066 0.5741 0.86479 0.0
C304 C 0.04496 0.59291 0.87914 0.0
C305 C 0.09915 0.57609 0.87945 0.0
C306 C 0.06406 0.59457 0.89356 0.0
N307 N 0.09051 0.58617 0.89342 0.0
C308 C 0.0677 0.57154 0.80024 0.0
C309 C 0.08015 0.54878 0.82041 0.0
C310 C 0.09317 0.56837 0.79043 0.0
N311 N 0.0616 0.56174 0.81487 0.0
C312 C 0.10597 0.54518 0.81101 0.0
C313 C 0.1128 0.55509 0.79582 0.0
H314 H 0.05312 0.58211 0.79637 0.0
H315 H 0.07527 0.54147 0.83234 0.0
C316 C 0.97466 0.55157 0.88743 0.0
N317 N 0.00084 0.5531 0.87886 0.0
C318 C 0.9733 0.5438 0.90419 0.0
C319 C 0.0258 0.53886 0.90281 0.0
C320 C 0.0261 0.54668 0.88606 0.0
C321 C 0.99916 0.53743 0.91217 0.0
H322 H 0.95477 0.55642 0.88125 0.0
H323 H 0.04651 0.54758 0.87881 0.0
O324 O 0.00157 0.58572 0.81654 0.0
O325 O 0.96615 0.57949 0.85121 0.0
O326 O 0.99886 0.54875 0.83525 0.0
O327 O 0.03477 0.58054 0.85052 0.0
H328 H 0.97973 0.61646 0.80626 0.0
H329 H 0.00139 0.56389 0.78913 0.0
H330 H 0.961 0.62292 0.77607 0.0
H331 H 0.98212 0.57119 0.75926 0.0
H332 H 0.94359 0.61065 0.90089 0.0
H333 H 0.91404 0.59139 0.84102 0.0
H334 H 0.9767 0.59104 0.88376 0.0
H335 H 0.88183 0.61085 0.85895 0.0
H336 H 0.88566 0.58295 0.79112 0.0
H337 H 0.89821 0.52762 0.8028 0.0
H338 H 0.04747 0.65107 0.85415 0.0
H339 H 0.95483 0.65344 0.84113 0.0
H340 H 0.02821 0.52563 0.85473 0.0
H341 H 0.99547 0.53662 0.80238 0.0
H342 H 0.04972 0.49773 0.84342 0.0
H343 H 0.01779 0.50864 0.79192 0.0
H344 H 0.08756 0.5661 0.85369 0.0
H345 H 0.02419 0.59982 0.87913 0.0
H346 H 0.12037 0.56961 0.87972 0.0
H347 H 0.05789 0.60259 0.90481 0.0
H348 H 0.09786 0.5766 0.77904 0.0
H349 H 0.12047 0.53481 0.81563 0.0
H350 H 0.95218 0.54264 0.91073 0.0
H351 H 0.04631 0.53423 0.90844 0.0
Li352 Li 0.52855 0.56475 0.67263 0.0
Li353 Li 0.50192 0.59047 0.65896 0.0
Li354 Li 0.47509 0.56528 0.6703 0.0
Li355 Li 0.50164 0.56286 0.64334 0.0
C356 C 0.48373 0.58637 0.69757 0.0
N357 N 0.44591 0.59484 0.72496 0.0
C358 C 0.46352 0.60015 0.69561 0.0
C359 C 0.48473 0.57691 0.71346 0.0
C360 C 0.44459 0.60422 0.70962 0.0
C361 C 0.46543 0.5814 0.72715 0.0
C362 C 0.55576 0.59046 0.64518 0.0
C363 C 0.56962 0.61471 0.62621 0.0
N364 N 0.59352 0.61777 0.63661 0.0
C365 C 0.58054 0.5938 0.65565 0.0
C366 C 0.55032 0.60094 0.63029 0.0
C367 C 0.59934 0.60768 0.6511 0.0
C368 C 0.58329 0.54804 0.67716 0.0
N369 N 0.56252 0.55795 0.68547 0.0
C370 C 0.5922 0.55983 0.71152 0.0
C371 C 0.56643 0.56387 0.7023 0.0
C372 C 0.61431 0.54992 0.70317 0.0
C373 C 0.60962 0.54392 0.68579 0.0
H374 H 0.57963 0.54368 0.66369 0.0
H375 H 0.54988 0.57209 0.70841 0.0
C376 C 0.48084 0.62401 0.64825 0.0
N377 N 0.50261 0.61554 0.65722 0.0
C378 C 0.48082 0.6424 0.64706 0.0
C379 C 0.52554 0.64301 0.66441 0.0
C380 C 0.52443 0.62463 0.66551 0.0
C381 C 0.5035 0.65209 0.65511 0.0
H382 H 0.46331 0.6165 0.64219 0.0
H383 H 0.54095 0.61759 0.67302 0.0
C384 C 0.49118 0.53103 0.67131 0.0
N385 N 0.46876 0.50104 0.68717 0.0
C386 C 0.46494 0.52358 0.66517 0.0
C387 C 0.50611 0.52316 0.68545 0.0
C388 C 0.45392 0.50844 0.6734 0.0
C389 C 0.4944 0.50801 0.6933 0.0
C390 C 0.45299 0.57659 0.63266 0.0
C391 C 0.43012 0.56432 0.63126 0.0
C392 C 0.46131 0.58639 0.61779 0.0
C393 C 0.41602 0.56202 0.61496 0.0
C394 C 0.44673 0.58367 0.60172 0.0
N395 N 0.42458 0.57165 0.60065 0.0
C396 C 0.41508 0.56878 0.67798 0.0
C397 C 0.43883 0.54834 0.69694 0.0
C398 C 0.38849 0.56635 0.68688 0.0
N399 N 0.43949 0.55966 0.68293 0.0
C400 C 0.41264 0.54546 0.7062 0.0
C401 C 0.38697 0.55451 0.70118 0.0
H402 H 0.41639 0.57826 0.66732 0.0
H403 H 0.45872 0.5418 0.70119 0.0
C404 C 0.52358 0.55819 0.60845 0.0
N405 N 0.50343 0.55224 0.62036 0.0
C406 C 0.5244 0.55126 0.59131 0.0
C407 C 0.48408 0.53195 0.59907 0.0
C408 C 0.4842 0.53916 0.61609 0.0
C409 C 0.50425 0.53808 0.5864 0.0
H410 H 0.53889 0.56841 0.61221 0.0
H411 H 0.4686 0.53451 0.62579 0.0
O412 O 0.50179 0.58184 0.68379 0.0
O413 O 0.53688 0.57705 0.64954 0.0
O414 O 0.50253 0.54575 0.66336 0.0
O415 O 0.46749 0.57878 0.64841 0.0
H416 H 0.46216 0.60746 0.68334 0.0
H417 H 0.49978 0.56597 0.71508 0.0
H418 H 0.42874 0.61479 0.70825 0.0
H419 H 0.46581 0.57411 0.73948 0.0
H420 H 0.56555 0.623 0.6148 0.0
H421 H 0.58511 0.5859 0.66725 0.0
H422 H 0.53121 0.59863 0.62208 0.0
H423 H 0.61852 0.61045 0.65913 0.0
H424 H 0.59524 0.56492 0.72481 0.0
H425 H 0.62619 0.53623 0.67895 0.0
H426 H 0.46339 0.64896 0.63981 0.0
H427 H 0.5431 0.65006 0.67106 0.0
H428 H 0.45285 0.52962 0.65443 0.0
H429 H 0.52649 0.5287 0.69034 0.0
H430 H 0.43351 0.50263 0.66888 0.0
H431 H 0.50568 0.50181 0.70428 0.0
H432 H 0.42362 0.55642 0.64253 0.0
H433 H 0.47904 0.59587 0.61858 0.0
H434 H 0.39842 0.5525 0.61367 0.0
H435 H 0.45307 0.5911 0.59008 0.0
H436 H 0.36951 0.574 0.68286 0.0
H437 H 0.41254 0.53625 0.71718 0.0
H438 H 0.54024 0.55641 0.58192 0.0
H439 H 0.46846 0.52162 0.59591 0.0
Li440 Li 0.49985 0.93231 0.6441 0.0
Li441 Li 0.52501 0.92979 0.67262 0.0
Li442 Li 0.49808 0.90363 0.65989 0.0
Li443 Li 0.47197 0.92904 0.67271 0.0
C444 C 0.55089 0.91095 0.63704 0.0
N445 N 0.58728 0.89967 0.60996 0.0
C446 C 0.57947 0.91762 0.63555 0.0
C447 C 0.54103 0.8983 0.62494 0.0
C448 C 0.59747 0.91183 0.62171 0.0
C449 C 0.5597 0.89282 0.6113 0.0
C450 C 0.51139 0.96381 0.66997 0.0
C451 C 0.52601 0.98398 0.69306 0.0
N452 N 0.54046 0.99394 0.68085 0.0
C453 C 0.52615 0.97432 0.65761 0.0
C454 C 0.51107 0.96874 0.68781 0.0
C455 C 0.54079 0.98949 0.66339 0.0
C456 C 0.47365 0.94754 0.61402 0.0
N457 N 0.49997 0.94326 0.62143 0.0
C458 C 0.52573 0.95455 0.59626 0.0
C459 C 0.52578 0.94684 0.61306 0.0
C460 C 0.49885 0.95877 0.58809 0.0
C461 C 0.47256 0.95529 0.59725 0.0
H462 H 0.45347 0.9448 0.6211 0.0
H463 H 0.54642 0.9439 0.61947 0.0
C464 C 0.56455 0.92924 0.70142 0.0
N465 N 0.5596 0.93641 0.68519 0.0
C466 C 0.59066 0.93283 0.71048 0.0
C467 C 0.60593 0.95134 0.68607 0.0
C468 C 0.57958 0.94732 0.67745 0.0
C469 C 0.61193 0.94388 0.70274 0.0
H470 H 0.54856 0.92036 0.70714 0.0
H471 H 0.57531 0.95263 0.66441 0.0
C472 C 0.44689 0.90905 0.63776 0.0
N473 N 0.41017 0.89234 0.61385 0.0
C474 C 0.41786 0.90508 0.64243 0.0
C475 C 0.45709 0.90475 0.62083 0.0
C476 C 0.39968 0.89656 0.63019 0.0
C477 C 0.43823 0.89625 0.60895 0.0
C478 C 0.48598 0.90813 0.70031 0.0
C479 C 0.47327 0.89149 0.70259 0.0
C480 C 0.48469 0.92048 0.71405 0.0
C481 C 0.45902 0.88757 0.71851 0.0
C482 C 0.4702 0.91606 0.72976 0.0
N483 N 0.45775 0.89984 0.73165 0.0
C484 C 0.52475 0.87029 0.66004 0.0
C485 C 0.47354 0.86941 0.65418 0.0
C486 C 0.52648 0.85191 0.65901 0.0
N487 N 0.49858 0.87862 0.65757 0.0
C488 C 0.47429 0.85105 0.65288 0.0
C489 C 0.501 0.84201 0.65539 0.0
H490 H 0.54424 0.87795 0.66298 0.0
H491 H 0.45287 0.87624 0.65269 0.0
C492 C 0.4303 0.95255 0.68803 0.0
N493 N 0.43701 0.93531 0.68506 0.0
C494 C 0.4046 0.95705 0.69718 0.0
C495 C 0.39345 0.92597 0.70007 0.0
C496 C 0.41899 0.92211 0.69062 0.0
C497 C 0.38604 0.94362 0.70345 0.0
H498 H 0.44487 0.9628 0.68328 0.0
H499 H 0.42447 0.90854 0.68769 0.0
O500 O 0.53304 0.91645 0.65058 0.0
O501 O 0.49719 0.94883 0.6646 0.0
O502 O 0.46495 0.91738 0.64963 0.0
O503 O 0.49973 0.91228 0.68473 0.0
H504 H 0.58763 0.92725 0.6449 0.0
H505 H 0.51937 0.89257 0.62617 0.0
H506 H 0.61955 0.91699 0.62033 0.0
H507 H 0.5523 0.88307 0.60183 0.0
H508 H 0.52611 0.98789 0.70685 0.0
H509 H 0.52648 0.97075 0.64374 0.0
H510 H 0.49952 0.96084 0.6975 0.0
H511 H 0.55246 0.99769 0.654 0.0
H512 H 0.54652 0.95737 0.58984 0.0
H513 H 0.45135 0.95826 0.59141 0.0
H514 H 0.59452 0.92651 0.72314 0.0
H515 H 0.62153 0.96006 0.67966 0.0
H516 H 0.40946 0.90846 0.65539 0.0
H517 H 0.47916 0.90814 0.61678 0.0
H518 H 0.37723 0.89332 0.63367 0.0
H519 H 0.44587 0.89284 0.59581 0.0
H520 H 0.47419 0.88175 0.69212 0.0
H521 H 0.4946 0.93336 0.71255 0.0
H522 H 0.44893 0.87478 0.72042 0.0
H523 H 0.46884 0.92553 0.74046 0.0
H524 H 0.54746 0.84555 0.66136 0.0
H525 H 0.45413 0.84404 0.64988 0.0
H526 H 0.39951 0.97081 0.69955 0.0
H527 H 0.3794 0.91529 0.70448 0.0
Li528 Li 0.4757 0.43207 0.3271 0.0
Li529 Li 0.49987 0.43581 0.35578 0.0
Li530 Li 0.52855 0.43206 0.32864 0.0
Li531 Li 0.5011 0.40748 0.34154 0.0
C532 C 0.48659 0.46603 0.3295 0.0
N533 N 0.45322 0.49444 0.31838 0.0
C534 C 0.47042 0.47587 0.34178 0.0
C535 C 0.48594 0.47071 0.31158 0.0
C536 C 0.45367 0.49018 0.33589 0.0
C537 C 0.46887 0.48508 0.30622 0.0
C538 C 0.44829 0.40689 0.35448 0.0
C539 C 0.43539 0.38309 0.37425 0.0
N540 N 0.41437 0.37772 0.3626 0.0
C541 C 0.42653 0.40115 0.34272 0.0
C542 C 0.45273 0.39783 0.3704 0.0
C543 C 0.40961 0.38638 0.34708 0.0
C544 C 0.43917 0.43211 0.29667 0.0
N545 N 0.4418 0.43811 0.31356 0.0
C546 C 0.39392 0.45111 0.31225 0.0
C547 C 0.41984 0.44739 0.32147 0.0
C548 C 0.39036 0.44493 0.29482 0.0
C549 C 0.41355 0.4354 0.28701 0.0
H550 H 0.45664 0.42437 0.29086 0.0
H551 H 0.42229 0.45168 0.33506 0.0
C552 C 0.51832 0.46091 0.381 0.0
N553 N 0.49849 0.44784 0.37789 0.0
C554 C 0.51917 0.46929 0.39746 0.0
C555 C 0.47835 0.45111 0.40693 0.0
C556 C 0.47842 0.443 0.39032 0.0
C557 C 0.49913 0.46432 0.41073 0.0
H558 H 0.53376 0.46463 0.37075 0.0
H559 H 0.46269 0.43272 0.38742 0.0
C560 C 0.51926 0.41064 0.30201 0.0
N561 N 0.5554 0.40294 0.2736 0.0
C562 C 0.53575 0.39507 0.30188 0.0
C563 C 0.52103 0.42225 0.28765 0.0
C564 C 0.5539 0.39141 0.28739 0.0
C565 C 0.53949 0.41814 0.27343 0.0
C566 C 0.55127 0.42402 0.36632 0.0
C567 C 0.5756 0.43521 0.36482 0.0
C568 C 0.54343 0.41731 0.38292 0.0
C569 C 0.59165 0.43956 0.38 0.0
C570 C 0.55999 0.42202 0.39779 0.0
N571 N 0.58356 0.43295 0.39603 0.0
C572 C 0.56839 0.45382 0.30911 0.0
C573 C 0.58543 0.42517 0.31644 0.0
C574 C 0.59472 0.45753 0.30027 0.0
N575 N 0.56426 0.43782 0.31685 0.0
C576 C 0.61193 0.42824 0.30765 0.0
C577 C 0.61692 0.44461 0.29941 0.0
H578 H 0.5513 0.46371 0.30984 0.0
H579 H 0.58157 0.41261 0.32284 0.0
C580 C 0.48475 0.37279 0.33288 0.0
N581 N 0.50063 0.38254 0.34457 0.0
C582 C 0.48403 0.35443 0.33431 0.0
C583 C 0.51582 0.35652 0.35992 0.0
C584 C 0.51608 0.37483 0.3579 0.0
C585 C 0.49976 0.34602 0.34797 0.0
H586 H 0.47287 0.3793 0.32231 0.0
H587 H 0.52868 0.38288 0.36693 0.0
O588 O 0.50277 0.45182 0.33496 0.0
O589 O 0.46563 0.42104 0.35025 0.0
O590 O 0.50189 0.41467 0.31626 0.0
O591 O 0.53493 0.41987 0.35166 0.0
H592 H 0.47057 0.4724 0.35568 0.0
H593 H 0.49819 0.46318 0.3019 0.0
H594 H 0.44095 0.49786 0.34523 0.0
H595 H 0.468 0.48877 0.29238 0.0
H596 H 0.43875 0.37588 0.38645 0.0
H597 H 0.42292 0.40789 0.33028 0.0
H598 H 0.46976 0.40193 0.37954 0.0
H599 H 0.39277 0.38174 0.33807 0.0
H600 H 0.37681 0.45863 0.31878 0.0
H601 H 0.41161 0.43004 0.27376 0.0
H602 H 0.53525 0.47959 0.39976 0.0
H603 H 0.46262 0.44682 0.41682 0.0
H604 H 0.5349 0.38601 0.31295 0.0
H605 H 0.50861 0.43443 0.2876 0.0
H606 H 0.5669 0.37946 0.28715 0.0
H607 H 0.54124 0.42707 0.26229 0.0
H608 H 0.58187 0.44065 0.35212 0.0
H609 H 0.52438 0.40888 0.38439 0.0
H610 H 0.61046 0.44826 0.37904 0.0
H611 H 0.55401 0.41706 0.41074 0.0
H612 H 0.59774 0.47041 0.29434 0.0
H613 H 0.62813 0.41778 0.30712 0.0
H614 H 0.47176 0.34692 0.3246 0.0
H615 H 0.52796 0.35067 0.37078 0.0
Li616 Li 0.49849 0.09451 0.34455 0.0
Li617 Li 0.47216 0.06986 0.33104 0.0
Li618 Li 0.49968 0.06494 0.35891 0.0
Li619 Li 0.52529 0.06866 0.33045 0.0
C620 C 0.45397 0.08849 0.3696 0.0
N621 N 0.43172 0.10392 0.39993 0.0
C622 C 0.42372 0.09136 0.3713 0.0
C623 C 0.47289 0.09342 0.38332 0.0
C624 C 0.4129 0.0992 0.38674 0.0
C625 C 0.46123 0.10121 0.39856 0.0
C626 C 0.48619 0.09056 0.30384 0.0
C627 C 0.47399 0.08281 0.27374 0.0
N628 N 0.45756 0.09776 0.27238 0.0
C629 C 0.46946 0.10594 0.3021 0.0
C630 C 0.48874 0.07897 0.28952 0.0
C631 C 0.45506 0.10931 0.28609 0.0
C632 C 0.52492 0.12804 0.34509 0.0
N633 N 0.49911 0.11936 0.34765 0.0
C634 C 0.47396 0.14654 0.35292 0.0
C635 C 0.47383 0.12819 0.35138 0.0
C636 C 0.50027 0.15596 0.35026 0.0
C637 C 0.52603 0.14642 0.34634 0.0
H638 H 0.54458 0.12066 0.34181 0.0
H639 H 0.45342 0.12105 0.3529 0.0
C640 C 0.43133 0.04915 0.31086 0.0
N641 N 0.43692 0.06509 0.31842 0.0
C642 C 0.40562 0.04661 0.301 0.0
C643 C 0.39191 0.07683 0.30716 0.0
C644 C 0.4176 0.0787 0.31707 0.0
C645 C 0.38579 0.06066 0.29887 0.0
H646 H 0.44685 0.03846 0.31237 0.0
H647 H 0.42242 0.09112 0.32351 0.0
C648 C 0.55706 0.08303 0.36374 0.0
N649 N 0.6065 0.08752 0.3846 0.0
C650 C 0.58069 0.07129 0.36236 0.0
C651 C 0.55874 0.09718 0.37558 0.0
C652 C 0.60543 0.07374 0.37307 0.0
C653 C 0.58388 0.09919 0.38605 0.0
C654 C 0.50842 0.0338 0.3321 0.0
C655 C 0.51988 0.02186 0.34443 0.0
C656 C 0.50834 0.02947 0.3141 0.0
C657 C 0.53133 0.0058 0.33849 0.0
C658 C 0.52003 0.01328 0.30869 0.0
N659 N 0.5312 0.00189 0.3209 0.0
C660 C 0.47312 0.04922 0.38869 0.0
C661 C 0.52524 0.04848 0.38925 0.0
C662 C 0.47178 0.04102 0.40524 0.0
N663 N 0.49958 0.05301 0.38118 0.0
C664 C 0.52494 0.04018 0.40575 0.0
C665 C 0.49795 0.03648 0.41403 0.0
H666 H 0.453 0.05263 0.38184 0.0
H667 H 0.54596 0.05121 0.38289 0.0
C668 C 0.56878 0.07654 0.30589 0.0
N669 N 0.55972 0.06345 0.31691 0.0
C670 C 0.59444 0.07461 0.29592 0.0
C671 C 0.60086 0.04559 0.30858 0.0
C672 C 0.5753 0.0482 0.31852 0.0
C673 C 0.61094 0.05895 0.29715 0.0
H674 H 0.55631 0.08867 0.3051 0.0
H675 H 0.56833 0.03817 0.32773 0.0
O676 O 0.46485 0.0809 0.35451 0.0
O677 O 0.49991 0.08683 0.31951 0.0
O678 O 0.53283 0.08102 0.35314 0.0
O679 O 0.49699 0.04953 0.3377 0.0
H680 H 0.4088 0.0876 0.36077 0.0
H681 H 0.49627 0.09113 0.38227 0.0
H682 H 0.38954 0.10153 0.38823 0.0
H683 H 0.47563 0.10506 0.40929 0.0
H684 H 0.47561 0.07391 0.26258 0.0
H685 H 0.46735 0.11506 0.31306 0.0
H686 H 0.50189 0.06712 0.29061 0.0
H687 H 0.44183 0.12108 0.28459 0.0
H688 H 0.45361 0.15325 0.35615 0.0
H689 H 0.5467 0.15308 0.34384 0.0
H690 H 0.40158 0.03394 0.2948 0.0
H691 H 0.3769 0.08789 0.30607 0.0
H692 H 0.57975 0.06025 0.35333 0.0
H693 H 0.54092 0.10659 0.37665 0.0
H694 H 0.62377 0.06468 0.37222 0.0
H695 H 0.58544 0.11006 0.3953 0.0
H696 H 0.51996 0.02496 0.35841 0.0
H697 H 0.49957 0.03854 0.3044 0.0
H698 H 0.54034 0.99645 0.34787 0.0
H699 H 0.52026 0.00979 0.2948 0.0
H700 H 0.45049 0.03813 0.41101 0.0
H701 H 0.54565 0.03697 0.41209 0.0
H702 H 0.60156 0.08548 0.28766 0.0
H703 H 0.61258 0.03322 0.30991 0.0
H704 H 0.03964 0.32338 0.13624 0.0
H705 H 0.03996 0.29118 0.13497 0.0
H706 H 0.95927 0.28962 0.16508 0.0
H707 H 0.95965 0.32172 0.16726 0.0
H708 H 0.99543 0.26582 0.17714 0.0
H709 H 0.96119 0.28238 0.11944 0.0
H710 H 0.96256 0.29787 0.09072 0.0
H711 H 0.04383 0.272 0.07771 0.0
H712 H 0.04315 0.25652 0.10648 0.0
H713 H 0.95457 0.17731 0.15858 0.0
H714 H 0.95513 0.20964 0.15815 0.0
H715 H 0.04343 0.20894 0.13718 0.0
H716 H 0.04305 0.17656 0.13763 0.0
H717 H 0.00429 0.23352 0.12018 0.0
H718 H 0.03711 0.21679 0.17847 0.0
H719 H 0.03372 0.20099 0.20696 0.0
H720 H 0.95211 0.22719 0.21843 0.0
H721 H 0.95478 0.24295 0.18986 0.0
C722 C 0.02211 0.3162 0.14275 0.0
C723 C 0.99956 0.32519 0.1518 0.0
C724 C 0.02212 0.29777 0.14182 0.0
C725 C 0.99939 0.28797 0.1497 0.0
C726 C 0.97697 0.29689 0.15882 0.0
C727 C 0.97706 0.31529 0.15989 0.0
C728 C 0.9992 0.26839 0.14877 0.0
C729 C 0.99697 0.2588 0.16464 0.0
C730 C 0.00182 0.25916 0.13251 0.0
C731 C 0.00227 0.26843 0.11519 0.0
C732 C 0.97948 0.2801 0.11052 0.0
C733 C 0.98011 0.28886 0.09422 0.0
C734 C 0.00331 0.28596 0.08242 0.0
C735 C 0.02589 0.27426 0.08688 0.0
C736 C 0.02539 0.26547 0.10317 0.0
C737 C 0.97396 0.18406 0.15369 0.0
C738 C 0.9988 0.17447 0.14817 0.0
C739 C 0.97431 0.20249 0.15354 0.0
C740 C 0.99939 0.21162 0.14774 0.0
C741 C 0.0239 0.2021 0.14172 0.0
C742 C 0.02371 0.18365 0.14208 0.0
C743 C 0.00031 0.23112 0.14849 0.0
C744 C 0.00274 0.24064 0.13262 0.0
C745 C 0.99757 0.2403 0.16471 0.0
C746 C 0.996 0.23091 0.18194 0.0
C747 C 0.01831 0.21907 0.187 0.0
C748 C 0.01654 0.21014 0.20317 0.0
C749 C 0.99267 0.21305 0.21448 0.0
C750 C 0.97056 0.22493 0.20965 0.0
C751 C 0.9722 0.23387 0.19347 0.0
H752 H 0.99135 0.20613 0.227 0.0
H753 H 0.00375 0.29276 0.06981 0.0
H754 H 0.04435 0.82207 0.83304 0.0
H755 H 0.04429 0.78989 0.83452 0.0
H756 H 0.96187 0.79108 0.86288 0.0
H757 H 0.96232 0.82336 0.86205 0.0
H758 H 0.99895 0.76731 0.87715 0.0
H759 H 0.96371 0.78131 0.81896 0.0
H760 H 0.9649 0.79559 0.78961 0.0
H761 H 0.04583 0.76896 0.7774 0.0
H762 H 0.04534 0.7547 0.8068 0.0
H763 H 0.96066 0.67709 0.8631 0.0
H764 H 0.96141 0.70937 0.86367 0.0
H765 H 0.04462 0.70925 0.83613 0.0
H766 H 0.04364 0.67701 0.83509 0.0
H767 H 0.00653 0.73248 0.82166 0.0
H768 H 0.04138 0.71835 0.88006 0.0
H769 H 0.03963 0.70403 0.90938 0.0
H770 H 0.95861 0.73077 0.92112 0.0
H771 H 0.95966 0.74506 0.89175 0.0
C772 C 0.02639 0.81552 0.8398 0.0
C773 C 0.00329 0.8253 0.84739 0.0
C774 C 0.02624 0.79711 0.84048 0.0
C775 C 0.00287 0.78808 0.84859 0.0
C776 C 0.98006 0.79778 0.85648 0.0
C777 C 0.98021 0.81622 0.85585 0.0
C778 C 0.00213 0.76851 0.84869 0.0
C779 C 0.00021 0.75968 0.86501 0.0
C780 C 0.00433 0.75857 0.83287 0.0
C781 C 0.00463 0.76707 0.81515 0.0
C782 C 0.98188 0.7786 0.81007 0.0
C783 C 0.98241 0.78668 0.79342 0.0
C784 C 0.00547 0.78322 0.78167 0.0
C785 C 0.028 0.77165 0.78653 0.0
C786 C 0.0276 0.76355 0.80318 0.0
C787 C 0.97907 0.68395 0.85712 0.0
C788 C 0.00212 0.67449 0.84907 0.0
C789 C 0.97959 0.70238 0.85759 0.0
C790 C 0.00321 0.7117 0.85008 0.0
C791 C 0.02624 0.70231 0.84206 0.0
C792 C 0.02577 0.68389 0.84161 0.0
C793 C 0.00353 0.73127 0.85012 0.0
C794 C 0.00529 0.7401 0.83381 0.0
C795 C 0.00109 0.74118 0.86594 0.0
C796 C 0.00045 0.73264 0.88363 0.0
C797 C 0.02306 0.72106 0.88883 0.0
C798 C 0.02222 0.71297 0.90547 0.0
C799 C 0.99898 0.71645 0.91709 0.0
C800 C 0.97657 0.72807 0.9121 0.0
C801 C 0.97729 0.73618 0.89546 0.0
H802 H 0.99837 0.71018 0.92997 0.0
H803 H 0.00583 0.78949 0.76878 0.0
H804 H 0.54963 0.6734 0.64629 0.0
H805 H 0.55029 0.70568 0.645 0.0
H806 H 0.45905 0.70697 0.66096 0.0
H807 H 0.45812 0.6747 0.66168 0.0
H808 H 0.46719 0.73002 0.63619 0.0
H809 H 0.51782 0.71586 0.69021 0.0
H810 H 0.55541 0.70137 0.70877 0.0
H811 H 0.6239 0.72698 0.67917 0.0
H812 H 0.58671 0.74144 0.66027 0.0
H813 H 0.45977 0.81838 0.66729 0.0
H814 H 0.46135 0.78624 0.66559 0.0
H815 H 0.54658 0.78883 0.64062 0.0
H816 H 0.54486 0.82109 0.64169 0.0
H817 H 0.54307 0.76422 0.66872 0.0
H818 H 0.49036 0.77957 0.6157 0.0
H819 H 0.4515 0.79442 0.59844 0.0
H820 H 0.38519 0.76681 0.62802 0.0
H821 H 0.42367 0.75197 0.64565 0.0
C822 C 0.52977 0.68062 0.64954 0.0
C823 C 0.50385 0.6716 0.65414 0.0
C824 C 0.53016 0.69905 0.64886 0.0
C825 C 0.50484 0.70881 0.65317 0.0
C826 C 0.47886 0.69976 0.65757 0.0
C827 C 0.47833 0.68134 0.65798 0.0
C828 C 0.50533 0.72842 0.65312 0.0
C829 C 0.4836 0.73747 0.64348 0.0
C830 C 0.52709 0.73821 0.66232 0.0
C831 C 0.54949 0.72958 0.67371 0.0
C832 C 0.5409 0.7183 0.68758 0.0
C833 C 0.56213 0.71011 0.69817 0.0
C834 C 0.59202 0.71322 0.69512 0.0
C835 C 0.60074 0.72457 0.6815 0.0
C836 C 0.5796 0.73277 0.67085 0.0
C837 C 0.47869 0.81219 0.66118 0.0
C838 C 0.50212 0.82239 0.65453 0.0
C839 C 0.47961 0.79379 0.66032 0.0
C840 C 0.50399 0.7852 0.65287 0.0
C841 C 0.52759 0.79525 0.64644 0.0
C842 C 0.5266 0.81368 0.64715 0.0
C843 C 0.50482 0.76569 0.65196 0.0
C844 C 0.52678 0.75671 0.66139 0.0
C845 C 0.48308 0.75597 0.64277 0.0
C846 C 0.4599 0.76478 0.6321 0.0
C847 C 0.46749 0.77677 0.61862 0.0
C848 C 0.44553 0.78517 0.60876 0.0
C849 C 0.41589 0.78159 0.61216 0.0
C850 C 0.40816 0.76958 0.62541 0.0
C851 C 0.43003 0.76116 0.63533 0.0
H852 H 0.39893 0.78811 0.60451 0.0
H853 H 0.60843 0.70687 0.70334 0.0
H854 H 0.54577 0.32449 0.35731 0.0
H855 H 0.5461 0.29237 0.35931 0.0
H856 H 0.45504 0.2909 0.34315 0.0
H857 H 0.45401 0.3231 0.34211 0.0
H858 H 0.4637 0.268 0.36859 0.0
H859 H 0.51239 0.28181 0.31398 0.0
H860 H 0.54906 0.29627 0.29475 0.0
H861 H 0.61902 0.27138 0.32373 0.0
H862 H 0.58275 0.25695 0.34329 0.0
H863 H 0.45776 0.17899 0.3388 0.0
H864 H 0.45829 0.21116 0.34024 0.0
H865 H 0.54436 0.20979 0.36424 0.0
H866 H 0.54369 0.17752 0.36346 0.0
H867 H 0.53932 0.23383 0.3358 0.0
H868 H 0.48856 0.21895 0.38962 0.0
H869 H 0.45057 0.20411 0.40758 0.0
H870 H 0.38276 0.23074 0.37832 0.0
H871 H 0.42035 0.24555 0.35999 0.0
C872 C 0.52564 0.31739 0.35445 0.0
C873 C 0.49988 0.32643 0.34947 0.0
C874 C 0.52599 0.29898 0.35538 0.0
C875 C 0.50074 0.28918 0.35108 0.0
C876 C 0.47484 0.29816 0.34644 0.0
C877 C 0.47439 0.31658 0.34566 0.0
C878 C 0.50136 0.26958 0.35129 0.0
C879 C 0.48004 0.26054 0.36125 0.0
C880 C 0.52301 0.25982 0.34198 0.0
C881 C 0.54487 0.26845 0.33022 0.0
C882 C 0.5356 0.27953 0.31634 0.0
C883 C 0.55631 0.2877 0.30536 0.0
C884 C 0.58635 0.28478 0.30805 0.0
C885 C 0.59574 0.27365 0.32168 0.0
C886 C 0.57512 0.26546 0.33271 0.0
C887 C 0.47663 0.18546 0.34468 0.0
C888 C 0.50063 0.17559 0.35111 0.0
C889 C 0.47694 0.20387 0.34538 0.0
C890 C 0.50128 0.21281 0.35245 0.0
C891 C 0.5254 0.2031 0.35872 0.0
C892 C 0.52501 0.18466 0.35817 0.0
C893 C 0.50164 0.23234 0.35302 0.0
C894 C 0.5231 0.24134 0.34319 0.0
C895 C 0.47993 0.24205 0.36226 0.0
C896 C 0.45728 0.23323 0.37332 0.0
C897 C 0.46554 0.22153 0.38691 0.0
C898 C 0.44408 0.21315 0.39718 0.0
C899 C 0.41427 0.21645 0.39406 0.0
C900 C 0.40586 0.22818 0.3807 0.0
C901 C 0.42724 0.23659 0.37038 0.0
H902 H 0.39769 0.20995 0.40203 0.0
H903 H 0.60235 0.29112 0.29954 0.0
H904 H 0.36582 0.0829 0.27328 0.0
H905 H 0.32008 0.08073 0.2564 0.0
H906 H 0.29906 0.03198 0.28315 0.0
H907 H 0.34534 0.03392 0.29982 0.0
H908 H 0.28438 0.02999 0.24895 0.0
H909 H 0.26737 0.07107 0.29593 0.0
H910 H 0.27761 0.09704 0.31464 0.0
H911 H 0.26978 0.13094 0.26928 0.0
H912 H 0.25991 0.10514 0.25025 0.0
H913 H 0.1316 0.03492 0.22385 0.0
H914 H 0.17799 0.03262 0.24028 0.0
H915 H 0.20897 0.08038 0.21534 0.0
H916 H 0.16283 0.08274 0.19895 0.0
H917 H 0.21683 0.08142 0.25047 0.0
H918 H 0.23527 0.03957 0.20341 0.0
H919 H 0.22464 0.01331 0.1852 0.0
H920 H 0.22848 0.9805 0.23155 0.0
H921 H 0.23875 0.00662 0.25008 0.0
C922 C 0.35144 0.07171 0.27553 0.0
C923 C 0.35889 0.05868 0.28798 0.0
C924 C 0.32532 0.07049 0.26591 0.0
C925 C 0.30583 0.05639 0.2688 0.0
C926 C 0.31371 0.04301 0.28077 0.0
C927 C 0.34009 0.04413 0.29027 0.0
C928 C 0.27694 0.05598 0.25963 0.0
C929 C 0.2694 0.04112 0.24948 0.0
C930 C 0.2575 0.07057 0.26019 0.0
C931 C 0.26312 0.08615 0.27164 0.0
C932 C 0.26801 0.08405 0.28993 0.0
C933 C 0.27373 0.09874 0.30059 0.0
C934 C 0.2744 0.11562 0.29315 0.0
C935 C 0.26927 0.11785 0.27503 0.0
C936 C 0.26358 0.1032 0.2643 0.0
C937 C 0.14848 0.04479 0.22172 0.0
C938 C 0.1435 0.05908 0.21021 0.0
C939 C 0.17495 0.04346 0.23111 0.0
C940 C 0.19697 0.0563 0.22899 0.0
C941 C 0.19221 0.07038 0.21725 0.0
C942 C 0.1658 0.07175 0.20794 0.0
C943 C 0.22457 0.05561 0.23945 0.0
C944 C 0.23177 0.07025 0.24997 0.0
C945 C 0.24351 0.04078 0.2393 0.0
C946 C 0.23747 0.02507 0.22815 0.0
C947 C 0.23362 0.02678 0.20974 0.0
C948 C 0.2277 0.01191 0.19936 0.0
C949 C 0.2258 0.99525 0.20722 0.0
C950 C 0.22991 0.99342 0.22548 0.0
C951 C 0.2358 0.00824 0.23592 0.0
H952 H 0.22121 0.98376 0.19916 0.0
H953 H 0.27885 0.12698 0.30143 0.0
H954 H 0.62519 0.4628 0.26831 0.0
H955 H 0.67121 0.46719 0.25215 0.0
H956 H 0.71798 0.43782 0.29224 0.0
H957 H 0.67246 0.43424 0.30895 0.0
H958 H 0.74993 0.46472 0.28227 0.0
H959 H 0.69581 0.41902 0.2523 0.0
H960 H 0.65311 0.40595 0.23696 0.0
H961 H 0.65901 0.44556 0.19641 0.0
H962 H 0.70152 0.45901 0.21166 0.0
H963 H 0.87114 0.42932 0.23443 0.0
H964 H 0.82509 0.43388 0.2507 0.0
H965 H 0.79748 0.47216 0.21181 0.0
H966 H 0.84386 0.46782 0.19557 0.0
H967 H 0.75536 0.44455 0.2198 0.0
H968 H 0.81466 0.48774 0.24927 0.0
H969 H 0.85862 0.49878 0.26489 0.0
H970 H 0.84427 0.46141 0.30679 0.0
H971 H 0.80045 0.44995 0.29128 0.0
C972 C 0.64534 0.45754 0.27387 0.0
C973 C 0.64502 0.44801 0.28987 0.0
C974 C 0.67161 0.4599 0.2645 0.0
C975 C 0.698 0.45257 0.27082 0.0
C976 C 0.69789 0.44353 0.28705 0.0
C977 C 0.67173 0.44131 0.29649 0.0
C978 C 0.72561 0.45377 0.26035 0.0
C979 C 0.75112 0.46021 0.26865 0.0
C980 C 0.72711 0.44822 0.24244 0.0
C981 C 0.7016 0.44014 0.23323 0.0
C982 C 0.68785 0.42502 0.24019 0.0
C983 C 0.66371 0.41754 0.2315 0.0
C984 C 0.6533 0.42496 0.21575 0.0
C985 C 0.66706 0.43985 0.20863 0.0
C986 C 0.69118 0.44741 0.21729 0.0
C987 C 0.85531 0.4388 0.22945 0.0
C988 C 0.86093 0.44822 0.21378 0.0
C989 C 0.82914 0.44144 0.23876 0.0
C990 C 0.80802 0.4534 0.23246 0.0
C991 C 0.81362 0.46292 0.21688 0.0
C992 C 0.84007 0.4605 0.20769 0.0
C993 C 0.77958 0.45523 0.24183 0.0
C994 C 0.75398 0.44931 0.23334 0.0
C995 C 0.7781 0.46099 0.25963 0.0
C996 C 0.80439 0.46789 0.26903 0.0
C997 C 0.82101 0.48176 0.26174 0.0
C998 C 0.84588 0.48812 0.27059 0.0
C999 C 0.85427 0.48077 0.2868 0.0
C1000 C 0.83776 0.46708 0.29422 0.0
C1001 C 0.81288 0.46066 0.28541 0.0
H1002 H 0.87352 0.48571 0.29364 0.0
H1003 H 0.63461 0.41914 0.20904 0.0
H1004 H 0.1227 0.96402 0.76726 0.0
H1005 H 0.16865 0.96865 0.75098 0.0
H1006 H 0.21599 0.93941 0.79091 0.0
H1007 H 0.17048 0.93535 0.80758 0.0
H1008 H 0.24718 0.96725 0.78065 0.0
H1009 H 0.194 0.92018 0.75195 0.0
H1010 H 0.15148 0.90652 0.73696 0.0
H1011 H 0.15668 0.94519 0.69547 0.0
H1012 H 0.19901 0.95923 0.71036 0.0
H1013 H 0.36883 0.93016 0.73518 0.0
H1014 H 0.32261 0.93566 0.75094 0.0
H1015 H 0.29557 0.97169 0.70979 0.0
H1016 H 0.34211 0.96638 0.69404 0.0
H1017 H 0.25325 0.94492 0.71894 0.0
H1018 H 0.3119 0.98928 0.74668 0.0
H1019 H 0.35552 0.00128 0.7619 0.0
H1020 H 0.34119 0.96593 0.80553 0.0
H1021 H 0.29771 0.95351 0.79044 0.0
C1022 C 0.14298 0.95884 0.77272 0.0
C1023 C 0.14288 0.94917 0.78864 0.0
C1024 C 0.16918 0.96137 0.76332 0.0
C1025 C 0.19569 0.95416 0.7696 0.0
C1026 C 0.19579 0.94504 0.78578 0.0
C1027 C 0.16969 0.94257 0.7952 0.0
C1028 C 0.2232 0.95541 0.75907 0.0
C1029 C 0.24853 0.9623 0.76718 0.0
C1030 C 0.22482 0.94932 0.74136 0.0
C1031 C 0.19942 0.94088 0.73238 0.0
C1032 C 0.18591 0.92586 0.7397 0.0
C1033 C 0.16188 0.91803 0.73122 0.0
C1034 C 0.15132 0.92502 0.7153 0.0
C1035 C 0.16484 0.93982 0.70782 0.0
C1036 C 0.18885 0.94771 0.71627 0.0
C1037 C 0.35309 0.93935 0.72958 0.0
C1038 C 0.35892 0.94785 0.71342 0.0
C1039 C 0.32683 0.94253 0.73861 0.0
C1040 C 0.30581 0.95413 0.73154 0.0
C1041 C 0.31162 0.96275 0.71546 0.0
C1042 C 0.33817 0.95977 0.70654 0.0
C1043 C 0.27723 0.95645 0.74065 0.0
C1044 C 0.25174 0.95017 0.73229 0.0
C1045 C 0.27554 0.96291 0.75819 0.0
C1046 C 0.30165 0.97037 0.76735 0.0
C1047 C 0.31818 0.98395 0.75945 0.0
C1048 C 0.34287 0.99085 0.76807 0.0
C1049 C 0.35116 0.98435 0.78466 0.0
C1050 C 0.33475 0.97095 0.79267 0.0
C1051 C 0.31006 0.96399 0.7841 0.0
H1052 H 0.37027 0.98971 0.79131 0.0
H1053 H 0.13272 0.91894 0.70874 0.0
H1054 H 0.6695 0.55536 0.69022 0.0
H1055 H 0.7162 0.5523 0.70595 0.0
H1056 H 0.66983 0.53387 0.75234 0.0
H1057 H 0.62292 0.53756 0.73677 0.0
H1058 H 0.70769 0.55677 0.76205 0.0
H1059 H 0.71354 0.50594 0.72521 0.0
H1060 H 0.71165 0.48873 0.69752 0.0
H1061 H 0.78292 0.51931 0.67622 0.0
H1062 H 0.78498 0.53689 0.70371 0.0
H1063 H 0.84197 0.53458 0.80603 0.0
H1064 H 0.79539 0.52991 0.79021 0.0
H1065 H 0.82777 0.56082 0.74636 0.0
H1066 H 0.87421 0.56567 0.76218 0.0
H1067 H 0.79679 0.52858 0.73666 0.0
H1068 H 0.78649 0.58073 0.77356 0.0
H1069 H 0.78825 0.59678 0.80197 0.0
H1070 H 0.72439 0.56122 0.82399 0.0
H1071 H 0.7226 0.54479 0.79577 0.0
C1072 C 0.66935 0.55041 0.70369 0.0
C1073 C 0.64266 0.54665 0.71228 0.0
C1074 C 0.69606 0.5486 0.71267 0.0
C1075 C 0.69667 0.54259 0.73029 0.0
C1076 C 0.66998 0.53852 0.73877 0.0
C1077 C 0.64321 0.54061 0.72988 0.0
C1078 C 0.72496 0.54163 0.74017 0.0
C1079 C 0.72694 0.55026 0.75661 0.0
C1080 C 0.75035 0.53339 0.73304 0.0
C1081 C 0.74925 0.52283 0.71649 0.0
C1082 C 0.72867 0.50908 0.71458 0.0
C1083 C 0.72759 0.49925 0.69892 0.0
C1084 C 0.74711 0.50295 0.68511 0.0
C1085 C 0.7678 0.51647 0.68693 0.0
C1086 C 0.76896 0.52636 0.70256 0.0
C1087 C 0.83924 0.54015 0.79292 0.0
C1088 C 0.86153 0.55055 0.78533 0.0
C1089 C 0.81268 0.53752 0.78394 0.0
C1090 C 0.8082 0.54509 0.76717 0.0
C1091 C 0.83088 0.55487 0.75928 0.0
C1092 C 0.85725 0.55771 0.76835 0.0
C1093 C 0.77925 0.54377 0.75829 0.0
C1094 C 0.77727 0.5348 0.74209 0.0
C1095 C 0.75375 0.55147 0.76572 0.0
C1096 C 0.75468 0.56141 0.78264 0.0
C1097 C 0.77303 0.57624 0.78451 0.0
C1098 C 0.77399 0.58543 0.80057 0.0
C1099 C 0.75651 0.57999 0.81479 0.0
C1100 C 0.73796 0.56539 0.81297 0.0
C1101 C 0.73695 0.55614 0.79695 0.0
H1102 H 0.75728 0.58712 0.82721 0.0
H1103 H 0.74624 0.49531 0.67299 0.0
H1104 H 0.6665 0.94554 0.6874 0.0
H1105 H 0.71405 0.94852 0.70211 0.0
H1106 H 0.67059 0.95097 0.75287 0.0
H1107 H 0.62275 0.94879 0.73818 0.0
H1108 H 0.71553 0.97391 0.75154 0.0
H1109 H 0.70098 0.91256 0.7379 0.0
H1110 H 0.6905 0.88708 0.71858 0.0
H1111 H 0.76646 0.89924 0.68699 0.0
H1112 H 0.77716 0.92495 0.70599 0.0
H1113 H 0.83382 0.94724 0.80719 0.0
H1114 H 0.78766 0.95018 0.7909 0.0
H1115 H 0.83531 0.9492 0.74148 0.0
H1116 H 0.88172 0.94646 0.7577 0.0
H1117 H 0.78921 0.92667 0.74122 0.0
H1118 H 0.80519 0.98728 0.75646 0.0
H1119 H 0.81545 0.01228 0.77643 0.0
H1120 H 0.73672 0.00101 0.8058 0.0
H1121 H 0.72619 0.97577 0.78615 0.0
C1122 C 0.66695 0.94707 0.70166 0.0
C1123 C 0.64076 0.94682 0.71161 0.0
C1124 C 0.69421 0.94859 0.71007 0.0
C1125 C 0.6959 0.94966 0.72861 0.0
C1126 C 0.6698 0.95005 0.73855 0.0
C1127 C 0.64249 0.94863 0.73014 0.0
C1128 C 0.72488 0.9497 0.73768 0.0
C1129 C 0.73154 0.9635 0.74943 0.0
C1130 C 0.746 0.93629 0.73465 0.0
C1131 C 0.73969 0.92079 0.72326 0.0
C1132 C 0.71532 0.90988 0.72675 0.0
C1133 C 0.70936 0.89538 0.71588 0.0
C1134 C 0.72776 0.89157 0.70154 0.0
C1135 C 0.7522 0.90222 0.69808 0.0
C1136 C 0.75823 0.91675 0.70891 0.0
C1137 C 0.83458 0.94798 0.79287 0.0
C1138 C 0.8615 0.94664 0.78375 0.0
C1139 C 0.80814 0.94963 0.78358 0.0
C1140 C 0.80807 0.95006 0.76498 0.0
C1141 C 0.83489 0.94888 0.75583 0.0
C1142 C 0.86136 0.94725 0.76512 0.0
C1143 C 0.77989 0.95086 0.7551 0.0
C1144 C 0.77332 0.93717 0.74323 0.0
C1145 C 0.75884 0.96431 0.75812 0.0
C1146 C 0.76504 0.97953 0.76992 0.0
C1147 C 0.79018 0.99004 0.76726 0.0
C1148 C 0.79602 0.00428 0.77851 0.0
C1149 C 0.77678 0.00821 0.7924 0.0
C1150 C 0.75162 0.99794 0.79505 0.0
C1151 C 0.74569 0.98368 0.78384 0.0
H1152 H 0.78134 0.01923 0.8011 0.0
H1153 H 0.72311 0.88034 0.69313 0.0
H1154 H 0.33128 0.55237 0.68755 0.0
H1155 H 0.28489 0.55044 0.7038 0.0
H1156 H 0.33252 0.54891 0.75321 0.0
H1157 H 0.3791 0.55116 0.73707 0.0
H1158 H 0.28605 0.52495 0.75217 0.0
H1159 H 0.30283 0.58644 0.74066 0.0
H1160 H 0.31365 0.61242 0.72209 0.0
H1161 H 0.23542 0.60289 0.69162 0.0
H1162 H 0.22437 0.57668 0.70985 0.0
H1163 H 0.16776 0.54927 0.8095 0.0
H1164 H 0.21415 0.54663 0.79331 0.0
H1165 H 0.16751 0.55202 0.74381 0.0
H1166 H 0.12102 0.55462 0.75991 0.0
H1167 H 0.21383 0.57355 0.74494 0.0
H1168 H 0.1963 0.51234 0.75682 0.0
H1169 H 0.18557 0.48629 0.77531 0.0
H1170 H 0.26479 0.49511 0.80504 0.0
H1171 H 0.2758 0.52138 0.78689 0.0
C1172 C 0.33192 0.55169 0.70188 0.0
C1173 C 0.35891 0.55208 0.71101 0.0
C1174 C 0.3054 0.55051 0.71113 0.0
C1175 C 0.30529 0.54972 0.72971 0.0
C1176 C 0.33216 0.54948 0.73887 0.0
C1177 C 0.35875 0.55072 0.72961 0.0
C1178 C 0.27708 0.54985 0.73955 0.0
C1179 C 0.27037 0.53565 0.75078 0.0
C1180 C 0.25644 0.56368 0.73743 0.0
C1181 C 0.26294 0.57949 0.7265 0.0
C1182 C 0.28806 0.5898 0.72991 0.0
C1183 C 0.29422 0.60458 0.71946 0.0
C1184 C 0.27528 0.60928 0.70565 0.0
C1185 C 0.2501 0.59922 0.7023 0.0
C1186 C 0.24387 0.58441 0.71269 0.0
C1187 C 0.16731 0.54957 0.79516 0.0
C1188 C 0.1407 0.55218 0.78599 0.0
C1189 C 0.19386 0.54808 0.78592 0.0
C1190 C 0.19429 0.54903 0.76734 0.0
C1191 C 0.1677 0.55131 0.75815 0.0
C1192 C 0.14117 0.55284 0.76737 0.0
C1193 C 0.22257 0.54856 0.75751 0.0
C1194 C 0.22939 0.56277 0.74631 0.0
C1195 C 0.24325 0.53474 0.75968 0.0
C1196 C 0.23672 0.51893 0.7706 0.0
C1197 C 0.21131 0.50881 0.7674 0.0
C1198 C 0.2052 0.49399 0.7778 0.0
C1199 C 0.22445 0.48907 0.79137 0.0
C1200 C 0.24989 0.49895 0.79454 0.0
C1201 C 0.25608 0.5138 0.78419 0.0
H1202 H 0.21968 0.47759 0.79941 0.0
H1203 H 0.28007 0.62073 0.69758 0.0
H1204 H 0.62377 0.07125 0.26377 0.0
H1205 H 0.67031 0.06935 0.24795 0.0
H1206 H 0.70743 0.03896 0.29084 0.0
H1207 H 0.66166 0.04199 0.30741 0.0
H1208 H 0.74531 0.06189 0.28113 0.0
H1209 H 0.68669 0.02025 0.24949 0.0
H1210 H 0.64345 0.00925 0.23311 0.0
H1211 H 0.65752 0.04819 0.19266 0.0
H1212 H 0.70062 0.05959 0.20891 0.0
H1213 H 0.87312 0.03879 0.23104 0.0
H1214 H 0.82626 0.03621 0.24694 0.0
H1215 H 0.7871 0.07414 0.21143 0.0
H1216 H 0.83368 0.07661 0.19536 0.0
H1217 H 0.7512 0.04496 0.21773 0.0
H1218 H 0.80895 0.08709 0.25128 0.0
H1219 H 0.85279 0.09686 0.26788 0.0
H1220 H 0.8407 0.05462 0.30511 0.0
H1221 H 0.79699 0.04445 0.28859 0.0
C1222 C 0.64186 0.06431 0.26998 0.0
C1223 C 0.6388 0.05681 0.28695 0.0
C1224 C 0.66841 0.06298 0.26074 0.0
C1225 C 0.69231 0.05374 0.26804 0.0
C1226 C 0.68928 0.04608 0.28488 0.0
C1227 C 0.66289 0.04766 0.29426 0.0
C1228 C 0.72084 0.05273 0.25843 0.0
C1229 C 0.74659 0.05786 0.26736 0.0
C1230 C 0.72261 0.04773 0.24036 0.0
C1231 C 0.69676 0.04086 0.2305 0.0
C1232 C 0.68045 0.02655 0.23716 0.0
C1233 C 0.65598 0.02023 0.22789 0.0
C1234 C 0.64771 0.02804 0.21187 0.0
C1235 C 0.66394 0.04216 0.20507 0.0
C1236 C 0.68841 0.04854 0.21429 0.0
C1237 C 0.85443 0.04645 0.22655 0.0
C1238 C 0.85709 0.05798 0.21203 0.0
C1239 C 0.82777 0.04504 0.23569 0.0
C1240 C 0.80332 0.05509 0.23042 0.0
C1241 C 0.80574 0.0663 0.21571 0.0
C1242 C 0.83241 0.06781 0.20665 0.0
C1243 C 0.77532 0.05424 0.24043 0.0
C1244 C 0.74977 0.04879 0.23155 0.0
C1245 C 0.77377 0.05871 0.25859 0.0
C1246 C 0.7999 0.0649 0.2686 0.0
C1247 C 0.81578 0.07981 0.26293 0.0
C1248 C 0.84058 0.08543 0.27234 0.0
C1249 C 0.84957 0.07634 0.28751 0.0
C1250 C 0.83373 0.06163 0.29334 0.0
C1251 C 0.80894 0.05594 0.28397 0.0
H1252 H 0.86878 0.08071 0.29477 0.0
H1253 H 0.62875 0.02313 0.20472 0.0
H1254 H 0.16806 0.44955 0.18801 0.0
H1255 H 0.21525 0.45247 0.20313 0.0
H1256 H 0.17138 0.44922 0.25372 0.0
H1257 H 0.12385 0.44718 0.2387 0.0
H1258 H 0.21413 0.47312 0.255 0.0
H1259 H 0.20547 0.41315 0.23519 0.0
H1260 H 0.19751 0.38931 0.21346 0.0
H1261 H 0.27238 0.40694 0.18358 0.0
H1262 H 0.28055 0.43105 0.20502 0.0
H1263 H 0.33423 0.44376 0.3081 0.0
H1264 H 0.28802 0.44693 0.29192 0.0
H1265 H 0.33613 0.4548 0.24331 0.0
H1266 H 0.3826 0.45211 0.25945 0.0
H1267 H 0.2923 0.42981 0.24024 0.0
H1268 H 0.30225 0.48895 0.26195 0.0
H1269 H 0.3099 0.51195 0.28459 0.0
H1270 H 0.23223 0.49482 0.31207 0.0
H1271 H 0.22434 0.47154 0.28972 0.0
C1272 C 0.1683 0.44981 0.20235 0.0
C1273 C 0.14209 0.44802 0.21213 0.0
C1274 C 0.19539 0.45128 0.21098 0.0
C1275 C 0.19692 0.45074 0.22956 0.0
C1276 C 0.17076 0.44956 0.23937 0.0
C1277 C 0.14362 0.44821 0.23075 0.0
C1278 C 0.22584 0.45083 0.23874 0.0
C1279 C 0.23111 0.46354 0.2519 0.0
C1280 C 0.24823 0.43853 0.23447 0.0
C1281 C 0.24343 0.42401 0.2216 0.0
C1282 C 0.2201 0.41202 0.22391 0.0
C1283 C 0.21557 0.39845 0.21166 0.0
C1284 C 0.23438 0.39665 0.19712 0.0
C1285 C 0.2578 0.40838 0.19483 0.0
C1286 C 0.26241 0.42199 0.20703 0.0
C1287 C 0.33508 0.44653 0.29403 0.0
C1288 C 0.36222 0.4477 0.2851 0.0
C1289 C 0.3086 0.44827 0.28479 0.0
C1290 C 0.30866 0.4512 0.26644 0.0
C1291 C 0.33562 0.45251 0.25748 0.0
C1292 C 0.36215 0.45088 0.26672 0.0
C1293 C 0.28055 0.45206 0.2565 0.0
C1294 C 0.2754 0.43948 0.24324 0.0
C1295 C 0.25823 0.46436 0.2608 0.0
C1296 C 0.26285 0.47839 0.27424 0.0
C1297 C 0.28693 0.48999 0.2729 0.0
C1298 C 0.29129 0.5031 0.28567 0.0
C1299 C 0.2716 0.50482 0.29979 0.0
C1300 C 0.24748 0.49346 0.30114 0.0
C1301 C 0.24303 0.48032 0.28841 0.0
H1302 H 0.27501 0.51498 0.30966 0.0
H1303 H 0.23084 0.38613 0.18765 0.0
H1304 H 0.95629 0.03972 0.06127 0.0
H1305 H 0.95651 0.02694 0.03153 0.0
H1306 H 0.04191 0.00407 0.0416 0.0
H1307 H 0.04199 0.01714 0.07127 0.0
H1308 H 0.04082 0.01806 0.00977 0.0
H1309 H 0.9779 0.979 0.04221 0.0
H1310 H 0.9363 0.97086 0.06155 0.0
H1311 H 0.87546 0.99242 0.02376 0.0
H1312 H 0.91674 0.00092 0.00431 0.0
H1313 H 0.0391 0.95777 0.93731 0.0
H1314 H 0.03969 0.97075 0.96694 0.0
H1315 H 0.95856 0.99807 0.95561 0.0
H1316 H 0.95806 0.98542 0.92581 0.0
H1317 H 0.95776 0.98146 0.98804 0.0
H1318 H 0.02189 0.02037 0.95565 0.0
H1319 H 0.06407 0.02776 0.93647 0.0
H1320 H 0.12344 0.00527 0.97456 0.0
H1321 H 0.08155 0.99752 0.99386 0.0
C1322 C 0.97499 0.03185 0.05717 0.0
C1323 C 0.99906 0.02934 0.0686 0.0
C1324 C 0.9751 0.02454 0.04019 0.0
C1325 C 0.99904 0.01432 0.03442 0.0
C1326 C 0.0232 0.0119 0.04577 0.0
C1327 C 0.02323 0.01937 0.0627 0.0
C1328 C 0.99904 0.00634 0.01645 0.0
C1329 C 0.02285 0.00984 0.00512 0.0
C1330 C 0.97532 0.9959 0.01024 0.0
C1331 C 0.95044 0.99074 0.02188 0.0
C1332 C 0.95566 0.98212 0.03809 0.0
C1333 C 0.93214 0.97742 0.04906 0.0
C1334 C 0.90326 0.98116 0.04391 0.0
C1335 C 0.89785 0.98955 0.02775 0.0
C1336 C 0.92129 0.9943 0.01673 0.0
C1337 C 0.02158 0.96673 0.94101 0.0
C1338 C 0.99857 0.97059 0.92915 0.0
C1339 C 0.0219 0.97408 0.95798 0.0
C1340 C 0.99927 0.98546 0.96341 0.0
C1341 C 0.97619 0.98928 0.95168 0.0
C1342 C 0.9759 0.98198 0.93468 0.0
C1343 C 0.99947 0.99322 0.98142 0.0
C1344 C 0.97571 0.98966 0.99274 0.0
C1345 C 0.02333 0.00348 0.98767 0.0
C1346 C 0.04855 0.00821 0.97611 0.0
C1347 C 0.04392 0.01687 0.95987 0.0
C1348 C 0.06778 0.02115 0.94899 0.0
C1349 C 0.09641 0.01695 0.95427 0.0
C1350 C 0.10124 0.0085 0.97047 0.0
C1351 C 0.07745 0.00417 0.98139 0.0
H1352 H 0.11486 0.02027 0.94583 0.0
H1353 H 0.88508 0.97751 0.05242 0.0
H1354 H 0.02979 0.50865 0.92425 0.0
H1355 H 0.02929 0.49602 0.95401 0.0
H1356 H 0.96561 0.53496 0.97043 0.0
H1357 H 0.96695 0.54817 0.94091 0.0
H1358 H 0.00714 0.53143 0.9948 0.0
H1359 H 0.94554 0.49194 0.96193 0.0
H1360 H 0.93239 0.47191 0.93744 0.0
H1361 H 0.00393 0.43759 0.95141 0.0
H1362 H 0.01777 0.45755 0.97586 0.0
H1363 H 0.96606 0.4891 0.07529 0.0
H1364 H 0.96504 0.50176 0.04546 0.0
H1365 H 0.03291 0.46549 0.02899 0.0
H1366 H 0.03361 0.45251 0.05868 0.0
H1367 H 0.98829 0.46769 0.00478 0.0
H1368 H 0.04988 0.50769 0.03756 0.0
H1369 H 0.06228 0.52775 0.06217 0.0
H1370 H 0.98942 0.56115 0.04842 0.0
H1371 H 0.97633 0.54114 0.02386 0.0
C1372 C 0.01586 0.51464 0.93422 0.0
C1373 C 0.99837 0.52943 0.93016 0.0
C1374 C 0.01535 0.50727 0.95119 0.0
C1375 C 0.99711 0.51439 0.9644 0.0
C1376 C 0.97975 0.52919 0.96043 0.0
C1377 C 0.98034 0.53663 0.94348 0.0
C1378 C 0.99652 0.50659 0.98244 0.0
C1379 C 0.00258 0.51754 0.99699 0.0
C1380 C 0.99118 0.4884 0.98529 0.0
C1381 C 0.98286 0.47634 0.97062 0.0
C1382 C 0.95861 0.4802 0.9597 0.0
C1383 C 0.95101 0.46884 0.94584 0.0
C1384 C 0.96736 0.45351 0.94284 0.0
C1385 C 0.99131 0.44948 0.95374 0.0
C1386 C 0.99903 0.4608 0.96761 0.0
C1387 C 0.98062 0.48374 0.06528 0.0
C1388 C -1e-05 0.46984 0.06935 0.0
C1389 C 0.98017 0.49108 0.04829 0.0
C1390 C 0.9991 0.48467 0.03507 0.0
C1391 C 0.0182 0.47066 0.03902 0.0
C1392 C 0.01874 0.46337 0.05602 0.0
C1393 C 0.99896 0.49252 0.01708 0.0
C1394 C 0.99277 0.48158 0.00255 0.0
C1395 C 0.00405 0.51073 0.01426 0.0
C1396 C 0.01195 0.52282 0.02898 0.0
C1397 C 0.03636 0.51923 0.03987 0.0
C1398 C 0.04354 0.53061 0.0538 0.0
C1399 C 0.0266 0.54569 0.05689 0.0
C1400 C 0.00249 0.54945 0.04602 0.0
C1401 C 0.9952 0.5381 0.03209 0.0
H1402 H 0.03219 0.55449 0.06767 0.0
H1403 H 0.96143 0.44473 0.93211 0.0
H1404 H 0.45283 0.47557 0.43097 0.0
H1405 H 0.45461 0.48866 0.46059 0.0
H1406 H 0.54939 0.48519 0.4602 0.0
H1407 H 0.54774 0.47173 0.43072 0.0
H1408 H 0.52624 0.47358 0.49131 0.0
H1409 H 0.51646 0.52432 0.45395 0.0
H1410 H 0.49433 0.54268 0.4305 0.0
H1411 H 0.41305 0.54468 0.45947 0.0
H1412 H 0.43457 0.5261 0.48299 0.0
H1413 H 0.55159 0.52858 0.56611 0.0
H1414 H 0.55116 0.51659 0.53599 0.0
H1415 H 0.4563 0.51904 0.5354 0.0
H1416 H 0.45659 0.53135 0.56538 0.0
H1417 H 0.48035 0.53151 0.50464 0.0
H1418 H 0.48986 0.48034 0.54168 0.0
H1419 H 0.51193 0.46192 0.56511 0.0
H1420 H 0.59376 0.46076 0.53666 0.0
H1421 H 0.57228 0.47939 0.51317 0.0
C1422 C 0.47404 0.47753 0.43723 0.0
C1423 C 0.50015 0.47266 0.42851 0.0
C1424 C 0.47504 0.48514 0.45408 0.0
C1425 C 0.50215 0.48805 0.46251 0.0
C1426 C 0.52824 0.48311 0.45389 0.0
C1427 C 0.52728 0.47556 0.43701 0.0
C1428 C 0.50323 0.49597 0.48046 0.0
C1429 C 0.5166 0.48637 0.49418 0.0
C1430 C 0.49006 0.51247 0.48425 0.0
C1431 C 0.47705 0.52366 0.47015 0.0
C1432 C 0.49379 0.52854 0.45525 0.0
C1433 C 0.48137 0.53902 0.44196 0.0
C1434 C 0.45228 0.54481 0.44347 0.0
C1435 C 0.43557 0.54017 0.4583 0.0
C1436 C 0.44788 0.52967 0.47163 0.0
C1437 C 0.53066 0.52668 0.55951 0.0
C1438 C 0.50411 0.53083 0.56813 0.0
C1439 C 0.53043 0.51971 0.54237 0.0
C1440 C 0.50368 0.51677 0.53354 0.0
C1441 C 0.47717 0.52116 0.54201 0.0
C1442 C 0.47737 0.52804 0.55917 0.0
C1443 C 0.5033 0.50911 0.51547 0.0
C1444 C 0.49005 0.51875 0.50175 0.0
C1445 C 0.51659 0.49265 0.51167 0.0
C1446 C 0.52955 0.48142 0.52576 0.0
C1447 C 0.51264 0.47629 0.5405 0.0
C1448 C 0.52503 0.46578 0.55378 0.0
C1449 C 0.55426 0.46022 0.5524 0.0
C1450 C 0.57114 0.46511 0.53772 0.0
C1451 C 0.55886 0.47563 0.52441 0.0
H1452 H 0.56381 0.45208 0.56269 0.0
H1453 H 0.4427 0.55292 0.43317 0.0
H1454 H 0.53223 0.94969 0.55937 0.0
H1455 H 0.53154 0.96293 0.52985 0.0
H1456 H 0.46349 0.99897 0.54658 0.0
H1457 H 0.46405 0.98578 0.57617 0.0
H1458 H 0.4514 0.98532 0.51452 0.0
H1459 H 0.53454 0.01271 0.54248 0.0
H1460 H 0.58161 0.01347 0.55873 0.0
H1461 H 0.62348 0.9846 0.51676 0.0
H1462 H 0.57653 0.98345 0.50036 0.0
H1463 H 0.46278 0.04502 0.44215 0.0
H1464 H 0.46222 0.03153 0.47157 0.0
H1465 H 0.53083 0.99554 0.45551 0.0
H1466 H 0.53154 0.00901 0.42606 0.0
H1467 H 0.54242 0.00933 0.48733 0.0
H1468 H 0.45917 0.98192 0.45937 0.0
H1469 H 0.41207 0.98119 0.44315 0.0
H1470 H 0.37037 0.01016 0.48511 0.0
H1471 H 0.41734 0.01127 0.50148 0.0
C1472 C 0.5173 0.96054 0.55681 0.0
C1473 C 0.49829 0.96675 0.57013 0.0
C1474 C 0.5169 0.96807 0.53993 0.0
C1475 C 0.49771 0.98208 0.53608 0.0
C1476 C 0.47846 0.98817 0.54927 0.0
C1477 C 0.47876 0.9806 0.56615 0.0
C1478 C 0.49766 0.99032 0.51826 0.0
C1479 C 0.4712 0.99079 0.50866 0.0
C1480 C 0.52365 0.9971 0.51047 0.0
C1481 C 0.55195 0.99785 0.52027 0.0
C1482 C 0.55373 0.00641 0.53678 0.0
C1483 C 0.58039 0.00693 0.54601 0.0
C1484 C 0.6055 0.99905 0.53881 0.0
C1485 C 0.604 0.99068 0.52233 0.0
C1486 C 0.57738 0.9901 0.51306 0.0
C1487 C 0.47751 0.0341 0.44482 0.0
C1488 C 0.49716 0.02805 0.43177 0.0
C1489 C 0.47719 0.02642 0.46165 0.0
C1490 C 0.49628 0.01241 0.46568 0.0
C1491 C 0.51594 0.00636 0.45269 0.0
C1492 C 0.51637 0.01409 0.43589 0.0
C1493 C 0.49617 0.00428 0.48356 0.0
C1494 C 0.5226 0.00385 0.49318 0.0
C1495 C 0.47015 0.99754 0.49136 0.0
C1496 C 0.44185 0.99682 0.48157 0.0
C1497 C 0.44001 0.98825 0.46508 0.0
C1498 C 0.41333 0.98775 0.45587 0.0
C1499 C 0.38826 0.99566 0.46307 0.0
C1500 C 0.38981 0.00406 0.47953 0.0
C1501 C 0.41645 0.00461 0.48879 0.0
H1502 H 0.36762 0.99526 0.45592 0.0
H1503 H 0.62612 0.99947 0.54597 0.0
loop_
_geom_bond_atom_site_label_1
_geom_bond_atom_site_label_2
_geom_bond_distance
_geom_bond_site_symmetry_2
_ccdc_geom_bond_type
Li0 N17 1.990 . S
Li0 O60 1.956 . S
Li0 O61 1.970 1_455 S
Li0 O62 1.961 1_455 S
Li1 N25 1.990 . S
Li1 O60 1.970 . S
Li1 O61 1.946 1_455 S
Li1 O63 1.961 . S
Li2 N47 1.990 . S
Li2 O60 1.951 1_655 S
Li2 O62 1.966 . S
Li2 O63 1.970 1_655 S
Li3 N53 1.990 . S
Li3 O61 1.970 . S
Li3 O62 1.970 . S
Li3 O63 1.956 1_655 S
C4 C6 1.348 . S
C4 C7 1.356 . S
C4 O60 1.325 . S
N5 C8 1.314 . S
N5 C9 1.279 . S
C6 C4 1.348 . S
C6 C8 1.353 . S
C6 H64 0.929 . S
C7 C4 1.356 . S
C7 C9 1.358 . S
C7 H65 0.930 . S
C8 N5 1.314 . S
C8 C6 1.353 . S
C8 H66 0.930 . S
C9 N5 1.279 . S
C9 C7 1.358 . S
C9 H67 0.930 . S
C10 C13 1.351 . S
C10 C14 1.354 1_455 S
C10 O61 1.324 1_455 S
C11 N12 1.279 1_655 S
C11 C14 1.358 . S
C11 H68 0.930 . S
N12 C11 1.279 1_455 S
N12 C15 1.314 . S
C13 C10 1.351 . S
C13 C15 1.353 . S
C13 H69 0.929 . S
C14 C10 1.354 1_655 S
C14 C11 1.358 . S
C14 H70 0.930 . S
C15 N12 1.314 . S
C15 C13 1.353 . S
C15 H71 0.930 . S
C16 N17 1.314 1_655 S
C16 C21 1.353 . S
C16 H22 0.930 . S
N17 Li0 1.990 . S
N17 C16 1.314 1_455 S
N17 C19 1.279 . S
C18 C19 1.358 . S
C18 C20 1.370 . S
C18 H72 0.930 . S
C19 N17 1.279 . S
C19 C18 1.358 . S
C19 H23 0.930 . S
C20 C18 1.370 . S
C20 C21 1.334 1_455 S
C21 C16 1.353 . S
C21 C20 1.334 1_655 S
C21 H73 0.929 . S
H22 C16 0.930 . S
H23 C19 0.930 . S
C24 N25 1.314 . S
C24 C26 1.353 . S
C24 H30 0.930 . S
N25 Li1 1.990 . S
N25 C24 1.314 . S
N25 C28 1.279 . S
C26 C24 1.353 . S
C26 C29 1.348 . S
C26 H74 0.929 . S
C27 C28 1.358 . S
C27 C29 1.356 . S
C27 H75 0.930 . S
C28 N25 1.279 . S
C28 C27 1.358 . S
C28 H31 0.930 . S
C29 C26 1.348 . S
C29 C27 1.356 . S
H30 C24 0.930 . S
H31 C28 0.930 . S
C32 C34 1.348 . S
C32 C35 1.356 . S
C32 O62 1.325 . S
N33 C36 1.314 . S
N33 C37 1.279 . S
C34 C32 1.348 . S
C34 C36 1.353 . S
C34 H76 0.929 . S
C35 C32 1.356 . S
C35 C37 1.358 . S
C35 H77 0.930 . S
C36 N33 1.314 . S
C36 C34 1.353 . S
C36 H78 0.930 . S
C37 N33 1.279 . S
C37 C35 1.358 . S
C37 H79 0.930 . S
C38 C39 1.342 1_455 S
C38 C40 1.359 . S
C38 O63 1.325 . S
C39 C38 1.342 1_655 S
C39 C41 1.353 . S
C39 H80 0.929 . S
C40 C38 1.359 . S
C40 C42 1.358 . S
C40 H81 0.930 . S
C41 C39 1.353 . S
C41 N43 1.314 1_545 S
C41 H82 0.930 1_545 S
C42 C40 1.358 . S
C42 N43 1.279 1_445 S
C42 H83 0.930 . S
N43 C41 1.314 1_565 S
N43 C42 1.279 1_665 S
C44 C46 1.353 . S
C44 N47 1.286 1_455 S
C44 H50 0.930 . S
C45 N47 1.307 . S
C45 C48 1.358 . S
C45 H51 0.930 . S
C46 C44 1.353 . S
C46 C49 1.358 . S
C46 H84 0.929 . S
N47 Li2 1.990 . S
N47 C44 1.286 1_655 S
N47 C45 1.307 . S
C48 C45 1.358 . S
C48 C49 1.346 1_655 S
C48 H85 0.930 . S
C49 C46 1.358 . S
C49 C48 1.346 1_455 S
H50 C44 0.930 . S
H51 C45 0.930 . S
C52 N53 1.314 . S
C52 C54 1.353 . S
C52 H58 0.930 . S
N53 Li3 1.990 . S
N53 C52 1.314 . S
N53 C56 1.279 . S
C54 C52 1.353 . S
C54 C57 1.348 . S
C54 H86 0.929 . S
C55 C56 1.358 . S
C55 C57 1.356 . S
C55 H87 0.930 . S
C56 N53 1.279 . S
C56 C55 1.358 . S
C56 H59 0.930 . S
C57 C54 1.348 . S
C57 C55 1.356 . S
H58 C52 0.930 . S
H59 C56 0.930 . S
O60 Li0 1.956 . S
O60 Li1 1.970 . S
O60 Li2 1.951 1_455 S
O60 C4 1.325 . S
O61 Li0 1.970 1_655 S
O61 Li1 1.946 1_655 S
O61 Li3 1.970 . S
O61 C10 1.324 1_655 S
O62 Li0 1.961 1_655 S
O62 Li2 1.966 . S
O62 Li3 1.970 . S
O62 C32 1.325 . S
O63 Li1 1.961 . S
O63 Li2 1.970 1_455 S
O63 Li3 1.956 1_455 S
O63 C38 1.325 . S
H64 C6 0.929 . S
H65 C7 0.930 . S
H66 C8 0.930 . S
H67 C9 0.930 . S
H68 C11 0.930 . S
H69 C13 0.929 . S
H70 C14 0.930 . S
H71 C15 0.930 . S
H72 C18 0.930 . S
H73 C21 0.929 . S
H74 C26 0.929 . S
H75 C27 0.930 . S
H76 C34 0.929 . S
H77 C35 0.930 . S
H78 C36 0.930 . S
H79 C37 0.930 . S
H80 C39 0.929 . S
H81 C40 0.930 . S
H82 C41 0.930 1_565 S
H83 C42 0.930 . S
H84 C46 0.929 . S
H85 C48 0.930 . S
H86 C54 0.929 . S
H87 C55 0.930 . S
Li88 N105 1.991 . S
Li88 O148 1.985 . S
Li88 O149 1.969 1_455 S
Li88 O150 1.931 1_455 S
Li89 N113 1.990 . S
Li89 O148 1.970 . S
Li89 O149 1.938 1_455 S
Li89 O151 1.987 . S
Li90 N135 1.991 . S
Li90 O148 1.941 1_655 S
Li90 O150 1.975 . S
Li90 O151 1.969 1_655 S
Li91 N141 1.990 . S
Li91 O149 1.978 . S
Li91 O150 1.970 . S
Li91 O151 1.928 1_655 S
C92 C94 1.348 . S
C92 C95 1.356 . S
C92 O148 1.325 . S
N93 C96 1.314 . S
N93 C97 1.279 . S
C94 C92 1.348 . S
C94 C96 1.353 . S
C94 H152 0.929 . S
C95 C92 1.356 . S
C95 C97 1.358 . S
C95 H153 0.930 . S
C96 N93 1.314 . S
C96 C94 1.353 . S
C96 H154 0.930 . S
C97 N93 1.279 . S
C97 C95 1.358 . S
C97 H155 0.930 . S
C98 C101 1.347 . S
C98 C102 1.356 1_455 S
C98 O149 1.324 1_455 S
C99 N100 1.279 1_655 S
C99 C102 1.358 . S
C99 H156 0.930 . S
N100 C99 1.279 1_455 S
N100 C103 1.314 . S
C101 C98 1.347 . S
C101 C103 1.353 . S
C101 H157 0.929 . S
C102 C98 1.356 1_655 S
C102 C99 1.358 . S
C102 H158 0.930 . S
C103 N100 1.314 . S
C103 C101 1.353 . S
C103 H159 0.930 . S
C104 N105 1.314 1_655 S
C104 C109 1.353 . S
C104 H110 0.930 . S
N105 Li88 1.991 . S
N105 C104 1.314 1_455 S
N105 C107 1.279 . S
C106 C107 1.358 . S
C106 C108 1.360 . S
C106 H160 0.930 . S
C107 N105 1.279 . S
C107 C106 1.358 . S
C107 H111 0.930 . S
C108 C106 1.360 . S
C108 C109 1.344 1_455 S
C109 C104 1.353 . S
C109 C108 1.344 1_655 S
C109 H161 0.929 . S
H110 C104 0.930 . S
H111 C107 0.930 . S
C112 N113 1.314 . S
C112 C114 1.353 . S
C112 H118 0.930 . S
N113 Li89 1.990 . S
N113 C112 1.314 . S
N113 C116 1.279 . S
C114 C112 1.353 . S
C114 C117 1.348 . S
C114 H162 0.929 . S
C115 C116 1.358 . S
C115 C117 1.356 . S
C115 H163 0.930 . S
C116 N113 1.279 . S
C116 C115 1.358 . S
C116 H119 0.930 . S
C117 C114 1.348 . S
C117 C115 1.356 . S
H118 C112 0.930 . S
H119 C116 0.930 . S
C120 C122 1.348 . S
C120 C123 1.356 . S
C120 O150 1.325 . S
N121 C124 1.314 . S
N121 C125 1.279 . S
C122 C120 1.348 . S
C122 C124 1.353 . S
C122 H164 0.929 . S
C123 C120 1.356 . S
C123 C125 1.358 . S
C123 H165 0.930 . S
C124 N121 1.314 . S
C124 C122 1.353 . S
C124 H166 0.930 . S
C125 N121 1.279 . S
C125 C123 1.358 . S
C125 H167 0.930 . S
C126 C127 1.346 1_455 S
C126 C128 1.357 . S
C126 O151 1.324 . S
C127 C126 1.346 1_655 S
C127 C129 1.353 . S
C127 H168 0.929 . S
C128 C126 1.357 . S
C128 C130 1.358 . S
C128 H169 0.930 . S
C129 C127 1.353 . S
C129 N131 1.314 . S
C129 H170 0.930 . S
C130 C128 1.358 . S
C130 N131 1.279 1_455 S
C130 H171 0.930 . S
N131 C129 1.314 . S
N131 C130 1.279 1_655 S
C132 C134 1.353 . S
C132 N135 1.314 1_455 S
C132 H138 0.930 . S
C133 N135 1.279 . S
C133 C136 1.358 . S
C133 H139 0.930 . S
C134 C132 1.353 . S
C134 C137 1.348 . S
C134 H172 0.929 . S
N135 Li90 1.991 . S
N135 C132 1.314 1_655 S
N135 C133 1.279 . S
C136 C133 1.358 . S
C136 C137 1.356 1_655 S
C136 H173 0.930 . S
C137 C134 1.348 . S
C137 C136 1.356 1_455 S
H138 C132 0.930 . S
H139 C133 0.930 . S
C140 N141 1.314 . S
C140 C142 1.353 . S
C140 H146 0.930 . S
N141 Li91 1.990 . S
N141 C140 1.314 . S
N141 C144 1.279 . S
C142 C140 1.353 . S
C142 C145 1.348 . S
C142 H174 0.929 . S
C143 C144 1.358 . S
C143 C145 1.356 . S
C143 H175 0.930 . S
C144 N141 1.279 . S
C144 C143 1.358 . S
C144 H147 0.930 . S
C145 C142 1.348 . S
C145 C143 1.356 . S
H146 C140 0.930 . S
H147 C144 0.930 . S
O148 Li88 1.985 . S
O148 Li89 1.970 . S
O148 Li90 1.941 1_455 S
O148 C92 1.325 . S
O149 Li88 1.969 1_655 S
O149 Li89 1.938 1_655 S
O149 Li91 1.978 . S
O149 C98 1.324 1_655 S
O150 Li88 1.931 1_655 S
O150 Li90 1.975 . S
O150 Li91 1.970 . S
O150 C120 1.325 . S
O151 Li89 1.987 . S
O151 Li90 1.969 1_455 S
O151 Li91 1.928 1_455 S
O151 C126 1.324 . S
H152 C94 0.929 . S
H153 C95 0.930 . S
H154 C96 0.930 . S
H155 C97 0.930 . S
H156 C99 0.930 . S
H157 C101 0.929 . S
H158 C102 0.930 . S
H159 C103 0.930 . S
H160 C106 0.930 . S
H161 C109 0.929 . S
H162 C114 0.929 . S
H163 C115 0.930 . S
H164 C122 0.929 . S
H165 C123 0.930 . S
H166 C124 0.930 . S
H167 C125 0.930 . S
H168 C127 0.929 . S
H169 C128 0.930 . S
H170 C129 0.930 . S
H171 C130 0.930 . S
H172 C134 0.929 . S
H173 C136 0.930 . S
H174 C142 0.929 . S
H175 C143 0.930 . S
Li176 N193 1.990 . S
Li176 O236 1.966 . S
Li176 O237 1.970 1_655 S
Li176 O238 1.951 1_655 S
Li177 N201 1.990 . S
Li177 O236 1.970 . S
Li177 O237 1.956 1_655 S
Li177 O239 1.970 . S
Li178 N223 1.990 . S
Li178 O236 1.961 1_455 S
Li178 O238 1.956 . S
Li178 O239 1.970 1_455 S
Li179 N229 1.990 . S
Li179 O237 1.961 . S
Li179 O238 1.970 . S
Li179 O239 1.946 1_455 S
C180 C182 1.348 . S
C180 C183 1.356 . S
C180 O236 1.325 . S
N181 C184 1.314 . S
N181 C185 1.279 . S
C182 C180 1.348 . S
C182 C184 1.353 . S
C182 H240 0.929 . S
C183 C180 1.356 . S
C183 C185 1.358 . S
C183 H241 0.930 . S
C184 N181 1.314 . S
C184 C182 1.353 . S
C184 H242 0.930 . S
C185 N181 1.279 . S
C185 C183 1.358 . S
C185 H243 0.930 . S
C186 C189 1.342 1_455 S
C186 C190 1.359 . S
C186 O237 1.325 . S
C187 N188 1.279 1_465 S
C187 C190 1.358 . S
C187 H244 0.930 . S
N188 C187 1.279 1_645 S
N188 C191 1.314 1_545 S
C189 C186 1.342 1_655 S
C189 C191 1.353 . S
C189 H245 0.929 . S
C190 C186 1.359 . S
C190 C187 1.358 . S
C190 H246 0.930 . S
C191 N188 1.314 1_565 S
C191 C189 1.353 . S
C191 H247 0.930 1_565 S
C192 N193 1.286 1_455 S
C192 C197 1.353 . S
C192 H198 0.930 . S
N193 Li176 1.990 . S
N193 C192 1.286 1_655 S
N193 C195 1.307 . S
C194 C195 1.358 . S
C194 C196 1.346 1_655 S
C194 H248 0.930 . S
C195 N193 1.307 . S
C195 C194 1.358 . S
C195 H199 0.930 . S
C196 C194 1.346 1_455 S
C196 C197 1.358 . S
C197 C192 1.353 . S
C197 C196 1.358 . S
C197 H249 0.929 . S
H198 C192 0.930 . S
H199 C195 0.930 . S
C200 N201 1.314 . S
C200 C202 1.353 . S
C200 H206 0.930 . S
N201 Li177 1.990 . S
N201 C200 1.314 . S
N201 C204 1.279 . S
C202 C200 1.353 . S
C202 C205 1.348 . S
C202 H250 0.929 . S
C203 C204 1.358 . S
C203 C205 1.356 . S
C203 H251 0.930 . S
C204 N201 1.279 . S
C204 C203 1.358 . S
C204 H207 0.930 . S
C205 C202 1.348 . S
C205 C203 1.356 . S
H206 C200 0.930 . S
H207 C204 0.930 . S
C208 C210 1.348 . S
C208 C211 1.356 . S
C208 O238 1.325 . S
N209 C212 1.314 . S
N209 C213 1.279 . S
C210 C208 1.348 . S
C210 C212 1.353 . S
C210 H252 0.929 . S
C211 C208 1.356 . S
C211 C213 1.358 . S
C211 H253 0.930 . S
C212 N209 1.314 . S
C212 C210 1.353 . S
C212 H254 0.930 . S
C213 N209 1.279 . S
C213 C211 1.358 . S
C213 H255 0.930 . S
C214 C215 1.351 . S
C214 C216 1.354 1_455 S
C214 O239 1.324 1_455 S
C215 C214 1.351 . S
C215 C217 1.353 . S
C215 H256 0.929 . S
C216 C214 1.354 1_655 S
C216 C218 1.358 . S
C216 H257 0.930 . S
C217 C215 1.353 . S
C217 N219 1.314 . S
C217 H258 0.930 . S
C218 C216 1.358 . S
C218 N219 1.279 1_655 S
C218 H259 0.930 . S
N219 C217 1.314 . S
N219 C218 1.279 1_455 S
C220 C222 1.353 . S
C220 N223 1.314 1_655 S
C220 H226 0.930 . S
C221 N223 1.279 . S
C221 C224 1.358 . S
C221 H227 0.930 . S
C222 C220 1.353 . S
C222 C225 1.334 1_655 S
C222 H260 0.929 . S
N223 Li178 1.990 . S
N223 C220 1.314 1_455 S
N223 C221 1.279 . S
C224 C221 1.358 . S
C224 C225 1.370 . S
C224 H261 0.930 . S
C225 C222 1.334 1_455 S
C225 C224 1.370 . S
H226 C220 0.930 . S
H227 C221 0.930 . S
C228 N229 1.314 . S
C228 C230 1.353 . S
C228 H234 0.930 . S
N229 Li179 1.990 . S
N229 C228 1.314 . S
N229 C232 1.279 . S
C230 C228 1.353 . S
C230 C233 1.348 . S
C230 H262 0.929 . S
C231 C232 1.358 . S
C231 C233 1.356 . S
C231 H263 0.930 . S
C232 N229 1.279 . S
C232 C231 1.358 . S
C232 H235 0.930 . S
C233 C230 1.348 . S
C233 C231 1.356 . S
H234 C228 0.930 . S
H235 C232 0.930 . S
O236 Li176 1.966 . S
O236 Li177 1.970 . S
O236 Li178 1.961 1_655 S
O236 C180 1.325 . S
O237 Li176 1.970 1_455 S
O237 Li177 1.956 1_455 S
O237 Li179 1.961 . S
O237 C186 1.325 . S
O238 Li176 1.951 1_455 S
O238 Li178 1.956 . S
O238 Li179 1.970 . S
O238 C208 1.325 . S
O239 Li177 1.970 . S
O239 Li178 1.970 1_655 S
O239 Li179 1.946 1_655 S
O239 C214 1.324 1_655 S
H240 C182 0.929 . S
H241 C183 0.930 . S
H242 C184 0.930 . S
H243 C185 0.930 . S
H244 C187 0.930 . S
H245 C189 0.929 . S
H246 C190 0.930 . S
H247 C191 0.930 1_545 S
H248 C194 0.930 . S
H249 C197 0.929 . S
H250 C202 0.929 . S
H251 C203 0.930 . S
H252 C210 0.929 . S
H253 C211 0.930 . S
H254 C212 0.930 . S
H255 C213 0.930 . S
H256 C215 0.929 . S
H257 C216 0.930 . S
H258 C217 0.930 . S
H259 C218 0.930 . S
H260 C222 0.929 . S
H261 C224 0.930 . S
H262 C230 0.929 . S
H263 C231 0.930 . S
Li264 N281 1.990 . S
Li264 O324 1.928 1_655 S
Li264 O325 1.970 . S
Li264 O326 1.978 . S
Li265 N289 1.991 . S
Li265 O324 1.969 1_655 S
Li265 O325 1.975 . S
Li265 O327 1.941 1_655 S
Li266 N311 1.990 . S
Li266 O324 1.987 . S
Li266 O326 1.938 1_455 S
Li266 O327 1.970 . S
Li267 N317 1.991 . S
Li267 O325 1.931 1_455 S
Li267 O326 1.969 1_455 S
Li267 O327 1.985 . S
C268 C270 1.346 1_455 S
C268 C271 1.357 . S
C268 O324 1.324 . S
N269 C272 1.314 . S
N269 C273 1.279 1_655 S
C270 C268 1.346 1_655 S
C270 C272 1.353 . S
C270 H328 0.929 . S
C271 C268 1.357 . S
C271 C273 1.358 . S
C271 H329 0.930 . S
C272 N269 1.314 . S
C272 C270 1.353 . S
C272 H330 0.930 . S
C273 N269 1.279 1_455 S
C273 C271 1.358 . S
C273 H331 0.930 . S
C274 C277 1.348 . S
C274 C278 1.356 . S
C274 O325 1.325 . S
C275 N276 1.279 . S
C275 C278 1.358 . S
C275 H332 0.930 . S
N276 C275 1.279 . S
N276 C279 1.314 . S
C277 C274 1.348 . S
C277 C279 1.353 . S
C277 H333 0.929 . S
C278 C274 1.356 . S
C278 C275 1.358 . S
C278 H334 0.930 . S
C279 N276 1.314 . S
C279 C277 1.353 . S
C279 H335 0.930 . S
C280 N281 1.314 . S
C280 C285 1.353 . S
C280 H286 0.930 . S
N281 Li264 1.990 . S
N281 C280 1.314 . S
N281 C283 1.279 . S
C282 C283 1.358 . S
C282 C284 1.356 . S
C282 H336 0.930 . S
C283 N281 1.279 . S
C283 C282 1.358 . S
C283 H287 0.930 . S
C284 C282 1.356 . S
C284 C285 1.348 . S
C285 C280 1.353 . S
C285 C284 1.348 . S
C285 H337 0.929 . S
H286 C280 0.930 . S
H287 C283 0.930 . S
C288 N289 1.314 1_455 S
C288 C290 1.353 . S
C288 H294 0.930 . S
N289 Li265 1.991 . S
N289 C288 1.314 1_655 S
N289 C292 1.279 . S
C290 C288 1.353 . S
C290 C293 1.348 . S
C290 H338 0.929 . S
C291 C292 1.358 . S
C291 C293 1.356 1_655 S
C291 H339 0.930 . S
C292 N289 1.279 . S
C292 C291 1.358 . S
C292 H295 0.930 . S
C293 C290 1.348 . S
C293 C291 1.356 1_455 S
H294 C288 0.930 . S
H295 C292 0.930 . S
C296 C298 1.347 . S
C296 C299 1.356 1_455 S
C296 O326 1.324 1_455 S
N297 C300 1.314 . S
N297 C301 1.279 1_455 S
C298 C296 1.347 . S
C298 C300 1.353 . S
C298 H340 0.929 . S
C299 C296 1.356 1_655 S
C299 C301 1.358 . S
C299 H341 0.930 . S
C300 N297 1.314 . S
C300 C298 1.353 . S
C300 H342 0.930 . S
C301 N297 1.279 1_655 S
C301 C299 1.358 . S
C301 H343 0.930 . S
C302 C303 1.348 . S
C302 C304 1.356 . S
C302 O327 1.325 . S
C303 C302 1.348 . S
C303 C305 1.353 . S
C303 H344 0.929 . S
C304 C302 1.356 . S
C304 C306 1.358 . S
C304 H345 0.930 . S
C305 C303 1.353 . S
C305 N307 1.314 . S
C305 H346 0.930 . S
C306 C304 1.358 . S
C306 N307 1.279 . S
C306 H347 0.930 . S
N307 C305 1.314 . S
N307 C306 1.279 . S
C308 C310 1.353 . S
C308 N311 1.314 . S
C308 H314 0.930 . S
C309 N311 1.279 . S
C309 C312 1.358 . S
C309 H315 0.930 . S
C310 C308 1.353 . S
C310 C313 1.348 . S
C310 H348 0.929 . S
N311 Li266 1.990 . S
N311 C308 1.314 . S
N311 C309 1.279 . S
C312 C309 1.358 . S
C312 C313 1.356 . S
C312 H349 0.930 . S
C313 C310 1.348 . S
C313 C312 1.356 . S
H314 C308 0.930 . S
H315 C309 0.930 . S
C316 N317 1.314 1_655 S
C316 C318 1.353 . S
C316 H322 0.930 . S
N317 Li267 1.991 . S
N317 C316 1.314 1_455 S
N317 C320 1.279 . S
C318 C316 1.353 . S
C318 C321 1.344 1_655 S
C318 H350 0.929 . S
C319 C320 1.358 . S
C319 C321 1.360 . S
C319 H351 0.930 . S
C320 N317 1.279 . S
C320 C319 1.358 . S
C320 H323 0.930 . S
C321 C318 1.344 1_455 S
C321 C319 1.360 . S
H322 C316 0.930 . S
H323 C320 0.930 . S
O324 Li264 1.928 1_455 S
O324 Li265 1.969 1_455 S
O324 Li266 1.987 . S
O324 C268 1.324 . S
O325 Li264 1.970 . S
O325 Li265 1.975 . S
O325 Li267 1.931 1_655 S
O325 C274 1.325 . S
O326 Li264 1.978 . S
O326 Li266 1.938 1_655 S
O326 Li267 1.969 1_655 S
O326 C296 1.324 1_655 S
O327 Li265 1.941 1_455 S
O327 Li266 1.970 . S
O327 Li267 1.985 . S
O327 C302 1.325 . S
H328 C270 0.929 . S
H329 C271 0.930 . S
H330 C272 0.930 . S
H331 C273 0.930 . S
H332 C275 0.930 . S
H333 C277 0.929 . S
H334 C278 0.930 . S
H335 C279 0.930 . S
H336 C282 0.930 . S
H337 C285 0.929 . S
H338 C290 0.929 . S
H339 C291 0.930 . S
H340 C298 0.929 . S
H341 C299 0.930 . S
H342 C300 0.930 . S
H343 C301 0.930 . S
H344 C303 0.929 . S
H345 C304 0.930 . S
H346 C305 0.930 . S
H347 C306 0.930 . S
H348 C310 0.929 . S
H349 C312 0.930 . S
H350 C318 0.929 . S
H351 C319 0.930 . S
Li352 N369 1.990 . S
Li352 O412 1.956 . S
Li352 O413 1.970 . S
Li352 O414 1.961 . S
Li353 N377 1.990 . S
Li353 O412 1.970 . S
Li353 O413 1.956 . S
Li353 O415 1.961 . S
Li354 N399 1.990 . S
Li354 O412 1.961 . S
Li354 O414 1.956 . S
Li354 O415 1.970 . S
Li355 N405 1.990 . S
Li355 O413 1.961 . S
Li355 O414 1.970 . S
Li355 O415 1.956 . S
C356 C358 1.348 . S
C356 C359 1.356 . S
C356 O412 1.325 . S
N357 C360 1.314 . S
N357 C361 1.279 . S
C358 C356 1.348 . S
C358 C360 1.353 . S
C358 H416 0.929 . S
C359 C356 1.356 . S
C359 C361 1.358 . S
C359 H417 0.930 . S
C360 N357 1.314 . S
C360 C358 1.353 . S
C360 H418 0.930 . S
C361 N357 1.279 . S
C361 C359 1.358 . S
C361 H419 0.930 . S
C362 C365 1.348 . S
C362 C366 1.356 . S
C362 O413 1.325 . S
C363 N364 1.279 . S
C363 C366 1.358 . S
C363 H420 0.930 . S
N364 C363 1.279 . S
N364 C367 1.314 . S
C365 C362 1.348 . S
C365 C367 1.353 . S
C365 H421 0.929 . S
C366 C362 1.356 . S
C366 C363 1.358 . S
C366 H422 0.930 . S
C367 N364 1.314 . S
C367 C365 1.353 . S
C367 H423 0.930 . S
C368 N369 1.314 . S
C368 C373 1.353 . S
C368 H374 0.930 . S
N369 Li352 1.990 . S
N369 C368 1.314 . S
N369 C371 1.279 . S
C370 C371 1.358 . S
C370 C372 1.356 . S
C370 H424 0.930 . S
C371 N369 1.279 . S
C371 C370 1.358 . S
C371 H375 0.930 . S
C372 C370 1.356 . S
C372 C373 1.348 . S
C373 C368 1.353 . S
C373 C372 1.348 . S
C373 H425 0.929 . S
H374 C368 0.930 . S
H375 C371 0.930 . S
C376 N377 1.314 . S
C376 C378 1.353 . S
C376 H382 0.930 . S
N377 Li353 1.990 . S
N377 C376 1.314 . S
N377 C380 1.279 . S
C378 C376 1.353 . S
C378 C381 1.348 . S
C378 H426 0.929 . S
C379 C380 1.358 . S
C379 C381 1.356 . S
C379 H427 0.930 . S
C380 N377 1.279 . S
C380 C379 1.358 . S
C380 H383 0.930 . S
C381 C378 1.348 . S
C381 C379 1.356 . S
H382 C376 0.930 . S
H383 C380 0.930 . S
C384 C386 1.348 . S
C384 C387 1.356 . S
C384 O414 1.325 . S
N385 C388 1.314 . S
N385 C389 1.279 . S
C386 C384 1.348 . S
C386 C388 1.353 . S
C386 H428 0.929 . S
C387 C384 1.356 . S
C387 C389 1.358 . S
C387 H429 0.930 . S
C388 N385 1.314 . S
C388 C386 1.353 . S
C388 H430 0.930 . S
C389 N385 1.279 . S
C389 C387 1.358 . S
C389 H431 0.930 . S
C390 C391 1.348 . S
C390 C392 1.356 . S
C390 O415 1.325 . S
C391 C390 1.348 . S
C391 C393 1.353 . S
C391 H432 0.929 . S
C392 C390 1.356 . S
C392 C394 1.358 . S
C392 H433 0.930 . S
C393 C391 1.353 . S
C393 N395 1.314 . S
C393 H434 0.930 . S
C394 C392 1.358 . S
C394 N395 1.279 . S
C394 H435 0.930 . S
N395 C393 1.314 . S
N395 C394 1.279 . S
C396 C398 1.353 . S
C396 N399 1.314 . S
C396 H402 0.930 . S
C397 N399 1.279 . S
C397 C400 1.358 . S
C397 H403 0.930 . S
C398 C396 1.353 . S
C398 C401 1.348 . S
C398 H436 0.929 . S
N399 Li354 1.990 . S
N399 C396 1.314 . S
N399 C397 1.279 . S
C400 C397 1.358 . S
C400 C401 1.356 . S
C400 H437 0.930 . S
C401 C398 1.348 . S
C401 C400 1.356 . S
H402 C396 0.930 . S
H403 C397 0.930 . S
C404 N405 1.314 . S
C404 C406 1.353 . S
C404 H410 0.930 . S
N405 Li355 1.990 . S
N405 C404 1.314 . S
N405 C408 1.279 . S
C406 C404 1.353 . S
C406 C409 1.348 . S
C406 H438 0.929 . S
C407 C408 1.358 . S
C407 C409 1.356 . S
C407 H439 0.930 . S
C408 N405 1.279 . S
C408 C407 1.358 . S
C408 H411 0.930 . S
C409 C406 1.348 . S
C409 C407 1.356 . S
H410 C404 0.930 . S
H411 C408 0.930 . S
O412 Li352 1.956 . S
O412 Li353 1.970 . S
O412 Li354 1.961 . S
O412 C356 1.325 . S
O413 Li352 1.970 . S
O413 Li353 1.956 . S
O413 Li355 1.961 . S
O413 C362 1.325 . S
O414 Li352 1.961 . S
O414 Li354 1.956 . S
O414 Li355 1.970 . S
O414 C384 1.325 . S
O415 Li353 1.961 . S
O415 Li354 1.970 . S
O415 Li355 1.956 . S
O415 C390 1.325 . S
H416 C358 0.929 . S
H417 C359 0.930 . S
H418 C360 0.930 . S
H419 C361 0.930 . S
H420 C363 0.930 . S
H421 C365 0.929 . S
H422 C366 0.930 . S
H423 C367 0.930 . S
H424 C370 0.930 . S
H425 C373 0.929 . S
H426 C378 0.929 . S
H427 C379 0.930 . S
H428 C386 0.929 . S
H429 C387 0.930 . S
H430 C388 0.930 . S
H431 C389 0.930 . S
H432 C391 0.929 . S
H433 C392 0.930 . S
H434 C393 0.930 . S
H435 C394 0.930 . S
H436 C398 0.929 . S
H437 C400 0.930 . S
H438 C406 0.929 . S
H439 C407 0.930 . S
Li440 N457 1.990 . S
Li440 O500 1.956 . S
Li440 O501 1.970 . S
Li440 O502 1.961 . S
Li441 N465 1.990 . S
Li441 O500 1.970 . S
Li441 O501 1.956 . S
Li441 O503 1.961 . S
Li442 N487 1.990 . S
Li442 O500 1.961 . S
Li442 O502 1.956 . S
Li442 O503 1.970 . S
Li443 N493 1.990 . S
Li443 O501 1.961 . S
Li443 O502 1.970 . S
Li443 O503 1.956 . S
C444 C446 1.348 . S
C444 C447 1.356 . S
C444 O500 1.325 . S
N445 C448 1.314 . S
N445 C449 1.279 . S
C446 C444 1.348 . S
C446 C448 1.353 . S
C446 H504 0.929 . S
C447 C444 1.356 . S
C447 C449 1.358 . S
C447 H505 0.930 . S
C448 N445 1.314 . S
C448 C446 1.353 . S
C448 H506 0.930 . S
C449 N445 1.279 . S
C449 C447 1.358 . S
C449 H507 0.930 . S
C450 C453 1.348 . S
C450 C454 1.356 . S
C450 O501 1.325 . S
C451 N452 1.279 1_565 S
C451 C454 1.358 . S
C451 H508 0.930 . S
N452 C451 1.279 1_545 S
N452 C455 1.314 1_545 S
C453 C450 1.348 . S
C453 C455 1.353 . S
C453 H509 0.929 . S
C454 C450 1.356 . S
C454 C451 1.358 . S
C454 H510 0.930 . S
C455 N452 1.314 1_565 S
C455 C453 1.353 . S
C455 H511 0.930 1_565 S
C456 N457 1.314 . S
C456 C461 1.353 . S
C456 H462 0.930 . S
N457 Li440 1.990 . S
N457 C456 1.314 . S
N457 C459 1.279 . S
C458 C459 1.358 . S
C458 C460 1.356 . S
C458 H512 0.930 . S
C459 N457 1.279 . S
C459 C458 1.358 . S
C459 H463 0.930 . S
C460 C458 1.356 . S
C460 C461 1.348 . S
C461 C456 1.353 . S
C461 C460 1.348 . S
C461 H513 0.929 . S
H462 C456 0.930 . S
H463 C459 0.930 . S
C464 N465 1.314 . S
C464 C466 1.353 . S
C464 H470 0.930 . S
N465 Li441 1.990 . S
N465 C464 1.314 . S
N465 C468 1.279 . S
C466 C464 1.353 . S
C466 C469 1.348 . S
C466 H514 0.929 . S
C467 C468 1.358 . S
C467 C469 1.356 . S
C467 H515 0.930 . S
C468 N465 1.279 . S
C468 C467 1.358 . S
C468 H471 0.930 . S
C469 C466 1.348 . S
C469 C467 1.356 . S
H470 C464 0.930 . S
H471 C468 0.930 . S
C472 C474 1.348 . S
C472 C475 1.356 . S
C472 O502 1.325 . S
N473 C476 1.314 . S
N473 C477 1.279 . S
C474 C472 1.348 . S
C474 C476 1.353 . S
C474 H516 0.929 . S
C475 C472 1.356 . S
C475 C477 1.358 . S
C475 H517 0.930 . S
C476 N473 1.314 . S
C476 C474 1.353 . S
C476 H518 0.930 . S
C477 N473 1.279 . S
C477 C475 1.358 . S
C477 H519 0.930 . S
C478 C479 1.348 . S
C478 C480 1.356 . S
C478 O503 1.325 . S
C479 C478 1.348 . S
C479 C481 1.353 . S
C479 H520 0.929 . S
C480 C478 1.356 . S
C480 C482 1.358 . S
C480 H521 0.930 . S
C481 C479 1.353 . S
C481 N483 1.314 . S
C481 H522 0.930 . S
C482 C480 1.358 . S
C482 N483 1.279 . S
C482 H523 0.930 . S
N483 C481 1.314 . S
N483 C482 1.279 . S
C484 C486 1.353 . S
C484 N487 1.314 . S
C484 H490 0.930 . S
C485 N487 1.279 . S
C485 C488 1.358 . S
C485 H491 0.930 . S
C486 C484 1.353 . S
C486 C489 1.348 . S
C486 H524 0.929 . S
N487 Li442 1.990 . S
N487 C484 1.314 . S
N487 C485 1.279 . S
C488 C485 1.358 . S
C488 C489 1.356 . S
C488 H525 0.930 . S
C489 C486 1.348 . S
C489 C488 1.356 . S
H490 C484 0.930 . S
H491 C485 0.930 . S
C492 N493 1.314 . S
C492 C494 1.353 . S
C492 H498 0.930 . S
N493 Li443 1.990 . S
N493 C492 1.314 . S
N493 C496 1.279 . S
C494 C492 1.353 . S
C494 C497 1.348 . S
C494 H526 0.929 . S
C495 C496 1.358 . S
C495 C497 1.356 . S
C495 H527 0.930 . S
C496 N493 1.279 . S
C496 C495 1.358 . S
C496 H499 0.930 . S
C497 C494 1.348 . S
C497 C495 1.356 . S
H498 C492 0.930 . S
H499 C496 0.930 . S
O500 Li440 1.956 . S
O500 Li441 1.970 . S
O500 Li442 1.961 . S
O500 C444 1.325 . S
O501 Li440 1.970 . S
O501 Li441 1.956 . S
O501 Li443 1.961 . S
O501 C450 1.325 . S
O502 Li440 1.961 . S
O502 Li442 1.956 . S
O502 Li443 1.970 . S
O502 C472 1.325 . S
O503 Li441 1.961 . S
O503 Li442 1.970 . S
O503 Li443 1.956 . S
O503 C478 1.325 . S
H504 C446 0.929 . S
H505 C447 0.930 . S
H506 C448 0.930 . S
H507 C449 0.930 . S
H508 C451 0.930 . S
H509 C453 0.929 . S
H510 C454 0.930 . S
H511 C455 0.930 1_545 S
H512 C458 0.930 . S
H513 C461 0.929 . S
H514 C466 0.929 . S
H515 C467 0.930 . S
H516 C474 0.929 . S
H517 C475 0.930 . S
H518 C476 0.930 . S
H519 C477 0.930 . S
H520 C479 0.929 . S
H521 C480 0.930 . S
H522 C481 0.930 . S
H523 C482 0.930 . S
H524 C486 0.929 . S
H525 C488 0.930 . S
H526 C494 0.929 . S
H527 C495 0.930 . S
Li528 N545 1.990 . S
Li528 O588 1.956 . S
Li528 O589 1.970 . S
Li528 O590 1.961 . S
Li529 N553 1.990 . S
Li529 O588 1.970 . S
Li529 O589 1.956 . S
Li529 O591 1.961 . S
Li530 N575 1.990 . S
Li530 O588 1.961 . S
Li530 O590 1.956 . S
Li530 O591 1.970 . S
Li531 N581 1.990 . S
Li531 O589 1.961 . S
Li531 O590 1.970 . S
Li531 O591 1.956 . S
C532 C534 1.348 . S
C532 C535 1.356 . S
C532 O588 1.325 . S
N533 C536 1.314 . S
N533 C537 1.279 . S
C534 C532 1.348 . S
C534 C536 1.353 . S
C534 H592 0.929 . S
C535 C532 1.356 . S
C535 C537 1.358 . S
C535 H593 0.930 . S
C536 N533 1.314 . S
C536 C534 1.353 . S
C536 H594 0.930 . S
C537 N533 1.279 . S
C537 C535 1.358 . S
C537 H595 0.930 . S
C538 C541 1.348 . S
C538 C542 1.356 . S
C538 O589 1.325 . S
C539 N540 1.279 . S
C539 C542 1.358 . S
C539 H596 0.930 . S
N540 C539 1.279 . S
N540 C543 1.314 . S
C541 C538 1.348 . S
C541 C543 1.353 . S
C541 H597 0.929 . S
C542 C538 1.356 . S
C542 C539 1.358 . S
C542 H598 0.930 . S
C543 N540 1.314 . S
C543 C541 1.353 . S
C543 H599 0.930 . S
C544 N545 1.314 . S
C544 C549 1.353 . S
C544 H550 0.930 . S
N545 Li528 1.990 . S
N545 C544 1.314 . S
N545 C547 1.279 . S
C546 C547 1.358 . S
C546 C548 1.356 . S
C546 H600 0.930 . S
C547 N545 1.279 . S
C547 C546 1.358 . S
C547 H551 0.930 . S
C548 C546 1.356 . S
C548 C549 1.348 . S
C549 C544 1.353 . S
C549 C548 1.348 . S
C549 H601 0.929 . S
H550 C544 0.930 . S
H551 C547 0.930 . S
C552 N553 1.314 . S
C552 C554 1.353 . S
C552 H558 0.930 . S
N553 Li529 1.990 . S
N553 C552 1.314 . S
N553 C556 1.279 . S
C554 C552 1.353 . S
C554 C557 1.348 . S
C554 H602 0.929 . S
C555 C556 1.358 . S
C555 C557 1.356 . S
C555 H603 0.930 . S
C556 N553 1.279 . S
C556 C555 1.358 . S
C556 H559 0.930 . S
C557 C554 1.348 . S
C557 C555 1.356 . S
H558 C552 0.930 . S
H559 C556 0.930 . S
C560 C562 1.348 . S
C560 C563 1.356 . S
C560 O590 1.325 . S
N561 C564 1.314 . S
N561 C565 1.279 . S
C562 C560 1.348 . S
C562 C564 1.353 . S
C562 H604 0.929 . S
C563 C560 1.356 . S
C563 C565 1.358 . S
C563 H605 0.930 . S
C564 N561 1.314 . S
C564 C562 1.353 . S
C564 H606 0.930 . S
C565 N561 1.279 . S
C565 C563 1.358 . S
C565 H607 0.930 . S
C566 C567 1.348 . S
C566 C568 1.356 . S
C566 O591 1.325 . S
C567 C566 1.348 . S
C567 C569 1.353 . S
C567 H608 0.929 . S
C568 C566 1.356 . S
C568 C570 1.358 . S
C568 H609 0.930 . S
C569 C567 1.353 . S
C569 N571 1.314 . S
C569 H610 0.930 . S
C570 C568 1.358 . S
C570 N571 1.279 . S
C570 H611 0.930 . S
N571 C569 1.314 . S
N571 C570 1.279 . S
C572 C574 1.353 . S
C572 N575 1.314 . S
C572 H578 0.930 . S
C573 N575 1.279 . S
C573 C576 1.358 . S
C573 H579 0.930 . S
C574 C572 1.353 . S
C574 C577 1.348 . S
C574 H612 0.929 . S
N575 Li530 1.990 . S
N575 C572 1.314 . S
N575 C573 1.279 . S
C576 C573 1.358 . S
C576 C577 1.356 . S
C576 H613 0.930 . S
C577 C574 1.348 . S
C577 C576 1.356 . S
H578 C572 0.930 . S
H579 C573 0.930 . S
C580 N581 1.314 . S
C580 C582 1.353 . S
C580 H586 0.930 . S
N581 Li531 1.990 . S
N581 C580 1.314 . S
N581 C584 1.279 . S
C582 C580 1.353 . S
C582 C585 1.348 . S
C582 H614 0.929 . S
C583 C584 1.358 . S
C583 C585 1.356 . S
C583 H615 0.930 . S
C584 N581 1.279 . S
C584 C583 1.358 . S
C584 H587 0.930 . S
C585 C582 1.348 . S
C585 C583 1.356 . S
H586 C580 0.930 . S
H587 C584 0.930 . S
O588 Li528 1.956 . S
O588 Li529 1.970 . S
O588 Li530 1.961 . S
O588 C532 1.325 . S
O589 Li528 1.970 . S
O589 Li529 1.956 . S
O589 Li531 1.961 . S
O589 C538 1.325 . S
O590 Li528 1.961 . S
O590 Li530 1.956 . S
O590 Li531 1.970 . S
O590 C560 1.325 . S
O591 Li529 1.961 . S
O591 Li530 1.970 . S
O591 Li531 1.956 . S
O591 C566 1.325 . S
H592 C534 0.929 . S
H593 C535 0.930 . S
H594 C536 0.930 . S
H595 C537 0.930 . S
H596 C539 0.930 . S
H597 C541 0.929 . S
H598 C542 0.930 . S
H599 C543 0.930 . S
H600 C546 0.930 . S
H601 C549 0.929 . S
H602 C554 0.929 . S
H603 C555 0.930 . S
H604 C562 0.929 . S
H605 C563 0.930 . S
H606 C564 0.930 . S
H607 C565 0.930 . S
H608 C567 0.929 . S
H609 C568 0.930 . S
H610 C569 0.930 . S
H611 C570 0.930 . S
H612 C574 0.929 . S
H613 C576 0.930 . S
H614 C582 0.929 . S
H615 C583 0.930 . S
Li616 N633 1.990 . S
Li616 O676 1.956 . S
Li616 O677 1.970 . S
Li616 O678 1.961 . S
Li617 N641 1.990 . S
Li617 O676 1.970 . S
Li617 O677 1.956 . S
Li617 O679 1.961 . S
Li618 N663 1.990 . S
Li618 O676 1.961 . S
Li618 O678 1.956 . S
Li618 O679 1.970 . S
Li619 N669 1.990 . S
Li619 O677 1.961 . S
Li619 O678 1.970 . S
Li619 O679 1.956 . S
C620 C622 1.348 . S
C620 C623 1.356 . S
C620 O676 1.325 . S
N621 C624 1.314 . S
N621 C625 1.279 . S
C622 C620 1.348 . S
C622 C624 1.353 . S
C622 H680 0.929 . S
C623 C620 1.356 . S
C623 C625 1.358 . S
C623 H681 0.930 . S
C624 N621 1.314 . S
C624 C622 1.353 . S
C624 H682 0.930 . S
C625 N621 1.279 . S
C625 C623 1.358 . S
C625 H683 0.930 . S
C626 C629 1.348 . S
C626 C630 1.356 . S
C626 O677 1.325 . S
C627 N628 1.279 . S
C627 C630 1.358 . S
C627 H684 0.930 . S
N628 C627 1.279 . S
N628 C631 1.314 . S
C629 C626 1.348 . S
C629 C631 1.353 . S
C629 H685 0.929 . S
C630 C626 1.356 . S
C630 C627 1.358 . S
C630 H686 0.930 . S
C631 N628 1.314 . S
C631 C629 1.353 . S
C631 H687 0.930 . S
C632 N633 1.314 . S
C632 C637 1.353 . S
C632 H638 0.930 . S
N633 Li616 1.990 . S
N633 C632 1.314 . S
N633 C635 1.279 . S
C634 C635 1.358 . S
C634 C636 1.356 . S
C634 H688 0.930 . S
C635 N633 1.279 . S
C635 C634 1.358 . S
C635 H639 0.930 . S
C636 C634 1.356 . S
C636 C637 1.348 . S
C637 C632 1.353 . S
C637 C636 1.348 . S
C637 H689 0.929 . S
H638 C632 0.930 . S
H639 C635 0.930 . S
C640 N641 1.314 . S
C640 C642 1.353 . S
C640 H646 0.930 . S
N641 Li617 1.990 . S
N641 C640 1.314 . S
N641 C644 1.279 . S
C642 C640 1.353 . S
C642 C645 1.348 . S
C642 H690 0.929 . S
C643 C644 1.358 . S
C643 C645 1.356 . S
C643 H691 0.930 . S
C644 N641 1.279 . S
C644 C643 1.358 . S
C644 H647 0.930 . S
C645 C642 1.348 . S
C645 C643 1.356 . S
H646 C640 0.930 . S
H647 C644 0.930 . S
C648 C650 1.348 . S
C648 C651 1.356 . S
C648 O678 1.325 . S
N649 C652 1.314 . S
N649 C653 1.279 . S
C650 C648 1.348 . S
C650 C652 1.353 . S
C650 H692 0.929 . S
C651 C648 1.356 . S
C651 C653 1.358 . S
C651 H693 0.930 . S
C652 N649 1.314 . S
C652 C650 1.353 . S
C652 H694 0.930 . S
C653 N649 1.279 . S
C653 C651 1.358 . S
C653 H695 0.930 . S
C654 C655 1.348 . S
C654 C656 1.356 . S
C654 O679 1.325 . S
C655 C654 1.348 . S
C655 C657 1.353 . S
C655 H696 0.929 . S
C656 C654 1.356 . S
C656 C658 1.358 . S
C656 H697 0.930 . S
C657 C655 1.353 . S
C657 N659 1.314 1_545 S
C657 H698 0.930 1_545 S
C658 C656 1.358 . S
C658 N659 1.279 1_545 S
C658 H699 0.930 . S
N659 C657 1.314 1_565 S
N659 C658 1.279 1_565 S
C660 C662 1.353 . S
C660 N663 1.314 . S
C660 H666 0.930 . S
C661 N663 1.279 . S
C661 C664 1.358 . S
C661 H667 0.930 . S
C662 C660 1.353 . S
C662 C665 1.348 . S
C662 H700 0.929 . S
N663 Li618 1.990 . S
N663 C660 1.314 . S
N663 C661 1.279 . S
C664 C661 1.358 . S
C664 C665 1.356 . S
C664 H701 0.930 . S
C665 C662 1.348 . S
C665 C664 1.356 . S
H666 C660 0.930 . S
H667 C661 0.930 . S
C668 N669 1.314 . S
C668 C670 1.353 . S
C668 H674 0.930 . S
N669 Li619 1.990 . S
N669 C668 1.314 . S
N669 C672 1.279 . S
C670 C668 1.353 . S
C670 C673 1.348 . S
C670 H702 0.929 . S
C671 C672 1.358 . S
C671 C673 1.356 . S
C671 H703 0.930 . S
C672 N669 1.279 . S
C672 C671 1.358 . S
C672 H675 0.930 . S
C673 C670 1.348 . S
C673 C671 1.356 . S
H674 C668 0.930 . S
H675 C672 0.930 . S
O676 Li616 1.956 . S
O676 Li617 1.970 . S
O676 Li618 1.961 . S
O676 C620 1.325 . S
O677 Li616 1.970 . S
O677 Li617 1.956 . S
O677 Li619 1.961 . S
O677 C626 1.325 . S
O678 Li616 1.961 . S
O678 Li618 1.956 . S
O678 Li619 1.970 . S
O678 C648 1.325 . S
O679 Li617 1.961 . S
O679 Li618 1.970 . S
O679 Li619 1.956 . S
O679 C654 1.325 . S
H680 C622 0.929 . S
H681 C623 0.930 . S
H682 C624 0.930 . S
H683 C625 0.930 . S
H684 C627 0.930 . S
H685 C629 0.929 . S
H686 C630 0.930 . S
H687 C631 0.930 . S
H688 C634 0.930 . S
H689 C637 0.929 . S
H690 C642 0.929 . S
H691 C643 0.930 . S
H692 C650 0.929 . S
H693 C651 0.930 . S
H694 C652 0.930 . S
H695 C653 0.930 . S
H696 C655 0.929 . S
H697 C656 0.930 . S
H698 C657 0.930 1_565 S
H699 C658 0.930 . S
H700 C662 0.929 . S
H701 C664 0.930 . S
H702 C670 0.929 . S
H703 C671 0.930 . S
H704 C722 0.951 . S
H705 C724 0.951 . S
H706 C726 0.950 . S
H707 C727 0.950 . S
H708 C729 0.950 . S
H709 C732 0.950 . S
H710 C733 0.950 . S
H711 C735 0.950 . S
H712 C736 0.950 . S
H713 C737 0.951 . S
H714 C739 0.951 . S
H715 C741 0.950 . S
H716 C742 0.950 . S
H717 C744 0.950 . S
H718 C747 0.950 . S
H719 C748 0.950 . S
H720 C750 0.950 . S
H721 C751 0.950 . S
C722 H704 0.951 . S
C722 C723 1.374 . S
C722 C724 1.388 . S
C723 C722 1.374 . S
C723 C727 1.376 1_455 S
C724 H705 0.951 . S
C724 C722 1.388 . S
C724 C725 1.351 1_455 S
C725 C724 1.351 1_655 S
C725 C726 1.428 . S
C725 C728 1.499 . S
C726 H706 0.950 . S
C726 C725 1.428 . S
C726 C727 1.374 . S
C727 H707 0.950 . S
C727 C723 1.376 1_655 S
C727 C726 1.374 . S
C728 C725 1.499 . S
C728 C729 1.373 . S
C728 C730 1.389 1_655 S
C729 H708 0.950 . S
C729 C728 1.373 . S
C729 C745 1.377 . S
C730 C728 1.389 1_455 S
C730 C731 1.524 . S
C730 C744 1.377 . S
C731 C730 1.524 . S
C731 C732 1.397 1_455 S
C731 C736 1.363 . S
C732 H709 0.950 . S
C732 C731 1.397 1_655 S
C732 C733 1.334 . S
C733 H710 0.950 . S
C733 C732 1.334 . S
C733 C734 1.287 1_655 S
C734 C733 1.287 1_455 S
C734 C735 1.524 . S
C734 H753 0.913 . S
C735 H711 0.950 . S
C735 C734 1.524 . S
C735 C736 1.415 . S
C736 H712 0.950 . S
C736 C731 1.363 . S
C736 C735 1.415 . S
C737 H713 0.951 . S
C737 C738 1.361 1_655 S
C737 C739 1.388 . S
C738 C737 1.361 1_455 S
C738 C742 1.389 . S
C739 H714 0.951 . S
C739 C737 1.388 . S
C739 C740 1.366 1_655 S
C740 C739 1.366 1_455 S
C740 C741 1.414 . S
C740 C743 1.499 . S
C741 H715 0.950 . S
C741 C740 1.414 . S
C741 C742 1.374 . S
C742 H716 0.950 . S
C742 C738 1.389 . S
C742 C741 1.374 . S
C743 C740 1.499 . S
C743 C744 1.373 . S
C743 C745 1.389 1_455 S
C744 H717 0.950 . S
C744 C730 1.377 . S
C744 C743 1.373 . S
C745 C729 1.377 . S
C745 C743 1.389 1_655 S
C745 C746 1.524 . S
C746 C745 1.524 . S
C746 C747 1.397 1_655 S
C746 C751 1.363 . S
C747 H718 0.950 . S
C747 C746 1.397 1_455 S
C747 C748 1.334 . S
C748 H719 0.950 . S
C748 C747 1.334 . S
C748 C749 1.287 1_455 S
C749 C748 1.287 1_655 S
C749 C750 1.524 . S
C749 H752 0.999 . S
C750 H720 0.950 . S
C750 C749 1.524 . S
C750 C751 1.415 . S
C751 H721 0.950 . S
C751 C746 1.363 . S
C751 C750 1.415 . S
H752 C749 0.999 . S
H753 C734 0.913 . S
H754 C772 0.951 . S
H755 C774 0.951 . S
H756 C776 0.950 . S
H757 C777 0.950 . S
H758 C779 0.950 . S
H759 C782 0.950 . S
H760 C783 0.950 . S
H761 C785 0.950 . S
H762 C786 0.950 . S
H763 C787 0.951 . S
H764 C789 0.951 . S
H765 C791 0.950 . S
H766 C792 0.950 . S
H767 C794 0.950 . S
H768 C797 0.950 . S
H769 C798 0.950 . S
H770 C800 0.950 . S
H771 C801 0.950 . S
C772 H754 0.951 . S
C772 C773 1.371 . S
C772 C774 1.388 . S
C773 C772 1.371 . S
C773 C777 1.379 1_455 S
C774 H755 0.951 . S
C774 C772 1.388 . S
C774 C775 1.346 1_455 S
C775 C774 1.346 1_655 S
C775 C776 1.433 . S
C775 C778 1.500 . S
C776 H756 0.950 . S
C776 C775 1.433 . S
C776 C777 1.374 . S
C777 H757 0.950 . S
C777 C773 1.379 1_655 S
C777 C776 1.374 . S
C778 C775 1.500 . S
C778 C779 1.373 . S
C778 C780 1.389 1_655 S
C779 H758 0.950 . S
C779 C778 1.373 . S
C779 C795 1.377 . S
C780 C778 1.389 1_455 S
C780 C781 1.524 . S
C780 C794 1.377 . S
C781 C780 1.524 . S
C781 C782 1.397 1_455 S
C781 C786 1.363 . S
C782 H759 0.950 . S
C782 C781 1.397 1_655 S
C782 C783 1.334 . S
C783 H760 0.950 . S
C783 C782 1.334 . S
C783 C784 1.287 . S
C784 C783 1.287 . S
C784 C785 1.524 1_655 S
C784 H803 0.913 . S
C785 H761 0.950 . S
C785 C784 1.524 1_455 S
C785 C786 1.415 . S
C786 H762 0.950 . S
C786 C781 1.363 . S
C786 C785 1.415 . S
C787 H763 0.951 . S
C787 C788 1.359 1_655 S
C787 C789 1.388 . S
C788 C787 1.359 1_455 S
C788 C792 1.392 . S
C789 H764 0.951 . S
C789 C787 1.388 . S
C789 C790 1.366 1_655 S
C790 C789 1.366 1_455 S
C790 C791 1.414 . S
C790 C793 1.499 . S
C791 H765 0.950 . S
C791 C790 1.414 . S
C791 C792 1.374 . S
C792 H766 0.950 . S
C792 C788 1.392 . S
C792 C791 1.374 . S
C793 C790 1.499 . S
C793 C794 1.373 . S
C793 C795 1.389 1_455 S
C794 H767 0.950 . S
C794 C780 1.377 . S
C794 C793 1.373 . S
C795 C779 1.377 . S
C795 C793 1.389 1_655 S
C795 C796 1.524 . S
C796 C795 1.524 . S
C796 C797 1.397 1_655 S
C796 C801 1.363 . S
C797 H768 0.950 . S
C797 C796 1.397 1_455 S
C797 C798 1.334 . S
C798 H769 0.950 . S
C798 C797 1.334 . S
C798 C799 1.287 . S
C799 C798 1.287 . S
C799 C800 1.524 1_455 S
C799 H802 0.999 . S
C800 H770 0.950 . S
C800 C799 1.524 1_655 S
C800 C801 1.415 . S
C801 H771 0.950 . S
C801 C796 1.363 . S
C801 C800 1.415 . S
H802 C799 0.999 . S
H803 C784 0.913 . S
H804 C822 0.951 . S
H805 C824 0.951 . S
H806 C826 0.950 . S
H807 C827 0.950 . S
H808 C829 0.950 . S
H809 C832 0.950 . S
H810 C833 0.950 . S
H811 C835 0.950 . S
H812 C836 0.950 . S
H813 C837 0.951 . S
H814 C839 0.951 . S
H815 C841 0.950 . S
H816 C842 0.950 . S
H817 C844 0.950 . S
H818 C847 0.950 . S
H819 C848 0.950 . S
H820 C850 0.950 . S
H821 C851 0.950 . S
C822 H804 0.951 . S
C822 C823 1.366 . S
C822 C824 1.388 . S
C823 C822 1.366 . S
C823 C827 1.385 . S
C824 H805 0.951 . S
C824 C822 1.388 . S
C824 C825 1.366 . S
C825 C824 1.366 . S
C825 C826 1.414 . S
C825 C828 1.499 . S
C826 H806 0.950 . S
C826 C825 1.414 . S
C826 C827 1.374 . S
C827 H807 0.950 . S
C827 C823 1.385 . S
C827 C826 1.374 . S
C828 C825 1.499 . S
C828 C829 1.373 . S
C828 C830 1.389 . S
C829 H808 0.950 . S
C829 C828 1.373 . S
C829 C845 1.377 . S
C830 C828 1.389 . S
C830 C831 1.524 . S
C830 C844 1.377 . S
C831 C830 1.524 . S
C831 C832 1.397 . S
C831 C836 1.363 . S
C832 H809 0.950 . S
C832 C831 1.397 . S
C832 C833 1.334 . S
C833 H810 0.950 . S
C833 C832 1.334 . S
C833 C834 1.287 . S
C834 C833 1.287 . S
C834 C835 1.524 . S
C834 H853 0.913 . S
C835 H811 0.950 . S
C835 C834 1.524 . S
C835 C836 1.415 . S
C836 H812 0.950 . S
C836 C831 1.363 . S
C836 C835 1.415 . S
C837 H813 0.951 . S
C837 C838 1.366 . S
C837 C839 1.388 . S
C838 C837 1.366 . S
C838 C842 1.385 . S
C839 H814 0.951 . S
C839 C837 1.388 . S
C839 C840 1.366 . S
C840 C839 1.366 . S
C840 C841 1.414 . S
C840 C843 1.499 . S
C841 H815 0.950 . S
C841 C840 1.414 . S
C841 C842 1.374 . S
C842 H816 0.950 . S
C842 C838 1.385 . S
C842 C841 1.374 . S
C843 C840 1.499 . S
C843 C844 1.373 . S
C843 C845 1.389 . S
C844 H817 0.950 . S
C844 C830 1.377 . S
C844 C843 1.373 . S
C845 C829 1.377 . S
C845 C843 1.389 . S
C845 C846 1.524 . S
C846 C845 1.524 . S
C846 C847 1.397 . S
C846 C851 1.363 . S
C847 H818 0.950 . S
C847 C846 1.397 . S
C847 C848 1.334 . S
C848 H819 0.950 . S
C848 C847 1.334 . S
C848 C849 1.287 . S
C849 C848 1.287 . S
C849 C850 1.524 . S
C849 H852 0.999 . S
C850 H820 0.950 . S
C850 C849 1.524 . S
C850 C851 1.415 . S
C851 H821 0.950 . S
C851 C846 1.363 . S
C851 C850 1.415 . S
H852 C849 0.999 . S
H853 C834 0.913 . S
H854 C872 0.951 . S
H855 C874 0.951 . S
H856 C876 0.950 . S
H857 C877 0.950 . S
H858 C879 0.950 . S
H859 C882 0.950 . S
H860 C883 0.950 . S
H861 C885 0.950 . S
H862 C886 0.950 . S
H863 C887 0.951 . S
H864 C889 0.951 . S
H865 C891 0.950 . S
H866 C892 0.950 . S
H867 C894 0.950 . S
H868 C897 0.950 . S
H869 C898 0.950 . S
H870 C900 0.950 . S
H871 C901 0.950 . S
C872 H854 0.951 . S
C872 C873 1.366 . S
C872 C874 1.388 . S
C873 C872 1.366 . S
C873 C877 1.385 . S
C874 H855 0.951 . S
C874 C872 1.388 . S
C874 C875 1.366 . S
C875 C874 1.366 . S
C875 C876 1.414 . S
C875 C878 1.499 . S
C876 H856 0.950 . S
C876 C875 1.414 . S
C876 C877 1.374 . S
C877 H857 0.950 . S
C877 C873 1.385 . S
C877 C876 1.374 . S
C878 C875 1.499 . S
C878 C879 1.373 . S
C878 C880 1.389 . S
C879 H858 0.950 . S
C879 C878 1.373 . S
C879 C895 1.377 . S
C880 C878 1.389 . S
C880 C881 1.524 . S
C880 C894 1.377 . S
C881 C880 1.524 . S
C881 C882 1.397 . S
C881 C886 1.363 . S
C882 H859 0.950 . S
C882 C881 1.397 . S
C882 C883 1.334 . S
C883 H860 0.950 . S
C883 C882 1.334 . S
C883 C884 1.287 . S
C884 C883 1.287 . S
C884 C885 1.524 . S
C884 H903 0.913 . S
C885 H861 0.950 . S
C885 C884 1.524 . S
C885 C886 1.415 . S
C886 H862 0.950 . S
C886 C881 1.363 . S
C886 C885 1.415 . S
C887 H863 0.951 . S
C887 C888 1.366 . S
C887 C889 1.388 . S
C888 C887 1.366 . S
C888 C892 1.385 . S
C889 H864 0.951 . S
C889 C887 1.388 . S
C889 C890 1.366 . S
C890 C889 1.366 . S
C890 C891 1.414 . S
C890 C893 1.499 . S
C891 H865 0.950 . S
C891 C890 1.414 . S
C891 C892 1.374 . S
C892 H866 0.950 . S
C892 C888 1.385 . S
C892 C891 1.374 . S
C893 C890 1.499 . S
C893 C894 1.373 . S
C893 C895 1.389 . S
C894 H867 0.950 . S
C894 C880 1.377 . S
C894 C893 1.373 . S
C895 C879 1.377 . S
C895 C893 1.389 . S
C895 C896 1.524 . S
C896 C895 1.524 . S
C896 C897 1.397 . S
C896 C901 1.363 . S
C897 H868 0.950 . S
C897 C896 1.397 . S
C897 C898 1.334 . S
C898 H869 0.950 . S
C898 C897 1.334 . S
C898 C899 1.287 . S
C899 C898 1.287 . S
C899 C900 1.524 . S
C899 H902 0.999 . S
C900 H870 0.950 . S
C900 C899 1.524 . S
C900 C901 1.415 . S
C901 H871 0.950 . S
C901 C896 1.363 . S
C901 C900 1.415 . S
H902 C899 0.999 . S
H903 C884 0.913 . S
H904 C922 0.951 . S
H905 C924 0.951 . S
H906 C926 0.950 . S
H907 C927 0.950 . S
H908 C929 0.950 . S
H909 C932 0.950 . S
H910 C933 0.950 . S
H911 C935 0.950 . S
H912 C936 0.950 . S
H913 C937 0.951 . S
H914 C939 0.951 . S
H915 C941 0.950 . S
H916 C942 0.950 . S
H917 C944 0.950 . S
H918 C947 0.950 . S
H919 C948 0.950 . S
H920 C950 0.950 . S
H921 C951 0.946 1_545 S
C922 H904 0.951 . S
C922 C923 1.366 . S
C922 C924 1.388 . S
C923 C922 1.366 . S
C923 C927 1.385 . S
C924 H905 0.951 . S
C924 C922 1.388 . S
C924 C925 1.366 . S
C925 C924 1.366 . S
C925 C926 1.414 . S
C925 C928 1.499 . S
C926 H906 0.950 . S
C926 C925 1.414 . S
C926 C927 1.374 . S
C927 H907 0.950 . S
C927 C923 1.385 . S
C927 C926 1.374 . S
C928 C925 1.499 . S
C928 C929 1.373 . S
C928 C930 1.389 . S
C929 H908 0.950 . S
C929 C928 1.373 . S
C929 C945 1.377 . S
C930 C928 1.389 . S
C930 C931 1.524 . S
C930 C944 1.377 . S
C931 C930 1.524 . S
C931 C932 1.397 . S
C931 C936 1.363 . S
C932 H909 0.950 . S
C932 C931 1.397 . S
C932 C933 1.334 . S
C933 H910 0.950 . S
C933 C932 1.334 . S
C933 C934 1.287 . S
C934 C933 1.287 . S
C934 C935 1.524 . S
C934 H953 0.913 . S
C935 H911 0.950 . S
C935 C934 1.524 . S
C935 C936 1.415 . S
C936 H912 0.950 . S
C936 C931 1.363 . S
C936 C935 1.415 . S
C937 H913 0.951 . S
C937 C938 1.366 . S
C937 C939 1.388 . S
C938 C937 1.366 . S
C938 C942 1.385 . S
C939 H914 0.951 . S
C939 C937 1.388 . S
C939 C940 1.366 . S
C940 C939 1.366 . S
C940 C941 1.414 . S
C940 C943 1.499 . S
C941 H915 0.950 . S
C941 C940 1.414 . S
C941 C942 1.374 . S
C942 H916 0.950 . S
C942 C938 1.385 . S
C942 C941 1.374 . S
C943 C940 1.499 . S
C943 C944 1.373 . S
C943 C945 1.389 . S
C944 H917 0.950 . S
C944 C930 1.377 . S
C944 C943 1.373 . S
C945 C929 1.377 . S
C945 C943 1.389 . S
C945 C946 1.524 . S
C946 C945 1.524 . S
C946 C947 1.397 . S
C946 C951 1.337 1_545 S
C947 H918 0.950 . S
C947 C946 1.397 . S
C947 C948 1.334 1_545 S
C948 H919 0.950 . S
C948 C947 1.334 1_565 S
C948 C949 1.287 . S
C949 C948 1.287 . S
C949 C950 1.524 . S
C949 H952 0.999 . S
C950 H920 0.950 . S
C950 C949 1.524 . S
C950 C951 1.445 . S
C951 H921 0.946 1_565 S
C951 C946 1.337 1_565 S
C951 C950 1.445 . S
H952 C949 0.999 . S
H953 C934 0.913 . S
H954 C972 0.951 . S
H955 C974 0.951 . S
H956 C976 0.950 . S
H957 C977 0.950 . S
H958 C979 0.950 . S
H959 C982 0.950 . S
H960 C983 0.950 . S
H961 C985 0.950 . S
H962 C986 0.950 . S
H963 C987 0.951 . S
H964 C989 0.951 . S
H965 C991 0.950 . S
H966 C992 0.950 . S
H967 C994 0.950 . S
H968 C997 0.950 . S
H969 C998 0.950 . S
H970 C1000 0.950 . S
H971 C1001 0.950 . S
C972 H954 0.951 . S
C972 C973 1.366 . S
C972 C974 1.388 . S
C973 C972 1.366 . S
C973 C977 1.385 . S
C974 H955 0.951 . S
C974 C972 1.388 . S
C974 C975 1.366 . S
C975 C974 1.366 . S
C975 C976 1.414 . S
C975 C978 1.499 . S
C976 H956 0.950 . S
C976 C975 1.414 . S
C976 C977 1.374 . S
C977 H957 0.950 . S
C977 C973 1.385 . S
C977 C976 1.374 . S
C978 C975 1.499 . S
C978 C979 1.373 . S
C978 C980 1.389 . S
C979 H958 0.950 . S
C979 C978 1.373 . S
C979 C995 1.377 . S
C980 C978 1.389 . S
C980 C981 1.524 . S
C980 C994 1.377 . S
C981 C980 1.524 . S
C981 C982 1.397 . S
C981 C986 1.363 . S
C982 H959 0.950 . S
C982 C981 1.397 . S
C982 C983 1.334 . S
C983 H960 0.950 . S
C983 C982 1.334 . S
C983 C984 1.287 . S
C984 C983 1.287 . S
C984 C985 1.524 . S
C984 H1003 0.913 . S
C985 H961 0.950 . S
C985 C984 1.524 . S
C985 C986 1.415 . S
C986 H962 0.950 . S
C986 C981 1.363 . S
C986 C985 1.415 . S
C987 H963 0.951 . S
C987 C988 1.366 . S
C987 C989 1.388 . S
C988 C987 1.366 . S
C988 C992 1.385 . S
C989 H964 0.951 . S
C989 C987 1.388 . S
C989 C990 1.366 . S
C990 C989 1.366 . S
C990 C991 1.414 . S
C990 C993 1.499 . S
C991 H965 0.950 . S
C991 C990 1.414 . S
C991 C992 1.374 . S
C992 H966 0.950 . S
C992 C988 1.385 . S
C992 C991 1.374 . S
C993 C990 1.499 . S
C993 C994 1.373 . S
C993 C995 1.389 . S
C994 H967 0.950 . S
C994 C980 1.377 . S
C994 C993 1.373 . S
C995 C979 1.377 . S
C995 C993 1.389 . S
C995 C996 1.524 . S
C996 C995 1.524 . S
C996 C997 1.397 . S
C996 C1001 1.363 . S
C997 H968 0.950 . S
C997 C996 1.397 . S
C997 C998 1.334 . S
C998 H969 0.950 . S
C998 C997 1.334 . S
C998 C999 1.287 . S
C999 C998 1.287 . S
C999 C1000 1.524 . S
C999 H1002 0.999 . S
C1000 H970 0.950 . S
C1000 C999 1.524 . S
C1000 C1001 1.415 . S
C1001 H971 0.950 . S
C1001 C996 1.363 . S
C1001 C1000 1.415 . S
H1002 C999 0.999 . S
H1003 C984 0.913 . S
H1004 C1022 0.951 . S
H1005 C1024 0.951 . S
H1006 C1026 0.950 . S
H1007 C1027 0.950 . S
H1008 C1029 0.950 . S
H1009 C1032 0.950 . S
H1010 C1033 0.950 . S
H1011 C1035 0.950 . S
H1012 C1036 0.950 . S
H1013 C1037 0.951 . S
H1014 C1039 0.951 . S
H1015 C1041 0.950 . S
H1016 C1042 0.950 . S
H1017 C1044 0.950 . S
H1018 C1047 0.950 . S
H1019 C1048 0.950 . S
H1020 C1050 0.950 . S
H1021 C1051 0.950 . S
C1022 H1004 0.951 . S
C1022 C1023 1.366 . S
C1022 C1024 1.388 . S
C1023 C1022 1.366 . S
C1023 C1027 1.385 . S
C1024 H1005 0.951 . S
C1024 C1022 1.388 . S
C1024 C1025 1.366 . S
C1025 C1024 1.366 . S
C1025 C1026 1.414 . S
C1025 C1028 1.499 . S
C1026 H1006 0.950 . S
C1026 C1025 1.414 . S
C1026 C1027 1.374 . S
C1027 H1007 0.950 . S
C1027 C1023 1.385 . S
C1027 C1026 1.374 . S
C1028 C1025 1.499 . S
C1028 C1029 1.373 . S
C1028 C1030 1.389 . S
C1029 H1008 0.950 . S
C1029 C1028 1.373 . S
C1029 C1045 1.377 . S
C1030 C1028 1.389 . S
C1030 C1031 1.524 . S
C1030 C1044 1.377 . S
C1031 C1030 1.524 . S
C1031 C1032 1.397 . S
C1031 C1036 1.363 . S
C1032 H1009 0.950 . S
C1032 C1031 1.397 . S
C1032 C1033 1.334 . S
C1033 H1010 0.950 . S
C1033 C1032 1.334 . S
C1033 C1034 1.287 . S
C1034 C1033 1.287 . S
C1034 C1035 1.524 . S
C1034 H1053 0.913 . S
C1035 H1011 0.950 . S
C1035 C1034 1.524 . S
C1035 C1036 1.415 . S
C1036 H1012 0.950 . S
C1036 C1031 1.363 . S
C1036 C1035 1.415 . S
C1037 H1013 0.951 . S
C1037 C1038 1.366 . S
C1037 C1039 1.388 . S
C1038 C1037 1.366 . S
C1038 C1042 1.385 . S
C1039 H1014 0.951 . S
C1039 C1037 1.388 . S
C1039 C1040 1.366 . S
C1040 C1039 1.366 . S
C1040 C1041 1.414 . S
C1040 C1043 1.499 . S
C1041 H1015 0.950 . S
C1041 C1040 1.414 . S
C1041 C1042 1.374 . S
C1042 H1016 0.950 . S
C1042 C1038 1.385 . S
C1042 C1041 1.374 . S
C1043 C1040 1.499 . S
C1043 C1044 1.373 . S
C1043 C1045 1.389 . S
C1044 H1017 0.950 . S
C1044 C1030 1.377 . S
C1044 C1043 1.373 . S
C1045 C1029 1.377 . S
C1045 C1043 1.389 . S
C1045 C1046 1.524 . S
C1046 C1045 1.524 . S
C1046 C1047 1.397 . S
C1046 C1051 1.363 . S
C1047 H1018 0.950 . S
C1047 C1046 1.397 . S
C1047 C1048 1.334 1_565 S
C1048 H1019 0.950 . S
C1048 C1047 1.334 1_545 S
C1048 C1049 1.287 . S
C1049 C1048 1.287 . S
C1049 C1050 1.524 . S
C1049 H1052 0.999 . S
C1050 H1020 0.950 . S
C1050 C1049 1.524 . S
C1050 C1051 1.415 1_545 S
C1051 H1021 0.950 . S
C1051 C1046 1.363 . S
C1051 C1050 1.415 1_565 S
H1052 C1049 0.999 . S
H1053 C1034 0.913 . S
H1054 C1072 0.951 . S
H1055 C1074 0.951 . S
H1056 C1076 0.950 . S
H1057 C1077 0.950 . S
H1058 C1079 0.950 . S
H1059 C1082 0.950 . S
H1060 C1083 0.950 . S
H1061 C1085 0.950 . S
H1062 C1086 0.950 . S
H1063 C1087 0.951 . S
H1064 C1089 0.951 . S
H1065 C1091 0.950 . S
H1066 C1092 0.950 . S
H1067 C1094 0.950 . S
H1068 C1097 0.950 . S
H1069 C1098 0.950 . S
H1070 C1100 0.950 . S
H1071 C1101 0.950 . S
C1072 H1054 0.951 . S
C1072 C1073 1.366 . S
C1072 C1074 1.388 . S
C1073 C1072 1.366 . S
C1073 C1077 1.385 . S
C1074 H1055 0.951 . S
C1074 C1072 1.388 . S
C1074 C1075 1.366 . S
C1075 C1074 1.366 . S
C1075 C1076 1.414 . S
C1075 C1078 1.499 . S
C1076 H1056 0.950 . S
C1076 C1075 1.414 . S
C1076 C1077 1.374 . S
C1077 H1057 0.950 . S
C1077 C1073 1.385 . S
C1077 C1076 1.374 . S
C1078 C1075 1.499 . S
C1078 C1079 1.373 . S
C1078 C1080 1.389 . S
C1079 H1058 0.950 . S
C1079 C1078 1.373 . S
C1079 C1095 1.377 . S
C1080 C1078 1.389 . S
C1080 C1081 1.524 . S
C1080 C1094 1.377 . S
C1081 C1080 1.524 . S
C1081 C1082 1.397 . S
C1081 C1086 1.363 . S
C1082 H1059 0.950 . S
C1082 C1081 1.397 . S
C1082 C1083 1.334 . S
C1083 H1060 0.950 . S
C1083 C1082 1.334 . S
C1083 C1084 1.287 . S
C1084 C1083 1.287 . S
C1084 C1085 1.524 . S
C1084 H1103 0.913 . S
C1085 H1061 0.950 . S
C1085 C1084 1.524 . S
C1085 C1086 1.415 . S
C1086 H1062 0.950 . S
C1086 C1081 1.363 . S
C1086 C1085 1.415 . S
C1087 H1063 0.951 . S
C1087 C1088 1.366 . S
C1087 C1089 1.388 . S
C1088 C1087 1.366 . S
C1088 C1092 1.385 . S
C1089 H1064 0.951 . S
C1089 C1087 1.388 . S
C1089 C1090 1.366 . S
C1090 C1089 1.366 . S
C1090 C1091 1.414 . S
C1090 C1093 1.499 . S
C1091 H1065 0.950 . S
C1091 C1090 1.414 . S
C1091 C1092 1.374 . S
C1092 H1066 0.950 . S
C1092 C1088 1.385 . S
C1092 C1091 1.374 . S
C1093 C1090 1.499 . S
C1093 C1094 1.373 . S
C1093 C1095 1.389 . S
C1094 H1067 0.950 . S
C1094 C1080 1.377 . S
C1094 C1093 1.373 . S
C1095 C1079 1.377 . S
C1095 C1093 1.389 . S
C1095 C1096 1.524 . S
C1096 C1095 1.524 . S
C1096 C1097 1.397 . S
C1096 C1101 1.363 . S
C1097 H1068 0.950 . S
C1097 C1096 1.397 . S
C1097 C1098 1.334 . S
C1098 H1069 0.950 . S
C1098 C1097 1.334 . S
C1098 C1099 1.287 . S
C1099 C1098 1.287 . S
C1099 C1100 1.524 . S
C1099 H1102 0.999 . S
C1100 H1070 0.950 . S
C1100 C1099 1.524 . S
C1100 C1101 1.415 . S
C1101 H1071 0.950 . S
C1101 C1096 1.363 . S
C1101 C1100 1.415 . S
H1102 C1099 0.999 . S
H1103 C1084 0.913 . S
H1104 C1122 0.951 . S
H1105 C1124 0.951 . S
H1106 C1126 0.950 . S
H1107 C1127 0.950 . S
H1108 C1129 0.950 . S
H1109 C1132 0.950 . S
H1110 C1133 0.950 . S
H1111 C1135 0.950 . S
H1112 C1136 0.950 . S
H1113 C1137 0.951 . S
H1114 C1139 0.951 . S
H1115 C1141 0.950 . S
H1116 C1142 0.950 . S
H1117 C1144 0.950 . S
H1118 C1147 0.950 . S
H1119 C1148 0.950 . S
H1120 C1150 0.950 . S
H1121 C1151 0.950 . S
C1122 H1104 0.951 . S
C1122 C1123 1.366 . S
C1122 C1124 1.388 . S
C1123 C1122 1.366 . S
C1123 C1127 1.385 . S
C1124 H1105 0.951 . S
C1124 C1122 1.388 . S
C1124 C1125 1.366 . S
C1125 C1124 1.366 . S
C1125 C1126 1.414 . S
C1125 C1128 1.499 . S
C1126 H1106 0.950 . S
C1126 C1125 1.414 . S
C1126 C1127 1.374 . S
C1127 H1107 0.950 . S
C1127 C1123 1.385 . S
C1127 C1126 1.374 . S
C1128 C1125 1.499 . S
C1128 C1129 1.373 . S
C1128 C1130 1.389 . S
C1129 H1108 0.950 . S
C1129 C1128 1.373 . S
C1129 C1145 1.377 . S
C1130 C1128 1.389 . S
C1130 C1131 1.524 . S
C1130 C1144 1.377 . S
C1131 C1130 1.524 . S
C1131 C1132 1.397 . S
C1131 C1136 1.363 . S
C1132 H1109 0.950 . S
C1132 C1131 1.397 . S
C1132 C1133 1.334 . S
C1133 H1110 0.950 . S
C1133 C1132 1.334 . S
C1133 C1134 1.287 . S
C1134 C1133 1.287 . S
C1134 C1135 1.524 . S
C1134 H1153 0.913 . S
C1135 H1111 0.950 . S
C1135 C1134 1.524 . S
C1135 C1136 1.415 . S
C1136 H1112 0.950 . S
C1136 C1131 1.363 . S
C1136 C1135 1.415 . S
C1137 H1113 0.951 . S
C1137 C1138 1.366 . S
C1137 C1139 1.388 . S
C1138 C1137 1.366 . S
C1138 C1142 1.385 . S
C1139 H1114 0.951 . S
C1139 C1137 1.388 . S
C1139 C1140 1.366 . S
C1140 C1139 1.366 . S
C1140 C1141 1.414 . S
C1140 C1143 1.499 . S
C1141 H1115 0.950 . S
C1141 C1140 1.414 . S
C1141 C1142 1.374 . S
C1142 H1116 0.950 . S
C1142 C1138 1.385 . S
C1142 C1141 1.374 . S
C1143 C1140 1.499 . S
C1143 C1144 1.373 . S
C1143 C1145 1.389 . S
C1144 H1117 0.950 . S
C1144 C1130 1.377 . S
C1144 C1143 1.373 . S
C1145 C1129 1.377 . S
C1145 C1143 1.389 . S
C1145 C1146 1.524 . S
C1146 C1145 1.524 . S
C1146 C1147 1.397 . S
C1146 C1151 1.363 . S
C1147 H1118 0.950 . S
C1147 C1146 1.397 . S
C1147 C1148 1.334 1_565 S
C1148 H1119 0.950 . S
C1148 C1147 1.334 1_545 S
C1148 C1149 1.287 . S
C1149 C1148 1.287 . S
C1149 C1150 1.524 1_545 S
C1149 H1152 0.999 . S
C1150 H1120 0.950 . S
C1150 C1149 1.524 1_565 S
C1150 C1151 1.415 . S
C1151 H1121 0.950 . S
C1151 C1146 1.363 . S
C1151 C1150 1.415 . S
H1152 C1149 0.999 . S
H1153 C1134 0.913 . S
H1154 C1172 0.951 . S
H1155 C1174 0.951 . S
H1156 C1176 0.950 . S
H1157 C1177 0.950 . S
H1158 C1179 0.950 . S
H1159 C1182 0.950 . S
H1160 C1183 0.950 . S
H1161 C1185 0.950 . S
H1162 C1186 0.950 . S
H1163 C1187 0.951 . S
H1164 C1189 0.951 . S
H1165 C1191 0.950 . S
H1166 C1192 0.950 . S
H1167 C1194 0.950 . S
H1168 C1197 0.950 . S
H1169 C1198 0.950 . S
H1170 C1200 0.950 . S
H1171 C1201 0.950 . S
C1172 H1154 0.951 . S
C1172 C1173 1.366 . S
C1172 C1174 1.388 . S
C1173 C1172 1.366 . S
C1173 C1177 1.385 . S
C1174 H1155 0.951 . S
C1174 C1172 1.388 . S
C1174 C1175 1.366 . S
C1175 C1174 1.366 . S
C1175 C1176 1.414 . S
C1175 C1178 1.499 . S
C1176 H1156 0.950 . S
C1176 C1175 1.414 . S
C1176 C1177 1.374 . S
C1177 H1157 0.950 . S
C1177 C1173 1.385 . S
C1177 C1176 1.374 . S
C1178 C1175 1.499 . S
C1178 C1179 1.373 . S
C1178 C1180 1.389 . S
C1179 H1158 0.950 . S
C1179 C1178 1.373 . S
C1179 C1195 1.377 . S
C1180 C1178 1.389 . S
C1180 C1181 1.524 . S
C1180 C1194 1.377 . S
C1181 C1180 1.524 . S
C1181 C1182 1.397 . S
C1181 C1186 1.363 . S
C1182 H1159 0.950 . S
C1182 C1181 1.397 . S
C1182 C1183 1.334 . S
C1183 H1160 0.950 . S
C1183 C1182 1.334 . S
C1183 C1184 1.287 . S
C1184 C1183 1.287 . S
C1184 C1185 1.524 . S
C1184 H1203 0.913 . S
C1185 H1161 0.950 . S
C1185 C1184 1.524 . S
C1185 C1186 1.415 . S
C1186 H1162 0.950 . S
C1186 C1181 1.363 . S
C1186 C1185 1.415 . S
C1187 H1163 0.951 . S
C1187 C1188 1.366 . S
C1187 C1189 1.388 . S
C1188 C1187 1.366 . S
C1188 C1192 1.385 . S
C1189 H1164 0.951 . S
C1189 C1187 1.388 . S
C1189 C1190 1.366 . S
C1190 C1189 1.366 . S
C1190 C1191 1.414 . S
C1190 C1193 1.499 . S
C1191 H1165 0.950 . S
C1191 C1190 1.414 . S
C1191 C1192 1.374 . S
C1192 H1166 0.950 . S
C1192 C1188 1.385 . S
C1192 C1191 1.374 . S
C1193 C1190 1.499 . S
C1193 C1194 1.373 . S
C1193 C1195 1.389 . S
C1194 H1167 0.950 . S
C1194 C1180 1.377 . S
C1194 C1193 1.373 . S
C1195 C1179 1.377 . S
C1195 C1193 1.389 . S
C1195 C1196 1.524 . S
C1196 C1195 1.524 . S
C1196 C1197 1.397 . S
C1196 C1201 1.363 . S
C1197 H1168 0.950 . S
C1197 C1196 1.397 . S
C1197 C1198 1.334 . S
C1198 H1169 0.950 . S
C1198 C1197 1.334 . S
C1198 C1199 1.287 . S
C1199 C1198 1.287 . S
C1199 C1200 1.524 . S
C1199 H1202 0.999 . S
C1200 H1170 0.950 . S
C1200 C1199 1.524 . S
C1200 C1201 1.415 . S
C1201 H1171 0.950 . S
C1201 C1196 1.363 . S
C1201 C1200 1.415 . S
H1202 C1199 0.999 . S
H1203 C1184 0.913 . S
H1204 C1222 0.951 . S
H1205 C1224 0.951 . S
H1206 C1226 0.950 . S
H1207 C1227 0.950 . S
H1208 C1229 0.950 . S
H1209 C1232 0.950 . S
H1210 C1233 0.950 . S
H1211 C1235 0.950 . S
H1212 C1236 0.950 . S
H1213 C1237 0.951 . S
H1214 C1239 0.951 . S
H1215 C1241 0.950 . S
H1216 C1242 0.950 . S
H1217 C1244 0.950 . S
H1218 C1247 0.950 . S
H1219 C1248 0.950 . S
H1220 C1250 0.950 . S
H1221 C1251 0.950 . S
C1222 H1204 0.951 . S
C1222 C1223 1.366 . S
C1222 C1224 1.388 . S
C1223 C1222 1.366 . S
C1223 C1227 1.385 . S
C1224 H1205 0.951 . S
C1224 C1222 1.388 . S
C1224 C1225 1.366 . S
C1225 C1224 1.366 . S
C1225 C1226 1.414 . S
C1225 C1228 1.499 . S
C1226 H1206 0.950 . S
C1226 C1225 1.414 . S
C1226 C1227 1.374 . S
C1227 H1207 0.950 . S
C1227 C1223 1.385 . S
C1227 C1226 1.374 . S
C1228 C1225 1.499 . S
C1228 C1229 1.373 . S
C1228 C1230 1.389 . S
C1229 H1208 0.950 . S
C1229 C1228 1.373 . S
C1229 C1245 1.377 . S
C1230 C1228 1.389 . S
C1230 C1231 1.524 . S
C1230 C1244 1.377 . S
C1231 C1230 1.524 . S
C1231 C1232 1.397 . S
C1231 C1236 1.363 . S
C1232 H1209 0.950 . S
C1232 C1231 1.397 . S
C1232 C1233 1.334 . S
C1233 H1210 0.950 . S
C1233 C1232 1.334 . S
C1233 C1234 1.287 . S
C1234 C1233 1.287 . S
C1234 C1235 1.524 . S
C1234 H1253 0.913 . S
C1235 H1211 0.950 . S
C1235 C1234 1.524 . S
C1235 C1236 1.415 . S
C1236 H1212 0.950 . S
C1236 C1231 1.363 . S
C1236 C1235 1.415 . S
C1237 H1213 0.951 . S
C1237 C1238 1.366 . S
C1237 C1239 1.388 . S
C1238 C1237 1.366 . S
C1238 C1242 1.385 . S
C1239 H1214 0.951 . S
C1239 C1237 1.388 . S
C1239 C1240 1.366 . S
C1240 C1239 1.366 . S
C1240 C1241 1.414 . S
C1240 C1243 1.499 . S
C1241 H1215 0.950 . S
C1241 C1240 1.414 . S
C1241 C1242 1.374 . S
C1242 H1216 0.950 . S
C1242 C1238 1.385 . S
C1242 C1241 1.374 . S
C1243 C1240 1.499 . S
C1243 C1244 1.373 . S
C1243 C1245 1.389 . S
C1244 H1217 0.950 . S
C1244 C1230 1.377 . S
C1244 C1243 1.373 . S
C1245 C1229 1.377 . S
C1245 C1243 1.389 . S
C1245 C1246 1.524 . S
C1246 C1245 1.524 . S
C1246 C1247 1.397 . S
C1246 C1251 1.363 . S
C1247 H1218 0.950 . S
C1247 C1246 1.397 . S
C1247 C1248 1.334 . S
C1248 H1219 0.950 . S
C1248 C1247 1.334 . S
C1248 C1249 1.287 . S
C1249 C1248 1.287 . S
C1249 C1250 1.524 . S
C1249 H1252 0.999 . S
C1250 H1220 0.950 . S
C1250 C1249 1.524 . S
C1250 C1251 1.415 . S
C1251 H1221 0.950 . S
C1251 C1246 1.363 . S
C1251 C1250 1.415 . S
H1252 C1249 0.999 . S
H1253 C1234 0.913 . S
H1254 C1272 0.951 . S
H1255 C1274 0.951 . S
H1256 C1276 0.950 . S
H1257 C1277 0.950 . S
H1258 C1279 0.950 . S
H1259 C1282 0.950 . S
H1260 C1283 0.950 . S
H1261 C1285 0.950 . S
H1262 C1286 0.950 . S
H1263 C1287 0.951 . S
H1264 C1289 0.951 . S
H1265 C1291 0.950 . S
H1266 C1292 0.950 . S
H1267 C1294 0.950 . S
H1268 C1297 0.950 . S
H1269 C1298 0.950 . S
H1270 C1300 0.950 . S
H1271 C1301 0.950 . S
C1272 H1254 0.951 . S
C1272 C1273 1.366 . S
C1272 C1274 1.388 . S
C1273 C1272 1.366 . S
C1273 C1277 1.385 . S
C1274 H1255 0.951 . S
C1274 C1272 1.388 . S
C1274 C1275 1.366 . S
C1275 C1274 1.366 . S
C1275 C1276 1.414 . S
C1275 C1278 1.499 . S
C1276 H1256 0.950 . S
C1276 C1275 1.414 . S
C1276 C1277 1.374 . S
C1277 H1257 0.950 . S
C1277 C1273 1.385 . S
C1277 C1276 1.374 . S
C1278 C1275 1.499 . S
C1278 C1279 1.373 . S
C1278 C1280 1.389 . S
C1279 H1258 0.950 . S
C1279 C1278 1.373 . S
C1279 C1295 1.377 . S
C1280 C1278 1.389 . S
C1280 C1281 1.524 . S
C1280 C1294 1.377 . S
C1281 C1280 1.524 . S
C1281 C1282 1.397 . S
C1281 C1286 1.363 . S
C1282 H1259 0.950 . S
C1282 C1281 1.397 . S
C1282 C1283 1.334 . S
C1283 H1260 0.950 . S
C1283 C1282 1.334 . S
C1283 C1284 1.287 . S
C1284 C1283 1.287 . S
C1284 C1285 1.524 . S
C1284 H1303 0.913 . S
C1285 H1261 0.950 . S
C1285 C1284 1.524 . S
C1285 C1286 1.415 . S
C1286 H1262 0.950 . S
C1286 C1281 1.363 . S
C1286 C1285 1.415 . S
C1287 H1263 0.951 . S
C1287 C1288 1.366 . S
C1287 C1289 1.388 . S
C1288 C1287 1.366 . S
C1288 C1292 1.385 . S
C1289 H1264 0.951 . S
C1289 C1287 1.388 . S
C1289 C1290 1.366 . S
C1290 C1289 1.366 . S
C1290 C1291 1.414 . S
C1290 C1293 1.499 . S
C1291 H1265 0.950 . S
C1291 C1290 1.414 . S
C1291 C1292 1.374 . S
C1292 H1266 0.950 . S
C1292 C1288 1.385 . S
C1292 C1291 1.374 . S
C1293 C1290 1.499 . S
C1293 C1294 1.373 . S
C1293 C1295 1.389 . S
C1294 H1267 0.950 . S
C1294 C1280 1.377 . S
C1294 C1293 1.373 . S
C1295 C1279 1.377 . S
C1295 C1293 1.389 . S
C1295 C1296 1.524 . S
C1296 C1295 1.524 . S
C1296 C1297 1.397 . S
C1296 C1301 1.363 . S
C1297 H1268 0.950 . S
C1297 C1296 1.397 . S
C1297 C1298 1.334 . S
C1298 H1269 0.950 . S
C1298 C1297 1.334 . S
C1298 C1299 1.287 . S
C1299 C1298 1.287 . S
C1299 C1300 1.524 . S
C1299 H1302 0.999 . S
C1300 H1270 0.950 . S
C1300 C1299 1.524 . S
C1300 C1301 1.415 . S
C1301 H1271 0.950 . S
C1301 C1296 1.363 . S
C1301 C1300 1.415 . S
H1302 C1299 0.999 . S
H1303 C1284 0.913 . S
H1304 C1322 0.951 . S
H1305 C1324 0.951 . S
H1306 C1326 0.918 1_565 S
H1307 C1327 0.950 . S
H1308 C1329 0.950 . S
H1309 C1332 0.950 . S
H1310 C1333 0.950 . S
H1311 C1335 0.950 . S
H1312 C1336 0.922 1_545 S
H1313 C1337 0.951 . S
H1314 C1339 0.951 . S
H1315 C1341 0.918 1_545 S
H1316 C1342 0.950 . S
H1317 C1344 0.950 . S
H1318 C1347 0.950 . S
H1319 C1348 0.950 . S
H1320 C1350 0.950 . S
H1321 C1351 0.922 1_565 S
C1322 H1304 0.951 . S
C1322 C1323 1.348 1_655 S
C1322 C1324 1.388 . S
C1323 C1322 1.348 1_455 S
C1323 C1327 1.402 . S
C1324 H1305 0.951 . S
C1324 C1322 1.388 . S
C1324 C1325 1.368 . S
C1325 C1324 1.368 . S
C1325 C1326 1.411 1_655 S
C1325 C1328 1.498 1_655 S
C1326 H1306 0.918 1_545 S
C1326 C1325 1.411 1_455 S
C1326 C1327 1.374 . S
C1327 H1307 0.950 . S
C1327 C1323 1.402 . S
C1327 C1326 1.374 . S
C1328 C1325 1.498 1_455 S
C1328 C1329 1.388 . S
C1328 C1330 1.375 1_445 S
C1329 H1308 0.950 . S
C1329 C1328 1.388 . S
C1329 C1345 1.377 1_554 S
C1330 C1328 1.375 1_665 S
C1330 C1331 1.524 . S
C1330 C1344 1.377 1_554 S
C1331 C1330 1.524 . S
C1331 C1332 1.397 . S
C1331 C1336 1.380 . S
C1332 H1309 0.950 . S
C1332 C1331 1.397 . S
C1332 C1333 1.334 . S
C1333 H1310 0.950 . S
C1333 C1332 1.334 . S
C1333 C1334 1.287 . S
C1334 C1333 1.287 . S
C1334 C1335 1.524 . S
C1334 H1353 0.913 . S
C1335 H1311 0.950 . S
C1335 C1334 1.524 . S
C1335 C1336 1.429 . S
C1336 H1312 0.922 1_565 S
C1336 C1331 1.380 . S
C1336 C1335 1.429 . S
C1337 H1313 0.951 . S
C1337 C1338 1.381 . S
C1337 C1339 1.388 . S
C1338 C1337 1.381 . S
C1338 C1342 1.369 1_455 S
C1339 H1314 0.951 . S
C1339 C1337 1.388 . S
C1339 C1340 1.366 . S
C1340 C1339 1.366 . S
C1340 C1341 1.414 1_455 S
C1340 C1343 1.499 . S
C1341 H1315 0.918 1_565 S
C1341 C1340 1.414 1_655 S
C1341 C1342 1.374 . S
C1342 H1316 0.950 . S
C1342 C1338 1.369 1_655 S
C1342 C1341 1.374 . S
C1343 C1340 1.499 . S
C1343 C1344 1.350 1_455 S
C1343 C1345 1.412 1_565 S
C1344 H1317 0.950 . S
C1344 C1330 1.377 1_556 S
C1344 C1343 1.350 1_655 S
C1345 C1329 1.377 1_556 S
C1345 C1343 1.412 1_545 S
C1345 C1346 1.524 . S
C1346 C1345 1.524 . S
C1346 C1347 1.397 . S
C1346 C1351 1.380 . S
C1347 H1318 0.950 . S
C1347 C1346 1.397 . S
C1347 C1348 1.334 . S
C1348 H1319 0.950 . S
C1348 C1347 1.334 . S
C1348 C1349 1.287 . S
C1349 C1348 1.287 . S
C1349 C1350 1.524 . S
C1349 H1352 0.999 . S
C1350 H1320 0.950 . S
C1350 C1349 1.524 . S
C1350 C1351 1.429 . S
C1351 H1321 0.922 1_545 S
C1351 C1346 1.380 . S
C1351 C1350 1.429 . S
H1352 C1349 0.999 . S
H1353 C1334 0.913 . S
H1354 C1372 0.951 . S
H1355 C1374 0.951 . S
H1356 C1376 0.950 . S
H1357 C1377 0.950 . S
H1358 C1379 0.950 . S
H1359 C1382 0.950 . S
H1360 C1383 0.950 . S
H1361 C1385 0.950 . S
H1362 C1386 0.950 . S
H1363 C1387 0.951 . S
H1364 C1389 0.951 . S
H1365 C1391 0.950 . S
H1366 C1392 0.950 . S
H1367 C1394 0.950 1_455 S
H1368 C1397 0.950 . S
H1369 C1398 0.950 . S
H1370 C1400 0.950 . S
H1371 C1401 0.950 . S
C1372 H1354 0.951 . S
C1372 C1373 1.368 1_455 S
C1372 C1374 1.388 . S
C1373 C1372 1.368 1_655 S
C1373 C1377 1.382 . S
C1374 H1355 0.951 . S
C1374 C1372 1.388 . S
C1374 C1375 1.366 1_455 S
C1375 C1374 1.366 1_655 S
C1375 C1376 1.414 . S
C1375 C1378 1.499 . S
C1376 H1356 0.950 . S
C1376 C1375 1.414 . S
C1376 C1377 1.374 . S
C1377 H1357 0.950 . S
C1377 C1373 1.382 . S
C1377 C1376 1.374 . S
C1378 C1375 1.499 . S
C1378 C1379 1.373 . S
C1378 C1380 1.389 . S
C1379 H1358 0.950 . S
C1379 C1378 1.373 . S
C1379 C1395 1.377 1_656 S
C1380 C1378 1.389 . S
C1380 C1381 1.524 . S
C1380 C1394 1.376 1_556 S
C1381 C1380 1.524 . S
C1381 C1382 1.397 . S
C1381 C1386 1.363 1_655 S
C1382 H1359 0.950 . S
C1382 C1381 1.397 . S
C1382 C1383 1.334 . S
C1383 H1360 0.950 . S
C1383 C1382 1.334 . S
C1383 C1384 1.287 . S
C1384 C1383 1.287 . S
C1384 C1385 1.524 1_655 S
C1384 H1403 0.913 . S
C1385 H1361 0.950 . S
C1385 C1384 1.524 1_455 S
C1385 C1386 1.415 . S
C1386 H1362 0.950 . S
C1386 C1381 1.363 1_455 S
C1386 C1385 1.415 . S
C1387 H1363 0.951 . S
C1387 C1388 1.364 . S
C1387 C1389 1.388 . S
C1388 C1387 1.364 . S
C1388 C1392 1.386 1_655 S
C1389 H1364 0.951 . S
C1389 C1387 1.388 . S
C1389 C1390 1.366 1_655 S
C1390 C1389 1.366 1_455 S
C1390 C1391 1.414 . S
C1390 C1393 1.499 . S
C1391 H1365 0.950 . S
C1391 C1390 1.414 . S
C1391 C1392 1.374 . S
C1392 H1366 0.950 . S
C1392 C1388 1.386 1_455 S
C1392 C1391 1.374 . S
C1393 C1390 1.499 . S
C1393 C1394 1.373 1_455 S
C1393 C1395 1.389 . S
C1394 H1367 0.950 1_655 S
C1394 C1380 1.376 1_554 S
C1394 C1393 1.373 1_655 S
C1395 C1379 1.377 1_454 S
C1395 C1393 1.389 . S
C1395 C1396 1.524 . S
C1396 C1395 1.524 . S
C1396 C1397 1.397 . S
C1396 C1401 1.363 1_455 S
C1397 H1368 0.950 . S
C1397 C1396 1.397 . S
C1397 C1398 1.334 . S
C1398 H1369 0.950 . S
C1398 C1397 1.334 . S
C1398 C1399 1.287 . S
C1399 C1398 1.287 . S
C1399 C1400 1.524 1_455 S
C1399 H1402 0.999 . S
C1400 H1370 0.950 . S
C1400 C1399 1.524 1_655 S
C1400 C1401 1.415 . S
C1401 H1371 0.950 . S
C1401 C1396 1.363 1_655 S
C1401 C1400 1.415 . S
H1402 C1399 0.999 . S
H1403 C1384 0.913 . S
H1404 C1422 0.951 . S
H1405 C1424 0.951 . S
H1406 C1426 0.950 . S
H1407 C1427 0.950 . S
H1408 C1429 0.950 . S
H1409 C1432 0.950 . S
H1410 C1433 0.950 . S
H1411 C1435 0.950 . S
H1412 C1436 0.950 . S
H1413 C1437 0.951 . S
H1414 C1439 0.951 . S
H1415 C1441 0.950 . S
H1416 C1442 0.950 . S
H1417 C1444 0.950 . S
H1418 C1447 0.950 . S
H1419 C1448 0.950 . S
H1420 C1450 0.950 . S
H1421 C1451 0.950 . S
C1422 H1404 0.951 . S
C1422 C1423 1.366 . S
C1422 C1424 1.388 . S
C1423 C1422 1.366 . S
C1423 C1427 1.385 . S
C1424 H1405 0.951 . S
C1424 C1422 1.388 . S
C1424 C1425 1.366 . S
C1425 C1424 1.366 . S
C1425 C1426 1.414 . S
C1425 C1428 1.499 . S
C1426 H1406 0.950 . S
C1426 C1425 1.414 . S
C1426 C1427 1.374 . S
C1427 H1407 0.950 . S
C1427 C1423 1.385 . S
C1427 C1426 1.374 . S
C1428 C1425 1.499 . S
C1428 C1429 1.373 . S
C1428 C1430 1.389 . S
C1429 H1408 0.950 . S
C1429 C1428 1.373 . S
C1429 C1445 1.377 . S
C1430 C1428 1.389 . S
C1430 C1431 1.524 . S
C1430 C1444 1.377 . S
C1431 C1430 1.524 . S
C1431 C1432 1.397 . S
C1431 C1436 1.363 . S
C1432 H1409 0.950 . S
C1432 C1431 1.397 . S
C1432 C1433 1.334 . S
C1433 H1410 0.950 . S
C1433 C1432 1.334 . S
C1433 C1434 1.287 . S
C1434 C1433 1.287 . S
C1434 C1435 1.524 . S
C1434 H1453 0.913 . S
C1435 H1411 0.950 . S
C1435 C1434 1.524 . S
C1435 C1436 1.415 . S
C1436 H1412 0.950 . S
C1436 C1431 1.363 . S
C1436 C1435 1.415 . S
C1437 H1413 0.951 . S
C1437 C1438 1.366 . S
C1437 C1439 1.388 . S
C1438 C1437 1.366 . S
C1438 C1442 1.385 . S
C1439 H1414 0.951 . S
C1439 C1437 1.388 . S
C1439 C1440 1.366 . S
C1440 C1439 1.366 . S
C1440 C1441 1.414 . S
C1440 C1443 1.499 . S
C1441 H1415 0.950 . S
C1441 C1440 1.414 . S
C1441 C1442 1.374 . S
C1442 H1416 0.950 . S
C1442 C1438 1.385 . S
C1442 C1441 1.374 . S
C1443 C1440 1.499 . S
C1443 C1444 1.373 . S
C1443 C1445 1.389 . S
C1444 H1417 0.950 . S
C1444 C1430 1.377 . S
C1444 C1443 1.373 . S
C1445 C1429 1.377 . S
C1445 C1443 1.389 . S
C1445 C1446 1.524 . S
C1446 C1445 1.524 . S
C1446 C1447 1.397 . S
C1446 C1451 1.363 . S
C1447 H1418 0.950 . S
C1447 C1446 1.397 . S
C1447 C1448 1.334 . S
C1448 H1419 0.950 . S
C1448 C1447 1.334 . S
C1448 C1449 1.287 . S
C1449 C1448 1.287 . S
C1449 C1450 1.524 . S
C1449 H1452 0.999 . S
C1450 H1420 0.950 . S
C1450 C1449 1.524 . S
C1450 C1451 1.415 . S
C1451 H1421 0.950 . S
C1451 C1446 1.363 . S
C1451 C1450 1.415 . S
H1452 C1449 0.999 . S
H1453 C1434 0.913 . S
H1454 C1472 0.951 . S
H1455 C1474 0.951 . S
H1456 C1476 0.891 1_545 S
H1457 C1477 0.934 1_545 S
H1458 C1479 0.950 . S
H1459 C1482 0.950 1_545 S
H1460 C1483 0.950 . S
H1461 C1485 0.950 . S
H1462 C1486 0.950 . S
H1463 C1487 0.951 . S
H1464 C1489 0.951 . S
H1465 C1491 0.891 1_565 S
H1466 C1492 0.934 1_565 S
H1467 C1494 0.950 . S
H1468 C1497 0.950 1_565 S
H1469 C1498 0.950 . S
H1470 C1500 0.950 . S
H1471 C1501 0.950 . S
C1472 H1454 0.951 . S
C1472 C1473 1.366 . S
C1472 C1474 1.388 . S
C1473 C1472 1.366 . S
C1473 C1477 1.385 . S
C1474 H1455 0.951 . S
C1474 C1472 1.388 . S
C1474 C1475 1.366 . S
C1475 C1474 1.366 . S
C1475 C1476 1.453 . S
C1475 C1478 1.499 . S
C1476 H1456 0.891 1_565 S
C1476 C1475 1.453 . S
C1476 C1477 1.397 . S
C1477 H1457 0.934 1_565 S
C1477 C1473 1.385 . S
C1477 C1476 1.397 . S
C1478 C1475 1.499 . S
C1478 C1479 1.373 1_565 S
C1478 C1480 1.389 . S
C1479 H1458 0.950 . S
C1479 C1478 1.373 1_545 S
C1479 C1495 1.377 . S
C1480 C1478 1.389 . S
C1480 C1481 1.524 . S
C1480 C1494 1.377 . S
C1481 C1480 1.524 . S
C1481 C1482 1.397 . S
C1481 C1486 1.363 . S
C1482 H1459 0.950 1_565 S
C1482 C1481 1.397 . S
C1482 C1483 1.334 . S
C1483 H1460 0.950 . S
C1483 C1482 1.334 . S
C1483 C1484 1.287 . S
C1484 C1483 1.287 . S
C1484 C1485 1.524 . S
C1484 H1503 0.913 . S
C1485 H1461 0.950 . S
C1485 C1484 1.524 . S
C1485 C1486 1.415 . S
C1486 H1462 0.950 . S
C1486 C1481 1.363 . S
C1486 C1485 1.415 . S
C1487 H1463 0.951 . S
C1487 C1488 1.366 . S
C1487 C1489 1.388 . S
C1488 C1487 1.366 . S
C1488 C1492 1.385 . S
C1489 H1464 0.951 . S
C1489 C1487 1.388 . S
C1489 C1490 1.366 . S
C1490 C1489 1.366 . S
C1490 C1491 1.453 . S
C1490 C1493 1.499 . S
C1491 H1465 0.891 1_545 S
C1491 C1490 1.453 . S
C1491 C1492 1.397 . S
C1492 H1466 0.934 1_545 S
C1492 C1488 1.385 . S
C1492 C1491 1.397 . S
C1493 C1490 1.499 . S
C1493 C1494 1.373 1_545 S
C1493 C1495 1.389 . S
C1494 H1467 0.950 . S
C1494 C1480 1.377 . S
C1494 C1493 1.373 1_565 S
C1495 C1479 1.377 . S
C1495 C1493 1.389 . S
C1495 C1496 1.524 . S
C1496 C1495 1.524 . S
C1496 C1497 1.397 . S
C1496 C1501 1.363 . S
C1497 H1468 0.950 1_545 S
C1497 C1496 1.397 . S
C1497 C1498 1.334 . S
C1498 H1469 0.950 . S
C1498 C1497 1.334 . S
C1498 C1499 1.287 . S
C1499 C1498 1.287 . S
C1499 C1500 1.524 . S
C1499 H1502 0.999 . S
C1500 H1470 0.950 . S
C1500 C1499 1.524 . S
C1500 C1501 1.415 . S
C1501 H1471 0.950 . S
C1501 C1496 1.363 . S
C1501 C1500 1.415 . S
H1502 C1499 0.999 . S
H1503 C1484 0.913 . S
C723 C137 1.515 . S
C738 C20 1.515 . S
C773 C225 1.515 . S
C788 C293 1.515 . S
C823 C381 1.515 . S
C838 C489 1.515 . S
C873 C585 1.515 . S
C888 C636 1.515 . S
C923 C645 1.373 . S
C938 C29 1.373 . S
C973 C577 1.374 . S
C988 C145 1.373 . S
C1023 C233 1.374 . S
C1038 C497 1.373 . S
C1073 C372 1.373 . S
C1088 C284 1.373 . S
C1123 C469 1.381 . S
C1138 C205 1.380 . S
C1173 C401 1.381 . S
C1188 C313 1.380 . S
C1223 C673 1.381 . S
C1238 C57 1.381 . S
C1273 C117 1.381 . S
C1288 C548 1.380 . S
C1323 C49 1.093 . S
C1338 C196 1.093 . S
C1373 C321 1.093 1_655 S
C1388 C108 1.093 1_655 S
C1423 C557 1.093 . S
C1438 C409 1.093 . S
C1473 C460 1.093 . S
C1488 C665 1.093 . S
