# Generated by pormake.
# Topology wjm, (5)-cn, num edge types: 1
# Building blocks:
#     Node 0, Type 0, BuildingBlock: XOMCOT_clean_sbu_1, # of connection points: 5
#     Node 1, Type 0, BuildingBlock: XOMCOT_clean_sbu_1, # of connection points: 5
#     Node 2, Type 0, BuildingBlock: XOMCOT_clean_sbu_1, # of connection points: 5
#     Node 3, Type 0, BuildingBlock: XOMCOT_clean_sbu_1, # of connection points: 5
#     Node 4, Type 0, BuildingBlock: XOMCOT_clean_sbu_1, # of connection points: 5
#     Node 5, Type 0, BuildingBlock: XOMCOT_clean_sbu_1, # of connection points: 5
#     Node 6, Type 0, BuildingBlock: XOMCOT_clean_sbu_1, # of connection points: 5
#     Node 7, Type 0, BuildingBlock: XOMCOT_clean_sbu_1, # of connection points: 5
#     Node 8, Type 0, BuildingBlock: XOMCOT_clean_sbu_1, # of connection points: 5
#     Node 9, Type 0, BuildingBlock: XOMCOT_clean_sbu_1, # of connection points: 5
#     Node 10, Type 0, BuildingBlock: XOMCOT_clean_sbu_1, # of connection points: 5
#     Node 11, Type 0, BuildingBlock: XOMCOT_clean_sbu_1, # of connection points: 5
#     Edge 12, Type (0, 0), BuildingBlock: EZIPEK_clean_linker_0, # of connection points: 2
#     Edge 13, Type (0, 0), BuildingBlock: EZIPEK_clean_linker_0, # of connection points: 2
#     Edge 14, Type (0, 0), BuildingBlock: EZIPEK_clean_linker_0, # of connection points: 2
#     Edge 15, Type (0, 0), BuildingBlock: EZIPEK_clean_linker_0, # of connection points: 2
#     Edge 16, Type (0, 0), BuildingBlock: EZIPEK_clean_linker_0, # of connection points: 2
#     Edge 17, Type (0, 0), BuildingBlock: EZIPEK_clean_linker_0, # of connection points: 2
#     Edge 18, Type (0, 0), BuildingBlock: EZIPEK_clean_linker_0, # of connection points: 2
#     Edge 19, Type (0, 0), BuildingBlock: EZIPEK_clean_linker_0, # of connection points: 2
#     Edge 20, Type (0, 0), BuildingBlock: EZIPEK_clean_linker_0, # of connection points: 2
#     Edge 21, Type (0, 0), BuildingBlock: EZIPEK_clean_linker_0, # of connection points: 2
#     Edge 22, Type (0, 0), BuildingBlock: EZIPEK_clean_linker_0, # of connection points: 2
#     Edge 23, Type (0, 0), BuildingBlock: EZIPEK_clean_linker_0, # of connection points: 2
#     Edge 24, Type (0, 0), BuildingBlock: EZIPEK_clean_linker_0, # of connection points: 2
#     Edge 25, Type (0, 0), BuildingBlock: EZIPEK_clean_linker_0, # of connection points: 2
#     Edge 26, Type (0, 0), BuildingBlock: EZIPEK_clean_linker_0, # of connection points: 2
#     Edge 27, Type (0, 0), BuildingBlock: EZIPEK_clean_linker_0, # of connection points: 2
#     Edge 28, Type (0, 0), BuildingBlock: EZIPEK_clean_linker_0, # of connection points: 2
#     Edge 29, Type (0, 0), BuildingBlock: EZIPEK_clean_linker_0, # of connection points: 2
#     Edge 30, Type (0, 0), BuildingBlock: EZIPEK_clean_linker_0, # of connection points: 2
#     Edge 31, Type (0, 0), BuildingBlock: EZIPEK_clean_linker_0, # of connection points: 2
#     Edge 32, Type (0, 0), BuildingBlock: EZIPEK_clean_linker_0, # of connection points: 2
#     Edge 33, Type (0, 0), BuildingBlock: EZIPEK_clean_linker_0, # of connection points: 2
#     Edge 34, Type (0, 0), BuildingBlock: EZIPEK_clean_linker_0, # of connection points: 2
#     Edge 35, Type (0, 0), BuildingBlock: EZIPEK_clean_linker_0, # of connection points: 2
#     Edge 36, Type (0, 0), BuildingBlock: EZIPEK_clean_linker_0, # of connection points: 2
#     Edge 37, Type (0, 0), BuildingBlock: EZIPEK_clean_linker_0, # of connection points: 2
#     Edge 38, Type (0, 0), BuildingBlock: EZIPEK_clean_linker_0, # of connection points: 2
#     Edge 39, Type (0, 0), BuildingBlock: EZIPEK_clean_linker_0, # of connection points: 2
#     Edge 40, Type (0, 0), BuildingBlock: EZIPEK_clean_linker_0, # of connection points: 2
#     Edge 41, Type (0, 0), BuildingBlock: EZIPEK_clean_linker_0, # of connection points: 2
# Relax obj value: 0.703
# Max RMSD: 0.271
# Mean RMSD: 0.271
data_MOF--net-wjm--node1-XOMCOT_clean_sbu_1--edge1-EZIPEK_clean_linker_0
_symmetry_space_group_name_H-M    P1
_symmetry_Int_Tables_number       1
_symmetry_cell_setting            triclinic
loop_
_symmetry_equiv_pos_as_xyz
'x, y, z'
_cell_length_a     24.316668
_cell_length_b     24.412411
_cell_length_c     30.98993
_cell_angle_alpha  90.102411
_cell_angle_beta   89.985391
_cell_angle_gamma 120.23305
loop_
_atom_site_label
_atom_site_type_symbol
_atom_site_fract_x
_atom_site_fract_y
_atom_site_fract_z
_atom_type_partial_charge
C0 C 0.32087 0.48776 0.25335 0.0
C1 C 0.34859 0.52507 0.28891 0.0
N2 N 0.30379 0.50753 0.31945 0.0
N3 N 0.25879 0.44624 0.26187 0.0
C4 C 0.25003 0.46027 0.30255 0.0
H5 H 0.34571 0.49204 0.2237 0.0
Co6 Co 0.19157 0.38343 0.22967 0.0
C7 C 0.21956 0.31588 0.3028 0.0
O8 O 0.27809 0.35012 0.28849 0.0
N9 N 0.12449 0.32269 0.19631 0.0
C10 C 0.0528 0.23323 0.1642 0.0
C11 C 0.07744 0.26263 0.20358 0.0
C12 C 0.12638 0.32918 0.15295 0.0
N13 N 0.08428 0.27548 0.1326 0.0
O14 O 0.13925 0.42219 0.24675 0.0
H15 H 0.06597 0.24 0.23486 0.0
H16 H 0.16218 0.37097 0.13632 0.0
O17 O 0.17453 0.32165 0.28348 0.0
C18 C 0.15619 0.46815 0.21937 0.0
O19 O 0.20018 0.4764 0.19126 0.0
N20 N 0.24232 0.3556 0.20428 0.0
C21 C 0.31439 0.32193 0.1526 0.0
C22 C 0.26653 0.27698 0.17956 0.0
C23 C 0.22957 0.29448 0.2041 0.0
C24 C 0.28173 0.39657 0.17394 0.0
C25 C 0.31952 0.38182 0.14886 0.0
H26 H 0.18887 0.25874 0.22135 0.0
H27 H 0.28315 0.44098 0.16865 0.0
H28 H 0.20506 0.43629 0.3195 0.0
H29 H 0.39778 0.56232 0.29224 0.0
H30 H 0.0181 0.18372 0.15907 0.0
H31 H 0.25618 0.22857 0.18109 0.0
H32 H 0.35342 0.4183 0.12758 0.0
C33 C 0.80665 0.34862 0.5669 0.0
C34 C 0.79455 0.3827 0.59695 0.0
N35 N 0.79774 0.36113 0.63611 0.0
N36 N 0.81913 0.30708 0.58728 0.0
C37 C 0.81061 0.31431 0.62948 0.0
H38 H 0.80621 0.35427 0.53242 0.0
Co39 Co 0.83686 0.24786 0.56223 0.0
C40 C 0.93496 0.30617 0.63876 0.0
O41 O 0.94283 0.36112 0.62654 0.0
N42 N 0.85245 0.18891 0.5338 0.0
C43 C 0.91133 0.15332 0.50285 0.0
C44 C 0.896 0.17128 0.54148 0.0
C45 C 0.84107 0.17967 0.49079 0.0
N46 N 0.87737 0.15988 0.47096 0.0
O47 O 0.7545 0.18067 0.58569 0.0
H48 H 0.92108 0.17874 0.57168 0.0
H49 H 0.81281 0.19504 0.47328 0.0
O50 O 0.89411 0.25546 0.6172 0.0
C51 C 0.71244 0.17678 0.55839 0.0
O52 O 0.73347 0.21028 0.52287 0.0
N53 N 0.9066 0.3108 0.53279 0.0
C54 C 0.99257 0.41673 0.48841 0.0
C55 C 0.01376 0.39232 0.52126 0.0
C56 C 0.96967 0.33574 0.54115 0.0
C57 C 0.88829 0.32667 0.49553 0.0
C58 C 0.93161 0.37834 0.47144 0.0
H59 H 0.98539 0.31357 0.56408 0.0
H60 H 0.83893 0.30139 0.48583 0.0
H61 H 0.81578 0.2873 0.65518 0.0
H62 H 0.78661 0.42182 0.59078 0.0
H63 H 0.94916 0.14283 0.49795 0.0
H64 H 0.06231 0.41817 0.53294 0.0
H65 H 0.91492 0.39366 0.44414 0.0
C66 C 0.50158 0.84435 0.88356 0.0
C67 C 0.45032 0.82782 0.91029 0.0
N68 N 0.46284 0.80958 0.94813 0.0
N69 N 0.54585 0.83698 0.905 0.0
C70 C 0.52046 0.81521 0.94416 0.0
H71 H 0.5054 0.8589 0.85025 0.0
Co72 Co 0.61735 0.83971 0.88216 0.0
C73 C 0.71789 0.93826 0.95201 0.0
O74 O 0.75741 0.97297 0.92139 0.0
N75 N 0.68748 0.83934 0.85465 0.0
C76 C 0.78073 0.87267 0.82165 0.0
C77 C 0.75115 0.86971 0.86065 0.0
C78 C 0.6801 0.81997 0.81288 0.0
N79 N 0.73545 0.84332 0.79122 0.0
O80 O 0.58336 0.75069 0.90156 0.0
H81 H 0.77529 0.8926 0.89013 0.0
H82 H 0.63438 0.7945 0.79704 0.0
O83 O 0.66697 0.88495 0.94087 0.0
C84 C 0.53782 0.71473 0.87532 0.0
O85 O 0.52606 0.74299 0.84356 0.0
N86 N 0.64078 0.91781 0.8562 0.0
C87 C 0.66751 0.02099 0.80301 0.0
C88 C 0.67413 0.02769 0.84847 0.0
C89 C 0.65851 0.97512 0.8744 0.0
C90 C 0.62926 0.90971 0.81301 0.0
C91 C 0.64534 0.9604 0.7858 0.0
H92 H 0.65768 0.98035 0.90882 0.0
H93 H 0.60401 0.86287 0.79943 0.0
H94 H 0.54348 0.80309 0.96923 0.0
H95 H 0.40772 0.82954 0.9029 0.0
H96 H 0.83136 0.89978 0.81534 0.0
H97 H 0.68705 0.07186 0.86464 0.0
H98 H 0.63626 0.95054 0.75176 0.0
C99 C 0.70074 0.43674 0.21693 0.0
C100 C 0.6662 0.38501 0.24269 0.0
N101 N 0.65315 0.40527 0.2795 0.0
N102 N 0.70946 0.48942 0.2374 0.0
C103 C 0.68004 0.46872 0.27576 0.0
H104 H 0.71654 0.43572 0.18449 0.0
Co105 Co 0.74811 0.56681 0.20945 0.0
C106 C 0.72322 0.65466 0.27256 0.0
O107 O 0.6995 0.66934 0.23939 0.0
N108 N 0.78798 0.64472 0.17749 0.0
C109 C 0.83452 0.74593 0.15607 0.0
C110 C 0.82138 0.70569 0.19096 0.0
C111 C 0.78431 0.64983 0.13402 0.0
N112 N 0.81081 0.71018 0.12034 0.0
O113 O 0.82957 0.57273 0.22398 0.0
H114 H 0.83447 0.72034 0.2241 0.0
H115 H 0.76252 0.61053 0.11189 0.0
O116 O 0.74336 0.61484 0.26559 0.0
C117 C 0.84289 0.546 0.19282 0.0
O118 O 0.81899 0.54676 0.15499 0.0
N119 N 0.66844 0.54692 0.18897 0.0
C120 C 0.55037 0.45952 0.15499 0.0
C121 C 0.55461 0.49159 0.19376 0.0
C122 C 0.6147 0.53461 0.21088 0.0
C123 C 0.66386 0.51666 0.15091 0.0
C124 C 0.60573 0.47372 0.13307 0.0
H125 H 0.61742 0.55127 0.2435 0.0
H126 H 0.70524 0.51781 0.1375 0.0
H127 H 0.67442 0.49824 0.29917 0.0
H128 H 0.65 0.33602 0.23461 0.0
H129 H 0.85907 0.79721 0.1569 0.0
H130 H 0.51224 0.47895 0.21248 0.0
H131 H 0.60424 0.44716 0.10458 0.0
C132 C 0.28015 0.87793 0.66846 0.0
C133 C 0.28619 0.84594 0.70289 0.0
N134 N 0.25226 0.78371 0.69384 0.0
N135 N 0.24372 0.83578 0.63784 0.0
C136 C 0.22612 0.7784 0.65475 0.0
H137 H 0.30102 0.92872 0.66568 0.0
Co138 Co 0.21795 0.86006 0.58961 0.0
C139 C 0.0781 0.82656 0.63001 0.0
O140 O 0.05405 0.8436 0.59838 0.0
N141 N 0.19229 0.88798 0.54026 0.0
C142 C 0.15014 0.92813 0.49542 0.0
C143 C 0.1617 0.92106 0.53814 0.0
C144 C 0.20188 0.87872 0.49825 0.0
N145 N 0.17575 0.90167 0.47015 0.0
O146 O 0.30424 0.88725 0.55827 0.0
H147 H 0.14884 0.93925 0.56579 0.0
H148 H 0.22603 0.85383 0.4883 0.0
O149 O 0.1343 0.83321 0.62523 0.0
C150 C 0.35454 0.88487 0.56932 0.0
O151 O 0.35612 0.86169 0.60708 0.0
N152 N 0.18076 0.7782 0.56407 0.0
C153 C 0.12717 0.6735 0.50752 0.0
C154 C 0.09132 0.69946 0.52428 0.0
C155 C 0.11912 0.75198 0.55109 0.0
C156 C 0.21458 0.74958 0.55281 0.0
C157 C 0.18871 0.69724 0.52497 0.0
H158 H 0.09161 0.77395 0.55881 0.0
H159 H 0.26204 0.76709 0.56484 0.0
H160 H 0.19355 0.73356 0.63967 0.0
H161 H 0.31293 0.86638 0.73226 0.0
H162 H 0.12524 0.95152 0.48375 0.0
H163 H 0.0419 0.68129 0.51687 0.0
H164 H 0.21727 0.67585 0.51823 0.0
C165 C 0.56174 0.25126 0.8944 0.0
C166 C 0.60936 0.26549 0.92392 0.0
N167 N 0.58144 0.24197 0.96213 0.0
N168 N 0.50466 0.21804 0.9141 0.0
C169 C 0.51853 0.21481 0.95565 0.0
H170 H 0.56827 0.26227 0.86036 0.0
Co171 Co 0.42566 0.18551 0.8881 0.0
C172 C 0.35193 0.07047 0.95481 0.0
O173 O 0.33905 0.02979 0.92327 0.0
N174 N 0.34498 0.1545 0.85902 0.0
C175 C 0.24994 0.08701 0.83027 0.0
C176 C 0.28715 0.10347 0.8671 0.0
C177 C 0.33923 0.17037 0.81788 0.0
N178 N 0.28412 0.12796 0.79875 0.0
O179 O 0.42921 0.26515 0.90556 0.0
H180 H 0.27374 0.07631 0.8964 0.0
H181 H 0.37741 0.20866 0.80014 0.0
O182 O 0.38127 0.13108 0.94553 0.0
C183 C 0.46483 0.30321 0.87529 0.0
O184 O 0.47382 0.27656 0.84128 0.0
N185 N 0.43657 0.12134 0.86265 0.0
C186 C 0.51566 0.09012 0.81705 0.0
C187 C 0.50222 0.07364 0.8607 0.0
C188 C 0.46266 0.09024 0.88317 0.0
C189 C 0.44624 0.1326 0.8193 0.0
C190 C 0.48466 0.11678 0.79592 0.0
H191 H 0.46096 0.08627 0.91769 0.0
H192 H 0.4349 0.1642 0.80338 0.0
H193 H 0.48366 0.19126 0.98075 0.0
H194 H 0.65984 0.28754 0.91744 0.0
H195 H 0.2039 0.04478 0.82586 0.0
H196 H 0.52721 0.05434 0.87817 0.0
H197 H 0.49606 0.13228 0.76268 0.0
C198 C 0.53723 0.76752 0.42777 0.0
C199 C 0.48343 0.72406 0.40693 0.0
N200 N 0.44674 0.67904 0.43549 0.0
N201 N 0.53524 0.74962 0.46922 0.0
C202 C 0.47803 0.69628 0.4734 0.0
H203 H 0.57665 0.80885 0.41319 0.0
Co204 Co 0.60487 0.7954 0.50501 0.0
C205 C 0.64669 0.73661 0.43104 0.0
O206 O 0.5936 0.68449 0.44081 0.0
N207 N 0.67485 0.84247 0.54244 0.0
C208 C 0.76879 0.88335 0.57573 0.0
C209 C 0.73818 0.86979 0.53603 0.0
C210 C 0.66844 0.84087 0.58606 0.0
N211 N 0.7245 0.86448 0.60707 0.0
O212 O 0.60235 0.87211 0.48659 0.0
H213 H 0.76031 0.87526 0.50485 0.0
H214 H 0.62295 0.8186 0.60237 0.0
O215 O 0.66145 0.78836 0.45335 0.0
C216 C 0.56117 0.87075 0.51388 0.0
O217 O 0.5444 0.83073 0.54606 0.0
N218 N 0.59607 0.72378 0.53073 0.0
C219 C 0.56581 0.6148 0.57459 0.0
C220 C 0.62015 0.64352 0.54823 0.0
C221 C 0.63702 0.70132 0.52887 0.0
C222 C 0.55011 0.70211 0.56174 0.0
C223 C 0.53638 0.64915 0.58596 0.0
H224 H 0.68134 0.72717 0.5117 0.0
H225 H 0.52255 0.72494 0.56695 0.0
H226 H 0.46041 0.66903 0.5027 0.0
H227 H 0.47271 0.72417 0.37302 0.0
H228 H 0.81915 0.90225 0.58114 0.0
H229 H 0.64746 0.62061 0.54137 0.0
H230 H 0.49697 0.63026 0.60849 0.0
C231 C 0.83815 0.51985 0.86188 0.0
C232 C 0.83135 0.47072 0.83618 0.0
N233 N 0.81684 0.48078 0.79623 0.0
N234 N 0.82891 0.56052 0.83763 0.0
C235 C 0.81475 0.53464 0.79799 0.0
H236 H 0.84913 0.52578 0.89599 0.0
Co237 Co 0.82501 0.6303 0.85663 0.0
C238 C 0.91361 0.72512 0.78642 0.0
O239 O 0.9462 0.76389 0.818 0.0
N240 N 0.81468 0.69567 0.87946 0.0
C241 C 0.82248 0.78325 0.90768 0.0
C242 C 0.83037 0.75591 0.87052 0.0
C243 C 0.79337 0.68647 0.92063 0.0
N244 N 0.80147 0.73968 0.93956 0.0
O245 O 0.73185 0.58244 0.84216 0.0
H246 H 0.85114 0.78014 0.84058 0.0
H247 H 0.78206 0.64411 0.93859 0.0
O248 O 0.8599 0.67384 0.79573 0.0
C249 C 0.70053 0.53879 0.87064 0.0
O250 O 0.73363 0.53355 0.90222 0.0
N251 N 0.91256 0.67079 0.8769 0.0
C252 C 0.01841 0.68699 0.92198 0.0
C253 C 1.00588 0.66131 0.88029 0.0
C254 C 0.95369 0.65531 0.85781 0.0
C255 C 0.93192 0.70631 0.91409 0.0
C256 C 0.9854 0.71592 0.93676 0.0
H257 H 0.943 0.6316 0.82714 0.0
H258 H 0.90536 0.72469 0.92903 0.0
H259 H 0.80307 0.55473 0.77083 0.0
H260 H 0.83764 0.43156 0.84564 0.0
H261 H 0.83717 0.83276 0.91202 0.0
H262 H 0.03176 0.63977 0.86706 0.0
H263 H 0.99661 0.74005 0.96764 0.0
C264 C 0.3285 0.75542 0.18052 0.0
C265 C 0.35474 0.73809 0.1475 0.0
N266 N 0.34062 0.7561 0.11013 0.0
N267 N 0.29954 0.78538 0.16369 0.0
C268 C 0.30611 0.78311 0.12073 0.0
H269 H 0.33349 0.74994 0.21466 0.0
Co270 Co 0.26158 0.82424 0.19301 0.0
C271 C 0.25378 0.91371 0.1165 0.0
O272 O 0.20774 0.9183 0.13514 0.0
N273 N 0.22361 0.86378 0.22461 0.0
C274 C 0.22739 0.94366 0.2615 0.0
C275 C 0.24669 0.92671 0.22477 0.0
C276 C 0.19058 0.84399 0.26225 0.0
N277 N 0.19014 0.8915 0.28546 0.0
O278 O 0.17897 0.7481 0.17845 0.0
H279 H 0.28307 0.95969 0.20304 0.0
H280 H 0.17543 0.79749 0.27496 0.0
O281 O 0.27411 0.88016 0.1364 0.0
C282 C 0.1762 0.70844 0.20759 0.0
O283 O 0.21675 0.73228 0.23968 0.0
N284 N 0.34031 0.88314 0.21596 0.0
C285 C 0.45297 0.906 0.25424 0.0
C286 C 0.45388 0.93381 0.21426 0.0
C287 C 0.39623 0.92089 0.1952 0.0
C288 C 0.34024 0.86395 0.2573 0.0
C289 C 0.39568 0.8732 0.27655 0.0
H290 H 0.39638 0.93604 0.16282 0.0
H291 H 0.29599 0.8336 0.27357 0.0
H292 H 0.28964 0.80432 0.09727 0.0
H293 H 0.38602 0.71881 0.15085 0.0
H294 H 0.24711 0.99231 0.27167 0.0
H295 H 0.49779 0.95971 0.19621 0.0
H296 H 0.39298 0.85062 0.30719 0.0
C297 C 0.39825 0.132 0.41767 0.0
C298 C 0.44017 0.16051 0.38412 0.0
N299 N 0.48311 0.21948 0.39672 0.0
N300 N 0.41376 0.17346 0.45062 0.0
C301 C 0.46735 0.22582 0.43715 0.0
H302 H 0.35688 0.08499 0.41729 0.0
Co303 Co 0.35911 0.15204 0.4979 0.0
C304 C 0.27828 0.21305 0.45659 0.0
O305 O 0.28705 0.25049 0.48959 0.0
N306 N 0.30001 0.12501 0.54572 0.0
C307 C 0.22014 0.11212 0.58848 0.0
C308 C 0.24326 0.12274 0.54685 0.0
C309 C 0.30728 0.11043 0.58697 0.0
N310 N 0.26137 0.10587 0.61389 0.0
O311 O 0.41835 0.12752 0.53035 0.0
H312 H 0.22036 0.13047 0.51973 0.0
H313 H 0.3476 0.107 0.59806 0.0
O314 O 0.30125 0.1751 0.45955 0.0
C315 C 0.47986 0.16025 0.53465 0.0
O316 O 0.51097 0.21892 0.5209 0.0
N317 N 0.40398 0.23551 0.52191 0.0
C318 C 0.46219 0.35432 0.56052 0.0
C319 C 0.44624 0.34748 0.51669 0.0
C320 C 0.41634 0.28751 0.49818 0.0
C321 C 0.42206 0.24306 0.56443 0.0
C322 C 0.45003 0.30167 0.58457 0.0
H323 H 0.40374 0.2832 0.46446 0.0
H324 H 0.4167 0.20441 0.58349 0.0
H325 H 0.4935 0.26937 0.45514 0.0
H326 H 0.43756 0.14089 0.35233 0.0
H327 H 0.17838 0.11291 0.5997 0.0
H328 H 0.45487 0.38799 0.49733 0.0
H329 H 0.46155 0.3057 0.61864 0.0
C330 C 0.26225 0.56832 0.87051 0.0
C331 C 0.27555 0.6214 0.84741 0.0
N332 N 0.24291 0.60203 0.81029 0.0
N333 N 0.22205 0.51596 0.84771 0.0
C334 C 0.21082 0.53828 0.81101 0.0
H335 H 0.27927 0.56815 0.90267 0.0
Co336 Co 0.19047 0.43493 0.86956 0.0
C337 C 0.08133 0.35616 0.80154 0.0
O338 O 0.04016 0.33722 0.83344 0.0
N339 N 0.16029 0.35307 0.89542 0.0
C340 C 0.09595 0.25281 0.91649 0.0
C341 C 0.1188 0.29359 0.88157 0.0
C342 C 0.16604 0.34509 0.93819 0.0
N343 N 0.12529 0.28611 0.95216 0.0
O344 O 0.27143 0.44163 0.8518 0.0
H345 H 0.10292 0.28046 0.84879 0.0
H346 H 0.19652 0.38253 0.96009 0.0
O347 O 0.14132 0.39343 0.81115 0.0
C348 C 0.31136 0.47046 0.8828 0.0
O349 O 0.28637 0.47104 0.92023 0.0
N350 N 0.12259 0.44081 0.89318 0.0
C351 C 0.08185 0.51559 0.93343 0.0
C352 C 0.06571 0.49735 0.89034 0.0
C353 C 0.08696 0.45997 0.87053 0.0
C354 C 0.1341 0.45525 0.93609 0.0
C355 C 0.1123 0.49067 0.95725 0.0
H356 H 0.08297 0.45544 0.83592 0.0
H357 H 0.17012 0.45078 0.95259 0.0
H358 H 0.17795 0.50912 0.78622 0.0
H359 H 0.30512 0.67028 0.85746 0.0
H360 H 0.0577 0.20393 0.91608 0.0
H361 H 0.04317 0.51754 0.87102 0.0
H362 H 0.12732 0.50616 0.99014 0.0
C363 C 0.65775 0.14216 0.18047 0.0
C364 C 0.6222 0.15232 0.15049 0.0
N365 N 0.66053 0.18295 0.11713 0.0
N366 N 0.71782 0.16578 0.16543 0.0
C367 C 0.71773 0.19073 0.12674 0.0
H368 H 0.6403 0.12004 0.2114 0.0
Co369 Co 0.79081 0.17455 0.19189 0.0
C370 C 0.76011 0.09428 0.11229 0.0
O371 O 0.81224 0.13701 0.13145 0.0
N372 N 0.86195 0.18463 0.22211 0.0
C373 C 0.92586 0.15852 0.25658 0.0
C374 C 0.90097 0.16083 0.21673 0.0
C375 C 0.8649 0.1974 0.26487 0.0
N376 N 0.90203 0.18067 0.28683 0.0
O377 O 0.83779 0.26644 0.17484 0.0
H378 H 0.90485 0.13927 0.18726 0.0
H379 H 0.83403 0.21138 0.28048 0.0
O380 O 0.80912 0.13737 0.13387 0.0
C381 C 0.82079 0.29878 0.19897 0.0
O382 O 0.77646 0.26714 0.22792 0.0
N383 N 0.74586 0.09311 0.21524 0.0
C384 C 0.67973 0.98432 0.26572 0.0
C385 C 0.71556 0.98509 0.22976 0.0
C386 C 0.74927 0.04034 0.20537 0.0
C387 C 0.71785 0.09546 0.25255 0.0
C388 C 0.68476 0.04226 0.27816 0.0
H389 H 0.77873 0.0403 0.17941 0.0
H390 H 0.72079 0.13944 0.26228 0.0
H391 H 0.75888 0.2142 0.10587 0.0
H392 H 0.57237 0.13825 0.15275 0.0
H393 H 0.95389 0.1364 0.26334 0.0
H394 H 0.71698 0.94342 0.21981 0.0
H395 H 0.66093 0.0468 0.30624 0.0
C396 C 0.45844 0.40119 0.10305 0.0
C397 C 0.49028 0.40242 0.14191 0.0
C398 C 0.40085 0.29887 0.16128 0.0
C399 C 0.3639 0.31116 0.13234 0.0
N400 N 0.36201 0.34184 0.05973 0.0
N401 N 0.50157 0.34175 0.19924 0.0
C402 C 0.39562 0.34971 0.0966 0.0
C403 C 0.46483 0.34726 0.16821 0.0
N404 N 0.48545 0.45071 0.07478 0.0
N405 N 0.37494 0.24098 0.18048 0.0
H406 H 0.5501 0.37426 0.20218 0.0
H407 H 0.48421 0.3054 0.22188 0.0
H408 H 0.33 0.20424 0.17151 0.0
H409 H 0.39964 0.22751 0.20123 0.0
H410 H 0.46198 0.45415 0.04774 0.0
H411 H 0.53063 0.49001 0.07941 0.0
H412 H 0.38212 0.36704 1.03144 0.0
H413 H 0.31432 0.30599 0.05751 0.0
C414 C 0.9967 0.52101 0.48158 0.0
C415 C 0.02802 0.48516 0.47796 0.0
C416 C 0.12835 0.58397 0.46479 0.0
C417 C 0.09701 0.61718 0.47717 0.0
N418 N 1.00122 0.61499 0.4543 0.0
N419 N 0.12055 0.48108 0.45428 0.0
C420 C 0.03088 0.58517 0.47106 0.0
C421 C 0.09316 0.51616 0.4652 0.0
N422 N 0.93749 0.49702 0.49916 0.0
N423 N 0.18866 0.61731 0.44898 0.0
H424 H 0.09411 0.43179 0.45149 0.0
H425 H 0.16877 0.50023 0.44782 0.0
H426 H 0.2106 0.66625 0.44424 0.0
H427 H 0.21436 0.59672 0.43778 0.0
H428 H 0.91654 0.52493 0.50346 0.0
H429 H 0.91347 0.45347 0.51477 0.0
H430 H 0.95257 0.59083 0.4474 0.0
H431 H 0.02699 0.662 0.44409 0.0
C432 C 0.63408 0.13731 0.81005 0.0
C433 C 0.57115 0.09241 0.79588 0.0
C434 C 0.61746 0.05045 0.74614 0.0
C435 C 0.66872 0.07182 0.77515 0.0
N436 N 0.74687 0.16877 0.80696 0.0
N437 N 0.50511 0.01431 0.74199 0.0
C438 C 0.68493 0.12876 0.79623 0.0
C439 C 0.56325 0.05228 0.76032 0.0
N440 N 0.64415 0.18524 0.83737 0.0
N441 N 0.62101 0.02826 0.70659 0.0
H442 H 0.46398 0.01365 0.75233 0.0
H443 H 0.49777 0.98111 0.71813 0.0
H444 H 0.66221 0.02821 0.69706 0.0
H445 H 0.58579 0.01528 0.68316 0.0
H446 H 0.68801 0.21647 0.8512 0.0
H447 H 0.6076 0.19338 0.84598 0.0
H448 H 0.76327 0.21245 0.822 0.0
H449 H 0.78183 0.15785 0.79838 0.0
C450 C 0.57104 0.52049 0.60032 0.0
C451 C 0.5344 0.54642 0.58423 0.0
C452 C 0.44278 0.44011 0.57901 0.0
C453 C 0.48411 0.41577 0.58135 0.0
N454 N 0.58867 0.43153 0.59596 0.0
N455 N 0.43533 0.52638 0.54977 0.0
C456 C 0.54849 0.45519 0.59354 0.0
C457 C 0.46948 0.50537 0.5723 0.0
N458 N 0.6271 0.55823 0.62128 0.0
N459 N 0.37841 0.40019 0.57947 0.0
H460 H 0.45415 0.57214 0.538 0.0
H461 H 0.38995 0.49578 0.53759 0.0
H462 H 0.35817 0.35133 0.58368 0.0
H463 H 0.34625 0.41661 0.58034 0.0
H464 H 0.65339 0.54057 0.63617 0.0
H465 H 0.64348 0.60606 0.62743 0.0
H466 H 0.63767 0.46015 0.60013 0.0
H467 H 0.57339 0.38364 0.59139 0.0
C468 C 0.02505 0.56188 0.97267 0.0
C469 C 0.0794 0.57067 0.95026 0.0
C470 C 0.11441 0.68201 0.93795 0.0
C471 C 0.05384 0.66888 0.95179 0.0
N472 N 0.97025 0.61254 1.0036 0.0
N473 N 0.18749 0.64276 0.92794 0.0
C474 C 0.01598 0.61444 0.97714 0.0
C475 C 0.12868 0.63251 0.93892 0.0
N476 N 0.98102 0.50314 0.98732 0.0
N477 N 0.15424 0.73938 0.91959 0.0
H478 H 0.19865 0.60681 0.92899 0.0
H479 H 0.22629 0.68734 0.92134 0.0
H480 H 0.14281 0.77532 0.91944 0.0
H481 H 0.19656 0.7506 0.90403 0.0
H482 H 0.93693 0.49242 0.99976 0.0
H483 H 0.98807 0.46441 0.98546 0.0
H484 H 0.94313 0.57513 1.02451 0.0
H485 H 0.96482 0.65185 1.00812 0.0
C486 C 0.53265 0.87007 0.24359 0.0
C487 C 0.50879 0.90209 0.26943 0.0
C488 C 0.59567 0.92891 0.31997 0.0
C489 C 0.62946 0.92312 0.28519 0.0
N490 N 0.61308 0.83867 0.23827 0.0
N491 N 0.51413 0.95445 0.33755 0.0
C492 C 0.59193 0.87629 0.25499 0.0
C493 C 0.53776 0.9273 0.31032 0.0
N494 N 0.49996 0.8355 0.20836 0.0
N495 N 0.62356 0.94439 0.35954 0.0
H496 H 0.47426 0.95806 0.33027 0.0
H497 H 0.53685 0.97733 0.36605 0.0
H498 H 0.66803 0.94854 0.36439 0.0
H499 H 0.60096 0.94816 0.38701 0.0
H500 H 0.51866 0.81698 0.18628 0.0
H501 H 0.45463 0.82687 0.20081 0.0
H502 H 0.58596 0.80046 0.21782 0.0
H503 H 0.65629 0.84351 0.24843 0.0
C504 C 0.12738 0.24691 0.06937 0.0
C505 C 0.08419 0.26421 0.08674 0.0
C506 C 0.05975 0.285 1.01385 0.0
C507 C 0.10498 0.2703 0.99654 0.0
N508 N 0.17537 0.22946 1.00545 0.0
N509 N 1.00066 0.28761 0.07665 0.0
C510 C 0.13644 0.24829 1.02374 0.0
C511 C 0.04736 0.27909 0.05911 0.0
N512 N 0.16083 0.23103 0.09697 0.0
N513 N 0.03115 0.3076 0.98704 0.0
H514 H 0.99175 0.28396 0.10979 0.0
H515 H 0.96799 0.29361 0.05863 0.0
H516 H 0.03777 0.31057 0.95371 0.0
H517 H 1.00314 0.32602 0.99766 0.0
H518 H 0.19737 0.22315 0.08771 0.0
H519 H 0.15212 0.22647 0.13006 0.0
H520 H 0.19797 0.20965 1.0224 0.0
H521 H 0.18249 0.23086 0.97216 0.0
C522 C 0.85602 0.11437 0.35258 0.0
C523 C 0.90133 0.17284 0.33336 0.0
C524 C 0.93704 0.21989 0.40566 0.0
C525 C 0.88895 0.16271 0.42477 0.0
N526 N 0.80288 0.05597 0.41806 0.0
N527 N 0.98467 0.28094 0.34002 0.0
C528 C 0.84882 0.10987 0.39854 0.0
C529 C 0.94213 0.2254 0.35963 0.0
N530 N 0.81979 0.06346 0.32653 0.0
N531 N 0.97757 0.26877 0.43186 0.0
H532 H 0.99014 0.28491 0.30655 0.0
H533 H 0.01339 0.32338 0.35613 0.0
H534 H 0.9739 0.2663 0.46536 0.0
H535 H 0.01637 0.31077 0.42108 0.0
H536 H 0.78816 0.01804 0.33753 0.0
H537 H 0.82308 0.06604 0.29301 0.0
H538 H 0.76869 0.01603 0.40179 0.0
H539 H 0.79811 0.0517 0.45155 0.0
C540 C 0.72876 0.79957 0.71764 0.0
C541 C 0.74143 0.85173 0.74455 0.0
C542 C 0.74542 0.91324 0.68001 0.0
C543 C 0.7334 0.8613 0.65323 0.0
N544 N 0.72054 0.75781 0.64484 0.0
N545 N 0.76846 0.9609 0.75152 0.0
C546 C 0.72724 0.80525 0.67167 0.0
C547 C 0.75218 0.90957 0.72567 0.0
N548 N 0.71675 0.74411 0.73654 0.0
N549 N 0.74772 0.96516 0.66155 0.0
H550 H 0.76955 0.95912 0.78502 0.0
H551 H 0.78347 0.00629 0.74005 0.0
H552 H 0.74398 0.96906 0.62829 0.0
H553 H 0.74997 1.00281 0.6788 0.0
H554 H 0.70104 0.70172 0.71994 0.0
H555 H 0.72045 0.7401 0.76981 0.0
H556 H 0.72104 0.71756 0.65514 0.0
H557 H 0.71808 0.76056 0.61138 0.0
C558 C 0.75093 0.71263 0.05624 0.0
C559 C 0.80998 0.72997 0.07631 0.0
C560 C 0.8647 0.77538 1.00763 0.0
C561 C 0.80491 0.74866 0.98607 0.0
N562 N 0.69099 0.69175 0.98936 0.0
N563 N 0.9227 0.77206 0.07041 0.0
C564 C 0.74796 0.71785 1.01049 0.0
C565 C 0.86694 0.76078 0.05196 0.0
N566 N 0.6979 0.69171 0.08129 0.0
N567 N 0.91951 0.8143 0.98583 0.0
H568 H 0.92581 0.76123 0.10252 0.0
H569 H 0.96463 0.78712 0.05313 0.0
H570 H 0.92041 0.82577 0.95346 0.0
H571 H 0.96372 0.83997 1.00079 0.0
H572 H 0.654 0.68264 0.06955 0.0
H573 H 0.69944 0.68864 0.11482 0.0
H574 H 0.64731 0.66216 1.00399 0.0
H575 H 0.68802 0.69792 0.95628 0.0
C576 C 0.19331 0.9529 0.39783 0.0
C577 C 0.17355 0.89756 0.42307 0.0
C578 C 0.14193 0.83432 0.35564 0.0
C579 C 0.1711 0.8908 0.33082 0.0
N580 N 0.1778 0.99265 0.33047 0.0
N581 N 0.12569 0.78383 0.42518 0.0
C582 C 0.18372 0.94748 0.35234 0.0
C583 C 0.14712 0.83781 0.40168 0.0
N584 N 0.22394 0.01129 0.41681 0.0
N585 N 0.10023 0.77848 0.33602 0.0
H586 H 0.11787 0.78232 0.45822 0.0
H587 H 0.11802 0.74146 0.41162 0.0
H588 H 0.08491 0.77724 0.3044 0.0
H589 H 0.07341 0.73589 0.35246 0.0
H590 H 0.24326 0.05318 0.39909 0.0
H591 H 0.23626 0.01797 0.44939 0.0
H592 H 0.18157 0.03278 0.3453 0.0
H593 H 0.159 0.98447 0.2993 0.0
C594 C 0.26682 0.06513 0.73091 0.0
C595 C 0.2737 0.12 0.75234 0.0
C596 C 0.27889 0.16783 0.6815 0.0
C597 C 0.26465 0.11029 0.66062 0.0
N598 N 0.23334 1.00041 0.66597 0.0
N599 N 0.27574 0.2192 0.7479 0.0
C600 C 0.25483 0.05771 0.68559 0.0
C601 C 0.2765 0.17003 0.72746 0.0
N602 N 0.27654 0.02236 0.75295 0.0
N603 N 0.29758 0.2212 0.65749 0.0
H604 H 0.27286 0.22127 0.78141 0.0
H605 H 0.27189 0.25443 0.73164 0.0
H606 H 0.30196 0.22179 0.62401 0.0
H607 H 0.31466 0.26599 0.67101 0.0
H608 H 0.27769 0.98469 0.73798 0.0
H609 H 0.29076 0.02845 0.78513 0.0
H610 H 0.21796 0.95853 0.68317 0.0
H611 H 0.22537 0.99419 0.63276 0.0
C612 C 0.20635 0.24892 0.41909 0.0
C613 C 0.24714 0.22221 0.41529 0.0
C614 C 0.23806 0.23058 0.3357 0.0
C615 C 0.21181 0.2711 0.34037 0.0
N616 N 0.17205 0.31936 0.38928 0.0
N617 N 0.30089 0.18818 0.36505 0.0
C618 C 0.19577 0.27989 0.38289 0.0
C619 C 0.26205 0.21253 0.37223 0.0
N620 N 0.17462 0.24188 0.45688 0.0
N621 N 0.23813 0.20698 0.29585 0.0
H622 H 0.31641 0.16951 0.38879 0.0
H623 H 0.32122 0.18995 0.3351 0.0
H624 H 0.21727 0.21555 0.26957 0.0
H625 H 0.25014 0.17221 0.29021 0.0
H626 H 0.1408 0.25576 0.46073 0.0
H627 H 0.17561 0.21437 0.48226 0.0
H628 H 0.16682 0.33416 0.4198 0.0
H629 H 0.16081 0.33974 0.36375 0.0
C630 C 0.95258 0.2687 0.71355 0.0
C631 C 0.97747 0.30837 0.67666 0.0
C632 C 0.07945 0.37318 0.718 0.0
C633 C 0.05334 0.33479 0.75543 0.0
N634 N 0.97499 0.23017 0.77967 0.0
N635 N 0.07286 0.3888 0.64134 0.0
C636 C 0.99288 0.27779 0.75028 0.0
C637 C 0.04324 0.35779 0.6784 0.0
N638 N 0.88944 0.224 0.71496 0.0
N639 N 0.13903 0.42509 0.71971 0.0
H640 H 0.04983 0.37959 0.61186 0.0
H641 H 0.12174 0.41928 0.63862 0.0
H642 H 0.17257 0.4305 0.7426 0.0
H643 H 0.15555 0.46247 0.69786 0.0
H644 H 0.86696 0.19894 0.74285 0.0
H645 H 0.85833 0.21539 0.68939 0.0
H646 H 0.9346 0.18556 0.77604 0.0
H647 H 1.00504 0.23238 0.80445 0.0
C648 C 0.79329 0.01096 1.01289 0.0
C649 C 0.72957 0.97031 0.99728 0.0
C650 C 0.69346 1.00171 0.06315 0.0
C651 C 0.7562 0.05152 0.07394 0.0
N652 N 0.86719 0.10662 0.05235 0.0
N653 N 0.62049 0.9446 1.00542 0.0
C654 C 0.80673 0.05704 0.04707 0.0
C655 C 0.68012 0.96999 1.02209 0.0
N656 N 0.84148 1.00434 0.99603 0.0
N657 N 0.64509 0.98373 0.09227 0.0
H658 H 0.60893 0.92704 0.97423 0.0
H659 H 0.58538 0.94989 1.0207 0.0
H660 H 0.65116 1.00442 0.12269 0.0
H661 H 0.60036 0.94365 0.08775 0.0
H662 H 0.88761 0.02784 1.00841 0.0
H663 H 0.83347 0.96957 0.97323 0.0
H664 H 0.90374 0.11637 1.03065 0.0
H665 H 0.88008 0.14141 0.07578 0.0
C666 C 0.69672 0.67606 0.39576 0.0
C667 C 0.68593 0.72878 0.39447 0.0
C668 C 0.72426 0.74451 0.31825 0.0
C669 C 0.7223 0.6846 0.31704 0.0
N670 N 0.71431 0.59804 0.35915 0.0
N671 N 0.68889 0.81216 0.35168 0.0
C672 C 0.71138 0.65227 0.35723 0.0
C673 C 0.70034 0.76305 0.355 0.0
N674 N 0.6957 0.64981 0.43479 0.0
N675 N 0.75265 0.78594 0.28495 0.0
H676 H 0.6746 0.82882 0.37785 0.0
H677 H 0.69026 0.83403 0.32256 0.0
H678 H 0.77579 0.77708 0.25988 0.0
H679 H 0.76071 0.83207 0.28501 0.0
H680 H 0.70983 0.61653 0.4397 0.0
H681 H 0.687 0.6662 0.46333 0.0
H682 H 0.6937 0.56467 0.3837 0.0
H683 H 0.73871 0.58698 0.33655 0.0
C684 C 0.96456 0.80543 0.72526 0.0
C685 C 0.94498 0.74356 0.74131 0.0
C686 C 0.01291 0.73473 0.68381 0.0
C687 C 0.03709 0.79896 0.67089 0.0
N688 N 0.04182 0.89819 0.68499 0.0
N689 N 0.9544 0.65037 0.73581 0.0
C690 C 0.01406 0.83472 0.69314 0.0
C691 C 0.97009 0.70855 0.72028 0.0
N692 N 0.93408 0.83591 0.74005 0.0
N693 N 0.02875 0.69744 0.66013 0.0
H694 H 0.91822 0.62692 0.75815 0.0
H695 H 0.97832 0.62655 0.7275 0.0
H696 H 0.06085 0.71484 0.63457 0.0
H697 H 1.00724 0.64855 0.6639 0.0
H698 H 0.94057 0.87803 0.727 0.0
H699 H 0.89701 0.81535 0.76242 0.0
H700 H 0.03272 0.92881 0.70298 0.0
H701 H 0.07895 0.92161 0.66297 0.0
C702 C 0.34688 0.98079 0.06068 0.0
C703 C 0.2812 0.95119 0.07308 0.0
C704 C 0.26728 0.01289 1.01335 0.0
C705 C 0.33213 0.04148 1.00059 0.0
N706 N 0.43397 0.05093 1.01251 0.0
N707 N 0.1766 0.92442 0.04815 0.0
C708 C 0.37195 0.02527 1.02489 0.0
C709 C 0.24103 0.9638 0.0459 0.0
N710 N 0.38531 0.96433 0.08183 0.0
N711 N 0.23015 0.03333 0.99444 0.0
H712 H 0.15563 0.88361 0.06709 0.0
H713 H 0.14465 0.92669 1.02689 0.0
H714 H 0.2481 0.06948 0.97151 0.0
H715 H 0.18433 0.0198 1.00489 0.0
H716 H 0.43475 0.99111 0.0821 0.0
H717 H 0.36663 0.92049 0.09658 0.0
H718 H 0.46576 0.03837 1.02493 0.0
H719 H 0.45417 0.08598 0.9891 0.0
C720 C 0.307 0.58717 0.3689 0.0
C721 C 0.31408 0.534 0.36177 0.0
C722 C 0.38987 0.56426 0.42055 0.0
C723 C 0.38949 0.6221 0.42392 0.0
N724 N 0.33712 0.68141 0.41226 0.0
N725 N 0.34056 0.45874 0.38905 0.0
C726 C 0.34247 0.62974 0.40256 0.0
C727 C 0.34727 0.51761 0.39131 0.0
N728 N 0.27048 0.59887 0.34124 0.0
N729 N 0.43543 0.55698 0.44108 0.0
H730 H 0.31022 0.42518 0.36658 0.0
H731 H 0.35984 0.4415 0.41159 0.0
H732 H 0.46838 0.59039 0.46224 0.0
H733 H 0.44267 0.51899 0.4356 0.0
H734 H 0.26626 0.63918 0.34229 0.0
H735 H 0.24492 0.5677 0.31624 0.0
H736 H 0.30474 0.69165 0.39783 0.0
H737 H 0.36365 0.71236 0.4372 0.0
C738 C 0.86225 0.43851 0.69183 0.0
C739 C 0.80185 0.39116 0.67664 0.0
C740 C 0.75097 0.40143 0.74175 0.0
C741 C 0.81185 0.44622 0.75775 0.0
N742 N 0.92589 0.50136 0.75238 0.0
N743 N 0.68934 0.32404 0.68616 0.0
C744 C 0.86772 0.46271 0.7341 0.0
C745 C 0.74622 0.37145 0.70146 0.0
N746 N 0.91367 0.46215 0.66493 0.0
N747 N 0.69817 0.38906 0.76496 0.0
H748 H 0.68501 0.30402 0.65568 0.0
H749 H 0.64729 0.30298 0.70386 0.0
H750 H 0.70118 0.40921 0.79524 0.0
H751 H 0.65174 0.36111 0.75387 0.0
H752 H 0.95793 0.501 0.67242 0.0
H753 H 0.91064 0.44636 0.63329 0.0
H754 H 0.96867 0.50994 0.73882 0.0
H755 H 0.93125 0.52178 0.78281 0.0
C756 C 0.35455 0.7172 0.03966 0.0
C757 C 0.37368 0.76693 0.06999 0.0
C758 C 0.44 0.84447 1.01606 0.0
C759 C 0.4269 0.79479 0.98716 0.0
N760 N 0.37597 0.68363 0.97076 0.0
N761 N 0.44692 0.87473 0.09079 0.0
C762 C 0.38528 0.73078 0.99876 0.0
C763 C 0.42011 0.82976 0.05924 0.0
N764 N 0.30634 0.65791 0.04982 0.0
N765 N 0.4703 0.90563 1.0019 0.0
H766 H 0.43491 0.86456 0.12326 0.0
H767 H 0.48525 0.9201 0.08522 0.0
H768 H 0.48617 0.91805 0.97023 0.0
H769 H 0.47556 0.94324 1.02089 0.0
H770 H 0.28591 0.62062 1.0278 0.0
H771 H 0.28454 0.64728 0.08008 0.0
H772 H 0.35072 0.63566 0.97858 0.0
H773 H 0.39648 0.69319 0.94008 0.0
C774 C 0.63252 0.32726 0.33621 0.0
C775 C 0.61321 0.36495 0.31344 0.0
C776 C 0.51018 0.31144 0.35031 0.0
C777 C 0.52771 0.2699 0.36973 0.0
N778 N 0.60759 0.24101 0.38374 0.0
N779 N 0.53211 0.39034 0.29545 0.0
C780 C 0.58907 0.27852 0.3635 0.0
C781 C 0.55188 0.35709 0.32004 0.0
N782 N 0.69287 0.33771 0.33153 0.0
N783 N 0.45389 0.30748 0.36134 0.0
H784 H 0.48555 0.38149 0.29485 0.0
H785 H 0.56106 0.42406 0.27288 0.0
H786 H 0.42157 0.27333 0.38243 0.0
H787 H 0.44102 0.34051 0.35223 0.0
H788 H 0.70863 0.31036 0.34729 0.0
H789 H 0.72722 0.3748 0.31297 0.0
H790 H 0.57846 0.20433 0.40475 0.0
H791 H 0.57846 0.20433 0.40475 0.0
C792 C 0.19571 0.66292 0.78194 0.0
C793 C 0.24034 0.64222 0.77789 0.0
C794 C 0.29054 0.7125 0.71652 0.0
C795 C 0.24585 0.73316 0.72054 0.0
N796 N 0.15048 0.72305 0.75113 0.0
N797 N 0.32431 0.63884 0.73966 0.0
C798 C 0.19651 0.70658 0.75147 0.0
C799 C 0.28586 0.66431 0.74438 0.0
N800 N 0.15434 0.64225 0.81591 0.0
N801 N 0.33827 0.74065 0.6868 0.0
H802 H 0.32214 0.60425 0.76048 0.0
H803 H 0.35563 0.64886 0.71407 0.0
H804 H 0.3415 0.77507 0.66543 0.0
H805 H 0.37609 0.73232 0.68432 0.0
H806 H 0.1249 0.66028 0.82369 0.0
H807 H 0.15191 0.6088 0.83788 0.0
H808 H 0.10977 0.70151 0.77021 0.0
H809 H 0.15113 0.756 0.72941 0.0
C810 C 0.6078 0.17265 1.00287 0.0
C811 C 0.60949 0.23125 0.99921 0.0
C812 C 0.65084 0.26049 0.07248 0.0
C813 C 0.64326 0.19948 0.07736 0.0
N814 N 0.61108 0.09541 0.05024 0.0
N815 N 0.6286 0.32998 1.02912 0.0
C816 C 0.62099 0.15497 0.04326 0.0
C817 C 0.63043 0.27528 1.03359 0.0
N818 N 0.59391 0.13451 0.96742 0.0
N819 N 0.67799 0.30385 0.10504 0.0
H820 H 0.61543 0.34211 1.0002 0.0
H821 H 0.63728 0.36177 0.05418 0.0
H822 H 0.6918 0.29308 0.13422 0.0
H823 H 0.69007 0.35111 0.10246 0.0
H824 H 0.59665 0.09334 0.9667 0.0
H825 H 0.58404 0.14664 0.93737 0.0
H826 H 0.589 0.05827 1.02825 0.0
H827 H 0.62149 0.08187 0.07959 0.0
C828 C 0.14136 0.60194 0.16904 0.0
C829 C 0.13984 0.63613 0.20569 0.0
C830 C 0.12358 0.54594 0.25234 0.0
C831 C 0.13185 0.51495 0.21616 0.0
N832 N 0.11774 0.50008 0.13927 0.0
N833 N 0.10269 0.62804 0.27853 0.0
C834 C 0.13045 0.53875 0.17425 0.0
C835 C 0.12146 0.60329 0.24602 0.0
N836 N 0.15638 0.63031 0.12953 0.0
N837 N 0.12085 0.523 0.29287 0.0
H838 H 0.09986 0.66898 0.27415 0.0
H839 H 0.08393 0.60493 0.30767 0.0
H840 H 0.11876 0.48006 0.29871 0.0
H841 H 0.12322 0.54787 0.32081 0.0
H842 H 0.16706 0.61117 0.10294 0.0
H843 H 0.15984 0.67386 0.1236 0.0
H844 H 0.11092 0.5121 0.10829 0.0
H845 H 0.1067 0.45302 0.14241 0.0
C846 C 0.54042 0.10267 0.52316 0.0
C847 C 0.52059 0.13455 0.55196 0.0
C848 C 0.61358 0.15975 0.59848 0.0
C849 C 0.64085 0.14219 0.56461 0.0
N850 N 0.62536 0.08438 0.49873 0.0
N851 N 0.53345 0.18631 0.62021 0.0
C852 C 0.60181 0.10845 0.5286 0.0
C853 C 0.55518 0.15967 0.59108 0.0
N854 N 0.50086 0.06824 0.49009 0.0
N855 N 0.64348 0.1764 0.63754 0.0
H856 H 0.48916 0.18285 0.61675 0.0
H857 H 0.55937 0.21253 0.6469 0.0
H858 H 0.68514 0.17542 0.64355 0.0
H859 H 0.62374 0.18434 0.66496 0.0
H860 H 0.50958 0.04049 0.46883 0.0
H861 H 0.45607 0.06357 0.48614 0.0
H862 H 0.60355 0.06442 0.46944 0.0
H863 H 0.668 0.0847 0.50375 0.0
C864 C 0.41076 0.54967 0.83801 0.0
C865 C 0.38231 0.51902 0.87757 0.0
C866 C 0.46921 0.60976 0.91739 0.0
C867 C 0.49475 0.64297 0.87813 0.0
N868 N 0.50598 0.63073 0.80198 0.0
N869 N 0.40668 0.5067 0.95107 0.0
C870 C 0.47043 0.60839 0.8387 0.0
C871 C 0.41905 0.54487 0.91598 0.0
N872 N 0.38156 0.52371 0.79972 0.0
N873 N 0.48961 0.63991 0.95616 0.0
H874 H 0.37339 0.45825 0.94993 0.0
H875 H 0.43477 0.52124 0.97882 0.0
H876 H 0.52659 0.68642 0.9594 0.0
H877 H 0.46663 0.61947 0.98511 0.0
H878 H 0.39451 0.54879 0.77079 0.0
H879 H 0.34482 0.47697 0.79677 0.0
H880 H 0.494 0.60572 0.77297 0.0
H881 H 0.55145 0.67079 0.8021 0.0
C882 C 0.85756 0.46362 0.2378 0.0
C883 C 0.86262 0.49559 0.19832 0.0
C884 C 0.85805 0.40482 0.15847 0.0
C885 C 0.84801 0.37051 0.19747 0.0
N886 N 0.86499 0.37935 0.27441 0.0
N887 N 0.90204 0.50858 0.12546 0.0
C888 C 0.85596 0.4038 0.23721 0.0
C889 C 0.87411 0.46993 0.16012 0.0
N890 N 0.85451 0.4898 0.27598 0.0
N891 N 0.8491 0.37526 0.11956 0.0
H892 H 0.91841 0.55715 0.12682 0.0
H893 H 0.91614 0.4942 0.09796 0.0
H894 H 0.83783 0.32835 0.11634 0.0
H895 H 0.8484 0.39639 0.09051 0.0
H896 H 0.84046 0.46465 0.30485 0.0
H897 H 0.86707 0.53715 0.27896 0.0
H898 H 0.87632 0.40303 0.30391 0.0
H899 H 0.86855 0.33849 0.27465 0.0
C900 C 0.46908 0.87973 0.48541 0.0
C901 C 0.52485 0.90592 0.5112 0.0
C902 C 0.47377 0.94629 0.56107 0.0
C903 C 0.41344 0.9063 0.54147 0.0
N904 N 0.35466 0.83793 0.48211 0.0
N905 N 0.58411 0.9725 0.57041 0.0
C906 C 0.41164 0.87519 0.50208 0.0
C907 C 0.5286 0.94324 0.54748 0.0
N908 N 0.47133 0.85854 0.44514 0.0
N909 N 0.47775 0.98608 0.59353 0.0
H910 H 0.625 0.9729 0.55953 0.0
H911 H 0.58964 0.99505 0.59993 0.0
H912 H 0.43863 0.99002 0.60292 0.0
H913 H 0.52003 0.01874 0.6085 0.0
H914 H 0.43418 0.84215 0.42296 0.0
H915 H 0.51389 0.8647 0.43264 0.0
H916 H 0.34853 0.80803 0.4563 0.0
H917 H 0.31276 0.8353 0.4926 0.0
C918 C 0.59332 0.46048 0.83325 0.0
C919 C 0.62893 0.4916 0.87087 0.0
C920 C 0.54187 0.40805 0.9156 0.0
C921 C 0.50842 0.37513 0.87777 0.0
N922 N 0.48889 0.38818 0.80339 0.0
N923 N 0.62112 0.50876 0.94679 0.0
C924 C 0.52976 0.40796 0.83764 0.0
C925 C 0.59789 0.46965 0.91172 0.0
N926 N 0.62044 0.47753 0.79335 0.0
N927 N 0.52208 0.38068 0.95515 0.0
H928 H 0.65912 0.5552 0.94444 0.0
H929 H 0.59811 0.49806 0.97656 0.0
H930 H 0.47873 0.33944 0.96016 0.0
H931 H 0.54964 0.39866 0.98294 0.0
H932 H 0.59876 0.45099 0.76569 0.0
H933 H 0.66613 0.51522 0.788 0.0
H934 H 0.49955 0.41275 0.77427 0.0
H935 H 0.44174 0.35141 0.80624 0.0
loop_
_geom_bond_atom_site_label_1
_geom_bond_atom_site_label_2
_geom_bond_distance
_geom_bond_site_symmetry_2
_ccdc_geom_bond_type
C0 C1 1.351 . S
C0 N3 1.368 . S
C0 H5 0.931 . S
C1 C0 1.351 . S
C1 N2 1.373 . S
C1 H29 0.930 . S
N2 C1 1.373 . S
N2 C4 1.340 . S
N3 C0 1.368 . S
N3 C4 1.321 . S
N3 Co6 2.135 . S
C4 N2 1.340 . S
C4 N3 1.321 . S
C4 H28 0.930 . S
H5 C0 0.931 . S
Co6 N3 2.135 . S
Co6 N9 2.121 . S
Co6 O14 2.055 . S
Co6 O17 2.039 . S
Co6 N20 2.140 . S
C7 O8 1.227 . S
C7 O17 1.265 . S
O8 C7 1.227 . S
N9 Co6 2.121 . S
N9 C11 1.375 . S
N9 C12 1.313 . S
C10 C11 1.338 . S
C10 N13 1.377 . S
C10 H30 0.930 . S
C11 N9 1.375 . S
C11 C10 1.338 . S
C11 H15 0.931 . S
C12 N9 1.313 . S
C12 N13 1.344 . S
C12 H16 0.930 . S
N13 C10 1.377 . S
N13 C12 1.344 . S
O14 Co6 2.055 . S
O14 C18 1.253 . S
H15 C11 0.931 . S
H16 C12 0.930 . S
O17 Co6 2.039 . S
O17 C7 1.265 . S
C18 O14 1.253 . S
C18 O19 1.227 . S
O19 C18 1.227 . S
N20 Co6 2.140 . S
N20 C23 1.346 . S
N20 C24 1.345 . S
C21 C22 1.387 . S
C21 C25 1.391 . S
C22 C21 1.387 . S
C22 C23 1.369 . S
C22 H31 0.929 . S
C23 N20 1.346 . S
C23 C22 1.369 . S
C23 H26 0.928 . S
C24 N20 1.345 . S
C24 C25 1.371 . S
C24 H27 0.931 . S
C25 C21 1.391 . S
C25 C24 1.371 . S
C25 H32 0.930 . S
H26 C23 0.928 . S
H27 C24 0.931 . S
H28 C4 0.930 . S
H29 C1 0.930 . S
H30 C10 0.930 . S
H31 C22 0.929 . S
H32 C25 0.930 . S
C33 C34 1.351 . S
C33 N36 1.368 . S
C33 H38 0.931 . S
C34 C33 1.351 . S
C34 N35 1.373 . S
C34 H62 0.930 . S
N35 C34 1.373 . S
N35 C37 1.340 . S
N36 C33 1.368 . S
N36 C37 1.321 . S
N36 Co39 2.135 . S
C37 N35 1.340 . S
C37 N36 1.321 . S
C37 H61 0.930 . S
H38 C33 0.931 . S
Co39 N36 2.135 . S
Co39 N42 2.121 . S
Co39 O47 2.055 . S
Co39 O50 2.039 . S
Co39 N53 2.140 . S
C40 O41 1.227 . S
C40 O50 1.265 . S
O41 C40 1.227 . S
N42 Co39 2.121 . S
N42 C44 1.375 . S
N42 C45 1.313 . S
C43 C44 1.338 . S
C43 N46 1.377 . S
C43 H63 0.930 . S
C44 N42 1.375 . S
C44 C43 1.338 . S
C44 H48 0.931 . S
C45 N42 1.313 . S
C45 N46 1.344 . S
C45 H49 0.930 . S
N46 C43 1.377 . S
N46 C45 1.344 . S
O47 Co39 2.055 . S
O47 C51 1.253 . S
H48 C44 0.931 . S
H49 C45 0.930 . S
O50 Co39 2.039 . S
O50 C40 1.265 . S
C51 O47 1.253 . S
C51 O52 1.227 . S
O52 C51 1.227 . S
N53 Co39 2.140 . S
N53 C56 1.346 . S
N53 C57 1.345 . S
C54 C55 1.387 . S
C54 C58 1.391 . S
C55 C54 1.387 . S
C55 C56 1.369 . S
C55 H64 0.929 . S
C56 N53 1.346 . S
C56 C55 1.369 . S
C56 H59 0.928 . S
C57 N53 1.345 . S
C57 C58 1.371 . S
C57 H60 0.931 . S
C58 C54 1.391 . S
C58 C57 1.371 . S
C58 H65 0.930 . S
H59 C56 0.928 . S
H60 C57 0.931 . S
H61 C37 0.930 . S
H62 C34 0.930 . S
H63 C43 0.930 . S
H64 C55 0.929 . S
H65 C58 0.930 . S
C66 C67 1.351 . S
C66 N69 1.368 . S
C66 H71 0.931 . S
C67 C66 1.351 . S
C67 N68 1.373 . S
C67 H95 0.930 . S
N68 C67 1.373 . S
N68 C70 1.340 . S
N69 C66 1.368 . S
N69 C70 1.321 . S
N69 Co72 2.135 . S
C70 N68 1.340 . S
C70 N69 1.321 . S
C70 H94 0.930 . S
H71 C66 0.931 . S
Co72 N69 2.135 . S
Co72 N75 2.121 . S
Co72 O80 2.055 . S
Co72 O83 2.039 . S
Co72 N86 2.140 . S
C73 O74 1.227 . S
C73 O83 1.265 . S
O74 C73 1.227 . S
N75 Co72 2.121 . S
N75 C77 1.375 . S
N75 C78 1.313 . S
C76 C77 1.338 . S
C76 N79 1.377 . S
C76 H96 0.930 . S
C77 N75 1.375 . S
C77 C76 1.338 . S
C77 H81 0.931 . S
C78 N75 1.313 . S
C78 N79 1.344 . S
C78 H82 0.930 . S
N79 C76 1.377 . S
N79 C78 1.344 . S
O80 Co72 2.055 . S
O80 C84 1.253 . S
H81 C77 0.931 . S
H82 C78 0.930 . S
O83 Co72 2.039 . S
O83 C73 1.265 . S
C84 O80 1.253 . S
C84 O85 1.227 . S
O85 C84 1.227 . S
N86 Co72 2.140 . S
N86 C89 1.346 . S
N86 C90 1.345 . S
C87 C88 1.387 . S
C87 C91 1.391 . S
C88 C87 1.387 . S
C88 C89 1.369 . S
C88 H97 0.929 . S
C89 N86 1.346 . S
C89 C88 1.369 . S
C89 H92 0.928 . S
C90 N86 1.345 . S
C90 C91 1.371 . S
C90 H93 0.931 . S
C91 C87 1.391 . S
C91 C90 1.371 . S
C91 H98 0.930 . S
H92 C89 0.928 . S
H93 C90 0.931 . S
H94 C70 0.930 . S
H95 C67 0.930 . S
H96 C76 0.930 . S
H97 C88 0.929 . S
H98 C91 0.930 . S
C99 C100 1.351 . S
C99 N102 1.368 . S
C99 H104 0.931 . S
C100 C99 1.351 . S
C100 N101 1.373 . S
C100 H128 0.930 . S
N101 C100 1.373 . S
N101 C103 1.340 . S
N102 C99 1.368 . S
N102 C103 1.321 . S
N102 Co105 2.135 . S
C103 N101 1.340 . S
C103 N102 1.321 . S
C103 H127 0.930 . S
H104 C99 0.931 . S
Co105 N102 2.135 . S
Co105 N108 2.121 . S
Co105 O113 2.055 . S
Co105 O116 2.039 . S
Co105 N119 2.140 . S
C106 O107 1.227 . S
C106 O116 1.265 . S
O107 C106 1.227 . S
N108 Co105 2.121 . S
N108 C110 1.375 . S
N108 C111 1.313 . S
C109 C110 1.338 . S
C109 N112 1.377 . S
C109 H129 0.930 . S
C110 N108 1.375 . S
C110 C109 1.338 . S
C110 H114 0.931 . S
C111 N108 1.313 . S
C111 N112 1.344 . S
C111 H115 0.930 . S
N112 C109 1.377 . S
N112 C111 1.344 . S
O113 Co105 2.055 . S
O113 C117 1.253 . S
H114 C110 0.931 . S
H115 C111 0.930 . S
O116 Co105 2.039 . S
O116 C106 1.265 . S
C117 O113 1.253 . S
C117 O118 1.227 . S
O118 C117 1.227 . S
N119 Co105 2.140 . S
N119 C122 1.346 . S
N119 C123 1.345 . S
C120 C121 1.387 . S
C120 C124 1.391 . S
C121 C120 1.387 . S
C121 C122 1.369 . S
C121 H130 0.929 . S
C122 N119 1.346 . S
C122 C121 1.369 . S
C122 H125 0.928 . S
C123 N119 1.345 . S
C123 C124 1.371 . S
C123 H126 0.931 . S
C124 C120 1.391 . S
C124 C123 1.371 . S
C124 H131 0.930 . S
H125 C122 0.928 . S
H126 C123 0.931 . S
H127 C103 0.930 . S
H128 C100 0.930 . S
H129 C109 0.930 . S
H130 C121 0.929 . S
H131 C124 0.930 . S
C132 C133 1.351 . S
C132 N135 1.368 . S
C132 H137 0.931 . S
C133 C132 1.351 . S
C133 N134 1.373 . S
C133 H161 0.930 . S
N134 C133 1.373 . S
N134 C136 1.340 . S
N135 C132 1.368 . S
N135 C136 1.321 . S
N135 Co138 2.135 . S
C136 N134 1.340 . S
C136 N135 1.321 . S
C136 H160 0.930 . S
H137 C132 0.931 . S
Co138 N135 2.135 . S
Co138 N141 2.121 . S
Co138 O146 2.055 . S
Co138 O149 2.039 . S
Co138 N152 2.140 . S
C139 O140 1.227 . S
C139 O149 1.265 . S
O140 C139 1.227 . S
N141 Co138 2.121 . S
N141 C143 1.375 . S
N141 C144 1.313 . S
C142 C143 1.338 . S
C142 N145 1.377 . S
C142 H162 0.930 . S
C143 N141 1.375 . S
C143 C142 1.338 . S
C143 H147 0.931 . S
C144 N141 1.313 . S
C144 N145 1.344 . S
C144 H148 0.930 . S
N145 C142 1.377 . S
N145 C144 1.344 . S
O146 Co138 2.055 . S
O146 C150 1.253 . S
H147 C143 0.931 . S
H148 C144 0.930 . S
O149 Co138 2.039 . S
O149 C139 1.265 . S
C150 O146 1.253 . S
C150 O151 1.227 . S
O151 C150 1.227 . S
N152 Co138 2.140 . S
N152 C155 1.346 . S
N152 C156 1.345 . S
C153 C154 1.387 . S
C153 C157 1.391 . S
C154 C153 1.387 . S
C154 C155 1.369 . S
C154 H163 0.929 . S
C155 N152 1.346 . S
C155 C154 1.369 . S
C155 H158 0.928 . S
C156 N152 1.345 . S
C156 C157 1.371 . S
C156 H159 0.931 . S
C157 C153 1.391 . S
C157 C156 1.371 . S
C157 H164 0.930 . S
H158 C155 0.928 . S
H159 C156 0.931 . S
H160 C136 0.930 . S
H161 C133 0.930 . S
H162 C142 0.930 . S
H163 C154 0.929 . S
H164 C157 0.930 . S
C165 C166 1.351 . S
C165 N168 1.368 . S
C165 H170 0.931 . S
C166 C165 1.351 . S
C166 N167 1.373 . S
C166 H194 0.930 . S
N167 C166 1.373 . S
N167 C169 1.340 . S
N168 C165 1.368 . S
N168 C169 1.321 . S
N168 Co171 2.135 . S
C169 N167 1.340 . S
C169 N168 1.321 . S
C169 H193 0.930 . S
H170 C165 0.931 . S
Co171 N168 2.135 . S
Co171 N174 2.121 . S
Co171 O179 2.055 . S
Co171 O182 2.039 . S
Co171 N185 2.140 . S
C172 O173 1.227 . S
C172 O182 1.265 . S
O173 C172 1.227 . S
N174 Co171 2.121 . S
N174 C176 1.375 . S
N174 C177 1.313 . S
C175 C176 1.338 . S
C175 N178 1.377 . S
C175 H195 0.930 . S
C176 N174 1.375 . S
C176 C175 1.338 . S
C176 H180 0.931 . S
C177 N174 1.313 . S
C177 N178 1.344 . S
C177 H181 0.930 . S
N178 C175 1.377 . S
N178 C177 1.344 . S
O179 Co171 2.055 . S
O179 C183 1.253 . S
H180 C176 0.931 . S
H181 C177 0.930 . S
O182 Co171 2.039 . S
O182 C172 1.265 . S
C183 O179 1.253 . S
C183 O184 1.227 . S
O184 C183 1.227 . S
N185 Co171 2.140 . S
N185 C188 1.346 . S
N185 C189 1.345 . S
C186 C187 1.387 . S
C186 C190 1.391 . S
C187 C186 1.387 . S
C187 C188 1.369 . S
C187 H196 0.929 . S
C188 N185 1.346 . S
C188 C187 1.369 . S
C188 H191 0.928 . S
C189 N185 1.345 . S
C189 C190 1.371 . S
C189 H192 0.931 . S
C190 C186 1.391 . S
C190 C189 1.371 . S
C190 H197 0.930 . S
H191 C188 0.928 . S
H192 C189 0.931 . S
H193 C169 0.930 . S
H194 C166 0.930 . S
H195 C175 0.930 . S
H196 C187 0.929 . S
H197 C190 0.930 . S
C198 C199 1.351 . S
C198 N201 1.368 . S
C198 H203 0.931 . S
C199 C198 1.351 . S
C199 N200 1.373 . S
C199 H227 0.930 . S
N200 C199 1.373 . S
N200 C202 1.340 . S
N201 C198 1.368 . S
N201 C202 1.321 . S
N201 Co204 2.135 . S
C202 N200 1.340 . S
C202 N201 1.321 . S
C202 H226 0.930 . S
H203 C198 0.931 . S
Co204 N201 2.135 . S
Co204 N207 2.121 . S
Co204 O212 2.055 . S
Co204 O215 2.039 . S
Co204 N218 2.140 . S
C205 O206 1.227 . S
C205 O215 1.265 . S
O206 C205 1.227 . S
N207 Co204 2.121 . S
N207 C209 1.375 . S
N207 C210 1.313 . S
C208 C209 1.338 . S
C208 N211 1.377 . S
C208 H228 0.930 . S
C209 N207 1.375 . S
C209 C208 1.338 . S
C209 H213 0.931 . S
C210 N207 1.313 . S
C210 N211 1.344 . S
C210 H214 0.930 . S
N211 C208 1.377 . S
N211 C210 1.344 . S
O212 Co204 2.055 . S
O212 C216 1.253 . S
H213 C209 0.931 . S
H214 C210 0.930 . S
O215 Co204 2.039 . S
O215 C205 1.265 . S
C216 O212 1.253 . S
C216 O217 1.227 . S
O217 C216 1.227 . S
N218 Co204 2.140 . S
N218 C221 1.346 . S
N218 C222 1.345 . S
C219 C220 1.387 . S
C219 C223 1.391 . S
C220 C219 1.387 . S
C220 C221 1.369 . S
C220 H229 0.929 . S
C221 N218 1.346 . S
C221 C220 1.369 . S
C221 H224 0.928 . S
C222 N218 1.345 . S
C222 C223 1.371 . S
C222 H225 0.931 . S
C223 C219 1.391 . S
C223 C222 1.371 . S
C223 H230 0.930 . S
H224 C221 0.928 . S
H225 C222 0.931 . S
H226 C202 0.930 . S
H227 C199 0.930 . S
H228 C208 0.930 . S
H229 C220 0.929 . S
H230 C223 0.930 . S
C231 C232 1.351 . S
C231 N234 1.368 . S
C231 H236 0.931 . S
C232 C231 1.351 . S
C232 N233 1.373 . S
C232 H260 0.930 . S
N233 C232 1.373 . S
N233 C235 1.340 . S
N234 C231 1.368 . S
N234 C235 1.321 . S
N234 Co237 2.135 . S
C235 N233 1.340 . S
C235 N234 1.321 . S
C235 H259 0.930 . S
H236 C231 0.931 . S
Co237 N234 2.135 . S
Co237 N240 2.121 . S
Co237 O245 2.055 . S
Co237 O248 2.039 . S
Co237 N251 2.140 . S
C238 O239 1.227 . S
C238 O248 1.265 . S
O239 C238 1.227 . S
N240 Co237 2.121 . S
N240 C242 1.375 . S
N240 C243 1.313 . S
C241 C242 1.338 . S
C241 N244 1.377 . S
C241 H261 0.930 . S
C242 N240 1.375 . S
C242 C241 1.338 . S
C242 H246 0.931 . S
C243 N240 1.313 . S
C243 N244 1.344 . S
C243 H247 0.930 . S
N244 C241 1.377 . S
N244 C243 1.344 . S
O245 Co237 2.055 . S
O245 C249 1.253 . S
H246 C242 0.931 . S
H247 C243 0.930 . S
O248 Co237 2.039 . S
O248 C238 1.265 . S
C249 O245 1.253 . S
C249 O250 1.227 . S
O250 C249 1.227 . S
N251 Co237 2.140 . S
N251 C254 1.346 . S
N251 C255 1.345 . S
C252 C253 1.387 . S
C252 C256 1.391 . S
C253 C252 1.387 . S
C253 C254 1.369 . S
C253 H262 0.929 . S
C254 N251 1.346 . S
C254 C253 1.369 . S
C254 H257 0.928 . S
C255 N251 1.345 . S
C255 C256 1.371 . S
C255 H258 0.931 . S
C256 C252 1.391 . S
C256 C255 1.371 . S
C256 H263 0.930 . S
H257 C254 0.928 . S
H258 C255 0.931 . S
H259 C235 0.930 . S
H260 C232 0.930 . S
H261 C241 0.930 . S
H262 C253 0.929 . S
H263 C256 0.930 . S
C264 C265 1.351 . S
C264 N267 1.368 . S
C264 H269 0.931 . S
C265 C264 1.351 . S
C265 N266 1.373 . S
C265 H293 0.930 . S
N266 C265 1.373 . S
N266 C268 1.340 . S
N267 C264 1.368 . S
N267 C268 1.321 . S
N267 Co270 2.135 . S
C268 N266 1.340 . S
C268 N267 1.321 . S
C268 H292 0.930 . S
H269 C264 0.931 . S
Co270 N267 2.135 . S
Co270 N273 2.121 . S
Co270 O278 2.055 . S
Co270 O281 2.039 . S
Co270 N284 2.140 . S
C271 O272 1.227 . S
C271 O281 1.265 . S
O272 C271 1.227 . S
N273 Co270 2.121 . S
N273 C275 1.375 . S
N273 C276 1.313 . S
C274 C275 1.338 . S
C274 N277 1.377 . S
C274 H294 0.930 . S
C275 N273 1.375 . S
C275 C274 1.338 . S
C275 H279 0.931 . S
C276 N273 1.313 . S
C276 N277 1.344 . S
C276 H280 0.930 . S
N277 C274 1.377 . S
N277 C276 1.344 . S
O278 Co270 2.055 . S
O278 C282 1.253 . S
H279 C275 0.931 . S
H280 C276 0.930 . S
O281 Co270 2.039 . S
O281 C271 1.265 . S
C282 O278 1.253 . S
C282 O283 1.227 . S
O283 C282 1.227 . S
N284 Co270 2.140 . S
N284 C287 1.346 . S
N284 C288 1.345 . S
C285 C286 1.387 . S
C285 C289 1.391 . S
C286 C285 1.387 . S
C286 C287 1.369 . S
C286 H295 0.929 . S
C287 N284 1.346 . S
C287 C286 1.369 . S
C287 H290 0.928 . S
C288 N284 1.345 . S
C288 C289 1.371 . S
C288 H291 0.931 . S
C289 C285 1.391 . S
C289 C288 1.371 . S
C289 H296 0.930 . S
H290 C287 0.928 . S
H291 C288 0.931 . S
H292 C268 0.930 . S
H293 C265 0.930 . S
H294 C274 0.930 . S
H295 C286 0.929 . S
H296 C289 0.930 . S
C297 C298 1.351 . S
C297 N300 1.368 . S
C297 H302 0.931 . S
C298 C297 1.351 . S
C298 N299 1.373 . S
C298 H326 0.930 . S
N299 C298 1.373 . S
N299 C301 1.340 . S
N300 C297 1.368 . S
N300 C301 1.321 . S
N300 Co303 2.135 . S
C301 N299 1.340 . S
C301 N300 1.321 . S
C301 H325 0.930 . S
H302 C297 0.931 . S
Co303 N300 2.135 . S
Co303 N306 2.121 . S
Co303 O311 2.055 . S
Co303 O314 2.039 . S
Co303 N317 2.140 . S
C304 O305 1.227 . S
C304 O314 1.265 . S
O305 C304 1.227 . S
N306 Co303 2.121 . S
N306 C308 1.375 . S
N306 C309 1.313 . S
C307 C308 1.338 . S
C307 N310 1.377 . S
C307 H327 0.930 . S
C308 N306 1.375 . S
C308 C307 1.338 . S
C308 H312 0.931 . S
C309 N306 1.313 . S
C309 N310 1.344 . S
C309 H313 0.930 . S
N310 C307 1.377 . S
N310 C309 1.344 . S
O311 Co303 2.055 . S
O311 C315 1.253 . S
H312 C308 0.931 . S
H313 C309 0.930 . S
O314 Co303 2.039 . S
O314 C304 1.265 . S
C315 O311 1.253 . S
C315 O316 1.227 . S
O316 C315 1.227 . S
N317 Co303 2.140 . S
N317 C320 1.346 . S
N317 C321 1.345 . S
C318 C319 1.387 . S
C318 C322 1.391 . S
C319 C318 1.387 . S
C319 C320 1.369 . S
C319 H328 0.929 . S
C320 N317 1.346 . S
C320 C319 1.369 . S
C320 H323 0.928 . S
C321 N317 1.345 . S
C321 C322 1.371 . S
C321 H324 0.931 . S
C322 C318 1.391 . S
C322 C321 1.371 . S
C322 H329 0.930 . S
H323 C320 0.928 . S
H324 C321 0.931 . S
H325 C301 0.930 . S
H326 C298 0.930 . S
H327 C307 0.930 . S
H328 C319 0.929 . S
H329 C322 0.930 . S
C330 C331 1.351 . S
C330 N333 1.368 . S
C330 H335 0.931 . S
C331 C330 1.351 . S
C331 N332 1.373 . S
C331 H359 0.930 . S
N332 C331 1.373 . S
N332 C334 1.340 . S
N333 C330 1.368 . S
N333 C334 1.321 . S
N333 Co336 2.135 . S
C334 N332 1.340 . S
C334 N333 1.321 . S
C334 H358 0.930 . S
H335 C330 0.931 . S
Co336 N333 2.135 . S
Co336 N339 2.121 . S
Co336 O344 2.055 . S
Co336 O347 2.039 . S
Co336 N350 2.140 . S
C337 O338 1.227 . S
C337 O347 1.265 . S
O338 C337 1.227 . S
N339 Co336 2.121 . S
N339 C341 1.375 . S
N339 C342 1.313 . S
C340 C341 1.338 . S
C340 N343 1.377 . S
C340 H360 0.930 . S
C341 N339 1.375 . S
C341 C340 1.338 . S
C341 H345 0.931 . S
C342 N339 1.313 . S
C342 N343 1.344 . S
C342 H346 0.930 . S
N343 C340 1.377 . S
N343 C342 1.344 . S
O344 Co336 2.055 . S
O344 C348 1.253 . S
H345 C341 0.931 . S
H346 C342 0.930 . S
O347 Co336 2.039 . S
O347 C337 1.265 . S
C348 O344 1.253 . S
C348 O349 1.227 . S
O349 C348 1.227 . S
N350 Co336 2.140 . S
N350 C353 1.346 . S
N350 C354 1.345 . S
C351 C352 1.387 . S
C351 C355 1.391 . S
C352 C351 1.387 . S
C352 C353 1.369 . S
C352 H361 0.929 . S
C353 N350 1.346 . S
C353 C352 1.369 . S
C353 H356 0.928 . S
C354 N350 1.345 . S
C354 C355 1.371 . S
C354 H357 0.931 . S
C355 C351 1.391 . S
C355 C354 1.371 . S
C355 H362 0.930 . S
H356 C353 0.928 . S
H357 C354 0.931 . S
H358 C334 0.930 . S
H359 C331 0.930 . S
H360 C340 0.930 . S
H361 C352 0.929 . S
H362 C355 0.930 . S
C363 C364 1.351 . S
C363 N366 1.368 . S
C363 H368 0.931 . S
C364 C363 1.351 . S
C364 N365 1.373 . S
C364 H392 0.930 . S
N365 C364 1.373 . S
N365 C367 1.340 . S
N366 C363 1.368 . S
N366 C367 1.321 . S
N366 Co369 2.135 . S
C367 N365 1.340 . S
C367 N366 1.321 . S
C367 H391 0.930 . S
H368 C363 0.931 . S
Co369 N366 2.135 . S
Co369 N372 2.121 . S
Co369 O377 2.055 . S
Co369 O380 2.039 . S
Co369 N383 2.140 . S
C370 O371 1.227 . S
C370 O380 1.265 . S
O371 C370 1.227 . S
N372 Co369 2.121 . S
N372 C374 1.375 . S
N372 C375 1.313 . S
C373 C374 1.338 . S
C373 N376 1.377 . S
C373 H393 0.930 . S
C374 N372 1.375 . S
C374 C373 1.338 . S
C374 H378 0.931 . S
C375 N372 1.313 . S
C375 N376 1.344 . S
C375 H379 0.930 . S
N376 C373 1.377 . S
N376 C375 1.344 . S
O377 Co369 2.055 . S
O377 C381 1.253 . S
H378 C374 0.931 . S
H379 C375 0.930 . S
O380 Co369 2.039 . S
O380 C370 1.265 . S
C381 O377 1.253 . S
C381 O382 1.227 . S
O382 C381 1.227 . S
N383 Co369 2.140 . S
N383 C386 1.346 . S
N383 C387 1.345 . S
C384 C385 1.387 . S
C384 C388 1.391 . S
C385 C384 1.387 . S
C385 C386 1.369 . S
C385 H394 0.929 . S
C386 N383 1.346 . S
C386 C385 1.369 . S
C386 H389 0.928 . S
C387 N383 1.345 . S
C387 C388 1.371 . S
C387 H390 0.931 . S
C388 C384 1.391 . S
C388 C387 1.371 . S
C388 H395 0.930 . S
H389 C386 0.928 . S
H390 C387 0.931 . S
H391 C367 0.930 . S
H392 C364 0.930 . S
H393 C373 0.930 . S
H394 C385 0.929 . S
H395 C388 0.930 . S
C396 C397 1.363 . S
C396 C402 1.379 . S
C396 N404 1.356 . S
C397 C396 1.363 . S
C397 C403 1.363 . S
C398 C399 1.363 . S
C398 C403 1.379 . S
C398 N405 1.356 . S
C399 C398 1.363 . S
C399 C402 1.363 . S
N400 C402 1.356 . S
N400 H412 0.984 . S
N400 H413 0.985 . S
N401 C403 1.356 . S
N401 H406 0.984 . S
N401 H407 0.985 . S
C402 C396 1.379 . S
C402 C399 1.363 . S
C402 N400 1.356 . S
C403 C397 1.363 . S
C403 C398 1.379 . S
C403 N401 1.356 . S
N404 C396 1.356 . S
N404 H410 0.984 . S
N404 H411 0.984 . S
N405 C398 1.356 . S
N405 H408 0.984 . S
N405 H409 0.985 . S
H406 N401 0.984 . S
H407 N401 0.985 . S
H408 N405 0.984 . S
H409 N405 0.985 . S
H410 N404 0.984 . S
H411 N404 0.984 . S
H412 N400 0.984 . S
H413 N400 0.985 . S
C414 C415 1.363 . S
C414 C420 1.379 . S
C414 N422 1.356 . S
C415 C414 1.363 . S
C415 C421 1.363 1_655 S
C416 C417 1.363 . S
C416 C421 1.379 . S
C416 N423 1.356 . S
C417 C416 1.363 . S
C417 C420 1.363 1_455 S
N418 C420 1.356 . S
N418 H430 0.984 . S
N418 H431 0.985 . S
N419 C421 1.356 . S
N419 H424 0.984 . S
N419 H425 0.985 . S
C420 C414 1.379 . S
C420 C417 1.363 1_655 S
C420 N418 1.356 . S
C421 C415 1.363 1_455 S
C421 C416 1.379 . S
C421 N419 1.356 . S
N422 C414 1.356 . S
N422 H428 0.984 . S
N422 H429 0.984 . S
N423 C416 1.356 . S
N423 H426 0.984 . S
N423 H427 0.985 . S
H424 N419 0.984 . S
H425 N419 0.985 . S
H426 N423 0.984 . S
H427 N423 0.985 . S
H428 N422 0.984 . S
H429 N422 0.984 . S
H430 N418 0.984 . S
H431 N418 0.985 . S
C432 C433 1.363 . S
C432 C438 1.379 . S
C432 N440 1.356 . S
C433 C432 1.363 . S
C433 C439 1.363 1_545 S
C434 C435 1.363 . S
C434 C439 1.379 . S
C434 N441 1.356 . S
C435 C434 1.363 . S
C435 C438 1.363 1_565 S
N436 C438 1.356 . S
N436 H448 0.984 . S
N436 H449 0.985 . S
N437 C439 1.356 . S
N437 H442 0.984 . S
N437 H443 0.985 . S
C438 C432 1.379 . S
C438 C435 1.363 1_545 S
C438 N436 1.356 . S
C439 C433 1.363 1_565 S
C439 C434 1.379 . S
C439 N437 1.356 . S
N440 C432 1.356 . S
N440 H446 0.984 . S
N440 H447 0.984 . S
N441 C434 1.356 . S
N441 H444 0.984 . S
N441 H445 0.985 . S
H442 N437 0.984 . S
H443 N437 0.985 . S
H444 N441 0.984 . S
H445 N441 0.985 . S
H446 N440 0.984 . S
H447 N440 0.984 . S
H448 N436 0.984 . S
H449 N436 0.985 . S
C450 C451 1.363 . S
C450 C456 1.379 . S
C450 N458 1.356 . S
C451 C450 1.363 . S
C451 C457 1.363 . S
C452 C453 1.363 . S
C452 C457 1.379 . S
C452 N459 1.356 . S
C453 C452 1.363 . S
C453 C456 1.363 . S
N454 C456 1.356 . S
N454 H466 0.984 . S
N454 H467 0.985 . S
N455 C457 1.356 . S
N455 H460 0.984 . S
N455 H461 0.985 . S
C456 C450 1.379 . S
C456 C453 1.363 . S
C456 N454 1.356 . S
C457 C451 1.363 . S
C457 C452 1.379 . S
C457 N455 1.356 . S
N458 C450 1.356 . S
N458 H464 0.984 . S
N458 H465 0.984 . S
N459 C452 1.356 . S
N459 H462 0.984 . S
N459 H463 0.985 . S
H460 N455 0.984 . S
H461 N455 0.985 . S
H462 N459 0.984 . S
H463 N459 0.985 . S
H464 N458 0.984 . S
H465 N458 0.984 . S
H466 N454 0.984 . S
H467 N454 0.985 . S
C468 C469 1.363 1_655 S
C468 C474 1.379 . S
C468 N476 1.356 . S
C469 C468 1.363 1_455 S
C469 C475 1.363 . S
C470 C471 1.363 1_455 S
C470 C475 1.379 . S
C470 N477 1.356 . S
C471 C470 1.363 1_655 S
C471 C474 1.363 . S
N472 C474 1.356 . S
N472 H484 0.984 . S
N472 H485 0.985 . S
N473 C475 1.356 . S
N473 H478 0.984 . S
N473 H479 0.985 . S
C474 C468 1.379 . S
C474 C471 1.363 . S
C474 N472 1.356 . S
C475 C469 1.363 . S
C475 C470 1.379 . S
C475 N473 1.356 . S
N476 C468 1.356 . S
N476 H482 0.984 . S
N476 H483 0.984 . S
N477 C470 1.356 . S
N477 H480 0.984 . S
N477 H481 0.985 . S
H478 N473 0.984 . S
H479 N473 0.985 . S
H480 N477 0.984 . S
H481 N477 0.985 . S
H482 N476 0.984 . S
H483 N476 0.984 . S
H484 N472 0.984 . S
H485 N472 0.985 . S
C486 C487 1.363 . S
C486 C492 1.379 . S
C486 N494 1.356 . S
C487 C486 1.363 . S
C487 C493 1.363 1_565 S
C488 C489 1.363 . S
C488 C493 1.379 . S
C488 N495 1.356 . S
C489 C488 1.363 . S
C489 C492 1.363 1_545 S
N490 C492 1.356 . S
N490 H502 0.984 . S
N490 H503 0.985 . S
N491 C493 1.356 . S
N491 H496 0.984 . S
N491 H497 0.985 . S
C492 C486 1.379 . S
C492 C489 1.363 1_565 S
C492 N490 1.356 . S
C493 C487 1.363 1_545 S
C493 C488 1.379 . S
C493 N491 1.356 . S
N494 C486 1.356 . S
N494 H500 0.984 . S
N494 H501 0.984 . S
N495 C488 1.356 . S
N495 H498 0.984 . S
N495 H499 0.985 . S
H496 N491 0.984 . S
H497 N491 0.985 . S
H498 N495 0.984 . S
H499 N495 0.985 . S
H500 N494 0.984 . S
H501 N494 0.984 . S
H502 N490 0.984 . S
H503 N490 0.985 . S
C504 C505 1.363 . S
C504 C510 1.379 1_554 S
C504 N512 1.356 . S
C505 C504 1.363 . S
C505 C511 1.363 . S
C506 C507 1.363 . S
C506 C511 1.379 1_556 S
C506 N513 1.356 . S
C507 C506 1.363 . S
C507 C510 1.363 . S
N508 C510 1.356 . S
N508 H520 0.984 . S
N508 H521 0.985 . S
N509 C511 1.356 . S
N509 H514 0.984 . S
N509 H515 0.985 . S
C510 C504 1.379 1_556 S
C510 C507 1.363 . S
C510 N508 1.356 . S
C511 C505 1.363 . S
C511 C506 1.379 1_554 S
C511 N509 1.356 . S
N512 C504 1.356 . S
N512 H518 0.984 . S
N512 H519 0.984 . S
N513 C506 1.356 . S
N513 H516 0.984 . S
N513 H517 0.985 . S
H514 N509 0.984 . S
H515 N509 0.985 . S
H516 N513 0.984 . S
H517 N513 0.985 . S
H518 N512 0.984 . S
H519 N512 0.984 . S
H520 N508 0.984 . S
H521 N508 0.985 . S
C522 C523 1.363 . S
C522 C528 1.379 . S
C522 N530 1.356 . S
C523 C522 1.363 . S
C523 C529 1.363 . S
C524 C525 1.363 . S
C524 C529 1.379 . S
C524 N531 1.356 . S
C525 C524 1.363 . S
C525 C528 1.363 . S
N526 C528 1.356 . S
N526 H538 0.984 . S
N526 H539 0.985 . S
N527 C529 1.356 . S
N527 H532 0.984 . S
N527 H533 0.994 . S
C528 C522 1.379 . S
C528 C525 1.363 . S
C528 N526 1.356 . S
C529 C523 1.363 . S
C529 C524 1.379 . S
C529 N527 1.356 . S
N530 C522 1.356 . S
N530 H536 0.984 . S
N530 H537 0.984 . S
N531 C524 1.356 . S
N531 H534 0.984 . S
N531 H535 0.985 . S
H532 N527 0.984 . S
H533 N527 0.994 . S
H534 N531 0.984 . S
H535 N531 0.985 . S
H536 N530 0.984 . S
H537 N530 0.984 . S
H538 N526 0.984 . S
H539 N526 0.985 . S
C540 C541 1.363 . S
C540 C546 1.379 . S
C540 N548 1.356 . S
C541 C540 1.363 . S
C541 C547 1.363 . S
C542 C543 1.363 . S
C542 C547 1.379 . S
C542 N549 1.356 . S
C543 C542 1.363 . S
C543 C546 1.363 . S
N544 C546 1.356 . S
N544 H556 0.984 . S
N544 H557 0.985 . S
N545 C547 1.356 . S
N545 H550 0.984 . S
N545 H551 0.985 . S
C546 C540 1.379 . S
C546 C543 1.363 . S
C546 N544 1.356 . S
C547 C541 1.363 . S
C547 C542 1.379 . S
C547 N545 1.356 . S
N548 C540 1.356 . S
N548 H554 0.984 . S
N548 H555 0.984 . S
N549 C542 1.356 . S
N549 H552 0.984 . S
N549 H553 0.985 . S
H550 N545 0.984 . S
H551 N545 0.985 . S
H552 N549 0.984 . S
H553 N549 0.985 . S
H554 N548 0.984 . S
H555 N548 0.984 . S
H556 N544 0.984 . S
H557 N544 0.985 . S
C558 C559 1.363 . S
C558 C564 1.379 1_554 S
C558 N566 1.356 . S
C559 C558 1.363 . S
C559 C565 1.363 . S
C560 C561 1.363 . S
C560 C565 1.379 1_556 S
C560 N567 1.356 . S
C561 C560 1.363 . S
C561 C564 1.363 . S
N562 C564 1.356 . S
N562 H574 0.984 . S
N562 H575 0.985 . S
N563 C565 1.356 . S
N563 H568 0.984 . S
N563 H569 0.985 . S
C564 C558 1.379 1_556 S
C564 C561 1.363 . S
C564 N562 1.356 . S
C565 C559 1.363 . S
C565 C560 1.379 1_554 S
C565 N563 1.356 . S
N566 C558 1.356 . S
N566 H572 0.984 . S
N566 H573 0.984 . S
N567 C560 1.356 . S
N567 H570 0.984 . S
N567 H571 0.985 . S
H568 N563 0.984 . S
H569 N563 0.985 . S
H570 N567 0.984 . S
H571 N567 0.985 . S
H572 N566 0.984 . S
H573 N566 0.984 . S
H574 N562 0.984 . S
H575 N562 0.985 . S
C576 C577 1.363 . S
C576 C582 1.379 . S
C576 N584 1.356 . S
C577 C576 1.363 . S
C577 C583 1.363 . S
C578 C579 1.363 . S
C578 C583 1.379 . S
C578 N585 1.356 . S
C579 C578 1.363 . S
C579 C582 1.363 . S
N580 C582 1.356 . S
N580 H592 0.984 . S
N580 H593 0.985 . S
N581 C583 1.356 . S
N581 H586 0.984 . S
N581 H587 0.985 . S
C582 C576 1.379 . S
C582 C579 1.363 . S
C582 N580 1.356 . S
C583 C577 1.363 . S
C583 C578 1.379 . S
C583 N581 1.356 . S
N584 C576 1.356 . S
N584 H590 0.984 . S
N584 H591 0.984 . S
N585 C578 1.356 . S
N585 H588 0.984 . S
N585 H589 0.985 . S
H586 N581 0.984 . S
H587 N581 0.985 . S
H588 N585 0.984 . S
H589 N585 0.985 . S
H590 N584 0.984 . S
H591 N584 0.984 . S
H592 N580 0.984 . S
H593 N580 0.985 . S
C594 C595 1.363 . S
C594 C600 1.379 . S
C594 N602 1.356 . S
C595 C594 1.363 . S
C595 C601 1.363 . S
C596 C597 1.363 . S
C596 C601 1.379 . S
C596 N603 1.356 . S
C597 C596 1.363 . S
C597 C600 1.363 . S
N598 C600 1.356 . S
N598 H610 0.984 . S
N598 H611 0.985 . S
N599 C601 1.356 . S
N599 H604 0.984 . S
N599 H605 0.985 . S
C600 C594 1.379 . S
C600 C597 1.363 . S
C600 N598 1.356 . S
C601 C595 1.363 . S
C601 C596 1.379 . S
C601 N599 1.356 . S
N602 C594 1.356 . S
N602 H608 0.984 . S
N602 H609 0.984 . S
N603 C596 1.356 . S
N603 H606 0.984 . S
N603 H607 0.985 . S
H604 N599 0.984 . S
H605 N599 0.985 . S
H606 N603 0.984 . S
H607 N603 0.985 . S
H608 N602 0.984 . S
H609 N602 0.984 . S
H610 N598 0.984 . S
H611 N598 0.985 . S
C612 C613 1.363 . S
C612 C618 1.379 . S
C612 N620 1.356 . S
C613 C612 1.363 . S
C613 C619 1.363 . S
C614 C615 1.363 . S
C614 C619 1.379 . S
C614 N621 1.356 . S
C615 C614 1.363 . S
C615 C618 1.363 . S
N616 C618 1.356 . S
N616 H628 0.984 . S
N616 H629 0.985 . S
N617 C619 1.356 . S
N617 H622 0.984 . S
N617 H623 0.985 . S
C618 C612 1.379 . S
C618 C615 1.363 . S
C618 N616 1.356 . S
C619 C613 1.363 . S
C619 C614 1.379 . S
C619 N617 1.356 . S
N620 C612 1.356 . S
N620 H626 0.984 . S
N620 H627 0.984 . S
N621 C614 1.356 . S
N621 H624 0.984 . S
N621 H625 0.985 . S
H622 N617 0.984 . S
H623 N617 0.985 . S
H624 N621 0.984 . S
H625 N621 0.985 . S
H626 N620 0.984 . S
H627 N620 0.984 . S
H628 N616 0.984 . S
H629 N616 0.985 . S
C630 C631 1.363 . S
C630 C636 1.379 . S
C630 N638 1.356 . S
C631 C630 1.363 . S
C631 C637 1.363 1_655 S
C632 C633 1.363 . S
C632 C637 1.379 . S
C632 N639 1.356 . S
C633 C632 1.363 . S
C633 C636 1.363 1_455 S
N634 C636 1.356 . S
N634 H646 0.984 . S
N634 H647 0.985 1_655 S
N635 C637 1.356 . S
N635 H640 0.984 1_455 S
N635 H641 0.985 . S
C636 C630 1.379 . S
C636 C633 1.363 1_655 S
C636 N634 1.356 . S
C637 C631 1.363 1_455 S
C637 C632 1.379 . S
C637 N635 1.356 . S
N638 C630 1.356 . S
N638 H644 0.984 . S
N638 H645 0.984 . S
N639 C632 1.356 . S
N639 H642 0.984 . S
N639 H643 0.985 . S
H640 N635 0.984 1_655 S
H641 N635 0.985 . S
H642 N639 0.984 . S
H643 N639 0.985 . S
H644 N638 0.984 . S
H645 N638 0.984 . S
H646 N634 0.984 . S
H647 N634 0.985 1_455 S
C648 C649 1.363 . S
C648 C654 1.379 1_566 S
C648 N656 1.356 . S
C649 C648 1.363 . S
C649 C655 1.363 . S
C650 C651 1.363 . S
C650 C655 1.379 1_544 S
C650 N657 1.356 . S
C651 C650 1.363 . S
C651 C654 1.363 . S
N652 C654 1.356 . S
N652 H664 0.995 . S
N652 H665 0.985 . S
N653 C655 1.356 . S
N653 H658 0.984 . S
N653 H659 0.995 . S
C654 C648 1.379 1_544 S
C654 C651 1.363 . S
C654 N652 1.356 . S
C655 C649 1.363 . S
C655 C650 1.379 1_566 S
C655 N653 1.356 . S
N656 C648 1.356 . S
N656 H662 0.984 . S
N656 H663 0.984 . S
N657 C650 1.356 . S
N657 H660 0.984 . S
N657 H661 0.985 . S
H658 N653 0.984 . S
H659 N653 0.995 . S
H660 N657 0.984 . S
H661 N657 0.985 . S
H662 N656 0.984 . S
H663 N656 0.984 . S
H664 N652 0.995 . S
H665 N652 0.985 . S
C666 C667 1.363 . S
C666 C672 1.379 . S
C666 N674 1.356 . S
C667 C666 1.363 . S
C667 C673 1.363 . S
C668 C669 1.363 . S
C668 C673 1.379 . S
C668 N675 1.356 . S
C669 C668 1.363 . S
C669 C672 1.363 . S
N670 C672 1.356 . S
N670 H682 0.984 . S
N670 H683 0.985 . S
N671 C673 1.356 . S
N671 H676 0.984 . S
N671 H677 0.985 . S
C672 C666 1.379 . S
C672 C669 1.363 . S
C672 N670 1.356 . S
C673 C667 1.363 . S
C673 C668 1.379 . S
C673 N671 1.356 . S
N674 C666 1.356 . S
N674 H680 0.984 . S
N674 H681 0.984 . S
N675 C668 1.356 . S
N675 H678 0.984 . S
N675 H679 0.985 . S
H676 N671 0.984 . S
H677 N671 0.985 . S
H678 N675 0.984 . S
H679 N675 0.985 . S
H680 N674 0.984 . S
H681 N674 0.984 . S
H682 N670 0.984 . S
H683 N670 0.985 . S
C684 C685 1.363 . S
C684 C690 1.379 1_655 S
C684 N692 1.356 . S
C685 C684 1.363 . S
C685 C691 1.363 . S
C686 C687 1.363 . S
C686 C691 1.379 1_455 S
C686 N693 1.356 . S
C687 C686 1.363 . S
C687 C690 1.363 . S
N688 C690 1.356 . S
N688 H700 0.984 . S
N688 H701 0.985 . S
N689 C691 1.356 . S
N689 H694 0.984 . S
N689 H695 0.985 . S
C690 C684 1.379 1_455 S
C690 C687 1.363 . S
C690 N688 1.356 . S
C691 C685 1.363 . S
C691 C686 1.379 1_655 S
C691 N689 1.356 . S
N692 C684 1.356 . S
N692 H698 0.984 . S
N692 H699 0.984 . S
N693 C686 1.356 . S
N693 H696 0.984 . S
N693 H697 0.985 . S
H694 N689 0.984 . S
H695 N689 0.985 . S
H696 N693 0.984 . S
H697 N693 0.985 . S
H698 N692 0.984 . S
H699 N692 0.984 . S
H700 N688 0.984 . S
H701 N688 0.985 . S
C702 C703 1.363 . S
C702 C708 1.379 1_564 S
C702 N710 1.356 . S
C703 C702 1.363 . S
C703 C709 1.363 . S
C704 C705 1.363 . S
C704 C709 1.379 1_546 S
C704 N711 1.356 . S
C705 C704 1.363 . S
C705 C708 1.363 . S
N706 C708 1.356 . S
N706 H718 0.984 . S
N706 H719 0.985 . S
N707 C709 1.356 . S
N707 H712 0.984 . S
N707 H713 0.985 . S
C708 C702 1.379 1_546 S
C708 C705 1.363 . S
C708 N706 1.356 . S
C709 C703 1.363 . S
C709 C704 1.379 1_564 S
C709 N707 1.356 . S
N710 C702 1.356 . S
N710 H716 0.984 . S
N710 H717 0.984 . S
N711 C704 1.356 . S
N711 H714 0.984 . S
N711 H715 0.985 . S
H712 N707 0.984 . S
H713 N707 0.985 . S
H714 N711 0.984 . S
H715 N711 0.985 . S
H716 N710 0.984 . S
H717 N710 0.984 . S
H718 N706 0.984 . S
H719 N706 0.985 . S
C720 C721 1.363 . S
C720 C726 1.379 . S
C720 N728 1.356 . S
C721 C720 1.363 . S
C721 C727 1.363 . S
C722 C723 1.363 . S
C722 C727 1.379 . S
C722 N729 1.356 . S
C723 C722 1.363 . S
C723 C726 1.363 . S
N724 C726 1.356 . S
N724 H736 0.984 . S
N724 H737 0.985 . S
N725 C727 1.356 . S
N725 H730 0.984 . S
N725 H731 0.985 . S
C726 C720 1.379 . S
C726 C723 1.363 . S
C726 N724 1.356 . S
C727 C721 1.363 . S
C727 C722 1.379 . S
C727 N725 1.356 . S
N728 C720 1.356 . S
N728 H734 0.984 . S
N728 H735 0.984 . S
N729 C722 1.356 . S
N729 H732 0.984 . S
N729 H733 0.985 . S
H730 N725 0.984 . S
H731 N725 0.985 . S
H732 N729 0.984 . S
H733 N729 0.985 . S
H734 N728 0.984 . S
H735 N728 0.984 . S
H736 N724 0.984 . S
H737 N724 0.985 . S
C738 C739 1.363 . S
C738 C744 1.379 . S
C738 N746 1.356 . S
C739 C738 1.363 . S
C739 C745 1.363 . S
C740 C741 1.363 . S
C740 C745 1.379 . S
C740 N747 1.356 . S
C741 C740 1.363 . S
C741 C744 1.363 . S
N742 C744 1.356 . S
N742 H754 0.984 . S
N742 H755 0.985 . S
N743 C745 1.356 . S
N743 H748 0.984 . S
N743 H749 0.985 . S
C744 C738 1.379 . S
C744 C741 1.363 . S
C744 N742 1.356 . S
C745 C739 1.363 . S
C745 C740 1.379 . S
C745 N743 1.356 . S
N746 C738 1.356 . S
N746 H752 0.984 . S
N746 H753 0.984 . S
N747 C740 1.356 . S
N747 H750 0.984 . S
N747 H751 0.985 . S
H748 N743 0.984 . S
H749 N743 0.985 . S
H750 N747 0.984 . S
H751 N747 0.985 . S
H752 N746 0.984 . S
H753 N746 0.984 . S
H754 N742 0.984 . S
H755 N742 0.985 . S
C756 C757 1.363 1_554 S
C756 C762 1.379 . S
C756 N764 1.356 . S
C757 C756 1.363 1_556 S
C757 C763 1.363 . S
C758 C759 1.363 1_556 S
C758 C763 1.379 . S
C758 N765 1.356 . S
C759 C758 1.363 1_554 S
C759 C762 1.363 . S
N760 C762 1.356 . S
N760 H772 0.984 . S
N760 H773 0.985 . S
N761 C763 1.356 . S
N761 H766 0.984 . S
N761 H767 0.985 . S
C762 C756 1.379 . S
C762 C759 1.363 . S
C762 N760 1.356 . S
C763 C757 1.363 . S
C763 C758 1.379 . S
C763 N761 1.356 . S
N764 C756 1.356 . S
N764 H770 0.984 . S
N764 H771 0.984 . S
N765 C758 1.356 . S
N765 H768 0.984 . S
N765 H769 0.985 . S
H766 N761 0.984 . S
H767 N761 0.985 . S
H768 N765 0.984 . S
H769 N765 0.985 . S
H770 N764 0.984 . S
H771 N764 0.984 . S
H772 N760 0.984 . S
H773 N760 0.985 . S
C774 C775 1.363 . S
C774 C780 1.379 . S
C774 N782 1.356 . S
C775 C774 1.363 . S
C775 C781 1.363 . S
C776 C777 1.363 . S
C776 C781 1.379 . S
C776 N783 1.356 . S
C777 C776 1.363 . S
C777 C780 1.363 . S
N778 C780 1.356 . S
N778 H790 0.984 . S
N778 H791 0.985 . S
N779 C781 1.356 . S
N779 H784 0.984 . S
N779 H785 0.985 . S
C780 C774 1.379 . S
C780 C777 1.363 . S
C780 N778 1.356 . S
C781 C775 1.363 . S
C781 C776 1.379 . S
C781 N779 1.356 . S
N782 C774 1.356 . S
N782 H788 0.984 . S
N782 H789 0.984 . S
N783 C776 1.356 . S
N783 H786 0.984 . S
N783 H787 0.985 . S
H784 N779 0.984 . S
H785 N779 0.985 . S
H786 N783 0.984 . S
H787 N783 0.985 . S
H788 N782 0.984 . S
H789 N782 0.984 . S
H790 N778 0.984 . S
H791 N778 0.985 . S
C792 C793 1.363 . S
C792 C798 1.379 . S
C792 N800 1.356 . S
C793 C792 1.363 . S
C793 C799 1.363 . S
C794 C795 1.363 . S
C794 C799 1.379 . S
C794 N801 1.356 . S
C795 C794 1.363 . S
C795 C798 1.363 . S
N796 C798 1.356 . S
N796 H808 0.984 . S
N796 H809 0.985 . S
N797 C799 1.356 . S
N797 H802 0.984 . S
N797 H803 0.985 . S
C798 C792 1.379 . S
C798 C795 1.363 . S
C798 N796 1.356 . S
C799 C793 1.363 . S
C799 C794 1.379 . S
C799 N797 1.356 . S
N800 C792 1.356 . S
N800 H806 0.984 . S
N800 H807 0.984 . S
N801 C794 1.356 . S
N801 H804 0.984 . S
N801 H805 0.985 . S
H802 N797 0.984 . S
H803 N797 0.985 . S
H804 N801 0.984 . S
H805 N801 0.985 . S
H806 N800 0.984 . S
H807 N800 0.984 . S
H808 N796 0.984 . S
H809 N796 0.985 . S
C810 C811 1.363 . S
C810 C816 1.379 . S
C810 N818 1.356 . S
C811 C810 1.363 . S
C811 C817 1.363 1_554 S
C812 C813 1.363 . S
C812 C817 1.379 . S
C812 N819 1.356 . S
C813 C812 1.363 . S
C813 C816 1.363 1_556 S
N814 C816 1.356 . S
N814 H826 0.984 . S
N814 H827 0.985 . S
N815 C817 1.356 . S
N815 H820 0.984 . S
N815 H821 0.985 . S
C816 C810 1.379 . S
C816 C813 1.363 1_554 S
C816 N814 1.356 . S
C817 C811 1.363 1_556 S
C817 C812 1.379 . S
C817 N815 1.356 . S
N818 C810 1.356 . S
N818 H824 0.984 . S
N818 H825 0.984 . S
N819 C812 1.356 . S
N819 H822 0.984 . S
N819 H823 0.985 . S
H820 N815 0.984 . S
H821 N815 0.985 . S
H822 N819 0.984 . S
H823 N819 0.985 . S
H824 N818 0.984 . S
H825 N818 0.984 . S
H826 N814 0.984 . S
H827 N814 0.985 . S
C828 C829 1.363 . S
C828 C834 1.379 . S
C828 N836 1.356 . S
C829 C828 1.363 . S
C829 C835 1.363 . S
C830 C831 1.363 . S
C830 C835 1.379 . S
C830 N837 1.356 . S
C831 C830 1.363 . S
C831 C834 1.363 . S
N832 C834 1.356 . S
N832 H844 0.984 . S
N832 H845 0.985 . S
N833 C835 1.356 . S
N833 H838 0.984 . S
N833 H839 0.985 . S
C834 C828 1.379 . S
C834 C831 1.363 . S
C834 N832 1.356 . S
C835 C829 1.363 . S
C835 C830 1.379 . S
C835 N833 1.356 . S
N836 C828 1.356 . S
N836 H842 0.984 . S
N836 H843 0.984 . S
N837 C830 1.356 . S
N837 H840 0.984 . S
N837 H841 0.985 . S
H838 N833 0.984 . S
H839 N833 0.985 . S
H840 N837 0.984 . S
H841 N837 0.985 . S
H842 N836 0.984 . S
H843 N836 0.984 . S
H844 N832 0.984 . S
H845 N832 0.985 . S
C846 C847 1.363 . S
C846 C852 1.379 . S
C846 N854 1.356 . S
C847 C846 1.363 . S
C847 C853 1.363 . S
C848 C849 1.363 . S
C848 C853 1.379 . S
C848 N855 1.356 . S
C849 C848 1.363 . S
C849 C852 1.363 . S
N850 C852 1.356 . S
N850 H862 0.984 . S
N850 H863 0.985 . S
N851 C853 1.356 . S
N851 H856 0.984 . S
N851 H857 0.985 . S
C852 C846 1.379 . S
C852 C849 1.363 . S
C852 N850 1.356 . S
C853 C847 1.363 . S
C853 C848 1.379 . S
C853 N851 1.356 . S
N854 C846 1.356 . S
N854 H860 0.984 . S
N854 H861 0.984 . S
N855 C848 1.356 . S
N855 H858 0.984 . S
N855 H859 0.985 . S
H856 N851 0.984 . S
H857 N851 0.985 . S
H858 N855 0.984 . S
H859 N855 0.985 . S
H860 N854 0.984 . S
H861 N854 0.984 . S
H862 N850 0.984 . S
H863 N850 0.985 . S
C864 C865 1.363 . S
C864 C870 1.379 . S
C864 N872 1.356 . S
C865 C864 1.363 . S
C865 C871 1.363 . S
C866 C867 1.363 . S
C866 C871 1.379 . S
C866 N873 1.356 . S
C867 C866 1.363 . S
C867 C870 1.363 . S
N868 C870 1.356 . S
N868 H880 0.984 . S
N868 H881 0.985 . S
N869 C871 1.356 . S
N869 H874 0.984 . S
N869 H875 0.985 . S
C870 C864 1.379 . S
C870 C867 1.363 . S
C870 N868 1.356 . S
C871 C865 1.363 . S
C871 C866 1.379 . S
C871 N869 1.356 . S
N872 C864 1.356 . S
N872 H878 0.984 . S
N872 H879 0.984 . S
N873 C866 1.356 . S
N873 H876 0.984 . S
N873 H877 0.985 . S
H874 N869 0.984 . S
H875 N869 0.985 . S
H876 N873 0.984 . S
H877 N873 0.985 . S
H878 N872 0.984 . S
H879 N872 0.984 . S
H880 N868 0.984 . S
H881 N868 0.985 . S
C882 C883 1.363 . S
C882 C888 1.379 . S
C882 N890 1.356 . S
C883 C882 1.363 . S
C883 C889 1.363 . S
C884 C885 1.363 . S
C884 C889 1.379 . S
C884 N891 1.356 . S
C885 C884 1.363 . S
C885 C888 1.363 . S
N886 C888 1.356 . S
N886 H898 0.984 . S
N886 H899 0.985 . S
N887 C889 1.356 . S
N887 H892 0.984 . S
N887 H893 0.985 . S
C888 C882 1.379 . S
C888 C885 1.363 . S
C888 N886 1.356 . S
C889 C883 1.363 . S
C889 C884 1.379 . S
C889 N887 1.356 . S
N890 C882 1.356 . S
N890 H896 0.984 . S
N890 H897 0.984 . S
N891 C884 1.356 . S
N891 H894 0.984 . S
N891 H895 0.985 . S
H892 N887 0.984 . S
H893 N887 0.985 . S
H894 N891 0.984 . S
H895 N891 0.985 . S
H896 N890 0.984 . S
H897 N890 0.984 . S
H898 N886 0.984 . S
H899 N886 0.985 . S
C900 C901 1.363 . S
C900 C906 1.379 . S
C900 N908 1.356 . S
C901 C900 1.363 . S
C901 C907 1.363 . S
C902 C903 1.363 . S
C902 C907 1.379 . S
C902 N909 1.356 . S
C903 C902 1.363 . S
C903 C906 1.363 . S
N904 C906 1.356 . S
N904 H916 0.984 . S
N904 H917 0.985 . S
N905 C907 1.356 . S
N905 H910 0.984 . S
N905 H911 0.985 . S
C906 C900 1.379 . S
C906 C903 1.363 . S
C906 N904 1.356 . S
C907 C901 1.363 . S
C907 C902 1.379 . S
C907 N905 1.356 . S
N908 C900 1.356 . S
N908 H914 0.984 . S
N908 H915 0.984 . S
N909 C902 1.356 . S
N909 H912 0.984 . S
N909 H913 0.985 . S
H910 N905 0.984 . S
H911 N905 0.985 . S
H912 N909 0.984 . S
H913 N909 0.985 . S
H914 N908 0.984 . S
H915 N908 0.984 . S
H916 N904 0.984 . S
H917 N904 0.985 . S
C918 C919 1.363 . S
C918 C924 1.379 . S
C918 N926 1.356 . S
C919 C918 1.363 . S
C919 C925 1.363 . S
C920 C921 1.363 . S
C920 C925 1.379 . S
C920 N927 1.356 . S
C921 C920 1.363 . S
C921 C924 1.363 . S
N922 C924 1.356 . S
N922 H934 0.984 . S
N922 H935 0.985 . S
N923 C925 1.356 . S
N923 H928 0.984 . S
N923 H929 0.985 . S
C924 C918 1.379 . S
C924 C921 1.363 . S
C924 N922 1.356 . S
C925 C919 1.363 . S
C925 C920 1.379 . S
C925 N923 1.356 . S
N926 C918 1.356 . S
N926 H932 0.984 . S
N926 H933 0.984 . S
N927 C920 1.356 . S
N927 H930 0.984 . S
N927 H931 0.985 . S
H928 N923 0.984 . S
H929 N923 0.985 . S
H930 N927 0.984 . S
H931 N927 0.985 . S
H932 N926 0.984 . S
H933 N926 0.984 . S
H934 N922 0.984 . S
H935 N922 0.985 . S
C397 C120 0.640 . S
C399 C21 0.640 . S
C415 C54 0.640 . S
C417 C153 0.640 . S
C433 C186 0.640 . S
C435 C87 0.640 . S
C451 C219 0.640 . S
C453 C318 0.640 . S
C469 C351 0.640 . S
C471 C252 0.640 . S
C487 C285 0.640 . S
C489 C384 0.640 . S
C505 N13 2.152 . S
C507 N343 2.152 . S
C523 N376 2.152 . S
C525 N46 2.152 . S
C541 N79 2.152 . S
C543 N211 2.152 . S
C559 N112 2.152 . S
C561 N244 2.152 . S
C577 N145 2.152 . S
C579 N277 2.152 . S
C595 N178 2.152 . S
C597 N310 2.152 . S
C613 C304 2.065 . S
C615 C7 2.065 . S
C631 C40 2.065 . S
C633 C337 2.065 . S
C649 C73 2.065 . S
C651 C370 2.065 . S
C667 C205 2.065 . S
C669 C106 2.065 . S
C685 C238 2.065 . S
C687 C139 2.065 . S
C703 C271 2.065 . S
C705 C172 2.065 . S
C721 N2 1.479 . S
C723 N200 1.479 . S
C739 N35 1.479 . S
C741 N233 1.479 . S
C757 N266 1.479 1_556 S
C759 N68 1.479 1_554 S
C775 N101 1.479 . S
C777 N299 1.479 . S
C793 N332 1.479 . S
C795 N134 1.479 . S
C811 N167 1.479 1_554 S
C813 N365 1.479 1_556 S
C829 C282 1.492 . S
C831 C18 1.492 . S
C847 C315 1.492 . S
C849 C51 1.492 . S
C865 C348 1.492 . S
C867 C84 1.492 . S
C883 C117 1.492 . S
C885 C381 1.492 . S
C901 C216 1.492 . S
C903 C150 1.492 . S
C919 C249 1.492 . S
C921 C183 1.492 . S
