# Generated by pormake.
# Topology umo, (4)-cn, num edge types: 1
# Building blocks:
#     Node 0, Type 0, BuildingBlock: QUQFOY_clean_sbu_1, # of connection points: 4
#     Node 1, Type 0, BuildingBlock: QUQFOY_clean_sbu_1, # of connection points: 4
#     Node 2, Type 0, BuildingBlock: QUQFOY_clean_sbu_1, # of connection points: 4
#     Node 3, Type 0, BuildingBlock: QUQFOY_clean_sbu_1, # of connection points: 4
#     Node 4, Type 0, BuildingBlock: QUQFOY_clean_sbu_1, # of connection points: 4
#     Node 5, Type 0, BuildingBlock: QUQFOY_clean_sbu_1, # of connection points: 4
#     Node 6, Type 0, BuildingBlock: QUQFOY_clean_sbu_1, # of connection points: 4
#     Node 7, Type 0, BuildingBlock: QUQFOY_clean_sbu_1, # of connection points: 4
#     Node 8, Type 0, BuildingBlock: QUQFOY_clean_sbu_1, # of connection points: 4
#     Node 9, Type 0, BuildingBlock: QUQFOY_clean_sbu_1, # of connection points: 4
#     Node 10, Type 0, BuildingBlock: QUQFOY_clean_sbu_1, # of connection points: 4
#     Node 11, Type 0, BuildingBlock: QUQFOY_clean_sbu_1, # of connection points: 4
#     Edge 12, Type (0, 0), BuildingBlock: TEMPAE_clean_linker_10, # of connection points: 2
#     Edge 13, Type (0, 0), BuildingBlock: TEMPAE_clean_linker_10, # of connection points: 2
#     Edge 14, Type (0, 0), BuildingBlock: TEMPAE_clean_linker_10, # of connection points: 2
#     Edge 15, Type (0, 0), BuildingBlock: TEMPAE_clean_linker_10, # of connection points: 2
#     Edge 16, Type (0, 0), BuildingBlock: TEMPAE_clean_linker_10, # of connection points: 2
#     Edge 17, Type (0, 0), BuildingBlock: TEMPAE_clean_linker_10, # of connection points: 2
#     Edge 18, Type (0, 0), BuildingBlock: TEMPAE_clean_linker_10, # of connection points: 2
#     Edge 19, Type (0, 0), BuildingBlock: TEMPAE_clean_linker_10, # of connection points: 2
#     Edge 20, Type (0, 0), BuildingBlock: TEMPAE_clean_linker_10, # of connection points: 2
#     Edge 21, Type (0, 0), BuildingBlock: TEMPAE_clean_linker_10, # of connection points: 2
#     Edge 22, Type (0, 0), BuildingBlock: TEMPAE_clean_linker_10, # of connection points: 2
#     Edge 23, Type (0, 0), BuildingBlock: TEMPAE_clean_linker_10, # of connection points: 2
#     Edge 24, Type (0, 0), BuildingBlock: TEMPAE_clean_linker_10, # of connection points: 2
#     Edge 25, Type (0, 0), BuildingBlock: TEMPAE_clean_linker_10, # of connection points: 2
#     Edge 26, Type (0, 0), BuildingBlock: TEMPAE_clean_linker_10, # of connection points: 2
#     Edge 27, Type (0, 0), BuildingBlock: TEMPAE_clean_linker_10, # of connection points: 2
#     Edge 28, Type (0, 0), BuildingBlock: TEMPAE_clean_linker_10, # of connection points: 2
#     Edge 29, Type (0, 0), BuildingBlock: TEMPAE_clean_linker_10, # of connection points: 2
#     Edge 30, Type (0, 0), BuildingBlock: TEMPAE_clean_linker_10, # of connection points: 2
#     Edge 31, Type (0, 0), BuildingBlock: TEMPAE_clean_linker_10, # of connection points: 2
#     Edge 32, Type (0, 0), BuildingBlock: TEMPAE_clean_linker_10, # of connection points: 2
#     Edge 33, Type (0, 0), BuildingBlock: TEMPAE_clean_linker_10, # of connection points: 2
#     Edge 34, Type (0, 0), BuildingBlock: TEMPAE_clean_linker_10, # of connection points: 2
#     Edge 35, Type (0, 0), BuildingBlock: TEMPAE_clean_linker_10, # of connection points: 2
# Relax obj value: 0.084
# Max RMSD: 0.128
# Mean RMSD: 0.128
data_MOF--net-umo--node1-QUQFOY_clean_sbu_1--edge1-TEMPAE_clean_linker_10
_symmetry_space_group_name_H-M    P1
_symmetry_Int_Tables_number       1
_symmetry_cell_setting            triclinic
loop_
_symmetry_equiv_pos_as_xyz
'x, y, z'
_cell_length_a     53.407199
_cell_length_b     53.412396
_cell_length_c     38.945778
_cell_angle_alpha  89.991585
_cell_angle_beta   89.99728
_cell_angle_gamma 119.99452
loop_
_atom_site_label
_atom_site_type_symbol
_atom_site_fract_x
_atom_site_fract_y
_atom_site_fract_z
_atom_type_partial_charge
O0 O 0.15792 0.58134 0.43997 0.0
Cd1 Cd 0.15062 0.58774 0.39006 0.0
Cd2 Cd 0.2046 0.58999 0.38532 0.0
O3 O 0.19829 0.57956 0.43735 0.0
O4 O 0.11097 0.58192 0.39508 0.0
O5 O 0.12069 0.55544 0.36021 0.0
C6 C 0.10187 0.56103 0.37344 0.0
C7 C 0.22671 0.57224 0.34766 0.0
C8 C 0.17784 0.57902 0.45479 0.0
C9 C 0.20085 0.64471 0.37307 0.0
O10 O 0.21575 0.63224 0.37565 0.0
O11 O 0.17354 0.63043 0.37594 0.0
O12 O 0.2409 0.59015 0.37192 0.0
O13 O 0.19929 0.56291 0.34581 0.0
O14 O 0.56317 0.16128 0.60477 0.0
Cd15 Cd 0.55349 0.15722 0.55352 0.0
Cd16 Cd 0.60681 0.20719 0.55366 0.0
O17 O 0.60843 0.19693 0.60485 0.0
O18 O 0.52049 0.11699 0.55096 0.0
O19 O 0.56158 0.13128 0.52338 0.0
C20 C 0.53609 0.11067 0.5316 0.0
C21 C 0.64779 0.22942 0.51785 0.0
C22 C 0.58624 0.17797 0.62095 0.0
C23 C 0.55181 0.20988 0.53811 0.0
O24 O 0.57874 0.22232 0.54452 0.0
O25 O 0.53673 0.18249 0.53751 0.0
O26 O 0.64474 0.24262 0.54377 0.0
O27 O 0.62842 0.20261 0.51345 0.0
O28 O 0.42139 0.56957 0.77348 0.0
Cd29 Cd 0.41608 0.56092 0.72199 0.0
Cd30 Cd 0.41321 0.61036 0.72288 0.0
O31 O 0.42401 0.61213 0.77465 0.0
O32 O 0.42713 0.53074 0.71655 0.0
O33 O 0.45005 0.57291 0.69008 0.0
C34 C 0.44762 0.54804 0.69639 0.0
C35 C 0.43093 0.65092 0.68649 0.0
C36 C 0.42392 0.5911 0.79027 0.0
C37 C 0.3587 0.55294 0.70761 0.0
O38 O 0.37081 0.58 0.71289 0.0
O39 O 0.37339 0.54024 0.70779 0.0
O40 O 0.41388 0.64729 0.71178 0.0
O41 O 0.43965 0.63243 0.68311 0.0
O42 O 0.84492 0.42738 0.95197 0.0
Cd43 Cd 0.85137 0.41855 0.90277 0.0
Cd44 Cd 0.79752 0.41447 0.8957 0.0
O45 O 0.80354 0.42691 0.94701 0.0
O46 O 0.89218 0.42761 0.90545 0.0
O47 O 0.87783 0.45004 0.86982 0.0
C48 C 0.89857 0.44699 0.88222 0.0
C49 C 0.77517 0.43062 0.85639 0.0
C50 C 0.82442 0.42952 0.96542 0.0
C51 C 0.80255 0.36032 0.88729 0.0
O52 O 0.78703 0.3722 0.88791 0.0
O53 O 0.82972 0.37523 0.89137 0.0
O54 O 0.76117 0.41375 0.88155 0.0
O55 O 0.80255 0.43975 0.85443 0.0
O56 O 0.42424 0.83454 0.11101 0.0
Cd57 Cd 0.43391 0.84265 0.06001 0.0
Cd58 Cd 0.38378 0.78963 0.05755 0.0
O59 O 0.38099 0.79544 0.11009 0.0
O60 O 0.46584 0.88343 0.06218 0.0
O61 O 0.42602 0.87013 0.03239 0.0
C62 C 0.45087 0.89051 0.04282 0.0
C63 C 0.34366 0.768 0.02037 0.0
C64 C 0.40242 0.81493 0.12676 0.0
C65 C 0.44193 0.79435 0.04009 0.0
O66 O 0.41493 0.77899 0.04573 0.0
O67 O 0.45443 0.8217 0.04166 0.0
O68 O 0.3475 0.75356 0.04424 0.0
O69 O 0.36168 0.79547 0.01893 0.0
O70 O 0.55994 0.39162 0.29155 0.0
Cd71 Cd 0.56817 0.41697 0.24872 0.0
Cd72 Cd 0.58858 0.38314 0.22246 0.0
O73 O 0.58683 0.37337 0.27431 0.0
O74 O 0.55046 0.44098 0.2604 0.0
O75 O 0.5383 0.41345 0.21421 0.0
C76 C 0.53538 0.43188 0.23273 0.0
C77 C 0.57592 0.34627 0.1813 0.0
C78 C 0.57344 0.3782 0.29807 0.0
C79 C 0.63024 0.446 0.22615 0.0
O80 O 0.62385 0.42259 0.2107 0.0
O81 O 0.61122 0.44776 0.24386 0.0
O82 O 0.59868 0.35563 0.20008 0.0
O83 O 0.55963 0.35742 0.18629 0.0
O84 O 0.42582 0.84424 0.39705 0.0
Cd85 Cd 0.41808 0.85294 0.4458 0.0
Cd86 Cd 0.41275 0.79762 0.45479 0.0
O87 O 0.42297 0.80176 0.40274 0.0
O88 O 0.42562 0.89306 0.43881 0.0
O89 O 0.44961 0.88258 0.4767 0.0
C90 C 0.44539 0.90178 0.46191 0.0
C91 C 0.42862 0.77432 0.49339 0.0
C92 C 0.42611 0.82264 0.3839 0.0
C93 C 0.35961 0.80457 0.46313 0.0
O94 O 0.37112 0.78871 0.46383 0.0
O95 O 0.37484 0.83155 0.45771 0.0
O96 O 0.4103 0.76047 0.46937 0.0
O97 O 0.43931 0.80198 0.49462 0.0
O98 O 0.60674 0.43959 0.54835 0.0
Cd99 Cd 0.58084 0.4321 0.59049 0.0
Cd100 Cd 0.61334 0.41134 0.61892 0.0
O101 O 0.62246 0.41098 0.56713 0.0
O102 O 0.55753 0.4504 0.57801 0.0
O103 O 0.58452 0.46217 0.62469 0.0
C104 C 0.56649 0.46542 0.60575 0.0
C105 C 0.65034 0.42399 0.65991 0.0
C106 C 0.61878 0.42464 0.54271 0.0
C107 C 0.55064 0.37063 0.61511 0.0
O108 O 0.57347 0.37737 0.63209 0.0
O109 O 0.54972 0.38917 0.59556 0.0
O110 O 0.64013 0.40064 0.64208 0.0
O111 O 0.64001 0.44087 0.65402 0.0
O112 O 0.1578 0.57178 0.72848 0.0
Cd113 Cd 0.15094 0.56049 0.77917 0.0
Cd114 Cd 0.20381 0.61008 0.78288 0.0
O115 O 0.19792 0.61412 0.73066 0.0
O116 O 0.10986 0.52919 0.77826 0.0
O117 O 0.12502 0.56869 0.80934 0.0
C118 C 0.10393 0.54422 0.79902 0.0
C119 C 0.225 0.64936 0.82128 0.0
C120 C 0.17775 0.59378 0.71336 0.0
C121 C 0.19934 0.55165 0.79672 0.0
O122 O 0.21473 0.57889 0.79303 0.0
O123 O 0.17202 0.53919 0.79447 0.0
O124 O 0.23965 0.64623 0.79707 0.0
O125 O 0.19759 0.63106 0.8225 0.0
O126 O 0.57813 0.15054 0.89421 0.0
Cd127 Cd 0.58478 0.14421 0.94437 0.0
Cd128 Cd 0.58636 0.19689 0.94969 0.0
O129 O 0.57513 0.19016 0.89796 0.0
O130 O 0.57584 0.10341 0.94331 0.0
O131 O 0.55176 0.11809 0.97575 0.0
C132 C 0.5553 0.09722 0.96487 0.0
C133 C 0.56915 0.21947 0.98724 0.0
C134 C 0.57489 0.17011 0.88 0.0
C135 C 0.64142 0.19388 0.96205 0.0
O136 O 0.62871 0.20854 0.95938 0.0
O137 O 0.62748 0.16662 0.95856 0.0
O138 O 0.58623 0.23316 0.96211 0.0
O139 O 0.56027 0.19218 0.99 0.0
O140 O 0.42588 0.57234 0.06454 0.0
Cd141 Cd 0.43608 0.57905 0.11558 0.0
Cd142 Cd 0.38646 0.58192 0.11613 0.0
O143 O 0.38355 0.57024 0.06455 0.0
O144 O 0.46665 0.56843 0.12016 0.0
O145 O 0.42536 0.54596 0.14851 0.0
C146 C 0.4501 0.54841 0.14129 0.0
C147 C 0.34658 0.56506 0.15354 0.0
C148 C 0.40403 0.56969 0.04838 0.0
C149 C 0.44424 0.63673 0.1288 0.0
O150 O 0.41702 0.62447 0.12478 0.0
O151 O 0.45701 0.6221 0.12819 0.0
O152 O 0.34984 0.58165 0.12788 0.0
O153 O 0.36503 0.55628 0.15677 0.0
O154 O 0.83754 0.44265 0.23981 0.0
Cd155 Cd 0.84427 0.4523 0.29097 0.0
Cd156 Cd 0.79415 0.39902 0.29289 0.0
O157 O 0.80212 0.39727 0.24086 0.0
O158 O 0.88477 0.48493 0.29118 0.0
O159 O 0.87125 0.44396 0.31867 0.0
C160 C 0.89168 0.46926 0.30955 0.0
C161 C 0.77225 0.35765 0.32819 0.0
C162 C 0.82012 0.41958 0.22413 0.0
C163 C 0.79283 0.45457 0.31048 0.0
O164 O 0.78002 0.4276 0.30421 0.0
O165 O 0.82021 0.46956 0.30954 0.0
O166 O 0.75849 0.36146 0.30348 0.0
O167 O 0.79933 0.3765 0.33164 0.0
C168 C 0.20494 0.69 0.39625 0.0
C169 C 0.2163 0.67652 0.37558 0.0
C170 C 0.22325 0.71715 0.41105 0.0
C171 C 0.25331 0.73084 0.4047 0.0
C172 C 0.26396 0.71932 0.37955 0.0
C173 C 0.24526 0.69218 0.36534 0.0
C174 C 0.21081 0.72923 0.43655 0.0
C175 C 0.29577 0.73373 0.37095 0.0
C176 C 0.31575 0.80087 0.43599 0.0
C177 C 0.3279 0.79001 0.4595 0.0
C178 C 0.28897 0.78238 0.42049 0.0
C179 C 0.27429 0.75268 0.42903 0.0
C180 C 0.28428 0.74288 0.45684 0.0
C181 C 0.3111 0.76173 0.47171 0.0
C182 C 0.27845 0.794 0.39207 0.0
C183 C 0.26874 0.71154 0.46777 0.0
H184 H 0.18244 0.6781 0.40402 0.0
H185 H 0.25394 0.68198 0.34884 0.0
H186 H 0.21131 0.72101 0.46256 0.0
H187 H 0.22345 0.75319 0.43735 0.0
H188 H 0.18794 0.72225 0.43033 0.0
H189 H 0.29986 0.72413 0.34781 0.0
H190 H 0.30477 0.75718 0.36643 0.0
H191 H 0.30764 0.73127 0.39289 0.0
H192 H 0.32849 0.82288 0.42669 0.0
H193 H 0.32023 0.75347 0.49038 0.0
H194 H 0.25451 0.78195 0.39023 0.0
H195 H 0.28727 0.79172 0.36722 0.0
H196 H 0.286 0.81731 0.396 0.0
H197 H 0.24521 0.70325 0.47033 0.0
H198 H 0.27702 0.70836 0.49259 0.0
H199 H 0.27177 0.69838 0.44791 0.0
C200 C 0.50941 0.21645 0.55026 0.0
C201 C 0.53785 0.22777 0.5383 0.0
C202 C 0.49939 0.23493 0.56146 0.0
C203 C 0.51846 0.26519 0.56096 0.0
C204 C 0.54592 0.27655 0.54505 0.0
C205 C 0.5551 0.25765 0.5336 0.0
C206 C 0.46944 0.22183 0.57651 0.0
C207 C 0.56691 0.30872 0.54323 0.0
C208 C 0.51305 0.33067 0.57962 0.0
C209 C 0.52958 0.33957 0.60989 0.0
C210 C 0.5045 0.30344 0.56531 0.0
C211 C 0.51274 0.28511 0.5818 0.0
C212 C 0.52403 0.29169 0.6156 0.0
C213 C 0.53226 0.31897 0.62937 0.0
C214 C 0.49055 0.29625 0.53033 0.0
C215 C 0.53191 0.2721 0.6349 0.0
H216 H 0.49578 0.1933 0.55362 0.0
H217 H 0.57685 0.26643 0.5236 0.0
H218 H 0.47006 0.21622 0.60381 0.0
H219 H 0.46082 0.23688 0.57528 0.0
H220 H 0.45433 0.20153 0.56287 0.0
H221 H 0.58739 0.31382 0.53016 0.0
H222 H 0.55701 0.31969 0.52925 0.0
H223 H 0.57233 0.318 0.56949 0.0
H224 H 0.50989 0.34608 0.56484 0.0
H225 H 0.54406 0.32533 0.65343 0.0
H226 H 0.47631 0.27257 0.52714 0.0
H227 H 0.5076 0.30392 0.51032 0.0
H228 H 0.4777 0.30712 0.52602 0.0
H229 H 0.51438 0.24927 0.63291 0.0
H230 H 0.53618 0.27802 0.66248 0.0
H231 H 0.55172 0.27372 0.62345 0.0
C232 C 0.20301 0.51082 0.77201 0.0
C233 C 0.21405 0.53463 0.79432 0.0
C234 C 0.22149 0.50238 0.75682 0.0
C235 C 0.25134 0.51801 0.76459 0.0
C236 C 0.26139 0.53869 0.79146 0.0
C237 C 0.24258 0.5469 0.80588 0.0
C238 C 0.20965 0.47943 0.72933 0.0
C239 C 0.29289 0.55512 0.80165 0.0
C240 C 0.31409 0.51165 0.73151 0.0
C241 C 0.32698 0.53609 0.71018 0.0
C242 C 0.28708 0.50275 0.74675 0.0
C243 C 0.2729 0.51859 0.74002 0.0
C244 C 0.28378 0.54022 0.71421 0.0
C245 C 0.31089 0.54886 0.69975 0.0
C246 C 0.27576 0.47888 0.77311 0.0
C247 C 0.2688 0.557 0.70518 0.0
H248 H 0.18083 0.50107 0.76318 0.0
H249 H 0.25097 0.565 0.82356 0.0
H250 H 0.21135 0.48977 0.70406 0.0
H251 H 0.22195 0.46778 0.72787 0.0
H252 H 0.18648 0.46357 0.73399 0.0
H253 H 0.29628 0.56709 0.82612 0.0
H254 H 0.30157 0.54022 0.80455 0.0
H255 H 0.30556 0.57095 0.78124 0.0
H256 H 0.32645 0.50158 0.73953 0.0
H257 H 0.32073 0.56751 0.68287 0.0
H258 H 0.25181 0.4673 0.77453 0.0
H259 H 0.28439 0.48832 0.79875 0.0
H260 H 0.28294 0.46308 0.76728 0.0
H261 H 0.24531 0.54218 0.70147 0.0
H262 H 0.27779 0.57003 0.68145 0.0
H263 H 0.27152 0.5719 0.72655 0.0
C264 C 0.75971 0.31233 0.87634 0.0
C265 C 0.78776 0.32854 0.88939 0.0
C266 C 0.74097 0.28446 0.88863 0.0
C267 C 0.75058 0.2728 0.91481 0.0
C268 C 0.78009 0.28739 0.92432 0.0
C269 C 0.7985 0.31526 0.91136 0.0
C270 C 0.70987 0.26922 0.87675 0.0
C271 C 0.79151 0.27527 0.9511 0.0
C272 C 0.68804 0.23764 0.97513 0.0
C273 C 0.67323 0.20975 0.96135 0.0
C274 C 0.71567 0.25773 0.96334 0.0
C275 C 0.72846 0.24963 0.9369 0.0
C276 C 0.71549 0.22031 0.92688 0.0
C277 C 0.68784 0.20052 0.93937 0.0
C278 C 0.72924 0.28858 0.97581 0.0
C279 C 0.72895 0.21051 0.89986 0.0
H280 H 0.75159 0.32242 0.85886 0.0
H281 H 0.82032 0.32765 0.92131 0.0
H282 H 0.7022 0.24613 0.87135 0.0
H283 H 0.696 0.27018 0.89736 0.0
H284 H 0.70692 0.27927 0.85326 0.0
H285 H 0.81494 0.28336 0.94723 0.0
H286 H 0.78875 0.28236 0.97691 0.0
H287 H 0.77972 0.25129 0.95073 0.0
H288 H 0.67689 0.24459 0.9926 0.0
H289 H 0.67652 0.17882 0.92885 0.0
H290 H 0.72707 0.30208 0.95565 0.0
H291 H 0.75261 0.29759 0.98092 0.0
H292 H 0.71875 0.29036 0.99961 0.0
H293 H 0.72191 0.21342 0.87409 0.0
H294 H 0.72192 0.18724 0.90299 0.0
H295 H 0.7529 0.22332 0.90076 0.0
C296 C 0.44641 0.75105 0.03025 0.0
C297 C 0.45911 0.77976 0.04124 0.0
C298 C 0.45517 0.73247 0.0441 0.0
C299 C 0.47684 0.74296 0.06986 0.0
C300 C 0.49276 0.77293 0.07686 0.0
C301 C 0.48376 0.79116 0.06222 0.0
C302 C 0.43836 0.70081 0.03472 0.0
C303 C 0.5167 0.78521 0.10313 0.0
C304 C 0.44847 0.68463 0.13627 0.0
C305 C 0.4609 0.66838 0.12524 0.0
C306 C 0.45649 0.71142 0.12131 0.0
C307 C 0.47714 0.72182 0.09438 0.0
C308 C 0.49276 0.70754 0.08685 0.0
C309 C 0.48451 0.68086 0.10261 0.0
C310 C 0.44002 0.72653 0.13118 0.0
C311 C 0.51559 0.71836 0.05923 0.0
H312 H 0.42763 0.74236 0.01359 0.0
H313 H 0.49383 0.81348 0.07062 0.0
H314 H 0.45312 0.69205 0.03107 0.0
H315 H 0.42325 0.68851 0.05589 0.0
H316 H 0.42554 0.69703 0.01086 0.0
H317 H 0.53236 0.80831 0.09775 0.0
H318 H 0.5073 0.78388 0.12894 0.0
H319 H 0.52842 0.77296 0.10388 0.0
H320 H 0.43047 0.6751 0.15412 0.0
H321 H 0.4943 0.66838 0.09411 0.0
H322 H 0.42434 0.7234 0.1106 0.0
H323 H 0.45493 0.7501 0.13411 0.0
H324 H 0.42787 0.71799 0.15556 0.0
H325 H 0.50518 0.70924 0.03413 0.0
H326 H 0.53161 0.71129 0.0642 0.0
H327 H 0.52709 0.74227 0.05718 0.0
C328 C 0.78555 0.496 0.29574 0.0
C329 C 0.77509 0.46867 0.31082 0.0
C330 C 0.76629 0.50459 0.28326 0.0
C331 C 0.73617 0.48522 0.28571 0.0
C332 C 0.72586 0.45957 0.30539 0.0
C333 C 0.74555 0.45179 0.31798 0.0
C334 C 0.77831 0.53297 0.26446 0.0
C335 C 0.6939 0.43851 0.30966 0.0
C336 C 0.66938 0.4863 0.25994 0.0
C337 C 0.66118 0.46738 0.23174 0.0
C338 C 0.69656 0.49668 0.27541 0.0
C339 C 0.7155 0.4877 0.26237 0.0
C340 C 0.70939 0.47331 0.23027 0.0
C341 C 0.68225 0.46346 0.21516 0.0
C342 C 0.70323 0.51394 0.30812 0.0
C343 C 0.72954 0.4643 0.21455 0.0
H344 H 0.80847 0.50942 0.29055 0.0
H345 H 0.73751 0.43098 0.33042 0.0
H346 H 0.78317 0.53009 0.23754 0.0
H347 H 0.76287 0.54115 0.26417 0.0
H348 H 0.79888 0.54951 0.27643 0.0
H349 H 0.68971 0.4199 0.32621 0.0
H350 H 0.683 0.44953 0.32116 0.0
H351 H 0.68385 0.42997 0.28424 0.0
H352 H 0.65359 0.49037 0.27236 0.0
H353 H 0.67644 0.44974 0.19263 0.0
H354 H 0.72687 0.52832 0.31156 0.0
H355 H 0.69489 0.49898 0.33035 0.0
H356 H 0.69254 0.52723 0.30831 0.0
H357 H 0.75209 0.48257 0.21467 0.0
H358 H 0.72342 0.4566 0.18771 0.0
H359 H 0.72893 0.44652 0.22997 0.0
C360 C 0.16232 0.56664 0.65822 0.0
C361 C 0.17898 0.59312 0.6753 0.0
C362 C 0.16416 0.56426 0.62265 0.0
C363 C 0.18269 0.58908 0.60324 0.0
C364 C 0.19959 0.61597 0.62012 0.0
C365 C 0.19776 0.61762 0.65608 0.0
C366 C 0.14598 0.53512 0.60579 0.0
C367 C 0.21919 0.64301 0.60013 0.0
C368 C 0.19966 0.57706 0.51156 0.0
C369 C 0.17865 0.57977 0.49294 0.0
C370 C 0.20157 0.58038 0.54753 0.0
C371 C 0.18236 0.58704 0.56509 0.0
C372 C 0.16126 0.5899 0.54638 0.0
C373 C 0.15948 0.58596 0.51076 0.0
C374 C 0.22397 0.57658 0.56679 0.0
C375 C 0.14045 0.59715 0.564 0.0
H376 H 0.14805 0.54739 0.67276 0.0
H377 H 0.21085 0.63807 0.66907 0.0
H378 H 0.12987 0.53583 0.58846 0.0
H379 H 0.1598 0.52965 0.58985 0.0
H380 H 0.13427 0.51754 0.62482 0.0
H381 H 0.23165 0.662 0.6171 0.0
H382 H 0.23459 0.63963 0.58446 0.0
H383 H 0.20615 0.64796 0.5821 0.0
H384 H 0.21467 0.57248 0.49805 0.0
H385 H 0.1433 0.58842 0.49678 0.0
H386 H 0.21317 0.55861 0.58551 0.0
H387 H 0.23821 0.59642 0.58164 0.0
H388 H 0.23756 0.57185 0.54939 0.0
H389 H 0.1264 0.57952 0.58193 0.0
H390 H 0.12643 0.6003 0.54549 0.0
H391 H 0.15256 0.61716 0.57944 0.0
C392 C 0.61041 0.1937 0.67876 0.0
C393 C 0.58556 0.17681 0.65905 0.0
C394 C 0.60895 0.19372 0.71485 0.0
C395 C 0.58197 0.17676 0.73149 0.0
C396 C 0.55688 0.15981 0.71171 0.0
C397 C 0.55901 0.15986 0.67589 0.0
C398 C 0.63626 0.2117 0.73522 0.0
C399 C 0.52767 0.14155 0.7284 0.0
C400 C 0.57938 0.15146 0.82296 0.0
C401 C 0.5745 0.17102 0.8419 0.0
C402 C 0.58239 0.1535 0.7872 0.0
C403 C 0.58 0.17536 0.76962 0.0
C404 C 0.57447 0.19486 0.78834 0.0
C405 C 0.57196 0.19258 0.82433 0.0
C406 C 0.58838 0.13235 0.76826 0.0
C407 C 0.57129 0.21813 0.77032 0.0
H408 H 0.63096 0.20694 0.66601 0.0
H409 H 0.53956 0.14689 0.66103 0.0
H410 H 0.63375 0.22722 0.75176 0.0
H411 H 0.6403 0.19753 0.75242 0.0
H412 H 0.65545 0.22397 0.71846 0.0
H413 H 0.51004 0.13059 0.70927 0.0
H414 H 0.52805 0.12483 0.74493 0.0
H415 H 0.52256 0.1552 0.74516 0.0
H416 H 0.58157 0.13479 0.83615 0.0
H417 H 0.56834 0.20785 0.8387 0.0
H418 H 0.60856 0.14421 0.75306 0.0
H419 H 0.5706 0.1195 0.74993 0.0
H420 H 0.59059 0.11722 0.78588 0.0
H421 H 0.59127 0.23246 0.75572 0.0
H422 H 0.56696 0.23153 0.78852 0.0
H423 H 0.5533 0.20819 0.75151 0.0
C424 C 0.43115 0.57724 0.99362 0.0
C425 C 0.40512 0.5704 0.01022 0.0
C426 C 0.43444 0.58174 0.95808 0.0
C427 C 0.41094 0.57874 0.93824 0.0
C428 C 0.38432 0.57113 0.95454 0.0
C429 C 0.38179 0.56731 0.99043 0.0
C430 C 0.46328 0.59006 0.94183 0.0
C431 C 0.35857 0.5671 0.93406 0.0
C432 C 0.42743 0.6127 0.84893 0.0
C433 C 0.42251 0.58912 0.82835 0.0
C434 C 0.42362 0.60969 0.8848 0.0
C435 C 0.4141 0.58233 0.90026 0.0
C436 C 0.40898 0.5585 0.87958 0.0
C437 C 0.41353 0.56224 0.84408 0.0
C438 C 0.42989 0.63575 0.90618 0.0
C439 C 0.39851 0.5289 0.89491 0.0
H440 H 0.44949 0.57998 0.00853 0.0
H441 H 0.36166 0.56218 1.00298 0.0
H442 H 0.4607 0.57336 0.923 0.0
H443 H 0.47153 0.61071 0.9276 0.0
H444 H 0.47974 0.5926 0.96107 0.0
H445 H 0.3393 0.56081 0.95047 0.0
H446 H 0.36398 0.58741 0.9204 0.0
H447 H 0.35293 0.55016 0.91426 0.0
H448 H 0.4342 0.63347 0.83703 0.0
H449 H 0.40926 0.5437 0.82851 0.0
H450 H 0.44698 0.63998 0.92529 0.0
H451 H 0.41029 0.63152 0.9207 0.0
H452 H 0.43709 0.65547 0.89031 0.0
H453 H 0.41489 0.52964 0.91303 0.0
H454 H 0.3942 0.51228 0.87506 0.0
H455 H 0.37836 0.52202 0.90975 0.0
C456 C 0.83144 0.44734 0.16951 0.0
C457 C 0.81933 0.42041 0.18612 0.0
C458 C 0.83049 0.44936 0.13377 0.0
C459 C 0.81758 0.42385 0.11384 0.0
C460 C 0.80506 0.39652 0.13031 0.0
C461 C 0.80583 0.3951 0.16638 0.0
C462 C 0.84373 0.4789 0.1173 0.0
C463 C 0.79147 0.36886 0.10978 0.0
C464 C 0.79929 0.42889 0.02042 0.0
C465 C 0.82349 0.43108 1.00343 0.0
C466 C 0.79698 0.42652 0.05642 0.0
C467 C 0.81924 0.42607 0.07573 0.0
C468 C 0.84391 0.42885 0.05878 0.0
C469 C 0.84582 0.43154 0.02298 0.0
C470 C 0.77061 0.42415 0.07376 0.0
C471 C 0.86816 0.42852 0.0784 0.0
H472 H 0.84147 0.46706 0.18453 0.0
H473 H 0.7963 0.37426 0.17904 0.0
H474 H 0.86258 0.48277 0.10142 0.0
H475 H 0.82787 0.48008 0.09997 0.0
H476 H 0.85106 0.49652 0.13658 0.0
H477 H 0.78164 0.34936 0.12643 0.0
H478 H 0.77454 0.36801 0.09253 0.0
H479 H 0.80809 0.36822 0.09328 0.0
H480 H 0.78187 0.42837 0.00558 0.0
H481 H 0.86464 0.43321 0.01025 0.0
H482 H 0.7772 0.44164 0.09303 0.0
H483 H 0.75886 0.4033 0.08773 0.0
H484 H 0.75554 0.4255 0.0552 0.0
H485 H 0.87781 0.44677 0.09685 0.0
H486 H 0.88555 0.43018 0.06124 0.0
H487 H 0.85958 0.40826 0.09351 0.0
C488 C 0.38026 0.80022 0.18581 0.0
C489 C 0.40464 0.81314 0.16449 0.0
C490 C 0.38334 0.79942 0.22169 0.0
C491 C 0.41137 0.81114 0.23624 0.0
C492 C 0.43585 0.82298 0.21455 0.0
C493 C 0.4322 0.82411 0.17913 0.0
C494 C 0.35676 0.787 0.24412 0.0
C495 C 0.46606 0.83521 0.22882 0.0
C496 C 0.42576 0.84252 0.32605 0.0
C497 C 0.42549 0.82037 0.34583 0.0
C498 C 0.42062 0.83943 0.29064 0.0
C499 C 0.41562 0.81375 0.27414 0.0
C500 C 0.41624 0.79162 0.29357 0.0
C501 C 0.42099 0.7951 0.32927 0.0
C502 C 0.42017 0.86359 0.27094 0.0
C503 C 0.41164 0.76421 0.27667 0.0
H504 H 0.35894 0.7915 0.17458 0.0
H505 H 0.45116 0.83351 0.16276 0.0
H506 H 0.35633 0.7704 0.26163 0.0
H507 H 0.35739 0.80436 0.26039 0.0
H508 H 0.33649 0.77708 0.22884 0.0
H509 H 0.48249 0.84102 0.20827 0.0
H510 H 0.47181 0.8549 0.24408 0.0
H511 H 0.46715 0.81938 0.24629 0.0
H512 H 0.42914 0.86216 0.33841 0.0
H513 H 0.42054 0.77779 0.34427 0.0
H514 H 0.39926 0.85522 0.25726 0.0
H515 H 0.4375 0.87226 0.25126 0.0
H516 H 0.42327 0.88167 0.28786 0.0
H517 H 0.38995 0.75276 0.26455 0.0
H518 H 0.41339 0.74934 0.29519 0.0
H519 H 0.42779 0.76949 0.25595 0.0
C520 C 0.56071 0.37372 0.36031 0.0
C521 C 0.57956 0.37514 0.33439 0.0
C522 C 0.56956 0.37861 0.39478 0.0
C523 C 0.59823 0.38596 0.40334 0.0
C524 C 0.61656 0.38515 0.37767 0.0
C525 C 0.60693 0.37954 0.34349 0.0
C526 C 0.5488 0.37762 0.42177 0.0
C527 C 0.64712 0.39243 0.38564 0.0
C528 C 0.62471 0.43622 0.48008 0.0
C529 C 0.62118 0.41715 0.50676 0.0
C530 C 0.61953 0.42676 0.44583 0.0
C531 C 0.60962 0.3973 0.43827 0.0
C532 C 0.60802 0.37847 0.46483 0.0
C533 C 0.61412 0.38872 0.49875 0.0
C534 C 0.62295 0.44791 0.41797 0.0
C535 C 0.59761 0.34691 0.45832 0.0
H536 H 0.5395 0.37017 0.35343 0.0
H537 H 0.62178 0.38094 0.32359 0.0
H538 H 0.54872 0.36477 0.44423 0.0
H539 H 0.55587 0.39985 0.43093 0.0
H540 H 0.52638 0.36807 0.41178 0.0
H541 H 0.65542 0.38326 0.36609 0.0
H542 H 0.66129 0.41629 0.38573 0.0
H543 H 0.64869 0.38426 0.41126 0.0
H544 H 0.63024 0.45821 0.48616 0.0
H545 H 0.61101 0.3737 0.51926 0.0
H546 H 0.60134 0.44271 0.40832 0.0
H547 H 0.63523 0.44616 0.39599 0.0
H548 H 0.63431 0.47059 0.42733 0.0
H549 H 0.57394 0.33426 0.46289 0.0
H550 H 0.60815 0.33881 0.47621 0.0
H551 H 0.60184 0.34274 0.43166 0.0
C552 C 0.94398 0.50603 0.30456 0.0
C553 C 0.92229 0.48003 0.31879 0.0
C554 C 0.97316 0.5169 0.31272 0.0
C555 C 0.98092 0.50153 0.33591 0.0
C556 C 0.95923 0.47502 0.34998 0.0
C557 C 0.93011 0.46451 0.34116 0.0
C558 C 0.99563 0.5452 0.29706 0.0
C559 C 0.96673 0.45814 0.37493 0.0
C560 C 0.06075 0.52418 0.33766 0.0
C561 C 0.07077 0.54425 0.36464 0.0
C562 C 0.0313 0.50929 0.32862 0.0
C563 C 0.01154 0.51452 0.34716 0.0
C564 C 0.02145 0.53405 0.37509 0.0
C565 C 0.05091 0.54872 0.38339 0.0
C566 C 0.02149 0.48868 0.29859 0.0
C567 C 0.00109 0.54016 0.39563 0.0
H568 H 0.93819 0.51805 0.28699 0.0
H569 H 0.91348 0.44434 0.35211 0.0
H570 H 0.00619 0.56166 0.31753 0.0
H571 H 0.01273 0.54254 0.28431 0.0
H572 H 0.9862 0.55358 0.27792 0.0
H573 H 0.94761 0.43705 0.38188 0.0
H574 H 0.98353 0.45414 0.36381 0.0
H575 H 0.97585 0.47093 0.39873 0.0
H576 H 0.07597 0.52056 0.32317 0.0
H577 H 0.0584 0.56397 0.40452 0.0
H578 H 0.01394 0.49729 0.27756 0.0
H579 H 0.00295 0.46745 0.30617 0.0
H580 H 0.03905 0.4853 0.28854 0.0
H581 H 0.99226 0.55078 0.37899 0.0
H582 H 0.01188 0.5544 0.41803 0.0
H583 H 0.98251 0.51966 0.40501 0.0
C584 C 0.45908 0.95306 0.45113 0.0
C585 C 0.46225 0.93285 0.47089 0.0
C586 C 0.47351 0.98243 0.45985 0.0
C587 C 0.4915 0.9919 0.48921 0.0
C588 C 0.49556 0.9718 0.5087 0.0
C589 C 0.48092 0.94245 0.49924 0.0
C590 C 0.46868 0.00316 0.4383 0.0
C591 C 0.51455 0.98112 0.54022 0.0
C592 C 0.54158 0.07306 0.49906 0.0
C593 C 0.52514 0.08043 0.52048 0.0
C594 C 0.53122 0.0442 0.48912 0.0
C595 C 0.50386 0.02231 0.501 0.0
C596 C 0.48737 0.02964 0.52291 0.0
C597 C 0.49816 0.05856 0.53228 0.0
C598 C 0.54932 0.03717 0.4656 0.0
C599 C 0.4581 0.00695 0.53614 0.0
H600 H 0.44492 0.94589 0.42895 0.0
H601 H 0.48355 0.92697 0.51453 0.0
H602 H 0.45705 0.01167 0.45366 0.0
H603 H 0.48969 0.02191 0.43052 0.0
H604 H 0.45583 0.99276 0.41483 0.0
H605 H 0.5174 0.96341 0.55087 0.0
H606 H 0.53614 0.99979 0.53411 0.0
H607 H 0.50481 0.9883 0.56034 0.0
H608 H 0.56249 0.08982 0.48997 0.0
H609 H 0.48536 0.06399 0.54902 0.0
H610 H 0.53763 0.02817 0.44111 0.0
H611 H 0.553 0.02038 0.47743 0.0
H612 H 0.57061 0.05645 0.45977 0.0
H613 H 0.44301 0.99675 0.51431 0.0
H614 H 0.44854 0.01606 0.55408 0.0
H615 H 0.45991 0.98962 0.54962 0.0
C616 C 0.49263 0.55922 0.66372 0.0
C617 C 0.46773 0.5394 0.68164 0.0
C618 C 0.51195 0.55096 0.6505 0.0
C619 C 0.50601 0.52219 0.6551 0.0
C620 C 0.48089 0.50216 0.67314 0.0
C621 C 0.46216 0.51103 0.68625 0.0
C622 C 0.53863 0.57292 0.63158 0.0
C623 C 0.4736 0.47119 0.67835 0.0
C624 C 0.53402 0.48574 0.59561 0.0
C625 C 0.55453 0.48396 0.61642 0.0
C626 C 0.51927 0.4997 0.60712 0.0
C627 C 0.52526 0.51233 0.64019 0.0
C628 C 0.54726 0.51225 0.66044 0.0
C629 C 0.56161 0.49798 0.64834 0.0
C630 C 0.49593 0.49923 0.58474 0.0
C631 C 0.55445 0.52576 0.69571 0.0
H632 H 0.49714 0.58123 0.66024 0.0
H633 H 0.44296 0.49555 0.70003 0.0
H634 H 0.55824 0.57478 0.64386 0.0
H635 H 0.53812 0.56569 0.60476 0.0
H636 H 0.54059 0.59462 0.63108 0.0
H637 H 0.45336 0.45842 0.69328 0.0
H638 H 0.47105 0.46056 0.65309 0.0
H639 H 0.49148 0.47057 0.69206 0.0
H640 H 0.52856 0.47518 0.57077 0.0
H641 H 0.57756 0.49686 0.66447 0.0
H642 H 0.4985 0.52112 0.58301 0.0
H643 H 0.47446 0.48477 0.59638 0.0
H644 H 0.49611 0.49141 0.55836 0.0
H645 H 0.55704 0.5477 0.69502 0.0
H646 H 0.57455 0.52735 0.70617 0.0
H647 H 0.53642 0.5125 0.71357 0.0
C648 C 0.0516 0.5072 0.79696 0.0
C649 C 0.07376 0.53335 0.81028 0.0
C650 C 0.02296 0.4957 0.8079 0.0
C651 C 0.01622 0.51067 0.83284 0.0
C652 C 0.03829 0.53752 0.84571 0.0
C653 C 0.06689 0.54857 0.83426 0.0
C654 C 6e-05 0.46699 0.79356 0.0
C655 C 0.03185 0.55408 0.87229 0.0
C656 C 0.93611 0.48461 0.84343 0.0
C657 C 0.92885 0.4649 0.87055 0.0
C658 C 0.96477 0.50063 0.83161 0.0
C659 C 0.98653 0.49678 0.84736 0.0
C660 C 0.97942 0.4776 0.87544 0.0
C661 C 0.95071 0.46191 0.88664 0.0
C662 C 0.97161 0.52095 0.80163 0.0
C663 C 0.00197 0.47287 0.89294 0.0
H664 H 0.05665 0.49538 0.77821 0.0
H665 H 0.08389 0.56887 0.8445 0.0
H666 H 0.99149 0.45059 0.81435 0.0
H667 H 0.98166 0.46883 0.78331 0.0
H668 H 0.00852 0.45903 0.77274 0.0
H669 H 0.05083 0.57575 0.87744 0.0
H670 H 0.01354 0.55682 0.86378 0.0
H671 H 0.02526 0.54171 0.89669 0.0
H672 H 0.91934 0.48714 0.83102 0.0
H673 H 0.94536 0.44692 0.90784 0.0
H674 H 0.97793 0.51261 0.77913 0.0
H675 H 0.99021 0.54255 0.80787 0.0
H676 H 0.9529 0.52349 0.79428 0.0
H677 H 0.01027 0.46279 0.87465 0.0
H678 H 0.99328 0.45867 0.91585 0.0
H679 H 0.0206 0.49384 0.90103 0.0
C680 C 0.51558 0.05995 1.00185 0.0
C681 C 0.53648 0.06698 0.97618 0.0
C682 C 0.49845 0.03125 0.01315 0.0
C683 C 0.50235 0.00921 0.99833 0.0
C684 C 0.52281 0.01612 0.97173 0.0
C685 C 0.53963 0.04488 0.96105 0.0
C686 C 0.47683 0.02463 0.0416 0.0
C687 C 0.52762 0.99327 0.9552 0.0
C688 C 0.48787 0.94261 0.04833 0.0
C689 C 0.46233 0.9211 0.03305 0.0
C690 C 0.50032 0.97158 0.03835 0.0
C691 C 0.48699 0.97931 0.0123 0.0
C692 C 0.46062 0.95792 0.99761 0.0
C693 C 0.44854 0.92899 0.00822 0.0
C694 C 0.52841 0.99373 0.05475 0.0
C695 C 0.44581 0.96541 0.96977 0.0
H696 H 0.51293 0.07691 0.01351 0.0
H697 H 0.55553 0.05005 0.94096 0.0
H698 H 0.45531 0.00657 0.03402 0.0
H699 H 0.48367 0.01761 0.06485 0.0
H700 H 0.47465 0.04366 0.04838 0.0
H701 H 0.54305 0.00191 0.93337 0.0
H702 H 0.53625 0.98426 0.97452 0.0
H703 H 0.50684 0.97515 0.94574 0.0
H704 H 0.49852 0.93676 0.06783 0.0
H705 H 0.42871 0.91249 0.99646 0.0
H706 H 0.52666 0.01237 0.06425 0.0
H707 H 0.54596 0.00211 0.03533 0.0
H708 H 0.53473 0.98462 0.07652 0.0
H709 H 0.44355 0.98415 0.97763 0.0
H710 H 0.42405 0.94699 0.96353 0.0
H711 H 0.45919 0.97176 0.94613 0.0
C712 C 0.48775 0.53459 0.15059 0.0
C713 C 0.45941 0.52884 0.15608 0.0
C714 C 0.49722 0.51634 0.16373 0.0
C715 C 0.47781 0.49152 0.18269 0.0
C716 C 0.44907 0.48539 0.18817 0.0
C717 C 0.44022 0.50424 0.17491 0.0
C718 C 0.52814 0.52383 0.15758 0.0
C719 C 0.42778 0.45902 0.20809 0.0
C720 C 0.5025 0.43629 0.19017 0.0
C721 C 0.51701 0.44396 0.22177 0.0
C722 C 0.48805 0.45043 0.17792 0.0
C723 C 0.48831 0.47282 0.1977 0.0
C724 C 0.5016 0.47955 0.23041 0.0
C725 C 0.5157 0.46499 0.24207 0.0
C726 C 0.47385 0.44247 0.14305 0.0
C727 C 0.50247 0.50334 0.25225 0.0
H728 H 0.50274 0.55356 0.1361 0.0
H729 H 0.41823 0.49958 0.17907 0.0
H730 H 0.53942 0.52704 0.1825 0.0
H731 H 0.52865 0.50576 0.1442 0.0
H732 H 0.54037 0.54375 0.14196 0.0
H733 H 0.40598 0.45681 0.20917 0.0
H734 H 0.42586 0.43926 0.1962 0.0
H735 H 0.43567 0.46018 0.23472 0.0
H736 H 0.50327 0.41995 0.17443 0.0
H737 H 0.52667 0.47093 0.26665 0.0
H738 H 0.48656 0.46025 0.12466 0.0
H739 H 0.45181 0.43959 0.14426 0.0
H740 H 0.47234 0.42232 0.1329 0.0
H741 H 0.51642 0.52454 0.23971 0.0
H742 H 0.51109 0.50395 0.27838 0.0
H743 H 0.48055 0.50059 0.25469 0.0
C744 C 0.22699 0.54325 0.29668 0.0
C745 C 0.24214 0.56494 0.32119 0.0
C746 C 0.24163 0.53851 0.26956 0.0
C747 C 0.27203 0.55631 0.26643 0.0
C748 C 0.28745 0.57758 0.29175 0.0
C749 C 0.27239 0.58141 0.31891 0.0
C750 C 0.22446 0.51513 0.24362 0.0
C751 C 0.31977 0.59736 0.28927 0.0
C752 C 0.32022 0.54091 0.20819 0.0
C753 C 0.32423 0.55905 0.18013 0.0
C754 C 0.30188 0.53836 0.23564 0.0
C755 C 0.28763 0.55474 0.23532 0.0
C756 C 0.29063 0.57206 0.20634 0.0
C757 C 0.30864 0.5738 0.17908 0.0
C758 C 0.29875 0.51913 0.26564 0.0
C759 C 0.27615 0.59016 0.20496 0.0
H760 H 0.20365 0.53031 0.29832 0.0
H761 H 0.28433 0.59827 0.33762 0.0
H762 H 0.22418 0.52511 0.21875 0.0
H763 H 0.23473 0.50178 0.23905 0.0
H764 H 0.20177 0.50078 0.25202 0.0
H765 H 0.32873 0.61191 0.31184 0.0
H766 H 0.3308 0.58451 0.28706 0.0
H767 H 0.32501 0.61085 0.26579 0.0
H768 H 0.33204 0.5293 0.2092 0.0
H769 H 0.31152 0.58787 0.15757 0.0
H770 H 0.27567 0.50559 0.2729 0.0
H771 H 0.31034 0.53265 0.2882 0.0
H772 H 0.30772 0.50477 0.2599 0.0
H773 H 0.25265 0.57656 0.20996 0.0
H774 H 0.27918 0.60106 0.17976 0.0
H775 H 0.28524 0.60694 0.2253 0.0
C776 C 0.7712 0.32796 0.3791 0.0
C777 C 0.75646 0.33417 0.35368 0.0
C778 C 0.75602 0.3082 0.4057 0.0
C779 C 0.72548 0.29493 0.40736 0.0
C780 C 0.71051 0.30032 0.38099 0.0
C781 C 0.72613 0.31955 0.35437 0.0
C782 C 0.77274 0.30244 0.43274 0.0
C783 C 0.67804 0.28708 0.38193 0.0
C784 C 0.67597 0.23147 0.46495 0.0
C785 C 0.67096 0.24565 0.49214 0.0
C786 C 0.69521 0.24724 0.43816 0.0
C787 C 0.70919 0.27785 0.43818 0.0
C788 C 0.70512 0.29222 0.46634 0.0
C789 C 0.68636 0.27599 0.49306 0.0
C790 C 0.69957 0.2311 0.40913 0.0
C791 C 0.71917 0.32477 0.46728 0.0
H792 H 0.79462 0.33901 0.37867 0.0
H793 H 0.7145 0.3242 0.33493 0.0
H794 H 0.77247 0.31301 0.45714 0.0
H795 H 0.76251 0.27891 0.43784 0.0
H796 H 0.79561 0.31082 0.4251 0.0
H797 H 0.66953 0.29225 0.35859 0.0
H798 H 0.66742 0.26325 0.3844 0.0
H799 H 0.6718 0.29522 0.40471 0.0
H800 H 0.66431 0.20805 0.46411 0.0
H801 H 0.68266 0.2872 0.51389 0.0
H802 H 0.72288 0.24102 0.40282 0.0
H803 H 0.68839 0.23246 0.38581 0.0
H804 H 0.69091 0.20792 0.41542 0.0
H805 H 0.74285 0.33492 0.46344 0.0
H806 H 0.71519 0.3327 0.49189 0.0
H807 H 0.71058 0.33214 0.44601 0.0
C808 C 0.45628 0.67824 0.63281 0.0
C809 C 0.43756 0.67377 0.66039 0.0
C810 C 0.45945 0.69709 0.60569 0.0
C811 C 0.44313 0.71141 0.60584 0.0
C812 C 0.42522 0.70794 0.63437 0.0
C813 C 0.42286 0.68941 0.66132 0.0
C814 C 0.47927 0.70068 0.57617 0.0
C815 C 0.40717 0.72247 0.63554 0.0
C816 C 0.45628 0.77307 0.54526 0.0
C817 C 0.43506 0.7584 0.5201 0.0
C818 C 0.46026 0.75796 0.57245 0.0
C819 C 0.44224 0.72755 0.57489 0.0
C820 C 0.42145 0.71261 0.54893 0.0
C821 C 0.41831 0.72814 0.52181 0.0
C822 C 0.4831 0.77464 0.59915 0.0
C823 C 0.40151 0.68027 0.55062 0.0
H824 H 0.46785 0.66639 0.6319 0.0
H825 H 0.40834 0.68617 0.68246 0.0
H826 H 0.4662 0.68955 0.55314 0.0
H827 H 0.49304 0.72388 0.56955 0.0
H828 H 0.49343 0.69151 0.58207 0.0
H829 H 0.39583 0.71912 0.66049 0.0
H830 H 0.4209 0.74603 0.63103 0.0
H831 H 0.39074 0.71371 0.61478 0.0
H832 H 0.46943 0.79642 0.54409 0.0
H833 H 0.40183 0.71654 0.50257 0.0
H834 H 0.49633 0.76428 0.60388 0.0
H835 H 0.47259 0.77447 0.62379 0.0
H836 H 0.49763 0.79748 0.59141 0.0
H837 H 0.41423 0.66912 0.55299 0.0
H838 H 0.38739 0.67172 0.52764 0.0
H839 H 0.38757 0.67472 0.57374 0.0
C840 C 0.77375 0.45196 0.79927 0.0
C841 C 0.75952 0.43685 0.82916 0.0
C842 C 0.75816 0.4542 0.7714 0.0
C843 C 0.72764 0.44089 0.77341 0.0
C844 C 0.71342 0.42701 0.80424 0.0
C845 C 0.7295 0.42523 0.83169 0.0
C846 C 0.7742 0.46948 0.73916 0.0
C847 C 0.68094 0.4125 0.80758 0.0
C848 C 0.68231 0.45456 0.70837 0.0
C849 C 0.67215 0.43013 0.68719 0.0
C850 C 0.7013 0.45904 0.73583 0.0
C851 C 0.71017 0.43853 0.74235 0.0
C852 C 0.70067 0.41433 0.72036 0.0
C853 C 0.68189 0.41049 0.69311 0.0
C854 C 0.71114 0.48523 0.75849 0.0
C855 C 0.7095 0.39186 0.72634 0.0
H856 H 0.79693 0.4611 0.79708 0.0
H857 H 0.71827 0.41366 0.85471 0.0
H858 H 0.76945 0.45335 0.71858 0.0
H859 H 0.76689 0.48443 0.72991 0.0
H860 H 0.79797 0.48194 0.7432 0.0
H861 H 0.67345 0.40491 0.83416 0.0
H862 H 0.6733 0.42755 0.7999 0.0
H863 H 0.67064 0.3936 0.79006 0.0
H864 H 0.67498 0.4699 0.70395 0.0
H865 H 0.6743 0.39159 0.67686 0.0
H866 H 0.73499 0.49677 0.76145 0.0
H867 H 0.70164 0.47831 0.78448 0.0
H868 H 0.70466 0.50054 0.74812 0.0
H869 H 0.73339 0.40227 0.72743 0.0
H870 H 0.70139 0.37507 0.70595 0.0
H871 H 0.70094 0.38107 0.75142 0.0
C872 C 0.31621 0.76815 0.96777 0.0
C873 C 0.32121 0.7528 0.99355 0.0
C874 C 0.29781 0.75365 0.93984 0.0
C875 C 0.28459 0.72317 0.93728 0.0
C876 C 0.28857 0.70754 0.96405 0.0
C877 C 0.30656 0.72249 0.99191 0.0
C878 C 0.29355 0.77107 0.91233 0.0
C879 C 0.27521 0.67508 0.96232 0.0
C880 C 0.22436 0.67583 0.8746 0.0
C881 C 0.23994 0.67142 0.84857 0.0
C882 C 0.23867 0.69405 0.90274 0.0
C883 C 0.26919 0.70769 0.90524 0.0
C884 C 0.28502 0.70424 0.87828 0.0
C885 C 0.27026 0.68642 0.85024 0.0
C886 C 0.22103 0.69772 0.93046 0.0
C887 C 0.31753 0.71806 0.87995 0.0
H888 H 0.32727 0.79155 0.96888 0.0
H889 H 0.31021 0.71036 0.01165 0.0
H890 H 0.30538 0.77135 0.88879 0.0
H891 H 0.27034 0.76106 0.90547 0.0
H892 H 0.30158 0.79376 0.92049 0.0
H893 H 0.27892 0.66597 0.98616 0.0
H894 H 0.2516 0.66468 0.95786 0.0
H895 H 0.2846 0.66929 0.94038 0.0
H896 H 0.20095 0.66448 0.87347 0.0
H897 H 0.28255 0.68322 0.83031 0.0
H898 H 0.23064 0.72086 0.93749 0.0
H899 H 0.22109 0.68592 0.95387 0.0
H900 H 0.19824 0.68932 0.92242 0.0
H901 H 0.32759 0.74165 0.88443 0.0
H902 H 0.32677 0.71458 0.85607 0.0
H903 H 0.32359 0.70887 0.90185 0.0
C904 C 0.54547 0.31442 0.13268 0.0
C905 C 0.56977 0.32443 0.15407 0.0
C906 C 0.54087 0.29521 0.10545 0.0
C907 C 0.56117 0.28597 0.09933 0.0
C908 C 0.58528 0.29541 0.12145 0.0
C909 C 0.58921 0.31437 0.1485 0.0
C910 C 0.51476 0.28542 0.08267 0.0
C911 C 0.60755 0.28625 0.11586 0.0
C912 C 0.54736 0.22162 0.04372 0.0
C913 C 0.56264 0.23544 0.01375 0.0
C914 C 0.54512 0.23759 0.07113 0.0
C915 C 0.55863 0.2681 0.0686 0.0
C916 C 0.57263 0.28191 0.03765 0.0
C917 C 0.57438 0.26545 0.01064 0.0
C918 C 0.52967 0.22198 0.1035 0.0
C919 C 0.58738 0.31436 0.03377 0.0
H920 H 0.53028 0.32198 0.13683 0.0
H921 H 0.60802 0.32186 0.16489 0.0
H922 H 0.52179 0.29456 0.05654 0.0
H923 H 0.50295 0.26153 0.08012 0.0
H924 H 0.49966 0.29231 0.09266 0.0
H925 H 0.62438 0.29448 0.1362 0.0
H926 H 0.59695 0.26233 0.11521 0.0
H927 H 0.61831 0.29441 0.09068 0.0
H928 H 0.53813 0.19845 0.04635 0.0
H929 H 0.5861 0.27637 0.98756 0.0
H930 H 0.51493 0.22965 0.11243 0.0
H931 H 0.54573 0.22671 0.12416 0.0
H932 H 0.51696 0.19819 0.09977 0.0
H933 H 0.5725 0.32228 0.04118 0.0
H934 H 0.59496 0.3215 0.00709 0.0
H935 H 0.60632 0.32472 0.05121 0.0
loop_
_geom_bond_atom_site_label_1
_geom_bond_atom_site_label_2
_geom_bond_distance
_geom_bond_site_symmetry_2
_ccdc_geom_bond_type
O0 Cd1 2.223 . S
O0 C8 1.315 . S
Cd1 O0 2.223 . S
Cd1 O4 2.297 . S
Cd1 O5 2.439 . S
Cd1 O11 2.240 . S
Cd2 O3 2.240 . S
Cd2 O10 2.223 . S
Cd2 O12 2.297 . S
Cd2 O13 2.439 . S
O3 Cd2 2.240 . S
O3 C8 1.279 . S
O4 Cd1 2.297 . S
O4 C6 1.247 . S
O5 Cd1 2.439 . S
O5 C6 1.208 . S
C6 O4 1.247 . S
C6 O5 1.208 . S
C7 O12 1.247 . S
C7 O13 1.208 . S
C8 O0 1.315 . S
C8 O3 1.279 . S
C9 O10 1.315 . S
C9 O11 1.279 . S
O10 Cd2 2.223 . S
O10 C9 1.315 . S
O11 Cd1 2.240 . S
O11 C9 1.279 . S
O12 Cd2 2.297 . S
O12 C7 1.247 . S
O13 Cd2 2.439 . S
O13 C7 1.208 . S
O14 Cd15 2.223 . S
O14 C22 1.315 . S
Cd15 O14 2.223 . S
Cd15 O18 2.297 . S
Cd15 O19 2.439 . S
Cd15 O25 2.240 . S
Cd16 O17 2.240 . S
Cd16 O24 2.223 . S
Cd16 O26 2.297 . S
Cd16 O27 2.439 . S
O17 Cd16 2.240 . S
O17 C22 1.279 . S
O18 Cd15 2.297 . S
O18 C20 1.247 . S
O19 Cd15 2.439 . S
O19 C20 1.208 . S
C20 O18 1.247 . S
C20 O19 1.208 . S
C21 O26 1.247 . S
C21 O27 1.208 . S
C22 O14 1.315 . S
C22 O17 1.279 . S
C23 O24 1.315 . S
C23 O25 1.279 . S
O24 Cd16 2.223 . S
O24 C23 1.315 . S
O25 Cd15 2.240 . S
O25 C23 1.279 . S
O26 Cd16 2.297 . S
O26 C21 1.247 . S
O27 Cd16 2.439 . S
O27 C21 1.208 . S
O28 Cd29 2.223 . S
O28 C36 1.315 . S
Cd29 O28 2.223 . S
Cd29 O32 2.297 . S
Cd29 O33 2.439 . S
Cd29 O39 2.240 . S
Cd30 O31 2.240 . S
Cd30 O38 2.223 . S
Cd30 O40 2.297 . S
Cd30 O41 2.439 . S
O31 Cd30 2.240 . S
O31 C36 1.279 . S
O32 Cd29 2.297 . S
O32 C34 1.247 . S
O33 Cd29 2.439 . S
O33 C34 1.208 . S
C34 O32 1.247 . S
C34 O33 1.208 . S
C35 O40 1.247 . S
C35 O41 1.208 . S
C36 O28 1.315 . S
C36 O31 1.279 . S
C37 O38 1.315 . S
C37 O39 1.279 . S
O38 Cd30 2.223 . S
O38 C37 1.315 . S
O39 Cd29 2.240 . S
O39 C37 1.279 . S
O40 Cd30 2.297 . S
O40 C35 1.247 . S
O41 Cd30 2.439 . S
O41 C35 1.208 . S
O42 Cd43 2.223 . S
O42 C50 1.315 . S
Cd43 O42 2.223 . S
Cd43 O46 2.297 . S
Cd43 O47 2.439 . S
Cd43 O53 2.240 . S
Cd44 O45 2.240 . S
Cd44 O52 2.223 . S
Cd44 O54 2.297 . S
Cd44 O55 2.439 . S
O45 Cd44 2.240 . S
O45 C50 1.279 . S
O46 Cd43 2.297 . S
O46 C48 1.247 . S
O47 Cd43 2.439 . S
O47 C48 1.208 . S
C48 O46 1.247 . S
C48 O47 1.208 . S
C49 O54 1.247 . S
C49 O55 1.208 . S
C50 O42 1.315 . S
C50 O45 1.279 . S
C51 O52 1.315 . S
C51 O53 1.279 . S
O52 Cd44 2.223 . S
O52 C51 1.315 . S
O53 Cd43 2.240 . S
O53 C51 1.279 . S
O54 Cd44 2.297 . S
O54 C49 1.247 . S
O55 Cd44 2.439 . S
O55 C49 1.208 . S
O56 Cd57 2.223 . S
O56 C64 1.315 . S
Cd57 O56 2.223 . S
Cd57 O60 2.297 . S
Cd57 O61 2.439 . S
Cd57 O67 2.240 . S
Cd58 O59 2.240 . S
Cd58 O66 2.223 . S
Cd58 O68 2.297 . S
Cd58 O69 2.439 . S
O59 Cd58 2.240 . S
O59 C64 1.279 . S
O60 Cd57 2.297 . S
O60 C62 1.247 . S
O61 Cd57 2.439 . S
O61 C62 1.208 . S
C62 O60 1.247 . S
C62 O61 1.208 . S
C63 O68 1.247 . S
C63 O69 1.208 . S
C64 O56 1.315 . S
C64 O59 1.279 . S
C65 O66 1.315 . S
C65 O67 1.279 . S
O66 Cd58 2.223 . S
O66 C65 1.315 . S
O67 Cd57 2.240 . S
O67 C65 1.279 . S
O68 Cd58 2.297 . S
O68 C63 1.247 . S
O69 Cd58 2.439 . S
O69 C63 1.208 . S
O70 Cd71 2.223 . S
O70 C78 1.315 . S
Cd71 O70 2.223 . S
Cd71 O74 2.297 . S
Cd71 O75 2.439 . S
Cd71 O81 2.240 . S
Cd72 O73 2.240 . S
Cd72 O80 2.223 . S
Cd72 O82 2.297 . S
Cd72 O83 2.439 . S
O73 Cd72 2.240 . S
O73 C78 1.279 . S
O74 Cd71 2.297 . S
O74 C76 1.247 . S
O75 Cd71 2.439 . S
O75 C76 1.208 . S
C76 O74 1.247 . S
C76 O75 1.208 . S
C77 O82 1.247 . S
C77 O83 1.208 . S
C78 O70 1.315 . S
C78 O73 1.279 . S
C79 O80 1.315 . S
C79 O81 1.279 . S
O80 Cd72 2.223 . S
O80 C79 1.315 . S
O81 Cd71 2.240 . S
O81 C79 1.279 . S
O82 Cd72 2.297 . S
O82 C77 1.247 . S
O83 Cd72 2.439 . S
O83 C77 1.208 . S
O84 Cd85 2.223 . S
O84 C92 1.315 . S
Cd85 O84 2.223 . S
Cd85 O88 2.297 . S
Cd85 O89 2.439 . S
Cd85 O95 2.240 . S
Cd86 O87 2.240 . S
Cd86 O94 2.223 . S
Cd86 O96 2.297 . S
Cd86 O97 2.439 . S
O87 Cd86 2.240 . S
O87 C92 1.279 . S
O88 Cd85 2.297 . S
O88 C90 1.247 . S
O89 Cd85 2.439 . S
O89 C90 1.208 . S
C90 O88 1.247 . S
C90 O89 1.208 . S
C91 O96 1.247 . S
C91 O97 1.208 . S
C92 O84 1.315 . S
C92 O87 1.279 . S
C93 O94 1.315 . S
C93 O95 1.279 . S
O94 Cd86 2.223 . S
O94 C93 1.315 . S
O95 Cd85 2.240 . S
O95 C93 1.279 . S
O96 Cd86 2.297 . S
O96 C91 1.247 . S
O97 Cd86 2.439 . S
O97 C91 1.208 . S
O98 Cd99 2.223 . S
O98 C106 1.315 . S
Cd99 O98 2.223 . S
Cd99 O102 2.297 . S
Cd99 O103 2.439 . S
Cd99 O109 2.240 . S
Cd100 O101 2.240 . S
Cd100 O108 2.223 . S
Cd100 O110 2.297 . S
Cd100 O111 2.439 . S
O101 Cd100 2.240 . S
O101 C106 1.279 . S
O102 Cd99 2.297 . S
O102 C104 1.247 . S
O103 Cd99 2.439 . S
O103 C104 1.208 . S
C104 O102 1.247 . S
C104 O103 1.208 . S
C105 O110 1.247 . S
C105 O111 1.208 . S
C106 O98 1.315 . S
C106 O101 1.279 . S
C107 O108 1.315 . S
C107 O109 1.279 . S
O108 Cd100 2.223 . S
O108 C107 1.315 . S
O109 Cd99 2.240 . S
O109 C107 1.279 . S
O110 Cd100 2.297 . S
O110 C105 1.247 . S
O111 Cd100 2.439 . S
O111 C105 1.208 . S
O112 Cd113 2.223 . S
O112 C120 1.315 . S
Cd113 O112 2.223 . S
Cd113 O116 2.297 . S
Cd113 O117 2.439 . S
Cd113 O123 2.240 . S
Cd114 O115 2.240 . S
Cd114 O122 2.223 . S
Cd114 O124 2.297 . S
Cd114 O125 2.439 . S
O115 Cd114 2.240 . S
O115 C120 1.279 . S
O116 Cd113 2.297 . S
O116 C118 1.247 . S
O117 Cd113 2.439 . S
O117 C118 1.208 . S
C118 O116 1.247 . S
C118 O117 1.208 . S
C119 O124 1.247 . S
C119 O125 1.208 . S
C120 O112 1.315 . S
C120 O115 1.279 . S
C121 O122 1.315 . S
C121 O123 1.279 . S
O122 Cd114 2.223 . S
O122 C121 1.315 . S
O123 Cd113 2.240 . S
O123 C121 1.279 . S
O124 Cd114 2.297 . S
O124 C119 1.247 . S
O125 Cd114 2.439 . S
O125 C119 1.208 . S
O126 Cd127 2.223 . S
O126 C134 1.315 . S
Cd127 O126 2.223 . S
Cd127 O130 2.297 . S
Cd127 O131 2.439 . S
Cd127 O137 2.240 . S
Cd128 O129 2.240 . S
Cd128 O136 2.223 . S
Cd128 O138 2.297 . S
Cd128 O139 2.439 . S
O129 Cd128 2.240 . S
O129 C134 1.279 . S
O130 Cd127 2.297 . S
O130 C132 1.247 . S
O131 Cd127 2.439 . S
O131 C132 1.208 . S
C132 O130 1.247 . S
C132 O131 1.208 . S
C133 O138 1.247 . S
C133 O139 1.208 . S
C134 O126 1.315 . S
C134 O129 1.279 . S
C135 O136 1.315 . S
C135 O137 1.279 . S
O136 Cd128 2.223 . S
O136 C135 1.315 . S
O137 Cd127 2.240 . S
O137 C135 1.279 . S
O138 Cd128 2.297 . S
O138 C133 1.247 . S
O139 Cd128 2.439 . S
O139 C133 1.208 . S
O140 Cd141 2.223 . S
O140 C148 1.315 . S
Cd141 O140 2.223 . S
Cd141 O144 2.297 . S
Cd141 O145 2.439 . S
Cd141 O151 2.240 . S
Cd142 O143 2.240 . S
Cd142 O150 2.223 . S
Cd142 O152 2.297 . S
Cd142 O153 2.439 . S
O143 Cd142 2.240 . S
O143 C148 1.279 . S
O144 Cd141 2.297 . S
O144 C146 1.247 . S
O145 Cd141 2.439 . S
O145 C146 1.208 . S
C146 O144 1.247 . S
C146 O145 1.208 . S
C147 O152 1.247 . S
C147 O153 1.208 . S
C148 O140 1.315 . S
C148 O143 1.279 . S
C149 O150 1.315 . S
C149 O151 1.279 . S
O150 Cd142 2.223 . S
O150 C149 1.315 . S
O151 Cd141 2.240 . S
O151 C149 1.279 . S
O152 Cd142 2.297 . S
O152 C147 1.247 . S
O153 Cd142 2.439 . S
O153 C147 1.208 . S
O154 Cd155 2.223 . S
O154 C162 1.315 . S
Cd155 O154 2.223 . S
Cd155 O158 2.297 . S
Cd155 O159 2.439 . S
Cd155 O165 2.240 . S
Cd156 O157 2.240 . S
Cd156 O164 2.223 . S
Cd156 O166 2.297 . S
Cd156 O167 2.439 . S
O157 Cd156 2.240 . S
O157 C162 1.279 . S
O158 Cd155 2.297 . S
O158 C160 1.247 . S
O159 Cd155 2.439 . S
O159 C160 1.208 . S
C160 O158 1.247 . S
C160 O159 1.208 . S
C161 O166 1.247 . S
C161 O167 1.208 . S
C162 O154 1.315 . S
C162 O157 1.279 . S
C163 O164 1.315 . S
C163 O165 1.279 . S
O164 Cd156 2.223 . S
O164 C163 1.315 . S
O165 Cd155 2.240 . S
O165 C163 1.279 . S
O166 Cd156 2.297 . S
O166 C161 1.247 . S
O167 Cd156 2.439 . S
O167 C161 1.208 . S
C168 C169 1.391 . S
C168 C170 1.394 . S
C168 H184 0.931 . S
C169 C168 1.391 . S
C169 C173 1.376 . S
C170 C168 1.394 . S
C170 C171 1.369 . S
C170 C174 1.531 . S
C171 C170 1.369 . S
C171 C172 1.410 . S
C171 C179 1.503 . S
C172 C171 1.410 . S
C172 C173 1.392 . S
C172 C175 1.511 . S
C173 C169 1.376 . S
C173 C172 1.392 . S
C173 H185 0.929 . S
C174 C170 1.531 . S
C174 H186 0.960 . S
C174 H187 0.962 . S
C174 H188 0.960 . S
C175 C172 1.511 . S
C175 H189 0.961 . S
C175 H190 0.961 . S
C175 H191 0.961 . S
C176 C177 1.370 . S
C176 C178 1.363 . S
C176 H192 0.931 . S
C177 C176 1.370 . S
C177 C181 1.408 . S
C178 C176 1.363 . S
C178 C179 1.370 . S
C178 C182 1.524 . S
C179 C171 1.503 . S
C179 C178 1.370 . S
C179 C180 1.403 . S
C180 C179 1.403 . S
C180 C181 1.404 . S
C180 C183 1.539 . S
C181 C177 1.408 . S
C181 C180 1.404 . S
C181 H193 0.930 . S
C182 C178 1.524 . S
C182 H194 0.956 . S
C182 H195 0.961 . S
C182 H196 0.961 . S
C183 C180 1.539 . S
C183 H197 0.958 . S
C183 H198 0.961 . S
C183 H199 0.960 . S
H184 C168 0.931 . S
H185 C173 0.929 . S
H186 C174 0.960 . S
H187 C174 0.962 . S
H188 C174 0.960 . S
H189 C175 0.961 . S
H190 C175 0.961 . S
H191 C175 0.961 . S
H192 C176 0.931 . S
H193 C181 0.930 . S
H194 C182 0.956 . S
H195 C182 0.961 . S
H196 C182 0.961 . S
H197 C183 0.958 . S
H198 C183 0.961 . S
H199 C183 0.960 . S
C200 C201 1.391 . S
C200 C202 1.394 . S
C200 H216 0.931 . S
C201 C200 1.391 . S
C201 C205 1.376 . S
C202 C200 1.394 . S
C202 C203 1.369 . S
C202 C206 1.531 . S
C203 C202 1.369 . S
C203 C204 1.410 . S
C203 C211 1.503 . S
C204 C203 1.410 . S
C204 C205 1.392 . S
C204 C207 1.511 . S
C205 C201 1.376 . S
C205 C204 1.392 . S
C205 H217 0.929 . S
C206 C202 1.531 . S
C206 H218 0.960 . S
C206 H219 0.962 . S
C206 H220 0.960 . S
C207 C204 1.511 . S
C207 H221 0.961 . S
C207 H222 0.961 . S
C207 H223 0.961 . S
C208 C209 1.370 . S
C208 C210 1.363 . S
C208 H224 0.931 . S
C209 C208 1.370 . S
C209 C213 1.408 . S
C210 C208 1.363 . S
C210 C211 1.370 . S
C210 C214 1.524 . S
C211 C203 1.503 . S
C211 C210 1.370 . S
C211 C212 1.403 . S
C212 C211 1.403 . S
C212 C213 1.404 . S
C212 C215 1.539 . S
C213 C209 1.408 . S
C213 C212 1.404 . S
C213 H225 0.930 . S
C214 C210 1.524 . S
C214 H226 0.956 . S
C214 H227 0.961 . S
C214 H228 0.961 . S
C215 C212 1.539 . S
C215 H229 0.958 . S
C215 H230 0.961 . S
C215 H231 0.960 . S
H216 C200 0.931 . S
H217 C205 0.929 . S
H218 C206 0.960 . S
H219 C206 0.962 . S
H220 C206 0.960 . S
H221 C207 0.961 . S
H222 C207 0.961 . S
H223 C207 0.961 . S
H224 C208 0.931 . S
H225 C213 0.930 . S
H226 C214 0.956 . S
H227 C214 0.961 . S
H228 C214 0.961 . S
H229 C215 0.958 . S
H230 C215 0.961 . S
H231 C215 0.960 . S
C232 C233 1.391 . S
C232 C234 1.394 . S
C232 H248 0.931 . S
C233 C232 1.391 . S
C233 C237 1.376 . S
C234 C232 1.394 . S
C234 C235 1.369 . S
C234 C238 1.531 . S
C235 C234 1.369 . S
C235 C236 1.410 . S
C235 C243 1.503 . S
C236 C235 1.410 . S
C236 C237 1.392 . S
C236 C239 1.511 . S
C237 C233 1.376 . S
C237 C236 1.392 . S
C237 H249 0.929 . S
C238 C234 1.531 . S
C238 H250 0.960 . S
C238 H251 0.962 . S
C238 H252 0.960 . S
C239 C236 1.511 . S
C239 H253 0.961 . S
C239 H254 0.961 . S
C239 H255 0.961 . S
C240 C241 1.370 . S
C240 C242 1.363 . S
C240 H256 0.931 . S
C241 C240 1.370 . S
C241 C245 1.408 . S
C242 C240 1.363 . S
C242 C243 1.370 . S
C242 C246 1.524 . S
C243 C235 1.503 . S
C243 C242 1.370 . S
C243 C244 1.403 . S
C244 C243 1.403 . S
C244 C245 1.404 . S
C244 C247 1.539 . S
C245 C241 1.408 . S
C245 C244 1.404 . S
C245 H257 0.930 . S
C246 C242 1.524 . S
C246 H258 0.956 . S
C246 H259 0.961 . S
C246 H260 0.961 . S
C247 C244 1.539 . S
C247 H261 0.958 . S
C247 H262 0.961 . S
C247 H263 0.960 . S
H248 C232 0.931 . S
H249 C237 0.929 . S
H250 C238 0.960 . S
H251 C238 0.962 . S
H252 C238 0.960 . S
H253 C239 0.961 . S
H254 C239 0.961 . S
H255 C239 0.961 . S
H256 C240 0.931 . S
H257 C245 0.930 . S
H258 C246 0.956 . S
H259 C246 0.961 . S
H260 C246 0.961 . S
H261 C247 0.958 . S
H262 C247 0.961 . S
H263 C247 0.960 . S
C264 C265 1.391 . S
C264 C266 1.394 . S
C264 H280 0.931 . S
C265 C264 1.391 . S
C265 C269 1.376 . S
C266 C264 1.394 . S
C266 C267 1.369 . S
C266 C270 1.531 . S
C267 C266 1.369 . S
C267 C268 1.410 . S
C267 C275 1.503 . S
C268 C267 1.410 . S
C268 C269 1.392 . S
C268 C271 1.511 . S
C269 C265 1.376 . S
C269 C268 1.392 . S
C269 H281 0.929 . S
C270 C266 1.531 . S
C270 H282 0.960 . S
C270 H283 0.962 . S
C270 H284 0.960 . S
C271 C268 1.511 . S
C271 H285 0.961 . S
C271 H286 0.961 . S
C271 H287 0.961 . S
C272 C273 1.370 . S
C272 C274 1.363 . S
C272 H288 0.931 . S
C273 C272 1.370 . S
C273 C277 1.408 . S
C274 C272 1.363 . S
C274 C275 1.370 . S
C274 C278 1.524 . S
C275 C267 1.503 . S
C275 C274 1.370 . S
C275 C276 1.403 . S
C276 C275 1.403 . S
C276 C277 1.404 . S
C276 C279 1.539 . S
C277 C273 1.408 . S
C277 C276 1.404 . S
C277 H289 0.930 . S
C278 C274 1.524 . S
C278 H290 0.956 . S
C278 H291 0.961 . S
C278 H292 0.961 . S
C279 C276 1.539 . S
C279 H293 0.958 . S
C279 H294 0.961 . S
C279 H295 0.960 . S
H280 C264 0.931 . S
H281 C269 0.929 . S
H282 C270 0.960 . S
H283 C270 0.962 . S
H284 C270 0.960 . S
H285 C271 0.961 . S
H286 C271 0.961 . S
H287 C271 0.961 . S
H288 C272 0.931 . S
H289 C277 0.930 . S
H290 C278 0.956 . S
H291 C278 0.961 . S
H292 C278 0.961 . S
H293 C279 0.958 . S
H294 C279 0.961 . S
H295 C279 0.960 . S
C296 C297 1.391 . S
C296 C298 1.394 . S
C296 H312 0.931 . S
C297 C296 1.391 . S
C297 C301 1.376 . S
C298 C296 1.394 . S
C298 C299 1.369 . S
C298 C302 1.531 . S
C299 C298 1.369 . S
C299 C300 1.410 . S
C299 C307 1.503 . S
C300 C299 1.410 . S
C300 C301 1.392 . S
C300 C303 1.511 . S
C301 C297 1.376 . S
C301 C300 1.392 . S
C301 H313 0.929 . S
C302 C298 1.531 . S
C302 H314 0.960 . S
C302 H315 0.962 . S
C302 H316 0.960 . S
C303 C300 1.511 . S
C303 H317 0.961 . S
C303 H318 0.961 . S
C303 H319 0.961 . S
C304 C305 1.370 . S
C304 C306 1.363 . S
C304 H320 0.931 . S
C305 C304 1.370 . S
C305 C309 1.408 . S
C306 C304 1.363 . S
C306 C307 1.370 . S
C306 C310 1.524 . S
C307 C299 1.503 . S
C307 C306 1.370 . S
C307 C308 1.403 . S
C308 C307 1.403 . S
C308 C309 1.404 . S
C308 C311 1.539 . S
C309 C305 1.408 . S
C309 C308 1.404 . S
C309 H321 0.930 . S
C310 C306 1.524 . S
C310 H322 0.956 . S
C310 H323 0.961 . S
C310 H324 0.961 . S
C311 C308 1.539 . S
C311 H325 0.958 . S
C311 H326 0.961 . S
C311 H327 0.960 . S
H312 C296 0.931 . S
H313 C301 0.929 . S
H314 C302 0.960 . S
H315 C302 0.962 . S
H316 C302 0.960 . S
H317 C303 0.961 . S
H318 C303 0.961 . S
H319 C303 0.961 . S
H320 C304 0.931 . S
H321 C309 0.930 . S
H322 C310 0.956 . S
H323 C310 0.961 . S
H324 C310 0.961 . S
H325 C311 0.958 . S
H326 C311 0.961 . S
H327 C311 0.960 . S
C328 C329 1.391 . S
C328 C330 1.394 . S
C328 H344 0.931 . S
C329 C328 1.391 . S
C329 C333 1.376 . S
C330 C328 1.394 . S
C330 C331 1.369 . S
C330 C334 1.531 . S
C331 C330 1.369 . S
C331 C332 1.410 . S
C331 C339 1.503 . S
C332 C331 1.410 . S
C332 C333 1.392 . S
C332 C335 1.511 . S
C333 C329 1.376 . S
C333 C332 1.392 . S
C333 H345 0.929 . S
C334 C330 1.531 . S
C334 H346 0.960 . S
C334 H347 0.962 . S
C334 H348 0.960 . S
C335 C332 1.511 . S
C335 H349 0.961 . S
C335 H350 0.961 . S
C335 H351 0.961 . S
C336 C337 1.370 . S
C336 C338 1.363 . S
C336 H352 0.931 . S
C337 C336 1.370 . S
C337 C341 1.408 . S
C338 C336 1.363 . S
C338 C339 1.370 . S
C338 C342 1.524 . S
C339 C331 1.503 . S
C339 C338 1.370 . S
C339 C340 1.403 . S
C340 C339 1.403 . S
C340 C341 1.404 . S
C340 C343 1.539 . S
C341 C337 1.408 . S
C341 C340 1.404 . S
C341 H353 0.930 . S
C342 C338 1.524 . S
C342 H354 0.956 . S
C342 H355 0.961 . S
C342 H356 0.961 . S
C343 C340 1.539 . S
C343 H357 0.958 . S
C343 H358 0.961 . S
C343 H359 0.960 . S
H344 C328 0.931 . S
H345 C333 0.929 . S
H346 C334 0.960 . S
H347 C334 0.962 . S
H348 C334 0.960 . S
H349 C335 0.961 . S
H350 C335 0.961 . S
H351 C335 0.961 . S
H352 C336 0.931 . S
H353 C341 0.930 . S
H354 C342 0.956 . S
H355 C342 0.961 . S
H356 C342 0.961 . S
H357 C343 0.958 . S
H358 C343 0.961 . S
H359 C343 0.960 . S
C360 C361 1.391 . S
C360 C362 1.394 . S
C360 H376 0.931 . S
C361 C360 1.391 . S
C361 C365 1.376 . S
C362 C360 1.394 . S
C362 C363 1.369 . S
C362 C366 1.531 . S
C363 C362 1.369 . S
C363 C364 1.410 . S
C363 C371 1.503 . S
C364 C363 1.410 . S
C364 C365 1.392 . S
C364 C367 1.511 . S
C365 C361 1.376 . S
C365 C364 1.392 . S
C365 H377 0.929 . S
C366 C362 1.531 . S
C366 H378 0.960 . S
C366 H379 0.962 . S
C366 H380 0.960 . S
C367 C364 1.511 . S
C367 H381 0.961 . S
C367 H382 0.961 . S
C367 H383 0.961 . S
C368 C369 1.370 . S
C368 C370 1.363 . S
C368 H384 0.931 . S
C369 C368 1.370 . S
C369 C373 1.408 . S
C370 C368 1.363 . S
C370 C371 1.370 . S
C370 C374 1.524 . S
C371 C363 1.503 . S
C371 C370 1.370 . S
C371 C372 1.403 . S
C372 C371 1.403 . S
C372 C373 1.404 . S
C372 C375 1.539 . S
C373 C369 1.408 . S
C373 C372 1.404 . S
C373 H385 0.930 . S
C374 C370 1.524 . S
C374 H386 0.956 . S
C374 H387 0.961 . S
C374 H388 0.961 . S
C375 C372 1.539 . S
C375 H389 0.958 . S
C375 H390 0.961 . S
C375 H391 0.960 . S
H376 C360 0.931 . S
H377 C365 0.929 . S
H378 C366 0.960 . S
H379 C366 0.962 . S
H380 C366 0.960 . S
H381 C367 0.961 . S
H382 C367 0.961 . S
H383 C367 0.961 . S
H384 C368 0.931 . S
H385 C373 0.930 . S
H386 C374 0.956 . S
H387 C374 0.961 . S
H388 C374 0.961 . S
H389 C375 0.958 . S
H390 C375 0.961 . S
H391 C375 0.960 . S
C392 C393 1.391 . S
C392 C394 1.394 . S
C392 H408 0.931 . S
C393 C392 1.391 . S
C393 C397 1.376 . S
C394 C392 1.394 . S
C394 C395 1.369 . S
C394 C398 1.531 . S
C395 C394 1.369 . S
C395 C396 1.410 . S
C395 C403 1.503 . S
C396 C395 1.410 . S
C396 C397 1.392 . S
C396 C399 1.511 . S
C397 C393 1.376 . S
C397 C396 1.392 . S
C397 H409 0.929 . S
C398 C394 1.531 . S
C398 H410 0.960 . S
C398 H411 0.962 . S
C398 H412 0.960 . S
C399 C396 1.511 . S
C399 H413 0.961 . S
C399 H414 0.961 . S
C399 H415 0.961 . S
C400 C401 1.370 . S
C400 C402 1.363 . S
C400 H416 0.931 . S
C401 C400 1.370 . S
C401 C405 1.408 . S
C402 C400 1.363 . S
C402 C403 1.370 . S
C402 C406 1.524 . S
C403 C395 1.503 . S
C403 C402 1.370 . S
C403 C404 1.403 . S
C404 C403 1.403 . S
C404 C405 1.404 . S
C404 C407 1.539 . S
C405 C401 1.408 . S
C405 C404 1.404 . S
C405 H417 0.930 . S
C406 C402 1.524 . S
C406 H418 0.956 . S
C406 H419 0.961 . S
C406 H420 0.961 . S
C407 C404 1.539 . S
C407 H421 0.958 . S
C407 H422 0.961 . S
C407 H423 0.960 . S
H408 C392 0.931 . S
H409 C397 0.929 . S
H410 C398 0.960 . S
H411 C398 0.962 . S
H412 C398 0.960 . S
H413 C399 0.961 . S
H414 C399 0.961 . S
H415 C399 0.961 . S
H416 C400 0.931 . S
H417 C405 0.930 . S
H418 C406 0.956 . S
H419 C406 0.961 . S
H420 C406 0.961 . S
H421 C407 0.958 . S
H422 C407 0.961 . S
H423 C407 0.960 . S
C424 C425 1.391 1_556 S
C424 C426 1.394 . S
C424 H440 0.931 1_556 S
C425 C424 1.391 1_554 S
C425 C429 1.376 1_554 S
C426 C424 1.394 . S
C426 C427 1.369 . S
C426 C430 1.531 . S
C427 C426 1.369 . S
C427 C428 1.410 . S
C427 C435 1.503 . S
C428 C427 1.410 . S
C428 C429 1.392 . S
C428 C431 1.511 . S
C429 C425 1.376 1_556 S
C429 C428 1.392 . S
C429 H441 0.929 . S
C430 C426 1.531 . S
C430 H442 0.960 . S
C430 H443 0.962 . S
C430 H444 0.960 . S
C431 C428 1.511 . S
C431 H445 0.961 . S
C431 H446 0.961 . S
C431 H447 0.961 . S
C432 C433 1.370 . S
C432 C434 1.363 . S
C432 H448 0.931 . S
C433 C432 1.370 . S
C433 C437 1.408 . S
C434 C432 1.363 . S
C434 C435 1.370 . S
C434 C438 1.524 . S
C435 C427 1.503 . S
C435 C434 1.370 . S
C435 C436 1.403 . S
C436 C435 1.403 . S
C436 C437 1.404 . S
C436 C439 1.539 . S
C437 C433 1.408 . S
C437 C436 1.404 . S
C437 H449 0.930 . S
C438 C434 1.524 . S
C438 H450 0.956 . S
C438 H451 0.961 . S
C438 H452 0.961 . S
C439 C436 1.539 . S
C439 H453 0.958 . S
C439 H454 0.961 . S
C439 H455 0.960 . S
H440 C424 0.931 1_554 S
H441 C429 0.929 . S
H442 C430 0.960 . S
H443 C430 0.962 . S
H444 C430 0.960 . S
H445 C431 0.961 . S
H446 C431 0.961 . S
H447 C431 0.961 . S
H448 C432 0.931 . S
H449 C437 0.930 . S
H450 C438 0.956 . S
H451 C438 0.961 . S
H452 C438 0.961 . S
H453 C439 0.958 . S
H454 C439 0.961 . S
H455 C439 0.960 . S
C456 C457 1.391 . S
C456 C458 1.394 . S
C456 H472 0.931 . S
C457 C456 1.391 . S
C457 C461 1.376 . S
C458 C456 1.394 . S
C458 C459 1.369 . S
C458 C462 1.531 . S
C459 C458 1.369 . S
C459 C460 1.410 . S
C459 C467 1.503 . S
C460 C459 1.410 . S
C460 C461 1.392 . S
C460 C463 1.511 . S
C461 C457 1.376 . S
C461 C460 1.392 . S
C461 H473 0.929 . S
C462 C458 1.531 . S
C462 H474 0.960 . S
C462 H475 0.962 . S
C462 H476 0.960 . S
C463 C460 1.511 . S
C463 H477 0.961 . S
C463 H478 0.961 . S
C463 H479 0.961 . S
C464 C465 1.370 1_554 S
C464 C466 1.363 . S
C464 H480 0.919 1_554 S
C465 C464 1.370 1_556 S
C465 C469 1.408 1_556 S
C466 C464 1.363 . S
C466 C467 1.370 . S
C466 C470 1.524 . S
C467 C459 1.503 . S
C467 C466 1.370 . S
C467 C468 1.403 . S
C468 C467 1.403 . S
C468 C469 1.404 . S
C468 C471 1.539 . S
C469 C465 1.408 1_554 S
C469 C468 1.404 . S
C469 H481 0.930 . S
C470 C466 1.524 . S
C470 H482 0.956 . S
C470 H483 0.961 . S
C470 H484 0.961 . S
C471 C468 1.539 . S
C471 H485 0.958 . S
C471 H486 0.961 . S
C471 H487 0.960 . S
H472 C456 0.931 . S
H473 C461 0.929 . S
H474 C462 0.960 . S
H475 C462 0.962 . S
H476 C462 0.960 . S
H477 C463 0.961 . S
H478 C463 0.961 . S
H479 C463 0.961 . S
H480 C464 0.919 1_556 S
H481 C469 0.930 . S
H482 C470 0.956 . S
H483 C470 0.961 . S
H484 C470 0.961 . S
H485 C471 0.958 . S
H486 C471 0.961 . S
H487 C471 0.960 . S
C488 C489 1.391 . S
C488 C490 1.394 . S
C488 H504 0.931 . S
C489 C488 1.391 . S
C489 C493 1.376 . S
C490 C488 1.394 . S
C490 C491 1.369 . S
C490 C494 1.531 . S
C491 C490 1.369 . S
C491 C492 1.410 . S
C491 C499 1.503 . S
C492 C491 1.410 . S
C492 C493 1.392 . S
C492 C495 1.511 . S
C493 C489 1.376 . S
C493 C492 1.392 . S
C493 H505 0.929 . S
C494 C490 1.531 . S
C494 H506 0.960 . S
C494 H507 0.962 . S
C494 H508 0.960 . S
C495 C492 1.511 . S
C495 H509 0.961 . S
C495 H510 0.961 . S
C495 H511 0.961 . S
C496 C497 1.370 . S
C496 C498 1.363 . S
C496 H512 0.931 . S
C497 C496 1.370 . S
C497 C501 1.408 . S
C498 C496 1.363 . S
C498 C499 1.370 . S
C498 C502 1.524 . S
C499 C491 1.503 . S
C499 C498 1.370 . S
C499 C500 1.403 . S
C500 C499 1.403 . S
C500 C501 1.404 . S
C500 C503 1.539 . S
C501 C497 1.408 . S
C501 C500 1.404 . S
C501 H513 0.930 . S
C502 C498 1.524 . S
C502 H514 0.956 . S
C502 H515 0.961 . S
C502 H516 0.961 . S
C503 C500 1.539 . S
C503 H517 0.958 . S
C503 H518 0.961 . S
C503 H519 0.960 . S
H504 C488 0.931 . S
H505 C493 0.929 . S
H506 C494 0.960 . S
H507 C494 0.962 . S
H508 C494 0.960 . S
H509 C495 0.961 . S
H510 C495 0.961 . S
H511 C495 0.961 . S
H512 C496 0.931 . S
H513 C501 0.930 . S
H514 C502 0.956 . S
H515 C502 0.961 . S
H516 C502 0.961 . S
H517 C503 0.958 . S
H518 C503 0.961 . S
H519 C503 0.960 . S
C520 C521 1.391 . S
C520 C522 1.394 . S
C520 H536 0.931 . S
C521 C520 1.391 . S
C521 C525 1.376 . S
C522 C520 1.394 . S
C522 C523 1.369 . S
C522 C526 1.531 . S
C523 C522 1.369 . S
C523 C524 1.410 . S
C523 C531 1.503 . S
C524 C523 1.410 . S
C524 C525 1.392 . S
C524 C527 1.511 . S
C525 C521 1.376 . S
C525 C524 1.392 . S
C525 H537 0.929 . S
C526 C522 1.531 . S
C526 H538 0.960 . S
C526 H539 0.962 . S
C526 H540 0.960 . S
C527 C524 1.511 . S
C527 H541 0.961 . S
C527 H542 0.961 . S
C527 H543 0.961 . S
C528 C529 1.370 . S
C528 C530 1.363 . S
C528 H544 0.931 . S
C529 C528 1.370 . S
C529 C533 1.408 . S
C530 C528 1.363 . S
C530 C531 1.370 . S
C530 C534 1.524 . S
C531 C523 1.503 . S
C531 C530 1.370 . S
C531 C532 1.403 . S
C532 C531 1.403 . S
C532 C533 1.404 . S
C532 C535 1.539 . S
C533 C529 1.408 . S
C533 C532 1.404 . S
C533 H545 0.930 . S
C534 C530 1.524 . S
C534 H546 0.956 . S
C534 H547 0.961 . S
C534 H548 0.961 . S
C535 C532 1.539 . S
C535 H549 0.958 . S
C535 H550 0.961 . S
C535 H551 0.960 . S
H536 C520 0.931 . S
H537 C525 0.929 . S
H538 C526 0.960 . S
H539 C526 0.962 . S
H540 C526 0.960 . S
H541 C527 0.961 . S
H542 C527 0.961 . S
H543 C527 0.961 . S
H544 C528 0.931 . S
H545 C533 0.930 . S
H546 C534 0.956 . S
H547 C534 0.961 . S
H548 C534 0.961 . S
H549 C535 0.958 . S
H550 C535 0.961 . S
H551 C535 0.960 . S
C552 C553 1.391 . S
C552 C554 1.394 . S
C552 H568 0.931 . S
C553 C552 1.391 . S
C553 C557 1.376 . S
C554 C552 1.394 . S
C554 C555 1.369 . S
C554 C558 1.531 . S
C555 C554 1.369 . S
C555 C556 1.410 . S
C555 C563 1.503 1_655 S
C556 C555 1.410 . S
C556 C557 1.392 . S
C556 C559 1.511 . S
C557 C553 1.376 . S
C557 C556 1.392 . S
C557 H569 0.929 . S
C558 C554 1.531 . S
C558 H570 0.938 1_655 S
C558 H571 0.979 . S
C558 H572 0.960 . S
C559 C556 1.511 . S
C559 H573 0.961 . S
C559 H574 0.961 . S
C559 H575 0.961 . S
C560 C561 1.370 . S
C560 C562 1.363 . S
C560 H576 0.931 . S
C561 C560 1.370 . S
C561 C565 1.408 . S
C562 C560 1.363 . S
C562 C563 1.370 . S
C562 C566 1.524 . S
C563 C555 1.503 1_455 S
C563 C562 1.370 . S
C563 C564 1.403 . S
C564 C563 1.403 . S
C564 C565 1.404 . S
C564 C567 1.539 1_455 S
C565 C561 1.408 . S
C565 C564 1.404 . S
C565 H577 0.930 . S
C566 C562 1.524 . S
C566 H578 0.956 . S
C566 H579 0.961 . S
C566 H580 0.961 . S
C567 C564 1.539 1_655 S
C567 H581 0.958 . S
C567 H582 0.961 1_655 S
C567 H583 0.960 . S
H568 C552 0.931 . S
H569 C557 0.929 . S
H570 C558 0.938 1_455 S
H571 C558 0.979 . S
H572 C558 0.960 . S
H573 C559 0.961 . S
H574 C559 0.961 . S
H575 C559 0.961 . S
H576 C560 0.931 . S
H577 C565 0.930 . S
H578 C566 0.956 . S
H579 C566 0.961 . S
H580 C566 0.961 . S
H581 C567 0.958 . S
H582 C567 0.961 1_455 S
H583 C567 0.960 . S
C584 C585 1.391 . S
C584 C586 1.394 . S
C584 H600 0.931 . S
C585 C584 1.391 . S
C585 C589 1.376 . S
C586 C584 1.394 . S
C586 C587 1.369 . S
C586 C590 1.531 . S
C587 C586 1.369 . S
C587 C588 1.410 . S
C587 C595 1.503 1_565 S
C588 C587 1.410 . S
C588 C589 1.392 . S
C588 C591 1.511 . S
C589 C585 1.376 . S
C589 C588 1.392 . S
C589 H601 0.929 . S
C590 C586 1.531 . S
C590 H602 0.960 . S
C590 H603 0.962 . S
C590 H604 0.960 . S
C591 C588 1.511 . S
C591 H605 0.961 . S
C591 H606 0.961 1_565 S
C591 H607 0.961 . S
C592 C593 1.370 . S
C592 C594 1.363 . S
C592 H608 0.931 . S
C593 C592 1.370 . S
C593 C597 1.408 . S
C594 C592 1.363 . S
C594 C595 1.370 . S
C594 C598 1.524 . S
C595 C587 1.503 1_545 S
C595 C594 1.370 . S
C595 C596 1.403 . S
C596 C595 1.403 . S
C596 C597 1.404 . S
C596 C599 1.539 1_545 S
C597 C593 1.408 . S
C597 C596 1.404 . S
C597 H609 0.930 . S
C598 C594 1.524 . S
C598 H610 0.956 . S
C598 H611 0.961 . S
C598 H612 0.961 . S
C599 C596 1.539 1_565 S
C599 H613 0.958 . S
C599 H614 0.961 1_565 S
C599 H615 0.960 . S
H600 C584 0.931 . S
H601 C589 0.929 . S
H602 C590 0.960 . S
H603 C590 0.962 . S
H604 C590 0.960 . S
H605 C591 0.961 . S
H606 C591 0.961 1_545 S
H607 C591 0.961 . S
H608 C592 0.931 . S
H609 C597 0.930 . S
H610 C598 0.956 . S
H611 C598 0.961 . S
H612 C598 0.961 . S
H613 C599 0.958 . S
H614 C599 0.961 1_545 S
H615 C599 0.960 . S
C616 C617 1.391 . S
C616 C618 1.394 . S
C616 H632 0.931 . S
C617 C616 1.391 . S
C617 C621 1.376 . S
C618 C616 1.394 . S
C618 C619 1.369 . S
C618 C622 1.531 . S
C619 C618 1.369 . S
C619 C620 1.410 . S
C619 C627 1.503 . S
C620 C619 1.410 . S
C620 C621 1.392 . S
C620 C623 1.511 . S
C621 C617 1.376 . S
C621 C620 1.392 . S
C621 H633 0.929 . S
C622 C618 1.531 . S
C622 H634 0.960 . S
C622 H635 0.962 . S
C622 H636 0.960 . S
C623 C620 1.511 . S
C623 H637 0.961 . S
C623 H638 0.961 . S
C623 H639 0.961 . S
C624 C625 1.370 . S
C624 C626 1.363 . S
C624 H640 0.931 . S
C625 C624 1.370 . S
C625 C629 1.408 . S
C626 C624 1.363 . S
C626 C627 1.370 . S
C626 C630 1.524 . S
C627 C619 1.503 . S
C627 C626 1.370 . S
C627 C628 1.403 . S
C628 C627 1.403 . S
C628 C629 1.404 . S
C628 C631 1.539 . S
C629 C625 1.408 . S
C629 C628 1.404 . S
C629 H641 0.930 . S
C630 C626 1.524 . S
C630 H642 0.956 . S
C630 H643 0.961 . S
C630 H644 0.961 . S
C631 C628 1.539 . S
C631 H645 0.958 . S
C631 H646 0.961 . S
C631 H647 0.960 . S
H632 C616 0.931 . S
H633 C621 0.929 . S
H634 C622 0.960 . S
H635 C622 0.962 . S
H636 C622 0.960 . S
H637 C623 0.961 . S
H638 C623 0.961 . S
H639 C623 0.961 . S
H640 C624 0.931 . S
H641 C629 0.930 . S
H642 C630 0.956 . S
H643 C630 0.961 . S
H644 C630 0.961 . S
H645 C631 0.958 . S
H646 C631 0.961 . S
H647 C631 0.960 . S
C648 C649 1.391 . S
C648 C650 1.394 . S
C648 H664 0.931 . S
C649 C648 1.391 . S
C649 C653 1.376 . S
C650 C648 1.394 . S
C650 C651 1.369 . S
C650 C654 1.531 . S
C651 C650 1.369 . S
C651 C652 1.410 . S
C651 C659 1.503 1_455 S
C652 C651 1.410 . S
C652 C653 1.392 . S
C652 C655 1.511 . S
C653 C649 1.376 . S
C653 C652 1.392 . S
C653 H665 0.929 . S
C654 C650 1.531 . S
C654 H666 0.960 . S
C654 H667 0.962 . S
C654 H668 0.960 . S
C655 C652 1.511 . S
C655 H669 0.961 . S
C655 H670 0.961 1_455 S
C655 H671 0.961 . S
C656 C657 1.370 . S
C656 C658 1.363 . S
C656 H672 0.931 . S
C657 C656 1.370 . S
C657 C661 1.408 . S
C658 C656 1.363 . S
C658 C659 1.370 . S
C658 C662 1.524 . S
C659 C651 1.503 1_655 S
C659 C658 1.370 . S
C659 C660 1.403 . S
C660 C659 1.403 . S
C660 C661 1.404 . S
C660 C663 1.539 1_655 S
C661 C657 1.408 . S
C661 C660 1.404 . S
C661 H673 0.930 . S
C662 C658 1.524 . S
C662 H674 0.956 . S
C662 H675 0.961 . S
C662 H676 0.961 . S
C663 C660 1.539 1_455 S
C663 H677 0.958 . S
C663 H678 0.961 1_455 S
C663 H679 0.960 . S
H664 C648 0.931 . S
H665 C653 0.929 . S
H666 C654 0.960 . S
H667 C654 0.962 . S
H668 C654 0.960 . S
H669 C655 0.961 . S
H670 C655 0.961 1_655 S
H671 C655 0.961 . S
H672 C656 0.931 . S
H673 C661 0.930 . S
H674 C662 0.956 . S
H675 C662 0.961 . S
H676 C662 0.961 . S
H677 C663 0.958 . S
H678 C663 0.961 1_655 S
H679 C663 0.960 . S
C680 C681 1.391 1_554 S
C680 C682 1.394 . S
C680 H696 0.931 . S
C681 C680 1.391 1_556 S
C681 C685 1.376 . S
C682 C680 1.394 . S
C682 C683 1.369 1_554 S
C682 C686 1.531 . S
C683 C682 1.369 1_556 S
C683 C684 1.410 . S
C683 C691 1.503 1_546 S
C684 C683 1.410 . S
C684 C685 1.392 . S
C684 C687 1.520 . S
C685 C681 1.376 . S
C685 C684 1.392 . S
C685 H697 0.929 . S
C686 C682 1.531 . S
C686 H698 0.960 . S
C686 H699 0.962 . S
C686 H700 0.960 . S
C687 C684 1.520 . S
C687 H701 0.966 . S
C687 H702 0.937 1_545 S
C687 H703 0.973 . S
C688 C689 1.370 . S
C688 C690 1.363 1_554 S
C688 H704 0.931 . S
C689 C688 1.370 . S
C689 C693 1.408 . S
C690 C688 1.363 1_556 S
C690 C691 1.370 1_556 S
C690 C694 1.524 . S
C691 C683 1.503 1_564 S
C691 C690 1.370 1_554 S
C691 C692 1.403 . S
C692 C691 1.403 . S
C692 C693 1.404 . S
C692 C695 1.539 . S
C693 C689 1.408 . S
C693 C692 1.404 . S
C693 H705 0.930 . S
C694 C690 1.524 . S
C694 H706 0.956 . S
C694 H707 0.961 . S
C694 H708 0.961 . S
C695 C692 1.539 . S
C695 H709 0.958 1_565 S
C695 H710 0.961 . S
C695 H711 0.960 1_565 S
H696 C680 0.931 . S
H697 C685 0.929 . S
H698 C686 0.960 . S
H699 C686 0.962 . S
H700 C686 0.960 . S
H701 C687 0.966 . S
H702 C687 0.937 1_565 S
H703 C687 0.973 . S
H704 C688 0.931 . S
H705 C693 0.930 . S
H706 C694 0.956 . S
H707 C694 0.961 . S
H708 C694 0.961 . S
H709 C695 0.958 1_545 S
H710 C695 0.961 . S
H711 C695 0.960 1_545 S
C712 C713 1.391 . S
C712 C714 1.394 . S
C712 H728 0.931 . S
C713 C712 1.391 . S
C713 C717 1.376 . S
C714 C712 1.394 . S
C714 C715 1.369 . S
C714 C718 1.531 . S
C715 C714 1.369 . S
C715 C716 1.410 . S
C715 C723 1.503 . S
C716 C715 1.410 . S
C716 C717 1.392 . S
C716 C719 1.511 . S
C717 C713 1.376 . S
C717 C716 1.392 . S
C717 H729 0.929 . S
C718 C714 1.531 . S
C718 H730 0.960 . S
C718 H731 0.962 . S
C718 H732 0.960 . S
C719 C716 1.511 . S
C719 H733 0.961 . S
C719 H734 0.961 . S
C719 H735 0.961 . S
C720 C721 1.370 . S
C720 C722 1.363 . S
C720 H736 0.931 . S
C721 C720 1.370 . S
C721 C725 1.408 . S
C722 C720 1.363 . S
C722 C723 1.370 . S
C722 C726 1.524 . S
C723 C715 1.503 . S
C723 C722 1.370 . S
C723 C724 1.403 . S
C724 C723 1.403 . S
C724 C725 1.404 . S
C724 C727 1.539 . S
C725 C721 1.408 . S
C725 C724 1.404 . S
C725 H737 0.930 . S
C726 C722 1.524 . S
C726 H738 0.956 . S
C726 H739 0.961 . S
C726 H740 0.961 . S
C727 C724 1.539 . S
C727 H741 0.958 . S
C727 H742 0.961 . S
C727 H743 0.960 . S
H728 C712 0.931 . S
H729 C717 0.929 . S
H730 C718 0.960 . S
H731 C718 0.962 . S
H732 C718 0.960 . S
H733 C719 0.961 . S
H734 C719 0.961 . S
H735 C719 0.961 . S
H736 C720 0.931 . S
H737 C725 0.930 . S
H738 C726 0.956 . S
H739 C726 0.961 . S
H740 C726 0.961 . S
H741 C727 0.958 . S
H742 C727 0.961 . S
H743 C727 0.960 . S
C744 C745 1.391 . S
C744 C746 1.394 . S
C744 H760 0.931 . S
C745 C744 1.391 . S
C745 C749 1.376 . S
C746 C744 1.394 . S
C746 C747 1.369 . S
C746 C750 1.531 . S
C747 C746 1.369 . S
C747 C748 1.410 . S
C747 C755 1.503 . S
C748 C747 1.410 . S
C748 C749 1.392 . S
C748 C751 1.511 . S
C749 C745 1.376 . S
C749 C748 1.392 . S
C749 H761 0.929 . S
C750 C746 1.531 . S
C750 H762 0.960 . S
C750 H763 0.962 . S
C750 H764 0.960 . S
C751 C748 1.511 . S
C751 H765 0.961 . S
C751 H766 0.961 . S
C751 H767 0.961 . S
C752 C753 1.370 . S
C752 C754 1.363 . S
C752 H768 0.931 . S
C753 C752 1.370 . S
C753 C757 1.408 . S
C754 C752 1.363 . S
C754 C755 1.370 . S
C754 C758 1.524 . S
C755 C747 1.503 . S
C755 C754 1.370 . S
C755 C756 1.403 . S
C756 C755 1.403 . S
C756 C757 1.404 . S
C756 C759 1.539 . S
C757 C753 1.408 . S
C757 C756 1.404 . S
C757 H769 0.930 . S
C758 C754 1.524 . S
C758 H770 0.956 . S
C758 H771 0.961 . S
C758 H772 0.961 . S
C759 C756 1.539 . S
C759 H773 0.958 . S
C759 H774 0.961 . S
C759 H775 0.960 . S
H760 C744 0.931 . S
H761 C749 0.929 . S
H762 C750 0.960 . S
H763 C750 0.962 . S
H764 C750 0.960 . S
H765 C751 0.961 . S
H766 C751 0.961 . S
H767 C751 0.961 . S
H768 C752 0.931 . S
H769 C757 0.930 . S
H770 C758 0.956 . S
H771 C758 0.961 . S
H772 C758 0.961 . S
H773 C759 0.958 . S
H774 C759 0.961 . S
H775 C759 0.960 . S
C776 C777 1.391 . S
C776 C778 1.394 . S
C776 H792 0.931 . S
C777 C776 1.391 . S
C777 C781 1.376 . S
C778 C776 1.394 . S
C778 C779 1.369 . S
C778 C782 1.531 . S
C779 C778 1.369 . S
C779 C780 1.410 . S
C779 C787 1.503 . S
C780 C779 1.410 . S
C780 C781 1.392 . S
C780 C783 1.511 . S
C781 C777 1.376 . S
C781 C780 1.392 . S
C781 H793 0.929 . S
C782 C778 1.531 . S
C782 H794 0.960 . S
C782 H795 0.962 . S
C782 H796 0.960 . S
C783 C780 1.511 . S
C783 H797 0.961 . S
C783 H798 0.961 . S
C783 H799 0.961 . S
C784 C785 1.370 . S
C784 C786 1.363 . S
C784 H800 0.931 . S
C785 C784 1.370 . S
C785 C789 1.408 . S
C786 C784 1.363 . S
C786 C787 1.370 . S
C786 C790 1.524 . S
C787 C779 1.503 . S
C787 C786 1.370 . S
C787 C788 1.403 . S
C788 C787 1.403 . S
C788 C789 1.404 . S
C788 C791 1.539 . S
C789 C785 1.408 . S
C789 C788 1.404 . S
C789 H801 0.930 . S
C790 C786 1.524 . S
C790 H802 0.956 . S
C790 H803 0.961 . S
C790 H804 0.961 . S
C791 C788 1.539 . S
C791 H805 0.958 . S
C791 H806 0.961 . S
C791 H807 0.960 . S
H792 C776 0.931 . S
H793 C781 0.929 . S
H794 C782 0.960 . S
H795 C782 0.962 . S
H796 C782 0.960 . S
H797 C783 0.961 . S
H798 C783 0.961 . S
H799 C783 0.961 . S
H800 C784 0.931 . S
H801 C789 0.930 . S
H802 C790 0.956 . S
H803 C790 0.961 . S
H804 C790 0.961 . S
H805 C791 0.958 . S
H806 C791 0.961 . S
H807 C791 0.960 . S
C808 C809 1.391 . S
C808 C810 1.394 . S
C808 H824 0.931 . S
C809 C808 1.391 . S
C809 C813 1.376 . S
C810 C808 1.394 . S
C810 C811 1.369 . S
C810 C814 1.531 . S
C811 C810 1.369 . S
C811 C812 1.410 . S
C811 C819 1.503 . S
C812 C811 1.410 . S
C812 C813 1.392 . S
C812 C815 1.511 . S
C813 C809 1.376 . S
C813 C812 1.392 . S
C813 H825 0.929 . S
C814 C810 1.531 . S
C814 H826 0.960 . S
C814 H827 0.962 . S
C814 H828 0.960 . S
C815 C812 1.511 . S
C815 H829 0.961 . S
C815 H830 0.961 . S
C815 H831 0.961 . S
C816 C817 1.370 . S
C816 C818 1.363 . S
C816 H832 0.931 . S
C817 C816 1.370 . S
C817 C821 1.408 . S
C818 C816 1.363 . S
C818 C819 1.370 . S
C818 C822 1.524 . S
C819 C811 1.503 . S
C819 C818 1.370 . S
C819 C820 1.403 . S
C820 C819 1.403 . S
C820 C821 1.404 . S
C820 C823 1.539 . S
C821 C817 1.408 . S
C821 C820 1.404 . S
C821 H833 0.930 . S
C822 C818 1.524 . S
C822 H834 0.956 . S
C822 H835 0.961 . S
C822 H836 0.961 . S
C823 C820 1.539 . S
C823 H837 0.958 . S
C823 H838 0.961 . S
C823 H839 0.960 . S
H824 C808 0.931 . S
H825 C813 0.929 . S
H826 C814 0.960 . S
H827 C814 0.962 . S
H828 C814 0.960 . S
H829 C815 0.961 . S
H830 C815 0.961 . S
H831 C815 0.961 . S
H832 C816 0.931 . S
H833 C821 0.930 . S
H834 C822 0.956 . S
H835 C822 0.961 . S
H836 C822 0.961 . S
H837 C823 0.958 . S
H838 C823 0.961 . S
H839 C823 0.960 . S
C840 C841 1.391 . S
C840 C842 1.394 . S
C840 H856 0.931 . S
C841 C840 1.391 . S
C841 C845 1.376 . S
C842 C840 1.394 . S
C842 C843 1.369 . S
C842 C846 1.531 . S
C843 C842 1.369 . S
C843 C844 1.410 . S
C843 C851 1.503 . S
C844 C843 1.410 . S
C844 C845 1.392 . S
C844 C847 1.511 . S
C845 C841 1.376 . S
C845 C844 1.392 . S
C845 H857 0.929 . S
C846 C842 1.531 . S
C846 H858 0.960 . S
C846 H859 0.962 . S
C846 H860 0.960 . S
C847 C844 1.511 . S
C847 H861 0.961 . S
C847 H862 0.961 . S
C847 H863 0.961 . S
C848 C849 1.370 . S
C848 C850 1.363 . S
C848 H864 0.931 . S
C849 C848 1.370 . S
C849 C853 1.408 . S
C850 C848 1.363 . S
C850 C851 1.370 . S
C850 C854 1.524 . S
C851 C843 1.503 . S
C851 C850 1.370 . S
C851 C852 1.403 . S
C852 C851 1.403 . S
C852 C853 1.404 . S
C852 C855 1.539 . S
C853 C849 1.408 . S
C853 C852 1.404 . S
C853 H865 0.930 . S
C854 C850 1.524 . S
C854 H866 0.956 . S
C854 H867 0.961 . S
C854 H868 0.961 . S
C855 C852 1.539 . S
C855 H869 0.958 . S
C855 H870 0.961 . S
C855 H871 0.960 . S
H856 C840 0.931 . S
H857 C845 0.929 . S
H858 C846 0.960 . S
H859 C846 0.962 . S
H860 C846 0.960 . S
H861 C847 0.961 . S
H862 C847 0.961 . S
H863 C847 0.961 . S
H864 C848 0.931 . S
H865 C853 0.930 . S
H866 C854 0.956 . S
H867 C854 0.961 . S
H868 C854 0.961 . S
H869 C855 0.958 . S
H870 C855 0.961 . S
H871 C855 0.960 . S
C872 C873 1.391 . S
C872 C874 1.394 . S
C872 H888 0.931 . S
C873 C872 1.391 . S
C873 C877 1.376 . S
C874 C872 1.394 . S
C874 C875 1.369 . S
C874 C878 1.531 . S
C875 C874 1.369 . S
C875 C876 1.410 . S
C875 C883 1.503 . S
C876 C875 1.410 . S
C876 C877 1.392 . S
C876 C879 1.511 . S
C877 C873 1.376 . S
C877 C876 1.392 . S
C877 H889 0.929 . S
C878 C874 1.531 . S
C878 H890 0.960 . S
C878 H891 0.962 . S
C878 H892 0.960 . S
C879 C876 1.511 . S
C879 H893 0.961 . S
C879 H894 0.961 . S
C879 H895 0.961 . S
C880 C881 1.370 . S
C880 C882 1.363 . S
C880 H896 0.931 . S
C881 C880 1.370 . S
C881 C885 1.408 . S
C882 C880 1.363 . S
C882 C883 1.370 . S
C882 C886 1.524 . S
C883 C875 1.503 . S
C883 C882 1.370 . S
C883 C884 1.403 . S
C884 C883 1.403 . S
C884 C885 1.404 . S
C884 C887 1.539 . S
C885 C881 1.408 . S
C885 C884 1.404 . S
C885 H897 0.930 . S
C886 C882 1.524 . S
C886 H898 0.956 . S
C886 H899 0.961 . S
C886 H900 0.961 . S
C887 C884 1.539 . S
C887 H901 0.958 . S
C887 H902 0.961 . S
C887 H903 0.960 . S
H888 C872 0.931 . S
H889 C877 0.929 . S
H890 C878 0.960 . S
H891 C878 0.962 . S
H892 C878 0.960 . S
H893 C879 0.961 . S
H894 C879 0.961 . S
H895 C879 0.961 . S
H896 C880 0.931 . S
H897 C885 0.930 . S
H898 C886 0.956 . S
H899 C886 0.961 . S
H900 C886 0.961 . S
H901 C887 0.958 . S
H902 C887 0.961 . S
H903 C887 0.960 . S
C904 C905 1.391 . S
C904 C906 1.394 . S
C904 H920 0.931 . S
C905 C904 1.391 . S
C905 C909 1.376 . S
C906 C904 1.394 . S
C906 C907 1.369 . S
C906 C910 1.531 . S
C907 C906 1.369 . S
C907 C908 1.410 . S
C907 C915 1.503 . S
C908 C907 1.410 . S
C908 C909 1.392 . S
C908 C911 1.511 . S
C909 C905 1.376 . S
C909 C908 1.392 . S
C909 H921 0.929 . S
C910 C906 1.531 . S
C910 H922 0.960 . S
C910 H923 0.962 . S
C910 H924 0.960 . S
C911 C908 1.511 . S
C911 H925 0.961 . S
C911 H926 0.961 . S
C911 H927 0.961 . S
C912 C913 1.370 . S
C912 C914 1.363 . S
C912 H928 0.931 . S
C913 C912 1.370 . S
C913 C917 1.408 . S
C914 C912 1.363 . S
C914 C915 1.370 . S
C914 C918 1.524 . S
C915 C907 1.503 . S
C915 C914 1.370 . S
C915 C916 1.403 . S
C916 C915 1.403 . S
C916 C917 1.404 . S
C916 C919 1.539 . S
C917 C913 1.408 . S
C917 C916 1.404 . S
C917 H929 0.930 1_554 S
C918 C914 1.524 . S
C918 H930 0.956 . S
C918 H931 0.961 . S
C918 H932 0.961 . S
C919 C916 1.539 . S
C919 H933 0.958 . S
C919 H934 0.961 1_554 S
C919 H935 0.960 . S
H920 C904 0.931 . S
H921 C909 0.929 . S
H922 C910 0.960 . S
H923 C910 0.962 . S
H924 C910 0.960 . S
H925 C911 0.961 . S
H926 C911 0.961 . S
H927 C911 0.961 . S
H928 C912 0.931 . S
H929 C917 0.930 1_556 S
H930 C918 0.956 . S
H931 C918 0.961 . S
H932 C918 0.961 . S
H933 C919 0.958 . S
H934 C919 0.961 1_556 S
H935 C919 0.960 . S
C169 C9 0.997 . S
C177 C93 0.977 . S
C201 C23 0.969 . S
C209 C107 0.964 . S
C233 C121 0.922 . S
C241 C37 0.953 . S
C265 C51 0.939 . S
C273 C135 0.963 . S
C297 C65 0.940 . S
C305 C149 0.964 . S
C329 C163 0.930 . S
C337 C79 0.951 . S
C361 C120 1.639 . S
C369 C8 1.630 . S
C393 C22 1.620 . S
C401 C134 1.648 . S
C425 C148 1.656 . S
C433 C36 1.628 . S
C457 C162 1.614 . S
C465 C50 1.641 . S
C489 C64 1.629 . S
C497 C92 1.646 . S
C521 C78 1.653 . S
C529 C106 1.636 . S
C553 C160 1.385 . S
C561 C6 1.393 . S
C585 C90 1.389 . S
C593 C20 1.395 . S
C617 C34 1.409 . S
C625 C104 1.402 . S
C649 C118 1.388 . S
C657 C48 1.394 . S
C681 C132 1.406 . S
C689 C62 1.401 . S
C713 C146 1.395 . S
C721 C76 1.397 . S
C745 C7 1.298 . S
C753 C147 1.263 . S
C777 C161 1.271 . S
C785 C21 1.262 . S
C809 C35 1.244 . S
C817 C91 1.273 . S
C841 C49 1.278 . S
C849 C105 1.260 . S
C873 C63 1.295 1_556 S
C881 C119 1.258 . S
C905 C77 1.295 . S
C913 C133 1.258 1_554 S
