# Generated by pormake.
# Topology mer, (4)-cn, num edge types: 1
# Building blocks:
#     Node 0, Type 0, BuildingBlock: QUQFOY_clean_sbu_3, # of connection points: 4
#     Node 1, Type 0, BuildingBlock: QUQFOY_clean_sbu_3, # of connection points: 4
#     Node 2, Type 0, BuildingBlock: QUQFOY_clean_sbu_3, # of connection points: 4
#     Node 3, Type 0, BuildingBlock: QUQFOY_clean_sbu_3, # of connection points: 4
#     Node 4, Type 0, BuildingBlock: QUQFOY_clean_sbu_3, # of connection points: 4
#     Node 5, Type 0, BuildingBlock: QUQFOY_clean_sbu_3, # of connection points: 4
#     Node 6, Type 0, BuildingBlock: QUQFOY_clean_sbu_3, # of connection points: 4
#     Node 7, Type 0, BuildingBlock: QUQFOY_clean_sbu_3, # of connection points: 4
#     Node 8, Type 0, BuildingBlock: QUQFOY_clean_sbu_3, # of connection points: 4
#     Node 9, Type 0, BuildingBlock: QUQFOY_clean_sbu_3, # of connection points: 4
#     Node 10, Type 0, BuildingBlock: QUQFOY_clean_sbu_3, # of connection points: 4
#     Node 11, Type 0, BuildingBlock: QUQFOY_clean_sbu_3, # of connection points: 4
#     Node 12, Type 0, BuildingBlock: QUQFOY_clean_sbu_3, # of connection points: 4
#     Node 13, Type 0, BuildingBlock: QUQFOY_clean_sbu_3, # of connection points: 4
#     Node 14, Type 0, BuildingBlock: QUQFOY_clean_sbu_3, # of connection points: 4
#     Node 15, Type 0, BuildingBlock: QUQFOY_clean_sbu_3, # of connection points: 4
#     Node 16, Type 0, BuildingBlock: QUQFOY_clean_sbu_3, # of connection points: 4
#     Node 17, Type 0, BuildingBlock: QUQFOY_clean_sbu_3, # of connection points: 4
#     Node 18, Type 0, BuildingBlock: QUQFOY_clean_sbu_3, # of connection points: 4
#     Node 19, Type 0, BuildingBlock: QUQFOY_clean_sbu_3, # of connection points: 4
#     Node 20, Type 0, BuildingBlock: QUQFOY_clean_sbu_3, # of connection points: 4
#     Node 21, Type 0, BuildingBlock: QUQFOY_clean_sbu_3, # of connection points: 4
#     Node 22, Type 0, BuildingBlock: QUQFOY_clean_sbu_3, # of connection points: 4
#     Node 23, Type 0, BuildingBlock: QUQFOY_clean_sbu_3, # of connection points: 4
#     Node 24, Type 0, BuildingBlock: QUQFOY_clean_sbu_3, # of connection points: 4
#     Node 25, Type 0, BuildingBlock: QUQFOY_clean_sbu_3, # of connection points: 4
#     Node 26, Type 0, BuildingBlock: QUQFOY_clean_sbu_3, # of connection points: 4
#     Node 27, Type 0, BuildingBlock: QUQFOY_clean_sbu_3, # of connection points: 4
#     Node 28, Type 0, BuildingBlock: QUQFOY_clean_sbu_3, # of connection points: 4
#     Node 29, Type 0, BuildingBlock: QUQFOY_clean_sbu_3, # of connection points: 4
#     Node 30, Type 0, BuildingBlock: QUQFOY_clean_sbu_3, # of connection points: 4
#     Node 31, Type 0, BuildingBlock: QUQFOY_clean_sbu_3, # of connection points: 4
#     Edge 32, Type (0, 0), BuildingBlock: AJUNOK_clean_linker_0, # of connection points: 2
#     Edge 33, Type (0, 0), BuildingBlock: AJUNOK_clean_linker_0, # of connection points: 2
#     Edge 34, Type (0, 0), BuildingBlock: AJUNOK_clean_linker_0, # of connection points: 2
#     Edge 35, Type (0, 0), BuildingBlock: AJUNOK_clean_linker_0, # of connection points: 2
#     Edge 36, Type (0, 0), BuildingBlock: AJUNOK_clean_linker_0, # of connection points: 2
#     Edge 37, Type (0, 0), BuildingBlock: AJUNOK_clean_linker_0, # of connection points: 2
#     Edge 38, Type (0, 0), BuildingBlock: AJUNOK_clean_linker_0, # of connection points: 2
#     Edge 39, Type (0, 0), BuildingBlock: AJUNOK_clean_linker_0, # of connection points: 2
#     Edge 40, Type (0, 0), BuildingBlock: AJUNOK_clean_linker_0, # of connection points: 2
#     Edge 41, Type (0, 0), BuildingBlock: AJUNOK_clean_linker_0, # of connection points: 2
#     Edge 42, Type (0, 0), BuildingBlock: AJUNOK_clean_linker_0, # of connection points: 2
#     Edge 43, Type (0, 0), BuildingBlock: AJUNOK_clean_linker_0, # of connection points: 2
#     Edge 44, Type (0, 0), BuildingBlock: AJUNOK_clean_linker_0, # of connection points: 2
#     Edge 45, Type (0, 0), BuildingBlock: AJUNOK_clean_linker_0, # of connection points: 2
#     Edge 46, Type (0, 0), BuildingBlock: AJUNOK_clean_linker_0, # of connection points: 2
#     Edge 47, Type (0, 0), BuildingBlock: AJUNOK_clean_linker_0, # of connection points: 2
#     Edge 48, Type (0, 0), BuildingBlock: AJUNOK_clean_linker_0, # of connection points: 2
#     Edge 49, Type (0, 0), BuildingBlock: AJUNOK_clean_linker_0, # of connection points: 2
#     Edge 50, Type (0, 0), BuildingBlock: AJUNOK_clean_linker_0, # of connection points: 2
#     Edge 51, Type (0, 0), BuildingBlock: AJUNOK_clean_linker_0, # of connection points: 2
#     Edge 52, Type (0, 0), BuildingBlock: AJUNOK_clean_linker_0, # of connection points: 2
#     Edge 53, Type (0, 0), BuildingBlock: AJUNOK_clean_linker_0, # of connection points: 2
#     Edge 54, Type (0, 0), BuildingBlock: AJUNOK_clean_linker_0, # of connection points: 2
#     Edge 55, Type (0, 0), BuildingBlock: AJUNOK_clean_linker_0, # of connection points: 2
#     Edge 56, Type (0, 0), BuildingBlock: AJUNOK_clean_linker_0, # of connection points: 2
#     Edge 57, Type (0, 0), BuildingBlock: AJUNOK_clean_linker_0, # of connection points: 2
#     Edge 58, Type (0, 0), BuildingBlock: AJUNOK_clean_linker_0, # of connection points: 2
#     Edge 59, Type (0, 0), BuildingBlock: AJUNOK_clean_linker_0, # of connection points: 2
#     Edge 60, Type (0, 0), BuildingBlock: AJUNOK_clean_linker_0, # of connection points: 2
#     Edge 61, Type (0, 0), BuildingBlock: AJUNOK_clean_linker_0, # of connection points: 2
#     Edge 62, Type (0, 0), BuildingBlock: AJUNOK_clean_linker_0, # of connection points: 2
#     Edge 63, Type (0, 0), BuildingBlock: AJUNOK_clean_linker_0, # of connection points: 2
#     Edge 64, Type (0, 0), BuildingBlock: AJUNOK_clean_linker_0, # of connection points: 2
#     Edge 65, Type (0, 0), BuildingBlock: AJUNOK_clean_linker_0, # of connection points: 2
#     Edge 66, Type (0, 0), BuildingBlock: AJUNOK_clean_linker_0, # of connection points: 2
#     Edge 67, Type (0, 0), BuildingBlock: AJUNOK_clean_linker_0, # of connection points: 2
#     Edge 68, Type (0, 0), BuildingBlock: AJUNOK_clean_linker_0, # of connection points: 2
#     Edge 69, Type (0, 0), BuildingBlock: AJUNOK_clean_linker_0, # of connection points: 2
#     Edge 70, Type (0, 0), BuildingBlock: AJUNOK_clean_linker_0, # of connection points: 2
#     Edge 71, Type (0, 0), BuildingBlock: AJUNOK_clean_linker_0, # of connection points: 2
#     Edge 72, Type (0, 0), BuildingBlock: AJUNOK_clean_linker_0, # of connection points: 2
#     Edge 73, Type (0, 0), BuildingBlock: AJUNOK_clean_linker_0, # of connection points: 2
#     Edge 74, Type (0, 0), BuildingBlock: AJUNOK_clean_linker_0, # of connection points: 2
#     Edge 75, Type (0, 0), BuildingBlock: AJUNOK_clean_linker_0, # of connection points: 2
#     Edge 76, Type (0, 0), BuildingBlock: AJUNOK_clean_linker_0, # of connection points: 2
#     Edge 77, Type (0, 0), BuildingBlock: AJUNOK_clean_linker_0, # of connection points: 2
#     Edge 78, Type (0, 0), BuildingBlock: AJUNOK_clean_linker_0, # of connection points: 2
#     Edge 79, Type (0, 0), BuildingBlock: AJUNOK_clean_linker_0, # of connection points: 2
#     Edge 80, Type (0, 0), BuildingBlock: AJUNOK_clean_linker_0, # of connection points: 2
#     Edge 81, Type (0, 0), BuildingBlock: AJUNOK_clean_linker_0, # of connection points: 2
#     Edge 82, Type (0, 0), BuildingBlock: AJUNOK_clean_linker_0, # of connection points: 2
#     Edge 83, Type (0, 0), BuildingBlock: AJUNOK_clean_linker_0, # of connection points: 2
#     Edge 84, Type (0, 0), BuildingBlock: AJUNOK_clean_linker_0, # of connection points: 2
#     Edge 85, Type (0, 0), BuildingBlock: AJUNOK_clean_linker_0, # of connection points: 2
#     Edge 86, Type (0, 0), BuildingBlock: AJUNOK_clean_linker_0, # of connection points: 2
#     Edge 87, Type (0, 0), BuildingBlock: AJUNOK_clean_linker_0, # of connection points: 2
#     Edge 88, Type (0, 0), BuildingBlock: AJUNOK_clean_linker_0, # of connection points: 2
#     Edge 89, Type (0, 0), BuildingBlock: AJUNOK_clean_linker_0, # of connection points: 2
#     Edge 90, Type (0, 0), BuildingBlock: AJUNOK_clean_linker_0, # of connection points: 2
#     Edge 91, Type (0, 0), BuildingBlock: AJUNOK_clean_linker_0, # of connection points: 2
#     Edge 92, Type (0, 0), BuildingBlock: AJUNOK_clean_linker_0, # of connection points: 2
#     Edge 93, Type (0, 0), BuildingBlock: AJUNOK_clean_linker_0, # of connection points: 2
#     Edge 94, Type (0, 0), BuildingBlock: AJUNOK_clean_linker_0, # of connection points: 2
#     Edge 95, Type (0, 0), BuildingBlock: AJUNOK_clean_linker_0, # of connection points: 2
# Relax obj value: 0.063
# Max RMSD: 0.127
# Mean RMSD: 0.120
data_MOF--net-mer--node1-QUQFOY_clean_sbu_3--edge1-AJUNOK_clean_linker_0
_symmetry_space_group_name_H-M    P1
_symmetry_Int_Tables_number       1
_symmetry_cell_setting            triclinic
loop_
_symmetry_equiv_pos_as_xyz
'x, y, z'
_cell_length_a     47.563373
_cell_length_b     48.782334
_cell_length_c     41.148286
_cell_angle_alpha  89.902256
_cell_angle_beta   90.068182
_cell_angle_gamma 90.047587
loop_
_atom_site_label
_atom_site_type_symbol
_atom_site_fract_x
_atom_site_fract_y
_atom_site_fract_z
_atom_type_partial_charge
C0 C 0.1267 0.3242 0.3148 0.0
O1 O 0.13875 0.33537 0.33889 0.0
Cd2 Cd 0.142 0.30987 0.38939 0.0
O3 O 0.11476 0.30114 0.31837 0.0
Cd4 Cd 0.10409 0.26783 0.36043 0.0
C5 C 0.17156 0.24999 0.36388 0.0
O6 O 0.09741 0.29474 0.41155 0.0
O7 O 0.10242 0.25051 0.41404 0.0
O8 O 0.05769 0.26978 0.33765 0.0
C9 C 0.09633 0.27273 0.42821 0.0
O10 O 0.17446 0.27183 0.38047 0.0
C11 C 0.05452 0.24407 0.33477 0.0
O12 O 0.14794 0.2441 0.35122 0.0
O13 O 0.07484 0.22892 0.34365 0.0
C14 C 0.6488 0.1207 0.29285 0.0
O15 O 0.63939 0.13558 0.31564 0.0
Cd16 Cd 0.66489 0.13759 0.36644 0.0
O17 O 0.66984 0.10532 0.29787 0.0
Cd18 Cd 0.70126 0.0897 0.34058 0.0
C19 C 0.73149 0.15134 0.33763 0.0
O20 O 0.67162 0.09273 0.38973 0.0
O21 O 0.7165 0.08757 0.39587 0.0
O22 O 0.68741 0.04593 0.32035 0.0
C23 C 0.69234 0.0887 0.40873 0.0
O24 O 0.70971 0.15937 0.35285 0.0
C25 C 0.71194 0.03594 0.3183 0.0
O26 O 0.73369 0.12654 0.32838 0.0
O27 O 0.73235 0.05129 0.32656 0.0
C28 C 0.85463 0.65213 0.31823 0.0
O29 O 0.84216 0.64148 0.34239 0.0
Cd30 Cd 0.83749 0.6687 0.39141 0.0
O31 O 0.86601 0.67548 0.32104 0.0
Cd32 Cd 0.87568 0.7103 0.3613 0.0
C33 C 0.80821 0.72756 0.36138 0.0
O34 O 0.88075 0.68621 0.41466 0.0
O35 O 0.87413 0.73019 0.41343 0.0
O36 O 0.92268 0.70693 0.34086 0.0
C37 C 0.87988 0.70894 0.42987 0.0
O38 O 0.8053 0.70624 0.37899 0.0
C39 C 0.92607 0.73238 0.33588 0.0
O40 O 0.83195 0.73328 0.34891 0.0
O41 O 0.90571 0.74815 0.34285 0.0
C42 C 0.32921 0.85762 0.29019 0.0
O43 O 0.3394 0.84318 0.31301 0.0
Cd44 Cd 0.31372 0.83996 0.36347 0.0
O45 O 0.30776 0.87237 0.29544 0.0
Cd46 Cd 0.27709 0.88717 0.3393 0.0
C47 C 0.2475 0.82562 0.33393 0.0
O48 O 0.30642 0.88382 0.38892 0.0
O49 O 0.26127 0.88694 0.3944 0.0
O50 O 0.29104 0.93157 0.32126 0.0
C51 C 0.28534 0.88681 0.40762 0.0
O52 O 0.26944 0.81759 0.34895 0.0
C53 C 0.26655 0.94172 0.3195 0.0
O54 O 0.24478 0.85062 0.32562 0.0
O55 O 0.24606 0.92601 0.32648 0.0
C56 C 0.13151 0.6491 0.65502 0.0
O57 O 0.14417 0.63826 0.63119 0.0
Cd58 Cd 0.14965 0.66544 0.5821 0.0
O59 O 0.12009 0.67237 0.65154 0.0
Cd60 Cd 0.111 0.70663 0.61031 0.0
C61 C 0.17835 0.72443 0.61192 0.0
O62 O 0.10669 0.68217 0.55718 0.0
O63 O 0.11312 0.72622 0.55794 0.0
O64 O 0.06356 0.70338 0.62941 0.0
C65 C 0.10746 0.70486 0.54176 0.0
O66 O 0.18183 0.70309 0.59459 0.0
C67 C 0.0603 0.72881 0.63451 0.0
O68 O 0.15428 0.73 0.62354 0.0
O69 O 0.0809 0.7445 0.62811 0.0
C70 C 0.32753 0.12171 0.68454 0.0
O71 O 0.33692 0.13605 0.66119 0.0
Cd72 Cd 0.31237 0.13665 0.60974 0.0
O73 O 0.30682 0.10576 0.67994 0.0
Cd74 Cd 0.27639 0.08869 0.63678 0.0
C75 C 0.24481 0.14969 0.63593 0.0
O76 O 0.30663 0.0913 0.58796 0.0
O77 O 0.26193 0.08527 0.58128 0.0
O78 O 0.2905 0.04527 0.65806 0.0
C79 C 0.2862 0.08665 0.56875 0.0
O80 O 0.26679 0.15766 0.621 0.0
C81 C 0.26608 0.03493 0.65977 0.0
O82 O 0.24289 0.1252 0.64646 0.0
O83 O 0.2456 0.04999 0.65105 0.0
C84 C 0.85083 0.32749 0.65564 0.0
O85 O 0.83881 0.33855 0.63142 0.0
Cd86 Cd 0.8333 0.31161 0.58235 0.0
O87 O 0.86157 0.30386 0.65275 0.0
Cd88 Cd 0.87023 0.26878 0.61239 0.0
C89 C 0.80205 0.25346 0.61169 0.0
O90 O 0.87653 0.29364 0.55974 0.0
O91 O 0.86946 0.24968 0.55973 0.0
O92 O 0.91715 0.27061 0.63362 0.0
C93 C 0.8758 0.27116 0.54404 0.0
O94 O 0.79977 0.275 0.59439 0.0
C95 C 0.91986 0.24499 0.63788 0.0
O96 O 0.82568 0.24685 0.62392 0.0
O97 O 0.89908 0.22989 0.63039 0.0
C98 C 0.65411 0.85708 0.68499 0.0
O99 O 0.6453 0.84214 0.66191 0.0
Cd100 Cd 0.67076 0.84111 0.61119 0.0
O101 O 0.67446 0.87345 0.68021 0.0
Cd102 Cd 0.70473 0.89033 0.63675 0.0
C103 C 0.7379 0.83034 0.63999 0.0
O104 O 0.67531 0.88597 0.58731 0.0
O105 O 0.72002 0.89229 0.58137 0.0
O106 O 0.6898 0.93398 0.65634 0.0
C107 C 0.69594 0.89046 0.56836 0.0
O108 O 0.71653 0.82127 0.62472 0.0
C109 C 0.7141 0.94458 0.65828 0.0
O110 O 0.73883 0.85517 0.64931 0.0
O111 O 0.73484 0.92966 0.6502 0.0
C112 C 0.94502 0.75935 0.64816 0.0
O113 O 0.93542 0.78258 0.63982 0.0
Cd114 Cd 0.88701 0.78459 0.6229 0.0
O115 O 0.92874 0.73878 0.6503 0.0
Cd116 Cd 0.88065 0.72198 0.64844 0.0
C117 C 0.88687 0.7291 0.56847 0.0
O118 O 0.85732 0.76444 0.66298 0.0
O119 O 0.83122 0.73272 0.64224 0.0
O120 O 0.89223 0.70747 0.70235 0.0
C121 C 0.83301 0.75657 0.65422 0.0
O122 O 0.88648 0.75451 0.57572 0.0
C123 C 0.88166 0.68367 0.70038 0.0
O124 O 0.88609 0.71084 0.59067 0.0
O125 O 0.87118 0.67687 0.67306 0.0
C126 C 0.34916 0.84124 0.65172 0.0
O127 O 0.35739 0.83026 0.62546 0.0
Cd128 Cd 0.32777 0.8313 0.57784 0.0
O129 O 0.32642 0.85482 0.65222 0.0
Cd130 Cd 0.28947 0.87156 0.61625 0.0
C131 C 0.26596 0.80723 0.61108 0.0
O132 O 0.31448 0.8774 0.56401 0.0
O133 O 0.26902 0.8782 0.56364 0.0
O134 O 0.29897 0.91404 0.64304 0.0
C135 C 0.29183 0.88108 0.54814 0.0
O136 O 0.28671 0.8035 0.59202 0.0
C137 C 0.27354 0.92027 0.64854 0.0
O138 O 0.26254 0.83017 0.62519 0.0
O139 O 0.25481 0.90346 0.63912 0.0
C140 C 0.03524 0.21512 0.64582 0.0
O141 O 0.04506 0.19267 0.63526 0.0
Cd142 Cd 0.09241 0.19343 0.61469 0.0
O143 O 0.05099 0.23608 0.64814 0.0
Cd144 Cd 0.09851 0.25436 0.64398 0.0
C145 C 0.0876 0.25135 0.56432 0.0
O146 O 0.12388 0.21193 0.65448 0.0
O147 O 0.14774 0.24563 0.63434 0.0
O148 O 0.08951 0.26682 0.69929 0.0
C149 C 0.1475 0.22132 0.64527 0.0
O150 O 0.0887 0.22558 0.56937 0.0
C151 C 0.09877 0.29114 0.69739 0.0
O152 O 0.09016 0.26835 0.58762 0.0
O153 O 0.10749 0.29906 0.66968 0.0
C154 C 0.62969 0.13748 0.65267 0.0
O155 O 0.62106 0.14857 0.62659 0.0
Cd156 Cd 0.65046 0.14805 0.57887 0.0
O157 O 0.65262 0.12418 0.65278 0.0
Cd158 Cd 0.68947 0.10823 0.61644 0.0
C159 C 0.71248 0.17272 0.61092 0.0
O160 O 0.66367 0.10199 0.56472 0.0
O161 O 0.70917 0.10144 0.56366 0.0
O162 O 0.68043 0.0657 0.64336 0.0
C163 C 0.68615 0.09814 0.54865 0.0
O164 O 0.69137 0.17635 0.59233 0.0
C165 C 0.70594 0.05942 0.64839 0.0
O166 O 0.71643 0.14972 0.62483 0.0
O167 O 0.72451 0.07632 0.63876 0.0
C168 C 0.93894 0.21514 0.32571 0.0
O169 O 0.92844 0.19272 0.33561 0.0
Cd170 Cd 0.88029 0.19383 0.35378 0.0
O171 O 0.9237 0.2364 0.32327 0.0
Cd172 Cd 0.87696 0.2562 0.3263 0.0
C173 C 0.88406 0.25032 0.4064 0.0
O174 O 0.85098 0.21472 0.31358 0.0
O175 O 0.82696 0.24854 0.3328 0.0
O176 O 0.88895 0.26944 0.2721 0.0
C177 C 0.82723 0.22424 0.32205 0.0
O178 O 0.88235 0.22478 0.40013 0.0
C179 C 0.88039 0.29398 0.27394 0.0
O180 O 0.88371 0.26807 0.38363 0.0
O181 O 0.87055 0.30166 0.30121 0.0
C182 C 0.63428 0.83872 0.32393 0.0
O183 O 0.62641 0.82743 0.3502 0.0
Cd184 Cd 0.65598 0.82969 0.39776 0.0
O185 O 0.65641 0.85326 0.32353 0.0
Cd186 Cd 0.69227 0.87139 0.36008 0.0
C187 C 0.71865 0.80824 0.36463 0.0
O188 O 0.66693 0.87625 0.41235 0.0
O189 O 0.71236 0.87835 0.41281 0.0
O190 O 0.68141 0.91381 0.3336 0.0
C191 C 0.68944 0.88079 0.42817 0.0
O192 O 0.69807 0.8035 0.38365 0.0
C193 C 0.70665 0.92091 0.32831 0.0
O194 O 0.7211 0.83143 0.35075 0.0
O195 O 0.72586 0.90458 0.33763 0.0
C196 C 0.04205 0.75945 0.32363 0.0
O197 O 0.05279 0.78198 0.33278 0.0
Cd198 Cd 0.10131 0.78144 0.34962 0.0
O199 O 0.05722 0.73815 0.32116 0.0
Cd200 Cd 0.10418 0.71861 0.32329 0.0
C201 C 0.09914 0.72548 0.4035 0.0
O202 O 0.12941 0.76012 0.3089 0.0
O203 O 0.15435 0.72682 0.32785 0.0
O204 O 0.09045 0.70432 0.26997 0.0
C205 C 0.15349 0.75106 0.31676 0.0
O206 O 0.10065 0.75094 0.39659 0.0
C207 C 0.09984 0.68009 0.272 0.0
O208 O 0.09888 0.70745 0.38111 0.0
O209 O 0.11102 0.67309 0.2989 0.0
C210 C 0.34638 0.13906 0.32431 0.0
O211 O 0.35409 0.15068 0.35042 0.0
Cd212 Cd 0.32511 0.14838 0.39842 0.0
O213 O 0.32435 0.12437 0.32404 0.0
Cd214 Cd 0.28857 0.1068 0.36105 0.0
C215 C 0.26191 0.16989 0.36687 0.0
O216 O 0.31467 0.10167 0.41285 0.0
O217 O 0.26924 0.09937 0.41397 0.0
O218 O 0.29853 0.06397 0.3353 0.0
C219 C 0.29238 0.09681 0.42892 0.0
O220 O 0.28265 0.17458 0.38568 0.0
C221 C 0.27313 0.05717 0.33032 0.0
O222 O 0.25957 0.14688 0.35262 0.0
O223 O 0.2543 0.0741 0.33896 0.0
C224 C 0.6295 0.82806 0.81776 0.0
O225 O 0.6419 0.83965 0.84134 0.0
Cd226 Cd 0.64701 0.81409 0.89159 0.0
O227 O 0.61841 0.80469 0.82183 0.0
Cd228 Cd 0.60973 0.77157 0.86471 0.0
C229 C 0.67744 0.7549 0.86539 0.0
O230 O 0.60373 0.79801 0.91633 0.0
O231 O 0.61064 0.75398 0.91818 0.0
O232 O 0.56238 0.77328 0.84485 0.0
C233 C 0.60386 0.77583 0.93274 0.0
O234 O 0.68023 0.77693 0.8816 0.0
C235 C 0.55933 0.7476 0.84159 0.0
O236 O 0.6536 0.74831 0.85374 0.0
O237 O 0.58028 0.73256 0.84861 0.0
C238 C 0.1541 0.61904 0.78785 0.0
O239 O 0.14407 0.63353 0.81064 0.0
Cd240 Cd 0.16919 0.63617 0.86157 0.0
O241 O 0.17532 0.60397 0.79315 0.0
Cd242 Cd 0.2057 0.58851 0.83712 0.0
C243 C 0.23613 0.64983 0.83354 0.0
O244 O 0.17588 0.5919 0.88621 0.0
O245 O 0.22085 0.58764 0.89251 0.0
O246 O 0.19108 0.54459 0.81841 0.0
C247 C 0.19665 0.58841 0.90531 0.0
O248 O 0.21407 0.65786 0.84822 0.0
C249 C 0.21538 0.53401 0.81681 0.0
O250 O 0.23865 0.62495 0.82472 0.0
O251 O 0.23612 0.54927 0.82418 0.0
C252 C 0.35247 0.15083 0.81712 0.0
O253 O 0.33981 0.13953 0.84072 0.0
Cd254 Cd 0.33433 0.16549 0.89051 0.0
O255 O 0.36374 0.17413 0.82096 0.0
Cd256 Cd 0.37242 0.20742 0.8634 0.0
C257 C 0.30503 0.22467 0.86216 0.0
O258 O 0.37725 0.18178 0.91584 0.0
O259 O 0.36998 0.22573 0.91624 0.0
O260 O 0.41976 0.2051 0.84392 0.0
C261 C 0.37638 0.20417 0.93174 0.0
O262 O 0.30181 0.20302 0.87908 0.0
C263 C 0.42319 0.23077 0.84088 0.0
O264 O 0.32902 0.23069 0.85057 0.0
O265 O 0.40262 0.24613 0.84823 0.0
C266 C 0.82797 0.35818 0.78792 0.0
O267 O 0.83709 0.34272 0.81042 0.0
Cd268 Cd 0.81193 0.33946 0.86106 0.0
O269 O 0.80738 0.37404 0.79332 0.0
Cd270 Cd 0.77702 0.38929 0.83749 0.0
C271 C 0.74478 0.32895 0.83159 0.0
O272 O 0.80682 0.38358 0.88615 0.0
O273 O 0.76212 0.38872 0.89323 0.0
O274 O 0.79126 0.43393 0.8203 0.0
C275 C 0.7864 0.38666 0.90573 0.0
O276 O 0.76632 0.31967 0.8464 0.0
C277 C 0.7668 0.44423 0.81903 0.0
O278 O 0.74344 0.35408 0.82349 0.0
O279 O 0.74629 0.42855 0.82593 0.0
C280 C 0.629 0.14979 0.15941 0.0
O281 O 0.6413 0.13761 0.13624 0.0
Cd282 Cd 0.6505 0.16338 0.08697 0.0
O283 O 0.61922 0.17366 0.15497 0.0
Cd284 Cd 0.61216 0.20735 0.11242 0.0
C285 C 0.67984 0.22245 0.11747 0.0
O286 O 0.6102 0.18274 0.05947 0.0
O287 O 0.6204 0.22609 0.06031 0.0
O288 O 0.56384 0.20469 0.12786 0.0
C289 C 0.61515 0.20479 0.04382 0.0
O290 O 0.6829 0.20052 0.10108 0.0
C291 C 0.56055 0.23013 0.13285 0.0
O292 O 0.65567 0.22942 0.12781 0.0
O293 O 0.58147 0.24574 0.1276 0.0
C294 C 0.82873 0.6217 0.18655 0.0
O295 O 0.8372 0.63702 0.1636 0.0
Cd296 Cd 0.81254 0.63841 0.11238 0.0
O297 O 0.80865 0.60502 0.18175 0.0
Cd298 Cd 0.77858 0.58817 0.13796 0.0
C299 C 0.74472 0.64805 0.13978 0.0
O300 O 0.80857 0.59339 0.08941 0.0
O301 O 0.76418 0.58626 0.08211 0.0
O302 O 0.79331 0.54418 0.15713 0.0
C303 C 0.78841 0.58907 0.06976 0.0
O304 O 0.76618 0.65739 0.12487 0.0
C305 C 0.76896 0.53363 0.1586 0.0
O306 O 0.74408 0.62326 0.1494 0.0
O307 O 0.74833 0.54879 0.15067 0.0
C308 C 0.35054 0.82758 0.15732 0.0
O309 O 0.33831 0.83889 0.13342 0.0
Cd310 Cd 0.33248 0.81215 0.08418 0.0
O311 O 0.36135 0.80404 0.15385 0.0
Cd312 Cd 0.36997 0.76992 0.1124 0.0
C313 C 0.30228 0.75326 0.11266 0.0
O314 O 0.3753 0.79498 0.05961 0.0
O315 O 0.36839 0.75098 0.05975 0.0
O316 O 0.41722 0.77271 0.13232 0.0
C317 C 0.37451 0.77246 0.04395 0.0
O318 O 0.29948 0.77502 0.09585 0.0
C319 C 0.42047 0.74719 0.13683 0.0
O320 O 0.32613 0.74687 0.12445 0.0
O321 O 0.39988 0.73165 0.12989 0.0
C322 C 0.15249 0.35427 0.18245 0.0
O323 O 0.14419 0.33871 0.15968 0.0
Cd324 Cd 0.16899 0.33746 0.10861 0.0
O325 O 0.17243 0.37105 0.17747 0.0
Cd326 Cd 0.20279 0.38784 0.13401 0.0
C327 C 0.23649 0.32793 0.1371 0.0
O328 O 0.17269 0.3826 0.08553 0.0
O329 O 0.217 0.38998 0.07808 0.0
O330 O 0.1885 0.43172 0.1537 0.0
C331 C 0.19273 0.3871 0.06581 0.0
O332 O 0.21522 0.31844 0.12195 0.0
C333 C 0.21295 0.44203 0.15524 0.0
O334 O 0.23703 0.3528 0.14627 0.0
O335 O 0.2334 0.42685 0.14689 0.0
C336 C 0.44488 0.2596 0.14636 0.0
O337 O 0.43491 0.28241 0.13702 0.0
Cd338 Cd 0.38645 0.28352 0.12027 0.0
O339 O 0.42887 0.23892 0.14971 0.0
Cd340 Cd 0.3808 0.22164 0.14911 0.0
C341 C 0.38683 0.2259 0.06892 0.0
O342 O 0.35704 0.26439 0.16133 0.0
O343 O 0.33144 0.23167 0.14189 0.0
O344 O 0.39136 0.2087 0.20399 0.0
C345 C 0.33287 0.25592 0.15285 0.0
O346 O 0.38636 0.25156 0.07478 0.0
C347 C 0.38139 0.18464 0.20239 0.0
O348 O 0.38601 0.20845 0.09201 0.0
O349 O 0.37181 0.17703 0.17494 0.0
C350 C 0.85022 0.33997 0.15127 0.0
O351 O 0.85904 0.32883 0.12536 0.0
Cd352 Cd 0.8293 0.32823 0.07796 0.0
O353 O 0.82717 0.35306 0.15111 0.0
Cd354 Cd 0.79023 0.36921 0.11474 0.0
C355 C 0.76774 0.3045 0.11275 0.0
O356 O 0.81559 0.3739 0.06282 0.0
O357 O 0.77015 0.37455 0.06157 0.0
O358 O 0.80054 0.41188 0.14049 0.0
C359 C 0.79317 0.37689 0.04632 0.0
O360 O 0.78873 0.30041 0.09417 0.0
C361 C 0.77525 0.41867 0.14592 0.0
O362 O 0.76351 0.32797 0.12528 0.0
O363 O 0.75615 0.40213 0.13679 0.0
C364 C 0.53616 0.71759 0.14742 0.0
O365 O 0.54578 0.69495 0.13717 0.0
Cd366 Cd 0.59362 0.69418 0.11852 0.0
O367 O 0.55231 0.73819 0.1506 0.0
Cd368 Cd 0.60052 0.75521 0.14858 0.0
C369 C 0.59198 0.75251 0.06838 0.0
O370 O 0.62381 0.71199 0.15984 0.0
O371 O 0.64981 0.74463 0.1409 0.0
O372 O 0.5907 0.76785 0.20371 0.0
C373 C 0.64808 0.72029 0.15159 0.0
O374 O 0.59224 0.7267 0.07337 0.0
C375 C 0.60064 0.79193 0.20211 0.0
O376 O 0.59427 0.76938 0.09186 0.0
O377 O 0.61009 0.79964 0.17463 0.0
C378 C 0.13181 0.63533 0.14974 0.0
O379 O 0.12298 0.64617 0.12361 0.0
Cd380 Cd 0.15282 0.64616 0.07623 0.0
O381 O 0.15489 0.62229 0.14984 0.0
Cd382 Cd 0.19173 0.60631 0.11344 0.0
C383 C 0.21438 0.67089 0.10953 0.0
O384 O 0.1666 0.60046 0.06117 0.0
O385 O 0.21211 0.60043 0.06085 0.0
O386 O 0.18178 0.5637 0.13966 0.0
C387 C 0.18932 0.59707 0.0454 0.0
O388 O 0.19333 0.67456 0.09087 0.0
C389 C 0.20712 0.55704 0.14506 0.0
O390 O 0.21857 0.64772 0.12295 0.0
O391 O 0.22608 0.57371 0.13587 0.0
C392 C 0.44331 0.7178 0.82953 0.0
O393 O 0.4326 0.6951 0.83816 0.0
Cd394 Cd 0.38386 0.69455 0.85386 0.0
O395 O 0.42784 0.73883 0.82598 0.0
Cd396 Cd 0.38005 0.75684 0.82593 0.0
C397 C 0.3846 0.75136 0.90633 0.0
O398 O 0.35537 0.71464 0.81251 0.0
O399 O 0.33037 0.74791 0.83149 0.0
O400 O 0.39173 0.77036 0.77158 0.0
C401 C 0.33129 0.7237 0.82039 0.0
O402 O 0.38365 0.72578 0.90002 0.0
C403 C 0.38235 0.79462 0.77344 0.0
O404 O 0.38459 0.76909 0.88352 0.0
O405 O 0.37252 0.80205 0.8008 0.0
C406 C 0.13224 0.33739 0.81948 0.0
O407 O 0.12391 0.326 0.8455 0.0
Cd408 Cd 0.15225 0.32732 0.89405 0.0
O409 O 0.15454 0.3517 0.81956 0.0
Cd410 Cd 0.19016 0.36894 0.85713 0.0
C411 C 0.21537 0.3053 0.86252 0.0
O412 O 0.16398 0.37357 0.90868 0.0
O413 O 0.20938 0.37495 0.91054 0.0
O414 O 0.181 0.41225 0.83192 0.0
C415 C 0.18618 0.37722 0.92538 0.0
O416 O 0.19439 0.30079 0.88102 0.0
C417 C 0.20652 0.41865 0.82708 0.0
O418 O 0.21834 0.32842 0.84862 0.0
O419 O 0.22504 0.4013 0.83562 0.0
C420 C 0.53944 0.25892 0.83243 0.0
O421 O 0.54999 0.28104 0.84312 0.0
Cd422 Cd 0.59978 0.28239 0.85483 0.0
O423 O 0.55498 0.23826 0.8272 0.0
Cd424 Cd 0.6025 0.22059 0.82612 0.0
C425 C 0.6066 0.22581 0.90649 0.0
O426 O 0.62533 0.26321 0.81058 0.0
O427 O 0.65246 0.2305 0.82663 0.0
O428 O 0.58751 0.20593 0.77333 0.0
C429 C 0.65011 0.25486 0.8162 0.0
O430 O 0.60745 0.25145 0.9005 0.0
C431 C 0.59766 0.18197 0.775 0.0
O432 O 0.60211 0.2084 0.88401 0.0
O433 O 0.6097 0.1753 0.80151 0.0
C434 C 0.84823 0.63874 0.82295 0.0
O435 O 0.85746 0.64973 0.84878 0.0
Cd436 Cd 0.82922 0.64962 0.89739 0.0
O437 O 0.82527 0.62548 0.82348 0.0
Cd438 Cd 0.78951 0.60923 0.86134 0.0
C439 C 0.76639 0.67357 0.86645 0.0
O440 O 0.8161 0.60381 0.91256 0.0
O441 O 0.77068 0.60325 0.91485 0.0
O442 O 0.79888 0.56631 0.83589 0.0
C443 C 0.79398 0.60053 0.92946 0.0
O444 O 0.78791 0.67743 0.88433 0.0
C445 C 0.77344 0.55962 0.83109 0.0
O446 O 0.76213 0.65044 0.85303 0.0
O447 O 0.75471 0.57662 0.83989 0.0
C448 C 0.24124 0.21532 0.38124 0.0
C449 C 0.23969 0.19098 0.36302 0.0
C450 C 0.21956 0.23465 0.38043 0.0
C451 C 0.19535 0.23048 0.3614 0.0
H452 H 0.25903 0.2193 0.397 0.0
H453 H 0.22156 0.25264 0.39566 0.0
S454 S 0.18214 0.17153 0.30637 0.0
N455 N 0.21284 0.16477 0.3233 0.0
N456 N 0.17206 0.20113 0.3218 0.0
C457 C 0.19401 0.20681 0.3419 0.0
C458 C 0.21616 0.18708 0.3427 0.0
C459 C 0.78114 0.16081 0.32103 0.0
C460 C 0.75491 0.17075 0.33159 0.0
C461 C 0.80417 0.17838 0.31715 0.0
C462 C 0.80193 0.20658 0.32358 0.0
H463 H 0.78418 0.13916 0.31644 0.0
H464 H 0.82411 0.16957 0.30974 0.0
S465 S 0.73727 0.24349 0.3488 0.0
N466 N 0.72758 0.21108 0.34627 0.0
N467 N 0.77088 0.24403 0.33892 0.0
C468 C 0.77558 0.21702 0.33299 0.0
C469 C 0.7521 0.19911 0.33701 0.0
C470 C 0.75966 0.74239 0.376 0.0
C471 C 0.78442 0.747 0.35812 0.0
C472 C 0.73821 0.76191 0.377 0.0
C473 C 0.74052 0.78693 0.36014 0.0
H474 H 0.75709 0.72391 0.39032 0.0
H475 H 0.72001 0.75756 0.39195 0.0
S476 S 0.79957 0.80773 0.30637 0.0
N477 N 0.80894 0.77746 0.32069 0.0
N478 N 0.76855 0.81422 0.32255 0.0
C479 C 0.76449 0.79124 0.34069 0.0
C480 C 0.78643 0.77128 0.33969 0.0
C481 C 0.17523 0.79759 0.31333 0.0
C482 C 0.17839 0.76921 0.31812 0.0
C483 C 0.19786 0.81558 0.3177 0.0
C484 C 0.22454 0.8059 0.32707 0.0
H485 H 0.15493 0.80615 0.30706 0.0
H486 H 0.19413 0.83733 0.31454 0.0
S487 S 0.24463 0.73299 0.33911 0.0
N488 N 0.21082 0.73197 0.33016 0.0
N489 N 0.25335 0.76573 0.33839 0.0
C490 C 0.22828 0.77741 0.33059 0.0
C491 C 0.20523 0.75909 0.32609 0.0
C492 C 0.2264 0.74083 0.59722 0.0
C493 C 0.20184 0.74416 0.6158 0.0
C494 C 0.24741 0.76087 0.59686 0.0
C495 C 0.24482 0.78512 0.61511 0.0
H496 H 0.22908 0.72306 0.58179 0.0
H497 H 0.26542 0.75761 0.58125 0.0
S498 S 0.18638 0.80212 0.67142 0.0
N499 N 0.17738 0.77233 0.65556 0.0
N500 N 0.21693 0.81005 0.65491 0.0
C501 C 0.22112 0.78802 0.63532 0.0
C502 C 0.19964 0.76755 0.63566 0.0
C503 C 0.19457 0.15875 0.65041 0.0
C504 C 0.22084 0.1688 0.64003 0.0
C505 C 0.17113 0.17599 0.65263 0.0
C506 C 0.17301 0.20397 0.64462 0.0
H507 H 0.19186 0.13726 0.65626 0.0
H508 H 0.15128 0.16714 0.66013 0.0
S509 S 0.23744 0.24107 0.61864 0.0
N510 N 0.24767 0.20901 0.62345 0.0
N511 N 0.20365 0.24133 0.62764 0.0
C512 C 0.19932 0.2145 0.63515 0.0
C513 C 0.2232 0.19695 0.63285 0.0
C514 C 0.76039 0.18854 0.62741 0.0
C515 C 0.73371 0.19476 0.61456 0.0
C516 C 0.78196 0.20805 0.62769 0.0
C517 C 0.77776 0.23461 0.61517 0.0
H518 H 0.76508 0.16812 0.63624 0.0
H519 H 0.80239 0.20183 0.63672 0.0
S520 S 0.71051 0.26256 0.58332 0.0
N521 N 0.70336 0.23031 0.59227 0.0
N522 N 0.74392 0.267 0.59283 0.0
C523 C 0.75069 0.24163 0.60405 0.0
C524 C 0.72869 0.22171 0.60373 0.0
C525 C 0.78314 0.76645 0.63989 0.0
C526 C 0.80868 0.77545 0.65344 0.0
C527 C 0.76034 0.78423 0.63627 0.0
C528 C 0.76204 0.8118 0.64612 0.0
H529 H 0.78081 0.74556 0.63133 0.0
H530 H 0.74139 0.77627 0.62518 0.0
S531 S 0.82368 0.84513 0.68519 0.0
N532 N 0.83398 0.81337 0.67833 0.0
N533 N 0.79106 0.84691 0.67161 0.0
C534 C 0.78719 0.82089 0.66071 0.0
C535 C 0.8105 0.8027 0.66436 0.0
C536 C 0.69676 0.70893 0.85074 0.0
C537 C 0.70142 0.7357 0.8623 0.0
C538 C 0.71819 0.6893 0.85105 0.0
C539 C 0.74516 0.6956 0.86296 0.0
H540 H 0.67612 0.70269 0.84239 0.0
H541 H 0.71319 0.66875 0.84293 0.0
S542 S 0.76946 0.76378 0.89172 0.0
N543 N 0.73592 0.76826 0.88291 0.0
N544 N 0.77618 0.73134 0.88352 0.0
C545 C 0.75058 0.72269 0.87294 0.0
C546 C 0.72873 0.74273 0.87259 0.0
C547 C 0.28619 0.65961 0.81882 0.0
C548 C 0.25947 0.66939 0.82779 0.0
C549 C 0.30912 0.67742 0.81553 0.0
C550 C 0.30622 0.70573 0.82103 0.0
H551 H 0.28969 0.6379 0.81512 0.0
H552 H 0.32941 0.66878 0.80945 0.0
S553 S 0.24011 0.74223 0.8416 0.0
N554 N 0.23101 0.70963 0.83968 0.0
N555 N 0.27406 0.74305 0.83346 0.0
C556 C 0.27939 0.71597 0.82871 0.0
C557 C 0.25604 0.69783 0.83211 0.0
C558 C 0.25661 0.23996 0.87672 0.0
C559 C 0.28125 0.24404 0.85845 0.0
C560 C 0.2351 0.25944 0.87694 0.0
C561 C 0.23723 0.28387 0.85885 0.0
H562 H 0.25421 0.22198 0.89195 0.0
H563 H 0.21701 0.25558 0.89225 0.0
S564 S 0.29586 0.30292 0.8036 0.0
N565 N 0.30543 0.27322 0.81935 0.0
N566 N 0.26493 0.3099 0.81972 0.0
C567 C 0.26109 0.28759 0.83906 0.0
C568 C 0.28309 0.26769 0.83887 0.0
C569 C 0.70027 0.26453 0.82931 0.0
C570 C 0.67446 0.27373 0.81667 0.0
C571 C 0.72296 0.28242 0.83331 0.0
C572 C 0.72087 0.31029 0.82473 0.0
H573 H 0.70287 0.24345 0.83705 0.0
H574 H 0.74213 0.27432 0.84382 0.0
S575 S 0.65856 0.34414 0.78776 0.0
N576 N 0.64858 0.3121 0.79356 0.0
N577 N 0.6913 0.34585 0.80094 0.0
C578 C 0.69551 0.31955 0.81079 0.0
C579 C 0.67231 0.30126 0.80679 0.0
C580 C 0.69888 0.26873 0.13136 0.0
C581 C 0.70381 0.24165 0.12106 0.0
C582 C 0.72005 0.28862 0.12992 0.0
C583 C 0.747 0.28227 0.11808 0.0
H584 H 0.67816 0.27503 0.13927 0.0
H585 H 0.7148 0.30941 0.13686 0.0
S586 S 0.77218 0.21336 0.09336 0.0
N587 N 0.73872 0.20875 0.10243 0.0
N588 N 0.77849 0.24619 0.09968 0.0
C589 C 0.7528 0.25487 0.10979 0.0
C590 C 0.73123 0.23456 0.11132 0.0
C591 C 0.72124 0.6936 0.13425 0.0
C592 C 0.72013 0.66621 0.14499 0.0
C593 C 0.69804 0.71098 0.13717 0.0
C594 C 0.67268 0.70174 0.15088 0.0
H595 H 0.74008 0.70173 0.12303 0.0
H596 H 0.69996 0.73174 0.12803 0.0
S597 S 0.65905 0.63237 0.18462 0.0
N598 N 0.69174 0.63099 0.17131 0.0
N599 N 0.6481 0.66377 0.1767 0.0
C600 C 0.67138 0.67464 0.16251 0.0
C601 C 0.69509 0.65687 0.1596 0.0
C602 C 0.26207 0.68715 0.12631 0.0
C603 C 0.2352 0.6932 0.11392 0.0
C604 C 0.28324 0.70707 0.12722 0.0
C605 C 0.2784 0.73388 0.11581 0.0
H606 H 0.26724 0.66657 0.13424 0.0
H607 H 0.30387 0.70101 0.13578 0.0
S608 S 0.21034 0.76139 0.08576 0.0
N609 N 0.20395 0.72876 0.09342 0.0
N610 N 0.24372 0.76623 0.09515 0.0
C611 C 0.25111 0.74068 0.10524 0.0
C612 C 0.22953 0.72035 0.10428 0.0
C613 C 0.26006 0.28235 0.13303 0.0
C614 C 0.26096 0.30983 0.14333 0.0
C615 C 0.28317 0.26498 0.137 0.0
C616 C 0.30823 0.27436 0.15137 0.0
H617 H 0.24148 0.27413 0.12134 0.0
H618 H 0.28145 0.24422 0.12814 0.0
S619 S 0.32111 0.34398 0.18451 0.0
N620 N 0.28875 0.34525 0.17008 0.0
N621 N 0.33223 0.31251 0.17744 0.0
C622 C 0.30927 0.30154 0.16265 0.0
C623 C 0.28565 0.31929 0.15866 0.0
C624 C 0.98848 0.20154 0.33792 0.0
C625 C 0.96948 0.21808 0.32051 0.0
C626 C 0.01697 0.20873 0.34015 0.0
C627 C 0.02712 0.2327 0.32516 0.0
H628 H 0.98099 0.18421 0.35195 0.0
H629 H 0.03055 0.19671 0.3558 0.0
S630 S 0.98736 0.27902 0.27044 0.0
N631 N 0.9639 0.25647 0.28313 0.0
N632 N 0.01729 0.27014 0.28786 0.0
C633 C 0.00898 0.24769 0.30497 0.0
C634 C 0.98015 0.2403 0.30248 0.0
C635 C 0.73726 -0.00817 0.32677 0.0
C636 C 0.7156 0.00657 0.31138 0.0
C637 C 0.73593 0.96319 0.32925 0.0
C638 C 0.71289 0.94869 0.31643 0.0
H639 H 0.75388 0.00253 0.33956 0.0
H640 H 0.75157 0.95273 0.34387 0.0
S641 S 0.65526 0.97726 0.26608 0.0
N642 N 0.67385 0.00424 0.27732 0.0
N643 N 0.67128 0.95044 0.28217 0.0
C644 C 0.69316 0.96292 0.29748 0.0
C645 C 0.69454 -0.00806 0.29488 0.0
C646 C -0.00715 0.77388 0.33625 0.0
C647 C 0.01138 0.75654 0.31936 0.0
C648 C 0.96429 0.76719 0.33926 0.0
C649 C 0.9536 0.74293 0.3256 0.0
H650 H 0.00077 0.79158 0.34924 0.0
H651 H 0.95108 0.77992 0.35444 0.0
S652 S -0.00814 0.69434 0.27254 0.0
N653 N 0.01583 0.71691 0.28377 0.0
N654 N 0.96233 0.70418 0.29004 0.0
C655 C 0.97124 0.72701 0.30594 0.0
C656 C 0.00013 0.73389 0.30262 0.0
C657 C 0.28583 0.98593 0.30016 0.0
C658 C 0.26315 0.97135 0.31363 0.0
C659 C 0.28749 0.01438 0.30284 0.0
C660 C 0.26649 0.02927 0.31899 0.0
H661 H 0.30348 0.97515 0.28953 0.0
H662 H 0.30635 0.02453 0.29423 0.0
S663 S 0.20002 0.00135 0.35256 0.0
N664 N 0.21712 0.97419 0.33912 0.0
N665 N 0.2202 0.02799 0.34408 0.0
C666 C 0.24211 0.01537 0.32914 0.0
C667 C 0.24044 0.98623 0.32646 0.0
C668 C 0.02308 0.76472 0.63257 0.0
C669 C 0.03279 0.73948 0.64467 0.0
C670 C -0.0052 0.77229 0.63601 0.0
C671 C 0.97556 0.75486 0.6518 0.0
H672 H 0.03685 0.77777 0.61839 0.0
H673 H 0.98766 0.79093 0.62429 0.0
S674 S -0.00755 0.68965 0.69423 0.0
N675 N 0.02239 0.6993 0.67748 0.0
N676 N 0.96943 0.71362 0.68454 0.0
C677 C 0.98584 0.73095 0.66687 0.0
C678 C 0.01445 0.7232 0.66311 0.0
C679 C 0.24334 0.9619 0.64795 0.0
C680 C 0.26654 0.9477 0.66085 0.0
C681 C 0.24147 -0.00951 0.65076 0.0
C682 C 0.26274 0.00546 0.66657 0.0
H683 H 0.22806 0.95132 0.63298 0.0
H684 H 0.22479 0.00102 0.63786 0.0
S685 S 0.32319 0.97673 0.71223 0.0
N686 N 0.30778 0.94982 0.69565 0.0
N687 N 0.30422 0.0035 0.7011 0.0
C688 C 0.28389 -0.00897 0.68318 0.0
C689 C 0.28581 0.96207 0.68025 0.0
C690 C 0.98533 0.20174 0.63518 0.0
C691 C 0.0048 0.21852 0.65155 0.0
C692 C 0.95688 0.20913 0.63324 0.0
C693 C 0.94723 0.23354 0.64748 0.0
H694 H -0.00761 0.18399 0.62168 0.0
H695 H 0.94294 0.19686 0.61834 0.0
S696 S 0.98828 0.2808 0.69963 0.0
N697 N 0.0113 0.25773 0.68737 0.0
N698 N 0.95801 0.27178 0.68311 0.0
C699 C 0.96583 0.24884 0.66672 0.0
C700 C -0.00538 0.24125 0.66896 0.0
C701 C 0.73628 0.01791 0.64705 0.0
C702 C 0.7131 0.03185 0.66027 0.0
C703 C 0.73826 -0.01071 0.64942 0.0
C704 C 0.71712 0.97404 0.66507 0.0
H705 H 0.75147 0.02875 0.63221 0.0
H706 H 0.75495 0.97899 0.63637 0.0
S707 S 0.65673 0.00189 0.71129 0.0
N708 N 0.67198 0.02909 0.69512 0.0
N709 N 0.67575 0.97536 0.69969 0.0
C710 C 0.69596 0.98816 0.68191 0.0
C711 C 0.69394 0.01714 0.67946 0.0
C712 C 0.51271 0.75297 0.81562 0.0
C713 C 0.53171 0.73623 0.8326 0.0
C714 C 0.4845 0.74558 0.81251 0.0
C715 C 0.4741 0.72129 0.82657 0.0
H716 H 0.51938 0.77259 0.80593 0.0
H717 H 0.47047 0.75985 0.80046 0.0
S718 S 0.51626 0.66861 0.86981 0.0
N719 N 0.53913 0.69287 0.86055 0.0
N720 N 0.48577 0.67899 0.85503 0.0
C721 C 0.49337 0.70323 0.8413 0.0
C722 C 0.5223 0.71073 0.84427 0.0
C723 C 0.19297 0.46188 0.7998 0.0
C724 C 0.2137 0.44649 0.8159 0.0
C725 C 0.19522 0.4903 0.7972 0.0
C726 C 0.21821 0.50436 0.81074 0.0
H727 H 0.17389 0.45214 0.79116 0.0
H728 H 0.17777 0.50147 0.78662 0.0
S729 S 0.28085 0.47292 0.84942 0.0
N730 N 0.26009 0.44673 0.8409 0.0
N731 N 0.26427 0.50049 0.83613 0.0
C732 C 0.24065 0.48897 0.82349 0.0
C733 C 0.23839 0.45986 0.82606 0.0
C734 C 0.46148 0.26499 0.84858 0.0
C735 C 0.45092 0.24184 0.83233 0.0
C736 C 0.49008 0.27184 0.84669 0.0
C737 C 0.50878 0.25576 0.82836 0.0
H738 H 0.44807 0.27665 0.86472 0.0
H739 H 0.49785 0.28862 0.86139 0.0
S740 S 0.48975 0.197 0.77536 0.0
N741 N 0.46004 0.20562 0.79335 0.0
N742 N 0.5136 0.21868 0.78911 0.0
C743 C 0.49772 0.23429 0.80938 0.0
C744 C 0.46879 0.22725 0.81157 0.0
C745 C 0.78606 0.48861 0.80023 0.0
C746 C 0.76345 0.47393 0.81367 0.0
C747 C 0.78768 0.51704 0.80314 0.0
C748 C 0.76672 0.53181 0.81956 0.0
H749 H 0.80366 0.47793 0.78939 0.0
H750 H 0.80648 0.52726 0.79451 0.0
S751 S 0.70039 0.50362 0.85312 0.0
N752 N 0.71747 0.47656 0.83936 0.0
N753 N 0.72053 0.53033 0.84484 0.0
C754 C 0.7424 0.51782 0.8297 0.0
C755 C 0.74076 0.48871 0.82675 0.0
C756 C 0.49437 0.27271 0.13277 0.0
C757 C 0.47552 0.2556 0.1497 0.0
C758 C 0.52273 0.26541 0.12931 0.0
C759 C 0.5329 0.24075 0.14249 0.0
H760 H 0.48684 0.29084 0.12028 0.0
H761 H 0.53621 0.27814 0.11436 0.0
S762 S 0.49379 0.19215 0.195 0.0
N763 N 0.47033 0.21546 0.18449 0.0
N764 N 0.5234 0.2016 0.17734 0.0
C765 C 0.51496 0.22487 0.16193 0.0
C766 C 0.48629 0.23236 0.16574 0.0
C767 C 0.7442 0.48938 0.14881 0.0
C768 C 0.76576 0.50403 0.16452 0.0
C769 C 0.74574 0.4608 0.14567 0.0
C770 C 0.76888 0.44627 0.15816 0.0
H771 H 0.72745 0.50016 0.13635 0.0
H772 H 0.73015 0.45046 0.13088 0.0
S773 S 0.82641 0.47437 0.209 0.0
N774 N 0.80763 0.50141 0.19838 0.0
N775 N 0.81053 0.44774 0.19237 0.0
C776 C 0.78856 0.46032 0.17736 0.0
C777 C 0.78699 0.48927 0.18059 0.0
C778 C 0.45791 0.71165 0.13321 0.0
C779 C 0.44805 0.73633 0.14655 0.0
C780 C 0.48634 0.70436 0.1358 0.0
C781 C 0.50562 0.72152 0.15196 0.0
H782 H 0.44412 0.69894 0.11864 0.0
H783 H 0.49354 0.68624 0.12312 0.0
S784 S 0.48847 0.78496 0.1976 0.0
N785 N 0.45841 0.77547 0.18096 0.0
N786 N 0.51167 0.76166 0.18644 0.0
C787 C 0.49524 0.74472 0.16832 0.0
C788 C 0.46645 0.75219 0.16542 0.0
C789 C 0.23795 0.48629 0.14622 0.0
C790 C 0.21648 0.47147 0.16187 0.0
C791 C 0.23657 0.51493 0.1438 0.0
C792 C 0.21367 0.52934 0.15696 0.0
H793 H 0.25446 0.47564 0.13324 0.0
H794 H 0.252 0.52546 0.12898 0.0
S795 S 0.15664 0.50056 0.20796 0.0
N796 N 0.17512 0.47364 0.19644 0.0
N797 N 0.17246 0.52743 0.19173 0.0
C798 C 0.19417 0.51503 0.17613 0.0
C799 C 0.19559 0.48602 0.17864 0.0
C800 C 0.10148 0.28935 0.48548 0.0
C801 C 0.08845 0.27198 0.46275 0.0
C802 C 0.09948 0.28389 0.519 0.0
C803 C 0.08445 0.26093 0.53045 0.0
H804 H 0.11491 0.30591 0.47727 0.0
H805 H 0.11135 0.2965 0.53577 0.0
S806 S 0.04182 0.21299 0.48075 0.0
N807 N 0.05665 0.23373 0.45404 0.0
N808 N 0.05272 0.22358 0.51671 0.0
C809 C 0.06925 0.24512 0.50797 0.0
C810 C 0.07131 0.25063 0.47415 0.0
C811 C 0.66356 0.10064 0.49363 0.0
C812 C 0.6861 0.09226 0.51346 0.0
C813 C 0.66511 0.09842 0.45964 0.0
C814 C 0.68923 0.08769 0.44448 0.0
H815 H 0.64515 0.11007 0.50431 0.0
H816 H 0.64782 0.10617 0.44516 0.0
S817 S 0.75191 0.05871 0.48603 0.0
N818 N 0.73175 0.06992 0.51576 0.0
N819 N 0.73464 0.06562 0.45219 0.0
C820 C 0.71109 0.07766 0.46425 0.0
C821 C 0.70953 0.07999 0.49867 0.0
C822 C 0.89131 0.73772 0.47744 0.0
C823 C 0.88476 0.71161 0.46521 0.0
C824 C 0.89287 0.74261 0.51071 0.0
C825 C 0.88787 0.72165 0.53352 0.0
H826 H 0.89471 0.75488 0.46116 0.0
H827 H 0.89748 0.76335 0.51847 0.0
S828 S 0.87235 0.64886 0.51412 0.0
N829 N 0.87513 0.6639 0.47825 0.0
N830 N 0.87798 0.67309 0.5414 0.0
C831 C 0.88264 0.695 0.52173 0.0
C832 C 0.88113 0.68998 0.48745 0.0
C833 C 0.3144 0.87802 0.49315 0.0
C834 C 0.29145 0.8858 0.51262 0.0
C835 C 0.31277 0.87929 0.45908 0.0
C836 C 0.28814 0.88839 0.44341 0.0
H837 H 0.33331 0.8699 0.50422 0.0
H838 H 0.33051 0.87216 0.44496 0.0
S839 S 0.22383 0.91498 0.48362 0.0
N840 N 0.24457 0.90568 0.51385 0.0
N841 N 0.24151 0.90811 0.45014 0.0
C842 C 0.2657 0.89767 0.46273 0.0
C843 C 0.26735 0.89636 0.49725 0.0
C844 C 0.09168 0.73808 0.46123 0.0
C845 C 0.0981 0.71766 0.43833 0.0
C846 C 0.09365 0.73308 0.49447 0.0
C847 C 0.10201 0.70739 0.50652 0.0
H848 H 0.08572 0.75851 0.4535 0.0
H849 H 0.08917 0.74986 0.5109 0.0
S850 S 0.11876 0.64599 0.45726 0.0
N851 N 0.11135 0.66995 0.43013 0.0
N852 N 0.11492 0.66053 0.49323 0.0
C853 C 0.10699 0.68618 0.48418 0.0
C854 C 0.10507 0.69132 0.44995 0.0
C855 C 0.31483 0.0999 0.48399 0.0
C856 C 0.2927 0.09066 0.46408 0.0
C857 C 0.3133 0.09745 0.51798 0.0
C858 C 0.28964 0.08563 0.53304 0.0
H859 H 0.33281 0.11019 0.47339 0.0
H860 H 0.33017 0.10593 0.53254 0.0
S861 S 0.22843 0.05406 0.49124 0.0
N862 N 0.24813 0.0663 0.46159 0.0
N863 N 0.24529 0.06158 0.52515 0.0
C864 C 0.26831 0.07471 0.51318 0.0
C865 C 0.26983 0.07726 0.47877 0.0
C866 C 0.89383 0.23874 0.464 0.0
C867 C 0.88581 0.25859 0.44098 0.0
C868 C 0.89187 0.2438 0.49722 0.0
C869 C 0.88195 0.26899 0.509 0.0
H870 H 0.90087 0.21863 0.45639 0.0
H871 H 0.89739 0.2274 0.51384 0.0
S872 S 0.86099 0.32902 0.45928 0.0
N873 N 0.86963 0.3054 0.43233 0.0
N874 N 0.86612 0.31495 0.49536 0.0
C875 C 0.8756 0.2898 0.48651 0.0
C876 C 0.87749 0.28458 0.45233 0.0
C877 C 0.6688 0.88022 0.51737 0.0
C878 C 0.69287 0.89115 0.53253 0.0
C879 C 0.66717 0.87794 0.48337 0.0
C880 C 0.6896 0.88646 0.46348 0.0
H881 H 0.65154 0.87243 0.53186 0.0
H882 H 0.64875 0.86843 0.47273 0.0
S883 S 0.75538 0.92033 0.49089 0.0
N884 N 0.73822 0.91338 0.52473 0.0
N885 N 0.73519 0.90899 0.46118 0.0
C886 C 0.71304 0.89883 0.47828 0.0
C887 C 0.71467 0.90121 0.51271 0.0
C888 C 0.60512 0.78548 0.02391 0.0
C889 C 0.58996 0.76228 0.03444 0.0
C890 C 0.60788 0.79143 -0.00944 0.0
C891 C 0.59551 0.77431 0.9671 0.0
H892 H 0.61641 0.798 0.0413 0.0
H893 H 0.62129 0.80825 0.98311 0.0
S894 S 0.54899 0.71471 0.98238 0.0
N895 N 0.55891 0.72487 0.01889 0.0
N896 N 0.56431 0.73592 0.9566 0.0
C897 C 0.57835 0.75263 0.97751 0.0
C898 C 0.5755 0.74663 0.01114 0.0
C899 C 0.16895 0.59736 0.95611 0.0
C900 C 0.19346 0.58739 0.94107 0.0
C901 C 0.16712 0.59938 -0.00989 0.0
C902 C 0.18977 0.59155 0.01009 0.0
H903 H 0.15149 0.60462 0.94154 0.0
H904 H 0.14834 0.60818 0.00069 0.0
S905 S 0.2568 0.56015 0.98296 0.0
N906 N 0.23953 0.5667 0.94903 0.0
N907 N 0.23611 0.5706 0.0126 0.0
C908 C 0.21368 0.58008 -0.0046 0.0
C909 C 0.21553 0.57798 0.96097 0.0
C910 C 0.39664 0.23646 0.01111 0.0
C911 C 0.3879 0.21719 0.03447 0.0
C912 C 0.39417 0.23116 0.978 0.0
C913 C 0.38303 0.20629 0.96665 0.0
H914 H 0.40464 0.25633 0.01837 0.0
H915 H 0.40026 0.24716 0.96109 0.0
S916 S 0.35984 0.14766 0.01732 0.0
N917 N 0.36974 0.17115 0.04388 0.0
N918 N 0.36529 0.16116 0.981 0.0
C919 C 0.37596 0.18598 -0.01055 0.0
C920 C 0.37835 0.19144 0.02354 0.0
C921 C 0.7676 0.387 -0.00501 0.0
C922 C 0.79317 0.3811 0.01067 0.0
C923 C 0.76597 0.38933 0.96123 0.0
C924 C 0.78983 0.3858 0.94152 0.0
H925 H 0.74842 0.38954 0.00884 0.0
H926 H 0.7456 0.39355 0.95055 0.0
S927 S 0.86227 0.37133 0.97051 0.0
N928 N 0.84327 0.37277 0.00403 0.0
N929 N 0.8402 0.37712 0.94024 0.0
C930 C 0.81579 0.38062 0.95683 0.0
C931 C 0.81746 0.37829 -0.00855 0.0
C932 C 0.59751 0.19108 -0.01146 0.0
C933 C 0.6162 0.20625 0.00803 0.0
C934 C 0.59536 0.1963 0.95495 0.0
C935 C 0.6118 0.21684 0.9402 0.0
H936 H 0.58348 0.17624 -0.00047 0.0
H937 H 0.57976 0.18531 0.94087 0.0
S938 S 0.66773 0.25816 0.97956 0.0
N939 N 0.65422 0.23963 0.00928 0.0
N940 N 0.65003 0.24946 0.94663 0.0
C941 C 0.63198 0.23053 0.95908 0.0
C942 C 0.63422 0.22521 -0.00708 0.0
C943 C 0.76823 0.58485 0.01425 0.0
C944 C 0.79184 0.58988 0.03398 0.0
C945 C 0.76956 0.58763 0.98054 0.0
C946 C 0.79458 0.59546 0.96493 0.0
H947 H 0.74821 0.57922 0.02491 0.0
H948 H 0.75054 0.584 0.96667 0.0
S949 S 0.86303 0.60933 0.00506 0.0
N950 N 0.84153 0.6018 0.03529 0.0
N951 N 0.84404 0.60694 0.97154 0.0
C952 C 0.81874 0.59956 0.9841 0.0
C953 C 0.81736 0.5968 0.0187 0.0
C954 C 0.39321 0.73985 0.9642 0.0
C955 C 0.38545 0.75963 0.94097 0.0
C956 C 0.39084 0.74498 -0.00264 0.0
C957 C 0.38076 0.77019 0.00893 0.0
H958 H 0.40046 0.71976 0.9568 0.0
H959 H 0.39627 0.72864 0.01411 0.0
S960 S 0.36015 0.83001 0.95867 0.0
N961 N 0.36918 0.80636 0.93194 0.0
N962 N 0.36489 0.81604 -0.00511 0.0
C963 C 0.37454 0.7909 0.98626 0.0
C964 C 0.37685 0.78561 0.95212 0.0
C965 C 0.21092 0.38963 0.97646 0.0
C966 C 0.18582 0.38184 0.96093 0.0
C967 C 0.2125 0.392 0.0102 0.0
C968 C 0.18907 0.3866 0.03004 0.0
H969 H 0.22981 0.39354 0.9625 0.0
H970 H 0.23256 0.39761 0.02078 0.0
S971 S 0.11778 0.36707 0.00141 0.0
N972 N 0.13649 0.36997 0.96778 0.0
N973 N 0.13947 0.37436 0.03157 0.0
C974 C 0.16348 0.3797 0.01486 0.0
C975 C 0.16185 0.37735 0.98024 0.0
C976 C 0.12413 0.32811 0.22303 0.0
C977 C 0.14155 0.3506 0.21593 0.0
C978 C 0.11797 0.32089 0.25513 0.0
C979 C 0.12904 0.33581 0.28155 0.0
H980 H 0.11633 0.31501 0.20377 0.0
H981 H 0.10556 0.30257 0.25914 0.0
S982 S 0.17109 0.39976 0.27592 0.0
N983 N 0.16625 0.39031 0.23783 0.0
N984 N 0.15486 0.37649 0.29825 0.0
C985 C 0.14443 0.35976 0.27477 0.0
C986 C 0.15064 0.3672 0.24196 0.0
C987 C 0.61765 0.15414 0.21836 0.0
C988 C 0.62884 0.1383 0.19282 0.0
C989 C 0.62227 0.14711 0.25089 0.0
C990 C 0.6382 0.12391 0.25919 0.0
H991 H 0.60658 0.17309 0.21338 0.0
H992 H 0.61482 0.16098 0.26952 0.0
S993 S 0.66637 0.07204 0.20177 0.0
N994 N 0.65244 0.09585 0.17818 0.0
N995 N 0.66088 0.0824 0.23939 0.0
C996 C 0.64695 0.10631 0.234 0.0
C997 C 0.64232 0.11355 0.20079 0.0
C998 C 0.82478 0.61382 0.24639 0.0
C999 C 0.83967 0.62529 0.22004 0.0
C1000 C 0.83118 0.62091 0.27852 0.0
C1001 C 0.85274 0.63969 0.28551 0.0
H1002 H 0.80692 0.60048 0.24224 0.0
H1003 H 0.81792 0.61297 0.29775 0.0
S1004 S 0.90214 0.67066 0.22592 0.0
N1005 N 0.87985 0.65286 0.20351 0.0
N1006 N 0.89206 0.66603 0.2639 0.0
C1007 C 0.86956 0.6492 0.25964 0.0
C1008 C 0.86297 0.64206 0.2269 0.0
C1009 C 0.36247 0.82536 0.21633 0.0
C1010 C 0.34972 0.83965 0.19039 0.0
C1011 C 0.35745 0.83262 0.24866 0.0
C1012 C 0.33952 0.85451 0.25641 0.0
H1013 H 0.37527 0.80741 0.21183 0.0
H1014 H 0.36638 0.81989 0.26763 0.0
S1015 S 0.30596 0.90229 0.19756 0.0
N1016 N 0.32197 0.87939 0.17462 0.0
N1017 N 0.31274 0.89329 0.23546 0.0
C1018 C 0.32891 0.87069 0.23072 0.0
C1019 C 0.33397 0.86321 0.1977 0.0
C1020 C 0.12547 0.64397 0.74641 0.0
C1021 C 0.14366 0.62223 0.75408 0.0
C1022 C 0.12006 0.65116 0.71411 0.0
C1023 C 0.1327 0.63698 0.68809 0.0
H1024 H 0.11657 0.6566 0.76542 0.0
H1025 H 0.10706 0.669 0.70968 0.0
S1026 S 0.17706 0.57472 0.69508 0.0
N1027 N 0.17059 0.58366 0.733 0.0
N1028 N 0.16063 0.59748 0.67221 0.0
C1029 C 0.14874 0.61357 0.69535 0.0
C1030 C 0.15418 0.60615 0.72835 0.0
C1031 C 0.32398 0.11292 0.74423 0.0
C1032 C 0.33831 0.1254 0.7181 0.0
C1033 C 0.33013 0.11968 0.77649 0.0
C1034 C 0.3509 0.13917 0.78394 0.0
H1035 H 0.30677 0.09885 0.73982 0.0
H1036 H 0.31732 0.11078 0.79554 0.0
S1037 S 0.39866 0.17336 0.725 0.0
N1038 N 0.37715 0.15502 0.70221 0.0
N1039 N 0.38891 0.1676 0.76289 0.0
C1040 C 0.36719 0.14988 0.75826 0.0
C1041 C 0.36085 0.14304 0.72535 0.0
C1042 C 0.86251 0.32613 0.7147 0.0
C1043 C 0.84966 0.33994 0.68848 0.0
C1044 C 0.85704 0.33351 0.74688 0.0
C1045 C 0.83854 0.35505 0.75422 0.0
H1046 H 0.87576 0.30843 0.71054 0.0
H1047 H 0.86615 0.32112 0.76607 0.0
S1048 S 0.8044 0.40164 0.69447 0.0
N1049 N 0.82116 0.37895 0.67197 0.0
N1050 N 0.81105 0.39309 0.73254 0.0
C1051 C 0.82781 0.37083 0.72825 0.0
C1052 C 0.83334 0.36322 0.69536 0.0
C1053 C 0.6575 0.86618 0.74462 0.0
C1054 C 0.64333 0.85345 0.71855 0.0
C1055 C 0.65147 0.85936 0.77693 0.0
C1056 C 0.63101 0.83958 0.78446 0.0
H1057 H 0.67451 0.88047 0.74015 0.0
H1058 H 0.66416 0.86848 0.79594 0.0
S1059 S 0.58376 0.80463 0.72563 0.0
N1060 N 0.60494 0.82326 0.70277 0.0
N1061 N 0.59344 0.81058 0.7635 0.0
C1062 C 0.61488 0.8286 0.75881 0.0
C1063 C 0.62108 0.8355 0.72587 0.0
C1064 C 0.89053 0.67612 0.7593 0.0
C1065 C 0.87842 0.66682 0.73008 0.0
C1066 C 0.88238 0.66526 0.78931 0.0
C1067 C 0.86177 0.64467 0.79126 0.0
H1068 H 0.90515 0.69317 0.75927 0.0
H1069 H 0.89095 0.67444 0.81113 0.0
S1070 S 0.82859 0.60874 0.72144 0.0
N1071 N 0.84847 0.6326 0.70458 0.0
N1072 N 0.83323 0.6119 0.76102 0.0
C1073 C 0.85185 0.63305 0.76203 0.0
C1074 C 0.86017 0.64418 0.7314 0.0
C1075 C 0.39023 0.80123 0.71415 0.0
C1076 C 0.37964 0.81151 0.74367 0.0
C1077 C 0.38224 0.8126 0.68433 0.0
C1078 C 0.36332 0.83467 0.68288 0.0
H1079 H 0.40337 0.78311 0.71384 0.0
H1080 H 0.3894 0.80269 0.66231 0.0
S1081 S 0.33506 0.87332 0.75339 0.0
N1082 N 0.3533 0.84805 0.76982 0.0
N1083 N 0.33839 0.86965 0.71371 0.0
C1084 C 0.35514 0.84711 0.7123 0.0
C1085 C 0.3633 0.83548 0.74274 0.0
C1086 C 0.09129 0.29759 0.75672 0.0
C1087 C 0.10218 0.3077 0.72723 0.0
C1088 C 0.09932 0.30886 0.78654 0.0
C1089 C 0.11862 0.33066 0.78805 0.0
H1090 H 0.0777 0.27977 0.757 0.0
H1091 H 0.09172 0.29916 0.80854 0.0
S1092 S 0.14841 0.36844 0.71751 0.0
N1093 N 0.12964 0.34356 0.7011 0.0
N1094 N 0.14469 0.36496 0.75719 0.0
C1095 C 0.12736 0.34281 0.75861 0.0
C1096 C 0.11914 0.33129 0.72817 0.0
C1097 C 0.62862 0.1342 0.71318 0.0
C1098 C 0.61576 0.14319 0.68415 0.0
C1099 C 0.62067 0.14487 0.74333 0.0
C1100 C 0.59956 0.16486 0.74553 0.0
H1101 H 0.64636 0.1203 0.71257 0.0
H1102 H 0.63273 0.13902 0.7646 0.0
S1103 S 0.55405 0.18946 0.67822 0.0
N1104 N 0.57701 0.16901 0.66048 0.0
N1105 N 0.56199 0.18896 0.71728 0.0
C1106 C 0.58417 0.17141 0.71733 0.0
C1107 C 0.59229 0.16058 0.68657 0.0
C1108 C 0.88302 0.31203 0.18501 0.0
C1109 C 0.86393 0.33392 0.18281 0.0
C1110 C 0.89024 0.30077 0.21513 0.0
C1111 C 0.87868 0.31097 0.24419 0.0
H1112 H 0.89082 0.3021 0.16329 0.0
H1113 H 0.9035 0.28273 0.21537 0.0
S1114 S 0.83357 0.37259 0.25211 0.0
N1115 N 0.83802 0.36888 0.21258 0.0
N1116 N 0.85148 0.34745 0.26928 0.0
C1117 C 0.8623 0.3349 0.24262 0.0
C1118 C 0.85494 0.34643 0.21187 0.0
C1119 C 0.5939 0.7978 0.26169 0.0
C1120 C 0.60402 0.80839 0.23206 0.0
C1121 C 0.60193 0.80921 0.29144 0.0
C1122 C 0.62045 0.83165 0.29274 0.0
H1123 H 0.58095 0.77953 0.26212 0.0
H1124 H 0.59501 0.79916 0.31352 0.0
S1125 S 0.6478 0.87081 0.22194 0.0
N1126 N 0.62978 0.84533 0.20569 0.0
N1127 N 0.64478 0.86699 0.26165 0.0
C1128 C 0.62835 0.84421 0.26323 0.0
C1129 C 0.62015 0.83253 0.23286 0.0
C1130 C 0.12296 0.64297 0.24043 0.0
C1131 C 0.1018 0.66291 0.24259 0.0
C1132 C 0.13088 0.63223 0.21029 0.0
C1133 C 0.11793 0.64108 0.18125 0.0
H1134 H 0.13507 0.63723 0.2617 0.0
H1135 H 0.14866 0.61837 0.20968 0.0
S1136 S 0.05613 0.68723 0.1753 0.0
N1137 N 0.06415 0.68687 0.21434 0.0
N1138 N 0.07908 0.66676 0.15758 0.0
C1139 C 0.09443 0.65844 0.18366 0.0
C1140 C 0.08637 0.66935 0.2144 0.0
C1141 C 0.37957 0.16767 0.29178 0.0
C1142 C 0.36046 0.14571 0.29315 0.0
C1143 C 0.38807 0.1787 0.26199 0.0
C1144 C 0.37781 0.16822 0.23239 0.0
H1145 H 0.38665 0.17765 0.31382 0.0
H1146 H 0.40146 0.19668 0.26234 0.0
S1147 S 0.33248 0.10688 0.22249 0.0
N1148 N 0.33538 0.11081 0.26219 0.0
N1149 N 0.35126 0.1318 0.20616 0.0
C1150 C 0.36109 0.14448 0.23329 0.0
C1151 C 0.35242 0.13317 0.2637 0.0
loop_
_geom_bond_atom_site_label_1
_geom_bond_atom_site_label_2
_geom_bond_distance
_geom_bond_site_symmetry_2
_ccdc_geom_bond_type
C0 O1 1.306 . S
C0 O3 1.160 . S
O1 C0 1.306 . S
O1 Cd2 2.228 . S
Cd2 O1 2.228 . S
Cd2 O6 2.273 . S
Cd2 O10 2.277 . S
O3 C0 1.160 . S
O3 Cd4 2.203 . S
Cd4 O3 2.203 . S
Cd4 O6 2.411 . S
Cd4 O7 2.333 . S
Cd4 O8 2.352 . S
Cd4 O12 2.277 . S
Cd4 O13 2.356 . S
C5 O10 1.209 . S
C5 O12 1.226 . S
O6 Cd2 2.273 . S
O6 Cd4 2.411 . S
O6 C9 1.320 . S
O7 Cd4 2.333 . S
O7 C9 1.214 . S
O8 Cd4 2.352 . S
O8 C11 1.258 . S
C9 O6 1.320 . S
C9 O7 1.214 . S
O10 Cd2 2.277 . S
O10 C5 1.209 . S
C11 O8 1.258 . S
C11 O13 1.282 . S
O12 Cd4 2.277 . S
O12 C5 1.226 . S
O13 Cd4 2.356 . S
O13 C11 1.282 . S
C14 O15 1.306 . S
C14 O17 1.160 . S
O15 C14 1.306 . S
O15 Cd16 2.228 . S
Cd16 O15 2.228 . S
Cd16 O20 2.273 . S
Cd16 O24 2.277 . S
O17 C14 1.160 . S
O17 Cd18 2.203 . S
Cd18 O17 2.203 . S
Cd18 O20 2.411 . S
Cd18 O21 2.333 . S
Cd18 O22 2.352 . S
Cd18 O26 2.277 . S
Cd18 O27 2.356 . S
C19 O24 1.209 . S
C19 O26 1.226 . S
O20 Cd16 2.273 . S
O20 Cd18 2.411 . S
O20 C23 1.320 . S
O21 Cd18 2.333 . S
O21 C23 1.214 . S
O22 Cd18 2.352 . S
O22 C25 1.258 . S
C23 O20 1.320 . S
C23 O21 1.214 . S
O24 Cd16 2.277 . S
O24 C19 1.209 . S
C25 O22 1.258 . S
C25 O27 1.282 . S
O26 Cd18 2.277 . S
O26 C19 1.226 . S
O27 Cd18 2.356 . S
O27 C25 1.282 . S
C28 O29 1.306 . S
C28 O31 1.160 . S
O29 C28 1.306 . S
O29 Cd30 2.228 . S
Cd30 O29 2.228 . S
Cd30 O34 2.273 . S
Cd30 O38 2.277 . S
O31 C28 1.160 . S
O31 Cd32 2.203 . S
Cd32 O31 2.203 . S
Cd32 O34 2.411 . S
Cd32 O35 2.333 . S
Cd32 O36 2.352 . S
Cd32 O40 2.277 . S
Cd32 O41 2.356 . S
C33 O38 1.209 . S
C33 O40 1.226 . S
O34 Cd30 2.273 . S
O34 Cd32 2.411 . S
O34 C37 1.320 . S
O35 Cd32 2.333 . S
O35 C37 1.214 . S
O36 Cd32 2.352 . S
O36 C39 1.258 . S
C37 O34 1.320 . S
C37 O35 1.214 . S
O38 Cd30 2.277 . S
O38 C33 1.209 . S
C39 O36 1.258 . S
C39 O41 1.282 . S
O40 Cd32 2.277 . S
O40 C33 1.226 . S
O41 Cd32 2.356 . S
O41 C39 1.282 . S
C42 O43 1.306 . S
C42 O45 1.160 . S
O43 C42 1.306 . S
O43 Cd44 2.228 . S
Cd44 O43 2.228 . S
Cd44 O48 2.273 . S
Cd44 O52 2.277 . S
O45 C42 1.160 . S
O45 Cd46 2.203 . S
Cd46 O45 2.203 . S
Cd46 O48 2.411 . S
Cd46 O49 2.333 . S
Cd46 O50 2.352 . S
Cd46 O54 2.277 . S
Cd46 O55 2.356 . S
C47 O52 1.209 . S
C47 O54 1.226 . S
O48 Cd44 2.273 . S
O48 Cd46 2.411 . S
O48 C51 1.320 . S
O49 Cd46 2.333 . S
O49 C51 1.214 . S
O50 Cd46 2.352 . S
O50 C53 1.258 . S
C51 O48 1.320 . S
C51 O49 1.214 . S
O52 Cd44 2.277 . S
O52 C47 1.209 . S
C53 O50 1.258 . S
C53 O55 1.282 . S
O54 Cd46 2.277 . S
O54 C47 1.226 . S
O55 Cd46 2.356 . S
O55 C53 1.282 . S
C56 O57 1.306 . S
C56 O59 1.160 . S
O57 C56 1.306 . S
O57 Cd58 2.228 . S
Cd58 O57 2.228 . S
Cd58 O62 2.273 . S
Cd58 O66 2.277 . S
O59 C56 1.160 . S
O59 Cd60 2.203 . S
Cd60 O59 2.203 . S
Cd60 O62 2.411 . S
Cd60 O63 2.333 . S
Cd60 O64 2.352 . S
Cd60 O68 2.277 . S
Cd60 O69 2.356 . S
C61 O66 1.209 . S
C61 O68 1.226 . S
O62 Cd58 2.273 . S
O62 Cd60 2.411 . S
O62 C65 1.320 . S
O63 Cd60 2.333 . S
O63 C65 1.214 . S
O64 Cd60 2.352 . S
O64 C67 1.258 . S
C65 O62 1.320 . S
C65 O63 1.214 . S
O66 Cd58 2.277 . S
O66 C61 1.209 . S
C67 O64 1.258 . S
C67 O69 1.282 . S
O68 Cd60 2.277 . S
O68 C61 1.226 . S
O69 Cd60 2.356 . S
O69 C67 1.282 . S
C70 O71 1.306 . S
C70 O73 1.160 . S
O71 C70 1.306 . S
O71 Cd72 2.228 . S
Cd72 O71 2.228 . S
Cd72 O76 2.273 . S
Cd72 O80 2.277 . S
O73 C70 1.160 . S
O73 Cd74 2.203 . S
Cd74 O73 2.203 . S
Cd74 O76 2.411 . S
Cd74 O77 2.333 . S
Cd74 O78 2.352 . S
Cd74 O82 2.277 . S
Cd74 O83 2.356 . S
C75 O80 1.209 . S
C75 O82 1.226 . S
O76 Cd72 2.273 . S
O76 Cd74 2.411 . S
O76 C79 1.320 . S
O77 Cd74 2.333 . S
O77 C79 1.214 . S
O78 Cd74 2.352 . S
O78 C81 1.258 . S
C79 O76 1.320 . S
C79 O77 1.214 . S
O80 Cd72 2.277 . S
O80 C75 1.209 . S
C81 O78 1.258 . S
C81 O83 1.282 . S
O82 Cd74 2.277 . S
O82 C75 1.226 . S
O83 Cd74 2.356 . S
O83 C81 1.282 . S
C84 O85 1.306 . S
C84 O87 1.160 . S
O85 C84 1.306 . S
O85 Cd86 2.228 . S
Cd86 O85 2.228 . S
Cd86 O90 2.273 . S
Cd86 O94 2.277 . S
O87 C84 1.160 . S
O87 Cd88 2.203 . S
Cd88 O87 2.203 . S
Cd88 O90 2.411 . S
Cd88 O91 2.333 . S
Cd88 O92 2.352 . S
Cd88 O96 2.277 . S
Cd88 O97 2.356 . S
C89 O94 1.209 . S
C89 O96 1.226 . S
O90 Cd86 2.273 . S
O90 Cd88 2.411 . S
O90 C93 1.320 . S
O91 Cd88 2.333 . S
O91 C93 1.214 . S
O92 Cd88 2.352 . S
O92 C95 1.258 . S
C93 O90 1.320 . S
C93 O91 1.214 . S
O94 Cd86 2.277 . S
O94 C89 1.209 . S
C95 O92 1.258 . S
C95 O97 1.282 . S
O96 Cd88 2.277 . S
O96 C89 1.226 . S
O97 Cd88 2.356 . S
O97 C95 1.282 . S
C98 O99 1.306 . S
C98 O101 1.160 . S
O99 C98 1.306 . S
O99 Cd100 2.228 . S
Cd100 O99 2.228 . S
Cd100 O104 2.273 . S
Cd100 O108 2.277 . S
O101 C98 1.160 . S
O101 Cd102 2.203 . S
Cd102 O101 2.203 . S
Cd102 O104 2.411 . S
Cd102 O105 2.333 . S
Cd102 O106 2.352 . S
Cd102 O110 2.277 . S
Cd102 O111 2.356 . S
C103 O108 1.209 . S
C103 O110 1.226 . S
O104 Cd100 2.273 . S
O104 Cd102 2.411 . S
O104 C107 1.320 . S
O105 Cd102 2.333 . S
O105 C107 1.214 . S
O106 Cd102 2.352 . S
O106 C109 1.258 . S
C107 O104 1.320 . S
C107 O105 1.214 . S
O108 Cd100 2.277 . S
O108 C103 1.209 . S
C109 O106 1.258 . S
C109 O111 1.282 . S
O110 Cd102 2.277 . S
O110 C103 1.226 . S
O111 Cd102 2.356 . S
O111 C109 1.282 . S
C112 O113 1.306 . S
C112 O115 1.160 . S
O113 C112 1.306 . S
O113 Cd114 2.228 . S
Cd114 O113 2.228 . S
Cd114 O118 2.273 . S
Cd114 O122 2.277 . S
O115 C112 1.160 . S
O115 Cd116 2.203 . S
Cd116 O115 2.203 . S
Cd116 O118 2.411 . S
Cd116 O119 2.333 . S
Cd116 O120 2.352 . S
Cd116 O124 2.277 . S
Cd116 O125 2.356 . S
C117 O122 1.209 . S
C117 O124 1.226 . S
O118 Cd114 2.273 . S
O118 Cd116 2.411 . S
O118 C121 1.320 . S
O119 Cd116 2.333 . S
O119 C121 1.214 . S
O120 Cd116 2.352 . S
O120 C123 1.258 . S
C121 O118 1.320 . S
C121 O119 1.214 . S
O122 Cd114 2.277 . S
O122 C117 1.209 . S
C123 O120 1.258 . S
C123 O125 1.282 . S
O124 Cd116 2.277 . S
O124 C117 1.226 . S
O125 Cd116 2.356 . S
O125 C123 1.282 . S
C126 O127 1.306 . S
C126 O129 1.160 . S
O127 C126 1.306 . S
O127 Cd128 2.228 . S
Cd128 O127 2.228 . S
Cd128 O132 2.273 . S
Cd128 O136 2.277 . S
O129 C126 1.160 . S
O129 Cd130 2.203 . S
Cd130 O129 2.203 . S
Cd130 O132 2.411 . S
Cd130 O133 2.333 . S
Cd130 O134 2.352 . S
Cd130 O138 2.277 . S
Cd130 O139 2.356 . S
C131 O136 1.209 . S
C131 O138 1.226 . S
O132 Cd128 2.273 . S
O132 Cd130 2.411 . S
O132 C135 1.320 . S
O133 Cd130 2.333 . S
O133 C135 1.214 . S
O134 Cd130 2.352 . S
O134 C137 1.258 . S
C135 O132 1.320 . S
C135 O133 1.214 . S
O136 Cd128 2.277 . S
O136 C131 1.209 . S
C137 O134 1.258 . S
C137 O139 1.282 . S
O138 Cd130 2.277 . S
O138 C131 1.226 . S
O139 Cd130 2.356 . S
O139 C137 1.282 . S
C140 O141 1.306 . S
C140 O143 1.160 . S
O141 C140 1.306 . S
O141 Cd142 2.228 . S
Cd142 O141 2.228 . S
Cd142 O146 2.273 . S
Cd142 O150 2.277 . S
O143 C140 1.160 . S
O143 Cd144 2.203 . S
Cd144 O143 2.203 . S
Cd144 O146 2.411 . S
Cd144 O147 2.333 . S
Cd144 O148 2.352 . S
Cd144 O152 2.277 . S
Cd144 O153 2.356 . S
C145 O150 1.209 . S
C145 O152 1.226 . S
O146 Cd142 2.273 . S
O146 Cd144 2.411 . S
O146 C149 1.320 . S
O147 Cd144 2.333 . S
O147 C149 1.214 . S
O148 Cd144 2.352 . S
O148 C151 1.258 . S
C149 O146 1.320 . S
C149 O147 1.214 . S
O150 Cd142 2.277 . S
O150 C145 1.209 . S
C151 O148 1.258 . S
C151 O153 1.282 . S
O152 Cd144 2.277 . S
O152 C145 1.226 . S
O153 Cd144 2.356 . S
O153 C151 1.282 . S
C154 O155 1.306 . S
C154 O157 1.160 . S
O155 C154 1.306 . S
O155 Cd156 2.228 . S
Cd156 O155 2.228 . S
Cd156 O160 2.273 . S
Cd156 O164 2.277 . S
O157 C154 1.160 . S
O157 Cd158 2.203 . S
Cd158 O157 2.203 . S
Cd158 O160 2.411 . S
Cd158 O161 2.333 . S
Cd158 O162 2.352 . S
Cd158 O166 2.277 . S
Cd158 O167 2.356 . S
C159 O164 1.209 . S
C159 O166 1.226 . S
O160 Cd156 2.273 . S
O160 Cd158 2.411 . S
O160 C163 1.320 . S
O161 Cd158 2.333 . S
O161 C163 1.214 . S
O162 Cd158 2.352 . S
O162 C165 1.258 . S
C163 O160 1.320 . S
C163 O161 1.214 . S
O164 Cd156 2.277 . S
O164 C159 1.209 . S
C165 O162 1.258 . S
C165 O167 1.282 . S
O166 Cd158 2.277 . S
O166 C159 1.226 . S
O167 Cd158 2.356 . S
O167 C165 1.282 . S
C168 O169 1.306 . S
C168 O171 1.160 . S
O169 C168 1.306 . S
O169 Cd170 2.228 . S
Cd170 O169 2.228 . S
Cd170 O174 2.273 . S
Cd170 O178 2.277 . S
O171 C168 1.160 . S
O171 Cd172 2.203 . S
Cd172 O171 2.203 . S
Cd172 O174 2.411 . S
Cd172 O175 2.333 . S
Cd172 O176 2.352 . S
Cd172 O180 2.277 . S
Cd172 O181 2.356 . S
C173 O178 1.209 . S
C173 O180 1.226 . S
O174 Cd170 2.273 . S
O174 Cd172 2.411 . S
O174 C177 1.320 . S
O175 Cd172 2.333 . S
O175 C177 1.214 . S
O176 Cd172 2.352 . S
O176 C179 1.258 . S
C177 O174 1.320 . S
C177 O175 1.214 . S
O178 Cd170 2.277 . S
O178 C173 1.209 . S
C179 O176 1.258 . S
C179 O181 1.282 . S
O180 Cd172 2.277 . S
O180 C173 1.226 . S
O181 Cd172 2.356 . S
O181 C179 1.282 . S
C182 O183 1.306 . S
C182 O185 1.160 . S
O183 C182 1.306 . S
O183 Cd184 2.228 . S
Cd184 O183 2.228 . S
Cd184 O188 2.273 . S
Cd184 O192 2.277 . S
O185 C182 1.160 . S
O185 Cd186 2.203 . S
Cd186 O185 2.203 . S
Cd186 O188 2.411 . S
Cd186 O189 2.333 . S
Cd186 O190 2.352 . S
Cd186 O194 2.277 . S
Cd186 O195 2.356 . S
C187 O192 1.209 . S
C187 O194 1.226 . S
O188 Cd184 2.273 . S
O188 Cd186 2.411 . S
O188 C191 1.320 . S
O189 Cd186 2.333 . S
O189 C191 1.214 . S
O190 Cd186 2.352 . S
O190 C193 1.258 . S
C191 O188 1.320 . S
C191 O189 1.214 . S
O192 Cd184 2.277 . S
O192 C187 1.209 . S
C193 O190 1.258 . S
C193 O195 1.282 . S
O194 Cd186 2.277 . S
O194 C187 1.226 . S
O195 Cd186 2.356 . S
O195 C193 1.282 . S
C196 O197 1.306 . S
C196 O199 1.160 . S
O197 C196 1.306 . S
O197 Cd198 2.228 . S
Cd198 O197 2.228 . S
Cd198 O202 2.273 . S
Cd198 O206 2.277 . S
O199 C196 1.160 . S
O199 Cd200 2.203 . S
Cd200 O199 2.203 . S
Cd200 O202 2.411 . S
Cd200 O203 2.333 . S
Cd200 O204 2.352 . S
Cd200 O208 2.277 . S
Cd200 O209 2.356 . S
C201 O206 1.209 . S
C201 O208 1.226 . S
O202 Cd198 2.273 . S
O202 Cd200 2.411 . S
O202 C205 1.320 . S
O203 Cd200 2.333 . S
O203 C205 1.214 . S
O204 Cd200 2.352 . S
O204 C207 1.258 . S
C205 O202 1.320 . S
C205 O203 1.214 . S
O206 Cd198 2.277 . S
O206 C201 1.209 . S
C207 O204 1.258 . S
C207 O209 1.282 . S
O208 Cd200 2.277 . S
O208 C201 1.226 . S
O209 Cd200 2.356 . S
O209 C207 1.282 . S
C210 O211 1.306 . S
C210 O213 1.160 . S
O211 C210 1.306 . S
O211 Cd212 2.228 . S
Cd212 O211 2.228 . S
Cd212 O216 2.273 . S
Cd212 O220 2.277 . S
O213 C210 1.160 . S
O213 Cd214 2.203 . S
Cd214 O213 2.203 . S
Cd214 O216 2.411 . S
Cd214 O217 2.333 . S
Cd214 O218 2.352 . S
Cd214 O222 2.277 . S
Cd214 O223 2.356 . S
C215 O220 1.209 . S
C215 O222 1.226 . S
O216 Cd212 2.273 . S
O216 Cd214 2.411 . S
O216 C219 1.320 . S
O217 Cd214 2.333 . S
O217 C219 1.214 . S
O218 Cd214 2.352 . S
O218 C221 1.258 . S
C219 O216 1.320 . S
C219 O217 1.214 . S
O220 Cd212 2.277 . S
O220 C215 1.209 . S
C221 O218 1.258 . S
C221 O223 1.282 . S
O222 Cd214 2.277 . S
O222 C215 1.226 . S
O223 Cd214 2.356 . S
O223 C221 1.282 . S
C224 O225 1.306 . S
C224 O227 1.160 . S
O225 C224 1.306 . S
O225 Cd226 2.228 . S
Cd226 O225 2.228 . S
Cd226 O230 2.273 . S
Cd226 O234 2.277 . S
O227 C224 1.160 . S
O227 Cd228 2.203 . S
Cd228 O227 2.203 . S
Cd228 O230 2.411 . S
Cd228 O231 2.333 . S
Cd228 O232 2.352 . S
Cd228 O236 2.277 . S
Cd228 O237 2.356 . S
C229 O234 1.209 . S
C229 O236 1.226 . S
O230 Cd226 2.273 . S
O230 Cd228 2.411 . S
O230 C233 1.320 . S
O231 Cd228 2.333 . S
O231 C233 1.214 . S
O232 Cd228 2.352 . S
O232 C235 1.258 . S
C233 O230 1.320 . S
C233 O231 1.214 . S
O234 Cd226 2.277 . S
O234 C229 1.209 . S
C235 O232 1.258 . S
C235 O237 1.282 . S
O236 Cd228 2.277 . S
O236 C229 1.226 . S
O237 Cd228 2.356 . S
O237 C235 1.282 . S
C238 O239 1.306 . S
C238 O241 1.160 . S
O239 C238 1.306 . S
O239 Cd240 2.228 . S
Cd240 O239 2.228 . S
Cd240 O244 2.273 . S
Cd240 O248 2.277 . S
O241 C238 1.160 . S
O241 Cd242 2.203 . S
Cd242 O241 2.203 . S
Cd242 O244 2.411 . S
Cd242 O245 2.333 . S
Cd242 O246 2.352 . S
Cd242 O250 2.277 . S
Cd242 O251 2.356 . S
C243 O248 1.209 . S
C243 O250 1.226 . S
O244 Cd240 2.273 . S
O244 Cd242 2.411 . S
O244 C247 1.320 . S
O245 Cd242 2.333 . S
O245 C247 1.214 . S
O246 Cd242 2.352 . S
O246 C249 1.258 . S
C247 O244 1.320 . S
C247 O245 1.214 . S
O248 Cd240 2.277 . S
O248 C243 1.209 . S
C249 O246 1.258 . S
C249 O251 1.282 . S
O250 Cd242 2.277 . S
O250 C243 1.226 . S
O251 Cd242 2.356 . S
O251 C249 1.282 . S
C252 O253 1.306 . S
C252 O255 1.160 . S
O253 C252 1.306 . S
O253 Cd254 2.228 . S
Cd254 O253 2.228 . S
Cd254 O258 2.273 . S
Cd254 O262 2.277 . S
O255 C252 1.160 . S
O255 Cd256 2.203 . S
Cd256 O255 2.203 . S
Cd256 O258 2.411 . S
Cd256 O259 2.333 . S
Cd256 O260 2.352 . S
Cd256 O264 2.277 . S
Cd256 O265 2.356 . S
C257 O262 1.209 . S
C257 O264 1.226 . S
O258 Cd254 2.273 . S
O258 Cd256 2.411 . S
O258 C261 1.320 . S
O259 Cd256 2.333 . S
O259 C261 1.214 . S
O260 Cd256 2.352 . S
O260 C263 1.258 . S
C261 O258 1.320 . S
C261 O259 1.214 . S
O262 Cd254 2.277 . S
O262 C257 1.209 . S
C263 O260 1.258 . S
C263 O265 1.282 . S
O264 Cd256 2.277 . S
O264 C257 1.226 . S
O265 Cd256 2.356 . S
O265 C263 1.282 . S
C266 O267 1.306 . S
C266 O269 1.160 . S
O267 C266 1.306 . S
O267 Cd268 2.228 . S
Cd268 O267 2.228 . S
Cd268 O272 2.273 . S
Cd268 O276 2.277 . S
O269 C266 1.160 . S
O269 Cd270 2.203 . S
Cd270 O269 2.203 . S
Cd270 O272 2.411 . S
Cd270 O273 2.333 . S
Cd270 O274 2.352 . S
Cd270 O278 2.277 . S
Cd270 O279 2.356 . S
C271 O276 1.209 . S
C271 O278 1.226 . S
O272 Cd268 2.273 . S
O272 Cd270 2.411 . S
O272 C275 1.320 . S
O273 Cd270 2.333 . S
O273 C275 1.214 . S
O274 Cd270 2.352 . S
O274 C277 1.258 . S
C275 O272 1.320 . S
C275 O273 1.214 . S
O276 Cd268 2.277 . S
O276 C271 1.209 . S
C277 O274 1.258 . S
C277 O279 1.282 . S
O278 Cd270 2.277 . S
O278 C271 1.226 . S
O279 Cd270 2.356 . S
O279 C277 1.282 . S
C280 O281 1.306 . S
C280 O283 1.160 . S
O281 C280 1.306 . S
O281 Cd282 2.228 . S
Cd282 O281 2.228 . S
Cd282 O286 2.273 . S
Cd282 O290 2.277 . S
O283 C280 1.160 . S
O283 Cd284 2.203 . S
Cd284 O283 2.203 . S
Cd284 O286 2.411 . S
Cd284 O287 2.333 . S
Cd284 O288 2.352 . S
Cd284 O292 2.277 . S
Cd284 O293 2.356 . S
C285 O290 1.209 . S
C285 O292 1.226 . S
O286 Cd282 2.273 . S
O286 Cd284 2.411 . S
O286 C289 1.320 . S
O287 Cd284 2.333 . S
O287 C289 1.214 . S
O288 Cd284 2.352 . S
O288 C291 1.258 . S
C289 O286 1.320 . S
C289 O287 1.214 . S
O290 Cd282 2.277 . S
O290 C285 1.209 . S
C291 O288 1.258 . S
C291 O293 1.282 . S
O292 Cd284 2.277 . S
O292 C285 1.226 . S
O293 Cd284 2.356 . S
O293 C291 1.282 . S
C294 O295 1.306 . S
C294 O297 1.160 . S
O295 C294 1.306 . S
O295 Cd296 2.228 . S
Cd296 O295 2.228 . S
Cd296 O300 2.273 . S
Cd296 O304 2.277 . S
O297 C294 1.160 . S
O297 Cd298 2.203 . S
Cd298 O297 2.203 . S
Cd298 O300 2.411 . S
Cd298 O301 2.333 . S
Cd298 O302 2.352 . S
Cd298 O306 2.277 . S
Cd298 O307 2.356 . S
C299 O304 1.209 . S
C299 O306 1.226 . S
O300 Cd296 2.273 . S
O300 Cd298 2.411 . S
O300 C303 1.320 . S
O301 Cd298 2.333 . S
O301 C303 1.214 . S
O302 Cd298 2.352 . S
O302 C305 1.258 . S
C303 O300 1.320 . S
C303 O301 1.214 . S
O304 Cd296 2.277 . S
O304 C299 1.209 . S
C305 O302 1.258 . S
C305 O307 1.282 . S
O306 Cd298 2.277 . S
O306 C299 1.226 . S
O307 Cd298 2.356 . S
O307 C305 1.282 . S
C308 O309 1.306 . S
C308 O311 1.160 . S
O309 C308 1.306 . S
O309 Cd310 2.228 . S
Cd310 O309 2.228 . S
Cd310 O314 2.273 . S
Cd310 O318 2.277 . S
O311 C308 1.160 . S
O311 Cd312 2.203 . S
Cd312 O311 2.203 . S
Cd312 O314 2.411 . S
Cd312 O315 2.333 . S
Cd312 O316 2.352 . S
Cd312 O320 2.277 . S
Cd312 O321 2.356 . S
C313 O318 1.209 . S
C313 O320 1.226 . S
O314 Cd310 2.273 . S
O314 Cd312 2.411 . S
O314 C317 1.320 . S
O315 Cd312 2.333 . S
O315 C317 1.214 . S
O316 Cd312 2.352 . S
O316 C319 1.258 . S
C317 O314 1.320 . S
C317 O315 1.214 . S
O318 Cd310 2.277 . S
O318 C313 1.209 . S
C319 O316 1.258 . S
C319 O321 1.282 . S
O320 Cd312 2.277 . S
O320 C313 1.226 . S
O321 Cd312 2.356 . S
O321 C319 1.282 . S
C322 O323 1.306 . S
C322 O325 1.160 . S
O323 C322 1.306 . S
O323 Cd324 2.228 . S
Cd324 O323 2.228 . S
Cd324 O328 2.273 . S
Cd324 O332 2.277 . S
O325 C322 1.160 . S
O325 Cd326 2.203 . S
Cd326 O325 2.203 . S
Cd326 O328 2.411 . S
Cd326 O329 2.333 . S
Cd326 O330 2.352 . S
Cd326 O334 2.277 . S
Cd326 O335 2.356 . S
C327 O332 1.209 . S
C327 O334 1.226 . S
O328 Cd324 2.273 . S
O328 Cd326 2.411 . S
O328 C331 1.320 . S
O329 Cd326 2.333 . S
O329 C331 1.214 . S
O330 Cd326 2.352 . S
O330 C333 1.258 . S
C331 O328 1.320 . S
C331 O329 1.214 . S
O332 Cd324 2.277 . S
O332 C327 1.209 . S
C333 O330 1.258 . S
C333 O335 1.282 . S
O334 Cd326 2.277 . S
O334 C327 1.226 . S
O335 Cd326 2.356 . S
O335 C333 1.282 . S
C336 O337 1.306 . S
C336 O339 1.160 . S
O337 C336 1.306 . S
O337 Cd338 2.228 . S
Cd338 O337 2.228 . S
Cd338 O342 2.273 . S
Cd338 O346 2.277 . S
O339 C336 1.160 . S
O339 Cd340 2.203 . S
Cd340 O339 2.203 . S
Cd340 O342 2.411 . S
Cd340 O343 2.333 . S
Cd340 O344 2.352 . S
Cd340 O348 2.277 . S
Cd340 O349 2.356 . S
C341 O346 1.209 . S
C341 O348 1.226 . S
O342 Cd338 2.273 . S
O342 Cd340 2.411 . S
O342 C345 1.320 . S
O343 Cd340 2.333 . S
O343 C345 1.214 . S
O344 Cd340 2.352 . S
O344 C347 1.258 . S
C345 O342 1.320 . S
C345 O343 1.214 . S
O346 Cd338 2.277 . S
O346 C341 1.209 . S
C347 O344 1.258 . S
C347 O349 1.282 . S
O348 Cd340 2.277 . S
O348 C341 1.226 . S
O349 Cd340 2.356 . S
O349 C347 1.282 . S
C350 O351 1.306 . S
C350 O353 1.160 . S
O351 C350 1.306 . S
O351 Cd352 2.228 . S
Cd352 O351 2.228 . S
Cd352 O356 2.273 . S
Cd352 O360 2.277 . S
O353 C350 1.160 . S
O353 Cd354 2.203 . S
Cd354 O353 2.203 . S
Cd354 O356 2.411 . S
Cd354 O357 2.333 . S
Cd354 O358 2.352 . S
Cd354 O362 2.277 . S
Cd354 O363 2.356 . S
C355 O360 1.209 . S
C355 O362 1.226 . S
O356 Cd352 2.273 . S
O356 Cd354 2.411 . S
O356 C359 1.320 . S
O357 Cd354 2.333 . S
O357 C359 1.214 . S
O358 Cd354 2.352 . S
O358 C361 1.258 . S
C359 O356 1.320 . S
C359 O357 1.214 . S
O360 Cd352 2.277 . S
O360 C355 1.209 . S
C361 O358 1.258 . S
C361 O363 1.282 . S
O362 Cd354 2.277 . S
O362 C355 1.226 . S
O363 Cd354 2.356 . S
O363 C361 1.282 . S
C364 O365 1.306 . S
C364 O367 1.160 . S
O365 C364 1.306 . S
O365 Cd366 2.228 . S
Cd366 O365 2.228 . S
Cd366 O370 2.273 . S
Cd366 O374 2.277 . S
O367 C364 1.160 . S
O367 Cd368 2.203 . S
Cd368 O367 2.203 . S
Cd368 O370 2.411 . S
Cd368 O371 2.333 . S
Cd368 O372 2.352 . S
Cd368 O376 2.277 . S
Cd368 O377 2.356 . S
C369 O374 1.209 . S
C369 O376 1.226 . S
O370 Cd366 2.273 . S
O370 Cd368 2.411 . S
O370 C373 1.320 . S
O371 Cd368 2.333 . S
O371 C373 1.214 . S
O372 Cd368 2.352 . S
O372 C375 1.258 . S
C373 O370 1.320 . S
C373 O371 1.214 . S
O374 Cd366 2.277 . S
O374 C369 1.209 . S
C375 O372 1.258 . S
C375 O377 1.282 . S
O376 Cd368 2.277 . S
O376 C369 1.226 . S
O377 Cd368 2.356 . S
O377 C375 1.282 . S
C378 O379 1.306 . S
C378 O381 1.160 . S
O379 C378 1.306 . S
O379 Cd380 2.228 . S
Cd380 O379 2.228 . S
Cd380 O384 2.273 . S
Cd380 O388 2.277 . S
O381 C378 1.160 . S
O381 Cd382 2.203 . S
Cd382 O381 2.203 . S
Cd382 O384 2.411 . S
Cd382 O385 2.333 . S
Cd382 O386 2.352 . S
Cd382 O390 2.277 . S
Cd382 O391 2.356 . S
C383 O388 1.209 . S
C383 O390 1.226 . S
O384 Cd380 2.273 . S
O384 Cd382 2.411 . S
O384 C387 1.320 . S
O385 Cd382 2.333 . S
O385 C387 1.214 . S
O386 Cd382 2.352 . S
O386 C389 1.258 . S
C387 O384 1.320 . S
C387 O385 1.214 . S
O388 Cd380 2.277 . S
O388 C383 1.209 . S
C389 O386 1.258 . S
C389 O391 1.282 . S
O390 Cd382 2.277 . S
O390 C383 1.226 . S
O391 Cd382 2.356 . S
O391 C389 1.282 . S
C392 O393 1.306 . S
C392 O395 1.160 . S
O393 C392 1.306 . S
O393 Cd394 2.228 . S
Cd394 O393 2.228 . S
Cd394 O398 2.273 . S
Cd394 O402 2.277 . S
O395 C392 1.160 . S
O395 Cd396 2.203 . S
Cd396 O395 2.203 . S
Cd396 O398 2.411 . S
Cd396 O399 2.333 . S
Cd396 O400 2.352 . S
Cd396 O404 2.277 . S
Cd396 O405 2.356 . S
C397 O402 1.209 . S
C397 O404 1.226 . S
O398 Cd394 2.273 . S
O398 Cd396 2.411 . S
O398 C401 1.320 . S
O399 Cd396 2.333 . S
O399 C401 1.214 . S
O400 Cd396 2.352 . S
O400 C403 1.258 . S
C401 O398 1.320 . S
C401 O399 1.214 . S
O402 Cd394 2.277 . S
O402 C397 1.209 . S
C403 O400 1.258 . S
C403 O405 1.282 . S
O404 Cd396 2.277 . S
O404 C397 1.226 . S
O405 Cd396 2.356 . S
O405 C403 1.282 . S
C406 O407 1.306 . S
C406 O409 1.160 . S
O407 C406 1.306 . S
O407 Cd408 2.228 . S
Cd408 O407 2.228 . S
Cd408 O412 2.273 . S
Cd408 O416 2.277 . S
O409 C406 1.160 . S
O409 Cd410 2.203 . S
Cd410 O409 2.203 . S
Cd410 O412 2.411 . S
Cd410 O413 2.333 . S
Cd410 O414 2.352 . S
Cd410 O418 2.277 . S
Cd410 O419 2.356 . S
C411 O416 1.209 . S
C411 O418 1.226 . S
O412 Cd408 2.273 . S
O412 Cd410 2.411 . S
O412 C415 1.320 . S
O413 Cd410 2.333 . S
O413 C415 1.214 . S
O414 Cd410 2.352 . S
O414 C417 1.258 . S
C415 O412 1.320 . S
C415 O413 1.214 . S
O416 Cd408 2.277 . S
O416 C411 1.209 . S
C417 O414 1.258 . S
C417 O419 1.282 . S
O418 Cd410 2.277 . S
O418 C411 1.226 . S
O419 Cd410 2.356 . S
O419 C417 1.282 . S
C420 O421 1.306 . S
C420 O423 1.160 . S
O421 C420 1.306 . S
O421 Cd422 2.228 . S
Cd422 O421 2.228 . S
Cd422 O426 2.273 . S
Cd422 O430 2.277 . S
O423 C420 1.160 . S
O423 Cd424 2.203 . S
Cd424 O423 2.203 . S
Cd424 O426 2.411 . S
Cd424 O427 2.333 . S
Cd424 O428 2.352 . S
Cd424 O432 2.277 . S
Cd424 O433 2.356 . S
C425 O430 1.209 . S
C425 O432 1.226 . S
O426 Cd422 2.273 . S
O426 Cd424 2.411 . S
O426 C429 1.320 . S
O427 Cd424 2.333 . S
O427 C429 1.214 . S
O428 Cd424 2.352 . S
O428 C431 1.258 . S
C429 O426 1.320 . S
C429 O427 1.214 . S
O430 Cd422 2.277 . S
O430 C425 1.209 . S
C431 O428 1.258 . S
C431 O433 1.282 . S
O432 Cd424 2.277 . S
O432 C425 1.226 . S
O433 Cd424 2.356 . S
O433 C431 1.282 . S
C434 O435 1.306 . S
C434 O437 1.160 . S
O435 C434 1.306 . S
O435 Cd436 2.228 . S
Cd436 O435 2.228 . S
Cd436 O440 2.273 . S
Cd436 O444 2.277 . S
O437 C434 1.160 . S
O437 Cd438 2.203 . S
Cd438 O437 2.203 . S
Cd438 O440 2.411 . S
Cd438 O441 2.333 . S
Cd438 O442 2.352 . S
Cd438 O446 2.277 . S
Cd438 O447 2.356 . S
C439 O444 1.209 . S
C439 O446 1.226 . S
O440 Cd436 2.273 . S
O440 Cd438 2.411 . S
O440 C443 1.320 . S
O441 Cd438 2.333 . S
O441 C443 1.214 . S
O442 Cd438 2.352 . S
O442 C445 1.258 . S
C443 O440 1.320 . S
C443 O441 1.214 . S
O444 Cd436 2.277 . S
O444 C439 1.209 . S
C445 O442 1.258 . S
C445 O447 1.282 . S
O446 Cd438 2.277 . S
O446 C439 1.226 . S
O447 Cd438 2.356 . S
O447 C445 1.282 . S
C448 C449 1.369 . S
C448 C450 1.419 . S
C448 H452 0.930 . S
C449 C448 1.369 . S
C449 C458 1.429 . S
C450 C448 1.419 . S
C450 C451 1.363 . S
C450 H453 0.929 . S
C451 C450 1.363 . S
C451 C457 1.428 . S
H452 C448 0.930 . S
H453 C450 0.929 . S
S454 N455 1.613 . S
S454 N456 1.610 . S
N455 S454 1.613 . S
N455 C458 1.350 . S
N456 S454 1.610 . S
N456 C457 1.351 . S
C457 C451 1.428 . S
C457 N456 1.351 . S
C457 C458 1.434 . S
C458 C449 1.429 . S
C458 N455 1.350 . S
C458 C457 1.434 . S
C459 C460 1.369 . S
C459 C461 1.419 . S
C459 H463 0.930 . S
C460 C459 1.369 . S
C460 C469 1.429 . S
C461 C459 1.419 . S
C461 C462 1.363 . S
C461 H464 0.929 . S
C462 C461 1.363 . S
C462 C468 1.428 . S
H463 C459 0.930 . S
H464 C461 0.929 . S
S465 N466 1.613 . S
S465 N467 1.610 . S
N466 S465 1.613 . S
N466 C469 1.350 . S
N467 S465 1.610 . S
N467 C468 1.351 . S
C468 C462 1.428 . S
C468 N467 1.351 . S
C468 C469 1.434 . S
C469 C460 1.429 . S
C469 N466 1.350 . S
C469 C468 1.434 . S
C470 C471 1.369 . S
C470 C472 1.419 . S
C470 H474 0.930 . S
C471 C470 1.369 . S
C471 C480 1.429 . S
C472 C470 1.419 . S
C472 C473 1.363 . S
C472 H475 0.929 . S
C473 C472 1.363 . S
C473 C479 1.428 . S
H474 C470 0.930 . S
H475 C472 0.929 . S
S476 N477 1.613 . S
S476 N478 1.610 . S
N477 S476 1.613 . S
N477 C480 1.350 . S
N478 S476 1.610 . S
N478 C479 1.351 . S
C479 C473 1.428 . S
C479 N478 1.351 . S
C479 C480 1.434 . S
C480 C471 1.429 . S
C480 N477 1.350 . S
C480 C479 1.434 . S
C481 C482 1.369 . S
C481 C483 1.419 . S
C481 H485 0.930 . S
C482 C481 1.369 . S
C482 C491 1.429 . S
C483 C481 1.419 . S
C483 C484 1.363 . S
C483 H486 0.929 . S
C484 C483 1.363 . S
C484 C490 1.428 . S
H485 C481 0.930 . S
H486 C483 0.929 . S
S487 N488 1.613 . S
S487 N489 1.610 . S
N488 S487 1.613 . S
N488 C491 1.350 . S
N489 S487 1.610 . S
N489 C490 1.351 . S
C490 C484 1.428 . S
C490 N489 1.351 . S
C490 C491 1.434 . S
C491 C482 1.429 . S
C491 N488 1.350 . S
C491 C490 1.434 . S
C492 C493 1.369 . S
C492 C494 1.419 . S
C492 H496 0.930 . S
C493 C492 1.369 . S
C493 C502 1.429 . S
C494 C492 1.419 . S
C494 C495 1.363 . S
C494 H497 0.929 . S
C495 C494 1.363 . S
C495 C501 1.428 . S
H496 C492 0.930 . S
H497 C494 0.929 . S
S498 N499 1.613 . S
S498 N500 1.610 . S
N499 S498 1.613 . S
N499 C502 1.350 . S
N500 S498 1.610 . S
N500 C501 1.351 . S
C501 C495 1.428 . S
C501 N500 1.351 . S
C501 C502 1.434 . S
C502 C493 1.429 . S
C502 N499 1.350 . S
C502 C501 1.434 . S
C503 C504 1.369 . S
C503 C505 1.419 . S
C503 H507 0.930 . S
C504 C503 1.369 . S
C504 C513 1.429 . S
C505 C503 1.419 . S
C505 C506 1.363 . S
C505 H508 0.929 . S
C506 C505 1.363 . S
C506 C512 1.428 . S
H507 C503 0.930 . S
H508 C505 0.929 . S
S509 N510 1.613 . S
S509 N511 1.610 . S
N510 S509 1.613 . S
N510 C513 1.350 . S
N511 S509 1.610 . S
N511 C512 1.351 . S
C512 C506 1.428 . S
C512 N511 1.351 . S
C512 C513 1.434 . S
C513 C504 1.429 . S
C513 N510 1.350 . S
C513 C512 1.434 . S
C514 C515 1.369 . S
C514 C516 1.419 . S
C514 H518 0.930 . S
C515 C514 1.369 . S
C515 C524 1.429 . S
C516 C514 1.419 . S
C516 C517 1.363 . S
C516 H519 0.929 . S
C517 C516 1.363 . S
C517 C523 1.428 . S
H518 C514 0.930 . S
H519 C516 0.929 . S
S520 N521 1.613 . S
S520 N522 1.610 . S
N521 S520 1.613 . S
N521 C524 1.350 . S
N522 S520 1.610 . S
N522 C523 1.351 . S
C523 C517 1.428 . S
C523 N522 1.351 . S
C523 C524 1.434 . S
C524 C515 1.429 . S
C524 N521 1.350 . S
C524 C523 1.434 . S
C525 C526 1.369 . S
C525 C527 1.419 . S
C525 H529 0.930 . S
C526 C525 1.369 . S
C526 C535 1.429 . S
C527 C525 1.419 . S
C527 C528 1.363 . S
C527 H530 0.929 . S
C528 C527 1.363 . S
C528 C534 1.428 . S
H529 C525 0.930 . S
H530 C527 0.929 . S
S531 N532 1.613 . S
S531 N533 1.610 . S
N532 S531 1.613 . S
N532 C535 1.350 . S
N533 S531 1.610 . S
N533 C534 1.351 . S
C534 C528 1.428 . S
C534 N533 1.351 . S
C534 C535 1.434 . S
C535 C526 1.429 . S
C535 N532 1.350 . S
C535 C534 1.434 . S
C536 C537 1.369 . S
C536 C538 1.419 . S
C536 H540 0.930 . S
C537 C536 1.369 . S
C537 C546 1.429 . S
C538 C536 1.419 . S
C538 C539 1.363 . S
C538 H541 0.929 . S
C539 C538 1.363 . S
C539 C545 1.428 . S
H540 C536 0.930 . S
H541 C538 0.929 . S
S542 N543 1.613 . S
S542 N544 1.610 . S
N543 S542 1.613 . S
N543 C546 1.350 . S
N544 S542 1.610 . S
N544 C545 1.351 . S
C545 C539 1.428 . S
C545 N544 1.351 . S
C545 C546 1.434 . S
C546 C537 1.429 . S
C546 N543 1.350 . S
C546 C545 1.434 . S
C547 C548 1.369 . S
C547 C549 1.419 . S
C547 H551 0.930 . S
C548 C547 1.369 . S
C548 C557 1.429 . S
C549 C547 1.419 . S
C549 C550 1.363 . S
C549 H552 0.929 . S
C550 C549 1.363 . S
C550 C556 1.428 . S
H551 C547 0.930 . S
H552 C549 0.929 . S
S553 N554 1.613 . S
S553 N555 1.610 . S
N554 S553 1.613 . S
N554 C557 1.350 . S
N555 S553 1.610 . S
N555 C556 1.351 . S
C556 C550 1.428 . S
C556 N555 1.351 . S
C556 C557 1.434 . S
C557 C548 1.429 . S
C557 N554 1.350 . S
C557 C556 1.434 . S
C558 C559 1.369 . S
C558 C560 1.419 . S
C558 H562 0.930 . S
C559 C558 1.369 . S
C559 C568 1.429 . S
C560 C558 1.419 . S
C560 C561 1.363 . S
C560 H563 0.929 . S
C561 C560 1.363 . S
C561 C567 1.428 . S
H562 C558 0.930 . S
H563 C560 0.929 . S
S564 N565 1.613 . S
S564 N566 1.610 . S
N565 S564 1.613 . S
N565 C568 1.350 . S
N566 S564 1.610 . S
N566 C567 1.351 . S
C567 C561 1.428 . S
C567 N566 1.351 . S
C567 C568 1.434 . S
C568 C559 1.429 . S
C568 N565 1.350 . S
C568 C567 1.434 . S
C569 C570 1.369 . S
C569 C571 1.419 . S
C569 H573 0.930 . S
C570 C569 1.369 . S
C570 C579 1.429 . S
C571 C569 1.419 . S
C571 C572 1.363 . S
C571 H574 0.929 . S
C572 C571 1.363 . S
C572 C578 1.428 . S
H573 C569 0.930 . S
H574 C571 0.929 . S
S575 N576 1.613 . S
S575 N577 1.610 . S
N576 S575 1.613 . S
N576 C579 1.350 . S
N577 S575 1.610 . S
N577 C578 1.351 . S
C578 C572 1.428 . S
C578 N577 1.351 . S
C578 C579 1.434 . S
C579 C570 1.429 . S
C579 N576 1.350 . S
C579 C578 1.434 . S
C580 C581 1.369 . S
C580 C582 1.419 . S
C580 H584 0.930 . S
C581 C580 1.369 . S
C581 C590 1.429 . S
C582 C580 1.419 . S
C582 C583 1.363 . S
C582 H585 0.929 . S
C583 C582 1.363 . S
C583 C589 1.428 . S
H584 C580 0.930 . S
H585 C582 0.929 . S
S586 N587 1.613 . S
S586 N588 1.610 . S
N587 S586 1.613 . S
N587 C590 1.350 . S
N588 S586 1.610 . S
N588 C589 1.351 . S
C589 C583 1.428 . S
C589 N588 1.351 . S
C589 C590 1.434 . S
C590 C581 1.429 . S
C590 N587 1.350 . S
C590 C589 1.434 . S
C591 C592 1.369 . S
C591 C593 1.419 . S
C591 H595 0.930 . S
C592 C591 1.369 . S
C592 C601 1.429 . S
C593 C591 1.419 . S
C593 C594 1.363 . S
C593 H596 0.929 . S
C594 C593 1.363 . S
C594 C600 1.428 . S
H595 C591 0.930 . S
H596 C593 0.929 . S
S597 N598 1.613 . S
S597 N599 1.610 . S
N598 S597 1.613 . S
N598 C601 1.350 . S
N599 S597 1.610 . S
N599 C600 1.351 . S
C600 C594 1.428 . S
C600 N599 1.351 . S
C600 C601 1.434 . S
C601 C592 1.429 . S
C601 N598 1.350 . S
C601 C600 1.434 . S
C602 C603 1.369 . S
C602 C604 1.419 . S
C602 H606 0.930 . S
C603 C602 1.369 . S
C603 C612 1.429 . S
C604 C602 1.419 . S
C604 C605 1.363 . S
C604 H607 0.929 . S
C605 C604 1.363 . S
C605 C611 1.428 . S
H606 C602 0.930 . S
H607 C604 0.929 . S
S608 N609 1.613 . S
S608 N610 1.610 . S
N609 S608 1.613 . S
N609 C612 1.350 . S
N610 S608 1.610 . S
N610 C611 1.351 . S
C611 C605 1.428 . S
C611 N610 1.351 . S
C611 C612 1.434 . S
C612 C603 1.429 . S
C612 N609 1.350 . S
C612 C611 1.434 . S
C613 C614 1.369 . S
C613 C615 1.419 . S
C613 H617 0.930 . S
C614 C613 1.369 . S
C614 C623 1.429 . S
C615 C613 1.419 . S
C615 C616 1.363 . S
C615 H618 0.929 . S
C616 C615 1.363 . S
C616 C622 1.428 . S
H617 C613 0.930 . S
H618 C615 0.929 . S
S619 N620 1.613 . S
S619 N621 1.610 . S
N620 S619 1.613 . S
N620 C623 1.350 . S
N621 S619 1.610 . S
N621 C622 1.351 . S
C622 C616 1.428 . S
C622 N621 1.351 . S
C622 C623 1.434 . S
C623 C614 1.429 . S
C623 N620 1.350 . S
C623 C622 1.434 . S
C624 C625 1.369 . S
C624 C626 1.419 1_655 S
C624 H628 0.930 . S
C625 C624 1.369 . S
C625 C634 1.429 . S
C626 C624 1.419 1_455 S
C626 C627 1.363 . S
C626 H629 0.929 . S
C627 C626 1.363 . S
C627 C633 1.428 . S
H628 C624 0.930 . S
H629 C626 0.929 . S
S630 N631 1.613 . S
S630 N632 1.610 1_655 S
N631 S630 1.613 . S
N631 C634 1.350 . S
N632 S630 1.610 1_455 S
N632 C633 1.351 . S
C633 C627 1.428 . S
C633 N632 1.351 . S
C633 C634 1.434 1_455 S
C634 C625 1.429 . S
C634 N631 1.350 . S
C634 C633 1.434 1_655 S
C635 C636 1.369 . S
C635 C637 1.419 1_545 S
C635 H639 0.930 . S
C636 C635 1.369 . S
C636 C645 1.429 . S
C637 C635 1.419 1_565 S
C637 C638 1.363 . S
C637 H640 0.929 . S
C638 C637 1.363 . S
C638 C644 1.428 . S
H639 C635 0.930 . S
H640 C637 0.929 . S
S641 N642 1.613 . S
S641 N643 1.610 1_545 S
N642 S641 1.613 . S
N642 C645 1.350 . S
N643 S641 1.610 1_565 S
N643 C644 1.351 . S
C644 C638 1.428 . S
C644 N643 1.351 . S
C644 C645 1.434 1_565 S
C645 C636 1.429 . S
C645 N642 1.350 . S
C645 C644 1.434 1_545 S
C646 C647 1.369 . S
C646 C648 1.419 1_455 S
C646 H650 0.930 . S
C647 C646 1.369 . S
C647 C656 1.429 . S
C648 C646 1.419 1_655 S
C648 C649 1.363 . S
C648 H651 0.929 . S
C649 C648 1.363 . S
C649 C655 1.428 . S
H650 C646 0.930 . S
H651 C648 0.929 . S
S652 N653 1.613 . S
S652 N654 1.610 1_455 S
N653 S652 1.613 . S
N653 C656 1.350 . S
N654 S652 1.610 1_655 S
N654 C655 1.351 . S
C655 C649 1.428 . S
C655 N654 1.351 . S
C655 C656 1.434 1_655 S
C656 C647 1.429 . S
C656 N653 1.350 . S
C656 C655 1.434 1_455 S
C657 C658 1.369 . S
C657 C659 1.419 1_565 S
C657 H661 0.930 . S
C658 C657 1.369 . S
C658 C667 1.429 . S
C659 C657 1.419 1_545 S
C659 C660 1.363 . S
C659 H662 0.929 . S
C660 C659 1.363 . S
C660 C666 1.428 . S
H661 C657 0.930 . S
H662 C659 0.929 . S
S663 N664 1.613 . S
S663 N665 1.610 1_565 S
N664 S663 1.613 . S
N664 C667 1.350 . S
N665 S663 1.610 1_545 S
N665 C666 1.351 . S
C666 C660 1.428 . S
C666 N665 1.351 . S
C666 C667 1.434 1_545 S
C667 C658 1.429 . S
C667 N664 1.350 . S
C667 C666 1.434 1_565 S
C668 C669 1.369 . S
C668 C670 1.419 1_455 S
C668 H672 0.930 . S
C669 C668 1.369 . S
C669 C678 1.429 . S
C670 C668 1.419 1_655 S
C670 C671 1.363 . S
C670 H673 0.929 . S
C671 C670 1.363 . S
C671 C677 1.428 . S
H672 C668 0.930 . S
H673 C670 0.929 . S
S674 N675 1.613 1_655 S
S674 N676 1.610 . S
N675 S674 1.613 1_455 S
N675 C678 1.350 . S
N676 S674 1.610 . S
N676 C677 1.351 . S
C677 C671 1.428 . S
C677 N676 1.351 . S
C677 C678 1.434 1_655 S
C678 C669 1.429 . S
C678 N675 1.350 . S
C678 C677 1.434 1_455 S
C679 C680 1.369 . S
C679 C681 1.419 1_565 S
C679 H683 0.930 . S
C680 C679 1.369 . S
C680 C689 1.429 . S
C681 C679 1.419 1_545 S
C681 C682 1.363 . S
C681 H684 0.929 . S
C682 C681 1.363 . S
C682 C688 1.428 . S
H683 C679 0.930 . S
H684 C681 0.929 . S
S685 N686 1.613 1_545 S
S685 N687 1.610 . S
N686 S685 1.613 1_565 S
N686 C689 1.350 . S
N687 S685 1.610 . S
N687 C688 1.351 . S
C688 C682 1.428 . S
C688 N687 1.351 . S
C688 C689 1.434 1_545 S
C689 C680 1.429 . S
C689 N686 1.350 . S
C689 C688 1.434 1_565 S
C690 C691 1.369 . S
C690 C692 1.419 1_455 S
C690 H694 0.930 . S
C691 C690 1.369 . S
C691 C700 1.429 . S
C692 C690 1.419 1_655 S
C692 C693 1.363 . S
C692 H695 0.929 . S
C693 C692 1.363 . S
C693 C699 1.428 . S
H694 C690 0.930 . S
H695 C692 0.929 . S
S696 N697 1.613 . S
S696 N698 1.610 1_455 S
N697 S696 1.613 . S
N697 C700 1.350 . S
N698 S696 1.610 1_655 S
N698 C699 1.351 . S
C699 C693 1.428 . S
C699 N698 1.351 . S
C699 C700 1.434 1_655 S
C700 C691 1.429 . S
C700 N697 1.350 . S
C700 C699 1.434 1_455 S
C701 C702 1.369 . S
C701 C703 1.419 1_545 S
C701 H705 0.930 . S
C702 C701 1.369 . S
C702 C711 1.429 . S
C703 C701 1.419 1_565 S
C703 C704 1.363 . S
C703 H706 0.929 . S
C704 C703 1.363 . S
C704 C710 1.428 . S
H705 C701 0.930 . S
H706 C703 0.929 . S
S707 N708 1.588 1_565 S
S707 N709 1.637 . S
N708 S707 1.588 1_545 S
N708 C711 1.350 . S
N709 S707 1.637 . S
N709 C710 1.351 . S
C710 C704 1.428 . S
C710 N709 1.351 . S
C710 C711 1.434 1_565 S
C711 C702 1.429 . S
C711 N708 1.350 . S
C711 C710 1.434 1_545 S
C712 C713 1.369 . S
C712 C714 1.419 . S
C712 H716 0.930 . S
C713 C712 1.369 . S
C713 C722 1.429 . S
C714 C712 1.419 . S
C714 C715 1.363 . S
C714 H717 0.929 . S
C715 C714 1.363 . S
C715 C721 1.428 . S
H716 C712 0.930 . S
H717 C714 0.929 . S
S718 N719 1.613 . S
S718 N720 1.610 . S
N719 S718 1.613 . S
N719 C722 1.350 . S
N720 S718 1.610 . S
N720 C721 1.351 . S
C721 C715 1.428 . S
C721 N720 1.351 . S
C721 C722 1.434 . S
C722 C713 1.429 . S
C722 N719 1.350 . S
C722 C721 1.434 . S
C723 C724 1.369 . S
C723 C725 1.419 . S
C723 H727 0.930 . S
C724 C723 1.369 . S
C724 C733 1.429 . S
C725 C723 1.419 . S
C725 C726 1.363 . S
C725 H728 0.929 . S
C726 C725 1.363 . S
C726 C732 1.428 . S
H727 C723 0.930 . S
H728 C725 0.929 . S
S729 N730 1.613 . S
S729 N731 1.610 . S
N730 S729 1.613 . S
N730 C733 1.350 . S
N731 S729 1.610 . S
N731 C732 1.351 . S
C732 C726 1.428 . S
C732 N731 1.351 . S
C732 C733 1.434 . S
C733 C724 1.429 . S
C733 N730 1.350 . S
C733 C732 1.434 . S
C734 C735 1.369 . S
C734 C736 1.419 . S
C734 H738 0.930 . S
C735 C734 1.369 . S
C735 C744 1.429 . S
C736 C734 1.419 . S
C736 C737 1.363 . S
C736 H739 0.929 . S
C737 C736 1.363 . S
C737 C743 1.428 . S
H738 C734 0.930 . S
H739 C736 0.929 . S
S740 N741 1.613 . S
S740 N742 1.610 . S
N741 S740 1.613 . S
N741 C744 1.350 . S
N742 S740 1.610 . S
N742 C743 1.351 . S
C743 C737 1.428 . S
C743 N742 1.351 . S
C743 C744 1.434 . S
C744 C735 1.429 . S
C744 N741 1.350 . S
C744 C743 1.434 . S
C745 C746 1.369 . S
C745 C747 1.419 . S
C745 H749 0.930 . S
C746 C745 1.369 . S
C746 C755 1.429 . S
C747 C745 1.419 . S
C747 C748 1.363 . S
C747 H750 0.929 . S
C748 C747 1.363 . S
C748 C754 1.428 . S
H749 C745 0.930 . S
H750 C747 0.929 . S
S751 N752 1.613 . S
S751 N753 1.610 . S
N752 S751 1.613 . S
N752 C755 1.350 . S
N753 S751 1.610 . S
N753 C754 1.351 . S
C754 C748 1.428 . S
C754 N753 1.351 . S
C754 C755 1.434 . S
C755 C746 1.429 . S
C755 N752 1.350 . S
C755 C754 1.434 . S
C756 C757 1.369 . S
C756 C758 1.419 . S
C756 H760 0.930 . S
C757 C756 1.369 . S
C757 C766 1.429 . S
C758 C756 1.419 . S
C758 C759 1.363 . S
C758 H761 0.929 . S
C759 C758 1.363 . S
C759 C765 1.428 . S
H760 C756 0.930 . S
H761 C758 0.929 . S
S762 N763 1.613 . S
S762 N764 1.610 . S
N763 S762 1.613 . S
N763 C766 1.350 . S
N764 S762 1.610 . S
N764 C765 1.351 . S
C765 C759 1.428 . S
C765 N764 1.351 . S
C765 C766 1.434 . S
C766 C757 1.429 . S
C766 N763 1.350 . S
C766 C765 1.434 . S
C767 C768 1.369 . S
C767 C769 1.419 . S
C767 H771 0.930 . S
C768 C767 1.369 . S
C768 C777 1.429 . S
C769 C767 1.419 . S
C769 C770 1.363 . S
C769 H772 0.929 . S
C770 C769 1.363 . S
C770 C776 1.428 . S
H771 C767 0.930 . S
H772 C769 0.929 . S
S773 N774 1.613 . S
S773 N775 1.610 . S
N774 S773 1.613 . S
N774 C777 1.350 . S
N775 S773 1.610 . S
N775 C776 1.351 . S
C776 C770 1.428 . S
C776 N775 1.351 . S
C776 C777 1.434 . S
C777 C768 1.429 . S
C777 N774 1.350 . S
C777 C776 1.434 . S
C778 C779 1.369 . S
C778 C780 1.419 . S
C778 H782 0.930 . S
C779 C778 1.369 . S
C779 C788 1.429 . S
C780 C778 1.419 . S
C780 C781 1.363 . S
C780 H783 0.929 . S
C781 C780 1.363 . S
C781 C787 1.428 . S
H782 C778 0.930 . S
H783 C780 0.929 . S
S784 N785 1.613 . S
S784 N786 1.610 . S
N785 S784 1.613 . S
N785 C788 1.350 . S
N786 S784 1.610 . S
N786 C787 1.351 . S
C787 C781 1.428 . S
C787 N786 1.351 . S
C787 C788 1.434 . S
C788 C779 1.429 . S
C788 N785 1.350 . S
C788 C787 1.434 . S
C789 C790 1.369 . S
C789 C791 1.419 . S
C789 H793 0.930 . S
C790 C789 1.369 . S
C790 C799 1.429 . S
C791 C789 1.419 . S
C791 C792 1.363 . S
C791 H794 0.929 . S
C792 C791 1.363 . S
C792 C798 1.428 . S
H793 C789 0.930 . S
H794 C791 0.929 . S
S795 N796 1.613 . S
S795 N797 1.610 . S
N796 S795 1.613 . S
N796 C799 1.350 . S
N797 S795 1.610 . S
N797 C798 1.351 . S
C798 C792 1.428 . S
C798 N797 1.351 . S
C798 C799 1.434 . S
C799 C790 1.429 . S
C799 N796 1.350 . S
C799 C798 1.434 . S
C800 C801 1.369 . S
C800 C802 1.419 . S
C800 H804 0.930 . S
C801 C800 1.369 . S
C801 C810 1.429 . S
C802 C800 1.419 . S
C802 C803 1.363 . S
C802 H805 0.929 . S
C803 C802 1.363 . S
C803 C809 1.428 . S
H804 C800 0.930 . S
H805 C802 0.929 . S
S806 N807 1.613 . S
S806 N808 1.610 . S
N807 S806 1.613 . S
N807 C810 1.350 . S
N808 S806 1.610 . S
N808 C809 1.351 . S
C809 C803 1.428 . S
C809 N808 1.351 . S
C809 C810 1.434 . S
C810 C801 1.429 . S
C810 N807 1.350 . S
C810 C809 1.434 . S
C811 C812 1.369 . S
C811 C813 1.419 . S
C811 H815 0.930 . S
C812 C811 1.369 . S
C812 C821 1.429 . S
C813 C811 1.419 . S
C813 C814 1.363 . S
C813 H816 0.929 . S
C814 C813 1.363 . S
C814 C820 1.428 . S
H815 C811 0.930 . S
H816 C813 0.929 . S
S817 N818 1.613 . S
S817 N819 1.610 . S
N818 S817 1.613 . S
N818 C821 1.350 . S
N819 S817 1.610 . S
N819 C820 1.351 . S
C820 C814 1.428 . S
C820 N819 1.351 . S
C820 C821 1.434 . S
C821 C812 1.429 . S
C821 N818 1.350 . S
C821 C820 1.434 . S
C822 C823 1.369 . S
C822 C824 1.419 . S
C822 H826 0.930 . S
C823 C822 1.369 . S
C823 C832 1.429 . S
C824 C822 1.419 . S
C824 C825 1.363 . S
C824 H827 0.929 . S
C825 C824 1.363 . S
C825 C831 1.428 . S
H826 C822 0.930 . S
H827 C824 0.929 . S
S828 N829 1.613 . S
S828 N830 1.610 . S
N829 S828 1.613 . S
N829 C832 1.350 . S
N830 S828 1.610 . S
N830 C831 1.351 . S
C831 C825 1.428 . S
C831 N830 1.351 . S
C831 C832 1.434 . S
C832 C823 1.429 . S
C832 N829 1.350 . S
C832 C831 1.434 . S
C833 C834 1.369 . S
C833 C835 1.419 . S
C833 H837 0.930 . S
C834 C833 1.369 . S
C834 C843 1.429 . S
C835 C833 1.419 . S
C835 C836 1.363 . S
C835 H838 0.929 . S
C836 C835 1.363 . S
C836 C842 1.428 . S
H837 C833 0.930 . S
H838 C835 0.929 . S
S839 N840 1.613 . S
S839 N841 1.610 . S
N840 S839 1.613 . S
N840 C843 1.350 . S
N841 S839 1.610 . S
N841 C842 1.351 . S
C842 C836 1.428 . S
C842 N841 1.351 . S
C842 C843 1.434 . S
C843 C834 1.429 . S
C843 N840 1.350 . S
C843 C842 1.434 . S
C844 C845 1.369 . S
C844 C846 1.419 . S
C844 H848 0.930 . S
C845 C844 1.369 . S
C845 C854 1.429 . S
C846 C844 1.419 . S
C846 C847 1.363 . S
C846 H849 0.929 . S
C847 C846 1.363 . S
C847 C853 1.428 . S
H848 C844 0.930 . S
H849 C846 0.929 . S
S850 N851 1.613 . S
S850 N852 1.610 . S
N851 S850 1.613 . S
N851 C854 1.350 . S
N852 S850 1.610 . S
N852 C853 1.351 . S
C853 C847 1.428 . S
C853 N852 1.351 . S
C853 C854 1.434 . S
C854 C845 1.429 . S
C854 N851 1.350 . S
C854 C853 1.434 . S
C855 C856 1.369 . S
C855 C857 1.419 . S
C855 H859 0.930 . S
C856 C855 1.369 . S
C856 C865 1.429 . S
C857 C855 1.419 . S
C857 C858 1.363 . S
C857 H860 0.929 . S
C858 C857 1.363 . S
C858 C864 1.428 . S
H859 C855 0.930 . S
H860 C857 0.929 . S
S861 N862 1.613 . S
S861 N863 1.610 . S
N862 S861 1.613 . S
N862 C865 1.350 . S
N863 S861 1.610 . S
N863 C864 1.351 . S
C864 C858 1.428 . S
C864 N863 1.351 . S
C864 C865 1.434 . S
C865 C856 1.429 . S
C865 N862 1.350 . S
C865 C864 1.434 . S
C866 C867 1.369 . S
C866 C868 1.419 . S
C866 H870 0.930 . S
C867 C866 1.369 . S
C867 C876 1.429 . S
C868 C866 1.419 . S
C868 C869 1.363 . S
C868 H871 0.929 . S
C869 C868 1.363 . S
C869 C875 1.428 . S
H870 C866 0.930 . S
H871 C868 0.929 . S
S872 N873 1.613 . S
S872 N874 1.610 . S
N873 S872 1.613 . S
N873 C876 1.350 . S
N874 S872 1.610 . S
N874 C875 1.351 . S
C875 C869 1.428 . S
C875 N874 1.351 . S
C875 C876 1.434 . S
C876 C867 1.429 . S
C876 N873 1.350 . S
C876 C875 1.434 . S
C877 C878 1.369 . S
C877 C879 1.419 . S
C877 H881 0.930 . S
C878 C877 1.369 . S
C878 C887 1.429 . S
C879 C877 1.419 . S
C879 C880 1.363 . S
C879 H882 0.929 . S
C880 C879 1.363 . S
C880 C886 1.428 . S
H881 C877 0.930 . S
H882 C879 0.929 . S
S883 N884 1.613 . S
S883 N885 1.610 . S
N884 S883 1.613 . S
N884 C887 1.350 . S
N885 S883 1.610 . S
N885 C886 1.351 . S
C886 C880 1.428 . S
C886 N885 1.351 . S
C886 C887 1.434 . S
C887 C878 1.429 . S
C887 N884 1.350 . S
C887 C886 1.434 . S
C888 C889 1.369 . S
C888 C890 1.419 1_554 S
C888 H892 0.930 . S
C889 C888 1.369 . S
C889 C898 1.429 . S
C890 C888 1.419 1_556 S
C890 C891 1.363 . S
C890 H893 0.929 . S
C891 C890 1.363 . S
C891 C897 1.428 . S
H892 C888 0.930 . S
H893 C890 0.929 . S
S894 N895 1.613 1_556 S
S894 N896 1.610 . S
N895 S894 1.613 1_554 S
N895 C898 1.350 . S
N896 S894 1.610 . S
N896 C897 1.351 . S
C897 C891 1.428 . S
C897 N896 1.351 . S
C897 C898 1.434 1_556 S
C898 C889 1.429 . S
C898 N895 1.350 . S
C898 C897 1.434 1_554 S
C899 C900 1.369 . S
C899 C901 1.419 1_556 S
C899 H903 0.930 . S
C900 C899 1.369 . S
C900 C909 1.429 . S
C901 C899 1.419 1_554 S
C901 C902 1.363 . S
C901 H904 0.929 . S
C902 C901 1.363 . S
C902 C908 1.428 . S
H903 C899 0.930 . S
H904 C901 0.929 . S
S905 N906 1.613 . S
S905 N907 1.610 1_556 S
N906 S905 1.613 . S
N906 C909 1.350 . S
N907 S905 1.610 1_554 S
N907 C908 1.351 . S
C908 C902 1.428 . S
C908 N907 1.351 . S
C908 C909 1.434 1_554 S
C909 C900 1.429 . S
C909 N906 1.350 . S
C909 C908 1.434 1_556 S
C910 C911 1.369 . S
C910 C912 1.419 1_554 S
C910 H914 0.930 . S
C911 C910 1.369 . S
C911 C920 1.429 . S
C912 C910 1.419 1_556 S
C912 C913 1.363 . S
C912 H915 0.929 . S
C913 C912 1.363 . S
C913 C919 1.428 . S
H914 C910 0.930 . S
H915 C912 0.929 . S
S916 N917 1.613 1_556 S
S916 N918 1.610 . S
N917 S916 1.613 1_554 S
N917 C920 1.350 . S
N918 S916 1.610 . S
N918 C919 1.351 . S
C919 C913 1.428 . S
C919 N918 1.351 . S
C919 C920 1.434 1_556 S
C920 C911 1.429 . S
C920 N917 1.350 . S
C920 C919 1.434 1_554 S
C921 C922 1.369 . S
C921 C923 1.419 1_554 S
C921 H925 0.930 . S
C922 C921 1.369 . S
C922 C931 1.429 . S
C923 C921 1.419 1_556 S
C923 C924 1.363 . S
C923 H926 0.929 . S
C924 C923 1.363 . S
C924 C930 1.428 . S
H925 C921 0.930 . S
H926 C923 0.929 . S
S927 N928 1.613 1_556 S
S927 N929 1.610 . S
N928 S927 1.613 1_554 S
N928 C931 1.350 . S
N929 S927 1.610 . S
N929 C930 1.351 . S
C930 C924 1.428 . S
C930 N929 1.351 . S
C930 C931 1.434 1_556 S
C931 C922 1.429 . S
C931 N928 1.350 . S
C931 C930 1.434 1_554 S
C932 C933 1.369 . S
C932 C934 1.419 1_554 S
C932 H936 0.930 . S
C933 C932 1.369 . S
C933 C942 1.429 . S
C934 C932 1.419 1_556 S
C934 C935 1.363 . S
C934 H937 0.929 . S
C935 C934 1.363 . S
C935 C941 1.428 . S
H936 C932 0.930 . S
H937 C934 0.929 . S
S938 N939 1.613 . S
S938 N940 1.610 1_554 S
N939 S938 1.613 . S
N939 C942 1.350 . S
N940 S938 1.610 1_556 S
N940 C941 1.351 . S
C941 C935 1.428 . S
C941 N940 1.351 . S
C941 C942 1.434 1_556 S
C942 C933 1.429 . S
C942 N939 1.350 . S
C942 C941 1.434 1_554 S
C943 C944 1.369 . S
C943 C945 1.419 1_554 S
C943 H947 0.930 . S
C944 C943 1.369 . S
C944 C953 1.429 . S
C945 C943 1.419 1_556 S
C945 C946 1.363 . S
C945 H948 0.929 . S
C946 C945 1.363 . S
C946 C952 1.428 . S
H947 C943 0.930 . S
H948 C945 0.929 . S
S949 N950 1.613 1_556 S
S949 N951 1.610 . S
N950 S949 1.613 1_554 S
N950 C953 1.350 . S
N951 S949 1.610 . S
N951 C952 1.351 . S
C952 C946 1.428 . S
C952 N951 1.351 . S
C952 C953 1.434 1_556 S
C953 C944 1.429 . S
C953 N950 1.350 . S
C953 C952 1.434 1_554 S
C954 C955 1.369 . S
C954 C956 1.419 1_556 S
C954 H958 0.930 . S
C955 C954 1.369 . S
C955 C964 1.429 . S
C956 C954 1.419 1_554 S
C956 C957 1.363 . S
C956 H959 0.929 . S
C957 C956 1.363 . S
C957 C963 1.428 . S
H958 C954 0.930 . S
H959 C956 0.929 . S
S960 N961 1.613 1_554 S
S960 N962 1.610 . S
N961 S960 1.613 1_556 S
N961 C964 1.350 . S
N962 S960 1.610 . S
N962 C963 1.351 . S
C963 C957 1.428 . S
C963 N962 1.351 . S
C963 C964 1.434 1_554 S
C964 C955 1.429 . S
C964 N961 1.350 . S
C964 C963 1.434 1_556 S
C965 C966 1.369 . S
C965 C967 1.419 1_556 S
C965 H969 0.930 . S
C966 C965 1.369 . S
C966 C975 1.429 . S
C967 C965 1.419 1_554 S
C967 C968 1.363 . S
C967 H970 0.929 . S
C968 C967 1.363 . S
C968 C974 1.428 . S
H969 C965 0.930 . S
H970 C967 0.929 . S
S971 N972 1.613 . S
S971 N973 1.610 1_556 S
N972 S971 1.613 . S
N972 C975 1.350 . S
N973 S971 1.610 1_554 S
N973 C974 1.351 . S
C974 C968 1.428 . S
C974 N973 1.351 . S
C974 C975 1.434 1_554 S
C975 C966 1.429 . S
C975 N972 1.350 . S
C975 C974 1.434 1_556 S
C976 C977 1.369 . S
C976 C978 1.419 . S
C976 H980 0.930 . S
C977 C976 1.369 . S
C977 C986 1.429 . S
C978 C976 1.419 . S
C978 C979 1.363 . S
C978 H981 0.929 . S
C979 C978 1.363 . S
C979 C985 1.428 . S
H980 C976 0.930 . S
H981 C978 0.929 . S
S982 N983 1.613 . S
S982 N984 1.610 . S
N983 S982 1.613 . S
N983 C986 1.350 . S
N984 S982 1.610 . S
N984 C985 1.351 . S
C985 C979 1.428 . S
C985 N984 1.351 . S
C985 C986 1.434 . S
C986 C977 1.429 . S
C986 N983 1.350 . S
C986 C985 1.434 . S
C987 C988 1.369 . S
C987 C989 1.419 . S
C987 H991 0.930 . S
C988 C987 1.369 . S
C988 C997 1.429 . S
C989 C987 1.419 . S
C989 C990 1.363 . S
C989 H992 0.929 . S
C990 C989 1.363 . S
C990 C996 1.428 . S
H991 C987 0.930 . S
H992 C989 0.929 . S
S993 N994 1.613 . S
S993 N995 1.610 . S
N994 S993 1.613 . S
N994 C997 1.350 . S
N995 S993 1.610 . S
N995 C996 1.351 . S
C996 C990 1.428 . S
C996 N995 1.351 . S
C996 C997 1.434 . S
C997 C988 1.429 . S
C997 N994 1.350 . S
C997 C996 1.434 . S
C998 C999 1.369 . S
C998 C1000 1.419 . S
C998 H1002 0.930 . S
C999 C998 1.369 . S
C999 C1008 1.429 . S
C1000 C998 1.419 . S
C1000 C1001 1.363 . S
C1000 H1003 0.929 . S
C1001 C1000 1.363 . S
C1001 C1007 1.428 . S
H1002 C998 0.930 . S
H1003 C1000 0.929 . S
S1004 N1005 1.613 . S
S1004 N1006 1.610 . S
N1005 S1004 1.613 . S
N1005 C1008 1.350 . S
N1006 S1004 1.610 . S
N1006 C1007 1.351 . S
C1007 C1001 1.428 . S
C1007 N1006 1.351 . S
C1007 C1008 1.434 . S
C1008 C999 1.429 . S
C1008 N1005 1.350 . S
C1008 C1007 1.434 . S
C1009 C1010 1.369 . S
C1009 C1011 1.419 . S
C1009 H1013 0.930 . S
C1010 C1009 1.369 . S
C1010 C1019 1.429 . S
C1011 C1009 1.419 . S
C1011 C1012 1.363 . S
C1011 H1014 0.929 . S
C1012 C1011 1.363 . S
C1012 C1018 1.428 . S
H1013 C1009 0.930 . S
H1014 C1011 0.929 . S
S1015 N1016 1.613 . S
S1015 N1017 1.610 . S
N1016 S1015 1.613 . S
N1016 C1019 1.350 . S
N1017 S1015 1.610 . S
N1017 C1018 1.351 . S
C1018 C1012 1.428 . S
C1018 N1017 1.351 . S
C1018 C1019 1.434 . S
C1019 C1010 1.429 . S
C1019 N1016 1.350 . S
C1019 C1018 1.434 . S
C1020 C1021 1.369 . S
C1020 C1022 1.419 . S
C1020 H1024 0.930 . S
C1021 C1020 1.369 . S
C1021 C1030 1.429 . S
C1022 C1020 1.419 . S
C1022 C1023 1.363 . S
C1022 H1025 0.929 . S
C1023 C1022 1.363 . S
C1023 C1029 1.428 . S
H1024 C1020 0.930 . S
H1025 C1022 0.929 . S
S1026 N1027 1.613 . S
S1026 N1028 1.610 . S
N1027 S1026 1.613 . S
N1027 C1030 1.350 . S
N1028 S1026 1.610 . S
N1028 C1029 1.351 . S
C1029 C1023 1.428 . S
C1029 N1028 1.351 . S
C1029 C1030 1.434 . S
C1030 C1021 1.429 . S
C1030 N1027 1.350 . S
C1030 C1029 1.434 . S
C1031 C1032 1.369 . S
C1031 C1033 1.419 . S
C1031 H1035 0.930 . S
C1032 C1031 1.369 . S
C1032 C1041 1.429 . S
C1033 C1031 1.419 . S
C1033 C1034 1.363 . S
C1033 H1036 0.929 . S
C1034 C1033 1.363 . S
C1034 C1040 1.428 . S
H1035 C1031 0.930 . S
H1036 C1033 0.929 . S
S1037 N1038 1.613 . S
S1037 N1039 1.610 . S
N1038 S1037 1.613 . S
N1038 C1041 1.350 . S
N1039 S1037 1.610 . S
N1039 C1040 1.351 . S
C1040 C1034 1.428 . S
C1040 N1039 1.351 . S
C1040 C1041 1.434 . S
C1041 C1032 1.429 . S
C1041 N1038 1.350 . S
C1041 C1040 1.434 . S
C1042 C1043 1.369 . S
C1042 C1044 1.419 . S
C1042 H1046 0.930 . S
C1043 C1042 1.369 . S
C1043 C1052 1.429 . S
C1044 C1042 1.419 . S
C1044 C1045 1.363 . S
C1044 H1047 0.929 . S
C1045 C1044 1.363 . S
C1045 C1051 1.428 . S
H1046 C1042 0.930 . S
H1047 C1044 0.929 . S
S1048 N1049 1.613 . S
S1048 N1050 1.610 . S
N1049 S1048 1.613 . S
N1049 C1052 1.350 . S
N1050 S1048 1.610 . S
N1050 C1051 1.351 . S
C1051 C1045 1.428 . S
C1051 N1050 1.351 . S
C1051 C1052 1.434 . S
C1052 C1043 1.429 . S
C1052 N1049 1.350 . S
C1052 C1051 1.434 . S
C1053 C1054 1.369 . S
C1053 C1055 1.419 . S
C1053 H1057 0.930 . S
C1054 C1053 1.369 . S
C1054 C1063 1.429 . S
C1055 C1053 1.419 . S
C1055 C1056 1.363 . S
C1055 H1058 0.929 . S
C1056 C1055 1.363 . S
C1056 C1062 1.428 . S
H1057 C1053 0.930 . S
H1058 C1055 0.929 . S
S1059 N1060 1.613 . S
S1059 N1061 1.610 . S
N1060 S1059 1.613 . S
N1060 C1063 1.350 . S
N1061 S1059 1.610 . S
N1061 C1062 1.351 . S
C1062 C1056 1.428 . S
C1062 N1061 1.351 . S
C1062 C1063 1.434 . S
C1063 C1054 1.429 . S
C1063 N1060 1.350 . S
C1063 C1062 1.434 . S
C1064 C1065 1.369 . S
C1064 C1066 1.419 . S
C1064 H1068 0.930 . S
C1065 C1064 1.369 . S
C1065 C1074 1.429 . S
C1066 C1064 1.419 . S
C1066 C1067 1.363 . S
C1066 H1069 0.929 . S
C1067 C1066 1.363 . S
C1067 C1073 1.428 . S
H1068 C1064 0.930 . S
H1069 C1066 0.929 . S
S1070 N1071 1.613 . S
S1070 N1072 1.610 . S
N1071 S1070 1.613 . S
N1071 C1074 1.350 . S
N1072 S1070 1.610 . S
N1072 C1073 1.351 . S
C1073 C1067 1.428 . S
C1073 N1072 1.351 . S
C1073 C1074 1.434 . S
C1074 C1065 1.429 . S
C1074 N1071 1.350 . S
C1074 C1073 1.434 . S
C1075 C1076 1.369 . S
C1075 C1077 1.419 . S
C1075 H1079 0.930 . S
C1076 C1075 1.369 . S
C1076 C1085 1.429 . S
C1077 C1075 1.419 . S
C1077 C1078 1.363 . S
C1077 H1080 0.929 . S
C1078 C1077 1.363 . S
C1078 C1084 1.428 . S
H1079 C1075 0.930 . S
H1080 C1077 0.929 . S
S1081 N1082 1.613 . S
S1081 N1083 1.610 . S
N1082 S1081 1.613 . S
N1082 C1085 1.350 . S
N1083 S1081 1.610 . S
N1083 C1084 1.351 . S
C1084 C1078 1.428 . S
C1084 N1083 1.351 . S
C1084 C1085 1.434 . S
C1085 C1076 1.429 . S
C1085 N1082 1.350 . S
C1085 C1084 1.434 . S
C1086 C1087 1.369 . S
C1086 C1088 1.419 . S
C1086 H1090 0.930 . S
C1087 C1086 1.369 . S
C1087 C1096 1.429 . S
C1088 C1086 1.419 . S
C1088 C1089 1.363 . S
C1088 H1091 0.929 . S
C1089 C1088 1.363 . S
C1089 C1095 1.428 . S
H1090 C1086 0.930 . S
H1091 C1088 0.929 . S
S1092 N1093 1.613 . S
S1092 N1094 1.610 . S
N1093 S1092 1.613 . S
N1093 C1096 1.350 . S
N1094 S1092 1.610 . S
N1094 C1095 1.351 . S
C1095 C1089 1.428 . S
C1095 N1094 1.351 . S
C1095 C1096 1.434 . S
C1096 C1087 1.429 . S
C1096 N1093 1.350 . S
C1096 C1095 1.434 . S
C1097 C1098 1.369 . S
C1097 C1099 1.419 . S
C1097 H1101 0.930 . S
C1098 C1097 1.369 . S
C1098 C1107 1.429 . S
C1099 C1097 1.419 . S
C1099 C1100 1.363 . S
C1099 H1102 0.929 . S
C1100 C1099 1.363 . S
C1100 C1106 1.428 . S
H1101 C1097 0.930 . S
H1102 C1099 0.929 . S
S1103 N1104 1.613 . S
S1103 N1105 1.610 . S
N1104 S1103 1.613 . S
N1104 C1107 1.350 . S
N1105 S1103 1.610 . S
N1105 C1106 1.351 . S
C1106 C1100 1.428 . S
C1106 N1105 1.351 . S
C1106 C1107 1.434 . S
C1107 C1098 1.429 . S
C1107 N1104 1.350 . S
C1107 C1106 1.434 . S
C1108 C1109 1.369 . S
C1108 C1110 1.419 . S
C1108 H1112 0.930 . S
C1109 C1108 1.369 . S
C1109 C1118 1.429 . S
C1110 C1108 1.419 . S
C1110 C1111 1.363 . S
C1110 H1113 0.929 . S
C1111 C1110 1.363 . S
C1111 C1117 1.428 . S
H1112 C1108 0.930 . S
H1113 C1110 0.929 . S
S1114 N1115 1.613 . S
S1114 N1116 1.610 . S
N1115 S1114 1.613 . S
N1115 C1118 1.350 . S
N1116 S1114 1.610 . S
N1116 C1117 1.351 . S
C1117 C1111 1.428 . S
C1117 N1116 1.351 . S
C1117 C1118 1.434 . S
C1118 C1109 1.429 . S
C1118 N1115 1.350 . S
C1118 C1117 1.434 . S
C1119 C1120 1.369 . S
C1119 C1121 1.419 . S
C1119 H1123 0.930 . S
C1120 C1119 1.369 . S
C1120 C1129 1.429 . S
C1121 C1119 1.419 . S
C1121 C1122 1.363 . S
C1121 H1124 0.929 . S
C1122 C1121 1.363 . S
C1122 C1128 1.428 . S
H1123 C1119 0.930 . S
H1124 C1121 0.929 . S
S1125 N1126 1.613 . S
S1125 N1127 1.610 . S
N1126 S1125 1.613 . S
N1126 C1129 1.350 . S
N1127 S1125 1.610 . S
N1127 C1128 1.351 . S
C1128 C1122 1.428 . S
C1128 N1127 1.351 . S
C1128 C1129 1.434 . S
C1129 C1120 1.429 . S
C1129 N1126 1.350 . S
C1129 C1128 1.434 . S
C1130 C1131 1.369 . S
C1130 C1132 1.419 . S
C1130 H1134 0.930 . S
C1131 C1130 1.369 . S
C1131 C1140 1.429 . S
C1132 C1130 1.419 . S
C1132 C1133 1.363 . S
C1132 H1135 0.929 . S
C1133 C1132 1.363 . S
C1133 C1139 1.428 . S
H1134 C1130 0.930 . S
H1135 C1132 0.929 . S
S1136 N1137 1.613 . S
S1136 N1138 1.610 . S
N1137 S1136 1.613 . S
N1137 C1140 1.350 . S
N1138 S1136 1.610 . S
N1138 C1139 1.351 . S
C1139 C1133 1.428 . S
C1139 N1138 1.351 . S
C1139 C1140 1.434 . S
C1140 C1131 1.429 . S
C1140 N1137 1.350 . S
C1140 C1139 1.434 . S
C1141 C1142 1.369 . S
C1141 C1143 1.419 . S
C1141 H1145 0.930 . S
C1142 C1141 1.369 . S
C1142 C1151 1.429 . S
C1143 C1141 1.419 . S
C1143 C1144 1.363 . S
C1143 H1146 0.929 . S
C1144 C1143 1.363 . S
C1144 C1150 1.428 . S
H1145 C1141 0.930 . S
H1146 C1143 0.929 . S
S1147 N1148 1.613 . S
S1147 N1149 1.610 . S
N1148 S1147 1.613 . S
N1148 C1151 1.350 . S
N1149 S1147 1.610 . S
N1149 C1150 1.351 . S
C1150 C1144 1.428 . S
C1150 N1149 1.351 . S
C1150 C1151 1.434 . S
C1151 C1142 1.429 . S
C1151 N1148 1.350 . S
C1151 C1150 1.434 . S
C449 C215 1.465 . S
C451 C5 1.465 . S
C460 C19 1.478 . S
C462 C177 1.471 . S
C471 C33 1.465 . S
C473 C187 1.466 . S
C482 C205 1.471 . S
C484 C47 1.477 . S
C493 C61 1.465 . S
C495 C131 1.466 . S
C504 C75 1.477 . S
C506 C149 1.471 . S
C515 C159 1.466 . S
C517 C89 1.464 . S
C526 C121 1.474 . S
C528 C103 1.479 . S
C537 C229 1.463 . S
C539 C439 1.465 . S
C548 C243 1.477 . S
C550 C401 1.471 . S
C559 C257 1.465 . S
C561 C411 1.466 . S
C570 C429 1.474 . S
C572 C271 1.478 . S
C581 C285 1.464 . S
C583 C355 1.465 . S
C592 C299 1.479 . S
C594 C373 1.473 . S
C603 C383 1.466 . S
C605 C313 1.464 . S
C614 C327 1.477 . S
C616 C345 1.473 . S
C625 C168 1.420 . S
C627 C11 1.420 . S
C636 C25 1.424 . S
C638 C193 1.428 . S
C647 C196 1.420 . S
C649 C39 1.419 . S
C658 C53 1.424 . S
C660 C221 1.428 . S
C669 C67 1.417 . S
C671 C112 1.418 . S
C680 C137 1.431 . S
C682 C81 1.427 . S
C691 C140 1.421 . S
C693 C95 1.420 . S
C702 C165 1.431 . S
C704 C109 1.427 . S
C713 C235 1.421 . S
C715 C392 1.421 . S
C724 C417 1.428 . S
C726 C249 1.424 . S
C735 C263 1.418 . S
C737 C420 1.419 . S
C746 C277 1.424 . S
C748 C445 1.428 . S
C757 C336 1.421 . S
C759 C291 1.421 . S
C768 C305 1.426 . S
C770 C361 1.430 . S
C779 C319 1.417 . S
C781 C364 1.418 . S
C790 C333 1.425 . S
C792 C389 1.429 . S
C801 C9 1.364 . S
C803 C145 1.372 . S
C812 C163 1.364 . S
C814 C23 1.360 . S
C823 C37 1.368 . S
C825 C117 1.375 . S
C834 C135 1.368 . S
C836 C51 1.364 . S
C845 C201 1.376 . S
C847 C65 1.369 . S
C856 C219 1.369 . S
C858 C79 1.365 . S
C867 C173 1.376 . S
C869 C93 1.369 . S
C878 C107 1.360 . S
C880 C191 1.365 . S
C889 C369 1.371 . S
C891 C233 1.364 . S
C900 C247 1.360 . S
C902 C387 1.365 . S
C911 C341 1.376 . S
C913 C261 1.369 . S
C922 C359 1.366 . S
C924 C275 1.363 . S
C933 C289 1.365 . S
C935 C425 1.372 . S
C944 C303 1.364 . S
C946 C443 1.368 . S
C955 C397 1.376 . S
C957 C317 1.369 . S
C966 C415 1.370 . S
C968 C331 1.365 . S
C977 C322 1.377 . S
C979 C0 1.380 . S
C988 C280 1.384 . S
C990 C14 1.380 . S
C999 C294 1.383 . S
C1001 C28 1.382 . S
C1010 C308 1.384 . S
C1012 C42 1.380 . S
C1021 C238 1.379 . S
C1023 C56 1.383 . S
C1032 C70 1.379 . S
C1034 C252 1.380 . S
C1043 C84 1.384 . S
C1045 C266 1.382 . S
C1054 C98 1.379 . S
C1056 C224 1.380 . S
C1065 C123 1.284 . S
C1067 C434 1.279 . S
C1076 C403 1.287 . S
C1078 C126 1.281 . S
C1087 C151 1.281 . S
C1089 C406 1.281 . S
C1098 C154 1.283 . S
C1100 C431 1.282 . S
C1109 C350 1.283 . S
C1111 C179 1.286 . S
C1120 C375 1.287 . S
C1122 C182 1.282 . S
C1131 C207 1.286 . S
C1133 C378 1.283 . S
C1142 C210 1.279 . S
C1144 C347 1.282 . S
