# Generated by pormake.
# Topology wmn, (6)-cn, num edge types: 1
# Building blocks:
#     Node 0, Type 0, BuildingBlock: KUMJIN_clean_sbu_1, # of connection points: 6
#     Node 1, Type 0, BuildingBlock: KUMJIN_clean_sbu_1, # of connection points: 6
#     Node 2, Type 0, BuildingBlock: KUMJIN_clean_sbu_1, # of connection points: 6
#     Node 3, Type 0, BuildingBlock: KUMJIN_clean_sbu_1, # of connection points: 6
#     Node 4, Type 0, BuildingBlock: KUMJIN_clean_sbu_1, # of connection points: 6
#     Node 5, Type 0, BuildingBlock: KUMJIN_clean_sbu_1, # of connection points: 6
#     Node 6, Type 0, BuildingBlock: KUMJIN_clean_sbu_1, # of connection points: 6
#     Node 7, Type 0, BuildingBlock: KUMJIN_clean_sbu_1, # of connection points: 6
#     Node 8, Type 0, BuildingBlock: KUMJIN_clean_sbu_1, # of connection points: 6
#     Node 9, Type 0, BuildingBlock: KUMJIN_clean_sbu_1, # of connection points: 6
#     Node 10, Type 0, BuildingBlock: KUMJIN_clean_sbu_1, # of connection points: 6
#     Node 11, Type 0, BuildingBlock: KUMJIN_clean_sbu_1, # of connection points: 6
#     Edge 12, Type (0, 0), BuildingBlock: XIVTED_clean_linker_0, # of connection points: 2
#     Edge 13, Type (0, 0), BuildingBlock: XIVTED_clean_linker_0, # of connection points: 2
#     Edge 14, Type (0, 0), BuildingBlock: XIVTED_clean_linker_0, # of connection points: 2
#     Edge 15, Type (0, 0), BuildingBlock: XIVTED_clean_linker_0, # of connection points: 2
#     Edge 16, Type (0, 0), BuildingBlock: XIVTED_clean_linker_0, # of connection points: 2
#     Edge 17, Type (0, 0), BuildingBlock: XIVTED_clean_linker_0, # of connection points: 2
#     Edge 18, Type (0, 0), BuildingBlock: XIVTED_clean_linker_0, # of connection points: 2
#     Edge 19, Type (0, 0), BuildingBlock: XIVTED_clean_linker_0, # of connection points: 2
#     Edge 20, Type (0, 0), BuildingBlock: XIVTED_clean_linker_0, # of connection points: 2
#     Edge 21, Type (0, 0), BuildingBlock: XIVTED_clean_linker_0, # of connection points: 2
#     Edge 22, Type (0, 0), BuildingBlock: XIVTED_clean_linker_0, # of connection points: 2
#     Edge 23, Type (0, 0), BuildingBlock: XIVTED_clean_linker_0, # of connection points: 2
#     Edge 24, Type (0, 0), BuildingBlock: XIVTED_clean_linker_0, # of connection points: 2
#     Edge 25, Type (0, 0), BuildingBlock: XIVTED_clean_linker_0, # of connection points: 2
#     Edge 26, Type (0, 0), BuildingBlock: XIVTED_clean_linker_0, # of connection points: 2
#     Edge 27, Type (0, 0), BuildingBlock: XIVTED_clean_linker_0, # of connection points: 2
#     Edge 28, Type (0, 0), BuildingBlock: XIVTED_clean_linker_0, # of connection points: 2
#     Edge 29, Type (0, 0), BuildingBlock: XIVTED_clean_linker_0, # of connection points: 2
#     Edge 30, Type (0, 0), BuildingBlock: XIVTED_clean_linker_0, # of connection points: 2
#     Edge 31, Type (0, 0), BuildingBlock: XIVTED_clean_linker_0, # of connection points: 2
#     Edge 32, Type (0, 0), BuildingBlock: XIVTED_clean_linker_0, # of connection points: 2
#     Edge 33, Type (0, 0), BuildingBlock: XIVTED_clean_linker_0, # of connection points: 2
#     Edge 34, Type (0, 0), BuildingBlock: XIVTED_clean_linker_0, # of connection points: 2
#     Edge 35, Type (0, 0), BuildingBlock: XIVTED_clean_linker_0, # of connection points: 2
#     Edge 36, Type (0, 0), BuildingBlock: XIVTED_clean_linker_0, # of connection points: 2
#     Edge 37, Type (0, 0), BuildingBlock: XIVTED_clean_linker_0, # of connection points: 2
#     Edge 38, Type (0, 0), BuildingBlock: XIVTED_clean_linker_0, # of connection points: 2
#     Edge 39, Type (0, 0), BuildingBlock: XIVTED_clean_linker_0, # of connection points: 2
#     Edge 40, Type (0, 0), BuildingBlock: XIVTED_clean_linker_0, # of connection points: 2
#     Edge 41, Type (0, 0), BuildingBlock: XIVTED_clean_linker_0, # of connection points: 2
#     Edge 42, Type (0, 0), BuildingBlock: XIVTED_clean_linker_0, # of connection points: 2
#     Edge 43, Type (0, 0), BuildingBlock: XIVTED_clean_linker_0, # of connection points: 2
#     Edge 44, Type (0, 0), BuildingBlock: XIVTED_clean_linker_0, # of connection points: 2
#     Edge 45, Type (0, 0), BuildingBlock: XIVTED_clean_linker_0, # of connection points: 2
#     Edge 46, Type (0, 0), BuildingBlock: XIVTED_clean_linker_0, # of connection points: 2
#     Edge 47, Type (0, 0), BuildingBlock: XIVTED_clean_linker_0, # of connection points: 2
# Relax obj value: 0.142
# Max RMSD: 0.301
# Mean RMSD: 0.301
data_MOF--net-wmn--node1-KUMJIN_clean_sbu_1--edge1-XIVTED_clean_linker_0
_symmetry_space_group_name_H-M    P1
_symmetry_Int_Tables_number       1
_symmetry_cell_setting            triclinic
loop_
_symmetry_equiv_pos_as_xyz
'x, y, z'
_cell_length_a     58.695627
_cell_length_b     58.799402
_cell_length_c     24.180338
_cell_angle_alpha  89.928659
_cell_angle_beta   90.127315
_cell_angle_gamma 119.89333
loop_
_atom_site_label
_atom_site_type_symbol
_atom_site_fract_x
_atom_site_fract_y
_atom_site_fract_z
_atom_type_partial_charge
Eu0 Eu 0.12806 0.41166 0.04066 0.0
C1 C 0.09519 0.28952 0.03067 0.0
N2 N 0.10084 0.30619 0.07414 0.0
C3 C 0.06257 0.27371 0.12189 0.0
C4 C 0.07199 0.26484 0.02983 0.0
C5 C 0.08584 0.29791 0.1208 0.0
C6 C 0.0553 0.25732 0.07572 0.0
C7 C 0.10804 0.27989 0.9422 0.0
C8 C 0.11311 0.29681 0.98756 0.0
C9 C 0.08448 0.25575 0.94029 0.0
C10 C 0.06651 0.24824 0.984 0.0
Eu11 Eu 0.1397 0.34753 0.06581 0.0
N12 N 0.13546 0.32055 0.9899 0.0
C13 C 0.12686 0.28776 0.90017 0.0
C14 C 0.15429 0.32789 0.9503 0.0
C15 C 0.15025 0.31173 0.90465 0.0
H16 H 0.09205 0.30949 0.15789 0.0
H17 H 0.16521 0.31772 0.87307 0.0
H18 H 0.17456 0.43873 0.93833 0.0
H19 H 0.1253 0.4556 0.23691 0.0
H20 H 0.1726 0.34602 0.95453 0.0
H21 H 0.12371 0.27534 0.86459 0.0
H22 H 0.10737 0.42375 0.15953 0.0
H23 H 0.05049 0.26753 0.15868 0.0
H24 H 0.08012 0.24259 0.90552 0.0
H25 H 0.04864 0.22935 0.9824 0.0
H26 H 0.22068 0.47289 0.92949 0.0
H27 H 0.03732 0.23851 0.07676 0.0
H28 H 0.17182 0.49096 0.23545 0.0
N29 N 0.17223 0.44517 0.02448 0.0
C30 C 0.18373 0.4627 0.06662 0.0
C31 C 0.21075 0.46984 0.96876 0.0
C32 C 0.20987 0.48357 0.0623 0.0
C33 C 0.18469 0.44977 0.9746 0.0
C34 C 0.2236 0.48647 0.0132 0.0
N35 N 0.1435 0.44111 0.11571 0.0
C36 C 0.12764 0.43937 0.15867 0.0
C37 C 0.17989 0.47933 0.15623 0.0
C38 C 0.16886 0.46092 0.11295 0.0
C39 C 0.16403 0.47717 0.20142 0.0
C40 C 0.13774 0.45724 0.20241 0.0
H41 H 0.24368 0.50224 0.00826 0.0
H42 H 0.24127 0.51748 0.10352 0.0
H43 H 0.21509 0.51362 0.18587 0.0
O44 O 0.09821 0.42345 0.04977 0.0
O45 O 0.14668 0.40827 0.12084 0.0
O46 O 0.1669 0.3906 0.07604 0.0
O47 O 0.12239 0.43504 0.97729 0.0
O48 O 0.09702 0.37822 0.09076 0.0
O49 O 0.11518 0.35439 0.13077 0.0
O50 O 0.17041 0.33653 0.06786 0.0
O51 O 0.1112 0.34264 -0.00306 0.0
O52 O 0.09537 0.37154 0.01267 0.0
O53 O 0.1514 0.33797 0.1446 0.0
O54 O 0.16659 0.38233 0.01272 0.0
O55 O 0.14146 0.39649 0.96743 0.0
C56 C 0.16478 0.40161 0.1206 0.0
C57 C 0.10858 0.46419 0.01054 0.0
C58 C 0.09028 0.4937 0.01467 0.0
C59 C 0.11589 0.51485 0.02317 0.0
C60 C 0.1338 0.48566 0.01945 0.0
C61 C 0.13737 0.51081 0.02559 0.0
C62 C 0.08685 0.46827 0.00814 0.0
C63 C 0.09689 0.36132 0.12699 0.0
C64 C 0.10476 0.43748 0.00508 0.0
C65 C 0.22116 0.5015 0.10606 0.0
C66 C 0.20622 0.49938 0.15288 0.0
C67 C 0.09294 0.34935 0.99358 0.0
C68 C 0.18553 0.32588 0.15325 0.0
C69 C 0.21872 0.31217 0.15739 0.0
C70 C 0.21773 0.31264 0.21547 0.0
C71 C 0.18499 0.32613 0.21129 0.0
C72 C 0.2026 0.31902 0.12641 0.0
C73 C 0.20108 0.31966 0.24202 0.0
C74 C 0.15894 0.38858 0.96684 0.0
C75 C 0.16898 0.3337 0.12134 0.0
H76 H 0.11943 0.53469 0.02729 0.0
H77 H 0.15075 0.48301 0.02155 0.0
H78 H 0.15692 0.52728 0.03217 0.0
H79 H 0.06733 0.45162 0.00212 0.0
H80 H 0.23022 0.30803 0.2405 0.0
H81 H 0.17239 0.33167 0.23307 0.0
H82 H 0.20318 0.31877 0.08163 0.0
H83 H 0.20083 0.32029 0.28667 0.0
Eu84 Eu 0.61061 0.71923 0.04651 0.0
C85 C 0.7396 0.80661 0.02902 0.0
N86 N 0.72396 0.80003 0.0743 0.0
C87 C 0.75758 0.7992 0.12931 0.0
C88 C 0.76442 0.80832 0.03146 0.0
C89 C 0.73323 0.79794 0.1247 0.0
C90 C 0.77303 0.80385 0.0822 0.0
C91 C 0.74763 0.82142 0.93374 0.0
C92 C 0.73148 0.81332 0.98105 0.0
C93 C 0.77179 0.82188 0.93505 0.0
C94 C 0.78018 0.81536 0.98384 0.0
Eu95 Eu 0.68216 0.79611 0.06138 0.0
N96 N 0.70803 0.8126 0.98112 0.0
C97 C 0.73909 0.82906 0.8868 0.0
C98 C 0.70006 0.821 0.93647 0.0
C99 C 0.71531 0.8291 0.88839 0.0
H100 H 0.72208 0.79583 0.1616 0.0
H101 H 0.70873 0.8354 0.85268 0.0
H102 H 0.58207 0.73659 0.94315 0.0
H103 H 0.56944 0.67204 0.2443 0.0
H104 H 0.68193 0.82136 0.93801 0.0
H105 H 0.75088 0.83535 0.84955 0.0
H106 H 0.60278 0.69032 0.16977 0.0
H107 H 0.76458 0.79695 0.16926 0.0
H108 H 0.78436 0.82776 0.89895 0.0
H109 H 0.79916 0.81647 0.98473 0.0
H110 H 0.54314 0.74099 0.93012 0.0
H111 H 0.79199 0.80503 0.0859 0.0
H112 H 0.52839 0.6739 0.23591 0.0
N113 N 0.5737 0.7244 0.02738 0.0
C114 C 0.55463 0.71482 0.06711 0.0
C115 C 0.54639 0.73414 0.96931 0.0
C116 C 0.53126 0.71586 0.06015 0.0
C117 C 0.56905 0.73242 0.97764 0.0
C118 C 0.52761 0.72624 0.01105 0.0
N119 N 0.58069 0.70248 0.12072 0.0
C120 C 0.58483 0.69114 0.16609 0.0
C121 C 0.53856 0.69309 0.15597 0.0
C122 C 0.55796 0.70314 0.11441 0.0
C123 C 0.54286 0.68185 0.20315 0.0
C124 C 0.56605 0.68081 0.20812 0.0
H125 H 0.50994 0.72734 0.00416 0.0
H126 H 0.49401 0.70675 0.09696 0.0
H127 H 0.50051 0.68705 0.1809 0.0
O128 O 0.59505 0.67715 0.05708 0.0
O129 O 0.60745 0.74104 0.12153 0.0
O130 O 0.6424 0.76767 0.08142 0.0
O131 O 0.59228 0.69187 0.97739 0.0
O132 O 0.64353 0.72248 0.10321 0.0
O133 O 0.67827 0.76538 0.12541 0.0
O134 O 0.68644 0.83522 0.05788 0.0
O135 O 0.67765 0.76923 0.99008 0.0
O136 O 0.65154 0.72639 0.02217 0.0
O137 O 0.69227 0.8204 0.13546 0.0
O138 O 0.64564 0.7915 0.0173 0.0
O139 O 0.62447 0.75008 0.97612 0.0
C140 C 0.6272 0.76421 0.12283 0.0
C141 C 0.59326 0.65188 0.98038 0.0
C142 C 0.58011 0.60573 0.96517 0.0
C143 C 0.60353 0.61395 0.93535 0.0
C144 C 0.61654 0.65961 0.95094 0.0
C145 C 0.62154 0.64067 0.92841 0.0
C146 C 0.57522 0.62502 0.98752 0.0
C147 C 0.66511 0.73932 0.13096 0.0
C148 C 0.58769 0.67125 0.00607 0.0
C149 C 0.51198 0.70598 0.10166 0.0
C150 C 0.51562 0.69465 0.14939 0.0
C151 C 0.67259 0.74488 -0.00376 0.0
C152 C 0.71698 0.86642 0.12043 0.0
C153 C 0.73698 0.91419 0.12132 0.0
C154 C 0.76035 0.91615 0.14178 0.0
C155 C 0.74057 0.86884 0.14038 0.0
C156 C 0.7153 0.88912 0.11103 0.0
C157 C 0.76207 0.8936 0.15115 0.0
C158 C 0.63297 0.77573 0.97532 0.0
C159 C 0.69384 0.84055 0.10931 0.0
H160 H 0.60784 0.59976 0.91686 0.0
H161 H 0.63081 0.68021 0.9456 0.0
H162 H 0.63949 0.64671 0.90551 0.0
H163 H 0.55759 0.61923 0.01155 0.0
H164 H 0.77749 0.93513 0.14948 0.0
H165 H 0.74241 0.85165 0.14767 0.0
H166 H 0.697 0.8872 0.09603 0.0
H167 H 0.78021 0.89535 0.16649 0.0
Eu168 Eu 0.31173 0.89864 0.03794 0.0
C169 C 0.23703 0.94796 0.99189 0.0
N170 N 0.2399 0.93728 0.03936 0.0
C171 C 0.2399 0.97181 0.09211 0.0
C172 C 0.23653 0.9717 0.99255 0.0
C173 C 0.23972 0.94797 0.0893 0.0
C174 C 0.23881 0.98401 0.0434 0.0
C175 C 0.2277 0.94361 0.89349 0.0
C176 C 0.23283 0.93421 0.94298 0.0
C177 C 0.22822 0.96775 0.89352 0.0
C178 C 0.23277 0.98184 0.9429 0.0
Eu179 Eu 0.24169 0.89809 0.0302 0.0
N180 N 0.23288 0.91116 0.9441 0.0
C181 C 0.22195 0.9283 0.84563 0.0
C182 C 0.22573 0.89542 0.89851 0.0
C183 C 0.22062 0.90392 0.84835 0.0
H184 H 0.23895 0.93787 0.1271 0.0
H185 H 0.21551 0.89162 0.81196 0.0
H186 H 0.29422 0.84257 0.96974 0.0
H187 H 0.34224 0.92468 0.25398 0.0
H188 H 0.22416 0.87642 0.90095 0.0
H189 H 0.21795 0.93484 0.80676 0.0
H190 H 0.33556 0.93319 0.15759 0.0
H191 H 0.2404 0.9805 0.13185 0.0
H192 H 0.22475 0.97551 0.85576 0.0
H193 H 0.23265 1.00021 0.9425 0.0
H194 H 0.28613 0.79803 0.99005 0.0
H195 H 0.2386 1.00231 0.04567 0.0
H196 H 0.33328 0.88054 0.28201 0.0
N197 N 0.30381 0.85569 0.05288 0.0
C198 C 0.3085 0.85015 0.10494 0.0
C199 C 0.29217 0.81243 0.02282 0.0
C200 C 0.30414 0.82494 0.11832 0.0
C201 C 0.2965 0.83761 0.01156 0.0
C202 C 0.29578 0.80598 0.0765 0.0
N203 N 0.32091 0.89374 0.13132 0.0
C204 C 0.33056 0.91358 0.16925 0.0
C205 C 0.32114 0.86406 0.20002 0.0
C206 C 0.31697 0.86958 0.14534 0.0
C207 C 0.32989 0.88403 0.23957 0.0
C208 C 0.33486 0.90894 0.22396 0.0
H209 H 0.29228 0.78641 0.08511 0.0
H210 H 0.3048 0.80012 0.18389 0.0
H211 H 0.3196 0.8343 0.25538 0.0
O212 O 0.35405 0.91664 0.05335 0.0
O213 O 0.27416 0.86707 0.08068 0.0
O214 O 0.25422 0.88958 0.11178 0.0
O215 O 0.33856 0.90047 0.97309 0.0
O216 O 0.31216 0.93409 0.07694 0.0
O217 O 0.26915 0.92257 0.10112 0.0
O218 O 0.20781 0.8584 0.02785 0.0
O219 O 0.27158 0.91579 0.96112 0.0
O220 O 0.31151 0.93466 0.00388 0.0
O221 O 0.20275 0.89049 0.05516 0.0
O222 O 0.24659 0.86456 -0.00294 0.0
O223 O 0.28774 0.88111 0.95942 0.0
C224 C 0.26121 0.87182 0.11902 0.0
C225 C 0.38033 0.93931 0.97666 0.0
C226 C 0.42666 0.97355 0.96661 0.0
C227 C 0.4186 0.98739 0.93163 0.0
C228 C 0.37304 0.95381 0.942 0.0
C229 C 0.39207 0.97759 0.91955 0.0
C230 C 0.40724 0.94924 0.98881 0.0
C231 C 0.29501 0.93781 0.10522 0.0
C232 C 0.35974 0.91469 0.0023 0.0
C233 C 0.30815 0.81941 0.17281 0.0
C234 C 0.31656 0.83888 0.21354 0.0
C235 C 0.29501 0.93601 0.96901 0.0
C236 C 0.17469 0.8488 0.09369 0.0
C237 C 0.13139 0.81432 0.12446 0.0
C238 C 0.14134 0.81759 0.17872 0.0
C239 C 0.1842 0.85168 0.14795 0.0
C240 C 0.14852 0.83 0.08205 0.0
C241 C 0.16757 0.83602 0.19019 0.0
C242 C 0.26205 0.86549 0.9568 0.0
C243 C 0.19167 0.86523 0.04857 0.0
H244 H 0.43287 1.0058 0.91298 0.0
H245 H 0.35258 0.94681 0.93238 0.0
H246 H 0.38622 0.98853 0.8927 0.0
H247 H 0.41292 0.93836 0.01634 0.0
H248 H 0.12882 0.80619 0.21253 0.0
H249 H 0.20436 0.86605 0.15762 0.0
H250 H 0.14171 0.82755 0.03963 0.0
H251 H 0.17496 0.83832 0.23209 0.0
Eu252 Eu 0.41953 0.12288 0.44678 0.0
C253 C 0.2929 0.08974 0.4665 0.0
N254 N 0.30799 0.09754 0.42029 0.0
C255 C 0.27276 0.06352 0.36798 0.0
C256 C 0.26761 0.06738 0.46603 0.0
C257 C 0.29775 0.08581 0.37067 0.0
C258 C 0.25785 0.05389 0.41614 0.0
C259 C 0.28672 0.09832 0.56177 0.0
C260 C 0.30214 0.10516 0.51348 0.0
C261 C 0.26213 0.07522 0.56253 0.0
C262 C 0.25256 0.05981 0.5147 0.0
Eu263 Eu 0.35085 0.13389 0.43059 0.0
N264 N 0.32593 0.12737 0.5113 0.0
C265 C 0.29632 0.11516 0.60745 0.0
C266 C 0.33484 0.14448 0.5545 0.0
C267 C 0.32035 0.13853 0.60352 0.0
H268 H 0.30895 0.0934 0.33303 0.0
H269 H 0.32768 0.15199 0.63812 0.0
H270 H 0.44634 0.1641 0.55799 0.0
H271 H 0.46873 0.12062 0.25786 0.0
H272 H 0.35307 0.16271 0.55098 0.0
H273 H 0.2851 0.1106 0.64541 0.0
H274 H 0.43319 0.1037 0.32781 0.0
H275 H 0.26501 0.05382 0.32878 0.0
H276 H 0.25009 0.06946 0.59943 0.0
H277 H 0.23323 0.04247 0.51536 0.0
H278 H 0.48419 0.2073 0.57771 0.0
H279 H 0.23848 0.03665 0.41395 0.0
H280 H 0.5082 0.16429 0.27048 0.0
N281 N 0.45605 0.16401 0.473 0.0
C282 C 0.47588 0.17511 0.43517 0.0
C283 C 0.4818 0.1988 0.53695 0.0
C284 C 0.49878 0.19934 0.44594 0.0
C285 C 0.45975 0.17456 0.52485 0.0
C286 C 0.50114 0.21154 0.4969 0.0
N287 N 0.45241 0.13767 0.37832 0.0
C288 C 0.45045 0.12277 0.33336 0.0
C289 C 0.49493 0.17175 0.34836 0.0
C290 C 0.47428 0.16134 0.38716 0.0
C291 C 0.49272 0.15696 0.30119 0.0
C292 C 0.47047 0.13229 0.29388 0.0
H293 H 0.51841 0.23013 0.50675 0.0
H294 H 0.53666 0.2288 0.41417 0.0
H295 H 0.53317 0.20475 0.32857 0.0
O296 O 0.42869 0.09115 0.43722 0.0
O297 O 0.4241 0.14783 0.37054 0.0
O298 O 0.39066 0.14377 0.41184 0.0
O299 O 0.4371 0.11187 0.51418 0.0
O300 O 0.38856 0.09751 0.38236 0.0
O301 O 0.35211 0.10449 0.3705 0.0
O302 O 0.34573 0.16858 0.42938 0.0
O303 O 0.35275 0.1094 0.50067 0.0
O304 O 0.37737 0.09086 0.46867 0.0
O305 O 0.34251 0.14708 0.35291 0.0
O306 O 0.38793 0.16387 0.47562 0.0
O307 O 0.40477 0.13932 0.51652 0.0
C308 C 0.40597 0.15391 0.36977 0.0
C309 C 0.46647 0.09749 0.48533 0.0
C310 C 0.49469 0.07766 0.48213 0.0
C311 C 0.51684 0.10303 0.48305 0.0
C312 C 0.489 0.12246 0.48636 0.0
C313 C 0.51395 0.12516 0.48514 0.0
C314 C 0.46939 0.07507 0.48344 0.0
C315 C 0.36621 0.09308 0.35858 0.0
C316 C 0.44005 0.09492 0.48505 0.0
C317 C 0.51908 0.21012 0.40667 0.0
C318 C 0.51716 0.19636 0.35803 0.0
C319 C 0.35638 0.08927 0.49315 0.0
C320 C 0.33599 0.18462 0.34371 0.0
C321 C 0.32389 0.2188 0.33817 0.0
C322 C 0.32546 0.21835 0.2802 0.0
C323 C 0.33683 0.18418 0.28566 0.0
C324 C 0.32965 0.20214 0.36987 0.0
C325 C 0.33204 0.20126 0.25429 0.0
C326 C 0.3992 0.15868 0.51752 0.0
C327 C 0.34129 0.16644 0.37619 0.0
H328 H 0.53652 0.10582 0.48308 0.0
H329 H 0.48736 0.13994 0.48836 0.0
H330 H 0.53118 0.14453 0.48607 0.0
H331 H 0.45206 0.05575 0.48224 0.0
H332 H 0.32172 0.23135 0.25484 0.0
H333 H 0.3415 0.17082 0.26439 0.0
H334 H 0.32846 0.20228 0.41458 0.0
H335 H 0.33337 0.20121 0.20969 0.0
Eu336 Eu 0.90503 0.30406 0.45304 0.0
C337 C 0.93999 0.21094 0.48376 0.0
N338 N 0.93364 0.21911 0.43666 0.0
C339 C 0.96969 0.2194 0.38949 0.0
C340 C 0.96243 0.20807 0.48641 0.0
C341 C 0.94722 0.22192 0.38897 0.0
C342 C 0.97766 0.21298 0.43871 0.0
C343 C 0.92852 0.19454 0.57758 0.0
C344 C 0.92314 0.20399 0.5285 0.0
C345 C 0.95155 0.19292 0.58142 0.0
C346 C 0.96845 0.19963 0.53589 0.0
Eu347 Eu 0.89681 0.22528 0.442 0.0
N348 N 0.90111 0.20584 0.52351 0.0
C349 C 0.91041 0.18679 0.62105 0.0
C350 C 0.88287 0.19728 0.56455 0.0
C351 C 0.88731 0.18787 0.61421 0.0
H352 H 0.94089 0.22628 0.35036 0.0
H353 H 0.87291 0.18139 0.64703 0.0
H354 H 0.86464 0.29181 0.56464 0.0
H355 H 0.90342 0.34899 0.25631 0.0
H356 H 0.86488 0.19762 0.55879 0.0
H357 H 0.91383 0.1795 0.65954 0.0
H358 H 0.92228 0.33371 0.32948 0.0
H359 H 0.98079 0.22232 0.35187 0.0
H360 H 0.95619 0.18599 0.619 0.0
H361 H 0.9858 0.19764 0.53894 0.0
H362 H 0.8208 0.28533 0.58357 0.0
H363 H 0.99504 0.21098 0.43897 0.0
H364 H 0.85895 0.34316 0.26796 0.0
N365 N 0.86356 0.29896 0.47842 0.0
C366 C 0.85154 0.30595 0.43894 0.0
C367 C 0.82891 0.29051 0.54231 0.0
C368 C 0.82684 0.30382 0.44892 0.0
C369 C 0.85353 0.29336 0.53082 0.0
C370 C 0.81522 0.29517 0.50082 0.0
N371 N 0.88862 0.31924 0.38111 0.0
C372 C 0.90292 0.33133 0.33479 0.0
C373 C 0.85307 0.32511 0.34874 0.0
C374 C 0.8646 0.31685 0.38951 0.0
C375 C 0.86716 0.33656 0.30018 0.0
C376 C 0.89228 0.33989 0.29342 0.0
H377 H 0.7963 0.29329 0.51008 0.0
H378 H 0.79592 0.30957 0.41463 0.0
H379 H 0.81879 0.32801 0.32684 0.0
O380 O 0.93356 0.34537 0.43797 0.0
O381 O 0.88113 0.28244 0.37663 0.0
O382 O 0.88673 0.25455 0.41991 0.0
O383 O 0.91563 0.33377 0.51791 0.0
O384 O 0.93266 0.29933 0.39346 0.0
O385 O 0.92756 0.25657 0.38518 0.0
O386 O 0.862 0.1856 0.43678 0.0
O387 O 0.91961 0.25223 0.51282 0.0
O388 O 0.9376 0.29548 0.48165 0.0
O389 O 0.88564 0.20489 0.36313 0.0
O390 O 0.8655 0.23153 0.48384 0.0
O391 O 0.88798 0.27326 0.52371 0.0
C392 C 0.87639 0.25876 0.37678 0.0
C393 C 0.9578 0.3721 0.5127 0.0
C394 C 0.99181 0.41791 0.52836 0.0
C395 C 1.00666 0.40891 0.55725 0.0
C396 C 0.97303 0.36366 0.54131 0.0
C397 C 0.99731 0.38203 0.56355 0.0
C398 C 0.96724 0.39916 0.50623 0.0
C399 C 0.93857 0.28193 0.37269 0.0
C400 C 0.93247 0.35312 0.4875 0.0
C401 C 0.81496 0.31131 0.40773 0.0
C402 C 0.82804 0.32193 0.35782 0.0
C403 C 0.93947 0.27631 0.50678 0.0
C404 C 0.84797 0.16154 0.34868 0.0
C405 C 0.81309 0.11584 0.33726 0.0
C406 C 0.81395 0.1199 0.27974 0.0
C407 C 0.849 0.16465 0.29102 0.0
C408 C 0.82995 0.13704 0.37173 0.0
C409 C 0.83173 0.14417 0.25701 0.0
C410 C 0.86923 0.24811 0.52462 0.0
C411 C 0.8654 0.18421 0.38382 0.0
H412 H 0.0254 0.42262 0.57561 0.0
H413 H 0.9662 0.34293 0.54626 0.0
H414 H 1.00897 0.37541 0.58579 0.0
H415 H 0.95561 0.40553 0.48301 0.0
H416 H 0.8007 0.10435 0.25224 0.0
H417 H 0.86283 0.18316 0.27213 0.0
H418 H 0.82942 0.13436 0.41615 0.0
H419 H 0.8321 0.14725 0.21283 0.0
Eu420 Eu 0.72942 0.61144 0.45161 0.0
C421 C 0.82659 0.73005 0.48161 0.0
N422 N 0.81802 0.71705 0.43308 0.0
C423 C 0.82176 0.75545 0.3899 0.0
C424 C 0.83212 0.75617 0.48698 0.0
C425 C 0.81657 0.72953 0.38681 0.0
C426 C 0.82914 0.76871 0.44049 0.0
C427 C 0.84212 0.73103 0.57474 0.0
C428 C 0.83141 0.7176 0.5247 0.0
C429 C 0.84618 0.75653 0.58176 0.0
C430 C 0.84121 0.7691 0.53788 0.0
Eu431 Eu 0.80688 0.67267 0.43157 0.0
N432 N 0.82788 0.69326 0.51574 0.0
C433 C 0.8496 0.7189 0.61504 0.0
C434 C 0.83778 0.68271 0.55223 0.0
C435 C 0.84799 0.69488 0.60317 0.0
H436 H 0.8111 0.71936 0.34762 0.0
H437 H 0.85501 0.68596 0.6328 0.0
H438 H 0.73823 0.58387 0.56834 0.0
H439 H 0.69311 0.56277 0.25307 0.0
H440 H 0.8381 0.66507 0.54175 0.0
H441 H 0.85784 0.72848 0.65416 0.0
H442 H 0.70101 0.59488 0.32761 0.0
H443 H 0.82006 0.76515 0.35335 0.0
H444 H 0.85409 0.76705 0.62016 0.0
H445 H 0.84527 0.78908 0.54315 0.0
H446 H 0.7497 0.55016 0.5924 0.0
H447 H 0.83321 0.78879 0.44281 0.0
H448 H 0.70699 0.52966 0.26613 0.0
N449 N 0.73731 0.57733 0.48148 0.0
C450 C 0.73544 0.56007 0.44181 0.0
C451 C 0.74631 0.55309 0.54964 0.0
C452 C 0.74065 0.53963 0.45403 0.0
C453 C 0.74048 0.57271 0.53557 0.0
C454 C 0.74707 0.53688 0.50844 0.0
N455 N 0.71973 0.58035 0.38058 0.0
C456 C 0.70693 0.58032 0.33328 0.0
C457 C 0.7219 0.54272 0.34898 0.0
C458 C 0.72598 0.56137 0.39005 0.0
C459 C 0.71046 0.54366 0.29873 0.0
C460 C 0.70255 0.56229 0.29121 0.0
H461 H 0.75121 0.52145 0.51956 0.0
H462 H 0.74226 0.5062 0.42086 0.0
H463 H 0.72594 0.50901 0.32872 0.0
O464 O 0.69168 0.60957 0.43742 0.0
O465 O 0.75375 0.61561 0.3755 0.0
O466 O 0.79028 0.62939 0.42408 0.0
O467 O 0.69345 0.58184 0.4925 0.0
O468 O 0.73333 0.64206 0.38976 0.0
O469 O 0.77765 0.67155 0.36626 0.0
O470 O 0.84892 0.68595 0.42268 0.0
O471 O 0.77652 0.68361 0.45695 0.0
O472 O 0.74303 0.64822 0.50477 0.0
O473 O 0.82386 0.6762 0.3493 0.0
O474 O 0.79573 0.63843 0.49036 0.0
O475 O 0.75558 0.62685 0.5288 0.0
C476 C 0.77736 0.61895 0.37885 0.0
C477 C 0.65831 0.59024 0.50491 0.0
C478 C 0.61178 0.57299 0.52617 0.0
C479 C 0.61924 0.59161 0.56892 0.0
C480 C 0.66529 0.60846 0.54789 0.0
C481 C 0.6458 0.60913 0.57968 0.0
C482 C 0.63161 0.57248 0.49432 0.0
C483 C 0.7518 0.66129 0.36 0.0
C484 C 0.67845 0.58965 0.46988 0.0
C485 C 0.73802 0.52182 0.41236 0.0
C486 C 0.72865 0.52336 0.35993 0.0
C487 C 0.75626 0.67336 0.49091 0.0
C488 C 0.87001 0.68971 0.33331 0.0
C489 C 0.91587 0.70017 0.32171 0.0
C490 C 0.912 0.69871 0.26395 0.0
C491 C 0.8669 0.68829 0.27568 0.0
C492 C 0.89449 0.69551 0.35615 0.0
C493 C 0.88767 0.69253 0.24142 0.0
C494 C 0.78027 0.63251 0.53379 0.0
C495 C 0.8472 0.68355 0.36908 0.0
H496 H 0.60455 0.59239 0.59461 0.0
H497 H 0.68576 0.6221 0.55666 0.0
H498 H 0.65128 0.62326 0.61287 0.0
H499 H 0.62631 0.55856 0.46066 0.0
H500 H 0.9278 0.70257 0.23573 0.0
H501 H 0.84825 0.68351 0.25696 0.0
H502 H 0.89658 0.69572 0.40067 0.0
H503 H 0.88484 0.69096 0.19705 0.0
Eu504 Eu 0.90683 0.68887 0.94823 0.0
C505 C 0.86406 0.57184 0.89547 0.0
N506 N 0.87005 0.58462 0.94486 0.0
C507 C 0.82882 0.55209 0.98244 0.0
C508 C 0.83964 0.54888 0.88733 0.0
C509 C 0.85319 0.57491 0.9885 0.0
C510 C 0.82195 0.53908 0.93159 0.0
C511 C 0.8762 0.56972 0.80048 0.0
C512 C 0.88222 0.58223 0.85252 0.0
C513 C 0.85181 0.54691 0.79219 0.0
C514 C 0.83363 0.53649 0.83549 0.0
Eu515 Eu 0.91215 0.62178 0.95218 0.0
N516 N 0.90564 0.60452 0.86151 0.0
C517 C 0.89494 0.58042 0.75833 0.0
C518 C 0.92436 0.61438 0.8212 0.0
C519 C 0.91918 0.60271 0.7689 0.0
H520 H 0.85864 0.58452 0.02823 0.0
H521 H 0.93401 0.61077 0.73691 0.0
H522 H 0.93497 0.7222 0.83087 0.0
H523 H 0.92182 0.72867 0.15785 0.0
H524 H 0.94358 0.63087 0.82924 0.0
H525 H 0.89103 0.57141 0.71779 0.0
H526 H 0.89759 0.69717 0.08198 0.0
H527 H 0.81542 0.54446 0.01706 0.0
H528 H 0.84687 0.53709 0.75245 0.0
H529 H 0.81494 0.51884 0.82844 0.0
H530 H 0.97563 0.76227 0.80303 0.0
H531 H 0.80303 0.52143 0.92702 0.0
H532 H 0.96546 0.76706 0.14024 0.0
N533 N 0.9433 0.72842 0.91699 0.0
C534 C 0.95873 0.74546 0.9567 0.0
C535 C 0.97129 0.75765 0.84642 0.0
C536 C 0.98186 0.76889 0.94276 0.0
C537 C 0.94843 0.73482 0.86235 0.0
C538 C 0.98834 0.77453 0.88683 0.0
N539 N 0.92769 0.71797 0.0229 0.0
C540 C 0.9166 0.71419 0.07416 0.0
C541 C 0.96518 0.7583 0.05322 0.0
C542 C 0.9506 0.74019 0.01125 0.0
C543 C 0.95494 0.75354 0.10687 0.0
C544 C 0.93027 0.73176 0.11705 0.0
H545 H 1.00595 0.79229 0.8744 0.0
H546 H 1.01532 0.80412 0.975 0.0
H547 H 1.00065 0.79489 0.07181 0.0
O548 O 0.867 0.68168 0.96257 0.0
O549 O 0.92897 0.68265 0.0183 0.0
O550 O 0.94755 0.66 0.98055 0.0
O551 O 0.89505 0.71697 0.92094 0.0
O552 O 0.87698 0.6517 0.99243 0.0
O553 O 0.89739 0.63083 0.0313 0.0
O554 O 0.93618 0.60338 0.94008 0.0
O555 O 0.8768 0.62255 0.91219 0.0
O556 O 0.89471 0.66337 0.87235 0.0
O557 O 0.91563 0.59757 0.0172 0.0
O558 O 0.94509 0.65689 0.90827 0.0
O559 O 0.92668 0.68118 0.8749 0.0
C560 C 0.94895 0.67886 0.01198 0.0
C561 C 0.85036 0.69939 0.89715 0.0
C562 C 0.81103 0.70217 0.87669 0.0
C563 C 0.81133 0.69384 0.8223 0.0
C564 C 0.85029 0.691 0.84284 0.0
C565 C 0.8308 0.68821 0.80567 0.0
C566 C 0.83066 0.70479 0.91397 0.0
C567 C 0.88108 0.64007 0.03466 0.0
C568 C 0.8708 0.70269 0.93682 0.0
C569 C 0.9973 0.78622 0.98483 0.0
C570 C 0.98896 0.78095 0.03997 0.0
C571 C 0.8775 0.63825 0.87249 0.0
C572 C 0.92499 0.56427 0.98775 0.0
C573 C 0.94135 0.5331 0.98773 0.0
C574 C 0.91523 0.51245 0.98293 0.0
C575 C 0.89921 0.54331 0.98283 0.0
C576 C 0.94599 0.55907 0.99027 0.0
C577 C 0.89441 0.51757 0.98056 0.0
C578 C 0.94547 0.67506 0.8757 0.0
C579 C 0.93062 0.5917 0.98781 0.0
H580 H 0.79635 0.69138 0.79283 0.0
H581 H 0.86529 0.68666 0.82925 0.0
H582 H 0.83078 0.68167 0.76382 0.0
H583 H 0.83091 0.71146 0.95588 0.0
H584 H 0.91081 0.49224 0.98171 0.0
H585 H 0.8828 0.54681 0.98053 0.0
H586 H 0.96596 0.57533 0.99309 0.0
H587 H 0.87443 0.50148 0.9769 0.0
Eu588 Eu 0.35057 0.22154 0.92984 0.0
C589 C 0.46426 0.28981 0.92715 0.0
N590 N 0.4473 0.28537 0.96974 0.0
C591 C 0.47182 0.27179 0.02727 0.0
C592 C 0.48448 0.28352 0.93216 0.0
C593 C 0.45237 0.27867 0.02063 0.0
C594 C 0.48752 0.27358 0.98246 0.0
C595 C 0.48035 0.30777 0.83549 0.0
C596 C 0.46257 0.3022 0.87945 0.0
C597 C 0.49963 0.30038 0.83958 0.0
C598 C 0.5017 0.28831 0.88776 0.0
Eu599 Eu 0.41433 0.29689 0.95191 0.0
N600 N 0.44334 0.30865 0.87581 0.0
C601 C 0.47836 0.32081 0.7888 0.0
C602 C 0.44191 0.32228 0.83129 0.0
C603 C 0.45923 0.32832 0.78695 0.0
H604 H 0.44214 0.2793 0.057 0.0
H605 H 0.45772 0.33861 0.75124 0.0
H606 H 0.31927 0.22452 0.81333 0.0
H607 H 0.30793 0.17767 0.129 0.0
H608 H 0.42678 0.32765 0.82949 0.0
H609 H 0.49167 0.32542 0.75423 0.0
H610 H 0.3421 0.19535 0.05624 0.0
H611 H 0.47512 0.26573 0.06737 0.0
H612 H 0.51334 0.30433 0.80607 0.0
H613 H 0.51713 0.28334 0.89083 0.0
H614 H 0.27712 0.22142 0.78887 0.0
H615 H 0.50282 0.26856 0.98796 0.0
H616 H 0.2655 0.17606 0.1133 0.0
N617 N 0.31052 0.21793 0.89945 0.0
C618 C 0.2913 0.20955 0.93843 0.0
C619 C 0.28101 0.21848 0.83129 0.0
C620 C 0.26657 0.20683 0.92575 0.0
C621 C 0.30512 0.22071 0.84564 0.0
C622 C 0.26185 0.21207 0.87176 0.0
N623 N 0.31929 0.20392 0.00107 0.0
C624 C 0.32371 0.19485 0.04951 0.0
C625 C 0.27566 0.19222 0.0306 0.0
C626 C 0.29566 0.20205 0.99028 0.0
C627 C 0.2804 0.1838 0.08135 0.0
C628 C 0.30439 0.1848 0.09052 0.0
H629 H 0.24311 0.21016 0.86039 0.0
H630 H 0.22804 0.19615 0.95768 0.0
H631 H 0.23607 0.18355 0.04953 0.0
O632 O 0.34176 0.18125 0.94309 0.0
O633 O 0.3461 0.24548 -0.00133 0.0
O634 O 0.37437 0.29011 0.98089 0.0
O635 O 0.34108 0.19468 0.86001 0.0
O636 O 0.38553 0.23035 0.98345 0.0
O637 O 0.39995 0.26953 0.02761 0.0
O638 O 0.42958 0.33865 0.9363 0.0
O639 O 0.40988 0.27419 0.87245 0.0
O640 O 0.39335 0.23598 0.91601 0.0
O641 O 0.43798 0.32667 0.01384 0.0
O642 O 0.38009 0.29448 0.90345 0.0
O643 O 0.35838 0.25256 0.86394 0.0
C644 C 0.3523 0.27034 0.00064 0.0
C645 C 0.314 0.14915 0.87911 0.0
C646 C 0.29458 0.10147 0.87608 0.0
C647 C 0.27077 0.09933 0.85808 0.0
C648 C 0.29005 0.14663 0.86171 0.0
C649 C 0.26858 0.12179 0.85104 0.0
C650 C 0.31616 0.1266 0.88619 0.0
C651 C 0.39169 0.24412 0.02918 0.0
C652 C 0.33703 0.17487 0.89114 0.0
C653 C 0.24701 0.19805 0.96658 0.0
C654 C 0.25155 0.19078 0.01885 0.0
C655 C 0.40427 0.24977 0.87205 0.0
C656 C 0.43706 0.36659 0.01182 0.0
C657 C 0.45211 0.41316 0.02698 0.0
C658 C 0.43001 0.40585 0.06076 0.0
C659 C 0.41511 0.35978 0.04526 0.0
C660 C 0.45547 0.39321 0.00278 0.0
C661 C 0.41171 0.37938 0.06975 0.0
C662 C 0.36252 0.27669 0.8697 0.0
C663 C 0.44068 0.34633 0.9842 0.0
H664 H 0.25369 0.08029 0.85052 0.0
H665 H 0.28792 0.16377 0.85649 0.0
H666 H 0.25011 0.11991 0.83767 0.0
H667 H 0.33479 0.12871 0.89935 0.0
H668 H 0.42695 0.42059 0.08073 0.0
H669 H 0.40061 0.33938 0.05219 0.0
H670 H 0.47209 0.39833 0.97588 0.0
H671 H 0.39479 0.37405 0.09572 0.0
Eu672 Eu 0.80494 0.12283 0.95235 0.0
C673 C 0.74054 0.17493 0.89177 0.0
N674 N 0.74568 0.16845 0.94251 0.0
C675 C 0.75938 0.21169 0.97602 0.0
C676 C 0.74566 0.2006 0.88075 0.0
C677 C 0.7543 0.18608 0.98489 0.0
C678 C 0.75524 0.21905 0.92364 0.0
C679 C 0.72627 0.16243 0.79683 0.0
C680 C 0.73095 0.15598 0.85028 0.0
C681 C 0.73159 0.18807 0.7856 0.0
C682 C 0.7412 0.20707 0.82744 0.0
Eu683 Eu 0.73638 0.12487 0.95368 0.0
N684 N 0.72633 0.13136 0.86204 0.0
C685 C 0.71626 0.14289 0.75621 0.0
C686 C 0.71533 0.11195 0.82328 0.0
C687 C 0.71051 0.11749 0.76969 0.0
H688 H 0.75717 0.1804 0.02563 0.0
H689 H 0.70209 0.10208 0.73895 0.0
H690 H 0.80713 0.0897 0.84065 0.0
H691 H 0.83062 0.11216 0.16413 0.0
H692 H 0.70964 0.09199 0.8335 0.0
H693 H 0.71245 0.14708 0.71466 0.0
H694 H 0.82394 0.13504 0.08458 0.0
H695 H 0.76645 0.22574 0.00959 0.0
H696 H 0.72821 0.19336 0.74471 0.0
H697 H 0.74512 0.22673 0.81814 0.0
H698 H 0.80167 0.04618 0.81903 0.0
H699 H 0.75934 0.23896 0.91685 0.0
H700 H 0.82216 0.06689 0.15347 0.0
N701 N 0.80372 0.08329 0.92744 0.0
C702 C 0.80408 0.06824 0.96961 0.0
C703 C 0.80188 0.05193 0.86162 0.0
C704 C 0.80207 0.04368 0.95944 0.0
C705 C 0.80445 0.07633 0.87392 0.0
C706 C 0.80009 0.03524 0.90463 0.0
N707 N 0.81171 0.10264 0.03035 0.0
C708 C 0.82036 0.11525 0.07984 0.0
C709 C 0.81206 0.06465 0.0667 0.0
C710 C 0.8088 0.07847 0.02256 0.0
C711 C 0.81938 0.0768 0.1185 0.0
C712 C 0.82405 0.10239 0.12477 0.0
H713 H 0.79846 0.01649 0.89505 0.0
H714 H 0.80143 1.00987 -0.00295 0.0
H715 H 0.81036 0.02834 0.09108 0.0
O716 O 0.83987 0.16153 0.96116 0.0
O717 O 0.77574 0.10386 0.02239 0.0
O718 O 0.73543 0.08741 0.9815 0.0
O719 O 0.8435 0.12979 0.92625 0.0
O720 O 0.80202 0.15561 0.99585 0.0
O721 O 0.7607 0.13938 0.03293 0.0
O722 O 0.69401 0.10835 0.94117 0.0
O723 O 0.77455 0.1575 0.91463 0.0
O724 O 0.79357 0.13585 0.87471 0.0
O725 O 0.71081 0.12291 0.02148 0.0
O726 O 0.73477 0.08982 0.91006 0.0
O727 O 0.77716 0.10355 0.8789 0.0
C728 C 0.75158 0.08482 0.01524 0.0
C729 C 0.87247 0.17249 0.89364 0.0
C730 C 0.91463 0.20997 0.8674 0.0
C731 C 0.90598 0.20682 0.81221 0.0
C732 C 0.86391 0.16983 0.83855 0.0
C733 C 0.88068 0.18694 0.79805 0.0
C734 C 0.89769 0.19261 0.90787 0.0
C735 C 0.78654 0.15363 0.03707 0.0
C736 C 0.85536 0.15476 0.93705 0.0
C737 C 0.80336 0.02896 0.00392 0.0
C738 C 0.80851 0.0395 0.05743 0.0
C739 C 0.78667 0.15386 0.87276 0.0
C740 C 0.66847 0.08476 0.01803 0.0
C741 C 0.62209 0.05054 0.0275 0.0
C742 C 0.63008 0.03636 0.06162 0.0
C743 C 0.67568 0.06987 0.0517 0.0
C744 C 0.64157 0.07502 0.00608 0.0
C745 C 0.65659 0.04595 0.07346 0.0
C746 C 0.75147 0.08753 0.87725 0.0
C747 C 0.68915 0.10958 0.99315 0.0
H748 H 0.91857 0.22003 0.7803 0.0
H749 H 0.84437 0.15456 0.82694 0.0
H750 H 0.87402 0.18484 0.75561 0.0
H751 H 0.9042 0.19461 0.95051 0.0
H752 H 0.61576 0.01782 0.07973 0.0
H753 H 0.69614 0.07666 0.06104 0.0
H754 H 0.63594 0.08617 0.97923 0.0
H755 H 0.66238 0.03472 0.09957 0.0
Eu756 Eu 0.68994 0.89558 0.54433 0.0
C757 C 0.57204 0.85025 0.5923 0.0
N758 N 0.58596 0.85714 0.54424 0.0
C759 C 0.55561 0.81553 0.50437 0.0
C760 C 0.54976 0.82517 0.59873 0.0
C761 C 0.57769 0.84055 0.49999 0.0
C762 C 0.5417 0.80772 0.55406 0.0
C763 C 0.5667 0.8615 0.68615 0.0
C764 C 0.58041 0.86828 0.6355 0.0
C765 C 0.54468 0.83641 0.69286 0.0
C766 C 0.5362 0.81833 0.64926 0.0
Eu767 Eu 0.62221 0.90015 0.54047 0.0
N768 N 0.60189 0.89241 0.62803 0.0
C769 C 0.57539 0.88022 0.72844 0.0
C770 C 0.60966 0.91111 0.66814 0.0
C771 C 0.59681 0.90521 0.71918 0.0
H772 H 0.58773 0.84664 0.46088 0.0
H773 H 0.60325 0.92004 0.75111 0.0
H774 H 0.7281 0.92932 0.65362 0.0
H775 H 0.72049 0.89748 0.3308 0.0
H776 H 0.62536 0.93081 0.66055 0.0
H777 H 0.56541 0.87575 0.76796 0.0
H778 H 0.69217 0.87898 0.41332 0.0
H779 H 0.54921 0.80236 0.46928 0.0
H780 H 0.53395 0.83085 0.73152 0.0
H781 H 0.51908 0.79912 0.65498 0.0
H782 H 0.77018 0.96991 0.6703 0.0
H783 H 0.52461 0.78831 0.5573 0.0
H784 H 0.76179 0.94013 0.33757 0.0
N785 N 0.73136 0.93244 0.56584 0.0
C786 C 0.74726 0.94501 0.52223 0.0
C787 C 0.76385 0.96329 0.62839 0.0
C788 C 0.77181 0.96791 0.52996 0.0
C789 C 0.73985 0.94046 0.61869 0.0
C790 C 0.77971 0.97735 0.58377 0.0
N791 N 0.7164 0.91141 0.46452 0.0
C792 C 0.70989 0.89774 0.41604 0.0
C793 C 0.7567 0.94517 0.42455 0.0
C794 C 0.73977 0.93392 0.47016 0.0
C795 C 0.74933 0.93214 0.37359 0.0
C796 C 0.72601 0.90808 0.36957 0.0
H797 H 0.7984 0.99489 0.59144 0.0
H798 H 0.80687 0.99785 0.48916 0.0
H799 H 0.79366 0.97787 0.39683 0.0
O800 O 0.68217 0.85554 0.53249 0.0
O801 O 0.68424 0.9186 0.47546 0.0
O802 O 0.66049 0.93594 0.51402 0.0
O803 O 0.71717 0.88344 0.5759 0.0
O804 O 0.6513 0.86579 0.50528 0.0
O805 O 0.63221 0.88617 0.4612 0.0
O806 O 0.60379 0.92431 0.55051 0.0
O807 O 0.62464 0.86719 0.5874 0.0
O808 O 0.66649 0.88596 0.623 0.0
O809 O 0.59811 0.90307 0.47442 0.0
O810 O 0.65564 0.93251 0.59031 0.0
O811 O 0.68616 0.9194 0.61444 0.0
C812 C 0.68019 0.93833 0.48385 0.0
C813 C 0.69816 0.83889 0.60158 0.0
C814 C 0.70119 0.80018 0.62629 0.0
C815 C 0.68968 0.7994 0.67776 0.0
C816 C 0.68691 0.83797 0.65322 0.0
C817 C 0.68258 0.8182 0.691 0.0
C818 C 0.70507 0.81995 0.58824 0.0
C819 C 0.64158 0.86999 0.46015 0.0
C820 C 0.70263 0.85915 0.56057 0.0
C821 C 0.78808 0.98008 0.48411 0.0
C822 C 0.78058 0.96869 0.43154 0.0
C823 C 0.64105 0.87039 0.62788 0.0
C824 C 0.56452 0.9123 0.50213 0.0
C825 C 0.53284 0.92807 0.50059 0.0
C826 C 0.51234 0.90185 0.50395 0.0
C827 C 0.54371 0.88641 0.50576 0.0
C828 C 0.55901 0.93306 0.49957 0.0
C829 C 0.51778 0.88127 0.50653 0.0
C830 C 0.67604 0.93498 0.61866 0.0
C831 C 0.59209 0.91821 0.50276 0.0
H832 H 0.6866 0.78459 0.70815 0.0
H833 H 0.68154 0.8525 0.6643 0.0
H834 H 0.67389 0.81756 0.73083 0.0
H835 H 0.71331 0.82057 0.54781 0.0
H836 H 0.492 0.89714 0.50389 0.0
H837 H 0.54746 0.87019 0.50808 0.0
H838 H 0.57517 0.95308 0.49778 0.0
H839 H 0.5018 0.86122 0.5091 0.0
Eu840 Eu 0.13113 0.79685 0.52958 0.0
C841 C 0.17832 0.7315 0.61532 0.0
N842 N 0.17396 0.73613 0.56229 0.0
C843 C 0.21815 0.74847 0.53778 0.0
C844 C 0.20334 0.73628 0.63209 0.0
C845 C 0.19309 0.74372 0.52315 0.0
C846 C 0.22338 0.74496 0.59257 0.0
C847 C 0.16198 0.71828 0.70872 0.0
C848 C 0.15781 0.72262 0.65315 0.0
C849 C 0.18701 0.72342 0.72578 0.0
C850 C 0.2076 0.73234 0.68757 0.0
Eu851 Eu 0.13126 0.72773 0.54126 0.0
N852 N 0.13381 0.71806 0.63561 0.0
C853 C 0.1408 0.70863 0.74546 0.0
C854 C 0.11278 0.70719 0.67061 0.0
C855 C 0.11604 0.70275 0.72613 0.0
H856 H 0.18903 0.74613 0.48065 0.0
H857 H 0.09936 0.69449 0.75384 0.0
H858 H 0.09116 0.79813 0.629 0.0
H859 H 0.13026 0.81516 0.30901 0.0
H860 H 0.09327 0.70131 0.65595 0.0
H861 H 0.14322 0.70507 0.78847 0.0
H862 H 0.14941 0.8118 0.39786 0.0
H863 H 0.2334 0.7548 0.5068 0.0
H864 H 0.19057 0.72033 0.76838 0.0
H865 H 0.22674 0.73605 0.70131 0.0
H866 H 0.04684 0.79281 0.63562 0.0
H867 H 0.24286 0.7488 0.60382 0.0
H868 H 0.08462 0.8071 0.30601 0.0
N869 N 0.09027 0.79519 0.54121 0.0
C870 C 0.0777 0.79523 0.494 0.0
C871 C 0.05512 0.7931 0.59551 0.0
C872 C 0.05266 0.79304 0.49575 0.0
C873 C 0.08005 0.79564 0.59161 0.0
C874 C 0.04115 0.79131 0.54735 0.0
N875 N 0.11478 0.80138 0.44366 0.0
C876 C 0.12952 0.80829 0.39659 0.0
C877 C 0.07865 0.80033 0.39425 0.0
C878 C 0.09046 0.79877 0.44383 0.0
C879 C 0.09297 0.8057 0.34501 0.0
C880 C 0.11871 0.81018 0.34641 0.0
H881 H 0.02191 0.78952 0.55047 0.0
H882 H 0.02085 0.79124 0.44668 0.0
H883 H 0.04363 0.7977 0.3578 0.0
O884 O 0.16983 0.8323 0.52418 0.0
O885 O 0.1129 0.76538 0.46312 0.0
O886 O 0.09415 0.72641 0.50902 0.0
O887 O 0.13607 0.83541 0.5475 0.0
O888 O 0.16488 0.79329 0.49357 0.0
O889 O 0.14889 0.75099 0.46172 0.0
O890 O 0.11548 0.68572 0.55573 0.0
O891 O 0.16425 0.76634 0.5772 0.0
O892 O 0.14331 0.78738 0.61092 0.0
O893 O 0.12975 0.70178 0.47483 0.0
O894 O 0.09609 0.7284 0.57942 0.0
O895 O 0.11074 0.77165 0.60544 0.0
C896 C 0.09267 0.74214 0.47244 0.0
C897 C 0.17705 0.86686 0.58459 0.0
C898 C 0.21186 0.9112 0.60951 0.0
C899 C 0.20473 0.90492 0.66554 0.0
C900 C 0.17084 0.86099 0.64062 0.0
C901 C 0.18469 0.87996 0.68081 0.0
C902 C 0.19784 0.89161 0.56936 0.0
C903 C 0.16429 0.77662 0.45652 0.0
C904 C 0.16145 0.84779 0.54128 0.0
C905 C 0.04024 0.79328 0.44619 0.0
C906 C 0.05322 0.79698 0.39557 0.0
C907 C 0.16069 0.7797 0.61647 0.0
C908 C 0.09278 0.65881 0.47982 0.0
C909 C 0.0609 0.61179 0.47121 0.0
C910 C 0.0454 0.61813 0.43708 0.0
C911 C 0.07671 0.66445 0.44611 0.0
C912 C 0.08482 0.63241 0.49222 0.0
C913 C 0.05326 0.64421 0.42476 0.0
C914 C 0.09413 0.74618 0.60918 0.0
C915 C 0.11709 0.68044 0.50421 0.0
H916 H 0.21422 0.9193 0.69794 0.0
H917 H 0.15505 0.84189 0.65316 0.0
H918 H 0.17958 0.87547 0.724 0.0
H919 H 0.20289 0.89535 0.526 0.0
H920 H 0.0272 0.60287 0.41935 0.0
H921 H 0.08221 0.68453 0.43641 0.0
H922 H 0.09694 0.62804 0.5191 0.0
H923 H 0.04107 0.64876 0.3986 0.0
Eu924 Eu 0.22885 0.3464 0.56601 0.0
C925 C 0.30386 0.46428 0.56388 0.0
N926 N 0.29636 0.44557 0.52374 0.0
C927 C 0.2855 0.47138 0.46361 0.0
C928 C 0.30113 0.48663 0.55597 0.0
C929 C 0.28922 0.44999 0.47273 0.0
C930 C 0.29101 0.48954 0.50575 0.0
C931 C 0.32533 0.48202 0.65233 0.0
C932 C 0.31611 0.46223 0.61154 0.0
C933 C 0.32177 0.50373 0.64514 0.0
C934 C 0.30969 0.50602 0.59716 0.0
Eu935 Eu 0.30504 0.41095 0.54368 0.0
N936 N 0.31958 0.44116 0.61756 0.0
C937 C 0.33834 0.47968 0.69875 0.0
C938 C 0.33286 0.43907 0.66204 0.0
C939 C 0.3422 0.45816 0.7035 0.0
H940 H 0.28745 0.4379 0.4378 0.0
H941 H 0.35249 0.45635 0.73893 0.0
H942 H 0.23764 0.30693 0.65581 0.0
H943 H 0.17486 0.31935 0.37114 0.0
H944 H 0.33589 0.42243 0.66552 0.0
H945 H 0.34578 0.49454 0.73078 0.0
H946 H 0.19502 0.34635 0.45455 0.0
H947 H 0.27924 0.47433 0.4234 0.0
H948 H 0.32874 0.51912 0.676 0.0
H949 H 0.30769 0.52323 0.59164 0.0
H950 H 0.23723 0.26492 0.6542 0.0
H951 H 0.28867 0.50643 0.4981 0.0
H952 H 0.17444 0.27728 0.35964 0.0
N953 N 0.22611 0.30481 0.57185 0.0
C954 C 0.21563 0.28886 0.52716 0.0
C955 C 0.23162 0.27165 0.6177 0.0
C956 C 0.21426 0.26424 0.52476 0.0
C957 C 0.23252 0.29587 0.61805 0.0
C958 C 0.22298 0.25599 0.57039 0.0
N959 N 0.20666 0.32048 0.48832 0.0
C960 C 0.19536 0.32835 0.44915 0.0
C961 C 0.19408 0.28068 0.43768 0.0
C962 C 0.20546 0.29686 0.48431 0.0
C963 C 0.18337 0.28914 0.39613 0.0
C964 C 0.18367 0.31292 0.40232 0.0
H965 H 0.22221 0.23719 0.57027 0.0
H966 H 0.20279 0.22959 0.47481 0.0
H967 H 0.18525 0.24405 0.39841 0.0
O968 O 0.18721 0.33586 0.56745 0.0
O969 O 0.254 0.34254 0.49925 0.0
O970 O 0.29834 0.37061 0.52009 0.0
O971 O 0.20734 0.33648 0.64425 0.0
O972 O 0.23627 0.38121 0.5131 0.0
O973 O 0.27619 0.39575 0.47022 0.0
O974 O 0.34702 0.42586 0.55672 0.0
O975 O 0.28323 0.40872 0.62279 0.0
O976 O 0.24589 0.38954 0.57644 0.0
O977 O 0.33374 0.43156 0.47794 0.0
O978 O 0.30216 0.37791 0.59672 0.0
O979 O 0.25945 0.35248 0.6327 0.0
C980 C 0.27886 0.34862 0.49967 0.0
C981 C 0.16135 0.32514 0.65275 0.0
C982 C 0.11498 0.3135 0.65743 0.0
C983 C 0.11658 0.31348 0.71551 0.0
C984 C 0.16215 0.3247 0.71079 0.0
C985 C 0.13996 0.31905 0.74178 0.0
C986 C 0.13766 0.31961 0.62617 0.0
C987 C 0.25094 0.38853 0.46832 0.0
C988 C 0.18569 0.33281 0.62088 0.0
C989 C 0.2037 0.24841 0.47763 0.0
C990 C 0.19365 0.25662 0.43418 0.0
C991 C 0.25818 0.40038 0.62187 0.0
C992 C 0.37327 0.42977 0.48012 0.0
C993 C 0.41948 0.44329 0.46325 0.0
C994 C 0.41115 0.42048 0.43119 0.0
C995 C 0.36546 0.40709 0.44855 0.0
C996 C 0.40019 0.44768 0.48759 0.0
C997 C 0.38437 0.40256 0.42411 0.0
C998 C 0.28495 0.36035 0.63148 0.0
C999 C 0.35384 0.43492 0.50705 0.0
H1000 H 0.0998 0.30952 0.74086 0.0
H1001 H 0.18011 0.32921 0.73241 0.0
H1002 H 0.14091 0.3192 0.78645 0.0
H1003 H 0.1368 0.31986 0.58142 0.0
H1004 H 0.42528 0.41657 0.41102 0.0
H1005 H 0.34481 0.39293 0.4429 0.0
H1006 H 0.40601 0.46481 0.51328 0.0
H1007 H 0.37827 0.38508 0.39951 0.0
H1008 H 0.08173 0.52728 0.07881 0.0
H1009 H 0.94748 0.49663 0.92812 0.0
H1010 H 0.04679 0.47125 0.94608 0.0
H1011 H 0.98579 0.5563 0.05302 0.0
H1012 H 0.98286 0.48624 0.93549 0.0
H1013 H 0.04607 0.53711 0.07151 0.0
C1014 C 0.06662 0.51706 0.04792 0.0
C1015 C 0.06753 0.49852 0.01267 0.0
C1016 C 0.98356 0.50162 0.96126 0.0
C1017 C 0.02618 0.5096 0.00449 0.0
C1018 C 0.96327 0.50752 0.95728 0.0
C1019 C 0.96347 0.52734 0.9902 0.0
C1020 C 1.00433 0.51554 -0.0014 0.0
C1021 C 0.98481 0.54104 0.02643 0.0
C1022 C 0.04614 0.52265 0.04395 0.0
C1023 C 0.04691 0.48554 0.97442 0.0
N1024 N 1.00425 0.53483 0.02978 0.0
N1025 N 0.02719 0.49138 0.97124 0.0
H1026 H 0.50609 0.43736 0.0211 0.0
H1027 H 0.52604 0.58067 0.96424 0.0
H1028 H 0.44222 0.45366 0.00934 0.0
H1029 H 0.59033 0.56546 0.98462 0.0
H1030 H 0.49513 0.53411 0.97892 0.0
H1031 H 0.53719 0.48386 0.00488 0.0
C1032 C 0.49855 0.45065 0.01481 0.0
C1033 C 0.4714 0.44145 0.01676 0.0
C1034 C 0.516 0.54093 0.98015 0.0
C1035 C 0.50706 0.49495 -0.0014 0.0
C1036 C 0.53372 0.56762 0.97208 0.0
C1037 C 0.56096 0.5772 0.97327 0.0
C1038 C 0.52544 0.52349 0.98946 0.0
C1039 C 0.56957 0.55906 0.98259 0.0
C1040 C 0.51637 0.47727 0.00587 0.0
C1041 C 0.46294 0.45979 0.00905 0.0
N1042 N 0.55192 0.53317 0.99036 0.0
N1043 N 0.48065 0.48557 0.00031 0.0
H1044 H 0.58537 0.99939 0.00406 0.0
H1045 H 0.46337 0.02486 0.98871 0.0
H1046 H 0.59319 0.07593 0.02254 0.0
H1047 H 0.45555 0.94822 0.97273 0.0
H1048 H 0.5107 0.0438 0.00128 0.0
H1049 H 0.53807 0.98053 0.99154 0.0
C1050 C 0.57717 0.0123 0.00559 0.0
C1051 C 0.59345 0.03936 0.01498 0.0
C1052 C 0.49868 0.02284 0.99512 0.0
C1053 C 0.53888 0.01769 0.0002 0.0
C1054 C 0.47158 0.01196 0.98777 0.0
C1055 C 0.4553 0.98484 0.9791 0.0
C1056 C 0.50988 1.00659 0.99385 0.0
C1057 C 0.46717 0.96916 0.97955 0.0
C1058 C 0.55008 1.00146 -0.00174 0.0
C1059 C 0.58157 0.05504 0.01519 0.0
N1060 N 0.49368 0.98027 0.98646 0.0
N1061 N 0.55507 0.04398 0.00823 0.0
H1062 H 0.53026 0.07105 0.42083 0.0
H1063 H 0.49468 0.93278 0.55702 0.0
H1064 H 0.46814 0.03115 0.54003 0.0
H1065 H 0.55698 0.97343 0.43845 0.0
H1066 H 0.484 0.96789 0.55002 0.0
H1067 H 0.53933 0.03484 0.42496 0.0
C1068 C 0.51847 0.05465 0.44792 0.0
C1069 C 0.49852 0.05436 0.48054 0.0
C1070 C 0.5 0.96915 0.52549 0.0
C1071 C 0.50883 0.0125 0.4853 0.0
C1072 C 0.50607 0.949 0.52925 0.0
C1073 C 0.52675 0.94995 0.49809 0.0
C1074 C 0.51466 0.99057 0.49026 0.0
C1075 C 0.54107 0.97186 0.46373 0.0
C1076 C 0.52365 0.0339 0.45014 0.0
C1077 C 0.48361 0.03223 0.51393 0.0
N1078 N 0.53473 0.99119 0.46069 0.0
N1079 N 0.48916 0.01231 0.5157 0.0
H1080 H 0.0899 0.58659 0.47653 0.0
H1081 H 0.96425 0.44451 0.53203 0.0
H1082 H 1.01089 0.57264 0.49585 0.0
H1083 H 0.04268 0.45729 0.50891 0.0
H1084 H 0.9813 0.49155 0.52077 0.0
H1085 H 0.07354 0.53974 0.49221 0.0
C1086 C 0.06918 0.57377 0.48455 0.0
C1087 C 0.05177 0.58367 0.48437 0.0
C1088 C 0.99482 0.48409 0.51823 0.0
C1089 C 0.0328 0.52983 0.50183 0.0
C1090 C 0.98504 0.45712 0.52427 0.0
C1091 C 1.00197 0.44671 0.52141 0.0
C1092 C 0.02181 0.501 0.50916 0.0
C1093 C 0.02885 0.46432 0.51222 0.0
C1094 C 0.0598 0.54696 0.49313 0.0
C1095 C 0.02503 0.56593 0.49454 0.0
N1096 N 0.03789 0.49049 0.50638 0.0
N1097 N 1.01641 0.54 0.50266 0.0
H1098 H 0.46006 0.43285 0.4762 0.0
H1099 H 0.5707 0.58284 0.52405 0.0
H1100 H 0.44453 0.49728 0.46935 0.0
H1101 H 0.58814 0.52025 0.50308 0.0
H1102 H 0.52416 0.55152 0.50818 0.0
H1103 H 0.5067 0.46425 0.4893 0.0
C1104 C 0.46639 0.45358 0.47702 0.0
C1105 C 0.44811 0.46229 0.4715 0.0
C1106 C 0.53815 0.54462 0.50692 0.0
C1107 C 0.50176 0.49848 0.48757 0.0
C1108 C 0.56474 0.56248 0.51629 0.0
C1109 C 0.58343 0.5542 0.51508 0.0
C1110 C 0.53001 0.51813 0.49663 0.0
C1111 C 0.57452 0.52761 0.50394 0.0
C1112 C 0.49309 0.47152 0.48484 0.0
C1113 C 0.45767 0.48948 0.47418 0.0
N1114 N 0.54849 0.51054 0.49544 0.0
N1115 N 0.48374 0.50653 0.48209 0.0
H1116 H 0.94748 0.31334 0.2833 0.0
H1117 H 0.09255 0.33789 0.22869 0.0
H1118 H 0.98155 0.27592 0.37909 0.0
H1119 H 0.04963 0.35869 0.11339 0.0
H1120 H 0.05358 0.31748 0.28834 0.0
H1121 H 0.98652 0.33293 0.22418 0.0
C1122 C 0.96314 0.30909 0.29141 0.0
C1123 C 0.96117 0.29256 0.33503 0.0
C1124 C 0.05275 0.32644 0.24979 0.0
C1125 C 1.00597 0.31511 0.26859 0.0
C1126 C 0.07493 0.33797 0.21565 0.0
C1127 C 0.07424 0.34958 0.16538 0.0
C1128 C 0.02995 0.32695 0.23389 0.0
C1129 C 0.05112 0.34985 0.15149 0.0
C1130 C 0.98538 0.32021 0.25778 0.0
C1131 C 0.98202 0.28783 0.3445 0.0
N1132 N 0.02997 0.33872 0.18545 0.0
N1133 N 1.00366 0.29913 0.31163 0.0
H1134 H 0.6571 0.68941 0.12619 0.0
H1135 H 0.76604 0.71298 0.35355 0.0
H1136 H 0.69948 0.76135 0.21895 0.0
H1137 H 0.71397 0.63767 0.28109 0.0
H1138 H 0.74516 0.7324 0.29809 0.0
H1139 H 0.67957 0.67101 0.17852 0.0
C1140 C 0.67112 0.70143 0.15763 0.0
C1141 C 0.67688 0.72736 0.16698 0.0
C1142 C 0.73853 0.7117 0.29365 0.0
C1143 C 0.70297 0.70624 0.22711 0.0
C1144 C 0.75084 0.70073 0.32451 0.0
C1145 C 0.74225 0.67387 0.32063 0.0
C1146 C 0.71739 0.69561 0.25872 0.0
C1147 C 0.72139 0.65854 0.28468 0.0
C1148 C 0.68407 0.69088 0.18735 0.0
C1149 C 0.69517 0.74173 0.20862 0.0
N1150 N 0.7097 0.66962 0.25505 0.0
N1151 N 0.70767 0.73106 0.2369 0.0
H1152 H 0.31604 0.05237 0.35437 0.0
H1153 H 0.34446 0.98056 0.10564 0.0
H1154 H 0.39117 0.08383 0.274 0.0
H1155 H 0.27059 0.94675 0.19279 0.0
H1156 H 0.36141 0.01907 0.16488 0.0
H1157 H 0.29812 0.01481 0.2918 0.0
C1158 C 0.32852 0.05172 0.32238 0.0
C1159 C 0.35487 0.0715 0.31824 0.0
C1160 C 0.34141 1.00333 0.1708 0.0
C1161 C 0.33494 0.02806 0.24801 0.0
C1162 C 0.33167 0.98127 0.13698 0.0
C1163 C 0.30568 0.96068 0.14292 0.0
C1164 C 0.32517 1.00481 0.21143 0.0
C1165 C 0.29032 0.96257 0.18507 0.0
C1166 C 0.31845 0.03004 0.28732 0.0
C1167 C 0.37069 0.06899 0.27823 0.0
N1168 N 0.30026 0.9843 0.21758 0.0
N1169 N 0.36047 0.04765 0.24455 0.0
H1170 H 0.04596 0.70227 0.60071 0.0
H1171 H 0.99598 0.68757 0.89378 0.0
H1172 H 0.09234 0.76858 0.70703 0.0
H1173 H 0.94494 0.69092 0.76931 0.0
H1174 H 0.03274 0.70803 0.82865 0.0
H1175 H 1.00889 0.68775 0.66462 0.0
C1176 C 0.04829 0.71386 0.63728 0.0
C1177 C 0.07203 0.73696 0.64816 0.0
C1178 C 1.01351 0.70449 0.81607 0.0
C1179 C 0.03024 0.71996 0.72158 0.0
C1180 C 0.99259 0.69283 0.85288 0.0
C1181 C 0.96757 0.688 0.83695 0.0
C1182 C 1.00905 0.71025 0.76241 0.0
C1183 C 0.96407 0.69473 0.78323 0.0
C1184 C 0.02716 0.7056 0.67335 0.0
C1185 C 0.07419 0.75091 0.69677 0.0
N1186 N 0.98459 0.70516 0.74725 0.0
N1187 N 0.05359 0.74196 0.73235 0.0
H1188 H 0.26408 0.33366 0.72969 0.0
H1189 H 0.37867 0.29792 0.76791 0.0
H1190 H 0.3304 0.35904 0.62012 0.0
H1191 H 0.31736 0.27745 0.8879 0.0
H1192 H 0.35904 0.31794 0.71002 0.0
H1193 H 0.28137 0.31093 0.78635 0.0
C1194 C 0.28212 0.33433 0.71729 0.0
C1195 C 0.29543 0.34782 0.66926 0.0
C1196 C 0.34967 0.30888 0.74875 0.0
C1197 C 0.31555 0.32231 0.73429 0.0
C1198 C 0.36079 0.29735 0.7814 0.0
C1199 C 0.34931 0.2859 0.83194 0.0
C1200 C 0.32698 0.30902 0.76708 0.0
C1201 C 0.32652 0.28599 0.84867 0.0
C1202 C 0.29204 0.32146 0.74977 0.0
C1203 C 0.31919 0.34868 0.65627 0.0
N1204 N 0.31603 0.2974 0.81626 0.0
N1205 N 0.32835 0.33605 0.68834 0.0
H1206 H 0.77342 0.08386 0.77994 0.0
H1207 H 0.65986 0.93618 0.72314 0.0
H1208 H 0.70423 0.0422 0.88133 0.0
H1209 H 0.72013 0.98196 0.60436 0.0
H1210 H 0.67839 0.97383 0.78595 0.0
H1211 H 0.75635 0.04596 0.71805 0.0
C1212 C 0.75485 0.06661 0.78964 0.0
C1213 C 0.74071 0.06578 0.83702 0.0
C1214 C 0.68754 0.97574 0.74607 0.0
C1215 C 0.72077 0.02269 0.76585 0.0
C1216 C 0.6769 0.95432 0.71032 0.0
C1217 C 0.68816 0.95649 0.65836 0.0
C1218 C 0.70973 0.99931 0.72968 0.0
C1219 C 0.71076 0.97992 0.64401 0.0
C1220 C 0.745 0.04509 0.75406 0.0
C1221 C 0.71612 0.04345 0.84608 0.0
N1222 N 0.72082 1.00058 0.67948 0.0
N1223 N 0.70703 0.02272 0.81108 0.0
H1224 H 0.20844 0.39199 0.62889 0.0
H1225 H 0.2096 0.39947 0.959 0.0
H1226 H 0.27438 0.40428 0.72967 0.0
H1227 H 0.14229 0.38393 0.85941 0.0
H1228 H 0.23361 0.40147 0.87533 0.0
H1229 H 0.18379 0.38873 0.71255 0.0
C1230 C 0.21769 0.39393 0.66877 0.0
C1231 C 0.24341 0.39832 0.67252 0.0
C1232 C 0.21362 0.39766 0.87159 0.0
C1233 C 0.21547 0.39495 0.76839 0.0
C1234 C 0.19991 0.39656 0.91933 0.0
C1235 C 0.1739 0.39142 0.91594 0.0
C1236 C 0.20132 0.39379 0.81992 0.0
C1237 C 0.16236 0.38803 0.86363 0.0
C1238 C 0.20364 0.39215 0.71648 0.0
C1239 C 0.25459 0.40094 0.72503 0.0
N1240 N 0.17614 0.38919 0.81754 0.0
N1241 N 0.24051 0.39919 0.771 0.0
H1242 H 0.63549 0.82328 0.9666 0.0
H1243 H 0.61054 0.81683 0.63908 0.0
H1244 H 0.6203 0.75567 0.86923 0.0
H1245 H 0.65259 0.8884 0.73246 0.0
H1246 H 0.60434 0.7916 0.72499 0.0
H1247 H 0.6322 0.84472 0.88304 0.0
C1248 C 0.63124 0.8128 0.92771 0.0
C1249 C 0.62844 0.78767 0.92507 0.0
C1250 C 0.61451 0.81282 0.72668 0.0
C1251 C 0.62445 0.81224 0.82872 0.0
C1252 C 0.61777 0.82716 0.67792 0.0
C1253 C 0.63199 0.85466 0.67906 0.0
C1254 C 0.62515 0.82621 0.77671 0.0
C1255 C 0.64147 0.8672 0.73004 0.0
C1256 C 0.62939 0.82511 0.87992 0.0
C1257 C 0.62267 0.77506 0.87331 0.0
N1258 N 0.63791 0.85292 0.77669 0.0
N1259 N 0.621 0.78753 0.8271 0.0
H1260 H 0.28325 0.86819 0.85347 0.0
H1261 H 0.14317 0.779 0.71982 0.0
H1262 H 0.21255 0.82344 0.94903 0.0
H1263 H 0.21352 0.79708 0.62985 0.0
H1264 H 0.16914 0.79575 0.8041 0.0
H1265 H 0.25956 0.84299 0.77086 0.0
C1266 C 0.26294 0.85282 0.85733 0.0
C1267 C 0.24978 0.84821 0.90814 0.0
C1268 C 0.17899 0.79586 0.76621 0.0
C1269 C 0.22261 0.81962 0.81401 0.0
C1270 C 0.16416 0.78637 0.71806 0.0
C1271 C 0.1763 0.78689 0.66794 0.0
C1272 C 0.20638 0.8066 0.7642 0.0
C1273 C 0.2035 0.79641 0.66788 0.0
C1274 C 0.24944 0.83848 0.81018 0.0
C1275 C 0.22344 0.82803 0.91068 0.0
N1276 N 0.21778 0.80635 0.71522 0.0
N1277 N 0.2107 0.8148 0.86429 0.0
H1278 H 0.40706 0.20828 0.52939 0.0
H1279 H 0.39667 0.20029 0.85958 0.0
H1280 H 0.40003 0.14281 0.62381 0.0
H1281 H 0.41426 0.26984 0.76668 0.0
H1282 H 0.39751 0.17882 0.77373 0.0
H1283 H 0.40984 0.2312 0.61569 0.0
C1284 C 0.4063 0.19882 0.56836 0.0
C1285 C 0.40323 0.17357 0.56946 0.0
C1286 C 0.40128 0.19881 0.77208 0.0
C1287 C 0.40623 0.19963 0.66851 0.0
C1288 C 0.4007 0.21105 0.82108 0.0
C1289 C 0.4052 0.23684 0.82027 0.0
C1290 C 0.40637 0.21241 0.7217 0.0
C1291 C 0.41061 0.24992 0.76925 0.0
C1292 C 0.40788 0.21191 0.61762 0.0
C1293 C 0.40248 0.16228 0.62108 0.0
N1294 N 0.41091 0.23752 0.72201 0.0
N1295 N 0.40375 0.1753 0.66853 0.0
H1296 H 0.82136 0.20364 0.53345 0.0
H1297 H 0.80924 0.20749 0.86289 0.0
H1298 H 0.88001 0.26735 0.63132 0.0
H1299 H 0.77982 0.13644 0.76757 0.0
H1300 H 0.8268 0.2332 0.77696 0.0
H1301 H 0.79741 0.18253 0.61804 0.0
C1302 C 0.82906 0.21338 0.57268 0.0
C1303 C 0.85299 0.23714 0.57526 0.0
C1304 C 0.81616 0.21198 0.775 0.0
C1305 C 0.82535 0.21313 0.67242 0.0
C1306 C 0.80601 0.19738 0.82376 0.0
C1307 C 0.79329 0.1699 0.82203 0.0
C1308 C 0.81292 0.19887 0.72444 0.0
C1309 C 0.78973 0.15763 0.77054 0.0
C1310 C 0.81537 0.20128 0.62095 0.0
C1311 C 0.86174 0.24898 0.62736 0.0
N1312 N 0.79947 0.17216 0.72389 0.0
N1313 N 0.84802 0.23677 0.674 0.0
H1314 H 0.88774 0.63083 0.76758 0.0
H1315 H 0.76769 0.63861 0.6403 0.0
H1316 H 0.82612 0.62608 0.87157 0.0
H1317 H 0.81323 0.61286 0.54713 0.0
H1318 H 0.78775 0.6339 0.72606 0.0
H1319 H 0.86015 0.62384 0.68634 0.0
C1320 C 0.86798 0.62742 0.77324 0.0
C1321 C 0.85881 0.62825 0.8261 0.0
C1322 C 0.79304 0.62895 0.68684 0.0
C1323 C 0.82756 0.62167 0.73332 0.0
C1324 C 0.7816 0.63162 0.63802 0.0
C1325 C 0.78925 0.62666 0.58658 0.0
C1326 C 0.81225 0.62133 0.68387 0.0
C1327 C 0.80722 0.61748 0.58585 0.0
C1328 C 0.8523 0.62368 0.72692 0.0
C1329 C 0.83351 0.62485 0.83135 0.0
N1330 N 0.81836 0.6155 0.63354 0.0
N1331 N 0.81883 0.62208 0.78538 0.0
H1332 H 0.83726 0.64463 0.04652 0.0
H1333 H 0.82355 0.61854 0.3718 0.0
H1334 H 0.88817 0.62463 0.13767 0.0
H1335 H 0.7635 0.61989 0.27101 0.0
H1336 H 0.84845 0.62204 0.28786 0.0
H1337 H 0.81131 0.6376 0.12974 0.0
C1338 C 0.843 0.63872 0.08404 0.0
C1339 C 0.86495 0.63517 0.085 0.0
C1340 C 0.82972 0.62132 0.28411 0.0
C1341 C 0.83515 0.62706 0.18085 0.0
C1342 C 0.81554 0.61939 0.33194 0.0
C1343 C 0.79157 0.61916 0.32831 0.0
C1344 C 0.81991 0.62325 0.23235 0.0
C1345 C 0.78196 0.62013 0.27573 0.0
C1346 C 0.82806 0.63459 0.13158 0.0
C1347 C 0.87132 0.62743 0.13495 0.0
N1348 N 0.7963 0.6224 0.22987 0.0
N1349 N 0.85656 0.62376 0.18101 0.0
H1350 H 0.40163 0.19807 0.36881 0.0
H1351 H 0.39357 0.19895 0.03776 0.0
H1352 H 0.4022 0.13974 0.26231 0.0
H1353 H 0.39555 0.26065 0.13779 0.0
H1354 H 0.39614 0.17725 0.12088 0.0
H1355 H 0.39892 0.22148 0.28664 0.0
C1356 C 0.40069 0.19001 0.32806 0.0
C1357 C 0.40148 0.16671 0.32197 0.0
C1358 C 0.39607 0.19554 0.12501 0.0
C1359 C 0.39875 0.19332 0.22826 0.0
C1360 C 0.39459 0.20803 0.07733 0.0
C1361 C 0.3943 0.23172 0.08063 0.0
C1362 C 0.3973 0.20667 0.17701 0.0
C1363 C 0.39581 0.24247 0.13331 0.0
C1364 C 0.39943 0.20346 0.28128 0.0
C1365 C 0.40112 0.15742 0.26857 0.0
N1366 N 0.39718 0.22982 0.17953 0.0
N1367 N 0.39961 0.17063 0.22387 0.0
H1368 H 0.76472 0.14762 0.14076 0.0
H1369 H 0.89559 0.26651 0.27265 0.0
H1370 H 0.83682 0.19397 0.05059 0.0
H1371 H 0.82965 0.2128 0.37171 0.0
H1372 H 0.87331 0.24081 0.19013 0.0
H1373 H 0.78677 0.17207 0.22514 0.0
C1374 C 0.78507 0.16305 0.13855 0.0
C1375 C 0.79886 0.16879 0.08835 0.0
C1376 C 0.86372 0.23442 0.22986 0.0
C1377 C 0.82419 0.19683 0.18465 0.0
C1378 C 0.87654 0.24898 0.27692 0.0
C1379 C 0.86466 0.24126 0.32888 0.0
C1380 C 0.83846 0.2123 0.23456 0.0
C1381 C 0.83965 0.21892 0.33231 0.0
C1382 C 0.79768 0.1769 0.18678 0.0
C1383 C 0.82533 0.18879 0.08819 0.0
N1384 N 0.82727 0.20526 0.2857 0.0
N1385 N 0.83703 0.20206 0.13536 0.0
H1386 H 0.6358 0.81443 0.12283 0.0
H1387 H 0.64298 0.82442 0.45393 0.0
H1388 H 0.62903 0.75302 0.23057 0.0
H1389 H 0.63485 0.88019 0.35183 0.0
H1390 H 0.64154 0.80011 0.37135 0.0
H1391 H 0.63978 0.84119 0.20458 0.0
C1392 C 0.63574 0.80689 0.16377 0.0
C1393 C 0.6328 0.78188 0.17033 0.0
C1394 C 0.63999 0.81761 0.36678 0.0
C1395 C 0.63644 0.81176 0.26359 0.0
C1396 C 0.64081 0.83155 0.41405 0.0
C1397 C 0.63901 0.85441 0.40987 0.0
C1398 C 0.63747 0.82654 0.31448 0.0
C1399 C 0.63611 0.86256 0.35696 0.0
C1400 C 0.63767 0.82197 0.21031 0.0
C1401 C 0.63175 0.77245 0.22399 0.0
N1402 N 0.63555 0.8487 0.31125 0.0
N1403 N 0.63366 0.7874 0.26849 0.0
H1404 H 0.16312 0.75333 0.35622 0.0
H1405 H 0.26354 0.89077 0.22128 0.0
H1406 H 0.20661 0.82566 0.4473 0.0
H1407 H 0.2389 0.81839 0.13376 0.0
H1408 H 0.24324 0.86601 0.30509 0.0
H1409 H 0.19065 0.77508 0.27471 0.0
C1410 C 0.17864 0.77358 0.35939 0.0
C1411 C 0.18232 0.78774 0.40856 0.0
C1412 C 0.24244 0.85536 0.26795 0.0
C1413 C 0.21367 0.81266 0.31581 0.0
C1414 C 0.25409 0.86956 0.22011 0.0
C1415 C 0.25277 0.85655 0.17076 0.0
C1416 C 0.22879 0.82781 0.26646 0.0
C1417 C 0.24036 0.82906 0.1713 0.0
C1418 C 0.19431 0.78598 0.31289 0.0
C1419 C 0.2027 0.81397 0.41023 0.0
N1420 N 0.2284 0.81548 0.21832 0.0
N1421 N 0.21734 0.82554 0.36462 0.0
H1422 H 0.20627 0.39332 0.12927 0.0
H1423 H 0.21028 0.3983 0.45971 0.0
H1424 H 0.15461 0.40923 0.22784 0.0
H1425 H 0.2658 0.38836 0.36089 0.0
H1426 H 0.18975 0.40242 0.3754 0.0
H1427 H 0.22818 0.39132 0.21346 0.0
C1428 C 0.19953 0.39639 0.16874 0.0
C1429 C 0.1784 0.40117 0.17166 0.0
C1430 C 0.20649 0.39947 0.372 0.0
C1431 C 0.20365 0.39921 0.26831 0.0
C1432 C 0.21823 0.39708 0.42013 0.0
C1433 C 0.23965 0.39274 0.4172 0.0
C1434 C 0.21627 0.39761 0.32035 0.0
C1435 C 0.24929 0.39163 0.36491 0.0
C1436 C 0.21214 0.39535 0.21679 0.0
C1437 C 0.17072 0.40535 0.22377 0.0
N1438 N 0.23742 0.39389 0.31847 0.0
N1439 N 0.18328 0.40415 0.27012 0.0
H1440 H 0.25143 0.33594 0.06866 0.0
H1441 H 0.31508 0.24275 0.07941 0.0
H1442 H 0.2278 0.27209 0.18411 0.0
H1443 H 0.34545 0.31214 0.97793 0.0
H1444 H 0.2811 0.25156 0.11389 0.0
H1445 H 0.28371 0.32559 0.02952 0.0
C1446 C 0.25283 0.31958 0.08539 0.0
C1447 C 0.23699 0.30498 0.13002 0.0
C1448 C 0.2952 0.26491 0.08412 0.0
C1449 C 0.27407 0.29318 0.08581 0.0
C1450 C 0.31451 0.25977 0.06421 0.0
C1451 C 0.33297 0.27656 0.02538 0.0
C1452 C 0.2943 0.28706 0.06515 0.0
C1453 C 0.33171 0.29874 0.00813 0.0
C1454 C 0.27141 0.31381 0.06334 0.0
C1455 C 0.23986 0.28414 0.15032 0.0
N1456 N 0.31266 0.30328 0.02793 0.0
N1457 N 0.25803 0.27891 0.12818 0.0
H1458 H 0.76314 0.07287 0.11679 0.0
H1459 H 0.71425 0.92393 0.03207 0.0
H1460 H 0.72361 0.03766 0.96389 0.0
H1461 H 0.75645 0.95936 0.18301 0.0
H1462 H 0.71356 0.96418 0.011 0.0
H1463 H 0.75644 0.03013 0.1471 0.0
C1464 C 0.75275 0.05601 0.08995 0.0
C1465 C 0.74416 0.05872 0.03755 0.0
C1466 C 0.72284 0.96313 0.04893 0.0
C1467 C 0.73664 1.01 0.07134 0.0
C1468 C 0.72312 0.94007 0.06114 0.0
C1469 C 0.73549 0.93824 0.10934 0.0
C1470 C 0.735 0.98461 0.08515 0.0
C1471 C 0.74702 0.96 0.14498 0.0
C1472 C 0.74894 0.03166 0.10714 0.0
C1473 C 0.73055 0.03635 0.00449 0.0
N1474 N 0.74658 0.9823 0.13208 0.0
N1475 N 0.72751 0.01298 0.02159 0.0
H1476 H 0.98704 0.71685 0.95001 0.0
H1477 H 0.09941 0.76627 0.17417 0.0
H1478 H 0.96939 0.68737 0.11663 0.0
H1479 H 0.09877 0.81745 0.04634 0.0
H1480 H 0.05392 0.7343 0.15076 0.0
H1481 H 0.03069 0.75086 0.98013 0.0
C1482 C 0.99258 0.71747 0.99288 0.0
C1483 C 0.97494 0.69933 0.03086 0.0
C1484 C 0.06383 0.75263 0.12817 0.0
C1485 C 0.0247 0.73787 0.06571 0.0
C1486 C 0.08981 0.77102 0.14158 0.0
C1487 C 0.10334 0.79474 0.11196 0.0
C1488 C 0.05139 0.75768 0.08415 0.0
C1489 C 0.08967 0.79928 0.06945 0.0
C1490 C 1.01732 0.73697 0.01018 0.0
C1491 C 0.98266 0.70112 0.08626 0.0
N1492 N 0.06463 0.78084 0.05648 0.0
N1493 N 1.0072 0.71995 0.10209 0.0
H1494 H 0.28346 0.22674 0.30868 0.0
H1495 H 0.32116 0.34303 0.52462 0.0
H1496 H 0.34605 0.25104 0.42813 0.0
H1497 H 0.25213 0.31092 0.42098 0.0
H1498 H 0.33122 0.31024 0.48869 0.0
H1499 H 0.27198 0.25777 0.34887 0.0
C1500 C 0.29481 0.23865 0.34341 0.0
C1501 C 0.31589 0.23647 0.36481 0.0
C1502 C 0.3138 0.31027 0.47397 0.0
C1503 C 0.30284 0.27209 0.41112 0.0
C1504 C 0.30811 0.32908 0.49426 0.0
C1505 C 0.2856 0.32954 0.47618 0.0
C1506 C 0.29705 0.29196 0.43471 0.0
C1507 C 0.2694 0.31098 0.4368 0.0
C1508 C 0.28817 0.25629 0.36649 0.0
C1509 C 0.32961 0.25205 0.41048 0.0
N1510 N 0.27548 0.29298 0.41728 0.0
N1511 N 0.32297 0.26936 0.43186 0.0
H1512 H 0.6925 0.98607 0.5264 0.0
H1513 H 0.80134 0.06769 0.29672 0.0
H1514 H 0.71057 0.95032 0.39069 0.0
H1515 H 0.78243 0.10383 0.43069 0.0
H1516 H 0.76911 0.02458 0.33207 0.0
H1517 H 0.7257 0.0293 0.49292 0.0
C1518 C 0.70348 0.98733 0.48948 0.0
C1519 C 0.69917 0.96454 0.46184 0.0
C1520 C 0.772 0.04191 0.35383 0.0
C1521 C 0.73717 0.01401 0.42306 0.0
C1522 C 0.79036 0.06658 0.33354 0.0
C1523 C 0.7945 0.08951 0.3605 0.0
C1524 C 0.75752 0.03999 0.40148 0.0
C1525 C 0.78004 0.08675 0.40871 0.0
C1526 C 0.72251 0.01202 0.4705 0.0
C1527 C 0.71382 0.96735 0.41405 0.0
N1528 N 0.76212 0.06247 0.42748 0.0
N1529 N 0.7322 0.99161 0.39622 0.0
H1530 H 0.93972 0.72626 0.41896 0.0
H1531 H 0.0789 0.73945 0.36363 0.0
H1532 H 0.95233 0.68814 0.27899 0.0
H1533 H 0.04834 0.73113 0.52854 0.0
H1534 H 0.03561 0.7291 0.32654 0.0
H1535 H 0.98255 0.73607 0.45567 0.0
C1536 C 0.95121 0.71975 0.39591 0.0
C1537 C 0.94201 0.70629 0.34539 0.0
C1538 C 0.03838 0.72931 0.37087 0.0
C1539 C 0.99165 0.71842 0.38674 0.0
C1540 C 0.06297 0.73518 0.3919 0.0
C1541 C 0.06682 0.73544 0.44913 0.0
C1542 C 1.01787 0.72443 0.4075 0.0
C1543 C 0.04579 0.73022 0.48424 0.0
C1544 C 0.97579 0.72558 0.41687 0.0
C1545 C 0.9585 0.69909 0.31725 0.0
N1546 N 0.02226 0.72517 0.46296 0.0
N1547 N 0.9825 0.70541 0.33804 0.0
H1548 H 0.707 0.76676 0.90994 0.0
H1549 H 0.7826 0.68783 0.97293 0.0
H1550 H 0.68285 0.70746 0.03638 0.0
H1551 H 0.79246 0.73037 0.82112 0.0
H1552 H 0.7488 0.69815 0.00157 0.0
H1553 H 0.74121 0.75697 0.88123 0.0
C1554 C 0.709 0.75178 0.93183 0.0
C1555 C 0.69228 0.73814 0.97606 0.0
C1556 C 0.75831 0.70518 0.96193 0.0
C1557 C 0.7311 0.72655 0.94306 0.0
C1558 C 0.77772 0.69943 0.94571 0.0
C1559 C 0.79036 0.70821 0.8945 0.0
C1560 C 0.75164 0.72008 0.92699 0.0
C1561 C 0.78303 0.72296 0.86067 0.0
C1562 C 0.72837 0.74605 0.91518 0.0
C1563 C 0.6953 0.71846 0.00212 0.0
N1564 N 0.76426 0.72853 0.8776 0.0
N1565 N 0.71443 0.71337 0.98548 0.0
H1566 H 0.27476 0.05669 0.81275 0.0
H1567 H 0.32007 0.98238 0.02446 0.0
H1568 H 0.31939 0.09179 0.96141 0.0
H1569 H 0.28194 0.94875 0.86953 0.0
H1570 H 0.3222 0.0235 -0.00089 0.0
H1571 H 0.27815 0.01748 0.83077 0.0
C1572 C 0.28526 0.05616 0.84918 0.0
C1573 C 0.29682 0.07763 0.88558 0.0
C1574 C 0.31358 1.00728 0.97024 0.0
C1575 C 0.30103 0.03291 0.90612 0.0
C1576 C 0.31248 0.9838 0.98471 0.0
C1577 C 0.30027 0.962 0.94961 0.0
C1578 C 0.30257 1.00908 0.91993 0.0
C1579 C 0.29103 0.96502 0.8982 0.0
C1580 C 0.28737 0.03386 0.85918 0.0
C1581 C 0.31046 0.07592 0.93176 0.0
N1582 N 0.29211 0.98806 0.88506 0.0
N1583 N 0.31207 0.05396 0.94078 0.0
H1584 H 0.08254 0.31118 0.91605 0.0
H1585 H 0.92734 0.24374 0.95424 0.0
H1586 H 0.04508 0.34398 0.01555 0.0
H1587 H 0.96197 0.22507 0.81702 0.0
H1588 H 0.97101 0.27835 0.98207 0.0
H1589 H 0.03914 0.27731 0.88327 0.0
C1590 C 0.06521 0.31124 0.931 0.0
C1591 C 0.06739 0.33024 0.96903 0.0
C1592 C 0.96909 0.26678 0.94571 0.0
C1593 C 1.01786 0.2918 0.93163 0.0
C1594 C 0.94419 0.24693 0.93003 0.0
C1595 C 0.94106 0.2315 0.88335 0.0
C1596 C 0.99115 0.27113 0.91488 0.0
C1597 C 0.96354 0.23667 0.85307 0.0
C1598 C 0.04049 0.29204 0.91201 0.0
C1599 C 0.04435 0.32976 0.98621 0.0
N1600 N 0.98771 0.25596 0.86959 0.0
N1601 N 0.02056 0.31073 0.96776 0.0
H1602 H 0.67619 0.7471 0.64919 0.0
H1603 H 0.77285 0.72364 0.45882 0.0
H1604 H 0.74552 0.8091 0.5711 0.0
H1605 H 0.72115 0.665 0.57541 0.0
H1606 H 0.76034 0.754 0.49588 0.0
H1607 H 0.68981 0.71564 0.62022 0.0
C1608 C 0.69435 0.75416 0.62641 0.0
C1609 C 0.70955 0.7808 0.61198 0.0
C1610 C 0.75174 0.73455 0.51369 0.0
C1611 C 0.72495 0.74489 0.5782 0.0
C1612 C 0.759 0.71711 0.49262 0.0
C1613 C 0.74824 0.69164 0.51419 0.0
C1614 C 0.73319 0.72652 0.55637 0.0
C1615 C 0.72981 0.68433 0.55718 0.0
C1616 C 0.70203 0.73617 0.60976 0.0
C1617 C 0.73278 0.78873 0.58203 0.0
N1618 N 0.72274 0.70167 0.57678 0.0
N1619 N 0.73962 0.77087 0.56589 0.0
H1620 H 0.25521 0.94686 0.6706 0.0
H1621 H 0.33866 0.0429 0.43907 0.0
H1622 H 0.21849 0.93776 0.51038 0.0
H1623 H 0.32604 0.07642 0.58631 0.0
H1624 H 0.30237 0.9997 0.46671 0.0
H1625 H 0.28921 0.99077 0.64335 0.0
C1626 C 0.25392 0.95385 0.62997 0.0
C1627 C 0.23342 0.93804 0.59307 0.0
C1628 C 0.30768 0.01658 0.49283 0.0
C1629 C 0.27342 0.9881 0.56118 0.0
C1630 C 0.32835 0.0411 0.47733 0.0
C1631 C 0.33526 0.06315 0.51053 0.0
C1632 C 0.29458 0.014 0.54283 0.0
C1633 C 0.32124 0.05984 0.55966 0.0
C1634 C 0.27359 0.97894 0.6145 0.0
C1635 C 0.23392 0.94848 0.54021 0.0
N1636 N 0.30174 0.03558 0.57486 0.0
N1637 N 0.25373 0.97267 0.52567 0.0
H1638 H 0.94942 0.25146 0.59107 0.0
H1639 H 0.10653 0.33781 0.56825 0.0
H1640 H 0.98859 0.31472 0.47415 0.0
H1641 H 0.06537 0.2751 0.68563 0.0
H1642 H 0.06405 0.32888 0.53004 0.0
H1643 H 0.99205 0.25926 0.62371 0.0
C1644 C 0.96702 0.26691 0.572 0.0
C1645 C 0.96537 0.28222 0.52936 0.0
C1646 C 0.06436 0.31705 0.56407 0.0
C1647 C 1.01458 0.29175 0.5674 0.0
C1648 C 0.08862 0.32201 0.58563 0.0
C1649 C 0.08959 0.30732 0.63055 0.0
C1650 C 0.04089 0.29718 0.58741 0.0
C1651 C 0.06566 0.28725 0.65167 0.0
C1652 C 0.99143 0.2715 0.59091 0.0
C1653 C 0.98893 0.30249 0.50729 0.0
N1654 N 0.04241 0.28285 0.63008 0.0
N1655 N 1.01256 0.30664 0.52647 0.0
loop_
_geom_bond_atom_site_label_1
_geom_bond_atom_site_label_2
_geom_bond_distance
_geom_bond_site_symmetry_2
_ccdc_geom_bond_type
Eu0 N29 2.600 . S
Eu0 N35 2.562 . S
Eu0 O44 2.462 . S
Eu0 O45 2.373 . S
Eu0 O47 2.432 . S
Eu0 O48 2.291 . S
Eu0 O52 2.335 . S
Eu0 O55 2.372 1_554 S
Eu0 C64 2.787 . S
C1 N2 1.365 . S
C1 C4 1.405 . S
C1 C8 1.448 . S
N2 C1 1.365 . S
N2 C5 1.319 . S
N2 Eu11 2.600 . S
C3 C5 1.397 . S
C3 C6 1.367 . S
C3 H23 0.931 . S
C4 C1 1.405 . S
C4 C6 1.403 . S
C4 C10 1.439 . S
C5 N2 1.319 . S
C5 C3 1.397 . S
C5 H16 0.930 . S
C6 C3 1.367 . S
C6 C4 1.403 . S
C6 H27 0.929 . S
C7 C8 1.430 1_556 S
C7 C9 1.387 . S
C7 C13 1.404 . S
C8 C1 1.448 . S
C8 C7 1.430 1_554 S
C8 N12 1.351 . S
C9 C7 1.387 . S
C9 C10 1.374 1_556 S
C9 H24 0.931 . S
C10 C4 1.439 . S
C10 C9 1.374 1_554 S
C10 H25 0.931 . S
Eu11 N2 2.600 . S
Eu11 N12 2.562 . S
Eu11 O46 2.335 . S
Eu11 O49 2.372 . S
Eu11 O50 2.462 . S
Eu11 O51 2.373 . S
Eu11 O53 2.432 . S
Eu11 O54 2.291 . S
Eu11 C75 2.787 . S
N12 C8 1.351 . S
N12 Eu11 2.562 . S
N12 C14 1.325 1_554 S
C13 C7 1.404 . S
C13 C15 1.366 . S
C13 H21 0.930 . S
C14 N12 1.325 1_556 S
C14 C15 1.416 . S
C14 H20 0.929 . S
C15 C13 1.366 . S
C15 C14 1.416 . S
C15 H17 0.930 . S
H16 C5 0.930 . S
H17 C15 0.930 . S
H18 C33 0.930 1_556 S
H19 C40 0.930 . S
H20 C14 0.929 . S
H21 C13 0.930 . S
H22 C36 0.929 . S
H23 C3 0.931 . S
H24 C9 0.931 . S
H25 C10 0.931 . S
H26 C31 0.931 . S
H27 C6 0.929 . S
H28 C39 0.930 . S
N29 Eu0 2.600 . S
N29 C30 1.365 . S
N29 C33 1.319 . S
C30 N29 1.365 . S
C30 C32 1.405 . S
C30 C38 1.448 . S
C31 H26 0.931 . S
C31 C33 1.397 1_556 S
C31 C34 1.367 1_556 S
C32 C30 1.405 . S
C32 C34 1.403 . S
C32 C65 1.439 . S
C33 H18 0.930 1_554 S
C33 N29 1.319 . S
C33 C31 1.397 1_554 S
C34 C31 1.367 1_554 S
C34 C32 1.403 . S
C34 H41 0.929 . S
N35 Eu0 2.562 . S
N35 C36 1.325 . S
N35 C38 1.351 . S
C36 H22 0.929 . S
C36 N35 1.325 . S
C36 C40 1.416 . S
C37 C38 1.430 . S
C37 C39 1.404 . S
C37 C66 1.387 . S
C38 C30 1.448 . S
C38 N35 1.351 . S
C38 C37 1.430 . S
C39 H28 0.930 . S
C39 C37 1.404 . S
C39 C40 1.366 . S
C40 H19 0.930 . S
C40 C36 1.416 . S
C40 C39 1.366 . S
H41 C34 0.929 . S
H42 C65 0.931 . S
H43 C66 0.931 . S
O44 Eu0 2.462 . S
O44 C64 1.252 . S
O45 Eu0 2.373 . S
O45 C56 1.249 . S
O46 Eu11 2.335 . S
O46 C56 1.264 . S
O47 Eu0 2.432 . S
O47 C64 1.268 . S
O48 Eu0 2.291 . S
O48 C63 1.255 . S
O49 Eu11 2.372 . S
O49 C63 1.257 . S
O50 Eu11 2.462 . S
O50 C75 1.252 . S
O51 Eu11 2.373 . S
O51 C67 1.249 . S
O52 Eu0 2.335 . S
O52 C67 1.264 . S
O53 Eu11 2.432 . S
O53 C75 1.268 . S
O54 Eu11 2.291 . S
O54 C74 1.255 1_554 S
O55 Eu0 2.372 1_556 S
O55 C74 1.257 . S
C56 O45 1.249 . S
C56 O46 1.264 . S
C57 C60 1.382 1_554 S
C57 C62 1.390 . S
C57 C64 1.506 . S
C58 C59 1.398 . S
C58 C62 1.392 . S
C59 C58 1.398 . S
C59 C61 1.372 1_554 S
C59 H76 0.931 . S
C60 C57 1.382 1_556 S
C60 C61 1.390 . S
C60 H77 0.931 . S
C61 C59 1.372 1_556 S
C61 C60 1.390 . S
C61 H78 0.929 . S
C62 C57 1.390 . S
C62 C58 1.392 . S
C62 H79 0.930 . S
C63 O48 1.255 . S
C63 O49 1.257 . S
C64 Eu0 2.787 . S
C64 O44 1.252 . S
C64 O47 1.268 . S
C64 C57 1.506 . S
C65 C32 1.439 . S
C65 H42 0.931 . S
C65 C66 1.374 . S
C66 C37 1.387 . S
C66 H43 0.931 . S
C66 C65 1.374 . S
C67 O51 1.249 . S
C67 O52 1.264 . S
C68 C71 1.382 . S
C68 C72 1.390 . S
C68 C75 1.506 . S
C69 C70 1.398 . S
C69 C72 1.392 . S
C70 C69 1.398 . S
C70 C73 1.372 . S
C70 H80 0.931 . S
C71 C68 1.382 . S
C71 C73 1.390 . S
C71 H81 0.931 . S
C72 C68 1.390 . S
C72 C69 1.392 . S
C72 H82 0.930 . S
C73 C70 1.372 . S
C73 C71 1.390 . S
C73 H83 0.929 . S
C74 O54 1.255 1_556 S
C74 O55 1.257 . S
C75 Eu11 2.787 . S
C75 O50 1.252 . S
C75 O53 1.268 . S
C75 C68 1.506 . S
H76 C59 0.931 . S
H77 C60 0.931 . S
H78 C61 0.929 . S
H79 C62 0.930 . S
H80 C70 0.931 . S
H81 C71 0.931 . S
H82 C72 0.930 . S
H83 C73 0.929 . S
Eu84 N113 2.600 . S
Eu84 N119 2.562 . S
Eu84 O128 2.462 . S
Eu84 O129 2.373 . S
Eu84 O131 2.432 . S
Eu84 O132 2.291 . S
Eu84 O136 2.335 . S
Eu84 O139 2.372 1_554 S
Eu84 C148 2.787 . S
C85 N86 1.365 . S
C85 C88 1.405 . S
C85 C92 1.448 . S
N86 C85 1.365 . S
N86 C89 1.319 . S
N86 Eu95 2.600 . S
C87 C89 1.397 . S
C87 C90 1.367 . S
C87 H107 0.931 . S
C88 C85 1.405 . S
C88 C90 1.403 . S
C88 C94 1.439 . S
C89 N86 1.319 . S
C89 C87 1.397 . S
C89 H100 0.930 . S
C90 C87 1.367 . S
C90 C88 1.403 . S
C90 H111 0.929 . S
C91 C92 1.430 1_556 S
C91 C93 1.387 . S
C91 C97 1.404 . S
C92 C85 1.448 . S
C92 C91 1.430 1_554 S
C92 N96 1.351 . S
C93 C91 1.387 . S
C93 C94 1.374 1_556 S
C93 H108 0.931 . S
C94 C88 1.439 . S
C94 C93 1.374 1_554 S
C94 H109 0.931 . S
Eu95 N86 2.600 . S
Eu95 N96 2.562 . S
Eu95 O130 2.335 . S
Eu95 O133 2.372 . S
Eu95 O134 2.462 . S
Eu95 O135 2.373 . S
Eu95 O137 2.432 . S
Eu95 O138 2.291 . S
Eu95 C159 2.787 . S
N96 C92 1.351 . S
N96 Eu95 2.562 . S
N96 C98 1.325 1_554 S
C97 C91 1.404 . S
C97 C99 1.366 . S
C97 H105 0.930 . S
C98 N96 1.325 1_556 S
C98 C99 1.416 . S
C98 H104 0.929 . S
C99 C97 1.366 . S
C99 C98 1.416 . S
C99 H101 0.930 . S
H100 C89 0.930 . S
H101 C99 0.930 . S
H102 C117 0.930 1_556 S
H103 C124 0.930 . S
H104 C98 0.929 . S
H105 C97 0.930 . S
H106 C120 0.929 . S
H107 C87 0.931 . S
H108 C93 0.931 . S
H109 C94 0.931 . S
H110 C115 0.931 . S
H111 C90 0.929 . S
H112 C123 0.930 . S
N113 Eu84 2.600 . S
N113 C114 1.365 . S
N113 C117 1.319 . S
C114 N113 1.365 . S
C114 C116 1.405 . S
C114 C122 1.448 . S
C115 H110 0.931 . S
C115 C117 1.397 1_556 S
C115 C118 1.367 1_556 S
C116 C114 1.405 . S
C116 C118 1.403 . S
C116 C149 1.439 . S
C117 H102 0.930 1_554 S
C117 N113 1.319 . S
C117 C115 1.397 1_554 S
C118 C115 1.367 1_554 S
C118 C116 1.403 . S
C118 H125 0.929 . S
N119 Eu84 2.562 . S
N119 C120 1.325 . S
N119 C122 1.351 . S
C120 H106 0.929 . S
C120 N119 1.325 . S
C120 C124 1.416 . S
C121 C122 1.430 . S
C121 C123 1.404 . S
C121 C150 1.387 . S
C122 C114 1.448 . S
C122 N119 1.351 . S
C122 C121 1.430 . S
C123 H112 0.930 . S
C123 C121 1.404 . S
C123 C124 1.366 . S
C124 H103 0.930 . S
C124 C120 1.416 . S
C124 C123 1.366 . S
H125 C118 0.929 . S
H126 C149 0.931 . S
H127 C150 0.931 . S
O128 Eu84 2.462 . S
O128 C148 1.252 . S
O129 Eu84 2.373 . S
O129 C140 1.249 . S
O130 Eu95 2.335 . S
O130 C140 1.264 . S
O131 Eu84 2.432 . S
O131 C148 1.268 . S
O132 Eu84 2.291 . S
O132 C147 1.255 . S
O133 Eu95 2.372 . S
O133 C147 1.257 . S
O134 Eu95 2.462 . S
O134 C159 1.252 . S
O135 Eu95 2.373 . S
O135 C151 1.249 . S
O136 Eu84 2.335 . S
O136 C151 1.264 . S
O137 Eu95 2.432 . S
O137 C159 1.268 . S
O138 Eu95 2.291 . S
O138 C158 1.255 1_554 S
O139 Eu84 2.372 1_556 S
O139 C158 1.257 . S
C140 O129 1.249 . S
C140 O130 1.264 . S
C141 C144 1.382 1_554 S
C141 C146 1.390 . S
C141 C148 1.506 . S
C142 C143 1.398 . S
C142 C146 1.392 . S
C143 C142 1.398 . S
C143 C145 1.372 1_554 S
C143 H160 0.931 . S
C144 C141 1.382 1_556 S
C144 C145 1.390 . S
C144 H161 0.931 . S
C145 C143 1.372 1_556 S
C145 C144 1.390 . S
C145 H162 0.929 . S
C146 C141 1.390 . S
C146 C142 1.392 . S
C146 H163 0.930 . S
C147 O132 1.255 . S
C147 O133 1.257 . S
C148 Eu84 2.787 . S
C148 O128 1.252 . S
C148 O131 1.268 . S
C148 C141 1.506 . S
C149 C116 1.439 . S
C149 H126 0.931 . S
C149 C150 1.374 . S
C150 C121 1.387 . S
C150 H127 0.931 . S
C150 C149 1.374 . S
C151 O135 1.249 . S
C151 O136 1.264 . S
C152 C155 1.382 . S
C152 C156 1.390 . S
C152 C159 1.506 . S
C153 C154 1.398 . S
C153 C156 1.392 . S
C154 C153 1.398 . S
C154 C157 1.372 . S
C154 H164 0.931 . S
C155 C152 1.382 . S
C155 C157 1.390 . S
C155 H165 0.931 . S
C156 C152 1.390 . S
C156 C153 1.392 . S
C156 H166 0.930 . S
C157 C154 1.372 . S
C157 C155 1.390 . S
C157 H167 0.929 . S
C158 O138 1.255 1_556 S
C158 O139 1.257 . S
C159 Eu95 2.787 . S
C159 O134 1.252 . S
C159 O137 1.268 . S
C159 C152 1.506 . S
H160 C143 0.931 . S
H161 C144 0.931 . S
H162 C145 0.929 . S
H163 C146 0.930 . S
H164 C154 0.931 . S
H165 C155 0.931 . S
H166 C156 0.930 . S
H167 C157 0.929 . S
Eu168 N197 2.600 . S
Eu168 N203 2.562 . S
Eu168 O212 2.462 . S
Eu168 O213 2.373 . S
Eu168 O215 2.432 . S
Eu168 O216 2.291 . S
Eu168 O220 2.335 . S
Eu168 O223 2.372 1_554 S
Eu168 C232 2.787 . S
C169 N170 1.365 . S
C169 C172 1.405 . S
C169 C176 1.448 . S
N170 C169 1.365 . S
N170 C173 1.319 . S
N170 Eu179 2.600 . S
C171 C173 1.397 . S
C171 C174 1.367 . S
C171 H191 0.931 . S
C172 C169 1.405 . S
C172 C174 1.403 . S
C172 C178 1.439 . S
C173 N170 1.319 . S
C173 C171 1.397 . S
C173 H184 0.930 . S
C174 C171 1.367 . S
C174 C172 1.403 . S
C174 H195 0.929 . S
C175 C176 1.430 1_556 S
C175 C177 1.387 . S
C175 C181 1.404 . S
C176 C169 1.448 . S
C176 C175 1.430 1_554 S
C176 N180 1.351 . S
C177 C175 1.387 . S
C177 C178 1.374 1_556 S
C177 H192 0.931 . S
C178 C172 1.439 . S
C178 C177 1.374 1_554 S
C178 H193 0.931 . S
Eu179 N170 2.600 . S
Eu179 N180 2.562 . S
Eu179 O214 2.335 . S
Eu179 O217 2.372 . S
Eu179 O218 2.462 . S
Eu179 O219 2.373 . S
Eu179 O221 2.432 . S
Eu179 O222 2.291 . S
Eu179 C243 2.787 . S
N180 C176 1.351 . S
N180 Eu179 2.562 . S
N180 C182 1.325 1_554 S
C181 C175 1.404 . S
C181 C183 1.366 . S
C181 H189 0.930 . S
C182 N180 1.325 1_556 S
C182 C183 1.416 . S
C182 H188 0.929 . S
C183 C181 1.366 . S
C183 C182 1.416 . S
C183 H185 0.930 . S
H184 C173 0.930 . S
H185 C183 0.930 . S
H186 C201 0.930 1_556 S
H187 C208 0.930 . S
H188 C182 0.929 . S
H189 C181 0.930 . S
H190 C204 0.929 . S
H191 C171 0.931 . S
H192 C177 0.931 . S
H193 C178 0.931 . S
H194 C199 0.931 . S
H195 C174 0.929 . S
H196 C207 0.930 . S
N197 Eu168 2.600 . S
N197 C198 1.365 . S
N197 C201 1.319 . S
C198 N197 1.365 . S
C198 C200 1.405 . S
C198 C206 1.448 . S
C199 H194 0.931 . S
C199 C201 1.397 1_556 S
C199 C202 1.367 1_556 S
C200 C198 1.405 . S
C200 C202 1.403 . S
C200 C233 1.439 . S
C201 H186 0.930 1_554 S
C201 N197 1.319 . S
C201 C199 1.397 1_554 S
C202 C199 1.367 1_554 S
C202 C200 1.403 . S
C202 H209 0.929 . S
N203 Eu168 2.562 . S
N203 C204 1.325 . S
N203 C206 1.351 . S
C204 H190 0.929 . S
C204 N203 1.325 . S
C204 C208 1.416 . S
C205 C206 1.430 . S
C205 C207 1.404 . S
C205 C234 1.387 . S
C206 C198 1.448 . S
C206 N203 1.351 . S
C206 C205 1.430 . S
C207 H196 0.930 . S
C207 C205 1.404 . S
C207 C208 1.366 . S
C208 H187 0.930 . S
C208 C204 1.416 . S
C208 C207 1.366 . S
H209 C202 0.929 . S
H210 C233 0.931 . S
H211 C234 0.931 . S
O212 Eu168 2.462 . S
O212 C232 1.252 . S
O213 Eu168 2.373 . S
O213 C224 1.249 . S
O214 Eu179 2.335 . S
O214 C224 1.264 . S
O215 Eu168 2.432 . S
O215 C232 1.268 . S
O216 Eu168 2.291 . S
O216 C231 1.255 . S
O217 Eu179 2.372 . S
O217 C231 1.257 . S
O218 Eu179 2.462 . S
O218 C243 1.252 . S
O219 Eu179 2.373 . S
O219 C235 1.249 . S
O220 Eu168 2.335 . S
O220 C235 1.264 . S
O221 Eu179 2.432 . S
O221 C243 1.268 . S
O222 Eu179 2.291 . S
O222 C242 1.255 1_554 S
O223 Eu168 2.372 1_556 S
O223 C242 1.257 . S
C224 O213 1.249 . S
C224 O214 1.264 . S
C225 C228 1.382 1_554 S
C225 C230 1.390 . S
C225 C232 1.506 . S
C226 C227 1.398 . S
C226 C230 1.392 . S
C227 C226 1.398 . S
C227 C229 1.372 1_554 S
C227 H244 0.931 . S
C228 C225 1.382 1_556 S
C228 C229 1.390 . S
C228 H245 0.931 . S
C229 C227 1.372 1_556 S
C229 C228 1.390 . S
C229 H246 0.929 . S
C230 C225 1.390 . S
C230 C226 1.392 . S
C230 H247 0.930 . S
C231 O216 1.255 . S
C231 O217 1.257 . S
C232 Eu168 2.787 . S
C232 O212 1.252 . S
C232 O215 1.268 . S
C232 C225 1.506 . S
C233 C200 1.439 . S
C233 H210 0.931 . S
C233 C234 1.374 . S
C234 C205 1.387 . S
C234 H211 0.931 . S
C234 C233 1.374 . S
C235 O219 1.249 . S
C235 O220 1.264 . S
C236 C239 1.382 . S
C236 C240 1.390 . S
C236 C243 1.506 . S
C237 C238 1.398 . S
C237 C240 1.392 . S
C238 C237 1.398 . S
C238 C241 1.372 . S
C238 H248 0.931 . S
C239 C236 1.382 . S
C239 C241 1.390 . S
C239 H249 0.931 . S
C240 C236 1.390 . S
C240 C237 1.392 . S
C240 H250 0.930 . S
C241 C238 1.372 . S
C241 C239 1.390 . S
C241 H251 0.929 . S
C242 O222 1.255 1_556 S
C242 O223 1.257 . S
C243 Eu179 2.787 . S
C243 O218 1.252 . S
C243 O221 1.268 . S
C243 C236 1.506 . S
H244 C227 0.931 . S
H245 C228 0.931 . S
H246 C229 0.929 . S
H247 C230 0.930 . S
H248 C238 0.931 . S
H249 C239 0.931 . S
H250 C240 0.930 . S
H251 C241 0.929 . S
Eu252 N281 2.600 . S
Eu252 N287 2.562 . S
Eu252 O296 2.462 . S
Eu252 O297 2.373 . S
Eu252 O299 2.432 . S
Eu252 O300 2.291 . S
Eu252 O304 2.335 . S
Eu252 O307 2.372 . S
Eu252 C316 2.787 . S
C253 N254 1.365 . S
C253 C256 1.405 . S
C253 C260 1.448 . S
N254 C253 1.365 . S
N254 C257 1.319 . S
N254 Eu263 2.600 . S
C255 C257 1.397 . S
C255 C258 1.367 . S
C255 H275 0.931 . S
C256 C253 1.405 . S
C256 C258 1.403 . S
C256 C262 1.439 . S
C257 N254 1.319 . S
C257 C255 1.397 . S
C257 H268 0.930 . S
C258 C255 1.367 . S
C258 C256 1.403 . S
C258 H279 0.929 . S
C259 C260 1.430 . S
C259 C261 1.387 . S
C259 C265 1.404 . S
C260 C253 1.448 . S
C260 C259 1.430 . S
C260 N264 1.351 . S
C261 C259 1.387 . S
C261 C262 1.374 . S
C261 H276 0.931 . S
C262 C256 1.439 . S
C262 C261 1.374 . S
C262 H277 0.931 . S
Eu263 N254 2.600 . S
Eu263 N264 2.562 . S
Eu263 O298 2.335 . S
Eu263 O301 2.372 . S
Eu263 O302 2.462 . S
Eu263 O303 2.373 . S
Eu263 O305 2.432 . S
Eu263 O306 2.291 . S
Eu263 C327 2.787 . S
N264 C260 1.351 . S
N264 Eu263 2.562 . S
N264 C266 1.325 . S
C265 C259 1.404 . S
C265 C267 1.366 . S
C265 H273 0.930 . S
C266 N264 1.325 . S
C266 C267 1.416 . S
C266 H272 0.929 . S
C267 C265 1.366 . S
C267 C266 1.416 . S
C267 H269 0.930 . S
H268 C257 0.930 . S
H269 C267 0.930 . S
H270 C285 0.930 . S
H271 C292 0.930 . S
H272 C266 0.929 . S
H273 C265 0.930 . S
H274 C288 0.929 . S
H275 C255 0.931 . S
H276 C261 0.931 . S
H277 C262 0.931 . S
H278 C283 0.931 . S
H279 C258 0.929 . S
H280 C291 0.930 . S
N281 Eu252 2.600 . S
N281 C282 1.365 . S
N281 C285 1.319 . S
C282 N281 1.365 . S
C282 C284 1.405 . S
C282 C290 1.448 . S
C283 H278 0.931 . S
C283 C285 1.397 . S
C283 C286 1.367 . S
C284 C282 1.405 . S
C284 C286 1.403 . S
C284 C317 1.439 . S
C285 H270 0.930 . S
C285 N281 1.319 . S
C285 C283 1.397 . S
C286 C283 1.367 . S
C286 C284 1.403 . S
C286 H293 0.929 . S
N287 Eu252 2.562 . S
N287 C288 1.325 . S
N287 C290 1.351 . S
C288 H274 0.929 . S
C288 N287 1.325 . S
C288 C292 1.416 . S
C289 C290 1.430 . S
C289 C291 1.404 . S
C289 C318 1.387 . S
C290 C282 1.448 . S
C290 N287 1.351 . S
C290 C289 1.430 . S
C291 H280 0.930 . S
C291 C289 1.404 . S
C291 C292 1.366 . S
C292 H271 0.930 . S
C292 C288 1.416 . S
C292 C291 1.366 . S
H293 C286 0.929 . S
H294 C317 0.931 . S
H295 C318 0.931 . S
O296 Eu252 2.462 . S
O296 C316 1.252 . S
O297 Eu252 2.373 . S
O297 C308 1.249 . S
O298 Eu263 2.335 . S
O298 C308 1.264 . S
O299 Eu252 2.432 . S
O299 C316 1.268 . S
O300 Eu252 2.291 . S
O300 C315 1.255 . S
O301 Eu263 2.372 . S
O301 C315 1.257 . S
O302 Eu263 2.462 . S
O302 C327 1.252 . S
O303 Eu263 2.373 . S
O303 C319 1.249 . S
O304 Eu252 2.335 . S
O304 C319 1.264 . S
O305 Eu263 2.432 . S
O305 C327 1.268 . S
O306 Eu263 2.291 . S
O306 C326 1.255 . S
O307 Eu252 2.372 . S
O307 C326 1.257 . S
C308 O297 1.249 . S
C308 O298 1.264 . S
C309 C312 1.382 . S
C309 C314 1.390 . S
C309 C316 1.506 . S
C310 C311 1.398 . S
C310 C314 1.392 . S
C311 C310 1.398 . S
C311 C313 1.372 . S
C311 H328 0.931 . S
C312 C309 1.382 . S
C312 C313 1.390 . S
C312 H329 0.931 . S
C313 C311 1.372 . S
C313 C312 1.390 . S
C313 H330 0.929 . S
C314 C309 1.390 . S
C314 C310 1.392 . S
C314 H331 0.930 . S
C315 O300 1.255 . S
C315 O301 1.257 . S
C316 Eu252 2.787 . S
C316 O296 1.252 . S
C316 O299 1.268 . S
C316 C309 1.506 . S
C317 C284 1.439 . S
C317 H294 0.931 . S
C317 C318 1.374 . S
C318 C289 1.387 . S
C318 H295 0.931 . S
C318 C317 1.374 . S
C319 O303 1.249 . S
C319 O304 1.264 . S
C320 C323 1.382 . S
C320 C324 1.390 . S
C320 C327 1.506 . S
C321 C322 1.398 . S
C321 C324 1.392 . S
C322 C321 1.398 . S
C322 C325 1.372 . S
C322 H332 0.931 . S
C323 C320 1.382 . S
C323 C325 1.390 . S
C323 H333 0.931 . S
C324 C320 1.390 . S
C324 C321 1.392 . S
C324 H334 0.930 . S
C325 C322 1.372 . S
C325 C323 1.390 . S
C325 H335 0.929 . S
C326 O306 1.255 . S
C326 O307 1.257 . S
C327 Eu263 2.787 . S
C327 O302 1.252 . S
C327 O305 1.268 . S
C327 C320 1.506 . S
H328 C311 0.931 . S
H329 C312 0.931 . S
H330 C313 0.929 . S
H331 C314 0.930 . S
H332 C322 0.931 . S
H333 C323 0.931 . S
H334 C324 0.930 . S
H335 C325 0.929 . S
Eu336 N365 2.600 . S
Eu336 N371 2.562 . S
Eu336 O380 2.462 . S
Eu336 O381 2.373 . S
Eu336 O383 2.432 . S
Eu336 O384 2.291 . S
Eu336 O388 2.335 . S
Eu336 O391 2.372 . S
Eu336 C400 2.787 . S
C337 N338 1.365 . S
C337 C340 1.405 . S
C337 C344 1.448 . S
N338 C337 1.365 . S
N338 C341 1.319 . S
N338 Eu347 2.600 . S
C339 C341 1.397 . S
C339 C342 1.367 . S
C339 H359 0.931 . S
C340 C337 1.405 . S
C340 C342 1.403 . S
C340 C346 1.439 . S
C341 N338 1.319 . S
C341 C339 1.397 . S
C341 H352 0.930 . S
C342 C339 1.367 . S
C342 C340 1.403 . S
C342 H363 0.929 . S
C343 C344 1.430 . S
C343 C345 1.387 . S
C343 C349 1.404 . S
C344 C337 1.448 . S
C344 C343 1.430 . S
C344 N348 1.351 . S
C345 C343 1.387 . S
C345 C346 1.374 . S
C345 H360 0.931 . S
C346 C340 1.439 . S
C346 C345 1.374 . S
C346 H361 0.931 . S
Eu347 N338 2.600 . S
Eu347 N348 2.562 . S
Eu347 O382 2.335 . S
Eu347 O385 2.372 . S
Eu347 O386 2.462 . S
Eu347 O387 2.373 . S
Eu347 O389 2.432 . S
Eu347 O390 2.291 . S
Eu347 C411 2.787 . S
N348 C344 1.351 . S
N348 Eu347 2.562 . S
N348 C350 1.325 . S
C349 C343 1.404 . S
C349 C351 1.366 . S
C349 H357 0.930 . S
C350 N348 1.325 . S
C350 C351 1.416 . S
C350 H356 0.929 . S
C351 C349 1.366 . S
C351 C350 1.416 . S
C351 H353 0.930 . S
H352 C341 0.930 . S
H353 C351 0.930 . S
H354 C369 0.930 . S
H355 C376 0.930 . S
H356 C350 0.929 . S
H357 C349 0.930 . S
H358 C372 0.929 . S
H359 C339 0.931 . S
H360 C345 0.931 . S
H361 C346 0.931 . S
H362 C367 0.931 . S
H363 C342 0.929 . S
H364 C375 0.930 . S
N365 Eu336 2.600 . S
N365 C366 1.365 . S
N365 C369 1.319 . S
C366 N365 1.365 . S
C366 C368 1.405 . S
C366 C374 1.448 . S
C367 H362 0.931 . S
C367 C369 1.397 . S
C367 C370 1.367 . S
C368 C366 1.405 . S
C368 C370 1.403 . S
C368 C401 1.439 . S
C369 H354 0.930 . S
C369 N365 1.319 . S
C369 C367 1.397 . S
C370 C367 1.367 . S
C370 C368 1.403 . S
C370 H377 0.929 . S
N371 Eu336 2.562 . S
N371 C372 1.325 . S
N371 C374 1.351 . S
C372 H358 0.929 . S
C372 N371 1.325 . S
C372 C376 1.416 . S
C373 C374 1.430 . S
C373 C375 1.404 . S
C373 C402 1.387 . S
C374 C366 1.448 . S
C374 N371 1.351 . S
C374 C373 1.430 . S
C375 H364 0.930 . S
C375 C373 1.404 . S
C375 C376 1.366 . S
C376 H355 0.930 . S
C376 C372 1.416 . S
C376 C375 1.366 . S
H377 C370 0.929 . S
H378 C401 0.931 . S
H379 C402 0.931 . S
O380 Eu336 2.462 . S
O380 C400 1.252 . S
O381 Eu336 2.373 . S
O381 C392 1.249 . S
O382 Eu347 2.335 . S
O382 C392 1.264 . S
O383 Eu336 2.432 . S
O383 C400 1.268 . S
O384 Eu336 2.291 . S
O384 C399 1.255 . S
O385 Eu347 2.372 . S
O385 C399 1.257 . S
O386 Eu347 2.462 . S
O386 C411 1.252 . S
O387 Eu347 2.373 . S
O387 C403 1.249 . S
O388 Eu336 2.335 . S
O388 C403 1.264 . S
O389 Eu347 2.432 . S
O389 C411 1.268 . S
O390 Eu347 2.291 . S
O390 C410 1.255 . S
O391 Eu336 2.372 . S
O391 C410 1.257 . S
C392 O381 1.249 . S
C392 O382 1.264 . S
C393 C396 1.382 . S
C393 C398 1.390 . S
C393 C400 1.506 . S
C394 C395 1.398 . S
C394 C398 1.392 . S
C395 C394 1.398 . S
C395 C397 1.372 . S
C395 H412 0.931 . S
C396 C393 1.382 . S
C396 C397 1.390 . S
C396 H413 0.931 . S
C397 C395 1.372 . S
C397 C396 1.390 . S
C397 H414 0.929 . S
C398 C393 1.390 . S
C398 C394 1.392 . S
C398 H415 0.930 . S
C399 O384 1.255 . S
C399 O385 1.257 . S
C400 Eu336 2.787 . S
C400 O380 1.252 . S
C400 O383 1.268 . S
C400 C393 1.506 . S
C401 C368 1.439 . S
C401 H378 0.931 . S
C401 C402 1.374 . S
C402 C373 1.387 . S
C402 H379 0.931 . S
C402 C401 1.374 . S
C403 O387 1.249 . S
C403 O388 1.264 . S
C404 C407 1.382 . S
C404 C408 1.390 . S
C404 C411 1.506 . S
C405 C406 1.398 . S
C405 C408 1.392 . S
C406 C405 1.398 . S
C406 C409 1.372 . S
C406 H416 0.931 . S
C407 C404 1.382 . S
C407 C409 1.390 . S
C407 H417 0.931 . S
C408 C404 1.390 . S
C408 C405 1.392 . S
C408 H418 0.930 . S
C409 C406 1.372 . S
C409 C407 1.390 . S
C409 H419 0.929 . S
C410 O390 1.255 . S
C410 O391 1.257 . S
C411 Eu347 2.787 . S
C411 O386 1.252 . S
C411 O389 1.268 . S
C411 C404 1.506 . S
H412 C395 0.931 . S
H413 C396 0.931 . S
H414 C397 0.929 . S
H415 C398 0.930 . S
H416 C406 0.931 . S
H417 C407 0.931 . S
H418 C408 0.930 . S
H419 C409 0.929 . S
Eu420 N449 2.600 . S
Eu420 N455 2.562 . S
Eu420 O464 2.462 . S
Eu420 O465 2.373 . S
Eu420 O467 2.432 . S
Eu420 O468 2.291 . S
Eu420 O472 2.335 . S
Eu420 O475 2.372 . S
Eu420 C484 2.787 . S
C421 N422 1.365 . S
C421 C424 1.405 . S
C421 C428 1.448 . S
N422 C421 1.365 . S
N422 C425 1.319 . S
N422 Eu431 2.600 . S
C423 C425 1.397 . S
C423 C426 1.367 . S
C423 H443 0.931 . S
C424 C421 1.405 . S
C424 C426 1.403 . S
C424 C430 1.439 . S
C425 N422 1.319 . S
C425 C423 1.397 . S
C425 H436 0.930 . S
C426 C423 1.367 . S
C426 C424 1.403 . S
C426 H447 0.929 . S
C427 C428 1.430 . S
C427 C429 1.387 . S
C427 C433 1.404 . S
C428 C421 1.448 . S
C428 C427 1.430 . S
C428 N432 1.351 . S
C429 C427 1.387 . S
C429 C430 1.374 . S
C429 H444 0.931 . S
C430 C424 1.439 . S
C430 C429 1.374 . S
C430 H445 0.931 . S
Eu431 N422 2.600 . S
Eu431 N432 2.562 . S
Eu431 O466 2.335 . S
Eu431 O469 2.372 . S
Eu431 O470 2.462 . S
Eu431 O471 2.373 . S
Eu431 O473 2.432 . S
Eu431 O474 2.291 . S
Eu431 C495 2.787 . S
N432 C428 1.351 . S
N432 Eu431 2.562 . S
N432 C434 1.325 . S
C433 C427 1.404 . S
C433 C435 1.366 . S
C433 H441 0.930 . S
C434 N432 1.325 . S
C434 C435 1.416 . S
C434 H440 0.929 . S
C435 C433 1.366 . S
C435 C434 1.416 . S
C435 H437 0.930 . S
H436 C425 0.930 . S
H437 C435 0.930 . S
H438 C453 0.930 . S
H439 C460 0.930 . S
H440 C434 0.929 . S
H441 C433 0.930 . S
H442 C456 0.929 . S
H443 C423 0.931 . S
H444 C429 0.931 . S
H445 C430 0.931 . S
H446 C451 0.931 . S
H447 C426 0.929 . S
H448 C459 0.930 . S
N449 Eu420 2.600 . S
N449 C450 1.365 . S
N449 C453 1.319 . S
C450 N449 1.365 . S
C450 C452 1.405 . S
C450 C458 1.448 . S
C451 H446 0.931 . S
C451 C453 1.397 . S
C451 C454 1.367 . S
C452 C450 1.405 . S
C452 C454 1.403 . S
C452 C485 1.439 . S
C453 H438 0.930 . S
C453 N449 1.319 . S
C453 C451 1.397 . S
C454 C451 1.367 . S
C454 C452 1.403 . S
C454 H461 0.929 . S
N455 Eu420 2.562 . S
N455 C456 1.325 . S
N455 C458 1.351 . S
C456 H442 0.929 . S
C456 N455 1.325 . S
C456 C460 1.416 . S
C457 C458 1.430 . S
C457 C459 1.404 . S
C457 C486 1.387 . S
C458 C450 1.448 . S
C458 N455 1.351 . S
C458 C457 1.430 . S
C459 H448 0.930 . S
C459 C457 1.404 . S
C459 C460 1.366 . S
C460 H439 0.930 . S
C460 C456 1.416 . S
C460 C459 1.366 . S
H461 C454 0.929 . S
H462 C485 0.931 . S
H463 C486 0.931 . S
O464 Eu420 2.462 . S
O464 C484 1.252 . S
O465 Eu420 2.373 . S
O465 C476 1.249 . S
O466 Eu431 2.335 . S
O466 C476 1.264 . S
O467 Eu420 2.432 . S
O467 C484 1.268 . S
O468 Eu420 2.291 . S
O468 C483 1.255 . S
O469 Eu431 2.372 . S
O469 C483 1.257 . S
O470 Eu431 2.462 . S
O470 C495 1.252 . S
O471 Eu431 2.373 . S
O471 C487 1.249 . S
O472 Eu420 2.335 . S
O472 C487 1.264 . S
O473 Eu431 2.432 . S
O473 C495 1.268 . S
O474 Eu431 2.291 . S
O474 C494 1.255 . S
O475 Eu420 2.372 . S
O475 C494 1.257 . S
C476 O465 1.249 . S
C476 O466 1.264 . S
C477 C480 1.382 . S
C477 C482 1.390 . S
C477 C484 1.506 . S
C478 C479 1.398 . S
C478 C482 1.392 . S
C479 C478 1.398 . S
C479 C481 1.372 . S
C479 H496 0.931 . S
C480 C477 1.382 . S
C480 C481 1.390 . S
C480 H497 0.931 . S
C481 C479 1.372 . S
C481 C480 1.390 . S
C481 H498 0.929 . S
C482 C477 1.390 . S
C482 C478 1.392 . S
C482 H499 0.930 . S
C483 O468 1.255 . S
C483 O469 1.257 . S
C484 Eu420 2.787 . S
C484 O464 1.252 . S
C484 O467 1.268 . S
C484 C477 1.506 . S
C485 C452 1.439 . S
C485 H462 0.931 . S
C485 C486 1.374 . S
C486 C457 1.387 . S
C486 H463 0.931 . S
C486 C485 1.374 . S
C487 O471 1.249 . S
C487 O472 1.264 . S
C488 C491 1.382 . S
C488 C492 1.390 . S
C488 C495 1.506 . S
C489 C490 1.398 . S
C489 C492 1.392 . S
C490 C489 1.398 . S
C490 C493 1.372 . S
C490 H500 0.931 . S
C491 C488 1.382 . S
C491 C493 1.390 . S
C491 H501 0.931 . S
C492 C488 1.390 . S
C492 C489 1.392 . S
C492 H502 0.930 . S
C493 C490 1.372 . S
C493 C491 1.390 . S
C493 H503 0.929 . S
C494 O474 1.255 . S
C494 O475 1.257 . S
C495 Eu431 2.787 . S
C495 O470 1.252 . S
C495 O473 1.268 . S
C495 C488 1.506 . S
H496 C479 0.931 . S
H497 C480 0.931 . S
H498 C481 0.929 . S
H499 C482 0.930 . S
H500 C490 0.931 . S
H501 C491 0.931 . S
H502 C492 0.930 . S
H503 C493 0.929 . S
Eu504 N533 2.600 . S
Eu504 N539 2.562 . S
Eu504 O548 2.462 . S
Eu504 O549 2.373 . S
Eu504 O551 2.432 . S
Eu504 O552 2.291 . S
Eu504 O556 2.335 . S
Eu504 O559 2.372 . S
Eu504 C568 2.787 . S
C505 N506 1.365 . S
C505 C508 1.405 . S
C505 C512 1.448 . S
N506 C505 1.365 . S
N506 C509 1.319 . S
N506 Eu515 2.600 . S
C507 C509 1.397 1_554 S
C507 C510 1.367 1_554 S
C507 H527 0.931 . S
C508 C505 1.405 . S
C508 C510 1.403 . S
C508 C514 1.439 . S
C509 N506 1.319 . S
C509 C507 1.397 1_556 S
C509 H520 0.930 1_556 S
C510 C507 1.367 1_556 S
C510 C508 1.403 . S
C510 H531 0.929 . S
C511 C512 1.430 . S
C511 C513 1.387 . S
C511 C517 1.404 . S
C512 C505 1.448 . S
C512 C511 1.430 . S
C512 N516 1.351 . S
C513 C511 1.387 . S
C513 C514 1.374 . S
C513 H528 0.931 . S
C514 C508 1.439 . S
C514 C513 1.374 . S
C514 H529 0.931 . S
Eu515 N506 2.600 . S
Eu515 N516 2.562 . S
Eu515 O550 2.335 . S
Eu515 O553 2.372 1_556 S
Eu515 O554 2.462 . S
Eu515 O555 2.373 . S
Eu515 O557 2.432 . S
Eu515 O558 2.291 . S
Eu515 C579 2.787 . S
N516 C512 1.351 . S
N516 Eu515 2.562 . S
N516 C518 1.325 . S
C517 C511 1.404 . S
C517 C519 1.366 . S
C517 H525 0.930 . S
C518 N516 1.325 . S
C518 C519 1.416 . S
C518 H524 0.929 . S
C519 C517 1.366 . S
C519 C518 1.416 . S
C519 H521 0.930 . S
H520 C509 0.930 1_554 S
H521 C519 0.930 . S
H522 C537 0.930 . S
H523 C544 0.930 . S
H524 C518 0.929 . S
H525 C517 0.930 . S
H526 C540 0.929 . S
H527 C507 0.931 . S
H528 C513 0.931 . S
H529 C514 0.931 . S
H530 C535 0.931 . S
H531 C510 0.929 . S
H532 C543 0.930 . S
N533 Eu504 2.600 . S
N533 C534 1.365 . S
N533 C537 1.319 . S
C534 N533 1.365 . S
C534 C536 1.405 . S
C534 C542 1.448 . S
C535 H530 0.931 . S
C535 C537 1.397 . S
C535 C538 1.367 . S
C536 C534 1.405 . S
C536 C538 1.403 . S
C536 C569 1.439 . S
C537 H522 0.930 . S
C537 N533 1.319 . S
C537 C535 1.397 . S
C538 C535 1.367 . S
C538 C536 1.403 . S
C538 H545 0.929 . S
N539 Eu504 2.562 . S
N539 C540 1.325 1_556 S
N539 C542 1.351 . S
C540 H526 0.929 . S
C540 N539 1.325 1_554 S
C540 C544 1.416 . S
C541 C542 1.430 1_554 S
C541 C543 1.404 . S
C541 C570 1.387 . S
C542 C534 1.448 . S
C542 N539 1.351 . S
C542 C541 1.430 1_556 S
C543 H532 0.930 . S
C543 C541 1.404 . S
C543 C544 1.366 . S
C544 H523 0.930 . S
C544 C540 1.416 . S
C544 C543 1.366 . S
H545 C538 0.929 . S
H546 C569 0.931 . S
H547 C570 0.931 . S
O548 Eu504 2.462 . S
O548 C568 1.252 . S
O549 Eu504 2.373 . S
O549 C560 1.249 . S
O550 Eu515 2.335 . S
O550 C560 1.264 . S
O551 Eu504 2.432 . S
O551 C568 1.268 . S
O552 Eu504 2.291 . S
O552 C567 1.255 1_556 S
O553 Eu515 2.372 1_554 S
O553 C567 1.257 . S
O554 Eu515 2.462 . S
O554 C579 1.252 . S
O555 Eu515 2.373 . S
O555 C571 1.249 . S
O556 Eu504 2.335 . S
O556 C571 1.264 . S
O557 Eu515 2.432 . S
O557 C579 1.268 . S
O558 Eu515 2.291 . S
O558 C578 1.255 . S
O559 Eu504 2.372 . S
O559 C578 1.257 . S
C560 O549 1.249 . S
C560 O550 1.264 . S
C561 C564 1.382 . S
C561 C566 1.390 . S
C561 C568 1.506 . S
C562 C563 1.398 . S
C562 C566 1.392 . S
C563 C562 1.398 . S
C563 C565 1.372 . S
C563 H580 0.931 . S
C564 C561 1.382 . S
C564 C565 1.390 . S
C564 H581 0.931 . S
C565 C563 1.372 . S
C565 C564 1.390 . S
C565 H582 0.929 . S
C566 C561 1.390 . S
C566 C562 1.392 . S
C566 H583 0.930 . S
C567 O552 1.255 1_554 S
C567 O553 1.257 . S
C568 Eu504 2.787 . S
C568 O548 1.252 . S
C568 O551 1.268 . S
C568 C561 1.506 . S
C569 C536 1.439 . S
C569 H546 0.931 . S
C569 C570 1.374 1_556 S
C570 C541 1.387 . S
C570 H547 0.931 . S
C570 C569 1.374 1_554 S
C571 O555 1.249 . S
C571 O556 1.264 . S
C572 C575 1.382 1_556 S
C572 C576 1.390 . S
C572 C579 1.506 . S
C573 C574 1.398 . S
C573 C576 1.392 . S
C574 C573 1.398 . S
C574 C577 1.372 1_556 S
C574 H584 0.931 . S
C575 C572 1.382 1_554 S
C575 C577 1.390 . S
C575 H585 0.931 . S
C576 C572 1.390 . S
C576 C573 1.392 . S
C576 H586 0.930 . S
C577 C574 1.372 1_554 S
C577 C575 1.390 . S
C577 H587 0.929 . S
C578 O558 1.255 . S
C578 O559 1.257 . S
C579 Eu515 2.787 . S
C579 O554 1.252 . S
C579 O557 1.268 . S
C579 C572 1.506 . S
H580 C563 0.931 . S
H581 C564 0.931 . S
H582 C565 0.929 . S
H583 C566 0.930 . S
H584 C574 0.931 . S
H585 C575 0.931 . S
H586 C576 0.930 . S
H587 C577 0.929 . S
Eu588 N617 2.600 . S
Eu588 N623 2.562 . S
Eu588 O632 2.462 . S
Eu588 O633 2.373 . S
Eu588 O635 2.432 . S
Eu588 O636 2.291 . S
Eu588 O640 2.335 . S
Eu588 O643 2.372 . S
Eu588 C652 2.787 . S
C589 N590 1.365 . S
C589 C592 1.405 . S
C589 C596 1.448 . S
N590 C589 1.365 . S
N590 C593 1.319 . S
N590 Eu599 2.600 . S
C591 C593 1.397 1_554 S
C591 C594 1.367 1_554 S
C591 H611 0.931 . S
C592 C589 1.405 . S
C592 C594 1.403 . S
C592 C598 1.439 . S
C593 N590 1.319 . S
C593 C591 1.397 1_556 S
C593 H604 0.930 1_556 S
C594 C591 1.367 1_556 S
C594 C592 1.403 . S
C594 H615 0.929 . S
C595 C596 1.430 . S
C595 C597 1.387 . S
C595 C601 1.404 . S
C596 C589 1.448 . S
C596 C595 1.430 . S
C596 N600 1.351 . S
C597 C595 1.387 . S
C597 C598 1.374 . S
C597 H612 0.931 . S
C598 C592 1.439 . S
C598 C597 1.374 . S
C598 H613 0.931 . S
Eu599 N590 2.600 . S
Eu599 N600 2.562 . S
Eu599 O634 2.335 . S
Eu599 O637 2.372 1_556 S
Eu599 O638 2.462 . S
Eu599 O639 2.373 . S
Eu599 O641 2.432 . S
Eu599 O642 2.291 . S
Eu599 C663 2.787 . S
N600 C596 1.351 . S
N600 Eu599 2.562 . S
N600 C602 1.325 . S
C601 C595 1.404 . S
C601 C603 1.366 . S
C601 H609 0.930 . S
C602 N600 1.325 . S
C602 C603 1.416 . S
C602 H608 0.929 . S
C603 C601 1.366 . S
C603 C602 1.416 . S
C603 H605 0.930 . S
H604 C593 0.930 1_554 S
H605 C603 0.930 . S
H606 C621 0.930 . S
H607 C628 0.930 . S
H608 C602 0.929 . S
H609 C601 0.930 . S
H610 C624 0.929 . S
H611 C591 0.931 . S
H612 C597 0.931 . S
H613 C598 0.931 . S
H614 C619 0.931 . S
H615 C594 0.929 . S
H616 C627 0.930 . S
N617 Eu588 2.600 . S
N617 C618 1.365 . S
N617 C621 1.319 . S
C618 N617 1.365 . S
C618 C620 1.405 . S
C618 C626 1.448 . S
C619 H614 0.931 . S
C619 C621 1.397 . S
C619 C622 1.367 . S
C620 C618 1.405 . S
C620 C622 1.403 . S
C620 C653 1.439 . S
C621 H606 0.930 . S
C621 N617 1.319 . S
C621 C619 1.397 . S
C622 C619 1.367 . S
C622 C620 1.403 . S
C622 H629 0.929 . S
N623 Eu588 2.562 . S
N623 C624 1.325 1_556 S
N623 C626 1.351 . S
C624 H610 0.929 . S
C624 N623 1.325 1_554 S
C624 C628 1.416 . S
C625 C626 1.430 1_554 S
C625 C627 1.404 . S
C625 C654 1.387 . S
C626 C618 1.448 . S
C626 N623 1.351 . S
C626 C625 1.430 1_556 S
C627 H616 0.930 . S
C627 C625 1.404 . S
C627 C628 1.366 . S
C628 H607 0.930 . S
C628 C624 1.416 . S
C628 C627 1.366 . S
H629 C622 0.929 . S
H630 C653 0.931 . S
H631 C654 0.931 . S
O632 Eu588 2.462 . S
O632 C652 1.252 . S
O633 Eu588 2.373 . S
O633 C644 1.249 . S
O634 Eu599 2.335 . S
O634 C644 1.264 . S
O635 Eu588 2.432 . S
O635 C652 1.268 . S
O636 Eu588 2.291 . S
O636 C651 1.255 1_556 S
O637 Eu599 2.372 1_554 S
O637 C651 1.257 . S
O638 Eu599 2.462 . S
O638 C663 1.252 . S
O639 Eu599 2.373 . S
O639 C655 1.249 . S
O640 Eu588 2.335 . S
O640 C655 1.264 . S
O641 Eu599 2.432 . S
O641 C663 1.268 . S
O642 Eu599 2.291 . S
O642 C662 1.255 . S
O643 Eu588 2.372 . S
O643 C662 1.257 . S
C644 O633 1.249 . S
C644 O634 1.264 . S
C645 C648 1.382 . S
C645 C650 1.390 . S
C645 C652 1.506 . S
C646 C647 1.398 . S
C646 C650 1.392 . S
C647 C646 1.398 . S
C647 C649 1.372 . S
C647 H664 0.931 . S
C648 C645 1.382 . S
C648 C649 1.390 . S
C648 H665 0.931 . S
C649 C647 1.372 . S
C649 C648 1.390 . S
C649 H666 0.929 . S
C650 C645 1.390 . S
C650 C646 1.392 . S
C650 H667 0.930 . S
C651 O636 1.255 1_554 S
C651 O637 1.257 . S
C652 Eu588 2.787 . S
C652 O632 1.252 . S
C652 O635 1.268 . S
C652 C645 1.506 . S
C653 C620 1.439 . S
C653 H630 0.931 . S
C653 C654 1.374 1_556 S
C654 C625 1.387 . S
C654 H631 0.931 . S
C654 C653 1.374 1_554 S
C655 O639 1.249 . S
C655 O640 1.264 . S
C656 C659 1.382 1_556 S
C656 C660 1.390 . S
C656 C663 1.506 . S
C657 C658 1.398 . S
C657 C660 1.392 . S
C658 C657 1.398 . S
C658 C661 1.372 1_556 S
C658 H668 0.931 . S
C659 C656 1.382 1_554 S
C659 C661 1.390 . S
C659 H669 0.931 . S
C660 C656 1.390 . S
C660 C657 1.392 . S
C660 H670 0.930 . S
C661 C658 1.372 1_554 S
C661 C659 1.390 . S
C661 H671 0.929 . S
C662 O642 1.255 . S
C662 O643 1.257 . S
C663 Eu599 2.787 . S
C663 O638 1.252 . S
C663 O641 1.268 . S
C663 C656 1.506 . S
H664 C647 0.931 . S
H665 C648 0.931 . S
H666 C649 0.929 . S
H667 C650 0.930 . S
H668 C658 0.931 . S
H669 C659 0.931 . S
H670 C660 0.930 . S
H671 C661 0.929 . S
Eu672 N701 2.600 . S
Eu672 N707 2.562 . S
Eu672 O716 2.462 . S
Eu672 O717 2.373 . S
Eu672 O719 2.432 . S
Eu672 O720 2.291 . S
Eu672 O724 2.335 . S
Eu672 O727 2.372 . S
Eu672 C736 2.787 . S
C673 N674 1.365 . S
C673 C676 1.405 . S
C673 C680 1.448 . S
N674 C673 1.365 . S
N674 C677 1.319 . S
N674 Eu683 2.600 . S
C675 C677 1.397 1_554 S
C675 C678 1.367 1_554 S
C675 H695 0.931 . S
C676 C673 1.405 . S
C676 C678 1.403 . S
C676 C682 1.439 . S
C677 N674 1.319 . S
C677 C675 1.397 1_556 S
C677 H688 0.930 1_556 S
C678 C675 1.367 1_556 S
C678 C676 1.403 . S
C678 H699 0.929 . S
C679 C680 1.430 . S
C679 C681 1.387 . S
C679 C685 1.404 . S
C680 C673 1.448 . S
C680 C679 1.430 . S
C680 N684 1.351 . S
C681 C679 1.387 . S
C681 C682 1.374 . S
C681 H696 0.931 . S
C682 C676 1.439 . S
C682 C681 1.374 . S
C682 H697 0.931 . S
Eu683 N674 2.600 . S
Eu683 N684 2.562 . S
Eu683 O718 2.335 . S
Eu683 O721 2.372 1_556 S
Eu683 O722 2.462 . S
Eu683 O723 2.373 . S
Eu683 O725 2.432 . S
Eu683 O726 2.291 . S
Eu683 C747 2.787 . S
N684 C680 1.351 . S
N684 Eu683 2.562 . S
N684 C686 1.325 . S
C685 C679 1.404 . S
C685 C687 1.366 . S
C685 H693 0.930 . S
C686 N684 1.325 . S
C686 C687 1.416 . S
C686 H692 0.929 . S
C687 C685 1.366 . S
C687 C686 1.416 . S
C687 H689 0.930 . S
H688 C677 0.930 1_554 S
H689 C687 0.930 . S
H690 C705 0.930 . S
H691 C712 0.930 . S
H692 C686 0.929 . S
H693 C685 0.930 . S
H694 C708 0.929 . S
H695 C675 0.931 . S
H696 C681 0.931 . S
H697 C682 0.931 . S
H698 C703 0.931 . S
H699 C678 0.929 . S
H700 C711 0.930 . S
N701 Eu672 2.600 . S
N701 C702 1.365 . S
N701 C705 1.319 . S
C702 N701 1.365 . S
C702 C704 1.405 . S
C702 C710 1.448 . S
C703 H698 0.931 . S
C703 C705 1.397 . S
C703 C706 1.367 . S
C704 C702 1.405 . S
C704 C706 1.403 . S
C704 C737 1.439 . S
C705 H690 0.930 . S
C705 N701 1.319 . S
C705 C703 1.397 . S
C706 C703 1.367 . S
C706 C704 1.403 . S
C706 H713 0.929 . S
N707 Eu672 2.562 . S
N707 C708 1.325 1_556 S
N707 C710 1.351 . S
C708 H694 0.929 . S
C708 N707 1.325 1_554 S
C708 C712 1.416 . S
C709 C710 1.430 1_554 S
C709 C711 1.404 . S
C709 C738 1.387 . S
C710 C702 1.448 . S
C710 N707 1.351 . S
C710 C709 1.430 1_556 S
C711 H700 0.930 . S
C711 C709 1.404 . S
C711 C712 1.366 . S
C712 H691 0.930 . S
C712 C708 1.416 . S
C712 C711 1.366 . S
H713 C706 0.929 . S
H714 C737 0.931 . S
H715 C738 0.931 . S
O716 Eu672 2.462 . S
O716 C736 1.252 . S
O717 Eu672 2.373 . S
O717 C728 1.249 . S
O718 Eu683 2.335 . S
O718 C728 1.264 . S
O719 Eu672 2.432 . S
O719 C736 1.268 . S
O720 Eu672 2.291 . S
O720 C735 1.255 1_556 S
O721 Eu683 2.372 1_554 S
O721 C735 1.257 . S
O722 Eu683 2.462 . S
O722 C747 1.252 . S
O723 Eu683 2.373 . S
O723 C739 1.249 . S
O724 Eu672 2.335 . S
O724 C739 1.264 . S
O725 Eu683 2.432 . S
O725 C747 1.268 . S
O726 Eu683 2.291 . S
O726 C746 1.255 . S
O727 Eu672 2.372 . S
O727 C746 1.257 . S
C728 O717 1.249 . S
C728 O718 1.264 . S
C729 C732 1.382 . S
C729 C734 1.390 . S
C729 C736 1.506 . S
C730 C731 1.398 . S
C730 C734 1.392 . S
C731 C730 1.398 . S
C731 C733 1.372 . S
C731 H748 0.931 . S
C732 C729 1.382 . S
C732 C733 1.390 . S
C732 H749 0.931 . S
C733 C731 1.372 . S
C733 C732 1.390 . S
C733 H750 0.929 . S
C734 C729 1.390 . S
C734 C730 1.392 . S
C734 H751 0.930 . S
C735 O720 1.255 1_554 S
C735 O721 1.257 . S
C736 Eu672 2.787 . S
C736 O716 1.252 . S
C736 O719 1.268 . S
C736 C729 1.506 . S
C737 C704 1.439 . S
C737 H714 0.931 . S
C737 C738 1.374 1_556 S
C738 C709 1.387 . S
C738 H715 0.931 . S
C738 C737 1.374 1_554 S
C739 O723 1.249 . S
C739 O724 1.264 . S
C740 C743 1.382 1_556 S
C740 C744 1.390 . S
C740 C747 1.506 . S
C741 C742 1.398 . S
C741 C744 1.392 . S
C742 C741 1.398 . S
C742 C745 1.372 1_556 S
C742 H752 0.931 . S
C743 C740 1.382 1_554 S
C743 C745 1.390 . S
C743 H753 0.931 . S
C744 C740 1.390 . S
C744 C741 1.392 . S
C744 H754 0.930 . S
C745 C742 1.372 1_554 S
C745 C743 1.390 . S
C745 H755 0.929 . S
C746 O726 1.255 . S
C746 O727 1.257 . S
C747 Eu683 2.787 . S
C747 O722 1.252 . S
C747 O725 1.268 . S
C747 C740 1.506 . S
H748 C731 0.931 . S
H749 C732 0.931 . S
H750 C733 0.929 . S
H751 C734 0.930 . S
H752 C742 0.931 . S
H753 C743 0.931 . S
H754 C744 0.930 . S
H755 C745 0.929 . S
Eu756 N785 2.600 . S
Eu756 N791 2.562 . S
Eu756 O800 2.462 . S
Eu756 O801 2.373 . S
Eu756 O803 2.432 . S
Eu756 O804 2.291 . S
Eu756 O808 2.335 . S
Eu756 O811 2.372 . S
Eu756 C820 2.787 . S
C757 N758 1.365 . S
C757 C760 1.405 . S
C757 C764 1.448 . S
N758 C757 1.365 . S
N758 C761 1.319 . S
N758 Eu767 2.600 . S
C759 C761 1.397 . S
C759 C762 1.367 . S
C759 H779 0.931 . S
C760 C757 1.405 . S
C760 C762 1.403 . S
C760 C766 1.439 . S
C761 N758 1.319 . S
C761 C759 1.397 . S
C761 H772 0.930 . S
C762 C759 1.367 . S
C762 C760 1.403 . S
C762 H783 0.929 . S
C763 C764 1.430 . S
C763 C765 1.387 . S
C763 C769 1.404 . S
C764 C757 1.448 . S
C764 C763 1.430 . S
C764 N768 1.351 . S
C765 C763 1.387 . S
C765 C766 1.374 . S
C765 H780 0.931 . S
C766 C760 1.439 . S
C766 C765 1.374 . S
C766 H781 0.931 . S
Eu767 N758 2.600 . S
Eu767 N768 2.562 . S
Eu767 O802 2.335 . S
Eu767 O805 2.372 . S
Eu767 O806 2.462 . S
Eu767 O807 2.373 . S
Eu767 O809 2.432 . S
Eu767 O810 2.291 . S
Eu767 C831 2.787 . S
N768 C764 1.351 . S
N768 Eu767 2.562 . S
N768 C770 1.325 . S
C769 C763 1.404 . S
C769 C771 1.366 . S
C769 H777 0.930 . S
C770 N768 1.325 . S
C770 C771 1.416 . S
C770 H776 0.929 . S
C771 C769 1.366 . S
C771 C770 1.416 . S
C771 H773 0.930 . S
H772 C761 0.930 . S
H773 C771 0.930 . S
H774 C789 0.930 . S
H775 C796 0.930 . S
H776 C770 0.929 . S
H777 C769 0.930 . S
H778 C792 0.929 . S
H779 C759 0.931 . S
H780 C765 0.931 . S
H781 C766 0.931 . S
H782 C787 0.931 . S
H783 C762 0.929 . S
H784 C795 0.930 . S
N785 Eu756 2.600 . S
N785 C786 1.365 . S
N785 C789 1.319 . S
C786 N785 1.365 . S
C786 C788 1.405 . S
C786 C794 1.448 . S
C787 H782 0.931 . S
C787 C789 1.397 . S
C787 C790 1.367 . S
C788 C786 1.405 . S
C788 C790 1.403 . S
C788 C821 1.439 . S
C789 H774 0.930 . S
C789 N785 1.319 . S
C789 C787 1.397 . S
C790 C787 1.367 . S
C790 C788 1.403 . S
C790 H797 0.929 . S
N791 Eu756 2.562 . S
N791 C792 1.325 . S
N791 C794 1.351 . S
C792 H778 0.929 . S
C792 N791 1.325 . S
C792 C796 1.416 . S
C793 C794 1.430 . S
C793 C795 1.404 . S
C793 C822 1.387 . S
C794 C786 1.448 . S
C794 N791 1.351 . S
C794 C793 1.430 . S
C795 H784 0.930 . S
C795 C793 1.404 . S
C795 C796 1.366 . S
C796 H775 0.930 . S
C796 C792 1.416 . S
C796 C795 1.366 . S
H797 C790 0.929 . S
H798 C821 0.931 . S
H799 C822 0.931 . S
O800 Eu756 2.462 . S
O800 C820 1.252 . S
O801 Eu756 2.373 . S
O801 C812 1.249 . S
O802 Eu767 2.335 . S
O802 C812 1.264 . S
O803 Eu756 2.432 . S
O803 C820 1.268 . S
O804 Eu756 2.291 . S
O804 C819 1.255 . S
O805 Eu767 2.372 . S
O805 C819 1.257 . S
O806 Eu767 2.462 . S
O806 C831 1.252 . S
O807 Eu767 2.373 . S
O807 C823 1.249 . S
O808 Eu756 2.335 . S
O808 C823 1.264 . S
O809 Eu767 2.432 . S
O809 C831 1.268 . S
O810 Eu767 2.291 . S
O810 C830 1.255 . S
O811 Eu756 2.372 . S
O811 C830 1.257 . S
C812 O801 1.249 . S
C812 O802 1.264 . S
C813 C816 1.382 . S
C813 C818 1.390 . S
C813 C820 1.506 . S
C814 C815 1.398 . S
C814 C818 1.392 . S
C815 C814 1.398 . S
C815 C817 1.372 . S
C815 H832 0.931 . S
C816 C813 1.382 . S
C816 C817 1.390 . S
C816 H833 0.931 . S
C817 C815 1.372 . S
C817 C816 1.390 . S
C817 H834 0.929 . S
C818 C813 1.390 . S
C818 C814 1.392 . S
C818 H835 0.930 . S
C819 O804 1.255 . S
C819 O805 1.257 . S
C820 Eu756 2.787 . S
C820 O800 1.252 . S
C820 O803 1.268 . S
C820 C813 1.506 . S
C821 C788 1.439 . S
C821 H798 0.931 . S
C821 C822 1.374 . S
C822 C793 1.387 . S
C822 H799 0.931 . S
C822 C821 1.374 . S
C823 O807 1.249 . S
C823 O808 1.264 . S
C824 C827 1.382 . S
C824 C828 1.390 . S
C824 C831 1.506 . S
C825 C826 1.398 . S
C825 C828 1.392 . S
C826 C825 1.398 . S
C826 C829 1.372 . S
C826 H836 0.931 . S
C827 C824 1.382 . S
C827 C829 1.390 . S
C827 H837 0.931 . S
C828 C824 1.390 . S
C828 C825 1.392 . S
C828 H838 0.930 . S
C829 C826 1.372 . S
C829 C827 1.390 . S
C829 H839 0.929 . S
C830 O810 1.255 . S
C830 O811 1.257 . S
C831 Eu767 2.787 . S
C831 O806 1.252 . S
C831 O809 1.268 . S
C831 C824 1.506 . S
H832 C815 0.931 . S
H833 C816 0.931 . S
H834 C817 0.929 . S
H835 C818 0.930 . S
H836 C826 0.931 . S
H837 C827 0.931 . S
H838 C828 0.930 . S
H839 C829 0.929 . S
Eu840 N869 2.600 . S
Eu840 N875 2.562 . S
Eu840 O884 2.462 . S
Eu840 O885 2.373 . S
Eu840 O887 2.432 . S
Eu840 O888 2.291 . S
Eu840 O892 2.335 . S
Eu840 O895 2.372 . S
Eu840 C904 2.787 . S
C841 N842 1.365 . S
C841 C844 1.405 . S
C841 C848 1.448 . S
N842 C841 1.365 . S
N842 C845 1.319 . S
N842 Eu851 2.600 . S
C843 C845 1.397 . S
C843 C846 1.367 . S
C843 H863 0.931 . S
C844 C841 1.405 . S
C844 C846 1.403 . S
C844 C850 1.439 . S
C845 N842 1.319 . S
C845 C843 1.397 . S
C845 H856 0.930 . S
C846 C843 1.367 . S
C846 C844 1.403 . S
C846 H867 0.929 . S
C847 C848 1.430 . S
C847 C849 1.387 . S
C847 C853 1.404 . S
C848 C841 1.448 . S
C848 C847 1.430 . S
C848 N852 1.351 . S
C849 C847 1.387 . S
C849 C850 1.374 . S
C849 H864 0.931 . S
C850 C844 1.439 . S
C850 C849 1.374 . S
C850 H865 0.931 . S
Eu851 N842 2.600 . S
Eu851 N852 2.562 . S
Eu851 O886 2.335 . S
Eu851 O889 2.372 . S
Eu851 O890 2.462 . S
Eu851 O891 2.373 . S
Eu851 O893 2.432 . S
Eu851 O894 2.291 . S
Eu851 C915 2.787 . S
N852 C848 1.351 . S
N852 Eu851 2.562 . S
N852 C854 1.325 . S
C853 C847 1.404 . S
C853 C855 1.366 . S
C853 H861 0.930 . S
C854 N852 1.325 . S
C854 C855 1.416 . S
C854 H860 0.929 . S
C855 C853 1.366 . S
C855 C854 1.416 . S
C855 H857 0.930 . S
H856 C845 0.930 . S
H857 C855 0.930 . S
H858 C873 0.930 . S
H859 C880 0.930 . S
H860 C854 0.929 . S
H861 C853 0.930 . S
H862 C876 0.929 . S
H863 C843 0.931 . S
H864 C849 0.931 . S
H865 C850 0.931 . S
H866 C871 0.931 . S
H867 C846 0.929 . S
H868 C879 0.930 . S
N869 Eu840 2.600 . S
N869 C870 1.365 . S
N869 C873 1.319 . S
C870 N869 1.365 . S
C870 C872 1.405 . S
C870 C878 1.448 . S
C871 H866 0.931 . S
C871 C873 1.397 . S
C871 C874 1.367 . S
C872 C870 1.405 . S
C872 C874 1.403 . S
C872 C905 1.439 . S
C873 H858 0.930 . S
C873 N869 1.319 . S
C873 C871 1.397 . S
C874 C871 1.367 . S
C874 C872 1.403 . S
C874 H881 0.929 . S
N875 Eu840 2.562 . S
N875 C876 1.325 . S
N875 C878 1.351 . S
C876 H862 0.929 . S
C876 N875 1.325 . S
C876 C880 1.416 . S
C877 C878 1.430 . S
C877 C879 1.404 . S
C877 C906 1.387 . S
C878 C870 1.448 . S
C878 N875 1.351 . S
C878 C877 1.430 . S
C879 H868 0.930 . S
C879 C877 1.404 . S
C879 C880 1.366 . S
C880 H859 0.930 . S
C880 C876 1.416 . S
C880 C879 1.366 . S
H881 C874 0.929 . S
H882 C905 0.931 . S
H883 C906 0.931 . S
O884 Eu840 2.462 . S
O884 C904 1.252 . S
O885 Eu840 2.373 . S
O885 C896 1.249 . S
O886 Eu851 2.335 . S
O886 C896 1.264 . S
O887 Eu840 2.432 . S
O887 C904 1.268 . S
O888 Eu840 2.291 . S
O888 C903 1.255 . S
O889 Eu851 2.372 . S
O889 C903 1.257 . S
O890 Eu851 2.462 . S
O890 C915 1.252 . S
O891 Eu851 2.373 . S
O891 C907 1.249 . S
O892 Eu840 2.335 . S
O892 C907 1.264 . S
O893 Eu851 2.432 . S
O893 C915 1.268 . S
O894 Eu851 2.291 . S
O894 C914 1.255 . S
O895 Eu840 2.372 . S
O895 C914 1.257 . S
C896 O885 1.249 . S
C896 O886 1.264 . S
C897 C900 1.382 . S
C897 C902 1.390 . S
C897 C904 1.506 . S
C898 C899 1.398 . S
C898 C902 1.392 . S
C899 C898 1.398 . S
C899 C901 1.372 . S
C899 H916 0.931 . S
C900 C897 1.382 . S
C900 C901 1.390 . S
C900 H917 0.931 . S
C901 C899 1.372 . S
C901 C900 1.390 . S
C901 H918 0.929 . S
C902 C897 1.390 . S
C902 C898 1.392 . S
C902 H919 0.930 . S
C903 O888 1.255 . S
C903 O889 1.257 . S
C904 Eu840 2.787 . S
C904 O884 1.252 . S
C904 O887 1.268 . S
C904 C897 1.506 . S
C905 C872 1.439 . S
C905 H882 0.931 . S
C905 C906 1.374 . S
C906 C877 1.387 . S
C906 H883 0.931 . S
C906 C905 1.374 . S
C907 O891 1.249 . S
C907 O892 1.264 . S
C908 C911 1.382 . S
C908 C912 1.390 . S
C908 C915 1.506 . S
C909 C910 1.398 . S
C909 C912 1.392 . S
C910 C909 1.398 . S
C910 C913 1.372 . S
C910 H920 0.931 . S
C911 C908 1.382 . S
C911 C913 1.390 . S
C911 H921 0.931 . S
C912 C908 1.390 . S
C912 C909 1.392 . S
C912 H922 0.930 . S
C913 C910 1.372 . S
C913 C911 1.390 . S
C913 H923 0.929 . S
C914 O894 1.255 . S
C914 O895 1.257 . S
C915 Eu851 2.787 . S
C915 O890 1.252 . S
C915 O893 1.268 . S
C915 C908 1.506 . S
H916 C899 0.931 . S
H917 C900 0.931 . S
H918 C901 0.929 . S
H919 C902 0.930 . S
H920 C910 0.931 . S
H921 C911 0.931 . S
H922 C912 0.930 . S
H923 C913 0.929 . S
Eu924 N953 2.600 . S
Eu924 N959 2.562 . S
Eu924 O968 2.462 . S
Eu924 O969 2.373 . S
Eu924 O971 2.432 . S
Eu924 O972 2.291 . S
Eu924 O976 2.335 . S
Eu924 O979 2.372 . S
Eu924 C988 2.787 . S
C925 N926 1.365 . S
C925 C928 1.405 . S
C925 C932 1.448 . S
N926 C925 1.365 . S
N926 C929 1.319 . S
N926 Eu935 2.600 . S
C927 C929 1.397 . S
C927 C930 1.367 . S
C927 H947 0.931 . S
C928 C925 1.405 . S
C928 C930 1.403 . S
C928 C934 1.439 . S
C929 N926 1.319 . S
C929 C927 1.397 . S
C929 H940 0.930 . S
C930 C927 1.367 . S
C930 C928 1.403 . S
C930 H951 0.929 . S
C931 C932 1.430 . S
C931 C933 1.387 . S
C931 C937 1.404 . S
C932 C925 1.448 . S
C932 C931 1.430 . S
C932 N936 1.351 . S
C933 C931 1.387 . S
C933 C934 1.374 . S
C933 H948 0.931 . S
C934 C928 1.439 . S
C934 C933 1.374 . S
C934 H949 0.931 . S
Eu935 N926 2.600 . S
Eu935 N936 2.562 . S
Eu935 O970 2.335 . S
Eu935 O973 2.372 . S
Eu935 O974 2.462 . S
Eu935 O975 2.373 . S
Eu935 O977 2.432 . S
Eu935 O978 2.291 . S
Eu935 C999 2.787 . S
N936 C932 1.351 . S
N936 Eu935 2.562 . S
N936 C938 1.325 . S
C937 C931 1.404 . S
C937 C939 1.366 . S
C937 H945 0.930 . S
C938 N936 1.325 . S
C938 C939 1.416 . S
C938 H944 0.929 . S
C939 C937 1.366 . S
C939 C938 1.416 . S
C939 H941 0.930 . S
H940 C929 0.930 . S
H941 C939 0.930 . S
H942 C957 0.930 . S
H943 C964 0.930 . S
H944 C938 0.929 . S
H945 C937 0.930 . S
H946 C960 0.929 . S
H947 C927 0.931 . S
H948 C933 0.931 . S
H949 C934 0.931 . S
H950 C955 0.931 . S
H951 C930 0.929 . S
H952 C963 0.930 . S
N953 Eu924 2.600 . S
N953 C954 1.365 . S
N953 C957 1.319 . S
C954 N953 1.365 . S
C954 C956 1.405 . S
C954 C962 1.448 . S
C955 H950 0.931 . S
C955 C957 1.397 . S
C955 C958 1.367 . S
C956 C954 1.405 . S
C956 C958 1.403 . S
C956 C989 1.439 . S
C957 H942 0.930 . S
C957 N953 1.319 . S
C957 C955 1.397 . S
C958 C955 1.367 . S
C958 C956 1.403 . S
C958 H965 0.929 . S
N959 Eu924 2.562 . S
N959 C960 1.325 . S
N959 C962 1.351 . S
C960 H946 0.929 . S
C960 N959 1.325 . S
C960 C964 1.416 . S
C961 C962 1.430 . S
C961 C963 1.404 . S
C961 C990 1.387 . S
C962 C954 1.448 . S
C962 N959 1.351 . S
C962 C961 1.430 . S
C963 H952 0.930 . S
C963 C961 1.404 . S
C963 C964 1.366 . S
C964 H943 0.930 . S
C964 C960 1.416 . S
C964 C963 1.366 . S
H965 C958 0.929 . S
H966 C989 0.931 . S
H967 C990 0.931 . S
O968 Eu924 2.462 . S
O968 C988 1.252 . S
O969 Eu924 2.373 . S
O969 C980 1.249 . S
O970 Eu935 2.335 . S
O970 C980 1.264 . S
O971 Eu924 2.432 . S
O971 C988 1.268 . S
O972 Eu924 2.291 . S
O972 C987 1.255 . S
O973 Eu935 2.372 . S
O973 C987 1.257 . S
O974 Eu935 2.462 . S
O974 C999 1.252 . S
O975 Eu935 2.373 . S
O975 C991 1.249 . S
O976 Eu924 2.335 . S
O976 C991 1.264 . S
O977 Eu935 2.432 . S
O977 C999 1.268 . S
O978 Eu935 2.291 . S
O978 C998 1.255 . S
O979 Eu924 2.372 . S
O979 C998 1.257 . S
C980 O969 1.249 . S
C980 O970 1.264 . S
C981 C984 1.382 . S
C981 C986 1.390 . S
C981 C988 1.506 . S
C982 C983 1.398 . S
C982 C986 1.392 . S
C983 C982 1.398 . S
C983 C985 1.372 . S
C983 H1000 0.931 . S
C984 C981 1.382 . S
C984 C985 1.390 . S
C984 H1001 0.931 . S
C985 C983 1.372 . S
C985 C984 1.390 . S
C985 H1002 0.929 . S
C986 C981 1.390 . S
C986 C982 1.392 . S
C986 H1003 0.930 . S
C987 O972 1.255 . S
C987 O973 1.257 . S
C988 Eu924 2.787 . S
C988 O968 1.252 . S
C988 O971 1.268 . S
C988 C981 1.506 . S
C989 C956 1.439 . S
C989 H966 0.931 . S
C989 C990 1.374 . S
C990 C961 1.387 . S
C990 H967 0.931 . S
C990 C989 1.374 . S
C991 O975 1.249 . S
C991 O976 1.264 . S
C992 C995 1.382 . S
C992 C996 1.390 . S
C992 C999 1.506 . S
C993 C994 1.398 . S
C993 C996 1.392 . S
C994 C993 1.398 . S
C994 C997 1.372 . S
C994 H1004 0.931 . S
C995 C992 1.382 . S
C995 C997 1.390 . S
C995 H1005 0.931 . S
C996 C992 1.390 . S
C996 C993 1.392 . S
C996 H1006 0.930 . S
C997 C994 1.372 . S
C997 C995 1.390 . S
C997 H1007 0.929 . S
C998 O978 1.255 . S
C998 O979 1.257 . S
C999 Eu935 2.787 . S
C999 O974 1.252 . S
C999 O977 1.268 . S
C999 C992 1.506 . S
H1000 C983 0.931 . S
H1001 C984 0.931 . S
H1002 C985 0.929 . S
H1003 C986 0.930 . S
H1004 C994 0.931 . S
H1005 C995 0.931 . S
H1006 C996 0.930 . S
H1007 C997 0.929 . S
H1008 C1014 0.930 . S
H1009 C1018 0.930 . S
H1010 C1023 0.933 . S
H1011 C1021 0.933 . S
H1012 C1016 0.929 . S
H1013 C1022 0.929 . S
C1014 H1008 0.930 . S
C1014 C1015 1.367 . S
C1014 C1022 1.378 . S
C1015 C1014 1.367 . S
C1015 C1023 1.427 1_554 S
C1016 H1012 0.929 . S
C1016 C1018 1.378 . S
C1016 C1020 1.350 . S
C1017 C1020 1.463 1_454 S
C1017 C1022 1.350 . S
C1017 N1025 1.427 1_554 S
C1018 H1009 0.930 . S
C1018 C1016 1.378 . S
C1018 C1019 1.367 . S
C1019 C1018 1.367 . S
C1019 C1021 1.427 1_556 S
C1020 C1016 1.350 . S
C1020 C1017 1.463 1_656 S
C1020 N1024 1.427 1_556 S
C1021 H1011 0.933 . S
C1021 C1019 1.427 1_554 S
C1021 N1024 1.386 . S
C1022 H1013 0.929 . S
C1022 C1014 1.378 . S
C1022 C1017 1.350 . S
C1023 H1010 0.933 . S
C1023 C1015 1.427 1_556 S
C1023 N1025 1.386 . S
N1024 C1020 1.427 1_554 S
N1024 C1021 1.386 . S
N1025 C1017 1.427 1_556 S
N1025 C1023 1.386 . S
H1026 C1032 0.930 . S
H1027 C1036 0.930 . S
H1028 C1041 0.929 . S
H1029 C1039 0.929 . S
H1030 C1034 0.929 . S
H1031 C1040 0.929 . S
C1032 H1026 0.930 . S
C1032 C1033 1.367 . S
C1032 C1040 1.378 1_556 S
C1033 C1032 1.367 . S
C1033 C1041 1.433 . S
C1034 H1030 0.929 . S
C1034 C1036 1.378 1_556 S
C1034 C1038 1.350 1_556 S
C1035 C1038 1.463 1_556 S
C1035 C1040 1.350 1_556 S
C1035 N1043 1.427 . S
C1036 H1027 0.930 . S
C1036 C1034 1.378 1_554 S
C1036 C1037 1.367 . S
C1037 C1036 1.367 . S
C1037 C1039 1.433 . S
C1038 C1034 1.350 1_554 S
C1038 C1035 1.463 1_554 S
C1038 N1042 1.427 . S
C1039 H1029 0.929 . S
C1039 C1037 1.433 . S
C1039 N1042 1.384 . S
C1040 H1031 0.929 . S
C1040 C1032 1.378 1_554 S
C1040 C1035 1.350 1_554 S
C1041 H1028 0.929 . S
C1041 C1033 1.433 . S
C1041 N1043 1.384 . S
N1042 C1038 1.427 . S
N1042 C1039 1.384 . S
N1043 C1035 1.427 . S
N1043 C1041 1.384 . S
H1044 C1050 0.930 . S
H1045 C1054 0.930 . S
H1046 C1059 0.929 . S
H1047 C1057 0.929 . S
H1048 C1052 0.929 . S
H1049 C1058 0.929 . S
C1050 H1044 0.930 . S
C1050 C1051 1.367 1_565 S
C1050 C1058 1.378 . S
C1051 C1050 1.367 1_545 S
C1051 C1059 1.433 . S
C1052 H1048 0.929 . S
C1052 C1054 1.378 . S
C1052 C1056 1.350 1_545 S
C1053 C1056 1.463 1_546 S
C1053 C1058 1.350 1_545 S
C1053 N1061 1.427 . S
C1054 H1045 0.930 . S
C1054 C1052 1.378 . S
C1054 C1055 1.367 1_545 S
C1055 C1054 1.367 1_565 S
C1055 C1057 1.433 . S
C1056 C1052 1.350 1_565 S
C1056 C1053 1.463 1_564 S
C1056 N1060 1.427 . S
C1057 H1047 0.929 . S
C1057 C1055 1.433 . S
C1057 N1060 1.384 . S
C1058 H1049 0.929 . S
C1058 C1050 1.378 . S
C1058 C1053 1.350 1_565 S
C1059 H1046 0.929 . S
C1059 C1051 1.433 . S
C1059 N1061 1.384 . S
N1060 C1056 1.427 . S
N1060 C1057 1.384 . S
N1061 C1053 1.427 . S
N1061 C1059 1.384 . S
H1062 C1068 0.930 . S
H1063 C1072 0.930 . S
H1064 C1077 0.929 . S
H1065 C1075 0.929 . S
H1066 C1070 0.929 . S
H1067 C1076 0.929 . S
C1068 H1062 0.930 . S
C1068 C1069 1.367 . S
C1068 C1076 1.378 . S
C1069 C1068 1.367 . S
C1069 C1077 1.433 . S
C1070 H1066 0.929 . S
C1070 C1072 1.378 . S
C1070 C1074 1.350 . S
C1071 C1074 1.463 1_545 S
C1071 C1076 1.350 . S
C1071 N1079 1.427 . S
C1072 H1063 0.930 . S
C1072 C1070 1.378 . S
C1072 C1073 1.367 . S
C1073 C1072 1.367 . S
C1073 C1075 1.433 . S
C1074 C1070 1.350 . S
C1074 C1071 1.463 1_565 S
C1074 N1078 1.427 . S
C1075 H1065 0.929 . S
C1075 C1073 1.433 . S
C1075 N1078 1.384 . S
C1076 H1067 0.929 . S
C1076 C1068 1.378 . S
C1076 C1071 1.350 . S
C1077 H1064 0.929 . S
C1077 C1069 1.433 . S
C1077 N1079 1.384 . S
N1078 C1074 1.427 . S
N1078 C1075 1.384 . S
N1079 C1071 1.427 . S
N1079 C1077 1.384 . S
H1080 C1086 0.930 . S
H1081 C1090 0.930 . S
H1082 C1095 0.929 . S
H1083 C1093 0.929 . S
H1084 C1088 0.929 . S
H1085 C1094 0.929 . S
C1086 H1080 0.930 . S
C1086 C1087 1.367 . S
C1086 C1094 1.378 . S
C1087 C1086 1.367 . S
C1087 C1095 1.433 1_455 S
C1088 H1084 0.929 . S
C1088 C1090 1.378 . S
C1088 C1092 1.350 . S
C1089 C1092 1.463 1_455 S
C1089 C1094 1.350 . S
C1089 N1097 1.427 1_455 S
C1090 H1081 0.930 . S
C1090 C1088 1.378 . S
C1090 C1091 1.367 . S
C1091 C1090 1.367 . S
C1091 C1093 1.433 1_655 S
C1092 C1088 1.350 . S
C1092 C1089 1.463 1_655 S
C1092 N1096 1.427 1_655 S
C1093 H1083 0.929 . S
C1093 C1091 1.433 1_455 S
C1093 N1096 1.384 . S
C1094 H1085 0.929 . S
C1094 C1086 1.378 . S
C1094 C1089 1.350 . S
C1095 H1082 0.929 . S
C1095 C1087 1.433 1_655 S
C1095 N1097 1.384 . S
N1096 C1092 1.427 1_455 S
N1096 C1093 1.384 . S
N1097 C1089 1.427 1_655 S
N1097 C1095 1.384 . S
H1098 C1104 0.930 . S
H1099 C1108 0.930 . S
H1100 C1113 0.929 . S
H1101 C1111 0.929 . S
H1102 C1106 0.929 . S
H1103 C1112 0.929 . S
C1104 H1098 0.930 . S
C1104 C1105 1.367 . S
C1104 C1112 1.378 . S
C1105 C1104 1.367 . S
C1105 C1113 1.433 . S
C1106 H1102 0.929 . S
C1106 C1108 1.378 . S
C1106 C1110 1.350 . S
C1107 C1110 1.463 . S
C1107 C1112 1.350 . S
C1107 N1115 1.427 . S
C1108 H1099 0.930 . S
C1108 C1106 1.378 . S
C1108 C1109 1.367 . S
C1109 C1108 1.367 . S
C1109 C1111 1.433 . S
C1110 C1106 1.350 . S
C1110 C1107 1.463 . S
C1110 N1114 1.427 . S
C1111 H1101 0.929 . S
C1111 C1109 1.433 . S
C1111 N1114 1.384 . S
C1112 H1103 0.929 . S
C1112 C1104 1.378 . S
C1112 C1107 1.350 . S
C1113 H1100 0.929 . S
C1113 C1105 1.433 . S
C1113 N1115 1.384 . S
N1114 C1110 1.427 . S
N1114 C1111 1.384 . S
N1115 C1107 1.427 . S
N1115 C1113 1.384 . S
H1116 C1122 0.930 . S
H1117 C1126 0.930 . S
H1118 C1131 0.929 . S
H1119 C1129 0.929 . S
H1120 C1124 0.929 . S
H1121 C1130 0.929 . S
C1122 H1116 0.930 . S
C1122 C1123 1.367 . S
C1122 C1130 1.378 . S
C1123 C1122 1.367 . S
C1123 C1131 1.433 . S
C1124 H1120 0.929 . S
C1124 C1126 1.378 . S
C1124 C1128 1.350 . S
C1125 C1128 1.463 1_655 S
C1125 C1130 1.350 . S
C1125 N1133 1.427 . S
C1126 H1117 0.930 . S
C1126 C1124 1.378 . S
C1126 C1127 1.367 . S
C1127 C1126 1.367 . S
C1127 C1129 1.433 . S
C1128 C1124 1.350 . S
C1128 C1125 1.463 1_455 S
C1128 N1132 1.427 . S
C1129 H1119 0.929 . S
C1129 C1127 1.433 . S
C1129 N1132 1.384 . S
C1130 H1121 0.929 . S
C1130 C1122 1.378 . S
C1130 C1125 1.350 . S
C1131 H1118 0.929 . S
C1131 C1123 1.433 . S
C1131 N1133 1.384 . S
N1132 C1128 1.427 . S
N1132 C1129 1.384 . S
N1133 C1125 1.427 . S
N1133 C1131 1.384 . S
H1134 C1140 0.930 . S
H1135 C1144 0.930 . S
H1136 C1149 0.929 . S
H1137 C1147 0.929 . S
H1138 C1142 0.929 . S
H1139 C1148 0.929 . S
C1140 H1134 0.930 . S
C1140 C1141 1.367 . S
C1140 C1148 1.378 . S
C1141 C1140 1.367 . S
C1141 C1149 1.433 . S
C1142 H1138 0.929 . S
C1142 C1144 1.378 . S
C1142 C1146 1.350 . S
C1143 C1146 1.463 . S
C1143 C1148 1.350 . S
C1143 N1151 1.427 . S
C1144 H1135 0.930 . S
C1144 C1142 1.378 . S
C1144 C1145 1.367 . S
C1145 C1144 1.367 . S
C1145 C1147 1.433 . S
C1146 C1142 1.350 . S
C1146 C1143 1.463 . S
C1146 N1150 1.427 . S
C1147 H1137 0.929 . S
C1147 C1145 1.433 . S
C1147 N1150 1.384 . S
C1148 H1139 0.929 . S
C1148 C1140 1.378 . S
C1148 C1143 1.350 . S
C1149 H1136 0.929 . S
C1149 C1141 1.433 . S
C1149 N1151 1.384 . S
N1150 C1146 1.427 . S
N1150 C1147 1.384 . S
N1151 C1143 1.427 . S
N1151 C1149 1.384 . S
H1152 C1158 0.930 . S
H1153 C1162 0.930 . S
H1154 C1167 0.929 . S
H1155 C1165 0.929 . S
H1156 C1160 0.929 . S
H1157 C1166 0.929 . S
C1158 H1152 0.930 . S
C1158 C1159 1.367 . S
C1158 C1166 1.378 . S
C1159 C1158 1.367 . S
C1159 C1167 1.433 . S
C1160 H1156 0.929 . S
C1160 C1162 1.378 . S
C1160 C1164 1.350 . S
C1161 C1164 1.463 1_545 S
C1161 C1166 1.350 . S
C1161 N1169 1.427 . S
C1162 H1153 0.930 . S
C1162 C1160 1.378 . S
C1162 C1163 1.367 . S
C1163 C1162 1.367 . S
C1163 C1165 1.433 . S
C1164 C1160 1.350 . S
C1164 C1161 1.463 1_565 S
C1164 N1168 1.427 . S
C1165 H1155 0.929 . S
C1165 C1163 1.433 . S
C1165 N1168 1.384 . S
C1166 H1157 0.929 . S
C1166 C1158 1.378 . S
C1166 C1161 1.350 . S
C1167 H1154 0.929 . S
C1167 C1159 1.433 . S
C1167 N1169 1.384 . S
N1168 C1164 1.427 . S
N1168 C1165 1.384 . S
N1169 C1161 1.427 . S
N1169 C1167 1.384 . S
H1170 C1176 0.930 . S
H1171 C1180 0.930 . S
H1172 C1185 0.929 . S
H1173 C1183 0.929 . S
H1174 C1178 0.929 . S
H1175 C1184 0.929 . S
C1176 H1170 0.930 . S
C1176 C1177 1.367 . S
C1176 C1184 1.378 . S
C1177 C1176 1.367 . S
C1177 C1185 1.433 . S
C1178 H1174 0.929 . S
C1178 C1180 1.378 . S
C1178 C1182 1.350 . S
C1179 C1182 1.463 1_455 S
C1179 C1184 1.350 . S
C1179 N1187 1.427 . S
C1180 H1171 0.930 . S
C1180 C1178 1.378 . S
C1180 C1181 1.367 . S
C1181 C1180 1.367 . S
C1181 C1183 1.433 . S
C1182 C1178 1.350 . S
C1182 C1179 1.463 1_655 S
C1182 N1186 1.427 . S
C1183 H1173 0.929 . S
C1183 C1181 1.433 . S
C1183 N1186 1.384 . S
C1184 H1175 0.929 . S
C1184 C1176 1.378 . S
C1184 C1179 1.350 . S
C1185 H1172 0.929 . S
C1185 C1177 1.433 . S
C1185 N1187 1.384 . S
N1186 C1182 1.427 . S
N1186 C1183 1.384 . S
N1187 C1179 1.427 . S
N1187 C1185 1.384 . S
H1188 C1194 0.930 . S
H1189 C1198 0.930 . S
H1190 C1203 0.929 . S
H1191 C1201 0.929 . S
H1192 C1196 0.929 . S
H1193 C1202 0.929 . S
C1194 H1188 0.930 . S
C1194 C1195 1.367 . S
C1194 C1202 1.378 . S
C1195 C1194 1.367 . S
C1195 C1203 1.433 . S
C1196 H1192 0.929 . S
C1196 C1198 1.378 . S
C1196 C1200 1.350 . S
C1197 C1200 1.463 . S
C1197 C1202 1.350 . S
C1197 N1205 1.427 . S
C1198 H1189 0.930 . S
C1198 C1196 1.378 . S
C1198 C1199 1.367 . S
C1199 C1198 1.367 . S
C1199 C1201 1.433 . S
C1200 C1196 1.350 . S
C1200 C1197 1.463 . S
C1200 N1204 1.427 . S
C1201 H1191 0.929 . S
C1201 C1199 1.433 . S
C1201 N1204 1.384 . S
C1202 H1193 0.929 . S
C1202 C1194 1.378 . S
C1202 C1197 1.350 . S
C1203 H1190 0.929 . S
C1203 C1195 1.433 . S
C1203 N1205 1.384 . S
N1204 C1200 1.427 . S
N1204 C1201 1.384 . S
N1205 C1197 1.427 . S
N1205 C1203 1.384 . S
H1206 C1212 0.930 . S
H1207 C1216 0.930 . S
H1208 C1221 0.929 . S
H1209 C1219 0.929 . S
H1210 C1214 0.929 . S
H1211 C1220 0.929 . S
C1212 H1206 0.930 . S
C1212 C1213 1.367 . S
C1212 C1220 1.378 . S
C1213 C1212 1.367 . S
C1213 C1221 1.433 . S
C1214 H1210 0.929 . S
C1214 C1216 1.378 . S
C1214 C1218 1.350 . S
C1215 C1218 1.463 1_545 S
C1215 C1220 1.350 . S
C1215 N1223 1.427 . S
C1216 H1207 0.930 . S
C1216 C1214 1.378 . S
C1216 C1217 1.367 . S
C1217 C1216 1.367 . S
C1217 C1219 1.433 . S
C1218 C1214 1.350 . S
C1218 C1215 1.463 1_565 S
C1218 N1222 1.427 . S
C1219 H1209 0.929 . S
C1219 C1217 1.433 . S
C1219 N1222 1.384 . S
C1220 H1211 0.929 . S
C1220 C1212 1.378 . S
C1220 C1215 1.350 . S
C1221 H1208 0.929 . S
C1221 C1213 1.433 . S
C1221 N1223 1.384 . S
N1222 C1218 1.427 . S
N1222 C1219 1.384 . S
N1223 C1215 1.427 . S
N1223 C1221 1.384 . S
H1224 C1230 0.930 . S
H1225 C1234 0.930 . S
H1226 C1239 0.929 . S
H1227 C1237 0.929 . S
H1228 C1232 0.929 . S
H1229 C1238 0.929 . S
C1230 H1224 0.930 . S
C1230 C1231 1.367 . S
C1230 C1238 1.378 . S
C1231 C1230 1.367 . S
C1231 C1239 1.433 . S
C1232 H1228 0.929 . S
C1232 C1234 1.378 . S
C1232 C1236 1.350 . S
C1233 C1236 1.463 . S
C1233 C1238 1.350 . S
C1233 N1241 1.427 . S
C1234 H1225 0.930 . S
C1234 C1232 1.378 . S
C1234 C1235 1.367 . S
C1235 C1234 1.367 . S
C1235 C1237 1.433 . S
C1236 C1232 1.350 . S
C1236 C1233 1.463 . S
C1236 N1240 1.427 . S
C1237 H1227 0.929 . S
C1237 C1235 1.433 . S
C1237 N1240 1.384 . S
C1238 H1229 0.929 . S
C1238 C1230 1.378 . S
C1238 C1233 1.350 . S
C1239 H1226 0.929 . S
C1239 C1231 1.433 . S
C1239 N1241 1.384 . S
N1240 C1236 1.427 . S
N1240 C1237 1.384 . S
N1241 C1233 1.427 . S
N1241 C1239 1.384 . S
H1242 C1248 0.930 . S
H1243 C1252 0.930 . S
H1244 C1257 0.929 . S
H1245 C1255 0.929 . S
H1246 C1250 0.929 . S
H1247 C1256 0.929 . S
C1248 H1242 0.930 . S
C1248 C1249 1.367 . S
C1248 C1256 1.378 . S
C1249 C1248 1.367 . S
C1249 C1257 1.433 . S
C1250 H1246 0.929 . S
C1250 C1252 1.378 . S
C1250 C1254 1.350 . S
C1251 C1254 1.463 . S
C1251 C1256 1.350 . S
C1251 N1259 1.427 . S
C1252 H1243 0.930 . S
C1252 C1250 1.378 . S
C1252 C1253 1.367 . S
C1253 C1252 1.367 . S
C1253 C1255 1.433 . S
C1254 C1250 1.350 . S
C1254 C1251 1.463 . S
C1254 N1258 1.427 . S
C1255 H1245 0.929 . S
C1255 C1253 1.433 . S
C1255 N1258 1.384 . S
C1256 H1247 0.929 . S
C1256 C1248 1.378 . S
C1256 C1251 1.350 . S
C1257 H1244 0.929 . S
C1257 C1249 1.433 . S
C1257 N1259 1.384 . S
N1258 C1254 1.427 . S
N1258 C1255 1.384 . S
N1259 C1251 1.427 . S
N1259 C1257 1.384 . S
H1260 C1266 0.930 . S
H1261 C1270 0.930 . S
H1262 C1275 0.929 . S
H1263 C1273 0.929 . S
H1264 C1268 0.929 . S
H1265 C1274 0.929 . S
C1266 H1260 0.930 . S
C1266 C1267 1.367 . S
C1266 C1274 1.378 . S
C1267 C1266 1.367 . S
C1267 C1275 1.433 . S
C1268 H1264 0.929 . S
C1268 C1270 1.378 . S
C1268 C1272 1.350 . S
C1269 C1272 1.463 . S
C1269 C1274 1.350 . S
C1269 N1277 1.427 . S
C1270 H1261 0.930 . S
C1270 C1268 1.378 . S
C1270 C1271 1.367 . S
C1271 C1270 1.367 . S
C1271 C1273 1.433 . S
C1272 C1268 1.350 . S
C1272 C1269 1.463 . S
C1272 N1276 1.427 . S
C1273 H1263 0.929 . S
C1273 C1271 1.433 . S
C1273 N1276 1.384 . S
C1274 H1265 0.929 . S
C1274 C1266 1.378 . S
C1274 C1269 1.350 . S
C1275 H1262 0.929 . S
C1275 C1267 1.433 . S
C1275 N1277 1.384 . S
N1276 C1272 1.427 . S
N1276 C1273 1.384 . S
N1277 C1269 1.427 . S
N1277 C1275 1.384 . S
H1278 C1284 0.930 . S
H1279 C1288 0.930 . S
H1280 C1293 0.929 . S
H1281 C1291 0.929 . S
H1282 C1286 0.929 . S
H1283 C1292 0.929 . S
C1284 H1278 0.930 . S
C1284 C1285 1.367 . S
C1284 C1292 1.378 . S
C1285 C1284 1.367 . S
C1285 C1293 1.433 . S
C1286 H1282 0.929 . S
C1286 C1288 1.378 . S
C1286 C1290 1.350 . S
C1287 C1290 1.463 . S
C1287 C1292 1.350 . S
C1287 N1295 1.427 . S
C1288 H1279 0.930 . S
C1288 C1286 1.378 . S
C1288 C1289 1.367 . S
C1289 C1288 1.367 . S
C1289 C1291 1.433 . S
C1290 C1286 1.350 . S
C1290 C1287 1.463 . S
C1290 N1294 1.427 . S
C1291 H1281 0.929 . S
C1291 C1289 1.433 . S
C1291 N1294 1.384 . S
C1292 H1283 0.929 . S
C1292 C1284 1.378 . S
C1292 C1287 1.350 . S
C1293 H1280 0.929 . S
C1293 C1285 1.433 . S
C1293 N1295 1.384 . S
N1294 C1290 1.427 . S
N1294 C1291 1.384 . S
N1295 C1287 1.427 . S
N1295 C1293 1.384 . S
H1296 C1302 0.930 . S
H1297 C1306 0.930 . S
H1298 C1311 0.929 . S
H1299 C1309 0.929 . S
H1300 C1304 0.929 . S
H1301 C1310 0.929 . S
C1302 H1296 0.930 . S
C1302 C1303 1.367 . S
C1302 C1310 1.378 . S
C1303 C1302 1.367 . S
C1303 C1311 1.433 . S
C1304 H1300 0.929 . S
C1304 C1306 1.378 . S
C1304 C1308 1.350 . S
C1305 C1308 1.463 . S
C1305 C1310 1.350 . S
C1305 N1313 1.427 . S
C1306 H1297 0.930 . S
C1306 C1304 1.378 . S
C1306 C1307 1.367 . S
C1307 C1306 1.367 . S
C1307 C1309 1.433 . S
C1308 C1304 1.350 . S
C1308 C1305 1.463 . S
C1308 N1312 1.427 . S
C1309 H1299 0.929 . S
C1309 C1307 1.433 . S
C1309 N1312 1.384 . S
C1310 H1301 0.929 . S
C1310 C1302 1.378 . S
C1310 C1305 1.350 . S
C1311 H1298 0.929 . S
C1311 C1303 1.433 . S
C1311 N1313 1.384 . S
N1312 C1308 1.427 . S
N1312 C1309 1.384 . S
N1313 C1305 1.427 . S
N1313 C1311 1.384 . S
H1314 C1320 0.930 . S
H1315 C1324 0.930 . S
H1316 C1329 0.929 . S
H1317 C1327 0.929 . S
H1318 C1322 0.929 . S
H1319 C1328 0.929 . S
C1320 H1314 0.930 . S
C1320 C1321 1.367 . S
C1320 C1328 1.378 . S
C1321 C1320 1.367 . S
C1321 C1329 1.433 . S
C1322 H1318 0.929 . S
C1322 C1324 1.378 . S
C1322 C1326 1.350 . S
C1323 C1326 1.463 . S
C1323 C1328 1.350 . S
C1323 N1331 1.427 . S
C1324 H1315 0.930 . S
C1324 C1322 1.378 . S
C1324 C1325 1.367 . S
C1325 C1324 1.367 . S
C1325 C1327 1.433 . S
C1326 C1322 1.350 . S
C1326 C1323 1.463 . S
C1326 N1330 1.427 . S
C1327 H1317 0.929 . S
C1327 C1325 1.433 . S
C1327 N1330 1.384 . S
C1328 H1319 0.929 . S
C1328 C1320 1.378 . S
C1328 C1323 1.350 . S
C1329 H1316 0.929 . S
C1329 C1321 1.433 . S
C1329 N1331 1.384 . S
N1330 C1326 1.427 . S
N1330 C1327 1.384 . S
N1331 C1323 1.427 . S
N1331 C1329 1.384 . S
H1332 C1338 0.930 . S
H1333 C1342 0.930 . S
H1334 C1347 0.929 . S
H1335 C1345 0.929 . S
H1336 C1340 0.929 . S
H1337 C1346 0.929 . S
C1338 H1332 0.930 . S
C1338 C1339 1.367 . S
C1338 C1346 1.378 . S
C1339 C1338 1.367 . S
C1339 C1347 1.433 . S
C1340 H1336 0.929 . S
C1340 C1342 1.378 . S
C1340 C1344 1.350 . S
C1341 C1344 1.463 . S
C1341 C1346 1.350 . S
C1341 N1349 1.427 . S
C1342 H1333 0.930 . S
C1342 C1340 1.378 . S
C1342 C1343 1.367 . S
C1343 C1342 1.367 . S
C1343 C1345 1.433 . S
C1344 C1340 1.350 . S
C1344 C1341 1.463 . S
C1344 N1348 1.427 . S
C1345 H1335 0.929 . S
C1345 C1343 1.433 . S
C1345 N1348 1.384 . S
C1346 H1337 0.929 . S
C1346 C1338 1.378 . S
C1346 C1341 1.350 . S
C1347 H1334 0.929 . S
C1347 C1339 1.433 . S
C1347 N1349 1.384 . S
N1348 C1344 1.427 . S
N1348 C1345 1.384 . S
N1349 C1341 1.427 . S
N1349 C1347 1.384 . S
H1350 C1356 0.930 . S
H1351 C1360 0.930 . S
H1352 C1365 0.929 . S
H1353 C1363 0.929 . S
H1354 C1358 0.929 . S
H1355 C1364 0.929 . S
C1356 H1350 0.930 . S
C1356 C1357 1.367 . S
C1356 C1364 1.378 . S
C1357 C1356 1.367 . S
C1357 C1365 1.433 . S
C1358 H1354 0.929 . S
C1358 C1360 1.378 . S
C1358 C1362 1.350 . S
C1359 C1362 1.463 . S
C1359 C1364 1.350 . S
C1359 N1367 1.427 . S
C1360 H1351 0.930 . S
C1360 C1358 1.378 . S
C1360 C1361 1.367 . S
C1361 C1360 1.367 . S
C1361 C1363 1.433 . S
C1362 C1358 1.350 . S
C1362 C1359 1.463 . S
C1362 N1366 1.427 . S
C1363 H1353 0.929 . S
C1363 C1361 1.433 . S
C1363 N1366 1.384 . S
C1364 H1355 0.929 . S
C1364 C1356 1.378 . S
C1364 C1359 1.350 . S
C1365 H1352 0.929 . S
C1365 C1357 1.433 . S
C1365 N1367 1.384 . S
N1366 C1362 1.427 . S
N1366 C1363 1.384 . S
N1367 C1359 1.427 . S
N1367 C1365 1.384 . S
H1368 C1374 0.930 . S
H1369 C1378 0.930 . S
H1370 C1383 0.929 . S
H1371 C1381 0.929 . S
H1372 C1376 0.929 . S
H1373 C1382 0.929 . S
C1374 H1368 0.930 . S
C1374 C1375 1.367 . S
C1374 C1382 1.378 . S
C1375 C1374 1.367 . S
C1375 C1383 1.433 . S
C1376 H1372 0.929 . S
C1376 C1378 1.378 . S
C1376 C1380 1.350 . S
C1377 C1380 1.463 . S
C1377 C1382 1.350 . S
C1377 N1385 1.427 . S
C1378 H1369 0.930 . S
C1378 C1376 1.378 . S
C1378 C1379 1.367 . S
C1379 C1378 1.367 . S
C1379 C1381 1.433 . S
C1380 C1376 1.350 . S
C1380 C1377 1.463 . S
C1380 N1384 1.427 . S
C1381 H1371 0.929 . S
C1381 C1379 1.433 . S
C1381 N1384 1.384 . S
C1382 H1373 0.929 . S
C1382 C1374 1.378 . S
C1382 C1377 1.350 . S
C1383 H1370 0.929 . S
C1383 C1375 1.433 . S
C1383 N1385 1.384 . S
N1384 C1380 1.427 . S
N1384 C1381 1.384 . S
N1385 C1377 1.427 . S
N1385 C1383 1.384 . S
H1386 C1392 0.930 . S
H1387 C1396 0.930 . S
H1388 C1401 0.929 . S
H1389 C1399 0.929 . S
H1390 C1394 0.929 . S
H1391 C1400 0.929 . S
C1392 H1386 0.930 . S
C1392 C1393 1.367 . S
C1392 C1400 1.378 . S
C1393 C1392 1.367 . S
C1393 C1401 1.433 . S
C1394 H1390 0.929 . S
C1394 C1396 1.378 . S
C1394 C1398 1.350 . S
C1395 C1398 1.463 . S
C1395 C1400 1.350 . S
C1395 N1403 1.427 . S
C1396 H1387 0.930 . S
C1396 C1394 1.378 . S
C1396 C1397 1.367 . S
C1397 C1396 1.367 . S
C1397 C1399 1.433 . S
C1398 C1394 1.350 . S
C1398 C1395 1.463 . S
C1398 N1402 1.427 . S
C1399 H1389 0.929 . S
C1399 C1397 1.433 . S
C1399 N1402 1.384 . S
C1400 H1391 0.929 . S
C1400 C1392 1.378 . S
C1400 C1395 1.350 . S
C1401 H1388 0.929 . S
C1401 C1393 1.433 . S
C1401 N1403 1.384 . S
N1402 C1398 1.427 . S
N1402 C1399 1.384 . S
N1403 C1395 1.427 . S
N1403 C1401 1.384 . S
H1404 C1410 0.930 . S
H1405 C1414 0.930 . S
H1406 C1419 0.929 . S
H1407 C1417 0.929 . S
H1408 C1412 0.929 . S
H1409 C1418 0.929 . S
C1410 H1404 0.930 . S
C1410 C1411 1.367 . S
C1410 C1418 1.378 . S
C1411 C1410 1.367 . S
C1411 C1419 1.433 . S
C1412 H1408 0.929 . S
C1412 C1414 1.378 . S
C1412 C1416 1.350 . S
C1413 C1416 1.463 . S
C1413 C1418 1.350 . S
C1413 N1421 1.427 . S
C1414 H1405 0.930 . S
C1414 C1412 1.378 . S
C1414 C1415 1.367 . S
C1415 C1414 1.367 . S
C1415 C1417 1.433 . S
C1416 C1412 1.350 . S
C1416 C1413 1.463 . S
C1416 N1420 1.427 . S
C1417 H1407 0.929 . S
C1417 C1415 1.433 . S
C1417 N1420 1.384 . S
C1418 H1409 0.929 . S
C1418 C1410 1.378 . S
C1418 C1413 1.350 . S
C1419 H1406 0.929 . S
C1419 C1411 1.433 . S
C1419 N1421 1.384 . S
N1420 C1416 1.427 . S
N1420 C1417 1.384 . S
N1421 C1413 1.427 . S
N1421 C1419 1.384 . S
H1422 C1428 0.930 . S
H1423 C1432 0.930 . S
H1424 C1437 0.929 . S
H1425 C1435 0.929 . S
H1426 C1430 0.929 . S
H1427 C1436 0.929 . S
C1428 H1422 0.930 . S
C1428 C1429 1.367 . S
C1428 C1436 1.378 . S
C1429 C1428 1.367 . S
C1429 C1437 1.433 . S
C1430 H1426 0.929 . S
C1430 C1432 1.378 . S
C1430 C1434 1.350 . S
C1431 C1434 1.463 . S
C1431 C1436 1.350 . S
C1431 N1439 1.427 . S
C1432 H1423 0.930 . S
C1432 C1430 1.378 . S
C1432 C1433 1.367 . S
C1433 C1432 1.367 . S
C1433 C1435 1.433 . S
C1434 C1430 1.350 . S
C1434 C1431 1.463 . S
C1434 N1438 1.427 . S
C1435 H1425 0.929 . S
C1435 C1433 1.433 . S
C1435 N1438 1.384 . S
C1436 H1427 0.929 . S
C1436 C1428 1.378 . S
C1436 C1431 1.350 . S
C1437 H1424 0.929 . S
C1437 C1429 1.433 . S
C1437 N1439 1.384 . S
N1438 C1434 1.427 . S
N1438 C1435 1.384 . S
N1439 C1431 1.427 . S
N1439 C1437 1.384 . S
H1440 C1446 0.930 . S
H1441 C1450 0.930 . S
H1442 C1455 0.929 . S
H1443 C1453 0.929 . S
H1444 C1448 0.929 . S
H1445 C1454 0.929 . S
C1446 H1440 0.930 . S
C1446 C1447 1.367 . S
C1446 C1454 1.378 . S
C1447 C1446 1.367 . S
C1447 C1455 1.433 . S
C1448 H1444 0.929 . S
C1448 C1450 1.378 . S
C1448 C1452 1.350 . S
C1449 C1452 1.463 . S
C1449 C1454 1.350 . S
C1449 N1457 1.427 . S
C1450 H1441 0.930 . S
C1450 C1448 1.378 . S
C1450 C1451 1.367 . S
C1451 C1450 1.367 . S
C1451 C1453 1.433 . S
C1452 C1448 1.350 . S
C1452 C1449 1.463 . S
C1452 N1456 1.427 . S
C1453 H1443 0.929 . S
C1453 C1451 1.433 . S
C1453 N1456 1.384 . S
C1454 H1445 0.929 . S
C1454 C1446 1.378 . S
C1454 C1449 1.350 . S
C1455 H1442 0.929 . S
C1455 C1447 1.433 . S
C1455 N1457 1.384 . S
N1456 C1452 1.427 . S
N1456 C1453 1.384 . S
N1457 C1449 1.427 . S
N1457 C1455 1.384 . S
H1458 C1464 0.930 . S
H1459 C1468 0.930 . S
H1460 C1473 0.929 . S
H1461 C1471 0.929 . S
H1462 C1466 0.929 1_556 S
H1463 C1472 0.927 1_565 S
C1464 H1458 0.930 . S
C1464 C1465 1.367 . S
C1464 C1472 1.378 . S
C1465 C1464 1.367 . S
C1465 C1473 1.433 1_554 S
C1466 H1462 0.929 1_554 S
C1466 C1468 1.378 . S
C1466 C1470 1.350 . S
C1467 C1470 1.463 . S
C1467 C1472 1.350 1_565 S
C1467 N1475 1.427 1_564 S
C1468 H1459 0.930 . S
C1468 C1466 1.378 . S
C1468 C1469 1.367 . S
C1469 C1468 1.367 . S
C1469 C1471 1.433 . S
C1470 C1466 1.350 . S
C1470 C1467 1.463 . S
C1470 N1474 1.427 . S
C1471 H1461 0.929 . S
C1471 C1469 1.433 . S
C1471 N1474 1.384 . S
C1472 H1463 0.927 1_545 S
C1472 C1464 1.378 . S
C1472 C1467 1.350 1_545 S
C1473 H1460 0.929 . S
C1473 C1465 1.433 1_556 S
C1473 N1475 1.384 . S
N1474 C1470 1.427 . S
N1474 C1471 1.384 . S
N1475 C1467 1.427 1_546 S
N1475 C1473 1.384 . S
H1476 C1482 0.930 . S
H1477 C1486 0.930 . S
H1478 C1491 0.929 . S
H1479 C1489 0.929 . S
H1480 C1484 0.929 . S
H1481 C1490 0.931 . S
C1482 H1476 0.930 . S
C1482 C1483 1.367 1_556 S
C1482 C1490 1.378 . S
C1483 C1482 1.367 1_554 S
C1483 C1491 1.433 . S
C1484 H1480 0.929 . S
C1484 C1486 1.378 . S
C1484 C1488 1.350 . S
C1485 C1488 1.463 . S
C1485 C1490 1.350 1_454 S
C1485 N1493 1.427 1_455 S
C1486 H1477 0.930 . S
C1486 C1484 1.378 . S
C1486 C1487 1.367 . S
C1487 C1486 1.367 . S
C1487 C1489 1.433 . S
C1488 C1484 1.350 . S
C1488 C1485 1.463 . S
C1488 N1492 1.427 . S
C1489 H1479 0.929 . S
C1489 C1487 1.433 . S
C1489 N1492 1.384 . S
C1490 H1481 0.931 . S
C1490 C1482 1.378 . S
C1490 C1485 1.350 1_656 S
C1491 H1478 0.929 . S
C1491 C1483 1.433 . S
C1491 N1493 1.384 . S
N1492 C1488 1.427 . S
N1492 C1489 1.384 . S
N1493 C1485 1.427 1_655 S
N1493 C1491 1.384 . S
H1494 C1500 0.930 . S
H1495 C1504 0.930 . S
H1496 C1509 0.929 . S
H1497 C1507 0.929 . S
H1498 C1502 0.929 . S
H1499 C1508 0.929 . S
C1500 H1494 0.930 . S
C1500 C1501 1.367 . S
C1500 C1508 1.378 . S
C1501 C1500 1.367 . S
C1501 C1509 1.433 . S
C1502 H1498 0.929 . S
C1502 C1504 1.378 . S
C1502 C1506 1.350 . S
C1503 C1506 1.463 . S
C1503 C1508 1.350 . S
C1503 N1511 1.427 . S
C1504 H1495 0.930 . S
C1504 C1502 1.378 . S
C1504 C1505 1.367 . S
C1505 C1504 1.367 . S
C1505 C1507 1.433 . S
C1506 C1502 1.350 . S
C1506 C1503 1.463 . S
C1506 N1510 1.427 . S
C1507 H1497 0.929 . S
C1507 C1505 1.433 . S
C1507 N1510 1.384 . S
C1508 H1499 0.929 . S
C1508 C1500 1.378 . S
C1508 C1503 1.350 . S
C1509 H1496 0.929 . S
C1509 C1501 1.433 . S
C1509 N1511 1.384 . S
N1510 C1506 1.427 . S
N1510 C1507 1.384 . S
N1511 C1503 1.427 . S
N1511 C1509 1.384 . S
H1512 C1518 0.930 . S
H1513 C1522 0.930 . S
H1514 C1527 0.929 . S
H1515 C1525 0.929 . S
H1516 C1520 0.929 . S
H1517 C1526 0.929 . S
C1518 H1512 0.930 . S
C1518 C1519 1.367 . S
C1518 C1526 1.378 1_565 S
C1519 C1518 1.367 . S
C1519 C1527 1.433 . S
C1520 H1516 0.929 . S
C1520 C1522 1.378 . S
C1520 C1524 1.350 . S
C1521 C1524 1.463 . S
C1521 C1526 1.350 . S
C1521 N1529 1.427 1_545 S
C1522 H1513 0.930 . S
C1522 C1520 1.378 . S
C1522 C1523 1.367 . S
C1523 C1522 1.367 . S
C1523 C1525 1.433 . S
C1524 C1520 1.350 . S
C1524 C1521 1.463 . S
C1524 N1528 1.427 . S
C1525 H1515 0.929 . S
C1525 C1523 1.433 . S
C1525 N1528 1.384 . S
C1526 H1517 0.929 . S
C1526 C1518 1.378 1_545 S
C1526 C1521 1.350 . S
C1527 H1514 0.929 . S
C1527 C1519 1.433 . S
C1527 N1529 1.384 . S
N1528 C1524 1.427 . S
N1528 C1525 1.384 . S
N1529 C1521 1.427 1_565 S
N1529 C1527 1.384 . S
H1530 C1536 0.930 . S
H1531 C1540 0.930 . S
H1532 C1545 0.929 . S
H1533 C1543 0.929 . S
H1534 C1538 0.929 1_655 S
H1535 C1544 0.929 . S
C1536 H1530 0.930 . S
C1536 C1537 1.367 . S
C1536 C1544 1.378 . S
C1537 C1536 1.367 . S
C1537 C1545 1.433 . S
C1538 H1534 0.929 1_455 S
C1538 C1540 1.378 . S
C1538 C1542 1.350 1_455 S
C1539 C1542 1.463 . S
C1539 C1544 1.350 . S
C1539 N1547 1.427 . S
C1540 H1531 0.930 . S
C1540 C1538 1.378 . S
C1540 C1541 1.367 . S
C1541 C1540 1.367 . S
C1541 C1543 1.433 . S
C1542 C1538 1.350 1_655 S
C1542 C1539 1.463 . S
C1542 N1546 1.427 1_655 S
C1543 H1533 0.929 . S
C1543 C1541 1.433 . S
C1543 N1546 1.384 . S
C1544 H1535 0.929 . S
C1544 C1536 1.378 . S
C1544 C1539 1.350 . S
C1545 H1532 0.929 . S
C1545 C1537 1.433 . S
C1545 N1547 1.384 . S
N1546 C1542 1.427 1_455 S
N1546 C1543 1.384 . S
N1547 C1539 1.427 . S
N1547 C1545 1.384 . S
H1548 C1554 0.930 . S
H1549 C1558 0.930 . S
H1550 C1563 0.929 . S
H1551 C1561 0.929 . S
H1552 C1556 0.929 . S
H1553 C1562 0.929 . S
C1554 H1548 0.930 . S
C1554 C1555 1.367 . S
C1554 C1562 1.378 . S
C1555 C1554 1.367 . S
C1555 C1563 1.433 1_556 S
C1556 H1552 0.929 . S
C1556 C1558 1.378 . S
C1556 C1560 1.350 . S
C1557 C1560 1.463 . S
C1557 C1562 1.350 . S
C1557 N1565 1.427 . S
C1558 H1549 0.930 . S
C1558 C1556 1.378 . S
C1558 C1559 1.367 . S
C1559 C1558 1.367 . S
C1559 C1561 1.433 . S
C1560 C1556 1.350 . S
C1560 C1557 1.463 . S
C1560 N1564 1.427 . S
C1561 H1551 0.929 . S
C1561 C1559 1.433 . S
C1561 N1564 1.384 . S
C1562 H1553 0.929 . S
C1562 C1554 1.378 . S
C1562 C1557 1.350 . S
C1563 H1550 0.929 . S
C1563 C1555 1.433 1_554 S
C1563 N1565 1.384 1_554 S
N1564 C1560 1.427 . S
N1564 C1561 1.384 . S
N1565 C1557 1.427 . S
N1565 C1563 1.384 1_556 S
H1566 C1572 0.930 . S
H1567 C1576 0.930 . S
H1568 C1581 0.929 1_554 S
H1569 C1579 0.929 . S
H1570 C1574 0.916 1_545 S
H1571 C1580 0.929 . S
C1572 H1566 0.930 . S
C1572 C1573 1.367 . S
C1572 C1580 1.378 . S
C1573 C1572 1.367 . S
C1573 C1581 1.433 . S
C1574 H1570 0.916 1_565 S
C1574 C1576 1.396 . S
C1574 C1578 1.344 1_564 S
C1575 C1578 1.463 . S
C1575 C1580 1.350 . S
C1575 N1583 1.427 . S
C1576 H1567 0.930 . S
C1576 C1574 1.396 . S
C1576 C1577 1.367 1_554 S
C1577 C1576 1.367 1_556 S
C1577 C1579 1.433 . S
C1578 C1574 1.344 1_546 S
C1578 C1575 1.463 . S
C1578 N1582 1.427 1_545 S
C1579 H1569 0.929 . S
C1579 C1577 1.433 . S
C1579 N1582 1.384 . S
C1580 H1571 0.929 . S
C1580 C1572 1.378 . S
C1580 C1575 1.350 . S
C1581 H1568 0.929 1_556 S
C1581 C1573 1.433 . S
C1581 N1583 1.384 . S
N1582 C1578 1.427 1_565 S
N1582 C1579 1.384 . S
N1583 C1575 1.427 . S
N1583 C1581 1.384 . S
H1584 C1590 0.930 . S
H1585 C1594 0.930 . S
H1586 C1599 0.929 1_554 S
H1587 C1597 0.929 . S
H1588 C1592 0.929 . S
H1589 C1598 0.929 . S
C1590 H1584 0.930 . S
C1590 C1591 1.367 . S
C1590 C1598 1.378 . S
C1591 C1590 1.367 . S
C1591 C1599 1.433 . S
C1592 H1588 0.929 . S
C1592 C1594 1.378 . S
C1592 C1596 1.350 . S
C1593 C1596 1.463 . S
C1593 C1598 1.350 1_655 S
C1593 N1601 1.427 . S
C1594 H1585 0.930 . S
C1594 C1592 1.378 . S
C1594 C1595 1.367 . S
C1595 C1594 1.367 . S
C1595 C1597 1.433 . S
C1596 C1592 1.350 . S
C1596 C1593 1.463 . S
C1596 N1600 1.427 . S
C1597 H1587 0.929 . S
C1597 C1595 1.433 . S
C1597 N1600 1.384 . S
C1598 H1589 0.929 . S
C1598 C1590 1.378 . S
C1598 C1593 1.350 1_455 S
C1599 H1586 0.929 1_556 S
C1599 C1591 1.433 . S
C1599 N1601 1.384 1_455 S
N1600 C1596 1.427 . S
N1600 C1597 1.384 . S
N1601 C1593 1.427 . S
N1601 C1599 1.384 1_655 S
H1602 C1608 0.930 . S
H1603 C1612 0.930 . S
H1604 C1617 0.929 . S
H1605 C1615 0.929 . S
H1606 C1610 0.929 . S
H1607 C1616 0.929 . S
C1608 H1602 0.930 . S
C1608 C1609 1.367 . S
C1608 C1616 1.378 . S
C1609 C1608 1.367 . S
C1609 C1617 1.433 . S
C1610 H1606 0.929 . S
C1610 C1612 1.378 . S
C1610 C1614 1.350 . S
C1611 C1614 1.463 . S
C1611 C1616 1.350 . S
C1611 N1619 1.427 . S
C1612 H1603 0.930 . S
C1612 C1610 1.378 . S
C1612 C1613 1.367 . S
C1613 C1612 1.367 . S
C1613 C1615 1.433 . S
C1614 C1610 1.350 . S
C1614 C1611 1.463 . S
C1614 N1618 1.427 . S
C1615 H1605 0.929 . S
C1615 C1613 1.433 . S
C1615 N1618 1.384 . S
C1616 H1607 0.929 . S
C1616 C1608 1.378 . S
C1616 C1611 1.350 . S
C1617 H1604 0.929 . S
C1617 C1609 1.433 . S
C1617 N1619 1.384 . S
N1618 C1614 1.427 . S
N1618 C1615 1.384 . S
N1619 C1611 1.427 . S
N1619 C1617 1.384 . S
H1620 C1626 0.930 . S
H1621 C1630 0.930 . S
H1622 C1635 0.929 . S
H1623 C1633 0.929 . S
H1624 C1628 0.929 1_565 S
H1625 C1634 0.929 . S
C1626 H1620 0.930 . S
C1626 C1627 1.367 . S
C1626 C1634 1.378 . S
C1627 C1626 1.367 . S
C1627 C1635 1.433 . S
C1628 H1624 0.929 1_545 S
C1628 C1630 1.378 . S
C1628 C1632 1.350 1_545 S
C1629 C1632 1.463 . S
C1629 C1634 1.350 . S
C1629 N1637 1.427 . S
C1630 H1621 0.930 . S
C1630 C1628 1.378 . S
C1630 C1631 1.367 . S
C1631 C1630 1.367 . S
C1631 C1633 1.433 . S
C1632 C1628 1.350 1_565 S
C1632 C1629 1.463 . S
C1632 N1636 1.427 1_565 S
C1633 H1623 0.929 . S
C1633 C1631 1.433 . S
C1633 N1636 1.384 . S
C1634 H1625 0.929 . S
C1634 C1626 1.378 . S
C1634 C1629 1.350 . S
C1635 H1622 0.929 . S
C1635 C1627 1.433 . S
C1635 N1637 1.384 . S
N1636 C1632 1.427 1_545 S
N1636 C1633 1.384 . S
N1637 C1629 1.427 . S
N1637 C1635 1.384 . S
H1638 C1644 0.930 . S
H1639 C1648 0.930 . S
H1640 C1653 0.929 . S
H1641 C1651 0.929 . S
H1642 C1646 0.929 . S
H1643 C1652 0.929 . S
C1644 H1638 0.930 . S
C1644 C1645 1.367 . S
C1644 C1652 1.378 . S
C1645 C1644 1.367 . S
C1645 C1653 1.433 . S
C1646 H1642 0.929 . S
C1646 C1648 1.378 . S
C1646 C1650 1.350 . S
C1647 C1650 1.463 . S
C1647 C1652 1.350 1_455 S
C1647 N1655 1.427 . S
C1648 H1639 0.930 . S
C1648 C1646 1.378 . S
C1648 C1649 1.367 . S
C1649 C1648 1.367 . S
C1649 C1651 1.433 . S
C1650 C1646 1.350 . S
C1650 C1647 1.463 . S
C1650 N1654 1.427 . S
C1651 H1641 0.929 . S
C1651 C1649 1.433 . S
C1651 N1654 1.384 . S
C1652 H1643 0.929 . S
C1652 C1644 1.378 . S
C1652 C1647 1.350 1_655 S
C1653 H1640 0.929 . S
C1653 C1645 1.433 . S
C1653 N1655 1.384 1_655 S
N1654 C1650 1.427 . S
N1654 C1651 1.384 . S
N1655 C1647 1.427 . S
N1655 C1653 1.384 1_455 S
C1015 C58 1.527 . S
C1019 C573 1.527 . S
C1033 C657 1.504 . S
C1037 C142 1.504 . S
C1051 C741 1.525 . S
C1055 C226 1.525 . S
C1069 C310 1.526 . S
C1073 C825 1.526 . S
C1087 C909 1.504 . S
C1091 C394 1.504 . S
C1105 C993 1.531 . S
C1109 C478 1.531 . S
C1123 C399 1.399 . S
C1127 C63 1.389 . S
C1141 C147 1.391 . S
C1145 C483 1.387 . S
C1159 C315 1.387 . S
C1163 C231 1.394 . S
C1177 C914 1.391 . S
C1181 C578 1.387 . S
C1195 C998 1.392 . S
C1199 C662 1.400 . S
C1213 C746 1.398 . S
C1217 C830 1.397 . S
C1231 C991 1.561 . S
C1235 C74 1.566 . S
C1249 C158 1.572 . S
C1253 C823 1.558 . S
C1267 C242 1.561 . S
C1271 C907 1.555 . S
C1285 C326 1.572 . S
C1289 C655 1.556 . S
C1303 C410 1.571 . S
C1307 C739 1.559 . S
C1321 C571 1.550 . S
C1325 C494 1.563 . S
C1339 C567 1.568 . S
C1343 C476 1.562 . S
C1357 C308 1.561 . S
C1361 C651 1.568 . S
C1375 C735 1.564 . S
C1379 C392 1.560 . S
C1393 C140 1.561 . S
C1397 C819 1.569 . S
C1411 C903 1.561 . S
C1415 C224 1.553 . S
C1429 C56 1.550 . S
C1433 C987 1.568 . S
C1447 C69 1.812 . S
C1451 C644 1.757 1_554 S
C1465 C728 1.766 1_554 S
C1469 C153 1.812 . S
C1483 C560 1.751 1_554 S
C1487 C237 1.806 . S
C1501 C321 1.806 . S
C1505 C980 1.761 . S
C1519 C812 1.761 . S
C1523 C405 1.806 . S
C1537 C489 1.811 . S
C1541 C896 1.766 . S
C1555 C151 1.759 1_556 S
C1559 C562 1.813 . S
C1573 C646 1.804 . S
C1577 C235 1.753 1_556 S
C1591 C67 1.758 1_556 S
C1595 C730 1.813 . S
C1609 C814 1.808 . S
C1613 C487 1.752 . S
C1627 C898 1.804 . S
C1631 C319 1.752 . S
C1645 C403 1.761 . S
C1649 C982 1.814 . S
