# Generated by pormake.
# Topology sml, (6)-cn, num edge types: 1
# Building blocks:
#     Node 0, Type 0, BuildingBlock: BETGAK_clean_sbu_0, # of connection points: 6
#     Node 1, Type 0, BuildingBlock: BETGAK_clean_sbu_0, # of connection points: 6
#     Node 2, Type 0, BuildingBlock: BETGAK_clean_sbu_0, # of connection points: 6
#     Node 3, Type 0, BuildingBlock: BETGAK_clean_sbu_0, # of connection points: 6
#     Node 4, Type 0, BuildingBlock: BETGAK_clean_sbu_0, # of connection points: 6
#     Node 5, Type 0, BuildingBlock: BETGAK_clean_sbu_0, # of connection points: 6
#     Edge 6, Type (0, 0), BuildingBlock: UVAHIK_clean_linker_0, # of connection points: 2
#     Edge 7, Type (0, 0), BuildingBlock: UVAHIK_clean_linker_0, # of connection points: 2
#     Edge 8, Type (0, 0), BuildingBlock: UVAHIK_clean_linker_0, # of connection points: 2
#     Edge 9, Type (0, 0), BuildingBlock: UVAHIK_clean_linker_0, # of connection points: 2
#     Edge 10, Type (0, 0), BuildingBlock: UVAHIK_clean_linker_0, # of connection points: 2
#     Edge 11, Type (0, 0), BuildingBlock: UVAHIK_clean_linker_0, # of connection points: 2
#     Edge 12, Type (0, 0), BuildingBlock: UVAHIK_clean_linker_0, # of connection points: 2
#     Edge 13, Type (0, 0), BuildingBlock: UVAHIK_clean_linker_0, # of connection points: 2
#     Edge 14, Type (0, 0), BuildingBlock: UVAHIK_clean_linker_0, # of connection points: 2
#     Edge 15, Type (0, 0), BuildingBlock: UVAHIK_clean_linker_0, # of connection points: 2
#     Edge 16, Type (0, 0), BuildingBlock: UVAHIK_clean_linker_0, # of connection points: 2
#     Edge 17, Type (0, 0), BuildingBlock: UVAHIK_clean_linker_0, # of connection points: 2
#     Edge 18, Type (0, 0), BuildingBlock: UVAHIK_clean_linker_0, # of connection points: 2
#     Edge 19, Type (0, 0), BuildingBlock: UVAHIK_clean_linker_0, # of connection points: 2
#     Edge 20, Type (0, 0), BuildingBlock: UVAHIK_clean_linker_0, # of connection points: 2
#     Edge 21, Type (0, 0), BuildingBlock: UVAHIK_clean_linker_0, # of connection points: 2
#     Edge 22, Type (0, 0), BuildingBlock: UVAHIK_clean_linker_0, # of connection points: 2
#     Edge 23, Type (0, 0), BuildingBlock: UVAHIK_clean_linker_0, # of connection points: 2
# Relax obj value: 0.156
# Max RMSD: 0.199
# Mean RMSD: 0.199
data_MOF--net-sml--node1-BETGAK_clean_sbu_0--edge1-UVAHIK_clean_linker_0
_symmetry_space_group_name_H-M    P1
_symmetry_Int_Tables_number       1
_symmetry_cell_setting            triclinic
loop_
_symmetry_equiv_pos_as_xyz
'x, y, z'
_cell_length_a     43.777531
_cell_length_b     43.722392
_cell_length_c     29.657702
_cell_angle_alpha  89.914301
_cell_angle_beta   90.026623
_cell_angle_gamma 120.16911
loop_
_atom_site_label
_atom_site_type_symbol
_atom_site_fract_x
_atom_site_fract_y
_atom_site_fract_z
_atom_type_partial_charge
La0 La 0.19279 0.41761 0.09394 0.0
La1 La 0.21795 0.40163 0.18216 0.0
C2 C 0.18816 0.44498 0.02106 0.0
C3 C 0.19094 0.43978 0.97247 0.0
C4 C 0.17683 0.45347 0.94134 0.0
C5 C 0.17885 0.44867 0.89504 0.0
C6 C 0.19508 0.43003 0.87887 0.0
C7 C 0.20932 0.4164 0.91033 0.0
C8 C 0.20719 0.42115 0.95672 0.0
C9 C 0.1428 0.37111 0.14714 0.0
C10 C 0.20491 0.3533 0.09474 0.0
C11 C 0.22423 0.37519 0.25493 0.0
C12 C 0.22076 0.37976 0.30352 0.0
C13 C 0.23456 0.36578 0.33469 0.0
C14 C 0.23229 0.37037 0.38099 0.0
C15 C 0.21613 0.38908 0.39712 0.0
C16 C 0.20211 0.40292 0.36563 0.0
C17 C 0.2045 0.39839 0.31923 0.0
C18 C 0.26748 0.44861 0.12928 0.0
C19 C 0.2042 0.4649 0.18199 0.0
O20 O 0.16103 0.41935 0.04195 0.0
O21 O 0.21726 0.45716 0.04464 0.0
O22 O 0.14047 0.3707 0.10353 0.0
O23 O 0.17064 0.39845 0.15897 0.0
O24 O 0.20234 0.3767 0.06917 0.0
O25 O 0.20905 0.35692 0.13913 0.0
O26 O 0.25055 0.40195 0.23439 0.0
O27 O 0.19514 0.36148 0.23107 0.0
O28 O 0.26922 0.44978 0.1729 0.0
O29 O 0.24018 0.42081 0.11715 0.0
O30 O 0.20544 0.44054 0.20717 0.0
O31 O 0.20218 0.46253 0.13731 0.0
H32 H 0.16424 0.46797 0.95286 0.0
H33 H 0.16805 0.45996 0.87187 0.0
H34 H 0.22165 0.40159 0.89913 0.0
H35 H 0.21809 0.41019 0.98026 0.0
H36 H 0.24719 0.35131 0.32319 0.0
H37 H 0.24291 0.35892 0.40419 0.0
H38 H 0.18983 0.41778 0.3768 0.0
H39 H 0.19388 0.4096 0.29567 0.0
La40 La 0.79154 0.24166 0.48749 0.0
La41 La 0.77601 0.19464 0.40478 0.0
C42 C 0.79069 0.26762 0.56314 0.0
C43 C 0.78835 0.25887 0.61151 0.0
C44 C 0.80687 0.28634 0.64238 0.0
C45 C 0.80497 0.27932 0.68857 0.0
C46 C 0.78439 0.24457 0.70501 0.0
C47 C 0.7661 0.21692 0.67384 0.0
C48 C 0.76803 0.22401 0.62747 0.0
C49 C 0.84652 0.25292 0.4399 0.0
C50 C 0.77975 0.16327 0.49681 0.0
C51 C 0.77667 0.16852 0.32915 0.0
C52 C 0.77748 0.17645 0.28066 0.0
C53 C 0.75822 0.14844 0.25072 0.0
C54 C 0.75897 0.15467 0.2044 0.0
C55 C 0.77911 0.18913 0.1869 0.0
C56 C 0.79809 0.21731 0.21714 0.0
C57 C 0.79732 0.21103 0.26362 0.0
C58 C 0.72109 0.18525 0.45187 0.0
C59 C 0.78733 0.27287 0.39495 0.0
O60 O 0.81964 0.27374 0.54252 0.0
O61 O 0.76247 0.2488 0.5385 0.0
O62 O 0.84397 0.27751 0.46088 0.0
O63 O 0.81997 0.22316 0.44829 0.0
O64 O 0.77915 0.19028 0.51623 0.0
O65 O 0.78359 0.16183 0.4528 0.0
O66 O 0.74774 0.16112 0.35085 0.0
O67 O 0.80512 0.18873 0.35274 0.0
O68 O 0.72272 0.15975 0.43192 0.0
O69 O 0.74835 0.21411 0.44303 0.0
O70 O 0.78753 0.2456 0.3756 0.0
O71 O 0.7843 0.27477 0.43915 0.0
H72 H 0.82286 0.31338 0.63072 0.0
H73 H 0.81995 0.30116 0.7114 0.0
H74 H 0.74982 0.18989 0.68532 0.0
H75 H 0.75349 0.20237 0.6042 0.0
H76 H 0.74262 0.1216 0.26321 0.0
H77 H 0.74351 0.13243 0.18231 0.0
H78 H 0.81409 0.24414 0.20484 0.0
H79 H 0.81244 0.23309 0.28612 0.0
La80 La 0.56146 0.76737 0.76023 0.0
La81 La 0.58168 0.81117 0.84739 0.0
C82 C 0.53266 0.73469 0.68853 0.0
C83 C 0.54192 0.73859 0.64016 0.0
C84 C 0.5264 0.70886 0.61199 0.0
C85 C 0.53257 0.71252 0.56542 0.0
C86 C 0.5543 0.74609 0.54597 0.0
C87 C 0.57051 0.77574 0.57464 0.0
C88 C 0.56445 0.77201 0.62122 0.0
C89 C 0.62028 0.77836 0.79941 0.0
C90 C 0.6197 0.84772 0.75768 0.0
C91 C 0.60073 0.83735 0.92511 0.0
C92 C 0.6002 0.82663 0.97236 0.0
C93 C 0.6134 0.85274 1.00582 0.0
C94 C 0.6114 0.84349 0.0513 0.0
C95 C 0.59595 0.8078 0.06436 0.0
C96 C 0.58309 0.78162 0.03056 0.0
C97 C 0.58537 0.79099 0.98489 0.0
C98 C 0.53761 0.81748 0.79279 0.0
C99 C 0.52437 0.72886 0.85145 0.0
O100 O 0.55053 0.72561 0.71554 0.0
O101 O 0.52811 0.75974 0.70572 0.0
O102 O 0.61485 0.77511 0.75624 0.0
O103 O 0.59245 0.77299 0.81872 0.0
O104 O 0.59356 0.82125 0.73549 0.0
O105 O 0.62346 0.84702 0.8019 0.0
O106 O 0.57 0.82854 0.9073 0.0
O107 O 0.62131 0.83286 0.89702 0.0
O108 O 0.56126 0.84331 0.81668 0.0
O109 O 0.53853 0.78994 0.80163 0.0
O110 O 0.54448 0.75872 0.87361 0.0
O111 O 0.52593 0.72629 0.80708 0.0
H112 H 0.50899 0.68283 0.62593 0.0
H113 H 0.52016 0.689 0.54465 0.0
H114 H 0.58706 0.80205 0.56103 0.0
H115 H 0.57669 0.79538 0.64229 0.0
H116 H 0.62478 0.88039 0.9968 0.0
H117 H 0.62113 0.86429 0.07635 0.0
H118 H 0.57137 0.75393 0.03942 0.0
H119 H 0.5753 0.77049 0.95946 0.0
La120 La 0.7532 0.57237 0.13364 0.0
La121 La 0.80046 0.59052 0.05067 0.0
C122 C 0.72405 0.55365 0.20992 0.0
C123 C 0.73311 0.55893 0.25812 0.0
C124 C 0.70671 0.55316 0.28924 0.0
C125 C 0.71391 0.55677 0.3354 0.0
C126 C 0.74776 0.56618 0.35145 0.0
C127 C 0.77444 0.57249 0.32 0.0
C128 C 0.76716 0.56888 0.27365 0.0
C129 C 0.75056 0.61668 0.07648 0.0
C130 C 0.83597 0.6289 0.13981 0.0
C131 C 0.82949 0.60974 0.97443 0.0
C132 C 0.82056 0.60576 0.92621 0.0
C133 C 0.84673 0.611 0.89498 0.0
C134 C 0.83959 0.60803 0.84883 0.0
C135 C 0.80603 0.59976 0.8329 0.0
C136 C 0.77961 0.59411 0.86443 0.0
C137 C 0.78684 0.59714 0.91079 0.0
C138 C 0.80177 0.54481 0.10718 0.0
C139 C 0.71824 0.53254 0.04473 0.0
O140 O 0.72753 0.58112 0.18772 0.0
O141 O 0.73536 0.53578 0.18682 0.0
O142 O 0.72366 0.59355 0.09954 0.0
O143 O 0.77782 0.61578 0.08764 0.0
O144 O 0.80628 0.60696 0.1612 0.0
O145 O 0.8388 0.63003 0.09543 0.0
O146 O 0.82476 0.58134 0.99544 0.0
O147 O 0.81933 0.62812 0.99859 0.0
O148 O 0.82892 0.5673 0.08391 0.0
O149 O 0.77528 0.54701 0.09605 0.0
O150 O 0.74721 0.55611 0.02322 0.0
O151 O 0.71624 0.53102 0.08927 0.0
H152 H 0.68033 0.54565 0.27782 0.0
H153 H 0.69295 0.55239 0.35853 0.0
H154 H 0.80072 0.57955 0.33122 0.0
H155 H 0.78794 0.57347 0.25006 0.0
H156 H 0.87284 0.61747 0.90633 0.0
H157 H 0.86033 0.61191 0.82561 0.0
H158 H 0.75357 0.58792 0.85326 0.0
H159 H 0.76628 0.59302 0.93449 0.0
La160 La 0.23033 0.80351 0.41715 0.0
La161 La 0.18275 0.77482 0.49959 0.0
C162 C 0.25751 0.81051 0.34015 0.0
C163 C 0.24631 0.80575 0.29235 0.0
C164 C 0.25273 0.83524 0.26625 0.0
C165 C 0.24426 0.83151 0.22043 0.0
C166 C 0.22947 0.79825 0.19953 0.0
C167 C 0.22275 0.76865 0.22569 0.0
C168 C 0.2311 0.77235 0.27162 0.0
C169 C 0.23316 0.85202 0.4709 0.0
C170 C 0.14766 0.77805 0.41061 0.0
C171 C 0.15397 0.76222 0.57623 0.0
C172 C 0.16441 0.76863 0.62429 0.0
C173 C 0.16118 0.74057 0.65092 0.0
C174 C 0.16922 0.74532 0.69683 0.0
C175 C 0.18059 0.77827 0.71736 0.0
C176 C 0.18394 0.80646 0.6907 0.0
C177 C 0.17579 0.80166 0.64468 0.0
C178 C 0.18224 0.72767 0.44425 0.0
C179 C 0.26538 0.80285 0.50786 0.0
O180 O 0.25716 0.83629 0.36208 0.0
O181 O 0.24586 0.78197 0.36491 0.0
O182 O 0.25923 0.85614 0.4459 0.0
O183 O 0.20566 0.82297 0.46213 0.0
O184 O 0.17739 0.78578 0.38946 0.0
O185 O 0.14456 0.77603 0.45493 0.0
O186 O 0.16132 0.74056 0.55478 0.0
O187 O 0.15968 0.78937 0.55126 0.0
O188 O 0.15462 0.72329 0.4658 0.0
O189 O 0.20859 0.75646 0.45577 0.0
O190 O 0.23596 0.79729 0.52789 0.0
O191 O 0.26797 0.80196 0.46347 0.0
H192 H 0.26491 0.8614 0.28106 0.0
H193 H 0.25026 0.85491 0.20107 0.0
H194 H 0.21112 0.74262 0.21061 0.0
H195 H 0.22603 0.74909 0.29066 0.0
H196 H 0.15186 0.71464 0.63638 0.0
H197 H 0.16563 0.72284 0.71646 0.0
H198 H 0.19285 0.83225 0.70539 0.0
H199 H 0.17802 0.82371 0.62537 0.0
La200 La 0.42307 0.18215 0.83144 0.0
La201 La 0.39077 0.19584 0.74808 0.0
C202 C 0.45111 0.18604 0.90715 0.0
C203 C 0.44297 0.18655 0.95533 0.0
C204 C 0.4495 0.1659 0.98569 0.0
C205 C 0.44268 0.16612 0.03167 0.0
C206 C 0.42926 0.18713 0.04835 0.0
C207 C 0.4226 0.20778 0.0178 0.0
C208 C 0.42931 0.20743 0.97166 0.0
C209 C 0.37602 0.12569 0.78845 0.0
C210 C 0.35658 0.19407 0.84017 0.0
C211 C 0.36354 0.19377 0.67225 0.0
C212 C 0.37158 0.19356 0.62395 0.0
C213 C 0.36643 0.21557 0.59431 0.0
C214 C 0.37297 0.21555 0.54821 0.0
C215 C 0.38481 0.19345 0.53066 0.0
C216 C 0.39014 0.17148 0.56053 0.0
C217 C 0.3836 0.17154 0.60677 0.0
C218 C 0.43923 0.25205 0.79095 0.0
C219 C 0.45563 0.18167 0.73854 0.0
O220 O 0.4314 0.15629 0.88579 0.0
O221 O 0.45741 0.21364 0.88283 0.0
O222 O 0.40306 0.12784 0.80928 0.0
O223 O 0.37494 0.15358 0.79467 0.0
O224 O 0.38428 0.19488 0.8597 0.0
O225 O 0.35102 0.18958 0.79624 0.0
O226 O 0.38383 0.22306 0.69417 0.0
O227 O 0.35634 0.16566 0.69599 0.0
O228 O 0.41207 0.25056 0.7713 0.0
O229 O 0.43928 0.22379 0.78405 0.0
O230 O 0.42798 0.18129 0.71957 0.0
O231 O 0.46205 0.18694 0.78235 0.0
H232 H 0.46014 0.14971 0.97383 0.0
H233 H 0.44857 0.1503 0.05429 0.0
H234 H 0.41194 0.22397 0.02949 0.0
H235 H 0.42394 0.22354 0.94889 0.0
H236 H 0.35699 0.23262 0.60682 0.0
H237 H 0.36805 0.23239 0.52618 0.0
H238 H 0.39959 0.1544 0.54823 0.0
H239 H 0.38778 0.15428 0.62894 0.0
C240 C 0.33643 0.20424 0.91485 0.0
C241 C 0.3313 0.19874 0.86811 0.0
C242 C 0.31435 0.21198 0.94036 0.0
C243 C 0.26188 0.25442 0.9263 0.0
H244 H 0.22972 0.22142 0.048 0.0
C245 C 0.19515 0.31497 0.02793 0.0
C246 C 0.20751 0.32468 0.07224 0.0
C247 C 0.20198 0.29159 1.00408 0.0
C248 C 0.23861 0.23095 0.01409 0.0
H249 H 0.29773 0.19508 0.81196 0.0
H250 H 0.25938 0.20862 0.85652 0.0
H251 H 0.25783 0.19497 1.00405 0.0
H252 H 0.23494 0.31608 0.12731 0.0
H253 H 0.24806 0.27631 0.08521 0.0
H254 H 0.24455 0.2915 0.93655 0.0
C255 C 0.2807 0.20732 0.87327 0.0
C256 C 0.25461 0.21576 0.98897 0.0
C257 C 0.30267 0.19951 0.84781 0.0
C258 C 0.22507 0.30904 0.09317 0.0
C259 C 0.23241 0.28606 0.06906 0.0
C260 C 0.24622 0.26976 0.95142 0.0
C261 C 0.28682 0.21445 0.91956 0.0
C262 C 0.2668 0.22771 0.94505 0.0
C263 C 0.22189 0.27794 0.02376 0.0
C264 C 0.23483 0.25859 0.99585 0.0
H265 H 0.3581 0.20363 0.93158 0.0
H266 H 0.31985 0.21764 0.97594 0.0
H267 H 0.27158 0.26463 0.89283 0.0
H268 H 0.18103 0.32621 1.01119 0.0
H269 H 0.19267 0.28517 0.96965 0.0
C270 C 0.11776 0.35599 0.22452 0.0
C271 C 0.11298 0.35039 0.17788 0.0
C272 C 0.08905 0.3396 0.25376 0.0
C273 C -0.00699 0.27234 0.26139 0.0
H274 H -0.0037 0.33535 0.35552 0.0
C275 C 0.88201 0.23304 0.39545 0.0
C276 C 0.8749 0.25978 0.40799 0.0
C277 C 0.91047 0.24081 0.36686 0.0
C278 C -0.00525 0.31747 0.3292 0.0
H279 H 0.07474 0.32237 0.12515 0.0
H280 H 0.02403 0.29493 0.17607 0.0
H281 H 0.04696 0.35377 0.3071 0.0
H282 H 0.89039 0.31489 0.39915 0.0
H283 H 0.93915 0.32826 0.34855 0.0
H284 H 0.93976 0.23681 0.28254 0.0
C285 C 0.05012 0.31116 0.1903 0.0
C286 C 0.02415 0.32779 0.30185 0.0
C287 C 0.0791 0.32707 0.16106 0.0
C288 C 0.89573 0.29396 0.39051 0.0
C289 C 0.92377 0.30161 0.3617 0.0
C290 C 0.9633 0.26211 0.28866 0.0
C291 C 0.05468 0.318 0.23693 0.0
C292 C 0.02369 0.3055 0.26741 0.0
C293 C 0.93201 0.27538 0.35029 0.0
C294 C 0.96374 0.28483 0.32248 0.0
H295 H 0.14352 0.37403 0.23842 0.0
H296 H 0.09374 0.3448 0.28953 0.0
H297 H 0.99186 0.25437 0.23547 0.0
H298 H 0.8662 0.20646 0.40865 0.0
H299 H 0.91621 0.22006 0.35885 0.0
C300 C 0.77045 0.1334 0.57193 0.0
C301 C 0.77351 0.13262 0.52479 0.0
C302 C 0.76028 0.10294 0.59765 0.0
C303 C 0.70704 0.00758 0.5864 0.0
H304 H 0.74677 0.00406 0.70184 0.0
C305 C 0.64816 0.87779 0.68546 0.0
C306 C 0.6443 0.87974 0.73216 0.0
C307 C 0.66897 0.9084 0.66041 0.0
C308 C 0.73518 0.00468 0.66984 0.0
H309 H 0.77007 0.0997 0.46802 0.0
H310 H 0.75218 0.04669 0.51293 0.0
H311 H 0.77464 0.05887 0.65787 0.0
H312 H 0.65999 0.91506 0.7896 0.0
H313 H 0.69535 0.96874 0.74568 0.0
H314 H 0.66679 0.95426 0.59866 0.0
C315 C 0.75741 0.07079 0.52986 0.0
C316 C 0.75124 0.03602 0.64465 0.0
C317 C 0.76781 0.10123 0.50421 0.0
C318 C 0.6626 0.91277 0.75362 0.0
C319 C 0.68302 0.94352 0.72843 0.0
C320 C 0.6908 0.97649 0.61168 0.0
C321 C 0.75275 0.07112 0.57665 0.0
C322 C 0.73723 0.03773 0.60274 0.0
C323 C 0.68591 0.94177 0.68135 0.0
C324 C 0.70455 0.97461 0.6538 0.0
H325 H 0.77484 0.15719 0.58889 0.0
H326 H 0.75672 0.10387 0.63366 0.0
H327 H 0.69526 0.00835 0.55459 0.0
H328 H 0.63479 0.8526 0.66811 0.0
H329 H 0.67132 0.9059 0.62443 0.0
C330 C 0.67221 0.76925 0.79717 0.0
C331 C 0.64825 0.77483 0.82226 0.0
C332 C 0.69481 0.76005 0.81893 0.0
C333 C 0.70854 0.70865 0.87338 0.0
H334 H 0.75564 0.7471 0.98747 0.0
C335 C 0.7777 0.67041 0.02718 0.0
C336 C 0.74832 0.63793 0.03965 0.0
C337 C 0.77427 0.69153 0.99433 0.0
C338 C 0.74321 0.73648 0.95521 0.0
H339 H 0.63047 0.77728 0.88965 0.0
H340 H 0.6704 0.76204 0.92763 0.0
H341 H 0.73516 0.78018 0.94202 0.0
H342 H 0.69302 0.60101 0.02651 0.0
H343 H 0.68724 0.63738 0.96842 0.0
H344 H 0.7144 0.66386 0.88807 0.0
C345 C 0.6718 0.76475 0.89126 0.0
C346 C 0.73135 0.75525 0.92941 0.0
C347 C 0.64887 0.7734 0.86951 0.0
C348 C 0.71596 0.62612 0.01763 0.0
C349 C 0.71275 0.64675 0.98421 0.0
C350 C 0.71991 0.68968 0.89948 0.0
C351 C 0.69417 0.75688 0.86612 0.0
C352 C 0.71297 0.74098 0.88893 0.0
C353 C 0.74166 0.67989 0.97283 0.0
C354 C 0.73636 0.70295 0.94123 0.0
H355 H 0.67229 0.77025 0.76067 0.0
H356 H 0.71191 0.7542 0.79884 0.0
H357 H 0.69417 0.69688 0.84252 0.0
H358 H 0.80291 0.67994 0.04385 0.0
H359 H 0.79686 0.71705 0.98608 0.0
C360 C 0.11864 0.78709 0.34337 0.0
C361 C 0.11607 0.76933 0.38381 0.0
C362 C 0.08837 0.77792 0.31783 0.0
C363 C 0.98907 0.7221 0.32232 0.0
H364 H -0.00102 0.73038 0.19252 0.0
C365 C 0.86587 0.66516 0.20811 0.0
C366 C 0.86792 0.65122 0.16644 0.0
C367 C 0.89636 0.68512 0.23386 0.0
C368 C -0.0045 0.72727 0.22868 0.0
H369 H 0.08045 0.72774 0.42906 0.0
H370 H 0.02829 0.70992 0.38343 0.0
H371 H 0.05112 0.75285 0.23891 0.0
H372 H 0.90292 0.6464 0.11916 0.0
H373 H 0.95539 0.67872 0.16494 0.0
H374 H 0.93341 0.69343 0.31197 0.0
C375 C 0.05295 0.73223 0.37211 0.0
C376 C 0.02572 0.74102 0.25559 0.0
C377 C 0.08297 0.74218 0.39824 0.0
C378 C 0.90078 0.6574 0.15092 0.0
C379 C 0.931 0.67631 0.17719 0.0
C380 C 0.95883 0.7073 0.29537 0.0
C381 C 0.05508 0.74996 0.33149 0.0
C382 C 0.02299 0.73813 0.30285 0.0
C383 C 0.92935 0.6905 0.21914 0.0
C384 C 0.96155 0.70912 0.24806 0.0
H385 H 0.14398 0.80831 0.33179 0.0
H386 H 0.09124 0.79283 0.28742 0.0
H387 H 0.98561 0.72025 0.35854 0.0
H388 H 0.84074 0.66082 0.22063 0.0
H389 H 0.89387 0.69615 0.26535 0.0
C390 C 0.36849 0.07819 0.73635 0.0
C391 C 0.35502 0.09844 0.75498 0.0
C392 C 0.34987 0.05353 0.70279 0.0
C393 C 0.26279 -0.00383 0.65638 0.0
H394 H 0.3163 -0.0038 0.55217 0.0
C395 C 0.22558 0.87467 0.54435 0.0
C396 C 0.23476 0.8804 0.49868 0.0
C397 C 0.23343 0.90325 0.57262 0.0
C398 C 0.3007 -0.00388 0.58055 0.0
H399 H 0.31124 0.10831 0.75468 0.0
H400 H 0.27808 0.06439 0.69584 0.0
H401 H 0.3442 0.0431 0.60774 0.0
H402 H 0.2578 0.91962 0.44572 0.0
H403 H 0.27095 0.96964 0.4947 0.0
H404 H 0.21951 0.94846 0.6296 0.0
C405 C 0.30322 0.06796 0.70707 0.0
C406 C 0.31684 0.02279 0.6126 0.0
C407 C 0.32214 0.09303 0.74045 0.0
C408 C 0.25034 0.91472 0.48096 0.0
C409 C 0.25797 0.94325 0.509 0.0
C410 C 0.2466 0.96923 0.62432 0.0
C411 C 0.31723 0.04837 0.68759 0.0
C412 C 0.29835 0.02258 0.6513 0.0
C413 C 0.25077 0.93797 0.55543 0.0
C414 C 0.26567 0.9686 0.58652 0.0
H415 H 0.39381 0.08191 0.74704 0.0
H416 H 0.36098 0.03838 0.68874 0.0
H417 H 0.24804 0.99549 0.68606 0.0
H418 H 0.21497 0.84862 0.55884 0.0
H419 H 0.22817 0.89837 0.60837 0.0
C420 C 0.16824 0.41725 0.80116 0.0
C421 C 0.19705 0.42494 0.82942 0.0
C422 C 0.17026 0.41327 0.75464 0.0
C423 C 0.22026 0.39555 0.66758 0.0
H424 H 0.17973 0.43512 0.58619 0.0
C425 C 0.24288 0.40175 0.47486 0.0
C426 C 0.21411 0.39414 0.44656 0.0
C427 C 0.24084 0.40575 0.52138 0.0
C428 C 0.19084 0.42354 0.6084 0.0
H429 H 0.25071 0.43458 0.83054 0.0
H430 H 0.25428 0.42769 0.74941 0.0
H431 H 0.1761 0.44127 0.66738 0.0
H432 H 0.16052 0.38468 0.44535 0.0
H433 H 0.1569 0.39156 0.52649 0.0
H434 H 0.23499 0.37781 0.60861 0.0
C435 C 0.22988 0.42425 0.76334 0.0
C436 C 0.18876 0.42707 0.65505 0.0
C437 C 0.22784 0.42821 0.80993 0.0
C438 C 0.18334 0.39097 0.46601 0.0
C439 C 0.18128 0.39493 0.51259 0.0
C440 C 0.22234 0.39201 0.62094 0.0
C441 C 0.20116 0.41687 0.73503 0.0
C442 C 0.20343 0.41311 0.68529 0.0
C443 C 0.20996 0.40222 0.54094 0.0
C444 C 0.20767 0.40597 0.59069 0.0
H445 H 0.14388 0.41392 0.81507 0.0
H446 H 0.14738 0.40694 0.73408 0.0
H447 H 0.23138 0.38398 0.68979 0.0
H448 H 0.26722 0.40501 0.46099 0.0
H449 H 0.26369 0.41202 0.54196 0.0
C450 C 0.78193 0.17145 0.10697 0.0
C451 C 0.78034 0.19534 0.13729 0.0
C452 C 0.78221 0.17661 0.06039 0.0
C453 C 0.80046 0.24497 0.97397 0.0
H454 H 0.7453 0.16409 0.89656 0.0
C455 C 0.78001 0.26103 0.785 0.0
C456 C 0.78213 0.23756 0.75449 0.0
C457 C 0.77928 0.25544 0.83151 0.0
C458 C 0.76116 0.18691 0.91762 0.0
H459 H 0.77779 0.24349 0.14205 0.0
H460 H 0.77834 0.25255 0.06075 0.0
H461 H 0.74536 0.15562 0.97786 0.0
H462 H 0.78486 0.18952 0.74928 0.0
H463 H 0.78349 0.17969 0.83053 0.0
H464 H 0.81626 0.27626 0.91375 0.0
C465 C 0.77976 0.22998 0.07309 0.0
C466 C 0.7612 0.18207 0.96428 0.0
C467 C 0.77946 0.2248 0.11975 0.0
C468 C 0.78284 0.20793 0.77175 0.0
C469 C 0.78208 0.20231 0.81836 0.0
C470 C 0.8004 0.24982 0.92732 0.0
C471 C 0.78097 0.20585 0.0428 0.0
C472 C 0.78085 0.21104 0.99308 0.0
C473 C 0.78058 0.22617 0.84885 0.0
C474 C 0.78072 0.22086 0.89853 0.0
H475 H 0.78333 0.14884 0.11923 0.0
H476 H 0.78383 0.15786 0.03814 0.0
H477 H 0.81635 0.26781 0.99499 0.0
H478 H 0.77867 0.28372 0.77294 0.0
H479 H 0.77739 0.27396 0.85391 0.0
C480 C 0.59186 0.77526 0.47712 0.0
C481 C 0.55916 0.7503 0.49598 0.0
C482 C 0.596 0.77987 0.43032 0.0
C483 C 0.54429 0.76323 0.32451 0.0
H484 H 0.63202 0.78299 0.26742 0.0
C485 C 0.56098 0.76995 0.1303 0.0
C486 C 0.59254 0.79822 0.11314 0.0
C487 C 0.55701 0.76253 0.17661 0.0
C488 C 0.60744 0.77775 0.28287 0.0
H489 H 0.50511 0.71072 0.47975 0.0
H490 H 0.51262 0.71796 0.39845 0.0
H491 H 0.62491 0.77312 0.34865 0.0
H492 H 0.64512 0.84007 0.13121 0.0
H493 H 0.63816 0.82728 0.21184 0.0
H494 H 0.52683 0.76778 0.25865 0.0
C495 C 0.535 0.7344 0.41985 0.0
C496 C 0.60337 0.77216 0.32953 0.0
C497 C 0.53083 0.72988 0.46662 0.0
C498 C 0.62033 0.81832 0.14332 0.0
C499 C 0.61645 0.81077 0.18953 0.0
C500 C 0.54831 0.76865 0.27783 0.0
C501 C 0.56759 0.75959 0.401 0.0
C502 C 0.57178 0.76496 0.35108 0.0
C503 C 0.58461 0.78303 0.20688 0.0
C504 C 0.57998 0.77613 0.25641 0.0
H505 H 0.61441 0.79123 0.49851 0.0
H506 H 0.62139 0.79981 0.41721 0.0
H507 H 0.51981 0.75839 0.33986 0.0
H508 H 0.53895 0.75411 0.10809 0.0
H509 H 0.53227 0.74073 0.18874 0.0
C510 C 0.82462 0.62158 0.75367 0.0
C511 C 0.79898 0.59714 0.78354 0.0
C512 C 0.8189 0.6184 0.70714 0.0
C513 C 0.76646 0.55327 0.61921 0.0
H514 H 0.79565 0.63658 0.54503 0.0
C515 C 0.72945 0.54444 0.4308 0.0
C516 C 0.75484 0.56907 0.40084 0.0
C517 C 0.73529 0.5477 0.47732 0.0
C518 C 0.78776 0.61308 0.56517 0.0
H519 H 0.74698 0.55038 0.78776 0.0
H520 H 0.7367 0.54514 0.70643 0.0
H521 H 0.80397 0.64287 0.62648 0.0
H522 H 0.80652 0.61627 0.39651 0.0
H523 H 0.81703 0.62159 0.47775 0.0
H524 H 0.7503 0.52349 0.55792 0.0
C525 C 0.76147 0.56654 0.71909 0.0
C526 C 0.79247 0.61668 0.61191 0.0
C527 C 0.76717 0.56978 0.76573 0.0
C528 C 0.78651 0.59672 0.41858 0.0
C529 C 0.79234 0.6 0.4652 0.0
C530 C 0.76178 0.54968 0.57247 0.0
C531 C 0.78737 0.5907 0.68921 0.0
C532 C 0.78186 0.58682 0.63952 0.0
C533 C 0.7667 0.57563 0.49516 0.0
C534 C 0.77234 0.57953 0.54485 0.0
H535 H 0.84924 0.64325 0.76627 0.0
H536 H 0.83954 0.6373 0.68515 0.0
H537 H 0.75854 0.52978 0.63937 0.0
H538 H 0.70497 0.52252 0.4183 0.0
H539 H 0.71482 0.52863 0.49935 0.0
C540 C 0.20443 0.76628 0.78813 0.0
C541 C 0.18769 0.78263 0.76667 0.0
C542 C 0.2091 0.76844 0.83485 0.0
C543 C 0.21203 0.81983 0.93488 0.0
H544 H 0.19022 0.7341 0.99972 0.0
C545 C 0.20746 0.8131 0.12933 0.0
C546 C 0.22239 0.79482 0.15028 0.0
C547 C 0.20241 0.81123 0.08266 0.0
C548 C 0.19681 0.75837 0.98212 0.0
H549 H 0.1631 0.81446 0.77765 0.0
H550 H 0.17163 0.81854 0.85918 0.0
H551 H 0.18431 0.73259 0.91792 0.0
H552 H 0.24377 0.76027 0.13863 0.0
H553 H 0.23516 0.75712 0.05723 0.0
H554 H 0.2248 0.8457 0.999 0.0
C555 C 0.18133 0.80423 0.83972 0.0
C556 C 0.19341 0.7575 0.93522 0.0
C557 C 0.17652 0.80195 0.79298 0.0
C558 C 0.23172 0.77424 0.12359 0.0
C559 C 0.22678 0.77245 0.07691 0.0
C560 C 0.21555 0.82074 0.98179 0.0
C561 C 0.1973 0.78714 0.86123 0.0
C562 C 0.20103 0.78822 0.91107 0.0
C563 C 0.21228 0.79111 0.05582 0.0
C564 C 0.20801 0.79002 1.00598 0.0
H565 H 0.21394 0.75174 0.76881 0.0
H566 H 0.22208 0.75554 0.85034 0.0
H567 H 0.21849 0.84403 0.91717 0.0
H568 H 0.19955 0.82879 0.14907 0.0
H569 H 0.19058 0.82541 0.06763 0.0
C570 C 0.40651 0.22458 0.45613 0.0
C571 C 0.39088 0.193 0.48128 0.0
C572 C 0.4108 0.22407 0.40946 0.0
C573 C 0.41406 0.16909 0.31686 0.0
H574 H 0.39326 0.22882 0.24129 0.0
C575 C 0.40773 0.15635 0.123 0.0
C576 C 0.42285 0.18776 0.09756 0.0
C577 C 0.40326 0.15703 0.16959 0.0
C578 C 0.39956 0.21226 0.2619 0.0
H579 H 0.36756 0.13606 0.47682 0.0
H580 H 0.37513 0.13517 0.39544 0.0
H581 H 0.38742 0.23005 0.32294 0.0
H582 H 0.44491 0.24454 0.10125 0.0
H583 H 0.43725 0.2458 0.1826 0.0
H584 H 0.42631 0.15137 0.2559 0.0
C585 C 0.38446 0.16042 0.41193 0.0
C586 C 0.39622 0.21297 0.30876 0.0
C587 C 0.38015 0.16093 0.45864 0.0
C588 C 0.4328 0.21982 0.11975 0.0
C589 C 0.4284 0.22052 0.16642 0.0
C590 C 0.41745 0.16841 0.27003 0.0
C591 C 0.3996 0.19197 0.38671 0.0
C592 C 0.4034 0.19137 0.33683 0.0
C593 C 0.41385 0.18916 0.192 0.0
C594 C 0.41019 0.18995 0.24191 0.0
H595 H 0.41565 0.24982 0.47256 0.0
H596 H 0.42316 0.24892 0.39123 0.0
H597 H 0.42032 0.15251 0.33748 0.0
H598 H 0.39921 0.13112 0.10684 0.0
H599 H 0.39129 0.13228 0.18802 0.0
C600 C 0.19799 0.49301 0.25195 0.0
C601 C 0.20167 0.49359 0.20482 0.0
C602 C 0.19422 0.51912 0.2738 0.0
C603 C 0.16442 0.56417 0.30701 0.0
H604 H 0.2277 0.66344 0.28046 0.0
C605 C 0.15126 0.67434 0.39532 0.0
C606 C 0.18291 0.70241 0.41217 0.0
C607 C 0.15189 0.6499 0.36561 0.0
C608 C 0.20983 0.6358 0.28815 0.0
H609 H 0.20488 0.52246 0.14374 0.0
H610 H 0.19849 0.5684 0.18225 0.0
H611 H 0.23218 0.61829 0.23709 0.0
H612 H 0.23994 0.72692 0.41186 0.0
H613 H 0.24113 0.68439 0.35973 0.0
H614 H 0.14268 0.58152 0.35881 0.0
C615 C 0.1985 0.54758 0.20209 0.0
C616 C 0.2122 0.61001 0.26311 0.0
C617 C 0.20203 0.52123 0.18008 0.0
C618 C 0.21519 0.70584 0.39867 0.0
C619 C 0.21586 0.68155 0.36878 0.0
C620 C 0.16192 0.58991 0.33183 0.0
C621 C 0.19422 0.54656 0.24913 0.0
C622 C 0.18993 0.57395 0.27288 0.0
C623 C 0.18421 0.65315 0.35224 0.0
C624 C 0.18497 0.62599 0.32317 0.0
H625 H 0.19765 0.47218 0.27214 0.0
H626 H 0.19156 0.51797 0.31017 0.0
H627 H 0.14662 0.53655 0.3149 0.0
H628 H 0.12603 0.67124 0.40519 0.0
H629 H 0.12709 0.62842 0.35313 0.0
C630 C 0.68954 0.21165 0.4905 0.0
C631 C 0.6919 0.18162 0.48019 0.0
C632 C 0.66236 0.20883 0.51785 0.0
C633 C 0.59895 0.15367 0.60472 0.0
H634 H 0.55223 0.20583 0.57123 0.0
C635 C 0.51135 0.17958 0.72707 0.0
C636 C 0.48066 0.1776 0.7092 0.0
C637 C 0.53544 0.1769 0.69878 0.0
C638 C 0.56476 0.19082 0.58087 0.0
H639 H 0.66789 0.12506 0.48992 0.0
H640 H 0.61993 0.11998 0.538 0.0
H641 H 0.59693 0.20666 0.52161 0.0
H642 H 0.45075 0.17019 0.64771 0.0
H643 H 0.49258 0.16538 0.59868 0.0
H644 H 0.56663 0.13785 0.66408 0.0
C645 C 0.63932 0.14575 0.52512 0.0
C646 C 0.59061 0.1916 0.55266 0.0
C647 C 0.66652 0.14858 0.49746 0.0
C648 C 0.47423 0.17213 0.66263 0.0
C649 C 0.49828 0.16949 0.63443 0.0
C650 C 0.57313 0.15302 0.63311 0.0
C651 C 0.63695 0.17588 0.53545 0.0
C652 C 0.6082 0.17331 0.56445 0.0
C653 C 0.52934 0.17225 0.65209 0.0
C654 C 0.55591 0.17176 0.62156 0.0
H655 H 0.70872 0.23742 0.47737 0.0
H656 H 0.66149 0.23258 0.52566 0.0
H657 H 0.61226 0.13952 0.61478 0.0
H658 H 0.51707 0.1837 0.7628 0.0
H659 H 0.55932 0.17945 0.71331 0.0
C660 C 0.29334 0.46804 0.05229 0.0
C661 C 0.29442 0.47481 0.0987 0.0
C662 C 0.31892 0.49317 0.02343 0.0
C663 C 0.40872 0.57187 0.02368 0.0
H664 H 0.38033 0.59317 0.90944 0.0
C665 C 0.49746 0.6993 0.92486 0.0
C666 C 0.49912 0.69732 0.87768 0.0
C667 C 0.47338 0.66997 0.94985 0.0
C668 C 0.38874 0.58716 0.94093 0.0
H669 H 0.32289 0.51273 0.15155 0.0
H670 H 0.36737 0.55676 0.10129 0.0
H671 H 0.33633 0.54584 0.95692 0.0
H672 H 0.47665 0.66271 0.81982 0.0
H673 H 0.43443 0.61137 0.86371 0.0
H674 H 0.46097 0.61358 1.00812 0.0
C675 C 0.34713 0.53196 0.08711 0.0
C676 C 0.36355 0.56005 0.96813 0.0
C677 C 0.32157 0.50687 0.11588 0.0
C678 C 0.4761 0.66518 0.8561 0.0
C679 C 0.45181 0.63581 0.88118 0.0
C680 C 0.43384 0.59897 0.99658 0.0
C681 C 0.34612 0.52542 0.04055 0.0
C682 C 0.37318 0.55249 1.01014 0.0
C683 C 0.45022 0.63793 0.92833 0.0
C684 C 0.42403 0.60728 0.95524 0.0
H685 H 0.27284 0.44328 0.03832 0.0
H686 H 0.31762 0.48717 0.98782 0.0
H687 H 0.41715 0.56621 0.0554 0.0
H688 H 0.51453 0.72362 0.94268 0.0
H689 H 0.47243 0.67264 0.98605 0.0
C690 C 0.78988 0.29879 0.31874 0.0
C691 C 0.78975 0.30157 0.36595 0.0
C692 C 0.79196 0.32573 0.29128 0.0
C693 C 0.81911 0.42026 0.29081 0.0
H694 H 0.75748 0.39466 0.18665 0.0
C695 C 0.83259 0.52091 0.15373 0.0
C696 C 0.80103 0.5182 0.13828 0.0
C697 C 0.83173 0.49515 0.18256 0.0
C698 C 0.77471 0.40224 0.21576 0.0
H699 H 0.79205 0.33509 0.42131 0.0
H700 H 0.79553 0.38205 0.37325 0.0
H701 H 0.75492 0.34835 0.23515 0.0
H702 H 0.74389 0.48663 0.14038 0.0
H703 H 0.74232 0.44181 0.19098 0.0
H704 H 0.83863 0.47422 0.27156 0.0
C705 C 0.79426 0.35909 0.35757 0.0
C706 C 0.77351 0.37572 0.24325 0.0
C707 C 0.79203 0.33206 0.38507 0.0
C708 C 0.76861 0.48946 0.15215 0.0
C709 C 0.76773 0.46366 0.18076 0.0
C710 C 0.82046 0.44682 0.26313 0.0
C711 C 0.79409 0.35613 0.31038 0.0
C712 C 0.79565 0.38443 0.28111 0.0
C713 C 0.79927 0.46611 0.19609 0.0
C714 C 0.79818 0.43807 0.2254 0.0
H715 H 0.78824 0.27573 0.30283 0.0
H716 H 0.79219 0.32289 0.25502 0.0
H717 H 0.8367 0.42776 0.31956 0.0
H718 H 0.85791 0.54287 0.14344 0.0
H719 H 0.85645 0.49757 0.19353 0.0
C720 C 0.29357 0.81127 0.58366 0.0
C721 C 0.29577 0.80939 0.53653 0.0
C722 C 0.32128 0.81553 0.6112 0.0
C723 C 0.41599 0.84264 0.61209 0.0
H724 H 0.38931 0.78154 0.71711 0.0
C725 C 0.51592 0.85146 0.74825 0.0
C726 C 0.51161 0.81895 0.76275 0.0
C727 C 0.49071 0.85235 0.72004 0.0
C728 C 0.3972 0.7987 0.68784 0.0
H729 H 0.32937 0.8116 0.48137 0.0
H730 H 0.37773 0.81874 0.52968 0.0
H731 H 0.34361 0.77983 0.66866 0.0
H732 H 0.47777 0.762 0.7597 0.0
H733 H 0.43402 0.76349 0.71042 0.0
H734 H 0.46974 0.86096 0.63111 0.0
C735 C 0.35459 0.81718 0.54518 0.0
C736 C 0.37102 0.798 0.66034 0.0
C737 C 0.32678 0.81288 0.51753 0.0
C738 C 0.48183 0.78743 0.74873 0.0
C739 C 0.45664 0.78829 0.72083 0.0
C740 C 0.44227 0.84347 0.63984 0.0
C741 C 0.35189 0.81802 0.59235 0.0
C742 C 0.38007 0.81981 0.62203 0.0
C743 C 0.46066 0.82074 0.70636 0.0
C744 C 0.43311 0.82124 0.67777 0.0
H745 H 0.27024 0.80903 0.59951 0.0
H746 H 0.31864 0.81667 0.64738 0.0
H747 H 0.42376 0.85995 0.58299 0.0
H748 H 0.53873 0.87612 0.75867 0.0
H749 H 0.49437 0.87774 0.70965 0.0
C750 C 0.68759 0.50793 0.97094 0.0
C751 C 0.68757 0.50628 0.0183 0.0
C752 C 0.65913 0.48207 0.94616 0.0
C753 C 0.58652 0.43247 0.90444 0.0
H754 H 0.5525 0.33517 0.94001 0.0
C755 C 0.46298 0.31171 0.82616 0.0
C756 C 0.467 0.28266 0.8155 0.0
C757 C 0.48925 0.34028 0.85044 0.0
C758 C 0.56178 0.36221 0.92961 0.0
H759 H 0.65715 0.47668 0.07676 0.0
H760 H 0.60774 0.43174 0.03354 0.0
H761 H 0.59942 0.38313 0.98323 0.0
H762 H 0.50196 0.26111 0.82009 0.0
H763 H 0.54751 0.31062 0.86286 0.0
H764 H 0.549 0.41128 0.85036 0.0
C765 C 0.62988 0.45281 0.01558 0.0
C766 C 0.5884 0.38967 0.9546 0.0
C767 C 0.65817 0.47869 0.04033 0.0
C768 C 0.49791 0.28289 0.82864 0.0
C769 C 0.52396 0.3112 0.85312 0.0
C770 C 0.55962 0.40492 0.87958 0.0
C771 C 0.63023 0.45398 0.96826 0.0
C772 C 0.60121 0.42508 0.94216 0.0
C773 C 0.51981 0.34007 0.86457 0.0
C774 C 0.54724 0.36951 0.89171 0.0
H775 H 0.70976 0.52891 0.95291 0.0
H776 H 0.66022 0.4835 0.90969 0.0
H777 H 0.59573 0.45954 0.8943 0.0
H778 H 0.4394 0.31216 0.81622 0.0
H779 H 0.48533 0.36214 0.85899 0.0
loop_
_geom_bond_atom_site_label_1
_geom_bond_atom_site_label_2
_geom_bond_distance
_geom_bond_site_symmetry_2
_ccdc_geom_bond_type
La0 C2 2.928 . S
La0 O20 2.521 . S
La0 O21 2.628 . S
La0 O22 2.554 . S
La0 O23 2.757 . S
La0 O24 2.470 . S
La0 O29 2.482 . S
La0 O31 2.503 . S
La1 C11 2.928 . S
La1 O23 2.482 . S
La1 O25 2.503 . S
La1 O26 2.521 . S
La1 O27 2.628 . S
La1 O28 2.554 . S
La1 O29 2.757 . S
La1 O30 2.470 . S
C2 La0 2.928 . S
C2 C3 1.503 1_554 S
C2 O20 1.261 . S
C2 O21 1.243 . S
C3 C2 1.503 1_556 S
C3 C4 1.394 . S
C3 C8 1.373 . S
C4 C3 1.394 . S
C4 C5 1.380 . S
C4 H32 0.930 . S
C5 C4 1.380 . S
C5 C6 1.376 . S
C5 H33 0.930 . S
C6 C5 1.376 . S
C6 C7 1.370 . S
C7 C6 1.370 . S
C7 C8 1.396 . S
C7 H34 0.929 . S
C8 C3 1.373 . S
C8 C7 1.396 . S
C8 H35 0.929 . S
C9 O22 1.240 . S
C9 O23 1.289 . S
C10 O24 1.258 . S
C10 O25 1.256 . S
C11 La1 2.928 . S
C11 C12 1.503 . S
C11 O26 1.261 . S
C11 O27 1.243 . S
C12 C11 1.503 . S
C12 C13 1.394 . S
C12 C17 1.373 . S
C13 C12 1.394 . S
C13 C14 1.380 . S
C13 H36 0.930 . S
C14 C13 1.380 . S
C14 C15 1.376 . S
C14 H37 0.930 . S
C15 C14 1.376 . S
C15 C16 1.370 . S
C16 C15 1.370 . S
C16 C17 1.396 . S
C16 H38 0.929 . S
C17 C12 1.373 . S
C17 C16 1.396 . S
C17 H39 0.929 . S
C18 O28 1.240 . S
C18 O29 1.289 . S
C19 O30 1.258 . S
C19 O31 1.256 . S
O20 La0 2.521 . S
O20 C2 1.261 . S
O21 La0 2.628 . S
O21 C2 1.243 . S
O22 La0 2.554 . S
O22 C9 1.240 . S
O23 La0 2.757 . S
O23 La1 2.482 . S
O23 C9 1.289 . S
O24 La0 2.470 . S
O24 C10 1.258 . S
O25 La1 2.503 . S
O25 C10 1.256 . S
O26 La1 2.521 . S
O26 C11 1.261 . S
O27 La1 2.628 . S
O27 C11 1.243 . S
O28 La1 2.554 . S
O28 C18 1.240 . S
O29 La0 2.482 . S
O29 La1 2.757 . S
O29 C18 1.289 . S
O30 La1 2.470 . S
O30 C19 1.258 . S
O31 La0 2.503 . S
O31 C19 1.256 . S
H32 C4 0.930 . S
H33 C5 0.930 . S
H34 C7 0.929 . S
H35 C8 0.929 . S
H36 C13 0.930 . S
H37 C14 0.930 . S
H38 C16 0.929 . S
H39 C17 0.929 . S
La40 C42 2.928 . S
La40 O60 2.521 . S
La40 O61 2.628 . S
La40 O62 2.554 . S
La40 O63 2.757 . S
La40 O64 2.470 . S
La40 O69 2.482 . S
La40 O71 2.503 . S
La41 C51 2.928 . S
La41 O63 2.482 . S
La41 O65 2.503 . S
La41 O66 2.521 . S
La41 O67 2.628 . S
La41 O68 2.554 . S
La41 O69 2.757 . S
La41 O70 2.470 . S
C42 La40 2.928 . S
C42 C43 1.503 . S
C42 O60 1.261 . S
C42 O61 1.243 . S
C43 C42 1.503 . S
C43 C44 1.394 . S
C43 C48 1.373 . S
C44 C43 1.394 . S
C44 C45 1.380 . S
C44 H72 0.930 . S
C45 C44 1.380 . S
C45 C46 1.376 . S
C45 H73 0.930 . S
C46 C45 1.376 . S
C46 C47 1.370 . S
C47 C46 1.370 . S
C47 C48 1.396 . S
C47 H74 0.929 . S
C48 C43 1.373 . S
C48 C47 1.396 . S
C48 H75 0.929 . S
C49 O62 1.240 . S
C49 O63 1.289 . S
C50 O64 1.258 . S
C50 O65 1.256 . S
C51 La41 2.928 . S
C51 C52 1.503 . S
C51 O66 1.261 . S
C51 O67 1.243 . S
C52 C51 1.503 . S
C52 C53 1.394 . S
C52 C57 1.373 . S
C53 C52 1.394 . S
C53 C54 1.380 . S
C53 H76 0.930 . S
C54 C53 1.380 . S
C54 C55 1.376 . S
C54 H77 0.930 . S
C55 C54 1.376 . S
C55 C56 1.370 . S
C56 C55 1.370 . S
C56 C57 1.396 . S
C56 H78 0.929 . S
C57 C52 1.373 . S
C57 C56 1.396 . S
C57 H79 0.929 . S
C58 O68 1.240 . S
C58 O69 1.289 . S
C59 O70 1.258 . S
C59 O71 1.256 . S
O60 La40 2.521 . S
O60 C42 1.261 . S
O61 La40 2.628 . S
O61 C42 1.243 . S
O62 La40 2.554 . S
O62 C49 1.240 . S
O63 La40 2.757 . S
O63 La41 2.482 . S
O63 C49 1.289 . S
O64 La40 2.470 . S
O64 C50 1.258 . S
O65 La41 2.503 . S
O65 C50 1.256 . S
O66 La41 2.521 . S
O66 C51 1.261 . S
O67 La41 2.628 . S
O67 C51 1.243 . S
O68 La41 2.554 . S
O68 C58 1.240 . S
O69 La40 2.482 . S
O69 La41 2.757 . S
O69 C58 1.289 . S
O70 La41 2.470 . S
O70 C59 1.258 . S
O71 La40 2.503 . S
O71 C59 1.256 . S
H72 C44 0.930 . S
H73 C45 0.930 . S
H74 C47 0.929 . S
H75 C48 0.929 . S
H76 C53 0.930 . S
H77 C54 0.930 . S
H78 C56 0.929 . S
H79 C57 0.929 . S
La80 C82 2.928 . S
La80 O100 2.521 . S
La80 O101 2.628 . S
La80 O102 2.554 . S
La80 O103 2.757 . S
La80 O104 2.470 . S
La80 O109 2.482 . S
La80 O111 2.503 . S
La81 C91 2.928 1_556 S
La81 O103 2.482 . S
La81 O105 2.503 . S
La81 O106 2.521 . S
La81 O107 2.628 . S
La81 O108 2.554 . S
La81 O109 2.757 . S
La81 O110 2.470 . S
C82 La80 2.928 . S
C82 C83 1.503 . S
C82 O100 1.261 . S
C82 O101 1.243 . S
C83 C82 1.503 . S
C83 C84 1.394 . S
C83 C88 1.373 . S
C84 C83 1.394 . S
C84 C85 1.380 . S
C84 H112 0.930 . S
C85 C84 1.380 . S
C85 C86 1.376 . S
C85 H113 0.930 . S
C86 C85 1.376 . S
C86 C87 1.370 . S
C87 C86 1.370 . S
C87 C88 1.396 . S
C87 H114 0.929 . S
C88 C83 1.373 . S
C88 C87 1.396 . S
C88 H115 0.929 . S
C89 O102 1.240 . S
C89 O103 1.289 . S
C90 O104 1.258 . S
C90 O105 1.256 . S
C91 La81 2.928 1_554 S
C91 C92 1.503 . S
C91 O106 1.261 1_554 S
C91 O107 1.243 1_554 S
C92 C91 1.503 . S
C92 C93 1.394 . S
C92 C97 1.373 . S
C93 C92 1.394 . S
C93 C94 1.380 . S
C93 H116 0.930 . S
C94 C93 1.380 . S
C94 C95 1.376 . S
C94 H117 0.930 . S
C95 C94 1.376 . S
C95 C96 1.370 . S
C96 C95 1.370 . S
C96 C97 1.396 . S
C96 H118 0.929 . S
C97 C92 1.373 . S
C97 C96 1.396 . S
C97 H119 0.929 . S
C98 O108 1.240 . S
C98 O109 1.289 . S
C99 O110 1.258 . S
C99 O111 1.256 . S
O100 La80 2.521 . S
O100 C82 1.261 . S
O101 La80 2.628 . S
O101 C82 1.243 . S
O102 La80 2.554 . S
O102 C89 1.240 . S
O103 La80 2.757 . S
O103 La81 2.482 . S
O103 C89 1.289 . S
O104 La80 2.470 . S
O104 C90 1.258 . S
O105 La81 2.503 . S
O105 C90 1.256 . S
O106 La81 2.521 . S
O106 C91 1.261 1_556 S
O107 La81 2.628 . S
O107 C91 1.243 1_556 S
O108 La81 2.554 . S
O108 C98 1.240 . S
O109 La80 2.482 . S
O109 La81 2.757 . S
O109 C98 1.289 . S
O110 La81 2.470 . S
O110 C99 1.258 . S
O111 La80 2.503 . S
O111 C99 1.256 . S
H112 C84 0.930 . S
H113 C85 0.930 . S
H114 C87 0.929 . S
H115 C88 0.929 . S
H116 C93 0.930 . S
H117 C94 0.930 . S
H118 C96 0.929 . S
H119 C97 0.929 . S
La120 C122 2.928 . S
La120 O140 2.521 . S
La120 O141 2.628 . S
La120 O142 2.554 . S
La120 O143 2.757 1_554 S
La120 O144 2.470 . S
La120 O149 2.482 . S
La120 O151 2.503 . S
La121 C131 2.928 . S
La121 O143 2.482 . S
La121 O145 2.503 1_556 S
La121 O146 2.521 . S
La121 O147 2.628 . S
La121 O148 2.554 . S
La121 O149 2.757 1_556 S
La121 O150 2.470 . S
C122 La120 2.928 . S
C122 C123 1.503 . S
C122 O140 1.261 . S
C122 O141 1.243 . S
C123 C122 1.503 . S
C123 C124 1.394 . S
C123 C128 1.373 . S
C124 C123 1.394 . S
C124 C125 1.380 . S
C124 H152 0.930 . S
C125 C124 1.380 . S
C125 C126 1.376 . S
C125 H153 0.930 . S
C126 C125 1.376 . S
C126 C127 1.370 . S
C127 C126 1.370 . S
C127 C128 1.396 . S
C127 H154 0.929 . S
C128 C123 1.373 . S
C128 C127 1.396 . S
C128 H155 0.929 . S
C129 O142 1.240 . S
C129 O143 1.289 1_554 S
C130 O144 1.258 . S
C130 O145 1.256 . S
C131 La121 2.928 . S
C131 C132 1.503 . S
C131 O146 1.261 . S
C131 O147 1.243 . S
C132 C131 1.503 . S
C132 C133 1.394 . S
C132 C137 1.373 . S
C133 C132 1.394 . S
C133 C134 1.380 . S
C133 H156 0.930 . S
C134 C133 1.380 . S
C134 C135 1.376 . S
C134 H157 0.930 . S
C135 C134 1.376 . S
C135 C136 1.370 . S
C136 C135 1.370 . S
C136 C137 1.396 . S
C136 H158 0.929 . S
C137 C132 1.373 . S
C137 C136 1.396 . S
C137 H159 0.929 . S
C138 O148 1.240 1_554 S
C138 O149 1.289 . S
C139 O150 1.258 . S
C139 O151 1.256 1_556 S
O140 La120 2.521 . S
O140 C122 1.261 . S
O141 La120 2.628 . S
O141 C122 1.243 . S
O142 La120 2.554 . S
O142 C129 1.240 . S
O143 La120 2.757 1_556 S
O143 La121 2.482 . S
O143 C129 1.289 1_556 S
O144 La120 2.470 . S
O144 C130 1.258 . S
O145 La121 2.503 1_554 S
O145 C130 1.256 . S
O146 La121 2.521 . S
O146 C131 1.261 . S
O147 La121 2.628 . S
O147 C131 1.243 . S
O148 La121 2.554 . S
O148 C138 1.240 1_556 S
O149 La120 2.482 . S
O149 La121 2.757 1_554 S
O149 C138 1.289 . S
O150 La121 2.470 . S
O150 C139 1.258 . S
O151 La120 2.503 . S
O151 C139 1.256 1_554 S
H152 C124 0.930 . S
H153 C125 0.930 . S
H154 C127 0.929 . S
H155 C128 0.929 . S
H156 C133 0.930 . S
H157 C134 0.930 . S
H158 C136 0.929 . S
H159 C137 0.929 . S
La160 C162 2.928 . S
La160 O180 2.521 . S
La160 O181 2.628 . S
La160 O182 2.554 . S
La160 O183 2.757 . S
La160 O184 2.470 . S
La160 O189 2.482 . S
La160 O191 2.503 . S
La161 C171 2.928 . S
La161 O183 2.482 . S
La161 O185 2.503 . S
La161 O186 2.521 . S
La161 O187 2.628 . S
La161 O188 2.554 . S
La161 O189 2.757 . S
La161 O190 2.470 . S
C162 La160 2.928 . S
C162 C163 1.503 . S
C162 O180 1.261 . S
C162 O181 1.243 . S
C163 C162 1.503 . S
C163 C164 1.394 . S
C163 C168 1.373 . S
C164 C163 1.394 . S
C164 C165 1.380 . S
C164 H192 0.930 . S
C165 C164 1.380 . S
C165 C166 1.376 . S
C165 H193 0.930 . S
C166 C165 1.376 . S
C166 C167 1.370 . S
C167 C166 1.370 . S
C167 C168 1.396 . S
C167 H194 0.929 . S
C168 C163 1.373 . S
C168 C167 1.396 . S
C168 H195 0.929 . S
C169 O182 1.240 . S
C169 O183 1.289 . S
C170 O184 1.258 . S
C170 O185 1.256 . S
C171 La161 2.928 . S
C171 C172 1.503 . S
C171 O186 1.261 . S
C171 O187 1.243 . S
C172 C171 1.503 . S
C172 C173 1.394 . S
C172 C177 1.373 . S
C173 C172 1.394 . S
C173 C174 1.380 . S
C173 H196 0.930 . S
C174 C173 1.380 . S
C174 C175 1.376 . S
C174 H197 0.930 . S
C175 C174 1.376 . S
C175 C176 1.370 . S
C176 C175 1.370 . S
C176 C177 1.396 . S
C176 H198 0.929 . S
C177 C172 1.373 . S
C177 C176 1.396 . S
C177 H199 0.929 . S
C178 O188 1.240 . S
C178 O189 1.289 . S
C179 O190 1.258 . S
C179 O191 1.256 . S
O180 La160 2.521 . S
O180 C162 1.261 . S
O181 La160 2.628 . S
O181 C162 1.243 . S
O182 La160 2.554 . S
O182 C169 1.240 . S
O183 La160 2.757 . S
O183 La161 2.482 . S
O183 C169 1.289 . S
O184 La160 2.470 . S
O184 C170 1.258 . S
O185 La161 2.503 . S
O185 C170 1.256 . S
O186 La161 2.521 . S
O186 C171 1.261 . S
O187 La161 2.628 . S
O187 C171 1.243 . S
O188 La161 2.554 . S
O188 C178 1.240 . S
O189 La160 2.482 . S
O189 La161 2.757 . S
O189 C178 1.289 . S
O190 La161 2.470 . S
O190 C179 1.258 . S
O191 La160 2.503 . S
O191 C179 1.256 . S
H192 C164 0.930 . S
H193 C165 0.930 . S
H194 C167 0.929 . S
H195 C168 0.929 . S
H196 C173 0.930 . S
H197 C174 0.930 . S
H198 C176 0.929 . S
H199 C177 0.929 . S
La200 C202 2.928 . S
La200 O220 2.521 . S
La200 O221 2.628 . S
La200 O222 2.554 . S
La200 O223 2.757 . S
La200 O224 2.470 . S
La200 O229 2.482 . S
La200 O231 2.503 . S
La201 C211 2.928 . S
La201 O223 2.482 . S
La201 O225 2.503 . S
La201 O226 2.521 . S
La201 O227 2.628 . S
La201 O228 2.554 . S
La201 O229 2.757 . S
La201 O230 2.470 . S
C202 La200 2.928 . S
C202 C203 1.503 . S
C202 O220 1.261 . S
C202 O221 1.243 . S
C203 C202 1.503 . S
C203 C204 1.394 . S
C203 C208 1.373 . S
C204 C203 1.394 . S
C204 C205 1.380 . S
C204 H232 0.930 . S
C205 C204 1.380 . S
C205 C206 1.376 . S
C205 H233 0.930 . S
C206 C205 1.376 . S
C206 C207 1.370 . S
C207 C206 1.370 . S
C207 C208 1.396 . S
C207 H234 0.929 . S
C208 C203 1.373 . S
C208 C207 1.396 . S
C208 H235 0.929 . S
C209 O222 1.240 . S
C209 O223 1.289 . S
C210 O224 1.258 . S
C210 O225 1.256 . S
C211 La201 2.928 . S
C211 C212 1.503 . S
C211 O226 1.261 . S
C211 O227 1.243 . S
C212 C211 1.503 . S
C212 C213 1.394 . S
C212 C217 1.373 . S
C213 C212 1.394 . S
C213 C214 1.380 . S
C213 H236 0.930 . S
C214 C213 1.380 . S
C214 C215 1.376 . S
C214 H237 0.930 . S
C215 C214 1.376 . S
C215 C216 1.370 . S
C216 C215 1.370 . S
C216 C217 1.396 . S
C216 H238 0.929 . S
C217 C212 1.373 . S
C217 C216 1.396 . S
C217 H239 0.929 . S
C218 O228 1.240 . S
C218 O229 1.289 . S
C219 O230 1.258 . S
C219 O231 1.256 . S
O220 La200 2.521 . S
O220 C202 1.261 . S
O221 La200 2.628 . S
O221 C202 1.243 . S
O222 La200 2.554 . S
O222 C209 1.240 . S
O223 La200 2.757 . S
O223 La201 2.482 . S
O223 C209 1.289 . S
O224 La200 2.470 . S
O224 C210 1.258 . S
O225 La201 2.503 . S
O225 C210 1.256 . S
O226 La201 2.521 . S
O226 C211 1.261 . S
O227 La201 2.628 . S
O227 C211 1.243 . S
O228 La201 2.554 . S
O228 C218 1.240 . S
O229 La200 2.482 . S
O229 La201 2.757 . S
O229 C218 1.289 . S
O230 La201 2.470 . S
O230 C219 1.258 . S
O231 La200 2.503 . S
O231 C219 1.256 . S
H232 C204 0.930 . S
H233 C205 0.930 . S
H234 C207 0.929 . S
H235 C208 0.929 . S
H236 C213 0.930 . S
H237 C214 0.930 . S
H238 C216 0.929 . S
H239 C217 0.929 . S
C240 C241 1.349 . S
C240 C242 1.327 . S
C240 H265 0.950 . S
C241 C240 1.349 . S
C241 C257 1.349 . S
C242 C240 1.327 . S
C242 C261 1.429 . S
C242 H266 0.950 . S
C243 C260 1.574 . S
C243 C262 1.368 . S
C243 H267 0.949 . S
H244 C248 0.949 1_554 S
C245 C246 1.349 . S
C245 C247 1.327 . S
C245 H268 0.950 . S
C246 C245 1.349 . S
C246 C258 1.349 . S
C247 C245 1.327 . S
C247 C263 1.429 . S
C247 H269 0.950 1_554 S
C248 H244 0.949 1_556 S
C248 C256 1.574 . S
C248 C264 1.368 . S
H249 C257 0.950 . S
H250 C255 0.950 . S
H251 C256 0.949 . S
H252 C258 0.950 . S
H253 C259 0.950 . S
H254 C260 0.949 . S
C255 H250 0.950 . S
C255 C257 1.327 . S
C255 C261 1.429 . S
C256 C248 1.574 . S
C256 H251 0.949 . S
C256 C262 1.368 . S
C257 C241 1.349 . S
C257 H249 0.950 . S
C257 C255 1.327 . S
C258 C246 1.349 . S
C258 H252 0.950 . S
C258 C259 1.327 . S
C259 H253 0.950 . S
C259 C258 1.327 . S
C259 C263 1.429 . S
C260 C243 1.574 . S
C260 H254 0.949 . S
C260 C264 1.368 . S
C261 C242 1.429 . S
C261 C255 1.429 . S
C261 C262 1.523 . S
C262 C243 1.368 . S
C262 C256 1.368 . S
C262 C261 1.523 . S
C263 C247 1.429 . S
C263 C259 1.429 . S
C263 C264 1.523 1_554 S
C264 C248 1.368 . S
C264 C260 1.368 . S
C264 C263 1.523 1_556 S
H265 C240 0.950 . S
H266 C242 0.950 . S
H267 C243 0.949 . S
H268 C245 0.950 . S
H269 C247 0.950 1_556 S
C270 C271 1.349 . S
C270 C272 1.327 . S
C270 H295 0.950 . S
C271 C270 1.349 . S
C271 C287 1.349 . S
C272 C270 1.327 . S
C272 C291 1.429 . S
C272 H296 0.950 . S
C273 C290 1.574 1_455 S
C273 C292 1.368 . S
C273 H297 0.949 . S
H274 C278 0.949 . S
C275 C276 1.349 . S
C275 C277 1.327 . S
C275 H298 0.950 . S
C276 C275 1.349 . S
C276 C288 1.349 . S
C277 C275 1.327 . S
C277 C293 1.429 . S
C277 H299 0.950 . S
C278 H274 0.949 . S
C278 C286 1.574 1_655 S
C278 C294 1.368 . S
H279 C287 0.950 . S
H280 C285 0.950 . S
H281 C286 0.949 . S
H282 C288 0.950 . S
H283 C289 0.950 . S
H284 C290 0.949 . S
C285 H280 0.950 . S
C285 C287 1.327 . S
C285 C291 1.429 . S
C286 C278 1.574 1_455 S
C286 H281 0.949 . S
C286 C292 1.368 . S
C287 C271 1.349 . S
C287 H279 0.950 . S
C287 C285 1.327 . S
C288 C276 1.349 . S
C288 H282 0.950 . S
C288 C289 1.327 . S
C289 H283 0.950 . S
C289 C288 1.327 . S
C289 C293 1.429 . S
C290 C273 1.574 1_655 S
C290 H284 0.949 . S
C290 C294 1.368 . S
C291 C272 1.429 . S
C291 C285 1.429 . S
C291 C292 1.523 . S
C292 C273 1.368 . S
C292 C286 1.368 . S
C292 C291 1.523 . S
C293 C277 1.429 . S
C293 C289 1.429 . S
C293 C294 1.523 . S
C294 C278 1.368 . S
C294 C290 1.368 . S
C294 C293 1.523 . S
H295 C270 0.950 . S
H296 C272 0.950 . S
H297 C273 0.949 . S
H298 C275 0.950 . S
H299 C277 0.950 . S
C300 C301 1.349 . S
C300 C302 1.327 . S
C300 H325 0.950 . S
C301 C300 1.349 . S
C301 C317 1.349 . S
C302 C300 1.327 . S
C302 C321 1.429 . S
C302 H326 0.950 . S
C303 C320 1.574 1_545 S
C303 C322 1.368 . S
C303 H327 0.949 . S
H304 C308 0.949 . S
C305 C306 1.349 . S
C305 C307 1.327 . S
C305 H328 0.950 . S
C306 C305 1.349 . S
C306 C318 1.349 . S
C307 C305 1.327 . S
C307 C323 1.429 . S
C307 H329 0.950 . S
C308 H304 0.949 . S
C308 C316 1.574 1_565 S
C308 C324 1.368 . S
H309 C317 0.950 . S
H310 C315 0.950 . S
H311 C316 0.949 . S
H312 C318 0.950 . S
H313 C319 0.950 . S
H314 C320 0.949 . S
C315 H310 0.950 . S
C315 C317 1.327 . S
C315 C321 1.429 . S
C316 C308 1.574 1_545 S
C316 H311 0.949 . S
C316 C322 1.368 . S
C317 C301 1.349 . S
C317 H309 0.950 . S
C317 C315 1.327 . S
C318 C306 1.349 . S
C318 H312 0.950 . S
C318 C319 1.327 . S
C319 H313 0.950 . S
C319 C318 1.327 . S
C319 C323 1.429 . S
C320 C303 1.574 1_565 S
C320 H314 0.949 . S
C320 C324 1.368 . S
C321 C302 1.429 . S
C321 C315 1.429 . S
C321 C322 1.523 . S
C322 C303 1.368 . S
C322 C316 1.368 . S
C322 C321 1.523 . S
C323 C307 1.429 . S
C323 C319 1.429 . S
C323 C324 1.523 . S
C324 C308 1.368 . S
C324 C320 1.368 . S
C324 C323 1.523 . S
H325 C300 0.950 . S
H326 C302 0.950 . S
H327 C303 0.949 . S
H328 C305 0.950 . S
H329 C307 0.950 . S
C330 C331 1.349 . S
C330 C332 1.327 . S
C330 H355 0.950 . S
C331 C330 1.349 . S
C331 C347 1.349 . S
C332 C330 1.327 . S
C332 C351 1.429 . S
C332 H356 0.950 . S
C333 C350 1.574 . S
C333 C352 1.368 . S
C333 H357 0.949 . S
H334 C338 0.949 1_554 S
C335 C336 1.349 . S
C335 C337 1.327 . S
C335 H358 0.950 . S
C336 C335 1.349 . S
C336 C348 1.349 1_556 S
C337 C335 1.327 . S
C337 C353 1.429 . S
C337 H359 0.950 . S
C338 H334 0.949 1_556 S
C338 C346 1.574 . S
C338 C354 1.368 . S
H339 C347 0.950 . S
H340 C345 0.950 . S
H341 C346 0.949 . S
H342 C348 0.950 . S
H343 C349 0.954 . S
H344 C350 0.949 . S
C345 H340 0.950 . S
C345 C347 1.327 . S
C345 C351 1.429 . S
C346 C338 1.574 . S
C346 H341 0.949 . S
C346 C352 1.368 . S
C347 C331 1.349 . S
C347 H339 0.950 . S
C347 C345 1.327 . S
C348 C336 1.349 1_554 S
C348 H342 0.950 . S
C348 C349 1.329 . S
C349 H343 0.954 . S
C349 C348 1.329 . S
C349 C353 1.422 1_554 S
C350 C333 1.574 . S
C350 H344 0.949 . S
C350 C354 1.368 . S
C351 C332 1.429 . S
C351 C345 1.429 . S
C351 C352 1.523 . S
C352 C333 1.368 . S
C352 C346 1.368 . S
C352 C351 1.523 . S
C353 C337 1.429 . S
C353 C349 1.422 1_556 S
C353 C354 1.523 . S
C354 C338 1.368 . S
C354 C350 1.368 . S
C354 C353 1.523 . S
H355 C330 0.950 . S
H356 C332 0.950 . S
H357 C333 0.949 . S
H358 C335 0.950 . S
H359 C337 0.950 . S
C360 C361 1.349 . S
C360 C362 1.327 . S
C360 H385 0.950 . S
C361 C360 1.349 . S
C361 C377 1.349 . S
C362 C360 1.327 . S
C362 C381 1.429 . S
C362 H386 0.950 . S
C363 C380 1.574 . S
C363 C382 1.368 1_655 S
C363 H387 0.949 . S
H364 C368 0.949 . S
C365 C366 1.349 . S
C365 C367 1.327 . S
C365 H388 0.950 . S
C366 C365 1.349 . S
C366 C378 1.349 . S
C367 C365 1.327 . S
C367 C383 1.429 . S
C367 H389 0.950 . S
C368 H364 0.949 . S
C368 C376 1.574 . S
C368 C384 1.368 1_455 S
H369 C377 0.950 . S
H370 C375 0.950 1_655 S
H371 C376 0.949 . S
H372 C378 0.950 . S
H373 C379 0.950 1_455 S
H374 C380 0.949 . S
C375 H370 0.950 1_455 S
C375 C377 1.327 . S
C375 C381 1.429 . S
C376 C368 1.574 . S
C376 H371 0.949 . S
C376 C382 1.368 . S
C377 C361 1.349 . S
C377 H369 0.950 . S
C377 C375 1.327 . S
C378 C366 1.349 . S
C378 H372 0.950 . S
C378 C379 1.327 . S
C379 H373 0.950 1_655 S
C379 C378 1.327 . S
C379 C383 1.429 . S
C380 C363 1.574 . S
C380 H374 0.949 . S
C380 C384 1.368 . S
C381 C362 1.429 . S
C381 C375 1.429 . S
C381 C382 1.523 . S
C382 C363 1.368 1_455 S
C382 C376 1.368 . S
C382 C381 1.523 . S
C383 C367 1.429 . S
C383 C379 1.429 . S
C383 C384 1.523 . S
C384 C368 1.368 1_655 S
C384 C380 1.368 . S
C384 C383 1.523 . S
H385 C360 0.950 . S
H386 C362 0.950 . S
H387 C363 0.949 . S
H388 C365 0.950 . S
H389 C367 0.950 . S
C390 C391 1.349 . S
C390 C392 1.327 . S
C390 H415 0.950 . S
C391 C390 1.349 . S
C391 C407 1.349 . S
C392 C390 1.327 . S
C392 C411 1.429 . S
C392 H416 0.950 . S
C393 C410 1.574 1_545 S
C393 C412 1.368 . S
C393 H417 0.949 . S
H394 C398 0.949 . S
C395 C396 1.349 . S
C395 C397 1.327 . S
C395 H418 0.950 . S
C396 C395 1.349 . S
C396 C408 1.349 . S
C397 C395 1.327 . S
C397 C413 1.429 . S
C397 H419 0.950 . S
C398 H394 0.949 . S
C398 C406 1.574 1_565 S
C398 C414 1.368 . S
H399 C407 0.950 . S
H400 C405 0.950 . S
H401 C406 0.949 . S
H402 C408 0.950 . S
H403 C409 0.950 . S
H404 C410 0.949 . S
C405 H400 0.950 . S
C405 C407 1.327 . S
C405 C411 1.429 . S
C406 C398 1.574 1_545 S
C406 H401 0.949 . S
C406 C412 1.368 . S
C407 C391 1.349 . S
C407 H399 0.950 . S
C407 C405 1.327 . S
C408 C396 1.349 . S
C408 H402 0.950 . S
C408 C409 1.327 . S
C409 H403 0.950 . S
C409 C408 1.327 . S
C409 C413 1.429 . S
C410 C393 1.574 1_565 S
C410 H404 0.949 . S
C410 C414 1.368 . S
C411 C392 1.429 . S
C411 C405 1.429 . S
C411 C412 1.523 . S
C412 C393 1.368 . S
C412 C406 1.368 . S
C412 C411 1.523 . S
C413 C397 1.429 . S
C413 C409 1.429 . S
C413 C414 1.523 . S
C414 C398 1.368 . S
C414 C410 1.368 . S
C414 C413 1.523 . S
H415 C390 0.950 . S
H416 C392 0.950 . S
H417 C393 0.949 . S
H418 C395 0.950 . S
H419 C397 0.950 . S
C420 C421 1.349 . S
C420 C422 1.327 . S
C420 H445 0.950 . S
C421 C420 1.349 . S
C421 C437 1.349 . S
C422 C420 1.327 . S
C422 C441 1.429 . S
C422 H446 0.950 . S
C423 C440 1.574 . S
C423 C442 1.368 . S
C423 H447 0.949 . S
H424 C428 0.949 . S
C425 C426 1.349 . S
C425 C427 1.327 . S
C425 H448 0.950 . S
C426 C425 1.349 . S
C426 C438 1.349 . S
C427 C425 1.327 . S
C427 C443 1.429 . S
C427 H449 0.950 . S
C428 H424 0.949 . S
C428 C436 1.574 . S
C428 C444 1.368 . S
H429 C437 0.950 . S
H430 C435 0.950 . S
H431 C436 0.949 . S
H432 C438 0.950 . S
H433 C439 0.950 . S
H434 C440 0.949 . S
C435 H430 0.950 . S
C435 C437 1.327 . S
C435 C441 1.429 . S
C436 C428 1.574 . S
C436 H431 0.949 . S
C436 C442 1.368 . S
C437 C421 1.349 . S
C437 H429 0.950 . S
C437 C435 1.327 . S
C438 C426 1.349 . S
C438 H432 0.950 . S
C438 C439 1.327 . S
C439 H433 0.950 . S
C439 C438 1.327 . S
C439 C443 1.429 . S
C440 C423 1.574 . S
C440 H434 0.949 . S
C440 C444 1.368 . S
C441 C422 1.429 . S
C441 C435 1.429 . S
C441 C442 1.523 . S
C442 C423 1.368 . S
C442 C436 1.368 . S
C442 C441 1.523 . S
C443 C427 1.429 . S
C443 C439 1.429 . S
C443 C444 1.523 . S
C444 C428 1.368 . S
C444 C440 1.368 . S
C444 C443 1.523 . S
H445 C420 0.950 . S
H446 C422 0.950 . S
H447 C423 0.949 . S
H448 C425 0.950 . S
H449 C427 0.950 . S
C450 C451 1.349 . S
C450 C452 1.327 1_554 S
C450 H475 0.950 . S
C451 C450 1.349 . S
C451 C467 1.349 . S
C452 C450 1.327 1_556 S
C452 C471 1.429 . S
C452 H476 0.950 . S
C453 C470 1.574 . S
C453 C472 1.368 . S
C453 H477 0.949 . S
H454 C458 0.949 . S
C455 C456 1.349 . S
C455 C457 1.327 . S
C455 H478 0.950 . S
C456 C455 1.349 . S
C456 C468 1.349 . S
C457 C455 1.327 . S
C457 C473 1.429 . S
C457 H479 0.950 . S
C458 H454 0.949 . S
C458 C466 1.574 . S
C458 C474 1.368 . S
H459 C467 0.950 . S
H460 C465 0.950 . S
H461 C466 0.949 . S
H462 C468 0.950 . S
H463 C469 0.950 . S
H464 C470 0.949 . S
C465 H460 0.950 . S
C465 C467 1.327 1_556 S
C465 C471 1.429 . S
C466 C458 1.574 . S
C466 H461 0.949 . S
C466 C472 1.368 . S
C467 C451 1.349 . S
C467 H459 0.950 . S
C467 C465 1.327 1_554 S
C468 C456 1.349 . S
C468 H462 0.950 . S
C468 C469 1.327 . S
C469 H463 0.950 . S
C469 C468 1.327 . S
C469 C473 1.429 . S
C470 C453 1.574 . S
C470 H464 0.949 . S
C470 C474 1.368 . S
C471 C452 1.429 . S
C471 C465 1.429 . S
C471 C472 1.523 . S
C472 C453 1.368 . S
C472 C466 1.368 . S
C472 C471 1.523 . S
C473 C457 1.429 . S
C473 C469 1.429 . S
C473 C474 1.523 . S
C474 C458 1.368 . S
C474 C470 1.368 . S
C474 C473 1.523 . S
H475 C450 0.950 . S
H476 C452 0.950 . S
H477 C453 0.949 . S
H478 C455 0.950 . S
H479 C457 0.950 . S
C480 C481 1.349 . S
C480 C482 1.327 . S
C480 H505 0.950 . S
C481 C480 1.349 . S
C481 C497 1.349 . S
C482 C480 1.327 . S
C482 C501 1.429 . S
C482 H506 0.950 . S
C483 C500 1.574 . S
C483 C502 1.368 . S
C483 H507 0.949 . S
H484 C488 0.949 . S
C485 C486 1.349 . S
C485 C487 1.327 . S
C485 H508 0.950 . S
C486 C485 1.349 . S
C486 C498 1.349 . S
C487 C485 1.327 . S
C487 C503 1.429 . S
C487 H509 0.950 . S
C488 H484 0.949 . S
C488 C496 1.574 . S
C488 C504 1.368 . S
H489 C497 0.950 . S
H490 C495 0.950 . S
H491 C496 0.949 . S
H492 C498 0.950 . S
H493 C499 0.950 . S
H494 C500 0.949 . S
C495 H490 0.950 . S
C495 C497 1.327 . S
C495 C501 1.429 . S
C496 C488 1.574 . S
C496 H491 0.949 . S
C496 C502 1.368 . S
C497 C481 1.349 . S
C497 H489 0.950 . S
C497 C495 1.327 . S
C498 C486 1.349 . S
C498 H492 0.950 . S
C498 C499 1.327 . S
C499 H493 0.950 . S
C499 C498 1.327 . S
C499 C503 1.429 . S
C500 C483 1.574 . S
C500 H494 0.949 . S
C500 C504 1.368 . S
C501 C482 1.429 . S
C501 C495 1.429 . S
C501 C502 1.523 . S
C502 C483 1.368 . S
C502 C496 1.368 . S
C502 C501 1.523 . S
C503 C487 1.429 . S
C503 C499 1.429 . S
C503 C504 1.523 . S
C504 C488 1.368 . S
C504 C500 1.368 . S
C504 C503 1.523 . S
H505 C480 0.950 . S
H506 C482 0.950 . S
H507 C483 0.949 . S
H508 C485 0.950 . S
H509 C487 0.950 . S
C510 C511 1.349 . S
C510 C512 1.327 . S
C510 H535 0.950 . S
C511 C510 1.349 . S
C511 C527 1.349 . S
C512 C510 1.327 . S
C512 C531 1.429 . S
C512 H536 0.950 . S
C513 C530 1.574 . S
C513 C532 1.368 . S
C513 H537 0.949 . S
H514 C518 0.949 . S
C515 C516 1.349 . S
C515 C517 1.327 . S
C515 H538 0.950 . S
C516 C515 1.349 . S
C516 C528 1.349 . S
C517 C515 1.327 . S
C517 C533 1.429 . S
C517 H539 0.950 . S
C518 H514 0.949 . S
C518 C526 1.574 . S
C518 C534 1.368 . S
H519 C527 0.950 . S
H520 C525 0.950 . S
H521 C526 0.949 . S
H522 C528 0.950 . S
H523 C529 0.950 . S
H524 C530 0.949 . S
C525 H520 0.950 . S
C525 C527 1.327 . S
C525 C531 1.429 . S
C526 C518 1.574 . S
C526 H521 0.949 . S
C526 C532 1.368 . S
C527 C511 1.349 . S
C527 H519 0.950 . S
C527 C525 1.327 . S
C528 C516 1.349 . S
C528 H522 0.950 . S
C528 C529 1.327 . S
C529 H523 0.950 . S
C529 C528 1.327 . S
C529 C533 1.429 . S
C530 C513 1.574 . S
C530 H524 0.949 . S
C530 C534 1.368 . S
C531 C512 1.429 . S
C531 C525 1.429 . S
C531 C532 1.523 . S
C532 C513 1.368 . S
C532 C526 1.368 . S
C532 C531 1.523 . S
C533 C517 1.429 . S
C533 C529 1.429 . S
C533 C534 1.523 . S
C534 C518 1.368 . S
C534 C530 1.368 . S
C534 C533 1.523 . S
H535 C510 0.950 . S
H536 C512 0.950 . S
H537 C513 0.949 . S
H538 C515 0.950 . S
H539 C517 0.950 . S
C540 C541 1.349 . S
C540 C542 1.327 . S
C540 H565 0.950 . S
C541 C540 1.349 . S
C541 C557 1.349 . S
C542 C540 1.327 . S
C542 C561 1.429 . S
C542 H566 0.950 . S
C543 C560 1.574 1_556 S
C543 C562 1.368 . S
C543 H567 0.949 . S
H544 C548 0.949 . S
C545 C546 1.349 . S
C545 C547 1.327 . S
C545 H568 0.950 . S
C546 C545 1.349 . S
C546 C558 1.349 . S
C547 C545 1.327 . S
C547 C563 1.429 . S
C547 H569 0.950 . S
C548 H544 0.949 . S
C548 C556 1.574 . S
C548 C564 1.368 . S
H549 C557 0.950 . S
H550 C555 0.950 . S
H551 C556 0.959 . S
H552 C558 0.950 . S
H553 C559 0.950 . S
H554 C560 0.949 . S
C555 H550 0.950 . S
C555 C557 1.327 . S
C555 C561 1.429 . S
C556 C548 1.574 . S
C556 H551 0.959 . S
C556 C562 1.368 1_554 S
C557 C541 1.349 . S
C557 H549 0.950 . S
C557 C555 1.327 . S
C558 C546 1.349 . S
C558 H552 0.950 . S
C558 C559 1.327 . S
C559 H553 0.950 . S
C559 C558 1.327 . S
C559 C563 1.429 . S
C560 C543 1.574 1_554 S
C560 H554 0.949 . S
C560 C564 1.368 . S
C561 C542 1.429 . S
C561 C555 1.429 . S
C561 C562 1.523 . S
C562 C543 1.368 . S
C562 C556 1.368 1_556 S
C562 C561 1.523 . S
C563 C547 1.429 . S
C563 C559 1.429 . S
C563 C564 1.523 . S
C564 C548 1.368 . S
C564 C560 1.368 . S
C564 C563 1.523 . S
H565 C540 0.950 . S
H566 C542 0.950 . S
H567 C543 0.949 . S
H568 C545 0.950 . S
H569 C547 0.950 . S
C570 C571 1.349 . S
C570 C572 1.327 . S
C570 H595 0.950 . S
C571 C570 1.349 . S
C571 C587 1.349 . S
C572 C570 1.327 . S
C572 C591 1.429 . S
C572 H596 0.950 . S
C573 C590 1.574 . S
C573 C592 1.368 . S
C573 H597 0.949 . S
H574 C578 0.949 . S
C575 C576 1.349 . S
C575 C577 1.327 . S
C575 H598 0.950 . S
C576 C575 1.349 . S
C576 C588 1.349 . S
C577 C575 1.327 . S
C577 C593 1.429 . S
C577 H599 0.950 . S
C578 H574 0.949 . S
C578 C586 1.574 . S
C578 C594 1.368 . S
H579 C587 0.950 . S
H580 C585 0.950 . S
H581 C586 0.949 . S
H582 C588 0.950 1_556 S
H583 C589 0.950 . S
H584 C590 0.949 . S
C585 H580 0.950 . S
C585 C587 1.327 . S
C585 C591 1.429 . S
C586 C578 1.574 . S
C586 H581 0.949 . S
C586 C592 1.368 . S
C587 C571 1.349 . S
C587 H579 0.950 . S
C587 C585 1.327 . S
C588 C576 1.349 . S
C588 H582 0.950 1_554 S
C588 C589 1.327 . S
C589 H583 0.950 . S
C589 C588 1.327 . S
C589 C593 1.429 . S
C590 C573 1.574 . S
C590 H584 0.949 . S
C590 C594 1.368 . S
C591 C572 1.429 . S
C591 C585 1.429 . S
C591 C592 1.523 . S
C592 C573 1.368 . S
C592 C586 1.368 . S
C592 C591 1.523 . S
C593 C577 1.429 . S
C593 C589 1.429 . S
C593 C594 1.523 . S
C594 C578 1.368 . S
C594 C590 1.368 . S
C594 C593 1.523 . S
H595 C570 0.950 . S
H596 C572 0.950 . S
H597 C573 0.949 . S
H598 C575 0.950 . S
H599 C577 0.950 . S
C600 C601 1.349 . S
C600 C602 1.327 . S
C600 H625 0.950 . S
C601 C600 1.349 . S
C601 C617 1.349 . S
C602 C600 1.327 . S
C602 C621 1.429 . S
C602 H626 0.950 . S
C603 C620 1.574 . S
C603 C622 1.368 . S
C603 H627 0.949 . S
H604 C608 0.949 . S
C605 C606 1.349 . S
C605 C607 1.327 . S
C605 H628 0.950 . S
C606 C605 1.349 . S
C606 C618 1.349 . S
C607 C605 1.327 . S
C607 C623 1.429 . S
C607 H629 0.950 . S
C608 H604 0.949 . S
C608 C616 1.574 . S
C608 C624 1.368 . S
H609 C617 0.950 . S
H610 C615 0.950 . S
H611 C616 0.949 . S
H612 C618 0.950 . S
H613 C619 0.950 . S
H614 C620 0.949 . S
C615 H610 0.950 . S
C615 C617 1.327 . S
C615 C621 1.429 . S
C616 C608 1.574 . S
C616 H611 0.949 . S
C616 C622 1.368 . S
C617 C601 1.349 . S
C617 H609 0.950 . S
C617 C615 1.327 . S
C618 C606 1.349 . S
C618 H612 0.950 . S
C618 C619 1.327 . S
C619 H613 0.950 . S
C619 C618 1.327 . S
C619 C623 1.429 . S
C620 C603 1.574 . S
C620 H614 0.949 . S
C620 C624 1.368 . S
C621 C602 1.429 . S
C621 C615 1.429 . S
C621 C622 1.523 . S
C622 C603 1.368 . S
C622 C616 1.368 . S
C622 C621 1.523 . S
C623 C607 1.429 . S
C623 C619 1.429 . S
C623 C624 1.523 . S
C624 C608 1.368 . S
C624 C620 1.368 . S
C624 C623 1.523 . S
H625 C600 0.950 . S
H626 C602 0.950 . S
H627 C603 0.949 . S
H628 C605 0.950 . S
H629 C607 0.950 . S
C630 C631 1.349 . S
C630 C632 1.327 . S
C630 H655 0.950 . S
C631 C630 1.349 . S
C631 C647 1.349 . S
C632 C630 1.327 . S
C632 C651 1.429 . S
C632 H656 0.950 . S
C633 C650 1.574 . S
C633 C652 1.368 . S
C633 H657 0.949 . S
H634 C638 0.949 . S
C635 C636 1.349 . S
C635 C637 1.327 . S
C635 H658 0.950 . S
C636 C635 1.349 . S
C636 C648 1.349 . S
C637 C635 1.327 . S
C637 C653 1.429 . S
C637 H659 0.950 . S
C638 H634 0.949 . S
C638 C646 1.574 . S
C638 C654 1.368 . S
H639 C647 0.950 . S
H640 C645 0.950 . S
H641 C646 0.949 . S
H642 C648 0.950 . S
H643 C649 0.950 . S
H644 C650 0.949 . S
C645 H640 0.950 . S
C645 C647 1.327 . S
C645 C651 1.429 . S
C646 C638 1.574 . S
C646 H641 0.949 . S
C646 C652 1.368 . S
C647 C631 1.349 . S
C647 H639 0.950 . S
C647 C645 1.327 . S
C648 C636 1.349 . S
C648 H642 0.950 . S
C648 C649 1.327 . S
C649 H643 0.950 . S
C649 C648 1.327 . S
C649 C653 1.429 . S
C650 C633 1.574 . S
C650 H644 0.949 . S
C650 C654 1.368 . S
C651 C632 1.429 . S
C651 C645 1.429 . S
C651 C652 1.523 . S
C652 C633 1.368 . S
C652 C646 1.368 . S
C652 C651 1.523 . S
C653 C637 1.429 . S
C653 C649 1.429 . S
C653 C654 1.523 . S
C654 C638 1.368 . S
C654 C650 1.368 . S
C654 C653 1.523 . S
H655 C630 0.950 . S
H656 C632 0.950 . S
H657 C633 0.949 . S
H658 C635 0.950 . S
H659 C637 0.950 . S
C660 C661 1.349 . S
C660 C662 1.327 . S
C660 H685 0.950 . S
C661 C660 1.349 . S
C661 C677 1.349 . S
C662 C660 1.327 . S
C662 C681 1.429 . S
C662 H686 0.950 . S
C663 C680 1.574 . S
C663 C682 1.368 . S
C663 H687 0.949 . S
H664 C668 0.949 1_556 S
C665 C666 1.349 . S
C665 C667 1.327 1_556 S
C665 H688 0.950 1_556 S
C666 C665 1.349 . S
C666 C678 1.349 . S
C667 C665 1.327 1_554 S
C667 C683 1.434 . S
C667 H689 0.950 . S
C668 H664 0.949 1_554 S
C668 C676 1.574 . S
C668 C684 1.368 . S
H669 C677 0.950 . S
H670 C675 0.950 . S
H671 C676 0.949 . S
H672 C678 0.950 . S
H673 C679 0.950 . S
H674 C680 0.949 . S
C675 H670 0.950 . S
C675 C677 1.327 . S
C675 C681 1.429 . S
C676 C668 1.574 . S
C676 H671 0.949 . S
C676 C682 1.368 . S
C677 C661 1.349 . S
C677 H669 0.950 . S
C677 C675 1.327 . S
C678 C666 1.349 . S
C678 H672 0.950 . S
C678 C679 1.327 . S
C679 H673 0.950 . S
C679 C678 1.327 . S
C679 C683 1.415 1_556 S
C680 C663 1.574 . S
C680 H674 0.949 . S
C680 C684 1.368 . S
C681 C662 1.429 . S
C681 C675 1.429 . S
C681 C682 1.523 . S
C682 C663 1.368 . S
C682 C676 1.368 . S
C682 C681 1.523 . S
C683 C667 1.434 . S
C683 C679 1.415 1_554 S
C683 C684 1.531 . S
C684 C668 1.368 . S
C684 C680 1.368 . S
C684 C683 1.531 . S
H685 C660 0.950 . S
H686 C662 0.950 . S
H687 C663 0.949 . S
H688 C665 0.950 1_554 S
H689 C667 0.950 . S
C690 C691 1.349 . S
C690 C692 1.327 . S
C690 H715 0.950 . S
C691 C690 1.349 . S
C691 C707 1.349 . S
C692 C690 1.327 . S
C692 C711 1.429 . S
C692 H716 0.950 . S
C693 C710 1.574 . S
C693 C712 1.368 . S
C693 H717 0.949 . S
H694 C698 0.949 . S
C695 C696 1.349 . S
C695 C697 1.327 . S
C695 H718 0.950 . S
C696 C695 1.349 . S
C696 C708 1.349 . S
C697 C695 1.327 . S
C697 C713 1.429 . S
C697 H719 0.950 . S
C698 H694 0.949 . S
C698 C706 1.574 . S
C698 C714 1.368 . S
H699 C707 0.950 . S
H700 C705 0.950 . S
H701 C706 0.949 . S
H702 C708 0.950 . S
H703 C709 0.950 . S
H704 C710 0.949 . S
C705 H700 0.950 . S
C705 C707 1.327 . S
C705 C711 1.429 . S
C706 C698 1.574 . S
C706 H701 0.949 . S
C706 C712 1.368 . S
C707 C691 1.349 . S
C707 H699 0.950 . S
C707 C705 1.327 . S
C708 C696 1.349 . S
C708 H702 0.950 . S
C708 C709 1.327 . S
C709 H703 0.950 . S
C709 C708 1.327 . S
C709 C713 1.429 . S
C710 C693 1.574 . S
C710 H704 0.949 . S
C710 C714 1.368 . S
C711 C692 1.429 . S
C711 C705 1.429 . S
C711 C712 1.523 . S
C712 C693 1.368 . S
C712 C706 1.368 . S
C712 C711 1.523 . S
C713 C697 1.429 . S
C713 C709 1.429 . S
C713 C714 1.523 . S
C714 C698 1.368 . S
C714 C710 1.368 . S
C714 C713 1.523 . S
H715 C690 0.950 . S
H716 C692 0.950 . S
H717 C693 0.949 . S
H718 C695 0.950 . S
H719 C697 0.950 . S
C720 C721 1.349 . S
C720 C722 1.327 . S
C720 H745 0.950 . S
C721 C720 1.349 . S
C721 C737 1.349 . S
C722 C720 1.327 . S
C722 C741 1.429 . S
C722 H746 0.950 . S
C723 C740 1.574 . S
C723 C742 1.368 . S
C723 H747 0.949 . S
H724 C728 0.949 . S
C725 C726 1.349 . S
C725 C727 1.327 . S
C725 H748 0.950 . S
C726 C725 1.349 . S
C726 C738 1.349 . S
C727 C725 1.327 . S
C727 C743 1.429 . S
C727 H749 0.950 . S
C728 H724 0.949 . S
C728 C736 1.574 . S
C728 C744 1.368 . S
H729 C737 0.950 . S
H730 C735 0.950 . S
H731 C736 0.949 . S
H732 C738 0.950 . S
H733 C739 0.950 . S
H734 C740 0.949 . S
C735 H730 0.950 . S
C735 C737 1.327 . S
C735 C741 1.429 . S
C736 C728 1.574 . S
C736 H731 0.949 . S
C736 C742 1.368 . S
C737 C721 1.349 . S
C737 H729 0.950 . S
C737 C735 1.327 . S
C738 C726 1.349 . S
C738 H732 0.950 . S
C738 C739 1.327 . S
C739 H733 0.950 . S
C739 C738 1.327 . S
C739 C743 1.429 . S
C740 C723 1.574 . S
C740 H734 0.949 . S
C740 C744 1.368 . S
C741 C722 1.429 . S
C741 C735 1.429 . S
C741 C742 1.523 . S
C742 C723 1.368 . S
C742 C736 1.368 . S
C742 C741 1.523 . S
C743 C727 1.429 . S
C743 C739 1.429 . S
C743 C744 1.523 . S
C744 C728 1.368 . S
C744 C740 1.368 . S
C744 C743 1.523 . S
H745 C720 0.950 . S
H746 C722 0.950 . S
H747 C723 0.949 . S
H748 C725 0.950 . S
H749 C727 0.950 . S
C750 C751 1.349 . S
C750 C752 1.327 . S
C750 H775 0.950 . S
C751 C750 1.349 . S
C751 C767 1.349 . S
C752 C750 1.327 . S
C752 C771 1.429 . S
C752 H776 0.950 . S
C753 C770 1.574 . S
C753 C772 1.368 . S
C753 H777 0.949 . S
H754 C758 0.949 . S
C755 C756 1.349 . S
C755 C757 1.327 . S
C755 H778 0.950 . S
C756 C755 1.349 . S
C756 C768 1.349 . S
C757 C755 1.327 . S
C757 C773 1.429 . S
C757 H779 0.950 . S
C758 H754 0.949 . S
C758 C766 1.574 . S
C758 C774 1.368 . S
H759 C767 0.950 . S
H760 C765 0.950 . S
H761 C766 0.949 . S
H762 C768 0.950 . S
H763 C769 0.950 . S
H764 C770 0.949 . S
C765 H760 0.950 . S
C765 C767 1.327 . S
C765 C771 1.429 . S
C766 C758 1.574 . S
C766 H761 0.949 . S
C766 C772 1.368 . S
C767 C751 1.349 . S
C767 H759 0.950 . S
C767 C765 1.327 . S
C768 C756 1.349 . S
C768 H762 0.950 . S
C768 C769 1.327 . S
C769 H763 0.950 . S
C769 C768 1.327 . S
C769 C773 1.429 . S
C770 C753 1.574 . S
C770 H764 0.949 . S
C770 C774 1.368 . S
C771 C752 1.429 . S
C771 C765 1.429 . S
C771 C772 1.523 . S
C772 C753 1.368 . S
C772 C766 1.368 . S
C772 C771 1.523 . S
C773 C757 1.429 . S
C773 C769 1.429 . S
C773 C774 1.523 . S
C774 C758 1.368 . S
C774 C770 1.368 . S
C774 C773 1.523 . S
H775 C750 0.950 . S
H776 C752 0.950 . S
H777 C753 0.949 . S
H778 C755 0.950 . S
H779 C757 0.950 . S
C241 C210 1.664 . S
C246 C10 1.664 . S
C271 C9 1.376 . S
C276 C49 1.376 . S
C301 C50 1.663 . S
C306 C90 1.663 . S
C331 C89 1.376 . S
C336 C129 1.376 1_556 S
C361 C170 1.664 . S
C366 C130 1.664 . S
C391 C209 1.375 . S
C396 C169 1.375 . S
C421 C6 1.051 . S
C426 C15 1.051 . S
C451 C55 1.051 . S
C456 C46 1.051 . S
C481 C86 1.051 . S
C486 C95 1.051 . S
C511 C135 1.051 . S
C516 C126 1.051 . S
C541 C175 1.051 . S
C546 C166 1.051 . S
C571 C215 1.051 . S
C576 C206 1.051 1_554 S
C601 C19 1.770 . S
C606 C178 1.798 . S
C631 C58 1.798 . S
C636 C219 1.770 . S
C661 C18 1.798 . S
C666 C99 1.770 . S
C691 C59 1.770 . S
C696 C138 1.798 . S
C721 C179 1.769 . S
C726 C98 1.798 . S
C751 C139 1.770 . S
C756 C218 1.798 . S
