# Generated by pormake.
# Topology ecf, (8)-cn, num edge types: 1
# Building blocks:
#     Node 0, Type 0, BuildingBlock: TAGTUT_clean_sbu_1, # of connection points: 8
#     Node 1, Type 0, BuildingBlock: TAGTUT_clean_sbu_1, # of connection points: 8
#     Node 2, Type 0, BuildingBlock: TAGTUT_clean_sbu_1, # of connection points: 8
#     Node 3, Type 0, BuildingBlock: TAGTUT_clean_sbu_1, # of connection points: 8
#     Node 4, Type 0, BuildingBlock: TAGTUT_clean_sbu_1, # of connection points: 8
#     Node 5, Type 0, BuildingBlock: TAGTUT_clean_sbu_1, # of connection points: 8
#     Edge 6, Type (0, 0), BuildingBlock: EZIPEK_clean_linker_0, # of connection points: 2
#     Edge 7, Type (0, 0), BuildingBlock: EZIPEK_clean_linker_0, # of connection points: 2
#     Edge 8, Type (0, 0), BuildingBlock: EZIPEK_clean_linker_0, # of connection points: 2
#     Edge 9, Type (0, 0), BuildingBlock: EZIPEK_clean_linker_0, # of connection points: 2
#     Edge 10, Type (0, 0), BuildingBlock: EZIPEK_clean_linker_0, # of connection points: 2
#     Edge 11, Type (0, 0), BuildingBlock: EZIPEK_clean_linker_0, # of connection points: 2
#     Edge 12, Type (0, 0), BuildingBlock: EZIPEK_clean_linker_0, # of connection points: 2
#     Edge 13, Type (0, 0), BuildingBlock: EZIPEK_clean_linker_0, # of connection points: 2
#     Edge 14, Type (0, 0), BuildingBlock: EZIPEK_clean_linker_0, # of connection points: 2
#     Edge 15, Type (0, 0), BuildingBlock: EZIPEK_clean_linker_0, # of connection points: 2
#     Edge 16, Type (0, 0), BuildingBlock: EZIPEK_clean_linker_0, # of connection points: 2
#     Edge 17, Type (0, 0), BuildingBlock: EZIPEK_clean_linker_0, # of connection points: 2
#     Edge 18, Type (0, 0), BuildingBlock: EZIPEK_clean_linker_0, # of connection points: 2
#     Edge 19, Type (0, 0), BuildingBlock: EZIPEK_clean_linker_0, # of connection points: 2
#     Edge 20, Type (0, 0), BuildingBlock: EZIPEK_clean_linker_0, # of connection points: 2
#     Edge 21, Type (0, 0), BuildingBlock: EZIPEK_clean_linker_0, # of connection points: 2
#     Edge 22, Type (0, 0), BuildingBlock: EZIPEK_clean_linker_0, # of connection points: 2
#     Edge 23, Type (0, 0), BuildingBlock: EZIPEK_clean_linker_0, # of connection points: 2
#     Edge 24, Type (0, 0), BuildingBlock: EZIPEK_clean_linker_0, # of connection points: 2
#     Edge 25, Type (0, 0), BuildingBlock: EZIPEK_clean_linker_0, # of connection points: 2
#     Edge 26, Type (0, 0), BuildingBlock: EZIPEK_clean_linker_0, # of connection points: 2
#     Edge 27, Type (0, 0), BuildingBlock: EZIPEK_clean_linker_0, # of connection points: 2
#     Edge 28, Type (0, 0), BuildingBlock: EZIPEK_clean_linker_0, # of connection points: 2
#     Edge 29, Type (0, 0), BuildingBlock: EZIPEK_clean_linker_0, # of connection points: 2
# Relax obj value: 0.213
# Max RMSD: 0.210
# Mean RMSD: 0.189
data_MOF--net-ecf--node1-TAGTUT_clean_sbu_1--edge1-EZIPEK_clean_linker_0
_symmetry_space_group_name_H-M    P1
_symmetry_Int_Tables_number       1
_symmetry_cell_setting            triclinic
loop_
_symmetry_equiv_pos_as_xyz
'x, y, z'
_cell_length_a     26.219141
_cell_length_b     26.966147
_cell_length_c     20.862086
_cell_angle_alpha  97.39438
_cell_angle_beta   91.716773
_cell_angle_gamma 120.13536
loop_
_atom_site_label
_atom_site_type_symbol
_atom_site_fract_x
_atom_site_fract_y
_atom_site_fract_z
_atom_type_partial_charge
C0 C 0.95888 0.13184 0.1714 0.0
C1 C 0.04648 0.29241 0.1113 0.0
C2 C 0.25009 0.29341 0.13566 0.0
Mg3 Mg 0.03655 0.25686 0.24148 0.0
O4 O 0.0936 0.23472 0.23524 0.0
Mg5 Mg 0.10253 0.20867 0.14465 0.0
Mg6 Mg 0.17355 0.30276 0.26142 0.0
O7 O 0.2524 0.37172 0.28783 0.0
Mg8 Mg 0.32183 0.36919 0.27571 0.0
Mg9 Mg 0.24184 0.40205 0.3766 0.0
C10 C 0.097 0.30709 0.38604 0.0
C11 C 0.15752 0.41526 0.27281 0.0
O12 O 0.00357 0.13376 0.14492 0.0
O13 O 0.96293 0.17504 0.20912 0.0
O14 O 0.06546 0.25759 0.09702 0.0
O15 O 0.03948 0.30697 0.16918 0.0
O16 O 0.05156 0.28611 0.34437 0.0
O17 O 0.14777 0.31507 0.36934 0.0
C18 C 0.18138 0.18844 0.24849 0.0
O19 O 0.20061 0.23878 0.28223 0.0
O20 O 0.14359 0.16773 0.19768 0.0
O21 O 0.33088 0.48697 0.365 0.0
O22 O 0.37837 0.46071 0.29195 0.0
O23 O 0.29214 0.36387 0.42708 0.0
C24 C 0.37295 0.4995 0.32822 0.0
O25 O 0.34124 0.33823 0.35732 0.0
O26 O 0.2979 0.32092 0.17554 0.0
C27 C 0.32547 0.34256 0.41408 0.0
O28 O 0.20073 0.28731 0.1553 0.0
O29 O 0.145 0.36695 0.23838 0.0
O30 O 0.19241 0.43641 0.32545 0.0
C31 C 0.85415 0.36472 0.6755 0.0
C32 C 0.95485 0.28262 0.59598 0.0
C33 C 0.75192 0.08192 0.64206 0.0
Mg34 Mg 0.93452 0.32456 0.73095 0.0
O35 O 0.8591 0.25702 0.72649 0.0
Mg36 Mg 0.81008 0.22206 0.64097 0.0
Mg37 Mg 0.85209 0.18554 0.7503 0.0
O38 O 0.84637 0.11501 0.77647 0.0
Mg39 Mg 0.77026 0.05557 0.78299 0.0
Mg40 Mg 0.90362 0.14843 0.85668 0.0
C41 C 0.95045 0.28897 0.86555 0.0
C42 C 0.97484 0.18969 0.7294 0.0
O43 O 0.81922 0.31262 0.64553 0.0
O44 O 0.9031 0.38026 0.70884 0.0
O45 O 0.89774 0.25117 0.58279 0.0
O46 O 0.97885 0.31162 0.65244 0.0
O47 O 0.96662 0.32914 0.83048 0.0
O48 O 0.90819 0.23643 0.84597 0.0
C49 C 0.72356 0.17533 0.75988 0.0
O50 O 0.76336 0.16874 0.78851 0.0
O51 O 0.73087 0.19447 0.70537 0.0
O52 O 0.8899 0.05449 0.85019 0.0
O53 O 0.79748 -0.00348 0.79798 0.0
O54 O 0.83028 0.12123 0.92847 0.0
C55 C 0.8457 0.00401 0.8253 0.0
O56 O 0.7399 0.06685 0.87393 0.0
O57 O 0.73306 0.04921 0.68583 0.0
C58 C 0.77384 0.08929 0.92725 0.0
O59 O 0.79941 0.1325 0.65285 0.0
O60 O 0.93618 0.20085 0.70845 0.0
O61 O 0.97228 0.17035 0.78289 0.0
C62 C 0.46184 0.85686 0.17972 0.0
C63 C 0.64169 0.95416 0.12074 0.0
C64 C 0.643 0.76038 0.15048 0.0
Mg65 Mg 0.58921 0.93517 0.25065 0.0
O66 O 0.58091 0.86179 0.24135 0.0
Mg67 Mg 0.55938 0.81521 0.15203 0.0
Mg68 Mg 0.64532 0.84952 0.27286 0.0
O69 O 0.70803 0.83528 0.30272 0.0
Mg70 Mg 0.68552 0.75646 0.29198 0.0
Mg71 Mg 0.73049 0.87972 0.39267 0.0
C72 C 0.6428 0.93815 0.39384 0.0
C73 C 0.77173 0.96797 0.28652 0.0
O74 O 0.47745 0.82442 0.14633 0.0
O75 O 0.49786 0.9021 0.22092 0.0
O76 O 0.61447 0.89862 0.10413 0.0
O77 O 0.64106 0.97822 0.17715 0.0
O78 O 0.62422 0.95948 0.35347 0.0
O79 O 0.65024 0.895 0.37443 0.0
C80 C 0.52332 0.72664 0.25911 0.0
O81 O 0.57269 0.76247 0.29323 0.0
O82 O 0.50866 0.73695 0.20531 0.0
O83 O 0.80656 0.85983 0.39206 0.0
O84 O 0.77203 0.77542 0.32217 0.0
O85 O 0.68252 0.79543 0.43946 0.0
C86 C 0.81229 0.81814 0.36275 0.0
O87 O 0.63398 0.71408 0.36645 0.0
O88 O 0.65697 0.73391 0.1881 0.0
C89 C 0.65172 0.73987 0.4252 0.0
O90 O 0.64058 0.80566 0.17158 0.0
O91 O 0.72155 0.935 0.25212 0.0
O92 O 0.78236 0.9581 0.3422 0.0
C93 C -0.01687 0.76943 0.67475 0.0
C94 C 0.86269 0.59428 0.59063 0.0
C95 C 0.68729 0.64076 0.6416 0.0
Mg96 Mg 0.90965 0.65946 0.72813 0.0
O97 O 0.86133 0.69278 0.72729 0.0
Mg98 Mg 0.83575 0.70218 0.64174 0.0
Mg99 Mg 0.78366 0.64647 0.75609 0.0
O100 O 0.70716 0.59571 0.78434 0.0
Mg101 Mg 0.63681 0.5952 0.77067 0.0
Mg102 Mg 0.73149 0.58059 0.86761 0.0
C103 C 0.87756 0.6547 0.87399 0.0
C104 C 0.76919 0.51896 0.75227 0.0
O105 O 0.9352 0.76249 0.64663 0.0
O106 O -0.01487 0.73194 0.70453 0.0
O107 O 0.84473 0.6298 0.58515 0.0
O108 O 0.8838 0.59259 0.64561 0.0
O109 O 0.91078 0.65307 0.83069 0.0
O110 O 0.82881 0.65368 0.85858 0.0
C111 C 0.81232 0.77754 0.75577 0.0
O112 O 0.7878 0.73488 0.78766 0.0
O113 O 0.83205 0.77281 0.70174 0.0
O114 O 0.63612 0.5013 0.85839 0.0
O115 O 0.58026 0.50757 0.77888 0.0
O116 O 0.70317 0.64147 0.92135 0.0
C117 C 0.58897 0.47971 0.81861 0.0
O118 O 0.64198 0.65217 0.8539 0.0
O119 O 0.64425 0.62105 0.67668 0.0
C120 C 0.67022 0.66247 0.9094 0.0
O121 O 0.73668 0.64279 0.65727 0.0
O122 O 0.78269 0.56092 0.72088 0.0
O123 O 0.75497 0.52188 0.80968 0.0
C124 C 0.19254 -0.00937 0.21846 0.0
C125 C 0.22176 0.87106 0.10085 0.0
C126 C 0.00742 0.70234 0.1267 0.0
Mg127 Mg 0.22234 0.90042 0.24601 0.0
O128 O 0.14016 0.86277 0.24618 0.0
Mg129 Mg 0.09487 0.85013 0.16192 0.0
Mg130 Mg 0.11 0.78292 0.25867 0.0
O131 O 0.08397 0.70351 0.26853 0.0
Mg132 Mg 0.01387 0.63467 0.23713 0.0
Mg133 Mg 0.13167 0.71401 0.34908 0.0
C134 C 0.21327 0.86062 0.38361 0.0
C135 C 0.22416 0.76898 0.24527 0.0
O136 O 0.14285 0.95072 0.18625 0.0
O137 O 0.23078 -0.01883 0.24432 0.0
O138 O 0.1684 0.86077 0.09638 0.0
O139 O 0.24972 0.88056 0.15607 0.0
O140 O 0.24417 0.88944 0.3409 0.0
O141 O 0.16014 0.81583 0.36609 0.0
C142 C 0.01478 0.81925 0.28428 0.0
O143 O 0.03316 0.78624 0.2999 0.0
O144 O 0.02916 0.8423 0.23282 0.0
O145 O 0.11177 0.62001 0.31732 0.0
O146 O 0.04779 0.57824 0.22575 0.0
O147 O 0.04383 0.67673 0.39941 0.0
C148 C 0.08488 0.57956 0.26787 0.0
O149 O 0.96811 0.61845 0.32111 0.0
O150 O -0.01427 0.65539 0.151 0.0
C151 C -0.01144 0.63948 0.38077 0.0
O152 O 0.05443 0.74987 0.15499 0.0
O153 O 0.19189 0.78623 0.22064 0.0
O154 O 0.20958 0.74136 0.29292 0.0
C155 C 0.15907 0.17568 0.64269 0.0
C156 C 0.3402 0.2427 0.62312 0.0
C157 C 0.29549 0.02029 0.63158 0.0
Mg158 Mg 0.26693 0.21439 0.74122 0.0
O159 O 0.2416 0.13546 0.71979 0.0
Mg160 Mg 0.23455 0.1041 0.62534 0.0
Mg161 Mg 0.2965 0.11308 0.75496 0.0
O162 O 0.35525 0.09521 0.78986 0.0
Mg163 Mg 0.36373 0.03072 0.76662 0.0
Mg164 Mg 0.38044 0.13867 0.88094 0.0
C165 C 0.2839 0.19077 0.88706 0.0
C166 C 0.41998 0.23826 0.79138 0.0
O167 O 0.16849 0.13756 0.61052 0.0
O168 O 0.19081 0.20816 0.69539 0.0
O169 O 0.30754 0.18865 0.60016 0.0
O170 O 0.33565 0.26304 0.68019 0.0
O171 O 0.27213 0.21763 0.84784 0.0
O172 O 0.29408 0.14926 0.86573 0.0
C173 C 0.16526 0.00504 0.71099 0.0
O174 O 0.21046 0.0256 0.75408 0.0
O175 O 0.16822 0.02758 0.66017 0.0
O176 O 0.47012 0.13494 0.87547 0.0
O177 O 0.45779 0.0732 0.78464 0.0
O178 O 0.33133 0.04875 0.91706 0.0
C179 C 0.49083 0.11249 0.83276 0.0
O180 O 0.32491 0.97878 0.84024 0.0
O181 O 0.31924 0.00104 0.66842 0.0
C182 C 0.31632 -0.00439 0.89675 0.0
O183 O 0.2973 0.06939 0.64981 0.0
O184 O 0.37631 0.20359 0.74861 0.0
O185 O 0.42867 0.22338 0.84408 0.0
C186 C 0.16563 0.49886 0.22605 0.0
C187 C 0.13063 0.44839 0.25356 0.0
C188 C 0.06241 0.48182 0.28462 0.0
C189 C 0.0981 0.53281 0.25865 0.0
N190 N 0.17592 0.58646 0.19341 0.0
N191 N 0.03813 0.38408 0.29188 0.0
C192 C 0.14722 0.54014 0.22537 0.0
C193 C 0.07641 0.4374 0.27722 0.0
N194 N 0.21743 0.508 0.20303 0.0
N195 N 0.01662 0.47693 0.31851 0.0
H196 H 0.04699 0.35068 0.2839 0.0
H197 H -0.00442 0.37112 0.30432 0.0
H198 H 0.00369 0.50793 0.32294 0.0
H199 H -0.00622 0.44413 0.34582 0.0
H200 H 0.24889 0.54689 0.18941 0.0
H201 H 0.22984 0.47661 0.19955 0.0
H202 H 0.2088 0.59177 0.16356 0.0
H203 H 0.16404 0.61804 0.19321 0.0
C204 C 0.59504 0.19141 0.81996 0.0
C205 C 0.55597 0.1349 0.8339 0.0
C206 C 0.62913 0.10621 0.80636 0.0
C207 C 0.66812 0.1624 0.79122 0.0
N208 N 0.69474 0.26255 0.80074 0.0
N209 N 0.54311 0.04536 0.85951 0.0
C210 C 0.65304 0.20628 0.80358 0.0
C211 C 0.57574 0.09471 0.83355 0.0
N212 N 0.57585 0.23002 0.81913 0.0
N213 N 0.64071 0.06243 0.79062 0.0
H214 H 0.50418 0.03647 0.88011 0.0
H215 H 0.55769 0.0168 0.86684 0.0
H216 H 0.67847 0.06862 0.76974 0.0
H217 H 0.61078 0.0191 0.79344 0.0
H218 H 0.59962 0.26953 0.80265 0.0
H219 H 0.53457 0.2216 0.83211 0.0
H220 H 0.68867 0.29743 0.81465 0.0
H221 H 0.73773 0.27495 0.79029 0.0
C222 C 0.44062 0.60878 0.3636 0.0
C223 C 0.40833 0.55954 0.31411 0.0
C224 C 0.45773 0.61873 0.23201 0.0
C225 C 0.48421 0.66962 0.27954 0.0
N226 N 0.48971 0.71377 0.39022 0.0
N227 N 0.37069 0.5246 0.1999 0.0
C228 C 0.47261 0.66505 0.34552 0.0
C229 C 0.41183 0.56672 0.24788 0.0
N230 N 0.44246 0.60198 0.42717 0.0
N231 N 0.47887 0.61856 0.17306 0.0
H232 H 0.33336 0.48715 0.20946 0.0
H233 H 0.37002 0.53063 0.15153 0.0
H234 H 0.51793 0.65371 0.16285 0.0
H235 H 0.46276 0.58084 0.13874 0.0
H236 H 0.47031 0.63603 0.46431 0.0
H237 H 0.42006 0.56139 0.44183 0.0
H238 H 0.47767 0.71213 0.43739 0.0
H239 H 0.5103 0.75545 0.37837 0.0
C240 C 0.81148 0.40598 0.75507 0.0
C241 C 0.82745 0.40091 0.69102 0.0
C242 C 0.78365 0.45721 0.65947 0.0
C243 C 0.77544 0.46827 0.72559 0.0
N244 N 0.74422 0.42054 0.81941 0.0
N245 N 0.82555 0.41709 0.58037 0.0
C246 C 0.77838 0.43323 0.76891 0.0
C247 C 0.81168 0.42439 0.64216 0.0
N248 N 0.82666 0.38389 0.80285 0.0
N249 N 0.75948 0.47313 0.61315 0.0
H250 H 0.8461 0.39334 0.56685 0.0
H251 H 0.82024 0.43722 0.54351 0.0
H252 H 0.73306 0.49113 0.62438 0.0
H253 H 0.75953 0.46268 0.56342 0.0
H254 H 0.82409 0.39486 0.85194 0.0
H255 H 0.84389 0.35653 0.79479 0.0
H256 H 0.74469 0.39527 0.85288 0.0
H257 H 0.70822 0.42694 0.8216 0.0
C258 C 0.29358 0.78614 0.15819 0.0
C259 C 0.28379 0.78808 0.22506 0.0
C260 C 0.38665 0.81834 0.25511 0.0
C261 C 0.39935 0.82918 0.19136 0.0
N262 N 0.36584 0.82251 0.08025 0.0
N263 N 0.32719 0.82052 0.33838 0.0
C264 C 0.35302 0.81237 0.14186 0.0
C265 C 0.3319 0.808 0.27396 0.0
N266 N 0.2466 0.75771 0.1108 0.0
N267 N 0.42629 0.81643 0.29747 0.0
H268 H 0.28987 0.81898 0.35601 0.0
H269 H 0.36354 0.8399 0.37389 0.0
H270 H 0.46628 0.82068 0.2846 0.0
H271 H 0.41594 0.80333 0.34257 0.0
H272 H 0.25122 0.75126 0.06153 0.0
H273 H 0.20265 0.73568 0.12108 0.0
H274 H 0.3345 0.81641 0.04348 0.0
H275 H 0.40904 0.84121 0.06738 0.0
C276 C 0.51155 0.31796 0.75619 0.0
C277 C 0.45828 0.29977 0.78504 0.0
C278 C 0.49356 0.39868 0.8401 0.0
C279 C 0.54638 0.41748 0.81072 0.0
N280 N 0.6038 0.39901 0.73282 0.0
N281 N 0.39079 0.32494 0.83313 0.0
C282 C 0.55492 0.37827 0.76612 0.0
C283 C 0.44711 0.34085 0.82105 0.0
N284 N 0.52042 0.27749 0.72006 0.0
N285 N 0.48791 0.43593 0.88635 0.0
H286 H 0.35608 0.28514 0.81043 0.0
H287 H 0.37818 0.35332 0.85555 0.0
H288 H 0.52135 0.47923 0.90096 0.0
H289 H 0.4523 0.42254 0.91414 0.0
H290 H 0.56026 0.28673 0.70197 0.0
H291 H 0.48773 0.23352 0.70985 0.0
H292 H 0.61038 0.37381 0.69569 0.0
H293 H 0.63696 0.44278 0.74003 0.0
C294 C 0.17275 0.1097 0.30278 0.0
C295 C 0.20505 0.1528 0.26499 0.0
C296 C 0.23913 0.09386 0.20495 0.0
C297 C 0.20165 0.04824 0.2378 0.0
N298 N 0.15268 0.01886 0.33411 0.0
N299 N 0.28678 0.19719 0.20241 0.0
C300 C 0.17502 0.05819 0.29242 0.0
C301 C 0.24478 0.14864 0.22372 0.0
N302 N 0.1373 0.11681 0.34512 0.0
N303 N 0.26714 0.08417 0.15484 0.0
H304 H 0.29245 0.2378 0.22001 0.0
H305 H 0.31933 0.19826 0.17427 0.0
H306 H 0.26443 0.04425 0.14089 0.0
H307 H 0.29041 0.11461 0.12503 0.0
H308 H 0.10677 0.08381 0.36828 0.0
H309 H 0.13744 0.15584 0.35505 0.0
H310 H 0.13731 0.02646 0.3776 0.0
H311 H 0.15384 -0.01957 0.32775 0.0
C312 C 0.00321 0.13393 0.64873 0.0
C313 C 0.01663 0.18825 0.68471 0.0
C314 C 0.11238 0.23488 0.64238 0.0
C315 C 0.10608 0.17949 0.62537 0.0
N316 N 0.04045 0.07691 0.59007 0.0
N317 N 0.07946 0.29247 0.70765 0.0
C318 C 0.04927 0.12908 0.61998 0.0
C319 C 0.06933 0.23979 0.67769 0.0
N320 N 0.94636 0.08792 0.64134 0.0
N321 N 0.16136 0.28224 0.62733 0.0
H322 H 0.04802 0.29688 0.73324 0.0
H323 H 0.11953 0.33124 0.70935 0.0
H324 H 0.19298 0.27776 0.60193 0.0
H325 H 0.1677 0.32398 0.63455 0.0
H326 H 0.93216 0.04819 0.61181 0.0
H327 H 0.91193 0.09132 0.661 0.0
H328 H 0.00266 0.03704 0.59191 0.0
H329 H 0.07115 0.07394 0.56169 0.0
C330 C 0.85104 0.0798 0.1766 0.0
C331 C 0.90315 0.07655 0.17193 0.0
C332 C 0.87454 0.01183 0.25111 0.0
C333 C 0.82085 0.01268 0.25571 0.0
N334 N 0.76228 0.05482 0.23073 0.0
N335 N 0.94895 0.01983 0.18077 0.0
C336 C 0.80962 0.04801 0.21945 0.0
C337 C 0.909 0.03525 0.20048 0.0
N338 N 0.84364 0.11565 0.14163 0.0
N339 N 0.89638 -0.00586 0.29771 0.0
H340 H 0.97187 0.03384 0.14065 0.0
H341 H 0.95314 -0.01238 0.19863 0.0
H342 H 0.87681 -0.01942 0.33945 0.0
H343 H 0.93912 0.00065 0.29906 0.0
H344 H 0.8075 0.12172 0.14153 0.0
H345 H 0.87367 0.13747 0.10922 0.0
H346 H 0.75095 0.08015 0.2071 0.0
H347 H 0.73548 0.03698 0.26717 0.0
C348 C 0.85742 0.92357 0.86095 0.0
C349 C 0.85269 0.95296 0.8117 0.0
C350 C 0.81343 0.86551 0.73151 0.0
C351 C 0.8206 0.83557 0.77914 0.0
N352 N 0.86877 0.84376 0.8841 0.0
N353 N 0.84983 0.95843 0.69765 0.0
C354 C 0.84788 0.8665 0.84286 0.0
C355 C 0.83896 0.92595 0.74611 0.0
N356 N 0.87081 0.94975 0.92437 0.0
N357 N 0.78111 0.83636 0.67257 0.0
H358 H 0.8694 0.00353 0.70758 0.0
H359 H 0.84566 0.94138 0.64872 0.0
H360 H 0.76032 0.79151 0.65937 0.0
H361 H 0.77021 0.85627 0.63937 0.0
H362 H 0.86794 0.92775 0.96295 0.0
H363 H 0.883 -0.00685 0.93777 0.0
H364 H 0.89384 0.86707 0.92856 0.0
H365 H 0.86611 0.80388 0.87121 0.0
C366 C 0.90388 0.86168 0.31142 0.0
C367 C 0.87186 0.82841 0.35825 0.0
C368 C 0.94685 0.80142 0.37582 0.0
C369 C 0.97569 0.83216 0.32482 0.0
N370 N 0.00163 0.92041 0.28265 0.0
N371 N 0.86445 0.77309 0.44272 0.0
C372 C 0.96089 0.87194 0.30532 0.0
C373 C 0.89415 0.80051 0.39358 0.0
N374 N 0.87855 0.87953 0.26866 0.0
N375 N 0.97097 0.77608 0.40865 0.0
H376 H 0.82662 0.77341 0.45636 0.0
H377 H 0.87745 0.75159 0.4712 0.0
H378 H 0.01462 0.78599 0.40618 0.0
H379 H 0.95013 0.74911 0.4424 0.0
H380 H 0.89892 0.89656 0.22824 0.0
H381 H 0.83584 0.87289 0.26997 0.0
H382 H -0.00764 0.95173 0.27114 0.0
H383 H 0.04626 0.93272 0.28417 0.0
C384 C 0.07147 0.92172 0.6536 0.0
C385 C 0.11014 0.94917 0.71214 0.0
C386 C 0.05649 0.85805 0.75357 0.0
C387 C 0.03311 0.82901 0.68781 0.0
N388 N 0.02615 0.83529 0.57355 0.0
N389 N 0.12844 0.9468 0.82519 0.0
C390 C 0.044 0.86157 0.63706 0.0
C391 C 0.10019 0.91819 0.76454 0.0
N392 N 0.05707 0.95214 0.61673 0.0
N393 N 0.03311 0.8306 0.80527 0.0
H394 H 0.15075 -0.00802 0.83737 0.0
H395 H 0.12827 0.92585 0.8638 0.0
H396 H -0.00324 0.78873 0.80115 0.0
H397 H 0.04521 0.85151 0.85341 0.0
H398 H 0.0263 0.9321 0.57532 0.0
H399 H 0.0686 -0.00496 0.63339 0.0
H400 H 0.03642 0.8591 0.53538 0.0
H401 H 0.00697 0.79047 0.55935 0.0
C402 C 0.31363 0.29096 0.04544 0.0
C403 C 0.25613 0.2672 0.06802 0.0
C404 C 0.2199 0.18446 0.97691 0.0
C405 C 0.27787 0.2067 0.9574 0.0
N406 N 0.38171 0.27591 0.98042 0.0
N407 N 0.15227 0.20758 0.03085 0.0
C408 C 0.32517 0.25821 0.99435 0.0
C409 C 0.20832 0.21758 0.02784 0.0
N410 N 0.35531 0.34808 0.06687 0.0
N411 N 0.17536 0.13167 0.94556 0.0
H412 H 0.14539 0.24017 0.05303 0.0
H413 H 0.11524 0.17392 1.00121 0.0
H414 H 0.18275 0.10706 0.90819 0.0
H415 H 0.13323 0.11002 0.9609 0.0
H416 H 0.39607 0.3697 0.04856 0.0
H417 H 0.34572 0.37642 0.09549 0.0
H418 H 0.41929 0.30985 0.00908 0.0
H419 H 0.39078 0.25215 0.9439 0.0
C420 C 0.00823 0.24634 0.52105 0.0
C421 C -0.00385 0.29087 0.54442 0.0
C422 C 0.0707 0.35563 0.47826 0.0
C423 C 0.08234 0.31097 0.45463 0.0
N424 N 0.07345 0.21961 0.46505 0.0
N425 N 0.02217 0.39121 0.55253 0.0
C426 C 0.05493 0.25838 0.48048 0.0
C427 C 0.02985 0.34671 0.52567 0.0
N428 N 0.97376 0.19196 0.53584 0.0
N429 N 0.09645 0.40554 0.45208 0.0
H430 H -0.01085 0.38553 0.5825 0.0
H431 H 0.05 0.43439 0.54741 0.0
H432 H 0.12924 0.41424 0.42091 0.0
H433 H 0.08429 0.43695 0.45912 0.0
H434 H 0.97584 0.15589 0.51507 0.0
H435 H 0.93989 0.18191 0.56579 0.0
H436 H 0.05926 0.18224 0.48565 0.0
H437 H 0.10766 0.22817 0.43584 0.0
C438 C 0.66286 0.03139 0.05165 0.0
C439 C 0.67781 -0.00774 0.07451 0.0
C440 C 0.76541 0.02949 0.01451 0.0
C441 C 0.74743 0.0647 0.98629 0.0
N442 N 0.67959 0.09954 0.97739 0.0
N443 N 0.74126 0.9516 0.07631 0.0
C444 C 0.69649 0.06604 1.00526 0.0
C445 C 0.72857 -0.00917 0.05567 0.0
N446 N 0.61607 0.03497 0.07392 0.0
N447 N 0.81836 0.03338 1.00348 0.0
H448 H 0.71951 0.9265 0.11145 0.0
H449 H 0.77139 0.94135 0.05632 0.0
H450 H 0.84615 0.05719 0.97104 0.0
H451 H 0.83797 0.01657 0.031 0.0
H452 H 0.60656 0.06681 0.0655 0.0
H453 H 0.58748 0.00718 0.1035 0.0
H454 H 0.63919 0.09748 0.98186 0.0
H455 H 0.70578 0.12878 0.94753 0.0
C456 C 0.65239 0.70106 0.5929 0.0
C457 C 0.67859 0.66547 0.58494 0.0
C458 C 0.68257 0.67432 0.46956 0.0
C459 C 0.65259 0.70647 0.47657 0.0
N460 N 0.59743 0.73867 0.54167 0.0
N461 N 0.70182 0.60497 0.5112 0.0
C462 C 0.63368 0.71585 0.5373 0.0
C463 C 0.68886 0.64829 0.52204 0.0
N464 N 0.64822 0.72356 0.65386 0.0
N465 N 0.70826 0.67089 0.41441 0.0
H466 H 0.70605 0.58392 0.54778 0.0
H467 H 0.70183 0.58569 0.46461 0.0
H468 H 0.70516 0.68789 0.3736 0.0
H469 H 0.73715 0.65491 0.41121 0.0
H470 H 0.63464 0.75384 0.66251 0.0
H471 H 0.66589 0.71847 0.69627 0.0
H472 H 0.57695 0.74108 0.58301 0.0
H473 H 0.58298 0.74968 0.50158 0.0
C474 C 0.90826 0.70884 0.99199 0.0
C475 C 0.90179 0.66303 0.94332 0.0
C476 C 0.97495 0.65484 0.01065 0.0
C477 C 0.9775 0.69657 0.06162 0.0
N478 N 0.93352 0.75127 0.10642 0.0
N479 N 0.91577 0.58122 0.91757 0.0
C480 C 0.94045 0.72027 0.05395 0.0
C481 C 0.93111 0.6326 0.95634 0.0
N482 N 0.88603 0.74314 0.97911 0.0
N483 N 0.01513 0.63682 0.01367 0.0
H484 H 0.88156 0.5621 0.87943 0.0
H485 H 0.93202 0.55457 0.92792 0.0
H486 H 0.04882 0.65316 0.052 0.0
H487 H 0.01875 0.61046 0.97512 0.0
H488 H 0.89579 0.781 0.01023 0.0
H489 H 0.86129 0.73643 0.93572 0.0
H490 H 0.90252 0.76464 0.10541 0.0
H491 H 0.95461 0.75834 0.15252 0.0
C492 C 0.21779 0.92336 0.56452 0.0
C493 C 0.26624 -0.01839 0.56695 0.0
C494 C 0.29038 0.94849 0.46391 0.0
C495 C 0.23497 0.89443 0.45329 0.0
N496 N 0.14847 0.82853 0.50118 0.0
N497 N 0.34293 0.05042 0.51147 0.0
C498 C 0.19895 0.88148 0.50561 0.0
C499 C 0.29977 -0.0055 0.51358 0.0
N500 N 0.19227 0.90669 0.61996 0.0
N501 N 0.33655 0.95454 0.43034 0.0
H502 H 0.35145 0.08513 0.54744 0.0
H503 H 0.3657 0.06252 0.47082 0.0
H504 H 0.33495 0.91964 0.40045 0.0
H505 H 0.37887 -0.0086 0.43978 0.0
H506 H 0.1619 0.86379 0.62405 0.0
H507 H 0.20515 0.93519 0.66382 0.0
H508 H 0.11598 0.81987 0.5326 0.0
H509 H 0.13985 0.7926 0.46739 0.0
C510 C 0.60359 0.67554 0.98369 0.0
C511 C 0.66119 0.69646 0.96357 0.0
C512 C 0.70501 0.77105 0.06031 0.0
C513 C 0.64766 0.74836 0.08118 0.0
N514 N 0.54226 0.6968 0.05276 0.0
N515 N 0.76351 0.7728 0.97189 0.0
C516 C 0.59676 0.70649 0.03938 0.0
C517 C 0.71101 0.74733 0.9984 0.0
N518 N 0.5563 0.62402 0.953 0.0
N519 N 0.75363 0.81359 0.1008 0.0
H520 H 0.76856 0.75624 0.92605 0.0
H521 H 0.80017 0.81268 0.99242 0.0
H522 H 0.75035 0.83428 0.145 0.0
H523 H 0.79717 0.82691 0.09195 0.0
H524 H 0.5151 0.60408 0.97078 0.0
H525 H 0.55916 0.59832 0.91312 0.0
H526 H 0.50368 0.6699 0.02109 0.0
H527 H 0.53723 0.72114 0.0923 0.0
C528 C 0.89042 0.60505 0.42569 0.0
C529 C 0.94802 0.61229 0.42979 0.0
C530 C 0.92895 0.56817 0.52875 0.0
C531 C 0.87599 0.57023 0.52925 0.0
N532 N 0.79271 0.55667 0.46272 0.0
N533 N 0.01003 0.57707 0.4683 0.0
C534 C 0.8518 0.57586 0.47128 0.0
C535 C 0.9638 0.58646 0.4762 0.0
N536 N 0.87393 0.62929 0.38179 0.0
N537 N 0.94636 0.55017 0.57885 0.0
H538 H 0.03459 0.58719 0.42865 0.0
H539 H 0.0205 0.55405 0.49725 0.0
H540 H 0.91786 0.52914 0.61264 0.0
H541 H -0.01157 0.55569 0.58667 0.0
H542 H 0.8344 0.62972 0.38172 0.0
H543 H 0.90193 0.65381 0.34952 0.0
H544 H 0.77135 0.55589 0.41932 0.0
H545 H 0.76492 0.53626 0.49749 0.0
C546 C 0.24104 0.90132 0.93122 0.0
C547 C 0.29672 0.9542 0.94365 0.0
C548 C 0.31506 0.93104 0.04887 0.0
C549 C 0.25469 0.88567 0.04219 0.0
N550 N 0.17164 0.81142 0.96882 0.0
N551 N 0.39116 0.01552 0.0091 0.0
C552 C 0.22141 0.86547 0.98022 0.0
C553 C 0.33529 0.96754 1.00073 0.0
N554 N 0.20564 0.88723 0.87454 0.0
N555 N 0.35374 0.93713 0.09882 0.0
H556 H 0.41039 0.03935 0.97211 0.0
H557 H 0.4181 0.03309 0.0532 0.0
H558 H 0.34234 0.90742 0.13056 0.0
H559 H 0.39917 0.96657 0.10399 0.0
H560 H 0.16242 0.85209 0.86479 0.0
H561 H 0.21815 0.91265 0.83791 0.0
H562 H 0.14645 0.79139 0.92386 0.0
H563 H 0.15907 0.7842 1.00388 0.0
C564 C 0.36683 0.25457 0.5109 0.0
C565 C 0.37041 0.28196 0.57468 0.0
C566 C 0.37284 0.36221 0.52876 0.0
C567 C 0.34824 0.32459 0.4675 0.0
N568 N 0.32087 0.23202 0.4013 0.0
N569 N 0.39983 0.37205 0.64457 0.0
C570 C 0.34647 0.27052 0.45807 0.0
C571 C 0.38134 0.33955 0.5838 0.0
N572 N 0.38023 0.21159 0.50183 0.0
N573 N 0.38977 0.41957 0.53341 0.0
H574 H 0.41508 0.3594 0.6825 0.0
H575 H 0.40134 0.41142 0.65699 0.0
H576 H 0.38733 0.4379 0.49317 0.0
H577 H 0.41109 0.45017 0.57538 0.0
H578 H 0.38181 0.19217 0.45595 0.0
H579 H 0.39593 0.20051 0.541 0.0
H580 H 0.31383 0.18999 0.39536 0.0
H581 H 0.30112 0.23935 0.36248 0.0
C582 C 0.06428 0.3343 0.01031 0.0
C583 C 0.02513 0.30923 0.05713 0.0
C584 C 0.9418 0.29172 0.98341 0.0
C585 C 0.97864 0.3041 0.93249 0.0
N586 N 0.07535 0.33602 0.89588 0.0
N587 N 0.92476 0.25978 0.08734 0.0
C588 C 0.04039 0.32635 0.94552 0.0
C589 C 0.96347 0.28792 0.04425 0.0
N590 N 0.12414 0.36474 0.02803 0.0
N591 N 0.88617 0.28368 0.9735 0.0
H592 H 0.93776 0.25549 0.13292 0.0
H593 H 0.87885 0.23668 0.0758 0.0
H594 H 0.86929 0.2872 0.92945 0.0
H595 H 0.85946 0.27974 0.01079 0.0
H596 H 0.15509 0.38811 0.99741 0.0
H597 H 0.14223 0.37124 0.07578 0.0
H598 H 0.11919 0.34583 0.902 0.0
H599 H 0.05945 0.33011 0.84754 0.0
C600 C 0.73515 0.00191 0.55615 0.0
C601 C 0.72851 0.05063 0.57501 0.0
C602 C 0.65149 0.01562 0.48404 0.0
C603 C 0.66208 0.96954 0.46258 0.0
N604 N 0.68412 0.90223 0.5036 0.0
N605 N 0.68539 0.108 0.55391 0.0
C606 C 0.69583 0.95772 0.50533 0.0
C607 C 0.68817 0.05883 0.53797 0.0
N608 N 0.77922 -0.00224 0.587 0.0
N609 N 0.60194 0.01387 0.45829 0.0
H610 H 0.71193 0.13995 0.59318 0.0
H611 H 0.66134 0.11964 0.52502 0.0
H612 H 0.56854 0.97748 0.42728 0.0
H613 H 0.58925 0.04374 0.47483 0.0
H614 H 0.78904 0.96562 0.57063 0.0
H615 H 0.80946 0.0297 0.62453 0.0
H616 H 0.70457 0.8906 0.53742 0.0
H617 H 0.64688 0.86688 0.47585 0.0
loop_
_geom_bond_atom_site_label_1
_geom_bond_atom_site_label_2
_geom_bond_distance
_geom_bond_site_symmetry_2
_ccdc_geom_bond_type
C0 O12 1.241 . S
C0 O13 1.280 . S
C1 O14 1.277 . S
C1 O15 1.245 1_455 S
C2 O26 1.247 . S
C2 O28 1.289 . S
Mg3 O4 1.926 1_655 S
Mg3 O13 1.984 . S
Mg3 O15 1.988 . S
Mg3 O16 2.061 1_655 S
O4 Mg3 1.926 1_455 S
O4 Mg5 1.986 . S
O4 Mg6 1.917 . S
Mg5 O4 1.986 . S
Mg5 O12 2.042 1_455 S
Mg5 O14 2.041 . S
Mg5 O20 2.038 . S
Mg5 O28 2.238 . S
Mg6 O4 1.917 . S
Mg6 O7 1.917 . S
Mg6 O17 2.106 . S
Mg6 O19 2.079 . S
Mg6 O28 2.106 . S
Mg6 O29 2.079 . S
O7 Mg6 1.917 . S
O7 Mg8 1.926 . S
O7 Mg9 1.986 . S
Mg8 O7 1.926 . S
Mg8 O22 1.984 . S
Mg8 O25 1.988 . S
Mg8 O26 2.061 . S
Mg9 O7 1.986 . S
Mg9 O17 2.238 . S
Mg9 O21 2.042 . S
Mg9 O23 2.041 . S
Mg9 O30 2.038 . S
C10 O16 1.247 . S
C10 O17 1.289 . S
C11 O29 1.245 . S
C11 O30 1.274 . S
O12 C0 1.241 . S
O12 Mg5 2.042 1_655 S
O13 C0 1.280 . S
O13 Mg3 1.984 . S
O14 C1 1.277 . S
O14 Mg5 2.041 . S
O15 C1 1.245 1_655 S
O15 Mg3 1.988 . S
O16 Mg3 2.061 1_455 S
O16 C10 1.247 . S
O17 Mg6 2.106 . S
O17 Mg9 2.238 . S
O17 C10 1.289 . S
C18 O19 1.245 . S
C18 O20 1.274 . S
O19 Mg6 2.079 . S
O19 C18 1.245 . S
O20 Mg5 2.038 . S
O20 C18 1.274 . S
O21 Mg9 2.042 . S
O21 C24 1.241 . S
O22 Mg8 1.984 . S
O22 C24 1.280 . S
O23 Mg9 2.041 . S
O23 C27 1.277 . S
C24 O21 1.241 . S
C24 O22 1.280 . S
O25 Mg8 1.988 . S
O25 C27 1.245 . S
O26 C2 1.247 . S
O26 Mg8 2.061 . S
C27 O23 1.277 . S
C27 O25 1.245 . S
O28 C2 1.289 . S
O28 Mg5 2.238 . S
O28 Mg6 2.106 . S
O29 Mg6 2.079 . S
O29 C11 1.245 . S
O30 Mg9 2.038 . S
O30 C11 1.274 . S
C31 O43 1.241 . S
C31 O44 1.280 . S
C32 O45 1.277 . S
C32 O46 1.245 . S
C33 O57 1.247 . S
C33 O59 1.289 . S
Mg34 O35 1.926 . S
Mg34 O44 1.984 . S
Mg34 O46 1.988 . S
Mg34 O47 2.061 . S
O35 Mg34 1.926 . S
O35 Mg36 1.986 . S
O35 Mg37 1.917 . S
Mg36 O35 1.986 . S
Mg36 O43 2.042 . S
Mg36 O45 2.041 . S
Mg36 O51 2.038 . S
Mg36 O59 2.238 . S
Mg37 O35 1.917 . S
Mg37 O38 1.917 . S
Mg37 O48 2.106 . S
Mg37 O50 2.079 . S
Mg37 O59 2.106 . S
Mg37 O60 2.079 . S
O38 Mg37 1.917 . S
O38 Mg39 1.926 1_545 S
O38 Mg40 1.986 . S
Mg39 O38 1.926 1_565 S
Mg39 O53 1.984 . S
Mg39 O56 1.988 1_565 S
Mg39 O57 2.061 1_565 S
Mg40 O38 1.986 . S
Mg40 O48 2.238 . S
Mg40 O52 2.043 1_545 S
Mg40 O54 2.041 . S
Mg40 O61 2.038 . S
C41 O47 1.247 . S
C41 O48 1.289 . S
C42 O60 1.245 . S
C42 O61 1.274 . S
O43 C31 1.241 . S
O43 Mg36 2.042 . S
O44 C31 1.280 . S
O44 Mg34 1.984 . S
O45 C32 1.277 . S
O45 Mg36 2.041 . S
O46 C32 1.245 . S
O46 Mg34 1.988 . S
O47 Mg34 2.061 . S
O47 C41 1.247 . S
O48 Mg37 2.106 . S
O48 Mg40 2.238 . S
O48 C41 1.289 . S
C49 O50 1.245 . S
C49 O51 1.274 . S
O50 Mg37 2.079 . S
O50 C49 1.245 . S
O51 Mg36 2.038 . S
O51 C49 1.274 . S
O52 Mg40 2.043 1_565 S
O52 C55 1.241 . S
O53 Mg39 1.984 . S
O53 C55 1.280 . S
O54 Mg40 2.041 . S
O54 C58 1.277 . S
C55 O52 1.241 . S
C55 O53 1.280 . S
O56 Mg39 1.988 1_545 S
O56 C58 1.245 . S
O57 C33 1.247 . S
O57 Mg39 2.061 1_545 S
C58 O54 1.277 . S
C58 O56 1.245 . S
O59 C33 1.289 . S
O59 Mg36 2.238 . S
O59 Mg37 2.106 . S
O60 Mg37 2.079 . S
O60 C42 1.245 . S
O61 Mg40 2.038 . S
O61 C42 1.274 . S
C62 O74 1.241 . S
C62 O75 1.280 . S
C63 O76 1.277 . S
C63 O77 1.245 . S
C64 O88 1.247 . S
C64 O90 1.289 . S
Mg65 O66 1.926 . S
Mg65 O75 1.984 . S
Mg65 O77 1.988 . S
Mg65 O78 2.061 . S
O66 Mg65 1.926 . S
O66 Mg67 1.986 . S
O66 Mg68 1.917 . S
Mg67 O66 1.986 . S
Mg67 O74 2.042 . S
Mg67 O76 2.041 . S
Mg67 O82 2.038 . S
Mg67 O90 2.238 . S
Mg68 O66 1.917 . S
Mg68 O69 1.917 . S
Mg68 O79 2.106 . S
Mg68 O81 2.079 . S
Mg68 O90 2.106 . S
Mg68 O91 2.079 . S
O69 Mg68 1.917 . S
O69 Mg70 1.926 . S
O69 Mg71 1.986 . S
Mg70 O69 1.926 . S
Mg70 O84 1.984 . S
Mg70 O87 1.988 . S
Mg70 O88 2.061 . S
Mg71 O69 1.986 . S
Mg71 O79 2.238 . S
Mg71 O83 2.042 . S
Mg71 O85 2.041 . S
Mg71 O92 2.038 . S
C72 O78 1.247 . S
C72 O79 1.289 . S
C73 O91 1.245 . S
C73 O92 1.274 . S
O74 C62 1.241 . S
O74 Mg67 2.042 . S
O75 C62 1.280 . S
O75 Mg65 1.984 . S
O76 C63 1.277 . S
O76 Mg67 2.041 . S
O77 C63 1.245 . S
O77 Mg65 1.988 . S
O78 Mg65 2.061 . S
O78 C72 1.247 . S
O79 Mg68 2.106 . S
O79 Mg71 2.238 . S
O79 C72 1.289 . S
C80 O81 1.245 . S
C80 O82 1.274 . S
O81 Mg68 2.079 . S
O81 C80 1.245 . S
O82 Mg67 2.038 . S
O82 C80 1.274 . S
O83 Mg71 2.042 . S
O83 C86 1.241 . S
O84 Mg70 1.984 . S
O84 C86 1.280 . S
O85 Mg71 2.041 . S
O85 C89 1.277 . S
C86 O83 1.241 . S
C86 O84 1.280 . S
O87 Mg70 1.988 . S
O87 C89 1.245 . S
O88 C64 1.247 . S
O88 Mg70 2.061 . S
C89 O85 1.277 . S
C89 O87 1.245 . S
O90 C64 1.289 . S
O90 Mg67 2.238 . S
O90 Mg68 2.106 . S
O91 Mg68 2.079 . S
O91 C73 1.245 . S
O92 Mg71 2.038 . S
O92 C73 1.274 . S
C93 O105 1.243 1_455 S
C93 O106 1.280 . S
C94 O107 1.277 . S
C94 O108 1.245 . S
C95 O119 1.247 . S
C95 O121 1.289 . S
Mg96 O97 1.926 1_455 S
Mg96 O106 1.984 . S
Mg96 O108 1.988 1_455 S
Mg96 O109 2.061 1_455 S
O97 Mg96 1.926 1_655 S
O97 Mg98 1.986 . S
O97 Mg99 1.917 . S
Mg98 O97 1.986 . S
Mg98 O105 2.041 . S
Mg98 O107 2.041 . S
Mg98 O113 2.038 . S
Mg98 O121 2.238 . S
Mg99 O97 1.917 . S
Mg99 O100 1.917 . S
Mg99 O110 2.106 . S
Mg99 O112 2.079 . S
Mg99 O121 2.106 . S
Mg99 O122 2.079 . S
O100 Mg99 1.917 . S
O100 Mg101 1.926 . S
O100 Mg102 1.986 . S
Mg101 O100 1.926 . S
Mg101 O115 1.984 . S
Mg101 O118 1.988 . S
Mg101 O119 2.061 . S
Mg102 O100 1.986 . S
Mg102 O110 2.238 . S
Mg102 O114 2.042 . S
Mg102 O116 2.041 . S
Mg102 O123 2.038 . S
C103 O109 1.247 . S
C103 O110 1.289 . S
C104 O122 1.245 . S
C104 O123 1.274 . S
O105 C93 1.243 1_655 S
O105 Mg98 2.041 . S
O106 C93 1.280 . S
O106 Mg96 1.984 . S
O107 C94 1.277 . S
O107 Mg98 2.041 . S
O108 C94 1.245 . S
O108 Mg96 1.988 1_655 S
O109 Mg96 2.061 1_655 S
O109 C103 1.247 . S
O110 Mg99 2.106 . S
O110 Mg102 2.238 . S
O110 C103 1.289 . S
C111 O112 1.245 . S
C111 O113 1.274 . S
O112 Mg99 2.079 . S
O112 C111 1.245 . S
O113 Mg98 2.038 . S
O113 C111 1.274 . S
O114 Mg102 2.042 . S
O114 C117 1.241 . S
O115 Mg101 1.984 . S
O115 C117 1.280 . S
O116 Mg102 2.041 . S
O116 C120 1.277 . S
C117 O114 1.241 . S
C117 O115 1.280 . S
O118 Mg101 1.988 . S
O118 C120 1.245 . S
O119 C95 1.247 . S
O119 Mg101 2.061 . S
C120 O116 1.277 . S
C120 O118 1.245 . S
O121 C95 1.289 . S
O121 Mg98 2.238 . S
O121 Mg99 2.106 . S
O122 Mg99 2.079 . S
O122 C104 1.245 . S
O123 Mg102 2.038 . S
O123 C104 1.274 . S
C124 O136 1.233 1_545 S
C124 O137 1.280 . S
C125 O138 1.277 . S
C125 O139 1.245 . S
C126 O150 1.247 . S
C126 O152 1.289 . S
Mg127 O128 1.926 1_545 S
Mg127 O137 1.984 . S
Mg127 O139 1.988 1_545 S
Mg127 O140 2.061 1_545 S
O128 Mg127 1.926 1_565 S
O128 Mg129 1.986 . S
O128 Mg130 1.917 . S
Mg129 O128 1.986 . S
Mg129 O136 2.060 . S
Mg129 O138 2.041 . S
Mg129 O144 2.038 . S
Mg129 O152 2.238 . S
Mg130 O128 1.917 . S
Mg130 O131 1.917 . S
Mg130 O141 2.106 . S
Mg130 O143 2.079 . S
Mg130 O152 2.106 . S
Mg130 O153 2.079 . S
O131 Mg130 1.917 . S
O131 Mg132 1.926 . S
O131 Mg133 1.986 . S
Mg132 O131 1.926 . S
Mg132 O146 1.984 . S
Mg132 O149 1.988 . S
Mg132 O150 2.061 . S
Mg133 O131 1.986 . S
Mg133 O141 2.238 . S
Mg133 O145 2.042 . S
Mg133 O147 2.041 . S
Mg133 O154 2.038 . S
C134 O140 1.247 . S
C134 O141 1.289 . S
C135 O153 1.245 . S
C135 O154 1.274 . S
O136 C124 1.233 1_565 S
O136 Mg129 2.060 . S
O137 C124 1.280 . S
O137 Mg127 1.984 . S
O138 C125 1.277 . S
O138 Mg129 2.041 . S
O139 C125 1.245 . S
O139 Mg127 1.988 1_565 S
O140 Mg127 2.061 1_565 S
O140 C134 1.247 . S
O141 Mg130 2.106 . S
O141 Mg133 2.238 . S
O141 C134 1.289 . S
C142 O143 1.245 . S
C142 O144 1.274 . S
O143 Mg130 2.079 . S
O143 C142 1.245 . S
O144 Mg129 2.038 . S
O144 C142 1.274 . S
O145 Mg133 2.042 . S
O145 C148 1.241 . S
O146 Mg132 1.984 . S
O146 C148 1.280 . S
O147 Mg133 2.041 . S
O147 C151 1.277 . S
C148 O145 1.241 . S
C148 O146 1.280 . S
O149 Mg132 1.988 . S
O149 C151 1.245 . S
O150 C126 1.247 . S
O150 Mg132 2.061 . S
C151 O147 1.277 . S
C151 O149 1.245 . S
O152 C126 1.289 . S
O152 Mg129 2.238 . S
O152 Mg130 2.106 . S
O153 Mg130 2.079 . S
O153 C135 1.245 . S
O154 Mg133 2.038 . S
O154 C135 1.274 . S
C155 O167 1.241 . S
C155 O168 1.280 . S
C156 O169 1.277 . S
C156 O170 1.245 . S
C157 O181 1.247 . S
C157 O183 1.289 . S
Mg158 O159 1.926 . S
Mg158 O168 1.984 . S
Mg158 O170 1.988 . S
Mg158 O171 2.061 . S
O159 Mg158 1.926 . S
O159 Mg160 1.986 . S
O159 Mg161 1.917 . S
Mg160 O159 1.986 . S
Mg160 O167 2.042 . S
Mg160 O169 2.041 . S
Mg160 O175 2.038 . S
Mg160 O183 2.238 . S
Mg161 O159 1.917 . S
Mg161 O162 1.917 . S
Mg161 O172 2.106 . S
Mg161 O174 2.079 . S
Mg161 O183 2.106 . S
Mg161 O184 2.079 . S
O162 Mg161 1.917 . S
O162 Mg163 1.926 . S
O162 Mg164 1.986 . S
Mg163 O162 1.926 . S
Mg163 O177 1.984 . S
Mg163 O180 1.988 . S
Mg163 O181 2.061 . S
Mg164 O162 1.986 . S
Mg164 O172 2.238 . S
Mg164 O176 2.042 . S
Mg164 O178 2.041 . S
Mg164 O185 2.038 . S
C165 O171 1.247 . S
C165 O172 1.289 . S
C166 O184 1.245 . S
C166 O185 1.274 . S
O167 C155 1.241 . S
O167 Mg160 2.042 . S
O168 C155 1.280 . S
O168 Mg158 1.984 . S
O169 C156 1.277 . S
O169 Mg160 2.041 . S
O170 C156 1.245 . S
O170 Mg158 1.988 . S
O171 Mg158 2.061 . S
O171 C165 1.247 . S
O172 Mg161 2.106 . S
O172 Mg164 2.238 . S
O172 C165 1.289 . S
C173 O174 1.245 . S
C173 O175 1.274 . S
O174 Mg161 2.079 . S
O174 C173 1.245 . S
O175 Mg160 2.038 . S
O175 C173 1.274 . S
O176 Mg164 2.042 . S
O176 C179 1.241 . S
O177 Mg163 1.984 . S
O177 C179 1.280 . S
O178 Mg164 2.041 . S
O178 C182 1.277 . S
C179 O176 1.241 . S
C179 O177 1.280 . S
O180 Mg163 1.988 . S
O180 C182 1.245 . S
O181 C157 1.247 . S
O181 Mg163 2.061 . S
C182 O178 1.277 . S
C182 O180 1.245 . S
O183 C157 1.289 . S
O183 Mg160 2.238 . S
O183 Mg161 2.106 . S
O184 Mg161 2.079 . S
O184 C166 1.245 . S
O185 Mg164 2.038 . S
O185 C166 1.274 . S
C186 C187 1.363 . S
C186 C192 1.379 . S
C186 N194 1.356 . S
C187 C186 1.363 . S
C187 C193 1.363 . S
C188 C189 1.363 . S
C188 C193 1.379 . S
C188 N195 1.356 . S
C189 C188 1.363 . S
C189 C192 1.363 . S
N190 C192 1.356 . S
N190 H202 0.984 . S
N190 H203 0.985 . S
N191 C193 1.356 . S
N191 H196 0.984 . S
N191 H197 0.985 . S
C192 C186 1.379 . S
C192 C189 1.363 . S
C192 N190 1.356 . S
C193 C187 1.363 . S
C193 C188 1.379 . S
C193 N191 1.356 . S
N194 C186 1.356 . S
N194 H200 0.984 . S
N194 H201 0.984 . S
N195 C188 1.356 . S
N195 H198 0.984 . S
N195 H199 0.985 . S
H196 N191 0.984 . S
H197 N191 0.985 . S
H198 N195 0.984 . S
H199 N195 0.985 . S
H200 N194 0.984 . S
H201 N194 0.984 . S
H202 N190 0.984 . S
H203 N190 0.985 . S
C204 C205 1.363 . S
C204 C210 1.379 . S
C204 N212 1.356 . S
C205 C204 1.363 . S
C205 C211 1.363 . S
C206 C207 1.363 . S
C206 C211 1.379 . S
C206 N213 1.356 . S
C207 C206 1.363 . S
C207 C210 1.363 . S
N208 C210 1.356 . S
N208 H220 0.984 . S
N208 H221 0.985 . S
N209 C211 1.356 . S
N209 H214 0.984 . S
N209 H215 0.985 . S
C210 C204 1.379 . S
C210 C207 1.363 . S
C210 N208 1.356 . S
C211 C205 1.363 . S
C211 C206 1.379 . S
C211 N209 1.356 . S
N212 C204 1.356 . S
N212 H218 0.984 . S
N212 H219 0.984 . S
N213 C206 1.356 . S
N213 H216 0.984 . S
N213 H217 0.985 . S
H214 N209 0.984 . S
H215 N209 0.985 . S
H216 N213 0.984 . S
H217 N213 0.985 . S
H218 N212 0.984 . S
H219 N212 0.984 . S
H220 N208 0.984 . S
H221 N208 0.985 . S
C222 C223 1.363 . S
C222 C228 1.379 . S
C222 N230 1.356 . S
C223 C222 1.363 . S
C223 C229 1.363 . S
C224 C225 1.363 . S
C224 C229 1.379 . S
C224 N231 1.356 . S
C225 C224 1.363 . S
C225 C228 1.363 . S
N226 C228 1.356 . S
N226 H238 0.984 . S
N226 H239 0.985 . S
N227 C229 1.356 . S
N227 H232 0.984 . S
N227 H233 0.985 . S
C228 C222 1.379 . S
C228 C225 1.363 . S
C228 N226 1.356 . S
C229 C223 1.363 . S
C229 C224 1.379 . S
C229 N227 1.356 . S
N230 C222 1.356 . S
N230 H236 0.984 . S
N230 H237 0.984 . S
N231 C224 1.356 . S
N231 H234 0.984 . S
N231 H235 0.985 . S
H232 N227 0.984 . S
H233 N227 0.985 . S
H234 N231 0.984 . S
H235 N231 0.985 . S
H236 N230 0.984 . S
H237 N230 0.984 . S
H238 N226 0.984 . S
H239 N226 0.985 . S
C240 C241 1.363 . S
C240 C246 1.379 . S
C240 N248 1.356 . S
C241 C240 1.363 . S
C241 C247 1.363 . S
C242 C243 1.363 . S
C242 C247 1.379 . S
C242 N249 1.356 . S
C243 C242 1.363 . S
C243 C246 1.363 . S
N244 C246 1.356 . S
N244 H256 0.984 . S
N244 H257 0.985 . S
N245 C247 1.356 . S
N245 H250 0.984 . S
N245 H251 0.985 . S
C246 C240 1.379 . S
C246 C243 1.363 . S
C246 N244 1.356 . S
C247 C241 1.363 . S
C247 C242 1.379 . S
C247 N245 1.356 . S
N248 C240 1.356 . S
N248 H254 0.984 . S
N248 H255 0.984 . S
N249 C242 1.356 . S
N249 H252 0.984 . S
N249 H253 0.985 . S
H250 N245 0.984 . S
H251 N245 0.985 . S
H252 N249 0.984 . S
H253 N249 0.985 . S
H254 N248 0.984 . S
H255 N248 0.984 . S
H256 N244 0.984 . S
H257 N244 0.985 . S
C258 C259 1.363 . S
C258 C264 1.379 . S
C258 N266 1.356 . S
C259 C258 1.363 . S
C259 C265 1.363 . S
C260 C261 1.363 . S
C260 C265 1.379 . S
C260 N267 1.356 . S
C261 C260 1.363 . S
C261 C264 1.363 . S
N262 C264 1.356 . S
N262 H274 0.984 . S
N262 H275 0.985 . S
N263 C265 1.356 . S
N263 H268 0.984 . S
N263 H269 0.985 . S
C264 C258 1.379 . S
C264 C261 1.363 . S
C264 N262 1.356 . S
C265 C259 1.363 . S
C265 C260 1.379 . S
C265 N263 1.356 . S
N266 C258 1.356 . S
N266 H272 0.984 . S
N266 H273 0.984 . S
N267 C260 1.356 . S
N267 H270 0.984 . S
N267 H271 0.985 . S
H268 N263 0.984 . S
H269 N263 0.985 . S
H270 N267 0.984 . S
H271 N267 0.985 . S
H272 N266 0.984 . S
H273 N266 0.984 . S
H274 N262 0.984 . S
H275 N262 0.985 . S
C276 C277 1.363 . S
C276 C282 1.379 . S
C276 N284 1.356 . S
C277 C276 1.363 . S
C277 C283 1.363 . S
C278 C279 1.363 . S
C278 C283 1.379 . S
C278 N285 1.356 . S
C279 C278 1.363 . S
C279 C282 1.363 . S
N280 C282 1.356 . S
N280 H292 0.984 . S
N280 H293 0.985 . S
N281 C283 1.356 . S
N281 H286 0.984 . S
N281 H287 0.985 . S
C282 C276 1.379 . S
C282 C279 1.363 . S
C282 N280 1.356 . S
C283 C277 1.363 . S
C283 C278 1.379 . S
C283 N281 1.356 . S
N284 C276 1.356 . S
N284 H290 0.984 . S
N284 H291 0.984 . S
N285 C278 1.356 . S
N285 H288 0.984 . S
N285 H289 0.985 . S
H286 N281 0.984 . S
H287 N281 0.985 . S
H288 N285 0.984 . S
H289 N285 0.985 . S
H290 N284 0.984 . S
H291 N284 0.984 . S
H292 N280 0.984 . S
H293 N280 0.985 . S
C294 C295 1.363 . S
C294 C300 1.379 . S
C294 N302 1.356 . S
C295 C294 1.363 . S
C295 C301 1.363 . S
C296 C297 1.363 . S
C296 C301 1.379 . S
C296 N303 1.356 . S
C297 C296 1.363 . S
C297 C300 1.363 . S
N298 C300 1.356 . S
N298 H310 0.984 . S
N298 H311 0.985 . S
N299 C301 1.356 . S
N299 H304 0.984 . S
N299 H305 0.985 . S
C300 C294 1.379 . S
C300 C297 1.363 . S
C300 N298 1.356 . S
C301 C295 1.363 . S
C301 C296 1.379 . S
C301 N299 1.356 . S
N302 C294 1.356 . S
N302 H308 0.984 . S
N302 H309 0.984 . S
N303 C296 1.356 . S
N303 H306 0.984 . S
N303 H307 0.985 . S
H304 N299 0.984 . S
H305 N299 0.985 . S
H306 N303 0.984 . S
H307 N303 0.985 . S
H308 N302 0.984 . S
H309 N302 0.984 . S
H310 N298 0.984 . S
H311 N298 0.985 . S
C312 C313 1.363 1_455 S
C312 C318 1.379 . S
C312 N320 1.356 1_455 S
C313 C312 1.363 1_655 S
C313 C319 1.363 1_655 S
C314 C315 1.363 . S
C314 C319 1.379 . S
C314 N321 1.356 . S
C315 C314 1.363 . S
C315 C318 1.363 . S
N316 C318 1.356 . S
N316 H328 0.984 . S
N316 H329 0.985 . S
N317 C319 1.356 1_655 S
N317 H322 0.984 . S
N317 H323 0.985 . S
C318 C312 1.379 . S
C318 C315 1.363 . S
C318 N316 1.356 . S
C319 C313 1.363 1_455 S
C319 C314 1.379 . S
C319 N317 1.356 1_455 S
N320 C312 1.356 1_655 S
N320 H326 0.984 . S
N320 H327 0.984 . S
N321 C314 1.356 . S
N321 H324 0.984 . S
N321 H325 0.985 . S
H322 N317 0.984 . S
H323 N317 0.985 . S
H324 N321 0.984 . S
H325 N321 0.985 . S
H326 N320 0.984 . S
H327 N320 0.984 . S
H328 N316 0.984 . S
H329 N316 0.985 . S
C330 C331 1.363 . S
C330 C336 1.379 . S
C330 N338 1.356 . S
C331 C330 1.363 . S
C331 C337 1.363 . S
C332 C333 1.363 . S
C332 C337 1.379 1_565 S
C332 N339 1.356 . S
C333 C332 1.363 . S
C333 C336 1.363 1_565 S
N334 C336 1.357 1_565 S
N334 H346 0.968 1_565 S
N334 H347 1.001 . S
N335 C337 1.356 . S
N335 H340 0.984 1_655 S
N335 H341 0.985 1_655 S
C336 C330 1.379 . S
C336 C333 1.363 1_545 S
C336 N334 1.357 1_545 S
C337 C331 1.363 . S
C337 C332 1.379 1_545 S
C337 N335 1.356 . S
N338 C330 1.356 . S
N338 H344 0.984 . S
N338 H345 0.984 . S
N339 C332 1.356 . S
N339 H342 0.984 . S
N339 H343 0.985 . S
H340 N335 0.984 1_455 S
H341 N335 0.985 1_455 S
H342 N339 0.984 . S
H343 N339 0.985 . S
H344 N338 0.984 . S
H345 N338 0.984 . S
H346 N334 0.968 1_545 S
H347 N334 1.001 . S
C348 C349 1.363 . S
C348 C354 1.379 . S
C348 N356 1.356 . S
C349 C348 1.363 . S
C349 C355 1.363 . S
C350 C351 1.363 . S
C350 C355 1.379 . S
C350 N357 1.356 . S
C351 C350 1.363 . S
C351 C354 1.363 . S
N352 C354 1.356 . S
N352 H364 0.984 . S
N352 H365 0.985 . S
N353 C355 1.356 . S
N353 H358 0.984 . S
N353 H359 0.985 . S
C354 C348 1.379 . S
C354 C351 1.363 . S
C354 N352 1.356 . S
C355 C349 1.363 . S
C355 C350 1.379 . S
C355 N353 1.356 . S
N356 C348 1.356 . S
N356 H362 0.984 1_565 S
N356 H363 0.984 1_565 S
N357 C350 1.356 . S
N357 H360 0.984 . S
N357 H361 0.985 . S
H358 N353 0.984 . S
H359 N353 0.985 . S
H360 N357 0.984 . S
H361 N357 0.985 . S
H362 N356 0.984 1_545 S
H363 N356 0.984 1_545 S
H364 N352 0.984 . S
H365 N352 0.985 . S
C366 C367 1.363 . S
C366 C372 1.379 . S
C366 N374 1.356 . S
C367 C366 1.363 . S
C367 C373 1.363 . S
C368 C369 1.363 1_655 S
C368 C373 1.379 . S
C368 N375 1.356 1_655 S
C369 C368 1.363 1_455 S
C369 C372 1.363 1_455 S
N370 C372 1.356 1_455 S
N370 H382 0.984 . S
N370 H383 0.985 . S
N371 C373 1.356 . S
N371 H376 0.984 . S
N371 H377 0.985 . S
C372 C366 1.379 . S
C372 C369 1.363 1_655 S
C372 N370 1.356 1_655 S
C373 C367 1.363 . S
C373 C368 1.379 . S
C373 N371 1.356 . S
N374 C366 1.356 . S
N374 H380 0.984 . S
N374 H381 0.984 . S
N375 C368 1.356 1_455 S
N375 H378 0.984 . S
N375 H379 0.985 . S
H376 N371 0.984 . S
H377 N371 0.985 . S
H378 N375 0.984 . S
H379 N375 0.985 . S
H380 N374 0.984 . S
H381 N374 0.984 . S
H382 N370 0.984 . S
H383 N370 0.985 . S
C384 C385 1.363 . S
C384 C390 1.379 1_545 S
C384 N392 1.356 . S
C385 C384 1.363 . S
C385 C391 1.363 1_545 S
C386 C387 1.363 . S
C386 C391 1.379 . S
C386 N393 1.356 . S
C387 C386 1.363 . S
C387 C390 1.363 . S
N388 C390 1.356 . S
N388 H400 0.984 . S
N388 H401 0.985 . S
N389 C391 1.356 1_545 S
N389 H394 0.984 . S
N389 H395 0.983 . S
C390 C384 1.379 1_565 S
C390 C387 1.363 . S
C390 N388 1.356 . S
C391 C385 1.363 1_565 S
C391 C386 1.379 . S
C391 N389 1.356 1_565 S
N392 C384 1.356 . S
N392 H398 0.984 . S
N392 H399 0.984 . S
N393 C386 1.356 . S
N393 H396 0.984 . S
N393 H397 0.985 . S
H394 N389 0.984 . S
H395 N389 0.983 . S
H396 N393 0.984 . S
H397 N393 0.985 . S
H398 N392 0.984 . S
H399 N392 0.984 . S
H400 N388 0.984 . S
H401 N388 0.985 . S
C402 C403 1.363 . S
C402 C408 1.379 1_554 S
C402 N410 1.356 . S
C403 C402 1.363 . S
C403 C409 1.363 . S
C404 C405 1.363 1_554 S
C404 C409 1.379 . S
C404 N411 1.356 1_554 S
C405 C404 1.363 1_556 S
C405 C408 1.363 . S
N406 C408 1.356 . S
N406 H418 0.984 . S
N406 H419 0.985 . S
N407 C409 1.356 . S
N407 H412 0.984 . S
N407 H413 0.985 . S
C408 C402 1.379 1_556 S
C408 C405 1.363 . S
C408 N406 1.356 . S
C409 C403 1.363 . S
C409 C404 1.379 . S
C409 N407 1.356 . S
N410 C402 1.356 . S
N410 H416 0.984 1_554 S
N410 H417 0.984 . S
N411 C404 1.356 1_556 S
N411 H414 0.984 . S
N411 H415 0.985 1_556 S
H412 N407 0.984 . S
H413 N407 0.985 . S
H414 N411 0.984 . S
H415 N411 0.985 1_554 S
H416 N410 0.984 1_556 S
H417 N410 0.984 . S
H418 N406 0.984 . S
H419 N406 0.985 . S
C420 C421 1.363 . S
C420 C426 1.379 1_655 S
C420 N428 1.356 . S
C421 C420 1.363 . S
C421 C427 1.363 . S
C422 C423 1.363 . S
C422 C427 1.379 1_455 S
C422 N429 1.356 . S
C423 C422 1.363 . S
C423 C426 1.363 . S
N424 C426 1.356 . S
N424 H436 0.984 . S
N424 H437 0.985 . S
N425 C427 1.356 . S
N425 H430 0.984 . S
N425 H431 0.985 . S
C426 C420 1.379 1_455 S
C426 C423 1.363 . S
C426 N424 1.356 . S
C427 C421 1.363 . S
C427 C422 1.379 1_655 S
C427 N425 1.356 . S
N428 C420 1.356 . S
N428 H434 0.984 . S
N428 H435 0.984 . S
N429 C422 1.356 . S
N429 H432 0.984 . S
N429 H433 0.985 . S
H430 N425 0.984 . S
H431 N425 0.985 . S
H432 N429 0.984 . S
H433 N429 0.985 . S
H434 N428 0.984 . S
H435 N428 0.984 . S
H436 N424 0.984 . S
H437 N424 0.985 . S
C438 C439 1.375 . S
C438 C444 1.363 1_554 S
C438 N446 1.365 . S
C439 C438 1.375 . S
C439 C445 1.363 . S
C440 C441 1.363 . S
C440 C445 1.379 1_546 S
C440 N447 1.356 . S
C441 C440 1.363 . S
C441 C444 1.363 1_545 S
N442 C444 1.356 . S
N442 H454 0.984 . S
N442 H455 0.985 1_565 S
N443 C445 1.356 . S
N443 H448 0.984 . S
N443 H449 0.984 . S
C444 C438 1.363 1_556 S
C444 C441 1.363 1_565 S
C444 N442 1.356 . S
C445 C439 1.363 . S
C445 C440 1.379 1_564 S
C445 N443 1.356 . S
N446 C438 1.365 . S
N446 H452 0.984 . S
N446 H453 0.984 . S
N447 C440 1.356 . S
N447 H450 0.984 . S
N447 H451 0.985 . S
H448 N443 0.984 . S
H449 N443 0.984 . S
H450 N447 0.984 . S
H451 N447 0.985 . S
H452 N446 0.984 . S
H453 N446 0.984 . S
H454 N442 0.984 . S
H455 N442 0.985 1_545 S
C456 C457 1.363 . S
C456 C462 1.379 . S
C456 N464 1.356 . S
C457 C456 1.363 . S
C457 C463 1.363 . S
C458 C459 1.363 . S
C458 C463 1.379 . S
C458 N465 1.356 . S
C459 C458 1.363 . S
C459 C462 1.363 . S
N460 C462 1.356 . S
N460 H472 0.984 . S
N460 H473 0.985 . S
N461 C463 1.356 . S
N461 H466 0.984 . S
N461 H467 0.985 . S
C462 C456 1.379 . S
C462 C459 1.363 . S
C462 N460 1.356 . S
C463 C457 1.363 . S
C463 C458 1.379 . S
C463 N461 1.356 . S
N464 C456 1.356 . S
N464 H470 0.984 . S
N464 H471 0.984 . S
N465 C458 1.356 . S
N465 H468 0.984 . S
N465 H469 0.985 . S
H466 N461 0.984 . S
H467 N461 0.985 . S
H468 N465 0.984 . S
H469 N465 0.985 . S
H470 N464 0.984 . S
H471 N464 0.984 . S
H472 N460 0.984 . S
H473 N460 0.985 . S
C474 C475 1.363 1_554 S
C474 C480 1.379 1_655 S
C474 N482 1.356 . S
C475 C474 1.363 1_556 S
C475 C481 1.363 1_655 S
C476 C477 1.363 1_556 S
C476 C481 1.379 . S
C476 N483 1.356 . S
C477 C476 1.363 1_554 S
C477 C480 1.363 . S
N478 C480 1.356 . S
N478 H490 0.984 1_455 S
N478 H491 0.985 . S
N479 C481 1.356 . S
N479 H484 0.984 1_455 S
N479 H485 0.985 . S
C480 C474 1.379 1_455 S
C480 C477 1.363 . S
C480 N478 1.356 . S
C481 C475 1.363 1_455 S
C481 C476 1.379 . S
C481 N479 1.356 . S
N482 C474 1.356 . S
N482 H488 0.984 . S
N482 H489 0.984 1_554 S
N483 C476 1.356 . S
N483 H486 0.984 1_556 S
N483 H487 0.985 . S
H484 N479 0.984 1_655 S
H485 N479 0.985 . S
H486 N483 0.984 1_554 S
H487 N483 0.985 . S
H488 N482 0.984 . S
H489 N482 0.984 1_556 S
H490 N478 0.984 1_655 S
H491 N478 0.985 . S
C492 C493 1.363 . S
C492 C498 1.379 1_545 S
C492 N500 1.356 . S
C493 C492 1.363 . S
C493 C499 1.363 . S
C494 C495 1.363 1_545 S
C494 C499 1.379 . S
C494 N501 1.356 1_545 S
C495 C494 1.363 1_565 S
C495 C498 1.363 . S
N496 C498 1.356 . S
N496 H508 0.984 . S
N496 H509 0.985 . S
N497 C499 1.356 . S
N497 H502 0.984 . S
N497 H503 0.985 . S
C498 C492 1.379 1_565 S
C498 C495 1.363 . S
C498 N496 1.356 . S
C499 C493 1.363 . S
C499 C494 1.379 . S
C499 N497 1.356 . S
N500 C492 1.356 . S
N500 H506 0.984 . S
N500 H507 0.984 . S
N501 C494 1.356 1_565 S
N501 H504 0.984 . S
N501 H505 0.985 . S
H502 N497 0.984 . S
H503 N497 0.985 . S
H504 N501 0.984 . S
H505 N501 0.985 . S
H506 N500 0.984 . S
H507 N500 0.984 . S
H508 N496 0.984 . S
H509 N496 0.985 . S
C510 C511 1.363 . S
C510 C516 1.379 1_556 S
C510 N518 1.356 . S
C511 C510 1.363 . S
C511 C517 1.363 1_556 S
C512 C513 1.363 . S
C512 C517 1.379 . S
C512 N519 1.356 . S
C513 C512 1.363 . S
C513 C516 1.363 . S
N514 C516 1.356 . S
N514 H526 0.984 . S
N514 H527 0.985 . S
N515 C517 1.356 1_556 S
N515 H520 0.984 . S
N515 H521 0.985 . S
C516 C510 1.379 1_554 S
C516 C513 1.363 . S
C516 N514 1.356 . S
C517 C511 1.363 1_554 S
C517 C512 1.379 . S
C517 N515 1.356 1_554 S
N518 C510 1.356 . S
N518 H524 0.984 . S
N518 H525 0.984 . S
N519 C512 1.356 . S
N519 H522 0.984 . S
N519 H523 0.985 . S
H520 N515 0.984 . S
H521 N515 0.985 . S
H522 N519 0.984 . S
H523 N519 0.985 . S
H524 N518 0.984 . S
H525 N518 0.984 . S
H526 N514 0.984 . S
H527 N514 0.985 . S
C528 C529 1.363 1_655 S
C528 C534 1.379 . S
C528 N536 1.356 . S
C529 C528 1.363 1_455 S
C529 C535 1.363 . S
C530 C531 1.363 1_455 S
C530 C535 1.379 . S
C530 N537 1.356 . S
C531 C530 1.363 1_655 S
C531 C534 1.363 . S
N532 C534 1.356 . S
N532 H544 0.984 . S
N532 H545 0.985 . S
N533 C535 1.356 . S
N533 H538 0.984 . S
N533 H539 0.985 . S
C534 C528 1.379 . S
C534 C531 1.363 . S
C534 N532 1.356 . S
C535 C529 1.363 . S
C535 C530 1.379 . S
C535 N533 1.356 . S
N536 C528 1.356 . S
N536 H542 0.984 . S
N536 H543 0.984 1_655 S
N537 C530 1.356 . S
N537 H540 0.984 . S
N537 H541 0.985 . S
H538 N533 0.984 . S
H539 N533 0.985 . S
H540 N537 0.984 . S
H541 N537 0.985 . S
H542 N536 0.984 . S
H543 N536 0.984 1_455 S
H544 N532 0.984 . S
H545 N532 0.985 . S
C546 C547 1.363 1_565 S
C546 C552 1.388 . S
C546 N554 1.356 . S
C547 C546 1.363 1_545 S
C547 C553 1.363 1_556 S
C548 C549 1.363 1_545 S
C548 C553 1.379 . S
C548 N555 1.356 . S
C549 C548 1.363 1_565 S
C549 C552 1.353 1_554 S
N550 C552 1.353 1_554 S
N550 H562 0.984 1_554 S
N550 H563 0.985 . S
N551 C553 1.356 . S
N551 H556 0.984 1_554 S
N551 H557 0.985 . S
C552 C546 1.388 . S
C552 C549 1.353 1_556 S
C552 N550 1.353 1_556 S
C553 C547 1.363 1_554 S
C553 C548 1.379 . S
C553 N551 1.356 . S
N554 C546 1.356 . S
N554 H560 0.984 . S
N554 H561 0.984 1_565 S
N555 C548 1.356 . S
N555 H558 0.984 . S
N555 H559 0.985 . S
H556 N551 0.984 1_556 S
H557 N551 0.985 . S
H558 N555 0.984 . S
H559 N555 0.985 . S
H560 N554 0.984 . S
H561 N554 0.984 1_545 S
H562 N550 0.984 1_556 S
H563 N550 0.985 . S
C564 C565 1.363 . S
C564 C570 1.379 . S
C564 N572 1.356 . S
C565 C564 1.363 . S
C565 C571 1.363 . S
C566 C567 1.363 . S
C566 C571 1.379 . S
C566 N573 1.356 . S
C567 C566 1.363 . S
C567 C570 1.363 . S
N568 C570 1.356 . S
N568 H580 0.984 . S
N568 H581 0.985 . S
N569 C571 1.356 . S
N569 H574 0.984 . S
N569 H575 0.985 . S
C570 C564 1.379 . S
C570 C567 1.363 . S
C570 N568 1.356 . S
C571 C565 1.363 . S
C571 C566 1.379 . S
C571 N569 1.356 . S
N572 C564 1.356 . S
N572 H578 0.984 . S
N572 H579 0.984 . S
N573 C566 1.356 . S
N573 H576 0.984 . S
N573 H577 0.985 . S
H574 N569 0.984 . S
H575 N569 0.985 . S
H576 N573 0.984 . S
H577 N573 0.985 . S
H578 N572 0.984 . S
H579 N572 0.984 . S
H580 N568 0.984 . S
H581 N568 0.985 . S
C582 C583 1.363 1_556 S
C582 C588 1.379 . S
C582 N590 1.356 1_656 S
C583 C582 1.363 1_554 S
C583 C589 1.363 . S
C584 C585 1.363 . S
C584 C589 1.379 1_556 S
C584 N591 1.356 . S
C585 C584 1.363 . S
C585 C588 1.363 . S
N586 C588 1.356 . S
N586 H598 0.984 . S
N586 H599 0.985 . S
N587 C589 1.356 . S
N587 H592 0.984 1_655 S
N587 H593 0.985 . S
C588 C582 1.379 . S
C588 C585 1.363 . S
C588 N586 1.356 . S
C589 C583 1.363 . S
C589 C584 1.379 1_554 S
C589 N587 1.356 . S
N590 C582 1.356 1_454 S
N590 H596 0.993 1_455 S
N590 H597 0.984 . S
N591 C584 1.356 . S
N591 H594 0.984 . S
N591 H595 0.985 . S
H592 N587 0.984 1_455 S
H593 N587 0.985 . S
H594 N591 0.984 . S
H595 N591 0.985 . S
H596 N590 0.993 1_655 S
H597 N590 0.984 . S
H598 N586 0.984 . S
H599 N586 0.985 . S
C600 C601 1.363 1_565 S
C600 C606 1.379 . S
C600 N608 1.356 . S
C601 C600 1.363 1_545 S
C601 C607 1.363 . S
C602 C603 1.363 . S
C602 C607 1.379 1_565 S
C602 N609 1.356 . S
C603 C602 1.363 . S
C603 C606 1.363 . S
N604 C606 1.356 . S
N604 H616 0.984 . S
N604 H617 0.985 . S
N605 C607 1.356 . S
N605 H610 0.984 . S
N605 H611 0.985 . S
C606 C600 1.379 . S
C606 C603 1.363 . S
C606 N604 1.356 . S
C607 C601 1.363 . S
C607 C602 1.379 1_545 S
C607 N605 1.356 . S
N608 C600 1.356 . S
N608 H614 0.984 . S
N608 H615 0.984 1_565 S
N609 C602 1.356 . S
N609 H612 0.984 . S
N609 H613 0.985 . S
H610 N605 0.984 . S
H611 N605 0.985 . S
H612 N609 0.984 . S
H613 N609 0.985 . S
H614 N608 0.984 . S
H615 N608 0.984 1_545 S
H616 N604 0.984 . S
H617 N604 0.985 . S
C187 C11 1.336 . S
C189 C148 1.431 . S
C205 C179 1.420 . S
C207 C49 1.418 . S
C223 C24 1.434 . S
C225 C80 1.432 . S
C241 C31 1.391 . S
C243 C104 1.363 . S
C259 C135 1.369 . S
C261 C62 1.385 . S
C277 C166 1.329 . S
C279 C117 1.394 . S
C295 C18 1.097 . S
C297 C124 1.174 . S
C313 C42 1.089 . S
C315 C155 1.129 . S
C331 C0 1.256 . S
C333 C73 1.247 . S
C349 C55 1.150 . S
C351 C111 1.084 . S
C367 C86 1.147 . S
C369 C142 1.119 . S
C385 C173 1.085 . S
C387 C93 1.157 . S
C403 C2 1.884 . S
C405 C165 1.944 . S
C421 C32 1.895 . S
C423 C10 1.825 . S
C439 C63 1.710 . S
C441 C58 1.628 . S
C457 C95 1.713 . S
C459 C89 1.739 . S
C475 C103 1.867 . S
C477 C126 1.794 . S
C493 C157 1.717 . S
C495 C134 1.776 . S
C511 C120 1.455 . S
C513 C64 1.409 . S
C529 C151 1.427 . S
C531 C94 1.330 . S
C547 C182 1.494 . S
C549 C125 1.415 . S
C565 C156 1.353 . S
C567 C27 1.394 . S
C583 C1 1.325 1_655 S
C585 C41 1.317 . S
C601 C33 1.567 . S
C603 C72 1.508 . S
