# Generated by pormake.
# Topology qtz-e, (6)-cn, num edge types: 1
# Building blocks:
#     Node 0, Type 0, BuildingBlock: BETGAK_clean_sbu_0, # of connection points: 6
#     Node 1, Type 0, BuildingBlock: BETGAK_clean_sbu_0, # of connection points: 6
#     Node 2, Type 0, BuildingBlock: BETGAK_clean_sbu_0, # of connection points: 6
#     Node 3, Type 0, BuildingBlock: BETGAK_clean_sbu_0, # of connection points: 6
#     Node 4, Type 0, BuildingBlock: BETGAK_clean_sbu_0, # of connection points: 6
#     Node 5, Type 0, BuildingBlock: BETGAK_clean_sbu_0, # of connection points: 6
#     Edge 6, Type (0, 0), BuildingBlock: CIFDUS_clean_linker_0, # of connection points: 2
#     Edge 7, Type (0, 0), BuildingBlock: CIFDUS_clean_linker_0, # of connection points: 2
#     Edge 8, Type (0, 0), BuildingBlock: CIFDUS_clean_linker_0, # of connection points: 2
#     Edge 9, Type (0, 0), BuildingBlock: CIFDUS_clean_linker_0, # of connection points: 2
#     Edge 10, Type (0, 0), BuildingBlock: CIFDUS_clean_linker_0, # of connection points: 2
#     Edge 11, Type (0, 0), BuildingBlock: CIFDUS_clean_linker_0, # of connection points: 2
#     Edge 12, Type (0, 0), BuildingBlock: CIFDUS_clean_linker_0, # of connection points: 2
#     Edge 13, Type (0, 0), BuildingBlock: CIFDUS_clean_linker_0, # of connection points: 2
#     Edge 14, Type (0, 0), BuildingBlock: CIFDUS_clean_linker_0, # of connection points: 2
#     Edge 15, Type (0, 0), BuildingBlock: CIFDUS_clean_linker_0, # of connection points: 2
#     Edge 16, Type (0, 0), BuildingBlock: CIFDUS_clean_linker_0, # of connection points: 2
#     Edge 17, Type (0, 0), BuildingBlock: CIFDUS_clean_linker_0, # of connection points: 2
#     Edge 18, Type (0, 0), BuildingBlock: CIFDUS_clean_linker_0, # of connection points: 2
#     Edge 19, Type (0, 0), BuildingBlock: CIFDUS_clean_linker_0, # of connection points: 2
#     Edge 20, Type (0, 0), BuildingBlock: CIFDUS_clean_linker_0, # of connection points: 2
#     Edge 21, Type (0, 0), BuildingBlock: CIFDUS_clean_linker_0, # of connection points: 2
#     Edge 22, Type (0, 0), BuildingBlock: CIFDUS_clean_linker_0, # of connection points: 2
#     Edge 23, Type (0, 0), BuildingBlock: CIFDUS_clean_linker_0, # of connection points: 2
# Relax obj value: 0.200
# Max RMSD: 0.217
# Mean RMSD: 0.217
data_MOF--net-qtz-e--node1-BETGAK_clean_sbu_0--edge1-CIFDUS_clean_linker_0
_symmetry_space_group_name_H-M    P1
_symmetry_Int_Tables_number       1
_symmetry_cell_setting            triclinic
loop_
_symmetry_equiv_pos_as_xyz
'x, y, z'
_cell_length_a     22.381419
_cell_length_b     22.342179
_cell_length_c     46.695685
_cell_angle_alpha  90.030546
_cell_angle_beta   89.723399
_cell_angle_gamma 119.73941
loop_
_atom_site_label
_atom_site_type_symbol
_atom_site_fract_x
_atom_site_fract_y
_atom_site_fract_z
_atom_type_partial_charge
La0 La 0.18528 0.53095 0.20519 0.0
La1 La 0.15778 0.39044 0.18613 0.0
C2 C 0.17014 0.62303 0.22894 0.0
C3 C 0.18388 0.64375 0.25922 0.0
C4 C 0.23472 0.63678 0.27397 0.0
C5 C 0.24577 0.65198 0.3031 0.0
C6 C 0.20565 0.67371 0.3183 0.0
C7 C 0.15373 0.67928 0.30356 0.0
C8 C 0.14318 0.66479 0.27424 0.0
C9 C 0.29431 0.51694 0.20849 0.0
C10 C 0.12046 0.40052 0.24946 0.0
C11 C 0.16455 0.29473 0.16006 0.0
C12 C 0.17815 0.28407 0.12966 0.0
C13 C 0.12575 0.2613 0.10899 0.0
C14 C 0.13832 0.25105 0.08048 0.0
C15 C 0.20355 0.26285 0.07173 0.0
C16 C 0.25601 0.2856 0.09242 0.0
C17 C 0.24343 0.29593 0.12099 0.0
C18 C 0.05622 0.41809 0.18019 0.0
C19 C 0.22916 0.51946 0.14338 0.0
O20 O 0.2244 0.63605 0.21356 0.0
O21 O 0.11887 0.56061 0.22456 0.0
O22 O 0.29502 0.57512 0.208 0.0
O23 O 0.23274 0.46926 0.21279 0.0
O24 O 0.13463 0.46393 0.24259 0.0
O25 O 0.13271 0.36209 0.23129 0.0
O26 O 0.10716 0.29487 0.16521 0.0
O27 O 0.21576 0.34292 0.17459 0.0
O28 O 0.04755 0.35839 0.18747 0.0
O29 O 0.11862 0.45785 0.17536 0.0
O30 O 0.22074 0.45926 0.15171 0.0
O31 O 0.20631 0.55346 0.15919 0.0
H32 H 0.26545 0.61853 0.26305 0.0
H33 H 0.28478 0.64516 0.31383 0.0
H34 H 0.1212 0.69484 0.31466 0.0
H35 H 0.10271 0.66905 0.26343 0.0
H36 H 0.07473 0.25144 0.11476 0.0
H37 H 0.09686 0.23461 0.06521 0.0
H38 H 0.30669 0.29445 0.08666 0.0
H39 H 0.28486 0.31302 0.13633 0.0
La40 La 0.85663 0.3855 0.44828 0.0
La41 La 0.88453 0.27027 0.46505 0.0
C42 C 0.86847 0.49264 0.42598 0.0
C43 C 0.85384 0.49988 0.39594 0.0
C44 C 0.80611 0.4412 0.38085 0.0
C45 C 0.79577 0.44505 0.35168 0.0
C46 C 0.83345 0.50758 0.33682 0.0
C47 C 0.88168 0.56627 0.35198 0.0
C48 C 0.89171 0.56251 0.38135 0.0
C49 C 0.74838 0.26214 0.44421 0.0
C50 C 0.92935 0.32958 0.4034 0.0
C51 C 0.87505 0.16449 0.4894 0.0
C52 C 0.85917 0.13826 0.51936 0.0
C53 C 0.86821 0.1829 0.54222 0.0
C54 C 0.85582 0.1588 0.57056 0.0
C55 C 0.83446 0.08934 0.57694 0.0
C56 C 0.82513 0.04465 0.55392 0.0
C57 C 0.83721 0.06884 0.52549 0.0
C58 C 0.9867 0.3977 0.47132 0.0
C59 C 0.81954 0.33207 0.51012 0.0
O60 O 0.81489 0.45003 0.44131 0.0
O61 O 0.92083 0.48264 0.42972 0.0
O62 O 0.7468 0.31897 0.44622 0.0
O63 O 0.81004 0.27713 0.4392 0.0
O64 O 0.91216 0.3759 0.41151 0.0
O65 O 0.91475 0.27488 0.4196 0.0
O66 O 0.93273 0.22229 0.48578 0.0
O67 O 0.82506 0.164 0.47474 0.0
O68 O 0.99504 0.34632 0.4641 0.0
O69 O 0.9245 0.37591 0.47652 0.0
O70 O 0.82499 0.27881 0.50096 0.0
O71 O 0.84192 0.38844 0.4943 0.0
H72 H 0.77775 0.39169 0.39149 0.0
H73 H 0.75967 0.39844 0.34062 0.0
H74 H 0.912 0.61496 0.34113 0.0
H75 H 0.92987 0.60795 0.39248 0.0
H76 H 0.88594 0.2369 0.53824 0.0
H77 H 0.86454 0.19524 0.58754 0.0
H78 H 0.80792 0.99073 0.55783 0.0
H79 H 0.82992 0.03334 0.50828 0.0
La80 La 0.52626 0.69068 0.87261 0.0
La81 La 0.66636 0.76819 0.84583 0.0
C82 C 0.40701 0.61502 0.89241 0.0
C83 C 0.37762 0.61005 0.92148 0.0
C84 C 0.37434 0.66601 0.93376 0.0
C85 C 0.35102 0.66232 0.96195 0.0
C86 C 0.33105 0.60292 0.97859 0.0
C87 C 0.33296 0.54652 0.96609 0.0
C88 C 0.35574 0.54998 0.93785 0.0
C89 C 0.58842 0.82744 0.87892 0.0
C90 C 0.65332 0.72136 0.91154 0.0
C91 C 0.77804 0.85532 0.82271 0.0
C92 C 0.79127 0.88715 0.79368 0.0
C93 C 0.84855 0.89674 0.77765 0.0
C94 C 0.85782 0.92034 0.74921 0.0
C95 C 0.80953 0.93429 0.73585 0.0
C96 C 0.75291 0.92595 0.75229 0.0
C97 C 0.74411 0.90304 0.78079 0.0
C98 C 0.59678 0.63535 0.83348 0.0
C99 C 0.53926 0.73431 0.80804 0.0
O100 O 0.42532 0.67198 0.87815 0.0
O101 O 0.45277 0.59497 0.89 0.0
O102 O 0.55288 0.78246 0.89845 0.0
O103 O 0.58975 0.79385 0.85763 0.0
O104 O 0.58587 0.68547 0.90806 0.0
O105 O 0.69507 0.76109 0.89069 0.0
O106 O 0.7564 0.78909 0.82324 0.0
O107 O 0.74354 0.87189 0.84078 0.0
O108 O 0.63904 0.68274 0.81616 0.0
O109 O 0.59835 0.66219 0.85742 0.0
O110 O 0.60307 0.78067 0.81432 0.0
O111 O 0.50077 0.68479 0.82652 0.0
H112 H 0.39105 0.71332 0.92185 0.0
H113 H 0.35059 0.70675 0.97099 0.0
H114 H 0.317 0.49962 0.97822 0.0
H115 H 0.35744 0.50604 0.92896 0.0
H116 H 0.88571 0.88491 0.78699 0.0
H117 H 0.90295 0.9274 0.73768 0.0
H118 H 0.71413 0.93528 0.74296 0.0
H119 H 0.69955 0.89657 0.79255 0.0
La120 La 0.66096 0.48286 0.11421 0.0
La121 La 0.77736 0.62605 0.12841 0.0
C122 C 0.5518 0.38683 0.09419 0.0
C123 C 0.54154 0.36325 0.06436 0.0
C124 C 0.59943 0.38265 0.04675 0.0
C125 C 0.59163 0.36522 1.01782 0.0
C126 C 0.52575 0.32861 1.00587 0.0
C127 C 0.4677 0.3085 1.02361 0.0
C128 C 0.47556 0.32585 0.05269 0.0
C129 C 0.78352 0.49602 0.10797 0.0
C130 C 0.71753 0.60774 0.06745 0.0
C131 C 0.88362 0.72038 0.15213 0.0
C132 C 0.9067 0.7305 0.18266 0.0
C133 C 0.87596 0.75278 0.20328 0.0
C134 C 0.89528 0.7595 0.23211 0.0
C135 C 0.94616 0.7444 0.24135 0.0
C136 C 0.97793 0.72329 0.22067 0.0
C137 C 0.95831 0.71624 0.19173 0.0
C138 C 0.65033 0.60222 0.13736 0.0
C139 C 0.72211 0.50429 0.1749 0.0
O140 O 0.5963 0.37663 0.10837 0.0
O141 O 0.5621 0.44941 0.09776 0.0
O142 O 0.72679 0.43823 0.1107 0.0
O143 O 0.76803 0.54254 0.10321 0.0
O144 O 0.66912 0.54665 0.07694 0.0
O145 O 0.77352 0.64718 0.08271 0.0
O146 O 0.82887 0.72508 0.14652 0.0
O147 O 0.88271 0.66886 0.13835 0.0
O148 O 0.70094 0.66088 0.12893 0.0
O149 O 0.67277 0.56199 0.14213 0.0
O150 O 0.77343 0.56176 0.16435 0.0
O151 O 0.66393 0.46868 0.1605 0.0
H152 H 0.65093 0.41256 0.0553 0.0
H153 H 0.63717 0.38216 1.00461 0.0
H154 H 0.41632 0.27949 1.01493 0.0
H155 H 0.4304 0.31098 0.06591 0.0
H156 H 0.83636 0.76474 0.19728 0.0
H157 H 0.87052 0.77724 0.24716 0.0
H158 H 0.01692 0.71068 0.22693 0.0
H159 H 0.98306 0.69888 0.17648 0.0
La160 La 0.37809 0.85947 0.53803 0.0
La161 La 0.26422 0.88599 0.51795 0.0
C162 C 0.48671 0.87663 0.56083 0.0
C163 C 0.5023 0.87216 0.59128 0.0
C164 C 0.50448 0.91978 0.61154 0.0
C165 C 0.51025 0.90985 0.6407 0.0
C166 C 0.51349 0.85188 0.65037 0.0
C167 C 0.51366 0.80557 0.63001 0.0
C168 C 0.5084 0.81578 0.60079 0.0
C169 C 0.25592 0.75062 0.5409 0.0
C170 C 0.30603 0.91955 0.5818 0.0
C171 C 0.16272 0.8743 0.48997 0.0
C172 C 0.14298 0.85757 0.45923 0.0
C173 C 0.1833 0.90286 0.43719 0.0
C174 C 0.16505 0.88683 0.40839 0.0
C175 C 0.10595 0.82495 0.40058 0.0
C176 C 0.06573 0.77939 0.42261 0.0
C177 C 0.08405 0.7955 0.45153 0.0
C178 C 0.3924 0.98814 0.51222 0.0
C179 C 0.32395 0.8142 0.47635 0.0
O180 O 0.44094 0.8183 0.54936 0.0
O181 O 0.47692 0.9279 0.55357 0.0
O182 O 0.31308 0.74932 0.54022 0.0
O183 O 0.26958 0.81222 0.54509 0.0
O184 O 0.35656 0.90641 0.57564 0.0
O185 O 0.25753 0.90897 0.56292 0.0
O186 O 0.21787 0.93335 0.4953 0.0
O187 O 0.16014 0.82488 0.50591 0.0
O188 O 0.34079 0.99668 0.51878 0.0
O189 O 0.37076 0.92556 0.50785 0.0
O190 O 0.27247 0.82328 0.48434 0.0
O191 O 0.37996 0.83644 0.49232 0.0
H192 H 0.49979 0.96379 0.60504 0.0
H193 H 0.51045 0.94686 0.65571 0.0
H194 H 0.51787 0.76137 0.63664 0.0
H195 H 0.50722 0.77845 0.58565 0.0
H196 H 0.22917 0.9511 0.44211 0.0
H197 H 0.1969 0.92382 0.39222 0.0
H198 H 0.0204 0.73086 0.41751 0.0
H199 H 0.05214 0.75924 0.46792 0.0
La200 La 0.5173 0.18228 0.77964 0.0
La201 La 0.37396 0.1209 0.80347 0.0
C202 C 0.63742 0.22236 0.76183 0.0
C203 C 0.6649 0.23855 0.73229 0.0
C204 C 0.6503 0.28031 0.71438 0.0
C205 C 0.66868 0.28819 0.68542 0.0
C206 C 0.70135 0.25396 0.67367 0.0
C207 C 0.71767 0.2138 0.69176 0.0
C208 C 0.69966 0.20625 0.7208 0.0
C209 C 0.45757 0.25926 0.77267 0.0
C210 C 0.39488 0.0861 0.73894 0.0
C211 C 0.26073 0.09892 0.82385 0.0
C212 C 0.24402 0.11626 0.85256 0.0
C213 C 0.20028 0.06314 0.87126 0.0
C214 C 0.18808 0.07773 0.89918 0.0
C215 C 0.21856 0.14618 0.90925 0.0
C216 C 0.26207 0.1995 0.89033 0.0
C217 C 0.27488 0.18476 0.86246 0.0
C218 C 0.43973 0.05402 0.81654 0.0
C219 C 0.49705 0.20685 0.84423 0.0
O220 O 0.61808 0.26364 0.77318 0.0
O221 O 0.59256 0.15754 0.76663 0.0
O222 O 0.49415 0.24983 0.75352 0.0
O223 O 0.45354 0.22279 0.79379 0.0
O224 O 0.46161 0.11609 0.744 0.0
O225 O 0.35081 0.08674 0.75808 0.0
O226 O 0.28034 0.05256 0.82373 0.0
O227 O 0.29822 0.15036 0.80643 0.0
O228 O 0.39561 0.05819 0.8332 0.0
O229 O 0.44164 0.0821 0.79294 0.0
O230 O 0.43405 0.19134 0.8371 0.0
O231 O 0.53743 0.19771 0.82603 0.0
H232 H 0.62274 0.30524 0.72248 0.0
H233 H 0.65488 0.31894 0.67198 0.0
H234 H 0.74366 0.18759 0.68336 0.0
H235 H 0.71104 0.17345 0.73411 0.0
H236 H 0.17648 0.00986 0.86445 0.0
H237 H 0.15565 0.03478 0.91303 0.0
H238 H 0.28606 0.25291 0.89689 0.0
H239 H 0.30957 0.22716 0.84879 0.0
H240 H 0.20505 0.72933 0.45041 0.0
H241 H 0.42496 0.82831 0.43813 0.0
H242 H 0.40723 0.79065 0.38784 0.0
H243 H 0.32871 0.73937 0.34663 0.0
H244 H 0.10902 0.64324 0.36023 0.0
H245 H 0.12759 0.67268 0.41083 0.0
C246 C 0.24943 0.74237 0.43687 0.0
C247 C 0.31641 0.78221 0.44789 0.0
C248 C 0.23878 0.72248 0.40814 0.0
C249 C 0.37302 0.7975 0.43018 0.0
C250 C 0.36277 0.7766 0.4014 0.0
C251 C 0.28481 0.72388 0.36072 0.0
C252 C 0.21748 0.68963 0.34943 0.0
C253 C 0.29584 0.74055 0.39 0.0
C254 C 0.16136 0.67084 0.36805 0.0
C255 C 0.17188 0.68705 0.39709 0.0
H256 H 0.75691 0.36767 0.63909 0.0
H257 H 0.67586 0.1476 0.63806 0.0
H258 H 0.70087 0.15219 0.58691 0.0
H259 H 0.75012 0.21873 0.54323 0.0
H260 H 0.83264 0.43906 0.54352 0.0
H261 H 0.80122 0.43413 0.59415 0.0
C262 C 0.74438 0.32076 0.62759 0.0
C263 C 0.71557 0.25753 0.64244 0.0
C264 C 0.75903 0.32375 0.59813 0.0
C265 C 0.69948 0.19709 0.62726 0.0
C266 C 0.71329 0.19957 0.59799 0.0
C267 C 0.76122 0.2658 0.55429 0.0
C268 C 0.79445 0.32932 0.53972 0.0
C269 C 0.74396 0.26269 0.58335 0.0
C270 C 0.80719 0.38954 0.55426 0.0
C271 C 0.78958 0.38678 0.58325 0.0
H272 H 0.20343 0.59136 0.10175 0.0
H273 H 0.3298 0.50089 0.12145 0.0
H274 H 0.37496 0.52204 0.07293 0.0
H275 H 0.37216 0.55695 1.0238 0.0
H276 H 0.24434 0.64413 1.00204 0.0
H277 H 0.20672 0.6341 0.05209 0.0
C278 C 0.24196 0.57787 0.09549 0.0
C279 C 0.26329 0.5448 0.11525 0.0
C280 C 0.26676 0.58851 0.06696 0.0
C281 C 0.31256 0.52658 0.10672 0.0
C282 C 0.33824 0.53822 0.07887 0.0
C283 C 0.33589 0.57359 1.02997 0.0
C284 C 0.31034 0.60024 1.00914 0.0
C285 C 0.31437 0.56737 0.05862 0.0
C286 C 0.26473 0.62325 1.01766 0.0
C287 C 0.24307 0.61738 0.04629 0.0
H288 H 0.71287 0.44402 0.30703 0.0
H289 H 0.93205 0.57732 0.29604 0.0
H290 H 0.91645 0.58185 0.24467 0.0
H291 H 0.84121 0.55169 0.20341 0.0
H292 H 0.62174 0.42009 0.2134 0.0
H293 H 0.63734 0.40869 0.26473 0.0
C294 C 0.75736 0.47351 0.29337 0.0
C295 C 0.82355 0.5106 0.3055 0.0
C296 C 0.7481 0.47564 0.26374 0.0
C297 C 0.88043 0.54933 0.28747 0.0
C298 C 0.87164 0.55153 0.25803 0.0
C299 C 0.79653 0.52009 0.21671 0.0
C300 C 0.73019 0.48725 0.20468 0.0
C301 C 0.80576 0.5154 0.24604 0.0
C302 C 0.67326 0.44568 0.22215 0.0
C303 C 0.68218 0.43978 0.2515 0.0
H304 H 0.57676 0.85364 0.7815 0.0
H305 H 0.44515 0.6344 0.77196 0.0
H306 H 0.4222 0.65191 0.72203 0.0
H307 H 0.44891 0.72989 0.68016 0.0
H308 H 0.58746 0.94837 0.69079 0.0
H309 H 0.59783 0.93084 0.74149 0.0
C310 C 0.54245 0.80957 0.76863 0.0
C311 C 0.51319 0.74278 0.78023 0.0
C312 C 0.53138 0.82003 0.74011 0.0
C313 C 0.46794 0.68631 0.76349 0.0
C314 C 0.45555 0.69638 0.73491 0.0
C315 C 0.48167 0.77358 0.69355 0.0
C316 C 0.51763 0.8404 0.68152 0.0
C317 C 0.48866 0.76297 0.72278 0.0
C318 C 0.55864 0.89657 0.69938 0.0
C319 C 0.56499 0.88657 0.72839 0.0
H320 H 0.59116 0.27774 0.97267 0.0
H321 H 0.44506 0.35015 0.96909 0.0
H322 H 0.42713 0.32287 0.91821 0.0
H323 H 0.44919 0.27452 0.87563 0.0
H324 H 0.5957 0.20234 0.87763 0.0
H325 H 0.61957 0.23599 0.92822 0.0
C326 C 0.55579 0.28788 0.96064 0.0
C327 C 0.51776 0.31401 0.97475 0.0
C328 C 0.54658 0.27292 0.93121 0.0
C329 C 0.47255 0.32745 0.95894 0.0
C330 C 0.46309 0.31278 0.9298 0.0
C331 C 0.48677 0.26644 0.88703 0.0
C332 C 0.52027 0.23544 0.87309 0.0
C333 C 0.49908 0.28467 0.91588 0.0
C334 C 0.56955 0.2264 0.88796 0.0
C335 C 0.58266 0.24506 0.91689 0.0
H336 H 0.3816 0.60653 0.17039 0.0
H337 H 0.3339 0.41745 0.21372 0.0
H338 H 0.43907 0.42431 0.19326 0.0
H339 H 0.54998 0.49154 0.16657 0.0
H340 H 0.59471 0.6824 0.12539 0.0
H341 H 0.48418 0.66715 0.14151 0.0
C342 C 0.3937 0.56637 0.17543 0.0
C343 C 0.35058 0.51198 0.19392 0.0
C344 C 0.45382 0.57144 0.16407 0.0
C345 C 0.36636 0.45976 0.19956 0.0
C346 C 0.4266 0.46405 0.188 0.0
C347 C 0.5351 0.52937 0.16099 0.0
C348 C 0.58076 0.58869 0.14515 0.0
C349 C 0.47161 0.52075 0.17079 0.0
C350 C 0.56084 0.63701 0.13782 0.0
C351 C 0.49771 0.62827 0.14702 0.0
H352 H 0.25809 0.66735 0.5007 0.0
H353 H 0.11839 0.71085 0.54823 0.0
H354 H 0.02009 0.60688 0.52791 0.0
H355 H 0.97658 0.49727 0.50089 0.0
H356 H 0.12049 0.45488 0.45594 0.0
H357 H 0.21551 0.56626 0.47083 0.0
C358 C 0.20613 0.65459 0.50657 0.0
C359 C 0.19515 0.69577 0.5263 0.0
C360 C 0.15116 0.59503 0.49535 0.0
C361 C 0.12774 0.67952 0.53315 0.0
C362 C 0.07188 0.62008 0.52165 0.0
C363 C 0.02872 0.51291 0.49416 0.0
C364 C 0.04211 0.46778 0.47777 0.0
C365 C 0.08326 0.57638 0.50341 0.0
C366 C 0.10946 0.4885 0.46891 0.0
C367 C 0.1636 0.55202 0.47739 0.0
H368 H 0.45598 0.01572 0.86958 0.0
H369 H 0.51907 0.02345 0.78163 0.0
H370 H 0.58416 0.96628 0.79477 0.0
H371 H 0.61143 0.9022 0.83021 0.0
H372 H 0.54055 0.88642 0.91741 0.0
H373 H 0.49246 0.96073 0.90594 0.0
C374 C 0.48432 0.00515 0.85334 0.0
C375 C 0.48241 0.02325 0.82464 0.0
C376 C 0.52047 0.97108 0.861 0.0
C377 C 0.51993 0.0101 0.80385 0.0
C378 C 0.55692 0.97718 0.81136 0.0
C379 C 0.58654 0.91598 0.84684 0.0
C380 C 0.57848 0.88767 0.87451 0.0
C381 C 0.55614 0.95594 0.83974 0.0
C382 C 0.54717 0.90713 0.89592 0.0
C383 C 0.51891 0.94897 0.88928 0.0
H384 H 0.58005 0.57895 0.7809 0.0
H385 H 0.52183 0.52606 0.86938 0.0
H386 H 0.46239 0.40321 0.85715 0.0
H387 H 0.43762 0.31165 0.82211 0.0
H388 H 0.50208 0.36513 0.73414 0.0
H389 H 0.54626 0.48699 0.7451 0.0
C390 C 0.55387 0.54048 0.79747 0.0
C391 C 0.55595 0.56137 0.82607 0.0
C392 C 0.52053 0.47017 0.79027 0.0
C393 C 0.52114 0.51117 0.84726 0.0
C394 C 0.48722 0.441 0.84024 0.0
C395 C 0.46012 0.34975 0.80517 0.0
C396 C 0.46727 0.32927 0.77736 0.0
C397 C 0.4879 0.41993 0.81192 0.0
C398 C 0.49608 0.37942 0.75569 0.0
C399 C 0.52198 0.44919 0.76204 0.0
H400 H 0.06533 0.52275 0.14692 0.0
H401 H 0.92348 0.34678 0.19734 0.0
H402 H 0.82844 0.36342 0.18225 0.0
H403 H 0.78451 0.41898 0.15129 0.0
H404 H 0.92111 0.58974 0.09742 0.0
H405 H 0.02042 0.58525 0.11773 0.0
C406 C 0.01363 0.48863 0.15479 0.0
C407 C 1.0009 0.43299 0.17296 0.0
C408 C 0.95881 0.49743 0.14532 0.0
C409 C 0.93408 0.38924 0.1831 0.0
C410 C 0.8799 0.39882 0.1745 0.0
C411 C 0.83603 0.45581 0.144 0.0
C412 C 0.8456 0.50408 0.12255 0.0
C413 C 0.8915 0.45135 0.15504 0.0
C414 C 0.91264 0.55214 0.11387 0.0
C415 C 0.9691 0.54911 0.12535 0.0
H416 H 0.49074 0.97951 0.48059 0.0
H417 H 0.45177 0.12083 0.52939 0.0
H418 H 0.56459 0.216 0.51575 0.0
H419 H 0.66723 0.26041 0.48647 0.0
H420 H 0.70605 0.12445 0.43395 0.0
H421 H 0.60059 0.02478 0.45303 0.0
C422 C 0.50747 0.03113 0.48841 0.0
C423 C 0.46292 0.04364 0.50574 0.0
C424 C 0.57185 0.08606 0.47976 0.0
C425 C 0.48491 0.11038 0.51581 0.0
C426 C 0.54934 0.16463 0.50805 0.0
C427 C 0.65315 0.20892 0.47924 0.0
C428 C 0.69371 0.19968 0.45849 0.0
C429 C 0.59214 0.15327 0.48947 0.0
C430 C 0.67553 0.13268 0.44988 0.0
C431 C 0.61505 0.07601 0.46062 0.0
H432 H 0.3054 0.25082 0.94566 0.0
H433 H 0.09951 0.07613 0.94098 0.0
H434 H 0.07793 0.09537 0.99025 0.0
H435 H 0.11712 0.1603 0.03522 0.0
H436 H 0.31928 0.34027 0.03902 0.0
H437 H 0.34084 0.32164 0.98952 0.0
C438 C 0.25534 0.21737 0.95511 0.0
C439 C 0.20477 0.1612 0.93926 0.0
C440 C 0.24228 0.2296 0.98353 0.0
C441 C 0.14057 0.11849 0.95251 0.0
C442 C 0.12773 0.12981 0.98078 0.0
C443 C 0.16592 0.19582 1.02524 0.0
C444 C 0.21659 0.25137 0.04121 0.0
C445 C 0.17831 0.18486 0.9966 0.0
C446 C 0.27966 0.29619 1.02771 0.0
C447 C 0.29215 0.28561 0.99925 0.0
H448 H 0.9452 0.24574 0.36188 0.0
H449 H 0.01475 0.45788 0.38451 0.0
H450 H 0.08073 0.49714 0.34075 0.0
H451 H 0.11552 0.47414 0.29475 0.0
H452 H 0.05022 0.26525 0.26936 0.0
H453 H 0.98752 0.22282 0.31498 0.0
C454 C 0.97523 0.30041 0.35731 0.0
C455 C 0.97325 0.34825 0.37671 0.0
C456 C 0.01421 0.32383 0.33132 0.0
C457 C 0.01327 0.41912 0.37011 0.0
C458 C 0.05173 0.44215 0.34493 0.0
C459 C 0.08801 0.41916 0.29906 0.0
C460 C 0.08773 0.37321 0.27828 0.0
C461 C 0.05182 0.39523 0.32516 0.0
C462 C 0.0519 0.30221 0.28481 0.0
C463 C 0.01558 0.27783 0.31095 0.0
H464 H 0.77495 0.02376 0.70986 0.0
H465 H 0.86101 0.89247 0.69128 0.0
H466 H 0.87574 0.9278 0.64122 0.0
H467 H 0.8658 0.99711 0.60235 0.0
H468 H 0.77637 0.12514 0.62073 0.0
H469 H 0.76027 0.0888 0.6707 0.0
C470 C 0.79623 1.00205 0.69492 0.0
C471 C 0.81738 0.95574 0.70486 0.0
C472 C 0.80392 0.02197 0.66583 0.0
C473 C 0.84564 0.92935 0.6848 0.0
C474 C 0.85359 0.94909 0.65593 0.0
C475 C 0.8421 0.01662 0.61716 0.0
C476 C 0.82257 0.0643 0.60746 0.0
C477 C 0.83319 0.9956 0.64616 0.0
C478 C 0.79279 0.08931 0.62736 0.0
C479 C 0.78338 0.06836 0.65608 0.0
H480 H 0.57998 0.6576 0.95931 0.0
H481 H 0.78881 0.76681 0.92782 0.0
H482 H 0.82946 0.74577 0.97359 0.0
H483 H 0.80385 0.69037 1.02268 0.0
H484 H 0.59201 0.5803 0.05109 0.0
H485 H 0.55526 0.60787 1.0068 0.0
C486 C 0.63461 0.67721 0.96222 0.0
C487 C 0.68096 0.71351 0.93975 0.0
C488 C 0.65738 0.66446 0.98837 0.0
C489 C 0.75159 0.73868 0.94453 0.0
C490 C 0.7749 0.72645 0.97079 0.0
C491 C 0.7499 0.67314 1.0192 0.0
C492 C 0.70089 0.63252 0.04039 0.0
C493 C 0.72812 0.68863 0.99293 0.0
C494 C 0.63106 0.61062 0.03527 0.0
C495 C 0.60967 0.62649 1.00984 0.0
H496 H 0.97695 0.76515 0.37679 0.0
H497 H 0.19108 0.8494 0.35424 0.0
H498 H 0.16125 0.83208 0.30356 0.0
H499 H 0.07453 0.79446 0.26519 0.0
H500 H 0.86023 0.70787 0.28796 0.0
H501 H 0.89007 0.72444 0.33858 0.0
C502 C 0.01713 0.77887 0.36087 0.0
C503 C 0.0864 0.80925 0.36961 0.0
C504 C 0.99961 0.76848 0.33156 0.0
C505 C 0.1375 0.82731 0.34837 0.0
C506 C 0.12044 0.81713 0.31926 0.0
C507 C 0.03418 0.77836 0.28119 0.0
C508 C 0.96514 0.75064 0.27246 0.0
C509 C 0.05166 0.78778 0.31054 0.0
C510 C 0.91393 0.7308 0.29377 0.0
C511 C 0.93092 0.73996 0.32286 0.0
H512 H 0.30989 0.08289 0.69475 0.0
H513 H 0.428 0.99051 0.72428 0.0
H514 H 0.40656 0.92709 0.67963 0.0
H515 H 0.36514 0.90632 0.63031 0.0
H516 H 0.24694 0.99678 0.59901 0.0
H517 H 0.25804 0.0525 0.64558 0.0
C518 C 0.32988 0.04803 0.69147 0.0
C519 C 0.37071 0.04166 0.71292 0.0
C520 C 0.3188 0.01246 0.66502 0.0
C521 C 0.3968 0.99674 0.70815 0.0
C522 C 0.38502 0.96071 0.68247 0.0
C523 C 0.34133 0.93786 0.63363 0.0
C524 C 0.30581 0.9477 0.61092 0.0
C525 C 0.3479 0.96962 0.66043 0.0
C526 C 0.27456 0.98808 0.61599 0.0
C527 C 0.28118 0.02029 0.64267 0.0
loop_
_geom_bond_atom_site_label_1
_geom_bond_atom_site_label_2
_geom_bond_distance
_geom_bond_site_symmetry_2
_ccdc_geom_bond_type
La0 C2 2.928 . S
La0 O20 2.521 . S
La0 O21 2.628 . S
La0 O22 2.554 . S
La0 O23 2.757 . S
La0 O24 2.470 . S
La0 O29 2.482 . S
La0 O31 2.503 . S
La1 C11 2.928 . S
La1 O23 2.482 . S
La1 O25 2.503 . S
La1 O26 2.521 . S
La1 O27 2.628 . S
La1 O28 2.554 1_455 S
La1 O29 2.757 . S
La1 O30 2.470 . S
C2 La0 2.928 . S
C2 C3 1.503 . S
C2 O20 1.261 . S
C2 O21 1.243 . S
C3 C2 1.503 . S
C3 C4 1.394 . S
C3 C8 1.373 . S
C4 C3 1.394 . S
C4 C5 1.380 . S
C4 H32 0.930 . S
C5 C4 1.380 . S
C5 C6 1.376 . S
C5 H33 0.930 . S
C6 C5 1.376 . S
C6 C7 1.370 . S
C7 C6 1.370 . S
C7 C8 1.396 . S
C7 H34 0.929 . S
C8 C3 1.373 . S
C8 C7 1.396 . S
C8 H35 0.929 . S
C9 O22 1.240 . S
C9 O23 1.289 . S
C10 O24 1.258 . S
C10 O25 1.256 . S
C11 La1 2.928 . S
C11 C12 1.503 . S
C11 O26 1.261 . S
C11 O27 1.243 . S
C12 C11 1.503 . S
C12 C13 1.394 . S
C12 C17 1.373 . S
C13 C12 1.394 . S
C13 C14 1.380 . S
C13 H36 0.930 1_455 S
C14 C13 1.380 . S
C14 C15 1.376 . S
C14 H37 0.930 1_455 S
C15 C14 1.376 . S
C15 C16 1.370 . S
C16 C15 1.370 . S
C16 C17 1.396 . S
C16 H38 0.929 . S
C17 C12 1.373 . S
C17 C16 1.396 . S
C17 H39 0.929 . S
C18 O28 1.240 . S
C18 O29 1.289 1_655 S
C19 O30 1.258 . S
C19 O31 1.256 . S
O20 La0 2.521 . S
O20 C2 1.261 . S
O21 La0 2.628 . S
O21 C2 1.243 . S
O22 La0 2.554 . S
O22 C9 1.240 . S
O23 La0 2.757 . S
O23 La1 2.482 . S
O23 C9 1.289 . S
O24 La0 2.470 . S
O24 C10 1.258 . S
O25 La1 2.503 . S
O25 C10 1.256 . S
O26 La1 2.521 . S
O26 C11 1.261 . S
O27 La1 2.628 . S
O27 C11 1.243 . S
O28 La1 2.554 1_655 S
O28 C18 1.240 . S
O29 La0 2.482 . S
O29 La1 2.757 . S
O29 C18 1.289 1_455 S
O30 La1 2.470 . S
O30 C19 1.258 . S
O31 La0 2.503 . S
O31 C19 1.256 . S
H32 C4 0.930 . S
H33 C5 0.930 . S
H34 C7 0.929 . S
H35 C8 0.929 . S
H36 C13 0.930 1_655 S
H37 C14 0.930 1_655 S
H38 C16 0.929 . S
H39 C17 0.929 . S
La40 C42 2.928 . S
La40 O60 2.521 . S
La40 O61 2.628 . S
La40 O62 2.554 . S
La40 O63 2.757 . S
La40 O64 2.470 . S
La40 O69 2.482 . S
La40 O71 2.503 . S
La41 C51 2.928 . S
La41 O63 2.482 . S
La41 O65 2.503 . S
La41 O66 2.521 1_655 S
La41 O67 2.628 . S
La41 O68 2.554 1_655 S
La41 O69 2.757 . S
La41 O70 2.470 . S
C42 La40 2.928 . S
C42 C43 1.503 . S
C42 O60 1.261 . S
C42 O61 1.243 . S
C43 C42 1.503 . S
C43 C44 1.394 . S
C43 C48 1.373 . S
C44 C43 1.394 . S
C44 C45 1.380 . S
C44 H72 0.930 . S
C45 C44 1.380 . S
C45 C46 1.376 . S
C45 H73 0.930 . S
C46 C45 1.376 . S
C46 C47 1.370 . S
C47 C46 1.370 . S
C47 C48 1.396 . S
C47 H74 0.929 . S
C48 C43 1.373 . S
C48 C47 1.396 . S
C48 H75 0.929 . S
C49 O62 1.240 . S
C49 O63 1.289 . S
C50 O64 1.258 . S
C50 O65 1.256 . S
C51 La41 2.928 . S
C51 C52 1.503 . S
C51 O66 1.261 1_655 S
C51 O67 1.243 . S
C52 C51 1.503 . S
C52 C53 1.394 1_655 S
C52 C57 1.373 . S
C53 C52 1.394 1_455 S
C53 C54 1.380 . S
C53 H76 0.930 . S
C54 C53 1.380 . S
C54 C55 1.376 1_455 S
C54 H77 0.930 . S
C55 C54 1.376 1_655 S
C55 C56 1.370 . S
C56 C55 1.370 . S
C56 C57 1.396 . S
C56 H78 0.929 . S
C57 C52 1.373 . S
C57 C56 1.396 . S
C57 H79 0.929 . S
C58 O68 1.240 . S
C58 O69 1.289 1_455 S
C59 O70 1.258 . S
C59 O71 1.256 . S
O60 La40 2.521 . S
O60 C42 1.261 . S
O61 La40 2.628 . S
O61 C42 1.243 . S
O62 La40 2.554 . S
O62 C49 1.240 . S
O63 La40 2.757 . S
O63 La41 2.482 . S
O63 C49 1.289 . S
O64 La40 2.470 . S
O64 C50 1.258 . S
O65 La41 2.503 . S
O65 C50 1.256 . S
O66 La41 2.521 1_455 S
O66 C51 1.261 1_455 S
O67 La41 2.628 . S
O67 C51 1.243 . S
O68 La41 2.554 1_455 S
O68 C58 1.240 . S
O69 La40 2.482 . S
O69 La41 2.757 . S
O69 C58 1.289 1_655 S
O70 La41 2.470 . S
O70 C59 1.258 . S
O71 La40 2.503 . S
O71 C59 1.256 . S
H72 C44 0.930 . S
H73 C45 0.930 . S
H74 C47 0.929 . S
H75 C48 0.929 . S
H76 C53 0.930 . S
H77 C54 0.930 . S
H78 C56 0.929 . S
H79 C57 0.929 . S
La80 C82 2.928 . S
La80 O100 2.521 . S
La80 O101 2.628 . S
La80 O102 2.554 . S
La80 O103 2.757 . S
La80 O104 2.470 . S
La80 O109 2.482 . S
La80 O111 2.503 . S
La81 C91 2.928 . S
La81 O103 2.482 . S
La81 O105 2.503 . S
La81 O106 2.521 . S
La81 O107 2.628 . S
La81 O108 2.554 . S
La81 O109 2.757 . S
La81 O110 2.470 . S
C82 La80 2.928 . S
C82 C83 1.503 . S
C82 O100 1.261 . S
C82 O101 1.243 . S
C83 C82 1.503 . S
C83 C84 1.394 . S
C83 C88 1.373 . S
C84 C83 1.394 . S
C84 C85 1.380 . S
C84 H112 0.930 . S
C85 C84 1.380 . S
C85 C86 1.376 . S
C85 H113 0.930 . S
C86 C85 1.376 . S
C86 C87 1.370 . S
C87 C86 1.370 . S
C87 C88 1.396 . S
C87 H114 0.929 . S
C88 C83 1.373 . S
C88 C87 1.396 . S
C88 H115 0.929 . S
C89 O102 1.240 . S
C89 O103 1.289 . S
C90 O104 1.258 . S
C90 O105 1.256 . S
C91 La81 2.928 . S
C91 C92 1.503 . S
C91 O106 1.261 . S
C91 O107 1.243 . S
C92 C91 1.503 . S
C92 C93 1.394 . S
C92 C97 1.373 . S
C93 C92 1.394 . S
C93 C94 1.380 . S
C93 H116 0.930 . S
C94 C93 1.380 . S
C94 C95 1.376 . S
C94 H117 0.930 . S
C95 C94 1.376 . S
C95 C96 1.370 . S
C96 C95 1.370 . S
C96 C97 1.396 . S
C96 H118 0.929 . S
C97 C92 1.373 . S
C97 C96 1.396 . S
C97 H119 0.929 . S
C98 O108 1.240 . S
C98 O109 1.289 . S
C99 O110 1.258 . S
C99 O111 1.256 . S
O100 La80 2.521 . S
O100 C82 1.261 . S
O101 La80 2.628 . S
O101 C82 1.243 . S
O102 La80 2.554 . S
O102 C89 1.240 . S
O103 La80 2.757 . S
O103 La81 2.482 . S
O103 C89 1.289 . S
O104 La80 2.470 . S
O104 C90 1.258 . S
O105 La81 2.503 . S
O105 C90 1.256 . S
O106 La81 2.521 . S
O106 C91 1.261 . S
O107 La81 2.628 . S
O107 C91 1.243 . S
O108 La81 2.554 . S
O108 C98 1.240 . S
O109 La80 2.482 . S
O109 La81 2.757 . S
O109 C98 1.289 . S
O110 La81 2.470 . S
O110 C99 1.258 . S
O111 La80 2.503 . S
O111 C99 1.256 . S
H112 C84 0.930 . S
H113 C85 0.930 . S
H114 C87 0.929 . S
H115 C88 0.929 . S
H116 C93 0.930 . S
H117 C94 0.930 . S
H118 C96 0.929 . S
H119 C97 0.929 . S
La120 C122 2.928 . S
La120 O140 2.521 . S
La120 O141 2.628 . S
La120 O142 2.554 . S
La120 O143 2.757 . S
La120 O144 2.470 . S
La120 O149 2.482 . S
La120 O151 2.503 . S
La121 C131 2.928 . S
La121 O143 2.482 . S
La121 O145 2.503 . S
La121 O146 2.521 . S
La121 O147 2.628 . S
La121 O148 2.554 . S
La121 O149 2.757 . S
La121 O150 2.470 . S
C122 La120 2.928 . S
C122 C123 1.503 1_554 S
C122 O140 1.261 . S
C122 O141 1.243 . S
C123 C122 1.503 1_556 S
C123 C124 1.394 . S
C123 C128 1.373 . S
C124 C123 1.394 . S
C124 C125 1.380 . S
C124 H152 0.930 . S
C125 C124 1.380 . S
C125 C126 1.376 . S
C125 H153 0.930 . S
C126 C125 1.376 . S
C126 C127 1.370 . S
C127 C126 1.370 . S
C127 C128 1.396 . S
C127 H154 0.929 . S
C128 C123 1.373 . S
C128 C127 1.396 . S
C128 H155 0.929 . S
C129 O142 1.240 . S
C129 O143 1.289 . S
C130 O144 1.258 . S
C130 O145 1.256 . S
C131 La121 2.928 . S
C131 C132 1.503 . S
C131 O146 1.261 . S
C131 O147 1.243 . S
C132 C131 1.503 . S
C132 C133 1.394 . S
C132 C137 1.373 . S
C133 C132 1.394 . S
C133 C134 1.380 . S
C133 H156 0.930 . S
C134 C133 1.380 . S
C134 C135 1.376 . S
C134 H157 0.930 . S
C135 C134 1.376 . S
C135 C136 1.370 . S
C136 C135 1.370 . S
C136 C137 1.396 . S
C136 H158 0.929 . S
C137 C132 1.373 . S
C137 C136 1.396 . S
C137 H159 0.929 . S
C138 O148 1.240 . S
C138 O149 1.289 . S
C139 O150 1.258 . S
C139 O151 1.256 . S
O140 La120 2.521 . S
O140 C122 1.261 . S
O141 La120 2.628 . S
O141 C122 1.243 . S
O142 La120 2.554 . S
O142 C129 1.240 . S
O143 La120 2.757 . S
O143 La121 2.482 . S
O143 C129 1.289 . S
O144 La120 2.470 . S
O144 C130 1.258 . S
O145 La121 2.503 . S
O145 C130 1.256 . S
O146 La121 2.521 . S
O146 C131 1.261 . S
O147 La121 2.628 . S
O147 C131 1.243 . S
O148 La121 2.554 . S
O148 C138 1.240 . S
O149 La120 2.482 . S
O149 La121 2.757 . S
O149 C138 1.289 . S
O150 La121 2.470 . S
O150 C139 1.258 . S
O151 La120 2.503 . S
O151 C139 1.256 . S
H152 C124 0.930 . S
H153 C125 0.930 . S
H154 C127 0.929 . S
H155 C128 0.929 . S
H156 C133 0.930 . S
H157 C134 0.930 . S
H158 C136 0.929 . S
H159 C137 0.929 . S
La160 C162 2.928 . S
La160 O180 2.521 . S
La160 O181 2.628 . S
La160 O182 2.554 . S
La160 O183 2.757 . S
La160 O184 2.470 . S
La160 O189 2.482 . S
La160 O191 2.503 . S
La161 C171 2.928 . S
La161 O183 2.482 . S
La161 O185 2.503 . S
La161 O186 2.521 1_565 S
La161 O187 2.628 . S
La161 O188 2.554 1_565 S
La161 O189 2.757 . S
La161 O190 2.470 . S
C162 La160 2.928 . S
C162 C163 1.503 . S
C162 O180 1.261 . S
C162 O181 1.243 . S
C163 C162 1.503 . S
C163 C164 1.394 . S
C163 C168 1.373 . S
C164 C163 1.394 . S
C164 C165 1.380 . S
C164 H192 0.930 . S
C165 C164 1.380 . S
C165 C166 1.376 . S
C165 H193 0.930 . S
C166 C165 1.376 . S
C166 C167 1.370 . S
C167 C166 1.370 . S
C167 C168 1.396 . S
C167 H194 0.929 . S
C168 C163 1.373 . S
C168 C167 1.396 . S
C168 H195 0.929 . S
C169 O182 1.240 . S
C169 O183 1.289 . S
C170 O184 1.258 . S
C170 O185 1.256 . S
C171 La161 2.928 . S
C171 C172 1.503 . S
C171 O186 1.261 1_565 S
C171 O187 1.243 . S
C172 C171 1.503 . S
C172 C173 1.394 1_565 S
C172 C177 1.373 . S
C173 C172 1.394 1_545 S
C173 C174 1.380 . S
C173 H196 0.930 . S
C174 C173 1.380 . S
C174 C175 1.376 1_545 S
C174 H197 0.930 . S
C175 C174 1.376 1_565 S
C175 C176 1.370 . S
C176 C175 1.370 . S
C176 C177 1.396 . S
C176 H198 0.929 . S
C177 C172 1.373 . S
C177 C176 1.396 . S
C177 H199 0.929 . S
C178 O188 1.240 . S
C178 O189 1.289 1_545 S
C179 O190 1.258 . S
C179 O191 1.256 . S
O180 La160 2.521 . S
O180 C162 1.261 . S
O181 La160 2.628 . S
O181 C162 1.243 . S
O182 La160 2.554 . S
O182 C169 1.240 . S
O183 La160 2.757 . S
O183 La161 2.482 . S
O183 C169 1.289 . S
O184 La160 2.470 . S
O184 C170 1.258 . S
O185 La161 2.503 . S
O185 C170 1.256 . S
O186 La161 2.521 1_545 S
O186 C171 1.261 1_545 S
O187 La161 2.628 . S
O187 C171 1.243 . S
O188 La161 2.554 1_545 S
O188 C178 1.240 . S
O189 La160 2.482 . S
O189 La161 2.757 . S
O189 C178 1.289 1_565 S
O190 La161 2.470 . S
O190 C179 1.258 . S
O191 La160 2.503 . S
O191 C179 1.256 . S
H192 C164 0.930 . S
H193 C165 0.930 . S
H194 C167 0.929 . S
H195 C168 0.929 . S
H196 C173 0.930 . S
H197 C174 0.930 . S
H198 C176 0.929 . S
H199 C177 0.929 . S
La200 C202 2.928 . S
La200 O220 2.521 . S
La200 O221 2.628 . S
La200 O222 2.554 . S
La200 O223 2.757 . S
La200 O224 2.470 . S
La200 O229 2.482 . S
La200 O231 2.503 . S
La201 C211 2.928 . S
La201 O223 2.482 . S
La201 O225 2.503 . S
La201 O226 2.521 . S
La201 O227 2.628 . S
La201 O228 2.554 1_545 S
La201 O229 2.757 . S
La201 O230 2.470 . S
C202 La200 2.928 . S
C202 C203 1.503 . S
C202 O220 1.261 . S
C202 O221 1.243 . S
C203 C202 1.503 . S
C203 C204 1.394 . S
C203 C208 1.373 . S
C204 C203 1.394 . S
C204 C205 1.380 . S
C204 H232 0.930 . S
C205 C204 1.380 . S
C205 C206 1.376 . S
C205 H233 0.930 . S
C206 C205 1.376 . S
C206 C207 1.370 . S
C207 C206 1.370 . S
C207 C208 1.396 . S
C207 H234 0.929 . S
C208 C203 1.373 . S
C208 C207 1.396 . S
C208 H235 0.929 . S
C209 O222 1.240 . S
C209 O223 1.289 . S
C210 O224 1.258 . S
C210 O225 1.256 . S
C211 La201 2.928 . S
C211 C212 1.503 . S
C211 O226 1.261 . S
C211 O227 1.243 . S
C212 C211 1.503 . S
C212 C213 1.394 . S
C212 C217 1.373 . S
C213 C212 1.394 . S
C213 C214 1.380 . S
C213 H236 0.930 1_545 S
C214 C213 1.380 . S
C214 C215 1.376 . S
C214 H237 0.930 1_545 S
C215 C214 1.376 . S
C215 C216 1.370 . S
C216 C215 1.370 . S
C216 C217 1.396 . S
C216 H238 0.929 . S
C217 C212 1.373 . S
C217 C216 1.396 . S
C217 H239 0.929 . S
C218 O228 1.240 . S
C218 O229 1.289 1_565 S
C219 O230 1.258 . S
C219 O231 1.256 . S
O220 La200 2.521 . S
O220 C202 1.261 . S
O221 La200 2.628 . S
O221 C202 1.243 . S
O222 La200 2.554 . S
O222 C209 1.240 . S
O223 La200 2.757 . S
O223 La201 2.482 . S
O223 C209 1.289 . S
O224 La200 2.470 . S
O224 C210 1.258 . S
O225 La201 2.503 . S
O225 C210 1.256 . S
O226 La201 2.521 . S
O226 C211 1.261 . S
O227 La201 2.628 . S
O227 C211 1.243 . S
O228 La201 2.554 1_565 S
O228 C218 1.240 . S
O229 La200 2.482 . S
O229 La201 2.757 . S
O229 C218 1.289 1_545 S
O230 La201 2.470 . S
O230 C219 1.258 . S
O231 La200 2.503 . S
O231 C219 1.256 . S
H232 C204 0.930 . S
H233 C205 0.930 . S
H234 C207 0.929 . S
H235 C208 0.929 . S
H236 C213 0.930 1_565 S
H237 C214 0.930 1_565 S
H238 C216 0.929 . S
H239 C217 0.929 . S
H240 C246 0.930 . S
H241 C249 0.930 . S
H242 C250 0.930 . S
H243 C251 0.930 . S
H244 C254 0.930 . S
H245 C255 0.930 . S
C246 H240 0.930 . S
C246 C247 1.355 . S
C246 C248 1.415 . S
C247 C246 1.355 . S
C247 C249 1.419 . S
C248 C246 1.415 . S
C248 C253 1.425 . S
C248 C255 1.409 . S
C249 H241 0.930 . S
C249 C247 1.419 . S
C249 C250 1.362 . S
C250 H242 0.930 . S
C250 C249 1.362 . S
C250 C253 1.409 . S
C251 H243 0.930 . S
C251 C252 1.355 . S
C251 C253 1.415 . S
C252 C251 1.355 . S
C252 C254 1.419 . S
C253 C248 1.425 . S
C253 C250 1.409 . S
C253 C251 1.415 . S
C254 H244 0.930 . S
C254 C252 1.419 . S
C254 C255 1.362 . S
C255 H245 0.930 . S
C255 C248 1.409 . S
C255 C254 1.362 . S
H256 C262 0.930 . S
H257 C265 0.930 . S
H258 C266 0.930 . S
H259 C267 0.930 . S
H260 C270 0.930 . S
H261 C271 0.930 . S
C262 H256 0.930 . S
C262 C263 1.355 . S
C262 C264 1.415 . S
C263 C262 1.355 . S
C263 C265 1.419 . S
C264 C262 1.415 . S
C264 C269 1.425 . S
C264 C271 1.409 . S
C265 H257 0.930 . S
C265 C263 1.419 . S
C265 C266 1.362 . S
C266 H258 0.930 . S
C266 C265 1.362 . S
C266 C269 1.409 . S
C267 H259 0.930 . S
C267 C268 1.355 . S
C267 C269 1.415 . S
C268 C267 1.355 . S
C268 C270 1.419 . S
C269 C264 1.425 . S
C269 C266 1.409 . S
C269 C267 1.415 . S
C270 H260 0.930 . S
C270 C268 1.419 . S
C270 C271 1.362 . S
C271 H261 0.930 . S
C271 C264 1.409 . S
C271 C270 1.362 . S
H272 C278 0.930 . S
H273 C281 0.930 . S
H274 C282 0.930 . S
H275 C283 0.930 . S
H276 C286 0.930 . S
H277 C287 0.930 . S
C278 H272 0.930 . S
C278 C279 1.355 . S
C278 C280 1.415 . S
C279 C278 1.355 . S
C279 C281 1.419 . S
C280 C278 1.415 . S
C280 C285 1.425 . S
C280 C287 1.409 . S
C281 H273 0.930 . S
C281 C279 1.419 . S
C281 C282 1.362 . S
C282 H274 0.930 . S
C282 C281 1.362 . S
C282 C285 1.409 . S
C283 H275 0.930 . S
C283 C284 1.355 1_554 S
C283 C285 1.415 . S
C284 C283 1.355 1_556 S
C284 C286 1.419 . S
C285 C280 1.425 . S
C285 C282 1.409 . S
C285 C283 1.415 . S
C286 H276 0.930 . S
C286 C284 1.419 . S
C286 C287 1.362 1_556 S
C287 H277 0.930 . S
C287 C280 1.409 . S
C287 C286 1.362 1_554 S
H288 C294 0.930 . S
H289 C297 0.930 . S
H290 C298 0.930 . S
H291 C299 0.930 . S
H292 C302 0.930 . S
H293 C303 0.930 . S
C294 H288 0.930 . S
C294 C295 1.355 . S
C294 C296 1.415 . S
C295 C294 1.355 . S
C295 C297 1.419 . S
C296 C294 1.415 . S
C296 C301 1.425 . S
C296 C303 1.409 . S
C297 H289 0.930 . S
C297 C295 1.419 . S
C297 C298 1.362 . S
C298 H290 0.930 . S
C298 C297 1.362 . S
C298 C301 1.409 . S
C299 H291 0.930 . S
C299 C300 1.355 . S
C299 C301 1.415 . S
C300 C299 1.355 . S
C300 C302 1.419 . S
C301 C296 1.425 . S
C301 C298 1.409 . S
C301 C299 1.415 . S
C302 H292 0.930 . S
C302 C300 1.419 . S
C302 C303 1.362 . S
C303 H293 0.930 . S
C303 C296 1.409 . S
C303 C302 1.362 . S
H304 C310 0.930 . S
H305 C313 0.930 . S
H306 C314 0.930 . S
H307 C315 0.930 . S
H308 C318 0.930 . S
H309 C319 0.930 . S
C310 H304 0.930 . S
C310 C311 1.355 . S
C310 C312 1.415 . S
C311 C310 1.355 . S
C311 C313 1.419 . S
C312 C310 1.415 . S
C312 C317 1.425 . S
C312 C319 1.409 . S
C313 H305 0.930 . S
C313 C311 1.419 . S
C313 C314 1.362 . S
C314 H306 0.930 . S
C314 C313 1.362 . S
C314 C317 1.409 . S
C315 H307 0.930 . S
C315 C316 1.355 . S
C315 C317 1.415 . S
C316 C315 1.355 . S
C316 C318 1.419 . S
C317 C312 1.425 . S
C317 C314 1.409 . S
C317 C315 1.415 . S
C318 H308 0.930 . S
C318 C316 1.419 . S
C318 C319 1.362 . S
C319 H309 0.930 . S
C319 C312 1.409 . S
C319 C318 1.362 . S
H320 C326 0.930 . S
H321 C329 0.930 . S
H322 C330 0.930 . S
H323 C331 0.930 . S
H324 C334 0.930 . S
H325 C335 0.930 . S
C326 H320 0.930 . S
C326 C327 1.355 . S
C326 C328 1.415 . S
C327 C326 1.355 . S
C327 C329 1.419 . S
C328 C326 1.415 . S
C328 C333 1.425 . S
C328 C335 1.409 . S
C329 H321 0.930 . S
C329 C327 1.419 . S
C329 C330 1.362 . S
C330 H322 0.930 . S
C330 C329 1.362 . S
C330 C333 1.409 . S
C331 H323 0.930 . S
C331 C332 1.355 . S
C331 C333 1.415 . S
C332 C331 1.355 . S
C332 C334 1.419 . S
C333 C328 1.425 . S
C333 C330 1.409 . S
C333 C331 1.415 . S
C334 H324 0.930 . S
C334 C332 1.419 . S
C334 C335 1.362 . S
C335 H325 0.930 . S
C335 C328 1.409 . S
C335 C334 1.362 . S
H336 C342 0.930 . S
H337 C345 0.930 . S
H338 C346 0.930 . S
H339 C347 0.930 . S
H340 C350 0.930 . S
H341 C351 0.930 . S
C342 H336 0.930 . S
C342 C343 1.355 . S
C342 C344 1.415 . S
C343 C342 1.355 . S
C343 C345 1.419 . S
C344 C342 1.415 . S
C344 C349 1.425 . S
C344 C351 1.409 . S
C345 H337 0.930 . S
C345 C343 1.419 . S
C345 C346 1.362 . S
C346 H338 0.930 . S
C346 C345 1.362 . S
C346 C349 1.409 . S
C347 H339 0.930 . S
C347 C348 1.355 . S
C347 C349 1.415 . S
C348 C347 1.355 . S
C348 C350 1.419 . S
C349 C344 1.425 . S
C349 C346 1.409 . S
C349 C347 1.415 . S
C350 H340 0.930 . S
C350 C348 1.419 . S
C350 C351 1.362 . S
C351 H341 0.930 . S
C351 C344 1.409 . S
C351 C350 1.362 . S
H352 C358 0.930 . S
H353 C361 0.930 . S
H354 C362 0.930 1_655 S
H355 C363 0.930 1_655 S
H356 C366 0.930 . S
H357 C367 0.930 . S
C358 H352 0.930 . S
C358 C359 1.355 . S
C358 C360 1.415 . S
C359 C358 1.355 . S
C359 C361 1.419 . S
C360 C358 1.415 . S
C360 C365 1.425 . S
C360 C367 1.409 . S
C361 H353 0.930 . S
C361 C359 1.419 . S
C361 C362 1.362 . S
C362 H354 0.930 1_455 S
C362 C361 1.362 . S
C362 C365 1.409 . S
C363 H355 0.930 1_455 S
C363 C364 1.355 . S
C363 C365 1.415 . S
C364 C363 1.355 . S
C364 C366 1.419 . S
C365 C360 1.425 . S
C365 C362 1.409 . S
C365 C363 1.415 . S
C366 H356 0.930 . S
C366 C364 1.419 . S
C366 C367 1.362 . S
C367 H357 0.930 . S
C367 C360 1.409 . S
C367 C366 1.362 . S
H368 C374 0.930 . S
H369 C377 0.930 . S
H370 C378 0.930 1_545 S
H371 C379 0.930 . S
H372 C382 0.930 . S
H373 C383 0.930 . S
C374 H368 0.930 . S
C374 C375 1.355 . S
C374 C376 1.415 . S
C375 C374 1.355 . S
C375 C377 1.419 1_565 S
C376 C374 1.415 . S
C376 C381 1.425 . S
C376 C383 1.409 . S
C377 H369 0.930 . S
C377 C375 1.419 1_545 S
C377 C378 1.362 1_545 S
C378 H370 0.930 1_565 S
C378 C377 1.362 1_565 S
C378 C381 1.409 . S
C379 H371 0.930 . S
C379 C380 1.355 . S
C379 C381 1.415 . S
C380 C379 1.355 . S
C380 C382 1.419 . S
C381 C376 1.425 . S
C381 C378 1.409 . S
C381 C379 1.415 . S
C382 H372 0.930 . S
C382 C380 1.419 . S
C382 C383 1.362 . S
C383 H373 0.930 . S
C383 C376 1.409 . S
C383 C382 1.362 . S
H384 C390 0.930 . S
H385 C393 0.930 . S
H386 C394 0.930 . S
H387 C395 0.930 . S
H388 C398 0.930 . S
H389 C399 0.930 . S
C390 H384 0.930 . S
C390 C391 1.355 . S
C390 C392 1.415 . S
C391 C390 1.355 . S
C391 C393 1.419 . S
C392 C390 1.415 . S
C392 C397 1.425 . S
C392 C399 1.409 . S
C393 H385 0.930 . S
C393 C391 1.419 . S
C393 C394 1.362 . S
C394 H386 0.930 . S
C394 C393 1.362 . S
C394 C397 1.409 . S
C395 H387 0.930 . S
C395 C396 1.355 . S
C395 C397 1.415 . S
C396 C395 1.355 . S
C396 C398 1.419 . S
C397 C392 1.425 . S
C397 C394 1.409 . S
C397 C395 1.415 . S
C398 H388 0.930 . S
C398 C396 1.419 . S
C398 C399 1.362 . S
C399 H389 0.930 . S
C399 C392 1.409 . S
C399 C398 1.362 . S
H400 C406 0.930 1_455 S
H401 C409 0.930 . S
H402 C410 0.930 . S
H403 C411 0.930 . S
H404 C414 0.930 . S
H405 C415 0.930 . S
C406 H400 0.930 1_655 S
C406 C407 1.355 . S
C406 C408 1.415 . S
C407 C406 1.355 . S
C407 C409 1.419 . S
C408 C406 1.415 . S
C408 C413 1.425 . S
C408 C415 1.409 . S
C409 H401 0.930 . S
C409 C407 1.419 . S
C409 C410 1.362 . S
C410 H402 0.930 . S
C410 C409 1.362 . S
C410 C413 1.409 . S
C411 H403 0.930 . S
C411 C412 1.355 . S
C411 C413 1.415 . S
C412 C411 1.355 . S
C412 C414 1.419 . S
C413 C408 1.425 . S
C413 C410 1.409 . S
C413 C411 1.415 . S
C414 H404 0.930 . S
C414 C412 1.419 . S
C414 C415 1.362 . S
C415 H405 0.930 . S
C415 C408 1.409 . S
C415 C414 1.362 . S
H416 C422 0.930 . S
H417 C425 0.930 . S
H418 C426 0.930 . S
H419 C427 0.930 . S
H420 C430 0.930 . S
H421 C431 0.930 . S
C422 H416 0.930 . S
C422 C423 1.355 . S
C422 C424 1.415 . S
C423 C422 1.355 . S
C423 C425 1.419 . S
C424 C422 1.415 . S
C424 C429 1.425 . S
C424 C431 1.409 . S
C425 H417 0.930 . S
C425 C423 1.419 . S
C425 C426 1.362 . S
C426 H418 0.930 . S
C426 C425 1.362 . S
C426 C429 1.409 . S
C427 H419 0.930 . S
C427 C428 1.355 . S
C427 C429 1.415 . S
C428 C427 1.355 . S
C428 C430 1.419 . S
C429 C424 1.425 . S
C429 C426 1.409 . S
C429 C427 1.415 . S
C430 H420 0.930 . S
C430 C428 1.419 . S
C430 C431 1.362 . S
C431 H421 0.930 . S
C431 C424 1.409 . S
C431 C430 1.362 . S
H432 C438 0.930 . S
H433 C441 0.930 1_565 S
H434 C442 0.930 1_565 S
H435 C443 0.930 . S
H436 C446 0.930 . S
H437 C447 0.930 . S
C438 H432 0.930 . S
C438 C439 1.355 . S
C438 C440 1.415 . S
C439 C438 1.355 . S
C439 C441 1.419 . S
C440 C438 1.415 . S
C440 C445 1.425 . S
C440 C447 1.409 . S
C441 H433 0.930 1_545 S
C441 C439 1.419 . S
C441 C442 1.362 . S
C442 H434 0.930 1_545 S
C442 C441 1.362 . S
C442 C445 1.409 . S
C443 H435 0.930 . S
C443 C444 1.355 . S
C443 C445 1.415 . S
C444 C443 1.355 . S
C444 C446 1.419 . S
C445 C440 1.425 . S
C445 C442 1.409 . S
C445 C443 1.415 . S
C446 H436 0.930 . S
C446 C444 1.419 . S
C446 C447 1.362 . S
C447 H437 0.930 . S
C447 C440 1.409 . S
C447 C446 1.362 . S
H448 C454 0.930 . S
H449 C457 0.930 . S
H450 C458 0.930 . S
H451 C459 0.930 . S
H452 C462 0.930 . S
H453 C463 0.930 . S
C454 H448 0.930 . S
C454 C455 1.355 . S
C454 C456 1.415 . S
C455 C454 1.355 . S
C455 C457 1.419 1_655 S
C456 C454 1.415 . S
C456 C461 1.425 1_655 S
C456 C463 1.409 . S
C457 H449 0.930 . S
C457 C455 1.419 1_455 S
C457 C458 1.362 . S
C458 H450 0.930 . S
C458 C457 1.362 . S
C458 C461 1.409 . S
C459 H451 0.930 . S
C459 C460 1.355 . S
C459 C461 1.415 . S
C460 C459 1.355 . S
C460 C462 1.419 1_455 S
C461 C456 1.425 1_455 S
C461 C458 1.409 . S
C461 C459 1.415 . S
C462 H452 0.930 . S
C462 C460 1.419 1_655 S
C462 C463 1.362 . S
C463 H453 0.930 . S
C463 C456 1.409 . S
C463 C462 1.362 . S
H464 C470 0.930 1_545 S
H465 C473 0.930 . S
H466 C474 0.930 . S
H467 C475 0.930 . S
H468 C478 0.930 . S
H469 C479 0.930 . S
C470 H464 0.930 1_565 S
C470 C471 1.355 . S
C470 C472 1.415 1_565 S
C471 C470 1.355 . S
C471 C473 1.419 . S
C472 C470 1.415 1_545 S
C472 C477 1.421 1_545 S
C472 C479 1.409 . S
C473 H465 0.930 . S
C473 C471 1.419 . S
C473 C474 1.362 . S
C474 H466 0.930 . S
C474 C473 1.362 . S
C474 C477 1.416 . S
C475 H467 0.930 . S
C475 C476 1.355 . S
C475 C477 1.412 1_545 S
C476 C475 1.355 . S
C476 C478 1.419 . S
C477 C472 1.421 1_565 S
C477 C474 1.416 . S
C477 C475 1.412 1_565 S
C478 H468 0.930 . S
C478 C476 1.419 . S
C478 C479 1.362 . S
C479 H469 0.930 . S
C479 C472 1.409 . S
C479 C478 1.362 . S
H480 C486 0.930 . S
H481 C489 0.930 . S
H482 C490 0.930 . S
H483 C491 0.930 . S
H484 C494 0.911 1_554 S
H485 C495 0.930 . S
C486 H480 0.930 . S
C486 C487 1.355 . S
C486 C488 1.415 . S
C487 C486 1.355 . S
C487 C489 1.419 . S
C488 C486 1.415 . S
C488 C493 1.425 . S
C488 C495 1.409 . S
C489 H481 0.930 . S
C489 C487 1.419 . S
C489 C490 1.362 . S
C490 H482 0.930 . S
C490 C489 1.362 . S
C490 C493 1.409 . S
C491 H483 0.930 . S
C491 C492 1.355 1_556 S
C491 C493 1.415 . S
C492 C491 1.355 1_554 S
C492 C494 1.412 1_554 S
C493 C488 1.425 . S
C493 C490 1.409 . S
C493 C491 1.415 . S
C494 H484 0.911 1_556 S
C494 C492 1.412 1_556 S
C494 C495 1.389 . S
C495 H485 0.930 . S
C495 C488 1.409 . S
C495 C494 1.389 . S
H496 C502 0.930 . S
H497 C505 0.930 1_545 S
H498 C506 0.930 . S
H499 C507 0.930 1_455 S
H500 C510 0.930 . S
H501 C511 0.930 . S
C502 H496 0.930 . S
C502 C503 1.355 . S
C502 C504 1.415 1_455 S
C503 C502 1.355 . S
C503 C505 1.419 . S
C504 C502 1.415 1_655 S
C504 C509 1.425 1_655 S
C504 C511 1.409 . S
C505 H497 0.930 1_565 S
C505 C503 1.419 . S
C505 C506 1.362 . S
C506 H498 0.930 . S
C506 C505 1.362 . S
C506 C509 1.409 . S
C507 H499 0.930 1_655 S
C507 C508 1.355 . S
C507 C509 1.415 1_655 S
C508 C507 1.355 . S
C508 C510 1.419 . S
C509 C504 1.425 1_455 S
C509 C506 1.409 . S
C509 C507 1.415 1_455 S
C510 H500 0.930 . S
C510 C508 1.419 . S
C510 C511 1.362 . S
C511 H501 0.930 . S
C511 C504 1.409 . S
C511 C510 1.362 . S
H512 C518 0.930 . S
H513 C521 0.930 . S
H514 C522 0.930 . S
H515 C523 0.930 . S
H516 C526 0.930 . S
H517 C527 0.930 . S
C518 H512 0.930 . S
C518 C519 1.355 . S
C518 C520 1.415 . S
C519 C518 1.355 . S
C519 C521 1.419 1_545 S
C520 C518 1.415 . S
C520 C525 1.425 1_545 S
C520 C527 1.409 . S
C521 H513 0.930 . S
C521 C519 1.419 1_565 S
C521 C522 1.362 . S
C522 H514 0.930 . S
C522 C521 1.362 . S
C522 C525 1.409 . S
C523 H515 0.930 . S
C523 C524 1.355 . S
C523 C525 1.415 . S
C524 C523 1.355 . S
C524 C526 1.419 1_565 S
C525 C520 1.425 1_565 S
C525 C522 1.409 . S
C525 C523 1.415 . S
C526 H516 0.930 . S
C526 C524 1.419 1_545 S
C526 C527 1.362 . S
C527 H517 0.930 . S
C527 C520 1.409 . S
C527 C526 1.362 . S
C247 C179 1.610 . S
C252 C6 1.588 . S
C263 C206 1.559 . S
C268 C59 1.592 . S
C279 C19 1.576 . S
C284 C86 1.525 . S
C295 C46 1.567 . S
C300 C139 1.596 . S
C311 C99 1.579 . S
C316 C166 1.533 . S
C327 C126 1.557 . S
C332 C219 1.591 . S
C343 C9 1.441 . S
C348 C138 1.638 . S
C359 C169 1.466 . S
C364 C58 1.605 . S
C375 C218 1.592 . S
C380 C89 1.340 . S
C391 C98 1.630 . S
C396 C209 1.466 . S
C407 C18 1.638 . S
C412 C129 1.430 . S
C423 C178 1.576 . S
C428 C49 1.425 . S
C439 C215 0.942 . S
C444 C15 0.894 1_556 S
C455 C50 1.790 . S
C460 C10 1.790 . S
C471 C95 0.933 . S
C476 C55 0.914 . S
C487 C90 1.770 . S
C492 C130 1.770 . S
C503 C175 0.922 . S
C508 C135 0.927 . S
C519 C210 1.790 . S
C524 C170 1.789 . S
