# Generated by pormake.
# Topology wjp, (5)-cn, num edge types: 1
# Building blocks:
#     Node 0, Type 0, BuildingBlock: BEQFEK_clean_sbu_0, # of connection points: 5
#     Node 1, Type 0, BuildingBlock: BEQFEK_clean_sbu_0, # of connection points: 5
#     Node 2, Type 0, BuildingBlock: BEQFEK_clean_sbu_0, # of connection points: 5
#     Node 3, Type 0, BuildingBlock: BEQFEK_clean_sbu_0, # of connection points: 5
#     Node 4, Type 0, BuildingBlock: BEQFEK_clean_sbu_0, # of connection points: 5
#     Node 5, Type 0, BuildingBlock: BEQFEK_clean_sbu_0, # of connection points: 5
#     Node 6, Type 0, BuildingBlock: BEQFEK_clean_sbu_0, # of connection points: 5
#     Node 7, Type 0, BuildingBlock: BEQFEK_clean_sbu_0, # of connection points: 5
#     Node 8, Type 0, BuildingBlock: BEQFEK_clean_sbu_0, # of connection points: 5
#     Node 9, Type 0, BuildingBlock: BEQFEK_clean_sbu_0, # of connection points: 5
#     Node 10, Type 0, BuildingBlock: BEQFEK_clean_sbu_0, # of connection points: 5
#     Node 11, Type 0, BuildingBlock: BEQFEK_clean_sbu_0, # of connection points: 5
#     Edge 12, Type (0, 0), BuildingBlock: ZUJKAS_clean_linker_0, # of connection points: 2
#     Edge 13, Type (0, 0), BuildingBlock: ZUJKAS_clean_linker_0, # of connection points: 2
#     Edge 14, Type (0, 0), BuildingBlock: ZUJKAS_clean_linker_0, # of connection points: 2
#     Edge 15, Type (0, 0), BuildingBlock: ZUJKAS_clean_linker_0, # of connection points: 2
#     Edge 16, Type (0, 0), BuildingBlock: ZUJKAS_clean_linker_0, # of connection points: 2
#     Edge 17, Type (0, 0), BuildingBlock: ZUJKAS_clean_linker_0, # of connection points: 2
#     Edge 18, Type (0, 0), BuildingBlock: ZUJKAS_clean_linker_0, # of connection points: 2
#     Edge 19, Type (0, 0), BuildingBlock: ZUJKAS_clean_linker_0, # of connection points: 2
#     Edge 20, Type (0, 0), BuildingBlock: ZUJKAS_clean_linker_0, # of connection points: 2
#     Edge 21, Type (0, 0), BuildingBlock: ZUJKAS_clean_linker_0, # of connection points: 2
#     Edge 22, Type (0, 0), BuildingBlock: ZUJKAS_clean_linker_0, # of connection points: 2
#     Edge 23, Type (0, 0), BuildingBlock: ZUJKAS_clean_linker_0, # of connection points: 2
#     Edge 24, Type (0, 0), BuildingBlock: ZUJKAS_clean_linker_0, # of connection points: 2
#     Edge 25, Type (0, 0), BuildingBlock: ZUJKAS_clean_linker_0, # of connection points: 2
#     Edge 26, Type (0, 0), BuildingBlock: ZUJKAS_clean_linker_0, # of connection points: 2
#     Edge 27, Type (0, 0), BuildingBlock: ZUJKAS_clean_linker_0, # of connection points: 2
#     Edge 28, Type (0, 0), BuildingBlock: ZUJKAS_clean_linker_0, # of connection points: 2
#     Edge 29, Type (0, 0), BuildingBlock: ZUJKAS_clean_linker_0, # of connection points: 2
#     Edge 30, Type (0, 0), BuildingBlock: ZUJKAS_clean_linker_0, # of connection points: 2
#     Edge 31, Type (0, 0), BuildingBlock: ZUJKAS_clean_linker_0, # of connection points: 2
#     Edge 32, Type (0, 0), BuildingBlock: ZUJKAS_clean_linker_0, # of connection points: 2
#     Edge 33, Type (0, 0), BuildingBlock: ZUJKAS_clean_linker_0, # of connection points: 2
#     Edge 34, Type (0, 0), BuildingBlock: ZUJKAS_clean_linker_0, # of connection points: 2
#     Edge 35, Type (0, 0), BuildingBlock: ZUJKAS_clean_linker_0, # of connection points: 2
#     Edge 36, Type (0, 0), BuildingBlock: ZUJKAS_clean_linker_0, # of connection points: 2
#     Edge 37, Type (0, 0), BuildingBlock: ZUJKAS_clean_linker_0, # of connection points: 2
#     Edge 38, Type (0, 0), BuildingBlock: ZUJKAS_clean_linker_0, # of connection points: 2
#     Edge 39, Type (0, 0), BuildingBlock: ZUJKAS_clean_linker_0, # of connection points: 2
#     Edge 40, Type (0, 0), BuildingBlock: ZUJKAS_clean_linker_0, # of connection points: 2
#     Edge 41, Type (0, 0), BuildingBlock: ZUJKAS_clean_linker_0, # of connection points: 2
# Relax obj value: 0.461
# Max RMSD: 0.250
# Mean RMSD: 0.250
data_MOF--net-wjp--node1-BEQFEK_clean_sbu_0--edge1-ZUJKAS_clean_linker_0
_symmetry_space_group_name_H-M    P1
_symmetry_Int_Tables_number       1
_symmetry_cell_setting            triclinic
loop_
_symmetry_equiv_pos_as_xyz
'x, y, z'
_cell_length_a     51.272884
_cell_length_b     51.280316
_cell_length_c     76.997287
_cell_angle_alpha  89.984583
_cell_angle_beta   89.989305
_cell_angle_gamma 119.99587
loop_
_atom_site_label
_atom_site_type_symbol
_atom_site_fract_x
_atom_site_fract_y
_atom_site_fract_z
_atom_type_partial_charge
Co0 Co 0.28312 0.21734 0.48635 0.0
Co1 Co 0.33862 0.2816 0.48165 0.0
C2 C 0.33984 0.2402 0.50799 0.0
O3 O 0.31318 0.22097 0.50349 0.0
O4 O 0.35384 0.26589 0.50064 0.0
C5 C 0.25966 0.1554 0.48811 0.0
O6 O 0.28863 0.16467 0.48795 0.0
C7 C 0.39977 0.32898 0.47244 0.0
C8 C 0.39138 0.36483 0.46297 0.0
C9 C 0.41377 0.35746 0.46498 0.0
N10 N 0.37037 0.31985 0.47442 0.0
N11 N 0.36559 0.34153 0.46895 0.0
C12 C 0.41396 0.31124 0.4786 0.0
H13 H 0.41321 0.31046 0.493 0.0
H14 H 0.40074 0.28765 0.47397 0.0
H15 H 0.43777 0.3214 0.47447 0.0
C16 C 0.29496 0.21205 0.44933 0.0
N17 N 0.30059 0.22818 0.46405 0.0
N18 N 0.32498 0.25465 0.46201 0.0
C19 C 0.33598 0.25577 0.44586 0.0
C20 C 0.31741 0.2288 0.43736 0.0
C21 C 0.2703 0.18001 0.4474 0.0
H22 H 0.27806 0.16492 0.45267 0.0
H23 H 0.26408 0.1739 0.43362 0.0
H24 H 0.25001 0.17629 0.45458 0.0
O25 O 0.26625 0.24237 0.49352 0.0
O26 O 0.30562 0.2884 0.49095 0.0
H27 H 0.3641 0.30302 0.44113 0.0
H28 H 0.36576 0.27925 0.42441 0.0
C29 C 0.36403 0.28173 0.43862 0.0
H30 H 0.38394 0.28287 0.44498 0.0
H31 H 0.34452 0.34002 0.46882 0.0
O32 O 0.25112 0.17473 0.48718 0.0
C33 C 0.27809 0.27075 0.495 0.0
Co34 Co 0.05891 0.27721 0.65844 0.0
Co35 Co 0.0573 0.33651 0.65179 0.0
C36 C 0.09305 0.3338 0.68079 0.0
O37 O 0.08338 0.30641 0.67671 0.0
O38 O 0.08544 0.35009 0.67206 0.0
C39 C 0.09217 0.24858 0.66524 0.0
O40 O 0.11331 0.2767 0.66761 0.0
C41 C 0.0701 0.39838 0.64201 0.0
C42 C 0.02915 0.38587 0.62657 0.0
C43 C 0.056 0.4103 0.63198 0.0
N44 N 0.05241 0.36817 0.64224 0.0
N45 N 0.02793 0.36101 0.6331 0.0
C46 C 0.09902 0.41547 0.65184 0.0
H47 H 0.09839 0.4032 0.6638 0.0
H48 H 0.11798 0.41806 0.64368 0.0
H49 H 0.10322 0.43826 0.65531 0.0
C50 C 0.08437 0.28965 0.62316 0.0
N51 N 0.07124 0.29552 0.63654 0.0
N52 N 0.07219 0.3213 0.63384 0.0
C53 C 0.08671 0.33303 0.61869 0.0
C54 C 0.09515 0.31342 0.61148 0.0
C55 C 0.08708 0.26198 0.62179 0.0
H56 H 0.06663 0.24229 0.62714 0.0
H57 H 0.10686 0.26524 0.6294 0.0
H58 H 0.09013 0.25739 0.60807 0.0
O59 O 0.01626 0.26266 0.66239 0.0
O60 O 0.01561 0.30538 0.65982 0.0
H61 H 0.07505 0.36495 0.60907 0.0
H62 H 0.11071 0.37075 0.60104 0.0
C63 C 0.09558 0.36401 0.61247 0.0
H64 H 0.10727 0.38026 0.62309 0.0
H65 H 0.01055 0.33897 0.63105 0.0
O66 O 0.06605 0.24292 0.66068 0.0
C67 C 0.00225 0.27721 0.66306 0.0
Co68 Co 0.77953 0.06626 0.81898 0.0
Co69 Co 0.71576 0.05934 0.81559 0.0
C70 C 0.75808 0.09988 0.84212 0.0
O71 O 0.77681 0.09218 0.83696 0.0
O72 O 0.7322 0.08903 0.83512 0.0
C73 C 0.84154 0.10418 0.82015 0.0
O74 O 0.83248 0.12405 0.82021 0.0
C75 C 0.66692 0.0724 0.80781 0.0
C76 C 0.63288 0.02876 0.79667 0.0
C77 C 0.63877 0.05778 0.79992 0.0
N78 N 0.67731 0.05298 0.80877 0.0
N79 N 0.65664 0.02685 0.80234 0.0
C80 C 0.68306 0.1036 0.81518 0.0
H81 H 0.69034 0.10279 0.82863 0.0
H82 H 0.70362 0.11795 0.80749 0.0
H83 H 0.66847 0.11387 0.81542 0.0
C84 C 0.78414 0.08507 0.78229 0.0
N85 N 0.76849 0.07445 0.79716 0.0
N86 N 0.74231 0.07322 0.79572 0.0
C87 C 0.74093 0.08382 0.77985 0.0
C88 C 0.7674 0.09178 0.77087 0.0
C89 C 0.81578 0.09149 0.77974 0.0
H90 H 0.81925 0.07457 0.7867 0.0
H91 H 0.83164 0.11424 0.78486 0.0
H92 H 0.8211 0.09108 0.76585 0.0
O93 O 0.75408 0.02378 0.82518 0.0
O94 O 0.70869 0.01909 0.82401 0.0
H95 H 0.69373 0.06551 0.77539 0.0
H96 H 0.71755 0.09242 0.75925 0.0
C97 C 0.71511 0.08686 0.7733 0.0
H98 H 0.71415 0.10501 0.78053 0.0
H99 H 0.65921 0.00796 0.80129 0.0
O100 O 0.82202 0.07638 0.81923 0.0
C101 C 0.72567 0.008 0.82698 0.0
Co102 Co 0.7203 0.78288 0.98308 0.0
Co103 Co 0.66408 0.71911 0.97857 0.0
C104 C 0.6642 0.76063 0.00523 0.0
O105 O 0.69073 0.77979 1.00049 0.0
O106 O 0.6499 0.73483 0.99809 0.0
C107 C 0.74486 0.8447 0.98607 0.0
O108 O 0.71601 0.83592 0.98572 0.0
C109 C 0.60253 0.67362 0.969 0.0
C110 C 0.60829 0.63501 0.96195 0.0
C111 C 0.58723 0.64437 0.96272 0.0
N112 N 0.63142 0.68128 0.9716 0.0
N113 N 0.63465 0.65802 0.96752 0.0
C114 C 0.58988 0.69352 0.97346 0.0
H115 H 0.60761 0.71756 0.97247 0.0
H116 H 0.57052 0.68898 0.96507 0.0
H117 H 0.58182 0.68903 0.9871 0.0
C118 C 0.7079 0.7892 0.9464 0.0
N119 N 0.70228 0.77276 0.96099 0.0
N120 N 0.67774 0.74641 0.95893 0.0
C121 C 0.66675 0.74563 0.94282 0.0
C122 C 0.68537 0.77273 0.93443 0.0
C123 C 0.73259 0.82129 0.94472 0.0
H124 H 0.753 0.82464 0.95161 0.0
H125 H 0.72503 0.83618 0.95053 0.0
H126 H 0.73858 0.82805 0.931 0.0
O127 O 0.73671 0.75698 0.9894 0.0
O128 O 0.69662 0.7113 0.98734 0.0
H129 H 0.63806 0.69831 0.93845 0.0
H130 H 0.63782 0.72195 0.92114 0.0
C131 C 0.63877 0.71978 0.93544 0.0
H132 H 0.6188 0.71937 0.94124 0.0
H133 H 0.65502 0.65808 0.96821 0.0
O134 O 0.753 0.82518 0.9843 0.0
C135 C 0.72446 0.72854 0.99081 0.0
Co136 Co 0.93086 0.71606 0.15159 0.0
Co137 Co 0.93706 0.65887 0.14911 0.0
C138 C 0.89463 0.66107 0.17426 0.0
O139 O 0.90314 0.68771 0.16914 0.0
O140 O 0.90566 0.64593 0.16764 0.0
C141 C 0.89424 0.74157 0.15092 0.0
O142 O 0.87383 0.71283 0.15039 0.0
C143 C 0.92053 0.59666 0.1411 0.0
C144 C 0.96477 0.60162 0.13457 0.0
C145 C 0.93427 0.58082 0.13534 0.0
N146 N 0.94196 0.62556 0.14336 0.0
N147 N 0.96837 0.62831 0.13964 0.0
C148 C 0.88799 0.58459 0.14539 0.0
H149 H 0.88121 0.60144 0.14211 0.0
H150 H 0.87318 0.56298 0.13873 0.0
H151 H 0.88496 0.58061 0.1596 0.0
C152 C 0.91558 0.703 0.11445 0.0
N153 N 0.92434 0.69722 0.12976 0.0
N154 N 0.92533 0.67211 0.12857 0.0
C155 C 0.91627 0.66073 0.1124 0.0
C156 C 0.90981 0.67993 0.103 0.0
C157 C 0.91046 0.7289 0.1112 0.0
H158 H 0.92709 0.749 0.1185 0.0
H159 H 0.88741 0.72266 0.11548 0.0
H160 H 0.91241 0.73467 0.09721 0.0
O161 O 0.97251 0.73213 0.15894 0.0
O162 O 0.97711 0.69134 0.15848 0.0
H163 H 0.93351 0.63057 0.10946 0.0
H164 H 0.91047 0.63007 0.09158 0.0
C165 C 0.91326 0.63187 0.10591 0.0
H166 H 0.89322 0.61265 0.11189 0.0
H167 H 0.98878 0.6486 0.14012 0.0
O168 O 0.9219 0.74916 0.15108 0.0
C169 C 0.98804 0.71941 0.16142 0.0
Co170 Co 0.21624 0.93465 0.32386 0.0
Co171 Co 0.2789 0.94036 0.31726 0.0
C172 C 0.23952 0.90011 0.34486 0.0
O173 O 0.22097 0.90883 0.34104 0.0
O174 O 0.26418 0.90994 0.33654 0.0
C175 C 0.15414 0.89777 0.32781 0.0
O176 O 0.16248 0.87737 0.32821 0.0
C177 C 0.32589 0.92713 0.30515 0.0
C178 C 0.35914 0.9717 0.29466 0.0
C179 C 0.35287 0.94217 0.29603 0.0
N180 N 0.31652 0.94687 0.30863 0.0
N181 N 0.33685 0.97356 0.30266 0.0
C182 C 0.30774 0.89413 0.30892 0.0
H183 H 0.28391 0.8874 0.31157 0.0
H184 H 0.30896 0.88087 0.29788 0.0
H185 H 0.31711 0.88902 0.32057 0.0
C186 C 0.20693 0.91597 0.2871 0.0
N187 N 0.22442 0.92625 0.30135 0.0
N188 N 0.25016 0.92713 0.29844 0.0
C189 C 0.24938 0.91669 0.28217 0.0
C190 C 0.222 0.90927 0.27454 0.0
C191 C 0.17525 0.91004 0.28608 0.0
H192 H 0.1733 0.9279 0.29303 0.0
H193 H 0.15996 0.88799 0.29222 0.0
H194 H 0.1679 0.90914 0.27246 0.0
O195 O 0.24263 0.97694 0.32971 0.0
O196 O 0.28739 0.98071 0.32664 0.0
H197 H 0.29585 0.93382 0.27596 0.0
H198 H 0.26993 0.90872 0.25984 0.0
C199 C 0.27385 0.91313 0.27398 0.0
H200 H 0.27442 0.89387 0.28007 0.0
H201 H 0.33473 0.99275 0.30327 0.0
O202 O 0.17405 0.92525 0.32581 0.0
C203 C 0.27117 0.99226 0.33063 0.0
Co204 Co 0.77775 0.72027 0.34838 0.0
Co205 Co 0.71526 0.6627 0.35402 0.0
C206 C 0.75343 0.66471 0.32508 0.0
O207 O 0.77201 0.69157 0.32965 0.0
O208 O 0.7291 0.64888 0.33352 0.0
C209 C 0.83907 0.74418 0.34314 0.0
O210 O 0.82966 0.71522 0.34224 0.0
C211 C 0.6669 0.60092 0.36236 0.0
C212 C 0.63587 0.61078 0.37716 0.0
C213 C 0.6401 0.58744 0.37167 0.0
N214 N 0.6781 0.6309 0.36259 0.0
N215 N 0.65928 0.63656 0.3713 0.0
C216 C 0.68073 0.58581 0.35237 0.0
H217 H 0.68075 0.59091 0.33836 0.0
H218 H 0.70456 0.59511 0.35627 0.0
H219 H 0.66814 0.56103 0.35411 0.0
C220 C 0.78861 0.70573 0.38359 0.0
N221 N 0.77029 0.70094 0.37001 0.0
N222 N 0.74472 0.6757 0.37238 0.0
C223 C 0.7464 0.66322 0.38755 0.0
C224 C 0.7745 0.68175 0.39503 0.0
C225 C 0.81934 0.73276 0.38555 0.0
H226 H 0.81984 0.75286 0.37984 0.0
H227 H 0.83602 0.72874 0.37869 0.0
H228 H 0.82585 0.73712 0.39945 0.0
O229 O 0.75149 0.73699 0.34468 0.0
O230 O 0.70671 0.69558 0.34651 0.0
H231 H 0.70122 0.63243 0.39545 0.0
H232 H 0.72921 0.62668 0.40627 0.0
C233 C 0.72288 0.6328 0.3938 0.0
H234 H 0.71962 0.61569 0.38397 0.0
H235 H 0.66282 0.65815 0.37359 0.0
O236 O 0.82014 0.75263 0.34638 0.0
C237 C 0.72296 0.72383 0.34375 0.0
Co238 Co 0.06495 0.77934 0.51524 0.0
Co239 Co 0.05587 0.71506 0.52062 0.0
C240 C 0.09829 0.75563 0.49386 0.0
O241 O 0.09098 0.77502 0.49818 0.0
O242 O 0.08665 0.73016 0.50145 0.0
C243 C 0.10332 0.84118 0.51204 0.0
O244 O 0.12308 0.83199 0.51222 0.0
C245 C 0.06954 0.66786 0.53053 0.0
C246 C 0.02525 0.63245 0.54022 0.0
C247 C 0.05499 0.63966 0.53832 0.0
N248 N 0.04934 0.67702 0.52828 0.0
N249 N 0.02286 0.65559 0.53387 0.0
C250 C 0.10148 0.68531 0.52433 0.0
H251 H 0.10147 0.68708 0.50997 0.0
H252 H 0.11241 0.7086 0.5295 0.0
H253 H 0.11464 0.67434 0.52792 0.0
C254 C 0.08253 0.78571 0.55218 0.0
N255 N 0.07187 0.76916 0.53762 0.0
N256 N 0.06936 0.74258 0.54001 0.0
C257 C 0.0789 0.74169 0.55628 0.0
C258 C 0.08766 0.769 0.56446 0.0
C259 C 0.09064 0.81803 0.55361 0.0
H260 H 0.07379 0.82167 0.54668 0.0
H261 H 0.11307 0.83241 0.54763 0.0
H262 H 0.0918 0.82516 0.56729 0.0
O263 O 0.02297 0.75413 0.50826 0.0
O264 O 0.01597 0.70805 0.51141 0.0
H265 H 0.08391 0.71828 0.57823 0.0
H266 H 0.09879 0.71377 0.558 0.0
C267 C 0.0801 0.71554 0.56399 0.0
H268 H 0.05869 0.69445 0.56145 0.0
H269 H 0.00334 0.65717 0.53385 0.0
O270 O 0.07557 0.82193 0.5138 0.0
C271 C 0.00626 0.72572 0.50713 0.0
Co272 Co 0.27869 0.06132 0.67893 0.0
Co273 Co 0.33579 0.05537 0.68508 0.0
C274 C 0.33491 0.09416 0.65677 0.0
O275 O 0.30784 0.08591 0.66086 0.0
O276 O 0.34995 0.08473 0.66523 0.0
C277 C 0.24845 0.09339 0.67117 0.0
O278 O 0.27542 0.11355 0.66577 0.0
C279 C 0.39742 0.07025 0.69528 0.0
C280 C 0.3882 0.02639 0.70589 0.0
C281 C 0.41092 0.0559 0.70351 0.0
N282 N 0.36794 0.05015 0.69326 0.0
N283 N 0.36273 0.02394 0.69943 0.0
C284 C 0.41231 0.10189 0.68856 0.0
H285 H 0.4046 0.10191 0.67511 0.0
H286 H 0.40564 0.11552 0.6966 0.0
H287 H 0.43719 0.11245 0.68855 0.0
C288 C 0.29139 0.08396 0.7148 0.0
N289 N 0.2971 0.0717 0.70091 0.0
N290 N 0.32114 0.06938 0.70387 0.0
C291 C 0.33137 0.08004 0.72001 0.0
C292 C 0.31293 0.0897 0.72741 0.0
C293 C 0.26791 0.09321 0.71497 0.0
H294 H 0.24561 0.07342 0.71197 0.0
H295 H 0.27326 0.11033 0.70471 0.0
H296 H 0.26669 0.10297 0.72755 0.0
O297 O 0.26299 0.01862 0.67394 0.0
O298 O 0.30387 0.01457 0.67662 0.0
H299 H 0.35796 0.05961 0.726 0.0
H300 H 0.35845 0.08476 0.74257 0.0
C301 C 0.3582 0.08104 0.72835 0.0
H302 H 0.37901 0.09972 0.72268 0.0
H303 H 0.34155 0.00453 0.69967 0.0
O304 O 0.24448 0.06893 0.67773 0.0
C305 C 0.27595 0.00304 0.67306 0.0
Co306 Co 0.21667 0.27902 0.85057 0.0
Co307 Co 0.28043 0.33501 0.85577 0.0
C308 C 0.23991 0.33649 0.82923 0.0
O309 O 0.22104 0.30955 0.83346 0.0
O310 O 0.26531 0.35086 0.83684 0.0
C311 C 0.15511 0.25646 0.84777 0.0
O312 O 0.16481 0.28547 0.84876 0.0
C313 C 0.32892 0.39533 0.86631 0.0
C314 C 0.36308 0.3843 0.87555 0.0
C315 C 0.35697 0.40769 0.87427 0.0
N316 N 0.3189 0.36595 0.86337 0.0
N317 N 0.33969 0.3597 0.86861 0.0
C318 C 0.31055 0.41014 0.86311 0.0
H319 H 0.28642 0.39302 0.86152 0.0
H320 H 0.31322 0.42553 0.87396 0.0
H321 H 0.3185 0.42361 0.851 0.0
C322 C 0.20999 0.29009 0.8875 0.0
N323 N 0.22661 0.29615 0.87294 0.0
N324 N 0.25291 0.32065 0.87525 0.0
C325 C 0.25343 0.33121 0.89143 0.0
C326 C 0.22624 0.31234 0.89965 0.0
C327 C 0.17796 0.26523 0.88907 0.0
H328 H 0.17454 0.24529 0.88161 0.0
H329 H 0.16291 0.27308 0.88386 0.0
H330 H 0.17155 0.25843 0.90275 0.0
O331 O 0.24186 0.26197 0.84397 0.0
O332 O 0.28728 0.30235 0.84614 0.0
H333 H 0.30057 0.35999 0.89624 0.0
H334 H 0.27643 0.36006 0.91327 0.0
C335 C 0.27899 0.35918 0.899 0.0
H336 H 0.27942 0.3791 0.89311 0.0
H337 H 0.33732 0.33827 0.86813 0.0
O338 O 0.17398 0.24737 0.84895 0.0
C339 C 0.2703 0.27459 0.84241 0.0
Co340 Co 0.93417 0.2186 0.01638 0.0
Co341 Co 0.94272 0.28251 0.0225 0.0
C342 C 0.89929 0.24198 0.99624 0.0
O343 O 0.9064 0.22228 1.00021 0.0
O344 O 0.91177 0.26772 0.00353 0.0
C345 C 0.89718 0.15629 0.01343 0.0
O346 O 0.87652 0.1643 0.01364 0.0
C347 C 0.92983 0.32974 0.03406 0.0
C348 C 0.97488 0.3644 0.04317 0.0
C349 C 0.94511 0.35756 0.0423 0.0
N350 N 0.94968 0.32053 0.03057 0.0
N351 N 0.97663 0.34163 0.03573 0.0
C352 C 0.89663 0.31075 0.03112 0.0
H353 H 0.8902 0.28683 0.02919 0.0
H354 H 0.88393 0.31268 0.04224 0.0
H355 H 0.89046 0.31874 0.01926 0.0
C356 C 0.91809 0.21131 0.0535 0.0
N357 N 0.92805 0.22824 0.03903 0.0
N358 N 0.92986 0.25446 0.04176 0.0
C359 C 0.92035 0.25454 0.05818 0.0
C360 C 0.91254 0.22723 0.06606 0.0
C361 C 0.91107 0.1793 0.05473 0.0
H362 H 0.92813 0.17638 0.0475 0.0
H363 H 0.88854 0.16438 0.04903 0.0
H364 H 0.91066 0.1723 0.06838 0.0
O365 O 0.976 0.24432 0.00913 0.0
O366 O 0.98236 0.29003 0.01272 0.0
H367 H 0.93838 0.30148 0.06348 0.0
H368 H 0.91492 0.27672 0.08056 0.0
C369 C 0.91786 0.27969 0.06627 0.0
H370 H 0.89803 0.27998 0.06083 0.0
H371 H 0.99601 0.33985 0.03488 0.0
O372 O 0.9247 0.17643 0.01481 0.0
C373 C 0.99242 0.27277 0.00819 0.0
Co374 Co 0.71197 0.9314 0.18418 0.0
Co375 Co 0.65575 0.93941 0.18684 0.0
C376 C 0.65723 0.89727 0.16114 0.0
O377 O 0.6834 0.90452 0.16654 0.0
O378 O 0.64269 0.90912 0.16757 0.0
C379 C 0.73717 0.89436 0.18308 0.0
O380 O 0.70842 0.87394 0.18328 0.0
C381 C 0.59379 0.92372 0.19507 0.0
C382 C 0.59987 0.96786 0.20294 0.0
C383 C 0.57854 0.93758 0.20163 0.0
N384 N 0.62286 0.94484 0.19293 0.0
N385 N 0.62626 0.97122 0.19743 0.0
C386 C 0.5811 0.89143 0.18997 0.0
H387 H 0.59637 0.88318 0.19424 0.0
H388 H 0.55811 0.87684 0.19515 0.0
H389 H 0.57999 0.88993 0.17558 0.0
C390 C 0.69803 0.91451 0.22096 0.0
N391 N 0.69286 0.92432 0.20586 0.0
N392 N 0.66823 0.92619 0.20718 0.0
C393 C 0.65667 0.9169 0.2233 0.0
C394 C 0.67518 0.90921 0.23247 0.0
C395 C 0.72305 0.90793 0.22388 0.0
H396 H 0.74376 0.92497 0.2172 0.0
H397 H 0.71637 0.88535 0.21857 0.0
H398 H 0.72796 0.90787 0.2379 0.0
O399 O 0.72877 0.97346 0.17731 0.0
O400 O 0.68892 0.97961 0.17815 0.0
H401 H 0.6281 0.9359 0.22672 0.0
H402 H 0.62664 0.91192 0.24433 0.0
C403 C 0.62843 0.91504 0.23002 0.0
H404 H 0.60868 0.89561 0.22399 0.0
H405 H 0.64682 0.99137 0.19726 0.0
O406 O 0.74478 0.92197 0.18422 0.0
C407 C 0.71689 0.98985 0.17521 0.0
H408 H 0.65838 0.54969 0.38494 0.0
H409 H 0.62648 0.50073 0.39887 0.0
H410 H 0.54768 0.50691 0.38653 0.0
H411 H 0.57932 0.5553 0.37231 0.0
H412 H 0.59225 0.49389 0.42726 0.0
H413 H 0.51885 0.41951 0.37526 0.0
H414 H 0.55363 0.4539 0.37074 0.0
H415 H 0.51951 0.45479 0.37498 0.0
C416 C 0.63414 0.5399 0.38454 0.0
C417 C 0.62116 0.55586 0.37721 0.0
C418 C 0.616 0.51212 0.39265 0.0
C419 C 0.58465 0.49989 0.39347 0.0
C420 C 0.57169 0.51544 0.38564 0.0
H421 H 0.45091 0.41766 0.46737 0.0
H422 H 0.49735 0.44848 0.45113 0.0
C423 C 0.58978 0.54317 0.37761 0.0
C424 C 0.56565 0.47317 0.40437 0.0
H425 H 0.49752 0.40847 0.40445 0.0
C426 C 0.57191 0.47479 0.42221 0.0
C427 C 0.53943 0.44796 0.39778 0.0
C428 C 0.53265 0.44377 0.3786 0.0
C429 C 0.55131 0.45322 0.43382 0.0
C430 C 0.52359 0.42981 0.42742 0.0
C431 C 0.51857 0.42671 0.40942 0.0
C432 C 0.49813 0.41067 0.43912 0.0
C433 C 0.55901 0.45633 0.45289 0.0
C434 C 0.48297 0.37916 0.43771 0.0
C435 C 0.45628 0.36152 0.44694 0.0
C436 C 0.44438 0.37517 0.45771 0.0
C437 C 0.45996 0.40661 0.45941 0.0
C438 C 0.48659 0.4242 0.45023 0.0
H439 H 0.58376 0.46747 0.45486 0.0
H440 H 0.55107 0.47061 0.45914 0.0
H441 H 0.54815 0.43409 0.45949 0.0
H442 H 0.49117 0.36831 0.42897 0.0
H443 H 0.44409 0.33741 0.44485 0.0
H444 H 0.02285 0.43739 0.62768 0.0
H445 H 0.03795 0.4853 0.61333 0.0
H446 H 0.12867 0.50155 0.60832 0.0
H447 H 0.11345 0.45305 0.62234 0.0
H448 H 0.08313 0.54576 0.61989 0.0
H449 H 0.10111 0.50096 0.55782 0.0
H450 H 0.08215 0.47682 0.5761 0.0
H451 H 0.12224 0.50117 0.57651 0.0
C452 C 0.04615 0.45142 0.62381 0.0
C453 C 0.06699 0.44158 0.62624 0.0
C454 C 0.05477 0.47881 0.61566 0.0
C455 C 0.08433 0.4968 0.60962 0.0
C456 C 0.10568 0.48784 0.61278 0.0
H457 H 0.10623 0.66031 0.55785 0.0
H458 H 0.12224 0.62984 0.57434 0.0
C459 C 0.09704 0.46032 0.62101 0.0
C460 C 0.09144 0.5234 0.5988 0.0
H461 H 0.10028 0.54611 0.55646 0.0
C462 C 0.08761 0.54633 0.60608 0.0
C463 C 0.09707 0.52382 0.58078 0.0
C464 C 0.10075 0.49937 0.57221 0.0
C465 C 0.08736 0.56867 0.59566 0.0
C466 C 0.09153 0.56822 0.57751 0.0
C467 C 0.09723 0.54639 0.57038 0.0
C468 C 0.08542 0.58716 0.56555 0.0
C469 C 0.08048 0.59121 0.60398 0.0
C470 C 0.06026 0.57325 0.55457 0.0
C471 C 0.05141 0.59056 0.54494 0.0
C472 C 0.06776 0.62209 0.54597 0.0
C473 C 0.09376 0.63607 0.55637 0.0
C474 C 0.10265 0.6187 0.56601 0.0
H475 H 0.07344 0.58563 0.61776 0.0
H476 H 0.10088 0.61388 0.60358 0.0
H477 H 0.06231 0.59233 0.59677 0.0
H478 H 0.0466 0.54893 0.55407 0.0
H479 H 0.03113 0.57927 0.53716 0.0
H480 H 0.44475 0.02904 0.7046 0.0
H481 H 0.49104 0.04506 0.72102 0.0
H482 H 0.49238 0.12692 0.73566 0.0
H483 H 0.44526 0.11038 0.71977 0.0
H484 H 0.54852 0.09515 0.72035 0.0
H485 H 0.48896 0.0875 0.78234 0.0
H486 H 0.46905 0.07329 0.76213 0.0
H487 H 0.48959 0.1131 0.76618 0.0
C488 C 0.45519 0.0507 0.71107 0.0
C489 C 0.44158 0.06858 0.71074 0.0
C490 C 0.48167 0.05988 0.72041 0.0
C491 C 0.49496 0.08702 0.72972 0.0
C492 C 0.4823 0.10574 0.72871 0.0
H493 H 0.65747 0.11274 0.7846 0.0
H494 H 0.6259 0.12866 0.76928 0.0
C495 C 0.45565 0.09648 0.71938 0.0
C496 C 0.52049 0.09392 0.74147 0.0
H497 H 0.53725 0.09376 0.78438 0.0
C498 C 0.54644 0.09551 0.73435 0.0
C499 C 0.5175 0.09421 0.75974 0.0
C500 C 0.48976 0.09176 0.76815 0.0
C501 C 0.56862 0.09541 0.74499 0.0
C502 C 0.56497 0.09432 0.76325 0.0
C503 C 0.53999 0.09473 0.77038 0.0
C504 C 0.58403 0.08785 0.77491 0.0
C505 C 0.59457 0.0942 0.73654 0.0
C506 C 0.5708 0.0604 0.78394 0.0
C507 C 0.58866 0.05158 0.79299 0.0
C508 C 0.62009 0.07012 0.7933 0.0
C509 C 0.63325 0.09833 0.78502 0.0
C510 C 0.61529 0.10724 0.776 0.0
H511 H 0.59136 0.09028 0.72231 0.0
H512 H 0.61564 0.1159 0.73867 0.0
H513 H 0.5975 0.07602 0.74238 0.0
H514 H 0.54673 0.04508 0.78327 0.0
H515 H 0.57797 0.02966 0.79917 0.0
H516 H 0.56089 0.66256 0.93848 0.0
H517 H 0.51303 0.63095 0.92344 0.0
H518 H 0.49823 0.55508 0.95487 0.0
H519 H 0.54567 0.58673 0.97009 0.0
H520 H 0.50344 0.5817 0.90437 0.0
H521 H 0.4147 0.54639 0.95422 0.0
H522 H 0.45172 0.579 0.95686 0.0
H523 H 0.44533 0.54189 0.96172 0.0
C524 C 0.5467 0.6395 0.94269 0.0
C525 C 0.55643 0.62718 0.95575 0.0
C526 C 0.51956 0.62141 0.93398 0.0
C527 C 0.50177 0.59083 0.93827 0.0
C528 C 0.51113 0.57881 0.95168 0.0
H529 H 0.38809 0.41931 0.90429 0.0
H530 H 0.4194 0.46779 0.91826 0.0
C531 C 0.53829 0.59681 0.9603 0.0
C532 C 0.47583 0.57028 0.92731 0.0
H533 H 0.40383 0.51159 0.93018 0.0
C534 C 0.48134 0.56691 0.90982 0.0
C535 C 0.44702 0.55118 0.93445 0.0
C536 C 0.43924 0.55501 0.9528 0.0
C537 C 0.45967 0.54311 0.89975 0.0
C538 C 0.43173 0.52251 0.90737 0.0
C539 C 0.42537 0.52735 0.92441 0.0
C540 C 0.41104 0.49342 0.89897 0.0
C541 C 0.46766 0.53878 0.88153 0.0
C542 C 0.39583 0.49177 0.88349 0.0
C543 C 0.37793 0.46391 0.87535 0.0
C544 C 0.37498 0.43743 0.88267 0.0
C545 C 0.39002 0.43931 0.89827 0.0
C546 C 0.40774 0.46696 0.90636 0.0
H547 H 0.49152 0.55499 0.87824 0.0
H548 H 0.46369 0.51555 0.87988 0.0
H549 H 0.45305 0.54191 0.87213 0.0
H550 H 0.39807 0.51198 0.87762 0.0
H551 H 0.3671 0.46327 0.86317 0.0
H552 H 0.89841 0.36651 0.0323 0.0
H553 H 0.87965 0.3957 0.04783 0.0
H554 H 0.94638 0.41711 0.08772 0.0
H555 H 0.96458 0.38754 0.07266 0.0
H556 H 0.88672 0.39936 0.10035 0.0
H557 H 0.928 0.48916 0.0497 0.0
H558 H 0.90333 0.4508 0.04314 0.0
H559 H 0.94068 0.46209 0.0505 0.0
C560 C 0.90866 0.37697 0.04454 0.0
C561 C 0.93283 0.37455 0.05133 0.0
C562 C 0.89811 0.39385 0.0533 0.0
C563 C 0.91171 0.40857 0.06889 0.0
C564 C 0.93551 0.4058 0.07575 0.0
H565 H 0.95053 0.53924 0.14231 0.0
H566 H 0.93516 0.49235 0.1266 0.0
C567 C 0.94604 0.3891 0.06704 0.0
C568 C 0.90268 0.42829 0.07791 0.0
H569 H 0.91299 0.49928 0.0763 0.0
C570 C 0.8918 0.42096 0.09498 0.0
C571 C 0.90909 0.4563 0.0708 0.0
C572 C 0.92105 0.46532 0.05256 0.0
C573 C 0.88899 0.44173 0.10553 0.0
C574 C 0.8978 0.47066 0.09888 0.0
C575 C 0.90637 0.47709 0.08138 0.0
C576 C 0.90262 0.49591 0.11032 0.0
C577 C 0.87769 0.43289 0.12387 0.0
C578 C 0.88945 0.51351 0.10641 0.0
C579 C 0.89831 0.54038 0.11538 0.0
C580 C 0.9205 0.55001 0.12835 0.0
C581 C 0.93295 0.53194 0.1326 0.0
C582 C 0.92402 0.50507 0.1237 0.0
H583 H 0.86212 0.40821 0.12493 0.0
H584 H 0.89708 0.43882 0.13261 0.0
H585 H 0.86587 0.44479 0.12845 0.0
H586 H 0.87334 0.50714 0.09591 0.0
H587 H 0.88923 0.55451 0.11139 0.0
H588 H 0.53845 0.95664 0.19715 0.0
H589 H 0.49193 0.94072 0.21348 0.0
H590 H 0.50391 0.87316 0.23977 0.0
H591 H 0.55094 0.88958 0.22376 0.0
H592 H 0.43709 0.88333 0.21856 0.0
H593 H 0.50539 0.92936 0.27886 0.0
H594 H 0.52245 0.93777 0.25759 0.0
H595 H 0.50913 0.90122 0.26697 0.0
C596 C 0.53074 0.93792 0.20611 0.0
C597 C 0.54792 0.92396 0.20896 0.0
C598 C 0.5042 0.92882 0.21541 0.0
C599 C 0.49462 0.9059 0.22789 0.0
C600 C 0.511 0.89095 0.23022 0.0
H601 H 0.36573 0.8984 0.30659 0.0
H602 H 0.39511 0.88027 0.29058 0.0
C603 C 0.5376 0.90004 0.22088 0.0
C604 C 0.46926 0.90015 0.23948 0.0
H605 H 0.45488 0.9167 0.28005 0.0
C606 C 0.44076 0.88999 0.23212 0.0
C607 C 0.47407 0.90861 0.2572 0.0
C608 C 0.50439 0.92001 0.2657 0.0
C609 C 0.41743 0.8898 0.24174 0.0
C610 C 0.42301 0.90061 0.25902 0.0
C611 C 0.45073 0.90851 0.26678 0.0
C612 C 0.40261 0.90866 0.26816 0.0
C613 C 0.38738 0.87918 0.23311 0.0
C614 C 0.39745 0.93077 0.26094 0.0
C615 C 0.38095 0.94114 0.27002 0.0
C616 C 0.36917 0.92963 0.28653 0.0
C617 C 0.37404 0.90724 0.29375 0.0
C618 C 0.39087 0.89696 0.28466 0.0
H619 H 0.38311 0.86217 0.22291 0.0
H620 H 0.36868 0.86927 0.24269 0.0
H621 H 0.38739 0.8986 0.22674 0.0
H622 H 0.40698 0.94072 0.24846 0.0
H623 H 0.37757 0.95841 0.26411 0.0
H624 H 0.16068 0.88682 0.50708 0.0
H625 H 0.1775 0.93971 0.50157 0.0
H626 H 0.08597 0.92147 0.50534 0.0
H627 H 0.06873 0.86817 0.51098 0.0
H628 H 0.15475 0.96141 0.47286 0.0
H629 H 0.13769 0.99457 0.53908 0.0
H630 H 0.14127 0.96166 0.53562 0.0
H631 H 0.10753 0.96133 0.52915 0.0
C632 C 0.14407 0.89399 0.50685 0.0
C633 C 0.11337 0.87333 0.50945 0.0
C634 C 0.15373 0.92419 0.50367 0.0
C635 C 0.13294 0.93433 0.50311 0.0
C636 C 0.1023 0.91396 0.50587 0.0
H637 H 0.19835 0.12838 0.49149 0.0
H638 H 0.16219 0.0742 0.49331 0.0
C639 C 0.09254 0.8836 0.50904 0.0
C640 C 0.14384 0.96627 0.49923 0.0
H641 H 0.16331 0.03328 0.5187 0.0
C642 C 0.15616 0.97712 0.48276 0.0
C643 C 0.14528 0.98648 0.51217 0.0
C644 C 0.13238 0.97565 0.53005 0.0
C645 C 0.17143 0.008 0.47915 0.0
C646 C 0.17479 0.02839 0.49247 0.0
C647 C 0.16071 0.01745 0.50857 0.0
C648 C 0.19595 0.06094 0.49065 0.0
C649 C 0.18477 0.01864 0.46133 0.0
C650 C 0.22677 0.07118 0.48876 0.0
C651 C 0.24738 0.10189 0.48783 0.0
C652 C 0.23753 0.12294 0.48881 0.0
C653 C 0.20657 0.11264 0.49065 0.0
C654 C 0.18592 0.08179 0.49168 0.0
H655 H 0.17267 0.0009 0.45138 0.0
H656 H 0.1841 0.03917 0.45749 0.0
H657 H 0.20864 0.02415 0.46143 0.0
H658 H 0.23494 0.05537 0.48828 0.0
H659 H 0.27105 0.10908 0.48643 0.0
H660 H 0.05683 0.18895 0.6568 0.0
H661 H 0.06988 0.14915 0.65958 0.0
H662 H 0.15613 0.21344 0.68112 0.0
H663 H 0.14335 0.25306 0.67852 0.0
H664 H 0.11883 0.14943 0.64345 0.0
H665 H 0.12626 0.14215 0.71468 0.0
H666 H 0.10637 0.15888 0.70447 0.0
H667 H 0.1466 0.18045 0.70732 0.0
C668 C 0.07842 0.19447 0.66232 0.0
C669 C 0.0991 0.22412 0.66744 0.0
C670 C 0.08578 0.17174 0.66392 0.0
C671 C 0.11369 0.17829 0.67087 0.0
C672 C 0.13416 0.20778 0.67614 0.0
H673 H 0.24819 0.13975 0.65426 0.0
H674 H 0.20815 0.15216 0.65365 0.0
C675 C 0.12693 0.23047 0.67447 0.0
C676 C 0.12308 0.15539 0.67122 0.0
H677 H 0.15742 0.12824 0.69759 0.0
C678 C 0.12652 0.14406 0.65534 0.0
C679 C 0.13254 0.14794 0.68676 0.0
C680 C 0.12744 0.15774 0.70429 0.0
C681 C 0.14186 0.12789 0.65443 0.0
C682 C 0.15428 0.12339 0.66975 0.0
C683 C 0.14825 0.13213 0.68582 0.0
C684 C 0.17705 0.11384 0.66911 0.0
C685 C 0.1459 0.11703 0.63697 0.0
C686 C 0.17298 0.08844 0.67828 0.0
C687 C 0.19598 0.08131 0.67872 0.0
C688 C 0.22347 0.09978 0.67018 0.0
C689 C 0.22729 0.12507 0.66095 0.0
C690 C 0.20431 0.13204 0.66044 0.0
H691 H 0.12722 0.11285 0.62801 0.0
H692 H 0.16723 0.13461 0.63103 0.0
H693 H 0.14702 0.09604 0.63823 0.0
H694 H 0.15219 0.07439 0.68524 0.0
H695 H 0.19247 0.06175 0.68601 0.0
H696 H 0.11031 0.26968 0.84372 0.0
H697 H 0.0574 0.23492 0.83737 0.0
H698 H 0.07379 0.16025 0.8385 0.0
H699 H 0.12711 0.19498 0.84496 0.0
H700 H 0.03637 0.19302 0.80716 0.0
H701 H -0.00051 0.13732 0.87186 0.0
H702 H 0.03279 0.17388 0.86948 0.0
H703 H 0.03307 0.14089 0.86208 0.0
C704 C 0.10273 0.24586 0.84275 0.0
C705 C 0.12288 0.23506 0.84482 0.0
C706 C 0.07251 0.22608 0.83909 0.0
C707 C 0.06187 0.19515 0.83752 0.0
C708 C 0.0817 0.18409 0.8398 0.0
H709 H 0.86808 0.06938 0.82292 0.0
H710 H 0.92211 0.08691 0.82509 0.0
C711 C 0.11207 0.20394 0.84345 0.0
C712 C 0.03001 0.17497 0.83306 0.0
H713 H 0.96187 0.12657 0.85109 0.0
C714 C 0.02008 0.17806 0.81663 0.0
C715 C 0.00905 0.15534 0.84543 0.0
C716 C 0.0189 0.15154 0.86326 0.0
C717 C 0.98938 0.16312 0.81253 0.0
C718 C 0.96823 0.14515 0.82533 0.0
C719 C 0.97826 0.1405 0.84136 0.0
C720 C 0.93581 0.13411 0.82309 0.0
C721 C 0.97978 0.16746 0.79475 0.0
C722 C 0.92584 0.15495 0.82143 0.0
C723 C 0.8952 0.14512 0.82028 0.0
C724 C 0.87394 0.11423 0.82083 0.0
C725 C 0.88397 0.09333 0.8224 0.0
C726 C 0.91474 0.10324 0.82364 0.0
H727 H 0.99791 0.17349 0.78501 0.0
H728 H 0.95918 0.14681 0.79035 0.0
H729 H 0.97478 0.18615 0.79526 0.0
H730 H 0.94179 0.17891 0.82135 0.0
H731 H 0.88821 0.16179 0.81911 0.0
H732 H 0.80648 0.87151 0.98597 0.0
H733 H 0.84292 0.92434 0.99269 0.0
H734 H 0.76993 0.94222 1.00001 0.0
H735 H 0.73357 0.88994 0.99335 0.0
H736 H 0.84792 0.97864 0.9754 0.0
H737 H 0.82164 0.97131 0.04564 0.0
H738 H 0.81328 0.9387 0.03262 0.0
H739 H 0.78876 0.95435 0.03205 0.0
C740 C 0.79826 0.88676 0.98899 0.0
C741 C 0.76717 0.87658 0.98922 0.0
C742 C 0.81906 0.91681 0.99283 0.0
C743 C 0.80894 0.93681 0.99712 0.0
C744 C 0.77803 0.92685 0.99701 0.0
H745 H 0.84034 0.10823 0.01254 0.0
H746 H 0.82537 0.05521 0.00968 0.0
C747 C 0.75732 0.89702 0.9931 0.0
C748 C 0.83024 0.96848 0.00141 0.0
H749 H 0.84384 0.02068 0.03273 0.0
C750 C 0.84782 0.9879 0.98804 0.0
C751 C 0.83004 0.98021 0.01797 0.0
C752 C 0.81264 0.96002 0.03296 0.0
C753 C 0.86322 0.01922 0.99042 0.0
C754 C 0.86099 0.03099 0.00659 0.0
C755 C 0.84529 0.01144 0.02033 0.0
C756 C 0.87094 0.06315 0.00874 0.0
C757 C 0.87989 0.03956 0.97534 0.0
C758 C 0.90156 0.08498 0.00929 0.0
C759 C 0.91024 0.11541 0.01094 0.0
C760 C 0.88836 0.12426 0.01204 0.0
C761 C 0.85773 0.10217 0.01167 0.0
C762 C 0.84913 0.07188 0.01008 0.0
H763 H 0.87768 0.02673 0.96327 0.0
H764 H 0.87126 0.05522 0.9728 0.0
H765 H 0.90415 0.05337 0.97859 0.0
H766 H 0.91863 0.07849 0.00841 0.0
H767 H 0.93403 0.13195 0.01125 0.0
H768 H 0.72743 0.83757 0.17868 0.0
H769 H 0.76456 0.82265 0.17177 0.0
H770 H 0.83556 0.91536 0.17411 0.0
H771 H 0.79846 0.93074 0.18106 0.0
H772 H 0.80921 0.85188 0.14069 0.0
H773 H 0.85927 0.86036 0.20624 0.0
H774 H 0.82114 0.85311 0.20403 0.0
H775 H 0.85208 0.88942 0.19853 0.0
C776 C 0.75094 0.85483 0.17789 0.0
C777 C 0.76002 0.88534 0.18035 0.0
C778 C 0.77207 0.84625 0.17391 0.0
C779 C 0.80261 0.86796 0.17243 0.0
C780 C 0.81201 0.89838 0.17527 0.0
H781 H 0.92972 0.80216 0.15658 0.0
H782 H 0.91311 0.83927 0.15949 0.0
C783 C 0.79081 0.90705 0.17923 0.0
C784 C 0.8241 0.85831 0.16729 0.0
H785 H 0.87078 0.83562 0.18439 0.0
C786 C 0.82322 0.84888 0.15011 0.0
C787 C 0.84249 0.85485 0.17963 0.0
C788 C 0.84401 0.8649 0.19819 0.0
C789 C 0.83895 0.83428 0.14518 0.0
C790 C 0.85536 0.82855 0.15786 0.0
C791 C 0.85804 0.83999 0.17473 0.0
C792 C 0.86619 0.80724 0.15459 0.0
C793 C 0.83691 0.82406 0.12661 0.0
C794 C 0.84522 0.77707 0.15094 0.0
C795 C 0.85452 0.75589 0.14939 0.0
C796 C 0.88497 0.76451 0.15151 0.0
C797 C 0.9061 0.7949 0.15484 0.0
C798 C 0.8967 0.8161 0.1565 0.0
H799 H 0.83252 0.8384 0.11762 0.0
H800 H 0.85792 0.82454 0.12252 0.0
H801 H 0.81793 0.80062 0.12538 0.0
H802 H 0.82147 0.7697 0.1498 0.0
H803 H 0.83772 0.73268 0.14682 0.0
H804 H 0.12892 0.93397 0.32835 0.0
H805 H 0.07507 0.91786 0.3294 0.0
H806 H 0.05313 0.82501 0.33003 0.0
H807 H 0.10653 0.84067 0.32903 0.0
H808 H 0.02191 0.84608 0.30364 0.0
H809 H 0.017 0.87293 0.37339 0.0
H810 H 0.04699 0.89963 0.35962 0.0
H811 H 0.04577 0.86529 0.36563 0.0
C812 C 0.1126 0.91013 0.32875 0.0
C813 C 0.12193 0.88856 0.32865 0.0
C814 C 0.08195 0.90104 0.32937 0.0
C815 C 0.06039 0.87033 0.32984 0.0
C816 C 0.06961 0.84883 0.32968 0.0
H817 H 0.88343 0.73261 0.3339 0.0
H818 H 0.93654 0.7687 0.32927 0.0
C819 C 0.10011 0.85784 0.32914 0.0
C820 C 0.02797 0.86002 0.33041 0.0
H821 H 0.97093 0.84362 0.35892 0.0
C822 C 0.01071 0.84607 0.3156 0.0
C823 C 0.01369 0.8604 0.346 0.0
C824 C 0.03163 0.8753 0.36215 0.0
C825 C 0.97922 0.83086 0.31627 0.0
C826 C 0.96484 0.82912 0.33224 0.0
C827 C 0.98212 0.84492 0.34673 0.0
C828 C 0.93242 0.80789 0.33472 0.0
C829 C 0.96159 0.81582 0.30004 0.0
C830 C 0.91272 0.81801 0.33978 0.0
C831 C 0.88222 0.79734 0.34252 0.0
C832 C 0.87119 0.7663 0.34042 0.0
C833 C 0.89116 0.75635 0.33557 0.0
C834 C 0.92149 0.77695 0.33278 0.0
H835 H 0.97473 0.82711 0.28817 0.0
H836 H 0.95647 0.79208 0.29979 0.0
H837 H 0.93998 0.81591 0.29968 0.0
H838 H 0.92093 0.84184 0.34152 0.0
H839 H 0.86735 0.80565 0.34633 0.0
H840 H 0.32973 0.02932 0.3412 0.0
H841 H 0.35055 0.07884 0.35515 0.0
H842 H 0.26516 0.07514 0.3492 0.0
H843 H 0.2443 0.02611 0.33525 0.0
H844 H 0.31768 0.13341 0.34186 0.0
H845 H 0.32339 0.08428 0.40539 0.0
H846 H 0.34231 0.0791 0.38718 0.0
H847 H 0.30198 0.06101 0.38732 0.0
C848 C 0.31553 0.03925 0.34265 0.0
C849 C 0.28523 0.02355 0.3373 0.0
C850 C 0.32743 0.06749 0.35067 0.0
C851 C 0.30926 0.08045 0.35337 0.0
C852 C 0.27955 0.06551 0.34726 0.0
H853 H 0.2832 0.20714 0.40819 0.0
H854 H 0.28819 0.17633 0.38563 0.0
C855 C 0.26763 0.03737 0.33936 0.0
C856 C 0.31995 0.10837 0.36369 0.0
H857 H 0.33281 0.13379 0.40549 0.0
C858 C 0.32152 0.13376 0.35573 0.0
C859 C 0.32502 0.10876 0.38176 0.0
C860 C 0.32298 0.08186 0.39104 0.0
C861 C 0.32701 0.15917 0.36549 0.0
C862 C 0.33031 0.15885 0.38372 0.0
C863 C 0.3303 0.13407 0.39151 0.0
C864 C 0.33048 0.18216 0.39528 0.0
C865 C 0.32875 0.18588 0.35619 0.0
C866 C 0.35271 0.19605 0.40814 0.0
C867 C 0.34959 0.21331 0.42117 0.0
C868 C 0.32413 0.21679 0.42158 0.0
C869 C 0.30298 0.20466 0.40811 0.0
C870 C 0.30599 0.18729 0.39513 0.0
H871 H 0.33701 0.18749 0.34267 0.0
H872 H 0.30588 0.1831 0.35548 0.0
H873 H 0.3438 0.20727 0.36306 0.0
H874 H 0.3717 0.1923 0.40858 0.0
H875 H 0.36607 0.22232 0.43153 0.0
H876 H 0.22259 0.2388 0.5097 0.0
H877 H 0.19357 0.25773 0.52431 0.0
H878 H 0.26175 0.34888 0.5121 0.0
H879 H 0.29189 0.32996 0.49784 0.0
H880 H 0.24653 0.34596 0.5444 0.0
H881 H 0.1407 0.28814 0.50781 0.0
H882 H 0.14989 0.26044 0.51484 0.0
H883 H 0.17468 0.28975 0.50003 0.0
C884 C 0.23138 0.2629 0.50984 0.0
C885 C 0.25963 0.28285 0.50253 0.0
C886 C 0.21449 0.27371 0.51809 0.0
C887 C 0.22496 0.30473 0.51894 0.0
C888 C 0.253 0.32482 0.51144 0.0
H889 H 0.09204 0.33015 0.57801 0.0
H890 H 0.12616 0.33673 0.55381 0.0
C891 C 0.2702 0.31398 0.5033 0.0
C892 C 0.20774 0.31568 0.5292 0.0
H893 H 0.1356 0.29768 0.53862 0.0
C894 C 0.22237 0.33597 0.54286 0.0
C895 C 0.17635 0.30363 0.52696 0.0
C896 C 0.15966 0.28459 0.51146 0.0
C897 C 0.20609 0.34221 0.55522 0.0
C898 C 0.17422 0.32685 0.55429 0.0
C899 C 0.15993 0.30888 0.5397 0.0
C900 C 0.15527 0.3263 0.5691 0.0
C901 C 0.22329 0.36473 0.56934 0.0
C902 C 0.16016 0.31828 0.58571 0.0
C903 C 0.14114 0.31512 0.59948 0.0
C904 C 0.11622 0.31903 0.5969 0.0
C905 C 0.11126 0.32723 0.58035 0.0
C906 C 0.13066 0.33086 0.56654 0.0
H907 H 0.2453 0.38286 0.56438 0.0
H908 H 0.21048 0.37517 0.5746 0.0
H909 H 0.22808 0.35327 0.58006 0.0
H910 H 0.17826 0.3136 0.58799 0.0
H911 H 0.14574 0.30915 0.61215 0.0
H912 H 0.78773 0.07912 0.74115 0.0
H913 H 0.8187 0.11524 0.71867 0.0
H914 H 0.80386 0.18291 0.74243 0.0
H915 H 0.77396 0.14711 0.76537 0.0
H916 H 0.81391 0.15249 0.69431 0.0
H917 H 0.89439 0.21926 0.74687 0.0
H918 H 0.86285 0.18208 0.75055 0.0
H919 H 0.85716 0.21388 0.74909 0.0
C920 C 0.79074 0.10158 0.74137 0.0
C921 C 0.77913 0.11064 0.75512 0.0
C922 C 0.80829 0.12215 0.72851 0.0
C923 C 0.81427 0.15202 0.72915 0.0
C924 C 0.80015 0.1602 0.74194 0.0
H925 H 0.96904 0.30127 0.67623 0.0
H926 H 0.91918 0.27374 0.68992 0.0
C927 C 0.78283 0.13968 0.75491 0.0
C928 C 0.83777 0.17497 0.71763 0.0
H929 H 0.90909 0.23557 0.71835 0.0
C930 C 0.83455 0.17093 0.69955 0.0
C931 C 0.86477 0.19902 0.72448 0.0
C932 C 0.87026 0.20381 0.74379 0.0
C933 C 0.85796 0.18969 0.68819 0.0
C934 C 0.88534 0.21287 0.69511 0.0
C935 C 0.88799 0.21788 0.71309 0.0
C936 C 0.91286 0.22959 0.68436 0.0
C937 C 0.85348 0.18411 0.66891 0.0
C938 C 0.92564 0.2139 0.67656 0.0
C939 C 0.9541 0.22948 0.66891 0.0
C940 C 0.97044 0.26115 0.66891 0.0
C941 C 0.95699 0.27689 0.67597 0.0
C942 C 0.92853 0.26121 0.6838 0.0
H943 H 0.82923 0.1728 0.6654 0.0
H944 H 0.86576 0.20548 0.66149 0.0
H945 H 0.86225 0.16914 0.66492 0.0
H946 H 0.91428 0.18954 0.67715 0.0
H947 H 0.96373 0.21664 0.66354 0.0
H948 H 0.75299 0.97408 0.82866 0.0
H949 H 0.73424 0.9252 0.84254 0.0
H950 H 0.65058 0.92213 0.85443 0.0
H951 H 0.66922 0.97135 0.8405 0.0
H952 H 0.68016 0.91431 0.88323 0.0
H953 H 0.67065 0.83842 0.82944 0.0
H954 H 0.70588 0.87321 0.82962 0.0
H955 H 0.67149 0.87368 0.82589 0.0
C956 C 0.73038 0.96286 0.83396 0.0
C957 C 0.71266 0.97674 0.83355 0.0
C958 C 0.7196 0.93473 0.84176 0.0
C959 C 0.69088 0.91983 0.84932 0.0
C960 C 0.67271 0.93314 0.84851 0.0
H961 H 0.63592 0.7778 0.92816 0.0
H962 H 0.63041 0.80835 0.90549 0.0
C963 C 0.6834 0.96126 0.84055 0.0
C964 C 0.68164 0.89229 0.85979 0.0
H965 H 0.67457 0.82247 0.85825 0.0
C966 C 0.67825 0.89393 0.87776 0.0
C967 C 0.67941 0.86588 0.8526 0.0
C968 C 0.68177 0.8625 0.8333 0.0
C969 C 0.67454 0.87063 0.88889 0.0
C970 C 0.67332 0.84455 0.88177 0.0
C971 C 0.67541 0.84238 0.86369 0.0
C972 C 0.67298 0.82091 0.89307 0.0
C973 C 0.67393 0.87507 0.90824 0.0
C974 C 0.69754 0.81594 0.89278 0.0
C975 C 0.70036 0.79801 0.90547 0.0
C976 C 0.6788 0.785 0.9187 0.0
C977 C 0.6529 0.78774 0.9181 0.0
C978 C 0.64992 0.80545 0.90529 0.0
H979 H 0.68163 0.89889 0.91165 0.0
H980 H 0.65054 0.86109 0.91308 0.0
H981 H 0.68841 0.86804 0.91516 0.0
H982 H 0.71546 0.82738 0.88336 0.0
H983 H 0.72028 0.79577 0.90556 0.0
H984 H 0.78557 0.75578 0.99145 0.0
H985 H 0.81641 0.73886 0.0063 0.0
H986 H 0.73647 0.65664 0.02113 0.0
H987 H 0.70525 0.67324 0.0059 0.0
H988 H 0.81147 0.72921 0.04137 0.0
H989 H 0.79395 0.62643 0.00695 0.0
H990 H 0.78467 0.6529 0.9973 0.0
H991 H 0.76016 0.62638 0.01324 0.0
C992 C 0.77449 0.73382 0.99758 0.0
C993 C 0.74291 0.71597 0.99763 0.0
C994 C 0.7922 0.72415 0.00603 0.0
C995 C 0.7788 0.69645 0.01478 0.0
C996 C 0.74734 0.67786 0.01421 0.0
H997 H 0.85185 0.63691 0.09719 0.0
H998 H 0.81955 0.63675 0.07358 0.0
C999 C 0.72952 0.68745 0.00557 0.0
C1000 C 0.79767 0.68917 0.02616 0.0
H1001 H 0.82157 0.63863 0.03343 0.0
C1002 C 0.81376 0.70948 0.03954 0.0
C1003 C 0.80038 0.66324 0.02389 0.0
C1004 C 0.78408 0.64104 0.00949 0.0
C1005 C 0.83254 0.70469 0.05069 0.0
C1006 C 0.8357 0.67908 0.04827 0.0
C1007 C 0.81927 0.65838 0.0351 0.0
C1008 C 0.85583 0.6738 0.05968 0.0
C1009 C 0.84867 0.72697 0.06514 0.0
C1010 C 0.88705 0.69362 0.05914 0.0
C1011 C 0.90542 0.69373 0.07258 0.0
C1012 C 0.89277 0.67392 0.08664 0.0
C1013 C 0.86203 0.6522 0.08635 0.0
C1014 C 0.84361 0.65214 0.07292 0.0
H1015 H 0.83923 0.74203 0.06737 0.0
H1016 H 0.84735 0.7151 0.07746 0.0
H1017 H 0.87281 0.74119 0.06168 0.0
H1018 H 0.89686 0.71044 0.04899 0.0
H1019 H 0.92908 0.71072 0.07264 0.0
H1020 H 0.02228 0.78046 0.16186 0.0
H1021 H 0.06893 0.81124 0.1777 0.0
H1022 H 0.06971 0.73127 0.19419 0.0
H1023 H 0.02283 0.70002 0.17807 0.0
H1024 H 0.07034 0.80469 0.21382 0.0
H1025 H 0.15891 0.79032 0.18081 0.0
H1026 H 0.12421 0.78215 0.17018 0.0
H1027 H 0.12431 0.75647 0.18597 0.0
C1028 C 0.03257 0.76933 0.16859 0.0
C1029 C 0.01864 0.73773 0.16885 0.0
C1030 C 0.05932 0.78701 0.1776 0.0
C1031 C 0.07284 0.77358 0.18708 0.0
C1032 C 0.05989 0.74211 0.18673 0.0
H1033 H 0.20868 0.85181 0.26834 0.0
H1034 H 0.17527 0.81825 0.2455 0.0
C1035 C 0.03305 0.72429 0.17757 0.0
C1036 C 0.09817 0.79252 0.19891 0.0
H1037 H 0.17296 0.81919 0.20673 0.0
C1038 C 0.09278 0.80788 0.21223 0.0
C1039 C 0.12731 0.79636 0.19692 0.0
C1040 C 0.13428 0.78066 0.18265 0.0
C1041 C 0.11573 0.82719 0.22355 0.0
C1042 C 0.1451 0.83174 0.22131 0.0
C1043 C 0.15047 0.81587 0.20826 0.0
C1044 C 0.17011 0.85291 0.23264 0.0
C1045 C 0.10827 0.84239 0.23795 0.0
C1046 C 0.17933 0.88371 0.23243 0.0
C1047 C 0.19826 0.90277 0.24543 0.0
C1048 C 0.20835 0.89131 0.25872 0.0
C1049 C 0.2012 0.86107 0.25812 0.0
C1050 C 0.18214 0.84194 0.24514 0.0
H1051 H 0.08364 0.83121 0.24039 0.0
H1052 H 0.11969 0.84245 0.25023 0.0
H1053 H 0.11623 0.86612 0.23427 0.0
H1054 H 0.17049 0.89263 0.22278 0.0
H1055 H 0.20361 0.92606 0.24569 0.0
H1056 H 0.95818 0.66761 0.5084 0.0
H1057 H 0.90846 0.64853 0.49491 0.0
H1058 H 0.93655 0.73733 0.4749 0.0
H1059 H 0.98516 0.75659 0.48884 0.0
H1060 H 0.88129 0.71284 0.48663 0.0
H1061 H 0.89049 0.62956 0.44455 0.0
H1062 H 0.8915 0.62416 0.46752 0.0
H1063 H 0.92171 0.65687 0.45729 0.0
C1064 C 0.95359 0.68301 0.50119 0.0
C1065 C 0.97569 0.71359 0.49965 0.0
C1066 C 0.92524 0.67205 0.49339 0.0
C1067 C 0.91884 0.69137 0.48362 0.0
C1068 C 0.94079 0.72193 0.48239 0.0
H1069 H 0.82709 0.68167 0.39353 0.0
H1070 H 0.85598 0.67795 0.41748 0.0
C1071 C 0.96872 0.73293 0.49036 0.0
C1072 C 0.88994 0.68042 0.47411 0.0
H1073 H 0.84963 0.63687 0.43971 0.0
C1074 C 0.87408 0.69593 0.4765 0.0
C1075 C 0.88047 0.65823 0.46095 0.0
C1076 C 0.89697 0.64135 0.45727 0.0
C1077 C 0.85078 0.69183 0.46524 0.0
C1078 C 0.84214 0.67055 0.4516 0.0
C1079 C 0.8563 0.65321 0.45013 0.0
C1080 C 0.82237 0.66949 0.43712 0.0
C1081 C 0.83745 0.71209 0.46727 0.0
C1082 C 0.79336 0.66521 0.43998 0.0
C1083 C 0.7771 0.66828 0.42623 0.0
C1084 C 0.78937 0.67498 0.40943 0.0
C1085 C 0.81741 0.6772 0.40644 0.0
C1086 C 0.8338 0.67472 0.42012 0.0
H1087 H 0.85088 0.7312 0.47622 0.0
H1088 H 0.83599 0.72142 0.45453 0.0
H1089 H 0.81439 0.69891 0.47271 0.0
H1090 H 0.78364 0.66031 0.45286 0.0
H1091 H 0.75545 0.66637 0.42884 0.0
H1092 H 0.14185 0.77407 0.57161 0.0
H1093 H 0.17643 0.80333 0.59515 0.0
H1094 H 0.10917 0.82169 0.61609 0.0
H1095 H 0.07441 0.7917 0.59291 0.0
H1096 H 0.19724 0.86231 0.59812 0.0
H1097 H 0.14313 0.80848 0.66013 0.0
H1098 H 0.13117 0.789 0.63959 0.0
H1099 H 0.11774 0.81376 0.64656 0.0
C1100 C 0.13417 0.78347 0.58164 0.0
C1101 C 0.10566 0.7809 0.58049 0.0
C1102 C 0.15394 0.80028 0.59501 0.0
C1103 C 0.14538 0.81458 0.60749 0.0
C1104 C 0.11613 0.81039 0.60689 0.0
H1105 H 0.21518 0.96977 0.66837 0.0
H1106 H 0.18668 0.92081 0.65438 0.0
C1107 C 0.09636 0.7935 0.59357 0.0
C1108 C 0.16813 0.83739 0.61941 0.0
H1109 H 0.17902 0.8622 0.66139 0.0
C1110 C 0.19367 0.86192 0.61203 0.0
C1111 C 0.16347 0.83691 0.63755 0.0
C1112 C 0.13753 0.81043 0.64643 0.0
C1113 C 0.21352 0.88688 0.62206 0.0
C1114 C 0.2079 0.88714 0.64003 0.0
C1115 C 0.18326 0.86196 0.6476 0.0
C1116 C 0.22513 0.91479 0.65057 0.0
C1117 C 0.23924 0.9136 0.61315 0.0
C1118 C 0.25613 0.92727 0.65356 0.0
C1119 C 0.27265 0.95547 0.66157 0.0
C1120 C 0.25836 0.9716 0.66667 0.0
C1121 C 0.22701 0.95818 0.66445 0.0
C1122 C 0.2106 0.93007 0.65653 0.0
H1123 H 0.23774 0.91155 0.59877 0.0
H1124 H 0.2397 0.93474 0.61691 0.0
H1125 H 0.26087 0.91551 0.61726 0.0
H1126 H 0.26769 0.91561 0.64924 0.0
H1127 H 0.29672 0.96507 0.66317 0.0
H1128 H 0.24236 0.21369 0.83821 0.0
H1129 H 0.26129 0.1848 0.82311 0.0
H1130 H 0.34643 0.26582 0.81476 0.0
H1131 H 0.32753 0.29519 0.82988 0.0
H1132 H 0.31992 0.23339 0.7846 0.0
H1133 H 0.32158 0.15749 0.83505 0.0
H1134 H 0.28658 0.15747 0.83458 0.0
H1135 H 0.32074 0.19143 0.84024 0.0
C1136 C 0.26531 0.2254 0.83344 0.0
C1137 C 0.28337 0.25682 0.83517 0.0
C1138 C 0.2762 0.20875 0.82494 0.0
C1139 C 0.30541 0.22306 0.81802 0.0
C1140 C 0.3239 0.2543 0.82016 0.0
H1141 H 0.36314 0.14194 0.73665 0.0
H1142 H 0.36781 0.17568 0.76058 0.0
C1143 C 0.31307 0.27103 0.8288 0.0
C1144 C 0.31491 0.20578 0.8068 0.0
H1145 H 0.31845 0.14104 0.80532 0.0
C1146 C 0.32034 0.21359 0.78918 0.0
C1147 C 0.31528 0.1799 0.81282 0.0
C1148 C 0.31103 0.17122 0.83175 0.0
C1149 C 0.32413 0.19515 0.77718 0.0
C1150 C 0.32315 0.1685 0.78306 0.0
C1151 C 0.31919 0.16146 0.80084 0.0
C1152 C 0.32303 0.14628 0.77068 0.0
C1153 C 0.3272 0.20337 0.75816 0.0
C1154 C 0.29708 0.11785 0.7691 0.0
C1155 C 0.29458 0.09849 0.75563 0.0
C1156 C 0.31794 0.1073 0.74351 0.0
C1157 C 0.3448 0.13474 0.74585 0.0
C1158 C 0.34737 0.15409 0.75939 0.0
H1159 H 0.32168 0.22136 0.75548 0.0
H1160 H 0.35076 0.21166 0.75396 0.0
H1161 H 0.31223 0.18339 0.75014 0.0
H1162 H 0.27811 0.1113 0.77773 0.0
H1163 H 0.27379 0.07727 0.75414 0.0
H1164 H 0.03115 0.33092 0.99754 0.0
H1165 H 0.08002 0.34982 0.98303 0.0
H1166 H 0.07202 0.26237 0.98803 0.0
H1167 H 0.02359 0.24338 0.0025 0.0
H1168 H 0.13174 0.31363 0.99543 0.0
H1169 H 0.08298 0.32204 0.93237 0.0
H1170 H 0.07881 0.34117 0.95082 0.0
H1171 H 0.05956 0.3008 0.95045 0.0
C1172 C 0.03999 0.31584 0.99574 0.0
C1173 C 0.02327 0.28553 1.001 0.0
C1174 C 0.06785 0.32665 0.98741 0.0
C1175 C 0.07943 0.30737 0.98432 0.0
C1176 C 0.06346 0.2776 0.99028 0.0
H1177 H 0.20309 0.27728 0.92845 0.0
H1178 H 0.17247 0.28255 0.95105 0.0
C1179 C 0.03566 0.26675 0.99848 0.0
C1180 C 0.107 0.3171 0.97382 0.0
H1181 H 0.1318 0.3295 0.93189 0.0
C1182 C 0.13203 0.31762 0.98158 0.0
C1183 C 0.10731 0.32236 0.95578 0.0
C1184 C 0.08075 0.32146 0.94674 0.0
C1185 C 0.15702 0.3223 0.97165 0.0
C1186 C 0.15658 0.32582 0.95344 0.0
C1187 C 0.13217 0.32681 0.94585 0.0
C1188 C 0.17941 0.32543 0.94171 0.0
C1189 C 0.18341 0.32303 0.98074 0.0
C1190 C 0.19376 0.34783 0.92899 0.0
C1191 C 0.21085 0.34454 0.91592 0.0
C1192 C 0.21373 0.31873 0.91534 0.0
C1193 C 0.20101 0.29728 0.92864 0.0
C1194 C 0.18379 0.30047 0.94165 0.0
H1195 H 0.18542 0.33116 0.99432 0.0
H1196 H 0.17993 0.29987 0.98128 0.0
H1197 H 0.20488 0.33771 0.97383 0.0
H1198 H 0.19059 0.36719 0.92871 0.0
H1199 H 0.22032 0.36127 0.90571 0.0
H1200 H 0.77807 0.0224 0.17485 0.0
H1201 H 0.81013 0.06977 0.15994 0.0
H1202 H 0.73182 0.07449 0.14435 0.0
H1203 H 0.6993 0.02691 0.15956 0.0
H1204 H 0.80504 0.07447 0.12423 0.0
H1205 H 0.79199 0.1619 0.15953 0.0
H1206 H 0.78225 0.12602 0.16917 0.0
H1207 H 0.75774 0.12844 0.15342 0.0
C1208 C 0.76758 0.03369 0.16852 0.0
C1209 C 0.73606 0.0207 0.16826 0.0
C1210 C 0.786 0.06085 0.16003 0.0
C1211 C 0.77342 0.07573 0.15108 0.0
C1212 C 0.74205 0.06363 0.15142 0.0
H1213 H 0.8554 0.21506 0.07208 0.0
H1214 H 0.82109 0.1813 0.09457 0.0
C1215 C 0.72348 0.03638 0.16005 0.0
C1216 C 0.7931 0.10176 0.13984 0.0
H1217 H 0.82121 0.17723 0.13371 0.0
C1218 C 0.8086 0.09694 0.12635 0.0
C1219 C 0.79745 0.13097 0.14251 0.0
C1220 C 0.78169 0.13738 0.15701 0.0
C1221 C 0.82851 0.12049 0.11553 0.0
C1222 C 0.8335 0.14987 0.11845 0.0
C1223 C 0.81754 0.15472 0.13167 0.0
C1224 C 0.85518 0.17541 0.10758 0.0
C1225 C 0.84389 0.11369 0.10093 0.0
C1226 C 0.88592 0.18439 0.10803 0.0
C1227 C 0.90542 0.20356 0.09524 0.0
C1228 C 0.89445 0.21411 0.08192 0.0
C1229 C 0.8643 0.20728 0.08235 0.0
C1230 C 0.84474 0.188 0.09513 0.0
H1231 H 0.83265 0.0892 0.09806 0.0
H1232 H 0.84425 0.1258 0.08889 0.0
H1233 H 0.86755 0.12136 0.10467 0.0
H1234 H 0.89441 0.17505 0.11763 0.0
H1235 H 0.9286 0.20857 0.09509 0.0
H1236 H 0.74704 0.78444 0.3461 0.0
H1237 H 0.72954 0.81529 0.3318 0.0
H1238 H 0.65105 0.7352 0.31319 0.0
H1239 H 0.66824 0.70395 0.32782 0.0
H1240 H 0.72388 0.81222 0.29608 0.0
H1241 H 0.61666 0.78985 0.32702 0.0
H1242 H 0.64304 0.78145 0.33764 0.0
H1243 H 0.61877 0.75713 0.32085 0.0
C1244 C 0.72567 0.7733 0.33932 0.0
C1245 C 0.70916 0.74175 0.33794 0.0
C1246 C 0.71566 0.79099 0.33119 0.0
C1247 C 0.68898 0.77759 0.32145 0.0
C1248 C 0.67145 0.74603 0.32088 0.0
H1249 H 0.63203 0.85128 0.23819 0.0
H1250 H 0.63137 0.819 0.26198 0.0
C1251 C 0.68136 0.72819 0.32919 0.0
C1252 C 0.68226 0.79675 0.30999 0.0
H1253 H 0.63112 0.81927 0.30115 0.0
C1254 C 0.70367 0.81388 0.29729 0.0
C1255 C 0.6557 0.79856 0.31143 0.0
C1256 C 0.63225 0.78097 0.32504 0.0
C1257 C 0.69936 0.83279 0.28599 0.0
C1258 C 0.67313 0.83512 0.28762 0.0
C1259 C 0.65136 0.81766 0.30011 0.0
C1260 C 0.6682 0.85526 0.276 0.0
C1261 C 0.72276 0.84979 0.27219 0.0
C1262 C 0.68804 0.88649 0.27653 0.0
C1263 C 0.68849 0.90482 0.26297 0.0
C1264 C 0.6689 0.89217 0.24883 0.0
C1265 C 0.64713 0.86145 0.2491 0.0
C1266 C 0.64679 0.84305 0.26263 0.0
H1267 H 0.73801 0.84049 0.27022 0.0
H1268 H 0.71194 0.84921 0.25959 0.0
H1269 H 0.7367 0.87369 0.27617 0.0
H1270 H 0.70461 0.89633 0.2868 0.0
H1271 H 0.70554 0.92846 0.26291 0.0
H1272 H 0.31787 0.18518 0.52289 0.0
H1273 H 0.33719 0.17136 0.54779 0.0
H1274 H 0.41312 0.26161 0.5505 0.0
H1275 H 0.3934 0.27608 0.52537 0.0
H1276 H 0.39119 0.17262 0.55453 0.0
H1277 H 0.37408 0.24914 0.59861 0.0
H1278 H 0.35871 0.24103 0.57693 0.0
H1279 H 0.39844 0.26515 0.58011 0.0
C1280 C 0.33879 0.20225 0.52863 0.0
C1281 C 0.35384 0.23194 0.52224 0.0
C1282 C 0.34994 0.19417 0.54285 0.0
C1283 C 0.37645 0.21547 0.55113 0.0
C1284 C 0.39239 0.2449 0.54444 0.0
H1285 H 0.39318 0.12091 0.64396 0.0
H1286 H 0.41403 0.15614 0.61931 0.0
C1287 C 0.38116 0.2531 0.53006 0.0
C1288 C 0.38522 0.20647 0.56747 0.0
H1289 H 0.3785 0.21028 0.61136 0.0
C1290 C 0.38944 0.18141 0.56702 0.0
C1291 C 0.38294 0.21804 0.58372 0.0
C1292 C 0.37818 0.24474 0.58504 0.0
C1293 C 0.38836 0.16582 0.58226 0.0
C1294 C 0.38338 0.17586 0.59835 0.0
C1295 C 0.3823 0.20268 0.59897 0.0
C1296 C 0.37246 0.15573 0.61371 0.0
C1297 C 0.38963 0.13713 0.5809 0.0
C1298 C 0.34241 0.14407 0.61874 0.0
C1299 C 0.33055 0.12416 0.63261 0.0
C1300 C 0.34846 0.11533 0.64196 0.0
C1301 C 0.37876 0.12715 0.63701 0.0
C1302 C 0.3907 0.14725 0.62295 0.0
H1303 H 0.39212 0.13164 0.56726 0.0
H1304 H 0.409 0.13937 0.58853 0.0
H1305 H 0.36882 0.11804 0.58642 0.0
H1306 H 0.32787 0.15011 0.61171 0.0
H1307 H 0.30712 0.11555 0.6359 0.0
H1308 H 0.11846 0.3907 0.69535 0.0
H1309 H 0.15395 0.41022 0.71992 0.0
H1310 H 0.15074 0.32482 0.72409 0.0
H1311 H 0.11582 0.30532 0.69999 0.0
H1312 H 0.14491 0.3867 0.75425 0.0
H1313 H 0.24139 0.38518 0.72368 0.0
H1314 H 0.21143 0.3849 0.71115 0.0
H1315 H 0.20718 0.35039 0.7199 0.0
C1316 C 0.12548 0.37619 0.70148 0.0
C1317 C 0.11431 0.34646 0.69562 0.0
C1318 C 0.14579 0.3874 0.71546 0.0
C1319 C 0.15554 0.36918 0.72354 0.0
C1320 C 0.14421 0.33956 0.71775 0.0
H1321 H 0.18384 0.31662 0.81637 0.0
H1322 H 0.16907 0.33577 0.79181 0.0
C1323 C 0.12395 0.32836 0.704 0.0
C1324 C 0.17585 0.37958 0.73882 0.0
H1325 H 0.23603 0.37625 0.75504 0.0
C1326 C 0.16539 0.38541 0.75435 0.0
C1327 C 0.20297 0.37864 0.73894 0.0
C1328 C 0.21656 0.37477 0.72245 0.0
C1329 C 0.17948 0.38689 0.77026 0.0
C1330 C 0.20426 0.38189 0.77061 0.0
C1331 C 0.21675 0.37958 0.75486 0.0
C1332 C 0.21371 0.37331 0.78685 0.0
C1333 C 0.16664 0.3921 0.78665 0.0
C1334 C 0.24399 0.38775 0.7922 0.0
C1335 C 0.2527 0.37662 0.8064 0.0
C1336 C 0.23131 0.35056 0.81519 0.0
C1337 C 0.20101 0.33668 0.80993 0.0
C1338 C 0.19238 0.34785 0.79595 0.0
H1339 H 0.15697 0.40687 0.78408 0.0
H1340 H 0.14814 0.37023 0.79148 0.0
H1341 H 0.184 0.40248 0.79697 0.0
H1342 H 0.2609 0.4072 0.78519 0.0
H1343 H 0.27622 0.38778 0.81011 0.0
H1344 H 0.81488 0.14102 0.85174 0.0
H1345 H 0.83098 0.1702 0.87849 0.0
H1346 H 0.73832 0.13592 0.89314 0.0
H1347 H 0.72178 0.10661 0.86599 0.0
H1348 H 0.7859 0.20335 0.90158 0.0
H1349 H 0.81259 0.11633 0.924 0.0
H1350 H 0.82736 0.13203 0.90298 0.0
H1351 H 0.78733 0.1101 0.90613 0.0
C1352 C 0.79782 0.14003 0.86046 0.0
C1353 C 0.76703 0.12111 0.8569 0.0
C1354 C 0.80711 0.15685 0.87571 0.0
C1355 C 0.78585 0.15494 0.88783 0.0
C1356 C 0.75504 0.13768 0.88388 0.0
H1357 H 0.84566 0.1908 0.99437 0.0
H1358 H 0.81226 0.17157 0.96927 0.0
C1359 C 0.74564 0.12094 0.86842 0.0
C1360 C 0.79625 0.1679 0.90535 0.0
H1361 H 0.83219 0.1609 0.9407 0.0
C1362 C 0.79567 0.19395 0.91031 0.0
C1363 C 0.80867 0.15537 0.91672 0.0
C1364 C 0.80887 0.12677 0.91231 0.0
C1365 C 0.80823 0.20838 0.92622 0.0
C1366 C 0.82205 0.19663 0.9372 0.0
C1367 C 0.82165 0.17002 0.93235 0.0
C1368 C 0.83797 0.21148 0.95357 0.0
C1369 C 0.80653 0.23596 0.93111 0.0
C1370 C 0.86284 0.24094 0.95347 0.0
C1371 C 0.88166 0.25225 0.96806 0.0
C1372 C 0.87618 0.23395 0.98272 0.0
C1373 C 0.85034 0.20529 0.98318 0.0
C1374 C 0.83128 0.1943 0.96883 0.0
H1375 H 0.78742 0.23627 0.9245 0.0
H1376 H 0.80401 0.23719 0.94536 0.0
H1377 H 0.8276 0.25635 0.92698 0.0
H1378 H 0.86893 0.25443 0.94177 0.0
H1379 H 0.90171 0.27427 0.96736 0.0
H1380 H 0.62762 0.72555 0.03181 0.0
H1381 H 0.61466 0.74374 0.05818 0.0
H1382 H 0.65745 0.83347 0.03672 0.0
H1383 H 0.67117 0.8157 0.01087 0.0
H1384 H 0.68106 0.83192 0.06724 0.0
H1385 H 0.55652 0.77224 0.07305 0.0
H1386 H 0.57197 0.74794 0.0698 0.0
H1387 H 0.57551 0.77379 0.05297 0.0
C1388 C 0.63347 0.74895 0.0326 0.0
C1389 C 0.65069 0.76931 0.01943 0.0
C1390 C 0.62595 0.75932 0.04761 0.0
C1391 C 0.63503 0.79001 0.04943 0.0
C1392 C 0.65028 0.80975 0.03566 0.0
H1393 H 0.62077 0.89529 0.13437 0.0
H1394 H 0.61045 0.86592 0.10739 0.0
C1395 C 0.65817 0.79957 0.0209 0.0
C1396 C 0.63293 0.80271 0.06638 0.0
H1397 H 0.58463 0.8 0.09794 0.0
C1398 C 0.6599 0.82502 0.07385 0.0
C1399 C 0.60534 0.79382 0.075 0.0
C1400 C 0.57563 0.77083 0.06725 0.0
C1401 C 0.66016 0.83855 0.08967 0.0
C1402 C 0.63274 0.82905 0.09859 0.0
C1403 C 0.60561 0.80703 0.09111 0.0
C1404 C 0.63265 0.84169 0.11588 0.0
C1405 C 0.6899 0.86309 0.09668 0.0
C1406 C 0.64729 0.83674 0.12978 0.0
C1407 C 0.65355 0.85366 0.14494 0.0
C1408 C 0.64484 0.87553 0.14665 0.0
C1409 C 0.62772 0.87857 0.13337 0.0
C1410 C 0.6218 0.86182 0.118 0.0
H1411 H 0.70744 0.87279 0.0864 0.0
H1412 H 0.68746 0.88154 0.10254 0.0
H1413 H 0.69792 0.85356 0.10693 0.0
H1414 H 0.65553 0.82106 0.12847 0.0
H1415 H 0.66643 0.85054 0.15506 0.0
H1416 H 0.87568 0.60857 0.19286 0.0
H1417 H 0.84076 0.59063 0.21766 0.0
H1418 H 0.82815 0.66734 0.21237 0.0
H1419 H 0.8622 0.685 0.18776 0.0
H1420 H 0.84867 0.61972 0.24814 0.0
H1421 H 0.74253 0.60131 0.21943 0.0
H1422 H 0.77307 0.60414 0.2063 0.0
H1423 H 0.77259 0.63758 0.21307 0.0
C1424 C 0.86502 0.62128 0.19683 0.0
C1425 C 0.87188 0.6483 0.18836 0.0
C1426 C 0.84505 0.61098 0.21097 0.0
C1427 C 0.83131 0.62729 0.21667 0.0
C1428 C 0.83769 0.65384 0.20794 0.0
H1429 H 0.80631 0.69122 0.30733 0.0
H1430 H 0.82039 0.67246 0.2823 0.0
C1431 C 0.85756 0.66414 0.19395 0.0
C1432 C 0.81315 0.61914 0.23287 0.0
H1433 H 0.75127 0.6184 0.24988 0.0
C1434 C 0.82692 0.61847 0.24848 0.0
C1435 C 0.78442 0.61677 0.23341 0.0
C1436 C 0.7672 0.61464 0.2171 0.0
C1437 C 0.81429 0.61883 0.26459 0.0
C1438 C 0.78754 0.62045 0.26506 0.0
C1439 C 0.77209 0.61775 0.24953 0.0
C1440 C 0.7784 0.63019 0.28095 0.0
C1441 C 0.83062 0.61918 0.28096 0.0
C1442 C 0.74962 0.61297 0.28834 0.0
C1443 C 0.74126 0.6238 0.30284 0.0
C1444 C 0.76143 0.65219 0.30993 0.0
C1445 C 0.7901 0.66924 0.30233 0.0
C1446 C 0.79839 0.65842 0.28805 0.0
H1447 H 0.84317 0.60694 0.27906 0.0
H1448 H 0.84723 0.64283 0.28436 0.0
H1449 H 0.81479 0.60888 0.29201 0.0
H1450 H 0.73369 0.59128 0.28289 0.0
H1451 H 0.71901 0.61014 0.30835 0.0
H1452 H 0.18765 0.87418 0.36356 0.0
H1453 H 0.17389 0.83981 0.38783 0.0
H1454 H 0.25807 0.84046 0.38341 0.0
H1455 H 0.27256 0.87583 0.35884 0.0
H1456 H 0.16732 0.78249 0.39034 0.0
H1457 H 0.25727 0.86495 0.43427 0.0
H1458 H 0.24824 0.87669 0.41415 0.0
H1459 H 0.26801 0.85607 0.41383 0.0
C1460 C 0.20343 0.86715 0.36761 0.0
C1461 C 0.23143 0.87811 0.35928 0.0
C1462 C 0.19536 0.84725 0.3815 0.0
C1463 C 0.21495 0.83764 0.38753 0.0
C1464 C 0.24272 0.84786 0.37909 0.0
H1465 H 0.11644 0.71957 0.47703 0.0
H1466 H 0.15058 0.73355 0.45188 0.0
C1467 C 0.25094 0.868 0.36504 0.0
C1468 C 0.20596 0.81813 0.4032 0.0
H1469 H 0.21657 0.82313 0.44708 0.0
C1470 C 0.17848 0.79082 0.40274 0.0
C1471 C 0.22068 0.82906 0.4193 0.0
C1472 C 0.25013 0.85833 0.42059 0.0
C1473 C 0.16379 0.77582 0.41808 0.0
C1474 C 0.1773 0.78819 0.43429 0.0
C1475 C 0.20626 0.81374 0.43463 0.0
C1476 C 0.15937 0.77944 0.45058 0.0
C1477 C 0.13268 0.74856 0.41686 0.0
C1478 C 0.15377 0.80075 0.4585 0.0
C1479 C 0.13462 0.79296 0.47274 0.0
C1480 C 0.12039 0.76354 0.47952 0.0
C1481 C 0.12685 0.74234 0.47204 0.0
C1482 C 0.14625 0.75027 0.45764 0.0
H1483 H 0.12431 0.74357 0.40327 0.0
H1484 H 0.13308 0.7286 0.42209 0.0
H1485 H 0.1165 0.75199 0.42474 0.0
H1486 H 0.16353 0.82336 0.45329 0.0
H1487 H 0.13052 0.81006 0.47819 0.0
loop_
_geom_bond_atom_site_label_1
_geom_bond_atom_site_label_2
_geom_bond_distance
_geom_bond_site_symmetry_2
_ccdc_geom_bond_type
Co0 O3 1.970 . S
Co0 N17 1.989 . S
Co0 O25 1.967 . S
Co0 O32 1.920 . S
Co1 O4 1.966 . S
Co1 N10 2.022 . S
Co1 N18 1.993 . S
Co1 O26 1.941 . S
C2 O3 1.258 . S
C2 O4 1.263 . S
O3 Co0 1.970 . S
O3 C2 1.258 . S
O4 Co1 1.966 . S
O4 C2 1.263 . S
C5 O6 1.235 . S
C5 O32 1.289 . S
O6 C5 1.235 . S
C7 C9 1.400 . S
C7 N10 1.351 . S
C7 C12 1.501 . S
C8 C9 1.387 . S
C8 N11 1.341 . S
C9 C7 1.400 . S
C9 C8 1.387 . S
N10 Co1 2.022 . S
N10 C7 1.351 . S
N10 N11 1.365 . S
N11 C8 1.341 . S
N11 N10 1.365 . S
N11 H31 0.862 . S
C12 C7 1.501 . S
C12 H13 0.961 . S
C12 H14 0.961 . S
C12 H15 0.960 . S
H13 C12 0.961 . S
H14 C12 0.961 . S
H15 C12 0.960 . S
C16 N17 1.342 . S
C16 C20 1.401 . S
C16 C21 1.499 . S
N17 Co0 1.989 . S
N17 C16 1.342 . S
N17 N18 1.388 . S
N18 Co1 1.993 . S
N18 N17 1.388 . S
N18 C19 1.346 . S
C19 N18 1.346 . S
C19 C20 1.396 . S
C19 C29 1.510 . S
C20 C16 1.401 . S
C20 C19 1.396 . S
C21 C16 1.499 . S
C21 H22 0.959 . S
C21 H23 0.960 . S
C21 H24 0.961 . S
H22 C21 0.959 . S
H23 C21 0.960 . S
H24 C21 0.961 . S
O25 Co0 1.967 . S
O25 C33 1.258 . S
O26 Co1 1.941 . S
O26 C33 1.266 . S
H27 C29 0.959 . S
H28 C29 0.961 . S
C29 C19 1.510 . S
C29 H27 0.959 . S
C29 H28 0.961 . S
C29 H30 0.960 . S
H30 C29 0.960 . S
H31 N11 0.862 . S
O32 Co0 1.920 . S
O32 C5 1.289 . S
C33 O25 1.258 . S
C33 O26 1.266 . S
Co34 O37 1.970 . S
Co34 N51 1.989 . S
Co34 O59 1.967 . S
Co34 O66 1.920 . S
Co35 O38 1.966 . S
Co35 N44 2.022 . S
Co35 N52 1.993 . S
Co35 O60 1.941 . S
C36 O37 1.258 . S
C36 O38 1.263 . S
O37 Co34 1.970 . S
O37 C36 1.258 . S
O38 Co35 1.966 . S
O38 C36 1.263 . S
C39 O40 1.235 . S
C39 O66 1.289 . S
O40 C39 1.235 . S
C41 C43 1.400 . S
C41 N44 1.351 . S
C41 C46 1.501 . S
C42 C43 1.387 . S
C42 N45 1.341 . S
C43 C41 1.400 . S
C43 C42 1.387 . S
N44 Co35 2.022 . S
N44 C41 1.351 . S
N44 N45 1.365 . S
N45 C42 1.341 . S
N45 N44 1.365 . S
N45 H65 0.862 . S
C46 C41 1.501 . S
C46 H47 0.961 . S
C46 H48 0.961 . S
C46 H49 0.960 . S
H47 C46 0.961 . S
H48 C46 0.961 . S
H49 C46 0.960 . S
C50 N51 1.342 . S
C50 C54 1.401 . S
C50 C55 1.499 . S
N51 Co34 1.989 . S
N51 C50 1.342 . S
N51 N52 1.388 . S
N52 Co35 1.993 . S
N52 N51 1.388 . S
N52 C53 1.346 . S
C53 N52 1.346 . S
C53 C54 1.396 . S
C53 C63 1.510 . S
C54 C50 1.401 . S
C54 C53 1.396 . S
C55 C50 1.499 . S
C55 H56 0.959 . S
C55 H57 0.960 . S
C55 H58 0.961 . S
H56 C55 0.959 . S
H57 C55 0.960 . S
H58 C55 0.961 . S
O59 Co34 1.967 . S
O59 C67 1.258 . S
O60 Co35 1.941 . S
O60 C67 1.266 . S
H61 C63 0.959 . S
H62 C63 0.961 . S
C63 C53 1.510 . S
C63 H61 0.959 . S
C63 H62 0.961 . S
C63 H64 0.960 . S
H64 C63 0.960 . S
H65 N45 0.862 . S
O66 Co34 1.920 . S
O66 C39 1.289 . S
C67 O59 1.258 . S
C67 O60 1.266 . S
Co68 O71 1.970 . S
Co68 N85 1.989 . S
Co68 O93 1.967 . S
Co68 O100 1.920 . S
Co69 O72 1.966 . S
Co69 N78 2.022 . S
Co69 N86 1.993 . S
Co69 O94 1.941 . S
C70 O71 1.258 . S
C70 O72 1.263 . S
O71 Co68 1.970 . S
O71 C70 1.258 . S
O72 Co69 1.966 . S
O72 C70 1.263 . S
C73 O74 1.235 . S
C73 O100 1.289 . S
O74 C73 1.235 . S
C75 C77 1.400 . S
C75 N78 1.351 . S
C75 C80 1.501 . S
C76 C77 1.387 . S
C76 N79 1.341 . S
C77 C75 1.400 . S
C77 C76 1.387 . S
N78 Co69 2.022 . S
N78 C75 1.351 . S
N78 N79 1.365 . S
N79 C76 1.341 . S
N79 N78 1.365 . S
N79 H99 0.862 . S
C80 C75 1.501 . S
C80 H81 0.961 . S
C80 H82 0.961 . S
C80 H83 0.960 . S
H81 C80 0.961 . S
H82 C80 0.961 . S
H83 C80 0.960 . S
C84 N85 1.342 . S
C84 C88 1.401 . S
C84 C89 1.499 . S
N85 Co68 1.989 . S
N85 C84 1.342 . S
N85 N86 1.388 . S
N86 Co69 1.993 . S
N86 N85 1.388 . S
N86 C87 1.346 . S
C87 N86 1.346 . S
C87 C88 1.396 . S
C87 C97 1.510 . S
C88 C84 1.401 . S
C88 C87 1.396 . S
C89 C84 1.499 . S
C89 H90 0.959 . S
C89 H91 0.960 . S
C89 H92 0.961 . S
H90 C89 0.959 . S
H91 C89 0.960 . S
H92 C89 0.961 . S
O93 Co68 1.967 . S
O93 C101 1.258 . S
O94 Co69 1.941 . S
O94 C101 1.266 . S
H95 C97 0.959 . S
H96 C97 0.961 . S
C97 C87 1.510 . S
C97 H95 0.959 . S
C97 H96 0.961 . S
C97 H98 0.960 . S
H98 C97 0.960 . S
H99 N79 0.862 . S
O100 Co68 1.920 . S
O100 C73 1.289 . S
C101 O93 1.258 . S
C101 O94 1.266 . S
Co102 O105 1.970 . S
Co102 N119 1.989 . S
Co102 O127 1.967 . S
Co102 O134 1.920 . S
Co103 O106 1.966 . S
Co103 N112 2.022 . S
Co103 N120 1.993 . S
Co103 O128 1.941 . S
C104 O105 1.258 . S
C104 O106 1.263 . S
O105 Co102 1.970 . S
O105 C104 1.258 . S
O106 Co103 1.966 . S
O106 C104 1.263 . S
C107 O108 1.235 . S
C107 O134 1.289 . S
O108 C107 1.235 . S
C109 C111 1.400 . S
C109 N112 1.351 . S
C109 C114 1.501 . S
C110 C111 1.387 . S
C110 N113 1.341 . S
C111 C109 1.400 . S
C111 C110 1.387 . S
N112 Co103 2.022 . S
N112 C109 1.351 . S
N112 N113 1.365 . S
N113 C110 1.341 . S
N113 N112 1.365 . S
N113 H133 0.862 . S
C114 C109 1.501 . S
C114 H115 0.961 . S
C114 H116 0.961 . S
C114 H117 0.960 . S
H115 C114 0.961 . S
H116 C114 0.961 . S
H117 C114 0.960 . S
C118 N119 1.342 . S
C118 C122 1.401 . S
C118 C123 1.499 . S
N119 Co102 1.989 . S
N119 C118 1.342 . S
N119 N120 1.388 . S
N120 Co103 1.993 . S
N120 N119 1.388 . S
N120 C121 1.346 . S
C121 N120 1.346 . S
C121 C122 1.396 . S
C121 C131 1.510 . S
C122 C118 1.401 . S
C122 C121 1.396 . S
C123 C118 1.499 . S
C123 H124 0.959 . S
C123 H125 0.960 . S
C123 H126 0.961 . S
H124 C123 0.959 . S
H125 C123 0.960 . S
H126 C123 0.961 . S
O127 Co102 1.967 . S
O127 C135 1.258 . S
O128 Co103 1.941 . S
O128 C135 1.266 . S
H129 C131 0.959 . S
H130 C131 0.961 . S
C131 C121 1.510 . S
C131 H129 0.959 . S
C131 H130 0.961 . S
C131 H132 0.960 . S
H132 C131 0.960 . S
H133 N113 0.862 . S
O134 Co102 1.920 . S
O134 C107 1.289 . S
C135 O127 1.258 . S
C135 O128 1.266 . S
Co136 O139 1.970 . S
Co136 N153 1.989 . S
Co136 O161 1.967 . S
Co136 O168 1.920 . S
Co137 O140 1.966 . S
Co137 N146 2.022 . S
Co137 N154 1.993 . S
Co137 O162 1.941 . S
C138 O139 1.258 . S
C138 O140 1.263 . S
O139 Co136 1.970 . S
O139 C138 1.258 . S
O140 Co137 1.966 . S
O140 C138 1.263 . S
C141 O142 1.235 . S
C141 O168 1.289 . S
O142 C141 1.235 . S
C143 C145 1.400 . S
C143 N146 1.351 . S
C143 C148 1.501 . S
C144 C145 1.387 . S
C144 N147 1.341 . S
C145 C143 1.400 . S
C145 C144 1.387 . S
N146 Co137 2.022 . S
N146 C143 1.351 . S
N146 N147 1.365 . S
N147 C144 1.341 . S
N147 N146 1.365 . S
N147 H167 0.862 . S
C148 C143 1.501 . S
C148 H149 0.961 . S
C148 H150 0.961 . S
C148 H151 0.960 . S
H149 C148 0.961 . S
H150 C148 0.961 . S
H151 C148 0.960 . S
C152 N153 1.342 . S
C152 C156 1.401 . S
C152 C157 1.499 . S
N153 Co136 1.989 . S
N153 C152 1.342 . S
N153 N154 1.388 . S
N154 Co137 1.993 . S
N154 N153 1.388 . S
N154 C155 1.346 . S
C155 N154 1.346 . S
C155 C156 1.396 . S
C155 C165 1.510 . S
C156 C152 1.401 . S
C156 C155 1.396 . S
C157 C152 1.499 . S
C157 H158 0.959 . S
C157 H159 0.960 . S
C157 H160 0.961 . S
H158 C157 0.959 . S
H159 C157 0.960 . S
H160 C157 0.961 . S
O161 Co136 1.967 . S
O161 C169 1.258 . S
O162 Co137 1.941 . S
O162 C169 1.266 . S
H163 C165 0.959 . S
H164 C165 0.961 . S
C165 C155 1.510 . S
C165 H163 0.959 . S
C165 H164 0.961 . S
C165 H166 0.960 . S
H166 C165 0.960 . S
H167 N147 0.862 . S
O168 Co136 1.920 . S
O168 C141 1.289 . S
C169 O161 1.258 . S
C169 O162 1.266 . S
Co170 O173 1.970 . S
Co170 N187 1.989 . S
Co170 O195 1.967 . S
Co170 O202 1.920 . S
Co171 O174 1.966 . S
Co171 N180 2.022 . S
Co171 N188 1.993 . S
Co171 O196 1.941 . S
C172 O173 1.258 . S
C172 O174 1.263 . S
O173 Co170 1.970 . S
O173 C172 1.258 . S
O174 Co171 1.966 . S
O174 C172 1.263 . S
C175 O176 1.235 . S
C175 O202 1.289 . S
O176 C175 1.235 . S
C177 C179 1.400 . S
C177 N180 1.351 . S
C177 C182 1.501 . S
C178 C179 1.387 . S
C178 N181 1.341 . S
C179 C177 1.400 . S
C179 C178 1.387 . S
N180 Co171 2.022 . S
N180 C177 1.351 . S
N180 N181 1.365 . S
N181 C178 1.341 . S
N181 N180 1.365 . S
N181 H201 0.862 . S
C182 C177 1.501 . S
C182 H183 0.961 . S
C182 H184 0.961 . S
C182 H185 0.960 . S
H183 C182 0.961 . S
H184 C182 0.961 . S
H185 C182 0.960 . S
C186 N187 1.342 . S
C186 C190 1.401 . S
C186 C191 1.499 . S
N187 Co170 1.989 . S
N187 C186 1.342 . S
N187 N188 1.388 . S
N188 Co171 1.993 . S
N188 N187 1.388 . S
N188 C189 1.346 . S
C189 N188 1.346 . S
C189 C190 1.396 . S
C189 C199 1.510 . S
C190 C186 1.401 . S
C190 C189 1.396 . S
C191 C186 1.499 . S
C191 H192 0.959 . S
C191 H193 0.960 . S
C191 H194 0.961 . S
H192 C191 0.959 . S
H193 C191 0.960 . S
H194 C191 0.961 . S
O195 Co170 1.967 . S
O195 C203 1.258 . S
O196 Co171 1.941 . S
O196 C203 1.266 . S
H197 C199 0.959 . S
H198 C199 0.961 . S
C199 C189 1.510 . S
C199 H197 0.959 . S
C199 H198 0.961 . S
C199 H200 0.960 . S
H200 C199 0.960 . S
H201 N181 0.862 . S
O202 Co170 1.920 . S
O202 C175 1.289 . S
C203 O195 1.258 . S
C203 O196 1.266 . S
Co204 O207 1.970 . S
Co204 N221 1.989 . S
Co204 O229 1.967 . S
Co204 O236 1.920 . S
Co205 O208 1.966 . S
Co205 N214 2.022 . S
Co205 N222 1.993 . S
Co205 O230 1.941 . S
C206 O207 1.258 . S
C206 O208 1.263 . S
O207 Co204 1.970 . S
O207 C206 1.258 . S
O208 Co205 1.966 . S
O208 C206 1.263 . S
C209 O210 1.235 . S
C209 O236 1.289 . S
O210 C209 1.235 . S
C211 C213 1.400 . S
C211 N214 1.351 . S
C211 C216 1.501 . S
C212 C213 1.387 . S
C212 N215 1.341 . S
C213 C211 1.400 . S
C213 C212 1.387 . S
N214 Co205 2.022 . S
N214 C211 1.351 . S
N214 N215 1.365 . S
N215 C212 1.341 . S
N215 N214 1.365 . S
N215 H235 0.862 . S
C216 C211 1.501 . S
C216 H217 0.961 . S
C216 H218 0.961 . S
C216 H219 0.960 . S
H217 C216 0.961 . S
H218 C216 0.961 . S
H219 C216 0.960 . S
C220 N221 1.342 . S
C220 C224 1.401 . S
C220 C225 1.499 . S
N221 Co204 1.989 . S
N221 C220 1.342 . S
N221 N222 1.388 . S
N222 Co205 1.993 . S
N222 N221 1.388 . S
N222 C223 1.346 . S
C223 N222 1.346 . S
C223 C224 1.396 . S
C223 C233 1.510 . S
C224 C220 1.401 . S
C224 C223 1.396 . S
C225 C220 1.499 . S
C225 H226 0.959 . S
C225 H227 0.960 . S
C225 H228 0.961 . S
H226 C225 0.959 . S
H227 C225 0.960 . S
H228 C225 0.961 . S
O229 Co204 1.967 . S
O229 C237 1.258 . S
O230 Co205 1.941 . S
O230 C237 1.266 . S
H231 C233 0.959 . S
H232 C233 0.961 . S
C233 C223 1.510 . S
C233 H231 0.959 . S
C233 H232 0.961 . S
C233 H234 0.960 . S
H234 C233 0.960 . S
H235 N215 0.862 . S
O236 Co204 1.920 . S
O236 C209 1.289 . S
C237 O229 1.258 . S
C237 O230 1.266 . S
Co238 O241 1.970 . S
Co238 N255 1.989 . S
Co238 O263 1.967 . S
Co238 O270 1.920 . S
Co239 O242 1.966 . S
Co239 N248 2.022 . S
Co239 N256 1.993 . S
Co239 O264 1.941 . S
C240 O241 1.258 . S
C240 O242 1.263 . S
O241 Co238 1.970 . S
O241 C240 1.258 . S
O242 Co239 1.966 . S
O242 C240 1.263 . S
C243 O244 1.235 . S
C243 O270 1.289 . S
O244 C243 1.235 . S
C245 C247 1.400 . S
C245 N248 1.351 . S
C245 C250 1.501 . S
C246 C247 1.387 . S
C246 N249 1.341 . S
C247 C245 1.400 . S
C247 C246 1.387 . S
N248 Co239 2.022 . S
N248 C245 1.351 . S
N248 N249 1.365 . S
N249 C246 1.341 . S
N249 N248 1.365 . S
N249 H269 0.862 . S
C250 C245 1.501 . S
C250 H251 0.961 . S
C250 H252 0.961 . S
C250 H253 0.960 . S
H251 C250 0.961 . S
H252 C250 0.961 . S
H253 C250 0.960 . S
C254 N255 1.342 . S
C254 C258 1.401 . S
C254 C259 1.499 . S
N255 Co238 1.989 . S
N255 C254 1.342 . S
N255 N256 1.388 . S
N256 Co239 1.993 . S
N256 N255 1.388 . S
N256 C257 1.346 . S
C257 N256 1.346 . S
C257 C258 1.396 . S
C257 C267 1.510 . S
C258 C254 1.401 . S
C258 C257 1.396 . S
C259 C254 1.499 . S
C259 H260 0.959 . S
C259 H261 0.960 . S
C259 H262 0.961 . S
H260 C259 0.959 . S
H261 C259 0.960 . S
H262 C259 0.961 . S
O263 Co238 1.967 . S
O263 C271 1.258 . S
O264 Co239 1.941 . S
O264 C271 1.266 . S
H265 C267 0.959 . S
H266 C267 0.961 . S
C267 C257 1.510 . S
C267 H265 0.959 . S
C267 H266 0.961 . S
C267 H268 0.960 . S
H268 C267 0.960 . S
H269 N249 0.862 . S
O270 Co238 1.920 . S
O270 C243 1.289 . S
C271 O263 1.258 . S
C271 O264 1.266 . S
Co272 O275 1.970 . S
Co272 N289 1.989 . S
Co272 O297 1.967 . S
Co272 O304 1.920 . S
Co273 O276 1.966 . S
Co273 N282 2.022 . S
Co273 N290 1.993 . S
Co273 O298 1.941 . S
C274 O275 1.258 . S
C274 O276 1.263 . S
O275 Co272 1.970 . S
O275 C274 1.258 . S
O276 Co273 1.966 . S
O276 C274 1.263 . S
C277 O278 1.235 . S
C277 O304 1.289 . S
O278 C277 1.235 . S
C279 C281 1.400 . S
C279 N282 1.351 . S
C279 C284 1.501 . S
C280 C281 1.387 . S
C280 N283 1.341 . S
C281 C279 1.400 . S
C281 C280 1.387 . S
N282 Co273 2.022 . S
N282 C279 1.351 . S
N282 N283 1.365 . S
N283 C280 1.341 . S
N283 N282 1.365 . S
N283 H303 0.862 . S
C284 C279 1.501 . S
C284 H285 0.961 . S
C284 H286 0.961 . S
C284 H287 0.960 . S
H285 C284 0.961 . S
H286 C284 0.961 . S
H287 C284 0.960 . S
C288 N289 1.342 . S
C288 C292 1.401 . S
C288 C293 1.499 . S
N289 Co272 1.989 . S
N289 C288 1.342 . S
N289 N290 1.388 . S
N290 Co273 1.993 . S
N290 N289 1.388 . S
N290 C291 1.346 . S
C291 N290 1.346 . S
C291 C292 1.396 . S
C291 C301 1.510 . S
C292 C288 1.401 . S
C292 C291 1.396 . S
C293 C288 1.499 . S
C293 H294 0.959 . S
C293 H295 0.960 . S
C293 H296 0.961 . S
H294 C293 0.959 . S
H295 C293 0.960 . S
H296 C293 0.961 . S
O297 Co272 1.967 . S
O297 C305 1.258 . S
O298 Co273 1.941 . S
O298 C305 1.266 . S
H299 C301 0.959 . S
H300 C301 0.961 . S
C301 C291 1.510 . S
C301 H299 0.959 . S
C301 H300 0.961 . S
C301 H302 0.960 . S
H302 C301 0.960 . S
H303 N283 0.862 . S
O304 Co272 1.920 . S
O304 C277 1.289 . S
C305 O297 1.258 . S
C305 O298 1.266 . S
Co306 O309 1.970 . S
Co306 N323 1.989 . S
Co306 O331 1.967 . S
Co306 O338 1.920 . S
Co307 O310 1.966 . S
Co307 N316 2.022 . S
Co307 N324 1.993 . S
Co307 O332 1.941 . S
C308 O309 1.258 . S
C308 O310 1.263 . S
O309 Co306 1.970 . S
O309 C308 1.258 . S
O310 Co307 1.966 . S
O310 C308 1.263 . S
C311 O312 1.235 . S
C311 O338 1.289 . S
O312 C311 1.235 . S
C313 C315 1.400 . S
C313 N316 1.351 . S
C313 C318 1.501 . S
C314 C315 1.387 . S
C314 N317 1.341 . S
C315 C313 1.400 . S
C315 C314 1.387 . S
N316 Co307 2.022 . S
N316 C313 1.351 . S
N316 N317 1.365 . S
N317 C314 1.341 . S
N317 N316 1.365 . S
N317 H337 0.862 . S
C318 C313 1.501 . S
C318 H319 0.961 . S
C318 H320 0.961 . S
C318 H321 0.960 . S
H319 C318 0.961 . S
H320 C318 0.961 . S
H321 C318 0.960 . S
C322 N323 1.342 . S
C322 C326 1.401 . S
C322 C327 1.499 . S
N323 Co306 1.989 . S
N323 C322 1.342 . S
N323 N324 1.388 . S
N324 Co307 1.993 . S
N324 N323 1.388 . S
N324 C325 1.346 . S
C325 N324 1.346 . S
C325 C326 1.396 . S
C325 C335 1.510 . S
C326 C322 1.401 . S
C326 C325 1.396 . S
C327 C322 1.499 . S
C327 H328 0.959 . S
C327 H329 0.960 . S
C327 H330 0.961 . S
H328 C327 0.959 . S
H329 C327 0.960 . S
H330 C327 0.961 . S
O331 Co306 1.967 . S
O331 C339 1.258 . S
O332 Co307 1.941 . S
O332 C339 1.266 . S
H333 C335 0.959 . S
H334 C335 0.961 . S
C335 C325 1.510 . S
C335 H333 0.959 . S
C335 H334 0.961 . S
C335 H336 0.960 . S
H336 C335 0.960 . S
H337 N317 0.862 . S
O338 Co306 1.920 . S
O338 C311 1.289 . S
C339 O331 1.258 . S
C339 O332 1.266 . S
Co340 O343 1.970 . S
Co340 N357 1.989 . S
Co340 O365 1.967 . S
Co340 O372 1.920 . S
Co341 O344 1.966 . S
Co341 N350 2.022 . S
Co341 N358 1.993 . S
Co341 O366 1.941 . S
C342 O343 1.258 . S
C342 O344 1.263 . S
O343 Co340 1.970 . S
O343 C342 1.258 . S
O344 Co341 1.966 . S
O344 C342 1.263 . S
C345 O346 1.235 . S
C345 O372 1.289 . S
O346 C345 1.235 . S
C347 C349 1.400 . S
C347 N350 1.351 . S
C347 C352 1.501 . S
C348 C349 1.387 . S
C348 N351 1.341 . S
C349 C347 1.400 . S
C349 C348 1.387 . S
N350 Co341 2.022 . S
N350 C347 1.351 . S
N350 N351 1.365 . S
N351 C348 1.341 . S
N351 N350 1.365 . S
N351 H371 0.862 . S
C352 C347 1.501 . S
C352 H353 0.961 . S
C352 H354 0.961 . S
C352 H355 0.960 . S
H353 C352 0.961 . S
H354 C352 0.961 . S
H355 C352 0.960 . S
C356 N357 1.342 . S
C356 C360 1.401 . S
C356 C361 1.499 . S
N357 Co340 1.989 . S
N357 C356 1.342 . S
N357 N358 1.388 . S
N358 Co341 1.993 . S
N358 N357 1.388 . S
N358 C359 1.346 . S
C359 N358 1.346 . S
C359 C360 1.396 . S
C359 C369 1.510 . S
C360 C356 1.401 . S
C360 C359 1.396 . S
C361 C356 1.499 . S
C361 H362 0.959 . S
C361 H363 0.960 . S
C361 H364 0.961 . S
H362 C361 0.959 . S
H363 C361 0.960 . S
H364 C361 0.961 . S
O365 Co340 1.967 . S
O365 C373 1.258 . S
O366 Co341 1.941 . S
O366 C373 1.266 . S
H367 C369 0.959 . S
H368 C369 0.961 . S
C369 C359 1.510 . S
C369 H367 0.959 . S
C369 H368 0.961 . S
C369 H370 0.960 . S
H370 C369 0.960 . S
H371 N351 0.862 . S
O372 Co340 1.920 . S
O372 C345 1.289 . S
C373 O365 1.258 . S
C373 O366 1.266 . S
Co374 O377 1.970 . S
Co374 N391 1.989 . S
Co374 O399 1.967 . S
Co374 O406 1.920 . S
Co375 O378 1.966 . S
Co375 N384 2.022 . S
Co375 N392 1.993 . S
Co375 O400 1.941 . S
C376 O377 1.258 . S
C376 O378 1.263 . S
O377 Co374 1.970 . S
O377 C376 1.258 . S
O378 Co375 1.966 . S
O378 C376 1.263 . S
C379 O380 1.235 . S
C379 O406 1.289 . S
O380 C379 1.235 . S
C381 C383 1.400 . S
C381 N384 1.351 . S
C381 C386 1.501 . S
C382 C383 1.387 . S
C382 N385 1.341 . S
C383 C381 1.400 . S
C383 C382 1.387 . S
N384 Co375 2.022 . S
N384 C381 1.351 . S
N384 N385 1.365 . S
N385 C382 1.341 . S
N385 N384 1.365 . S
N385 H405 0.862 . S
C386 C381 1.501 . S
C386 H387 0.961 . S
C386 H388 0.961 . S
C386 H389 0.960 . S
H387 C386 0.961 . S
H388 C386 0.961 . S
H389 C386 0.960 . S
C390 N391 1.342 . S
C390 C394 1.401 . S
C390 C395 1.499 . S
N391 Co374 1.989 . S
N391 C390 1.342 . S
N391 N392 1.388 . S
N392 Co375 1.993 . S
N392 N391 1.388 . S
N392 C393 1.346 . S
C393 N392 1.346 . S
C393 C394 1.396 . S
C393 C403 1.510 . S
C394 C390 1.401 . S
C394 C393 1.396 . S
C395 C390 1.499 . S
C395 H396 0.959 . S
C395 H397 0.960 . S
C395 H398 0.961 . S
H396 C395 0.959 . S
H397 C395 0.960 . S
H398 C395 0.961 . S
O399 Co374 1.967 . S
O399 C407 1.258 . S
O400 Co375 1.941 . S
O400 C407 1.266 . S
H401 C403 0.959 . S
H402 C403 0.961 . S
C403 C393 1.510 . S
C403 H401 0.959 . S
C403 H402 0.961 . S
C403 H404 0.960 . S
H404 C403 0.960 . S
H405 N385 0.862 . S
O406 Co374 1.920 . S
O406 C379 1.289 . S
C407 O399 1.258 . S
C407 O400 1.266 . S
H408 C416 0.929 . S
H409 C418 0.930 . S
H410 C420 0.930 . S
H411 C423 0.929 . S
H412 C426 0.930 . S
H413 C428 0.960 . S
H414 C428 0.960 . S
H415 C428 0.960 . S
C416 H408 0.929 . S
C416 C417 1.377 . S
C416 C418 1.384 . S
C417 C416 1.377 . S
C417 C423 1.390 . S
C418 H409 0.930 . S
C418 C416 1.384 . S
C418 C419 1.372 . S
C419 C418 1.372 . S
C419 C420 1.400 . S
C419 C424 1.490 . S
C420 H410 0.930 . S
C420 C419 1.400 . S
C420 C423 1.386 . S
H421 C437 0.930 . S
H422 C438 0.931 . S
C423 H411 0.929 . S
C423 C417 1.390 . S
C423 C420 1.386 . S
C424 C419 1.490 . S
C424 C426 1.395 . S
C424 C427 1.403 . S
H425 C431 0.930 . S
C426 H412 0.930 . S
C426 C424 1.395 . S
C426 C429 1.403 . S
C427 C424 1.403 . S
C427 C428 1.524 . S
C427 C431 1.400 . S
C428 H413 0.960 . S
C428 H414 0.960 . S
C428 H415 0.960 . S
C428 C427 1.524 . S
C429 C426 1.403 . S
C429 C430 1.392 . S
C429 C433 1.495 . S
C430 C429 1.392 . S
C430 C431 1.385 . S
C430 C432 1.478 . S
C431 H425 0.930 . S
C431 C427 1.400 . S
C431 C430 1.385 . S
C432 C430 1.478 . S
C432 C434 1.381 . S
C432 C438 1.383 . S
C433 C429 1.495 . S
C433 H439 0.959 . S
C433 H440 0.961 . S
C433 H441 0.960 . S
C434 C432 1.381 . S
C434 C435 1.394 . S
C434 H442 0.930 . S
C435 C434 1.394 . S
C435 C436 1.383 . S
C435 H443 0.929 . S
C436 C435 1.383 . S
C436 C437 1.377 . S
C437 H421 0.930 . S
C437 C436 1.377 . S
C437 C438 1.379 . S
C438 H422 0.931 . S
C438 C432 1.383 . S
C438 C437 1.379 . S
H439 C433 0.959 . S
H440 C433 0.961 . S
H441 C433 0.960 . S
H442 C434 0.930 . S
H443 C435 0.929 . S
H444 C452 0.929 . S
H445 C454 0.930 . S
H446 C456 0.930 . S
H447 C459 0.929 . S
H448 C462 0.930 . S
H449 C464 0.960 . S
H450 C464 0.960 . S
H451 C464 0.960 . S
C452 H444 0.929 . S
C452 C453 1.377 . S
C452 C454 1.384 . S
C453 C452 1.377 . S
C453 C459 1.390 . S
C454 H445 0.930 . S
C454 C452 1.384 . S
C454 C455 1.372 . S
C455 C454 1.372 . S
C455 C456 1.400 . S
C455 C460 1.490 . S
C456 H446 0.930 . S
C456 C455 1.400 . S
C456 C459 1.386 . S
H457 C473 0.930 . S
H458 C474 0.931 . S
C459 H447 0.929 . S
C459 C453 1.390 . S
C459 C456 1.386 . S
C460 C455 1.490 . S
C460 C462 1.395 . S
C460 C463 1.403 . S
H461 C467 0.930 . S
C462 H448 0.930 . S
C462 C460 1.395 . S
C462 C465 1.403 . S
C463 C460 1.403 . S
C463 C464 1.524 . S
C463 C467 1.400 . S
C464 H449 0.960 . S
C464 H450 0.960 . S
C464 H451 0.960 . S
C464 C463 1.524 . S
C465 C462 1.403 . S
C465 C466 1.392 . S
C465 C469 1.495 . S
C466 C465 1.392 . S
C466 C467 1.385 . S
C466 C468 1.478 . S
C467 H461 0.930 . S
C467 C463 1.400 . S
C467 C466 1.385 . S
C468 C466 1.478 . S
C468 C470 1.381 . S
C468 C474 1.383 . S
C469 C465 1.495 . S
C469 H475 0.959 . S
C469 H476 0.961 . S
C469 H477 0.960 . S
C470 C468 1.381 . S
C470 C471 1.394 . S
C470 H478 0.930 . S
C471 C470 1.394 . S
C471 C472 1.383 . S
C471 H479 0.929 . S
C472 C471 1.383 . S
C472 C473 1.377 . S
C473 H457 0.930 . S
C473 C472 1.377 . S
C473 C474 1.379 . S
C474 H458 0.931 . S
C474 C468 1.383 . S
C474 C473 1.379 . S
H475 C469 0.959 . S
H476 C469 0.961 . S
H477 C469 0.960 . S
H478 C470 0.930 . S
H479 C471 0.929 . S
H480 C488 0.929 . S
H481 C490 0.930 . S
H482 C492 0.930 . S
H483 C495 0.929 . S
H484 C498 0.930 . S
H485 C500 0.960 . S
H486 C500 0.960 . S
H487 C500 0.960 . S
C488 H480 0.929 . S
C488 C489 1.377 . S
C488 C490 1.384 . S
C489 C488 1.377 . S
C489 C495 1.390 . S
C490 H481 0.930 . S
C490 C488 1.384 . S
C490 C491 1.372 . S
C491 C490 1.372 . S
C491 C492 1.400 . S
C491 C496 1.490 . S
C492 H482 0.930 . S
C492 C491 1.400 . S
C492 C495 1.386 . S
H493 C509 0.930 . S
H494 C510 0.931 . S
C495 H483 0.929 . S
C495 C489 1.390 . S
C495 C492 1.386 . S
C496 C491 1.490 . S
C496 C498 1.395 . S
C496 C499 1.403 . S
H497 C503 0.930 . S
C498 H484 0.930 . S
C498 C496 1.395 . S
C498 C501 1.403 . S
C499 C496 1.403 . S
C499 C500 1.524 . S
C499 C503 1.400 . S
C500 H485 0.960 . S
C500 H486 0.960 . S
C500 H487 0.960 . S
C500 C499 1.524 . S
C501 C498 1.403 . S
C501 C502 1.392 . S
C501 C505 1.495 . S
C502 C501 1.392 . S
C502 C503 1.385 . S
C502 C504 1.478 . S
C503 H497 0.930 . S
C503 C499 1.400 . S
C503 C502 1.385 . S
C504 C502 1.478 . S
C504 C506 1.381 . S
C504 C510 1.383 . S
C505 C501 1.495 . S
C505 H511 0.959 . S
C505 H512 0.961 . S
C505 H513 0.960 . S
C506 C504 1.381 . S
C506 C507 1.394 . S
C506 H514 0.930 . S
C507 C506 1.394 . S
C507 C508 1.383 . S
C507 H515 0.929 . S
C508 C507 1.383 . S
C508 C509 1.377 . S
C509 H493 0.930 . S
C509 C508 1.377 . S
C509 C510 1.379 . S
C510 H494 0.931 . S
C510 C504 1.383 . S
C510 C509 1.379 . S
H511 C505 0.959 . S
H512 C505 0.961 . S
H513 C505 0.960 . S
H514 C506 0.930 . S
H515 C507 0.929 . S
H516 C524 0.929 . S
H517 C526 0.930 . S
H518 C528 0.930 . S
H519 C531 0.929 . S
H520 C534 0.930 . S
H521 C536 0.960 . S
H522 C536 0.960 . S
H523 C536 0.960 . S
C524 H516 0.929 . S
C524 C525 1.377 . S
C524 C526 1.384 . S
C525 C524 1.377 . S
C525 C531 1.390 . S
C526 H517 0.930 . S
C526 C524 1.384 . S
C526 C527 1.372 . S
C527 C526 1.372 . S
C527 C528 1.400 . S
C527 C532 1.490 . S
C528 H518 0.930 . S
C528 C527 1.400 . S
C528 C531 1.386 . S
H529 C545 0.930 . S
H530 C546 0.931 . S
C531 H519 0.929 . S
C531 C525 1.390 . S
C531 C528 1.386 . S
C532 C527 1.490 . S
C532 C534 1.395 . S
C532 C535 1.403 . S
H533 C539 0.930 . S
C534 H520 0.930 . S
C534 C532 1.395 . S
C534 C537 1.403 . S
C535 C532 1.403 . S
C535 C536 1.524 . S
C535 C539 1.400 . S
C536 H521 0.960 . S
C536 H522 0.960 . S
C536 H523 0.960 . S
C536 C535 1.524 . S
C537 C534 1.403 . S
C537 C538 1.392 . S
C537 C541 1.495 . S
C538 C537 1.392 . S
C538 C539 1.385 . S
C538 C540 1.478 . S
C539 H533 0.930 . S
C539 C535 1.400 . S
C539 C538 1.385 . S
C540 C538 1.478 . S
C540 C542 1.381 . S
C540 C546 1.383 . S
C541 C537 1.495 . S
C541 H547 0.959 . S
C541 H548 0.961 . S
C541 H549 0.960 . S
C542 C540 1.381 . S
C542 C543 1.394 . S
C542 H550 0.930 . S
C543 C542 1.394 . S
C543 C544 1.383 . S
C543 H551 0.929 . S
C544 C543 1.383 . S
C544 C545 1.377 . S
C545 H529 0.930 . S
C545 C544 1.377 . S
C545 C546 1.379 . S
C546 H530 0.931 . S
C546 C540 1.383 . S
C546 C545 1.379 . S
H547 C541 0.959 . S
H548 C541 0.961 . S
H549 C541 0.960 . S
H550 C542 0.930 . S
H551 C543 0.929 . S
H552 C560 0.929 . S
H553 C562 0.930 . S
H554 C564 0.930 . S
H555 C567 0.929 . S
H556 C570 0.930 . S
H557 C572 0.960 . S
H558 C572 0.960 . S
H559 C572 0.960 . S
C560 H552 0.929 . S
C560 C561 1.377 . S
C560 C562 1.384 . S
C561 C560 1.377 . S
C561 C567 1.390 . S
C562 H553 0.930 . S
C562 C560 1.384 . S
C562 C563 1.372 . S
C563 C562 1.372 . S
C563 C564 1.400 . S
C563 C568 1.490 . S
C564 H554 0.930 . S
C564 C563 1.400 . S
C564 C567 1.386 . S
H565 C581 0.930 . S
H566 C582 0.931 . S
C567 H555 0.929 . S
C567 C561 1.390 . S
C567 C564 1.386 . S
C568 C563 1.490 . S
C568 C570 1.395 . S
C568 C571 1.403 . S
H569 C575 0.930 . S
C570 H556 0.930 . S
C570 C568 1.395 . S
C570 C573 1.403 . S
C571 C568 1.403 . S
C571 C572 1.524 . S
C571 C575 1.400 . S
C572 H557 0.960 . S
C572 H558 0.960 . S
C572 H559 0.960 . S
C572 C571 1.524 . S
C573 C570 1.403 . S
C573 C574 1.392 . S
C573 C577 1.495 . S
C574 C573 1.392 . S
C574 C575 1.385 . S
C574 C576 1.478 . S
C575 H569 0.930 . S
C575 C571 1.400 . S
C575 C574 1.385 . S
C576 C574 1.478 . S
C576 C578 1.381 . S
C576 C582 1.383 . S
C577 C573 1.495 . S
C577 H583 0.959 . S
C577 H584 0.961 . S
C577 H585 0.960 . S
C578 C576 1.381 . S
C578 C579 1.394 . S
C578 H586 0.930 . S
C579 C578 1.394 . S
C579 C580 1.383 . S
C579 H587 0.929 . S
C580 C579 1.383 . S
C580 C581 1.377 . S
C581 H565 0.930 . S
C581 C580 1.377 . S
C581 C582 1.379 . S
C582 H566 0.931 . S
C582 C576 1.383 . S
C582 C581 1.379 . S
H583 C577 0.959 . S
H584 C577 0.961 . S
H585 C577 0.960 . S
H586 C578 0.930 . S
H587 C579 0.929 . S
H588 C596 0.929 . S
H589 C598 0.930 . S
H590 C600 0.930 . S
H591 C603 0.929 . S
H592 C606 0.930 . S
H593 C608 0.960 . S
H594 C608 0.960 . S
H595 C608 0.960 . S
C596 H588 0.929 . S
C596 C597 1.377 . S
C596 C598 1.384 . S
C597 C596 1.377 . S
C597 C603 1.390 . S
C598 H589 0.930 . S
C598 C596 1.384 . S
C598 C599 1.372 . S
C599 C598 1.372 . S
C599 C600 1.400 . S
C599 C604 1.490 . S
C600 H590 0.930 . S
C600 C599 1.400 . S
C600 C603 1.386 . S
H601 C617 0.930 . S
H602 C618 0.931 . S
C603 H591 0.929 . S
C603 C597 1.390 . S
C603 C600 1.386 . S
C604 C599 1.490 . S
C604 C606 1.395 . S
C604 C607 1.403 . S
H605 C611 0.930 . S
C606 H592 0.930 . S
C606 C604 1.395 . S
C606 C609 1.403 . S
C607 C604 1.403 . S
C607 C608 1.524 . S
C607 C611 1.400 . S
C608 H593 0.960 . S
C608 H594 0.960 . S
C608 H595 0.960 . S
C608 C607 1.524 . S
C609 C606 1.403 . S
C609 C610 1.392 . S
C609 C613 1.495 . S
C610 C609 1.392 . S
C610 C611 1.385 . S
C610 C612 1.478 . S
C611 H605 0.930 . S
C611 C607 1.400 . S
C611 C610 1.385 . S
C612 C610 1.478 . S
C612 C614 1.381 . S
C612 C618 1.383 . S
C613 C609 1.495 . S
C613 H619 0.959 . S
C613 H620 0.961 . S
C613 H621 0.960 . S
C614 C612 1.381 . S
C614 C615 1.394 . S
C614 H622 0.930 . S
C615 C614 1.394 . S
C615 C616 1.383 . S
C615 H623 0.929 . S
C616 C615 1.383 . S
C616 C617 1.377 . S
C617 H601 0.930 . S
C617 C616 1.377 . S
C617 C618 1.379 . S
C618 H602 0.931 . S
C618 C612 1.383 . S
C618 C617 1.379 . S
H619 C613 0.959 . S
H620 C613 0.961 . S
H621 C613 0.960 . S
H622 C614 0.930 . S
H623 C615 0.929 . S
H624 C632 0.929 . S
H625 C634 0.930 . S
H626 C636 0.930 . S
H627 C639 0.929 . S
H628 C642 0.930 . S
H629 C644 0.960 . S
H630 C644 0.960 . S
H631 C644 0.960 . S
C632 H624 0.929 . S
C632 C633 1.377 . S
C632 C634 1.384 . S
C633 C632 1.377 . S
C633 C639 1.390 . S
C634 H625 0.930 . S
C634 C632 1.384 . S
C634 C635 1.372 . S
C635 C634 1.372 . S
C635 C636 1.400 . S
C635 C640 1.490 . S
C636 H626 0.930 . S
C636 C635 1.400 . S
C636 C639 1.386 . S
H637 C653 0.930 . S
H638 C654 0.931 . S
C639 H627 0.929 . S
C639 C633 1.390 . S
C639 C636 1.386 . S
C640 C635 1.490 . S
C640 C642 1.395 . S
C640 C643 1.403 . S
H641 C647 0.930 . S
C642 H628 0.930 . S
C642 C640 1.395 . S
C642 C645 1.403 1_565 S
C643 C640 1.403 . S
C643 C644 1.524 . S
C643 C647 1.400 1_565 S
C644 H629 0.960 . S
C644 H630 0.960 . S
C644 H631 0.960 . S
C644 C643 1.524 . S
C645 C642 1.403 1_545 S
C645 C646 1.392 . S
C645 C649 1.495 . S
C646 C645 1.392 . S
C646 C647 1.385 . S
C646 C648 1.478 . S
C647 H641 0.930 . S
C647 C643 1.400 1_545 S
C647 C646 1.385 . S
C648 C646 1.478 . S
C648 C650 1.381 . S
C648 C654 1.383 . S
C649 C645 1.495 . S
C649 H655 0.959 . S
C649 H656 0.961 . S
C649 H657 0.960 . S
C650 C648 1.381 . S
C650 C651 1.394 . S
C650 H658 0.930 . S
C651 C650 1.394 . S
C651 C652 1.383 . S
C651 H659 0.929 . S
C652 C651 1.383 . S
C652 C653 1.377 . S
C653 H637 0.930 . S
C653 C652 1.377 . S
C653 C654 1.379 . S
C654 H638 0.931 . S
C654 C648 1.383 . S
C654 C653 1.379 . S
H655 C649 0.959 . S
H656 C649 0.961 . S
H657 C649 0.960 . S
H658 C650 0.930 . S
H659 C651 0.929 . S
H660 C668 0.929 . S
H661 C670 0.930 . S
H662 C672 0.930 . S
H663 C675 0.929 . S
H664 C678 0.930 . S
H665 C680 0.960 . S
H666 C680 0.960 . S
H667 C680 0.960 . S
C668 H660 0.929 . S
C668 C669 1.377 . S
C668 C670 1.384 . S
C669 C668 1.377 . S
C669 C675 1.390 . S
C670 H661 0.930 . S
C670 C668 1.384 . S
C670 C671 1.372 . S
C671 C670 1.372 . S
C671 C672 1.400 . S
C671 C676 1.490 . S
C672 H662 0.930 . S
C672 C671 1.400 . S
C672 C675 1.386 . S
H673 C689 0.930 . S
H674 C690 0.931 . S
C675 H663 0.929 . S
C675 C669 1.390 . S
C675 C672 1.386 . S
C676 C671 1.490 . S
C676 C678 1.395 . S
C676 C679 1.403 . S
H677 C683 0.930 . S
C678 H664 0.930 . S
C678 C676 1.395 . S
C678 C681 1.403 . S
C679 C676 1.403 . S
C679 C680 1.524 . S
C679 C683 1.400 . S
C680 H665 0.960 . S
C680 H666 0.960 . S
C680 H667 0.960 . S
C680 C679 1.524 . S
C681 C678 1.403 . S
C681 C682 1.392 . S
C681 C685 1.495 . S
C682 C681 1.392 . S
C682 C683 1.385 . S
C682 C684 1.478 . S
C683 H677 0.930 . S
C683 C679 1.400 . S
C683 C682 1.385 . S
C684 C682 1.478 . S
C684 C686 1.381 . S
C684 C690 1.383 . S
C685 C681 1.495 . S
C685 H691 0.959 . S
C685 H692 0.961 . S
C685 H693 0.960 . S
C686 C684 1.381 . S
C686 C687 1.394 . S
C686 H694 0.930 . S
C687 C686 1.394 . S
C687 C688 1.383 . S
C687 H695 0.929 . S
C688 C687 1.383 . S
C688 C689 1.377 . S
C689 H673 0.930 . S
C689 C688 1.377 . S
C689 C690 1.379 . S
C690 H674 0.931 . S
C690 C684 1.383 . S
C690 C689 1.379 . S
H691 C685 0.959 . S
H692 C685 0.961 . S
H693 C685 0.960 . S
H694 C686 0.930 . S
H695 C687 0.929 . S
H696 C704 0.929 . S
H697 C706 0.930 . S
H698 C708 0.930 . S
H699 C711 0.929 . S
H700 C714 0.930 . S
H701 C716 0.960 . S
H702 C716 0.960 . S
H703 C716 0.960 . S
C704 H696 0.929 . S
C704 C705 1.377 . S
C704 C706 1.384 . S
C705 C704 1.377 . S
C705 C711 1.390 . S
C706 H697 0.930 . S
C706 C704 1.384 . S
C706 C707 1.372 . S
C707 C706 1.372 . S
C707 C708 1.400 . S
C707 C712 1.490 . S
C708 H698 0.930 . S
C708 C707 1.400 . S
C708 C711 1.386 . S
H709 C725 0.930 . S
H710 C726 0.931 . S
C711 H699 0.929 . S
C711 C705 1.390 . S
C711 C708 1.386 . S
C712 C707 1.490 . S
C712 C714 1.395 . S
C712 C715 1.403 . S
H713 C719 0.930 . S
C714 H700 0.930 . S
C714 C712 1.395 . S
C714 C717 1.403 1_455 S
C715 C712 1.403 . S
C715 C716 1.524 . S
C715 C719 1.400 1_455 S
C716 H701 0.960 . S
C716 H702 0.960 . S
C716 H703 0.960 . S
C716 C715 1.524 . S
C717 C714 1.403 1_655 S
C717 C718 1.392 . S
C717 C721 1.495 . S
C718 C717 1.392 . S
C718 C719 1.385 . S
C718 C720 1.478 . S
C719 H713 0.930 . S
C719 C715 1.400 1_655 S
C719 C718 1.385 . S
C720 C718 1.478 . S
C720 C722 1.381 . S
C720 C726 1.383 . S
C721 C717 1.495 . S
C721 H727 0.959 . S
C721 H728 0.961 . S
C721 H729 0.960 . S
C722 C720 1.381 . S
C722 C723 1.394 . S
C722 H730 0.930 . S
C723 C722 1.394 . S
C723 C724 1.383 . S
C723 H731 0.929 . S
C724 C723 1.383 . S
C724 C725 1.377 . S
C725 H709 0.930 . S
C725 C724 1.377 . S
C725 C726 1.379 . S
C726 H710 0.931 . S
C726 C720 1.383 . S
C726 C725 1.379 . S
H727 C721 0.959 . S
H728 C721 0.961 . S
H729 C721 0.960 . S
H730 C722 0.930 . S
H731 C723 0.929 . S
H732 C740 0.929 . S
H733 C742 0.930 1_554 S
H734 C744 0.930 . S
H735 C747 0.929 . S
H736 C750 0.930 . S
H737 C752 0.960 . S
H738 C752 0.960 . S
H739 C752 0.960 1_556 S
C740 H732 0.929 . S
C740 C741 1.377 . S
C740 C742 1.384 . S
C741 C740 1.377 . S
C741 C747 1.390 . S
C742 H733 0.930 1_556 S
C742 C740 1.384 . S
C742 C743 1.372 . S
C743 C742 1.372 . S
C743 C744 1.400 . S
C743 C748 1.490 . S
C744 H734 0.930 . S
C744 C743 1.400 . S
C744 C747 1.386 . S
H745 C761 0.930 . S
H746 C762 0.931 1_556 S
C747 H735 0.929 . S
C747 C741 1.390 . S
C747 C744 1.386 . S
C748 C743 1.490 . S
C748 C750 1.395 . S
C748 C751 1.403 1_556 S
H749 C755 0.930 . S
C750 H736 0.930 . S
C750 C748 1.395 . S
C750 C753 1.403 1_565 S
C751 C748 1.403 1_554 S
C751 C752 1.524 . S
C751 C755 1.400 1_565 S
C752 H737 0.960 . S
C752 H738 0.960 . S
C752 H739 0.960 1_554 S
C752 C751 1.524 . S
C753 C750 1.403 1_545 S
C753 C754 1.392 1_556 S
C753 C757 1.495 . S
C754 C753 1.392 1_554 S
C754 C755 1.385 . S
C754 C756 1.478 . S
C755 H749 0.930 . S
C755 C751 1.400 1_545 S
C755 C754 1.385 . S
C756 C754 1.478 . S
C756 C758 1.381 . S
C756 C762 1.383 . S
C757 C753 1.495 . S
C757 H763 0.959 . S
C757 H764 0.961 . S
C757 H765 0.960 1_556 S
C758 C756 1.381 . S
C758 C759 1.394 . S
C758 H766 0.930 . S
C759 C758 1.394 . S
C759 C760 1.383 . S
C759 H767 0.929 . S
C760 C759 1.383 . S
C760 C761 1.377 . S
C761 H745 0.930 . S
C761 C760 1.377 . S
C761 C762 1.379 . S
C762 H746 0.931 1_554 S
C762 C756 1.383 . S
C762 C761 1.379 . S
H763 C757 0.959 . S
H764 C757 0.961 . S
H765 C757 0.960 1_554 S
H766 C758 0.930 . S
H767 C759 0.929 . S
H768 C776 0.929 . S
H769 C778 0.930 . S
H770 C780 0.930 . S
H771 C783 0.929 . S
H772 C786 0.930 . S
H773 C788 0.960 . S
H774 C788 0.960 . S
H775 C788 0.960 . S
C776 H768 0.929 . S
C776 C777 1.377 . S
C776 C778 1.384 . S
C777 C776 1.377 . S
C777 C783 1.390 . S
C778 H769 0.930 . S
C778 C776 1.384 . S
C778 C779 1.372 . S
C779 C778 1.372 . S
C779 C780 1.400 . S
C779 C784 1.490 . S
C780 H770 0.930 . S
C780 C779 1.400 . S
C780 C783 1.386 . S
H781 C797 0.930 . S
H782 C798 0.931 . S
C783 H771 0.929 . S
C783 C777 1.390 . S
C783 C780 1.386 . S
C784 C779 1.490 . S
C784 C786 1.395 . S
C784 C787 1.403 . S
H785 C791 0.930 . S
C786 H772 0.930 . S
C786 C784 1.395 . S
C786 C789 1.403 . S
C787 C784 1.403 . S
C787 C788 1.524 . S
C787 C791 1.400 . S
C788 H773 0.960 . S
C788 H774 0.960 . S
C788 H775 0.960 . S
C788 C787 1.524 . S
C789 C786 1.403 . S
C789 C790 1.392 . S
C789 C793 1.495 . S
C790 C789 1.392 . S
C790 C791 1.385 . S
C790 C792 1.478 . S
C791 H785 0.930 . S
C791 C787 1.400 . S
C791 C790 1.385 . S
C792 C790 1.478 . S
C792 C794 1.381 . S
C792 C798 1.383 . S
C793 C789 1.495 . S
C793 H799 0.959 . S
C793 H800 0.961 . S
C793 H801 0.960 . S
C794 C792 1.381 . S
C794 C795 1.394 . S
C794 H802 0.930 . S
C795 C794 1.394 . S
C795 C796 1.383 . S
C795 H803 0.929 . S
C796 C795 1.383 . S
C796 C797 1.377 . S
C797 H781 0.930 . S
C797 C796 1.377 . S
C797 C798 1.379 . S
C798 H782 0.931 . S
C798 C792 1.383 . S
C798 C797 1.379 . S
H799 C793 0.959 . S
H800 C793 0.961 . S
H801 C793 0.960 . S
H802 C794 0.930 . S
H803 C795 0.929 . S
H804 C812 0.929 . S
H805 C814 0.930 . S
H806 C816 0.930 . S
H807 C819 0.929 . S
H808 C822 0.930 . S
H809 C824 0.960 . S
H810 C824 0.960 . S
H811 C824 0.960 . S
C812 H804 0.929 . S
C812 C813 1.377 . S
C812 C814 1.384 . S
C813 C812 1.377 . S
C813 C819 1.390 . S
C814 H805 0.930 . S
C814 C812 1.384 . S
C814 C815 1.372 . S
C815 C814 1.372 . S
C815 C816 1.400 . S
C815 C820 1.490 . S
C816 H806 0.930 . S
C816 C815 1.400 . S
C816 C819 1.386 . S
H817 C833 0.930 . S
H818 C834 0.931 . S
C819 H807 0.929 . S
C819 C813 1.390 . S
C819 C816 1.386 . S
C820 C815 1.490 . S
C820 C822 1.395 . S
C820 C823 1.403 . S
H821 C827 0.930 . S
C822 H808 0.930 . S
C822 C820 1.395 . S
C822 C825 1.403 1_455 S
C823 C820 1.403 . S
C823 C824 1.524 . S
C823 C827 1.400 1_455 S
C824 H809 0.960 . S
C824 H810 0.960 . S
C824 H811 0.960 . S
C824 C823 1.524 . S
C825 C822 1.403 1_655 S
C825 C826 1.392 . S
C825 C829 1.495 . S
C826 C825 1.392 . S
C826 C827 1.385 . S
C826 C828 1.478 . S
C827 H821 0.930 . S
C827 C823 1.400 1_655 S
C827 C826 1.385 . S
C828 C826 1.478 . S
C828 C830 1.381 . S
C828 C834 1.383 . S
C829 C825 1.495 . S
C829 H835 0.959 . S
C829 H836 0.961 . S
C829 H837 0.960 . S
C830 C828 1.381 . S
C830 C831 1.394 . S
C830 H838 0.930 . S
C831 C830 1.394 . S
C831 C832 1.383 . S
C831 H839 0.929 . S
C832 C831 1.383 . S
C832 C833 1.377 . S
C833 H817 0.930 . S
C833 C832 1.377 . S
C833 C834 1.379 . S
C834 H818 0.931 . S
C834 C828 1.383 . S
C834 C833 1.379 . S
H835 C829 0.959 . S
H836 C829 0.961 . S
H837 C829 0.960 . S
H838 C830 0.930 . S
H839 C831 0.929 . S
H840 C848 0.929 . S
H841 C850 0.930 . S
H842 C852 0.930 . S
H843 C855 0.929 . S
H844 C858 0.930 . S
H845 C860 0.960 . S
H846 C860 0.960 . S
H847 C860 0.960 . S
C848 H840 0.929 . S
C848 C849 1.377 . S
C848 C850 1.384 1_565 S
C849 C848 1.377 . S
C849 C855 1.390 . S
C850 H841 0.930 . S
C850 C848 1.384 1_545 S
C850 C851 1.372 . S
C851 C850 1.372 . S
C851 C852 1.400 . S
C851 C856 1.490 . S
C852 H842 0.930 . S
C852 C851 1.400 . S
C852 C855 1.386 1_545 S
H853 C869 0.930 . S
H854 C870 0.931 . S
C855 H843 0.929 . S
C855 C849 1.390 . S
C855 C852 1.386 1_565 S
C856 C851 1.490 . S
C856 C858 1.395 . S
C856 C859 1.403 . S
H857 C863 0.930 . S
C858 H844 0.930 . S
C858 C856 1.395 . S
C858 C861 1.403 . S
C859 C856 1.403 . S
C859 C860 1.524 . S
C859 C863 1.400 . S
C860 H845 0.960 . S
C860 H846 0.960 . S
C860 H847 0.960 . S
C860 C859 1.524 . S
C861 C858 1.403 . S
C861 C862 1.392 . S
C861 C865 1.495 . S
C862 C861 1.392 . S
C862 C863 1.385 . S
C862 C864 1.478 . S
C863 H857 0.930 . S
C863 C859 1.400 . S
C863 C862 1.385 . S
C864 C862 1.478 . S
C864 C866 1.381 . S
C864 C870 1.383 . S
C865 C861 1.495 . S
C865 H871 0.959 . S
C865 H872 0.961 . S
C865 H873 0.960 . S
C866 C864 1.381 . S
C866 C867 1.394 . S
C866 H874 0.930 . S
C867 C866 1.394 . S
C867 C868 1.383 . S
C867 H875 0.929 . S
C868 C867 1.383 . S
C868 C869 1.377 . S
C869 H853 0.930 . S
C869 C868 1.377 . S
C869 C870 1.379 . S
C870 H854 0.931 . S
C870 C864 1.383 . S
C870 C869 1.379 . S
H871 C865 0.959 . S
H872 C865 0.961 . S
H873 C865 0.960 . S
H874 C866 0.930 . S
H875 C867 0.929 . S
H876 C884 0.929 . S
H877 C886 0.930 . S
H878 C888 0.930 . S
H879 C891 0.929 . S
H880 C894 0.930 . S
H881 C896 0.960 . S
H882 C896 0.960 . S
H883 C896 0.960 . S
C884 H876 0.929 . S
C884 C885 1.377 . S
C884 C886 1.384 . S
C885 C884 1.377 . S
C885 C891 1.390 . S
C886 H877 0.930 . S
C886 C884 1.384 . S
C886 C887 1.372 . S
C887 C886 1.372 . S
C887 C888 1.400 . S
C887 C892 1.490 . S
C888 H878 0.930 . S
C888 C887 1.400 . S
C888 C891 1.386 . S
H889 C905 0.930 . S
H890 C906 0.931 . S
C891 H879 0.929 . S
C891 C885 1.390 . S
C891 C888 1.386 . S
C892 C887 1.490 . S
C892 C894 1.395 . S
C892 C895 1.403 . S
H893 C899 0.930 . S
C894 H880 0.930 . S
C894 C892 1.395 . S
C894 C897 1.403 . S
C895 C892 1.403 . S
C895 C896 1.524 . S
C895 C899 1.400 . S
C896 H881 0.960 . S
C896 H882 0.960 . S
C896 H883 0.960 . S
C896 C895 1.524 . S
C897 C894 1.403 . S
C897 C898 1.392 . S
C897 C901 1.495 . S
C898 C897 1.392 . S
C898 C899 1.385 . S
C898 C900 1.478 . S
C899 H893 0.930 . S
C899 C895 1.400 . S
C899 C898 1.385 . S
C900 C898 1.478 . S
C900 C902 1.381 . S
C900 C906 1.383 . S
C901 C897 1.495 . S
C901 H907 0.959 . S
C901 H908 0.961 . S
C901 H909 0.960 . S
C902 C900 1.381 . S
C902 C903 1.394 . S
C902 H910 0.930 . S
C903 C902 1.394 . S
C903 C904 1.383 . S
C903 H911 0.929 . S
C904 C903 1.383 . S
C904 C905 1.377 . S
C905 H889 0.930 . S
C905 C904 1.377 . S
C905 C906 1.379 . S
C906 H890 0.931 . S
C906 C900 1.383 . S
C906 C905 1.379 . S
H907 C901 0.959 . S
H908 C901 0.961 . S
H909 C901 0.960 . S
H910 C902 0.930 . S
H911 C903 0.929 . S
H912 C920 0.929 . S
H913 C922 0.930 . S
H914 C924 0.930 . S
H915 C927 0.929 . S
H916 C930 0.930 . S
H917 C932 0.960 . S
H918 C932 0.960 . S
H919 C932 0.960 . S
C920 H912 0.929 . S
C920 C921 1.377 . S
C920 C922 1.384 . S
C921 C920 1.377 . S
C921 C927 1.390 . S
C922 H913 0.930 . S
C922 C920 1.384 . S
C922 C923 1.372 . S
C923 C922 1.372 . S
C923 C924 1.400 . S
C923 C928 1.490 . S
C924 H914 0.930 . S
C924 C923 1.400 . S
C924 C927 1.386 . S
H925 C941 0.930 . S
H926 C942 0.931 . S
C927 H915 0.929 . S
C927 C921 1.390 . S
C927 C924 1.386 . S
C928 C923 1.490 . S
C928 C930 1.395 . S
C928 C931 1.403 . S
H929 C935 0.930 . S
C930 H916 0.930 . S
C930 C928 1.395 . S
C930 C933 1.403 . S
C931 C928 1.403 . S
C931 C932 1.524 . S
C931 C935 1.400 . S
C932 H917 0.960 . S
C932 H918 0.960 . S
C932 H919 0.960 . S
C932 C931 1.524 . S
C933 C930 1.403 . S
C933 C934 1.392 . S
C933 C937 1.495 . S
C934 C933 1.392 . S
C934 C935 1.385 . S
C934 C936 1.478 . S
C935 H929 0.930 . S
C935 C931 1.400 . S
C935 C934 1.385 . S
C936 C934 1.478 . S
C936 C938 1.381 . S
C936 C942 1.383 . S
C937 C933 1.495 . S
C937 H943 0.959 . S
C937 H944 0.961 . S
C937 H945 0.960 . S
C938 C936 1.381 . S
C938 C939 1.394 . S
C938 H946 0.930 . S
C939 C938 1.394 . S
C939 C940 1.383 1_655 S
C939 H947 0.929 . S
C940 C939 1.383 1_455 S
C940 C941 1.377 . S
C941 H925 0.930 . S
C941 C940 1.377 . S
C941 C942 1.379 1_455 S
C942 H926 0.931 . S
C942 C936 1.383 . S
C942 C941 1.379 1_655 S
H943 C937 0.959 . S
H944 C937 0.961 . S
H945 C937 0.960 . S
H946 C938 0.930 . S
H947 C939 0.929 . S
H948 C956 0.929 . S
H949 C958 0.930 . S
H950 C960 0.930 . S
H951 C963 0.929 . S
H952 C966 0.930 . S
H953 C968 0.960 . S
H954 C968 0.960 . S
H955 C968 0.960 . S
C956 H948 0.929 . S
C956 C957 1.377 . S
C956 C958 1.384 . S
C957 C956 1.377 . S
C957 C963 1.390 1_545 S
C958 H949 0.930 . S
C958 C956 1.384 . S
C958 C959 1.372 1_545 S
C959 C958 1.372 1_565 S
C959 C960 1.400 . S
C959 C964 1.490 . S
C960 H950 0.930 . S
C960 C959 1.400 . S
C960 C963 1.386 . S
H961 C977 0.930 . S
H962 C978 0.931 . S
C963 H951 0.929 . S
C963 C957 1.390 1_565 S
C963 C960 1.386 . S
C964 C959 1.490 . S
C964 C966 1.395 . S
C964 C967 1.403 . S
H965 C971 0.930 . S
C966 H952 0.930 . S
C966 C964 1.395 . S
C966 C969 1.403 . S
C967 C964 1.403 . S
C967 C968 1.524 . S
C967 C971 1.400 . S
C968 H953 0.960 . S
C968 H954 0.960 . S
C968 H955 0.960 . S
C968 C967 1.524 . S
C969 C966 1.403 . S
C969 C970 1.392 . S
C969 C973 1.495 . S
C970 C969 1.392 . S
C970 C971 1.385 . S
C970 C972 1.478 . S
C971 H965 0.930 . S
C971 C967 1.400 . S
C971 C970 1.385 . S
C972 C970 1.478 . S
C972 C974 1.381 . S
C972 C978 1.383 . S
C973 C969 1.495 . S
C973 H979 0.959 . S
C973 H980 0.961 . S
C973 H981 0.960 . S
C974 C972 1.381 . S
C974 C975 1.394 . S
C974 H982 0.930 . S
C975 C974 1.394 . S
C975 C976 1.383 . S
C975 H983 0.929 . S
C976 C975 1.383 . S
C976 C977 1.377 . S
C977 H961 0.930 . S
C977 C976 1.377 . S
C977 C978 1.379 . S
C978 H962 0.931 . S
C978 C972 1.383 . S
C978 C977 1.379 . S
H979 C973 0.959 . S
H980 C973 0.961 . S
H981 C973 0.960 . S
H982 C974 0.930 . S
H983 C975 0.929 . S
H984 C992 0.929 . S
H985 C994 0.930 . S
H986 C996 0.930 . S
H987 C999 0.929 1_554 S
H988 C1002 0.930 . S
H989 C1004 0.960 . S
H990 C1004 0.960 . S
H991 C1004 0.960 . S
C992 H984 0.929 . S
C992 C993 1.377 . S
C992 C994 1.384 . S
C993 C992 1.377 . S
C993 C999 1.390 . S
C994 H985 0.930 . S
C994 C992 1.384 . S
C994 C995 1.372 1_556 S
C995 C994 1.372 1_554 S
C995 C996 1.400 . S
C995 C1000 1.490 . S
C996 H986 0.930 . S
C996 C995 1.400 . S
C996 C999 1.386 1_554 S
H997 C1013 0.930 . S
H998 C1014 0.931 . S
C999 H987 0.929 1_556 S
C999 C993 1.390 . S
C999 C996 1.386 1_556 S
C1000 C995 1.490 . S
C1000 C1002 1.395 . S
C1000 C1003 1.403 . S
H1001 C1007 0.930 . S
C1002 H988 0.930 . S
C1002 C1000 1.395 . S
C1002 C1005 1.403 . S
C1003 C1000 1.403 . S
C1003 C1004 1.524 . S
C1003 C1007 1.400 . S
C1004 H989 0.960 . S
C1004 H990 0.960 . S
C1004 H991 0.960 . S
C1004 C1003 1.524 . S
C1005 C1002 1.403 . S
C1005 C1006 1.392 . S
C1005 C1009 1.495 . S
C1006 C1005 1.392 . S
C1006 C1007 1.385 . S
C1006 C1008 1.478 . S
C1007 H1001 0.930 . S
C1007 C1003 1.400 . S
C1007 C1006 1.385 . S
C1008 C1006 1.478 . S
C1008 C1010 1.381 . S
C1008 C1014 1.383 . S
C1009 C1005 1.495 . S
C1009 H1015 0.959 . S
C1009 H1016 0.961 . S
C1009 H1017 0.960 . S
C1010 C1008 1.381 . S
C1010 C1011 1.394 . S
C1010 H1018 0.930 . S
C1011 C1010 1.394 . S
C1011 C1012 1.383 . S
C1011 H1019 0.929 . S
C1012 C1011 1.383 . S
C1012 C1013 1.377 . S
C1013 H997 0.930 . S
C1013 C1012 1.377 . S
C1013 C1014 1.379 . S
C1014 H998 0.931 . S
C1014 C1008 1.383 . S
C1014 C1013 1.379 . S
H1015 C1009 0.959 . S
H1016 C1009 0.961 . S
H1017 C1009 0.960 . S
H1018 C1010 0.930 . S
H1019 C1011 0.929 . S
H1020 C1028 0.929 . S
H1021 C1030 0.930 . S
H1022 C1032 0.930 . S
H1023 C1035 0.929 . S
H1024 C1038 0.930 . S
H1025 C1040 0.960 . S
H1026 C1040 0.960 . S
H1027 C1040 0.960 . S
C1028 H1020 0.929 . S
C1028 C1029 1.377 . S
C1028 C1030 1.384 1_655 S
C1029 C1028 1.377 . S
C1029 C1035 1.390 . S
C1030 H1021 0.930 . S
C1030 C1028 1.384 1_455 S
C1030 C1031 1.372 . S
C1031 C1030 1.372 . S
C1031 C1032 1.400 . S
C1031 C1036 1.490 . S
C1032 H1022 0.930 . S
C1032 C1031 1.400 . S
C1032 C1035 1.386 1_455 S
H1033 C1049 0.930 . S
H1034 C1050 0.931 . S
C1035 H1023 0.929 . S
C1035 C1029 1.390 . S
C1035 C1032 1.386 1_655 S
C1036 C1031 1.490 . S
C1036 C1038 1.395 . S
C1036 C1039 1.403 . S
H1037 C1043 0.930 . S
C1038 H1024 0.930 . S
C1038 C1036 1.395 . S
C1038 C1041 1.403 . S
C1039 C1036 1.403 . S
C1039 C1040 1.524 . S
C1039 C1043 1.400 . S
C1040 H1025 0.960 . S
C1040 H1026 0.960 . S
C1040 H1027 0.960 . S
C1040 C1039 1.524 . S
C1041 C1038 1.403 . S
C1041 C1042 1.392 . S
C1041 C1045 1.495 . S
C1042 C1041 1.392 . S
C1042 C1043 1.385 . S
C1042 C1044 1.478 . S
C1043 H1037 0.930 . S
C1043 C1039 1.400 . S
C1043 C1042 1.385 . S
C1044 C1042 1.478 . S
C1044 C1046 1.381 . S
C1044 C1050 1.383 . S
C1045 C1041 1.495 . S
C1045 H1051 0.959 . S
C1045 H1052 0.961 . S
C1045 H1053 0.960 . S
C1046 C1044 1.381 . S
C1046 C1047 1.394 . S
C1046 H1054 0.930 . S
C1047 C1046 1.394 . S
C1047 C1048 1.383 . S
C1047 H1055 0.929 . S
C1048 C1047 1.383 . S
C1048 C1049 1.377 . S
C1049 H1033 0.930 . S
C1049 C1048 1.377 . S
C1049 C1050 1.379 . S
C1050 H1034 0.931 . S
C1050 C1044 1.383 . S
C1050 C1049 1.379 . S
H1051 C1045 0.959 . S
H1052 C1045 0.961 . S
H1053 C1045 0.960 . S
H1054 C1046 0.930 . S
H1055 C1047 0.929 . S
H1056 C1064 0.929 . S
H1057 C1066 0.930 . S
H1058 C1068 0.930 . S
H1059 C1071 0.929 . S
H1060 C1074 0.930 . S
H1061 C1076 0.960 . S
H1062 C1076 0.960 . S
H1063 C1076 0.960 . S
C1064 H1056 0.929 . S
C1064 C1065 1.377 1_655 S
C1064 C1066 1.384 . S
C1065 C1064 1.377 1_455 S
C1065 C1071 1.390 . S
C1066 H1057 0.930 . S
C1066 C1064 1.384 . S
C1066 C1067 1.372 . S
C1067 C1066 1.372 . S
C1067 C1068 1.400 1_655 S
C1067 C1072 1.490 . S
C1068 H1058 0.930 . S
C1068 C1067 1.400 1_455 S
C1068 C1071 1.386 . S
H1069 C1085 0.930 . S
H1070 C1086 0.931 . S
C1071 H1059 0.929 . S
C1071 C1065 1.390 . S
C1071 C1068 1.386 . S
C1072 C1067 1.490 . S
C1072 C1074 1.395 . S
C1072 C1075 1.403 . S
H1073 C1079 0.930 . S
C1074 H1060 0.930 . S
C1074 C1072 1.395 . S
C1074 C1077 1.403 . S
C1075 C1072 1.403 . S
C1075 C1076 1.524 . S
C1075 C1079 1.400 . S
C1076 H1061 0.960 . S
C1076 H1062 0.960 . S
C1076 H1063 0.960 . S
C1076 C1075 1.524 . S
C1077 C1074 1.403 . S
C1077 C1078 1.392 . S
C1077 C1081 1.495 . S
C1078 C1077 1.392 . S
C1078 C1079 1.385 . S
C1078 C1080 1.478 . S
C1079 H1073 0.930 . S
C1079 C1075 1.400 . S
C1079 C1078 1.385 . S
C1080 C1078 1.478 . S
C1080 C1082 1.381 . S
C1080 C1086 1.383 . S
C1081 C1077 1.495 . S
C1081 H1087 0.959 . S
C1081 H1088 0.961 . S
C1081 H1089 0.960 . S
C1082 C1080 1.381 . S
C1082 C1083 1.394 . S
C1082 H1090 0.930 . S
C1083 C1082 1.394 . S
C1083 C1084 1.383 . S
C1083 H1091 0.929 . S
C1084 C1083 1.383 . S
C1084 C1085 1.377 . S
C1085 H1069 0.930 . S
C1085 C1084 1.377 . S
C1085 C1086 1.379 . S
C1086 H1070 0.931 . S
C1086 C1080 1.383 . S
C1086 C1085 1.379 . S
H1087 C1081 0.959 . S
H1088 C1081 0.961 . S
H1089 C1081 0.960 . S
H1090 C1082 0.930 . S
H1091 C1083 0.929 . S
H1092 C1100 0.929 . S
H1093 C1102 0.930 . S
H1094 C1104 0.930 . S
H1095 C1107 0.929 . S
H1096 C1110 0.930 . S
H1097 C1112 0.960 . S
H1098 C1112 0.960 . S
H1099 C1112 0.960 . S
C1100 H1092 0.929 . S
C1100 C1101 1.377 . S
C1100 C1102 1.384 . S
C1101 C1100 1.377 . S
C1101 C1107 1.390 . S
C1102 H1093 0.930 . S
C1102 C1100 1.384 . S
C1102 C1103 1.372 . S
C1103 C1102 1.372 . S
C1103 C1104 1.400 . S
C1103 C1108 1.490 . S
C1104 H1094 0.930 . S
C1104 C1103 1.400 . S
C1104 C1107 1.386 . S
H1105 C1121 0.930 . S
H1106 C1122 0.931 . S
C1107 H1095 0.929 . S
C1107 C1101 1.390 . S
C1107 C1104 1.386 . S
C1108 C1103 1.490 . S
C1108 C1110 1.395 . S
C1108 C1111 1.403 . S
H1109 C1115 0.930 . S
C1110 H1096 0.930 . S
C1110 C1108 1.395 . S
C1110 C1113 1.403 . S
C1111 C1108 1.403 . S
C1111 C1112 1.524 . S
C1111 C1115 1.400 . S
C1112 H1097 0.960 . S
C1112 H1098 0.960 . S
C1112 H1099 0.960 . S
C1112 C1111 1.524 . S
C1113 C1110 1.403 . S
C1113 C1114 1.392 . S
C1113 C1117 1.495 . S
C1114 C1113 1.392 . S
C1114 C1115 1.385 . S
C1114 C1116 1.478 . S
C1115 H1109 0.930 . S
C1115 C1111 1.400 . S
C1115 C1114 1.385 . S
C1116 C1114 1.478 . S
C1116 C1118 1.381 . S
C1116 C1122 1.383 1_565 S
C1117 C1113 1.495 . S
C1117 H1123 0.959 . S
C1117 H1124 0.961 . S
C1117 H1125 0.960 . S
C1118 C1116 1.381 . S
C1118 C1119 1.394 . S
C1118 H1126 0.930 . S
C1119 C1118 1.394 . S
C1119 C1120 1.383 1_565 S
C1119 H1127 0.929 . S
C1120 C1119 1.383 1_545 S
C1120 C1121 1.377 . S
C1121 H1105 0.930 . S
C1121 C1120 1.377 . S
C1121 C1122 1.379 . S
C1122 H1106 0.931 . S
C1122 C1116 1.383 1_545 S
C1122 C1121 1.379 . S
H1123 C1117 0.959 . S
H1124 C1117 0.961 . S
H1125 C1117 0.960 . S
H1126 C1118 0.930 . S
H1127 C1119 0.929 . S
H1128 C1136 0.929 . S
H1129 C1138 0.930 . S
H1130 C1140 0.930 . S
H1131 C1143 0.929 . S
H1132 C1146 0.930 . S
H1133 C1148 0.960 . S
H1134 C1148 0.960 . S
H1135 C1148 0.960 . S
C1136 H1128 0.929 . S
C1136 C1137 1.377 . S
C1136 C1138 1.384 . S
C1137 C1136 1.377 . S
C1137 C1143 1.390 . S
C1138 H1129 0.930 . S
C1138 C1136 1.384 . S
C1138 C1139 1.372 . S
C1139 C1138 1.372 . S
C1139 C1140 1.400 . S
C1139 C1144 1.490 . S
C1140 H1130 0.930 . S
C1140 C1139 1.400 . S
C1140 C1143 1.386 . S
H1141 C1157 0.930 . S
H1142 C1158 0.931 . S
C1143 H1131 0.929 . S
C1143 C1137 1.390 . S
C1143 C1140 1.386 . S
C1144 C1139 1.490 . S
C1144 C1146 1.395 . S
C1144 C1147 1.403 . S
H1145 C1151 0.930 . S
C1146 H1132 0.930 . S
C1146 C1144 1.395 . S
C1146 C1149 1.403 . S
C1147 C1144 1.403 . S
C1147 C1148 1.524 . S
C1147 C1151 1.400 . S
C1148 H1133 0.960 . S
C1148 H1134 0.960 . S
C1148 H1135 0.960 . S
C1148 C1147 1.524 . S
C1149 C1146 1.403 . S
C1149 C1150 1.392 . S
C1149 C1153 1.495 . S
C1150 C1149 1.392 . S
C1150 C1151 1.385 . S
C1150 C1152 1.478 . S
C1151 H1145 0.930 . S
C1151 C1147 1.400 . S
C1151 C1150 1.385 . S
C1152 C1150 1.478 . S
C1152 C1154 1.381 . S
C1152 C1158 1.383 . S
C1153 C1149 1.495 . S
C1153 H1159 0.959 . S
C1153 H1160 0.961 . S
C1153 H1161 0.960 . S
C1154 C1152 1.381 . S
C1154 C1155 1.394 . S
C1154 H1162 0.930 . S
C1155 C1154 1.394 . S
C1155 C1156 1.383 . S
C1155 H1163 0.929 . S
C1156 C1155 1.383 . S
C1156 C1157 1.377 . S
C1157 H1141 0.930 . S
C1157 C1156 1.377 . S
C1157 C1158 1.379 . S
C1158 H1142 0.931 . S
C1158 C1152 1.383 . S
C1158 C1157 1.379 . S
H1159 C1153 0.959 . S
H1160 C1153 0.961 . S
H1161 C1153 0.960 . S
H1162 C1154 0.930 . S
H1163 C1155 0.929 . S
H1164 C1172 0.929 . S
H1165 C1174 0.930 . S
H1166 C1176 0.930 . S
H1167 C1179 0.929 . S
H1168 C1182 0.930 1_554 S
H1169 C1184 0.960 . S
H1170 C1184 0.960 . S
H1171 C1184 0.960 . S
C1172 H1164 0.929 . S
C1172 C1173 1.377 1_455 S
C1172 C1174 1.384 . S
C1173 C1172 1.377 1_655 S
C1173 C1179 1.390 . S
C1174 H1165 0.930 . S
C1174 C1172 1.384 . S
C1174 C1175 1.372 1_554 S
C1175 C1174 1.372 1_556 S
C1175 C1176 1.400 1_455 S
C1175 C1180 1.490 . S
C1176 H1166 0.930 . S
C1176 C1175 1.400 1_655 S
C1176 C1179 1.386 1_556 S
H1177 C1193 0.930 . S
H1178 C1194 0.931 . S
C1179 H1167 0.929 . S
C1179 C1173 1.390 . S
C1179 C1176 1.386 1_554 S
C1180 C1175 1.490 . S
C1180 C1182 1.395 . S
C1180 C1183 1.403 . S
H1181 C1187 0.930 . S
C1182 H1168 0.930 1_556 S
C1182 C1180 1.395 . S
C1182 C1185 1.403 . S
C1183 C1180 1.403 . S
C1183 C1184 1.524 . S
C1183 C1187 1.400 . S
C1184 H1169 0.960 . S
C1184 H1170 0.960 . S
C1184 H1171 0.960 . S
C1184 C1183 1.524 . S
C1185 C1182 1.403 . S
C1185 C1186 1.392 . S
C1185 C1189 1.495 . S
C1186 C1185 1.392 . S
C1186 C1187 1.385 . S
C1186 C1188 1.478 . S
C1187 H1181 0.930 . S
C1187 C1183 1.400 . S
C1187 C1186 1.385 . S
C1188 C1186 1.478 . S
C1188 C1190 1.381 . S
C1188 C1194 1.383 . S
C1189 C1185 1.495 . S
C1189 H1195 0.959 1_556 S
C1189 H1196 0.961 . S
C1189 H1197 0.960 . S
C1190 C1188 1.381 . S
C1190 C1191 1.394 . S
C1190 H1198 0.930 . S
C1191 C1190 1.394 . S
C1191 C1192 1.383 . S
C1191 H1199 0.929 . S
C1192 C1191 1.383 . S
C1192 C1193 1.377 . S
C1193 H1177 0.930 . S
C1193 C1192 1.377 . S
C1193 C1194 1.379 . S
C1194 H1178 0.931 . S
C1194 C1188 1.383 . S
C1194 C1193 1.379 . S
H1195 C1189 0.959 1_554 S
H1196 C1189 0.961 . S
H1197 C1189 0.960 . S
H1198 C1190 0.930 . S
H1199 C1191 0.929 . S
H1200 C1208 0.929 . S
H1201 C1210 0.930 . S
H1202 C1212 0.930 . S
H1203 C1215 0.929 . S
H1204 C1218 0.930 . S
H1205 C1220 0.960 . S
H1206 C1220 0.960 . S
H1207 C1220 0.960 . S
C1208 H1200 0.929 . S
C1208 C1209 1.377 . S
C1208 C1210 1.384 1_565 S
C1209 C1208 1.377 . S
C1209 C1215 1.390 . S
C1210 H1201 0.930 . S
C1210 C1208 1.384 1_545 S
C1210 C1211 1.372 . S
C1211 C1210 1.372 . S
C1211 C1212 1.400 . S
C1211 C1216 1.490 . S
C1212 H1202 0.930 . S
C1212 C1211 1.400 . S
C1212 C1215 1.386 1_545 S
H1213 C1229 0.930 . S
H1214 C1230 0.931 . S
C1215 H1203 0.929 . S
C1215 C1209 1.390 . S
C1215 C1212 1.386 1_565 S
C1216 C1211 1.490 . S
C1216 C1218 1.395 . S
C1216 C1219 1.403 . S
H1217 C1223 0.930 . S
C1218 H1204 0.930 . S
C1218 C1216 1.395 . S
C1218 C1221 1.403 . S
C1219 C1216 1.403 . S
C1219 C1220 1.524 . S
C1219 C1223 1.400 . S
C1220 H1205 0.960 . S
C1220 H1206 0.960 . S
C1220 H1207 0.960 . S
C1220 C1219 1.524 . S
C1221 C1218 1.403 . S
C1221 C1222 1.392 . S
C1221 C1225 1.495 . S
C1222 C1221 1.392 . S
C1222 C1223 1.385 . S
C1222 C1224 1.478 . S
C1223 H1217 0.930 . S
C1223 C1219 1.400 . S
C1223 C1222 1.385 . S
C1224 C1222 1.478 . S
C1224 C1226 1.381 . S
C1224 C1230 1.383 . S
C1225 C1221 1.495 . S
C1225 H1231 0.959 . S
C1225 H1232 0.961 . S
C1225 H1233 0.960 . S
C1226 C1224 1.381 . S
C1226 C1227 1.394 . S
C1226 H1234 0.930 . S
C1227 C1226 1.394 . S
C1227 C1228 1.383 . S
C1227 H1235 0.929 . S
C1228 C1227 1.383 . S
C1228 C1229 1.377 . S
C1229 H1213 0.930 . S
C1229 C1228 1.377 . S
C1229 C1230 1.379 . S
C1230 H1214 0.931 . S
C1230 C1224 1.383 . S
C1230 C1229 1.379 . S
H1231 C1225 0.959 . S
H1232 C1225 0.961 . S
H1233 C1225 0.960 . S
H1234 C1226 0.930 . S
H1235 C1227 0.929 . S
H1236 C1244 0.929 . S
H1237 C1246 0.930 . S
H1238 C1248 0.930 . S
H1239 C1251 0.929 . S
H1240 C1254 0.930 . S
H1241 C1256 0.960 . S
H1242 C1256 0.960 . S
H1243 C1256 0.960 . S
C1244 H1236 0.929 . S
C1244 C1245 1.377 . S
C1244 C1246 1.384 . S
C1245 C1244 1.377 . S
C1245 C1251 1.390 . S
C1246 H1237 0.930 . S
C1246 C1244 1.384 . S
C1246 C1247 1.372 . S
C1247 C1246 1.372 . S
C1247 C1248 1.400 . S
C1247 C1252 1.490 . S
C1248 H1238 0.930 . S
C1248 C1247 1.400 . S
C1248 C1251 1.386 . S
H1249 C1265 0.930 . S
H1250 C1266 0.931 . S
C1251 H1239 0.929 . S
C1251 C1245 1.390 . S
C1251 C1248 1.386 . S
C1252 C1247 1.490 . S
C1252 C1254 1.395 . S
C1252 C1255 1.403 . S
H1253 C1259 0.930 . S
C1254 H1240 0.930 . S
C1254 C1252 1.395 . S
C1254 C1257 1.403 . S
C1255 C1252 1.403 . S
C1255 C1256 1.524 . S
C1255 C1259 1.400 . S
C1256 H1241 0.960 . S
C1256 H1242 0.960 . S
C1256 H1243 0.960 . S
C1256 C1255 1.524 . S
C1257 C1254 1.403 . S
C1257 C1258 1.392 . S
C1257 C1261 1.495 . S
C1258 C1257 1.392 . S
C1258 C1259 1.385 . S
C1258 C1260 1.478 . S
C1259 H1253 0.930 . S
C1259 C1255 1.400 . S
C1259 C1258 1.385 . S
C1260 C1258 1.478 . S
C1260 C1262 1.381 . S
C1260 C1266 1.383 . S
C1261 C1257 1.495 . S
C1261 H1267 0.959 . S
C1261 H1268 0.961 . S
C1261 H1269 0.960 . S
C1262 C1260 1.381 . S
C1262 C1263 1.394 . S
C1262 H1270 0.930 . S
C1263 C1262 1.394 . S
C1263 C1264 1.383 . S
C1263 H1271 0.929 . S
C1264 C1263 1.383 . S
C1264 C1265 1.377 . S
C1265 H1249 0.930 . S
C1265 C1264 1.377 . S
C1265 C1266 1.379 . S
C1266 H1250 0.931 . S
C1266 C1260 1.383 . S
C1266 C1265 1.379 . S
H1267 C1261 0.959 . S
H1268 C1261 0.961 . S
H1269 C1261 0.960 . S
H1270 C1262 0.930 . S
H1271 C1263 0.929 . S
H1272 C1280 0.929 . S
H1273 C1282 0.930 . S
H1274 C1284 0.930 . S
H1275 C1287 0.929 . S
H1276 C1290 0.930 . S
H1277 C1292 0.960 . S
H1278 C1292 0.960 . S
H1279 C1292 0.960 . S
C1280 H1272 0.929 . S
C1280 C1281 1.377 . S
C1280 C1282 1.384 . S
C1281 C1280 1.377 . S
C1281 C1287 1.390 . S
C1282 H1273 0.930 . S
C1282 C1280 1.384 . S
C1282 C1283 1.372 . S
C1283 C1282 1.372 . S
C1283 C1284 1.400 . S
C1283 C1288 1.490 . S
C1284 H1274 0.930 . S
C1284 C1283 1.400 . S
C1284 C1287 1.386 . S
H1285 C1301 0.930 . S
H1286 C1302 0.931 . S
C1287 H1275 0.929 . S
C1287 C1281 1.390 . S
C1287 C1284 1.386 . S
C1288 C1283 1.490 . S
C1288 C1290 1.395 . S
C1288 C1291 1.403 . S
H1289 C1295 0.930 . S
C1290 H1276 0.930 . S
C1290 C1288 1.395 . S
C1290 C1293 1.403 . S
C1291 C1288 1.403 . S
C1291 C1292 1.524 . S
C1291 C1295 1.400 . S
C1292 H1277 0.960 . S
C1292 H1278 0.960 . S
C1292 H1279 0.960 . S
C1292 C1291 1.524 . S
C1293 C1290 1.403 . S
C1293 C1294 1.392 . S
C1293 C1297 1.495 . S
C1294 C1293 1.392 . S
C1294 C1295 1.385 . S
C1294 C1296 1.478 . S
C1295 H1289 0.930 . S
C1295 C1291 1.400 . S
C1295 C1294 1.385 . S
C1296 C1294 1.478 . S
C1296 C1298 1.381 . S
C1296 C1302 1.383 . S
C1297 C1293 1.495 . S
C1297 H1303 0.959 . S
C1297 H1304 0.961 . S
C1297 H1305 0.960 . S
C1298 C1296 1.381 . S
C1298 C1299 1.394 . S
C1298 H1306 0.930 . S
C1299 C1298 1.394 . S
C1299 C1300 1.383 . S
C1299 H1307 0.929 . S
C1300 C1299 1.383 . S
C1300 C1301 1.377 . S
C1301 H1285 0.930 . S
C1301 C1300 1.377 . S
C1301 C1302 1.379 . S
C1302 H1286 0.931 . S
C1302 C1296 1.383 . S
C1302 C1301 1.379 . S
H1303 C1297 0.959 . S
H1304 C1297 0.961 . S
H1305 C1297 0.960 . S
H1306 C1298 0.930 . S
H1307 C1299 0.929 . S
H1308 C1316 0.929 . S
H1309 C1318 0.930 . S
H1310 C1320 0.930 . S
H1311 C1323 0.929 . S
H1312 C1326 0.930 . S
H1313 C1328 0.960 . S
H1314 C1328 0.960 . S
H1315 C1328 0.960 . S
C1316 H1308 0.929 . S
C1316 C1317 1.377 . S
C1316 C1318 1.384 . S
C1317 C1316 1.377 . S
C1317 C1323 1.390 . S
C1318 H1309 0.930 . S
C1318 C1316 1.384 . S
C1318 C1319 1.372 . S
C1319 C1318 1.372 . S
C1319 C1320 1.400 . S
C1319 C1324 1.490 . S
C1320 H1310 0.930 . S
C1320 C1319 1.400 . S
C1320 C1323 1.386 . S
H1321 C1337 0.930 . S
H1322 C1338 0.931 . S
C1323 H1311 0.929 . S
C1323 C1317 1.390 . S
C1323 C1320 1.386 . S
C1324 C1319 1.490 . S
C1324 C1326 1.395 . S
C1324 C1327 1.403 . S
H1325 C1331 0.930 . S
C1326 H1312 0.930 . S
C1326 C1324 1.395 . S
C1326 C1329 1.403 . S
C1327 C1324 1.403 . S
C1327 C1328 1.524 . S
C1327 C1331 1.400 . S
C1328 H1313 0.960 . S
C1328 H1314 0.960 . S
C1328 H1315 0.960 . S
C1328 C1327 1.524 . S
C1329 C1326 1.403 . S
C1329 C1330 1.392 . S
C1329 C1333 1.495 . S
C1330 C1329 1.392 . S
C1330 C1331 1.385 . S
C1330 C1332 1.478 . S
C1331 H1325 0.930 . S
C1331 C1327 1.400 . S
C1331 C1330 1.385 . S
C1332 C1330 1.478 . S
C1332 C1334 1.381 . S
C1332 C1338 1.383 . S
C1333 C1329 1.495 . S
C1333 H1339 0.959 . S
C1333 H1340 0.961 . S
C1333 H1341 0.960 . S
C1334 C1332 1.381 . S
C1334 C1335 1.394 . S
C1334 H1342 0.930 . S
C1335 C1334 1.394 . S
C1335 C1336 1.383 . S
C1335 H1343 0.929 . S
C1336 C1335 1.383 . S
C1336 C1337 1.377 . S
C1337 H1321 0.930 . S
C1337 C1336 1.377 . S
C1337 C1338 1.379 . S
C1338 H1322 0.931 . S
C1338 C1332 1.383 . S
C1338 C1337 1.379 . S
H1339 C1333 0.959 . S
H1340 C1333 0.961 . S
H1341 C1333 0.960 . S
H1342 C1334 0.930 . S
H1343 C1335 0.929 . S
H1344 C1352 0.929 . S
H1345 C1354 0.930 . S
H1346 C1356 0.930 . S
H1347 C1359 0.929 . S
H1348 C1362 0.930 . S
H1349 C1364 0.960 . S
H1350 C1364 0.960 . S
H1351 C1364 0.960 . S
C1352 H1344 0.929 . S
C1352 C1353 1.377 . S
C1352 C1354 1.384 . S
C1353 C1352 1.377 . S
C1353 C1359 1.390 . S
C1354 H1345 0.930 . S
C1354 C1352 1.384 . S
C1354 C1355 1.372 . S
C1355 C1354 1.372 . S
C1355 C1356 1.400 . S
C1355 C1360 1.490 . S
C1356 H1346 0.930 . S
C1356 C1355 1.400 . S
C1356 C1359 1.386 . S
H1357 C1373 0.930 . S
H1358 C1374 0.931 . S
C1359 H1347 0.929 . S
C1359 C1353 1.390 . S
C1359 C1356 1.386 . S
C1360 C1355 1.490 . S
C1360 C1362 1.395 . S
C1360 C1363 1.403 . S
H1361 C1367 0.930 . S
C1362 H1348 0.930 . S
C1362 C1360 1.395 . S
C1362 C1365 1.403 . S
C1363 C1360 1.403 . S
C1363 C1364 1.524 . S
C1363 C1367 1.400 . S
C1364 H1349 0.960 . S
C1364 H1350 0.960 . S
C1364 H1351 0.960 . S
C1364 C1363 1.524 . S
C1365 C1362 1.403 . S
C1365 C1366 1.392 . S
C1365 C1369 1.495 . S
C1366 C1365 1.392 . S
C1366 C1367 1.385 . S
C1366 C1368 1.478 . S
C1367 H1361 0.930 . S
C1367 C1363 1.400 . S
C1367 C1366 1.385 . S
C1368 C1366 1.478 . S
C1368 C1370 1.381 . S
C1368 C1374 1.383 . S
C1369 C1365 1.495 . S
C1369 H1375 0.959 . S
C1369 H1376 0.961 . S
C1369 H1377 0.960 . S
C1370 C1368 1.381 . S
C1370 C1371 1.394 . S
C1370 H1378 0.930 . S
C1371 C1370 1.394 . S
C1371 C1372 1.383 . S
C1371 H1379 0.929 . S
C1372 C1371 1.383 . S
C1372 C1373 1.377 . S
C1373 H1357 0.930 . S
C1373 C1372 1.377 . S
C1373 C1374 1.379 . S
C1374 H1358 0.931 . S
C1374 C1368 1.383 . S
C1374 C1373 1.379 . S
H1375 C1369 0.959 . S
H1376 C1369 0.961 . S
H1377 C1369 0.960 . S
H1378 C1370 0.930 . S
H1379 C1371 0.929 . S
H1380 C1388 0.929 . S
H1381 C1390 0.930 . S
H1382 C1392 0.930 . S
H1383 C1395 0.929 . S
H1384 C1398 0.930 . S
H1385 C1400 0.960 . S
H1386 C1400 0.960 . S
H1387 C1400 0.960 . S
C1388 H1380 0.929 . S
C1388 C1389 1.377 . S
C1388 C1390 1.384 . S
C1389 C1388 1.377 . S
C1389 C1395 1.390 . S
C1390 H1381 0.930 . S
C1390 C1388 1.384 . S
C1390 C1391 1.372 . S
C1391 C1390 1.372 . S
C1391 C1392 1.400 . S
C1391 C1396 1.490 . S
C1392 H1382 0.930 . S
C1392 C1391 1.400 . S
C1392 C1395 1.386 . S
H1393 C1409 0.930 . S
H1394 C1410 0.931 . S
C1395 H1383 0.929 . S
C1395 C1389 1.390 . S
C1395 C1392 1.386 . S
C1396 C1391 1.490 . S
C1396 C1398 1.395 . S
C1396 C1399 1.403 . S
H1397 C1403 0.930 . S
C1398 H1384 0.930 . S
C1398 C1396 1.395 . S
C1398 C1401 1.403 . S
C1399 C1396 1.403 . S
C1399 C1400 1.524 . S
C1399 C1403 1.400 . S
C1400 H1385 0.960 . S
C1400 H1386 0.960 . S
C1400 H1387 0.960 . S
C1400 C1399 1.524 . S
C1401 C1398 1.403 . S
C1401 C1402 1.392 . S
C1401 C1405 1.495 . S
C1402 C1401 1.392 . S
C1402 C1403 1.385 . S
C1402 C1404 1.478 . S
C1403 H1397 0.930 . S
C1403 C1399 1.400 . S
C1403 C1402 1.385 . S
C1404 C1402 1.478 . S
C1404 C1406 1.381 . S
C1404 C1410 1.383 . S
C1405 C1401 1.495 . S
C1405 H1411 0.959 . S
C1405 H1412 0.961 . S
C1405 H1413 0.960 . S
C1406 C1404 1.381 . S
C1406 C1407 1.394 . S
C1406 H1414 0.930 . S
C1407 C1406 1.394 . S
C1407 C1408 1.383 . S
C1407 H1415 0.929 . S
C1408 C1407 1.383 . S
C1408 C1409 1.377 . S
C1409 H1393 0.930 . S
C1409 C1408 1.377 . S
C1409 C1410 1.379 . S
C1410 H1394 0.931 . S
C1410 C1404 1.383 . S
C1410 C1409 1.379 . S
H1411 C1405 0.959 . S
H1412 C1405 0.961 . S
H1413 C1405 0.960 . S
H1414 C1406 0.930 . S
H1415 C1407 0.929 . S
H1416 C1424 0.929 . S
H1417 C1426 0.930 . S
H1418 C1428 0.930 . S
H1419 C1431 0.929 . S
H1420 C1434 0.930 . S
H1421 C1436 0.960 . S
H1422 C1436 0.960 . S
H1423 C1436 0.960 . S
C1424 H1416 0.929 . S
C1424 C1425 1.377 . S
C1424 C1426 1.384 . S
C1425 C1424 1.377 . S
C1425 C1431 1.390 . S
C1426 H1417 0.930 . S
C1426 C1424 1.384 . S
C1426 C1427 1.372 . S
C1427 C1426 1.372 . S
C1427 C1428 1.400 . S
C1427 C1432 1.490 . S
C1428 H1418 0.930 . S
C1428 C1427 1.400 . S
C1428 C1431 1.386 . S
H1429 C1445 0.930 . S
H1430 C1446 0.931 . S
C1431 H1419 0.929 . S
C1431 C1425 1.390 . S
C1431 C1428 1.386 . S
C1432 C1427 1.490 . S
C1432 C1434 1.395 . S
C1432 C1435 1.403 . S
H1433 C1439 0.930 . S
C1434 H1420 0.930 . S
C1434 C1432 1.395 . S
C1434 C1437 1.403 . S
C1435 C1432 1.403 . S
C1435 C1436 1.524 . S
C1435 C1439 1.400 . S
C1436 H1421 0.960 . S
C1436 H1422 0.960 . S
C1436 H1423 0.960 . S
C1436 C1435 1.524 . S
C1437 C1434 1.403 . S
C1437 C1438 1.392 . S
C1437 C1441 1.495 . S
C1438 C1437 1.392 . S
C1438 C1439 1.385 . S
C1438 C1440 1.478 . S
C1439 H1433 0.930 . S
C1439 C1435 1.400 . S
C1439 C1438 1.385 . S
C1440 C1438 1.478 . S
C1440 C1442 1.381 . S
C1440 C1446 1.383 . S
C1441 C1437 1.495 . S
C1441 H1447 0.959 . S
C1441 H1448 0.961 . S
C1441 H1449 0.960 . S
C1442 C1440 1.381 . S
C1442 C1443 1.394 . S
C1442 H1450 0.930 . S
C1443 C1442 1.394 . S
C1443 C1444 1.383 . S
C1443 H1451 0.929 . S
C1444 C1443 1.383 . S
C1444 C1445 1.377 . S
C1445 H1429 0.930 . S
C1445 C1444 1.377 . S
C1445 C1446 1.379 . S
C1446 H1430 0.931 . S
C1446 C1440 1.383 . S
C1446 C1445 1.379 . S
H1447 C1441 0.959 . S
H1448 C1441 0.961 . S
H1449 C1441 0.960 . S
H1450 C1442 0.930 . S
H1451 C1443 0.929 . S
H1452 C1460 0.929 . S
H1453 C1462 0.930 . S
H1454 C1464 0.930 . S
H1455 C1467 0.929 . S
H1456 C1470 0.930 . S
H1457 C1472 0.960 . S
H1458 C1472 0.960 . S
H1459 C1472 0.960 . S
C1460 H1452 0.929 . S
C1460 C1461 1.377 . S
C1460 C1462 1.384 . S
C1461 C1460 1.377 . S
C1461 C1467 1.390 . S
C1462 H1453 0.930 . S
C1462 C1460 1.384 . S
C1462 C1463 1.372 . S
C1463 C1462 1.372 . S
C1463 C1464 1.400 . S
C1463 C1468 1.490 . S
C1464 H1454 0.930 . S
C1464 C1463 1.400 . S
C1464 C1467 1.386 . S
H1465 C1481 0.930 . S
H1466 C1482 0.931 . S
C1467 H1455 0.929 . S
C1467 C1461 1.390 . S
C1467 C1464 1.386 . S
C1468 C1463 1.490 . S
C1468 C1470 1.395 . S
C1468 C1471 1.403 . S
H1469 C1475 0.930 . S
C1470 H1456 0.930 . S
C1470 C1468 1.395 . S
C1470 C1473 1.403 . S
C1471 C1468 1.403 . S
C1471 C1472 1.524 . S
C1471 C1475 1.400 . S
C1472 H1457 0.960 . S
C1472 H1458 0.960 . S
C1472 H1459 0.960 . S
C1472 C1471 1.524 . S
C1473 C1470 1.403 . S
C1473 C1474 1.392 . S
C1473 C1477 1.495 . S
C1474 C1473 1.392 . S
C1474 C1475 1.385 . S
C1474 C1476 1.478 . S
C1475 H1469 0.930 . S
C1475 C1471 1.400 . S
C1475 C1474 1.385 . S
C1476 C1474 1.478 . S
C1476 C1478 1.381 . S
C1476 C1482 1.383 . S
C1477 C1473 1.495 . S
C1477 H1483 0.959 . S
C1477 H1484 0.961 . S
C1477 H1485 0.960 . S
C1478 C1476 1.381 . S
C1478 C1479 1.394 . S
C1478 H1486 0.930 . S
C1479 C1478 1.394 . S
C1479 C1480 1.383 . S
C1479 H1487 0.929 . S
C1480 C1479 1.383 . S
C1480 C1481 1.377 . S
C1481 H1465 0.930 . S
C1481 C1480 1.377 . S
C1481 C1482 1.379 . S
C1482 H1466 0.931 . S
C1482 C1476 1.383 . S
C1482 C1481 1.379 . S
H1483 C1477 0.959 . S
H1484 C1477 0.961 . S
H1485 C1477 0.960 . S
H1486 C1478 0.930 . S
H1487 C1479 0.929 . S
C417 C213 1.368 . S
C436 C9 1.372 . S
C453 C43 1.357 . S
C472 C247 1.346 . S
C489 C281 1.356 . S
C508 C77 1.357 . S
C525 C111 1.364 . S
C544 C315 1.333 . S
C561 C349 1.363 . S
C580 C145 1.387 . S
C597 C383 1.357 . S
C616 C179 1.365 . S
C633 C243 0.399 . S
C652 C5 0.322 . S
C669 C39 0.393 . S
C688 C277 0.476 . S
C705 C311 0.408 . S
C724 C73 0.310 . S
C741 C107 0.392 . S
C760 C345 0.479 . S
C777 C379 0.385 . S
C796 C141 0.382 . S
C813 C175 0.412 . S
C832 C209 0.325 . S
C849 C203 1.188 . S
C868 C20 1.197 . S
C885 C33 1.192 . S
C904 C54 1.134 . S
C921 C88 1.163 . S
C940 C67 1.206 . S
C957 C101 1.193 . S
C976 C122 1.126 . S
C993 C135 1.196 . S
C1012 C156 1.159 . S
C1029 C169 1.197 . S
C1048 C190 1.124 . S
C1065 C271 1.192 . S
C1084 C224 1.185 . S
C1101 C258 1.169 . S
C1120 C305 1.180 . S
C1137 C339 1.194 . S
C1156 C292 1.124 . S
C1173 C373 1.191 . S
C1192 C326 1.194 . S
C1209 C407 1.197 . S
C1228 C360 1.125 . S
C1245 C237 1.196 . S
C1264 C394 1.158 . S
C1281 C2 1.768 . S
C1300 C274 1.744 . S
C1317 C36 1.763 . S
C1336 C308 1.775 . S
C1353 C70 1.761 . S
C1372 C342 1.783 1_556 S
C1389 C104 1.770 1_554 S
C1408 C376 1.740 . S
C1425 C138 1.768 . S
C1444 C206 1.755 . S
C1461 C172 1.761 . S
C1480 C240 1.776 . S
