# Generated by pormake.
# Topology xfi, (7)-cn, num edge types: 1
# Building blocks:
#     Node 0, Type 0, BuildingBlock: HICVOG_clean_sbu_0, # of connection points: 7
#     Node 1, Type 0, BuildingBlock: HICVOG_clean_sbu_0, # of connection points: 7
#     Node 2, Type 0, BuildingBlock: HICVOG_clean_sbu_0, # of connection points: 7
#     Node 3, Type 0, BuildingBlock: HICVOG_clean_sbu_0, # of connection points: 7
#     Node 4, Type 0, BuildingBlock: HICVOG_clean_sbu_0, # of connection points: 7
#     Node 5, Type 0, BuildingBlock: HICVOG_clean_sbu_0, # of connection points: 7
#     Node 6, Type 0, BuildingBlock: HICVOG_clean_sbu_0, # of connection points: 7
#     Node 7, Type 0, BuildingBlock: HICVOG_clean_sbu_0, # of connection points: 7
#     Node 8, Type 0, BuildingBlock: HICVOG_clean_sbu_0, # of connection points: 7
#     Node 9, Type 0, BuildingBlock: HICVOG_clean_sbu_0, # of connection points: 7
#     Node 10, Type 0, BuildingBlock: HICVOG_clean_sbu_0, # of connection points: 7
#     Node 11, Type 0, BuildingBlock: HICVOG_clean_sbu_0, # of connection points: 7
#     Node 12, Type 0, BuildingBlock: HICVOG_clean_sbu_0, # of connection points: 7
#     Node 13, Type 0, BuildingBlock: HICVOG_clean_sbu_0, # of connection points: 7
#     Node 14, Type 0, BuildingBlock: HICVOG_clean_sbu_0, # of connection points: 7
#     Node 15, Type 0, BuildingBlock: HICVOG_clean_sbu_0, # of connection points: 7
#     Edge 16, Type (0, 0), BuildingBlock: UVAHIK_clean_linker_0, # of connection points: 2
#     Edge 17, Type (0, 0), BuildingBlock: UVAHIK_clean_linker_0, # of connection points: 2
#     Edge 18, Type (0, 0), BuildingBlock: UVAHIK_clean_linker_0, # of connection points: 2
#     Edge 19, Type (0, 0), BuildingBlock: UVAHIK_clean_linker_0, # of connection points: 2
#     Edge 20, Type (0, 0), BuildingBlock: UVAHIK_clean_linker_0, # of connection points: 2
#     Edge 21, Type (0, 0), BuildingBlock: UVAHIK_clean_linker_0, # of connection points: 2
#     Edge 22, Type (0, 0), BuildingBlock: UVAHIK_clean_linker_0, # of connection points: 2
#     Edge 23, Type (0, 0), BuildingBlock: UVAHIK_clean_linker_0, # of connection points: 2
#     Edge 24, Type (0, 0), BuildingBlock: UVAHIK_clean_linker_0, # of connection points: 2
#     Edge 25, Type (0, 0), BuildingBlock: UVAHIK_clean_linker_0, # of connection points: 2
#     Edge 26, Type (0, 0), BuildingBlock: UVAHIK_clean_linker_0, # of connection points: 2
#     Edge 27, Type (0, 0), BuildingBlock: UVAHIK_clean_linker_0, # of connection points: 2
#     Edge 28, Type (0, 0), BuildingBlock: UVAHIK_clean_linker_0, # of connection points: 2
#     Edge 29, Type (0, 0), BuildingBlock: UVAHIK_clean_linker_0, # of connection points: 2
#     Edge 30, Type (0, 0), BuildingBlock: UVAHIK_clean_linker_0, # of connection points: 2
#     Edge 31, Type (0, 0), BuildingBlock: UVAHIK_clean_linker_0, # of connection points: 2
#     Edge 32, Type (0, 0), BuildingBlock: UVAHIK_clean_linker_0, # of connection points: 2
#     Edge 33, Type (0, 0), BuildingBlock: UVAHIK_clean_linker_0, # of connection points: 2
#     Edge 34, Type (0, 0), BuildingBlock: UVAHIK_clean_linker_0, # of connection points: 2
#     Edge 35, Type (0, 0), BuildingBlock: UVAHIK_clean_linker_0, # of connection points: 2
#     Edge 36, Type (0, 0), BuildingBlock: UVAHIK_clean_linker_0, # of connection points: 2
#     Edge 37, Type (0, 0), BuildingBlock: UVAHIK_clean_linker_0, # of connection points: 2
#     Edge 38, Type (0, 0), BuildingBlock: UVAHIK_clean_linker_0, # of connection points: 2
#     Edge 39, Type (0, 0), BuildingBlock: UVAHIK_clean_linker_0, # of connection points: 2
#     Edge 40, Type (0, 0), BuildingBlock: UVAHIK_clean_linker_0, # of connection points: 2
#     Edge 41, Type (0, 0), BuildingBlock: UVAHIK_clean_linker_0, # of connection points: 2
#     Edge 42, Type (0, 0), BuildingBlock: UVAHIK_clean_linker_0, # of connection points: 2
#     Edge 43, Type (0, 0), BuildingBlock: UVAHIK_clean_linker_0, # of connection points: 2
#     Edge 44, Type (0, 0), BuildingBlock: UVAHIK_clean_linker_0, # of connection points: 2
#     Edge 45, Type (0, 0), BuildingBlock: UVAHIK_clean_linker_0, # of connection points: 2
#     Edge 46, Type (0, 0), BuildingBlock: UVAHIK_clean_linker_0, # of connection points: 2
#     Edge 47, Type (0, 0), BuildingBlock: UVAHIK_clean_linker_0, # of connection points: 2
#     Edge 48, Type (0, 0), BuildingBlock: UVAHIK_clean_linker_0, # of connection points: 2
#     Edge 49, Type (0, 0), BuildingBlock: UVAHIK_clean_linker_0, # of connection points: 2
#     Edge 50, Type (0, 0), BuildingBlock: UVAHIK_clean_linker_0, # of connection points: 2
#     Edge 51, Type (0, 0), BuildingBlock: UVAHIK_clean_linker_0, # of connection points: 2
#     Edge 52, Type (0, 0), BuildingBlock: UVAHIK_clean_linker_0, # of connection points: 2
#     Edge 53, Type (0, 0), BuildingBlock: UVAHIK_clean_linker_0, # of connection points: 2
#     Edge 54, Type (0, 0), BuildingBlock: UVAHIK_clean_linker_0, # of connection points: 2
#     Edge 55, Type (0, 0), BuildingBlock: UVAHIK_clean_linker_0, # of connection points: 2
#     Edge 56, Type (0, 0), BuildingBlock: UVAHIK_clean_linker_0, # of connection points: 2
#     Edge 57, Type (0, 0), BuildingBlock: UVAHIK_clean_linker_0, # of connection points: 2
#     Edge 58, Type (0, 0), BuildingBlock: UVAHIK_clean_linker_0, # of connection points: 2
#     Edge 59, Type (0, 0), BuildingBlock: UVAHIK_clean_linker_0, # of connection points: 2
#     Edge 60, Type (0, 0), BuildingBlock: UVAHIK_clean_linker_0, # of connection points: 2
#     Edge 61, Type (0, 0), BuildingBlock: UVAHIK_clean_linker_0, # of connection points: 2
#     Edge 62, Type (0, 0), BuildingBlock: UVAHIK_clean_linker_0, # of connection points: 2
#     Edge 63, Type (0, 0), BuildingBlock: UVAHIK_clean_linker_0, # of connection points: 2
#     Edge 64, Type (0, 0), BuildingBlock: UVAHIK_clean_linker_0, # of connection points: 2
#     Edge 65, Type (0, 0), BuildingBlock: UVAHIK_clean_linker_0, # of connection points: 2
#     Edge 66, Type (0, 0), BuildingBlock: UVAHIK_clean_linker_0, # of connection points: 2
#     Edge 67, Type (0, 0), BuildingBlock: UVAHIK_clean_linker_0, # of connection points: 2
#     Edge 68, Type (0, 0), BuildingBlock: UVAHIK_clean_linker_0, # of connection points: 2
#     Edge 69, Type (0, 0), BuildingBlock: UVAHIK_clean_linker_0, # of connection points: 2
#     Edge 70, Type (0, 0), BuildingBlock: UVAHIK_clean_linker_0, # of connection points: 2
#     Edge 71, Type (0, 0), BuildingBlock: UVAHIK_clean_linker_0, # of connection points: 2
# Relax obj value: 0.151
# Max RMSD: 0.204
# Mean RMSD: 0.204
data_MOF--net-xfi--node1-HICVOG_clean_sbu_0--edge1-UVAHIK_clean_linker_0
_symmetry_space_group_name_H-M    P1
_symmetry_Int_Tables_number       1
_symmetry_cell_setting            triclinic
loop_
_symmetry_equiv_pos_as_xyz
'x, y, z'
_cell_length_a     82.40731
_cell_length_b     82.520997
_cell_length_c     22.149089
_cell_angle_alpha  89.947718
_cell_angle_beta   89.993317
_cell_angle_gamma 89.990156
loop_
_atom_site_label
_atom_site_type_symbol
_atom_site_fract_x
_atom_site_fract_y
_atom_site_fract_z
_atom_type_partial_charge
Zn0 Zn 0.34638 0.12526 0.10515 0.0
C1 C 0.31966 0.08861 0.17424 0.0
N2 N 0.30956 0.09298 0.12952 0.0
C3 C 0.31812 0.10437 0.10045 0.0
N4 N 0.33271 0.10702 0.12609 0.0
N5 N 0.33377 0.09697 0.17273 0.0
C6 C 0.34951 0.1041 0.33256 0.0
O7 O 0.35022 0.11727 0.29931 0.0
O8 O 0.34554 0.12797 0.01375 0.0
Zn9 Zn 0.35326 0.09007 0.21537 0.0
N10 N 0.33775 0.14413 0.14733 0.0
C11 C 0.32149 0.15348 0.22907 0.0
C12 C 0.32727 0.14092 0.1933 0.0
C13 C 0.34266 0.15962 0.13557 0.0
N14 N 0.32651 0.16882 0.21799 0.0
C15 C 0.33695 0.17239 0.17223 0.0
O16 O 0.37353 0.10318 0.19634 0.0
C17 C 0.37904 0.11477 0.16423 0.0
O18 O 0.36988 0.12298 0.12944 0.0
H19 H 0.32362 0.12864 0.2031 0.0
H20 H 0.35128 0.16184 0.09965 0.0
C21 C 0.35917 0.05436 0.21725 0.0
C22 C 0.36139 0.03959 0.18594 0.0
C23 C 0.36041 0.05391 0.09281 0.0
C24 C 0.35823 0.06837 0.1237 0.0
N25 N 0.35753 0.06839 0.18496 0.0
N26 N 0.36188 0.03995 0.12448 0.0
H27 H 0.35841 0.05466 0.266 0.0
C28 C 0.35053 0.11584 0.98348 0.0
O29 O 0.3561 0.10318 0.01292 0.0
O30 O 0.35024 0.09036 0.30649 0.0
H31 H 0.3569 0.07961 0.09907 0.0
H32 H 0.31322 0.15105 0.26593 0.0
H33 H 0.36087 0.05374 0.04401 0.0
Zn34 Zn 0.0899 0.6668 0.79529 0.0
C35 C 0.10464 0.70077 0.91325 0.0
N36 N 0.09347 0.70976 0.88471 0.0
C37 C 0.08893 0.70005 0.83913 0.0
N38 N 0.097 0.68579 0.83962 0.0
N39 N 0.107 0.68629 0.8865 0.0
C40 C 0.11564 0.66745 0.02604 0.0
O41 O 0.10299 0.66222 0.99566 0.0
O42 O 0.09012 0.67019 0.70434 0.0
Zn43 Zn 0.12529 0.67233 0.9052 0.0
N44 N 0.06815 0.66258 0.82516 0.0
C45 C 0.05272 0.6606 0.91562 0.0
C46 C 0.06751 0.66254 0.88645 0.0
C47 C 0.05447 0.66048 0.79131 0.0
N48 N 0.03907 0.65871 0.88229 0.0
C49 C 0.0394 0.65851 0.82082 0.0
O50 O 0.1232 0.64891 0.87806 0.0
C51 C 0.1146 0.64038 0.84236 0.0
O52 O 0.10294 0.64652 0.81229 0.0
H53 H 0.07848 0.66422 0.91243 0.0
H54 H 0.05526 0.66072 0.74255 0.0
C55 C 0.15975 0.67907 0.87999 0.0
C56 C 0.17223 0.687 0.84784 0.0
C57 C 0.15246 0.69965 0.78574 0.0
C58 C 0.1402 0.6918 0.81729 0.0
N59 N 0.14396 0.68186 0.86432 0.0
N60 N 0.1681 0.69713 0.80182 0.0
H61 H 0.16249 0.67106 0.91734 0.0
C62 C 0.10378 0.67054 0.6774 0.0
O63 O 0.1171 0.66937 0.70972 0.0
O64 O 0.12795 0.67245 0.99664 0.0
H65 H 0.12774 0.6937 0.80417 0.0
H66 H 0.05205 0.66068 0.9644 0.0
H67 H 0.14958 0.70769 0.74864 0.0
Zn68 Zn 0.67302 0.89156 0.10661 0.0
C69 C 0.7013 0.92693 0.17626 0.0
N70 N 0.71129 0.92212 0.13187 0.0
C71 C 0.70229 0.9111 0.10268 0.0
N72 N 0.68752 0.90914 0.12786 0.0
N73 N 0.68686 0.91919 0.1745 0.0
C74 C 0.67116 0.91298 0.33419 0.0
O75 O 0.6702 0.89979 0.30119 0.0
O76 O 0.6737 0.88898 0.01524 0.0
Zn77 Zn 0.66767 0.92685 0.21679 0.0
N78 N 0.68106 0.87231 0.14787 0.0
C79 C 0.69682 0.86202 0.2294 0.0
C80 C 0.69127 0.87499 0.19507 0.0
C81 C 0.67613 0.857 0.1336 0.0
N82 N 0.69186 0.84683 0.21559 0.0
C83 C 0.68164 0.84379 0.16862 0.0
O84 O 0.64705 0.91435 0.19866 0.0
C85 C 0.64091 0.90303 0.16692 0.0
O86 O 0.64955 0.89452 0.13132 0.0
H87 H 0.69492 0.88714 0.2068 0.0
H88 H 0.6677 0.85526 0.09674 0.0
C89 C 0.66205 0.96253 0.21724 0.0
C90 C 0.66028 0.97732 0.18564 0.0
C91 C 0.66251 0.96307 0.09274 0.0
C92 C 0.66422 0.94858 0.12394 0.0
N93 N 0.66409 0.94853 0.18526 0.0
N94 N 0.66063 0.97701 0.12416 0.0
H95 H 0.66213 0.96217 0.26608 0.0
C96 C 0.66872 0.90114 0.98502 0.0
O97 O 0.66319 0.9138 0.01448 0.0
O98 O 0.6707 0.92671 0.30787 0.0
H99 H 0.66581 0.93737 0.09951 0.0
H100 H 0.7049 0.86402 0.26717 0.0
H101 H 0.6627 0.96328 0.04391 0.0
Zn102 Zn 0.92784 0.35127 0.80109 0.0
C103 C 0.91364 0.31669 0.9181 0.0
N104 N 0.92479 0.3079 0.88859 0.0
C105 C 0.92921 0.31783 0.8434 0.0
N106 N 0.92104 0.33203 0.84504 0.0
N107 N 0.91106 0.33123 0.8919 0.0
C108 C 0.90259 0.34898 0.03217 0.0
O109 O 0.91533 0.35398 1.00174 0.0
O110 O 0.92785 0.34819 0.71011 0.0
Zn111 Zn 0.89278 0.34514 0.91163 0.0
N112 N 0.94928 0.35645 0.83187 0.0
C113 C 0.96368 0.36076 0.9235 0.0
C114 C 0.94959 0.35644 0.89319 0.0
C115 C 0.96271 0.36053 0.79903 0.0
N116 N 0.97695 0.36508 0.89123 0.0
C117 C 0.97701 0.36512 0.82975 0.0
O118 O 0.89472 0.36874 0.88634 0.0
C119 C 0.90293 0.37726 0.84934 0.0
O120 O 0.91437 0.37115 0.81815 0.0
H121 H 0.93882 0.35327 0.91832 0.0
H122 H 0.96212 0.36067 0.75022 0.0
C123 C 0.85843 0.34107 0.88268 0.0
C124 C 0.8455 0.33515 0.84716 0.0
C125 C 0.86437 0.32003 0.78883 0.0
C126 C 0.87706 0.32601 0.82357 0.0
N127 N 0.87393 0.33636 0.86989 0.0
N128 N 0.84899 0.32476 0.80121 0.0
H129 H 0.85635 0.34967 0.91868 0.0
C130 C 0.91423 0.34841 0.683 0.0
O131 O 0.90092 0.35001 0.71518 0.0
O132 O 0.89009 0.34448 1.00288 0.0
H133 H 0.88937 0.32256 0.81289 0.0
H134 H 0.96405 0.36087 0.97232 0.0
H135 H 0.86672 0.31181 0.75181 0.0
Zn136 Zn 0.34565 0.39174 0.15137 0.0
C137 C 0.31766 0.42745 0.08158 0.0
N138 N 0.30759 0.42256 0.1256 0.0
C139 C 0.3165 0.41144 0.1547 0.0
N140 N 0.33129 0.40947 0.12978 0.0
N141 N 0.33209 0.41966 0.08349 0.0
C142 C 0.34778 0.41377 0.9232 0.0
O143 O 0.34847 0.40042 0.95552 0.0
O144 O 0.34518 0.38949 0.24289 0.0
Zn145 Zn 0.35139 0.42721 0.04134 0.0
N146 N 0.33734 0.37241 0.11129 0.0
C147 C 0.32116 0.36212 0.031 0.0
C148 C 0.32692 0.37509 0.06472 0.0
C149 C 0.34229 0.35709 0.12547 0.0
N150 N 0.32615 0.34692 0.04467 0.0
C151 C 0.33658 0.34388 0.09098 0.0
O152 O 0.37177 0.41429 0.05888 0.0
C153 C 0.37779 0.40282 0.09026 0.0
O154 O 0.3691 0.39439 0.12597 0.0
H155 H 0.32326 0.38725 0.05299 0.0
H156 H 0.3509 0.35533 0.16179 0.0
C157 C 0.36005 0.46227 0.04137 0.0
C158 C 0.3639 0.47662 0.07308 0.0
C159 C 0.3582 0.46321 0.16564 0.0
C160 C 0.35463 0.44907 0.13443 0.0
N161 N 0.35566 0.44877 0.07322 0.0
N162 N 0.36283 0.47654 0.13443 0.0
H163 H 0.36102 0.4617 0.99269 0.0
C164 C 0.3504 0.40173 0.27196 0.0
O165 O 0.35598 0.41417 0.24128 0.0
O166 O 0.3484 0.42737 0.95025 0.0
H167 H 0.35125 0.43825 0.15889 0.0
H168 H 0.3129 0.36412 0.99375 0.0
H169 H 0.35748 0.46356 0.2144 0.0
Zn170 Zn 0.39251 0.67319 0.85244 0.0
C171 C 0.42858 0.70127 0.91918 0.0
N172 N 0.42366 0.71113 0.87451 0.0
C173 C 0.41246 0.70213 0.84623 0.0
N174 N 0.4104 0.68752 0.87248 0.0
N175 N 0.42068 0.68691 0.91852 0.0
C176 C 0.41435 0.67142 0.08061 0.0
O177 O 0.40099 0.67018 0.04859 0.0
O178 O 0.39031 0.67335 0.76091 0.0
Zn179 Zn 0.4279 0.66781 0.96247 0.0
N180 N 0.37339 0.68227 0.89131 0.0
C181 C 0.36357 0.69974 0.96863 0.0
C182 C 0.37638 0.69218 0.93908 0.0
C183 C 0.35788 0.67916 0.87308 0.0
N184 N 0.34819 0.69694 0.94985 0.0
C185 C 0.34488 0.68676 0.90314 0.0
O186 O 0.41473 0.64757 0.94647 0.0
C187 C 0.40316 0.64134 0.91625 0.0
O188 O 0.39467 0.64978 0.87981 0.0
H189 H 0.38866 0.69434 0.95404 0.0
H190 H 0.35576 0.67117 0.83517 0.0
C191 C 0.46262 0.6585 0.96538 0.0
C192 C 0.4772 0.65438 0.93559 0.0
C193 C 0.46473 0.66019 0.84132 0.0
C194 C 0.45036 0.66406 0.87071 0.0
N195 N 0.44949 0.6631 0.93187 0.0
N196 N 0.47771 0.65536 0.87424 0.0
H197 H 0.46156 0.65759 0.01397 0.0
C198 C 0.40288 0.66891 0.73189 0.0
O199 O 0.41565 0.66412 0.76261 0.0
O200 O 0.42796 0.67116 0.05336 0.0
H201 H 0.43982 0.66762 0.84491 0.0
H202 H 0.36583 0.70779 0.00621 0.0
H203 H 0.46554 0.66084 0.79262 0.0
Zn204 Zn 0.67289 0.6254 0.15167 0.0
C205 C 0.70065 0.58931 0.08394 0.0
N206 N 0.71049 0.59386 0.12915 0.0
C207 C 0.7016 0.60508 0.15773 0.0
N208 N 0.68703 0.60742 0.13142 0.0
N209 N 0.68638 0.59739 0.08471 0.0
C210 C 0.67104 0.60405 0.92409 0.0
O211 O 0.6702 0.61725 0.95711 0.0
O212 O 0.67354 0.62817 0.24298 0.0
Zn213 Zn 0.66716 0.59024 0.04139 0.0
N214 N 0.68132 0.64435 0.10946 0.0
C215 C 0.69745 0.6539 0.02764 0.0
C216 C 0.6918 0.64126 0.0634 0.0
C217 C 0.67628 0.65977 0.12134 0.0
N218 N 0.69231 0.66919 0.03885 0.0
C219 C 0.68186 0.67262 0.08472 0.0
O220 O 0.64684 0.60323 0.05889 0.0
C221 C 0.64075 0.61456 0.0907 0.0
O222 O 0.64937 0.62286 0.12699 0.0
H223 H 0.69556 0.62902 0.05349 0.0
H224 H 0.66766 0.66189 0.15735 0.0
C225 C 0.6582 0.5553 0.04054 0.0
C226 C 0.65403 0.54099 0.07192 0.0
C227 C 0.65937 0.55427 0.16494 0.0
C228 C 0.66323 0.56839 0.13404 0.0
N229 N 0.66255 0.56873 0.07274 0.0
N230 N 0.65477 0.54101 0.13334 0.0
H231 H 0.65748 0.55592 0.9918 0.0
C232 C 0.66843 0.61608 0.27326 0.0
O233 O 0.66281 0.60345 0.24383 0.0
O234 O 0.67038 0.59034 0.95038 0.0
H235 H 0.66655 0.57917 0.15879 0.0
H236 H 0.70572 0.65157 0.9907 0.0
H237 H 0.65981 0.55388 0.21373 0.0
Zn238 Zn 0.62627 0.34455 0.85532 0.0
C239 C 0.5903 0.31648 0.92282 0.0
N240 N 0.59484 0.30678 0.87723 0.0
C241 C 0.60601 0.31577 0.8487 0.0
N242 N 0.60836 0.33025 0.87543 0.0
N243 N 0.59833 0.33076 0.92224 0.0
C244 C 0.60506 0.34636 0.08299 0.0
O245 O 0.61823 0.34774 0.04992 0.0
O246 O 0.62908 0.34389 0.76402 0.0
Zn247 Zn 0.59102 0.34981 0.96582 0.0
N248 N 0.64527 0.33628 0.89778 0.0
C249 C 0.65475 0.3206 0.98091 0.0
C250 C 0.64213 0.3261 0.9447 0.0
C251 C 0.66075 0.34118 0.88548 0.0
N252 N 0.67008 0.32562 0.96931 0.0
C253 C 0.67357 0.33577 0.92261 0.0
O254 O 0.60386 0.37015 0.94822 0.0
C255 C 0.61513 0.37647 0.91671 0.0
O256 O 0.62358 0.36806 0.88014 0.0
H257 H 0.62986 0.32246 0.95493 0.0
H258 H 0.66292 0.34957 0.84879 0.0
C259 C 0.55615 0.35878 0.96877 0.0
C260 C 0.54155 0.36271 0.93876 0.0
C261 C 0.55407 0.35677 0.84476 0.0
C262 C 0.56848 0.35311 0.87434 0.0
N263 N 0.56933 0.35421 0.93547 0.0
N264 N 0.54105 0.36157 0.87746 0.0
H265 H 0.55718 0.35983 0.01732 0.0
C266 C 0.61664 0.34816 0.7338 0.0
O267 O 0.60368 0.353 0.76327 0.0
O268 O 0.5913 0.34654 0.05678 0.0
H269 H 0.57906 0.34963 0.84864 0.0
H270 H 0.65237 0.31257 0.01852 0.0
H271 H 0.55328 0.356 0.7961 0.0
Zn272 Zn 0.84403 0.62565 0.60609 0.0
C273 C 0.81713 0.58928 0.6762 0.0
N274 N 0.80698 0.59377 0.63183 0.0
C275 C 0.81559 0.60509 0.60258 0.0
N276 N 0.83027 0.60756 0.62777 0.0
N277 N 0.83132 0.5975 0.67434 0.0
C278 C 0.84691 0.60398 0.83445 0.0
O279 O 0.84725 0.61734 0.80209 0.0
O280 O 0.8435 0.62789 0.51463 0.0
Zn281 Zn 0.85088 0.59061 0.71648 0.0
N282 N 0.83522 0.64474 0.6459 0.0
C283 C 0.81822 0.65498 0.72393 0.0
C284 C 0.82425 0.64203 0.69069 0.0
C285 C 0.84046 0.66004 0.63306 0.0
N286 N 0.82349 0.67017 0.71154 0.0
C287 C 0.83446 0.67322 0.66699 0.0
O288 O 0.87103 0.60398 0.69876 0.0
C289 C 0.87655 0.6156 0.66689 0.0
O290 O 0.86746 0.62368 0.63148 0.0
H291 H 0.82036 0.62988 0.70139 0.0
H292 H 0.8495 0.66179 0.59823 0.0
C293 C 0.85974 0.55567 0.7172 0.0
C294 C 0.86391 0.54136 0.68591 0.0
C295 C 0.85917 0.55485 0.59274 0.0
C296 C 0.85527 0.56895 0.6236 0.0
N297 N 0.85568 0.56919 0.68491 0.0
N298 N 0.86348 0.54149 0.62444 0.0
H299 H 0.86018 0.55621 0.76599 0.0
C300 C 0.84908 0.61581 0.48552 0.0
O301 O 0.85502 0.60353 0.51612 0.0
O302 O 0.84789 0.5904 0.80746 0.0
H303 H 0.85209 0.57979 0.59889 0.0
H304 H 0.80953 0.65297 0.75978 0.0
H305 H 0.85895 0.55454 0.54392 0.0
Zn306 Zn 0.59202 0.16701 0.29522 0.0
C307 C 0.6077 0.20138 0.41051 0.0
N308 N 0.59678 0.21046 0.38105 0.0
C309 C 0.59178 0.20045 0.33708 0.0
N310 N 0.59937 0.18595 0.33923 0.0
N311 N 0.60947 0.18657 0.38576 0.0
C312 C 0.61875 0.16356 0.52566 0.0
O313 O 0.60832 0.15513 0.49369 0.0
O314 O 0.59289 0.17069 0.20454 0.0
Zn315 Zn 0.62729 0.1723 0.40632 0.0
N316 N 0.57012 0.16318 0.3244 0.0
C317 C 0.55451 0.1616 0.41456 0.0
C318 C 0.56937 0.16337 0.38569 0.0
C319 C 0.55649 0.16098 0.29033 0.0
N320 N 0.54093 0.15957 0.38098 0.0
C321 C 0.54137 0.15912 0.31955 0.0
O322 O 0.62489 0.14901 0.37854 0.0
C323 C 0.6163 0.14041 0.3431 0.0
O324 O 0.6047 0.1465 0.31256 0.0
H325 H 0.58031 0.16507 0.41191 0.0
H326 H 0.55736 0.16103 0.24159 0.0
C327 C 0.66195 0.17559 0.37848 0.0
C328 C 0.67498 0.18152 0.34356 0.0
C329 C 0.65671 0.19847 0.28992 0.0
C330 C 0.64386 0.19244 0.32374 0.0
N331 N 0.64662 0.18112 0.3673 0.0
N332 N 0.67188 0.19281 0.30025 0.0
H333 H 0.66384 0.16633 0.41241 0.0
C334 C 0.5898 0.15913 0.16838 0.0
O335 O 0.5852 0.1451 0.19068 0.0
O336 O 0.62918 0.1722 0.49796 0.0
H337 H 0.63172 0.19658 0.31417 0.0
H338 H 0.55375 0.16186 0.4633 0.0
H339 H 0.65463 0.20741 0.25502 0.0
Zn340 Zn 0.1735 0.39163 0.60504 0.0
C341 C 0.20167 0.42758 0.67198 0.0
N342 N 0.21145 0.42289 0.62681 0.0
C343 C 0.20244 0.41172 0.59846 0.0
N344 N 0.18786 0.40954 0.6249 0.0
N345 N 0.18733 0.41964 0.67143 0.0
C346 C 0.17202 0.41323 0.83254 0.0
O347 O 0.17098 0.40003 0.7996 0.0
O348 O 0.17396 0.3889 0.51366 0.0
Zn349 Zn 0.16826 0.42701 0.71511 0.0
N350 N 0.18195 0.37261 0.64689 0.0
C351 C 0.19809 0.36305 0.72868 0.0
C352 C 0.19243 0.37569 0.69297 0.0
C353 C 0.17693 0.35717 0.63497 0.0
N354 N 0.19296 0.34776 0.71745 0.0
C355 C 0.18252 0.34433 0.6716 0.0
O356 O 0.14798 0.41402 0.69838 0.0
C357 C 0.14163 0.40267 0.66747 0.0
O358 O 0.15 0.3942 0.63083 0.0
H359 H 0.19616 0.38793 0.70295 0.0
H360 H 0.16831 0.35505 0.59897 0.0
C361 C 0.15921 0.46194 0.71592 0.0
C362 C 0.15506 0.47627 0.68458 0.0
C363 C 0.16064 0.46308 0.59157 0.0
C364 C 0.16449 0.44894 0.62243 0.0
N365 N 0.16367 0.44854 0.68369 0.0
N366 N 0.15593 0.4763 0.62318 0.0
H367 H 0.15839 0.46128 0.76462 0.0
C368 C 0.16902 0.40109 0.48352 0.0
O369 O 0.16364 0.4138 0.51309 0.0
O370 O 0.17156 0.42694 0.80614 0.0
H371 H 0.16789 0.43819 0.59764 0.0
H372 H 0.20635 0.36538 0.76562 0.0
H373 H 0.16119 0.46351 0.5428 0.0
Zn374 Zn 0.42804 0.84957 0.29734 0.0
C375 C 0.41281 0.81508 0.41352 0.0
N376 N 0.42405 0.80617 0.38506 0.0
C377 C 0.42889 0.81608 0.34046 0.0
N378 N 0.42093 0.83041 0.3414 0.0
N379 N 0.41067 0.82971 0.38746 0.0
C380 C 0.40228 0.8474 0.52896 0.0
O381 O 0.41527 0.85219 0.49954 0.0
O382 O 0.42763 0.8463 0.20627 0.0
Zn383 Zn 0.39271 0.84397 0.40729 0.0
N384 N 0.44978 0.8541 0.32693 0.0
C385 C 0.46521 0.85683 0.41714 0.0
C386 C 0.45076 0.85306 0.38806 0.0
C387 C 0.46286 0.85872 0.29316 0.0
N388 N 0.47813 0.86167 0.38397 0.0
C389 C 0.47751 0.86276 0.32267 0.0
O390 O 0.39535 0.86751 0.38261 0.0
C391 C 0.40377 0.87609 0.34647 0.0
O392 O 0.41514 0.86993 0.31496 0.0
H393 H 0.44025 0.84954 0.41412 0.0
H394 H 0.46172 0.85972 0.24463 0.0
C395 C 0.35829 0.84064 0.37654 0.0
C396 C 0.3455 0.83531 0.33912 0.0
C397 C 0.36438 0.82024 0.28081 0.0
C398 C 0.37697 0.82567 0.31729 0.0
N399 N 0.37377 0.83575 0.3644 0.0
N400 N 0.34904 0.82524 0.29228 0.0
H401 H 0.35609 0.84898 0.41332 0.0
C402 C 0.41387 0.84615 0.18005 0.0
O403 O 0.4007 0.84755 0.21309 0.0
O404 O 0.38983 0.84322 0.49865 0.0
H405 H 0.38926 0.82206 0.30716 0.0
H406 H 0.4661 0.85611 0.46579 0.0
H407 H 0.3668 0.81228 0.24308 0.0
Zn408 Zn 0.85108 0.92684 0.54348 0.0
C409 C 0.81647 0.91172 0.65895 0.0
N410 N 0.80755 0.92285 0.62998 0.0
C411 C 0.81749 0.92754 0.58525 0.0
N412 N 0.83185 0.91962 0.58664 0.0
N413 N 0.83115 0.90955 0.63329 0.0
C414 C 0.84999 0.9012 0.77444 0.0
O415 O 0.85555 0.91369 0.74398 0.0
O416 O 0.84792 0.92687 0.45249 0.0
Zn417 Zn 0.84536 0.89163 0.65375 0.0
N418 N 0.85558 0.94836 0.57471 0.0
C419 C 0.85857 0.96295 0.66661 0.0
C420 C 0.85484 0.94877 0.63598 0.0
C421 C 0.85986 0.96179 0.54226 0.0
N422 N 0.86309 0.97621 0.63476 0.0
C423 C 0.86388 0.97617 0.57334 0.0
O424 O 0.86888 0.8942 0.62886 0.0
C425 C 0.87752 0.90253 0.59265 0.0
O426 O 0.87144 0.91389 0.56092 0.0
H427 H 0.85155 0.938 0.66091 0.0
H428 H 0.8606 0.96112 0.49354 0.0
C429 C 0.84197 0.85722 0.62407 0.0
C430 C 0.83648 0.84438 0.58735 0.0
C431 C 0.82104 0.86308 0.52954 0.0
C432 C 0.82661 0.87573 0.56535 0.0
N433 N 0.83697 0.87265 0.61182 0.0
N434 N 0.82616 0.84779 0.54107 0.0
H435 H 0.85049 0.8551 0.6604 0.0
C436 C 0.84728 0.91325 0.42561 0.0
O437 O 0.84806 0.89993 0.45804 0.0
O438 O 0.8448 0.88899 0.74512 0.0
H439 H 0.8229 0.88796 0.55513 0.0
H440 H 0.85808 0.96339 0.71539 0.0
H441 H 0.81288 0.86541 0.49227 0.0
Zn442 Zn 0.89391 0.17195 0.34709 0.0
C443 C 0.93016 0.19942 0.41553 0.0
N444 N 0.92572 0.20932 0.37029 0.0
C445 C 0.91462 0.20048 0.34073 0.0
N446 N 0.9121 0.18594 0.36697 0.0
N447 N 0.92206 0.18519 0.41388 0.0
C448 C 0.91544 0.16864 0.57568 0.0
O449 O 0.90214 0.16696 0.54353 0.0
O450 O 0.89122 0.17264 0.25584 0.0
Zn451 Zn 0.92901 0.16593 0.45749 0.0
N452 N 0.87502 0.18055 0.38905 0.0
C453 C 0.86536 0.1967 0.47048 0.0
C454 C 0.87809 0.19091 0.43543 0.0
C455 C 0.85957 0.17566 0.37652 0.0
N456 N 0.85003 0.19178 0.45836 0.0
C457 C 0.84662 0.18139 0.41237 0.0
O458 O 0.91564 0.14598 0.44043 0.0
C459 C 0.90423 0.13985 0.40915 0.0
O460 O 0.89601 0.14836 0.37218 0.0
H461 H 0.89036 0.19449 0.44592 0.0
H462 H 0.85755 0.16705 0.34049 0.0
C463 C 0.96389 0.15666 0.45902 0.0
C464 C 0.97819 0.1522 0.42806 0.0
C465 C 0.9649 0.15701 0.33456 0.0
C466 C 0.95081 0.1612 0.3651 0.0
N467 N 0.95047 0.1609 0.42641 0.0
N468 N 0.97816 0.15252 0.36658 0.0
H469 H 0.96328 0.15629 0.50781 0.0
C470 C 0.90376 0.16825 0.22654 0.0
O471 O 0.91652 0.16331 0.25697 0.0
O472 O 0.92906 0.16896 0.54852 0.0
H473 H 0.94004 0.16449 0.34012 0.0
H474 H 0.86766 0.20492 0.50753 0.0
H475 H 0.96528 0.15713 0.28574 0.0
Zn476 Zn 0.16961 0.08975 0.54182 0.0
C477 C 0.20396 0.10586 0.65641 0.0
N478 N 0.21313 0.09494 0.62748 0.0
C479 C 0.20325 0.08994 0.58309 0.0
N480 N 0.18869 0.09747 0.58464 0.0
N481 N 0.18917 0.1076 0.6311 0.0
C482 C 0.16969 0.11544 0.77327 0.0
O483 O 0.16418 0.10282 0.74348 0.0
O484 O 0.17284 0.08961 0.4508 0.0
Zn485 Zn 0.17453 0.12519 0.65191 0.0
N486 N 0.16531 0.06825 0.57412 0.0
C487 C 0.16289 0.05379 0.66666 0.0
C488 C 0.16653 0.0679 0.6353 0.0
C489 C 0.16063 0.05483 0.54249 0.0
N490 N 0.15797 0.04054 0.63565 0.0
C491 C 0.15669 0.04052 0.57436 0.0
O492 O 0.15112 0.12247 0.62548 0.0
C493 C 0.1428 0.11397 0.58889 0.0
O494 O 0.14919 0.10261 0.55811 0.0
H495 H 0.17009 0.07866 0.65966 0.0
H496 H 0.15948 0.05545 0.49387 0.0
C497 C 0.1777 0.15982 0.62563 0.0
C498 C 0.18338 0.17306 0.59115 0.0
C499 C 0.19907 0.15493 0.5318 0.0
C500 C 0.19335 0.14192 0.56552 0.0
N501 N 0.1828 0.14453 0.61177 0.0
N502 N 0.19393 0.17009 0.54517 0.0
H503 H 0.169 0.16151 0.66167 0.0
C504 C 0.1733 0.1033 0.42421 0.0
O505 O 0.17234 0.11653 0.45699 0.0
O506 O 0.17482 0.12759 0.74337 0.0
H507 H 0.19713 0.12979 0.55402 0.0
H508 H 0.16375 0.0534 0.71538 0.0
H509 H 0.20742 0.15298 0.4948 0.0
Zn510 Zn 0.12612 0.84445 0.35773 0.0
C511 C 0.09035 0.81635 0.4265 0.0
N512 N 0.09512 0.80645 0.38186 0.0
C513 C 0.10622 0.81542 0.35289 0.0
N514 N 0.10829 0.8301 0.37851 0.0
N515 N 0.09819 0.83073 0.42507 0.0
C516 C 0.10434 0.8461 0.58608 0.0
O517 O 0.11771 0.84694 0.55384 0.0
O518 O 0.12843 0.84417 0.26631 0.0
Zn519 Zn 0.09081 0.84988 0.46809 0.0
N520 N 0.14537 0.83588 0.39766 0.0
C521 C 0.1556 0.81925 0.47688 0.0
C522 C 0.14264 0.82519 0.44336 0.0
C523 C 0.16072 0.84092 0.38418 0.0
N524 N 0.17083 0.82433 0.46388 0.0
C525 C 0.17391 0.83503 0.41846 0.0
O526 O 0.10387 0.87015 0.45147 0.0
C527 C 0.11532 0.87635 0.42051 0.0
O528 O 0.12373 0.86787 0.38405 0.0
H529 H 0.13046 0.82146 0.45458 0.0
H530 H 0.1625 0.84973 0.3486 0.0
C531 C 0.05599 0.85892 0.47014 0.0
C532 C 0.04143 0.86291 0.43992 0.0
C533 C 0.0541 0.85709 0.34607 0.0
C534 C 0.06846 0.85336 0.37588 0.0
N535 N 0.06921 0.85439 0.43704 0.0
N536 N 0.04103 0.86186 0.37859 0.0
H537 H 0.05695 0.85989 0.51874 0.0
C538 C 0.11613 0.84928 0.23719 0.0
O539 O 0.10358 0.85466 0.2678 0.0
O540 O 0.09072 0.84666 0.55901 0.0
H541 H 0.07907 0.84986 0.35038 0.0
H542 H 0.15357 0.81079 0.51343 0.0
H543 H 0.05339 0.85639 0.29737 0.0
C544 C 0.35237 0.10075 0.88575 0.0
C545 C 0.34924 0.11531 0.9166 0.0
C546 C 0.35112 0.09993 0.82291 0.0
C547 C 0.3529 0.12487 0.68568 0.0
H548 H 0.3327 0.08758 0.61024 0.0
C549 C 0.34551 0.12057 0.42651 0.0
C550 C 0.34795 0.10538 0.39922 0.0
C551 C 0.34459 0.12201 0.48936 0.0
C552 C 0.33857 0.09799 0.63042 0.0
H553 H 0.34218 0.14044 0.90531 0.0
H554 H 0.3402 0.13905 0.79497 0.0
H555 H 0.33302 0.08985 0.71999 0.0
H556 H 0.35113 0.07974 0.41685 0.0
H557 H 0.34989 0.08226 0.5265 0.0
H558 H 0.35883 0.13285 0.59644 0.0
C559 C 0.34367 0.12827 0.81975 0.0
C560 C 0.33869 0.09932 0.69344 0.0
C561 C 0.34476 0.12906 0.88293 0.0
C562 C 0.34922 0.09162 0.43635 0.0
C563 C 0.3484 0.09307 0.49934 0.0
C564 C 0.3529 0.12348 0.62265 0.0
C565 C 0.34682 0.11368 0.78903 0.0
C566 C 0.34595 0.11272 0.72188 0.0
C567 C 0.34618 0.10832 0.5268 0.0
C568 C 0.3458 0.10998 0.59406 0.0
H569 H 0.35577 0.08989 0.91014 0.0
H570 H 0.35381 0.08855 0.80071 0.0
H571 H 0.35878 0.13523 0.70614 0.0
H572 H 0.34434 0.13142 0.39931 0.0
H573 H 0.34254 0.1339 0.50853 0.0
C574 C 0.09082 0.67053 0.57449 0.0
C575 C 0.10479 0.67184 0.6106 0.0
C576 C 0.09202 0.67083 0.51138 0.0
C577 C 0.11869 0.68314 0.38485 0.0
H578 H 0.09497 0.6505 0.2954 0.0
C579 C 0.12852 0.67268 0.12759 0.0
C580 C 0.11487 0.66844 0.09296 0.0
C581 C 0.12748 0.67354 0.19078 0.0
C582 C 0.10151 0.65987 0.31938 0.0
H583 H 0.13092 0.67498 0.60849 0.0
H584 H 0.13296 0.67561 0.49866 0.0
H585 H 0.09236 0.65175 0.40471 0.0
H586 H 0.0893 0.6623 0.09765 0.0
H587 H 0.0874 0.66417 0.20666 0.0
H588 H 0.12769 0.69141 0.29946 0.0
C589 C 0.12109 0.67434 0.51909 0.0
C590 C 0.10001 0.66056 0.38223 0.0
C591 C 0.11991 0.67389 0.58211 0.0
C592 C 0.10014 0.66537 0.12284 0.0
C593 C 0.09906 0.66635 0.18567 0.0
C594 C 0.12008 0.68255 0.3218 0.0
C595 C 0.10719 0.67262 0.48291 0.0
C596 C 0.10858 0.67219 0.4158 0.0
C597 C 0.11273 0.67031 0.22074 0.0
C598 C 0.11149 0.67091 0.28811 0.0
H599 H 0.07898 0.66899 0.59492 0.0
H600 H 0.08105 0.66967 0.48481 0.0
H601 H 0.12535 0.69235 0.40934 0.0
H602 H 0.14004 0.67518 0.10597 0.0
H603 H 0.13831 0.67647 0.21613 0.0
C604 C 0.66699 0.91628 0.88725 0.0
C605 C 0.67007 0.9017 0.91816 0.0
C606 C 0.66837 0.91714 0.82445 0.0
C607 C 0.66687 0.89229 0.6872 0.0
H608 H 0.68743 0.9295 0.61235 0.0
C609 C 0.67493 0.89653 0.42838 0.0
C610 C 0.67263 0.91172 0.40088 0.0
C611 C 0.67571 0.8951 0.49126 0.0
C612 C 0.68146 0.91911 0.63236 0.0
H613 H 0.67715 0.87659 0.90703 0.0
H614 H 0.67936 0.87803 0.79678 0.0
H615 H 0.68679 0.92722 0.7221 0.0
H616 H 0.66957 0.93739 0.41814 0.0
H617 H 0.67056 0.93489 0.52784 0.0
H618 H 0.66115 0.88434 0.59781 0.0
C619 C 0.67583 0.8888 0.82147 0.0
C620 C 0.68116 0.91778 0.69538 0.0
C621 C 0.67461 0.88798 0.8846 0.0
C622 C 0.67138 0.9255 0.43782 0.0
C623 C 0.67205 0.92406 0.50084 0.0
C624 C 0.66705 0.89368 0.62418 0.0
C625 C 0.67274 0.90341 0.79069 0.0
C626 C 0.67377 0.9044 0.72359 0.0
C627 C 0.67411 0.90881 0.52851 0.0
C628 C 0.67428 0.90715 0.59579 0.0
H629 H 0.66354 0.92713 0.91158 0.0
H630 H 0.66573 0.92853 0.80217 0.0
H631 H 0.66089 0.88194 0.7075 0.0
H632 H 0.67609 0.88566 0.40133 0.0
H633 H 0.67765 0.8832 0.51061 0.0
C634 C 0.89804 0.34511 0.58794 0.0
C635 C 0.91321 0.34688 0.61634 0.0
C636 C 0.89689 0.34431 0.52499 0.0
C637 C 0.91837 0.35669 0.38731 0.0
H638 H 0.88999 0.32604 0.30698 0.0
C639 C 0.91823 0.35056 0.12866 0.0
C640 C 0.90338 0.34792 0.09901 0.0
C641 C 0.91928 0.34972 0.1915 0.0
C642 C 0.89781 0.33483 0.32865 0.0
H643 H 0.9391 0.34886 0.6007 0.0
H644 H 0.93707 0.3476 0.49065 0.0
H645 H 0.89227 0.32568 0.41697 0.0
H646 H 0.87801 0.34204 0.11234 0.0
H647 H 0.87972 0.34099 0.22257 0.0
H648 H 0.92369 0.36613 0.29969 0.0
C649 C 0.92606 0.34692 0.51724 0.0
C650 C 0.89916 0.33457 0.39173 0.0
C651 C 0.92723 0.34756 0.58029 0.0
C652 C 0.88961 0.3442 0.13382 0.0
C653 C 0.89064 0.34348 0.19702 0.0
C654 C 0.91692 0.35705 0.32443 0.0
C655 C 0.91086 0.3454 0.48883 0.0
C656 C 0.90951 0.34546 0.42176 0.0
C657 C 0.90549 0.34636 0.22675 0.0
C658 C 0.90669 0.34608 0.29408 0.0
H659 H 0.88699 0.34449 0.61431 0.0
H660 H 0.88499 0.34327 0.50456 0.0
H661 H 0.92622 0.36544 0.40909 0.0
H662 H 0.92915 0.35322 0.10331 0.0
H663 H 0.93101 0.35161 0.21239 0.0
C664 C 0.34816 0.42675 0.82033 0.0
C665 C 0.3465 0.41282 0.8564 0.0
C666 C 0.3478 0.4256 0.75722 0.0
C667 C 0.33467 0.39934 0.63087 0.0
H668 H 0.36787 0.4222 0.54082 0.0
C669 C 0.3448 0.38913 0.37372 0.0
C670 C 0.34937 0.40262 0.33884 0.0
C671 C 0.34397 0.39025 0.43688 0.0
C672 C 0.35834 0.41591 0.56497 0.0
H673 H 0.34268 0.38681 0.85424 0.0
H674 H 0.34196 0.38485 0.74443 0.0
H675 H 0.36678 0.42482 0.65016 0.0
H676 H 0.35614 0.428 0.34305 0.0
H677 H 0.35433 0.43004 0.45207 0.0
H678 H 0.32609 0.39056 0.54565 0.0
C679 C 0.34354 0.39666 0.76488 0.0
C680 C 0.35774 0.41741 0.62784 0.0
C681 C 0.34405 0.39779 0.82789 0.0
C682 C 0.3528 0.41728 0.36845 0.0
C683 C 0.35185 0.41844 0.43127 0.0
C684 C 0.33517 0.39794 0.56782 0.0
C685 C 0.3456 0.41052 0.72872 0.0
C686 C 0.34592 0.40915 0.66161 0.0
C687 C 0.34757 0.40492 0.46657 0.0
C688 C 0.34702 0.40621 0.53393 0.0
H689 H 0.35001 0.43853 0.84079 0.0
H690 H 0.34923 0.43653 0.73066 0.0
H691 H 0.32531 0.39292 0.65552 0.0
H692 H 0.34203 0.37766 0.35231 0.0
H693 H 0.34078 0.37952 0.46242 0.0
C694 C 0.42747 0.67161 0.18322 0.0
C695 C 0.41344 0.67278 0.14738 0.0
C696 C 0.42637 0.67201 0.24633 0.0
C697 C 0.39978 0.68436 0.37295 0.0
H698 H 0.42379 0.65199 0.463 0.0
C699 C 0.39002 0.67396 0.63021 0.0
C700 C 0.4037 0.66991 0.665 0.0
C701 C 0.39108 0.67481 0.56705 0.0
C702 C 0.41717 0.66129 0.43883 0.0
H703 H 0.38728 0.67576 0.14995 0.0
H704 H 0.38541 0.67654 0.25978 0.0
H705 H 0.4263 0.65311 0.35361 0.0
H706 H 0.42935 0.66406 0.66058 0.0
H707 H 0.43127 0.66588 0.55151 0.0
H708 H 0.39078 0.69268 0.45822 0.0
C709 C 0.39726 0.67532 0.23914 0.0
C710 C 0.41861 0.6619 0.37595 0.0
C711 C 0.39834 0.67478 0.17612 0.0
C712 C 0.41849 0.667 0.63527 0.0
C713 C 0.41958 0.66796 0.57243 0.0
C714 C 0.39844 0.68385 0.43602 0.0
C715 C 0.41123 0.67374 0.27506 0.0
C716 C 0.40993 0.67343 0.34219 0.0
C717 C 0.40588 0.67173 0.53724 0.0
C718 C 0.40712 0.6723 0.4699 0.0
H719 H 0.43929 0.67012 0.16257 0.0
H720 H 0.43738 0.67095 0.27271 0.0
H721 H 0.39304 0.69349 0.3483 0.0
H722 H 0.37846 0.67634 0.6517 0.0
H723 H 0.38022 0.67761 0.54158 0.0
C724 C 0.67497 0.62049 0.82994 0.0
C725 C 0.67253 0.60531 0.8574 0.0
C726 C 0.67574 0.62193 0.76706 0.0
C727 C 0.68114 0.59791 0.62578 0.0
H728 H 0.66091 0.63533 0.55101 0.0
C729 C 0.66655 0.60096 0.37104 0.0
C730 C 0.66977 0.61551 0.34012 0.0
C731 C 0.66795 0.60008 0.43383 0.0
C732 C 0.66679 0.62491 0.5712 0.0
H733 H 0.66918 0.57969 0.84004 0.0
H734 H 0.67013 0.58221 0.73033 0.0
H735 H 0.66122 0.63289 0.66069 0.0
H736 H 0.67712 0.64055 0.35126 0.0
H737 H 0.67935 0.63906 0.4615 0.0
H738 H 0.68632 0.58978 0.53594 0.0
C739 C 0.67175 0.59302 0.75738 0.0
C740 C 0.667 0.6235 0.63422 0.0
C741 C 0.67111 0.59156 0.8204 0.0
C742 C 0.67446 0.62919 0.37369 0.0
C743 C 0.6757 0.62834 0.43681 0.0
C744 C 0.6808 0.59927 0.56277 0.0
C745 C 0.67396 0.60825 0.72975 0.0
C746 C 0.67411 0.60993 0.66247 0.0
C747 C 0.67248 0.61376 0.46759 0.0
C748 C 0.67354 0.61274 0.53468 0.0
H749 H 0.67626 0.63134 0.85703 0.0
H750 H 0.67779 0.63382 0.74775 0.0
H751 H 0.68701 0.58745 0.64568 0.0
H752 H 0.66299 0.59015 0.34672 0.0
H753 H 0.6652 0.58872 0.4561 0.0
C754 C 0.60141 0.34912 0.63611 0.0
C755 C 0.61616 0.34683 0.66694 0.0
C756 C 0.60064 0.34781 0.57328 0.0
C757 C 0.62547 0.35093 0.43607 0.0
H758 H 0.58928 0.32875 0.36065 0.0
C759 C 0.62167 0.34314 0.17708 0.0
C760 C 0.60637 0.34482 0.14964 0.0
C761 C 0.62313 0.34231 0.23994 0.0
C762 C 0.59937 0.33517 0.38084 0.0
H763 H 0.64167 0.34121 0.65564 0.0
H764 H 0.64036 0.33912 0.54535 0.0
H765 H 0.59152 0.32924 0.47042 0.0
H766 H 0.58056 0.34674 0.16699 0.0
H767 H 0.58309 0.34564 0.27668 0.0
H768 H 0.63315 0.35722 0.34681 0.0
C769 C 0.6294 0.34198 0.57012 0.0
C770 C 0.60069 0.33539 0.44386 0.0
C771 C 0.63014 0.34313 0.63328 0.0
C772 C 0.59253 0.34541 0.18662 0.0
C773 C 0.59399 0.34469 0.24962 0.0
C774 C 0.6241 0.35082 0.37304 0.0
C775 C 0.61462 0.34429 0.53941 0.0
C776 C 0.61369 0.34336 0.47228 0.0
C777 C 0.60933 0.34324 0.27722 0.0
C778 C 0.61099 0.343 0.34448 0.0
H779 H 0.59037 0.3519 0.66052 0.0
H780 H 0.58911 0.34985 0.55109 0.0
H781 H 0.63552 0.35737 0.45651 0.0
H782 H 0.6326 0.3425 0.15 0.0
H783 H 0.63511 0.34087 0.25925 0.0
C784 C 0.8428 0.61986 0.92976 0.0
C785 C 0.8456 0.60489 0.90123 0.0
C786 C 0.84225 0.62096 0.99277 0.0
C787 C 0.85692 0.60052 0.12968 0.0
H788 H 0.82455 0.62651 0.21196 0.0
C789 C 0.85188 0.60036 0.38898 0.0
C790 C 0.84808 0.61492 0.41866 0.0
C791 C 0.85096 0.59922 0.32615 0.0
C792 C 0.83382 0.61938 0.18975 0.0
H793 H 0.84971 0.57927 0.91675 0.0
H794 H 0.84886 0.58122 0.02686 0.0
H795 H 0.82386 0.62419 0.10206 0.0
H796 H 0.84012 0.6397 0.40537 0.0
H797 H 0.83895 0.63788 0.29525 0.0
H798 H 0.86714 0.59595 0.21669 0.0
C799 C 0.84718 0.59213 1.00034 0.0
C800 C 0.83338 0.618 0.1267 0.0
C801 C 0.84758 0.591 0.93724 0.0
C802 C 0.84319 0.62832 0.38388 0.0
C803 C 0.8424 0.62722 0.32073 0.0
C804 C 0.85746 0.602 0.19255 0.0
C805 C 0.84462 0.60715 0.02886 0.0
C806 C 0.84489 0.6085 0.09595 0.0
C807 C 0.84636 0.61265 0.29095 0.0
C808 C 0.84587 0.61139 0.22361 0.0
H809 H 0.84118 0.63081 0.90344 0.0
H810 H 0.84039 0.63273 0.01326 0.0
H811 H 0.86615 0.59335 0.10733 0.0
H812 H 0.85547 0.58972 0.41431 0.0
H813 H 0.85373 0.58769 0.30526 0.0
C814 C 0.6005 0.17461 0.07868 0.0
C815 C 0.59252 0.16094 0.1024 0.0
C816 C 0.60411 0.1756 0.01687 0.0
C817 C 0.60856 0.14927 0.88116 0.0
H818 H 0.60638 0.18977 0.79264 0.0
C819 C 0.60795 0.1518 0.62162 0.0
C820 C 0.61758 0.16351 0.59256 0.0
C821 C 0.60606 0.15194 0.68429 0.0
C822 C 0.60723 0.17841 0.81696 0.0
H823 H 0.58148 0.13793 0.07922 0.0
H824 H 0.58729 0.13984 0.9719 0.0
H825 H 0.6002 0.18939 0.90065 0.0
H826 H 0.63284 0.18456 0.60685 0.0
H827 H 0.62932 0.18494 0.71687 0.0
H828 H 0.61519 0.13824 0.79725 0.0
C829 C 0.59126 0.1496 1.001 0.0
C830 C 0.60369 0.17817 0.87893 0.0
C831 C 0.58778 0.14856 0.06266 0.0
C832 C 0.62537 0.17535 0.62787 0.0
C833 C 0.62328 0.17563 0.69078 0.0
C834 C 0.61194 0.14949 0.81933 0.0
C835 C 0.59972 0.16299 0.97727 0.0
C836 C 0.60411 0.16354 0.91175 0.0
C837 C 0.61361 0.16389 0.71966 0.0
C838 C 0.61114 0.16401 0.78629 0.0
H839 H 0.60434 0.18437 0.10805 0.0
H840 H 0.61072 0.18605 1.00051 0.0
H841 H 0.60946 0.13784 0.90499 0.0
H842 H 0.60176 0.14251 0.5959 0.0
H843 H 0.59839 0.14284 0.705 0.0
C844 C 0.16726 0.41627 0.38582 0.0
C845 C 0.17031 0.40167 0.41662 0.0
C846 C 0.16865 0.41717 0.32302 0.0
C847 C 0.16724 0.39242 0.18541 0.0
H848 H 0.1879 0.42968 0.11124 0.0
C849 C 0.1757 0.39677 0.92677 0.0
C850 C 0.17345 0.41197 0.89925 0.0
C851 C 0.17638 0.39532 0.98966 0.0
C852 C 0.1819 0.41928 0.13105 0.0
H853 H 0.17735 0.37655 0.40527 0.0
H854 H 0.17957 0.37807 0.29503 0.0
H855 H 0.18712 0.42732 0.22096 0.0
H856 H 0.17039 0.43763 0.91653 0.0
H857 H 0.17121 0.43511 0.02627 0.0
H858 H 0.16165 0.38453 0.09583 0.0
C859 C 0.17606 0.38882 0.3198 0.0
C860 C 0.18152 0.4179 0.19406 0.0
C861 C 0.17483 0.38796 0.38293 0.0
C862 C 0.17216 0.42574 0.93622 0.0
C863 C 0.17273 0.42428 0.99926 0.0
C864 C 0.16751 0.39385 0.12239 0.0
C865 C 0.17302 0.40346 0.28914 0.0
C866 C 0.1741 0.40451 0.22204 0.0
C867 C 0.17473 0.40902 0.02694 0.0
C868 C 0.17478 0.40734 0.09423 0.0
H869 H 0.16384 0.42712 0.41023 0.0
H870 H 0.16604 0.42858 0.30085 0.0
H871 H 0.16124 0.38205 0.2055 0.0
H872 H 0.17688 0.3859 0.89972 0.0
H873 H 0.17827 0.38341 0.00901 0.0
C874 C 0.41744 0.84853 0.62679 0.0
C875 C 0.40273 0.84607 0.59586 0.0
C876 C 0.41819 0.84725 0.68964 0.0
C877 C 0.3933 0.85016 0.82675 0.0
H878 H 0.42976 0.82846 0.90255 0.0
C879 C 0.39726 0.84276 0.08603 0.0
C880 C 0.41255 0.84455 0.1134 0.0
C881 C 0.39579 0.84185 0.02318 0.0
C882 C 0.41959 0.83475 0.88227 0.0
H883 H 0.37729 0.84015 0.60708 0.0
H884 H 0.37857 0.8381 0.71743 0.0
H885 H 0.4275 0.82882 0.79278 0.0
H886 H 0.43834 0.8466 0.0959 0.0
H887 H 0.4358 0.84538 0.98624 0.0
H888 H 0.38556 0.85645 0.91589 0.0
C889 C 0.38951 0.84108 0.69269 0.0
C890 C 0.41827 0.83489 0.81923 0.0
C891 C 0.38878 0.84221 0.6295 0.0
C892 C 0.42638 0.84519 0.07634 0.0
C893 C 0.42491 0.84439 0.01334 0.0
C894 C 0.39468 0.85012 0.88979 0.0
C895 C 0.40425 0.84358 0.72348 0.0
C896 C 0.40516 0.84269 0.79066 0.0
C897 C 0.40957 0.84282 0.9858 0.0
C898 C 0.4079 0.84249 0.91852 0.0
H899 H 0.42846 0.85145 0.60244 0.0
H900 H 0.42969 0.84944 0.71187 0.0
H901 H 0.38318 0.85646 0.80619 0.0
H902 H 0.38634 0.84208 0.11316 0.0
H903 H 0.38381 0.84031 1.00396 0.0
C904 C 0.8476 0.92617 0.32264 0.0
C905 C 0.84598 0.91226 0.35883 0.0
C906 C 0.84724 0.92498 0.25954 0.0
C907 C 0.83422 0.89862 0.13334 0.0
H908 H 0.86739 0.92154 0.04335 0.0
C909 C 0.84441 0.8885 0.87608 0.0
C910 C 0.84894 0.90203 0.84132 0.0
C911 C 0.84357 0.88958 0.93925 0.0
C912 C 0.85787 0.91523 0.06748 0.0
H913 H 0.84223 0.88624 0.3569 0.0
H914 H 0.84151 0.8842 0.2471 0.0
H915 H 0.86627 0.92418 0.15266 0.0
H916 H 0.85561 0.92743 0.84576 0.0
H917 H 0.85378 0.92941 0.95476 0.0
H918 H 0.82569 0.8898 0.0481 0.0
C919 C 0.84306 0.89603 0.26745 0.0
C920 C 0.85726 0.91674 0.13033 0.0
C921 C 0.84357 0.8972 0.33045 0.0
C922 C 0.85231 0.91669 0.87105 0.0
C923 C 0.85134 0.91781 0.93387 0.0
C924 C 0.83474 0.89721 0.07029 0.0
C925 C 0.84509 0.90987 0.23118 0.0
C926 C 0.84544 0.90846 0.16409 0.0
C927 C 0.84711 0.90425 0.96906 0.0
C928 C 0.84657 0.90551 0.03642 0.0
H929 H 0.84942 0.93796 0.34299 0.0
H930 H 0.84865 0.9359 0.2329 0.0
H931 H 0.82487 0.89218 0.15798 0.0
H932 H 0.84168 0.87704 0.85456 0.0
H933 H 0.8404 0.87883 0.96472 0.0
C934 C 0.92844 0.16961 0.67838 0.0
C935 C 0.91441 0.17018 0.64234 0.0
C936 C 0.92726 0.17027 0.74143 0.0
C937 C 0.90026 0.1825 0.86687 0.0
H938 H 0.92504 0.15118 0.95916 0.0
C939 C 0.89076 0.17292 0.12485 0.0
C940 C 0.90455 0.16932 0.1597 0.0
C941 C 0.89179 0.17362 0.06165 0.0
C942 C 0.9182 0.1602 0.93435 0.0
H943 H 0.88817 0.17239 0.64439 0.0
H944 H 0.88617 0.17365 0.75412 0.0
H945 H 0.92757 0.15183 0.84976 0.0
H946 H 0.93036 0.16422 0.15544 0.0
H947 H 0.93222 0.16581 0.04637 0.0
H948 H 0.89101 0.19101 0.95155 0.0
C949 C 0.89807 0.17268 0.73369 0.0
C950 C 0.91965 0.16054 0.87147 0.0
C951 C 0.89923 0.17185 0.67075 0.0
C952 C 0.91942 0.16679 0.13007 0.0
C953 C 0.92048 0.16761 0.06723 0.0
C954 C 0.8989 0.18227 0.92995 0.0
C955 C 0.91205 0.17171 0.76984 0.0
C956 C 0.9107 0.17168 0.83692 0.0
C957 C 0.90666 0.17085 0.03195 0.0
C958 C 0.90788 0.17111 0.96461 0.0
H959 H 0.94032 0.16838 0.65797 0.0
H960 H 0.93828 0.16968 0.76801 0.0
H961 H 0.8933 0.19133 0.84156 0.0
H962 H 0.87913 0.17499 0.14631 0.0
H963 H 0.88085 0.17603 0.03608 0.0
C964 C 0.17568 0.12842 0.87391 0.0
C965 C 0.17095 0.1148 0.84016 0.0
C966 C 0.17694 0.12752 0.93701 0.0
C967 C 0.18211 0.09833 0.06249 0.0
H968 H 0.16282 0.13197 0.16109 0.0
C969 C 0.17316 0.09071 0.32066 0.0
C970 C 0.17466 0.1045 0.35746 0.0
C971 C 0.17363 0.09213 0.25759 0.0
C972 C 0.16852 0.12257 0.13443 0.0
H973 H 0.16409 0.08945 0.8464 0.0
H974 H 0.16633 0.0879 0.95579 0.0
H975 H 0.16227 0.13444 0.05144 0.0
H976 H 0.17838 0.13052 0.3567 0.0
H977 H 0.17962 0.13292 0.24737 0.0
H978 H 0.18848 0.08649 0.14518 0.0
C979 C 0.1691 0.09928 0.93367 0.0
C980 C 0.16817 0.124 0.07142 0.0
C981 C 0.16769 0.10023 0.87087 0.0
C982 C 0.17703 0.11965 0.32977 0.0
C983 C 0.17762 0.12105 0.26686 0.0
C984 C 0.18258 0.09696 0.12549 0.0
C985 C 0.17369 0.1129 0.9676 0.0
C986 C 0.17482 0.11182 0.03466 0.0
C987 C 0.17574 0.10735 0.22974 0.0
C988 C 0.17568 0.109 0.16244 0.0
H989 H 0.17838 0.1398 0.85165 0.0
H990 H 0.18063 0.1382 0.96183 0.0
H991 H 0.18754 0.08883 0.03546 0.0
H992 H 0.17128 0.07886 0.3405 0.0
H993 H 0.17194 0.08131 0.23071 0.0
C994 C 0.12034 0.84252 0.68151 0.0
C995 C 0.10528 0.84483 0.65287 0.0
C996 C 0.12146 0.84206 0.74454 0.0
C997 C 0.10053 0.85626 0.88108 0.0
H998 H 0.12759 0.82491 0.96414 0.0
C999 C 0.10058 0.85157 0.14055 0.0
C1000 C 0.11528 0.84826 0.17031 0.0
C1001 C 0.09946 0.85056 0.07774 0.0
C1002 C 0.12016 0.8339 0.94171 0.0
H1003 H 0.07951 0.84815 0.66824 0.0
H1004 H 0.08147 0.84747 0.77837 0.0
H1005 H 0.12528 0.82398 0.85426 0.0
H1006 H 0.14033 0.84112 0.15714 0.0
H1007 H 0.13853 0.83979 0.04705 0.0
H1008 H 0.09564 0.86645 0.96785 0.0
C1009 C 0.09244 0.8461 0.75192 0.0
C1010 C 0.11878 0.83332 0.87868 0.0
C1011 C 0.0913 0.8464 0.68881 0.0
C1012 C 0.12884 0.8438 0.13561 0.0
C1013 C 0.12775 0.84291 0.07246 0.0
C1014 C 0.10201 0.85694 0.94394 0.0
C1015 C 0.10755 0.84405 0.78055 0.0
C1016 C 0.1089 0.84446 0.84764 0.0
C1017 C 0.11304 0.84636 0.04262 0.0
C1018 C 0.11178 0.84573 0.97529 0.0
H1019 H 0.13136 0.84122 0.65526 0.0
H1020 H 0.13329 0.84059 0.7651 0.0
H1021 H 0.09306 0.86521 0.85852 0.0
H1022 H 0.08981 0.85483 0.16582 0.0
H1023 H 0.08782 0.85293 0.0568 0.0
C1024 C 0.38707 0.90089 0.37095 0.0
C1025 C 0.39999 0.89364 0.33926 0.0
C1026 C 0.38305 0.91721 0.36135 0.0
C1027 C 0.38675 0.94905 0.24523 0.0
H1028 H 0.37299 0.97831 0.37232 0.0
C1029 C 0.35746 0.00968 0.18651 0.0
C1030 C 0.36325 0.02358 0.21614 0.0
C1031 C 0.36123 0.99422 0.20771 0.0
C1032 C 0.37689 0.97029 0.33643 0.0
H1033 H 0.41914 0.8982 0.27409 0.0
H1034 H 0.41219 0.92651 0.25776 0.0
H1035 H 0.3818 0.95072 0.39783 0.0
H1036 H 0.377 0.03206 0.29336 0.0
H1037 H 0.38364 1.00483 0.33073 0.0
H1038 H 0.38202 0.96846 0.18386 0.0
C1039 C 0.40499 0.91953 0.28938 0.0
C1040 C 0.3818 0.95446 0.35095 0.0
C1041 C 0.40903 0.90327 0.299 0.0
C1042 C 0.37221 0.02162 0.26975 0.0
C1043 C 0.37606 1.00601 0.29103 0.0
C1044 C 0.38178 0.96475 0.23078 0.0
C1045 C 0.39181 0.92667 0.3197 0.0
C1046 C 0.38679 0.94363 0.30541 0.0
C1047 C 0.37102 0.99214 0.25904 0.0
C1048 C 0.37666 0.97557 0.27602 0.0
H1049 H 0.37985 0.89388 0.40239 0.0
H1050 H 0.37275 0.92227 0.38514 0.0
H1051 H 0.39032 0.94103 0.20887 0.0
H1052 H 0.35034 0.01074 0.14558 0.0
H1053 H 0.35678 0.98383 0.18285 0.0
C1054 C 0.90025 0.63347 0.64029 0.0
C1055 C 0.89403 0.61999 0.67163 0.0
C1056 C 0.91657 0.6379 0.64613 0.0
C1057 C 0.95694 0.62272 0.69498 0.0
H1058 H 0.96637 0.66823 0.7206 0.0
C1059 C 0.02247 0.6462 0.73752 0.0
C1060 C 0.0238 0.65632 0.78832 0.0
C1061 C 1.00715 0.64245 0.71345 0.0
C1062 C 0.96396 0.65548 0.71324 0.0
H1063 H 0.90031 0.60043 0.73289 0.0
H1064 H 0.92871 0.60823 0.74328 0.0
H1065 H 0.93864 0.65976 0.69883 0.0
H1066 H 0.01025 0.67099 0.85187 0.0
H1067 H 0.98376 0.66467 0.80977 0.0
H1068 H 0.98222 0.61842 0.7115 0.0
C1069 C 0.92098 0.61529 0.71373 0.0
C1070 C 0.94807 0.65063 0.70029 0.0
C1071 C 0.90464 0.61089 0.70811 0.0
C1072 C 0.00963 0.66315 0.81273 0.0
C1073 C 0.99443 0.6596 0.78835 0.0
C1074 C 0.97287 0.62759 0.70761 0.0
C1075 C 0.92713 0.62894 0.68322 0.0
C1076 C 0.94429 0.63416 0.6921 0.0
C1077 C 0.99294 0.64895 0.73922 0.0
C1078 C 0.97651 0.644 0.7181 0.0
H1079 H 0.89249 0.64075 0.61159 0.0
H1080 H 0.92094 0.64837 0.62146 0.0
H1081 H 0.9545 0.60996 0.68816 0.0
H1082 H 0.03315 0.64059 0.71816 0.0
H1083 H 1.0064 0.63427 0.67534 0.0
C1084 C 0.61114 0.11326 0.29545 0.0
C1085 C 0.62012 0.12288 0.33585 0.0
C1086 C 0.61518 0.097 0.28612 0.0
C1087 C 0.63818 0.06212 0.34891 0.0
H1088 H 0.63873 0.04814 0.18189 0.0
C1089 C 0.64856 0.99511 0.26816 0.0
C1090 C 0.65798 0.99328 0.21558 0.0
C1091 C 0.64443 0.01065 0.28914 0.0
C1092 C 0.63873 0.05185 0.22879 0.0
H1093 H 0.64014 0.12265 0.39951 0.0
H1094 H 0.64725 0.09427 0.38274 0.0
H1095 H 0.63016 0.07553 0.2063 0.0
H1096 H 0.67137 1.00631 0.14661 0.0
H1097 H 0.66437 0.03312 0.18331 0.0
H1098 H 0.64703 0.03832 0.37089 0.0
C1099 C 0.637 0.09933 0.35862 0.0
C1100 C 0.63362 0.06752 0.24287 0.0
C1101 C 0.63298 0.11565 0.36791 0.0
C1102 C 0.6639 1.00726 0.1867 0.0
C1103 C 0.65982 0.02266 0.20758 0.0
C1104 C 0.64323 0.04632 0.33476 0.0
C1105 C 0.6283 0.08987 0.31691 0.0
C1106 C 0.63334 0.07292 0.30301 0.0
C1107 C 0.64962 0.02458 0.25784 0.0
C1108 C 0.64374 0.04107 0.27439 0.0
H1109 H 0.60108 0.11833 0.27025 0.0
H1110 H 0.60805 0.09001 0.25438 0.0
H1111 H 0.63799 0.06586 0.39575 0.0
H1112 H 0.64367 0.98461 0.29116 0.0
H1113 H 0.63653 0.01173 0.32802 0.0
C1114 C 0.11634 0.38668 0.64281 0.0
C1115 C 0.12407 0.39908 0.67571 0.0
C1116 C 0.09993 0.38301 0.65288 0.0
C1117 C 0.06859 0.38664 0.7708 0.0
H1118 H 0.03766 0.37834 0.64249 0.0
C1119 C 1.00116 0.38304 0.82431 0.0
C1120 C 0.99206 0.3704 0.79875 0.0
C1121 C 0.01663 0.38671 0.80289 0.0
C1122 C 0.0462 0.38047 0.6788 0.0
H1123 H 0.12033 0.41759 0.74391 0.0
H1124 H 0.09193 0.41124 0.76114 0.0
H1125 H 0.06609 0.38417 0.61754 0.0
H1126 H 0.99181 0.35211 0.7287 0.0
H1127 H 0.01917 0.35842 0.69128 0.0
H1128 H 0.04899 0.38287 0.83215 0.0
C1129 C 0.09857 0.40419 0.72811 0.0
C1130 C 0.06247 0.38381 0.66452 0.0
C1131 C 0.11488 0.40789 0.71796 0.0
C1132 C 0.99849 0.36201 0.74896 0.0
C1133 C 0.01416 0.36561 0.72768 0.0
C1134 C 0.05245 0.38328 0.78499 0.0
C1135 C 0.09093 0.39158 0.69633 0.0
C1136 C 0.07379 0.38719 0.71043 0.0
C1137 C 0.0236 0.37769 0.75577 0.0
C1138 C 0.04095 0.38043 0.73928 0.0
H1139 H 0.12301 0.37965 0.6098 0.0
H1140 H 0.09443 0.37318 0.62784 0.0
H1141 H 0.07706 0.38877 0.80736 0.0
H1142 H 0.99645 0.38987 0.86224 0.0
H1143 H 0.02331 0.39642 0.82444 0.0
C1144 C 0.36175 0.49821 0.9922 0.0
C1145 C 0.36951 0.49175 0.04342 0.0
C1146 C 0.36555 0.51393 0.97194 0.0
C1147 C 0.38261 0.55221 0.0326 0.0
H1148 H 0.38494 0.56597 0.86548 0.0
C1149 C 0.40781 0.6147 0.96834 0.0
C1150 C 0.39936 0.62384 0.92487 0.0
C1151 C 0.40398 0.59842 0.97841 0.0
C1152 C 0.38418 0.56232 0.91237 0.0
H1153 H 0.38805 0.49616 0.11071 0.0
H1154 H 0.39499 0.52306 0.07464 0.0
H1155 H 0.37892 0.53757 0.88944 0.0
H1156 H 0.38044 0.62274 0.85685 0.0
H1157 H 0.37376 0.59422 0.87462 0.0
H1158 H 0.38793 0.57677 0.05582 0.0
C1159 C 0.3856 0.51639 0.05115 0.0
C1160 C 0.38073 0.54605 0.92609 0.0
C1161 C 0.38172 0.50088 0.07158 0.0
C1162 C 0.38718 0.61611 0.89082 0.0
C1163 C 0.3834 0.59973 0.90074 0.0
C1164 C 0.38612 0.56835 0.01895 0.0
C1165 C 0.3772 0.52339 1.00243 0.0
C1166 C 0.38014 0.54075 0.98648 0.0
C1167 C 0.39163 0.59075 0.94523 0.0
C1168 C 0.38717 0.5736 0.95874 0.0
H1169 H 0.35218 0.4915 0.96993 0.0
H1170 H 0.35883 0.51892 0.93427 0.0
H1171 H 0.38178 0.54873 0.07966 0.0
H1172 H 0.41732 0.62015 0.99528 0.0
H1173 H 0.41075 0.59181 0.01235 0.0
C1174 C 0.49746 0.6559 0.02112 0.0
C1175 C 0.49193 0.64861 0.96759 0.0
C1176 C 0.5126 0.6516 0.04557 0.0
C1177 C 0.54445 0.61977 0.04084 0.0
H1178 H 0.57447 0.65474 0.07499 0.0
C1179 C 0.61349 0.60962 0.04335 0.0
C1180 C 0.62311 0.61813 0.08511 0.0
C1181 C 0.59694 0.613 0.03742 0.0
C1182 C 0.5662 0.6448 0.06671 0.0
H1183 H 0.49755 0.63067 0.89931 0.0
H1184 H 0.52361 0.62305 0.94208 0.0
H1185 H 0.5461 0.6609 0.05273 0.0
H1186 H 0.62266 0.63687 0.15381 0.0
H1187 H 0.59373 0.64264 0.14384 0.0
H1188 H 0.56448 0.60366 0.05388 0.0
C1189 C 0.51639 0.63207 0.96532 0.0
C1190 C 0.54991 0.64835 0.054 0.0
C1191 C 0.50148 0.63651 0.94057 0.0
C1192 C 0.61567 0.63009 0.12102 0.0
C1193 C 0.59907 0.63346 0.11513 0.0
C1194 C 0.56067 0.61622 0.0538 0.0
C1195 C 0.5223 0.63974 0.01746 0.0
C1196 C 0.53894 0.63589 0.03948 0.0
C1197 C 0.58948 0.62496 0.0732 0.0
C1198 C 0.57187 0.6287 0.06543 0.0
H1199 H 0.49046 0.66539 0.04256 0.0
H1200 H 0.51681 0.65767 0.08595 0.0
H1201 H 0.53624 0.60988 0.03078 0.0
H1202 H 0.61876 0.60038 0.01469 0.0
H1203 H 0.59006 0.60641 1.00382 0.0
C1204 C 0.65639 0.51947 0.99116 0.0
C1205 C 0.64841 0.52596 0.04178 0.0
C1206 C 0.65254 0.50381 0.97061 0.0
C1207 C 0.63506 0.46571 0.03057 0.0
H1208 H 0.63313 0.45189 0.86353 0.0
C1209 C 0.61004 0.40325 0.96687 0.0
C1210 C 0.61869 0.39404 0.92421 0.0
C1211 C 0.61376 0.41956 0.97636 0.0
C1212 C 0.63377 0.45556 0.91039 0.0
H1213 H 0.62943 0.52174 0.1076 0.0
H1214 H 0.62243 0.49492 0.07103 0.0
H1215 H 0.63918 0.48029 0.88736 0.0
H1216 H 0.6378 0.39505 0.85685 0.0
H1217 H 0.64429 0.42363 0.87369 0.0
H1218 H 0.62963 0.44118 0.05392 0.0
C1219 C 0.63201 0.50152 0.04826 0.0
C1220 C 0.63725 0.47182 0.92403 0.0
C1221 C 0.63593 0.51697 0.06897 0.0
C1222 C 0.63091 0.40174 0.8902 0.0
C1223 C 0.63458 0.41815 0.89959 0.0
C1224 C 0.63156 0.44958 0.01701 0.0
C1225 C 0.64063 0.49446 1.00025 0.0
C1226 C 0.63768 0.47713 0.98438 0.0
C1227 C 0.6262 0.42718 0.94345 0.0
C1228 C 0.63064 0.44432 0.95682 0.0
H1229 H 0.66616 0.52608 0.96966 0.0
H1230 H 0.65943 0.49874 0.9335 0.0
H1231 H 0.63577 0.46921 0.07761 0.0
H1232 H 0.60048 0.39782 0.99368 0.0
H1233 H 0.60687 0.42623 0.00977 0.0
C1234 C 0.51728 0.3806 0.94294 0.0
C1235 C 0.52678 0.36853 0.9704 0.0
C1236 C 0.50232 0.38506 0.96723 0.0
C1237 C 0.46862 0.36886 0.05521 0.0
H1238 H 0.45412 0.41357 0.0543 0.0
C1239 C 0.4028 0.38721 0.12079 0.0
C1240 C 0.39543 0.39922 0.08484 0.0
C1241 C 0.41939 0.38381 0.11512 0.0
C1242 C 0.45791 0.40101 0.05442 0.0
H1243 H 0.52812 0.35179 0.04566 0.0
H1244 H 0.50168 0.35954 0.08827 0.0
H1245 H 0.48238 0.40731 0.03197 0.0
H1246 H 0.39989 0.41701 0.01454 0.0
H1247 H 0.42859 0.41091 1.00402 0.0
H1248 H 0.44402 0.3625 0.07562 0.0
C1249 C 0.50597 0.36559 0.0479 0.0
C1250 C 0.47415 0.39743 0.04191 0.0
C1251 C 0.52115 0.36127 0.02391 0.0
C1252 C 0.40511 0.40774 0.04324 0.0
C1253 C 0.42165 0.40432 0.0375 0.0
C1254 C 0.45232 0.37244 0.06745 0.0
C1255 C 0.49632 0.37743 0.01935 0.0
C1256 C 0.47964 0.3813 0.04087 0.0
C1257 C 0.42905 0.39231 0.07335 0.0
C1258 C 0.44667 0.38854 0.0659 0.0
H1259 H 0.52129 0.38641 0.90166 0.0
H1260 H 0.49515 0.39407 0.94366 0.0
H1261 H 0.47242 0.3563 0.05416 0.0
H1262 H 0.39576 0.38043 0.15346 0.0
H1263 H 0.42468 0.3746 0.14389 0.0
C1264 C 0.88133 0.51681 0.68903 0.0
C1265 C 0.86914 0.52619 0.71626 0.0
C1266 C 0.88494 0.50134 0.71034 0.0
C1267 C 0.87974 0.47231 0.8367 0.0
H1268 H 0.88645 0.44101 0.70854 0.0
C1269 C 0.8867 0.40233 0.8749 0.0
C1270 C 0.89894 0.39471 0.84082 0.0
C1271 C 0.88269 0.41864 0.86459 0.0
C1272 C 0.88475 0.44959 0.74495 0.0
H1273 H 0.8516 0.52692 0.78907 0.0
H1274 H 0.85783 0.49956 0.82637 0.0
H1275 H 0.88032 0.46897 0.68326 0.0
H1276 H 0.9168 0.39851 0.77006 0.0
H1277 H 0.90983 0.4267 0.75235 0.0
H1278 H 0.88412 0.45264 0.89833 0.0
C1279 C 0.8647 0.50434 0.78868 0.0
C1280 C 0.88126 0.46567 0.73048 0.0
C1281 C 0.86115 0.52002 0.76747 0.0
C1282 C 0.90724 0.40387 0.79703 0.0
C1283 C 0.90319 0.42006 0.78659 0.0
C1284 C 0.88319 0.45609 0.85127 0.0
C1285 C 0.87632 0.49464 0.7591 0.0
C1286 C 0.87902 0.47734 0.77602 0.0
C1287 C 0.89075 0.42761 0.81966 0.0
C1288 C 0.88603 0.44463 0.80543 0.0
H1289 H 0.88785 0.52131 0.64998 0.0
H1290 H 0.8943 0.49445 0.68756 0.0
H1291 H 0.87809 0.48097 0.87288 0.0
H1292 H 0.88008 0.39567 0.9091 0.0
H1293 H 0.87301 0.42409 0.89066 0.0
C1294 C 0.40717 0.1101 0.2052 0.0
C1295 C 0.39654 0.1191 0.16844 0.0
C1296 C 0.42349 0.11457 0.21083 0.0
C1297 C 0.45035 0.15008 0.19692 0.0
H1298 H 0.48473 0.11818 0.21036 0.0
C1299 C 0.51157 0.16347 0.31049 0.0
C1300 C 0.52585 0.15669 0.28674 0.0
C1301 C 0.49645 0.1597 0.2859 0.0
C1302 C 0.47532 0.12726 0.20585 0.0
H1303 H 0.39498 0.13972 0.10773 0.0
H1304 H 0.42339 0.14745 0.11756 0.0
H1305 H 0.45712 0.10943 0.18651 0.0
H1306 H 0.53546 0.14082 0.21751 0.0
H1307 H 0.50886 0.13413 0.17431 0.0
H1308 H 0.46846 0.16788 0.21709 0.0
C1309 C 0.41905 0.13702 0.14249 0.0
C1310 C 0.45945 0.12223 0.19292 0.0
C1311 C 0.40275 0.13252 0.13667 0.0
C1312 C 0.5247 0.14639 0.23636 0.0
C1313 C 0.50946 0.14243 0.21208 0.0
C1314 C 0.46616 0.15509 0.21016 0.0
C1315 C 0.42961 0.12819 0.18004 0.0
C1316 C 0.44672 0.13356 0.18922 0.0
C1317 C 0.49515 0.14888 0.23719 0.0
C1318 C 0.47879 0.14373 0.21582 0.0
H1319 H 0.40285 0.0997 0.23033 0.0
H1320 H 0.43122 0.10761 0.24071 0.0
H1321 H 0.44085 0.15914 0.19485 0.0
H1322 H 0.51205 0.17144 0.3493 0.0
H1323 H 0.4857 0.16474 0.30683 0.0
C1324 C 0.15718 0.49778 0.76551 0.0
C1325 C 0.14932 0.49126 0.71471 0.0
C1326 C 0.15322 0.51341 0.78611 0.0
C1327 C 0.13542 0.55145 0.72642 0.0
H1328 H 0.1335 0.56513 0.89363 0.0
C1329 C 0.10982 0.61363 0.7915 0.0
C1330 C 0.11841 0.62288 0.83419 0.0
C1331 C 0.11372 0.59737 0.78158 0.0
C1332 C 0.13414 0.5615 0.84672 0.0
H1333 H 0.1304 0.49542 0.64858 0.0
H1334 H 0.12318 0.52217 0.68527 0.0
H1335 H 0.13977 0.5368 0.86943 0.0
H1336 H 0.13763 0.62199 0.90109 0.0
H1337 H 0.14443 0.5935 0.88355 0.0
H1338 H 0.12974 0.57596 0.70343 0.0
C1339 C 0.13278 0.51562 0.70814 0.0
C1340 C 0.13774 0.54528 0.83286 0.0
C1341 C 0.13682 0.5002 0.68737 0.0
C1342 C 0.13079 0.61528 0.86772 0.0
C1343 C 0.13464 0.59892 0.85794 0.0
C1344 C 0.13178 0.56754 0.74021 0.0
C1345 C 0.14129 0.5227 0.75637 0.0
C1346 C 0.13818 0.54001 0.77245 0.0
C1347 C 0.12629 0.58984 0.81411 0.0
C1348 C 0.13087 0.57275 0.80046 0.0
H1349 H 0.16697 0.49121 0.78714 0.0
H1350 H 0.16003 0.51849 0.82339 0.0
H1351 H 0.13613 0.54799 0.67934 0.0
H1352 H 0.10016 0.61899 0.76501 0.0
H1353 H 0.10686 0.59067 0.74819 0.0
C1354 C 0.50168 0.88076 0.31748 0.0
C1355 C 0.49217 0.86863 0.29049 0.0
C1356 C 0.51657 0.88527 0.29268 0.0
C1357 C 0.55015 0.86915 0.20387 0.0
H1358 H 0.56451 0.9139 0.20397 0.0
C1359 C 0.61581 0.88758 0.13647 0.0
C1360 C 0.62324 0.89957 0.17223 0.0
C1361 C 0.59922 0.8842 0.14244 0.0
C1362 C 0.56076 0.90133 0.20406 0.0
H1363 H 0.49076 0.85184 0.21552 0.0
H1364 H 0.51708 0.85968 0.17203 0.0
H1365 H 0.53632 0.90756 0.22724 0.0
H1366 H 0.61887 0.9174 0.24236 0.0
H1367 H 0.59017 0.91135 0.25336 0.0
H1368 H 0.57473 0.86286 0.18274 0.0
C1369 C 0.51284 0.86574 0.21243 0.0
C1370 C 0.54456 0.8977 0.21711 0.0
C1371 C 0.49773 0.86136 0.23693 0.0
C1372 C 0.61361 0.90814 0.21381 0.0
C1373 C 0.59706 0.90474 0.21983 0.0
C1374 C 0.56642 0.87278 0.19108 0.0
C1375 C 0.5225 0.87763 0.24051 0.0
C1376 C 0.53913 0.88155 0.21846 0.0
C1377 C 0.58962 0.89271 0.18431 0.0
C1378 C 0.57202 0.8889 0.19231 0.0
H1379 H 0.49773 0.88658 0.35878 0.0
H1380 H 0.52374 0.89432 0.31591 0.0
H1381 H 0.5464 0.85658 0.20514 0.0
H1382 H 0.62281 0.88076 0.10382 0.0
H1383 H 0.59389 0.87498 0.11388 0.0
C1384 C 0.88159 1.00049 0.57042 0.0
C1385 C 0.86939 0.99121 0.54288 0.0
C1386 C 0.88543 0.0159 0.54898 0.0
C1387 C 0.88076 0.04487 0.42205 0.0
H1388 H 0.88754 0.07622 0.55001 0.0
C1389 C 0.88804 0.11478 0.38341 0.0
C1390 C 0.90026 0.1224 0.4176 0.0
C1391 C 0.884 0.09849 0.39376 0.0
C1392 C 0.88583 0.06761 0.51366 0.0
H1393 H 0.85204 0.99058 0.46944 0.0
H1394 H 0.85865 0.01783 0.43195 0.0
H1395 H 0.88116 0.04833 0.57547 0.0
H1396 H 0.91806 0.11859 0.48855 0.0
H1397 H 0.91103 0.09041 0.50633 0.0
H1398 H 0.88536 0.06446 0.3603 0.0
C1399 C 0.86537 0.01302 0.46995 0.0
C1400 C 0.88219 0.05157 0.52823 0.0
C1401 C 0.8616 0.9974 0.49127 0.0
C1402 C 0.90852 0.11323 0.46149 0.0
C1403 C 0.90443 0.09705 0.47197 0.0
C1404 C 0.88436 0.06105 0.40738 0.0
C1405 C 0.87701 0.02263 0.49981 0.0
C1406 C 0.87992 0.03989 0.48277 0.0
C1407 C 0.892 0.08951 0.43882 0.0
C1408 C 0.88721 0.07253 0.45315 0.0
H1409 H 0.88795 0.99596 0.6098 0.0
H1410 H 0.8948 0.02271 0.572 0.0
H1411 H 0.87909 0.0362 0.38593 0.0
H1412 H 0.88145 0.12144 0.34914 0.0
H1413 H 0.87432 0.09305 0.36763 0.0
C1414 C 0.11747 0.12986 0.61379 0.0
C1415 C 0.12523 0.11754 0.58058 0.0
C1416 C 0.10106 0.13352 0.60377 0.0
C1417 C 0.06972 0.13009 0.48579 0.0
H1418 H 0.03884 0.13821 0.61444 0.0
C1419 C 1.00227 0.13416 0.43255 0.0
C1420 C 0.99323 0.14674 0.45875 0.0
C1421 C 0.01774 0.13035 0.45373 0.0
C1422 C 0.04736 0.13613 0.57803 0.0
H1423 H 0.12156 0.09916 0.51183 0.0
H1424 H 0.09314 0.10551 0.49465 0.0
H1425 H 0.06725 0.13226 0.63912 0.0
H1426 H 0.99305 0.1648 0.52965 0.0
H1427 H 0.0204 0.15826 0.56664 0.0
H1428 H 0.05012 0.13405 0.42461 0.0
C1429 C 0.09976 0.11249 0.52791 0.0
C1430 C 0.06363 0.13272 0.59216 0.0
C1431 C 0.11608 0.10879 0.53804 0.0
C1432 C 0.9997 0.15495 0.5089 0.0
C1433 C 0.01537 0.15122 0.52993 0.0
C1434 C 0.05358 0.13353 0.47175 0.0
C1435 C 0.09208 0.12502 0.56006 0.0
C1436 C 0.07493 0.12941 0.54611 0.0
C1437 C 0.02475 0.13919 0.50125 0.0
C1438 C 0.0421 0.13632 0.51758 0.0
H1439 H 0.12411 0.13682 0.64703 0.0
H1440 H 0.09553 0.14329 0.62908 0.0
H1441 H 0.07818 0.12802 0.44914 0.0
H1442 H 0.99753 0.12748 0.39431 0.0
H1443 H 0.02438 0.1207 0.43171 0.0
C1444 C 0.13843 0.0166 0.57342 0.0
C1445 C 0.15075 0.02551 0.54491 0.0
C1446 C 0.13423 1.00118 0.55313 0.0
C1447 C 0.13843 0.97146 0.42816 0.0
H1448 H 0.13107 0.94084 0.55832 0.0
C1449 C 0.13132 0.90148 0.39403 0.0
C1450 C 0.11914 0.89386 0.42845 0.0
C1451 C 0.1352 0.91784 0.40352 0.0
C1452 C 0.13292 0.94924 0.52135 0.0
H1453 H 0.16795 0.02549 0.47097 0.0
H1454 H 0.16076 0.9982 0.43559 0.0
H1455 H 0.13761 0.9688 0.58179 0.0
H1456 H 0.10125 0.89772 0.49898 0.0
H1457 H 0.108 0.92605 0.51533 0.0
H1458 H 0.13386 0.95159 0.36782 0.0
C1459 C 0.1542 1.00331 0.4734 0.0
C1460 C 0.13665 0.96533 0.53478 0.0
C1461 C 0.1583 0.01895 0.49351 0.0
C1462 C 0.11076 0.90309 0.47179 0.0
C1463 C 0.11469 0.91935 0.48143 0.0
C1464 C 0.13474 0.95524 0.41466 0.0
C1465 C 0.14243 0.99405 0.50423 0.0
C1466 C 0.13919 0.97675 0.4885 0.0
C1467 C 0.12707 0.9269 0.44795 0.0
C1468 C 0.13171 0.944 0.4612 0.0
H1469 H 0.13226 0.02142 0.61271 0.0
H1470 H 0.12477 0.99466 0.57688 0.0
H1471 H 0.14028 0.97991 0.3914 0.0
H1472 H 0.13801 0.89477 0.36015 0.0
H1473 H 0.14486 0.92326 0.37719 0.0
C1474 C 0.02099 0.86136 0.52494 0.0
C1475 C 0.0266 0.86863 0.47143 0.0
C1476 C 1.00579 0.86562 0.54892 0.0
C1477 C 0.97385 0.89735 0.54296 0.0
H1478 H 0.94387 0.86236 0.57745 0.0
C1479 C 0.90478 0.90747 0.54524 0.0
C1480 C 0.89516 0.89895 0.58705 0.0
C1481 C 0.92133 0.90408 0.53931 0.0
C1482 C 0.95213 0.87231 0.56905 0.0
H1483 H 0.02103 0.88649 0.40267 0.0
H1484 H 0.99485 0.89404 0.44463 0.0
H1485 H 0.97227 0.85623 0.55561 0.0
H1486 H 0.89561 0.88021 0.65582 0.0
H1487 H 0.92454 0.87444 0.64588 0.0
H1488 H 0.95378 0.91344 0.55552 0.0
C1489 C 1.00206 0.88506 0.46822 0.0
C1490 C 0.96843 0.86878 0.55659 0.0
C1491 C 0.01704 0.88066 0.44393 0.0
C1492 C 0.9026 0.88699 0.623 0.0
C1493 C 0.9192 0.88362 0.61711 0.0
C1494 C 0.95761 0.90089 0.55569 0.0
C1495 C 0.99608 0.87742 0.52036 0.0
C1496 C 0.97939 0.88124 0.54198 0.0
C1497 C 0.9288 0.89212 0.57514 0.0
C1498 C 0.94642 0.8884 0.56746 0.0
H1499 H 0.028 0.85192 0.54674 0.0
H1500 H 1.00152 0.85956 0.58931 0.0
H1501 H 0.98205 0.90725 0.53283 0.0
H1502 H 0.89952 0.91671 0.51654 0.0
H1503 H 0.92822 0.91068 0.50568 0.0
C1504 C 0.3437 0.19651 0.10651 0.0
C1505 C 0.34197 0.18953 0.16406 0.0
C1506 C 0.34624 0.21325 0.10038 0.0
C1507 C 0.3394 0.25135 0.18565 0.0
H1508 H 0.36445 0.27084 0.05655 0.0
C1509 C 0.34447 0.3209 0.16082 0.0
C1510 C 0.34153 0.3268 0.10225 0.0
C1511 C 0.34722 0.30432 0.17052 0.0
C1512 C 0.35738 0.26557 0.09282 0.0
H1513 H 0.34258 0.19443 0.26015 0.0
H1514 H 0.34747 0.22333 0.24964 0.0
H1515 H 0.36435 0.24139 0.06863 0.0
H1516 H 0.33992 0.32 0.00784 0.0
H1517 H 0.34466 0.29129 0.02476 0.0
H1518 H 0.33225 0.27544 0.20938 0.0
C1519 C 0.34635 0.21609 0.20909 0.0
C1520 C 0.35728 0.24868 0.09961 0.0
C1521 C 0.34364 0.19947 0.21515 0.0
C1522 C 0.34206 0.31587 0.0536 0.0
C1523 C 0.34492 0.29939 0.0632 0.0
C1524 C 0.33957 0.26819 0.17903 0.0
C1525 C 0.34722 0.22331 0.15168 0.0
C1526 C 0.34815 0.24133 0.14579 0.0
C1527 C 0.34721 0.29333 0.12186 0.0
C1528 C 0.34839 0.27552 0.13212 0.0
H1529 H 0.34228 0.18921 0.06625 0.0
H1530 H 0.34671 0.21838 0.05541 0.0
H1531 H 0.33195 0.24617 0.22101 0.0
H1532 H 0.34397 0.32891 0.19944 0.0
H1533 H 0.34907 0.30005 0.21625 0.0
C1534 C 0.32111 0.66881 0.87783 0.0
C1535 C 0.32772 0.68438 0.88569 0.0
C1536 C 0.30432 0.66684 0.86969 0.0
C1537 C 0.26763 0.68846 0.8212 0.0
H1538 H 0.24386 0.66155 0.93448 0.0
C1539 C 0.20001 0.69836 0.85623 0.0
C1540 C 0.18971 0.68489 0.86143 0.0
C1541 C 0.2168 0.69653 0.85901 0.0
C1542 C 0.25032 0.66892 0.90189 0.0
H1543 H 0.32219 0.71001 0.88939 0.0
H1544 H 0.29314 0.70663 0.87326 0.0
H1545 H 0.27363 0.66103 0.93406 0.0
H1546 H 0.18891 0.65893 0.87573 0.0
H1547 H 0.21851 0.65563 0.88007 0.0
H1548 H 0.24458 0.69645 0.7889 0.0
C1549 C 0.30079 0.69596 0.87382 0.0
C1550 C 0.26735 0.66859 0.90161 0.0
C1551 C 0.31741 0.69789 0.88315 0.0
C1552 C 0.19657 0.66955 0.87223 0.0
C1553 C 0.21351 0.66768 0.87445 0.0
C1554 C 0.25071 0.68868 0.82108 0.0
C1555 C 0.29402 0.68042 0.86796 0.0
C1556 C 0.27614 0.67872 0.86236 0.0
C1557 C 0.22382 0.68112 0.86612 0.0
C1558 C 0.24181 0.67932 0.86267 0.0
H1559 H 0.32879 0.65818 0.8805 0.0
H1560 H 0.29939 0.65474 0.86519 0.0
H1561 H 0.27411 0.6962 0.78985 0.0
H1562 H 0.19507 0.71036 0.84853 0.0
H1563 H 0.22431 0.70723 0.85443 0.0
C1564 C 0.67494 0.69969 0.04215 0.0
C1565 C 0.6767 0.68969 0.09311 0.0
C1566 C 0.67212 0.71628 0.04844 0.0
C1567 C 0.66103 0.74864 0.15819 0.0
H1568 H 0.68621 0.77561 0.04946 0.0
C1569 C 0.67609 0.81574 0.20558 0.0
C1570 C 0.67674 0.82674 0.15705 0.0
C1571 C 0.67325 0.79928 0.19569 0.0
C1572 C 0.67885 0.7683 0.07951 0.0
H1573 H 0.67644 0.68923 0.19093 0.0
H1574 H 0.67181 0.71835 0.20216 0.0
H1575 H 0.68656 0.74636 0.03732 0.0
H1576 H 0.67452 0.82897 0.05979 0.0
H1577 H 0.66942 0.80016 0.04252 0.0
H1578 H 0.65376 0.77071 0.20146 0.0
C1579 C 0.6723 0.71329 0.15712 0.0
C1580 C 0.67905 0.75148 0.07259 0.0
C1581 C 0.67495 0.69658 0.15077 0.0
C1582 C 0.67393 0.82091 0.09833 0.0
C1583 C 0.67118 0.80436 0.08837 0.0
C1584 C 0.66089 0.76551 0.16526 0.0
C1585 C 0.67123 0.7234 0.10595 0.0
C1586 C 0.67025 0.74139 0.11209 0.0
C1587 C 0.67108 0.79332 0.13689 0.0
C1588 C 0.66994 0.77553 0.12634 0.0
H1589 H 0.67602 0.69472 0.99707 0.0
H1590 H 0.67095 0.72357 0.00801 0.0
H1591 H 0.65393 0.74129 0.18891 0.0
H1592 H 0.67813 0.81982 0.25144 0.0
H1593 H 0.67343 0.79113 0.23404 0.0
C1594 C 0.69773 0.34198 0.85635 0.0
C1595 C 0.69069 0.34083 0.91399 0.0
C1596 C 0.7145 0.34446 0.85016 0.0
C1597 C 0.75246 0.33829 0.93706 0.0
H1598 H 0.77234 0.3621 0.80557 0.0
C1599 C 0.82211 0.34318 0.91488 0.0
C1600 C 0.82828 0.33988 0.85697 0.0
C1601 C 0.80547 0.34591 0.92332 0.0
C1602 C 0.76695 0.35538 0.8425 0.0
H1603 H 0.69547 0.34245 0.01001 0.0
H1604 H 0.72442 0.34725 0.99931 0.0
H1605 H 0.74282 0.3622 0.81667 0.0
H1606 H 0.82185 0.33754 0.76238 0.0
H1607 H 0.793 0.34219 0.77719 0.0
H1608 H 0.77649 0.33128 0.96246 0.0
C1609 C 0.71721 0.34571 0.95883 0.0
C1610 C 0.75003 0.35539 0.84875 0.0
C1611 C 0.70058 0.34307 0.96498 0.0
C1612 C 0.81752 0.33996 0.80766 0.0
C1613 C 0.80096 0.34278 0.81604 0.0
C1614 C 0.76933 0.33833 0.93096 0.0
C1615 C 0.72451 0.34596 0.90148 0.0
C1616 C 0.74255 0.34673 0.89586 0.0
C1617 C 0.79467 0.34549 0.87407 0.0
C1618 C 0.7768 0.34672 0.88327 0.0
H1619 H 0.69046 0.34013 0.81621 0.0
H1620 H 0.7197 0.34446 0.80526 0.0
H1621 H 0.74717 0.33119 0.97317 0.0
H1622 H 0.82997 0.34303 0.95402 0.0
H1623 H 0.80102 0.34809 0.9686 0.0
C1624 C 0.84387 0.81742 0.54513 0.0
C1625 C 0.84163 0.82732 0.59604 0.0
C1626 C 0.84659 0.80082 0.55145 0.0
C1627 C 0.85627 0.76814 0.66217 0.0
H1628 H 0.83211 0.74162 0.54899 0.0
C1629 C 0.83975 0.70114 0.70561 0.0
C1630 C 0.83968 0.69024 0.6568 0.0
C1631 C 0.84293 0.71758 0.69662 0.0
C1632 C 0.83918 0.7488 0.58033 0.0
H1633 H 0.84098 0.82761 0.69381 0.0
H1634 H 0.84541 0.79845 0.70508 0.0
H1635 H 0.83217 0.77088 0.53739 0.0
H1636 H 0.84327 0.68815 0.56007 0.0
H1637 H 0.84891 0.71693 0.54439 0.0
H1638 H 0.86278 0.74592 0.70621 0.0
C1639 C 0.84538 0.8036 0.66011 0.0
C1640 C 0.83923 0.76564 0.57371 0.0
C1641 C 0.84284 0.82033 0.65374 0.0
C1642 C 0.84339 0.69614 0.59882 0.0
C1643 C 0.84646 0.71267 0.58974 0.0
C1644 C 0.85614 0.75126 0.66897 0.0
C1645 C 0.84689 0.79358 0.6089 0.0
C1646 C 0.84766 0.77557 0.61478 0.0
C1647 C 0.846 0.72362 0.63844 0.0
C1648 C 0.84746 0.74141 0.62842 0.0
H1649 H 0.8432 0.8225 0.50006 0.0
H1650 H 0.84813 0.79361 0.51104 0.0
H1651 H 0.86308 0.77537 0.69414 0.0
H1652 H 0.83701 0.697 0.75092 0.0
H1653 H 0.8423 0.72567 0.73502 0.0
C1654 C 0.69908 0.17402 0.40799 0.0
C1655 C 0.69193 0.17583 0.35081 0.0
C1656 C 0.71583 0.17126 0.4132 0.0
C1657 C 0.75353 0.17796 0.32527 0.0
H1658 H 0.77378 0.15339 0.45402 0.0
C1659 C 0.82322 0.17329 0.34492 0.0
C1660 C 0.82946 0.17645 0.40283 0.0
C1661 C 0.8066 0.17042 0.33676 0.0
C1662 C 0.76829 0.16031 0.41782 0.0
H1663 H 0.69639 0.17501 0.25448 0.0
H1664 H 0.72529 0.16963 0.26336 0.0
H1665 H 0.74424 0.15328 0.44387 0.0
H1666 H 0.82319 0.17834 0.49771 0.0
H1667 H 0.79436 0.17342 0.48341 0.0
H1668 H 0.77749 0.18518 0.29968 0.0
C1669 C 0.71823 0.1709 0.30431 0.0
C1670 C 0.75135 0.16029 0.41213 0.0
C1671 C 0.70162 0.17387 0.29917 0.0
C1672 C 0.81879 0.17604 0.45242 0.0
C1673 C 0.80226 0.17306 0.44434 0.0
C1674 C 0.77042 0.17791 0.33077 0.0
C1675 C 0.72569 0.17011 0.36131 0.0
C1676 C 0.74374 0.16925 0.36606 0.0
C1677 C 0.79589 0.17053 0.38632 0.0
C1678 C 0.77801 0.16925 0.37749 0.0
H1679 H 0.69194 0.17564 0.44858 0.0
H1680 H 0.72115 0.17082 0.45787 0.0
H1681 H 0.74815 0.1853 0.29001 0.0
H1682 H 0.83101 0.17369 0.30558 0.0
H1683 H 0.80208 0.16838 0.29149 0.0
C1684 C 0.17579 0.32028 0.60573 0.0
C1685 C 0.17736 0.32725 0.66331 0.0
C1686 C 0.1732 0.30355 0.59959 0.0
C1687 C 0.17981 0.26549 0.68533 0.0
H1688 H 0.15516 0.24596 0.55543 0.0
C1689 C 0.17514 0.19596 0.66059 0.0
C1690 C 0.17827 0.19009 0.60215 0.0
C1691 C 0.17225 0.21252 0.67011 0.0
C1692 C 0.16211 0.25124 0.59193 0.0
H1693 H 0.17642 0.32236 0.7594 0.0
H1694 H 0.17145 0.29347 0.74885 0.0
H1695 H 0.15514 0.2754 0.56738 0.0
H1696 H 0.18007 0.19692 0.50776 0.0
H1697 H 0.1751 0.22559 0.52439 0.0
H1698 H 0.18697 0.24142 0.70939 0.0
C1699 C 0.17272 0.30071 0.70831 0.0
C1700 C 0.16214 0.26812 0.59865 0.0
C1701 C 0.17547 0.31731 0.71439 0.0
C1702 C 0.17779 0.20103 0.55342 0.0
C1703 C 0.17479 0.21749 0.56286 0.0
C1704 C 0.17971 0.24865 0.67877 0.0
C1705 C 0.17203 0.29349 0.65092 0.0
C1706 C 0.17114 0.27549 0.64511 0.0
C1707 C 0.17231 0.22351 0.62141 0.0
C1708 C 0.17103 0.24131 0.63158 0.0
H1709 H 0.17737 0.32758 0.5655 0.0
H1710 H 0.17287 0.29842 0.55464 0.0
H1711 H 0.18716 0.27068 0.72092 0.0
H1712 H 0.1756 0.18795 0.69927 0.0
H1713 H 0.17026 0.21676 0.71577 0.0
C1714 C 0.31849 0.84257 0.29652 0.0
C1715 C 0.32838 0.8404 0.34757 0.0
C1716 C 0.30187 0.84536 0.30262 0.0
C1717 C 0.26922 0.85565 0.41261 0.0
H1718 H 0.24241 0.83149 0.30036 0.0
C1719 C 0.20193 0.84026 0.45663 0.0
C1720 C 0.191 0.84005 0.40783 0.0
C1721 C 0.21843 0.84319 0.44744 0.0
C1722 C 0.24967 0.83857 0.33142 0.0
H1723 H 0.32861 0.83992 0.44538 0.0
H1724 H 0.29943 0.8445 0.45624 0.0
H1725 H 0.27172 0.83116 0.28899 0.0
H1726 H 0.18893 0.84314 0.31086 0.0
H1727 H 0.21783 0.84837 0.29479 0.0
H1728 H 0.24704 0.86259 0.45607 0.0
C1729 C 0.30461 0.84435 0.41132 0.0
C1730 C 0.26654 0.83839 0.32495 0.0
C1731 C 0.32135 0.84172 0.40517 0.0
C1732 C 0.19694 0.84338 0.34959 0.0
C1733 C 0.21353 0.84621 0.34031 0.0
C1734 C 0.25231 0.85577 0.41923 0.0
C1735 C 0.2946 0.84582 0.35999 0.0
C1736 C 0.27657 0.84681 0.36571 0.0
C1737 C 0.22451 0.84587 0.38906 0.0
C1738 C 0.24234 0.84709 0.37904 0.0
H1739 H 0.32358 0.84182 0.2515 0.0
H1740 H 0.29466 0.84686 0.26211 0.0
H1741 H 0.27653 0.86246 0.4443 0.0
H1742 H 0.19777 0.83781 0.50214 0.0
H1743 H 0.22652 0.84266 0.48592 0.0
C1744 C 0.3045 0.06482 0.21183 0.0
C1745 C 0.31367 0.07873 0.22479 0.0
C1746 C 0.29319 0.05895 0.25352 0.0
C1747 C 0.26079 0.06312 0.31755 0.0
H1748 H 0.26365 0.06445 0.49207 0.0
C1749 C 0.2108 0.08639 0.47576 0.0
C1750 C 0.20954 0.07979 0.53388 0.0
C1751 C 0.22209 0.0802 0.43466 0.0
C1752 C 0.26263 0.06369 0.4434 0.0
H1753 H 0.31861 0.09703 0.29194 0.0
H1754 H 0.29959 0.08639 0.36603 0.0
H1755 H 0.28847 0.06412 0.43189 0.0
H1756 H 0.21833 0.06103 0.59381 0.0
H1757 H 0.23804 0.05011 0.522 0.0
H1758 H 0.23495 0.06364 0.329 0.0
C1759 C 0.30124 0.07982 0.32415 0.0
C1760 C 0.27687 0.06362 0.409 0.0
C1761 C 0.31243 0.08577 0.28215 0.0
C1762 C 0.21885 0.0661 0.5487 0.0
C1763 C 0.23025 0.05999 0.5079 0.0
C1764 C 0.24656 0.06336 0.35195 0.0
C1765 C 0.29086 0.06692 0.30889 0.0
C1766 C 0.2761 0.06379 0.34568 0.0
C1767 C 0.23255 0.06749 0.45159 0.0
C1768 C 0.24732 0.06409 0.41521 0.0
H1769 H 0.30501 0.05939 0.16735 0.0
H1770 H 0.28546 0.0489 0.24073 0.0
H1771 H 0.25977 0.06345 0.26881 0.0
H1772 H 0.20449 0.09748 0.4645 0.0
H1773 H 0.22372 0.08642 0.392 0.0
C1774 C 0.08624 0.70767 0.73147 0.0
C1775 C 0.07921 0.70652 0.78893 0.0
C1776 C 0.08041 0.71893 0.68953 0.0
C1777 C 0.06422 0.74323 0.60444 0.0
H1778 H 0.06473 0.78529 0.68277 0.0
C1779 C 0.06657 0.80084 0.46246 0.0
C1780 C 0.08035 0.81012 0.47634 0.0
C1781 C 0.06054 0.78956 0.5039 0.0
C1782 C 0.06431 0.77365 0.66031 0.0
H1783 H 0.06009 0.71553 0.84682 0.0
H1784 H 0.04982 0.73522 0.77354 0.0
H1785 H 0.06455 0.76066 0.74395 0.0
H1786 H 0.09834 0.81517 0.54464 0.0
H1787 H 0.08741 0.79619 0.61829 0.0
H1788 H 0.06487 0.75621 0.52082 0.0
C1789 C 0.05975 0.72734 0.7606 0.0
C1790 C 0.06408 0.75952 0.69527 0.0
C1791 C 0.0655 0.71596 0.80223 0.0
C1792 C 0.08716 0.80892 0.53415 0.0
C1793 C 0.08105 0.79776 0.5759 0.0
C1794 C 0.06427 0.75736 0.56948 0.0
C1795 C 0.06765 0.72948 0.70495 0.0
C1796 C 0.06457 0.74416 0.66772 0.0
C1797 C 0.06822 0.78735 0.55994 0.0
C1798 C 0.06485 0.77271 0.59704 0.0
H1799 H 0.09738 0.70129 0.72145 0.0
H1800 H 0.08694 0.72044 0.64745 0.0
H1801 H 0.06456 0.73158 0.58199 0.0
H1802 H 0.06134 0.8013 0.4176 0.0
H1803 H 0.05056 0.7818 0.49054 0.0
C1804 C 0.81008 0.9307 0.47764 0.0
C1805 C 0.8113 0.93753 0.53535 0.0
C1806 C 0.79885 0.93676 0.436 0.0
C1807 C 0.77448 0.95323 0.35196 0.0
H1808 H 0.73252 0.95287 0.43163 0.0
C1809 C 0.71664 0.95083 0.21154 0.0
C1810 C 0.70742 0.93705 0.22583 0.0
C1811 C 0.72794 0.95696 0.25272 0.0
C1812 C 0.74414 0.95325 0.40879 0.0
H1813 H 0.80253 0.95657 0.59394 0.0
H1814 H 0.78293 0.96727 0.52118 0.0
H1815 H 0.7573 0.95288 0.49201 0.0
H1816 H 0.70238 0.91921 0.2947 0.0
H1817 H 0.72142 0.93027 0.36782 0.0
H1818 H 0.76132 0.95267 0.26875 0.0
C1819 C 0.79069 0.95731 0.50782 0.0
C1820 C 0.75835 0.95339 0.4433 0.0
C1821 C 0.80203 0.95132 0.54916 0.0
C1822 C 0.70862 0.93036 0.28383 0.0
C1823 C 0.71981 0.93656 0.32531 0.0
C1824 C 0.76027 0.95327 0.31745 0.0
C1825 C 0.78842 0.94957 0.45198 0.0
C1826 C 0.77368 0.95283 0.41526 0.0
C1827 C 0.73021 0.94935 0.30888 0.0
C1828 C 0.74494 0.95273 0.3455 0.0
H1829 H 0.81633 0.91953 0.46719 0.0
H1830 H 0.79724 0.93036 0.39375 0.0
H1831 H 0.7861 0.95284 0.32913 0.0
H1832 H 0.71615 0.95598 0.16655 0.0
H1833 H 0.73568 0.96691 0.23902 0.0
C1834 C 0.92918 0.3111 0.73491 0.0
C1835 C 0.93749 0.3112 0.79006 0.0
C1836 C 0.93322 0.2999 0.69023 0.0
C1837 C 0.96073 0.26603 0.64637 0.0
H1838 H 0.91993 0.2462 0.6001 0.0
C1839 C 0.95144 0.21678 0.46123 0.0
C1840 C 0.93831 0.20611 0.46902 0.0
C1841 C 0.95518 0.22823 0.50573 0.0
C1842 C 0.93147 0.25141 0.61321 0.0
H1843 H 0.95705 0.30028 0.84092 0.0
H1844 H 0.96396 0.28039 0.76328 0.0
H1845 H 0.91974 0.27087 0.65878 0.0
H1846 H 0.91917 0.19882 0.52973 0.0
H1847 H 0.92643 0.21767 0.6093 0.0
H1848 H 0.97236 0.24619 0.60061 0.0
C1849 C 0.95465 0.28928 0.75363 0.0
C1850 C 0.93136 0.2658 0.64584 0.0
C1851 C 0.95073 0.30069 0.79805 0.0
C1852 C 0.92996 0.2061 0.52407 0.0
C1853 C 0.93381 0.21734 0.56883 0.0
C1854 C 0.96084 0.25155 0.61309 0.0
C1855 C 0.94528 0.28817 0.70077 0.0
C1856 C 0.94595 0.27336 0.66269 0.0
C1857 C 0.94574 0.22921 0.55847 0.0
C1858 C 0.94617 0.24404 0.59656 0.0
H1859 H 0.91831 0.31826 0.72909 0.0
H1860 H 0.92588 0.29948 0.64967 0.0
H1861 H 0.97217 0.27153 0.65901 0.0
H1862 H 0.9578 0.21728 0.41845 0.0
H1863 H 0.96439 0.23724 0.49622 0.0
C1864 C 0.30237 0.45136 0.04588 0.0
C1865 C 0.31161 0.43758 0.03185 0.0
C1866 C 0.29112 0.45748 0.00446 0.0
C1867 C 0.25886 0.45379 0.93931 0.0
H1868 H 0.262 0.45316 0.7648 0.0
C1869 C 0.2092 0.4309 0.77942 0.0
C1870 C 0.208 0.43761 0.72146 0.0
C1871 C 0.22041 0.43705 0.8209 0.0
C1872 C 0.2609 0.45373 0.81348 0.0
H1873 H 0.31669 0.4197 0.96329 0.0
H1874 H 0.29775 0.43075 0.88976 0.0
H1875 H 0.28671 0.45327 0.8255 0.0
H1876 H 0.21682 0.4565 0.66218 0.0
H1877 H 0.23639 0.46735 0.73466 0.0
H1878 H 0.23304 0.45331 0.9273 0.0
C1879 C 0.29932 0.43706 0.93222 0.0
C1880 C 0.27507 0.45367 0.84818 0.0
C1881 C 0.31046 0.43087 0.97392 0.0
C1882 C 0.2173 0.45134 0.70715 0.0
C1883 C 0.22862 0.45742 0.74834 0.0
C1884 C 0.24468 0.45369 0.90461 0.0
C1885 C 0.2889 0.44987 0.94835 0.0
C1886 C 0.27421 0.45322 0.91147 0.0
C1887 C 0.23085 0.44982 0.80452 0.0
C1888 C 0.24555 0.45319 0.84134 0.0
H1889 H 0.30281 0.45651 0.09083 0.0
H1890 H 0.28336 0.46744 0.01795 0.0
H1891 H 0.25776 0.45325 0.988 0.0
H1892 H 0.20292 0.41976 0.79027 0.0
H1893 H 0.22199 0.43074 0.86341 0.0
C1894 C 0.45223 0.80012 0.30292 0.0
C1895 C 0.4386 0.80973 0.29003 0.0
C1896 C 0.45798 0.78895 0.26055 0.0
C1897 C 0.45385 0.75722 0.19224 0.0
H1898 H 0.45319 0.76172 0.01811 0.0
C1899 C 0.4314 0.70858 0.02705 0.0
C1900 C 0.43832 0.7077 0.96936 0.0
C1901 C 0.43729 0.71964 0.06953 0.0
C1902 C 0.45376 0.76024 0.06666 0.0
H1903 H 0.4205 0.81536 0.2227 0.0
H1904 H 0.43097 0.79662 0.14747 0.0
H1905 H 0.45333 0.78592 0.08144 0.0
H1906 H 0.45724 0.71709 0.91137 0.0
H1907 H 0.46763 0.73644 0.98557 0.0
H1908 H 0.45337 0.73154 0.17746 0.0
C1909 C 0.43745 0.79786 0.18976 0.0
C1910 C 0.45371 0.77412 0.10287 0.0
C1911 C 0.43161 0.8089 0.23242 0.0
C1912 C 0.45194 0.71729 0.95614 0.0
C1913 C 0.45775 0.72848 0.99832 0.0
C1914 C 0.45373 0.74334 0.15603 0.0
C1915 C 0.45017 0.78718 0.20456 0.0
C1916 C 0.45332 0.77276 0.16606 0.0
C1917 C 0.45001 0.73028 0.05444 0.0
C1918 C 0.45324 0.7447 0.09285 0.0
H1919 H 0.45757 0.80028 0.34761 0.0
H1920 H 0.46787 0.78097 0.27307 0.0
H1921 H 0.45336 0.75574 0.2408 0.0
H1922 H 0.42029 0.70213 0.03701 0.0
H1923 H 0.43086 0.72091 0.11192 0.0
C1924 C 0.70822 0.58606 0.97648 0.0
C1925 C 0.70691 0.57928 0.03431 0.0
C1926 C 0.71952 0.57997 0.93522 0.0
C1927 C 0.74406 0.56335 0.85213 0.0
H1928 H 0.78589 0.564 0.93274 0.0
C1929 C 0.80213 0.56531 0.71297 0.0
C1930 C 0.81122 0.57924 0.72643 0.0
C1931 C 0.79082 0.55929 0.75434 0.0
C1932 C 0.77431 0.56353 0.90966 0.0
H1933 H 0.71559 0.56029 0.09344 0.0
H1934 H 0.73534 0.54956 0.02136 0.0
H1935 H 0.761 0.56409 0.99255 0.0
H1936 H 0.81599 0.59743 0.79413 0.0
H1937 H 0.79697 0.58654 0.8677 0.0
H1938 H 0.75737 0.56369 0.76921 0.0
C1939 C 0.72758 0.5595 0.00763 0.0
C1940 C 0.76004 0.56346 0.94384 0.0
C1941 C 0.71616 0.56551 0.04857 0.0
C1942 C 0.80989 0.58616 0.78396 0.0
C1943 C 0.79869 0.58006 0.82566 0.0
C1944 C 0.75834 0.56323 0.81795 0.0
C1945 C 0.72994 0.56719 0.9517 0.0
C1946 C 0.74476 0.56391 0.91543 0.0
C1947 C 0.7884 0.56714 0.80989 0.0
C1948 C 0.77361 0.56386 0.84634 0.0
H1949 H 0.70196 0.59721 0.96565 0.0
H1950 H 0.7212 0.58633 0.89286 0.0
H1951 H 0.73248 0.56367 0.82903 0.0
H1952 H 0.80271 0.55998 0.66833 0.0
H1953 H 0.78316 0.54923 0.74117 0.0
C1954 C 0.58761 0.30895 0.03056 0.0
C1955 C 0.5806 0.31 0.97305 0.0
C1956 C 0.58185 0.29767 0.07257 0.0
C1957 C 0.56584 0.27335 0.15788 0.0
H1958 H 0.56625 0.23121 0.08014 0.0
C1959 C 0.56811 0.21608 0.30115 0.0
C1960 C 0.58175 0.2066 0.28722 0.0
C1961 C 0.5621 0.22729 0.25943 0.0
C1962 C 0.56588 0.24288 0.10245 0.0
H1963 H 0.56158 0.30082 0.91516 0.0
H1964 H 0.55141 0.28112 0.98858 0.0
H1965 H 0.56611 0.25577 0.01862 0.0
H1966 H 0.5994 0.20091 0.21823 0.0
H1967 H 0.58859 0.21994 0.14434 0.0
H1968 H 0.56652 0.26047 0.24167 0.0
C1969 C 0.56128 0.28906 1.00148 0.0
C1970 C 0.56566 0.25697 0.06729 0.0
C1971 C 0.56697 0.30045 0.95977 0.0
C1972 C 0.58839 0.20746 0.22904 0.0
C1973 C 0.58233 0.2186 0.18706 0.0
C1974 C 0.56589 0.25926 0.19303 0.0
C1975 C 0.56918 0.28701 0.05719 0.0
C1976 C 0.56616 0.27236 0.09462 0.0
C1977 C 0.5697 0.22925 0.20309 0.0
C1978 C 0.56643 0.24387 0.1657 0.0
H1979 H 0.5987 0.31542 0.0406 0.0
H1980 H 0.58838 0.29624 0.1147 0.0
H1981 H 0.56619 0.28502 0.18018 0.0
H1982 H 0.56299 0.21583 0.34621 0.0
H1983 H 0.55225 0.2352 0.27281 0.0
C1984 C 0.312 0.10521 0.99177 0.0
C1985 C 0.31136 0.11289 0.04806 0.0
C1986 C 0.30096 0.10935 0.94651 0.0
C1987 C 0.26765 0.13666 0.89862 0.0
H1988 H 0.24767 0.09616 0.85012 0.0
C1989 C 0.22167 0.12682 0.7015 0.0
C1990 C 0.21015 0.11448 0.70947 0.0
C1991 C 0.23252 0.13067 0.74804 0.0
C1992 C 0.25296 0.10761 0.8637 0.0
H1993 H 0.2994 0.13139 0.10085 0.0
H1994 H 0.27993 0.13867 0.02158 0.0
H1995 H 0.27159 0.09571 0.91376 0.0
H1996 H 0.20023 0.09711 0.77251 0.0
H1997 H 0.21861 0.10424 0.85464 0.0
H1998 H 0.24884 0.14848 0.84746 0.0
C1999 C 0.28918 0.12972 0.01181 0.0
C2000 C 0.26686 0.10734 0.89935 0.0
C2001 C 0.30034 0.12562 0.05706 0.0
C2002 C 0.20869 0.10702 0.76602 0.0
C2003 C 0.2194 0.11092 0.8126 0.0
C2004 C 0.25374 0.13693 0.86193 0.0
C2005 C 0.28883 0.12098 0.95738 0.0
C2006 C 0.27444 0.12181 0.91708 0.0
C2007 C 0.23206 0.12206 0.80283 0.0
C2008 C 0.2462 0.12236 0.84447 0.0
H2009 H 0.32014 0.09508 0.98447 0.0
H2010 H 0.30112 0.10256 0.90467 0.0
H2011 H 0.2732 0.148 0.91196 0.0
H2012 H 0.22327 0.1324 0.65759 0.0
H2013 H 0.24218 0.13923 0.73904 0.0
C2014 C 0.12618 0.71819 0.95636 0.0
C2015 C 0.11345 0.70716 0.96558 0.0
C2016 C 0.13037 0.72928 1.00164 0.0
C2017 C 0.10797 0.75142 0.11444 0.0
H2018 H 0.14908 0.76999 0.16412 0.0
C2019 C 0.1074 0.81018 0.24364 0.0
C2020 C 0.11489 0.80903 0.30025 0.0
C2021 C 0.11134 0.79925 0.19785 0.0
C2022 C 0.13754 0.76493 0.15029 0.0
H2023 H 0.0958 0.69827 0.02971 0.0
H2024 H 0.10345 0.71715 0.10957 0.0
H2025 H 0.14872 0.74547 0.10067 0.0
H2026 H 0.13289 0.79625 0.35295 0.0
H2027 H 0.13981 0.77699 0.27283 0.0
H2028 H 0.09668 0.77065 0.16313 0.0
C2029 C 0.11017 0.71736 0.06751 0.0
C2030 C 0.13734 0.75093 0.11421 0.0
C2031 C 0.10593 0.7064 0.02221 0.0
C2032 C 0.1273 0.79761 0.30897 0.0
C2033 C 0.13119 0.78656 0.2632 0.0
C2034 C 0.10817 0.76542 0.14945 0.0
C2035 C 0.12172 0.72955 0.05635 0.0
C2036 C 0.1225 0.74396 0.09648 0.0
C2037 C 0.12255 0.7867 0.20846 0.0
C2038 C 0.12292 0.77238 0.16782 0.0
H2039 H 0.13183 0.71924 0.91234 0.0
H2040 H 0.13927 0.73856 0.99164 0.0
H2041 H 0.09634 0.74656 0.10058 0.0
H2042 H 0.09747 0.81857 0.23656 0.0
H2043 H 0.10464 0.79978 0.15581 0.0
C2044 C 0.81105 0.91054 0.76811 0.0
C2045 C 0.81001 0.90306 0.71153 0.0
C2046 C 0.80015 0.90646 0.81391 0.0
C2047 C 0.76629 0.87973 0.86187 0.0
H2048 H 0.74732 0.92053 0.91259 0.0
C2049 C 0.71995 0.89001 0.05803 0.0
C2050 C 0.70867 0.90255 0.04976 0.0
C2051 C 0.73095 0.8861 0.01206 0.0
C2052 C 0.75234 0.90901 0.89843 0.0
H2053 H 0.79748 0.88493 0.65881 0.0
H2054 H 0.77826 0.87776 0.73896 0.0
H2055 H 0.77128 0.92063 0.84911 0.0
H2056 H 0.69931 0.92023 0.9867 0.0
H2057 H 0.71801 0.91303 0.90557 0.0
H2058 H 0.74713 0.8682 0.91215 0.0
C2059 C 0.78771 0.8865 0.74855 0.0
C2060 C 0.76627 0.90907 0.86288 0.0
C2061 C 0.79874 0.89053 0.70278 0.0
C2062 C 0.7076 0.9102 0.99342 0.0
C2063 C 0.71848 0.90624 0.94741 0.0
C2064 C 0.75236 0.87967 0.89846 0.0
C2065 C 0.78774 0.8951 0.80332 0.0
C2066 C 0.77345 0.89447 0.8442 0.0
C2067 C 0.73089 0.89485 0.95757 0.0
C2068 C 0.74517 0.89435 0.91662 0.0
H2069 H 0.81935 0.92055 0.77523 0.0
H2070 H 0.8006 0.91314 0.85597 0.0
H2071 H 0.77153 0.8683 0.8478 0.0
H2072 H 0.72123 0.88428 0.10182 0.0
H2073 H 0.74042 0.87733 0.02131 0.0
C2074 C 0.9108 0.30909 0.02551 0.0
C2075 C 0.9041 0.30956 0.96739 0.0
C2076 C 0.90516 0.29789 0.06802 0.0
C2077 C 0.88952 0.25671 0.06693 0.0
H2078 H 0.89007 0.26198 0.24074 0.0
C2079 C 0.91171 0.2082 0.23344 0.0
C2080 C 0.90502 0.20758 0.29156 0.0
C2081 C 0.90588 0.21934 0.19105 0.0
C2082 C 0.88954 0.26026 0.19231 0.0
H2083 H 0.886 0.29923 0.90824 0.0
H2084 H 0.87599 0.27965 0.98259 0.0
H2085 H 0.88966 0.28587 0.17583 0.0
H2086 H 0.88677 0.21761 0.35086 0.0
H2087 H 0.87644 0.23708 0.27672 0.0
H2088 H 0.89012 0.2311 0.0834 0.0
C2089 C 0.88548 0.28802 0.99568 0.0
C2090 C 0.88945 0.27398 0.15513 0.0
C2091 C 0.89104 0.29936 0.95341 0.0
C2092 C 0.8918 0.21759 0.30568 0.0
C2093 C 0.88607 0.22887 0.26354 0.0
C2094 C 0.88971 0.24299 0.10411 0.0
C2095 C 0.89297 0.28669 0.05256 0.0
C2096 C 0.88993 0.27237 0.092 0.0
C2097 C 0.89351 0.23034 0.20662 0.0
C2098 C 0.8902 0.2446 0.16723 0.0
H2099 H 0.92122 0.31653 0.03655 0.0
H2100 H 0.91132 0.29712 0.11111 0.0
H2101 H 0.89006 0.255 0.01849 0.0
H2102 H 0.92223 0.20092 0.22229 0.0
H2103 H 0.91202 0.22023 0.14793 0.0
C2104 C 0.29857 0.39041 0.19842 0.0
C2105 C 0.31001 0.40278 0.20725 0.0
C2106 C 0.28756 0.38643 0.2443 0.0
C2107 C 0.26651 0.40906 0.35939 0.0
H2108 H 0.24687 0.36836 0.4078 0.0
C2109 C 0.20778 0.41074 0.48928 0.0
C2110 C 0.20873 0.40307 0.5456 0.0
C2111 C 0.21865 0.40667 0.44336 0.0
C2112 C 0.25224 0.37979 0.39437 0.0
H2113 H 0.31961 0.42008 0.27113 0.0
H2114 H 0.30089 0.41275 0.35206 0.0
H2115 H 0.27126 0.36827 0.34338 0.0
H2116 H 0.22104 0.38464 0.59771 0.0
H2117 H 0.24021 0.3775 0.51734 0.0
H2118 H 0.2477 0.42068 0.40937 0.0
C2119 C 0.30031 0.40614 0.30988 0.0
C2120 C 0.26617 0.37973 0.35773 0.0
C2121 C 0.3112 0.41017 0.26397 0.0
C2122 C 0.21984 0.39038 0.55393 0.0
C2123 C 0.23084 0.38637 0.50804 0.0
C2124 C 0.25259 0.40912 0.39497 0.0
C2125 C 0.28776 0.39494 0.29926 0.0
C2126 C 0.27351 0.39441 0.34034 0.0
C2127 C 0.23093 0.39514 0.4536 0.0
C2128 C 0.24524 0.39453 0.41282 0.0
H2129 H 0.29719 0.38489 0.15434 0.0
H2130 H 0.27799 0.37782 0.23468 0.0
H2131 H 0.27166 0.42059 0.34585 0.0
H2132 H 0.1996 0.42086 0.48249 0.0
H2133 H 0.21828 0.41348 0.40155 0.0
C2134 C 0.38962 0.71905 0.81005 0.0
C2135 C 0.40276 0.70887 0.79662 0.0
C2136 C 0.38383 0.73001 0.76681 0.0
C2137 C 0.38734 0.74292 0.60582 0.0
H2138 H 0.38803 0.78629 0.67326 0.0
C2139 C 0.38987 0.79832 0.44996 0.0
C2140 C 0.40319 0.80827 0.4632 0.0
C2141 C 0.38405 0.78734 0.49308 0.0
C2142 C 0.3876 0.77427 0.65375 0.0
H2143 H 0.41979 0.70158 0.72761 0.0
H2144 H 0.40948 0.7203 0.65142 0.0
H2145 H 0.38806 0.76287 0.74052 0.0
H2146 H 0.42054 0.81512 0.53173 0.0
H2147 H 0.41014 0.79641 0.60777 0.0
H2148 H 0.38787 0.75432 0.51904 0.0
C2149 C 0.40343 0.71979 0.69479 0.0
C2150 C 0.38746 0.76082 0.69228 0.0
C2151 C 0.4093 0.70898 0.73825 0.0
C2152 C 0.40992 0.80789 0.52126 0.0
C2153 C 0.40399 0.7971 0.56463 0.0
C2154 C 0.38736 0.75637 0.56729 0.0
C2155 C 0.39115 0.73098 0.70952 0.0
C2156 C 0.3879 0.74498 0.66876 0.0
C2157 C 0.39149 0.78615 0.55009 0.0
C2158 C 0.38806 0.7722 0.59081 0.0
H2159 H 0.3847 0.71947 0.85537 0.0
H2160 H 0.37429 0.73838 0.77938 0.0
H2161 H 0.38757 0.73089 0.58631 0.0
H2162 H 0.3848 0.79812 0.40484 0.0
H2163 H 0.37433 0.77916 0.48066 0.0
C2164 C 0.70695 0.60587 0.26691 0.0
C2165 C 0.70794 0.6136 0.21073 0.0
C2166 C 0.71775 0.6099 0.31303 0.0
C2167 C 0.75124 0.63675 0.3629 0.0
H2168 H 0.77067 0.5959 0.41087 0.0
C2169 C 0.79738 0.62594 0.5592 0.0
C2170 C 0.80888 0.61363 0.5502 0.0
C2171 C 0.78638 0.62994 0.51331 0.0
C2172 C 0.76552 0.60744 0.39748 0.0
H2173 H 0.72028 0.6321 0.15902 0.0
H2174 H 0.73937 0.63916 0.23974 0.0
H2175 H 0.74679 0.59587 0.34701 0.0
H2176 H 0.81862 0.59647 0.48609 0.0
H2177 H 0.79989 0.60381 0.40515 0.0
H2178 H 0.77019 0.64822 0.41437 0.0
C2179 C 0.73 0.63028 0.24878 0.0
C2180 C 0.75164 0.60742 0.36171 0.0
C2181 C 0.71906 0.6263 0.2027 0.0
C2182 C 0.81013 0.60631 0.49339 0.0
C2183 C 0.79926 0.61036 0.44748 0.0
C2184 C 0.76513 0.63677 0.39972 0.0
C2185 C 0.73003 0.62145 0.3031 0.0
C2186 C 0.74429 0.62203 0.34406 0.0
C2187 C 0.78667 0.62151 0.45818 0.0
C2188 C 0.77247 0.62207 0.41692 0.0
H2189 H 0.69875 0.59575 0.27346 0.0
H2190 H 0.71735 0.60305 0.35476 0.0
H2191 H 0.74587 0.64819 0.34961 0.0
H2192 H 0.79595 0.63141 0.60333 0.0
H2193 H 0.77677 0.63851 0.52299 0.0
C2194 C 0.62812 0.29933 0.80407 0.0
C2195 C 0.61463 0.30947 0.79581 0.0
C2196 C 0.63241 0.28809 0.75942 0.0
C2197 C 0.60999 0.26334 0.65571 0.0
H2198 H 0.65109 0.2484 0.59113 0.0
C2199 C 0.61095 0.20553 0.52011 0.0
C2200 C 0.6169 0.20795 0.46157 0.0
C2201 C 0.61508 0.21629 0.5663 0.0
C2202 C 0.63957 0.25241 0.60931 0.0
H2203 H 0.59574 0.31676 0.7338 0.0
H2204 H 0.60346 0.29754 0.65515 0.0
H2205 H 0.65022 0.27289 0.65466 0.0
H2206 H 0.63251 0.2227 0.40559 0.0
H2207 H 0.63984 0.24154 0.48632 0.0
H2208 H 0.59921 0.24317 0.61101 0.0
C2209 C 0.61071 0.29815 0.69591 0.0
C2210 C 0.63908 0.2664 0.64538 0.0
C2211 C 0.60641 0.30928 0.74049 0.0
C2212 C 0.62811 0.22042 0.45091 0.0
C2213 C 0.63225 0.23122 0.49709 0.0
C2214 C 0.6105 0.24935 0.62074 0.0
C2215 C 0.62311 0.2868 0.70646 0.0
C2216 C 0.6242 0.27212 0.668 0.0
C2217 C 0.62501 0.2298 0.55431 0.0
C2218 C 0.62524 0.24374 0.59671 0.0
H2219 H 0.63434 0.29902 0.84715 0.0
H2220 H 0.64197 0.27943 0.76879 0.0
H2221 H 0.59839 0.26728 0.67347 0.0
H2222 H 0.60197 0.19624 0.52888 0.0
H2223 H 0.60948 0.21478 0.6102 0.0
loop_
_geom_bond_atom_site_label_1
_geom_bond_atom_site_label_2
_geom_bond_distance
_geom_bond_site_symmetry_2
_ccdc_geom_bond_type
Zn0 N4 2.020 . S
Zn0 O8 2.019 . S
Zn0 N10 2.119 . S
Zn0 O18 1.975 . S
C1 N2 1.334 . S
C1 N5 1.336 . S
N2 C1 1.334 . S
N2 C3 1.334 . S
C3 N2 1.334 . S
C3 N4 1.336 . S
N4 Zn0 2.020 . S
N4 C3 1.336 . S
N4 N5 1.354 . S
N5 C1 1.336 . S
N5 N4 1.354 . S
N5 Zn9 2.020 . S
C6 O7 1.244 . S
C6 O30 1.257 . S
O7 C6 1.244 . S
O8 Zn0 2.019 . S
O8 C28 1.257 1_554 S
Zn9 N5 2.020 . S
Zn9 O16 1.975 . S
Zn9 N25 2.119 . S
Zn9 O30 2.019 . S
N10 Zn0 2.119 . S
N10 C12 1.334 . S
N10 C13 1.328 . S
C11 C12 1.391 . S
C11 N14 1.329 . S
C11 H32 0.930 . S
C12 N10 1.334 . S
C12 C11 1.391 . S
C12 H19 0.930 . S
C13 N10 1.328 . S
C13 C15 1.392 . S
C13 H20 0.930 . S
N14 C11 1.329 . S
N14 C15 1.331 . S
C15 C13 1.392 . S
C15 N14 1.331 . S
O16 Zn9 1.975 . S
O16 C17 1.252 . S
C17 O16 1.252 . S
C17 O18 1.252 . S
O18 Zn0 1.975 . S
O18 C17 1.252 . S
H19 C12 0.930 . S
H20 C13 0.930 . S
C21 C22 1.392 . S
C21 N25 1.328 . S
C21 H27 0.930 . S
C22 C21 1.392 . S
C22 N26 1.331 . S
C23 C24 1.391 . S
C23 N26 1.329 . S
C23 H33 0.930 . S
C24 C23 1.391 . S
C24 N25 1.334 . S
C24 H31 0.930 . S
N25 Zn9 2.119 . S
N25 C21 1.328 . S
N25 C24 1.334 . S
N26 C22 1.331 . S
N26 C23 1.329 . S
H27 C21 0.930 . S
C28 O8 1.257 1_556 S
C28 O29 1.244 1_556 S
O29 C28 1.244 1_554 S
O30 C6 1.257 . S
O30 Zn9 2.019 . S
H31 C24 0.930 . S
H32 C11 0.930 . S
H33 C23 0.930 . S
Zn34 N38 2.020 . S
Zn34 O42 2.019 . S
Zn34 N44 2.119 . S
Zn34 O52 1.975 . S
C35 N36 1.334 . S
C35 N39 1.336 . S
N36 C35 1.334 . S
N36 C37 1.334 . S
C37 N36 1.334 . S
C37 N38 1.336 . S
N38 Zn34 2.020 . S
N38 C37 1.336 . S
N38 N39 1.354 . S
N39 C35 1.336 . S
N39 N38 1.354 . S
N39 Zn43 2.020 . S
C40 O41 1.244 1_554 S
C40 O64 1.257 1_554 S
O41 C40 1.244 1_556 S
O42 Zn34 2.019 . S
O42 C62 1.257 . S
Zn43 N39 2.020 . S
Zn43 O50 1.975 . S
Zn43 N59 2.119 . S
Zn43 O64 2.019 . S
N44 Zn34 2.119 . S
N44 C46 1.334 . S
N44 C47 1.328 . S
C45 C46 1.391 . S
C45 N48 1.329 . S
C45 H66 0.930 . S
C46 N44 1.334 . S
C46 C45 1.391 . S
C46 H53 0.930 . S
C47 N44 1.328 . S
C47 C49 1.392 . S
C47 H54 0.930 . S
N48 C45 1.329 . S
N48 C49 1.331 . S
C49 C47 1.392 . S
C49 N48 1.331 . S
O50 Zn43 1.975 . S
O50 C51 1.252 . S
C51 O50 1.252 . S
C51 O52 1.252 . S
O52 Zn34 1.975 . S
O52 C51 1.252 . S
H53 C46 0.930 . S
H54 C47 0.930 . S
C55 C56 1.392 . S
C55 N59 1.328 . S
C55 H61 0.930 . S
C56 C55 1.392 . S
C56 N60 1.331 . S
C57 C58 1.391 . S
C57 N60 1.329 . S
C57 H67 0.930 . S
C58 C57 1.391 . S
C58 N59 1.334 . S
C58 H65 0.930 . S
N59 Zn43 2.119 . S
N59 C55 1.328 . S
N59 C58 1.334 . S
N60 C56 1.331 . S
N60 C57 1.329 . S
H61 C55 0.930 . S
C62 O42 1.257 . S
C62 O63 1.244 . S
O63 C62 1.244 . S
O64 C40 1.257 1_556 S
O64 Zn43 2.019 . S
H65 C58 0.930 . S
H66 C45 0.930 . S
H67 C57 0.930 . S
Zn68 N72 2.020 . S
Zn68 O76 2.019 . S
Zn68 N78 2.119 . S
Zn68 O86 1.975 . S
C69 N70 1.334 . S
C69 N73 1.336 . S
N70 C69 1.334 . S
N70 C71 1.334 . S
C71 N70 1.334 . S
C71 N72 1.336 . S
N72 Zn68 2.020 . S
N72 C71 1.336 . S
N72 N73 1.354 . S
N73 C69 1.336 . S
N73 N72 1.354 . S
N73 Zn77 2.020 . S
C74 O75 1.244 . S
C74 O98 1.257 . S
O75 C74 1.244 . S
O76 Zn68 2.019 . S
O76 C96 1.257 1_554 S
Zn77 N73 2.020 . S
Zn77 O84 1.975 . S
Zn77 N93 2.119 . S
Zn77 O98 2.019 . S
N78 Zn68 2.119 . S
N78 C80 1.334 . S
N78 C81 1.328 . S
C79 C80 1.391 . S
C79 N82 1.329 . S
C79 H100 0.930 . S
C80 N78 1.334 . S
C80 C79 1.391 . S
C80 H87 0.930 . S
C81 N78 1.328 . S
C81 C83 1.392 . S
C81 H88 0.930 . S
N82 C79 1.329 . S
N82 C83 1.331 . S
C83 C81 1.392 . S
C83 N82 1.331 . S
O84 Zn77 1.975 . S
O84 C85 1.252 . S
C85 O84 1.252 . S
C85 O86 1.252 . S
O86 Zn68 1.975 . S
O86 C85 1.252 . S
H87 C80 0.930 . S
H88 C81 0.930 . S
C89 C90 1.392 . S
C89 N93 1.328 . S
C89 H95 0.930 . S
C90 C89 1.392 . S
C90 N94 1.331 . S
C91 C92 1.391 . S
C91 N94 1.329 . S
C91 H101 0.930 . S
C92 C91 1.391 . S
C92 N93 1.334 . S
C92 H99 0.930 . S
N93 Zn77 2.119 . S
N93 C89 1.328 . S
N93 C92 1.334 . S
N94 C90 1.331 . S
N94 C91 1.329 . S
H95 C89 0.930 . S
C96 O76 1.257 1_556 S
C96 O97 1.244 1_556 S
O97 C96 1.244 1_554 S
O98 C74 1.257 . S
O98 Zn77 2.019 . S
H99 C92 0.930 . S
H100 C79 0.930 . S
H101 C91 0.930 . S
Zn102 N106 2.020 . S
Zn102 O110 2.019 . S
Zn102 N112 2.119 . S
Zn102 O120 1.975 . S
C103 N104 1.334 . S
C103 N107 1.336 . S
N104 C103 1.334 . S
N104 C105 1.334 . S
C105 N104 1.334 . S
C105 N106 1.336 . S
N106 Zn102 2.020 . S
N106 C105 1.336 . S
N106 N107 1.354 . S
N107 C103 1.336 . S
N107 N106 1.354 . S
N107 Zn111 2.020 . S
C108 O109 1.244 1_554 S
C108 O132 1.257 1_554 S
O109 C108 1.244 1_556 S
O110 Zn102 2.019 . S
O110 C130 1.257 . S
Zn111 N107 2.020 . S
Zn111 O118 1.975 . S
Zn111 N127 2.119 . S
Zn111 O132 2.019 . S
N112 Zn102 2.119 . S
N112 C114 1.334 . S
N112 C115 1.328 . S
C113 C114 1.391 . S
C113 N116 1.329 . S
C113 H134 0.930 . S
C114 N112 1.334 . S
C114 C113 1.391 . S
C114 H121 0.930 . S
C115 N112 1.328 . S
C115 C117 1.392 . S
C115 H122 0.930 . S
N116 C113 1.329 . S
N116 C117 1.331 . S
C117 C115 1.392 . S
C117 N116 1.331 . S
O118 Zn111 1.975 . S
O118 C119 1.252 . S
C119 O118 1.252 . S
C119 O120 1.252 . S
O120 Zn102 1.975 . S
O120 C119 1.252 . S
H121 C114 0.930 . S
H122 C115 0.930 . S
C123 C124 1.392 . S
C123 N127 1.328 . S
C123 H129 0.930 . S
C124 C123 1.392 . S
C124 N128 1.331 . S
C125 C126 1.391 . S
C125 N128 1.329 . S
C125 H135 0.930 . S
C126 C125 1.391 . S
C126 N127 1.334 . S
C126 H133 0.930 . S
N127 Zn111 2.119 . S
N127 C123 1.328 . S
N127 C126 1.334 . S
N128 C124 1.331 . S
N128 C125 1.329 . S
H129 C123 0.930 . S
C130 O110 1.257 . S
C130 O131 1.244 . S
O131 C130 1.244 . S
O132 C108 1.257 1_556 S
O132 Zn111 2.019 . S
H133 C126 0.930 . S
H134 C113 0.930 . S
H135 C125 0.930 . S
Zn136 N140 2.020 . S
Zn136 O144 2.019 . S
Zn136 N146 2.119 . S
Zn136 O154 1.975 . S
C137 N138 1.334 . S
C137 N141 1.336 . S
N138 C137 1.334 . S
N138 C139 1.334 . S
C139 N138 1.334 . S
C139 N140 1.336 . S
N140 Zn136 2.020 . S
N140 C139 1.336 . S
N140 N141 1.354 . S
N141 C137 1.336 . S
N141 N140 1.354 . S
N141 Zn145 2.020 1_554 S
C142 O143 1.244 . S
C142 O166 1.257 . S
O143 C142 1.244 . S
O144 Zn136 2.019 . S
O144 C164 1.257 . S
Zn145 N141 2.020 1_556 S
Zn145 O152 1.975 1_556 S
Zn145 N161 2.119 1_556 S
Zn145 O166 2.019 . S
N146 Zn136 2.119 . S
N146 C148 1.334 . S
N146 C149 1.328 . S
C147 C148 1.391 . S
C147 N150 1.329 . S
C147 H168 0.930 . S
C148 N146 1.334 . S
C148 C147 1.391 . S
C148 H155 0.930 . S
C149 N146 1.328 . S
C149 C151 1.392 . S
C149 H156 0.930 . S
N150 C147 1.329 . S
N150 C151 1.331 . S
C151 C149 1.392 . S
C151 N150 1.331 . S
O152 Zn145 1.975 1_554 S
O152 C153 1.252 . S
C153 O152 1.252 . S
C153 O154 1.252 . S
O154 Zn136 1.975 . S
O154 C153 1.252 . S
H155 C148 0.930 . S
H156 C149 0.930 . S
C157 C158 1.392 1_556 S
C157 N161 1.328 1_556 S
C157 H163 0.930 . S
C158 C157 1.392 1_554 S
C158 N162 1.331 . S
C159 C160 1.391 . S
C159 N162 1.329 . S
C159 H169 0.930 . S
C160 C159 1.391 . S
C160 N161 1.334 . S
C160 H167 0.930 . S
N161 Zn145 2.119 1_554 S
N161 C157 1.328 1_554 S
N161 C160 1.334 . S
N162 C158 1.331 . S
N162 C159 1.329 . S
H163 C157 0.930 . S
C164 O144 1.257 . S
C164 O165 1.244 . S
O165 C164 1.244 . S
O166 C142 1.257 . S
O166 Zn145 2.019 . S
H167 C160 0.930 . S
H168 C147 0.930 . S
H169 C159 0.930 . S
Zn170 N174 2.020 . S
Zn170 O178 2.019 . S
Zn170 N180 2.119 . S
Zn170 O188 1.975 . S
C171 N172 1.334 . S
C171 N175 1.336 . S
N172 C171 1.334 . S
N172 C173 1.334 . S
C173 N172 1.334 . S
C173 N174 1.336 . S
N174 Zn170 2.020 . S
N174 C173 1.336 . S
N174 N175 1.354 . S
N175 C171 1.336 . S
N175 N174 1.354 . S
N175 Zn179 2.020 1_556 S
C176 O177 1.244 . S
C176 O200 1.257 . S
O177 C176 1.244 . S
O178 Zn170 2.019 . S
O178 C198 1.257 . S
Zn179 N175 2.020 1_554 S
Zn179 O186 1.975 1_554 S
Zn179 N195 2.119 1_554 S
Zn179 O200 2.019 . S
N180 Zn170 2.119 . S
N180 C182 1.334 . S
N180 C183 1.328 . S
C181 C182 1.391 . S
C181 N184 1.329 . S
C181 H202 0.930 . S
C182 N180 1.334 . S
C182 C181 1.391 . S
C182 H189 0.930 . S
C183 N180 1.328 . S
C183 C185 1.392 . S
C183 H190 0.930 . S
N184 C181 1.329 . S
N184 C185 1.331 . S
C185 C183 1.392 . S
C185 N184 1.331 . S
O186 Zn179 1.975 1_556 S
O186 C187 1.252 . S
C187 O186 1.252 . S
C187 O188 1.252 . S
O188 Zn170 1.975 . S
O188 C187 1.252 . S
H189 C182 0.930 . S
H190 C183 0.930 . S
C191 C192 1.392 1_554 S
C191 N195 1.328 1_554 S
C191 H197 0.930 . S
C192 C191 1.392 1_556 S
C192 N196 1.331 . S
C193 C194 1.391 . S
C193 N196 1.329 . S
C193 H203 0.930 . S
C194 C193 1.391 . S
C194 N195 1.334 . S
C194 H201 0.930 . S
N195 Zn179 2.119 1_556 S
N195 C191 1.328 1_556 S
N195 C194 1.334 . S
N196 C192 1.331 . S
N196 C193 1.329 . S
H197 C191 0.930 . S
C198 O178 1.257 . S
C198 O199 1.244 . S
O199 C198 1.244 . S
O200 C176 1.257 . S
O200 Zn179 2.019 . S
H201 C194 0.930 . S
H202 C181 0.930 . S
H203 C193 0.930 . S
Zn204 N208 2.020 . S
Zn204 O212 2.019 . S
Zn204 N214 2.119 . S
Zn204 O222 1.975 . S
C205 N206 1.334 . S
C205 N209 1.336 . S
N206 C205 1.334 . S
N206 C207 1.334 . S
C207 N206 1.334 . S
C207 N208 1.336 . S
N208 Zn204 2.020 . S
N208 C207 1.336 . S
N208 N209 1.354 . S
N209 C205 1.336 . S
N209 N208 1.354 . S
N209 Zn213 2.020 1_554 S
C210 O211 1.244 . S
C210 O234 1.257 . S
O211 C210 1.244 . S
O212 Zn204 2.019 . S
O212 C232 1.257 . S
Zn213 N209 2.020 1_556 S
Zn213 O220 1.975 1_556 S
Zn213 N229 2.119 1_556 S
Zn213 O234 2.019 . S
N214 Zn204 2.119 . S
N214 C216 1.334 . S
N214 C217 1.328 . S
C215 C216 1.391 . S
C215 N218 1.329 . S
C215 H236 0.930 . S
C216 N214 1.334 . S
C216 C215 1.391 . S
C216 H223 0.930 . S
C217 N214 1.328 . S
C217 C219 1.392 . S
C217 H224 0.930 . S
N218 C215 1.329 . S
N218 C219 1.331 . S
C219 C217 1.392 . S
C219 N218 1.331 . S
O220 Zn213 1.975 1_554 S
O220 C221 1.252 . S
C221 O220 1.252 . S
C221 O222 1.252 . S
O222 Zn204 1.975 . S
O222 C221 1.252 . S
H223 C216 0.930 . S
H224 C217 0.930 . S
C225 C226 1.392 1_556 S
C225 N229 1.328 1_556 S
C225 H231 0.930 . S
C226 C225 1.392 1_554 S
C226 N230 1.331 . S
C227 C228 1.391 . S
C227 N230 1.329 . S
C227 H237 0.930 . S
C228 C227 1.391 . S
C228 N229 1.334 . S
C228 H235 0.930 . S
N229 Zn213 2.119 1_554 S
N229 C225 1.328 1_554 S
N229 C228 1.334 . S
N230 C226 1.331 . S
N230 C227 1.329 . S
H231 C225 0.930 . S
C232 O212 1.257 . S
C232 O233 1.244 . S
O233 C232 1.244 . S
O234 C210 1.257 . S
O234 Zn213 2.019 . S
H235 C228 0.930 . S
H236 C215 0.930 . S
H237 C227 0.930 . S
Zn238 N242 2.020 . S
Zn238 O246 2.019 . S
Zn238 N248 2.119 . S
Zn238 O256 1.975 . S
C239 N240 1.334 . S
C239 N243 1.336 . S
N240 C239 1.334 . S
N240 C241 1.334 . S
C241 N240 1.334 . S
C241 N242 1.336 . S
N242 Zn238 2.020 . S
N242 C241 1.336 . S
N242 N243 1.354 . S
N243 C239 1.336 . S
N243 N242 1.354 . S
N243 Zn247 2.020 1_556 S
C244 O245 1.244 . S
C244 O268 1.257 . S
O245 C244 1.244 . S
O246 Zn238 2.019 . S
O246 C266 1.257 . S
Zn247 N243 2.020 1_554 S
Zn247 O254 1.975 1_554 S
Zn247 N263 2.119 1_554 S
Zn247 O268 2.019 . S
N248 Zn238 2.119 . S
N248 C250 1.334 . S
N248 C251 1.328 . S
C249 C250 1.391 . S
C249 N252 1.329 . S
C249 H270 0.930 . S
C250 N248 1.334 . S
C250 C249 1.391 . S
C250 H257 0.930 . S
C251 N248 1.328 . S
C251 C253 1.392 . S
C251 H258 0.930 . S
N252 C249 1.329 . S
N252 C253 1.331 . S
C253 C251 1.392 . S
C253 N252 1.331 . S
O254 Zn247 1.975 1_556 S
O254 C255 1.252 . S
C255 O254 1.252 . S
C255 O256 1.252 . S
O256 Zn238 1.975 . S
O256 C255 1.252 . S
H257 C250 0.930 . S
H258 C251 0.930 . S
C259 C260 1.392 1_554 S
C259 N263 1.328 1_554 S
C259 H265 0.930 . S
C260 C259 1.392 1_556 S
C260 N264 1.331 . S
C261 C262 1.391 . S
C261 N264 1.329 . S
C261 H271 0.930 . S
C262 C261 1.391 . S
C262 N263 1.334 . S
C262 H269 0.930 . S
N263 Zn247 2.119 1_556 S
N263 C259 1.328 1_556 S
N263 C262 1.334 . S
N264 C260 1.331 . S
N264 C261 1.329 . S
H265 C259 0.930 . S
C266 O246 1.257 . S
C266 O267 1.244 . S
O267 C266 1.244 . S
O268 C244 1.257 . S
O268 Zn247 2.019 . S
H269 C262 0.930 . S
H270 C249 0.930 . S
H271 C261 0.930 . S
Zn272 N276 2.020 . S
Zn272 O280 2.019 . S
Zn272 N282 2.119 . S
Zn272 O290 1.975 . S
C273 N274 1.334 . S
C273 N277 1.336 . S
N274 C273 1.334 . S
N274 C275 1.334 . S
C275 N274 1.334 . S
C275 N276 1.336 . S
N276 Zn272 2.020 . S
N276 C275 1.336 . S
N276 N277 1.354 . S
N277 C273 1.336 . S
N277 N276 1.354 . S
N277 Zn281 2.020 . S
C278 O279 1.244 . S
C278 O302 1.257 . S
O279 C278 1.244 . S
O280 Zn272 2.019 . S
O280 C300 1.257 . S
Zn281 N277 2.020 . S
Zn281 O288 1.975 . S
Zn281 N297 2.119 . S
Zn281 O302 2.019 . S
N282 Zn272 2.119 . S
N282 C284 1.334 . S
N282 C285 1.328 . S
C283 C284 1.391 . S
C283 N286 1.329 . S
C283 H304 0.930 . S
C284 N282 1.334 . S
C284 C283 1.391 . S
C284 H291 0.930 . S
C285 N282 1.328 . S
C285 C287 1.392 . S
C285 H292 0.930 . S
N286 C283 1.329 . S
N286 C287 1.331 . S
C287 C285 1.392 . S
C287 N286 1.331 . S
O288 Zn281 1.975 . S
O288 C289 1.252 . S
C289 O288 1.252 . S
C289 O290 1.252 . S
O290 Zn272 1.975 . S
O290 C289 1.252 . S
H291 C284 0.930 . S
H292 C285 0.930 . S
C293 C294 1.392 . S
C293 N297 1.328 . S
C293 H299 0.930 . S
C294 C293 1.392 . S
C294 N298 1.331 . S
C295 C296 1.391 . S
C295 N298 1.329 . S
C295 H305 0.930 . S
C296 C295 1.391 . S
C296 N297 1.334 . S
C296 H303 0.930 . S
N297 Zn281 2.119 . S
N297 C293 1.328 . S
N297 C296 1.334 . S
N298 C294 1.331 . S
N298 C295 1.329 . S
H299 C293 0.930 . S
C300 O280 1.257 . S
C300 O301 1.244 . S
O301 C300 1.244 . S
O302 C278 1.257 . S
O302 Zn281 2.019 . S
H303 C296 0.930 . S
H304 C283 0.930 . S
H305 C295 0.930 . S
Zn306 N310 2.020 . S
Zn306 O314 2.019 . S
Zn306 N316 2.119 . S
Zn306 O324 1.975 . S
C307 N308 1.334 . S
C307 N311 1.336 . S
N308 C307 1.334 . S
N308 C309 1.334 . S
C309 N308 1.334 . S
C309 N310 1.336 . S
N310 Zn306 2.020 . S
N310 C309 1.336 . S
N310 N311 1.354 . S
N311 C307 1.336 . S
N311 N310 1.354 . S
N311 Zn315 2.020 . S
C312 O313 1.244 . S
C312 O336 1.257 . S
O313 C312 1.244 . S
O314 Zn306 2.019 . S
O314 C334 1.257 . S
Zn315 N311 2.020 . S
Zn315 O322 1.975 . S
Zn315 N331 2.119 . S
Zn315 O336 2.019 . S
N316 Zn306 2.119 . S
N316 C318 1.334 . S
N316 C319 1.328 . S
C317 C318 1.391 . S
C317 N320 1.329 . S
C317 H338 0.930 . S
C318 N316 1.334 . S
C318 C317 1.391 . S
C318 H325 0.930 . S
C319 N316 1.328 . S
C319 C321 1.392 . S
C319 H326 0.930 . S
N320 C317 1.329 . S
N320 C321 1.331 . S
C321 C319 1.392 . S
C321 N320 1.331 . S
O322 Zn315 1.975 . S
O322 C323 1.252 . S
C323 O322 1.252 . S
C323 O324 1.252 . S
O324 Zn306 1.975 . S
O324 C323 1.252 . S
H325 C318 0.930 . S
H326 C319 0.930 . S
C327 C328 1.392 . S
C327 N331 1.328 . S
C327 H333 0.930 . S
C328 C327 1.392 . S
C328 N332 1.331 . S
C329 C330 1.391 . S
C329 N332 1.329 . S
C329 H339 0.930 . S
C330 C329 1.391 . S
C330 N331 1.334 . S
C330 H337 0.930 . S
N331 Zn315 2.119 . S
N331 C327 1.328 . S
N331 C330 1.334 . S
N332 C328 1.331 . S
N332 C329 1.329 . S
H333 C327 0.930 . S
C334 O314 1.257 . S
C334 O335 1.244 . S
O335 C334 1.244 . S
O336 C312 1.257 . S
O336 Zn315 2.019 . S
H337 C330 0.930 . S
H338 C317 0.930 . S
H339 C329 0.930 . S
Zn340 N344 2.020 . S
Zn340 O348 2.019 . S
Zn340 N350 2.119 . S
Zn340 O358 1.975 . S
C341 N342 1.334 . S
C341 N345 1.336 . S
N342 C341 1.334 . S
N342 C343 1.334 . S
C343 N342 1.334 . S
C343 N344 1.336 . S
N344 Zn340 2.020 . S
N344 C343 1.336 . S
N344 N345 1.354 . S
N345 C341 1.336 . S
N345 N344 1.354 . S
N345 Zn349 2.020 . S
C346 O347 1.244 . S
C346 O370 1.257 . S
O347 C346 1.244 . S
O348 Zn340 2.019 . S
O348 C368 1.257 . S
Zn349 N345 2.020 . S
Zn349 O356 1.975 . S
Zn349 N365 2.119 . S
Zn349 O370 2.019 . S
N350 Zn340 2.119 . S
N350 C352 1.334 . S
N350 C353 1.328 . S
C351 C352 1.391 . S
C351 N354 1.329 . S
C351 H372 0.930 . S
C352 N350 1.334 . S
C352 C351 1.391 . S
C352 H359 0.930 . S
C353 N350 1.328 . S
C353 C355 1.392 . S
C353 H360 0.930 . S
N354 C351 1.329 . S
N354 C355 1.331 . S
C355 C353 1.392 . S
C355 N354 1.331 . S
O356 Zn349 1.975 . S
O356 C357 1.252 . S
C357 O356 1.252 . S
C357 O358 1.252 . S
O358 Zn340 1.975 . S
O358 C357 1.252 . S
H359 C352 0.930 . S
H360 C353 0.930 . S
C361 C362 1.392 . S
C361 N365 1.328 . S
C361 H367 0.930 . S
C362 C361 1.392 . S
C362 N366 1.331 . S
C363 C364 1.391 . S
C363 N366 1.329 . S
C363 H373 0.930 . S
C364 C363 1.391 . S
C364 N365 1.334 . S
C364 H371 0.930 . S
N365 Zn349 2.119 . S
N365 C361 1.328 . S
N365 C364 1.334 . S
N366 C362 1.331 . S
N366 C363 1.329 . S
H367 C361 0.930 . S
C368 O348 1.257 . S
C368 O369 1.244 . S
O369 C368 1.244 . S
O370 C346 1.257 . S
O370 Zn349 2.019 . S
H371 C364 0.930 . S
H372 C351 0.930 . S
H373 C363 0.930 . S
Zn374 N378 2.020 . S
Zn374 O382 2.019 . S
Zn374 N384 2.119 . S
Zn374 O392 1.975 . S
C375 N376 1.334 . S
C375 N379 1.336 . S
N376 C375 1.334 . S
N376 C377 1.334 . S
C377 N376 1.334 . S
C377 N378 1.336 . S
N378 Zn374 2.020 . S
N378 C377 1.336 . S
N378 N379 1.354 . S
N379 C375 1.336 . S
N379 N378 1.354 . S
N379 Zn383 2.020 . S
C380 O381 1.244 . S
C380 O404 1.257 . S
O381 C380 1.244 . S
O382 Zn374 2.019 . S
O382 C402 1.257 . S
Zn383 N379 2.020 . S
Zn383 O390 1.975 . S
Zn383 N399 2.119 . S
Zn383 O404 2.019 . S
N384 Zn374 2.119 . S
N384 C386 1.334 . S
N384 C387 1.328 . S
C385 C386 1.391 . S
C385 N388 1.329 . S
C385 H406 0.930 . S
C386 N384 1.334 . S
C386 C385 1.391 . S
C386 H393 0.930 . S
C387 N384 1.328 . S
C387 C389 1.392 . S
C387 H394 0.930 . S
N388 C385 1.329 . S
N388 C389 1.331 . S
C389 C387 1.392 . S
C389 N388 1.331 . S
O390 Zn383 1.975 . S
O390 C391 1.252 . S
C391 O390 1.252 . S
C391 O392 1.252 . S
O392 Zn374 1.975 . S
O392 C391 1.252 . S
H393 C386 0.930 . S
H394 C387 0.930 . S
C395 C396 1.392 . S
C395 N399 1.328 . S
C395 H401 0.930 . S
C396 C395 1.392 . S
C396 N400 1.331 . S
C397 C398 1.391 . S
C397 N400 1.329 . S
C397 H407 0.930 . S
C398 C397 1.391 . S
C398 N399 1.334 . S
C398 H405 0.930 . S
N399 Zn383 2.119 . S
N399 C395 1.328 . S
N399 C398 1.334 . S
N400 C396 1.331 . S
N400 C397 1.329 . S
H401 C395 0.930 . S
C402 O382 1.257 . S
C402 O403 1.244 . S
O403 C402 1.244 . S
O404 C380 1.257 . S
O404 Zn383 2.019 . S
H405 C398 0.930 . S
H406 C385 0.930 . S
H407 C397 0.930 . S
Zn408 N412 2.020 . S
Zn408 O416 2.019 . S
Zn408 N418 2.119 . S
Zn408 O426 1.975 . S
C409 N410 1.334 . S
C409 N413 1.336 . S
N410 C409 1.334 . S
N410 C411 1.334 . S
C411 N410 1.334 . S
C411 N412 1.336 . S
N412 Zn408 2.020 . S
N412 C411 1.336 . S
N412 N413 1.354 . S
N413 C409 1.336 . S
N413 N412 1.354 . S
N413 Zn417 2.020 . S
C414 O415 1.244 . S
C414 O438 1.257 . S
O415 C414 1.244 . S
O416 Zn408 2.019 . S
O416 C436 1.257 . S
Zn417 N413 2.020 . S
Zn417 O424 1.975 . S
Zn417 N433 2.119 . S
Zn417 O438 2.019 . S
N418 Zn408 2.119 . S
N418 C420 1.334 . S
N418 C421 1.328 . S
C419 C420 1.391 . S
C419 N422 1.329 . S
C419 H440 0.930 . S
C420 N418 1.334 . S
C420 C419 1.391 . S
C420 H427 0.930 . S
C421 N418 1.328 . S
C421 C423 1.392 . S
C421 H428 0.930 . S
N422 C419 1.329 . S
N422 C423 1.331 . S
C423 C421 1.392 . S
C423 N422 1.331 . S
O424 Zn417 1.975 . S
O424 C425 1.252 . S
C425 O424 1.252 . S
C425 O426 1.252 . S
O426 Zn408 1.975 . S
O426 C425 1.252 . S
H427 C420 0.930 . S
H428 C421 0.930 . S
C429 C430 1.392 . S
C429 N433 1.328 . S
C429 H435 0.930 . S
C430 C429 1.392 . S
C430 N434 1.331 . S
C431 C432 1.391 . S
C431 N434 1.329 . S
C431 H441 0.930 . S
C432 C431 1.391 . S
C432 N433 1.334 . S
C432 H439 0.930 . S
N433 Zn417 2.119 . S
N433 C429 1.328 . S
N433 C432 1.334 . S
N434 C430 1.331 . S
N434 C431 1.329 . S
H435 C429 0.930 . S
C436 O416 1.257 . S
C436 O437 1.244 . S
O437 C436 1.244 . S
O438 C414 1.257 . S
O438 Zn417 2.019 . S
H439 C432 0.930 . S
H440 C419 0.930 . S
H441 C431 0.930 . S
Zn442 N446 2.020 . S
Zn442 O450 2.019 . S
Zn442 N452 2.119 . S
Zn442 O460 1.975 . S
C443 N444 1.334 . S
C443 N447 1.336 . S
N444 C443 1.334 . S
N444 C445 1.334 . S
C445 N444 1.334 . S
C445 N446 1.336 . S
N446 Zn442 2.020 . S
N446 C445 1.336 . S
N446 N447 1.354 . S
N447 C443 1.336 . S
N447 N446 1.354 . S
N447 Zn451 2.020 . S
C448 O449 1.244 . S
C448 O472 1.257 . S
O449 C448 1.244 . S
O450 Zn442 2.019 . S
O450 C470 1.257 . S
Zn451 N447 2.020 . S
Zn451 O458 1.975 . S
Zn451 N467 2.119 . S
Zn451 O472 2.019 . S
N452 Zn442 2.119 . S
N452 C454 1.334 . S
N452 C455 1.328 . S
C453 C454 1.391 . S
C453 N456 1.329 . S
C453 H474 0.930 . S
C454 N452 1.334 . S
C454 C453 1.391 . S
C454 H461 0.930 . S
C455 N452 1.328 . S
C455 C457 1.392 . S
C455 H462 0.930 . S
N456 C453 1.329 . S
N456 C457 1.331 . S
C457 C455 1.392 . S
C457 N456 1.331 . S
O458 Zn451 1.975 . S
O458 C459 1.252 . S
C459 O458 1.252 . S
C459 O460 1.252 . S
O460 Zn442 1.975 . S
O460 C459 1.252 . S
H461 C454 0.930 . S
H462 C455 0.930 . S
C463 C464 1.392 . S
C463 N467 1.328 . S
C463 H469 0.930 . S
C464 C463 1.392 . S
C464 N468 1.331 . S
C465 C466 1.391 . S
C465 N468 1.329 . S
C465 H475 0.930 . S
C466 C465 1.391 . S
C466 N467 1.334 . S
C466 H473 0.930 . S
N467 Zn451 2.119 . S
N467 C463 1.328 . S
N467 C466 1.334 . S
N468 C464 1.331 . S
N468 C465 1.329 . S
H469 C463 0.930 . S
C470 O450 1.257 . S
C470 O471 1.244 . S
O471 C470 1.244 . S
O472 C448 1.257 . S
O472 Zn451 2.019 . S
H473 C466 0.930 . S
H474 C453 0.930 . S
H475 C465 0.930 . S
Zn476 N480 2.020 . S
Zn476 O484 2.019 . S
Zn476 N486 2.119 . S
Zn476 O494 1.975 . S
C477 N478 1.334 . S
C477 N481 1.336 . S
N478 C477 1.334 . S
N478 C479 1.334 . S
C479 N478 1.334 . S
C479 N480 1.336 . S
N480 Zn476 2.020 . S
N480 C479 1.336 . S
N480 N481 1.354 . S
N481 C477 1.336 . S
N481 N480 1.354 . S
N481 Zn485 2.020 . S
C482 O483 1.244 . S
C482 O506 1.257 . S
O483 C482 1.244 . S
O484 Zn476 2.019 . S
O484 C504 1.257 . S
Zn485 N481 2.020 . S
Zn485 O492 1.975 . S
Zn485 N501 2.119 . S
Zn485 O506 2.019 . S
N486 Zn476 2.119 . S
N486 C488 1.334 . S
N486 C489 1.328 . S
C487 C488 1.391 . S
C487 N490 1.329 . S
C487 H508 0.930 . S
C488 N486 1.334 . S
C488 C487 1.391 . S
C488 H495 0.930 . S
C489 N486 1.328 . S
C489 C491 1.392 . S
C489 H496 0.930 . S
N490 C487 1.329 . S
N490 C491 1.331 . S
C491 C489 1.392 . S
C491 N490 1.331 . S
O492 Zn485 1.975 . S
O492 C493 1.252 . S
C493 O492 1.252 . S
C493 O494 1.252 . S
O494 Zn476 1.975 . S
O494 C493 1.252 . S
H495 C488 0.930 . S
H496 C489 0.930 . S
C497 C498 1.392 . S
C497 N501 1.328 . S
C497 H503 0.930 . S
C498 C497 1.392 . S
C498 N502 1.331 . S
C499 C500 1.391 . S
C499 N502 1.329 . S
C499 H509 0.930 . S
C500 C499 1.391 . S
C500 N501 1.334 . S
C500 H507 0.930 . S
N501 Zn485 2.119 . S
N501 C497 1.328 . S
N501 C500 1.334 . S
N502 C498 1.331 . S
N502 C499 1.329 . S
H503 C497 0.930 . S
C504 O484 1.257 . S
C504 O505 1.244 . S
O505 C504 1.244 . S
O506 C482 1.257 . S
O506 Zn485 2.019 . S
H507 C500 0.930 . S
H508 C487 0.930 . S
H509 C499 0.930 . S
Zn510 N514 2.020 . S
Zn510 O518 2.019 . S
Zn510 N520 2.119 . S
Zn510 O528 1.975 . S
C511 N512 1.334 . S
C511 N515 1.336 . S
N512 C511 1.334 . S
N512 C513 1.334 . S
C513 N512 1.334 . S
C513 N514 1.336 . S
N514 Zn510 2.020 . S
N514 C513 1.336 . S
N514 N515 1.354 . S
N515 C511 1.336 . S
N515 N514 1.354 . S
N515 Zn519 2.020 . S
C516 O517 1.244 . S
C516 O540 1.257 . S
O517 C516 1.244 . S
O518 Zn510 2.019 . S
O518 C538 1.257 . S
Zn519 N515 2.020 . S
Zn519 O526 1.975 . S
Zn519 N535 2.119 . S
Zn519 O540 2.019 . S
N520 Zn510 2.119 . S
N520 C522 1.334 . S
N520 C523 1.328 . S
C521 C522 1.391 . S
C521 N524 1.329 . S
C521 H542 0.930 . S
C522 N520 1.334 . S
C522 C521 1.391 . S
C522 H529 0.930 . S
C523 N520 1.328 . S
C523 C525 1.392 . S
C523 H530 0.930 . S
N524 C521 1.329 . S
N524 C525 1.331 . S
C525 C523 1.392 . S
C525 N524 1.331 . S
O526 Zn519 1.975 . S
O526 C527 1.252 . S
C527 O526 1.252 . S
C527 O528 1.252 . S
O528 Zn510 1.975 . S
O528 C527 1.252 . S
H529 C522 0.930 . S
H530 C523 0.930 . S
C531 C532 1.392 . S
C531 N535 1.328 . S
C531 H537 0.930 . S
C532 C531 1.392 . S
C532 N536 1.331 . S
C533 C534 1.391 . S
C533 N536 1.329 . S
C533 H543 0.930 . S
C534 C533 1.391 . S
C534 N535 1.334 . S
C534 H541 0.930 . S
N535 Zn519 2.119 . S
N535 C531 1.328 . S
N535 C534 1.334 . S
N536 C532 1.331 . S
N536 C533 1.329 . S
H537 C531 0.930 . S
C538 O518 1.257 . S
C538 O539 1.244 . S
O539 C538 1.244 . S
O540 C516 1.257 . S
O540 Zn519 2.019 . S
H541 C534 0.930 . S
H542 C521 0.930 . S
H543 C533 0.930 . S
C544 C545 1.349 . S
C544 C546 1.327 . S
C544 H569 0.950 . S
C545 C544 1.349 . S
C545 C561 1.349 . S
C546 C544 1.327 . S
C546 C565 1.429 . S
C546 H570 0.950 . S
C547 C564 1.574 . S
C547 C566 1.368 . S
C547 H571 0.949 . S
H548 C552 0.949 . S
C549 C550 1.349 . S
C549 C551 1.327 . S
C549 H572 0.950 . S
C550 C549 1.349 . S
C550 C562 1.349 . S
C551 C549 1.327 . S
C551 C567 1.429 . S
C551 H573 0.950 . S
C552 H548 0.949 . S
C552 C560 1.574 . S
C552 C568 1.368 . S
H553 C561 0.950 . S
H554 C559 0.950 . S
H555 C560 0.949 . S
H556 C562 0.950 . S
H557 C563 0.950 . S
H558 C564 0.949 . S
C559 H554 0.950 . S
C559 C561 1.327 . S
C559 C565 1.429 . S
C560 C552 1.574 . S
C560 H555 0.949 . S
C560 C566 1.368 . S
C561 C545 1.349 . S
C561 H553 0.950 . S
C561 C559 1.327 . S
C562 C550 1.349 . S
C562 H556 0.950 . S
C562 C563 1.327 . S
C563 H557 0.950 . S
C563 C562 1.327 . S
C563 C567 1.429 . S
C564 C547 1.574 . S
C564 H558 0.949 . S
C564 C568 1.368 . S
C565 C546 1.429 . S
C565 C559 1.429 . S
C565 C566 1.523 . S
C566 C547 1.368 . S
C566 C560 1.368 . S
C566 C565 1.523 . S
C567 C551 1.429 . S
C567 C563 1.429 . S
C567 C568 1.523 . S
C568 C552 1.368 . S
C568 C564 1.368 . S
C568 C567 1.523 . S
H569 C544 0.950 . S
H570 C546 0.950 . S
H571 C547 0.949 . S
H572 C549 0.950 . S
H573 C551 0.950 . S
C574 C575 1.349 . S
C574 C576 1.327 . S
C574 H599 0.950 . S
C575 C574 1.349 . S
C575 C591 1.349 . S
C576 C574 1.327 . S
C576 C595 1.429 . S
C576 H600 0.950 . S
C577 C594 1.574 . S
C577 C596 1.368 . S
C577 H601 0.949 . S
H578 C582 0.949 . S
C579 C580 1.349 . S
C579 C581 1.327 . S
C579 H602 0.950 . S
C580 C579 1.349 . S
C580 C592 1.349 . S
C581 C579 1.327 . S
C581 C597 1.429 . S
C581 H603 0.950 . S
C582 H578 0.949 . S
C582 C590 1.574 . S
C582 C598 1.368 . S
H583 C591 0.950 . S
H584 C589 0.950 . S
H585 C590 0.949 . S
H586 C592 0.950 . S
H587 C593 0.950 . S
H588 C594 0.949 . S
C589 H584 0.950 . S
C589 C591 1.327 . S
C589 C595 1.429 . S
C590 C582 1.574 . S
C590 H585 0.949 . S
C590 C596 1.368 . S
C591 C575 1.349 . S
C591 H583 0.950 . S
C591 C589 1.327 . S
C592 C580 1.349 . S
C592 H586 0.950 . S
C592 C593 1.327 . S
C593 H587 0.950 . S
C593 C592 1.327 . S
C593 C597 1.429 . S
C594 C577 1.574 . S
C594 H588 0.949 . S
C594 C598 1.368 . S
C595 C576 1.429 . S
C595 C589 1.429 . S
C595 C596 1.523 . S
C596 C577 1.368 . S
C596 C590 1.368 . S
C596 C595 1.523 . S
C597 C581 1.429 . S
C597 C593 1.429 . S
C597 C598 1.523 . S
C598 C582 1.368 . S
C598 C594 1.368 . S
C598 C597 1.523 . S
H599 C574 0.950 . S
H600 C576 0.950 . S
H601 C577 0.949 . S
H602 C579 0.950 . S
H603 C581 0.950 . S
C604 C605 1.349 . S
C604 C606 1.327 . S
C604 H629 0.950 . S
C605 C604 1.349 . S
C605 C621 1.349 . S
C606 C604 1.327 . S
C606 C625 1.429 . S
C606 H630 0.950 . S
C607 C624 1.574 . S
C607 C626 1.368 . S
C607 H631 0.949 . S
H608 C612 0.949 . S
C609 C610 1.349 . S
C609 C611 1.327 . S
C609 H632 0.950 . S
C610 C609 1.349 . S
C610 C622 1.349 . S
C611 C609 1.327 . S
C611 C627 1.429 . S
C611 H633 0.950 . S
C612 H608 0.949 . S
C612 C620 1.574 . S
C612 C628 1.368 . S
H613 C621 0.950 . S
H614 C619 0.950 . S
H615 C620 0.949 . S
H616 C622 0.950 . S
H617 C623 0.950 . S
H618 C624 0.949 . S
C619 H614 0.950 . S
C619 C621 1.327 . S
C619 C625 1.429 . S
C620 C612 1.574 . S
C620 H615 0.949 . S
C620 C626 1.368 . S
C621 C605 1.349 . S
C621 H613 0.950 . S
C621 C619 1.327 . S
C622 C610 1.349 . S
C622 H616 0.950 . S
C622 C623 1.327 . S
C623 H617 0.950 . S
C623 C622 1.327 . S
C623 C627 1.429 . S
C624 C607 1.574 . S
C624 H618 0.949 . S
C624 C628 1.368 . S
C625 C606 1.429 . S
C625 C619 1.429 . S
C625 C626 1.523 . S
C626 C607 1.368 . S
C626 C620 1.368 . S
C626 C625 1.523 . S
C627 C611 1.429 . S
C627 C623 1.429 . S
C627 C628 1.523 . S
C628 C612 1.368 . S
C628 C624 1.368 . S
C628 C627 1.523 . S
H629 C604 0.950 . S
H630 C606 0.950 . S
H631 C607 0.949 . S
H632 C609 0.950 . S
H633 C611 0.950 . S
C634 C635 1.349 . S
C634 C636 1.327 . S
C634 H659 0.950 . S
C635 C634 1.349 . S
C635 C651 1.349 . S
C636 C634 1.327 . S
C636 C655 1.429 . S
C636 H660 0.950 . S
C637 C654 1.574 . S
C637 C656 1.368 . S
C637 H661 0.949 . S
H638 C642 0.949 . S
C639 C640 1.349 . S
C639 C641 1.327 . S
C639 H662 0.950 . S
C640 C639 1.349 . S
C640 C652 1.349 . S
C641 C639 1.327 . S
C641 C657 1.429 . S
C641 H663 0.950 . S
C642 H638 0.949 . S
C642 C650 1.574 . S
C642 C658 1.368 . S
H643 C651 0.950 . S
H644 C649 0.950 . S
H645 C650 0.949 . S
H646 C652 0.950 . S
H647 C653 0.950 . S
H648 C654 0.949 . S
C649 H644 0.950 . S
C649 C651 1.327 . S
C649 C655 1.429 . S
C650 C642 1.574 . S
C650 H645 0.949 . S
C650 C656 1.368 . S
C651 C635 1.349 . S
C651 H643 0.950 . S
C651 C649 1.327 . S
C652 C640 1.349 . S
C652 H646 0.950 . S
C652 C653 1.327 . S
C653 H647 0.950 . S
C653 C652 1.327 . S
C653 C657 1.429 . S
C654 C637 1.574 . S
C654 H648 0.949 . S
C654 C658 1.368 . S
C655 C636 1.429 . S
C655 C649 1.429 . S
C655 C656 1.523 . S
C656 C637 1.368 . S
C656 C650 1.368 . S
C656 C655 1.523 . S
C657 C641 1.429 . S
C657 C653 1.429 . S
C657 C658 1.523 . S
C658 C642 1.368 . S
C658 C654 1.368 . S
C658 C657 1.523 . S
H659 C634 0.950 . S
H660 C636 0.950 . S
H661 C637 0.949 . S
H662 C639 0.950 . S
H663 C641 0.950 . S
C664 C665 1.349 . S
C664 C666 1.327 . S
C664 H689 0.950 . S
C665 C664 1.349 . S
C665 C681 1.349 . S
C666 C664 1.327 . S
C666 C685 1.429 . S
C666 H690 0.950 . S
C667 C684 1.574 . S
C667 C686 1.368 . S
C667 H691 0.949 . S
H668 C672 0.949 . S
C669 C670 1.349 . S
C669 C671 1.327 . S
C669 H692 0.950 . S
C670 C669 1.349 . S
C670 C682 1.349 . S
C671 C669 1.327 . S
C671 C687 1.429 . S
C671 H693 0.950 . S
C672 H668 0.949 . S
C672 C680 1.574 . S
C672 C688 1.368 . S
H673 C681 0.950 . S
H674 C679 0.950 . S
H675 C680 0.949 . S
H676 C682 0.950 . S
H677 C683 0.950 . S
H678 C684 0.949 . S
C679 H674 0.950 . S
C679 C681 1.327 . S
C679 C685 1.429 . S
C680 C672 1.574 . S
C680 H675 0.949 . S
C680 C686 1.368 . S
C681 C665 1.349 . S
C681 H673 0.950 . S
C681 C679 1.327 . S
C682 C670 1.349 . S
C682 H676 0.950 . S
C682 C683 1.327 . S
C683 H677 0.950 . S
C683 C682 1.327 . S
C683 C687 1.429 . S
C684 C667 1.574 . S
C684 H678 0.949 . S
C684 C688 1.368 . S
C685 C666 1.429 . S
C685 C679 1.429 . S
C685 C686 1.523 . S
C686 C667 1.368 . S
C686 C680 1.368 . S
C686 C685 1.523 . S
C687 C671 1.429 . S
C687 C683 1.429 . S
C687 C688 1.523 . S
C688 C672 1.368 . S
C688 C684 1.368 . S
C688 C687 1.523 . S
H689 C664 0.950 . S
H690 C666 0.950 . S
H691 C667 0.949 . S
H692 C669 0.950 . S
H693 C671 0.950 . S
C694 C695 1.349 . S
C694 C696 1.327 . S
C694 H719 0.950 . S
C695 C694 1.349 . S
C695 C711 1.349 . S
C696 C694 1.327 . S
C696 C715 1.429 . S
C696 H720 0.950 . S
C697 C714 1.574 . S
C697 C716 1.368 . S
C697 H721 0.949 . S
H698 C702 0.949 . S
C699 C700 1.349 . S
C699 C701 1.327 . S
C699 H722 0.950 . S
C700 C699 1.349 . S
C700 C712 1.349 . S
C701 C699 1.327 . S
C701 C717 1.429 . S
C701 H723 0.950 . S
C702 H698 0.949 . S
C702 C710 1.574 . S
C702 C718 1.368 . S
H703 C711 0.950 . S
H704 C709 0.950 . S
H705 C710 0.949 . S
H706 C712 0.950 . S
H707 C713 0.950 . S
H708 C714 0.949 . S
C709 H704 0.950 . S
C709 C711 1.327 . S
C709 C715 1.429 . S
C710 C702 1.574 . S
C710 H705 0.949 . S
C710 C716 1.368 . S
C711 C695 1.349 . S
C711 H703 0.950 . S
C711 C709 1.327 . S
C712 C700 1.349 . S
C712 H706 0.950 . S
C712 C713 1.327 . S
C713 H707 0.950 . S
C713 C712 1.327 . S
C713 C717 1.429 . S
C714 C697 1.574 . S
C714 H708 0.949 . S
C714 C718 1.368 . S
C715 C696 1.429 . S
C715 C709 1.429 . S
C715 C716 1.523 . S
C716 C697 1.368 . S
C716 C710 1.368 . S
C716 C715 1.523 . S
C717 C701 1.429 . S
C717 C713 1.429 . S
C717 C718 1.523 . S
C718 C702 1.368 . S
C718 C714 1.368 . S
C718 C717 1.523 . S
H719 C694 0.950 . S
H720 C696 0.950 . S
H721 C697 0.949 . S
H722 C699 0.950 . S
H723 C701 0.950 . S
C724 C725 1.349 . S
C724 C726 1.327 . S
C724 H749 0.950 . S
C725 C724 1.349 . S
C725 C741 1.349 . S
C726 C724 1.327 . S
C726 C745 1.429 . S
C726 H750 0.950 . S
C727 C744 1.574 . S
C727 C746 1.368 . S
C727 H751 0.949 . S
H728 C732 0.949 . S
C729 C730 1.349 . S
C729 C731 1.327 . S
C729 H752 0.950 . S
C730 C729 1.349 . S
C730 C742 1.349 . S
C731 C729 1.327 . S
C731 C747 1.429 . S
C731 H753 0.950 . S
C732 H728 0.949 . S
C732 C740 1.574 . S
C732 C748 1.368 . S
H733 C741 0.950 . S
H734 C739 0.950 . S
H735 C740 0.949 . S
H736 C742 0.950 . S
H737 C743 0.950 . S
H738 C744 0.949 . S
C739 H734 0.950 . S
C739 C741 1.327 . S
C739 C745 1.429 . S
C740 C732 1.574 . S
C740 H735 0.949 . S
C740 C746 1.368 . S
C741 C725 1.349 . S
C741 H733 0.950 . S
C741 C739 1.327 . S
C742 C730 1.349 . S
C742 H736 0.950 . S
C742 C743 1.327 . S
C743 H737 0.950 . S
C743 C742 1.327 . S
C743 C747 1.429 . S
C744 C727 1.574 . S
C744 H738 0.949 . S
C744 C748 1.368 . S
C745 C726 1.429 . S
C745 C739 1.429 . S
C745 C746 1.523 . S
C746 C727 1.368 . S
C746 C740 1.368 . S
C746 C745 1.523 . S
C747 C731 1.429 . S
C747 C743 1.429 . S
C747 C748 1.523 . S
C748 C732 1.368 . S
C748 C744 1.368 . S
C748 C747 1.523 . S
H749 C724 0.950 . S
H750 C726 0.950 . S
H751 C727 0.949 . S
H752 C729 0.950 . S
H753 C731 0.950 . S
C754 C755 1.349 . S
C754 C756 1.327 . S
C754 H779 0.950 . S
C755 C754 1.349 . S
C755 C771 1.349 . S
C756 C754 1.327 . S
C756 C775 1.429 . S
C756 H780 0.950 . S
C757 C774 1.574 . S
C757 C776 1.368 . S
C757 H781 0.949 . S
H758 C762 0.949 . S
C759 C760 1.349 . S
C759 C761 1.327 . S
C759 H782 0.950 . S
C760 C759 1.349 . S
C760 C772 1.349 . S
C761 C759 1.327 . S
C761 C777 1.429 . S
C761 H783 0.950 . S
C762 H758 0.949 . S
C762 C770 1.574 . S
C762 C778 1.368 . S
H763 C771 0.950 . S
H764 C769 0.950 . S
H765 C770 0.949 . S
H766 C772 0.950 . S
H767 C773 0.950 . S
H768 C774 0.949 . S
C769 H764 0.950 . S
C769 C771 1.327 . S
C769 C775 1.429 . S
C770 C762 1.574 . S
C770 H765 0.949 . S
C770 C776 1.368 . S
C771 C755 1.349 . S
C771 H763 0.950 . S
C771 C769 1.327 . S
C772 C760 1.349 . S
C772 H766 0.950 . S
C772 C773 1.327 . S
C773 H767 0.950 . S
C773 C772 1.327 . S
C773 C777 1.429 . S
C774 C757 1.574 . S
C774 H768 0.949 . S
C774 C778 1.368 . S
C775 C756 1.429 . S
C775 C769 1.429 . S
C775 C776 1.523 . S
C776 C757 1.368 . S
C776 C770 1.368 . S
C776 C775 1.523 . S
C777 C761 1.429 . S
C777 C773 1.429 . S
C777 C778 1.523 . S
C778 C762 1.368 . S
C778 C774 1.368 . S
C778 C777 1.523 . S
H779 C754 0.950 . S
H780 C756 0.950 . S
H781 C757 0.949 . S
H782 C759 0.950 . S
H783 C761 0.950 . S
C784 C785 1.349 . S
C784 C786 1.327 1_556 S
C784 H809 0.950 . S
C785 C784 1.349 . S
C785 C801 1.349 . S
C786 C784 1.327 1_554 S
C786 C805 1.429 . S
C786 H810 0.950 . S
C787 C804 1.574 . S
C787 C806 1.368 . S
C787 H811 0.949 . S
H788 C792 0.949 . S
C789 C790 1.349 . S
C789 C791 1.327 . S
C789 H812 0.950 . S
C790 C789 1.349 . S
C790 C802 1.349 . S
C791 C789 1.327 . S
C791 C807 1.429 . S
C791 H813 0.950 . S
C792 H788 0.949 . S
C792 C800 1.574 . S
C792 C808 1.368 . S
H793 C801 0.950 . S
H794 C799 0.950 . S
H795 C800 0.949 . S
H796 C802 0.950 . S
H797 C803 0.950 . S
H798 C804 0.949 . S
C799 H794 0.950 . S
C799 C801 1.327 1_554 S
C799 C805 1.429 . S
C800 C792 1.574 . S
C800 H795 0.949 . S
C800 C806 1.368 . S
C801 C785 1.349 . S
C801 H793 0.950 . S
C801 C799 1.327 1_556 S
C802 C790 1.349 . S
C802 H796 0.950 . S
C802 C803 1.327 . S
C803 H797 0.950 . S
C803 C802 1.327 . S
C803 C807 1.429 . S
C804 C787 1.574 . S
C804 H798 0.949 . S
C804 C808 1.368 . S
C805 C786 1.429 . S
C805 C799 1.429 . S
C805 C806 1.523 . S
C806 C787 1.368 . S
C806 C800 1.368 . S
C806 C805 1.523 . S
C807 C791 1.429 . S
C807 C803 1.429 . S
C807 C808 1.523 . S
C808 C792 1.368 . S
C808 C804 1.368 . S
C808 C807 1.523 . S
H809 C784 0.950 . S
H810 C786 0.950 . S
H811 C787 0.949 . S
H812 C789 0.950 . S
H813 C791 0.950 . S
C814 C815 1.349 . S
C814 C816 1.327 1_554 S
C814 H839 0.950 . S
C815 C814 1.349 . S
C815 C831 1.349 . S
C816 C814 1.327 1_556 S
C816 C835 1.429 . S
C816 H840 0.950 . S
C817 C834 1.574 . S
C817 C836 1.368 . S
C817 H841 0.949 . S
H818 C822 0.949 . S
C819 C820 1.349 . S
C819 C821 1.327 . S
C819 H842 0.950 . S
C820 C819 1.349 . S
C820 C832 1.349 . S
C821 C819 1.327 . S
C821 C837 1.429 . S
C821 H843 0.950 . S
C822 H818 0.949 . S
C822 C830 1.574 . S
C822 C838 1.368 . S
H823 C831 0.950 . S
H824 C829 0.950 . S
H825 C830 0.949 . S
H826 C832 0.950 . S
H827 C833 0.950 . S
H828 C834 0.949 . S
C829 H824 0.950 . S
C829 C831 1.327 1_556 S
C829 C835 1.429 . S
C830 C822 1.574 . S
C830 H825 0.949 . S
C830 C836 1.368 . S
C831 C815 1.349 . S
C831 H823 0.950 . S
C831 C829 1.327 1_554 S
C832 C820 1.349 . S
C832 H826 0.950 . S
C832 C833 1.327 . S
C833 H827 0.950 . S
C833 C832 1.327 . S
C833 C837 1.429 . S
C834 C817 1.574 . S
C834 H828 0.949 . S
C834 C838 1.368 . S
C835 C816 1.429 . S
C835 C829 1.429 . S
C835 C836 1.523 . S
C836 C817 1.368 . S
C836 C830 1.368 . S
C836 C835 1.523 . S
C837 C821 1.429 . S
C837 C833 1.429 . S
C837 C838 1.523 . S
C838 C822 1.368 . S
C838 C834 1.368 . S
C838 C837 1.523 . S
H839 C814 0.950 . S
H840 C816 0.950 . S
H841 C817 0.949 . S
H842 C819 0.950 . S
H843 C821 0.950 . S
C844 C845 1.349 . S
C844 C846 1.327 . S
C844 H869 0.950 . S
C845 C844 1.349 . S
C845 C861 1.349 . S
C846 C844 1.327 . S
C846 C865 1.429 . S
C846 H870 0.950 . S
C847 C864 1.574 . S
C847 C866 1.368 . S
C847 H871 0.949 . S
H848 C852 0.949 . S
C849 C850 1.349 . S
C849 C851 1.327 1_556 S
C849 H872 0.950 . S
C850 C849 1.349 . S
C850 C862 1.349 . S
C851 C849 1.327 1_554 S
C851 C867 1.429 . S
C851 H873 0.950 . S
C852 H848 0.949 . S
C852 C860 1.574 . S
C852 C868 1.368 . S
H853 C861 0.950 . S
H854 C859 0.950 . S
H855 C860 0.949 . S
H856 C862 0.950 . S
H857 C863 0.950 . S
H858 C864 0.949 . S
C859 H854 0.950 . S
C859 C861 1.327 . S
C859 C865 1.429 . S
C860 C852 1.574 . S
C860 H855 0.949 . S
C860 C866 1.368 . S
C861 C845 1.349 . S
C861 H853 0.950 . S
C861 C859 1.327 . S
C862 C850 1.349 . S
C862 H856 0.950 . S
C862 C863 1.327 1_556 S
C863 H857 0.950 . S
C863 C862 1.327 1_554 S
C863 C867 1.429 . S
C864 C847 1.574 . S
C864 H858 0.949 . S
C864 C868 1.368 . S
C865 C846 1.429 . S
C865 C859 1.429 . S
C865 C866 1.523 . S
C866 C847 1.368 . S
C866 C860 1.368 . S
C866 C865 1.523 . S
C867 C851 1.429 . S
C867 C863 1.429 . S
C867 C868 1.523 . S
C868 C852 1.368 . S
C868 C864 1.368 . S
C868 C867 1.523 . S
H869 C844 0.950 . S
H870 C846 0.950 . S
H871 C847 0.949 . S
H872 C849 0.950 . S
H873 C851 0.950 . S
C874 C875 1.349 . S
C874 C876 1.327 . S
C874 H899 0.950 . S
C875 C874 1.349 . S
C875 C891 1.349 . S
C876 C874 1.327 . S
C876 C895 1.429 . S
C876 H900 0.950 . S
C877 C894 1.574 . S
C877 C896 1.368 . S
C877 H901 0.949 . S
H878 C882 0.949 . S
C879 C880 1.349 . S
C879 C881 1.327 1_554 S
C879 H902 0.950 . S
C880 C879 1.349 . S
C880 C892 1.349 . S
C881 C879 1.327 1_556 S
C881 C897 1.429 . S
C881 H903 0.950 . S
C882 H878 0.949 . S
C882 C890 1.574 . S
C882 C898 1.368 . S
H883 C891 0.950 . S
H884 C889 0.950 . S
H885 C890 0.949 . S
H886 C892 0.950 . S
H887 C893 0.950 . S
H888 C894 0.949 . S
C889 H884 0.950 . S
C889 C891 1.327 . S
C889 C895 1.429 . S
C890 C882 1.574 . S
C890 H885 0.949 . S
C890 C896 1.368 . S
C891 C875 1.349 . S
C891 H883 0.950 . S
C891 C889 1.327 . S
C892 C880 1.349 . S
C892 H886 0.950 . S
C892 C893 1.327 1_554 S
C893 H887 0.950 . S
C893 C892 1.327 1_556 S
C893 C897 1.429 . S
C894 C877 1.574 . S
C894 H888 0.949 . S
C894 C898 1.368 . S
C895 C876 1.429 . S
C895 C889 1.429 . S
C895 C896 1.523 . S
C896 C877 1.368 . S
C896 C890 1.368 . S
C896 C895 1.523 . S
C897 C881 1.429 . S
C897 C893 1.429 . S
C897 C898 1.523 . S
C898 C882 1.368 . S
C898 C894 1.368 . S
C898 C897 1.523 . S
H899 C874 0.950 . S
H900 C876 0.950 . S
H901 C877 0.949 . S
H902 C879 0.950 . S
H903 C881 0.950 . S
C904 C905 1.349 . S
C904 C906 1.327 . S
C904 H929 0.950 . S
C905 C904 1.349 . S
C905 C921 1.349 . S
C906 C904 1.327 . S
C906 C925 1.429 . S
C906 H930 0.950 . S
C907 C924 1.574 . S
C907 C926 1.368 . S
C907 H931 0.949 . S
H908 C912 0.949 . S
C909 C910 1.349 . S
C909 C911 1.327 . S
C909 H932 0.950 . S
C910 C909 1.349 . S
C910 C922 1.349 . S
C911 C909 1.327 . S
C911 C927 1.429 . S
C911 H933 0.950 . S
C912 H908 0.949 . S
C912 C920 1.574 . S
C912 C928 1.368 . S
H913 C921 0.950 . S
H914 C919 0.950 . S
H915 C920 0.949 . S
H916 C922 0.950 . S
H917 C923 0.950 . S
H918 C924 0.949 . S
C919 H914 0.950 . S
C919 C921 1.327 . S
C919 C925 1.429 . S
C920 C912 1.574 . S
C920 H915 0.949 . S
C920 C926 1.368 . S
C921 C905 1.349 . S
C921 H913 0.950 . S
C921 C919 1.327 . S
C922 C910 1.349 . S
C922 H916 0.950 . S
C922 C923 1.327 . S
C923 H917 0.950 . S
C923 C922 1.327 . S
C923 C927 1.429 . S
C924 C907 1.574 . S
C924 H918 0.949 . S
C924 C928 1.368 . S
C925 C906 1.429 . S
C925 C919 1.429 . S
C925 C926 1.523 . S
C926 C907 1.368 . S
C926 C920 1.368 . S
C926 C925 1.523 . S
C927 C911 1.429 . S
C927 C923 1.429 . S
C927 C928 1.523 1_556 S
C928 C912 1.368 . S
C928 C924 1.368 . S
C928 C927 1.523 1_554 S
H929 C904 0.950 . S
H930 C906 0.950 . S
H931 C907 0.949 . S
H932 C909 0.950 . S
H933 C911 0.950 . S
C934 C935 1.349 . S
C934 C936 1.327 . S
C934 H959 0.950 . S
C935 C934 1.349 . S
C935 C951 1.349 . S
C936 C934 1.327 . S
C936 C955 1.429 . S
C936 H960 0.950 . S
C937 C954 1.574 . S
C937 C956 1.368 . S
C937 H961 0.949 . S
H938 C942 0.949 . S
C939 C940 1.349 . S
C939 C941 1.327 . S
C939 H962 0.950 . S
C940 C939 1.349 . S
C940 C952 1.349 . S
C941 C939 1.327 . S
C941 C957 1.429 . S
C941 H963 0.950 . S
C942 H938 0.949 . S
C942 C950 1.574 . S
C942 C958 1.368 . S
H943 C951 0.950 . S
H944 C949 0.950 . S
H945 C950 0.949 . S
H946 C952 0.950 . S
H947 C953 0.950 . S
H948 C954 0.949 . S
C949 H944 0.950 . S
C949 C951 1.327 . S
C949 C955 1.429 . S
C950 C942 1.574 . S
C950 H945 0.949 . S
C950 C956 1.368 . S
C951 C935 1.349 . S
C951 H943 0.950 . S
C951 C949 1.327 . S
C952 C940 1.349 . S
C952 H946 0.950 . S
C952 C953 1.327 . S
C953 H947 0.950 . S
C953 C952 1.327 . S
C953 C957 1.429 . S
C954 C937 1.574 . S
C954 H948 0.949 . S
C954 C958 1.368 . S
C955 C936 1.429 . S
C955 C949 1.429 . S
C955 C956 1.523 . S
C956 C937 1.368 . S
C956 C950 1.368 . S
C956 C955 1.523 . S
C957 C941 1.429 . S
C957 C953 1.429 . S
C957 C958 1.523 1_554 S
C958 C942 1.368 . S
C958 C954 1.368 . S
C958 C957 1.523 1_556 S
H959 C934 0.950 . S
H960 C936 0.950 . S
H961 C937 0.949 . S
H962 C939 0.950 . S
H963 C941 0.950 . S
C964 C965 1.349 . S
C964 C966 1.327 . S
C964 H989 0.950 . S
C965 C964 1.349 . S
C965 C981 1.349 . S
C966 C964 1.327 . S
C966 C985 1.429 . S
C966 H990 0.950 . S
C967 C984 1.574 . S
C967 C986 1.368 . S
C967 H991 0.949 . S
H968 C972 0.949 . S
C969 C970 1.349 . S
C969 C971 1.327 . S
C969 H992 0.950 . S
C970 C969 1.349 . S
C970 C982 1.349 . S
C971 C969 1.327 . S
C971 C987 1.429 . S
C971 H993 0.950 . S
C972 H968 0.949 . S
C972 C980 1.574 . S
C972 C988 1.368 . S
H973 C981 0.950 . S
H974 C979 0.950 . S
H975 C980 0.949 . S
H976 C982 0.950 . S
H977 C983 0.950 . S
H978 C984 0.949 . S
C979 H974 0.950 . S
C979 C981 1.327 . S
C979 C985 1.429 . S
C980 C972 1.574 . S
C980 H975 0.949 . S
C980 C986 1.368 . S
C981 C965 1.349 . S
C981 H973 0.950 . S
C981 C979 1.327 . S
C982 C970 1.349 . S
C982 H976 0.950 . S
C982 C983 1.327 . S
C983 H977 0.950 . S
C983 C982 1.327 . S
C983 C987 1.429 . S
C984 C967 1.574 . S
C984 H978 0.949 . S
C984 C988 1.368 . S
C985 C966 1.429 . S
C985 C979 1.429 . S
C985 C986 1.523 1_556 S
C986 C967 1.368 . S
C986 C980 1.368 . S
C986 C985 1.523 1_554 S
C987 C971 1.429 . S
C987 C983 1.429 . S
C987 C988 1.523 . S
C988 C972 1.368 . S
C988 C984 1.368 . S
C988 C987 1.523 . S
H989 C964 0.950 . S
H990 C966 0.950 . S
H991 C967 0.949 . S
H992 C969 0.950 . S
H993 C971 0.950 . S
C994 C995 1.349 . S
C994 C996 1.327 . S
C994 H1019 0.950 . S
C995 C994 1.349 . S
C995 C1011 1.349 . S
C996 C994 1.327 . S
C996 C1015 1.429 . S
C996 H1020 0.950 . S
C997 C1014 1.574 . S
C997 C1016 1.368 . S
C997 H1021 0.949 . S
H998 C1002 0.949 . S
C999 C1000 1.349 . S
C999 C1001 1.327 . S
C999 H1022 0.950 . S
C1000 C999 1.349 . S
C1000 C1012 1.349 . S
C1001 C999 1.327 . S
C1001 C1017 1.429 . S
C1001 H1023 0.950 . S
C1002 H998 0.949 . S
C1002 C1010 1.574 . S
C1002 C1018 1.368 . S
H1003 C1011 0.950 . S
H1004 C1009 0.950 . S
H1005 C1010 0.949 . S
H1006 C1012 0.950 . S
H1007 C1013 0.950 . S
H1008 C1014 0.949 . S
C1009 H1004 0.950 . S
C1009 C1011 1.327 . S
C1009 C1015 1.429 . S
C1010 C1002 1.574 . S
C1010 H1005 0.949 . S
C1010 C1016 1.368 . S
C1011 C995 1.349 . S
C1011 H1003 0.950 . S
C1011 C1009 1.327 . S
C1012 C1000 1.349 . S
C1012 H1006 0.950 . S
C1012 C1013 1.327 . S
C1013 H1007 0.950 . S
C1013 C1012 1.327 . S
C1013 C1017 1.429 . S
C1014 C997 1.574 . S
C1014 H1008 0.949 . S
C1014 C1018 1.368 . S
C1015 C996 1.429 . S
C1015 C1009 1.429 . S
C1015 C1016 1.523 . S
C1016 C997 1.368 . S
C1016 C1010 1.368 . S
C1016 C1015 1.523 . S
C1017 C1001 1.429 . S
C1017 C1013 1.429 . S
C1017 C1018 1.523 1_554 S
C1018 C1002 1.368 . S
C1018 C1014 1.368 . S
C1018 C1017 1.523 1_556 S
H1019 C994 0.950 . S
H1020 C996 0.950 . S
H1021 C997 0.949 . S
H1022 C999 0.950 . S
H1023 C1001 0.950 . S
C1024 C1025 1.349 . S
C1024 C1026 1.327 . S
C1024 H1049 0.950 . S
C1025 C1024 1.349 . S
C1025 C1041 1.349 . S
C1026 C1024 1.327 . S
C1026 C1045 1.429 . S
C1026 H1050 0.950 . S
C1027 C1044 1.574 . S
C1027 C1046 1.368 . S
C1027 H1051 0.949 . S
H1028 C1032 0.949 . S
C1029 C1030 1.349 . S
C1029 C1031 1.317 1_545 S
C1029 H1052 0.950 . S
C1030 C1029 1.349 . S
C1030 C1042 1.349 . S
C1031 C1029 1.317 1_565 S
C1031 C1047 1.432 . S
C1031 H1053 0.956 . S
C1032 H1028 0.949 . S
C1032 C1040 1.574 . S
C1032 C1048 1.368 . S
H1033 C1041 0.950 . S
H1034 C1039 0.950 . S
H1035 C1040 0.949 . S
H1036 C1042 0.950 . S
H1037 C1043 0.950 . S
H1038 C1044 0.949 . S
C1039 H1034 0.950 . S
C1039 C1041 1.327 . S
C1039 C1045 1.429 . S
C1040 C1032 1.574 . S
C1040 H1035 0.949 . S
C1040 C1046 1.368 . S
C1041 C1025 1.349 . S
C1041 H1033 0.950 . S
C1041 C1039 1.327 . S
C1042 C1030 1.349 . S
C1042 H1036 0.950 . S
C1042 C1043 1.327 . S
C1043 H1037 0.950 . S
C1043 C1042 1.327 . S
C1043 C1047 1.429 1_545 S
C1044 C1027 1.574 . S
C1044 H1038 0.949 . S
C1044 C1048 1.368 . S
C1045 C1026 1.429 . S
C1045 C1039 1.429 . S
C1045 C1046 1.523 . S
C1046 C1027 1.368 . S
C1046 C1040 1.368 . S
C1046 C1045 1.523 . S
C1047 C1031 1.432 . S
C1047 C1043 1.429 1_565 S
C1047 C1048 1.523 . S
C1048 C1032 1.368 . S
C1048 C1044 1.368 . S
C1048 C1047 1.523 . S
H1049 C1024 0.950 . S
H1050 C1026 0.950 . S
H1051 C1027 0.949 . S
H1052 C1029 0.950 . S
H1053 C1031 0.956 . S
C1054 C1055 1.349 . S
C1054 C1056 1.327 . S
C1054 H1079 0.950 . S
C1055 C1054 1.349 . S
C1055 C1071 1.349 . S
C1056 C1054 1.327 . S
C1056 C1075 1.429 . S
C1056 H1080 0.950 . S
C1057 C1074 1.574 . S
C1057 C1076 1.368 . S
C1057 H1081 0.949 . S
H1058 C1062 0.949 . S
C1059 C1060 1.349 . S
C1059 C1061 1.327 . S
C1059 H1082 0.950 . S
C1060 C1059 1.349 . S
C1060 C1072 1.349 . S
C1061 C1059 1.327 . S
C1061 C1077 1.429 1_455 S
C1061 H1083 0.950 . S
C1062 H1058 0.949 . S
C1062 C1070 1.574 . S
C1062 C1078 1.368 . S
H1063 C1071 0.950 . S
H1064 C1069 0.950 . S
H1065 C1070 0.949 . S
H1066 C1072 0.950 . S
H1067 C1073 0.945 1_655 S
H1068 C1074 0.949 . S
C1069 H1064 0.950 . S
C1069 C1071 1.327 . S
C1069 C1075 1.429 . S
C1070 C1062 1.574 . S
C1070 H1065 0.949 . S
C1070 C1076 1.368 . S
C1071 C1055 1.349 . S
C1071 H1063 0.950 . S
C1071 C1069 1.327 . S
C1072 C1060 1.349 . S
C1072 H1066 0.950 . S
C1072 C1073 1.335 . S
C1073 H1067 0.945 1_455 S
C1073 C1072 1.335 . S
C1073 C1077 1.425 1_455 S
C1074 C1057 1.574 . S
C1074 H1068 0.949 . S
C1074 C1078 1.368 . S
C1075 C1056 1.429 . S
C1075 C1069 1.429 . S
C1075 C1076 1.523 . S
C1076 C1057 1.368 . S
C1076 C1070 1.368 . S
C1076 C1075 1.523 . S
C1077 C1061 1.429 1_655 S
C1077 C1073 1.425 1_655 S
C1077 C1078 1.523 . S
C1078 C1062 1.368 . S
C1078 C1074 1.368 . S
C1078 C1077 1.523 . S
H1079 C1054 0.950 . S
H1080 C1056 0.950 . S
H1081 C1057 0.949 . S
H1082 C1059 0.950 . S
H1083 C1061 0.950 . S
C1084 C1085 1.349 . S
C1084 C1086 1.327 . S
C1084 H1109 0.950 . S
C1085 C1084 1.349 . S
C1085 C1101 1.349 . S
C1086 C1084 1.327 . S
C1086 C1105 1.429 . S
C1086 H1110 0.950 . S
C1087 C1104 1.574 . S
C1087 C1106 1.368 . S
C1087 H1111 0.949 . S
H1088 C1092 0.949 . S
C1089 C1090 1.349 . S
C1089 C1091 1.327 . S
C1089 H1112 0.950 . S
C1090 C1089 1.349 . S
C1090 C1102 1.349 . S
C1091 C1089 1.327 . S
C1091 C1107 1.429 1_565 S
C1091 H1113 0.950 . S
C1092 H1088 0.949 . S
C1092 C1100 1.574 . S
C1092 C1108 1.368 . S
H1093 C1101 0.950 . S
H1094 C1099 0.950 . S
H1095 C1100 0.949 . S
H1096 C1102 0.950 . S
H1097 C1103 0.956 . S
H1098 C1104 0.949 . S
C1099 H1094 0.950 . S
C1099 C1101 1.327 . S
C1099 C1105 1.429 . S
C1100 C1092 1.574 . S
C1100 H1095 0.949 . S
C1100 C1106 1.368 . S
C1101 C1085 1.349 . S
C1101 H1093 0.950 . S
C1101 C1099 1.327 . S
C1102 C1090 1.349 . S
C1102 H1096 0.950 . S
C1102 C1103 1.317 1_565 S
C1103 H1097 0.956 . S
C1103 C1102 1.317 1_545 S
C1103 C1107 1.432 . S
C1104 C1087 1.574 . S
C1104 H1098 0.949 . S
C1104 C1108 1.368 . S
C1105 C1086 1.429 . S
C1105 C1099 1.429 . S
C1105 C1106 1.523 . S
C1106 C1087 1.368 . S
C1106 C1100 1.368 . S
C1106 C1105 1.523 . S
C1107 C1091 1.429 1_545 S
C1107 C1103 1.432 . S
C1107 C1108 1.523 . S
C1108 C1092 1.368 . S
C1108 C1104 1.368 . S
C1108 C1107 1.523 . S
H1109 C1084 0.950 . S
H1110 C1086 0.950 . S
H1111 C1087 0.949 . S
H1112 C1089 0.950 . S
H1113 C1091 0.950 . S
C1114 C1115 1.349 . S
C1114 C1116 1.327 . S
C1114 H1139 0.950 . S
C1115 C1114 1.349 . S
C1115 C1131 1.349 . S
C1116 C1114 1.327 . S
C1116 C1135 1.429 . S
C1116 H1140 0.950 . S
C1117 C1134 1.574 . S
C1117 C1136 1.368 . S
C1117 H1141 0.949 . S
H1118 C1122 0.949 . S
C1119 C1120 1.349 . S
C1119 C1121 1.327 . S
C1119 H1142 0.950 . S
C1120 C1119 1.349 . S
C1120 C1132 1.349 . S
C1121 C1119 1.327 . S
C1121 C1137 1.429 1_655 S
C1121 H1143 0.952 1_655 S
C1122 H1118 0.949 . S
C1122 C1130 1.574 . S
C1122 C1138 1.368 . S
H1123 C1131 0.950 . S
H1124 C1129 0.950 . S
H1125 C1130 0.949 . S
H1126 C1132 0.950 . S
H1127 C1133 0.917 1_455 S
H1128 C1134 0.949 . S
C1129 H1124 0.950 . S
C1129 C1131 1.327 . S
C1129 C1135 1.429 . S
C1130 C1122 1.574 . S
C1130 H1125 0.949 . S
C1130 C1136 1.368 . S
C1131 C1115 1.349 . S
C1131 H1123 0.950 . S
C1131 C1129 1.327 . S
C1132 C1120 1.349 . S
C1132 H1126 0.950 . S
C1132 C1133 1.386 . S
C1133 H1127 0.917 1_655 S
C1133 C1132 1.386 . S
C1133 C1137 1.403 1_655 S
C1134 C1117 1.574 . S
C1134 H1128 0.949 . S
C1134 C1138 1.368 . S
C1135 C1116 1.429 . S
C1135 C1129 1.429 . S
C1135 C1136 1.523 . S
C1136 C1117 1.368 . S
C1136 C1130 1.368 . S
C1136 C1135 1.523 . S
C1137 C1121 1.429 1_455 S
C1137 C1133 1.403 1_455 S
C1137 C1138 1.523 . S
C1138 C1122 1.368 . S
C1138 C1134 1.368 . S
C1138 C1137 1.523 . S
H1139 C1114 0.950 . S
H1140 C1116 0.950 . S
H1141 C1117 0.949 . S
H1142 C1119 0.950 . S
H1143 C1121 0.952 1_455 S
C1144 C1145 1.349 . S
C1144 C1146 1.327 . S
C1144 H1169 0.950 . S
C1145 C1144 1.349 . S
C1145 C1161 1.349 1_556 S
C1146 C1144 1.327 . S
C1146 C1165 1.429 . S
C1146 H1170 0.950 . S
C1147 C1164 1.575 . S
C1147 C1166 1.368 1_554 S
C1147 H1171 0.949 . S
H1148 C1152 0.949 . S
C1149 C1150 1.349 . S
C1149 C1151 1.327 . S
C1149 H1172 0.950 1_556 S
C1150 C1149 1.349 . S
C1150 C1162 1.349 . S
C1151 C1149 1.327 . S
C1151 C1167 1.429 . S
C1151 H1173 0.950 1_556 S
C1152 H1148 0.949 . S
C1152 C1160 1.574 . S
C1152 C1168 1.368 . S
H1153 C1161 0.950 . S
H1154 C1159 0.950 . S
H1155 C1160 0.949 . S
H1156 C1162 0.950 . S
H1157 C1163 0.950 . S
H1158 C1164 0.961 . S
C1159 H1154 0.950 . S
C1159 C1161 1.327 . S
C1159 C1165 1.429 1_554 S
C1160 C1152 1.574 . S
C1160 H1155 0.949 . S
C1160 C1166 1.368 . S
C1161 C1145 1.349 1_554 S
C1161 H1153 0.950 . S
C1161 C1159 1.327 . S
C1162 C1150 1.349 . S
C1162 H1156 0.950 . S
C1162 C1163 1.327 . S
C1163 H1157 0.950 . S
C1163 C1162 1.327 . S
C1163 C1167 1.429 . S
C1164 C1147 1.575 . S
C1164 H1158 0.961 . S
C1164 C1168 1.354 1_554 S
C1165 C1146 1.429 . S
C1165 C1159 1.429 1_556 S
C1165 C1166 1.523 . S
C1166 C1147 1.368 1_556 S
C1166 C1160 1.368 . S
C1166 C1165 1.523 . S
C1167 C1151 1.429 . S
C1167 C1163 1.429 . S
C1167 C1168 1.523 . S
C1168 C1152 1.368 . S
C1168 C1164 1.354 1_556 S
C1168 C1167 1.523 . S
H1169 C1144 0.950 . S
H1170 C1146 0.950 . S
H1171 C1147 0.949 . S
H1172 C1149 0.950 1_554 S
H1173 C1151 0.950 1_554 S
C1174 C1175 1.349 . S
C1174 C1176 1.327 . S
C1174 H1199 0.950 . S
C1175 C1174 1.349 . S
C1175 C1191 1.349 1_554 S
C1176 C1174 1.327 . S
C1176 C1195 1.429 . S
C1176 H1200 0.950 . S
C1177 C1194 1.574 . S
C1177 C1196 1.368 1_556 S
C1177 H1201 0.949 . S
H1178 C1182 0.949 . S
C1179 C1180 1.349 . S
C1179 C1181 1.327 . S
C1179 H1202 0.950 1_554 S
C1180 C1179 1.349 . S
C1180 C1192 1.349 . S
C1181 C1179 1.327 . S
C1181 C1197 1.429 . S
C1181 H1203 0.950 1_554 S
C1182 H1178 0.949 . S
C1182 C1190 1.574 . S
C1182 C1198 1.368 . S
H1183 C1191 0.950 . S
H1184 C1189 0.950 . S
H1185 C1190 0.949 . S
H1186 C1192 0.950 . S
H1187 C1193 0.950 . S
H1188 C1194 0.949 . S
C1189 H1184 0.950 . S
C1189 C1191 1.327 . S
C1189 C1195 1.429 1_556 S
C1190 C1182 1.574 . S
C1190 H1185 0.949 . S
C1190 C1196 1.368 . S
C1191 C1175 1.349 1_556 S
C1191 H1183 0.950 . S
C1191 C1189 1.327 . S
C1192 C1180 1.349 . S
C1192 H1186 0.950 . S
C1192 C1193 1.327 . S
C1193 H1187 0.950 . S
C1193 C1192 1.327 . S
C1193 C1197 1.429 . S
C1194 C1177 1.574 . S
C1194 H1188 0.949 . S
C1194 C1198 1.368 1_556 S
C1195 C1176 1.429 . S
C1195 C1189 1.429 1_554 S
C1195 C1196 1.523 . S
C1196 C1177 1.368 1_554 S
C1196 C1190 1.368 . S
C1196 C1195 1.523 . S
C1197 C1181 1.429 . S
C1197 C1193 1.429 . S
C1197 C1198 1.523 . S
C1198 C1182 1.368 . S
C1198 C1194 1.368 1_554 S
C1198 C1197 1.523 . S
H1199 C1174 0.950 . S
H1200 C1176 0.950 . S
H1201 C1177 0.949 . S
H1202 C1179 0.950 1_556 S
H1203 C1181 0.950 1_556 S
C1204 C1205 1.349 . S
C1204 C1206 1.327 . S
C1204 H1229 0.950 . S
C1205 C1204 1.349 . S
C1205 C1221 1.349 1_556 S
C1206 C1204 1.327 . S
C1206 C1225 1.429 . S
C1206 H1230 0.950 . S
C1207 C1224 1.574 1_554 S
C1207 C1226 1.368 1_554 S
C1207 H1231 0.949 . S
H1208 C1212 0.949 . S
C1209 C1210 1.349 . S
C1209 C1211 1.327 . S
C1209 H1232 0.950 1_556 S
C1210 C1209 1.349 . S
C1210 C1222 1.349 . S
C1211 C1209 1.327 . S
C1211 C1227 1.429 . S
C1211 H1233 0.950 1_556 S
C1212 H1208 0.949 . S
C1212 C1220 1.574 . S
C1212 C1228 1.368 . S
H1213 C1221 0.950 . S
H1214 C1219 0.950 . S
H1215 C1220 0.949 . S
H1216 C1222 0.950 . S
H1217 C1223 0.950 . S
H1218 C1224 0.949 1_554 S
C1219 H1214 0.950 . S
C1219 C1221 1.327 . S
C1219 C1225 1.429 1_554 S
C1220 C1212 1.574 . S
C1220 H1215 0.949 . S
C1220 C1226 1.368 . S
C1221 C1205 1.349 1_554 S
C1221 H1213 0.950 . S
C1221 C1219 1.327 . S
C1222 C1210 1.349 . S
C1222 H1216 0.950 . S
C1222 C1223 1.327 . S
C1223 H1217 0.950 . S
C1223 C1222 1.327 . S
C1223 C1227 1.429 . S
C1224 C1207 1.574 1_556 S
C1224 H1218 0.949 1_556 S
C1224 C1228 1.368 . S
C1225 C1206 1.429 . S
C1225 C1219 1.429 1_556 S
C1225 C1226 1.523 . S
C1226 C1207 1.368 1_556 S
C1226 C1220 1.368 . S
C1226 C1225 1.523 . S
C1227 C1211 1.429 . S
C1227 C1223 1.429 . S
C1227 C1228 1.523 . S
C1228 C1212 1.368 . S
C1228 C1224 1.368 . S
C1228 C1227 1.523 . S
H1229 C1204 0.950 . S
H1230 C1206 0.950 . S
H1231 C1207 0.949 . S
H1232 C1209 0.950 1_554 S
H1233 C1211 0.950 1_554 S
C1234 C1235 1.349 1_556 S
C1234 C1236 1.327 . S
C1234 H1259 0.950 . S
C1235 C1234 1.349 1_554 S
C1235 C1251 1.349 . S
C1236 C1234 1.327 . S
C1236 C1255 1.429 1_556 S
C1236 H1260 0.950 . S
C1237 C1254 1.574 . S
C1237 C1256 1.368 . S
C1237 H1261 0.949 . S
H1238 C1242 0.949 . S
C1239 C1240 1.349 . S
C1239 C1241 1.327 . S
C1239 H1262 0.950 . S
C1240 C1239 1.349 . S
C1240 C1252 1.349 . S
C1241 C1239 1.327 . S
C1241 C1257 1.429 . S
C1241 H1263 0.950 . S
C1242 H1238 0.949 . S
C1242 C1250 1.574 . S
C1242 C1258 1.368 1_556 S
H1243 C1251 0.950 . S
H1244 C1249 0.950 . S
H1245 C1250 0.949 . S
H1246 C1252 0.950 1_556 S
H1247 C1253 0.950 1_556 S
H1248 C1254 0.949 . S
C1249 H1244 0.950 . S
C1249 C1251 1.327 . S
C1249 C1255 1.429 . S
C1250 C1242 1.574 . S
C1250 H1245 0.949 . S
C1250 C1256 1.368 1_556 S
C1251 C1235 1.349 . S
C1251 H1243 0.950 . S
C1251 C1249 1.327 . S
C1252 C1240 1.349 . S
C1252 H1246 0.950 1_554 S
C1252 C1253 1.327 . S
C1253 H1247 0.950 1_554 S
C1253 C1252 1.327 . S
C1253 C1257 1.429 . S
C1254 C1237 1.574 . S
C1254 H1248 0.949 . S
C1254 C1258 1.368 . S
C1255 C1236 1.429 1_554 S
C1255 C1249 1.429 . S
C1255 C1256 1.523 . S
C1256 C1237 1.368 . S
C1256 C1250 1.368 1_554 S
C1256 C1255 1.523 . S
C1257 C1241 1.429 . S
C1257 C1253 1.429 . S
C1257 C1258 1.523 . S
C1258 C1242 1.368 1_554 S
C1258 C1254 1.368 . S
C1258 C1257 1.523 . S
H1259 C1234 0.950 . S
H1260 C1236 0.950 . S
H1261 C1237 0.949 . S
H1262 C1239 0.950 . S
H1263 C1241 0.950 . S
C1264 C1265 1.349 . S
C1264 C1266 1.327 . S
C1264 H1289 0.950 . S
C1265 C1264 1.349 . S
C1265 C1281 1.349 . S
C1266 C1264 1.327 . S
C1266 C1285 1.429 . S
C1266 H1290 0.950 . S
C1267 C1284 1.574 . S
C1267 C1286 1.368 . S
C1267 H1291 0.949 . S
H1268 C1272 0.949 . S
C1269 C1270 1.349 . S
C1269 C1271 1.327 . S
C1269 H1292 0.950 . S
C1270 C1269 1.349 . S
C1270 C1282 1.349 . S
C1271 C1269 1.327 . S
C1271 C1287 1.429 . S
C1271 H1293 0.950 . S
C1272 H1268 0.949 . S
C1272 C1280 1.574 . S
C1272 C1288 1.368 . S
H1273 C1281 0.950 . S
H1274 C1279 0.950 . S
H1275 C1280 0.949 . S
H1276 C1282 0.950 . S
H1277 C1283 0.950 . S
H1278 C1284 0.949 . S
C1279 H1274 0.950 . S
C1279 C1281 1.327 . S
C1279 C1285 1.429 . S
C1280 C1272 1.574 . S
C1280 H1275 0.949 . S
C1280 C1286 1.368 . S
C1281 C1265 1.349 . S
C1281 H1273 0.950 . S
C1281 C1279 1.327 . S
C1282 C1270 1.349 . S
C1282 H1276 0.950 . S
C1282 C1283 1.327 . S
C1283 H1277 0.950 . S
C1283 C1282 1.327 . S
C1283 C1287 1.429 . S
C1284 C1267 1.574 . S
C1284 H1278 0.949 . S
C1284 C1288 1.368 . S
C1285 C1266 1.429 . S
C1285 C1279 1.429 . S
C1285 C1286 1.523 . S
C1286 C1267 1.368 . S
C1286 C1280 1.368 . S
C1286 C1285 1.523 . S
C1287 C1271 1.429 . S
C1287 C1283 1.429 . S
C1287 C1288 1.523 . S
C1288 C1272 1.368 . S
C1288 C1284 1.368 . S
C1288 C1287 1.523 . S
H1289 C1264 0.950 . S
H1290 C1266 0.950 . S
H1291 C1267 0.949 . S
H1292 C1269 0.950 . S
H1293 C1271 0.950 . S
C1294 C1295 1.349 . S
C1294 C1296 1.327 . S
C1294 H1319 0.950 . S
C1295 C1294 1.349 . S
C1295 C1311 1.349 . S
C1296 C1294 1.327 . S
C1296 C1315 1.429 . S
C1296 H1320 0.950 . S
C1297 C1314 1.574 . S
C1297 C1316 1.368 . S
C1297 H1321 0.949 . S
H1298 C1302 0.949 . S
C1299 C1300 1.349 . S
C1299 C1301 1.327 . S
C1299 H1322 0.950 . S
C1300 C1299 1.349 . S
C1300 C1312 1.349 . S
C1301 C1299 1.327 . S
C1301 C1317 1.429 . S
C1301 H1323 0.950 . S
C1302 H1298 0.949 . S
C1302 C1310 1.574 . S
C1302 C1318 1.368 . S
H1303 C1311 0.950 . S
H1304 C1309 0.950 . S
H1305 C1310 0.949 . S
H1306 C1312 0.950 . S
H1307 C1313 0.950 . S
H1308 C1314 0.949 . S
C1309 H1304 0.950 . S
C1309 C1311 1.327 . S
C1309 C1315 1.429 . S
C1310 C1302 1.574 . S
C1310 H1305 0.949 . S
C1310 C1316 1.368 . S
C1311 C1295 1.349 . S
C1311 H1303 0.950 . S
C1311 C1309 1.327 . S
C1312 C1300 1.349 . S
C1312 H1306 0.950 . S
C1312 C1313 1.327 . S
C1313 H1307 0.950 . S
C1313 C1312 1.327 . S
C1313 C1317 1.429 . S
C1314 C1297 1.574 . S
C1314 H1308 0.949 . S
C1314 C1318 1.368 . S
C1315 C1296 1.429 . S
C1315 C1309 1.429 . S
C1315 C1316 1.523 . S
C1316 C1297 1.368 . S
C1316 C1310 1.368 . S
C1316 C1315 1.523 . S
C1317 C1301 1.429 . S
C1317 C1313 1.429 . S
C1317 C1318 1.523 . S
C1318 C1302 1.368 . S
C1318 C1314 1.368 . S
C1318 C1317 1.523 . S
H1319 C1294 0.950 . S
H1320 C1296 0.950 . S
H1321 C1297 0.949 . S
H1322 C1299 0.950 . S
H1323 C1301 0.950 . S
C1324 C1325 1.349 . S
C1324 C1326 1.327 . S
C1324 H1349 0.950 . S
C1325 C1324 1.349 . S
C1325 C1341 1.349 . S
C1326 C1324 1.327 . S
C1326 C1345 1.429 . S
C1326 H1350 0.950 . S
C1327 C1344 1.574 . S
C1327 C1346 1.368 . S
C1327 H1351 0.949 . S
H1328 C1332 0.949 . S
C1329 C1330 1.349 . S
C1329 C1331 1.327 . S
C1329 H1352 0.950 . S
C1330 C1329 1.349 . S
C1330 C1342 1.349 . S
C1331 C1329 1.327 . S
C1331 C1347 1.429 . S
C1331 H1353 0.950 . S
C1332 H1328 0.949 . S
C1332 C1340 1.574 . S
C1332 C1348 1.368 . S
H1333 C1341 0.950 . S
H1334 C1339 0.950 . S
H1335 C1340 0.949 . S
H1336 C1342 0.950 . S
H1337 C1343 0.950 . S
H1338 C1344 0.949 . S
C1339 H1334 0.950 . S
C1339 C1341 1.327 . S
C1339 C1345 1.429 . S
C1340 C1332 1.574 . S
C1340 H1335 0.949 . S
C1340 C1346 1.368 . S
C1341 C1325 1.349 . S
C1341 H1333 0.950 . S
C1341 C1339 1.327 . S
C1342 C1330 1.349 . S
C1342 H1336 0.950 . S
C1342 C1343 1.327 . S
C1343 H1337 0.950 . S
C1343 C1342 1.327 . S
C1343 C1347 1.429 . S
C1344 C1327 1.574 . S
C1344 H1338 0.949 . S
C1344 C1348 1.368 . S
C1345 C1326 1.429 . S
C1345 C1339 1.429 . S
C1345 C1346 1.523 . S
C1346 C1327 1.368 . S
C1346 C1340 1.368 . S
C1346 C1345 1.523 . S
C1347 C1331 1.429 . S
C1347 C1343 1.429 . S
C1347 C1348 1.523 . S
C1348 C1332 1.368 . S
C1348 C1344 1.368 . S
C1348 C1347 1.523 . S
H1349 C1324 0.950 . S
H1350 C1326 0.950 . S
H1351 C1327 0.949 . S
H1352 C1329 0.950 . S
H1353 C1331 0.950 . S
C1354 C1355 1.349 . S
C1354 C1356 1.327 . S
C1354 H1379 0.950 . S
C1355 C1354 1.349 . S
C1355 C1371 1.349 . S
C1356 C1354 1.327 . S
C1356 C1375 1.429 . S
C1356 H1380 0.950 . S
C1357 C1374 1.574 . S
C1357 C1376 1.368 . S
C1357 H1381 0.949 . S
H1358 C1362 0.949 . S
C1359 C1360 1.349 . S
C1359 C1361 1.327 . S
C1359 H1382 0.950 . S
C1360 C1359 1.349 . S
C1360 C1372 1.349 . S
C1361 C1359 1.327 . S
C1361 C1377 1.429 . S
C1361 H1383 0.950 . S
C1362 H1358 0.949 . S
C1362 C1370 1.574 . S
C1362 C1378 1.368 . S
H1363 C1371 0.950 . S
H1364 C1369 0.950 . S
H1365 C1370 0.949 . S
H1366 C1372 0.950 . S
H1367 C1373 0.950 . S
H1368 C1374 0.949 . S
C1369 H1364 0.950 . S
C1369 C1371 1.327 . S
C1369 C1375 1.429 . S
C1370 C1362 1.574 . S
C1370 H1365 0.949 . S
C1370 C1376 1.368 . S
C1371 C1355 1.349 . S
C1371 H1363 0.950 . S
C1371 C1369 1.327 . S
C1372 C1360 1.349 . S
C1372 H1366 0.950 . S
C1372 C1373 1.327 . S
C1373 H1367 0.950 . S
C1373 C1372 1.327 . S
C1373 C1377 1.429 . S
C1374 C1357 1.574 . S
C1374 H1368 0.949 . S
C1374 C1378 1.368 . S
C1375 C1356 1.429 . S
C1375 C1369 1.429 . S
C1375 C1376 1.523 . S
C1376 C1357 1.368 . S
C1376 C1370 1.368 . S
C1376 C1375 1.523 . S
C1377 C1361 1.429 . S
C1377 C1373 1.429 . S
C1377 C1378 1.523 . S
C1378 C1362 1.368 . S
C1378 C1374 1.368 . S
C1378 C1377 1.523 . S
H1379 C1354 0.950 . S
H1380 C1356 0.950 . S
H1381 C1357 0.949 . S
H1382 C1359 0.950 . S
H1383 C1361 0.950 . S
C1384 C1385 1.349 . S
C1384 C1386 1.327 . S
C1384 H1409 0.950 . S
C1385 C1384 1.349 . S
C1385 C1401 1.349 . S
C1386 C1384 1.327 . S
C1386 C1405 1.429 1_565 S
C1386 H1410 0.950 1_565 S
C1387 C1404 1.574 . S
C1387 C1406 1.368 . S
C1387 H1411 0.949 . S
H1388 C1392 0.949 . S
C1389 C1390 1.349 . S
C1389 C1391 1.327 . S
C1389 H1412 0.950 . S
C1390 C1389 1.349 . S
C1390 C1402 1.349 . S
C1391 C1389 1.327 . S
C1391 C1407 1.429 . S
C1391 H1413 0.950 . S
C1392 H1388 0.949 . S
C1392 C1400 1.574 . S
C1392 C1408 1.368 . S
H1393 C1401 0.950 . S
H1394 C1399 0.950 1_545 S
H1395 C1400 0.949 . S
H1396 C1402 0.950 . S
H1397 C1403 0.950 . S
H1398 C1404 0.949 . S
C1399 H1394 0.950 1_565 S
C1399 C1401 1.327 . S
C1399 C1405 1.429 1_565 S
C1400 C1392 1.574 . S
C1400 H1395 0.949 . S
C1400 C1406 1.368 . S
C1401 C1385 1.349 . S
C1401 H1393 0.950 . S
C1401 C1399 1.327 . S
C1402 C1390 1.349 . S
C1402 H1396 0.950 . S
C1402 C1403 1.327 . S
C1403 H1397 0.950 . S
C1403 C1402 1.327 . S
C1403 C1407 1.429 . S
C1404 C1387 1.574 . S
C1404 H1398 0.949 . S
C1404 C1408 1.368 . S
C1405 C1386 1.429 1_545 S
C1405 C1399 1.429 1_545 S
C1405 C1406 1.523 . S
C1406 C1387 1.368 . S
C1406 C1400 1.368 . S
C1406 C1405 1.523 . S
C1407 C1391 1.429 . S
C1407 C1403 1.429 . S
C1407 C1408 1.523 . S
C1408 C1392 1.368 . S
C1408 C1404 1.368 . S
C1408 C1407 1.523 . S
H1409 C1384 0.950 . S
H1410 C1386 0.950 1_545 S
H1411 C1387 0.949 . S
H1412 C1389 0.950 . S
H1413 C1391 0.950 . S
C1414 C1415 1.349 . S
C1414 C1416 1.327 . S
C1414 H1439 0.950 . S
C1415 C1414 1.349 . S
C1415 C1431 1.349 . S
C1416 C1414 1.327 . S
C1416 C1435 1.429 . S
C1416 H1440 0.950 . S
C1417 C1434 1.574 . S
C1417 C1436 1.368 . S
C1417 H1441 0.949 . S
H1418 C1422 0.949 . S
C1419 C1420 1.349 . S
C1419 C1421 1.327 . S
C1419 H1442 0.950 . S
C1420 C1419 1.349 . S
C1420 C1432 1.349 . S
C1421 C1419 1.327 . S
C1421 C1437 1.429 1_655 S
C1421 H1443 0.950 1_655 S
C1422 H1418 0.949 . S
C1422 C1430 1.574 . S
C1422 C1438 1.368 . S
H1423 C1431 0.950 . S
H1424 C1429 0.950 . S
H1425 C1430 0.949 . S
H1426 C1432 0.950 . S
H1427 C1433 0.950 1_455 S
H1428 C1434 0.949 . S
C1429 H1424 0.950 . S
C1429 C1431 1.327 . S
C1429 C1435 1.429 . S
C1430 C1422 1.574 . S
C1430 H1425 0.949 . S
C1430 C1436 1.368 . S
C1431 C1415 1.349 . S
C1431 H1423 0.950 . S
C1431 C1429 1.327 . S
C1432 C1420 1.349 . S
C1432 H1426 0.950 . S
C1432 C1433 1.327 . S
C1433 H1427 0.950 1_655 S
C1433 C1432 1.327 . S
C1433 C1437 1.429 1_655 S
C1434 C1417 1.574 . S
C1434 H1428 0.949 . S
C1434 C1438 1.368 . S
C1435 C1416 1.429 . S
C1435 C1429 1.429 . S
C1435 C1436 1.523 . S
C1436 C1417 1.368 . S
C1436 C1430 1.368 . S
C1436 C1435 1.523 . S
C1437 C1421 1.429 1_455 S
C1437 C1433 1.429 1_455 S
C1437 C1438 1.523 . S
C1438 C1422 1.368 . S
C1438 C1434 1.368 . S
C1438 C1437 1.523 . S
H1439 C1414 0.950 . S
H1440 C1416 0.950 . S
H1441 C1417 0.949 . S
H1442 C1419 0.950 . S
H1443 C1421 0.950 1_455 S
C1444 C1445 1.349 . S
C1444 C1446 1.327 . S
C1444 H1469 0.950 . S
C1445 C1444 1.349 . S
C1445 C1461 1.349 . S
C1446 C1444 1.327 . S
C1446 C1465 1.429 1_545 S
C1446 H1470 0.931 1_545 S
C1447 C1464 1.574 . S
C1447 C1466 1.368 . S
C1447 H1471 0.949 . S
H1448 C1452 0.949 . S
C1449 C1450 1.349 . S
C1449 C1451 1.327 . S
C1449 H1472 0.950 . S
C1450 C1449 1.349 . S
C1450 C1462 1.349 . S
C1451 C1449 1.327 . S
C1451 C1467 1.429 . S
C1451 H1473 0.950 . S
C1452 H1448 0.949 . S
C1452 C1460 1.574 . S
C1452 C1468 1.368 . S
H1453 C1461 0.950 . S
H1454 C1459 0.950 1_565 S
H1455 C1460 0.949 . S
H1456 C1462 0.950 . S
H1457 C1463 0.950 . S
H1458 C1464 0.949 . S
C1459 H1454 0.950 1_545 S
C1459 C1461 1.327 . S
C1459 C1465 1.429 1_545 S
C1460 C1452 1.574 . S
C1460 H1455 0.949 . S
C1460 C1466 1.368 . S
C1461 C1445 1.349 . S
C1461 H1453 0.950 . S
C1461 C1459 1.327 . S
C1462 C1450 1.349 . S
C1462 H1456 0.950 . S
C1462 C1463 1.327 . S
C1463 H1457 0.950 . S
C1463 C1462 1.327 . S
C1463 C1467 1.429 . S
C1464 C1447 1.574 . S
C1464 H1458 0.949 . S
C1464 C1468 1.368 . S
C1465 C1446 1.429 1_565 S
C1465 C1459 1.429 1_565 S
C1465 C1466 1.523 . S
C1466 C1447 1.368 . S
C1466 C1460 1.368 . S
C1466 C1465 1.523 . S
C1467 C1451 1.429 . S
C1467 C1463 1.429 . S
C1467 C1468 1.523 . S
C1468 C1452 1.368 . S
C1468 C1464 1.368 . S
C1468 C1467 1.523 . S
H1469 C1444 0.950 . S
H1470 C1446 0.931 1_565 S
H1471 C1447 0.949 . S
H1472 C1449 0.950 . S
H1473 C1451 0.950 . S
C1474 C1475 1.349 . S
C1474 C1476 1.327 . S
C1474 H1499 0.950 . S
C1475 C1474 1.349 . S
C1475 C1491 1.349 . S
C1476 C1474 1.327 . S
C1476 C1495 1.429 1_455 S
C1476 H1500 0.962 . S
C1477 C1494 1.574 . S
C1477 C1496 1.368 . S
C1477 H1501 0.949 . S
H1478 C1482 0.949 . S
C1479 C1480 1.349 . S
C1479 C1481 1.327 . S
C1479 H1502 0.950 . S
C1480 C1479 1.349 . S
C1480 C1492 1.349 . S
C1481 C1479 1.327 . S
C1481 C1497 1.429 . S
C1481 H1503 0.950 . S
C1482 H1478 0.949 . S
C1482 C1490 1.574 . S
C1482 C1498 1.368 . S
H1483 C1491 0.950 . S
H1484 C1489 0.930 1_655 S
H1485 C1490 0.949 . S
H1486 C1492 0.950 . S
H1487 C1493 0.950 . S
H1488 C1494 0.949 . S
C1489 H1484 0.930 1_455 S
C1489 C1491 1.361 . S
C1489 C1495 1.415 1_455 S
C1490 C1482 1.574 . S
C1490 H1485 0.949 . S
C1490 C1496 1.368 . S
C1491 C1475 1.349 . S
C1491 H1483 0.950 . S
C1491 C1489 1.361 . S
C1492 C1480 1.349 . S
C1492 H1486 0.950 . S
C1492 C1493 1.327 . S
C1493 H1487 0.950 . S
C1493 C1492 1.327 . S
C1493 C1497 1.429 . S
C1494 C1477 1.574 . S
C1494 H1488 0.949 . S
C1494 C1498 1.368 . S
C1495 C1476 1.429 1_655 S
C1495 C1489 1.415 1_655 S
C1495 C1496 1.523 . S
C1496 C1477 1.368 . S
C1496 C1490 1.368 . S
C1496 C1495 1.523 . S
C1497 C1481 1.429 . S
C1497 C1493 1.429 . S
C1497 C1498 1.523 . S
C1498 C1482 1.368 . S
C1498 C1494 1.368 . S
C1498 C1497 1.523 . S
H1499 C1474 0.950 . S
H1500 C1476 0.962 . S
H1501 C1477 0.949 . S
H1502 C1479 0.950 . S
H1503 C1481 0.950 . S
C1504 C1505 1.349 . S
C1504 C1506 1.327 . S
C1504 H1529 0.950 . S
C1505 C1504 1.349 . S
C1505 C1521 1.349 . S
C1506 C1504 1.327 . S
C1506 C1525 1.429 . S
C1506 H1530 0.950 . S
C1507 C1524 1.574 . S
C1507 C1526 1.368 . S
C1507 H1531 0.949 . S
H1508 C1512 0.949 . S
C1509 C1510 1.349 . S
C1509 C1511 1.327 . S
C1509 H1532 0.950 . S
C1510 C1509 1.349 . S
C1510 C1522 1.349 . S
C1511 C1509 1.327 . S
C1511 C1527 1.429 . S
C1511 H1533 0.950 . S
C1512 H1508 0.949 . S
C1512 C1520 1.574 . S
C1512 C1528 1.368 . S
H1513 C1521 0.950 . S
H1514 C1519 0.950 . S
H1515 C1520 0.949 . S
H1516 C1522 0.950 . S
H1517 C1523 0.950 . S
H1518 C1524 0.949 . S
C1519 H1514 0.950 . S
C1519 C1521 1.327 . S
C1519 C1525 1.429 . S
C1520 C1512 1.574 . S
C1520 H1515 0.949 . S
C1520 C1526 1.368 . S
C1521 C1505 1.349 . S
C1521 H1513 0.950 . S
C1521 C1519 1.327 . S
C1522 C1510 1.349 . S
C1522 H1516 0.950 . S
C1522 C1523 1.327 . S
C1523 H1517 0.950 . S
C1523 C1522 1.327 . S
C1523 C1527 1.429 . S
C1524 C1507 1.574 . S
C1524 H1518 0.949 . S
C1524 C1528 1.368 . S
C1525 C1506 1.429 . S
C1525 C1519 1.429 . S
C1525 C1526 1.523 . S
C1526 C1507 1.368 . S
C1526 C1520 1.368 . S
C1526 C1525 1.523 . S
C1527 C1511 1.429 . S
C1527 C1523 1.429 . S
C1527 C1528 1.523 . S
C1528 C1512 1.368 . S
C1528 C1524 1.368 . S
C1528 C1527 1.523 . S
H1529 C1504 0.950 . S
H1530 C1506 0.950 . S
H1531 C1507 0.949 . S
H1532 C1509 0.950 . S
H1533 C1511 0.950 . S
C1534 C1535 1.349 . S
C1534 C1536 1.327 . S
C1534 H1559 0.950 . S
C1535 C1534 1.349 . S
C1535 C1551 1.349 . S
C1536 C1534 1.327 . S
C1536 C1555 1.429 . S
C1536 H1560 0.950 . S
C1537 C1554 1.574 . S
C1537 C1556 1.368 . S
C1537 H1561 0.949 . S
H1538 C1542 0.949 . S
C1539 C1540 1.349 . S
C1539 C1541 1.327 . S
C1539 H1562 0.950 . S
C1540 C1539 1.349 . S
C1540 C1552 1.349 . S
C1541 C1539 1.327 . S
C1541 C1557 1.429 . S
C1541 H1563 0.950 . S
C1542 H1538 0.949 . S
C1542 C1550 1.574 . S
C1542 C1558 1.368 . S
H1543 C1551 0.950 . S
H1544 C1549 0.950 . S
H1545 C1550 0.949 . S
H1546 C1552 0.950 . S
H1547 C1553 0.950 . S
H1548 C1554 0.949 . S
C1549 H1544 0.950 . S
C1549 C1551 1.327 . S
C1549 C1555 1.429 . S
C1550 C1542 1.574 . S
C1550 H1545 0.949 . S
C1550 C1556 1.368 . S
C1551 C1535 1.349 . S
C1551 H1543 0.950 . S
C1551 C1549 1.327 . S
C1552 C1540 1.349 . S
C1552 H1546 0.950 . S
C1552 C1553 1.327 . S
C1553 H1547 0.950 . S
C1553 C1552 1.327 . S
C1553 C1557 1.429 . S
C1554 C1537 1.574 . S
C1554 H1548 0.949 . S
C1554 C1558 1.368 . S
C1555 C1536 1.429 . S
C1555 C1549 1.429 . S
C1555 C1556 1.523 . S
C1556 C1537 1.368 . S
C1556 C1550 1.368 . S
C1556 C1555 1.523 . S
C1557 C1541 1.429 . S
C1557 C1553 1.429 . S
C1557 C1558 1.523 . S
C1558 C1542 1.368 . S
C1558 C1554 1.368 . S
C1558 C1557 1.523 . S
H1559 C1534 0.950 . S
H1560 C1536 0.950 . S
H1561 C1537 0.949 . S
H1562 C1539 0.950 . S
H1563 C1541 0.950 . S
C1564 C1565 1.349 . S
C1564 C1566 1.327 . S
C1564 H1589 0.950 . S
C1565 C1564 1.349 . S
C1565 C1581 1.349 . S
C1566 C1564 1.327 . S
C1566 C1585 1.429 . S
C1566 H1590 0.950 . S
C1567 C1584 1.574 . S
C1567 C1586 1.368 . S
C1567 H1591 0.949 . S
H1568 C1572 0.949 . S
C1569 C1570 1.349 . S
C1569 C1571 1.327 . S
C1569 H1592 0.950 . S
C1570 C1569 1.349 . S
C1570 C1582 1.349 . S
C1571 C1569 1.327 . S
C1571 C1587 1.429 . S
C1571 H1593 0.950 . S
C1572 H1568 0.949 . S
C1572 C1580 1.574 . S
C1572 C1588 1.368 . S
H1573 C1581 0.950 . S
H1574 C1579 0.950 . S
H1575 C1580 0.949 . S
H1576 C1582 0.950 . S
H1577 C1583 0.950 . S
H1578 C1584 0.949 . S
C1579 H1574 0.950 . S
C1579 C1581 1.327 . S
C1579 C1585 1.429 . S
C1580 C1572 1.574 . S
C1580 H1575 0.949 . S
C1580 C1586 1.368 . S
C1581 C1565 1.349 . S
C1581 H1573 0.950 . S
C1581 C1579 1.327 . S
C1582 C1570 1.349 . S
C1582 H1576 0.950 . S
C1582 C1583 1.327 . S
C1583 H1577 0.950 . S
C1583 C1582 1.327 . S
C1583 C1587 1.429 . S
C1584 C1567 1.574 . S
C1584 H1578 0.949 . S
C1584 C1588 1.368 . S
C1585 C1566 1.429 . S
C1585 C1579 1.429 . S
C1585 C1586 1.523 . S
C1586 C1567 1.368 . S
C1586 C1580 1.368 . S
C1586 C1585 1.523 . S
C1587 C1571 1.429 . S
C1587 C1583 1.429 . S
C1587 C1588 1.523 . S
C1588 C1572 1.368 . S
C1588 C1584 1.368 . S
C1588 C1587 1.523 . S
H1589 C1564 0.950 . S
H1590 C1566 0.950 . S
H1591 C1567 0.949 . S
H1592 C1569 0.950 . S
H1593 C1571 0.950 . S
C1594 C1595 1.349 . S
C1594 C1596 1.327 . S
C1594 H1619 0.950 . S
C1595 C1594 1.349 . S
C1595 C1611 1.349 . S
C1596 C1594 1.327 . S
C1596 C1615 1.429 . S
C1596 H1620 0.950 . S
C1597 C1614 1.574 . S
C1597 C1616 1.368 . S
C1597 H1621 0.949 . S
H1598 C1602 0.949 . S
C1599 C1600 1.349 . S
C1599 C1601 1.327 . S
C1599 H1622 0.950 . S
C1600 C1599 1.349 . S
C1600 C1612 1.349 . S
C1601 C1599 1.327 . S
C1601 C1617 1.429 . S
C1601 H1623 0.950 . S
C1602 H1598 0.949 . S
C1602 C1610 1.574 . S
C1602 C1618 1.368 . S
H1603 C1611 0.950 . S
H1604 C1609 0.950 . S
H1605 C1610 0.949 . S
H1606 C1612 0.950 . S
H1607 C1613 0.950 . S
H1608 C1614 0.949 . S
C1609 H1604 0.950 . S
C1609 C1611 1.327 . S
C1609 C1615 1.429 . S
C1610 C1602 1.574 . S
C1610 H1605 0.949 . S
C1610 C1616 1.368 . S
C1611 C1595 1.349 . S
C1611 H1603 0.950 . S
C1611 C1609 1.327 . S
C1612 C1600 1.349 . S
C1612 H1606 0.950 . S
C1612 C1613 1.327 . S
C1613 H1607 0.950 . S
C1613 C1612 1.327 . S
C1613 C1617 1.429 . S
C1614 C1597 1.574 . S
C1614 H1608 0.949 . S
C1614 C1618 1.368 . S
C1615 C1596 1.429 . S
C1615 C1609 1.429 . S
C1615 C1616 1.523 . S
C1616 C1597 1.368 . S
C1616 C1610 1.368 . S
C1616 C1615 1.523 . S
C1617 C1601 1.429 . S
C1617 C1613 1.429 . S
C1617 C1618 1.523 . S
C1618 C1602 1.368 . S
C1618 C1614 1.368 . S
C1618 C1617 1.523 . S
H1619 C1594 0.950 . S
H1620 C1596 0.950 . S
H1621 C1597 0.949 . S
H1622 C1599 0.950 . S
H1623 C1601 0.950 . S
C1624 C1625 1.349 . S
C1624 C1626 1.327 . S
C1624 H1649 0.950 . S
C1625 C1624 1.349 . S
C1625 C1641 1.349 . S
C1626 C1624 1.327 . S
C1626 C1645 1.429 . S
C1626 H1650 0.950 . S
C1627 C1644 1.574 . S
C1627 C1646 1.368 . S
C1627 H1651 0.949 . S
H1628 C1632 0.949 . S
C1629 C1630 1.349 . S
C1629 C1631 1.327 . S
C1629 H1652 0.950 . S
C1630 C1629 1.349 . S
C1630 C1642 1.349 . S
C1631 C1629 1.327 . S
C1631 C1647 1.429 . S
C1631 H1653 0.950 . S
C1632 H1628 0.949 . S
C1632 C1640 1.574 . S
C1632 C1648 1.368 . S
H1633 C1641 0.950 . S
H1634 C1639 0.950 . S
H1635 C1640 0.949 . S
H1636 C1642 0.950 . S
H1637 C1643 0.950 . S
H1638 C1644 0.949 . S
C1639 H1634 0.950 . S
C1639 C1641 1.327 . S
C1639 C1645 1.429 . S
C1640 C1632 1.574 . S
C1640 H1635 0.949 . S
C1640 C1646 1.368 . S
C1641 C1625 1.349 . S
C1641 H1633 0.950 . S
C1641 C1639 1.327 . S
C1642 C1630 1.349 . S
C1642 H1636 0.950 . S
C1642 C1643 1.327 . S
C1643 H1637 0.950 . S
C1643 C1642 1.327 . S
C1643 C1647 1.429 . S
C1644 C1627 1.574 . S
C1644 H1638 0.949 . S
C1644 C1648 1.368 . S
C1645 C1626 1.429 . S
C1645 C1639 1.429 . S
C1645 C1646 1.523 . S
C1646 C1627 1.368 . S
C1646 C1640 1.368 . S
C1646 C1645 1.523 . S
C1647 C1631 1.429 . S
C1647 C1643 1.429 . S
C1647 C1648 1.523 . S
C1648 C1632 1.368 . S
C1648 C1644 1.368 . S
C1648 C1647 1.523 . S
H1649 C1624 0.950 . S
H1650 C1626 0.950 . S
H1651 C1627 0.949 . S
H1652 C1629 0.950 . S
H1653 C1631 0.950 . S
C1654 C1655 1.349 . S
C1654 C1656 1.327 . S
C1654 H1679 0.950 . S
C1655 C1654 1.349 . S
C1655 C1671 1.349 . S
C1656 C1654 1.327 . S
C1656 C1675 1.429 . S
C1656 H1680 0.950 . S
C1657 C1674 1.574 . S
C1657 C1676 1.368 . S
C1657 H1681 0.949 . S
H1658 C1662 0.949 . S
C1659 C1660 1.349 . S
C1659 C1661 1.327 . S
C1659 H1682 0.950 . S
C1660 C1659 1.349 . S
C1660 C1672 1.349 . S
C1661 C1659 1.327 . S
C1661 C1677 1.429 . S
C1661 H1683 0.950 . S
C1662 H1658 0.949 . S
C1662 C1670 1.574 . S
C1662 C1678 1.368 . S
H1663 C1671 0.950 . S
H1664 C1669 0.950 . S
H1665 C1670 0.949 . S
H1666 C1672 0.950 . S
H1667 C1673 0.950 . S
H1668 C1674 0.949 . S
C1669 H1664 0.950 . S
C1669 C1671 1.327 . S
C1669 C1675 1.429 . S
C1670 C1662 1.574 . S
C1670 H1665 0.949 . S
C1670 C1676 1.368 . S
C1671 C1655 1.349 . S
C1671 H1663 0.950 . S
C1671 C1669 1.327 . S
C1672 C1660 1.349 . S
C1672 H1666 0.950 . S
C1672 C1673 1.327 . S
C1673 H1667 0.950 . S
C1673 C1672 1.327 . S
C1673 C1677 1.429 . S
C1674 C1657 1.574 . S
C1674 H1668 0.949 . S
C1674 C1678 1.368 . S
C1675 C1656 1.429 . S
C1675 C1669 1.429 . S
C1675 C1676 1.523 . S
C1676 C1657 1.368 . S
C1676 C1670 1.368 . S
C1676 C1675 1.523 . S
C1677 C1661 1.429 . S
C1677 C1673 1.429 . S
C1677 C1678 1.523 . S
C1678 C1662 1.368 . S
C1678 C1674 1.368 . S
C1678 C1677 1.523 . S
H1679 C1654 0.950 . S
H1680 C1656 0.950 . S
H1681 C1657 0.949 . S
H1682 C1659 0.950 . S
H1683 C1661 0.950 . S
C1684 C1685 1.349 . S
C1684 C1686 1.327 . S
C1684 H1709 0.950 . S
C1685 C1684 1.349 . S
C1685 C1701 1.349 . S
C1686 C1684 1.327 . S
C1686 C1705 1.429 . S
C1686 H1710 0.950 . S
C1687 C1704 1.574 . S
C1687 C1706 1.368 . S
C1687 H1711 0.949 . S
H1688 C1692 0.949 . S
C1689 C1690 1.349 . S
C1689 C1691 1.327 . S
C1689 H1712 0.950 . S
C1690 C1689 1.349 . S
C1690 C1702 1.349 . S
C1691 C1689 1.327 . S
C1691 C1707 1.429 . S
C1691 H1713 0.950 . S
C1692 H1688 0.949 . S
C1692 C1700 1.574 . S
C1692 C1708 1.368 . S
H1693 C1701 0.950 . S
H1694 C1699 0.950 . S
H1695 C1700 0.949 . S
H1696 C1702 0.950 . S
H1697 C1703 0.950 . S
H1698 C1704 0.949 . S
C1699 H1694 0.950 . S
C1699 C1701 1.327 . S
C1699 C1705 1.429 . S
C1700 C1692 1.574 . S
C1700 H1695 0.949 . S
C1700 C1706 1.368 . S
C1701 C1685 1.349 . S
C1701 H1693 0.950 . S
C1701 C1699 1.327 . S
C1702 C1690 1.349 . S
C1702 H1696 0.950 . S
C1702 C1703 1.327 . S
C1703 H1697 0.950 . S
C1703 C1702 1.327 . S
C1703 C1707 1.429 . S
C1704 C1687 1.574 . S
C1704 H1698 0.949 . S
C1704 C1708 1.368 . S
C1705 C1686 1.429 . S
C1705 C1699 1.429 . S
C1705 C1706 1.523 . S
C1706 C1687 1.368 . S
C1706 C1700 1.368 . S
C1706 C1705 1.523 . S
C1707 C1691 1.429 . S
C1707 C1703 1.429 . S
C1707 C1708 1.523 . S
C1708 C1692 1.368 . S
C1708 C1704 1.368 . S
C1708 C1707 1.523 . S
H1709 C1684 0.950 . S
H1710 C1686 0.950 . S
H1711 C1687 0.949 . S
H1712 C1689 0.950 . S
H1713 C1691 0.950 . S
C1714 C1715 1.349 . S
C1714 C1716 1.327 . S
C1714 H1739 0.950 . S
C1715 C1714 1.349 . S
C1715 C1731 1.349 . S
C1716 C1714 1.327 . S
C1716 C1735 1.429 . S
C1716 H1740 0.950 . S
C1717 C1734 1.574 . S
C1717 C1736 1.368 . S
C1717 H1741 0.949 . S
H1718 C1722 0.949 . S
C1719 C1720 1.349 . S
C1719 C1721 1.327 . S
C1719 H1742 0.950 . S
C1720 C1719 1.349 . S
C1720 C1732 1.349 . S
C1721 C1719 1.327 . S
C1721 C1737 1.429 . S
C1721 H1743 0.950 . S
C1722 H1718 0.949 . S
C1722 C1730 1.574 . S
C1722 C1738 1.368 . S
H1723 C1731 0.950 . S
H1724 C1729 0.950 . S
H1725 C1730 0.949 . S
H1726 C1732 0.950 . S
H1727 C1733 0.950 . S
H1728 C1734 0.949 . S
C1729 H1724 0.950 . S
C1729 C1731 1.327 . S
C1729 C1735 1.429 . S
C1730 C1722 1.574 . S
C1730 H1725 0.949 . S
C1730 C1736 1.368 . S
C1731 C1715 1.349 . S
C1731 H1723 0.950 . S
C1731 C1729 1.327 . S
C1732 C1720 1.349 . S
C1732 H1726 0.950 . S
C1732 C1733 1.327 . S
C1733 H1727 0.950 . S
C1733 C1732 1.327 . S
C1733 C1737 1.429 . S
C1734 C1717 1.574 . S
C1734 H1728 0.949 . S
C1734 C1738 1.368 . S
C1735 C1716 1.429 . S
C1735 C1729 1.429 . S
C1735 C1736 1.523 . S
C1736 C1717 1.368 . S
C1736 C1730 1.368 . S
C1736 C1735 1.523 . S
C1737 C1721 1.429 . S
C1737 C1733 1.429 . S
C1737 C1738 1.523 . S
C1738 C1722 1.368 . S
C1738 C1734 1.368 . S
C1738 C1737 1.523 . S
H1739 C1714 0.950 . S
H1740 C1716 0.950 . S
H1741 C1717 0.949 . S
H1742 C1719 0.950 . S
H1743 C1721 0.950 . S
C1744 C1745 1.349 . S
C1744 C1746 1.327 . S
C1744 H1769 0.950 . S
C1745 C1744 1.349 . S
C1745 C1761 1.349 . S
C1746 C1744 1.327 . S
C1746 C1765 1.429 . S
C1746 H1770 0.950 . S
C1747 C1764 1.574 . S
C1747 C1766 1.368 . S
C1747 H1771 0.949 . S
H1748 C1752 0.949 . S
C1749 C1750 1.349 . S
C1749 C1751 1.327 . S
C1749 H1772 0.950 . S
C1750 C1749 1.349 . S
C1750 C1762 1.349 . S
C1751 C1749 1.327 . S
C1751 C1767 1.429 . S
C1751 H1773 0.950 . S
C1752 H1748 0.949 . S
C1752 C1760 1.574 . S
C1752 C1768 1.368 . S
H1753 C1761 0.950 . S
H1754 C1759 0.950 . S
H1755 C1760 0.949 . S
H1756 C1762 0.950 . S
H1757 C1763 0.950 . S
H1758 C1764 0.949 . S
C1759 H1754 0.950 . S
C1759 C1761 1.327 . S
C1759 C1765 1.429 . S
C1760 C1752 1.574 . S
C1760 H1755 0.949 . S
C1760 C1766 1.368 . S
C1761 C1745 1.349 . S
C1761 H1753 0.950 . S
C1761 C1759 1.327 . S
C1762 C1750 1.349 . S
C1762 H1756 0.950 . S
C1762 C1763 1.327 . S
C1763 H1757 0.950 . S
C1763 C1762 1.327 . S
C1763 C1767 1.429 . S
C1764 C1747 1.574 . S
C1764 H1758 0.949 . S
C1764 C1768 1.368 . S
C1765 C1746 1.429 . S
C1765 C1759 1.429 . S
C1765 C1766 1.523 . S
C1766 C1747 1.368 . S
C1766 C1760 1.368 . S
C1766 C1765 1.523 . S
C1767 C1751 1.429 . S
C1767 C1763 1.429 . S
C1767 C1768 1.523 . S
C1768 C1752 1.368 . S
C1768 C1764 1.368 . S
C1768 C1767 1.523 . S
H1769 C1744 0.950 . S
H1770 C1746 0.950 . S
H1771 C1747 0.949 . S
H1772 C1749 0.950 . S
H1773 C1751 0.950 . S
C1774 C1775 1.349 . S
C1774 C1776 1.327 . S
C1774 H1799 0.950 . S
C1775 C1774 1.349 . S
C1775 C1791 1.349 . S
C1776 C1774 1.327 . S
C1776 C1795 1.429 . S
C1776 H1800 0.950 . S
C1777 C1794 1.574 . S
C1777 C1796 1.368 . S
C1777 H1801 0.949 . S
H1778 C1782 0.949 . S
C1779 C1780 1.349 . S
C1779 C1781 1.327 . S
C1779 H1802 0.950 . S
C1780 C1779 1.349 . S
C1780 C1792 1.349 . S
C1781 C1779 1.327 . S
C1781 C1797 1.429 . S
C1781 H1803 0.950 . S
C1782 H1778 0.949 . S
C1782 C1790 1.574 . S
C1782 C1798 1.368 . S
H1783 C1791 0.950 . S
H1784 C1789 0.950 . S
H1785 C1790 0.949 . S
H1786 C1792 0.950 . S
H1787 C1793 0.950 . S
H1788 C1794 0.949 . S
C1789 H1784 0.950 . S
C1789 C1791 1.327 . S
C1789 C1795 1.429 . S
C1790 C1782 1.574 . S
C1790 H1785 0.949 . S
C1790 C1796 1.368 . S
C1791 C1775 1.349 . S
C1791 H1783 0.950 . S
C1791 C1789 1.327 . S
C1792 C1780 1.349 . S
C1792 H1786 0.950 . S
C1792 C1793 1.327 . S
C1793 H1787 0.950 . S
C1793 C1792 1.327 . S
C1793 C1797 1.429 . S
C1794 C1777 1.574 . S
C1794 H1788 0.949 . S
C1794 C1798 1.368 . S
C1795 C1776 1.429 . S
C1795 C1789 1.429 . S
C1795 C1796 1.523 . S
C1796 C1777 1.368 . S
C1796 C1790 1.368 . S
C1796 C1795 1.523 . S
C1797 C1781 1.429 . S
C1797 C1793 1.429 . S
C1797 C1798 1.523 . S
C1798 C1782 1.368 . S
C1798 C1794 1.368 . S
C1798 C1797 1.523 . S
H1799 C1774 0.950 . S
H1800 C1776 0.950 . S
H1801 C1777 0.949 . S
H1802 C1779 0.950 . S
H1803 C1781 0.950 . S
C1804 C1805 1.349 . S
C1804 C1806 1.327 . S
C1804 H1829 0.950 . S
C1805 C1804 1.349 . S
C1805 C1821 1.349 . S
C1806 C1804 1.327 . S
C1806 C1825 1.429 . S
C1806 H1830 0.950 . S
C1807 C1824 1.574 . S
C1807 C1826 1.368 . S
C1807 H1831 0.949 . S
H1808 C1812 0.949 . S
C1809 C1810 1.349 . S
C1809 C1811 1.327 . S
C1809 H1832 0.950 . S
C1810 C1809 1.349 . S
C1810 C1822 1.349 . S
C1811 C1809 1.327 . S
C1811 C1827 1.429 . S
C1811 H1833 0.950 . S
C1812 H1808 0.949 . S
C1812 C1820 1.574 . S
C1812 C1828 1.368 . S
H1813 C1821 0.950 . S
H1814 C1819 0.950 . S
H1815 C1820 0.949 . S
H1816 C1822 0.950 . S
H1817 C1823 0.950 . S
H1818 C1824 0.949 . S
C1819 H1814 0.950 . S
C1819 C1821 1.327 . S
C1819 C1825 1.429 . S
C1820 C1812 1.574 . S
C1820 H1815 0.949 . S
C1820 C1826 1.368 . S
C1821 C1805 1.349 . S
C1821 H1813 0.950 . S
C1821 C1819 1.327 . S
C1822 C1810 1.349 . S
C1822 H1816 0.950 . S
C1822 C1823 1.327 . S
C1823 H1817 0.950 . S
C1823 C1822 1.327 . S
C1823 C1827 1.429 . S
C1824 C1807 1.574 . S
C1824 H1818 0.949 . S
C1824 C1828 1.368 . S
C1825 C1806 1.429 . S
C1825 C1819 1.429 . S
C1825 C1826 1.523 . S
C1826 C1807 1.368 . S
C1826 C1820 1.368 . S
C1826 C1825 1.523 . S
C1827 C1811 1.429 . S
C1827 C1823 1.429 . S
C1827 C1828 1.523 . S
C1828 C1812 1.368 . S
C1828 C1824 1.368 . S
C1828 C1827 1.523 . S
H1829 C1804 0.950 . S
H1830 C1806 0.950 . S
H1831 C1807 0.949 . S
H1832 C1809 0.950 . S
H1833 C1811 0.950 . S
C1834 C1835 1.349 . S
C1834 C1836 1.327 . S
C1834 H1859 0.950 . S
C1835 C1834 1.349 . S
C1835 C1851 1.349 . S
C1836 C1834 1.327 . S
C1836 C1855 1.429 . S
C1836 H1860 0.950 . S
C1837 C1854 1.574 . S
C1837 C1856 1.368 . S
C1837 H1861 0.949 . S
H1838 C1842 0.949 . S
C1839 C1840 1.349 . S
C1839 C1841 1.327 . S
C1839 H1862 0.950 . S
C1840 C1839 1.349 . S
C1840 C1852 1.349 . S
C1841 C1839 1.327 . S
C1841 C1857 1.429 . S
C1841 H1863 0.950 . S
C1842 H1838 0.949 . S
C1842 C1850 1.574 . S
C1842 C1858 1.368 . S
H1843 C1851 0.950 . S
H1844 C1849 0.950 . S
H1845 C1850 0.949 . S
H1846 C1852 0.950 . S
H1847 C1853 0.950 . S
H1848 C1854 0.949 . S
C1849 H1844 0.950 . S
C1849 C1851 1.327 . S
C1849 C1855 1.429 . S
C1850 C1842 1.574 . S
C1850 H1845 0.949 . S
C1850 C1856 1.368 . S
C1851 C1835 1.349 . S
C1851 H1843 0.950 . S
C1851 C1849 1.327 . S
C1852 C1840 1.349 . S
C1852 H1846 0.950 . S
C1852 C1853 1.327 . S
C1853 H1847 0.950 . S
C1853 C1852 1.327 . S
C1853 C1857 1.429 . S
C1854 C1837 1.574 . S
C1854 H1848 0.949 . S
C1854 C1858 1.368 . S
C1855 C1836 1.429 . S
C1855 C1849 1.429 . S
C1855 C1856 1.523 . S
C1856 C1837 1.368 . S
C1856 C1850 1.368 . S
C1856 C1855 1.523 . S
C1857 C1841 1.429 . S
C1857 C1853 1.429 . S
C1857 C1858 1.523 . S
C1858 C1842 1.368 . S
C1858 C1854 1.368 . S
C1858 C1857 1.523 . S
H1859 C1834 0.950 . S
H1860 C1836 0.950 . S
H1861 C1837 0.949 . S
H1862 C1839 0.950 . S
H1863 C1841 0.950 . S
C1864 C1865 1.349 1_556 S
C1864 C1866 1.327 . S
C1864 H1889 0.950 . S
C1865 C1864 1.349 1_554 S
C1865 C1881 1.349 . S
C1866 C1864 1.327 . S
C1866 C1885 1.429 . S
C1866 H1890 0.950 . S
C1867 C1884 1.574 . S
C1867 C1886 1.368 . S
C1867 H1891 0.949 . S
H1868 C1872 0.949 . S
C1869 C1870 1.349 . S
C1869 C1871 1.327 . S
C1869 H1892 0.950 . S
C1870 C1869 1.349 . S
C1870 C1882 1.349 . S
C1871 C1869 1.327 . S
C1871 C1887 1.429 . S
C1871 H1893 0.950 . S
C1872 H1868 0.949 . S
C1872 C1880 1.574 . S
C1872 C1888 1.368 . S
H1873 C1881 0.950 . S
H1874 C1879 0.950 . S
H1875 C1880 0.949 . S
H1876 C1882 0.950 . S
H1877 C1883 0.950 . S
H1878 C1884 0.949 . S
C1879 H1874 0.950 . S
C1879 C1881 1.327 1_556 S
C1879 C1885 1.429 . S
C1880 C1872 1.574 . S
C1880 H1875 0.949 . S
C1880 C1886 1.368 . S
C1881 C1865 1.349 . S
C1881 H1873 0.950 . S
C1881 C1879 1.327 1_554 S
C1882 C1870 1.349 . S
C1882 H1876 0.950 . S
C1882 C1883 1.327 . S
C1883 H1877 0.950 . S
C1883 C1882 1.327 . S
C1883 C1887 1.429 . S
C1884 C1867 1.574 . S
C1884 H1878 0.949 . S
C1884 C1888 1.368 . S
C1885 C1866 1.429 . S
C1885 C1879 1.429 . S
C1885 C1886 1.523 . S
C1886 C1867 1.368 . S
C1886 C1880 1.368 . S
C1886 C1885 1.523 . S
C1887 C1871 1.429 . S
C1887 C1883 1.429 . S
C1887 C1888 1.523 . S
C1888 C1872 1.368 . S
C1888 C1884 1.368 . S
C1888 C1887 1.523 . S
H1889 C1864 0.950 . S
H1890 C1866 0.950 . S
H1891 C1867 0.949 . S
H1892 C1869 0.950 . S
H1893 C1871 0.950 . S
C1894 C1895 1.349 . S
C1894 C1896 1.327 . S
C1894 H1919 0.950 . S
C1895 C1894 1.349 . S
C1895 C1911 1.349 . S
C1896 C1894 1.327 . S
C1896 C1915 1.429 . S
C1896 H1920 0.950 . S
C1897 C1914 1.574 . S
C1897 C1916 1.368 . S
C1897 H1921 0.949 . S
H1898 C1902 0.949 . S
C1899 C1900 1.349 1_554 S
C1899 C1901 1.327 . S
C1899 H1922 0.950 . S
C1900 C1899 1.349 1_556 S
C1900 C1912 1.349 . S
C1901 C1899 1.327 . S
C1901 C1917 1.429 . S
C1901 H1923 0.950 . S
C1902 H1898 0.949 . S
C1902 C1910 1.574 . S
C1902 C1918 1.368 . S
H1903 C1911 0.950 . S
H1904 C1909 0.950 . S
H1905 C1910 0.949 . S
H1906 C1912 0.950 . S
H1907 C1913 0.950 . S
H1908 C1914 0.949 . S
C1909 H1904 0.950 . S
C1909 C1911 1.327 . S
C1909 C1915 1.429 . S
C1910 C1902 1.574 . S
C1910 H1905 0.949 . S
C1910 C1916 1.368 . S
C1911 C1895 1.349 . S
C1911 H1903 0.950 . S
C1911 C1909 1.327 . S
C1912 C1900 1.349 . S
C1912 H1906 0.950 . S
C1912 C1913 1.327 1_556 S
C1913 H1907 0.950 . S
C1913 C1912 1.327 1_554 S
C1913 C1917 1.429 . S
C1914 C1897 1.574 . S
C1914 H1908 0.949 . S
C1914 C1918 1.368 . S
C1915 C1896 1.429 . S
C1915 C1909 1.429 . S
C1915 C1916 1.523 . S
C1916 C1897 1.368 . S
C1916 C1910 1.368 . S
C1916 C1915 1.523 . S
C1917 C1901 1.429 . S
C1917 C1913 1.429 . S
C1917 C1918 1.523 . S
C1918 C1902 1.368 . S
C1918 C1914 1.368 . S
C1918 C1917 1.523 . S
H1919 C1894 0.950 . S
H1920 C1896 0.950 . S
H1921 C1897 0.949 . S
H1922 C1899 0.950 . S
H1923 C1901 0.950 . S
C1924 C1925 1.349 . S
C1924 C1926 1.327 1_554 S
C1924 H1949 0.950 . S
C1925 C1924 1.349 . S
C1925 C1941 1.349 1_554 S
C1926 C1924 1.327 1_556 S
C1926 C1945 1.429 . S
C1926 H1950 0.950 . S
C1927 C1944 1.574 . S
C1927 C1946 1.368 . S
C1927 H1951 0.949 . S
H1928 C1932 0.949 . S
C1929 C1930 1.349 . S
C1929 C1931 1.327 . S
C1929 H1952 0.950 . S
C1930 C1929 1.349 . S
C1930 C1942 1.349 . S
C1931 C1929 1.327 . S
C1931 C1947 1.429 . S
C1931 H1953 0.950 . S
C1932 H1928 0.949 . S
C1932 C1940 1.574 . S
C1932 C1948 1.368 . S
H1933 C1941 0.950 . S
H1934 C1939 0.950 . S
H1935 C1940 0.949 . S
H1936 C1942 0.950 . S
H1937 C1943 0.950 . S
H1938 C1944 0.949 . S
C1939 H1934 0.950 . S
C1939 C1941 1.327 . S
C1939 C1945 1.429 . S
C1940 C1932 1.574 . S
C1940 H1935 0.949 . S
C1940 C1946 1.368 . S
C1941 C1925 1.349 1_556 S
C1941 H1933 0.950 . S
C1941 C1939 1.327 . S
C1942 C1930 1.349 . S
C1942 H1936 0.950 . S
C1942 C1943 1.327 . S
C1943 H1937 0.950 . S
C1943 C1942 1.327 . S
C1943 C1947 1.429 . S
C1944 C1927 1.574 . S
C1944 H1938 0.949 . S
C1944 C1948 1.368 . S
C1945 C1926 1.429 . S
C1945 C1939 1.429 . S
C1945 C1946 1.523 . S
C1946 C1927 1.368 . S
C1946 C1940 1.368 . S
C1946 C1945 1.523 . S
C1947 C1931 1.429 . S
C1947 C1943 1.429 . S
C1947 C1948 1.523 . S
C1948 C1932 1.368 . S
C1948 C1944 1.368 . S
C1948 C1947 1.523 . S
H1949 C1924 0.950 . S
H1950 C1926 0.950 . S
H1951 C1927 0.949 . S
H1952 C1929 0.950 . S
H1953 C1931 0.950 . S
C1954 C1955 1.349 . S
C1954 C1956 1.327 1_556 S
C1954 H1979 0.950 . S
C1955 C1954 1.349 . S
C1955 C1971 1.349 1_556 S
C1956 C1954 1.327 1_554 S
C1956 C1975 1.429 . S
C1956 H1980 0.950 . S
C1957 C1974 1.574 . S
C1957 C1976 1.368 . S
C1957 H1981 0.949 . S
H1958 C1962 0.949 . S
C1959 C1960 1.349 . S
C1959 C1961 1.327 . S
C1959 H1982 0.950 . S
C1960 C1959 1.349 . S
C1960 C1972 1.349 . S
C1961 C1959 1.327 . S
C1961 C1977 1.429 . S
C1961 H1983 0.950 . S
C1962 H1958 0.949 . S
C1962 C1970 1.574 . S
C1962 C1978 1.368 . S
H1963 C1971 0.950 . S
H1964 C1969 0.950 . S
H1965 C1970 0.949 . S
H1966 C1972 0.950 . S
H1967 C1973 0.950 . S
H1968 C1974 0.949 . S
C1969 H1964 0.950 . S
C1969 C1971 1.327 . S
C1969 C1975 1.429 . S
C1970 C1962 1.574 . S
C1970 H1965 0.949 . S
C1970 C1976 1.368 . S
C1971 C1955 1.349 1_554 S
C1971 H1963 0.950 . S
C1971 C1969 1.327 . S
C1972 C1960 1.349 . S
C1972 H1966 0.950 . S
C1972 C1973 1.327 . S
C1973 H1967 0.950 . S
C1973 C1972 1.327 . S
C1973 C1977 1.429 . S
C1974 C1957 1.574 . S
C1974 H1968 0.949 . S
C1974 C1978 1.368 . S
C1975 C1956 1.429 . S
C1975 C1969 1.429 . S
C1975 C1976 1.523 . S
C1976 C1957 1.368 . S
C1976 C1970 1.368 . S
C1976 C1975 1.523 . S
C1977 C1961 1.429 . S
C1977 C1973 1.429 . S
C1977 C1978 1.523 . S
C1978 C1962 1.368 . S
C1978 C1974 1.368 . S
C1978 C1977 1.523 . S
H1979 C1954 0.950 . S
H1980 C1956 0.950 . S
H1981 C1957 0.949 . S
H1982 C1959 0.950 . S
H1983 C1961 0.950 . S
C1984 C1985 1.349 . S
C1984 C1986 1.327 . S
C1984 H2009 0.950 . S
C1985 C1984 1.349 . S
C1985 C2001 1.349 . S
C1986 C1984 1.327 . S
C1986 C2005 1.429 1_554 S
C1986 H2010 0.950 . S
C1987 C2004 1.574 . S
C1987 C2006 1.368 . S
C1987 H2011 0.949 . S
H1988 C1992 0.949 . S
C1989 C1990 1.349 . S
C1989 C1991 1.327 . S
C1989 H2012 0.950 . S
C1990 C1989 1.349 . S
C1990 C2002 1.349 . S
C1991 C1989 1.327 . S
C1991 C2007 1.429 . S
C1991 H2013 0.950 . S
C1992 H1988 0.949 . S
C1992 C2000 1.574 . S
C1992 C2008 1.368 . S
H1993 C2001 0.950 . S
H1994 C1999 0.950 . S
H1995 C2000 0.949 . S
H1996 C2002 0.950 . S
H1997 C2003 0.950 . S
H1998 C2004 0.949 . S
C1999 H1994 0.950 . S
C1999 C2001 1.327 1_556 S
C1999 C2005 1.429 . S
C2000 C1992 1.574 . S
C2000 H1995 0.949 . S
C2000 C2006 1.368 . S
C2001 C1985 1.349 . S
C2001 H1993 0.950 . S
C2001 C1999 1.327 1_554 S
C2002 C1990 1.349 . S
C2002 H1996 0.950 . S
C2002 C2003 1.327 . S
C2003 H1997 0.950 . S
C2003 C2002 1.327 . S
C2003 C2007 1.429 . S
C2004 C1987 1.574 . S
C2004 H1998 0.949 . S
C2004 C2008 1.368 . S
C2005 C1986 1.429 1_556 S
C2005 C1999 1.429 . S
C2005 C2006 1.523 . S
C2006 C1987 1.368 . S
C2006 C2000 1.368 . S
C2006 C2005 1.523 . S
C2007 C1991 1.429 . S
C2007 C2003 1.429 . S
C2007 C2008 1.523 . S
C2008 C1992 1.368 . S
C2008 C2004 1.368 . S
C2008 C2007 1.523 . S
H2009 C1984 0.950 . S
H2010 C1986 0.950 . S
H2011 C1987 0.949 . S
H2012 C1989 0.950 . S
H2013 C1991 0.950 . S
C2014 C2015 1.349 . S
C2014 C2016 1.327 1_556 S
C2014 H2039 0.950 . S
C2015 C2014 1.349 . S
C2015 C2031 1.349 . S
C2016 C2014 1.327 1_554 S
C2016 C2035 1.429 . S
C2016 H2040 0.950 . S
C2017 C2034 1.574 . S
C2017 C2036 1.368 . S
C2017 H2041 0.949 . S
H2018 C2022 0.949 . S
C2019 C2020 1.349 . S
C2019 C2021 1.327 . S
C2019 H2042 0.950 . S
C2020 C2019 1.349 . S
C2020 C2032 1.349 . S
C2021 C2019 1.327 . S
C2021 C2037 1.429 . S
C2021 H2043 0.950 . S
C2022 H2018 0.949 . S
C2022 C2030 1.574 . S
C2022 C2038 1.368 . S
H2023 C2031 0.950 . S
H2024 C2029 0.950 . S
H2025 C2030 0.949 . S
H2026 C2032 0.950 . S
H2027 C2033 0.950 . S
H2028 C2034 0.949 . S
C2029 H2024 0.950 . S
C2029 C2031 1.320 1_554 S
C2029 C2035 1.435 . S
C2030 C2022 1.574 . S
C2030 H2025 0.949 . S
C2030 C2036 1.368 . S
C2031 C2015 1.349 . S
C2031 H2023 0.950 . S
C2031 C2029 1.320 1_556 S
C2032 C2020 1.349 . S
C2032 H2026 0.950 . S
C2032 C2033 1.327 . S
C2033 H2027 0.950 . S
C2033 C2032 1.327 . S
C2033 C2037 1.429 . S
C2034 C2017 1.574 . S
C2034 H2028 0.949 . S
C2034 C2038 1.368 . S
C2035 C2016 1.429 . S
C2035 C2029 1.435 . S
C2035 C2036 1.523 . S
C2036 C2017 1.368 . S
C2036 C2030 1.368 . S
C2036 C2035 1.523 . S
C2037 C2021 1.429 . S
C2037 C2033 1.429 . S
C2037 C2038 1.523 . S
C2038 C2022 1.368 . S
C2038 C2034 1.368 . S
C2038 C2037 1.523 . S
H2039 C2014 0.950 . S
H2040 C2016 0.950 . S
H2041 C2017 0.949 . S
H2042 C2019 0.950 . S
H2043 C2021 0.950 . S
C2044 C2045 1.349 . S
C2044 C2046 1.327 . S
C2044 H2069 0.950 . S
C2045 C2044 1.349 . S
C2045 C2061 1.349 . S
C2046 C2044 1.327 . S
C2046 C2065 1.429 . S
C2046 H2070 0.950 . S
C2047 C2064 1.574 . S
C2047 C2066 1.368 . S
C2047 H2071 0.949 . S
H2048 C2052 0.949 . S
C2049 C2050 1.349 . S
C2049 C2051 1.327 . S
C2049 H2072 0.950 . S
C2050 C2049 1.349 . S
C2050 C2062 1.349 . S
C2051 C2049 1.327 . S
C2051 C2067 1.429 1_554 S
C2051 H2073 0.950 . S
C2052 H2048 0.949 . S
C2052 C2060 1.574 . S
C2052 C2068 1.368 . S
H2053 C2061 0.950 . S
H2054 C2059 0.950 . S
H2055 C2060 0.949 . S
H2056 C2062 0.950 . S
H2057 C2063 0.950 . S
H2058 C2064 0.949 . S
C2059 H2054 0.950 . S
C2059 C2061 1.327 . S
C2059 C2065 1.429 . S
C2060 C2052 1.574 . S
C2060 H2055 0.949 . S
C2060 C2066 1.368 . S
C2061 C2045 1.349 . S
C2061 H2053 0.950 . S
C2061 C2059 1.327 . S
C2062 C2050 1.349 . S
C2062 H2056 0.950 . S
C2062 C2063 1.327 1_554 S
C2063 H2057 0.950 . S
C2063 C2062 1.327 1_556 S
C2063 C2067 1.429 . S
C2064 C2047 1.574 . S
C2064 H2058 0.949 . S
C2064 C2068 1.368 . S
C2065 C2046 1.429 . S
C2065 C2059 1.429 . S
C2065 C2066 1.523 . S
C2066 C2047 1.368 . S
C2066 C2060 1.368 . S
C2066 C2065 1.523 . S
C2067 C2051 1.429 1_556 S
C2067 C2063 1.429 . S
C2067 C2068 1.523 . S
C2068 C2052 1.368 . S
C2068 C2064 1.368 . S
C2068 C2067 1.523 . S
H2069 C2044 0.950 . S
H2070 C2046 0.950 . S
H2071 C2047 0.949 . S
H2072 C2049 0.950 . S
H2073 C2051 0.950 . S
C2074 C2075 1.349 1_554 S
C2074 C2076 1.327 . S
C2074 H2099 0.950 . S
C2075 C2074 1.349 1_556 S
C2075 C2091 1.349 . S
C2076 C2074 1.327 . S
C2076 C2095 1.429 . S
C2076 H2100 0.950 . S
C2077 C2094 1.574 . S
C2077 C2096 1.368 . S
C2077 H2101 0.949 . S
H2078 C2082 0.949 . S
C2079 C2080 1.349 . S
C2079 C2081 1.327 . S
C2079 H2102 0.950 . S
C2080 C2079 1.349 . S
C2080 C2092 1.349 . S
C2081 C2079 1.327 . S
C2081 C2097 1.429 . S
C2081 H2103 0.950 . S
C2082 H2078 0.949 . S
C2082 C2090 1.574 . S
C2082 C2098 1.368 . S
H2083 C2091 0.950 . S
H2084 C2089 0.950 . S
H2085 C2090 0.949 . S
H2086 C2092 0.950 . S
H2087 C2093 0.950 . S
H2088 C2094 0.949 . S
C2089 H2084 0.950 . S
C2089 C2091 1.327 . S
C2089 C2095 1.429 1_556 S
C2090 C2082 1.574 . S
C2090 H2085 0.949 . S
C2090 C2096 1.368 . S
C2091 C2075 1.349 . S
C2091 H2083 0.950 . S
C2091 C2089 1.327 . S
C2092 C2080 1.349 . S
C2092 H2086 0.950 . S
C2092 C2093 1.327 . S
C2093 H2087 0.950 . S
C2093 C2092 1.327 . S
C2093 C2097 1.429 . S
C2094 C2077 1.574 . S
C2094 H2088 0.949 . S
C2094 C2098 1.368 . S
C2095 C2076 1.429 . S
C2095 C2089 1.429 1_554 S
C2095 C2096 1.523 . S
C2096 C2077 1.368 . S
C2096 C2090 1.368 . S
C2096 C2095 1.523 . S
C2097 C2081 1.429 . S
C2097 C2093 1.429 . S
C2097 C2098 1.523 . S
C2098 C2082 1.368 . S
C2098 C2094 1.368 . S
C2098 C2097 1.523 . S
H2099 C2074 0.950 . S
H2100 C2076 0.950 . S
H2101 C2077 0.949 . S
H2102 C2079 0.950 . S
H2103 C2081 0.950 . S
C2104 C2105 1.349 . S
C2104 C2106 1.327 . S
C2104 H2129 0.950 . S
C2105 C2104 1.349 . S
C2105 C2121 1.349 . S
C2106 C2104 1.327 . S
C2106 C2125 1.429 . S
C2106 H2130 0.950 . S
C2107 C2124 1.574 . S
C2107 C2126 1.368 . S
C2107 H2131 0.949 . S
H2108 C2112 0.949 . S
C2109 C2110 1.349 . S
C2109 C2111 1.327 . S
C2109 H2132 0.950 . S
C2110 C2109 1.349 . S
C2110 C2122 1.349 . S
C2111 C2109 1.327 . S
C2111 C2127 1.429 . S
C2111 H2133 0.950 . S
C2112 H2108 0.949 . S
C2112 C2120 1.574 . S
C2112 C2128 1.368 . S
H2113 C2121 0.950 . S
H2114 C2119 0.950 . S
H2115 C2120 0.949 . S
H2116 C2122 0.950 . S
H2117 C2123 0.950 . S
H2118 C2124 0.949 . S
C2119 H2114 0.950 . S
C2119 C2121 1.327 . S
C2119 C2125 1.429 . S
C2120 C2112 1.574 . S
C2120 H2115 0.949 . S
C2120 C2126 1.368 . S
C2121 C2105 1.349 . S
C2121 H2113 0.950 . S
C2121 C2119 1.327 . S
C2122 C2110 1.349 . S
C2122 H2116 0.950 . S
C2122 C2123 1.327 . S
C2123 H2117 0.950 . S
C2123 C2122 1.327 . S
C2123 C2127 1.429 . S
C2124 C2107 1.574 . S
C2124 H2118 0.949 . S
C2124 C2128 1.368 . S
C2125 C2106 1.429 . S
C2125 C2119 1.429 . S
C2125 C2126 1.523 . S
C2126 C2107 1.368 . S
C2126 C2120 1.368 . S
C2126 C2125 1.523 . S
C2127 C2111 1.429 . S
C2127 C2123 1.429 . S
C2127 C2128 1.523 . S
C2128 C2112 1.368 . S
C2128 C2124 1.368 . S
C2128 C2127 1.523 . S
H2129 C2104 0.950 . S
H2130 C2106 0.950 . S
H2131 C2107 0.949 . S
H2132 C2109 0.950 . S
H2133 C2111 0.950 . S
C2134 C2135 1.349 . S
C2134 C2136 1.327 . S
C2134 H2159 0.950 . S
C2135 C2134 1.349 . S
C2135 C2151 1.349 . S
C2136 C2134 1.327 . S
C2136 C2155 1.429 . S
C2136 H2160 0.950 . S
C2137 C2154 1.574 . S
C2137 C2156 1.368 . S
C2137 H2161 0.949 . S
H2138 C2142 0.949 . S
C2139 C2140 1.349 . S
C2139 C2141 1.327 . S
C2139 H2162 0.950 . S
C2140 C2139 1.349 . S
C2140 C2152 1.349 . S
C2141 C2139 1.327 . S
C2141 C2157 1.429 . S
C2141 H2163 0.950 . S
C2142 H2138 0.949 . S
C2142 C2150 1.574 . S
C2142 C2158 1.368 . S
H2143 C2151 0.950 . S
H2144 C2149 0.950 . S
H2145 C2150 0.949 . S
H2146 C2152 0.950 . S
H2147 C2153 0.950 . S
H2148 C2154 0.949 . S
C2149 H2144 0.950 . S
C2149 C2151 1.327 . S
C2149 C2155 1.429 . S
C2150 C2142 1.574 . S
C2150 H2145 0.949 . S
C2150 C2156 1.368 . S
C2151 C2135 1.349 . S
C2151 H2143 0.950 . S
C2151 C2149 1.327 . S
C2152 C2140 1.349 . S
C2152 H2146 0.950 . S
C2152 C2153 1.327 . S
C2153 H2147 0.950 . S
C2153 C2152 1.327 . S
C2153 C2157 1.429 . S
C2154 C2137 1.574 . S
C2154 H2148 0.949 . S
C2154 C2158 1.368 . S
C2155 C2136 1.429 . S
C2155 C2149 1.429 . S
C2155 C2156 1.523 . S
C2156 C2137 1.368 . S
C2156 C2150 1.368 . S
C2156 C2155 1.523 . S
C2157 C2141 1.429 . S
C2157 C2153 1.429 . S
C2157 C2158 1.523 . S
C2158 C2142 1.368 . S
C2158 C2154 1.368 . S
C2158 C2157 1.523 . S
H2159 C2134 0.950 . S
H2160 C2136 0.950 . S
H2161 C2137 0.949 . S
H2162 C2139 0.950 . S
H2163 C2141 0.950 . S
C2164 C2165 1.349 . S
C2164 C2166 1.327 . S
C2164 H2189 0.950 . S
C2165 C2164 1.349 . S
C2165 C2181 1.349 . S
C2166 C2164 1.327 . S
C2166 C2185 1.429 . S
C2166 H2190 0.950 . S
C2167 C2184 1.574 . S
C2167 C2186 1.368 . S
C2167 H2191 0.949 . S
H2168 C2172 0.949 . S
C2169 C2170 1.349 . S
C2169 C2171 1.327 . S
C2169 H2192 0.950 . S
C2170 C2169 1.349 . S
C2170 C2182 1.349 . S
C2171 C2169 1.327 . S
C2171 C2187 1.429 . S
C2171 H2193 0.950 . S
C2172 H2168 0.949 . S
C2172 C2180 1.574 . S
C2172 C2188 1.368 . S
H2173 C2181 0.950 . S
H2174 C2179 0.950 . S
H2175 C2180 0.949 . S
H2176 C2182 0.950 . S
H2177 C2183 0.950 . S
H2178 C2184 0.949 . S
C2179 H2174 0.950 . S
C2179 C2181 1.327 . S
C2179 C2185 1.429 . S
C2180 C2172 1.574 . S
C2180 H2175 0.949 . S
C2180 C2186 1.368 . S
C2181 C2165 1.349 . S
C2181 H2173 0.950 . S
C2181 C2179 1.327 . S
C2182 C2170 1.349 . S
C2182 H2176 0.950 . S
C2182 C2183 1.327 . S
C2183 H2177 0.950 . S
C2183 C2182 1.327 . S
C2183 C2187 1.429 . S
C2184 C2167 1.574 . S
C2184 H2178 0.949 . S
C2184 C2188 1.368 . S
C2185 C2166 1.429 . S
C2185 C2179 1.429 . S
C2185 C2186 1.523 . S
C2186 C2167 1.368 . S
C2186 C2180 1.368 . S
C2186 C2185 1.523 . S
C2187 C2171 1.429 . S
C2187 C2183 1.429 . S
C2187 C2188 1.523 . S
C2188 C2172 1.368 . S
C2188 C2184 1.368 . S
C2188 C2187 1.523 . S
H2189 C2164 0.950 . S
H2190 C2166 0.950 . S
H2191 C2167 0.949 . S
H2192 C2169 0.950 . S
H2193 C2171 0.950 . S
C2194 C2195 1.349 . S
C2194 C2196 1.327 . S
C2194 H2219 0.950 . S
C2195 C2194 1.349 . S
C2195 C2211 1.349 . S
C2196 C2194 1.327 . S
C2196 C2215 1.429 . S
C2196 H2220 0.950 . S
C2197 C2214 1.574 . S
C2197 C2216 1.368 . S
C2197 H2221 0.949 . S
H2198 C2202 0.949 . S
C2199 C2200 1.349 . S
C2199 C2201 1.327 . S
C2199 H2222 0.950 . S
C2200 C2199 1.349 . S
C2200 C2212 1.349 . S
C2201 C2199 1.327 . S
C2201 C2217 1.429 . S
C2201 H2223 0.950 . S
C2202 H2198 0.949 . S
C2202 C2210 1.574 . S
C2202 C2218 1.368 . S
H2203 C2211 0.950 . S
H2204 C2209 0.950 . S
H2205 C2210 0.949 . S
H2206 C2212 0.950 . S
H2207 C2213 0.950 . S
H2208 C2214 0.949 . S
C2209 H2204 0.950 . S
C2209 C2211 1.327 . S
C2209 C2215 1.429 . S
C2210 C2202 1.574 . S
C2210 H2205 0.949 . S
C2210 C2216 1.368 . S
C2211 C2195 1.349 . S
C2211 H2203 0.950 . S
C2211 C2209 1.327 . S
C2212 C2200 1.349 . S
C2212 H2206 0.950 . S
C2212 C2213 1.327 . S
C2213 H2207 0.950 . S
C2213 C2212 1.327 . S
C2213 C2217 1.429 . S
C2214 C2197 1.574 . S
C2214 H2208 0.949 . S
C2214 C2218 1.368 . S
C2215 C2196 1.429 . S
C2215 C2209 1.429 . S
C2215 C2216 1.523 . S
C2216 C2197 1.368 . S
C2216 C2210 1.368 . S
C2216 C2215 1.523 . S
C2217 C2201 1.429 . S
C2217 C2213 1.429 . S
C2217 C2218 1.523 . S
C2218 C2202 1.368 . S
C2218 C2214 1.368 . S
C2218 C2217 1.523 . S
H2219 C2194 0.950 . S
H2220 C2196 0.950 . S
H2221 C2197 0.949 . S
H2222 C2199 0.950 . S
H2223 C2201 0.950 . S
C545 C28 1.369 . S
C550 C6 1.378 . S
C575 C62 1.378 . S
C580 C40 1.369 . S
C605 C96 1.369 . S
C610 C74 1.378 . S
C635 C130 1.378 . S
C640 C108 1.369 . S
C665 C142 1.378 . S
C670 C164 1.369 . S
C695 C176 1.378 . S
C700 C198 1.369 . S
C725 C210 1.378 . S
C730 C232 1.369 . S
C755 C266 1.369 . S
C760 C244 1.378 . S
C785 C278 1.378 . S
C790 C300 1.369 . S
C815 C334 1.378 . S
C820 C312 1.369 . S
C845 C368 1.369 . S
C850 C346 1.378 . S
C875 C380 1.369 . S
C880 C402 1.378 . S
C905 C436 1.378 . S
C910 C414 1.369 . S
C935 C448 1.378 . S
C940 C470 1.369 . S
C965 C482 1.369 . S
C970 C504 1.378 . S
C995 C516 1.378 . S
C1000 C538 1.369 . S
C1025 C391 1.615 . S
C1030 C22 1.522 . S
C1055 C289 1.615 . S
C1060 C49 1.522 . S
C1085 C323 1.615 . S
C1090 C90 1.522 . S
C1115 C357 1.615 . S
C1120 C117 1.522 . S
C1145 C158 1.522 1_556 S
C1150 C187 1.615 . S
C1175 C192 1.522 1_554 S
C1180 C221 1.615 . S
C1205 C226 1.522 1_556 S
C1210 C255 1.615 . S
C1235 C260 1.522 1_554 S
C1240 C153 1.615 . S
C1265 C294 1.522 . S
C1270 C119 1.615 . S
C1295 C17 1.615 . S
C1300 C321 1.522 . S
C1325 C362 1.522 . S
C1330 C51 1.615 . S
C1355 C389 1.522 . S
C1360 C85 1.615 . S
C1385 C423 1.522 . S
C1390 C459 1.615 . S
C1415 C493 1.615 . S
C1420 C464 1.522 . S
C1445 C491 1.522 . S
C1450 C527 1.615 . S
C1475 C532 1.522 . S
C1480 C425 1.615 . S
C1505 C15 1.507 . S
C1510 C151 1.507 . S
C1535 C185 1.507 . S
C1540 C56 1.507 . S
C1565 C219 1.507 . S
C1570 C83 1.507 . S
C1595 C253 1.507 . S
C1600 C124 1.507 . S
C1625 C430 1.507 . S
C1630 C287 1.507 . S
C1655 C328 1.507 . S
C1660 C457 1.507 . S
C1685 C355 1.507 . S
C1690 C498 1.507 . S
C1715 C396 1.507 . S
C1720 C525 1.507 . S
C1745 C1 1.226 . S
C1750 C479 1.226 . S
C1775 C37 1.226 . S
C1780 C511 1.226 . S
C1805 C411 1.226 . S
C1810 C69 1.226 . S
C1835 C105 1.226 . S
C1840 C443 1.226 . S
C1865 C137 1.226 . S
C1870 C341 1.226 . S
C1895 C377 1.226 . S
C1900 C171 1.226 . S
C1925 C205 1.226 . S
C1930 C273 1.226 . S
C1955 C239 1.226 . S
C1960 C309 1.226 . S
C1985 C3 2.354 . S
C1990 C477 2.354 . S
C2015 C35 2.354 . S
C2020 C513 2.354 . S
C2045 C409 2.354 . S
C2050 C71 2.354 . S
C2075 C103 2.354 . S
C2080 C445 2.354 . S
C2105 C139 2.354 . S
C2110 C343 2.354 . S
C2135 C173 2.354 . S
C2140 C375 2.354 . S
C2165 C207 2.354 . S
C2170 C275 2.354 . S
C2195 C241 2.354 . S
C2200 C307 2.354 . S
