# Generated by pormake.
# Topology whz, (6)-cn, num edge types: 1
# Building blocks:
#     Node 0, Type 0, BuildingBlock: UKALOJ_clean_sbu_0, # of connection points: 6
#     Node 1, Type 0, BuildingBlock: UKALOJ_clean_sbu_0, # of connection points: 6
#     Node 2, Type 0, BuildingBlock: UKALOJ_clean_sbu_0, # of connection points: 6
#     Node 3, Type 0, BuildingBlock: UKALOJ_clean_sbu_0, # of connection points: 6
#     Node 4, Type 0, BuildingBlock: UKALOJ_clean_sbu_0, # of connection points: 6
#     Node 5, Type 0, BuildingBlock: UKALOJ_clean_sbu_0, # of connection points: 6
#     Node 6, Type 0, BuildingBlock: UKALOJ_clean_sbu_0, # of connection points: 6
#     Node 7, Type 0, BuildingBlock: UKALOJ_clean_sbu_0, # of connection points: 6
#     Node 8, Type 0, BuildingBlock: UKALOJ_clean_sbu_0, # of connection points: 6
#     Node 9, Type 0, BuildingBlock: UKALOJ_clean_sbu_0, # of connection points: 6
#     Node 10, Type 0, BuildingBlock: UKALOJ_clean_sbu_0, # of connection points: 6
#     Node 11, Type 0, BuildingBlock: UKALOJ_clean_sbu_0, # of connection points: 6
#     Node 12, Type 0, BuildingBlock: UKALOJ_clean_sbu_0, # of connection points: 6
#     Node 13, Type 0, BuildingBlock: UKALOJ_clean_sbu_0, # of connection points: 6
#     Node 14, Type 0, BuildingBlock: UKALOJ_clean_sbu_0, # of connection points: 6
#     Node 15, Type 0, BuildingBlock: UKALOJ_clean_sbu_0, # of connection points: 6
#     Edge 16, Type (0, 0), BuildingBlock: MIFKUJ_clean_linker_0, # of connection points: 2
#     Edge 17, Type (0, 0), BuildingBlock: MIFKUJ_clean_linker_0, # of connection points: 2
#     Edge 18, Type (0, 0), BuildingBlock: MIFKUJ_clean_linker_0, # of connection points: 2
#     Edge 19, Type (0, 0), BuildingBlock: MIFKUJ_clean_linker_0, # of connection points: 2
#     Edge 20, Type (0, 0), BuildingBlock: MIFKUJ_clean_linker_0, # of connection points: 2
#     Edge 21, Type (0, 0), BuildingBlock: MIFKUJ_clean_linker_0, # of connection points: 2
#     Edge 22, Type (0, 0), BuildingBlock: MIFKUJ_clean_linker_0, # of connection points: 2
#     Edge 23, Type (0, 0), BuildingBlock: MIFKUJ_clean_linker_0, # of connection points: 2
#     Edge 24, Type (0, 0), BuildingBlock: MIFKUJ_clean_linker_0, # of connection points: 2
#     Edge 25, Type (0, 0), BuildingBlock: MIFKUJ_clean_linker_0, # of connection points: 2
#     Edge 26, Type (0, 0), BuildingBlock: MIFKUJ_clean_linker_0, # of connection points: 2
#     Edge 27, Type (0, 0), BuildingBlock: MIFKUJ_clean_linker_0, # of connection points: 2
#     Edge 28, Type (0, 0), BuildingBlock: MIFKUJ_clean_linker_0, # of connection points: 2
#     Edge 29, Type (0, 0), BuildingBlock: MIFKUJ_clean_linker_0, # of connection points: 2
#     Edge 30, Type (0, 0), BuildingBlock: MIFKUJ_clean_linker_0, # of connection points: 2
#     Edge 31, Type (0, 0), BuildingBlock: MIFKUJ_clean_linker_0, # of connection points: 2
#     Edge 32, Type (0, 0), BuildingBlock: MIFKUJ_clean_linker_0, # of connection points: 2
#     Edge 33, Type (0, 0), BuildingBlock: MIFKUJ_clean_linker_0, # of connection points: 2
#     Edge 34, Type (0, 0), BuildingBlock: MIFKUJ_clean_linker_0, # of connection points: 2
#     Edge 35, Type (0, 0), BuildingBlock: MIFKUJ_clean_linker_0, # of connection points: 2
#     Edge 36, Type (0, 0), BuildingBlock: MIFKUJ_clean_linker_0, # of connection points: 2
#     Edge 37, Type (0, 0), BuildingBlock: MIFKUJ_clean_linker_0, # of connection points: 2
#     Edge 38, Type (0, 0), BuildingBlock: MIFKUJ_clean_linker_0, # of connection points: 2
#     Edge 39, Type (0, 0), BuildingBlock: MIFKUJ_clean_linker_0, # of connection points: 2
#     Edge 40, Type (0, 0), BuildingBlock: MIFKUJ_clean_linker_0, # of connection points: 2
#     Edge 41, Type (0, 0), BuildingBlock: MIFKUJ_clean_linker_0, # of connection points: 2
#     Edge 42, Type (0, 0), BuildingBlock: MIFKUJ_clean_linker_0, # of connection points: 2
#     Edge 43, Type (0, 0), BuildingBlock: MIFKUJ_clean_linker_0, # of connection points: 2
#     Edge 44, Type (0, 0), BuildingBlock: MIFKUJ_clean_linker_0, # of connection points: 2
#     Edge 45, Type (0, 0), BuildingBlock: MIFKUJ_clean_linker_0, # of connection points: 2
#     Edge 46, Type (0, 0), BuildingBlock: MIFKUJ_clean_linker_0, # of connection points: 2
#     Edge 47, Type (0, 0), BuildingBlock: MIFKUJ_clean_linker_0, # of connection points: 2
#     Edge 48, Type (0, 0), BuildingBlock: MIFKUJ_clean_linker_0, # of connection points: 2
#     Edge 49, Type (0, 0), BuildingBlock: MIFKUJ_clean_linker_0, # of connection points: 2
#     Edge 50, Type (0, 0), BuildingBlock: MIFKUJ_clean_linker_0, # of connection points: 2
#     Edge 51, Type (0, 0), BuildingBlock: MIFKUJ_clean_linker_0, # of connection points: 2
#     Edge 52, Type (0, 0), BuildingBlock: MIFKUJ_clean_linker_0, # of connection points: 2
#     Edge 53, Type (0, 0), BuildingBlock: MIFKUJ_clean_linker_0, # of connection points: 2
#     Edge 54, Type (0, 0), BuildingBlock: MIFKUJ_clean_linker_0, # of connection points: 2
#     Edge 55, Type (0, 0), BuildingBlock: MIFKUJ_clean_linker_0, # of connection points: 2
#     Edge 56, Type (0, 0), BuildingBlock: MIFKUJ_clean_linker_0, # of connection points: 2
#     Edge 57, Type (0, 0), BuildingBlock: MIFKUJ_clean_linker_0, # of connection points: 2
#     Edge 58, Type (0, 0), BuildingBlock: MIFKUJ_clean_linker_0, # of connection points: 2
#     Edge 59, Type (0, 0), BuildingBlock: MIFKUJ_clean_linker_0, # of connection points: 2
#     Edge 60, Type (0, 0), BuildingBlock: MIFKUJ_clean_linker_0, # of connection points: 2
#     Edge 61, Type (0, 0), BuildingBlock: MIFKUJ_clean_linker_0, # of connection points: 2
#     Edge 62, Type (0, 0), BuildingBlock: MIFKUJ_clean_linker_0, # of connection points: 2
#     Edge 63, Type (0, 0), BuildingBlock: MIFKUJ_clean_linker_0, # of connection points: 2
# Relax obj value: 0.339
# Max RMSD: 0.232
# Mean RMSD: 0.232
data_MOF--net-whz--node1-UKALOJ_clean_sbu_0--edge1-MIFKUJ_clean_linker_0
_symmetry_space_group_name_H-M    P1
_symmetry_Int_Tables_number       1
_symmetry_cell_setting            triclinic
loop_
_symmetry_equiv_pos_as_xyz
'x, y, z'
_cell_length_a     51.292373
_cell_length_b     51.289884
_cell_length_c     62.139319
_cell_angle_alpha  90.013586
_cell_angle_beta   90.006844
_cell_angle_gamma 89.966472
loop_
_atom_site_label
_atom_site_type_symbol
_atom_site_fract_x
_atom_site_fract_y
_atom_site_fract_z
_atom_type_partial_charge
Zn0 Zn 0.30044 0.14897 0.12319 0.0
O1 O 0.30326 0.16538 0.15465 0.0
C2 C 0.3072 0.09616 0.1423 0.0
Zn3 Zn 0.26216 0.13014 0.13076 0.0
C4 C 0.28423 0.16138 0.16735 0.0
O5 O 0.26544 0.14714 0.16119 0.0
C6 C 0.27598 0.11879 0.08612 0.0
O7 O 0.24241 0.16394 0.12012 0.0
O8 O 0.28007 0.18265 0.11309 0.0
N9 N 0.22827 0.1131 0.14092 0.0
C10 C 0.20348 0.11209 0.13364 0.0
C11 C 0.20508 0.08996 0.16265 0.0
N12 N 0.22909 0.09938 0.15895 0.0
N13 N 0.18851 0.09767 0.14709 0.0
C14 C 0.35081 0.18474 0.12078 0.0
C15 C 0.37117 0.16669 0.09487 0.0
N16 N 0.33586 0.16473 0.11378 0.0
N17 N 0.34863 0.15366 0.09766 0.0
N18 N 0.37313 0.18625 0.10923 0.0
H19 H 0.32148 0.20698 0.13733 0.0
H20 H 0.3531 0.2225 0.13601 0.0
H21 H 0.34794 0.19534 0.15387 0.0
C22 C 0.34283 0.20361 0.13793 0.0
C23 C 0.19446 0.12419 0.11299 0.0
H24 H 0.18581 0.14356 0.11649 0.0
H25 H 0.17936 0.11187 0.10523 0.0
H26 H 0.21096 0.12706 0.10175 0.0
O27 O 0.25883 0.11353 0.1002 0.0
O28 O 0.29562 0.13264 0.09135 0.0
C29 C 0.25527 0.18376 0.11386 0.0
O30 O 0.32029 0.11504 0.13459 0.0
O31 O 0.28249 0.09719 0.14186 0.0
Zn32 Zn 0.60176 0.55586 0.37231 0.0
O33 O 0.58149 0.559 0.40221 0.0
C34 C 0.65329 0.56173 0.39426 0.0
Zn35 Zn 0.61852 0.51771 0.38248 0.0
C36 C 0.58535 0.54166 0.41648 0.0
O37 O 0.60085 0.52302 0.4125 0.0
C38 C 0.63359 0.52945 0.33768 0.0
O39 O 0.58452 0.49882 0.37186 0.0
O40 O 0.56889 0.53587 0.35972 0.0
N41 N 0.63389 0.48362 0.39369 0.0
C42 C 0.6376 0.45972 0.38514 0.0
C43 C 0.65175 0.45869 0.41739 0.0
N44 N 0.64272 0.48288 0.41369 0.0
N45 N 0.64888 0.44368 0.39974 0.0
C46 C 0.57825 0.61245 0.37226 0.0
C47 C 0.57229 0.61913 0.33878 0.0
N48 N 0.58651 0.59089 0.36176 0.0
N49 N 0.5828 0.59517 0.34096 0.0
N50 N 0.56911 0.63036 0.3582 0.0
H51 H 0.56314 0.6085 0.40413 0.0
H52 H 0.58198 0.63765 0.39992 0.0
H53 H 0.59815 0.60646 0.40238 0.0
C54 C 0.58065 0.61657 0.39605 0.0
C55 C 0.62907 0.45201 0.36296 0.0
H56 H 0.61343 0.46492 0.35693 0.0
H57 H 0.62215 0.43152 0.36281 0.0
H58 H 0.64586 0.45374 0.35182 0.0
O59 O 0.63572 0.51229 0.35231 0.0
O60 O 0.62148 0.55061 0.34181 0.0
C61 C 0.56642 0.51142 0.36255 0.0
O62 O 0.63497 0.57533 0.38612 0.0
O63 O 0.65176 0.53705 0.39361 0.0
Zn64 Zn 0.20185 0.84845 0.6208 0.0
O65 O 0.20232 0.82918 0.65141 0.0
C66 C 0.19244 0.89932 0.64172 0.0
Zn67 Zn 0.2394 0.86821 0.62858 0.0
C68 C 0.22126 0.83385 0.66408 0.0
O69 O 0.23847 0.85025 0.65854 0.0
C70 C 0.22313 0.88155 0.5846 0.0
O71 O 0.26113 0.83615 0.61693 0.0
O72 O 0.22416 0.8172 0.60835 0.0
N73 N 0.27215 0.88745 0.63818 0.0
C74 C 0.29666 0.88913 0.63049 0.0
C75 C 0.29463 0.91304 0.65852 0.0
N76 N 0.271 0.90228 0.65561 0.0
N77 N 0.31114 0.90501 0.64304 0.0
C78 C 0.14675 0.82166 0.62264 0.0
C79 C 0.14148 0.81055 0.58987 0.0
N80 N 0.16803 0.8297 0.61168 0.0
N81 N 0.16461 0.82283 0.59134 0.0
N82 N 0.12975 0.80958 0.60926 0.0
H83 H 0.15569 0.80714 0.6539 0.0
H84 H 0.12389 0.82114 0.65218 0.0
H85 H 0.15228 0.84197 0.65259 0.0
C86 C 0.14425 0.82325 0.64665 0.0
C87 C 0.30589 0.87636 0.61018 0.0
H88 H 0.28947 0.87316 0.59891 0.0
H89 H 0.31455 0.85715 0.6142 0.0
H90 H 0.32104 0.88842 0.60222 0.0
O91 O 0.24079 0.88566 0.59848 0.0
O92 O 0.2036 0.86743 0.58965 0.0
C93 C 0.24894 0.81665 0.60927 0.0
O94 O 0.17993 0.87988 0.63431 0.0
O95 O 0.21714 0.89955 0.64054 0.0
Zn96 Zn 0.881 0.48283 0.87954 0.0
O97 O 0.91311 0.50567 0.86961 0.0
C98 C 0.87152 0.46687 0.8347 0.0
Zn99 Zn 0.90202 0.44575 0.87233 0.0
C100 C 0.93359 0.494 0.86334 0.0
O101 O 0.93369 0.46925 0.86233 0.0
C102 C 0.85022 0.43507 0.89117 0.0
O103 O 0.91846 0.44552 0.9038 0.0
O104 O 0.89706 0.4817 0.91033 0.0
N105 N 0.92337 0.41326 0.86389 0.0
C106 C 0.92706 0.38949 0.87277 0.0
C107 C 0.95248 0.39223 0.84574 0.0
N108 N 0.93914 0.41478 0.84707 0.0
N109 N 0.94526 0.37595 0.86164 0.0
C110 C 0.85906 0.53966 0.88023 0.0
C111 C 0.83459 0.53816 0.90794 0.0
N112 N 0.86062 0.51529 0.88829 0.0
N113 N 0.84541 0.51445 0.90549 0.0
N114 N 0.84291 0.55442 0.89238 0.0
H115 H 0.89133 0.55733 0.86409 0.0
H116 H 0.86026 0.56327 0.85151 0.0
H117 H 0.8759 0.53184 0.84899 0.0
C118 C 0.87226 0.54845 0.85996 0.0
C119 C 0.91401 0.3802 0.89292 0.0
H120 H 0.92726 0.36736 0.90225 0.0
H121 H 0.89646 0.36876 0.88847 0.0
H122 H 0.90776 0.39682 0.90306 0.0
O123 O 0.86993 0.42285 0.8838 0.0
O124 O 0.84974 0.45979 0.8902 0.0
C125 C 0.91278 0.46413 0.9165 0.0
O126 O 0.8654 0.48395 0.8486 0.0
O127 O 0.8861 0.44785 0.8402 0.0
Zn128 Zn 0.7339 0.86769 0.86515 0.0
O129 O 0.75374 0.83241 0.87105 0.0
C130 C 0.72472 0.87501 0.91142 0.0
Zn131 Zn 0.69615 0.84952 0.87466 0.0
C132 C 0.74152 0.81301 0.87876 0.0
O133 O 0.71723 0.81506 0.88256 0.0
C134 C 0.6889 0.90369 0.85878 0.0
O135 O 0.691 0.83467 0.84293 0.0
O136 O 0.72658 0.85546 0.83371 0.0
N137 N 0.66234 0.83149 0.88478 0.0
C138 C 0.63921 0.8266 0.87517 0.0
C139 C 0.63894 0.80695 0.9054 0.0
N140 N 0.662 0.81934 0.90359 0.0
N141 N 0.62425 0.81121 0.88779 0.0
C142 C 0.79144 0.88778 0.86307 0.0
C143 C 0.79257 0.9032 0.83121 0.0
N144 N 0.76749 0.88466 0.85447 0.0
N145 N 0.76827 0.89431 0.83472 0.0
N146 N 0.80748 0.89944 0.84876 0.0
H147 H 0.8205 0.87326 0.88521 0.0
H148 H 0.79566 0.89361 0.89694 0.0
H149 H 0.78802 0.86066 0.88946 0.0
C150 C 0.79942 0.87811 0.88487 0.0
C151 C 0.63241 0.83462 0.85268 0.0
H152 H 0.63739 0.81845 0.84154 0.0
H153 H 0.61124 0.83853 0.85115 0.0
H154 H 0.64348 0.85218 0.84784 0.0
O155 O 0.6758 0.88418 0.86541 0.0
O156 O 0.71365 0.90251 0.85867 0.0
C157 C 0.70742 0.84114 0.82858 0.0
O158 O 0.74119 0.87922 0.8966 0.0
O159 O 0.70302 0.86419 0.90692 0.0
Zn160 Zn 0.38383 0.48568 0.61869 0.0
O161 O 0.41787 0.50694 0.62678 0.0
C162 C 0.37418 0.47347 0.66448 0.0
Zn163 Zn 0.40382 0.44858 0.62782 0.0
C164 C 0.4377 0.49516 0.63432 0.0
O165 O 0.43664 0.47066 0.6374 0.0
C166 C 0.35075 0.43911 0.60992 0.0
O167 O 0.4205 0.4464 0.59644 0.0
O168 O 0.39847 0.48142 0.58749 0.0
N169 N 0.42244 0.41472 0.63754 0.0
C170 C 0.43026 0.39292 0.6271 0.0
C171 C 0.44229 0.38919 0.65978 0.0
N172 N 0.42989 0.41222 0.65783 0.0
N173 N 0.44279 0.37655 0.64077 0.0
C174 C 0.36495 0.54355 0.61611 0.0
C175 C 0.33809 0.54145 0.58999 0.0
N176 N 0.36494 0.51871 0.60899 0.0
N177 N 0.34828 0.5175 0.59274 0.0
N178 N 0.34831 0.55821 0.60438 0.0
H179 H 0.38421 0.53692 0.64656 0.0
H180 H 0.39898 0.56109 0.62958 0.0
H181 H 0.36931 0.56869 0.6437 0.0
C182 C 0.38011 0.55302 0.6352 0.0
C183 C 0.4278 0.38922 0.60325 0.0
H184 H 0.4431 0.40092 0.59514 0.0
H185 H 0.43047 0.36871 0.59828 0.0
H186 H 0.4085 0.39628 0.59768 0.0
O187 O 0.37065 0.42681 0.61681 0.0
O188 O 0.35078 0.46386 0.61011 0.0
C189 C 0.41441 0.4635 0.58249 0.0
O190 O 0.36937 0.49007 0.64988 0.0
O191 O 0.38747 0.4532 0.65984 0.0
Zn192 Zn 0.80603 0.15356 0.37744 0.0
O193 O 0.80914 0.17177 0.34661 0.0
C194 C 0.81321 0.10072 0.35872 0.0
Zn195 Zn 0.76818 0.1357 0.36797 0.0
C196 C 0.79218 0.16617 0.33241 0.0
O197 O 0.77394 0.15052 0.3371 0.0
C198 C 0.77974 0.12462 0.41354 0.0
O199 O 0.74831 0.17024 0.37624 0.0
O200 O 0.78496 0.18661 0.38843 0.0
N201 N 0.73437 0.11914 0.35711 0.0
C202 C 0.7108 0.11507 0.36608 0.0
C203 C 0.70873 0.10165 0.33365 0.0
N204 N 0.733 0.11077 0.33697 0.0
N205 N 0.69442 0.10405 0.35169 0.0
C206 C 0.86268 0.17697 0.3776 0.0
C207 C 0.86423 0.19379 0.40895 0.0
N208 N 0.84003 0.17105 0.38757 0.0
N209 N 0.84117 0.18143 0.40707 0.0
N210 N 0.87812 0.19123 0.3907 0.0
H211 H 0.86309 0.18815 0.34454 0.0
H212 H 0.88965 0.16737 0.35218 0.0
H213 H 0.85729 0.15392 0.34888 0.0
C214 C 0.86854 0.17103 0.3545 0.0
C215 C 0.70345 0.12316 0.38844 0.0
H216 H 0.71524 0.14002 0.39381 0.0
H217 H 0.68246 0.12828 0.3893 0.0
H218 H 0.70713 0.10664 0.39955 0.0
O219 O 0.76247 0.12157 0.39911 0.0
O220 O 0.80117 0.13581 0.40875 0.0
C221 C 0.76059 0.18883 0.38516 0.0
O222 O 0.82641 0.12011 0.36546 0.0
O223 O 0.78847 0.10166 0.35932 0.0
Zn224 Zn 0.11704 0.51446 0.12121 0.0
O225 O 0.08342 0.49405 0.13137 0.0
C226 C 0.12868 0.5282 0.16608 0.0
Zn227 Zn 0.09811 0.5524 0.12947 0.0
C228 C 0.06371 0.50655 0.13829 0.0
O229 O 0.0649 0.53126 0.13992 0.0
C230 C 0.1506 0.56007 0.10984 0.0
O231 O 0.08069 0.55454 0.0984 0.0
O232 O 0.10031 0.51763 0.09079 0.0
N233 N 0.08076 0.5868 0.13918 0.0
C234 C 0.0732 0.60869 0.12878 0.0
C235 C 0.06483 0.61424 0.16206 0.0
N236 N 0.07547 0.59038 0.15984 0.0
N237 N 0.06307 0.62616 0.14281 0.0
C238 C 0.13563 0.45638 0.11978 0.0
C239 C 0.16094 0.45718 0.09257 0.0
N240 N 0.13496 0.48078 0.1117 0.0
N241 N 0.15063 0.48116 0.09476 0.0
N242 N 0.15177 0.44122 0.10801 0.0
H243 H 0.11776 0.46454 0.15056 0.0
H244 H 0.10273 0.43902 0.13514 0.0
H245 H 0.13322 0.43293 0.1485 0.0
C246 C 0.12167 0.44784 0.13975 0.0
C247 C 0.07721 0.61349 0.10525 0.0
H248 H 0.06028 0.60562 0.09624 0.0
H249 H 0.07878 0.63467 0.10184 0.0
H250 H 0.09507 0.60347 0.09954 0.0
O251 O 0.13167 0.57313 0.11762 0.0
O252 O 0.14967 0.53535 0.11036 0.0
C253 C 0.0852 0.53604 0.08526 0.0
O254 O 0.13348 0.51119 0.1518 0.0
O255 O 0.115 0.54809 0.16119 0.0
Zn256 Zn 0.80611 0.65326 0.62262 0.0
O257 O 0.80652 0.67297 0.6528 0.0
C258 C 0.81384 0.602 0.64461 0.0
Zn259 Zn 0.76838 0.634 0.6306 0.0
C260 C 0.78769 0.66871 0.66564 0.0
O261 O 0.77001 0.65267 0.66033 0.0
C262 C 0.78425 0.61988 0.58679 0.0
O263 O 0.74786 0.66647 0.61833 0.0
O264 O 0.78489 0.68531 0.60987 0.0
N265 N 0.73455 0.61659 0.6401 0.0
C266 C 0.7105 0.61484 0.63142 0.0
C267 C 0.71004 0.59356 0.66089 0.0
N268 N 0.73415 0.60342 0.65842 0.0
N269 N 0.69475 0.60054 0.64424 0.0
C270 C 0.86182 0.67877 0.62414 0.0
C271 C 0.86898 0.68548 0.59081 0.0
N272 N 0.84058 0.67046 0.61326 0.0
N273 N 0.84514 0.6747 0.59258 0.0
N274 N 0.87986 0.68836 0.61039 0.0
H275 H 0.85704 0.69333 0.65608 0.0
H276 H 0.88646 0.67475 0.65212 0.0
H277 H 0.8553 0.65839 0.65395 0.0
C278 C 0.86547 0.676 0.64794 0.0
C279 C 0.70293 0.62592 0.60998 0.0
H280 H 0.72017 0.62923 0.59965 0.0
H281 H 0.69309 0.64494 0.61248 0.0
H282 H 0.68915 0.61268 0.60162 0.0
O283 O 0.7667 0.61561 0.60072 0.0
O284 O 0.80365 0.63419 0.59174 0.0
C285 C 0.76011 0.68594 0.61072 0.0
O286 O 0.82684 0.62083 0.63662 0.0
O287 O 0.78915 0.6024 0.64337 0.0
Zn288 Zn 0.0987 0.05028 0.87145 0.0
O289 O 0.0804 0.0521 0.90219 0.0
C290 C 0.15017 0.05899 0.89187 0.0
Zn291 Zn 0.11713 0.01255 0.88091 0.0
C292 C 0.08489 0.03429 0.91594 0.0
O293 O 0.10037 0.01587 0.91122 0.0
C294 C 0.12988 0.02613 0.83583 0.0
O295 O 0.08405 0.99128 0.87076 0.0
O296 O 0.0664 0.02819 0.86046 0.0
N297 N 0.13557 0.9793 0.89077 0.0
C298 C 0.13605 0.95465 0.88321 0.0
C299 C 0.16134 0.95609 0.91042 0.0
N300 N 0.15126 0.98009 0.90769 0.0
N301 N 0.152 0.93972 0.89534 0.0
C302 C 0.07603 0.10742 0.87088 0.0
C303 C 0.05238 0.10597 0.84271 0.0
N304 N 0.07956 0.08369 0.86186 0.0
N305 N 0.0649 0.08297 0.84432 0.0
N306 N 0.05902 0.12173 0.85915 0.0
H307 H 0.07397 0.128 0.90104 0.0
H308 H 0.10537 0.12809 0.88823 0.0
H309 H 0.09424 0.09909 0.90153 0.0
C310 C 0.08797 0.11596 0.89173 0.0
C311 C 0.12213 0.9456 0.86336 0.0
H312 H 0.10293 0.93744 0.86804 0.0
H313 H 0.13342 0.93006 0.85513 0.0
H314 H 0.11881 0.96194 0.85205 0.0
O315 O 0.13353 0.00924 0.85044 0.0
O316 O 0.11658 0.04651 0.84011 0.0
C317 C 0.0649 0.0036 0.86269 0.0
O318 O 0.13135 0.07186 0.88371 0.0
O319 O 0.14936 0.03425 0.89163 0.0
Zn320 Zn 0.73266 0.36769 0.13064 0.0
O321 O 0.75184 0.33317 0.1215 0.0
C322 C 0.72003 0.37839 0.08561 0.0
Zn323 Zn 0.6943 0.34971 0.12239 0.0
C324 C 0.73917 0.31413 0.11367 0.0
O325 O 0.71456 0.31601 0.11149 0.0
C326 C 0.68847 0.40295 0.14135 0.0
O327 O 0.69155 0.33193 0.1533 0.0
O328 O 0.72785 0.35221 0.1615 0.0
N329 N 0.65947 0.33313 0.11275 0.0
C330 C 0.63682 0.32753 0.1229 0.0
C331 C 0.63287 0.31509 0.09037 0.0
N332 N 0.65687 0.32532 0.09257 0.0
N333 N 0.61975 0.31608 0.10916 0.0
C334 C 0.79039 0.38774 0.13118 0.0
C335 C 0.79367 0.40026 0.1638 0.0
N336 N 0.76705 0.38373 0.14065 0.0
N337 N 0.76917 0.39161 0.16087 0.0
N338 N 0.80738 0.39813 0.14541 0.0
H339 H 0.78517 0.36322 0.10327 0.0
H340 H 0.81786 0.37577 0.10673 0.0
H341 H 0.79203 0.39687 0.09769 0.0
C342 C 0.79681 0.38029 0.10845 0.0
C343 C 0.63123 0.33448 0.14585 0.0
H344 H 0.64325 0.35125 0.15107 0.0
H345 H 0.63613 0.31761 0.15626 0.0
H346 H 0.61029 0.33927 0.14801 0.0
O347 O 0.67488 0.38387 0.13451 0.0
O348 O 0.71317 0.40171 0.14027 0.0
C349 C 0.70951 0.33693 0.1668 0.0
O350 O 0.73753 0.38214 0.09968 0.0
O351 O 0.69903 0.3667 0.09078 0.0
Zn352 Zn 0.38328 0.98734 0.38454 0.0
O353 O 0.41829 0.00779 0.37745 0.0
C354 C 0.37481 0.97587 0.33877 0.0
Zn355 Zn 0.40227 0.94948 0.37605 0.0
C356 C 0.43809 0.99519 0.37078 0.0
O357 O 0.43634 0.97067 0.36802 0.0
C358 C 0.34825 0.94168 0.3919 0.0
O359 O 0.41692 0.94555 0.40799 0.0
O360 O 0.39645 0.98184 0.41591 0.0
N361 N 0.42021 0.91542 0.36605 0.0
C362 C 0.42781 0.89331 0.37613 0.0
C363 C 0.43999 0.89033 0.34342 0.0
N364 N 0.42773 0.91337 0.34574 0.0
N365 N 0.4403 0.87723 0.36221 0.0
C366 C 0.36563 0.0457 0.38766 0.0
C367 C 0.34027 0.04391 0.41479 0.0
N368 N 0.36538 0.02077 0.39458 0.0
N369 N 0.34968 0.01977 0.41146 0.0
N370 N 0.35001 0.06066 0.40016 0.0
H371 H 0.39912 0.06332 0.37336 0.0
H372 H 0.36896 0.07022 0.35962 0.0
H373 H 0.38434 0.03865 0.35703 0.0
C374 C 0.3802 0.05493 0.36819 0.0
C375 C 0.42515 0.88897 0.39988 0.0
H376 H 0.44037 0.90045 0.40829 0.0
H377 H 0.42776 0.86833 0.40446 0.0
H378 H 0.40577 0.89585 0.40543 0.0
O379 O 0.36792 0.92871 0.3854 0.0
O380 O 0.34926 0.96642 0.39208 0.0
C381 C 0.41059 0.96282 0.42172 0.0
O382 O 0.36985 0.99264 0.3532 0.0
O383 O 0.38762 0.95541 0.34371 0.0
Zn384 Zn 0.23771 0.37026 0.37148 0.0
O385 O 0.2608 0.3384 0.38146 0.0
C386 C 0.22269 0.38108 0.41656 0.0
Zn387 Zn 0.20085 0.34971 0.37993 0.0
C388 C 0.24939 0.31844 0.38904 0.0
O389 O 0.22467 0.31843 0.39068 0.0
C390 C 0.18974 0.40112 0.3606 0.0
O391 O 0.20041 0.33223 0.34867 0.0
O392 O 0.23598 0.3539 0.34086 0.0
N393 N 0.16834 0.32864 0.38874 0.0
C394 C 0.14459 0.32525 0.37975 0.0
C395 C 0.14675 0.30004 0.40696 0.0
N396 N 0.16953 0.31299 0.40566 0.0
N397 N 0.13068 0.30739 0.39092 0.0
C398 C 0.29407 0.39341 0.36974 0.0
C399 C 0.29127 0.41696 0.34156 0.0
N400 N 0.26969 0.39073 0.36194 0.0
N401 N 0.26805 0.40533 0.34443 0.0
N402 N 0.30803 0.40978 0.35716 0.0
H403 H 0.31342 0.3623 0.38609 0.0
H404 H 0.31779 0.39381 0.39841 0.0
H405 H 0.28725 0.37656 0.40112 0.0
C406 C 0.3036 0.38096 0.3901 0.0
C407 C 0.13566 0.33821 0.35944 0.0
H408 H 0.12244 0.32519 0.35025 0.0
H409 H 0.12477 0.35619 0.36365 0.0
H410 H 0.15241 0.34373 0.34919 0.0
O411 O 0.17766 0.38146 0.36814 0.0
O412 O 0.21446 0.40142 0.36106 0.0
C413 C 0.21845 0.3378 0.33539 0.0
O414 O 0.23954 0.38621 0.40222 0.0
O415 O 0.20318 0.3668 0.41173 0.0
Zn416 Zn 0.89984 0.9478 0.13039 0.0
O417 O 0.91944 0.94743 0.10026 0.0
C418 C 0.84924 0.93767 0.10841 0.0
Zn419 Zn 0.87963 0.98475 0.12123 0.0
C420 C 0.91426 0.96514 0.08661 0.0
O421 O 0.8976 0.98253 0.09124 0.0
C422 C 0.86621 0.96991 0.16568 0.0
O423 O 0.91167 0.00676 0.13253 0.0
O424 O 0.93089 0.97058 0.14291 0.0
N425 N 0.86061 0.01748 0.11104 0.0
C426 C 0.85817 0.04193 0.11881 0.0
C427 C 0.83577 0.03979 0.08996 0.0
N428 N 0.84673 0.01628 0.09311 0.0
N429 N 0.84268 0.05633 0.1058 0.0
C430 C 0.92709 0.89267 0.12954 0.0
C431 C 0.93759 0.88807 0.1625 0.0
N432 N 0.91856 0.91407 0.14015 0.0
N433 N 0.92506 0.91104 0.16062 0.0
N434 N 0.93912 0.87602 0.14327 0.0
H435 H 0.94189 0.90126 0.09828 0.0
H436 H 0.92847 0.86923 0.10033 0.0
H437 H 0.90712 0.89724 0.09934 0.0
C438 C 0.92591 0.88967 0.10555 0.0
C439 C 0.8699 0.05114 0.13955 0.0
H440 H 0.87356 0.03464 0.15062 0.0
H441 H 0.88885 0.06069 0.13612 0.0
H442 H 0.85694 0.06553 0.14752 0.0
O443 O 0.86202 0.98701 0.15133 0.0
O444 O 0.88045 0.95027 0.16118 0.0
C445 C 0.93114 0.9953 0.141 0.0
O446 O 0.86861 0.92562 0.11653 0.0
O447 O 0.84846 0.96237 0.10944 0.0
Zn448 Zn 0.30215 0.64988 0.88084 0.0
O449 O 0.30143 0.66615 0.84921 0.0
C450 C 0.31081 0.59805 0.86143 0.0
Zn451 Zn 0.2642 0.62995 0.87472 0.0
C452 C 0.28189 0.66129 0.83723 0.0
O453 O 0.26404 0.64636 0.84409 0.0
C454 C 0.28195 0.61965 0.91899 0.0
O455 O 0.24267 0.66243 0.88579 0.0
O456 O 0.27991 0.6822 0.89152 0.0
N457 N 0.2308 0.61043 0.86707 0.0
C458 C 0.20672 0.60985 0.8758 0.0
C459 C 0.20633 0.58476 0.84844 0.0
N460 N 0.23047 0.59483 0.85009 0.0
N461 N 0.19101 0.59398 0.8643 0.0
C462 C 0.35873 0.67423 0.87854 0.0
C463 C 0.3577 0.69902 0.90606 0.0
N464 N 0.33547 0.67046 0.8883 0.0
N465 N 0.33504 0.68583 0.90543 0.0
N466 N 0.37299 0.69211 0.8894 0.0
H467 H 0.37811 0.67547 0.84784 0.0
H468 H 0.37959 0.6447 0.86157 0.0
H469 H 0.34972 0.65444 0.84874 0.0
C470 C 0.36682 0.66158 0.85787 0.0
C471 C 0.19908 0.62361 0.89614 0.0
H472 H 0.21617 0.62666 0.90673 0.0
H473 H 0.19076 0.64294 0.89202 0.0
H474 H 0.18405 0.61231 0.90495 0.0
O475 O 0.26428 0.61395 0.90549 0.0
O476 O 0.30097 0.634 0.9131 0.0
C477 C 0.25513 0.68263 0.89162 0.0
O478 O 0.32379 0.61725 0.86883 0.0
O479 O 0.2861 0.5983 0.86289 0.0
Zn480 Zn 0.61979 0.01527 0.61832 0.0
O481 O 0.58643 0.99597 0.63008 0.0
C482 C 0.63499 0.02838 0.66249 0.0
Zn483 Zn 0.60215 0.05355 0.62757 0.0
C484 C 0.56789 0.00877 0.63862 0.0
O485 O 0.56973 0.03342 0.64036 0.0
C486 C 0.65355 0.05975 0.60558 0.0
O487 O 0.58163 0.05606 0.59787 0.0
O488 O 0.60078 0.01957 0.58861 0.0
N489 N 0.58659 0.08858 0.63799 0.0
C490 C 0.5781 0.11007 0.62752 0.0
C491 C 0.57257 0.11687 0.66103 0.0
N492 N 0.58313 0.09294 0.65881 0.0
N493 N 0.56908 0.12803 0.64163 0.0
C494 C 0.63984 0.95742 0.61618 0.0
C495 C 0.64965 0.95465 0.58291 0.0
N496 N 0.63502 0.98091 0.60721 0.0
N497 N 0.64121 0.97909 0.58658 0.0
N498 N 0.64907 0.94064 0.60122 0.0
H499 H 0.61877 0.96338 0.64588 0.0
H500 H 0.62807 0.92993 0.64053 0.0
H501 H 0.65214 0.95336 0.64881 0.0
C502 C 0.63417 0.95062 0.63915 0.0
C503 C 0.58018 0.1141 0.60371 0.0
H504 H 0.56256 0.10599 0.59582 0.0
H505 H 0.58147 0.13516 0.59977 0.0
H506 H 0.59758 0.10392 0.59724 0.0
O507 O 0.63493 0.07308 0.61355 0.0
O508 O 0.65257 0.03502 0.60627 0.0
C509 C 0.58504 0.03791 0.58424 0.0
O510 O 0.63797 0.01098 0.64815 0.0
O511 O 0.62201 0.0489 0.65801 0.0
H512 H 0.31477 0.20127 0.18273 0.0
H513 H 0.3041 0.23068 0.21251 0.0
H514 H 0.23632 0.18435 0.22734 0.0
H515 H 0.24691 0.15478 0.19794 0.0
H516 H 0.22464 0.23629 0.2205 0.0
H517 H 0.28346 0.18484 0.26214 0.0
H518 H 0.32466 0.16247 0.27085 0.0
H519 H 0.36519 0.23568 0.26991 0.0
H520 H 0.32421 0.2585 0.261 0.0
H521 H 0.1885 0.29754 0.32 0.0
H522 H 0.1997 0.2681 0.29033 0.0
H523 H 0.26724 0.31492 0.27578 0.0
H524 H 0.25615 0.3445 0.30507 0.0
H525 H 0.27899 0.26248 0.28283 0.0
H526 H 0.22104 0.31417 0.24023 0.0
H527 H 0.18005 0.33679 0.23118 0.0
H528 H 0.13878 0.26401 0.23314 0.0
H529 H 0.17955 0.24096 0.24232 0.0
C530 C 0.29802 0.19694 0.19268 0.0
C531 C 0.28154 0.17587 0.18779 0.0
C532 C 0.2919 0.21379 0.20966 0.0
C533 C 0.26926 0.20978 0.22192 0.0
C534 C 0.25373 0.18788 0.21791 0.0
C535 C 0.25991 0.17097 0.20112 0.0
C536 C 0.26051 0.22951 0.2377 0.0
C537 C 0.23646 0.24191 0.23419 0.0
C538 C 0.27608 0.23699 0.25539 0.0
C539 C 0.30081 0.22335 0.26065 0.0
C540 C 0.30119 0.19615 0.26359 0.0
C541 C 0.3245 0.1834 0.26862 0.0
C542 C 0.34756 0.19763 0.27082 0.0
C543 C 0.34732 0.22468 0.26813 0.0
C544 C 0.32405 0.23754 0.26313 0.0
C545 C 0.20536 0.30192 0.31015 0.0
C546 C 0.22162 0.32315 0.31507 0.0
C547 C 0.21176 0.28507 0.29324 0.0
C548 C 0.23447 0.28923 0.2811 0.0
C549 C 0.24979 0.31127 0.28514 0.0
C550 C 0.24332 0.3282 0.30185 0.0
C551 C 0.24339 0.26957 0.26533 0.0
C552 C 0.26738 0.25708 0.26893 0.0
C553 C 0.22787 0.26213 0.2476 0.0
C554 C 0.20328 0.27589 0.24221 0.0
C555 C 0.20318 0.30302 0.23893 0.0
C556 C 0.18001 0.31591 0.2337 0.0
C557 C 0.1568 0.30187 0.2317 0.0
C558 C 0.15676 0.27487 0.23476 0.0
C559 C 0.17991 0.26187 0.23992 0.0
H560 H 0.13887 0.3119 0.2277 0.0
H561 H 0.36559 0.1877 0.27468 0.0
H562 H 0.40031 0.49109 0.54692 0.0
H563 H 0.42877 0.50421 0.5174 0.0
H564 H 0.48981 0.45487 0.54241 0.0
H565 H 0.46142 0.44172 0.57213 0.0
H566 H 0.50589 0.50417 0.53848 0.0
H567 H 0.46371 0.44276 0.49376 0.0
H568 H 0.42935 0.41856 0.47458 0.0
H569 H 0.40506 0.48888 0.44292 0.0
H570 H 0.43897 0.51365 0.46222 0.0
H571 H 0.59537 0.51343 0.45252 0.0
H572 H 0.56522 0.50376 0.48166 0.0
H573 H 0.50914 0.55718 0.45451 0.0
H574 H 0.53931 0.56678 0.42495 0.0
H575 H 0.48879 0.51 0.46024 0.0
H576 H 0.53663 0.56884 0.5038 0.0
H577 H 0.57532 0.58909 0.52037 0.0
H578 H 0.59383 0.51687 0.55183 0.0
H579 H 0.55557 0.49611 0.53524 0.0
C580 C 0.41953 0.48242 0.54579 0.0
C581 C 0.42875 0.4656 0.56196 0.0
C582 C 0.43576 0.4899 0.52886 0.0
C583 C 0.46148 0.48069 0.52782 0.0
C584 C 0.47005 0.4623 0.54301 0.0
C585 C 0.45374 0.45465 0.55989 0.0
C586 C 0.48022 0.49279 0.51267 0.0
C587 C 0.50251 0.50484 0.52126 0.0
C588 C 0.47523 0.49461 0.49034 0.0
C589 C 0.45363 0.48018 0.47978 0.0
C590 C 0.45072 0.4532 0.48305 0.0
C591 C 0.4314 0.43934 0.47206 0.0
C592 C 0.41495 0.45219 0.45762 0.0
C593 C 0.41774 0.47896 0.45418 0.0
C594 C 0.43699 0.49293 0.46517 0.0
C595 C 0.5769 0.52367 0.45302 0.0
C596 C 0.56962 0.54074 0.43637 0.0
C597 C 0.55971 0.51822 0.46979 0.0
C598 C 0.53495 0.52981 0.47033 0.0
C599 C 0.52821 0.54809 0.45442 0.0
C600 C 0.54551 0.55366 0.43762 0.0
C601 C 0.51518 0.52007 0.48576 0.0
C602 C 0.49241 0.50889 0.47735 0.0
C603 C 0.52016 0.51834 0.50809 0.0
C604 C 0.54329 0.53084 0.51812 0.0
C605 C 0.54908 0.55721 0.51411 0.0
C606 C 0.57093 0.56881 0.52355 0.0
C607 C 0.58708 0.5543 0.53713 0.0
C608 C 0.58136 0.52816 0.54134 0.0
C609 C 0.55956 0.51646 0.53193 0.0
H610 H 0.60399 0.56333 0.54439 0.0
H611 H 0.40011 0.4414 0.44903 0.0
H612 H 0.18793 0.79911 0.68367 0.0
H613 H 0.19837 0.76961 0.71362 0.0
H614 H 0.2754 0.80277 0.71779 0.0
H615 H 0.26511 0.83257 0.68854 0.0
H616 H 0.27321 0.7464 0.7137 0.0
H617 H 0.24048 0.81744 0.75553 0.0
H618 H 0.20927 0.85113 0.76723 0.0
H619 H 0.15284 0.79196 0.78192 0.0
H620 H 0.18361 0.75789 0.76997 0.0
H621 H 0.31615 0.69322 0.81572 0.0
H622 H 0.30609 0.7213 0.78479 0.0
H623 H 0.22832 0.68959 0.78219 0.0
H624 H 0.23817 0.66131 0.81256 0.0
H625 H 0.2312 0.74531 0.78555 0.0
H626 H 0.26496 0.67392 0.74423 0.0
H627 H 0.29729 0.64075 0.73363 0.0
H628 H 0.35241 0.70098 0.71848 0.0
H629 H 0.3205 0.73454 0.72929 0.0
C630 C 0.20689 0.80041 0.69124 0.0
C631 C 0.22564 0.81818 0.68371 0.0
C632 C 0.21283 0.78357 0.70828 0.0
C633 C 0.2377 0.78403 0.71773 0.0
C634 C 0.25616 0.80212 0.71061 0.0
C635 C 0.25012 0.81922 0.69394 0.0
C636 C 0.24501 0.76489 0.7344 0.0
C637 C 0.26413 0.74623 0.72944 0.0
C638 C 0.23303 0.76469 0.75485 0.0
C639 C 0.21421 0.78513 0.76153 0.0
C640 C 0.22128 0.81162 0.76095 0.0
C641 C 0.20371 0.83079 0.76771 0.0
C642 C 0.17904 0.8237 0.77523 0.0
C643 C 0.17192 0.79742 0.77603 0.0
C644 C 0.18942 0.77818 0.76926 0.0
C645 C 0.2971 0.69191 0.80828 0.0
C646 C 0.2779 0.67524 0.81671 0.0
C647 C 0.29139 0.70792 0.79066 0.0
C648 C 0.26639 0.70759 0.78145 0.0
C649 C 0.24765 0.69018 0.78923 0.0
C650 C 0.25341 0.67397 0.80654 0.0
C651 C 0.25905 0.72659 0.76468 0.0
C652 C 0.24004 0.74533 0.76969 0.0
C653 C 0.27115 0.72687 0.74428 0.0
C654 C 0.29044 0.70675 0.73784 0.0
C655 C 0.28406 0.6801 0.73886 0.0
C656 C 0.30228 0.66123 0.73273 0.0
C657 C 0.32691 0.66875 0.72542 0.0
C658 C 0.33334 0.69518 0.72417 0.0
C659 C 0.31518 0.71414 0.73028 0.0
H660 H 0.341 0.6541 0.72074 0.0
H661 H 0.16548 0.83856 0.7805 0.0
H662 H 0.90515 0.50247 0.94608 0.0
H663 H 0.93414 0.51449 0.97547 0.0
H664 H 0.98166 0.44685 0.96281 0.0
H665 H 0.95281 0.43466 0.93296 0.0
H666 H 0.97378 0.45988 0.00828 0.0
H667 H 1.0009 0.49775 0.94135 0.0
H668 H 0.99447 0.52207 0.90761 0.0
H669 H 0.9734 0.59047 0.94349 0.0
H670 H 0.97892 0.56626 0.9775 0.0
H671 H 0.09165 0.49918 0.05429 0.0
H672 H 0.06122 0.48812 0.02567 0.0
H673 H 0.01411 0.55498 0.04174 0.0
H674 H 0.04439 0.56613 0.07092 0.0
H675 H 0.02112 0.54284 0.99498 0.0
H676 H 0.9945 0.50443 0.06214 0.0
H677 H 0.00132 0.47961 0.09561 0.0
H678 H 0.02248 0.4119 0.05888 0.0
H679 H 0.01629 0.43652 0.02515 0.0
C680 C 0.92145 0.48978 0.94975 0.0
C681 C 0.92693 0.4678 0.93696 0.0
C682 C 0.93799 0.49675 0.96654 0.0
C683 C 0.96018 0.48179 0.97097 0.0
C684 C 0.96461 0.45866 0.95947 0.0
C685 C 0.94813 0.45174 0.94247 0.0
C686 C 0.97981 0.49169 0.98626 0.0
C687 C 0.98435 0.47785 0.00531 0.0
C688 C 0.99316 0.5154 0.98241 0.0
C689 C 0.99002 0.53008 0.96198 0.0
C690 C 0.99461 0.51789 0.94206 0.0
C691 C 0.99119 0.53168 0.92287 0.0
C692 C 0.98355 0.55782 0.92339 0.0
C693 C 0.97929 0.5702 0.94311 0.0
C694 C 0.98252 0.55644 0.96235 0.0
C695 C 0.07513 0.51191 0.05154 0.0
C696 C 0.07021 0.53334 0.0651 0.0
C697 C 0.05776 0.50549 0.03519 0.0
C698 C 0.03529 0.52048 0.03195 0.0
C699 C 0.03135 0.54314 0.04418 0.0
C700 C 0.04868 0.5495 0.06077 0.0
C701 C 0.01507 0.51105 0.017 0.0
C702 C 0.01046 0.52495 0.99799 0.0
C703 C 0.00171 0.48735 0.02085 0.0
C704 C 0.00524 0.47243 0.04111 0.0
C705 C 1.00087 0.48433 0.06119 0.0
C706 C 0.0046 0.47028 0.08022 0.0
C707 C 0.01244 0.44421 0.07937 0.0
C708 C 0.01647 0.43211 0.0595 0.0
C709 C 0.01286 0.44611 0.04042 0.0
H710 H 0.01531 0.43332 0.09409 0.0
H711 H 0.98098 0.56851 0.90854 0.0
H712 H 0.67686 0.80086 0.81425 0.0
H713 H 0.68598 0.7735 0.78287 0.0
H714 H 0.74703 0.82629 0.76343 0.0
H715 H 0.73757 0.85405 0.7942 0.0
H716 H 0.72548 0.80154 0.72876 0.0
H717 H 0.75883 0.77918 0.79981 0.0
H718 H 0.75298 0.76857 0.83814 0.0
H719 H 0.70737 0.70147 0.82115 0.0
H720 H 0.71253 0.71201 0.78264 0.0
H721 H 0.81131 0.71499 0.67608 0.0
H722 H 0.79626 0.74621 0.70327 0.0
H723 H 0.73874 0.69078 0.72498 0.0
H724 H 0.75399 0.65945 0.69843 0.0
H725 H 0.75714 0.71709 0.75786 0.0
H726 H 0.72516 0.73722 0.68703 0.0
H727 H 0.72969 0.74758 0.64855 0.0
H728 H 0.7704 0.81815 0.66431 0.0
H729 H 0.76685 0.80779 0.70298 0.0
C730 C 0.69153 0.80716 0.80284 0.0
C731 C 0.70706 0.82913 0.80702 0.0
C732 C 0.69675 0.79148 0.78495 0.0
C733 C 0.71775 0.79749 0.77129 0.0
C734 C 0.73097 0.82115 0.77393 0.0
C735 C 0.72563 0.83691 0.79165 0.0
C736 C 0.72907 0.77743 0.75695 0.0
C737 C 0.73249 0.7831 0.73507 0.0
C738 C 0.73809 0.75335 0.76525 0.0
C739 C 0.73576 0.74657 0.78837 0.0
C740 C 0.74735 0.76231 0.80426 0.0
C741 C 0.7441 0.75633 0.82603 0.0
C742 C 0.72959 0.73448 0.8321 0.0
C743 C 0.71848 0.71846 0.81641 0.0
C744 C 0.72155 0.72443 0.79462 0.0
C745 C 0.79601 0.70921 0.6871 0.0
C746 C 0.78358 0.68493 0.68494 0.0
C747 C 0.78724 0.72714 0.70245 0.0
C748 C 0.7659 0.72104 0.71571 0.0
C749 C 0.75504 0.696 0.71478 0.0
C750 C 0.7638 0.67811 0.69956 0.0
C751 C 0.75351 0.74104 0.72953 0.0
C752 C 0.75003 0.73543 0.75142 0.0
C753 C 0.7443 0.76506 0.72115 0.0
C754 C 0.74605 0.77154 0.69791 0.0
C755 C 0.7353 0.75483 0.68231 0.0
C756 C 0.73771 0.7607 0.66044 0.0
C757 C 0.75041 0.78347 0.65396 0.0
C758 C 0.76067 0.80046 0.66936 0.0
C759 C 0.75851 0.79457 0.69125 0.0
H760 H 0.75218 0.78806 0.63704 0.0
H761 H 0.72706 0.72981 0.84892 0.0
H762 H 0.74022 0.34863 0.20107 0.0
H763 H 0.75416 0.31875 0.22928 0.0
H764 H 0.69953 0.26116 0.20634 0.0
H765 H 0.68574 0.29094 0.17766 0.0
H766 H 0.73323 0.29202 0.26213 0.0
H767 H 0.731 0.20063 0.20852 0.0
H768 H 0.73001 0.18883 0.17005 0.0
H769 H 0.76967 0.25995 0.15417 0.0
H770 H 0.77145 0.2719 0.19255 0.0
H771 H 0.76349 0.15337 0.2972 0.0
H772 H 0.75104 0.18242 0.26796 0.0
H773 H 0.80439 0.2407 0.29175 0.0
H774 H 0.8166 0.21182 0.32149 0.0
H775 H 0.7715 0.20923 0.23531 0.0
H776 H 0.77336 0.29904 0.29141 0.0
H777 H 0.77215 0.30842 0.33039 0.0
H778 H 0.72911 0.23788 0.34129 0.0
H779 H 0.72975 0.22831 0.3025 0.0
C780 C 0.73069 0.32984 0.20232 0.0
C781 C 0.71217 0.32196 0.18696 0.0
C782 C 0.7387 0.31278 0.21846 0.0
C783 C 0.7284 0.28751 0.21952 0.0
C784 C 0.70812 0.28042 0.20547 0.0
C785 C 0.70006 0.29754 0.18925 0.0
C786 C 0.74047 0.26821 0.2342 0.0
C787 C 0.74182 0.27406 0.25622 0.0
C788 C 0.75127 0.2445 0.22654 0.0
C789 C 0.751 0.23732 0.2034 0.0
C790 C 0.73962 0.21369 0.19682 0.0
C791 C 0.73893 0.20697 0.17503 0.0
C792 C 0.7496 0.22371 0.15966 0.0
C793 C 0.76127 0.24707 0.16606 0.0
C794 C 0.76215 0.25382 0.18785 0.0
C795 C 0.77308 0.17213 0.29594 0.0
C796 C 0.79063 0.18055 0.31188 0.0
C797 C 0.76597 0.18869 0.27915 0.0
C798 C 0.77627 0.21395 0.27802 0.0
C799 C 0.79582 0.22143 0.29263 0.0
C800 C 0.80294 0.20484 0.30951 0.0
C801 C 0.76436 0.23315 0.26316 0.0
C802 C 0.76301 0.22727 0.24115 0.0
C803 C 0.75321 0.25664 0.27083 0.0
C804 C 0.75192 0.26281 0.29411 0.0
C805 C 0.76353 0.28563 0.30215 0.0
C806 C 0.76295 0.29097 0.32422 0.0
C807 C 0.75069 0.27368 0.33834 0.0
C808 C 0.73872 0.25119 0.33041 0.0
C809 C 0.73918 0.2458 0.30839 0.0
H810 H 0.75049 0.27767 0.35541 0.0
H811 H 0.74885 0.2185 0.14281 0.0
H812 H 0.90343 0.99649 0.0525 0.0
H813 H 0.93249 0.00773 0.02296 0.0
H814 H 0.9889 0.95188 0.046 0.0
H815 H 0.95997 0.94075 0.07598 0.0
H816 H 0.01022 0.99944 0.04018 0.0
H817 H 0.95591 0.9419 0.99978 0.0
H818 H 0.91471 0.92391 0.98577 0.0
H819 H 0.89844 0.99633 0.95385 0.0
H820 H 0.93923 0.01502 0.96811 0.0
H821 H 0.09484 0.00315 0.95031 0.0
H822 H 0.06538 0.99305 0.97983 0.0
H823 H 0.01089 0.05063 0.95654 0.0
H824 H 0.04027 0.06065 0.92655 0.0
H825 H 0.98836 0.00293 0.96246 0.0
H826 H 0.0431 0.06032 0.00345 0.0
H827 H 0.08565 0.0768 0.01598 0.0
H828 H 0.10182 0.0031 0.04588 0.0
H829 H 0.05955 0.98602 0.03326 0.0
C830 C 0.92179 0.98619 0.05107 0.0
C831 C 0.92951 0.96784 0.06664 0.0
C832 C 0.93835 0.9926 0.03412 0.0
C833 C 0.96283 0.98066 0.03233 0.0
C834 C 0.97007 0.96135 0.04719 0.0
C835 C 0.95346 0.95487 0.06419 0.0
C836 C 0.98159 0.98997 0.016 0.0
C837 C 0.00561 0.99985 0.02314 0.0
C838 C 0.97515 0.9912 0.99388 0.0
C839 C 0.95055 0.97998 0.98524 0.0
C840 C 0.94343 0.95411 0.98998 0.0
C841 C 0.92014 0.94378 0.98199 0.0
C842 C 0.90393 0.959 0.96899 0.0
C843 C 0.91099 0.98458 0.96396 0.0
C844 C 0.93419 0.99507 0.97202 0.0
C845 C 0.07685 0.01411 0.9517 0.0
C846 C 0.06977 0.03258 0.93604 0.0
C847 C 0.06006 0.00834 0.96863 0.0
C848 C 0.03597 0.02109 0.97034 0.0
C849 C 0.02941 0.04057 0.95542 0.0
C850 C 0.04628 0.04641 0.93843 0.0
C851 C 0.01691 0.0124 0.98666 0.0
C852 C 0.99286 0.00263 0.97952 0.0
C853 C 0.02332 0.01118 0.00877 0.0
C854 C 0.04825 0.0218 0.01721 0.0
C855 C 0.05577 0.04759 0.01263 0.0
C856 C 0.07984 0.05703 0.01974 0.0
C857 C 0.09649 0.04092 0.03156 0.0
C858 C 0.08894 0.0155 0.03662 0.0
C859 C 0.0649 0.00594 0.02953 0.0
H860 H 0.11527 0.04813 0.03677 0.0
H861 H 0.88596 0.95093 0.96275 0.0
H862 H 0.39475 0.99197 0.45581 0.0
H863 H 0.42071 0.00286 0.48739 0.0
H864 H 0.47854 0.94625 0.46855 0.0
H865 H 0.45271 0.93528 0.43665 0.0
H866 H 0.47154 0.95538 0.5161 0.0
H867 H 0.48403 0.99952 0.44777 0.0
H868 H 0.46724 0.02342 0.41645 0.0
H869 H 0.44186 0.08573 0.45759 0.0
H870 H 0.45767 0.0616 0.4894 0.0
H871 H 0.5899 0.00304 0.55152 0.0
H872 H 0.55661 0.99114 0.52539 0.0
H873 H 0.5079 0.05418 0.54755 0.0
H874 H 0.54118 0.06621 0.57415 0.0
H875 H 0.50683 0.04368 0.50057 0.0
H876 H 0.49367 0.00247 0.56832 0.0
H877 H 0.50719 0.97908 0.60099 0.0
H878 H 0.53057 0.91328 0.56284 0.0
H879 H 0.51774 0.93665 0.52975 0.0
C880 C 0.41258 0.9812 0.4587 0.0
C881 C 0.4221 0.96327 0.44346 0.0
C882 C 0.42729 0.98736 0.47684 0.0
C883 C 0.45169 0.97571 0.47996 0.0
C884 C 0.45972 0.95546 0.46629 0.0
C885 C 0.445 0.94929 0.44804 0.0
C886 C 0.47072 0.98814 0.49451 0.0
C887 C 0.47939 0.97457 0.51268 0.0
C888 C 0.48032 0.01353 0.49022 0.0
C889 C 0.47171 0.02855 0.47104 0.0
C890 C 0.47448 0.01811 0.45022 0.0
C891 C 0.46514 0.03172 0.43234 0.0
C892 C 0.45337 0.05606 0.43499 0.0
C893 C 0.45093 0.06683 0.45556 0.0
C894 C 0.46003 0.05316 0.47354 0.0
C895 C 0.57242 0.01484 0.55056 0.0
C896 C 0.56802 0.03535 0.56515 0.0
C897 C 0.5534 0.00796 0.53561 0.0
C898 C 0.5297 0.02151 0.53486 0.0
C899 C 0.5261 0.04347 0.548 0.0
C900 C 0.54515 0.05033 0.56314 0.0
C901 C 0.50794 0.01074 0.52205 0.0
C902 C 0.4988 0.0246 0.50414 0.0
C903 C 0.49758 0.98579 0.52674 0.0
C904 C 0.50501 0.97142 0.54654 0.0
C905 C 0.50192 0.9831 0.56686 0.0
C906 C 0.50942 0.96982 0.58548 0.0
C907 C 0.51975 0.94467 0.58404 0.0
C908 C 0.52257 0.93277 0.56394 0.0
C909 C 0.5152 0.94603 0.54523 0.0
H910 H 0.52555 0.9344 0.59847 0.0
H911 H 0.44627 0.06663 0.42109 0.0
H912 H 0.15068 0.109 0.9077 0.0
H913 H 0.17897 0.12575 0.93632 0.0
H914 H 0.22306 0.0541 0.9352 0.0
H915 H 0.19543 0.03761 0.90647 0.0
H916 H 0.18063 0.10567 0.97478 0.0
H917 H 0.28279 0.06113 0.95592 0.0
H918 H 0.31122 0.05403 0.92446 0.0
H919 H 0.27337 0.11678 0.89104 0.0
H920 H 0.24496 0.12453 0.9224 0.0
H921 H 0.2438 0.08074 0.071 0.0
H922 H 0.22883 0.07476 0.03405 0.0
H923 H 0.28024 0.13615 0.01289 0.0
H924 H 0.29603 0.14161 0.04986 0.0
H925 H 0.27668 0.09911 0.98262 0.0
H926 H 0.21638 0.14857 0.0251 0.0
H927 H 0.18849 0.15685 0.05673 0.0
H928 H 0.14263 0.08933 0.04149 0.0
H929 H 0.1705 0.0803 0.01017 0.0
C930 C 0.16699 0.09723 0.91301 0.0
C931 C 0.17068 0.07191 0.90488 0.0
C932 C 0.18304 0.10674 0.9295 0.0
C933 C 0.20318 0.09121 0.938 0.0
C934 C 0.20797 0.06669 0.92879 0.0
C935 C 0.192 0.0572 0.91237 0.0
C936 C 0.21688 0.09884 0.95819 0.0
C937 C 0.20166 0.10453 0.97637 0.0
C938 C 0.24437 0.09761 0.96035 0.0
C939 C 0.26162 0.0933 0.9415 0.0
C940 C 0.28063 0.07353 0.94191 0.0
C941 C 0.29672 0.06936 0.92408 0.0
C942 C 0.29406 0.0849 0.90575 0.0
C943 C 0.27535 0.10469 0.90523 0.0
C944 C 0.25922 0.10896 0.92302 0.0
C945 C 0.25237 0.09257 0.05842 0.0
C946 C 0.27093 0.1118 0.06338 0.0
C947 C 0.24367 0.08926 0.0373 0.0
C948 C 0.25283 0.10554 0.02078 0.0
C949 C 0.27271 0.12352 0.0254 0.0
C950 C 0.28176 0.12658 0.04654 0.0
C951 C 0.24029 0.10494 0.99918 0.0
C952 C 0.2557 0.10061 0.98085 0.0
C953 C 0.21295 0.10777 0.99677 0.0
C954 C 0.19566 0.11368 0.01532 0.0
C955 C 0.2004 0.13543 0.02856 0.0
C956 C 0.18459 0.14024 0.04648 0.0
C957 C 0.16379 0.1236 0.05117 0.0
C958 C 0.15872 0.10219 0.03792 0.0
C959 C 0.17452 0.09722 0.02007 0.0
H960 H 0.1516 0.12731 0.06506 0.0
H961 H 0.30653 0.08163 0.89196 0.0
H962 H 0.62544 0.55713 0.30025 0.0
H963 H 0.63426 0.54243 0.26339 0.0
H964 H 0.66882 0.47185 0.28822 0.0
H965 H 0.66104 0.48675 0.32477 0.0
H966 H 0.69516 0.48591 0.2555 0.0
H967 H 0.60391 0.47552 0.27026 0.0
H968 H 0.55977 0.48995 0.2806 0.0
H969 H 0.55786 0.54226 0.22667 0.0
H970 H 0.60217 0.52838 0.21619 0.0
H971 H 0.6433 0.40133 0.16468 0.0
H972 H 0.63202 0.43019 0.19463 0.0
H973 H 0.69594 0.48087 0.17787 0.0
H974 H 0.7078 0.45167 0.14839 0.0
H975 H 0.62028 0.47962 0.20515 0.0
H976 H 0.73004 0.49513 0.22272 0.0
H977 H 0.77211 0.47391 0.21454 0.0
H978 H 0.73354 0.40003 0.20807 0.0
H979 H 0.69137 0.42072 0.21659 0.0
C980 C 0.63542 0.53874 0.29783 0.0
C981 C 0.64233 0.52304 0.31551 0.0
C982 C 0.64022 0.53023 0.27673 0.0
C983 C 0.65175 0.50575 0.27293 0.0
C984 C 0.65984 0.49076 0.29061 0.0
C985 C 0.65526 0.49931 0.3116 0.0
C986 C 0.65452 0.49494 0.25075 0.0
C987 C 0.67881 0.48484 0.24445 0.0
C988 C 0.63311 0.49286 0.2364 0.0
C989 C 0.60645 0.50115 0.2426 0.0
C990 C 0.59414 0.49024 0.26071 0.0
C991 C 0.56909 0.4983 0.26658 0.0
C992 C 0.55605 0.51707 0.25434 0.0
C993 C 0.56801 0.52776 0.23616 0.0
C994 C 0.59309 0.51981 0.23025 0.0
C995 C 0.65437 0.41911 0.16689 0.0
C996 C 0.67666 0.42405 0.15437 0.0
C997 C 0.64794 0.43559 0.18408 0.0
C998 C 0.66356 0.45734 0.18886 0.0
C999 C 0.68395 0.4639 0.17479 0.0
C1000 C 0.69063 0.44725 0.15785 0.0
C1001 C 0.66091 0.47086 0.20997 0.0
C1002 C 0.6367 0.48126 0.21608 0.0
C1003 C 0.68212 0.47232 0.22456 0.0
C1004 C 0.70753 0.45956 0.22004 0.0
C1005 C 0.73058 0.47434 0.21966 0.0
C1006 C 0.75443 0.4624 0.21496 0.0
C1007 C 0.75548 0.43566 0.21072 0.0
C1008 C 0.7327 0.42075 0.2113 0.0
C1009 C 0.70882 0.43258 0.21607 0.0
H1010 H 0.77395 0.42647 0.20704 0.0
H1011 H 0.53666 0.52328 0.25891 0.0
H1012 H 0.1944 0.87038 0.54818 0.0
H1013 H 0.20662 0.87983 0.51078 0.0
H1014 H 0.2749 0.92081 0.53318 0.0
H1015 H 0.26245 0.91238 0.57015 0.0
H1016 H 0.25732 0.94521 0.50088 0.0
H1017 H 0.27561 0.855 0.51648 0.0
H1018 H 0.26466 0.81004 0.52728 0.0
H1019 H 0.21177 0.80372 0.47395 0.0
H1020 H 0.22216 0.84881 0.46302 0.0
H1021 H 0.34968 0.89642 0.41488 0.0
H1022 H 0.31892 0.8839 0.44308 0.0
H1023 H 0.26698 0.9456 0.42328 0.0
H1024 H 0.29822 0.95887 0.39568 0.0
H1025 H 0.27048 0.87003 0.45178 0.0
H1026 H 0.24663 0.97877 0.46699 0.0
H1027 H 0.26541 0.02224 0.45988 0.0
H1028 H 0.34213 0.98885 0.45704 0.0
H1029 H 0.32385 0.9453 0.46447 0.0
C1030 C 0.21167 0.88191 0.54509 0.0
C1031 C 0.2275 0.89048 0.56218 0.0
C1032 C 0.21878 0.88709 0.5237 0.0
C1033 C 0.24196 0.90065 0.51908 0.0
C1034 C 0.25694 0.91031 0.53621 0.0
C1035 C 0.24978 0.90539 0.55745 0.0
C1036 C 0.25175 0.90389 0.49666 0.0
C1037 C 0.25981 0.92878 0.49006 0.0
C1038 C 0.25561 0.88244 0.48261 0.0
C1039 C 0.2494 0.85535 0.4891 0.0
C1040 C 0.2615 0.84408 0.50716 0.0
C1041 C 0.25542 0.81857 0.51329 0.0
C1042 C 0.23747 0.80406 0.50135 0.0
C1043 C 0.22562 0.815 0.48322 0.0
C1044 C 0.23159 0.84053 0.47705 0.0
C1045 C 0.33127 0.90669 0.41601 0.0
C1046 C 0.32649 0.92884 0.4033 0.0
C1047 C 0.31368 0.89954 0.43219 0.0
C1048 C 0.29096 0.91428 0.43571 0.0
C1049 C 0.28468 0.93433 0.42122 0.0
C1050 C 0.30247 0.94181 0.40535 0.0
C1051 C 0.27619 0.91128 0.45619 0.0
C1052 C 0.26729 0.88651 0.4624 0.0
C1053 C 0.2726 0.93263 0.47038 0.0
C1054 C 0.28381 0.95877 0.466 0.0
C1055 C 0.2675 0.98074 0.46488 0.0
C1056 C 0.27807 0.00538 0.46082 0.0
C1057 C 0.30493 0.00829 0.45797 0.0
C1058 C 0.32132 0.98657 0.4592 0.0
C1059 C 0.31087 0.9619 0.46334 0.0
H1060 H 0.31305 0.02739 0.4549 0.0
H1061 H 0.23279 0.78431 0.50611 0.0
H1062 H 0.86368 0.60121 0.66099 0.0
H1063 H 0.88061 0.57166 0.68872 0.0
H1064 H 0.80864 0.5282 0.68701 0.0
H1065 H 0.79201 0.557 0.65917 0.0
H1066 H 0.86253 0.56695 0.72756 0.0
H1067 H 0.81534 0.46717 0.70383 0.0
H1068 H 0.80732 0.44144 0.67097 0.0
H1069 H 0.86999 0.48104 0.63893 0.0
H1070 H 0.87866 0.50675 0.67167 0.0
H1071 H 0.83314 0.49828 0.81929 0.0
H1072 H 0.82878 0.51492 0.78273 0.0
H1073 H 0.89149 0.46492 0.76184 0.0
H1074 H 0.89574 0.44775 0.79857 0.0
H1075 H 0.85341 0.47066 0.73044 0.0
H1076 H 0.90613 0.52518 0.77431 0.0
H1077 H 0.91717 0.54968 0.80722 0.0
H1078 H 0.85102 0.59962 0.79743 0.0
H1079 H 0.83932 0.57514 0.76464 0.0
C1080 C 0.85182 0.58485 0.66605 0.0
C1081 C 0.82646 0.58153 0.65789 0.0
C1082 C 0.86144 0.56808 0.68203 0.0
C1083 C 0.84597 0.54758 0.68998 0.0
C1084 C 0.82121 0.54349 0.68097 0.0
C1085 C 0.81164 0.56016 0.66506 0.0
C1086 C 0.85414 0.53226 0.70922 0.0
C1087 C 0.86083 0.54588 0.72804 0.0
C1088 C 0.85245 0.50466 0.70991 0.0
C1089 C 0.84755 0.48902 0.69021 0.0
C1090 C 0.82753 0.47029 0.68982 0.0
C1091 C 0.82284 0.45573 0.6712 0.0
C1092 C 0.8381 0.45964 0.65286 0.0
C1093 C 0.85813 0.47808 0.65312 0.0
C1094 C 0.86291 0.49269 0.67171 0.0
C1095 C 0.84559 0.49029 0.80684 0.0
C1096 C 0.86495 0.47186 0.81187 0.0
C1097 C 0.84316 0.49993 0.78595 0.0
C1098 C 0.86025 0.49165 0.76969 0.0
C1099 C 0.87822 0.47171 0.7742 0.0
C1100 C 0.88056 0.46185 0.79517 0.0
C1101 C 0.86056 0.50554 0.74871 0.0
C1102 C 0.85551 0.49168 0.72971 0.0
C1103 C 0.86437 0.53287 0.7477 0.0
C1104 C 0.87178 0.54823 0.76704 0.0
C1105 C 0.89388 0.54133 0.77921 0.0
C1106 C 0.90025 0.5552 0.79785 0.0
C1107 C 0.8848 0.57618 0.80442 0.0
C1108 C 0.86299 0.58338 0.79231 0.0
C1109 C 0.85649 0.56953 0.77367 0.0
H1110 H 0.88973 0.58687 0.81888 0.0
H1111 H 0.83443 0.44835 0.63846 0.0
H1112 H 0.80063 0.95407 0.09693 0.0
H1113 H 0.77497 0.93859 0.06632 0.0
H1114 H 0.83042 0.87667 0.05588 0.0
H1115 H 0.85606 0.89184 0.0867 0.0
H1116 H 0.82316 0.91075 0.02045 0.0
H1117 H 0.77112 0.86083 0.06993 0.0
H1118 H 0.74368 0.85443 0.10208 0.0
H1119 H 0.68785 0.9093 0.07753 0.0
H1120 H 0.71514 0.91631 0.04536 0.0
H1121 H 0.76807 0.85526 0.92899 0.0
H1122 H 0.78502 0.86185 0.9652 0.0
H1123 H 0.71857 0.91021 0.98042 0.0
H1124 H 0.70064 0.90202 0.94421 0.0
H1125 H 0.73064 0.8837 0.0142 0.0
H1126 H 0.78102 0.93458 0.96521 0.0
H1127 H 0.80826 0.94374 0.9334 0.0
H1128 H 0.86754 0.89229 0.95741 0.0
H1129 H 0.84039 0.8822 0.98903 0.0
C1130 C 0.80688 0.93661 0.08858 0.0
C1131 C 0.8304 0.9242 0.0942 0.0
C1132 C 0.7922 0.92781 0.07107 0.0
C1133 C 0.80088 0.90659 0.05876 0.0
C1134 C 0.82341 0.8931 0.06519 0.0
C1135 C 0.83792 0.90166 0.08292 0.0
C1136 C 0.78834 0.90062 0.0378 0.0
C1137 C 0.80307 0.90436 0.01904 0.0
C1138 C 0.76178 0.89354 0.03603 0.0
C1139 C 0.74531 0.88928 0.05533 0.0
C1140 C 0.75311 0.87171 0.07147 0.0
C1141 C 0.73755 0.86793 0.08968 0.0
C1142 C 0.71407 0.8815 0.09187 0.0
C1143 C 0.70606 0.89882 0.07582 0.0
C1144 C 0.72155 0.90268 0.05759 0.0
C1145 C 0.75701 0.86717 0.94014 0.0
C1146 C 0.73326 0.87843 0.93385 0.0
C1147 C 0.76678 0.87108 0.9608 0.0
C1148 C 0.75359 0.88728 0.97541 0.0
C1149 C 0.72928 0.89784 0.96939 0.0
C1150 C 0.71905 0.89325 0.94876 0.0
C1151 C 0.7656 0.89338 0.99668 0.0
C1152 C 0.75077 0.88996 0.0155 0.0
C1153 C 0.79205 0.90129 0.99852 0.0
C1154 C 0.80848 0.9074 0.97943 0.0
C1155 C 0.79975 0.925 0.96362 0.0
C1156 C 0.81519 0.93035 0.94559 0.0
C1157 C 0.83957 0.9185 0.94331 0.0
C1158 C 0.84859 0.90134 0.9591 0.0
C1159 C 0.83317 0.89578 0.97708 0.0
H1160 H 0.85151 0.92269 0.92937 0.0
H1161 H 0.70206 0.87855 0.10598 0.0
H1162 H 0.35953 0.599 0.8431 0.0
H1163 H 0.37433 0.57221 0.81283 0.0
H1164 H 0.30422 0.52611 0.81715 0.0
H1165 H 0.2896 0.55235 0.84753 0.0
H1166 H 0.34342 0.49625 0.8039 0.0
H1167 H 0.30625 0.57885 0.78493 0.0
H1168 H 0.30218 0.62676 0.78623 0.0
H1169 H 0.3796 0.63468 0.76082 0.0
H1170 H 0.38431 0.58678 0.75972 0.0
H1171 H 0.33557 0.5061 0.67761 0.0
H1172 H 0.32714 0.522 0.71391 0.0
H1173 H 0.38853 0.47266 0.73842 0.0
H1174 H 0.39639 0.45592 0.70202 0.0
H1175 H 0.35561 0.54973 0.73816 0.0
H1176 H 0.37872 0.45998 0.79183 0.0
H1177 H 0.37522 0.41202 0.79048 0.0
H1178 H 0.31295 0.41805 0.74456 0.0
H1179 H 0.31585 0.46601 0.74584 0.0
C1180 C 0.34771 0.58258 0.83811 0.0
C1181 C 0.32322 0.57803 0.84757 0.0
C1182 C 0.35609 0.5674 0.82067 0.0
C1183 C 0.3401 0.54752 0.81238 0.0
C1184 C 0.31685 0.5414 0.82314 0.0
C1185 C 0.30849 0.55651 0.84053 0.0
C1186 C 0.34576 0.53522 0.79118 0.0
C1187 C 0.34638 0.5079 0.78954 0.0
C1188 C 0.34869 0.5504 0.77229 0.0
C1189 C 0.34577 0.57922 0.77252 0.0
C1190 C 0.32248 0.59081 0.77977 0.0
C1191 C 0.32006 0.61795 0.78048 0.0
C1192 C 0.34069 0.63374 0.77376 0.0
C1193 C 0.3637 0.62241 0.76614 0.0
C1194 C 0.36626 0.59527 0.76546 0.0
C1195 C 0.34693 0.4982 0.69079 0.0
C1196 C 0.36658 0.47966 0.68694 0.0
C1197 C 0.34223 0.50749 0.71156 0.0
C1198 C 0.35723 0.4987 0.72903 0.0
C1199 C 0.3764 0.47956 0.72533 0.0
C1200 C 0.38087 0.46993 0.70451 0.0
C1201 C 0.35341 0.51058 0.75075 0.0
C1202 C 0.35308 0.53793 0.7525 0.0
C1203 C 0.34972 0.4954 0.76956 0.0
C1204 C 0.34775 0.46657 0.76874 0.0
C1205 C 0.36425 0.45106 0.78148 0.0
C1206 C 0.36237 0.42388 0.78073 0.0
C1207 C 0.34394 0.41199 0.76738 0.0
C1208 C 0.32729 0.42727 0.75481 0.0
C1209 C 0.32908 0.45445 0.75553 0.0
H1210 H 0.34252 0.39095 0.76682 0.0
H1211 H 0.33879 0.65475 0.77436 0.0
H1212 H 0.81279 0.11244 0.44716 0.0
H1213 H 0.80028 0.10381 0.48487 0.0
H1214 H 0.71954 0.11599 0.46848 0.0
H1215 H 0.73159 0.12375 0.43116 0.0
H1216 H 0.74648 0.14484 0.50911 0.0
H1217 H 0.72576 0.06128 0.47177 0.0
H1218 H 0.7396 0.02353 0.44995 0.0
H1219 H 0.79978 0.00617 0.49584 0.0
H1220 H 0.78646 0.0441 0.51776 0.0
H1221 H 0.64938 0.10299 0.58053 0.0
H1222 H 0.67974 0.117 0.5527 0.0
H1223 H 0.73509 0.05881 0.57372 0.0
H1224 H 0.70378 0.04359 0.6006 0.0
H1225 H 0.732 0.05429 0.53438 0.0
H1226 H 0.74547 0.12937 0.57708 0.0
H1227 H 0.7343 0.1673 0.59966 0.0
H1228 H 0.69367 0.2023 0.5466 0.0
H1229 H 0.70427 0.16443 0.52377 0.0
C1230 C 0.79239 0.11304 0.45165 0.0
C1231 C 0.77313 0.11835 0.43613 0.0
C1232 C 0.78531 0.10825 0.47313 0.0
C1233 C 0.75901 0.10941 0.47935 0.0
C1234 C 0.73993 0.11506 0.46395 0.0
C1235 C 0.74686 0.1192 0.44257 0.0
C1236 C 0.7507 0.10413 0.50171 0.0
C1237 C 0.74339 0.12511 0.51485 0.0
C1238 C 0.74753 0.07843 0.5093 0.0
C1239 C 0.75537 0.05565 0.4962 0.0
C1240 C 0.74211 0.04956 0.47707 0.0
C1241 C 0.74981 0.02811 0.46472 0.0
C1242 C 0.77062 0.01251 0.47147 0.0
C1243 C 0.78371 0.0183 0.49061 0.0
C1244 C 0.7761 0.03976 0.50299 0.0
C1245 C 0.66833 0.09372 0.57961 0.0
C1246 C 0.67426 0.07225 0.59272 0.0
C1247 C 0.68584 0.10181 0.5637 0.0
C1248 C 0.71003 0.0892 0.56107 0.0
C1249 C 0.71659 0.06884 0.57524 0.0
C1250 C 0.69878 0.06026 0.59072 0.0
C1251 C 0.72687 0.09511 0.54207 0.0
C1252 C 0.7357 0.07419 0.52933 0.0
C1253 C 0.7319 0.12099 0.53513 0.0
C1254 C 0.72559 0.14396 0.54873 0.0
C1255 C 0.73403 0.14508 0.57025 0.0
C1256 C 0.72781 0.16659 0.58309 0.0
C1257 C 0.71326 0.18718 0.57457 0.0
C1258 C 0.70495 0.18634 0.55317 0.0
C1259 C 0.71111 0.16488 0.54026 0.0
H1260 H 0.70845 0.2038 0.58455 0.0
H1261 H 0.77656 0.99591 0.46189 0.0
H1262 H 0.14172 0.39825 0.34131 0.0
H1263 H 0.12635 0.42598 0.31182 0.0
H1264 H 0.19267 0.47654 0.32056 0.0
H1265 H 0.20788 0.44926 0.35011 0.0
H1266 H 0.15157 0.5041 0.30627 0.0
H1267 H 0.19763 0.42607 0.28766 0.0
H1268 H 0.2058 0.3787 0.28864 0.0
H1269 H 0.13166 0.36463 0.25874 0.0
H1270 H 0.12279 0.41198 0.25801 0.0
H1271 H 0.16938 0.49876 0.18007 0.0
H1272 H 0.17713 0.48283 0.21652 0.0
H1273 H 0.11068 0.52666 0.23918 0.0
H1274 H 0.10371 0.54365 0.20282 0.0
H1275 H 0.14994 0.45238 0.2388 0.0
H1276 H 0.11446 0.53761 0.29295 0.0
H1277 H 0.1137 0.58572 0.29288 0.0
H1278 H 0.17994 0.58705 0.25065 0.0
H1279 H 0.1813 0.53898 0.25069 0.0
C1280 C 0.15244 0.41584 0.33752 0.0
C1281 C 0.17621 0.42136 0.34782 0.0
C1282 C 0.14374 0.43159 0.32056 0.0
C1283 C 0.1587 0.453 0.31367 0.0
C1284 C 0.18088 0.46007 0.32549 0.0
C1285 C 0.18959 0.44438 0.34237 0.0
C1286 C 0.15371 0.46563 0.29254 0.0
C1287 C 0.15089 0.49283 0.2915 0.0
C1288 C 0.15387 0.451 0.27321 0.0
C1289 C 0.15939 0.42255 0.27304 0.0
C1290 C 0.18299 0.41287 0.28142 0.0
C1291 C 0.18774 0.38603 0.28194 0.0
C1292 C 0.1692 0.36867 0.27386 0.0
C1293 C 0.14595 0.37812 0.26508 0.0
C1294 C 0.14104 0.40496 0.26462 0.0
C1295 C 0.15685 0.50554 0.19295 0.0
C1296 C 0.13606 0.5226 0.18863 0.0
C1297 C 0.16114 0.49623 0.21378 0.0
C1298 C 0.14448 0.50339 0.23074 0.0
C1299 C 0.12414 0.52112 0.22655 0.0
C1300 C 0.12017 0.53089 0.20574 0.0
C1301 C 0.14765 0.49108 0.25235 0.0
C1302 C 0.15019 0.4638 0.2535 0.0
C1303 C 0.1483 0.50579 0.27167 0.0
C1304 C 0.14776 0.5347 0.27163 0.0
C1305 C 0.12889 0.54818 0.2837 0.0
C1306 C 0.12836 0.57544 0.28366 0.0
C1307 C 0.1467 0.58943 0.2717 0.0
C1308 C 0.16568 0.57619 0.25983 0.0
C1309 C 0.16631 0.54894 0.25983 0.0
H1310 H 0.14624 0.61053 0.27168 0.0
H1311 H 0.17288 0.34789 0.27438 0.0
H1312 H 0.80423 0.64141 0.55 0.0
H1313 H 0.78749 0.63535 0.51339 0.0
H1314 H 0.73649 0.57445 0.53614 0.0
H1315 H 0.7525 0.58095 0.57273 0.0
H1316 H 0.7825 0.59797 0.48345 0.0
H1317 H 0.67688 0.58127 0.51411 0.0
H1318 H 0.65013 0.59178 0.54595 0.0
H1319 H 0.69817 0.65847 0.55897 0.0
H1320 H 0.72483 0.64875 0.52693 0.0
H1321 H 0.6979 0.53878 0.40853 0.0
H1322 H 0.72628 0.55404 0.43724 0.0
H1323 H 0.68405 0.62677 0.43959 0.0
H1324 H 0.65503 0.61128 0.41096 0.0
H1325 H 0.6863 0.60603 0.47804 0.0
H1326 H 0.74916 0.62434 0.42425 0.0
H1327 H 0.77629 0.61634 0.39217 0.0
H1328 H 0.81404 0.55251 0.42425 0.0
H1329 H 0.78689 0.55987 0.45643 0.0
C1330 C 0.78996 0.62626 0.54708 0.0
C1331 C 0.77947 0.61184 0.56427 0.0
C1332 C 0.78033 0.62288 0.52616 0.0
C1333 C 0.76022 0.60496 0.52213 0.0
C1334 C 0.75152 0.58888 0.53896 0.0
C1335 C 0.76084 0.59248 0.55985 0.0
C1336 C 0.74682 0.60435 0.50091 0.0
C1337 C 0.76148 0.59978 0.48222 0.0
C1338 C 0.71945 0.60759 0.49922 0.0
C1339 C 0.703 0.61413 0.51818 0.0
C1340 C 0.68162 0.5983 0.52366 0.0
C1341 C 0.66648 0.6041 0.54176 0.0
C1342 C 0.67248 0.62574 0.55449 0.0
C1343 C 0.69356 0.6417 0.5491 0.0
C1344 C 0.70868 0.63606 0.53096 0.0
C1345 C 0.69503 0.55832 0.41472 0.0
C1346 C 0.67407 0.57375 0.40753 0.0
C1347 C 0.7114 0.56709 0.43113 0.0
C1348 C 0.70739 0.59159 0.44063 0.0
C1349 C 0.68752 0.60777 0.43252 0.0
C1350 C 0.67107 0.59898 0.41603 0.0
C1351 C 0.72184 0.5987 0.46056 0.0
C1352 C 0.70735 0.60452 0.47912 0.0
C1353 C 0.74937 0.59704 0.46202 0.0
C1354 C 0.76586 0.59258 0.44273 0.0
C1355 C 0.76312 0.60848 0.42442 0.0
C1356 C 0.77853 0.60408 0.40622 0.0
C1357 C 0.79685 0.58391 0.40616 0.0
C1358 C 0.79984 0.56813 0.42432 0.0
C1359 C 0.78448 0.57244 0.44256 0.0
H1360 H 0.80875 0.58053 0.39205 0.0
H1361 H 0.66078 0.63015 0.56852 0.0
H1362 H 0.11914 0.05262 0.79821 0.0
H1363 H 0.12848 0.0379 0.7614 0.0
H1364 H 0.16812 0.9703 0.78672 0.0
H1365 H 0.15971 0.98514 0.82312 0.0
H1366 H 0.19331 0.98606 0.75393 0.0
H1367 H 0.10336 0.96885 0.76952 0.0
H1368 H 0.05835 0.98005 0.78001 0.0
H1369 H 0.05169 0.03057 0.72519 0.0
H1370 H 0.09683 0.01995 0.71455 0.0
H1371 H 0.1479 0.89467 0.66552 0.0
H1372 H 0.13433 0.92362 0.69481 0.0
H1373 H 0.19402 0.97861 0.67667 0.0
H1374 H 0.20824 0.94934 0.64796 0.0
H1375 H 0.11877 0.9724 0.70424 0.0
H1376 H 0.22733 0.99642 0.72058 0.0
H1377 H 0.27069 0.97779 0.71268 0.0
H1378 H 0.23728 0.90119 0.70877 0.0
H1379 H 0.19385 0.9193 0.71701 0.0
C1380 C 0.13033 0.03493 0.79588 0.0
C1381 C 0.13856 0.02003 0.81363 0.0
C1382 C 0.13544 0.0264 0.77484 0.0
C1383 C 0.14865 0.00273 0.77124 0.0
C1384 C 0.15791 0.98859 0.78898 0.0
C1385 C 0.153 0.99714 0.80988 0.0
C1386 C 0.15206 0.99177 0.74923 0.0
C1387 C 0.17702 0.98341 0.74301 0.0
C1388 C 0.13074 0.98757 0.73511 0.0
C1389 C 0.10357 0.99386 0.74139 0.0
C1390 C 0.09235 0.9825 0.75979 0.0
C1391 C 0.06681 0.98871 0.76575 0.0
C1392 C 0.0522 0.00607 0.75331 0.0
C1393 C 0.06306 0.01717 0.73484 0.0
C1394 C 0.08862 0.01107 0.72883 0.0
C1395 C 0.15753 0.91333 0.66734 0.0
C1396 C 0.17936 0.91961 0.6547 0.0
C1397 C 0.14977 0.92987 0.6841 0.0
C1398 C 0.16359 0.95298 0.68826 0.0
C1399 C 0.18343 0.96062 0.67404 0.0
C1400 C 0.19149 0.94392 0.65758 0.0
C1401 C 0.15999 0.96693 0.70903 0.0
C1402 C 0.13508 0.97566 0.71502 0.0
C1403 C 0.18112 0.97045 0.72344 0.0
C1404 C 0.20732 0.95929 0.71914 0.0
C1405 C 0.22929 0.9756 0.71814 0.0
C1406 C 0.25386 0.96513 0.7136 0.0
C1407 C 0.25672 0.93834 0.71015 0.0
C1408 C 0.23503 0.92194 0.71138 0.0
C1409 C 0.21044 0.9323 0.71599 0.0
H1410 H 0.27574 0.9303 0.70657 0.0
H1411 H 0.03245 0.01089 0.75796 0.0
H1412 H 0.75471 0.34864 0.06523 0.0
H1413 H 0.77185 0.35381 0.02884 0.0
H1414 H 0.72068 0.41953 0.01874 0.0
H1415 H 0.70272 0.41365 0.05531 0.0
H1416 H 0.72531 0.38967 0.9823 0.0
H1417 H 0.78395 0.42926 0.03288 0.0
H1418 H 0.81089 0.43053 0.06576 0.0
H1419 H 0.8574 0.36721 0.04188 0.0
H1420 H 0.83061 0.36542 0.00893 0.0
H1421 H 0.80216 0.45322 0.9022 0.0
H1422 H 0.77524 0.43822 0.93204 0.0
H1423 H 0.82688 0.37284 0.94155 0.0
H1424 H 0.85417 0.38794 0.91169 0.0
H1425 H 0.82121 0.40121 0.9778 0.0
H1426 H 0.76355 0.36372 0.92587 0.0
H1427 H 0.73603 0.36283 0.89335 0.0
H1428 H 0.68753 0.42316 0.91972 0.0
H1429 H 0.71499 0.42469 0.95228 0.0
C1430 C 0.74687 0.36395 0.05509 0.0
C1431 C 0.72756 0.38084 0.06291 0.0
C1432 C 0.75674 0.36697 0.03437 0.0
C1433 C 0.74798 0.38741 0.02121 0.0
C1434 C 0.7278 0.4037 0.02867 0.0
C1435 C 0.71758 0.40041 0.04947 0.0
C1436 C 0.76109 0.39237 1.00027 0.0
C1437 C 0.74623 0.39253 0.9813 0.0
C1438 C 0.78849 0.39554 0.99894 0.0
C1439 C 0.80514 0.39709 0.01849 0.0
C1440 C 0.79988 0.41556 0.03466 0.0
C1441 C 0.81514 0.4164 0.05331 0.0
C1442 C 0.83584 0.39896 0.05592 0.0
C1443 C 0.8414 0.38075 0.03983 0.0
C1444 C 0.82621 0.37984 0.02114 0.0
C1445 C 0.80736 0.43516 0.91017 0.0
C1446 C 0.83039 0.42183 0.90462 0.0
C1447 C 0.79189 0.42659 0.92726 0.0
C1448 C 0.79906 0.40445 0.93913 0.0
C1449 C 0.82101 0.39002 0.93264 0.0
C1450 C 0.83646 0.39852 0.91542 0.0
C1451 C 0.78549 0.39835 0.95969 0.0
C1452 C 0.80031 0.39816 0.9787 0.0
C1453 C 0.75808 0.39537 0.961 0.0
C1454 C 0.74148 0.39447 0.94145 0.0
C1455 C 0.74715 0.37695 0.92467 0.0
C1456 C 0.73153 0.3763 0.90624 0.0
C1457 C 0.71008 0.39296 0.90445 0.0
C1458 C 0.70417 0.41028 0.92112 0.0
C1459 C 0.71973 0.41102 0.93958 0.0
H1460 H 0.69801 0.39243 0.89017 0.0
H1461 H 0.84756 0.39958 0.0704 0.0
H1462 H 0.28625 0.05018 0.15598 0.0
H1463 H 0.30182 0.02355 0.1859 0.0
H1464 H 0.37185 0.06984 0.18932 0.0
H1465 H 0.3564 0.09664 0.15935 0.0
H1466 H 0.34439 0.99424 0.199 0.0
H1467 H 0.37739 0.08841 0.24288 0.0
H1468 H 0.36891 0.13578 0.2412 0.0
H1469 H 0.29312 0.12133 0.21442 0.0
H1470 H 0.30087 0.07395 0.21644 0.0
H1471 H 0.39869 0.95948 0.30169 0.0
H1472 H 0.39011 0.97503 0.26506 0.0
H1473 H 0.32531 0.02058 0.28863 0.0
H1474 H 0.33463 0.00611 0.3252 0.0
H1475 H 0.35152 0.04954 0.26426 0.0
H1476 H 0.31883 0.96245 0.25715 0.0
H1477 H 0.32021 0.91443 0.25893 0.0
H1478 H 0.38337 0.9133 0.21359 0.0
H1479 H 0.38257 0.96136 0.21175 0.0
C1480 C 0.30537 0.05416 0.1626 0.0
C1481 C 0.31993 0.07576 0.15549 0.0
C1482 C 0.31427 0.03886 0.17969 0.0
C1483 C 0.33774 0.04504 0.19008 0.0
C1484 C 0.35354 0.06493 0.18164 0.0
C1485 C 0.34473 0.08016 0.16443 0.0
C1486 C 0.3436 0.0334 0.2114 0.0
C1487 C 0.34623 0.00626 0.21329 0.0
C1488 C 0.34505 0.0491 0.23011 0.0
C1489 C 0.33993 0.07762 0.22947 0.0
C1490 C 0.35889 0.09535 0.23672 0.0
C1491 C 0.35419 0.1222 0.23572 0.0
C1492 C 0.33058 0.13156 0.22755 0.0
C1493 C 0.31147 0.11407 0.22062 0.0
C1494 C 0.316 0.08722 0.2217 0.0
C1495 C 0.38235 0.97245 0.29893 0.0
C1496 C 0.36732 0.98159 0.31627 0.0
C1497 C 0.37743 0.98134 0.27798 0.0
C1498 C 0.35699 0.99901 0.27396 0.0
C1499 C 0.34135 0.0072 0.29124 0.0
C1500 C 0.34657 0.99876 0.31215 0.0
C1501 C 0.35252 0.01013 0.25208 0.0
C1502 C 0.35009 0.03734 0.25005 0.0
C1503 C 0.3503 0.99438 0.23341 0.0
C1504 C 0.35082 0.9655 0.23449 0.0
C1505 C 0.33314 0.95196 0.24769 0.0
C1506 C 0.3338 0.92474 0.24868 0.0
C1507 C 0.35192 0.91083 0.23643 0.0
C1508 C 0.36938 0.92411 0.2231 0.0
C1509 C 0.36882 0.95133 0.22206 0.0
H1510 H 0.35239 0.88975 0.23722 0.0
H1511 H 0.32704 0.15234 0.22665 0.0
H1512 H 0.35477 0.39495 0.58565 0.0
H1513 H 0.32487 0.3819 0.55691 0.0
H1514 H 0.2697 0.44009 0.57794 0.0
H1515 H 0.30001 0.45393 0.60605 0.0
H1516 H 0.27695 0.36583 0.54768 0.0
H1517 H 0.24821 0.47408 0.53526 0.0
H1518 H 0.26527 0.51797 0.54345 0.0
H1519 H 0.34329 0.48761 0.54521 0.0
H1520 H 0.32673 0.44367 0.53667 0.0
H1521 H 0.19652 0.36723 0.45367 0.0
H1522 H 0.21059 0.37539 0.49085 0.0
H1523 H 0.27614 0.41965 0.46722 0.0
H1524 H 0.26185 0.41248 0.43052 0.0
H1525 H 0.25937 0.44216 0.50079 0.0
H1526 H 0.28046 0.35352 0.48223 0.0
H1527 H 0.27037 0.30884 0.47011 0.0
H1528 H 0.21991 0.29819 0.52453 0.0
H1529 H 0.22945 0.34296 0.53682 0.0
C1530 C 0.33586 0.4043 0.58463 0.0
C1531 C 0.32983 0.42567 0.59789 0.0
C1532 C 0.31878 0.39686 0.56815 0.0
C1533 C 0.29533 0.4105 0.56487 0.0
C1534 C 0.28795 0.42969 0.57982 0.0
C1535 C 0.30521 0.43748 0.59598 0.0
C1536 C 0.28073 0.40746 0.54429 0.0
C1537 C 0.27284 0.38254 0.53753 0.0
C1538 C 0.27598 0.42913 0.53067 0.0
C1539 C 0.28616 0.45555 0.5356 0.0
C1540 C 0.269 0.47681 0.53734 0.0
C1541 C 0.27858 0.50169 0.54203 0.0
C1542 C 0.30533 0.50556 0.5449 0.0
C1543 C 0.32257 0.48458 0.54303 0.0
C1544 C 0.31309 0.45968 0.53827 0.0
C1545 C 0.21358 0.37919 0.45647 0.0
C1546 C 0.2281 0.38908 0.43908 0.0
C1547 C 0.22177 0.38362 0.47772 0.0
C1548 C 0.24473 0.39777 0.4819 0.0
C1549 C 0.2584 0.40868 0.46454 0.0
C1550 C 0.25017 0.40448 0.44345 0.0
C1551 C 0.25554 0.40053 0.50405 0.0
C1552 C 0.26287 0.42547 0.51112 0.0
C1553 C 0.26078 0.37873 0.51742 0.0
C1554 C 0.25541 0.35168 0.51029 0.0
C1555 C 0.26711 0.34169 0.49154 0.0
C1556 C 0.2615 0.31635 0.48465 0.0
C1557 C 0.24442 0.30074 0.49649 0.0
C1558 C 0.23307 0.31035 0.51534 0.0
C1559 C 0.23858 0.33569 0.52228 0.0
H1560 H 0.23997 0.28119 0.49107 0.0
H1561 H 0.31269 0.52484 0.54848 0.0
H1562 H 0.8342 0.00891 0.17918 0.0
H1563 H 0.82704 0.02364 0.21584 0.0
H1564 H 0.87152 0.95842 0.23989 0.0
H1565 H 0.87951 0.94386 0.20286 0.0
H1566 H 0.80522 0.00743 0.25027 0.0
H1567 H 0.90623 0.97874 0.28422 0.0
H1568 H 0.95078 0.97001 0.27099 0.0
H1569 H 0.93716 0.01956 0.21645 0.0
H1570 H 0.89268 0.02883 0.22949 0.0
H1571 H 0.79691 0.05039 0.35534 0.0
H1572 H 0.80926 0.01948 0.32716 0.0
H1573 H 0.86797 0.07315 0.30461 0.0
H1574 H 0.85655 0.1035 0.33346 0.0
H1575 H 0.883 0.02578 0.2953 0.0
H1576 H 0.80472 0.07529 0.28553 0.0
H1577 H 0.76109 0.09194 0.29502 0.0
H1578 H 0.73084 0.01388 0.29476 0.0
H1579 H 0.77443 0.99674 0.28559 0.0
C1580 C 0.84215 0.99736 0.19222 0.0
C1581 C 0.85763 0.97528 0.18803 0.0
C1582 C 0.83798 0.00584 0.21326 0.0
C1583 C 0.84909 0.99244 0.23068 0.0
C1584 C 0.86315 0.96937 0.22669 0.0
C1585 C 0.86748 0.96091 0.20552 0.0
C1586 C 0.84695 0.00371 0.2527 0.0
C1587 C 0.82222 0.0111 0.26021 0.0
C1588 C 0.86917 0.00925 0.26549 0.0
C1589 C 0.89602 0.00416 0.2577 0.0
C1590 C 0.91278 0.98781 0.26944 0.0
C1591 C 0.93801 0.98278 0.26197 0.0
C1592 C 0.94674 0.99412 0.24284 0.0
C1593 C 0.93033 0.01069 0.23121 0.0
C1594 C 0.9051 0.01581 0.23862 0.0
C1595 C 0.81315 0.05511 0.34489 0.0
C1596 C 0.82562 0.07941 0.34644 0.0
C1597 C 0.82007 0.03753 0.32868 0.0
C1598 C 0.83896 0.04434 0.3133 0.0
C1599 C 0.85321 0.06749 0.31617 0.0
C1600 C 0.8467 0.08484 0.33272 0.0
C1601 C 0.84126 0.0294 0.29283 0.0
C1602 C 0.86597 0.02148 0.28558 0.0
C1603 C 0.81916 0.02447 0.27973 0.0
C1604 C 0.79289 0.03471 0.28513 0.0
C1605 C 0.7888 0.06167 0.28765 0.0
C1606 C 0.76408 0.07119 0.29296 0.0
C1607 C 0.74322 0.05396 0.29555 0.0
C1608 C 0.74703 0.02719 0.2928 0.0
C1609 C 0.77174 0.01755 0.28754 0.0
H1610 H 0.72408 0.06136 0.29962 0.0
H1611 H 0.96621 0.99009 0.23703 0.0
H1612 H 0.19529 0.5378 0.09495 0.0
H1613 H 0.22411 0.55452 0.06718 0.0
H1614 H 0.1823 0.62754 0.0673 0.0
H1615 H 0.15269 0.61051 0.09489 0.0
H1616 H 0.18552 0.61046 0.02825 0.0
H1617 H 0.24795 0.62313 0.0832 0.0
H1618 H 0.27441 0.61254 0.11515 0.0
H1619 H 0.31108 0.54982 0.0808 0.0
H1620 H 0.28458 0.55977 0.04872 0.0
H1621 H 0.30263 0.64301 0.95497 0.0
H1622 H 0.28673 0.63824 0.99206 0.0
H1623 H 0.23525 0.57661 0.97158 0.0
H1624 H 0.25068 0.58142 0.93471 0.0
H1625 H 0.28141 0.59891 0.0231 0.0
H1626 H 0.17567 0.58841 0.99092 0.0
H1627 H 0.15033 0.60173 0.959 0.0
H1628 H 0.20139 0.667 0.94944 0.0
H1629 H 0.22677 0.65435 0.9815 0.0
C1630 C 0.19256 0.55768 0.08951 0.0
C1631 C 0.17154 0.57275 0.0971 0.0
C1632 C 0.20923 0.56731 0.07364 0.0
C1633 C 0.20555 0.59238 0.0651 0.0
C1634 C 0.18556 0.60812 0.0736 0.0
C1635 C 0.16875 0.59844 0.08951 0.0
C1636 C 0.22053 0.60062 0.04568 0.0
C1637 C 0.20652 0.60823 0.02729 0.0
C1638 C 0.24804 0.59818 0.04434 0.0
C1639 C 0.26416 0.59215 0.06356 0.0
C1640 C 0.26153 0.60697 0.08249 0.0
C1641 C 0.27656 0.6011 0.10063 0.0
C1642 C 0.29439 0.58051 0.10001 0.0
C1643 C 0.29726 0.56578 0.08124 0.0
C1644 C 0.28228 0.57156 0.06307 0.0
C1645 C 0.28849 0.62793 0.95852 0.0
C1646 C 0.27772 0.61276 0.94187 0.0
C1647 C 0.27936 0.62531 0.9797 0.0
C1648 C 0.25938 0.60749 0.98446 0.0
C1649 C 0.25031 0.59084 0.96818 0.0
C1650 C 0.25926 0.59354 0.94711 0.0
C1651 C 0.24618 0.60758 0.00575 0.0
C1652 C 0.26049 0.60155 0.02433 0.0
C1653 C 0.219 0.61201 0.00743 0.0
C1654 C 0.20322 0.62032 0.98857 0.0
C1655 C 0.18136 0.60573 0.98212 0.0
C1656 C 0.16702 0.61313 0.96398 0.0
C1657 C 0.17427 0.63517 0.95219 0.0
C1658 C 0.19582 0.64992 0.95857 0.0
C1659 C 0.21019 0.64263 0.97672 0.0
H1660 H 0.16318 0.64083 0.93813 0.0
H1661 H 0.306 0.57599 0.11407 0.0
H1662 H 0.66623 0.98871 0.67613 0.0
H1663 H 0.67339 0.97424 0.71295 0.0
H1664 H 0.62982 0.04026 0.73663 0.0
H1665 H 0.62203 0.05463 0.69956 0.0
H1666 H 0.69589 0.99153 0.7472 0.0
H1667 H 0.59415 0.02032 0.78076 0.0
H1668 H 0.54919 0.02671 0.76755 0.0
H1669 H 0.56436 0.97539 0.71439 0.0
H1670 H 0.60926 0.96847 0.72742 0.0
H1671 H 0.70576 0.95374 0.85361 0.0
H1672 H 0.6934 0.98315 0.82437 0.0
H1673 H 0.63318 0.92936 0.8049 0.0
H1674 H 0.64455 0.90068 0.8348 0.0
H1675 H 0.61866 0.97522 0.79337 0.0
H1676 H 0.69687 0.92556 0.78475 0.0
H1677 H 0.7408 0.90933 0.79376 0.0
H1678 H 0.77098 0.98733 0.79058 0.0
H1679 H 0.72712 0.00405 0.78176 0.0
C1680 C 0.65846 1.00042 0.68913 0.0
C1681 C 0.64339 0.02275 0.68485 0.0
C1682 C 0.66261 0.99211 0.71025 0.0
C1683 C 0.65181 0.0059 0.72761 0.0
C1684 C 0.63799 0.02905 0.72349 0.0
C1685 C 0.63378 0.03739 0.70228 0.0
C1686 C 0.65419 0.99518 0.7498 0.0
C1687 C 0.67901 0.9883 0.75739 0.0
C1688 C 0.63213 0.99011 0.76287 0.0
C1689 C 0.60516 0.9942 0.75492 0.0
C1690 C 0.58787 0.0104 0.76626 0.0
C1691 C 0.5624 0.0141 0.75881 0.0
C1692 C 0.55397 0.00155 0.74009 0.0
C1693 C 0.57096 0.98521 0.72882 0.0
C1694 C 0.59642 0.98143 0.73621 0.0
C1695 C 0.68916 0.94876 0.84364 0.0
C1696 C 0.67626 0.92482 0.84639 0.0
C1697 C 0.68227 0.96544 0.82677 0.0
C1698 C 0.66297 0.95805 0.81191 0.0
C1699 C 0.64828 0.93546 0.816 0.0
C1700 C 0.65475 0.91907 0.8332 0.0
C1701 C 0.66042 0.97178 0.79085 0.0
C1702 C 0.63559 0.97909 0.78342 0.0
C1703 C 0.68234 0.97603 0.77737 0.0
C1704 C 0.70868 0.96609 0.78285 0.0
C1705 C 0.71284 0.93927 0.78614 0.0
C1706 C 0.73773 0.92998 0.79119 0.0
C1707 C 0.75865 0.94731 0.7928 0.0
C1708 C 0.75474 0.97395 0.78936 0.0
C1709 C 0.72988 0.98334 0.78433 0.0
H1710 H 0.77794 0.9401 0.7966 0.0
H1711 H 0.53425 0.00442 0.73436 0.0
H1712 H 0.39916 0.19817 0.1459 0.0
H1713 H 0.44017 0.22256 0.14873 0.0
H1714 H 0.43855 0.2365 0.08023 0.0
H1715 H 0.3981 0.21139 0.07746 0.0
H1716 H 0.48417 0.22139 0.09029 0.0
H1717 H 0.42633 0.2854 0.12042 0.0
H1718 H 0.39287 0.30219 0.14533 0.0
H1719 H 0.44298 0.28618 0.19909 0.0
H1720 H 0.47661 0.26896 0.17451 0.0
H1721 H 0.58046 0.31822 0.08059 0.0
H1722 H 0.53741 0.29808 0.08359 0.0
H1723 H 0.55625 0.27142 0.1475 0.0
H1724 H 0.59978 0.29082 0.14429 0.0
H1725 H 0.50315 0.29231 0.14227 0.0
H1726 H 0.5613 0.22929 0.1108 0.0
H1727 H 0.59446 0.21402 0.08498 0.0
H1728 H 0.54249 0.23015 0.03246 0.0
H1729 H 0.50914 0.2459 0.05796 0.0
C1730 C 0.40732 0.207 0.13159 0.0
C1731 C 0.39532 0.20327 0.11149 0.0
C1732 C 0.4308 0.22092 0.13317 0.0
C1733 C 0.44252 0.23171 0.11472 0.0
C1734 C 0.43008 0.2284 0.09473 0.0
C1735 C 0.4069 0.21419 0.09313 0.0
C1736 C 0.46839 0.2451 0.11582 0.0
C1737 C 0.48806 0.23713 0.1015 0.0
C1738 C 0.47402 0.26519 0.13084 0.0
C1739 C 0.45387 0.27564 0.14564 0.0
C1740 C 0.43013 0.28528 0.13756 0.0
C1741 C 0.41115 0.2949 0.15162 0.0
C1742 C 0.41576 0.29518 0.17378 0.0
C1743 C 0.43941 0.28591 0.18192 0.0
C1744 C 0.45845 0.27624 0.16794 0.0
C1745 C 0.57535 0.30831 0.09538 0.0
C1746 C 0.59348 0.30656 0.11232 0.0
C1747 C 0.55073 0.29684 0.09709 0.0
C1748 C 0.5436 0.28323 0.11576 0.0
C1749 C 0.56126 0.28207 0.13302 0.0
C1750 C 0.58609 0.2934 0.13124 0.0
C1751 C 0.5184 0.26886 0.11647 0.0
C1752 C 0.49905 0.27655 0.13114 0.0
C1753 C 0.51288 0.24866 0.10164 0.0
C1754 C 0.53282 0.239 0.08628 0.0
C1755 C 0.55702 0.22978 0.09373 0.0
C1756 C 0.57584 0.221 0.07916 0.0
C1757 C 0.57061 0.22117 0.05709 0.0
C1758 C 0.54652 0.23006 0.04956 0.0
C1759 C 0.52765 0.23889 0.06407 0.0
H1760 H 0.58521 0.21437 0.04583 0.0
H1761 H 0.40104 0.30264 0.18464 0.0
H1762 H 0.53036 0.64157 0.38625 0.0
H1763 H 0.50823 0.68378 0.39075 0.0
H1764 H 0.55883 0.7177 0.34295 0.0
H1765 H 0.58071 0.67542 0.3383 0.0
H1766 H 0.55107 0.74915 0.3814 0.0
H1767 H 0.5019 0.70136 0.32752 0.0
H1768 H 0.47698 0.66354 0.31423 0.0
H1769 H 0.42146 0.67329 0.36533 0.0
H1770 H 0.4463 0.71097 0.37911 0.0
H1771 H 0.48856 0.8648 0.34913 0.0
H1772 H 0.51029 0.82255 0.35207 0.0
H1773 H 0.4435 0.79169 0.38575 0.0
H1774 H 0.42107 0.83366 0.3814 0.0
H1775 H 0.45868 0.75752 0.35873 0.0
H1776 H 0.50404 0.80652 0.41164 0.0
H1777 H 0.5284 0.84357 0.42694 0.0
H1778 H 0.59024 0.83095 0.38153 0.0
H1779 H 0.56608 0.79404 0.36575 0.0
C1780 C 0.53698 0.65819 0.37702 0.0
C1781 C 0.55741 0.65544 0.36212 0.0
C1782 C 0.52426 0.68219 0.37948 0.0
C1783 C 0.5319 0.70387 0.36718 0.0
C1784 C 0.55271 0.70126 0.35266 0.0
C1785 C 0.56512 0.67718 0.34996 0.0
C1786 C 0.51764 0.72903 0.36876 0.0
C1787 C 0.53093 0.7511 0.37631 0.0
C1788 C 0.49111 0.73132 0.36283 0.0
C1789 C 0.47612 0.70877 0.35449 0.0
C1790 C 0.48451 0.69529 0.33603 0.0
C1791 C 0.47038 0.67391 0.32839 0.0
C1792 C 0.44769 0.66596 0.33897 0.0
C1793 C 0.43906 0.67943 0.35718 0.0
C1794 C 0.45315 0.70081 0.3649 0.0
C1795 C 0.47867 0.84903 0.35734 0.0
C1796 C 0.45352 0.85277 0.36572 0.0
C1797 C 0.49117 0.82491 0.3592 0.0
C1798 C 0.47893 0.80396 0.36971 0.0
C1799 C 0.45359 0.80758 0.37787 0.0
C1800 C 0.44093 0.83169 0.37574 0.0
C1801 C 0.49217 0.77805 0.37114 0.0
C1802 C 0.47872 0.75573 0.36412 0.0
C1803 C 0.51846 0.77546 0.37793 0.0
C1804 C 0.53313 0.79762 0.3874 0.0
C1805 C 0.52275 0.81175 0.40481 0.0
C1806 C 0.53654 0.83272 0.41359 0.0
C1807 C 0.56083 0.83964 0.40518 0.0
C1808 C 0.57141 0.82558 0.38802 0.0
C1809 C 0.55769 0.80461 0.37917 0.0
H1810 H 0.57147 0.85588 0.412 0.0
H1811 H 0.43677 0.64941 0.33302 0.0
H1812 H 0.92459 0.67582 0.5905 0.0
H1813 H 0.96734 0.69648 0.59533 0.0
H1814 H 0.93476 0.74732 0.64366 0.0
H1815 H 0.89195 0.72631 0.63897 0.0
H1816 H 0.96437 0.77298 0.61024 0.0
H1817 H 0.97323 0.70288 0.66067 0.0
H1818 H 0.9713 0.6571 0.67265 0.0
H1819 H 0.02815 0.63591 0.62503 0.0
H1820 H 0.03013 0.68152 0.61254 0.0
H1821 H 0.08823 0.82964 0.63075 0.0
H1822 H 0.04578 0.80875 0.63624 0.0
H1823 H 0.07212 0.74178 0.60018 0.0
H1824 H 0.11505 0.76201 0.59604 0.0
H1825 H 0.04436 0.72529 0.63187 0.0
H1826 H 0.03249 0.79197 0.57833 0.0
H1827 H 0.03387 0.83658 0.56357 0.0
H1828 H 0.98246 0.86296 0.61359 0.0
H1829 H 0.98105 0.81853 0.62881 0.0
C1830 C 0.92673 0.69117 0.60233 0.0
C1831 C 0.9052 0.69927 0.61458 0.0
C1832 C 0.95108 0.70293 0.60511 0.0
C1833 C 0.95425 0.72332 0.61995 0.0
C1834 C 0.93274 0.73151 0.63222 0.0
C1835 C 0.90842 0.71941 0.62968 0.0
C1836 C 0.97987 0.73664 0.62187 0.0
C1837 C 0.98181 0.76275 0.61539 0.0
C1838 C 0.00268 0.72303 0.62799 0.0
C1839 C 0.00167 0.6956 0.63556 0.0
C1840 C 0.98516 0.68843 0.65263 0.0
C1841 C 0.98409 0.66251 0.65954 0.0
C1842 C 0.99955 0.6436 0.64958 0.0
C1843 C 0.01617 0.65058 0.63272 0.0
C1844 C 0.0173 0.67647 0.62574 0.0
C1845 C 0.08519 0.81009 0.62471 0.0
C1846 C 0.10516 0.79706 0.61357 0.0
C1847 C 0.06075 0.79835 0.62744 0.0
C1848 C 0.05552 0.77371 0.61845 0.0
C1849 C 0.07558 0.76069 0.6074 0.0
C1850 C 0.10007 0.77227 0.60494 0.0
C1851 C 0.02908 0.76167 0.61991 0.0
C1852 C 0.02694 0.73572 0.62698 0.0
C1853 C 0.00611 0.77531 0.61397 0.0
C1854 C 0.00692 0.80201 0.60485 0.0
C1855 C 0.02164 0.80733 0.58627 0.0
C1856 C 0.0224 0.83257 0.57781 0.0
C1857 C 0.00833 0.85261 0.58768 0.0
C1858 C 0.9934 0.84743 0.60599 0.0
C1859 C 0.9926 0.82222 0.61454 0.0
H1860 H 0.00894 0.87214 0.5811 0.0
H1861 H 0.9987 0.62355 0.65495 0.0
H1862 H 0.91978 0.33043 0.86842 0.0
H1863 H 0.93947 0.28693 0.8714 0.0
H1864 H 0.0161 0.32132 0.86683 0.0
H1865 H 0.99624 0.36448 0.86302 0.0
H1866 H 0.015 0.28225 0.842 0.0
H1867 H 0.98921 0.29438 0.9153 0.0
H1868 H 0.95913 0.3041 0.9452 0.0
H1869 H 0.91152 0.23869 0.92749 0.0
H1870 H 0.94112 0.22879 0.89729 0.0
H1871 H 0.08494 0.16629 0.86875 0.0
H1872 H 0.06587 0.21004 0.87284 0.0
H1873 H 0.98916 0.17806 0.86238 0.0
H1874 H 0.00825 0.13446 0.85819 0.0
H1875 H 0.9913 0.21557 0.89637 0.0
H1876 H 0.01734 0.20549 0.82205 0.0
H1877 H 0.04853 0.19606 0.79287 0.0
H1878 H 0.09752 0.25877 0.8143 0.0
H1879 H 0.06677 0.26833 0.84383 0.0
C1880 C 0.94081 0.3286 0.86848 0.0
C1881 C 0.95656 0.35072 0.86572 0.0
C1882 C 0.95211 0.30377 0.87019 0.0
C1883 C 0.9794 0.3007 0.8696 0.0
C1884 C 0.99505 0.32301 0.86729 0.0
C1885 C 0.98375 0.34767 0.86521 0.0
C1886 C 0.99171 0.27428 0.87015 0.0
C1887 C 0.01008 0.26793 0.85418 0.0
C1888 C 0.98506 0.25517 0.8857 0.0
C1889 C 0.96727 0.261 0.9039 0.0
C1890 C 0.97223 0.28218 0.91769 0.0
C1891 C 0.95528 0.28771 0.93471 0.0
C1892 C 0.93339 0.27206 0.93821 0.0
C1893 C 0.92846 0.25081 0.92474 0.0
C1894 C 0.94533 0.24522 0.90768 0.0
C1895 C 0.064 0.16862 0.86775 0.0
C1896 C 0.048 0.14707 0.86333 0.0
C1897 C 0.05313 0.19357 0.86995 0.0
C1898 C 0.02607 0.19731 0.86789 0.0
C1899 C 0.01004 0.17563 0.86413 0.0
C1900 C 0.02093 0.15081 0.86164 0.0
C1901 C 0.01456 0.22392 0.8684 0.0
C1902 C 0.9963 0.23016 0.88442 0.0
C1903 C 0.02149 0.24308 0.85307 0.0
C1904 C 0.03992 0.23742 0.83529 0.0
C1905 C 0.03488 0.21711 0.82066 0.0
C1906 C 0.05245 0.21178 0.80403 0.0
C1907 C 0.07503 0.22676 0.80177 0.0
C1908 C 0.08005 0.24715 0.8161 0.0
C1909 C 0.06255 0.25255 0.83277 0.0
H1910 H 0.08861 0.2226 0.78889 0.0
H1911 H 0.92029 0.27637 0.9514 0.0
H1912 H 0.6136 0.76001 0.88635 0.0
H1913 H 0.57048 0.73965 0.88248 0.0
H1914 H 0.53537 0.81581 0.87708 0.0
H1915 H 0.57865 0.83607 0.88083 0.0
H1916 H 0.5115 0.7835 0.90767 0.0
H1917 H 0.53869 0.77866 0.83378 0.0
H1918 H 0.56848 0.76726 0.8041 0.0
H1919 H 0.56276 0.68625 0.82085 0.0
H1920 H 0.53322 0.6972 0.85085 0.0
H1921 H 0.38367 0.74317 0.88719 0.0
H1922 H 0.42649 0.76347 0.88284 0.0
H1923 H 0.46174 0.6873 0.87748 0.0
H1924 H 0.41845 0.66707 0.88103 0.0
H1925 H 0.48604 0.71961 0.8515 0.0
H1926 H 0.46178 0.72276 0.92567 0.0
H1927 H 0.43367 0.73234 0.95688 0.0
H1928 H 0.43604 0.81399 0.94178 0.0
H1929 H 0.46389 0.80486 0.91028 0.0
C1930 C 0.59664 0.77226 0.88397 0.0
C1931 C 0.59932 0.7995 0.88352 0.0
C1932 C 0.57209 0.76069 0.88173 0.0
C1933 C 0.5497 0.77619 0.8793 0.0
C1934 C 0.55239 0.80347 0.87877 0.0
C1935 C 0.57703 0.81502 0.88075 0.0
C1936 C 0.5234 0.76398 0.87864 0.0
C1937 C 0.50575 0.76987 0.89517 0.0
C1938 C 0.51629 0.74543 0.86281 0.0
C1939 C 0.53393 0.73879 0.8447 0.0
C1940 C 0.54395 0.75843 0.83126 0.0
C1941 C 0.56077 0.75205 0.81435 0.0
C1942 C 0.56756 0.72605 0.81062 0.0
C1943 C 0.5575 0.70638 0.82377 0.0
C1944 C 0.5407 0.71266 0.84072 0.0
C1945 C 0.40057 0.73085 0.88477 0.0
C1946 C 0.39785 0.70363 0.88441 0.0
C1947 C 0.42506 0.74241 0.88243 0.0
C1948 C 0.44756 0.72696 0.88036 0.0
C1949 C 0.44475 0.69969 0.87913 0.0
C1950 C 0.42006 0.68812 0.88109 0.0
C1951 C 0.47394 0.7393 0.88046 0.0
C1952 C 0.49168 0.73334 0.86393 0.0
C1953 C 0.48137 0.75751 0.89652 0.0
C1954 C 0.46471 0.76309 0.9155 0.0
C1955 C 0.45616 0.74274 0.92892 0.0
C1956 C 0.44029 0.74809 0.94667 0.0
C1957 C 0.43302 0.77375 0.95128 0.0
C1958 C 0.44166 0.79412 0.93817 0.0
C1959 C 0.4575 0.78888 0.92037 0.0
H1960 H 0.42074 0.77785 0.96503 0.0
H1961 H 0.58058 0.72114 0.79752 0.0
H1962 H 0.42317 0.33372 0.62066 0.0
H1963 H 0.4448 0.29145 0.6161 0.0
H1964 H 0.51179 0.32042 0.65068 0.0
H1965 H 0.49083 0.36313 0.65383 0.0
H1966 H 0.52857 0.29178 0.61991 0.0
H1967 H 0.46245 0.28024 0.67392 0.0
H1968 H 0.41793 0.28116 0.68888 0.0
H1969 H 0.39232 0.22772 0.64006 0.0
H1970 H 0.43666 0.22674 0.62464 0.0
H1971 H 0.58103 0.17295 0.66159 0.0
H1972 H 0.55943 0.21537 0.65716 0.0
H1973 H 0.50817 0.18195 0.60957 0.0
H1974 H 0.53007 0.13955 0.61385 0.0
H1975 H 0.4826 0.2115 0.64312 0.0
H1976 H 0.55197 0.22066 0.59194 0.0
H1977 H 0.59766 0.21924 0.57969 0.0
H1978 H 0.61836 0.27709 0.62662 0.0
H1979 H 0.57285 0.27856 0.6394 0.0
C1980 C 0.44287 0.33129 0.62657 0.0
C1981 C 0.45568 0.35196 0.63699 0.0
C1982 C 0.45504 0.30693 0.62439 0.0
C1983 C 0.47993 0.30248 0.63324 0.0
C1984 C 0.4927 0.32323 0.64358 0.0
C1985 C 0.48069 0.34762 0.64547 0.0
C1986 C 0.49254 0.27619 0.6323 0.0
C1987 C 0.5185 0.27431 0.62517 0.0
C1988 C 0.47943 0.25312 0.63874 0.0
C1989 C 0.45278 0.25366 0.64799 0.0
C1990 C 0.44728 0.26884 0.66628 0.0
C1991 C 0.42209 0.26934 0.67486 0.0
C1992 C 0.40229 0.25457 0.66539 0.0
C1993 C 0.40766 0.23919 0.64735 0.0
C1994 C 0.43282 0.23865 0.6387 0.0
C1995 C 0.56536 0.17484 0.65002 0.0
C1996 C 0.55746 0.15319 0.63782 0.0
C1997 C 0.55306 0.199 0.64747 0.0
C1998 C 0.53229 0.20187 0.63293 0.0
C1999 C 0.52424 0.18021 0.62079 0.0
C2000 C 0.53687 0.15611 0.62308 0.0
C2001 C 0.51855 0.22733 0.63104 0.0
C2002 C 0.49246 0.229 0.63767 0.0
C2003 C 0.53166 0.25025 0.62449 0.0
C2004 C 0.55902 0.24955 0.61675 0.0
C2005 C 0.5663 0.23292 0.59977 0.0
C2006 C 0.59216 0.23213 0.59271 0.0
C2007 C 0.61091 0.24802 0.6024 0.0
C2008 C 0.60382 0.26477 0.61914 0.0
C2009 C 0.57798 0.26561 0.62629 0.0
H2010 H 0.63093 0.24738 0.59691 0.0
H2011 H 0.3828 0.25498 0.67205 0.0
H2012 H 0.08609 0.33406 0.38298 0.0
H2013 H 0.0421 0.31554 0.37907 0.0
H2014 H 0.07381 0.23816 0.38645 0.0
H2015 H 0.11764 0.2567 0.39047 0.0
H2016 H 0.03548 0.24239 0.35312 0.0
H2017 H 0.04773 0.26487 0.42818 0.0
H2018 H 0.05795 0.29483 0.45805 0.0
H2019 H 0.99467 0.34471 0.4392 0.0
H2020 H 0.98431 0.3152 0.40901 0.0
H2021 H 0.92387 0.16762 0.38197 0.0
H2022 H 0.96662 0.18873 0.37838 0.0
H2023 H 0.93014 0.26403 0.38638 0.0
H2024 H 0.88772 0.2426 0.39081 0.0
H2025 H 0.97058 0.26306 0.40979 0.0
H2026 H 0.95567 0.24061 0.33634 0.0
H2027 H 0.94499 0.21209 0.30564 0.0
H2028 H 0.01188 0.16455 0.31939 0.0
H2029 H 0.02276 0.19258 0.35038 0.0
C2030 C 0.08363 0.31311 0.38334 0.0
C2031 C 0.10518 0.29674 0.38683 0.0
C2032 C 0.05855 0.30255 0.38125 0.0
C2033 C 0.05469 0.27545 0.3825 0.0
C2034 C 0.07634 0.25908 0.38534 0.0
C2035 C 0.1013 0.26966 0.38773 0.0
C2036 C 0.02801 0.26414 0.38207 0.0
C2037 C 0.02129 0.24673 0.36556 0.0
C2038 C 0.00931 0.27033 0.398 0.0
C2039 C 0.01544 0.288 0.4162 0.0
C2040 C 0.03614 0.28235 0.4303 0.0
C2041 C 0.04193 0.29922 0.44731 0.0
C2042 C 0.02702 0.3217 0.45049 0.0
C2043 C 0.00624 0.32731 0.4367 0.0
C2044 C 1.00039 0.31052 0.41964 0.0
C2045 C 0.92512 0.18868 0.38254 0.0
C2046 C 0.90268 0.20361 0.38634 0.0
C2047 C 0.94947 0.20079 0.38046 0.0
C2048 C 0.95172 0.22812 0.38178 0.0
C2049 C 0.92906 0.24298 0.38527 0.0
C2050 C 0.90484 0.23082 0.38769 0.0
C2051 C 0.97775 0.24112 0.38076 0.0
C2052 C 0.98449 0.25884 0.39712 0.0
C2053 C 0.99631 0.23543 0.36449 0.0
C2054 C 0.9899 0.21858 0.34581 0.0
C2055 C 0.968 0.22397 0.33292 0.0
C2056 C 0.96193 0.20791 0.31545 0.0
C2057 C 0.97772 0.18649 0.3106 0.0
C2058 C 0.99965 0.18113 0.32318 0.0
C2059 C 0.0058 0.19712 0.34069 0.0
H2060 H 0.97298 0.17408 0.29706 0.0
H2061 H 0.03153 0.33474 0.46367 0.0
H2062 H 0.02659 0.64038 0.11354 0.0
H2063 H 0.00536 0.68316 0.11058 0.0
H2064 H 0.05469 0.71254 0.1614 0.0
H2065 H 0.07498 0.66953 0.16481 0.0
H2066 H 0.00864 0.72711 0.16928 0.0
H2067 H 0.061 0.72956 0.10534 0.0
H2068 H 0.07783 0.71392 0.07048 0.0
H2069 H 1.00072 0.71722 0.04371 0.0
H2070 H 0.98336 0.73255 0.07852 0.0
H2071 H 0.98667 0.86245 0.15739 0.0
H2072 H 0.00773 0.81967 0.1543 0.0
H2073 H 0.94194 0.79104 0.11819 0.0
H2074 H 0.92037 0.83362 0.12203 0.0
H2075 H 0.994 0.77592 0.10143 0.0
H2076 H 0.94293 0.7748 0.1666 0.0
H2077 H 0.9281 0.7921 0.20155 0.0
H2078 H 0.00631 0.7879 0.22596 0.0
H2079 H 0.02168 0.77094 0.19102 0.0
C2080 C 0.03314 0.6562 0.12373 0.0
C2081 C 0.05259 0.65186 0.13923 0.0
C2082 C 0.02104 0.68066 0.12206 0.0
C2083 C 0.02853 0.70137 0.13561 0.0
C2084 C 0.04841 0.69702 0.15078 0.0
C2085 C 0.06012 0.67251 0.15268 0.0
C2086 C 0.01489 0.72715 0.13495 0.0
C2087 C 0.00584 0.73783 0.15441 0.0
C2088 C 0.01046 0.74109 0.11556 0.0
C2089 C 0.02085 0.73194 0.09461 0.0
C2090 C 0.0476 0.72676 0.09207 0.0
C2091 C 0.05724 0.71798 0.07231 0.0
C2092 C 0.04034 0.7145 0.05491 0.0
C2093 C 0.01378 0.71988 0.05721 0.0
C2094 C 0.00403 0.72863 0.07695 0.0
C2095 C 0.97689 0.84709 0.14857 0.0
C2096 C 0.95224 0.85158 0.13942 0.0
C2097 C 0.9889 0.8227 0.1468 0.0
C2098 C 0.97647 0.80221 0.13591 0.0
C2099 C 0.95204 0.8067 0.12639 0.0
C2100 C 0.93985 0.83109 0.12839 0.0
C2101 C 0.98838 0.77575 0.13574 0.0
C2102 C 0.99693 0.76501 0.11619 0.0
C2103 C 0.99272 0.76185 0.15506 0.0
C2104 C 0.98349 0.77184 0.17613 0.0
C2105 C 0.957 0.77777 0.17936 0.0
C2106 C 0.94849 0.78748 0.19918 0.0
C2107 C 0.96627 0.79116 0.21595 0.0
C2108 C 0.99258 0.78507 0.21295 0.0
C2109 C 0.00119 0.77539 0.19315 0.0
H2110 H 0.95964 0.79867 0.23128 0.0
H2111 H 0.04784 0.70771 0.03962 0.0
H2112 H 0.27739 0.23151 0.10759 0.0
H2113 H 0.25545 0.27372 0.10737 0.0
H2114 H 0.18084 0.23542 0.11198 0.0
H2115 H 0.20265 0.19291 0.11224 0.0
H2116 H 0.18051 0.27847 0.08411 0.0
H2117 H 0.20597 0.25692 0.15496 0.0
H2118 H 0.23576 0.2421 0.18347 0.0
H2119 H 0.2831 0.31021 0.17447 0.0
H2120 H 0.25433 0.32483 0.14504 0.0
H2121 H 0.12028 0.39961 0.11451 0.0
H2122 H 0.13392 0.35371 0.11715 0.0
H2123 H 0.21429 0.37712 0.11043 0.0
H2124 H 0.20064 0.42282 0.10782 0.0
H2125 H 0.2063 0.33914 0.14263 0.0
H2126 H 0.18303 0.35597 0.06793 0.0
H2127 H 0.15287 0.36952 0.0391 0.0
H2128 H 0.09903 0.30957 0.05782 0.0
H2129 H 0.12876 0.29591 0.08696 0.0
C2130 C 0.25629 0.23197 0.10816 0.0
C2131 C 0.24178 0.20884 0.11013 0.0
C2132 C 0.2438 0.25613 0.10815 0.0
C2133 C 0.21659 0.25765 0.11005 0.0
C2134 C 0.20188 0.23461 0.11064 0.0
C2135 C 0.21439 0.21037 0.1108 0.0
C2136 C 0.20383 0.28336 0.11264 0.0
C2137 C 0.1858 0.29158 0.0971 0.0
C2138 C 0.21077 0.30039 0.12966 0.0
C2139 C 0.22806 0.29186 0.14757 0.0
C2140 C 0.22289 0.26863 0.15885 0.0
C2141 C 0.23959 0.26027 0.17522 0.0
C2142 C 0.26123 0.27528 0.1809 0.0
C2143 C 0.26631 0.29861 0.17008 0.0
C2144 C 0.24986 0.30689 0.15346 0.0
C2145 C 0.14084 0.39487 0.11403 0.0
C2146 C 0.1595 0.41459 0.11117 0.0
C2147 C 0.14859 0.36874 0.11538 0.0
C2148 C 0.17511 0.36208 0.11395 0.0
C2149 C 0.19376 0.38188 0.11166 0.0
C2150 C 0.18599 0.40787 0.11007 0.0
C2151 C 0.18363 0.33449 0.11373 0.0
C2152 C 0.20081 0.32588 0.1298 0.0
C2153 C 0.17571 0.31702 0.09736 0.0
C2154 C 0.15795 0.32513 0.07977 0.0
C2155 C 0.16466 0.34583 0.06601 0.0
C2156 C 0.14767 0.3535 0.04959 0.0
C2157 C 0.12401 0.34047 0.04667 0.0
C2158 C 0.11734 0.31968 0.06012 0.0
C2159 C 0.13425 0.31196 0.07658 0.0
H2160 H 0.11088 0.34643 0.03396 0.0
H2161 H 0.27405 0.26885 0.19368 0.0
H2162 H 0.32528 0.45809 0.34891 0.0
H2163 H 0.37057 0.47306 0.34869 0.0
H2164 H 0.39609 0.39671 0.36874 0.0
H2165 H 0.35082 0.38144 0.36835 0.0
H2166 H 0.42064 0.43929 0.39093 0.0
H2167 H 0.40245 0.41051 0.31876 0.0
H2168 H 0.37716 0.40879 0.28505 0.0
H2169 H 0.38862 0.49097 0.2759 0.0
H2170 H 0.41367 0.49325 0.30975 0.0
H2171 H 0.55391 0.46025 0.36903 0.0
H2172 H 0.5108 0.44035 0.36619 0.0
H2173 H 0.47951 0.51269 0.34195 0.0
H2174 H 0.52259 0.53278 0.34464 0.0
H2175 H 0.45832 0.47 0.32184 0.0
H2176 H 0.47857 0.49875 0.39279 0.0
H2177 H 0.50509 0.50074 0.42563 0.0
H2178 H 0.48737 0.42061 0.43922 0.0
H2179 H 0.46248 0.41746 0.40537 0.0
C2180 C 0.34056 0.44459 0.35342 0.0
C2181 C 0.33449 0.41876 0.35902 0.0
C2182 C 0.36635 0.45313 0.35328 0.0
C2183 C 0.38659 0.43593 0.35863 0.0
C2184 C 0.38065 0.41028 0.36473 0.0
C2185 C 0.35478 0.40166 0.36471 0.0
C2186 C 0.414 0.44463 0.35704 0.0
C2187 C 0.42913 0.44557 0.37581 0.0
C2188 C 0.42462 0.45344 0.33734 0.0
C2189 C 0.40974 0.45209 0.31689 0.0
C2190 C 0.39941 0.42825 0.30965 0.0
C2191 C 0.38514 0.42717 0.2905 0.0
C2192 C 0.38124 0.44977 0.27836 0.0
C2193 C 0.39164 0.47349 0.28533 0.0
C2194 C 0.4059 0.47468 0.30449 0.0
C2195 C 0.53798 0.47183 0.36272 0.0
C2196 C 0.54159 0.49823 0.35735 0.0
C2197 C 0.51336 0.46041 0.36116 0.0
C2198 C 0.49193 0.47521 0.35426 0.0
C2199 C 0.49581 0.501 0.34743 0.0
C2200 C 0.52043 0.51246 0.34902 0.0
C2201 C 0.46517 0.46456 0.35573 0.0
C2202 C 0.45004 0.46343 0.33697 0.0
C2203 C 0.45454 0.45573 0.37552 0.0
C2204 C 0.46906 0.45772 0.39619 0.0
C2205 C 0.4807 0.48136 0.4025 0.0
C2206 C 0.49549 0.48269 0.42134 0.0
C2207 C 0.49788 0.46082 0.43458 0.0
C2208 C 0.48562 0.4375 0.4289 0.0
C2209 C 0.47138 0.43587 0.40975 0.0
H2210 H 0.50917 0.46195 0.44927 0.0
H2211 H 0.37019 0.44889 0.26354 0.0
H2212 H 0.22785 0.76978 0.59817 0.0
H2213 H 0.24996 0.72773 0.59693 0.0
H2214 H 0.32378 0.76553 0.60808 0.0
H2215 H 0.30175 0.80794 0.6096 0.0
H2216 H 0.32471 0.72194 0.57742 0.0
H2217 H 0.29786 0.74381 0.64834 0.0
H2218 H 0.26705 0.75945 0.67582 0.0
H2219 H 0.21772 0.69331 0.66431 0.0
H2220 H 0.24764 0.67789 0.63595 0.0
H2221 H 0.38102 0.59933 0.60896 0.0
H2222 H 0.36867 0.64561 0.61037 0.0
H2223 H 0.28763 0.62413 0.60475 0.0
H2224 H 0.29998 0.57801 0.6036 0.0
H2225 H 0.2959 0.66217 0.63558 0.0
H2226 H 0.3203 0.64414 0.56158 0.0
H2227 H 0.3504 0.62966 0.53302 0.0
H2228 H 0.40534 0.68864 0.55165 0.0
H2229 H 0.37569 0.70324 0.58053 0.0
C2230 C 0.24886 0.76932 0.59992 0.0
C2231 C 0.263 0.7922 0.60427 0.0
C2232 C 0.26144 0.74524 0.59924 0.0
C2233 C 0.28839 0.74358 0.60275 0.0
C2234 C 0.30293 0.76649 0.60542 0.0
C2235 C 0.29029 0.79067 0.60632 0.0
C2236 C 0.30066 0.71771 0.60558 0.0
C2237 C 0.31882 0.709 0.59033 0.0
C2238 C 0.29279 0.70091 0.62244 0.0
C2239 C 0.27491 0.70983 0.6398 0.0
C2240 C 0.28029 0.73274 0.65145 0.0
C2241 C 0.26298 0.74157 0.66721 0.0
C2242 C 0.24047 0.72734 0.67187 0.0
C2243 C 0.23517 0.70432 0.66068 0.0
C2244 C 0.25226 0.69557 0.64469 0.0
C2245 C 0.36059 0.60456 0.60848 0.0
C2246 C 0.34136 0.58522 0.60648 0.0
C2247 C 0.35357 0.63093 0.60907 0.0
C2248 C 0.32724 0.63826 0.60761 0.0
C2249 C 0.30805 0.61889 0.60598 0.0
C2250 C 0.31507 0.59263 0.60524 0.0
C2251 C 0.31943 0.66607 0.60707 0.0
C2252 C 0.3021 0.6752 0.62283 0.0
C2253 C 0.32817 0.68326 0.59077 0.0
C2254 C 0.34593 0.67456 0.57337 0.0
C2255 C 0.3389 0.65387 0.5597 0.0
C2256 C 0.35585 0.64567 0.54344 0.0
C2257 C 0.37981 0.65817 0.54057 0.0
C2258 C 0.38681 0.67894 0.55392 0.0
C2259 C 0.36994 0.68719 0.57023 0.0
H2260 H 0.39291 0.65179 0.52796 0.0
H2261 H 0.22716 0.73413 0.68417 0.0
H2262 H 0.94143 0.54692 0.86542 0.0
H2263 H 0.98347 0.56961 0.86638 0.0
H2264 H 0.0233 0.49658 0.85614 0.0
H2265 H 0.98165 0.47386 0.85495 0.0
H2266 H 0.04091 0.5233 0.89204 0.0
H2267 H 0.02042 0.54129 0.81705 0.0
H2268 H 0.99269 0.55897 0.78809 0.0
H2269 H 0.99804 0.63542 0.81591 0.0
H2270 H 0.02549 0.6181 0.84524 0.0
H2271 H 0.16999 0.54629 0.86233 0.0
H2272 H 0.12371 0.53506 0.8645 0.0
H2273 H 0.10455 0.61613 0.87431 0.0
H2274 H 0.15108 0.62738 0.87193 0.0
H2275 H 0.07353 0.59258 0.84331 0.0
H2276 H 0.09799 0.57694 0.91543 0.0
H2277 H 0.1245 0.56045 0.94559 0.0
H2278 H 0.11019 0.48172 0.92535 0.0
H2279 H 0.08392 0.49772 0.89484 0.0
C2280 C 0.95912 0.53579 0.86292 0.0
C2281 C 0.95819 0.50856 0.86022 0.0
C2282 C 0.9831 0.54878 0.8635 0.0
C2283 C 0.00645 0.5347 0.86155 0.0
C2284 C 0.00548 0.50775 0.85787 0.0
C2285 C 0.98161 0.49483 0.85707 0.0
C2286 C 0.03207 0.54744 0.86464 0.0
C2287 C 0.04812 0.53835 0.88132 0.0
C2288 C 0.04092 0.5679 0.85127 0.0
C2289 C 0.02476 0.57835 0.83347 0.0
C2290 C 0.01552 0.56183 0.81709 0.0
C2291 C 0.99988 0.57179 0.80059 0.0
C2292 C 0.99354 0.59828 0.8002 0.0
C2293 C 0.00292 0.61489 0.81626 0.0
C2294 C 0.01853 0.60502 0.83281 0.0
C2295 C 0.15587 0.56161 0.8652 0.0
C2296 C 0.16401 0.58757 0.86735 0.0
C2297 C 0.12951 0.55523 0.8665 0.0
C2298 C 0.11073 0.57474 0.86981 0.0
C2299 C 0.11877 0.60078 0.87192 0.0
C2300 C 0.14528 0.60714 0.8708 0.0
C2301 C 0.08275 0.56763 0.87017 0.0
C2302 C 0.06619 0.57784 0.85426 0.0
C2303 C 0.07324 0.54837 0.88442 0.0
C2304 C 0.08912 0.53857 0.90272 0.0
C2305 C 0.10068 0.55611 0.91728 0.0
C2306 C 0.11563 0.54685 0.93447 0.0
C2307 C 0.11907 0.52006 0.93736 0.0
C2308 C 0.10752 0.50247 0.92308 0.0
C2309 C 0.09256 0.51163 0.90585 0.0
H2310 H 0.13064 0.51293 0.95068 0.0
H2311 H 0.98142 0.60596 0.78742 0.0
H2312 H 0.79391 0.80334 0.87634 0.0
H2313 H 0.81594 0.76129 0.87973 0.0
H2314 H 0.74208 0.72371 0.8911 0.0
H2315 H 0.71995 0.76579 0.8886 0.0
H2316 H 0.78163 0.70831 0.91915 0.0
H2317 H 0.77604 0.69265 0.83362 0.0
H2318 H 0.78098 0.71122 0.7972 0.0
H2319 H 0.84576 0.75726 0.81885 0.0
H2320 H 0.84207 0.73778 0.85506 0.0
H2321 H 0.79505 0.57419 0.89833 0.0
H2322 H 0.78225 0.62015 0.89717 0.0
H2323 H 0.86129 0.64157 0.88135 0.0
H2324 H 0.87417 0.59555 0.88278 0.0
H2325 H 0.82523 0.66728 0.85641 0.0
H2326 H 0.83938 0.65119 0.93145 0.0
H2327 H 0.83427 0.62756 0.96574 0.0
H2328 H 0.75185 0.64224 0.96466 0.0
H2329 H 0.75641 0.66566 0.9302 0.0
C2330 C 0.78234 0.78612 0.87957 0.0
C2331 C 0.75513 0.78789 0.88204 0.0
C2332 C 0.79495 0.76202 0.88113 0.0
C2333 C 0.78055 0.7392 0.88474 0.0
C2334 C 0.75353 0.74104 0.88794 0.0
C2335 C 0.74091 0.76513 0.8866 0.0
C2336 C 0.79351 0.71342 0.88618 0.0
C2337 C 0.79123 0.69935 0.90545 0.0
C2338 C 0.80643 0.70187 0.86845 0.0
C2339 C 0.8081 0.71463 0.8472 0.0
C2340 C 0.79117 0.70693 0.83062 0.0
C2341 C 0.79393 0.71737 0.80997 0.0
C2342 C 0.81335 0.73579 0.8058 0.0
C2343 C 0.83045 0.74331 0.82218 0.0
C2344 C 0.82811 0.73249 0.84274 0.0
C2345 C 0.80961 0.58874 0.89452 0.0
C2346 C 0.83545 0.58132 0.89025 0.0
C2347 C 0.80235 0.61494 0.89395 0.0
C2348 C 0.8209 0.63427 0.88939 0.0
C2349 C 0.84668 0.62692 0.88484 0.0
C2350 C 0.85396 0.60064 0.88543 0.0
C2351 C 0.81316 0.6621 0.88932 0.0
C2352 C 0.81619 0.67643 0.87028 0.0
C2353 C 0.801 0.67389 0.90731 0.0
C2354 C 0.79823 0.66005 0.92816 0.0
C2355 C 0.82014 0.64925 0.93845 0.0
C2356 C 0.81734 0.6359 0.95793 0.0
C2357 C 0.79275 0.63337 0.96736 0.0
C2358 C 0.7709 0.64422 0.95734 0.0
C2359 C 0.77358 0.65756 0.93785 0.0
H2360 H 0.79062 0.62302 0.98243 0.0
H2361 H 0.81529 0.74401 0.78985 0.0
H2362 H 0.67543 0.55287 0.65158 0.0
H2363 H 0.63008 0.53884 0.64805 0.0
H2364 H 0.60842 0.61605 0.62705 0.0
H2365 H 0.6539 0.63029 0.63111 0.0
H2366 H 0.57447 0.5958 0.65746 0.0
H2367 H 0.61285 0.56929 0.59148 0.0
H2368 H 0.64654 0.5488 0.56884 0.0
H2369 H 0.62817 0.47391 0.59565 0.0
H2370 H 0.59498 0.49404 0.61904 0.0
H2371 H 0.44786 0.54688 0.62701 0.0
H2372 H 0.49044 0.56838 0.6272 0.0
H2373 H 0.52673 0.49659 0.64747 0.0
H2374 H 0.48439 0.47492 0.64724 0.0
H2375 H 0.55181 0.51857 0.61313 0.0
H2376 H 0.51857 0.54626 0.68237 0.0
H2377 H 0.4866 0.56689 0.70664 0.0
H2378 H 0.49543 0.63955 0.67311 0.0
H2379 H 0.52722 0.61923 0.64845 0.0
C2380 C 0.66098 0.56677 0.64613 0.0
C2381 C 0.66819 0.59246 0.64116 0.0
C2382 C 0.63514 0.55876 0.64405 0.0
C2383 C 0.61598 0.57632 0.63698 0.0
C2384 C 0.623 0.60217 0.63234 0.0
C2385 C 0.64897 0.61018 0.63437 0.0
C2386 C 0.58865 0.56741 0.63474 0.0
C2387 C 0.56936 0.57924 0.64744 0.0
C2388 C 0.58215 0.54562 0.62183 0.0
C2389 C 0.60152 0.53326 0.60721 0.0
C2390 C 0.61614 0.54849 0.59274 0.0
C2391 C 0.63523 0.53694 0.5798 0.0
C2392 C 0.63956 0.51009 0.58086 0.0
C2393 C 0.62481 0.49472 0.59486 0.0
C2394 C 0.60588 0.5062 0.608 0.0
C2395 C 0.46484 0.53576 0.63183 0.0
C2396 C 0.4627 0.50917 0.63712 0.0
C2397 C 0.48917 0.54808 0.63188 0.0
C2398 C 0.51174 0.53405 0.63729 0.0
C2399 C 0.50956 0.50773 0.64312 0.0
C2400 C 0.48529 0.49542 0.64313 0.0
C2401 C 0.53783 0.54646 0.63636 0.0
C2402 C 0.55684 0.53534 0.62293 0.0
C2403 C 0.54405 0.56891 0.64855 0.0
C2404 C 0.52503 0.58115 0.66341 0.0
C2405 C 0.51352 0.56657 0.68006 0.0
C2406 C 0.49547 0.57822 0.69391 0.0
C2407 C 0.48892 0.60449 0.69138 0.0
C2408 C 0.50048 0.61919 0.67503 0.0
C2409 C 0.51853 0.60762 0.66112 0.0
H2410 H 0.47494 0.61348 0.70212 0.0
H2411 H 0.65426 0.50117 0.57076 0.0
H2412 H 0.77998 0.23099 0.4068 0.0
H2413 H 0.75878 0.27306 0.41249 0.0
H2414 H 0.69005 0.24501 0.37977 0.0
H2415 H 0.71064 0.20258 0.37495 0.0
H2416 H 0.74536 0.3071 0.38541 0.0
H2417 H 0.63631 0.27738 0.39456 0.0
H2418 H 0.61041 0.24171 0.41041 0.0
H2419 H 0.67266 0.22459 0.45441 0.0
H2420 H 0.69878 0.26037 0.43904 0.0
H2421 H 0.67025 0.41868 0.36518 0.0
H2422 H 0.68586 0.37382 0.364 0.0
H2423 H 0.6645 0.36381 0.43067 0.0
H2424 H 0.64689 0.40804 0.43134 0.0
H2425 H 0.65484 0.32107 0.41094 0.0
H2426 H 0.7285 0.37882 0.41361 0.0
H2427 H 0.75663 0.41503 0.40166 0.0
H2428 H 0.76881 0.37674 0.34101 0.0
H2429 H 0.74045 0.34048 0.3525 0.0
C2430 C 0.76017 0.23364 0.40116 0.0
C2431 C 0.74701 0.21347 0.39038 0.0
C2432 C 0.7481 0.25775 0.40435 0.0
C2433 C 0.72273 0.26225 0.39669 0.0
C2434 C 0.70938 0.24192 0.3863 0.0
C2435 C 0.72127 0.21767 0.38342 0.0
C2436 C 0.71095 0.28866 0.39825 0.0
C2437 C 0.72554 0.31006 0.39096 0.0
C2438 C 0.68529 0.29278 0.40595 0.0
C2439 C 0.66959 0.27142 0.41549 0.0
C2440 C 0.64442 0.26608 0.40768 0.0
C2441 C 0.62971 0.24582 0.41657 0.0
C2442 C 0.63991 0.23084 0.43336 0.0
C2443 C 0.66481 0.23614 0.44135 0.0
C2444 C 0.67959 0.25639 0.43254 0.0
C2445 C 0.66787 0.40667 0.37931 0.0
C2446 C 0.65673 0.41677 0.39822 0.0
C2447 C 0.67736 0.38112 0.37878 0.0
C2448 C 0.67675 0.36551 0.39736 0.0
C2449 C 0.66518 0.37541 0.41611 0.0
C2450 C 0.65528 0.40074 0.41652 0.0
C2451 C 0.68907 0.33929 0.39761 0.0
C2452 C 0.67459 0.31798 0.40526 0.0
C2453 C 0.71509 0.33529 0.39075 0.0
C2454 C 0.73217 0.35707 0.38384 0.0
C2455 C 0.73704 0.37822 0.39767 0.0
C2456 C 0.75304 0.39874 0.39099 0.0
C2457 C 0.76445 0.39822 0.37057 0.0
C2458 C 0.75993 0.37714 0.35681 0.0
C2459 C 0.74391 0.3566 0.3634 0.0
H2460 H 0.77683 0.41412 0.36543 0.0
H2461 H 0.6285 0.21515 0.4402 0.0
H2462 H 0.82916 0.42705 0.11367 0.0
H2463 H 0.87446 0.44246 0.11223 0.0
H2464 H 0.89148 0.39993 0.17053 0.0
H2465 H 0.84616 0.38528 0.17219 0.0
H2466 H 0.9091 0.44639 0.17431 0.0
H2467 H 0.91266 0.38139 0.11857 0.0
H2468 H 0.90021 0.35983 0.08462 0.0
H2469 H 0.92029 0.42887 0.04927 0.0
H2470 H 0.93235 0.45106 0.08303 0.0
H2471 H 0.05361 0.45434 0.13432 0.0
H2472 H 0.0112 0.43271 0.13643 0.0
H2473 H 0.97467 0.50618 0.15167 0.0
H2474 H 0.01696 0.52789 0.15 0.0
H2475 H 0.96849 0.44151 0.11151 0.0
H2476 H 0.9227 0.49491 0.18432 0.0
H2477 H 0.93654 0.51479 0.21863 0.0
H2478 H 0.00326 0.46424 0.22065 0.0
H2479 H 0.98963 0.44382 0.18652 0.0
C2480 C 0.84281 0.42065 0.12586 0.0
C2481 C 0.8344 0.40484 0.14295 0.0
C2482 C 0.86865 0.42944 0.12507 0.0
C2483 C 0.8865 0.42224 0.14122 0.0
C2484 C 0.87812 0.40585 0.15794 0.0
C2485 C 0.85231 0.39741 0.15886 0.0
C2486 C 0.91345 0.4329 0.14161 0.0
C2487 C 0.92205 0.44523 0.16054 0.0
C2488 C 0.93052 0.43134 0.12373 0.0
C2489 C 0.92312 0.418 0.10341 0.0
C2490 C 0.91416 0.39209 0.1036 0.0
C2491 C 0.90721 0.37973 0.08437 0.0
C2492 C 0.90941 0.39299 0.06482 0.0
C2493 C 0.91855 0.41864 0.06444 0.0
C2494 C 0.92543 0.43111 0.08362 0.0
C2495 C 0.03664 0.46584 0.13849 0.0
C2496 C 0.03871 0.49285 0.14207 0.0
C2497 C 0.01239 0.45346 0.13953 0.0
C2498 C 0.9898 0.46783 0.14418 0.0
C2499 C 0.99189 0.49466 0.14825 0.0
C2500 C 0.01611 0.50704 0.14729 0.0
C2501 C 0.96389 0.455 0.14409 0.0
C2502 C 0.95548 0.44249 0.12523 0.0
C2503 C 0.94706 0.4561 0.16207 0.0
C2504 C 0.95526 0.46802 0.18275 0.0
C2505 C 0.94027 0.48797 0.19213 0.0
C2506 C 0.94808 0.49934 0.21154 0.0
C2507 C 0.97081 0.49084 0.22177 0.0
C2508 C 0.98572 0.47088 0.21266 0.0
C2509 C 0.97797 0.45943 0.19327 0.0
H2510 H 0.97684 0.49968 0.23679 0.0
H2511 H 0.90412 0.38337 0.04994 0.0
H2512 H 0.70758 0.69482 0.6132 0.0
H2513 H 0.68499 0.73655 0.60938 0.0
H2514 H 0.75771 0.77384 0.59313 0.0
H2515 H 0.78044 0.73224 0.59676 0.0
H2516 H 0.69294 0.77955 0.63343 0.0
H2517 H 0.74566 0.82527 0.56004 0.0
H2518 H 0.76541 0.81117 0.52576 0.0
H2519 H 0.71578 0.7438 0.5247 0.0
H2520 H 0.69547 0.75768 0.55879 0.0
H2521 H 0.67984 0.91856 0.63164 0.0
H2522 H 0.69532 0.87329 0.63232 0.0
H2523 H 0.65064 0.85689 0.57502 0.0
H2524 H 0.63563 0.90219 0.57422 0.0
H2525 H 0.69748 0.8387 0.57044 0.0
H2526 H 0.63277 0.83474 0.62642 0.0
H2527 H 0.61138 0.84749 0.66038 0.0
H2528 H 0.68117 0.82912 0.69545 0.0
H2529 H 0.70311 0.81673 0.66167 0.0
C2530 C 0.71872 0.71179 0.60841 0.0
C2531 C 0.74585 0.71019 0.60533 0.0
C2532 C 0.70577 0.73565 0.60634 0.0
C2533 C 0.71965 0.7583 0.60098 0.0
C2534 C 0.74655 0.75656 0.59705 0.0
C2535 C 0.75953 0.73274 0.59917 0.0
C2536 C 0.70642 0.78403 0.60082 0.0
C2537 C 0.6939 0.79249 0.61966 0.0
C2538 C 0.70737 0.80076 0.58276 0.0
C2539 C 0.71922 0.79242 0.56208 0.0
C2540 C 0.73888 0.80751 0.55244 0.0
C2541 C 0.75019 0.79955 0.53305 0.0
C2542 C 0.74191 0.77657 0.52309 0.0
C2543 C 0.72224 0.76154 0.53247 0.0
C2544 C 0.71085 0.76944 0.55184 0.0
C2545 C 0.67291 0.90507 0.61954 0.0
C2546 C 0.65627 0.91364 0.60305 0.0
C2547 C 0.6818 0.87925 0.61986 0.0
C2548 C 0.67397 0.86156 0.60381 0.0
C2549 C 0.657 0.87013 0.58755 0.0
C2550 C 0.64836 0.89592 0.58713 0.0
C2551 C 0.68437 0.8345 0.60323 0.0
C2552 C 0.69647 0.82579 0.58425 0.0
C2553 C 0.68286 0.81749 0.62113 0.0
C2554 C 0.66967 0.82504 0.64146 0.0
C2555 C 0.64363 0.83364 0.64135 0.0
C2556 C 0.6314 0.84078 0.66057 0.0
C2557 C 0.64493 0.83919 0.68005 0.0
C2558 C 0.67072 0.8304 0.68035 0.0
C2559 C 0.68306 0.82331 0.66117 0.0
H2560 H 0.63541 0.8447 0.69492 0.0
H2561 H 0.75071 0.77043 0.50809 0.0
H2562 H 0.84453 0.88984 0.81943 0.0
H2563 H 0.8903 0.90326 0.82086 0.0
H2564 H 0.87682 0.93894 0.88283 0.0
H2565 H 0.83117 0.92486 0.88153 0.0
H2566 H 0.91096 0.94853 0.82073 0.0
H2567 H 0.93179 0.9394 0.9125 0.0
H2568 H 0.91861 0.91156 0.94299 0.0
H2569 H 0.90049 0.84921 0.89945 0.0
H2570 H 0.91399 0.87641 0.86872 0.0
H2571 H 0.01872 0.02532 0.8503 0.0
H2572 H 0.97663 0.00378 0.84673 0.0
H2573 H 0.01249 0.92964 0.86097 0.0
H2574 H 0.05472 0.95123 0.86518 0.0
H2575 H 0.96933 0.93462 0.88334 0.0
H2576 H 0.99217 0.94489 0.80961 0.0
H2577 H 0.00709 0.96803 0.7771 0.0
H2578 H 0.94115 0.01943 0.78096 0.0
H2579 H 0.92598 0.99678 0.81366 0.0
C2580 C 0.85155 0.90028 0.83343 0.0
C2581 C 0.8346 0.90599 0.85051 0.0
C2582 C 0.8776 0.90801 0.83423 0.0
C2583 C 0.88714 0.92192 0.85202 0.0
C2584 C 0.87013 0.92772 0.86913 0.0
C2585 C 0.84409 0.91967 0.86844 0.0
C2586 C 0.91457 0.93122 0.8522 0.0
C2587 C 0.92372 0.94539 0.8344 0.0
C2588 C 0.93148 0.92668 0.86982 0.0
C2589 C 0.92371 0.91005 0.88828 0.0
C2590 C 0.92512 0.91971 0.90943 0.0
C2591 C 0.91756 0.90405 0.92676 0.0
C2592 C 0.90865 0.87869 0.92316 0.0
C2593 C 0.90733 0.86888 0.90222 0.0
C2594 C 0.91492 0.88441 0.88484 0.0
C2595 C 0.01779 0.00437 0.85241 0.0
C2596 C 0.04013 0.98998 0.85798 0.0
C2597 C 0.99366 0.99207 0.85032 0.0
C2598 C 0.9914 0.96505 0.85342 0.0
C2599 C 0.01377 0.95052 0.85855 0.0
C2600 C 0.03792 0.96286 0.8608 0.0
C2601 C 0.9655 0.95225 0.85201 0.0
C2602 C 0.9566 0.93755 0.86961 0.0
C2603 C 0.94907 0.95562 0.83393 0.0
C2604 C 0.95804 0.96924 0.81419 0.0
C2605 C 0.98094 0.96124 0.80361 0.0
C2606 C 0.98944 0.97426 0.78514 0.0
C2607 C 0.97511 0.99523 0.777 0.0
C2608 C 0.95223 0.00319 0.78729 0.0
C2609 C 0.94365 0.99024 0.80578 0.0
H2610 H 0.9817 0.00528 0.76269 0.0
H2611 H 0.90283 0.86661 0.9366 0.0
H2612 H 0.87147 0.09871 0.11702 0.0
H2613 H 0.8567 0.14419 0.11753 0.0
H2614 H 0.77993 0.11957 0.09774 0.0
H2615 H 0.7946 0.07418 0.09747 0.0
H2616 H 0.79673 0.15949 0.07377 0.0
H2617 H 0.79119 0.13913 0.149 0.0
H2618 H 0.80692 0.12422 0.18443 0.0
H2619 H 0.86473 0.18473 0.18471 0.0
H2620 H 0.84957 0.19978 0.14912 0.0
H2621 H 0.7177 0.26849 0.09942 0.0
H2622 H 0.73931 0.22632 0.09566 0.0
H2623 H 0.81269 0.26122 0.11351 0.0
H2624 H 0.79122 0.30354 0.1174 0.0
H2625 H 0.80216 0.21804 0.13713 0.0
H2626 H 0.80341 0.2407 0.06273 0.0
H2627 H 0.78521 0.25588 0.02822 0.0
H2628 H 0.73255 0.19085 0.02721 0.0
H2629 H 0.75016 0.17547 0.0619 0.0
C2630 C 0.85129 0.10297 0.11337 0.0
C2631 C 0.83399 0.08291 0.10764 0.0
C2632 C 0.84292 0.12896 0.11348 0.0
C2633 C 0.81716 0.13524 0.10779 0.0
C2634 C 0.79989 0.11518 0.10215 0.0
C2635 C 0.80824 0.0893 0.10205 0.0
C2636 C 0.80823 0.16274 0.10702 0.0
C2637 C 0.79764 0.17222 0.08769 0.0
C2638 C 0.81012 0.17955 0.125 0.0
C2639 C 0.8195 0.17033 0.14626 0.0
C2640 C 0.80746 0.14907 0.1565 0.0
C2641 C 0.81622 0.14064 0.17664 0.0
C2642 C 0.83688 0.15346 0.18677 0.0
C2643 C 0.84878 0.17478 0.17681 0.0
C2644 C 0.84011 0.18326 0.15666 0.0
C2645 C 0.73851 0.26733 0.1022 0.0
C2646 C 0.7527 0.28935 0.10881 0.0
C2647 C 0.75087 0.24322 0.09996 0.0
C2648 C 0.77763 0.24068 0.10423 0.0
C2649 C 0.79202 0.26279 0.11014 0.0
C2650 C 0.77971 0.28695 0.11231 0.0
C2651 C 0.79004 0.21458 0.10405 0.0
C2652 C 0.8014 0.20538 0.12316 0.0
C2653 C 0.78856 0.19794 0.08596 0.0
C2654 C 0.77799 0.20704 0.06502 0.0
C2655 C 0.78781 0.22974 0.05524 0.0
C2656 C 0.77762 0.23836 0.03563 0.0
C2657 C 0.7577 0.22437 0.02555 0.0
C2658 C 0.74797 0.20168 0.03504 0.0
C2659 C 0.75808 0.19298 0.05467 0.0
H2660 H 0.74983 0.23108 0.01037 0.0
H2661 H 0.84361 0.14692 0.20237 0.0
H2662 H 0.48442 0.97309 0.35926 0.0
H2663 H 0.52698 0.99398 0.35681 0.0
H2664 H 0.49236 0.06798 0.37338 0.0
H2665 H 0.44955 0.04712 0.37608 0.0
H2666 H 0.54464 0.03034 0.33102 0.0
H2667 H 0.52801 0.10204 0.39829 0.0
H2668 H 0.51232 0.10656 0.43572 0.0
H2669 H 0.53197 0.02657 0.44815 0.0
H2670 H 0.54682 0.0214 0.41057 0.0
H2671 H 0.65493 0.11366 0.32443 0.0
H2672 H 0.60988 0.09803 0.32745 0.0
H2673 H 0.62945 0.05931 0.387 0.0
H2674 H 0.67425 0.07542 0.3841 0.0
H2675 H 0.58387 0.08093 0.39084 0.0
H2676 H 0.62516 0.02637 0.33818 0.0
H2677 H 0.64955 0.01677 0.30491 0.0
H2678 H 0.58901 0.05237 0.26727 0.0
H2679 H 0.56442 0.06251 0.30038 0.0
C2680 C 0.48576 0.99385 0.36228 0.0
C2681 C 0.46352 0.00843 0.36782 0.0
C2682 C 0.51017 0.00576 0.36094 0.0
C2683 C 0.51297 0.03249 0.36516 0.0
C2684 C 0.49077 0.04723 0.37042 0.0
C2685 C 0.46626 0.03533 0.37171 0.0
C2686 C 0.53902 0.0449 0.36323 0.0
C2687 C 0.55315 0.04155 0.34406 0.0
C2688 C 0.55038 0.05921 0.38025 0.0
C2689 C 0.53815 0.06127 0.40168 0.0
C2690 C 0.52847 0.08533 0.40894 0.0
C2691 C 0.51976 0.088 0.43015 0.0
C2692 C 0.52121 0.06688 0.4443 0.0
C2693 C 0.53079 0.04288 0.43714 0.0
C2694 C 0.539 0.03997 0.41583 0.0
C2695 C 0.6494 0.10198 0.33821 0.0
C2696 C 0.6678 0.09599 0.35419 0.0
C2697 C 0.62378 0.09298 0.3399 0.0
C2698 C 0.61632 0.07727 0.35735 0.0
C2699 C 0.63468 0.07154 0.37346 0.0
C2700 C 0.66021 0.08081 0.37188 0.0
C2701 C 0.58958 0.06628 0.35869 0.0
C2702 C 0.57527 0.07002 0.37767 0.0
C2703 C 0.57842 0.05164 0.34169 0.0
C2704 C 0.59309 0.04545 0.32177 0.0
C2705 C 0.61714 0.03232 0.32282 0.0
C2706 C 0.63099 0.02675 0.30399 0.0
C2707 C 0.62087 0.03402 0.28399 0.0
C2708 C 0.59684 0.04679 0.28278 0.0
C2709 C 0.58294 0.05244 0.30157 0.0
H2710 H 0.63162 0.0297 0.26943 0.0
H2711 H 0.51491 0.06911 0.46082 0.0
H2712 H 0.23105 0.27343 0.40683 0.0
H2713 H 0.2541 0.23217 0.41084 0.0
H2714 H 0.32439 0.26752 0.38634 0.0
H2715 H 0.3013 0.30901 0.38202 0.0
H2716 H 0.31413 0.22227 0.36617 0.0
H2717 H 0.32034 0.25034 0.43874 0.0
H2718 H 0.30544 0.26775 0.47362 0.0
H2719 H 0.2541 0.20235 0.48134 0.0
H2720 H 0.26834 0.18473 0.44634 0.0
H2721 H 0.38195 0.10156 0.39038 0.0
H2722 H 0.36978 0.14777 0.38927 0.0
H2723 H 0.29119 0.12775 0.40753 0.0
H2724 H 0.30301 0.08158 0.40789 0.0
H2725 H 0.31269 0.16787 0.43215 0.0
H2726 H 0.30338 0.14313 0.35737 0.0
H2727 H 0.31861 0.12595 0.3225 0.0
H2728 H 0.3768 0.18596 0.31927 0.0
H2729 H 0.3622 0.20325 0.35433 0.0
C2730 C 0.25152 0.27259 0.40258 0.0
C2731 C 0.26431 0.2945 0.39406 0.0
C2732 C 0.26471 0.24898 0.40496 0.0
C2733 C 0.29102 0.24679 0.39901 0.0
C2734 C 0.30409 0.2688 0.39104 0.0
C2735 C 0.29089 0.29251 0.38869 0.0
C2736 C 0.30415 0.22103 0.39986 0.0
C2737 C 0.31437 0.21059 0.38072 0.0
C2738 C 0.30412 0.20567 0.41877 0.0
C2739 C 0.29533 0.21628 0.43982 0.0
C2740 C 0.30571 0.23977 0.44778 0.0
C2741 C 0.2974 0.24966 0.4676 0.0
C2742 C 0.27885 0.23616 0.47969 0.0
C2743 C 0.2685 0.21277 0.47196 0.0
C2744 C 0.2767 0.20281 0.45214 0.0
C2745 C 0.36192 0.10692 0.3935 0.0
C2746 C 0.34323 0.08786 0.39865 0.0
C2747 C 0.35508 0.13336 0.39312 0.0
C2748 C 0.32956 0.14112 0.39821 0.0
C2749 C 0.31099 0.12215 0.40356 0.0
C2750 C 0.31775 0.09582 0.40373 0.0
C2751 C 0.322 0.16899 0.39839 0.0
C2752 C 0.31286 0.17978 0.41772 0.0
C2753 C 0.32314 0.18468 0.3797 0.0
C2754 C 0.33197 0.17422 0.35866 0.0
C2755 C 0.31963 0.15247 0.34936 0.0
C2756 C 0.32811 0.14275 0.32954 0.0
C2757 C 0.34877 0.15475 0.31875 0.0
C2758 C 0.36089 0.1766 0.3277 0.0
C2759 C 0.35252 0.18637 0.34755 0.0
H2760 H 0.35532 0.14717 0.30342 0.0
H2761 H 0.27255 0.24377 0.49508 0.0
H2762 H 0.97641 0.97677 0.15846 0.0
H2763 H 0.01773 0.99983 0.16215 0.0
H2764 H 0.98169 0.07044 0.13894 0.0
H2765 H 0.94023 0.04739 0.13492 0.0
H2766 H 0.02593 0.06049 0.1177 0.0
H2767 H 1.00056 0.06499 0.19113 0.0
H2768 H 0.9845 0.04859 0.22598 0.0
H2769 H 0.05103 0.99815 0.23113 0.0
H2770 H 0.06726 0.01385 0.1961 0.0
H2771 H 0.14727 0.12841 0.13596 0.0
H2772 H 0.10102 0.11616 0.13695 0.0
H2773 H 0.12225 0.039 0.15835 0.0
H2774 H 0.16829 0.05109 0.15711 0.0
H2775 H 0.08284 0.0589 0.18222 0.0
H2776 H 0.10539 0.05149 0.10712 0.0
H2777 H 0.12163 0.06804 0.07252 0.0
H2778 H 0.05931 0.12394 0.0703 0.0
H2779 H 0.04327 0.10836 0.10546 0.0
C2780 C 0.9771 0.99732 0.15449 0.0
C2781 C 0.95501 0.0102 0.14633 0.0
C2782 C 1.00076 0.01052 0.15667 0.0
C2783 C 0.0028 0.03691 0.1509 0.0
C2784 C 0.98056 0.05008 0.14347 0.0
C2785 C 0.95685 0.03689 0.14129 0.0
C2786 C 0.02858 0.05007 0.15122 0.0
C2787 C 0.03816 0.06068 0.13194 0.0
C2788 C 0.04469 0.04994 0.16971 0.0
C2789 C 0.03507 0.04052 0.19089 0.0
C2790 C 0.01168 0.05026 0.1996 0.0
C2791 C 0.00255 0.0411 0.21941 0.0
C2792 C 0.01674 0.02235 0.23076 0.0
C2793 C 0.04007 0.01269 0.22232 0.0
C2794 C 0.04926 0.02173 0.2025 0.0
C2795 C 0.14207 0.10868 0.14033 0.0
C2796 C 0.1614 0.0905 0.14601 0.0
C2797 C 0.11564 0.10178 0.14114 0.0
C2798 C 0.10818 0.07662 0.14769 0.0
C2799 C 0.12751 0.05854 0.15336 0.0
C2800 C 0.15379 0.06541 0.15254 0.0
C2801 C 0.08034 0.06874 0.14859 0.0
C2802 C 0.0704 0.05912 0.1681 0.0
C2803 C 0.06389 0.06982 0.13033 0.0
C2804 C 0.07336 0.07901 0.10909 0.0
C2805 C 0.09531 0.06752 0.0994 0.0
C2806 C 0.10448 0.07673 0.07965 0.0
C2807 C 0.09151 0.09705 0.06916 0.0
C2808 C 0.06937 0.10824 0.07846 0.0
C2809 C 0.06029 0.09929 0.09834 0.0
H2810 H 0.09854 0.10409 0.05381 0.0
H2811 H 0.00967 0.01532 0.24611 0.0
H2812 H 0.20042 0.92023 0.89569 0.0
H2813 H 0.21303 0.87421 0.89366 0.0
H2814 H 0.13205 0.85232 0.88856 0.0
H2815 H 0.11947 0.89861 0.89051 0.0
H2816 H 0.16007 0.82311 0.91926 0.0
H2817 H 0.16635 0.84577 0.84569 0.0
H2818 H 0.17846 0.87119 0.81356 0.0
H2819 H 0.25956 0.85937 0.82757 0.0
H2820 H 0.24797 0.83424 0.86002 0.0
H2821 H 0.20231 0.69124 0.89276 0.0
H2822 H 0.18013 0.73357 0.89354 0.0
H2823 H 0.25433 0.77235 0.89965 0.0
H2824 H 0.27661 0.73037 0.89902 0.0
H2825 H 0.2235 0.7905 0.86531 0.0
H2826 H 0.21516 0.77027 0.94123 0.0
H2827 H 0.20148 0.74275 0.97174 0.0
H2828 H 0.12176 0.74815 0.95113 0.0
H2829 H 0.13503 0.77537 0.92028 0.0
C2830 C 0.18541 0.90554 0.89394 0.0
C2831 C 0.15908 0.9128 0.89294 0.0
C2832 C 0.19257 0.87935 0.89272 0.0
C2833 C 0.17347 0.85991 0.89076 0.0
C2834 C 0.14706 0.86708 0.88992 0.0
C2835 C 0.13992 0.89341 0.89085 0.0
C2836 C 0.18143 0.83217 0.89034 0.0
C2837 C 0.17354 0.81578 0.90723 0.0
C2838 C 0.19911 0.82273 0.87471 0.0
C2839 C 0.20626 0.83831 0.85544 0.0
C2840 C 0.18677 0.84884 0.84208 0.0
C2841 C 0.19355 0.86315 0.82377 0.0
C2842 C 0.21976 0.86694 0.81855 0.0
C2843 C 0.23926 0.85644 0.83165 0.0
C2844 C 0.2326 0.84215 0.85 0.0
C2845 C 0.21386 0.70875 0.89468 0.0
C2846 C 0.24125 0.70743 0.89568 0.0
C2847 C 0.20116 0.7329 0.8951 0.0
C2848 C 0.21565 0.75603 0.89648 0.0
C2849 C 0.24284 0.75469 0.89843 0.0
C2850 C 0.25552 0.73064 0.89818 0.0
C2851 C 0.20287 0.7818 0.8946 0.0
C2852 C 0.20981 0.79776 0.8772 0.0
C2853 C 0.18413 0.79066 0.9096 0.0
C2854 C 0.17612 0.7746 0.9283 0.0
C2855 C 0.19474 0.76541 0.9431 0.0
C2856 C 0.18706 0.74989 0.96047 0.0
C2857 C 0.16078 0.74363 0.96333 0.0
C2858 C 0.14211 0.75297 0.94887 0.0
C2859 C 0.1497 0.76845 0.93144 0.0
H2860 H 0.15487 0.73161 0.97679 0.0
H2861 H 0.22496 0.87796 0.80434 0.0
H2862 H 0.32928 0.95374 0.64655 0.0
H2863 H 0.3749 0.96769 0.64561 0.0
H2864 H 0.39904 0.88812 0.63496 0.0
H2865 H 0.35316 0.87414 0.63601 0.0
H2866 H 0.4277 0.91372 0.66732 0.0
H2867 H 0.40305 0.92771 0.5944 0.0
H2868 H 0.37596 0.94335 0.56428 0.0
H2869 H 0.38704 0.02245 0.58498 0.0
H2870 H 0.41387 0.00726 0.61544 0.0
H2871 H 0.55815 0.9563 0.63951 0.0
H2872 H 0.51547 0.93518 0.64188 0.0
H2873 H 0.47899 0.01013 0.65117 0.0
H2874 H 0.52144 0.03138 0.64896 0.0
H2875 H 0.45837 0.98242 0.61716 0.0
H2876 H 0.4814 0.96765 0.69136 0.0
H2877 H 0.50978 0.9517 0.72055 0.0
H2878 H 0.5028 0.8735 0.69655 0.0
H2879 H 0.47475 0.88906 0.66695 0.0
C2880 C 0.34436 0.93934 0.6438 0.0
C2881 C 0.33783 0.91301 0.64097 0.0
C2882 C 0.37033 0.94727 0.64323 0.0
C2883 C 0.39028 0.92895 0.64001 0.0
C2884 C 0.38387 0.90254 0.63732 0.0
C2885 C 0.35775 0.89463 0.63768 0.0
C2886 C 0.41778 0.93767 0.64001 0.0
C2887 C 0.43461 0.9284 0.65613 0.0
C2888 C 0.42658 0.95706 0.62557 0.0
C2889 C 0.41029 0.9663 0.60734 0.0
C2890 C 0.39951 0.94842 0.59267 0.0
C2891 C 0.38424 0.95721 0.5755 0.0
C2892 C 0.37974 0.98387 0.57275 0.0
C2893 C 0.39053 0.0018 0.58714 0.0
C2894 C 0.40579 0.99311 0.60436 0.0
C2895 C 0.5411 0.96823 0.64254 0.0
C2896 C 0.54313 0.99554 0.64389 0.0
C2897 C 0.51676 0.95611 0.64394 0.0
C2898 C 0.49412 0.97114 0.64656 0.0
C2899 C 0.49626 0.99824 0.64902 0.0
C2900 C 0.52056 0.01033 0.64785 0.0
C2901 C 0.46804 0.95907 0.64484 0.0
C2902 C 0.45153 0.96762 0.62828 0.0
C2903 C 0.45965 0.939 0.65881 0.0
C2904 C 0.47619 0.92957 0.6768 0.0
C2905 C 0.48608 0.94708 0.69219 0.0
C2906 C 0.50209 0.93811 0.70883 0.0
C2907 C 0.50814 0.91161 0.71037 0.0
C2908 C 0.49812 0.89402 0.69532 0.0
C2909 C 0.48216 0.90291 0.67861 0.0
H2910 H 0.52054 0.9047 0.72326 0.0
H2911 H 0.36793 0.99064 0.55943 0.0
loop_
_geom_bond_atom_site_label_1
_geom_bond_atom_site_label_2
_geom_bond_distance
_geom_bond_site_symmetry_2
_ccdc_geom_bond_type
Zn0 O1 2.055 . S
Zn0 O8 2.046 . S
Zn0 N16 2.036 . S
Zn0 O28 2.053 . S
Zn0 O30 2.066 . S
O1 Zn0 2.055 . S
O1 C4 1.259 . S
C2 O30 1.256 . S
C2 O31 1.244 . S
Zn3 O5 2.046 . S
Zn3 O7 2.055 . S
Zn3 N9 2.036 . S
Zn3 O27 2.066 . S
Zn3 O31 2.053 . S
C4 O1 1.259 . S
C4 O5 1.254 . S
O5 Zn3 2.046 . S
O5 C4 1.254 . S
C6 O27 1.256 . S
C6 O28 1.244 . S
O7 Zn3 2.055 . S
O7 C29 1.259 . S
O8 Zn0 2.046 . S
O8 C29 1.254 . S
N9 Zn3 2.036 . S
N9 C10 1.298 . S
N9 N12 1.398 . S
C10 N9 1.298 . S
C10 N13 1.367 . S
C10 C23 1.481 . S
C11 N12 1.299 . S
C11 N13 1.379 . S
N12 N9 1.398 . S
N12 C11 1.299 . S
N13 C10 1.367 . S
N13 C11 1.379 . S
C14 N16 1.298 . S
C14 N18 1.367 . S
C14 C22 1.481 . S
C15 N17 1.299 . S
C15 N18 1.379 . S
N16 Zn0 2.036 . S
N16 C14 1.298 . S
N16 N17 1.398 . S
N17 C15 1.299 . S
N17 N16 1.398 . S
N18 C14 1.367 . S
N18 C15 1.379 . S
H19 C22 0.980 . S
H20 C22 0.981 . S
H21 C22 0.981 . S
C22 C14 1.481 . S
C22 H19 0.980 . S
C22 H20 0.981 . S
C22 H21 0.981 . S
C23 C10 1.481 . S
C23 H24 0.980 . S
C23 H25 0.981 . S
C23 H26 0.981 . S
H24 C23 0.980 . S
H25 C23 0.981 . S
H26 C23 0.981 . S
O27 Zn3 2.066 . S
O27 C6 1.256 . S
O28 Zn0 2.053 . S
O28 C6 1.244 . S
C29 O7 1.259 . S
C29 O8 1.254 . S
O30 Zn0 2.066 . S
O30 C2 1.256 . S
O31 C2 1.244 . S
O31 Zn3 2.053 . S
Zn32 O33 2.055 . S
Zn32 O40 2.046 . S
Zn32 N48 2.036 . S
Zn32 O60 2.053 . S
Zn32 O62 2.066 . S
O33 Zn32 2.055 . S
O33 C36 1.259 . S
C34 O62 1.256 . S
C34 O63 1.244 . S
Zn35 O37 2.046 . S
Zn35 O39 2.055 . S
Zn35 N41 2.036 . S
Zn35 O59 2.066 . S
Zn35 O63 2.053 . S
C36 O33 1.259 . S
C36 O37 1.254 . S
O37 Zn35 2.046 . S
O37 C36 1.254 . S
C38 O59 1.256 . S
C38 O60 1.244 . S
O39 Zn35 2.055 . S
O39 C61 1.259 . S
O40 Zn32 2.046 . S
O40 C61 1.254 . S
N41 Zn35 2.036 . S
N41 C42 1.298 . S
N41 N44 1.398 . S
C42 N41 1.298 . S
C42 N45 1.367 . S
C42 C55 1.481 . S
C43 N44 1.299 . S
C43 N45 1.379 . S
N44 N41 1.398 . S
N44 C43 1.299 . S
N45 C42 1.367 . S
N45 C43 1.379 . S
C46 N48 1.298 . S
C46 N50 1.367 . S
C46 C54 1.481 . S
C47 N49 1.299 . S
C47 N50 1.379 . S
N48 Zn32 2.036 . S
N48 C46 1.298 . S
N48 N49 1.398 . S
N49 C47 1.299 . S
N49 N48 1.398 . S
N50 C46 1.367 . S
N50 C47 1.379 . S
H51 C54 0.980 . S
H52 C54 0.981 . S
H53 C54 0.981 . S
C54 C46 1.481 . S
C54 H51 0.980 . S
C54 H52 0.981 . S
C54 H53 0.981 . S
C55 C42 1.481 . S
C55 H56 0.980 . S
C55 H57 0.981 . S
C55 H58 0.981 . S
H56 C55 0.980 . S
H57 C55 0.981 . S
H58 C55 0.981 . S
O59 Zn35 2.066 . S
O59 C38 1.256 . S
O60 Zn32 2.053 . S
O60 C38 1.244 . S
C61 O39 1.259 . S
C61 O40 1.254 . S
O62 Zn32 2.066 . S
O62 C34 1.256 . S
O63 C34 1.244 . S
O63 Zn35 2.053 . S
Zn64 O65 2.055 . S
Zn64 O72 2.046 . S
Zn64 N80 2.036 . S
Zn64 O92 2.053 . S
Zn64 O94 2.066 . S
O65 Zn64 2.055 . S
O65 C68 1.259 . S
C66 O94 1.256 . S
C66 O95 1.244 . S
Zn67 O69 2.046 . S
Zn67 O71 2.055 . S
Zn67 N73 2.036 . S
Zn67 O91 2.066 . S
Zn67 O95 2.053 . S
C68 O65 1.259 . S
C68 O69 1.254 . S
O69 Zn67 2.046 . S
O69 C68 1.254 . S
C70 O91 1.256 . S
C70 O92 1.244 . S
O71 Zn67 2.055 . S
O71 C93 1.259 . S
O72 Zn64 2.046 . S
O72 C93 1.254 . S
N73 Zn67 2.036 . S
N73 C74 1.298 . S
N73 N76 1.398 . S
C74 N73 1.298 . S
C74 N77 1.367 . S
C74 C87 1.481 . S
C75 N76 1.299 . S
C75 N77 1.379 . S
N76 N73 1.398 . S
N76 C75 1.299 . S
N77 C74 1.367 . S
N77 C75 1.379 . S
C78 N80 1.298 . S
C78 N82 1.367 . S
C78 C86 1.481 . S
C79 N81 1.299 . S
C79 N82 1.379 . S
N80 Zn64 2.036 . S
N80 C78 1.298 . S
N80 N81 1.398 . S
N81 C79 1.299 . S
N81 N80 1.398 . S
N82 C78 1.367 . S
N82 C79 1.379 . S
H83 C86 0.980 . S
H84 C86 0.981 . S
H85 C86 0.981 . S
C86 C78 1.481 . S
C86 H83 0.980 . S
C86 H84 0.981 . S
C86 H85 0.981 . S
C87 C74 1.481 . S
C87 H88 0.980 . S
C87 H89 0.981 . S
C87 H90 0.981 . S
H88 C87 0.980 . S
H89 C87 0.981 . S
H90 C87 0.981 . S
O91 Zn67 2.066 . S
O91 C70 1.256 . S
O92 Zn64 2.053 . S
O92 C70 1.244 . S
C93 O71 1.259 . S
C93 O72 1.254 . S
O94 Zn64 2.066 . S
O94 C66 1.256 . S
O95 C66 1.244 . S
O95 Zn67 2.053 . S
Zn96 O97 2.055 . S
Zn96 O104 2.046 . S
Zn96 N112 2.036 . S
Zn96 O124 2.053 . S
Zn96 O126 2.066 . S
O97 Zn96 2.055 . S
O97 C100 1.259 . S
C98 O126 1.256 . S
C98 O127 1.244 . S
Zn99 O101 2.046 . S
Zn99 O103 2.055 . S
Zn99 N105 2.036 . S
Zn99 O123 2.066 . S
Zn99 O127 2.053 . S
C100 O97 1.259 . S
C100 O101 1.254 . S
O101 Zn99 2.046 . S
O101 C100 1.254 . S
C102 O123 1.256 . S
C102 O124 1.244 . S
O103 Zn99 2.055 . S
O103 C125 1.259 . S
O104 Zn96 2.046 . S
O104 C125 1.254 . S
N105 Zn99 2.036 . S
N105 C106 1.298 . S
N105 N108 1.398 . S
C106 N105 1.298 . S
C106 N109 1.367 . S
C106 C119 1.481 . S
C107 N108 1.299 . S
C107 N109 1.379 . S
N108 N105 1.398 . S
N108 C107 1.299 . S
N109 C106 1.367 . S
N109 C107 1.379 . S
C110 N112 1.298 . S
C110 N114 1.367 . S
C110 C118 1.481 . S
C111 N113 1.299 . S
C111 N114 1.379 . S
N112 Zn96 2.036 . S
N112 C110 1.298 . S
N112 N113 1.398 . S
N113 C111 1.299 . S
N113 N112 1.398 . S
N114 C110 1.367 . S
N114 C111 1.379 . S
H115 C118 0.980 . S
H116 C118 0.981 . S
H117 C118 0.981 . S
C118 C110 1.481 . S
C118 H115 0.980 . S
C118 H116 0.981 . S
C118 H117 0.981 . S
C119 C106 1.481 . S
C119 H120 0.980 . S
C119 H121 0.981 . S
C119 H122 0.981 . S
H120 C119 0.980 . S
H121 C119 0.981 . S
H122 C119 0.981 . S
O123 Zn99 2.066 . S
O123 C102 1.256 . S
O124 Zn96 2.053 . S
O124 C102 1.244 . S
C125 O103 1.259 . S
C125 O104 1.254 . S
O126 Zn96 2.066 . S
O126 C98 1.256 . S
O127 C98 1.244 . S
O127 Zn99 2.053 . S
Zn128 O129 2.055 . S
Zn128 O136 2.046 . S
Zn128 N144 2.036 . S
Zn128 O156 2.053 . S
Zn128 O158 2.066 . S
O129 Zn128 2.055 . S
O129 C132 1.259 . S
C130 O158 1.256 . S
C130 O159 1.244 . S
Zn131 O133 2.046 . S
Zn131 O135 2.055 . S
Zn131 N137 2.036 . S
Zn131 O155 2.066 . S
Zn131 O159 2.053 . S
C132 O129 1.259 . S
C132 O133 1.254 . S
O133 Zn131 2.046 . S
O133 C132 1.254 . S
C134 O155 1.256 . S
C134 O156 1.244 . S
O135 Zn131 2.055 . S
O135 C157 1.259 . S
O136 Zn128 2.046 . S
O136 C157 1.254 . S
N137 Zn131 2.036 . S
N137 C138 1.298 . S
N137 N140 1.398 . S
C138 N137 1.298 . S
C138 N141 1.367 . S
C138 C151 1.481 . S
C139 N140 1.299 . S
C139 N141 1.379 . S
N140 N137 1.398 . S
N140 C139 1.299 . S
N141 C138 1.367 . S
N141 C139 1.379 . S
C142 N144 1.298 . S
C142 N146 1.367 . S
C142 C150 1.481 . S
C143 N145 1.299 . S
C143 N146 1.379 . S
N144 Zn128 2.036 . S
N144 C142 1.298 . S
N144 N145 1.398 . S
N145 C143 1.299 . S
N145 N144 1.398 . S
N146 C142 1.367 . S
N146 C143 1.379 . S
H147 C150 0.980 . S
H148 C150 0.981 . S
H149 C150 0.981 . S
C150 C142 1.481 . S
C150 H147 0.980 . S
C150 H148 0.981 . S
C150 H149 0.981 . S
C151 C138 1.481 . S
C151 H152 0.980 . S
C151 H153 0.981 . S
C151 H154 0.981 . S
H152 C151 0.980 . S
H153 C151 0.981 . S
H154 C151 0.981 . S
O155 Zn131 2.066 . S
O155 C134 1.256 . S
O156 Zn128 2.053 . S
O156 C134 1.244 . S
C157 O135 1.259 . S
C157 O136 1.254 . S
O158 Zn128 2.066 . S
O158 C130 1.256 . S
O159 C130 1.244 . S
O159 Zn131 2.053 . S
Zn160 O161 2.055 . S
Zn160 O168 2.046 . S
Zn160 N176 2.036 . S
Zn160 O188 2.053 . S
Zn160 O190 2.066 . S
O161 Zn160 2.055 . S
O161 C164 1.259 . S
C162 O190 1.256 . S
C162 O191 1.244 . S
Zn163 O165 2.046 . S
Zn163 O167 2.055 . S
Zn163 N169 2.036 . S
Zn163 O187 2.066 . S
Zn163 O191 2.053 . S
C164 O161 1.259 . S
C164 O165 1.254 . S
O165 Zn163 2.046 . S
O165 C164 1.254 . S
C166 O187 1.256 . S
C166 O188 1.244 . S
O167 Zn163 2.055 . S
O167 C189 1.259 . S
O168 Zn160 2.046 . S
O168 C189 1.254 . S
N169 Zn163 2.036 . S
N169 C170 1.298 . S
N169 N172 1.398 . S
C170 N169 1.298 . S
C170 N173 1.367 . S
C170 C183 1.481 . S
C171 N172 1.299 . S
C171 N173 1.379 . S
N172 N169 1.398 . S
N172 C171 1.299 . S
N173 C170 1.367 . S
N173 C171 1.379 . S
C174 N176 1.298 . S
C174 N178 1.367 . S
C174 C182 1.481 . S
C175 N177 1.299 . S
C175 N178 1.379 . S
N176 Zn160 2.036 . S
N176 C174 1.298 . S
N176 N177 1.398 . S
N177 C175 1.299 . S
N177 N176 1.398 . S
N178 C174 1.367 . S
N178 C175 1.379 . S
H179 C182 0.980 . S
H180 C182 0.981 . S
H181 C182 0.981 . S
C182 C174 1.481 . S
C182 H179 0.980 . S
C182 H180 0.981 . S
C182 H181 0.981 . S
C183 C170 1.481 . S
C183 H184 0.980 . S
C183 H185 0.981 . S
C183 H186 0.981 . S
H184 C183 0.980 . S
H185 C183 0.981 . S
H186 C183 0.981 . S
O187 Zn163 2.066 . S
O187 C166 1.256 . S
O188 Zn160 2.053 . S
O188 C166 1.244 . S
C189 O167 1.259 . S
C189 O168 1.254 . S
O190 Zn160 2.066 . S
O190 C162 1.256 . S
O191 C162 1.244 . S
O191 Zn163 2.053 . S
Zn192 O193 2.055 . S
Zn192 O200 2.046 . S
Zn192 N208 2.036 . S
Zn192 O220 2.053 . S
Zn192 O222 2.066 . S
O193 Zn192 2.055 . S
O193 C196 1.259 . S
C194 O222 1.256 . S
C194 O223 1.244 . S
Zn195 O197 2.046 . S
Zn195 O199 2.055 . S
Zn195 N201 2.036 . S
Zn195 O219 2.066 . S
Zn195 O223 2.053 . S
C196 O193 1.259 . S
C196 O197 1.254 . S
O197 Zn195 2.046 . S
O197 C196 1.254 . S
C198 O219 1.256 . S
C198 O220 1.244 . S
O199 Zn195 2.055 . S
O199 C221 1.259 . S
O200 Zn192 2.046 . S
O200 C221 1.254 . S
N201 Zn195 2.036 . S
N201 C202 1.298 . S
N201 N204 1.398 . S
C202 N201 1.298 . S
C202 N205 1.367 . S
C202 C215 1.481 . S
C203 N204 1.299 . S
C203 N205 1.379 . S
N204 N201 1.398 . S
N204 C203 1.299 . S
N205 C202 1.367 . S
N205 C203 1.379 . S
C206 N208 1.298 . S
C206 N210 1.367 . S
C206 C214 1.481 . S
C207 N209 1.299 . S
C207 N210 1.379 . S
N208 Zn192 2.036 . S
N208 C206 1.298 . S
N208 N209 1.398 . S
N209 C207 1.299 . S
N209 N208 1.398 . S
N210 C206 1.367 . S
N210 C207 1.379 . S
H211 C214 0.980 . S
H212 C214 0.981 . S
H213 C214 0.981 . S
C214 C206 1.481 . S
C214 H211 0.980 . S
C214 H212 0.981 . S
C214 H213 0.981 . S
C215 C202 1.481 . S
C215 H216 0.980 . S
C215 H217 0.981 . S
C215 H218 0.981 . S
H216 C215 0.980 . S
H217 C215 0.981 . S
H218 C215 0.981 . S
O219 Zn195 2.066 . S
O219 C198 1.256 . S
O220 Zn192 2.053 . S
O220 C198 1.244 . S
C221 O199 1.259 . S
C221 O200 1.254 . S
O222 Zn192 2.066 . S
O222 C194 1.256 . S
O223 C194 1.244 . S
O223 Zn195 2.053 . S
Zn224 O225 2.055 . S
Zn224 O232 2.046 . S
Zn224 N240 2.036 . S
Zn224 O252 2.053 . S
Zn224 O254 2.066 . S
O225 Zn224 2.055 . S
O225 C228 1.259 . S
C226 O254 1.256 . S
C226 O255 1.244 . S
Zn227 O229 2.046 . S
Zn227 O231 2.055 . S
Zn227 N233 2.036 . S
Zn227 O251 2.066 . S
Zn227 O255 2.053 . S
C228 O225 1.259 . S
C228 O229 1.254 . S
O229 Zn227 2.046 . S
O229 C228 1.254 . S
C230 O251 1.256 . S
C230 O252 1.244 . S
O231 Zn227 2.055 . S
O231 C253 1.259 . S
O232 Zn224 2.046 . S
O232 C253 1.254 . S
N233 Zn227 2.036 . S
N233 C234 1.298 . S
N233 N236 1.398 . S
C234 N233 1.298 . S
C234 N237 1.367 . S
C234 C247 1.481 . S
C235 N236 1.299 . S
C235 N237 1.379 . S
N236 N233 1.398 . S
N236 C235 1.299 . S
N237 C234 1.367 . S
N237 C235 1.379 . S
C238 N240 1.298 . S
C238 N242 1.367 . S
C238 C246 1.481 . S
C239 N241 1.299 . S
C239 N242 1.379 . S
N240 Zn224 2.036 . S
N240 C238 1.298 . S
N240 N241 1.398 . S
N241 C239 1.299 . S
N241 N240 1.398 . S
N242 C238 1.367 . S
N242 C239 1.379 . S
H243 C246 0.980 . S
H244 C246 0.981 . S
H245 C246 0.981 . S
C246 C238 1.481 . S
C246 H243 0.980 . S
C246 H244 0.981 . S
C246 H245 0.981 . S
C247 C234 1.481 . S
C247 H248 0.980 . S
C247 H249 0.981 . S
C247 H250 0.981 . S
H248 C247 0.980 . S
H249 C247 0.981 . S
H250 C247 0.981 . S
O251 Zn227 2.066 . S
O251 C230 1.256 . S
O252 Zn224 2.053 . S
O252 C230 1.244 . S
C253 O231 1.259 . S
C253 O232 1.254 . S
O254 Zn224 2.066 . S
O254 C226 1.256 . S
O255 C226 1.244 . S
O255 Zn227 2.053 . S
Zn256 O257 2.055 . S
Zn256 O264 2.046 . S
Zn256 N272 2.036 . S
Zn256 O284 2.053 . S
Zn256 O286 2.066 . S
O257 Zn256 2.055 . S
O257 C260 1.259 . S
C258 O286 1.256 . S
C258 O287 1.244 . S
Zn259 O261 2.046 . S
Zn259 O263 2.055 . S
Zn259 N265 2.036 . S
Zn259 O283 2.066 . S
Zn259 O287 2.053 . S
C260 O257 1.259 . S
C260 O261 1.254 . S
O261 Zn259 2.046 . S
O261 C260 1.254 . S
C262 O283 1.256 . S
C262 O284 1.244 . S
O263 Zn259 2.055 . S
O263 C285 1.259 . S
O264 Zn256 2.046 . S
O264 C285 1.254 . S
N265 Zn259 2.036 . S
N265 C266 1.298 . S
N265 N268 1.398 . S
C266 N265 1.298 . S
C266 N269 1.367 . S
C266 C279 1.481 . S
C267 N268 1.299 . S
C267 N269 1.379 . S
N268 N265 1.398 . S
N268 C267 1.299 . S
N269 C266 1.367 . S
N269 C267 1.379 . S
C270 N272 1.298 . S
C270 N274 1.367 . S
C270 C278 1.481 . S
C271 N273 1.299 . S
C271 N274 1.379 . S
N272 Zn256 2.036 . S
N272 C270 1.298 . S
N272 N273 1.398 . S
N273 C271 1.299 . S
N273 N272 1.398 . S
N274 C270 1.367 . S
N274 C271 1.379 . S
H275 C278 0.980 . S
H276 C278 0.981 . S
H277 C278 0.981 . S
C278 C270 1.481 . S
C278 H275 0.980 . S
C278 H276 0.981 . S
C278 H277 0.981 . S
C279 C266 1.481 . S
C279 H280 0.980 . S
C279 H281 0.981 . S
C279 H282 0.981 . S
H280 C279 0.980 . S
H281 C279 0.981 . S
H282 C279 0.981 . S
O283 Zn259 2.066 . S
O283 C262 1.256 . S
O284 Zn256 2.053 . S
O284 C262 1.244 . S
C285 O263 1.259 . S
C285 O264 1.254 . S
O286 Zn256 2.066 . S
O286 C258 1.256 . S
O287 C258 1.244 . S
O287 Zn259 2.053 . S
Zn288 O289 2.055 . S
Zn288 O296 2.046 . S
Zn288 N304 2.036 . S
Zn288 O316 2.053 . S
Zn288 O318 2.066 . S
O289 Zn288 2.055 . S
O289 C292 1.259 . S
C290 O318 1.256 . S
C290 O319 1.244 . S
Zn291 O293 2.046 1_565 S
Zn291 O295 2.055 . S
Zn291 N297 2.036 . S
Zn291 O315 2.064 1_565 S
Zn291 O319 2.053 1_565 S
C292 O289 1.259 . S
C292 O293 1.254 . S
O293 Zn291 2.046 1_545 S
O293 C292 1.254 . S
C294 O315 1.277 . S
C294 O316 1.244 . S
O295 Zn291 2.055 . S
O295 C317 1.259 1_565 S
O296 Zn288 2.046 . S
O296 C317 1.254 . S
N297 Zn291 2.036 . S
N297 C298 1.298 . S
N297 N300 1.398 . S
C298 N297 1.298 . S
C298 N301 1.367 . S
C298 C311 1.481 . S
C299 N300 1.299 . S
C299 N301 1.379 . S
N300 N297 1.398 . S
N300 C299 1.299 . S
N301 C298 1.367 . S
N301 C299 1.379 . S
C302 N304 1.298 . S
C302 N306 1.367 . S
C302 C310 1.481 . S
C303 N305 1.299 . S
C303 N306 1.379 . S
N304 Zn288 2.036 . S
N304 C302 1.298 . S
N304 N305 1.398 . S
N305 C303 1.299 . S
N305 N304 1.398 . S
N306 C302 1.367 . S
N306 C303 1.379 . S
H307 C310 0.980 . S
H308 C310 0.981 . S
H309 C310 0.981 . S
C310 C302 1.481 . S
C310 H307 0.980 . S
C310 H308 0.981 . S
C310 H309 0.981 . S
C311 C298 1.481 . S
C311 H312 0.980 . S
C311 H313 0.981 . S
C311 H314 0.981 . S
H312 C311 0.980 . S
H313 C311 0.981 . S
H314 C311 0.981 . S
O315 Zn291 2.064 1_545 S
O315 C294 1.277 . S
O316 Zn288 2.053 . S
O316 C294 1.244 . S
C317 O295 1.259 1_545 S
C317 O296 1.254 . S
O318 Zn288 2.066 . S
O318 C290 1.256 . S
O319 C290 1.244 . S
O319 Zn291 2.053 1_545 S
Zn320 O321 2.055 . S
Zn320 O328 2.046 . S
Zn320 N336 2.036 . S
Zn320 O348 2.053 . S
Zn320 O350 2.066 . S
O321 Zn320 2.055 . S
O321 C324 1.259 . S
C322 O350 1.256 . S
C322 O351 1.244 . S
Zn323 O325 2.046 . S
Zn323 O327 2.055 . S
Zn323 N329 2.036 . S
Zn323 O347 2.066 . S
Zn323 O351 2.053 . S
C324 O321 1.259 . S
C324 O325 1.254 . S
O325 Zn323 2.046 . S
O325 C324 1.254 . S
C326 O347 1.256 . S
C326 O348 1.244 . S
O327 Zn323 2.055 . S
O327 C349 1.259 . S
O328 Zn320 2.046 . S
O328 C349 1.254 . S
N329 Zn323 2.036 . S
N329 C330 1.298 . S
N329 N332 1.398 . S
C330 N329 1.298 . S
C330 N333 1.367 . S
C330 C343 1.481 . S
C331 N332 1.299 . S
C331 N333 1.379 . S
N332 N329 1.398 . S
N332 C331 1.299 . S
N333 C330 1.367 . S
N333 C331 1.379 . S
C334 N336 1.298 . S
C334 N338 1.367 . S
C334 C342 1.481 . S
C335 N337 1.299 . S
C335 N338 1.379 . S
N336 Zn320 2.036 . S
N336 C334 1.298 . S
N336 N337 1.398 . S
N337 C335 1.299 . S
N337 N336 1.398 . S
N338 C334 1.367 . S
N338 C335 1.379 . S
H339 C342 0.980 . S
H340 C342 0.981 . S
H341 C342 0.981 . S
C342 C334 1.481 . S
C342 H339 0.980 . S
C342 H340 0.981 . S
C342 H341 0.981 . S
C343 C330 1.481 . S
C343 H344 0.980 . S
C343 H345 0.981 . S
C343 H346 0.981 . S
H344 C343 0.980 . S
H345 C343 0.981 . S
H346 C343 0.981 . S
O347 Zn323 2.066 . S
O347 C326 1.256 . S
O348 Zn320 2.053 . S
O348 C326 1.244 . S
C349 O327 1.259 . S
C349 O328 1.254 . S
O350 Zn320 2.066 . S
O350 C322 1.256 . S
O351 C322 1.244 . S
O351 Zn323 2.053 . S
Zn352 O353 2.055 . S
Zn352 O360 2.046 1_545 S
Zn352 N368 2.036 . S
Zn352 O380 2.053 1_545 S
Zn352 O382 2.064 1_545 S
O353 Zn352 2.055 . S
O353 C356 1.259 1_545 S
C354 O382 1.277 . S
C354 O383 1.244 . S
Zn355 O357 2.046 . S
Zn355 O359 2.055 . S
Zn355 N361 2.036 . S
Zn355 O379 2.066 . S
Zn355 O383 2.053 . S
C356 O353 1.259 1_565 S
C356 O357 1.254 . S
O357 Zn355 2.046 . S
O357 C356 1.254 . S
C358 O379 1.256 . S
C358 O380 1.244 . S
O359 Zn355 2.055 . S
O359 C381 1.259 . S
O360 Zn352 2.046 1_565 S
O360 C381 1.254 . S
N361 Zn355 2.036 . S
N361 C362 1.298 . S
N361 N364 1.398 . S
C362 N361 1.298 . S
C362 N365 1.367 . S
C362 C375 1.481 . S
C363 N364 1.299 . S
C363 N365 1.379 . S
N364 N361 1.398 . S
N364 C363 1.299 . S
N365 C362 1.367 . S
N365 C363 1.379 . S
C366 N368 1.298 . S
C366 N370 1.367 . S
C366 C374 1.481 . S
C367 N369 1.299 . S
C367 N370 1.379 . S
N368 Zn352 2.036 . S
N368 C366 1.298 . S
N368 N369 1.398 . S
N369 C367 1.299 . S
N369 N368 1.398 . S
N370 C366 1.367 . S
N370 C367 1.379 . S
H371 C374 0.980 . S
H372 C374 0.981 . S
H373 C374 0.981 . S
C374 C366 1.481 . S
C374 H371 0.980 . S
C374 H372 0.981 . S
C374 H373 0.981 . S
C375 C362 1.481 . S
C375 H376 0.980 . S
C375 H377 0.981 . S
C375 H378 0.981 . S
H376 C375 0.980 . S
H377 C375 0.981 . S
H378 C375 0.981 . S
O379 Zn355 2.066 . S
O379 C358 1.256 . S
O380 Zn352 2.053 1_565 S
O380 C358 1.244 . S
C381 O359 1.259 . S
C381 O360 1.254 . S
O382 Zn352 2.064 1_565 S
O382 C354 1.277 . S
O383 C354 1.244 . S
O383 Zn355 2.053 . S
Zn384 O385 2.055 . S
Zn384 O392 2.046 . S
Zn384 N400 2.036 . S
Zn384 O412 2.053 . S
Zn384 O414 2.066 . S
O385 Zn384 2.055 . S
O385 C388 1.259 . S
C386 O414 1.256 . S
C386 O415 1.244 . S
Zn387 O389 2.046 . S
Zn387 O391 2.055 . S
Zn387 N393 2.036 . S
Zn387 O411 2.066 . S
Zn387 O415 2.053 . S
C388 O385 1.259 . S
C388 O389 1.254 . S
O389 Zn387 2.046 . S
O389 C388 1.254 . S
C390 O411 1.256 . S
C390 O412 1.244 . S
O391 Zn387 2.055 . S
O391 C413 1.259 . S
O392 Zn384 2.046 . S
O392 C413 1.254 . S
N393 Zn387 2.036 . S
N393 C394 1.298 . S
N393 N396 1.398 . S
C394 N393 1.298 . S
C394 N397 1.367 . S
C394 C407 1.481 . S
C395 N396 1.299 . S
C395 N397 1.379 . S
N396 N393 1.398 . S
N396 C395 1.299 . S
N397 C394 1.367 . S
N397 C395 1.379 . S
C398 N400 1.298 . S
C398 N402 1.367 . S
C398 C406 1.481 . S
C399 N401 1.299 . S
C399 N402 1.379 . S
N400 Zn384 2.036 . S
N400 C398 1.298 . S
N400 N401 1.398 . S
N401 C399 1.299 . S
N401 N400 1.398 . S
N402 C398 1.367 . S
N402 C399 1.379 . S
H403 C406 0.980 . S
H404 C406 0.981 . S
H405 C406 0.981 . S
C406 C398 1.481 . S
C406 H403 0.980 . S
C406 H404 0.981 . S
C406 H405 0.981 . S
C407 C394 1.481 . S
C407 H408 0.980 . S
C407 H409 0.981 . S
C407 H410 0.981 . S
H408 C407 0.980 . S
H409 C407 0.981 . S
H410 C407 0.981 . S
O411 Zn387 2.066 . S
O411 C390 1.256 . S
O412 Zn384 2.053 . S
O412 C390 1.244 . S
C413 O391 1.259 . S
C413 O392 1.254 . S
O414 Zn384 2.066 . S
O414 C386 1.256 . S
O415 C386 1.244 . S
O415 Zn387 2.053 . S
Zn416 O417 2.055 . S
Zn416 O424 2.046 . S
Zn416 N432 2.036 . S
Zn416 O444 2.053 . S
Zn416 O446 2.066 . S
O417 Zn416 2.055 . S
O417 C420 1.259 . S
C418 O446 1.256 . S
C418 O447 1.244 . S
Zn419 O421 2.046 1_545 S
Zn419 O423 2.055 . S
Zn419 N425 2.036 . S
Zn419 O443 2.064 1_545 S
Zn419 O447 2.053 1_545 S
C420 O417 1.259 . S
C420 O421 1.254 . S
O421 Zn419 2.046 1_565 S
O421 C420 1.254 . S
C422 O443 1.277 . S
C422 O444 1.244 . S
O423 Zn419 2.055 . S
O423 C445 1.259 1_545 S
O424 Zn416 2.046 . S
O424 C445 1.254 . S
N425 Zn419 2.036 . S
N425 C426 1.298 . S
N425 N428 1.398 . S
C426 N425 1.298 . S
C426 N429 1.367 . S
C426 C439 1.481 . S
C427 N428 1.299 . S
C427 N429 1.379 . S
N428 N425 1.398 . S
N428 C427 1.299 . S
N429 C426 1.367 . S
N429 C427 1.379 . S
C430 N432 1.298 . S
C430 N434 1.367 . S
C430 C438 1.481 . S
C431 N433 1.299 . S
C431 N434 1.379 . S
N432 Zn416 2.036 . S
N432 C430 1.298 . S
N432 N433 1.398 . S
N433 C431 1.299 . S
N433 N432 1.398 . S
N434 C430 1.367 . S
N434 C431 1.379 . S
H435 C438 0.980 . S
H436 C438 0.981 . S
H437 C438 0.981 . S
C438 C430 1.481 . S
C438 H435 0.980 . S
C438 H436 0.981 . S
C438 H437 0.981 . S
C439 C426 1.481 . S
C439 H440 0.980 . S
C439 H441 0.981 . S
C439 H442 0.981 . S
H440 C439 0.980 . S
H441 C439 0.981 . S
H442 C439 0.981 . S
O443 Zn419 2.064 1_565 S
O443 C422 1.277 . S
O444 Zn416 2.053 . S
O444 C422 1.244 . S
C445 O423 1.259 1_565 S
C445 O424 1.254 . S
O446 Zn416 2.066 . S
O446 C418 1.256 . S
O447 C418 1.244 . S
O447 Zn419 2.053 1_565 S
Zn448 O449 2.055 . S
Zn448 O456 2.046 . S
Zn448 N464 2.036 . S
Zn448 O476 2.053 . S
Zn448 O478 2.066 . S
O449 Zn448 2.055 . S
O449 C452 1.259 . S
C450 O478 1.256 . S
C450 O479 1.244 . S
Zn451 O453 2.046 . S
Zn451 O455 2.055 . S
Zn451 N457 2.036 . S
Zn451 O475 2.066 . S
Zn451 O479 2.053 . S
C452 O449 1.259 . S
C452 O453 1.254 . S
O453 Zn451 2.046 . S
O453 C452 1.254 . S
C454 O475 1.256 . S
C454 O476 1.244 . S
O455 Zn451 2.055 . S
O455 C477 1.259 . S
O456 Zn448 2.046 . S
O456 C477 1.254 . S
N457 Zn451 2.036 . S
N457 C458 1.298 . S
N457 N460 1.398 . S
C458 N457 1.298 . S
C458 N461 1.367 . S
C458 C471 1.481 . S
C459 N460 1.299 . S
C459 N461 1.379 . S
N460 N457 1.398 . S
N460 C459 1.299 . S
N461 C458 1.367 . S
N461 C459 1.379 . S
C462 N464 1.298 . S
C462 N466 1.367 . S
C462 C470 1.481 . S
C463 N465 1.299 . S
C463 N466 1.379 . S
N464 Zn448 2.036 . S
N464 C462 1.298 . S
N464 N465 1.398 . S
N465 C463 1.299 . S
N465 N464 1.398 . S
N466 C462 1.367 . S
N466 C463 1.379 . S
H467 C470 0.980 . S
H468 C470 0.981 . S
H469 C470 0.981 . S
C470 C462 1.481 . S
C470 H467 0.980 . S
C470 H468 0.981 . S
C470 H469 0.981 . S
C471 C458 1.481 . S
C471 H472 0.980 . S
C471 H473 0.981 . S
C471 H474 0.981 . S
H472 C471 0.980 . S
H473 C471 0.981 . S
H474 C471 0.981 . S
O475 Zn451 2.066 . S
O475 C454 1.256 . S
O476 Zn448 2.053 . S
O476 C454 1.244 . S
C477 O455 1.259 . S
C477 O456 1.254 . S
O478 Zn448 2.066 . S
O478 C450 1.256 . S
O479 C450 1.244 . S
O479 Zn451 2.053 . S
Zn480 O481 2.055 . S
Zn480 O488 2.046 1_565 S
Zn480 N496 2.036 . S
Zn480 O508 2.053 1_565 S
Zn480 O510 2.064 1_565 S
O481 Zn480 2.055 . S
O481 C484 1.259 1_565 S
C482 O510 1.277 . S
C482 O511 1.244 . S
Zn483 O485 2.046 . S
Zn483 O487 2.055 . S
Zn483 N489 2.036 . S
Zn483 O507 2.066 . S
Zn483 O511 2.053 . S
C484 O481 1.259 1_545 S
C484 O485 1.254 . S
O485 Zn483 2.046 . S
O485 C484 1.254 . S
C486 O507 1.256 . S
C486 O508 1.244 . S
O487 Zn483 2.055 . S
O487 C509 1.259 . S
O488 Zn480 2.046 1_545 S
O488 C509 1.254 . S
N489 Zn483 2.036 . S
N489 C490 1.298 . S
N489 N492 1.398 . S
C490 N489 1.298 . S
C490 N493 1.367 . S
C490 C503 1.481 . S
C491 N492 1.299 . S
C491 N493 1.379 . S
N492 N489 1.398 . S
N492 C491 1.299 . S
N493 C490 1.367 . S
N493 C491 1.379 . S
C494 N496 1.298 . S
C494 N498 1.367 . S
C494 C502 1.481 . S
C495 N497 1.299 . S
C495 N498 1.379 . S
N496 Zn480 2.036 . S
N496 C494 1.298 . S
N496 N497 1.398 . S
N497 C495 1.299 . S
N497 N496 1.398 . S
N498 C494 1.367 . S
N498 C495 1.379 . S
H499 C502 0.980 . S
H500 C502 0.981 . S
H501 C502 0.981 . S
C502 C494 1.481 . S
C502 H499 0.980 . S
C502 H500 0.981 . S
C502 H501 0.981 . S
C503 C490 1.481 . S
C503 H504 0.980 . S
C503 H505 0.981 . S
C503 H506 0.981 . S
H504 C503 0.980 . S
H505 C503 0.981 . S
H506 C503 0.981 . S
O507 Zn483 2.066 . S
O507 C486 1.256 . S
O508 Zn480 2.053 1_545 S
O508 C486 1.244 . S
C509 O487 1.259 . S
C509 O488 1.254 . S
O510 Zn480 2.064 1_545 S
O510 C482 1.277 . S
O511 C482 1.244 . S
O511 Zn483 2.053 . S
H512 C530 0.951 . S
H513 C532 0.951 . S
H514 C534 0.950 . S
H515 C535 0.950 . S
H516 C537 0.950 . S
H517 C540 0.950 . S
H518 C541 0.950 . S
H519 C543 0.950 . S
H520 C544 0.950 . S
H521 C545 0.951 . S
H522 C547 0.951 . S
H523 C549 0.950 . S
H524 C550 0.950 . S
H525 C552 0.950 . S
H526 C555 0.950 . S
H527 C556 0.950 . S
H528 C558 0.950 . S
H529 C559 0.950 . S
C530 H512 0.951 . S
C530 C531 1.366 . S
C530 C532 1.388 . S
C531 C530 1.366 . S
C531 C535 1.385 . S
C532 H513 0.951 . S
C532 C530 1.388 . S
C532 C533 1.366 . S
C533 C532 1.366 . S
C533 C534 1.414 . S
C533 C536 1.499 . S
C534 H514 0.950 . S
C534 C533 1.414 . S
C534 C535 1.374 . S
C535 H515 0.950 . S
C535 C531 1.385 . S
C535 C534 1.374 . S
C536 C533 1.499 . S
C536 C537 1.373 . S
C536 C538 1.389 . S
C537 H516 0.950 . S
C537 C536 1.373 . S
C537 C553 1.377 . S
C538 C536 1.389 . S
C538 C539 1.524 . S
C538 C552 1.377 . S
C539 C538 1.524 . S
C539 C540 1.397 . S
C539 C544 1.363 . S
C540 H517 0.950 . S
C540 C539 1.397 . S
C540 C541 1.334 . S
C541 H518 0.950 . S
C541 C540 1.334 . S
C541 C542 1.287 . S
C542 C541 1.287 . S
C542 C543 1.524 . S
C542 H561 0.913 . S
C543 H519 0.950 . S
C543 C542 1.524 . S
C543 C544 1.415 . S
C544 H520 0.950 . S
C544 C539 1.363 . S
C544 C543 1.415 . S
C545 H521 0.951 . S
C545 C546 1.366 . S
C545 C547 1.388 . S
C546 C545 1.366 . S
C546 C550 1.385 . S
C547 H522 0.951 . S
C547 C545 1.388 . S
C547 C548 1.366 . S
C548 C547 1.366 . S
C548 C549 1.414 . S
C548 C551 1.499 . S
C549 H523 0.950 . S
C549 C548 1.414 . S
C549 C550 1.374 . S
C550 H524 0.950 . S
C550 C546 1.385 . S
C550 C549 1.374 . S
C551 C548 1.499 . S
C551 C552 1.373 . S
C551 C553 1.389 . S
C552 H525 0.950 . S
C552 C538 1.377 . S
C552 C551 1.373 . S
C553 C537 1.377 . S
C553 C551 1.389 . S
C553 C554 1.524 . S
C554 C553 1.524 . S
C554 C555 1.397 . S
C554 C559 1.363 . S
C555 H526 0.950 . S
C555 C554 1.397 . S
C555 C556 1.334 . S
C556 H527 0.950 . S
C556 C555 1.334 . S
C556 C557 1.287 . S
C557 C556 1.287 . S
C557 C558 1.524 . S
C557 H560 0.999 . S
C558 H528 0.950 . S
C558 C557 1.524 . S
C558 C559 1.415 . S
C559 H529 0.950 . S
C559 C554 1.363 . S
C559 C558 1.415 . S
H560 C557 0.999 . S
H561 C542 0.913 . S
H562 C580 0.951 . S
H563 C582 0.951 . S
H564 C584 0.950 . S
H565 C585 0.950 . S
H566 C587 0.950 . S
H567 C590 0.950 . S
H568 C591 0.950 . S
H569 C593 0.950 . S
H570 C594 0.950 . S
H571 C595 0.951 . S
H572 C597 0.951 . S
H573 C599 0.950 . S
H574 C600 0.950 . S
H575 C602 0.950 . S
H576 C605 0.950 . S
H577 C606 0.950 . S
H578 C608 0.950 . S
H579 C609 0.950 . S
C580 H562 0.951 . S
C580 C581 1.366 . S
C580 C582 1.388 . S
C581 C580 1.366 . S
C581 C585 1.385 . S
C582 H563 0.951 . S
C582 C580 1.388 . S
C582 C583 1.366 . S
C583 C582 1.366 . S
C583 C584 1.414 . S
C583 C586 1.499 . S
C584 H564 0.950 . S
C584 C583 1.414 . S
C584 C585 1.374 . S
C585 H565 0.950 . S
C585 C581 1.385 . S
C585 C584 1.374 . S
C586 C583 1.499 . S
C586 C587 1.373 . S
C586 C588 1.389 . S
C587 H566 0.950 . S
C587 C586 1.373 . S
C587 C603 1.377 . S
C588 C586 1.389 . S
C588 C589 1.524 . S
C588 C602 1.377 . S
C589 C588 1.524 . S
C589 C590 1.397 . S
C589 C594 1.363 . S
C590 H567 0.950 . S
C590 C589 1.397 . S
C590 C591 1.334 . S
C591 H568 0.950 . S
C591 C590 1.334 . S
C591 C592 1.287 . S
C592 C591 1.287 . S
C592 C593 1.524 . S
C592 H611 0.913 . S
C593 H569 0.950 . S
C593 C592 1.524 . S
C593 C594 1.415 . S
C594 H570 0.950 . S
C594 C589 1.363 . S
C594 C593 1.415 . S
C595 H571 0.951 . S
C595 C596 1.366 . S
C595 C597 1.388 . S
C596 C595 1.366 . S
C596 C600 1.385 . S
C597 H572 0.951 . S
C597 C595 1.388 . S
C597 C598 1.366 . S
C598 C597 1.366 . S
C598 C599 1.414 . S
C598 C601 1.499 . S
C599 H573 0.950 . S
C599 C598 1.414 . S
C599 C600 1.374 . S
C600 H574 0.950 . S
C600 C596 1.385 . S
C600 C599 1.374 . S
C601 C598 1.499 . S
C601 C602 1.373 . S
C601 C603 1.389 . S
C602 H575 0.950 . S
C602 C588 1.377 . S
C602 C601 1.373 . S
C603 C587 1.377 . S
C603 C601 1.389 . S
C603 C604 1.524 . S
C604 C603 1.524 . S
C604 C605 1.397 . S
C604 C609 1.363 . S
C605 H576 0.950 . S
C605 C604 1.397 . S
C605 C606 1.334 . S
C606 H577 0.950 . S
C606 C605 1.334 . S
C606 C607 1.287 . S
C607 C606 1.287 . S
C607 C608 1.524 . S
C607 H610 0.999 . S
C608 H578 0.950 . S
C608 C607 1.524 . S
C608 C609 1.415 . S
C609 H579 0.950 . S
C609 C604 1.363 . S
C609 C608 1.415 . S
H610 C607 0.999 . S
H611 C592 0.913 . S
H612 C630 0.951 . S
H613 C632 0.951 . S
H614 C634 0.950 . S
H615 C635 0.950 . S
H616 C637 0.950 . S
H617 C640 0.950 . S
H618 C641 0.950 . S
H619 C643 0.950 . S
H620 C644 0.950 . S
H621 C645 0.951 . S
H622 C647 0.951 . S
H623 C649 0.950 . S
H624 C650 0.950 . S
H625 C652 0.950 . S
H626 C655 0.950 . S
H627 C656 0.950 . S
H628 C658 0.950 . S
H629 C659 0.950 . S
C630 H612 0.951 . S
C630 C631 1.366 . S
C630 C632 1.388 . S
C631 C630 1.366 . S
C631 C635 1.385 . S
C632 H613 0.951 . S
C632 C630 1.388 . S
C632 C633 1.366 . S
C633 C632 1.366 . S
C633 C634 1.414 . S
C633 C636 1.499 . S
C634 H614 0.950 . S
C634 C633 1.414 . S
C634 C635 1.374 . S
C635 H615 0.950 . S
C635 C631 1.385 . S
C635 C634 1.374 . S
C636 C633 1.499 . S
C636 C637 1.373 . S
C636 C638 1.389 . S
C637 H616 0.950 . S
C637 C636 1.373 . S
C637 C653 1.377 . S
C638 C636 1.389 . S
C638 C639 1.524 . S
C638 C652 1.377 . S
C639 C638 1.524 . S
C639 C640 1.397 . S
C639 C644 1.363 . S
C640 H617 0.950 . S
C640 C639 1.397 . S
C640 C641 1.334 . S
C641 H618 0.950 . S
C641 C640 1.334 . S
C641 C642 1.287 . S
C642 C641 1.287 . S
C642 C643 1.524 . S
C642 H661 0.913 . S
C643 H619 0.950 . S
C643 C642 1.524 . S
C643 C644 1.415 . S
C644 H620 0.950 . S
C644 C639 1.363 . S
C644 C643 1.415 . S
C645 H621 0.951 . S
C645 C646 1.366 . S
C645 C647 1.388 . S
C646 C645 1.366 . S
C646 C650 1.385 . S
C647 H622 0.951 . S
C647 C645 1.388 . S
C647 C648 1.366 . S
C648 C647 1.366 . S
C648 C649 1.414 . S
C648 C651 1.499 . S
C649 H623 0.950 . S
C649 C648 1.414 . S
C649 C650 1.374 . S
C650 H624 0.950 . S
C650 C646 1.385 . S
C650 C649 1.374 . S
C651 C648 1.499 . S
C651 C652 1.373 . S
C651 C653 1.389 . S
C652 H625 0.950 . S
C652 C638 1.377 . S
C652 C651 1.373 . S
C653 C637 1.377 . S
C653 C651 1.389 . S
C653 C654 1.524 . S
C654 C653 1.524 . S
C654 C655 1.397 . S
C654 C659 1.363 . S
C655 H626 0.950 . S
C655 C654 1.397 . S
C655 C656 1.334 . S
C656 H627 0.950 . S
C656 C655 1.334 . S
C656 C657 1.287 . S
C657 C656 1.287 . S
C657 C658 1.524 . S
C657 H660 0.999 . S
C658 H628 0.950 . S
C658 C657 1.524 . S
C658 C659 1.415 . S
C659 H629 0.950 . S
C659 C654 1.363 . S
C659 C658 1.415 . S
H660 C657 0.999 . S
H661 C642 0.913 . S
H662 C680 0.951 . S
H663 C682 0.951 . S
H664 C684 0.950 . S
H665 C685 0.950 . S
H666 C687 0.950 . S
H667 C690 0.950 . S
H668 C691 0.950 . S
H669 C693 0.950 . S
H670 C694 0.950 . S
H671 C695 0.951 . S
H672 C697 0.951 . S
H673 C699 0.950 . S
H674 C700 0.950 . S
H675 C702 0.950 . S
H676 C705 0.950 . S
H677 C706 0.950 . S
H678 C708 0.950 . S
H679 C709 0.950 . S
C680 H662 0.951 . S
C680 C681 1.366 . S
C680 C682 1.388 . S
C681 C680 1.366 . S
C681 C685 1.385 . S
C682 H663 0.951 . S
C682 C680 1.388 . S
C682 C683 1.366 . S
C683 C682 1.366 . S
C683 C684 1.414 . S
C683 C686 1.499 . S
C684 H664 0.950 . S
C684 C683 1.414 . S
C684 C685 1.374 . S
C685 H665 0.950 . S
C685 C681 1.385 . S
C685 C684 1.374 . S
C686 C683 1.499 . S
C686 C687 1.373 1_655 S
C686 C688 1.389 1_556 S
C687 H666 0.950 . S
C687 C686 1.373 1_455 S
C687 C703 1.377 . S
C688 C686 1.389 1_554 S
C688 C689 1.524 . S
C688 C702 1.377 . S
C689 C688 1.524 . S
C689 C690 1.397 1_554 S
C689 C694 1.363 . S
C690 H667 0.950 . S
C690 C689 1.397 1_556 S
C690 C691 1.334 . S
C691 H668 0.950 . S
C691 C690 1.334 . S
C691 C692 1.287 1_556 S
C692 C691 1.287 1_554 S
C692 C693 1.524 . S
C692 H711 0.913 . S
C693 H669 0.950 . S
C693 C692 1.524 . S
C693 C694 1.415 . S
C694 H670 0.950 . S
C694 C689 1.363 . S
C694 C693 1.415 . S
C695 H671 0.951 . S
C695 C696 1.366 . S
C695 C697 1.388 . S
C696 C695 1.366 . S
C696 C700 1.385 . S
C697 H672 0.951 . S
C697 C695 1.388 . S
C697 C698 1.366 . S
C698 C697 1.366 . S
C698 C699 1.414 . S
C698 C701 1.499 . S
C699 H673 0.950 . S
C699 C698 1.414 . S
C699 C700 1.374 . S
C700 H674 0.950 . S
C700 C696 1.385 . S
C700 C699 1.374 . S
C701 C698 1.499 . S
C701 C702 1.373 1_455 S
C701 C703 1.389 1_554 S
C702 H675 0.950 . S
C702 C688 1.377 . S
C702 C701 1.373 1_655 S
C703 C687 1.377 . S
C703 C701 1.389 1_556 S
C703 C704 1.524 . S
C704 C703 1.524 . S
C704 C705 1.397 1_556 S
C704 C709 1.363 . S
C705 H676 0.950 . S
C705 C704 1.397 1_554 S
C705 C706 1.334 . S
C706 H677 0.950 . S
C706 C705 1.334 . S
C706 C707 1.287 1_554 S
C707 C706 1.287 1_556 S
C707 C708 1.524 . S
C707 H710 0.999 . S
C708 H678 0.950 . S
C708 C707 1.524 . S
C708 C709 1.415 . S
C709 H679 0.950 . S
C709 C704 1.363 . S
C709 C708 1.415 . S
H710 C707 0.999 . S
H711 C692 0.913 . S
H712 C730 0.951 . S
H713 C732 0.951 . S
H714 C734 0.950 . S
H715 C735 0.950 . S
H716 C737 0.950 . S
H717 C740 0.950 . S
H718 C741 0.950 . S
H719 C743 0.950 . S
H720 C744 0.950 . S
H721 C745 0.951 . S
H722 C747 0.951 . S
H723 C749 0.950 . S
H724 C750 0.950 . S
H725 C752 0.950 . S
H726 C755 0.950 . S
H727 C756 0.950 . S
H728 C758 0.950 . S
H729 C759 0.950 . S
C730 H712 0.951 . S
C730 C731 1.366 . S
C730 C732 1.388 . S
C731 C730 1.366 . S
C731 C735 1.385 . S
C732 H713 0.951 . S
C732 C730 1.388 . S
C732 C733 1.366 . S
C733 C732 1.366 . S
C733 C734 1.414 . S
C733 C736 1.499 . S
C734 H714 0.950 . S
C734 C733 1.414 . S
C734 C735 1.374 . S
C735 H715 0.950 . S
C735 C731 1.385 . S
C735 C734 1.374 . S
C736 C733 1.499 . S
C736 C737 1.373 . S
C736 C738 1.389 . S
C737 H716 0.950 . S
C737 C736 1.373 . S
C737 C753 1.377 . S
C738 C736 1.389 . S
C738 C739 1.524 . S
C738 C752 1.377 . S
C739 C738 1.524 . S
C739 C740 1.397 . S
C739 C744 1.363 . S
C740 H717 0.950 . S
C740 C739 1.397 . S
C740 C741 1.334 . S
C741 H718 0.950 . S
C741 C740 1.334 . S
C741 C742 1.287 . S
C742 C741 1.287 . S
C742 C743 1.524 . S
C742 H761 0.913 . S
C743 H719 0.950 . S
C743 C742 1.524 . S
C743 C744 1.415 . S
C744 H720 0.950 . S
C744 C739 1.363 . S
C744 C743 1.415 . S
C745 H721 0.951 . S
C745 C746 1.366 . S
C745 C747 1.388 . S
C746 C745 1.366 . S
C746 C750 1.385 . S
C747 H722 0.951 . S
C747 C745 1.388 . S
C747 C748 1.366 . S
C748 C747 1.366 . S
C748 C749 1.414 . S
C748 C751 1.499 . S
C749 H723 0.950 . S
C749 C748 1.414 . S
C749 C750 1.374 . S
C750 H724 0.950 . S
C750 C746 1.385 . S
C750 C749 1.374 . S
C751 C748 1.499 . S
C751 C752 1.373 . S
C751 C753 1.389 . S
C752 H725 0.950 . S
C752 C738 1.377 . S
C752 C751 1.373 . S
C753 C737 1.377 . S
C753 C751 1.389 . S
C753 C754 1.524 . S
C754 C753 1.524 . S
C754 C755 1.397 . S
C754 C759 1.363 . S
C755 H726 0.950 . S
C755 C754 1.397 . S
C755 C756 1.334 . S
C756 H727 0.950 . S
C756 C755 1.334 . S
C756 C757 1.287 . S
C757 C756 1.287 . S
C757 C758 1.524 . S
C757 H760 0.999 . S
C758 H728 0.950 . S
C758 C757 1.524 . S
C758 C759 1.415 . S
C759 H729 0.950 . S
C759 C754 1.363 . S
C759 C758 1.415 . S
H760 C757 0.999 . S
H761 C742 0.913 . S
H762 C780 0.951 . S
H763 C782 0.951 . S
H764 C784 0.950 . S
H765 C785 0.950 . S
H766 C787 0.950 . S
H767 C790 0.950 . S
H768 C791 0.950 . S
H769 C793 0.950 . S
H770 C794 0.950 . S
H771 C795 0.951 . S
H772 C797 0.951 . S
H773 C799 0.950 . S
H774 C800 0.950 . S
H775 C802 0.950 . S
H776 C805 0.950 . S
H777 C806 0.950 . S
H778 C808 0.950 . S
H779 C809 0.950 . S
C780 H762 0.951 . S
C780 C781 1.366 . S
C780 C782 1.388 . S
C781 C780 1.366 . S
C781 C785 1.385 . S
C782 H763 0.951 . S
C782 C780 1.388 . S
C782 C783 1.366 . S
C783 C782 1.366 . S
C783 C784 1.414 . S
C783 C786 1.499 . S
C784 H764 0.950 . S
C784 C783 1.414 . S
C784 C785 1.374 . S
C785 H765 0.950 . S
C785 C781 1.385 . S
C785 C784 1.374 . S
C786 C783 1.499 . S
C786 C787 1.373 . S
C786 C788 1.389 . S
C787 H766 0.950 . S
C787 C786 1.373 . S
C787 C803 1.377 . S
C788 C786 1.389 . S
C788 C789 1.524 . S
C788 C802 1.377 . S
C789 C788 1.524 . S
C789 C790 1.397 . S
C789 C794 1.363 . S
C790 H767 0.950 . S
C790 C789 1.397 . S
C790 C791 1.334 . S
C791 H768 0.950 . S
C791 C790 1.334 . S
C791 C792 1.287 . S
C792 C791 1.287 . S
C792 C793 1.524 . S
C792 H811 0.913 . S
C793 H769 0.950 . S
C793 C792 1.524 . S
C793 C794 1.415 . S
C794 H770 0.950 . S
C794 C789 1.363 . S
C794 C793 1.415 . S
C795 H771 0.951 . S
C795 C796 1.366 . S
C795 C797 1.388 . S
C796 C795 1.366 . S
C796 C800 1.385 . S
C797 H772 0.951 . S
C797 C795 1.388 . S
C797 C798 1.366 . S
C798 C797 1.366 . S
C798 C799 1.414 . S
C798 C801 1.499 . S
C799 H773 0.950 . S
C799 C798 1.414 . S
C799 C800 1.374 . S
C800 H774 0.950 . S
C800 C796 1.385 . S
C800 C799 1.374 . S
C801 C798 1.499 . S
C801 C802 1.373 . S
C801 C803 1.389 . S
C802 H775 0.950 . S
C802 C788 1.377 . S
C802 C801 1.373 . S
C803 C787 1.377 . S
C803 C801 1.389 . S
C803 C804 1.524 . S
C804 C803 1.524 . S
C804 C805 1.397 . S
C804 C809 1.363 . S
C805 H776 0.950 . S
C805 C804 1.397 . S
C805 C806 1.334 . S
C806 H777 0.950 . S
C806 C805 1.334 . S
C806 C807 1.287 . S
C807 C806 1.287 . S
C807 C808 1.524 . S
C807 H810 0.999 . S
C808 H778 0.950 . S
C808 C807 1.524 . S
C808 C809 1.415 . S
C809 H779 0.950 . S
C809 C804 1.363 . S
C809 C808 1.415 . S
H810 C807 0.999 . S
H811 C792 0.913 . S
H812 C830 0.951 . S
H813 C832 0.951 . S
H814 C834 0.950 . S
H815 C835 0.950 . S
H816 C837 0.950 . S
H817 C840 0.939 1_554 S
H818 C841 0.950 1_554 S
H819 C843 0.950 . S
H820 C844 0.950 . S
H821 C845 0.951 . S
H822 C847 0.951 . S
H823 C849 0.950 . S
H824 C850 0.950 . S
H825 C852 0.950 . S
H826 C855 0.939 1_556 S
H827 C856 0.950 1_556 S
H828 C858 0.950 . S
H829 C859 0.950 . S
C830 H812 0.951 . S
C830 C831 1.366 . S
C830 C832 1.388 . S
C831 C830 1.366 . S
C831 C835 1.385 . S
C832 H813 0.951 . S
C832 C830 1.388 . S
C832 C833 1.366 . S
C833 C832 1.366 . S
C833 C834 1.414 . S
C833 C836 1.499 . S
C834 H814 0.950 . S
C834 C833 1.414 . S
C834 C835 1.374 . S
C835 H815 0.950 . S
C835 C831 1.385 . S
C835 C834 1.374 . S
C836 C833 1.499 . S
C836 C837 1.373 1_665 S
C836 C838 1.389 1_554 S
C837 H816 0.950 . S
C837 C836 1.373 1_445 S
C837 C853 1.377 . S
C838 C836 1.389 1_556 S
C838 C839 1.524 . S
C838 C852 1.377 . S
C839 C838 1.524 . S
C839 C840 1.404 . S
C839 C844 1.363 . S
C840 H817 0.939 1_556 S
C840 C839 1.404 . S
C840 C841 1.338 . S
C841 H818 0.950 1_556 S
C841 C840 1.338 . S
C841 C842 1.287 . S
C842 C841 1.287 . S
C842 C843 1.524 . S
C842 H861 0.913 . S
C843 H819 0.950 . S
C843 C842 1.524 . S
C843 C844 1.415 . S
C844 H820 0.950 . S
C844 C839 1.363 . S
C844 C843 1.415 . S
C845 H821 0.951 . S
C845 C846 1.366 . S
C845 C847 1.388 . S
C846 C845 1.366 . S
C846 C850 1.385 . S
C847 H822 0.951 . S
C847 C845 1.388 . S
C847 C848 1.366 . S
C848 C847 1.366 . S
C848 C849 1.414 . S
C848 C851 1.499 . S
C849 H823 0.950 . S
C849 C848 1.414 . S
C849 C850 1.374 . S
C850 H824 0.950 . S
C850 C846 1.385 . S
C850 C849 1.374 . S
C851 C848 1.499 . S
C851 C852 1.373 1_445 S
C851 C853 1.389 1_556 S
C852 H825 0.950 . S
C852 C838 1.377 . S
C852 C851 1.373 1_665 S
C853 C837 1.377 . S
C853 C851 1.389 1_554 S
C853 C854 1.524 . S
C854 C853 1.524 . S
C854 C855 1.404 . S
C854 C859 1.363 . S
C855 H826 0.939 1_554 S
C855 C854 1.404 . S
C855 C856 1.338 . S
C856 H827 0.950 1_554 S
C856 C855 1.338 . S
C856 C857 1.287 . S
C857 C856 1.287 . S
C857 C858 1.524 . S
C857 H860 0.999 . S
C858 H828 0.950 . S
C858 C857 1.524 . S
C858 C859 1.415 . S
C859 H829 0.950 . S
C859 C854 1.363 . S
C859 C858 1.415 . S
H860 C857 0.999 . S
H861 C842 0.913 . S
H862 C880 0.951 . S
H863 C882 0.951 1_545 S
H864 C884 0.950 . S
H865 C885 0.950 . S
H866 C887 0.950 . S
H867 C890 0.950 . S
H868 C891 0.950 . S
H869 C893 0.950 . S
H870 C894 0.950 . S
H871 C895 0.951 . S
H872 C897 0.951 1_565 S
H873 C899 0.950 . S
H874 C900 0.950 . S
H875 C902 0.950 . S
H876 C905 0.950 . S
H877 C906 0.950 . S
H878 C908 0.950 . S
H879 C909 0.950 . S
C880 H862 0.951 . S
C880 C881 1.366 . S
C880 C882 1.388 . S
C881 C880 1.366 . S
C881 C885 1.385 . S
C882 H863 0.951 1_565 S
C882 C880 1.388 . S
C882 C883 1.366 . S
C883 C882 1.366 . S
C883 C884 1.414 . S
C883 C886 1.499 . S
C884 H864 0.950 . S
C884 C883 1.414 . S
C884 C885 1.374 . S
C885 H865 0.950 . S
C885 C881 1.385 . S
C885 C884 1.374 . S
C886 C883 1.499 . S
C886 C887 1.373 . S
C886 C888 1.389 1_565 S
C887 H866 0.950 . S
C887 C886 1.373 . S
C887 C903 1.377 . S
C888 C886 1.389 1_545 S
C888 C889 1.524 . S
C888 C902 1.377 . S
C889 C888 1.524 . S
C889 C890 1.397 . S
C889 C894 1.363 . S
C890 H867 0.950 . S
C890 C889 1.397 . S
C890 C891 1.334 . S
C891 H868 0.950 . S
C891 C890 1.334 . S
C891 C892 1.287 . S
C892 C891 1.287 . S
C892 C893 1.524 . S
C892 H911 0.913 . S
C893 H869 0.950 . S
C893 C892 1.524 . S
C893 C894 1.415 . S
C894 H870 0.950 . S
C894 C889 1.363 . S
C894 C893 1.415 . S
C895 H871 0.951 . S
C895 C896 1.366 . S
C895 C897 1.388 . S
C896 C895 1.366 . S
C896 C900 1.385 . S
C897 H872 0.951 1_545 S
C897 C895 1.388 . S
C897 C898 1.366 . S
C898 C897 1.366 . S
C898 C899 1.414 . S
C898 C901 1.499 . S
C899 H873 0.950 . S
C899 C898 1.414 . S
C899 C900 1.374 . S
C900 H874 0.950 . S
C900 C896 1.385 . S
C900 C899 1.374 . S
C901 C898 1.499 . S
C901 C902 1.373 . S
C901 C903 1.389 1_545 S
C902 H875 0.950 . S
C902 C888 1.377 . S
C902 C901 1.373 . S
C903 C887 1.377 . S
C903 C901 1.389 1_565 S
C903 C904 1.524 . S
C904 C903 1.524 . S
C904 C905 1.397 . S
C904 C909 1.363 . S
C905 H876 0.950 . S
C905 C904 1.397 . S
C905 C906 1.334 . S
C906 H877 0.950 . S
C906 C905 1.334 . S
C906 C907 1.287 . S
C907 C906 1.287 . S
C907 C908 1.524 . S
C907 H910 0.999 . S
C908 H878 0.950 . S
C908 C907 1.524 . S
C908 C909 1.415 . S
C909 H879 0.950 . S
C909 C904 1.363 . S
C909 C908 1.415 . S
H910 C907 0.999 . S
H911 C892 0.913 . S
H912 C930 0.951 . S
H913 C932 0.951 . S
H914 C934 0.950 . S
H915 C935 0.950 . S
H916 C937 0.950 . S
H917 C940 0.950 . S
H918 C941 0.950 . S
H919 C943 0.950 . S
H920 C944 0.950 . S
H921 C945 0.951 . S
H922 C947 0.951 . S
H923 C949 0.950 . S
H924 C950 0.950 . S
H925 C952 0.950 . S
H926 C955 0.950 . S
H927 C956 0.950 . S
H928 C958 0.950 . S
H929 C959 0.950 . S
C930 H912 0.951 . S
C930 C931 1.366 . S
C930 C932 1.388 . S
C931 C930 1.366 . S
C931 C935 1.385 . S
C932 H913 0.951 . S
C932 C930 1.388 . S
C932 C933 1.366 . S
C933 C932 1.366 . S
C933 C934 1.414 . S
C933 C936 1.499 . S
C934 H914 0.950 . S
C934 C933 1.414 . S
C934 C935 1.374 . S
C935 H915 0.950 . S
C935 C931 1.385 . S
C935 C934 1.374 . S
C936 C933 1.499 . S
C936 C937 1.373 1_556 S
C936 C938 1.389 . S
C937 H916 0.950 . S
C937 C936 1.373 1_554 S
C937 C953 1.377 . S
C938 C936 1.389 . S
C938 C939 1.524 . S
C938 C952 1.377 1_556 S
C939 C938 1.524 . S
C939 C940 1.397 . S
C939 C944 1.363 . S
C940 H917 0.950 . S
C940 C939 1.397 . S
C940 C941 1.334 . S
C941 H918 0.950 . S
C941 C940 1.334 . S
C941 C942 1.287 . S
C942 C941 1.287 . S
C942 C943 1.524 . S
C942 H961 0.913 . S
C943 H919 0.950 . S
C943 C942 1.524 . S
C943 C944 1.415 . S
C944 H920 0.950 . S
C944 C939 1.363 . S
C944 C943 1.415 . S
C945 H921 0.951 . S
C945 C946 1.366 . S
C945 C947 1.388 . S
C946 C945 1.366 . S
C946 C950 1.385 . S
C947 H922 0.951 . S
C947 C945 1.388 . S
C947 C948 1.366 . S
C948 C947 1.366 . S
C948 C949 1.414 . S
C948 C951 1.499 . S
C949 H923 0.950 . S
C949 C948 1.414 . S
C949 C950 1.374 . S
C950 H924 0.950 . S
C950 C946 1.385 . S
C950 C949 1.374 . S
C951 C948 1.499 . S
C951 C952 1.373 . S
C951 C953 1.389 . S
C952 H925 0.950 . S
C952 C938 1.377 1_554 S
C952 C951 1.373 . S
C953 C937 1.377 . S
C953 C951 1.389 . S
C953 C954 1.524 . S
C954 C953 1.524 . S
C954 C955 1.397 . S
C954 C959 1.363 . S
C955 H926 0.950 . S
C955 C954 1.397 . S
C955 C956 1.334 . S
C956 H927 0.950 . S
C956 C955 1.334 . S
C956 C957 1.287 . S
C957 C956 1.287 . S
C957 C958 1.524 . S
C957 H960 0.999 . S
C958 H928 0.950 . S
C958 C957 1.524 . S
C958 C959 1.415 . S
C959 H929 0.950 . S
C959 C954 1.363 . S
C959 C958 1.415 . S
H960 C957 0.999 . S
H961 C942 0.913 . S
H962 C980 0.951 . S
H963 C982 0.951 . S
H964 C984 0.950 . S
H965 C985 0.950 . S
H966 C987 0.950 . S
H967 C990 0.950 . S
H968 C991 0.950 . S
H969 C993 0.950 . S
H970 C994 0.950 . S
H971 C995 0.951 . S
H972 C997 0.951 . S
H973 C999 0.950 . S
H974 C1000 0.950 . S
H975 C1002 0.950 . S
H976 C1005 0.950 . S
H977 C1006 0.950 . S
H978 C1008 0.950 . S
H979 C1009 0.950 . S
C980 H962 0.951 . S
C980 C981 1.366 . S
C980 C982 1.388 . S
C981 C980 1.366 . S
C981 C985 1.385 . S
C982 H963 0.951 . S
C982 C980 1.388 . S
C982 C983 1.366 . S
C983 C982 1.366 . S
C983 C984 1.414 . S
C983 C986 1.499 . S
C984 H964 0.950 . S
C984 C983 1.414 . S
C984 C985 1.374 . S
C985 H965 0.950 . S
C985 C981 1.385 . S
C985 C984 1.374 . S
C986 C983 1.499 . S
C986 C987 1.373 . S
C986 C988 1.389 . S
C987 H966 0.950 . S
C987 C986 1.373 . S
C987 C1003 1.377 . S
C988 C986 1.389 . S
C988 C989 1.524 . S
C988 C1002 1.377 . S
C989 C988 1.524 . S
C989 C990 1.397 . S
C989 C994 1.363 . S
C990 H967 0.950 . S
C990 C989 1.397 . S
C990 C991 1.334 . S
C991 H968 0.950 . S
C991 C990 1.334 . S
C991 C992 1.287 . S
C992 C991 1.287 . S
C992 C993 1.524 . S
C992 H1011 0.913 . S
C993 H969 0.950 . S
C993 C992 1.524 . S
C993 C994 1.415 . S
C994 H970 0.950 . S
C994 C989 1.363 . S
C994 C993 1.415 . S
C995 H971 0.951 . S
C995 C996 1.366 . S
C995 C997 1.388 . S
C996 C995 1.366 . S
C996 C1000 1.385 . S
C997 H972 0.951 . S
C997 C995 1.388 . S
C997 C998 1.366 . S
C998 C997 1.366 . S
C998 C999 1.414 . S
C998 C1001 1.499 . S
C999 H973 0.950 . S
C999 C998 1.414 . S
C999 C1000 1.374 . S
C1000 H974 0.950 . S
C1000 C996 1.385 . S
C1000 C999 1.374 . S
C1001 C998 1.499 . S
C1001 C1002 1.373 . S
C1001 C1003 1.389 . S
C1002 H975 0.950 . S
C1002 C988 1.377 . S
C1002 C1001 1.373 . S
C1003 C987 1.377 . S
C1003 C1001 1.389 . S
C1003 C1004 1.524 . S
C1004 C1003 1.524 . S
C1004 C1005 1.397 . S
C1004 C1009 1.363 . S
C1005 H976 0.950 . S
C1005 C1004 1.397 . S
C1005 C1006 1.334 . S
C1006 H977 0.950 . S
C1006 C1005 1.334 . S
C1006 C1007 1.287 . S
C1007 C1006 1.287 . S
C1007 C1008 1.524 . S
C1007 H1010 0.999 . S
C1008 H978 0.950 . S
C1008 C1007 1.524 . S
C1008 C1009 1.415 . S
C1009 H979 0.950 . S
C1009 C1004 1.363 . S
C1009 C1008 1.415 . S
H1010 C1007 0.999 . S
H1011 C992 0.913 . S
H1012 C1030 0.951 . S
H1013 C1032 0.951 . S
H1014 C1034 0.950 . S
H1015 C1035 0.950 . S
H1016 C1037 0.950 . S
H1017 C1040 0.950 . S
H1018 C1041 0.950 . S
H1019 C1043 0.950 . S
H1020 C1044 0.950 . S
H1021 C1045 0.951 . S
H1022 C1047 0.951 . S
H1023 C1049 0.950 . S
H1024 C1050 0.950 . S
H1025 C1052 0.950 . S
H1026 C1055 0.950 . S
H1027 C1056 0.950 1_545 S
H1028 C1058 0.950 . S
H1029 C1059 0.950 . S
C1030 H1012 0.951 . S
C1030 C1031 1.366 . S
C1030 C1032 1.388 . S
C1031 C1030 1.366 . S
C1031 C1035 1.385 . S
C1032 H1013 0.951 . S
C1032 C1030 1.388 . S
C1032 C1033 1.366 . S
C1033 C1032 1.366 . S
C1033 C1034 1.414 . S
C1033 C1036 1.499 . S
C1034 H1014 0.950 . S
C1034 C1033 1.414 . S
C1034 C1035 1.374 . S
C1035 H1015 0.950 . S
C1035 C1031 1.385 . S
C1035 C1034 1.374 . S
C1036 C1033 1.499 . S
C1036 C1037 1.373 . S
C1036 C1038 1.389 . S
C1037 H1016 0.950 . S
C1037 C1036 1.373 . S
C1037 C1053 1.377 . S
C1038 C1036 1.389 . S
C1038 C1039 1.524 . S
C1038 C1052 1.377 . S
C1039 C1038 1.524 . S
C1039 C1040 1.397 . S
C1039 C1044 1.363 . S
C1040 H1017 0.950 . S
C1040 C1039 1.397 . S
C1040 C1041 1.334 . S
C1041 H1018 0.950 . S
C1041 C1040 1.334 . S
C1041 C1042 1.287 . S
C1042 C1041 1.287 . S
C1042 C1043 1.524 . S
C1042 H1061 0.913 . S
C1043 H1019 0.950 . S
C1043 C1042 1.524 . S
C1043 C1044 1.415 . S
C1044 H1020 0.950 . S
C1044 C1039 1.363 . S
C1044 C1043 1.415 . S
C1045 H1021 0.951 . S
C1045 C1046 1.366 . S
C1045 C1047 1.388 . S
C1046 C1045 1.366 . S
C1046 C1050 1.385 . S
C1047 H1022 0.951 . S
C1047 C1045 1.388 . S
C1047 C1048 1.366 . S
C1048 C1047 1.366 . S
C1048 C1049 1.414 . S
C1048 C1051 1.499 . S
C1049 H1023 0.950 . S
C1049 C1048 1.414 . S
C1049 C1050 1.374 . S
C1050 H1024 0.950 . S
C1050 C1046 1.385 . S
C1050 C1049 1.374 . S
C1051 C1048 1.499 . S
C1051 C1052 1.373 . S
C1051 C1053 1.389 . S
C1052 H1025 0.950 . S
C1052 C1038 1.377 . S
C1052 C1051 1.373 . S
C1053 C1037 1.377 . S
C1053 C1051 1.389 . S
C1053 C1054 1.524 . S
C1054 C1053 1.524 . S
C1054 C1055 1.397 . S
C1054 C1059 1.363 . S
C1055 H1026 0.950 . S
C1055 C1054 1.397 . S
C1055 C1056 1.334 . S
C1056 H1027 0.950 1_565 S
C1056 C1055 1.334 . S
C1056 C1057 1.287 . S
C1057 C1056 1.287 . S
C1057 C1058 1.524 . S
C1057 H1060 0.999 1_565 S
C1058 H1028 0.950 . S
C1058 C1057 1.524 . S
C1058 C1059 1.415 . S
C1059 H1029 0.950 . S
C1059 C1054 1.363 . S
C1059 C1058 1.415 . S
H1060 C1057 0.999 1_545 S
H1061 C1042 0.913 . S
H1062 C1080 0.951 . S
H1063 C1082 0.951 . S
H1064 C1084 0.950 . S
H1065 C1085 0.950 . S
H1066 C1087 0.950 . S
H1067 C1090 0.950 . S
H1068 C1091 0.950 . S
H1069 C1093 0.950 . S
H1070 C1094 0.950 . S
H1071 C1095 0.951 . S
H1072 C1097 0.951 . S
H1073 C1099 0.950 . S
H1074 C1100 0.950 . S
H1075 C1102 0.950 . S
H1076 C1105 0.950 . S
H1077 C1106 0.950 . S
H1078 C1108 0.950 . S
H1079 C1109 0.950 . S
C1080 H1062 0.951 . S
C1080 C1081 1.366 . S
C1080 C1082 1.388 . S
C1081 C1080 1.366 . S
C1081 C1085 1.385 . S
C1082 H1063 0.951 . S
C1082 C1080 1.388 . S
C1082 C1083 1.366 . S
C1083 C1082 1.366 . S
C1083 C1084 1.414 . S
C1083 C1086 1.499 . S
C1084 H1064 0.950 . S
C1084 C1083 1.414 . S
C1084 C1085 1.374 . S
C1085 H1065 0.950 . S
C1085 C1081 1.385 . S
C1085 C1084 1.374 . S
C1086 C1083 1.499 . S
C1086 C1087 1.373 . S
C1086 C1088 1.389 . S
C1087 H1066 0.950 . S
C1087 C1086 1.373 . S
C1087 C1103 1.377 . S
C1088 C1086 1.389 . S
C1088 C1089 1.524 . S
C1088 C1102 1.377 . S
C1089 C1088 1.524 . S
C1089 C1090 1.397 . S
C1089 C1094 1.363 . S
C1090 H1067 0.950 . S
C1090 C1089 1.397 . S
C1090 C1091 1.334 . S
C1091 H1068 0.950 . S
C1091 C1090 1.334 . S
C1091 C1092 1.287 . S
C1092 C1091 1.287 . S
C1092 C1093 1.524 . S
C1092 H1111 0.913 . S
C1093 H1069 0.950 . S
C1093 C1092 1.524 . S
C1093 C1094 1.415 . S
C1094 H1070 0.950 . S
C1094 C1089 1.363 . S
C1094 C1093 1.415 . S
C1095 H1071 0.951 . S
C1095 C1096 1.366 . S
C1095 C1097 1.388 . S
C1096 C1095 1.366 . S
C1096 C1100 1.385 . S
C1097 H1072 0.951 . S
C1097 C1095 1.388 . S
C1097 C1098 1.366 . S
C1098 C1097 1.366 . S
C1098 C1099 1.414 . S
C1098 C1101 1.499 . S
C1099 H1073 0.950 . S
C1099 C1098 1.414 . S
C1099 C1100 1.374 . S
C1100 H1074 0.950 . S
C1100 C1096 1.385 . S
C1100 C1099 1.374 . S
C1101 C1098 1.499 . S
C1101 C1102 1.373 . S
C1101 C1103 1.389 . S
C1102 H1075 0.950 . S
C1102 C1088 1.377 . S
C1102 C1101 1.373 . S
C1103 C1087 1.377 . S
C1103 C1101 1.389 . S
C1103 C1104 1.524 . S
C1104 C1103 1.524 . S
C1104 C1105 1.397 . S
C1104 C1109 1.363 . S
C1105 H1076 0.950 . S
C1105 C1104 1.397 . S
C1105 C1106 1.334 . S
C1106 H1077 0.950 . S
C1106 C1105 1.334 . S
C1106 C1107 1.287 . S
C1107 C1106 1.287 . S
C1107 C1108 1.524 . S
C1107 H1110 0.999 . S
C1108 H1078 0.950 . S
C1108 C1107 1.524 . S
C1108 C1109 1.415 . S
C1109 H1079 0.950 . S
C1109 C1104 1.363 . S
C1109 C1108 1.415 . S
H1110 C1107 0.999 . S
H1111 C1092 0.913 . S
H1112 C1130 0.951 . S
H1113 C1132 0.951 . S
H1114 C1134 0.950 . S
H1115 C1135 0.950 . S
H1116 C1137 0.950 . S
H1117 C1140 0.950 . S
H1118 C1141 0.950 . S
H1119 C1143 0.950 . S
H1120 C1144 0.950 . S
H1121 C1145 0.951 . S
H1122 C1147 0.951 . S
H1123 C1149 0.950 . S
H1124 C1150 0.950 . S
H1125 C1152 0.950 . S
H1126 C1155 0.950 . S
H1127 C1156 0.950 . S
H1128 C1158 0.950 . S
H1129 C1159 0.950 . S
C1130 H1112 0.951 . S
C1130 C1131 1.366 . S
C1130 C1132 1.388 . S
C1131 C1130 1.366 . S
C1131 C1135 1.385 . S
C1132 H1113 0.951 . S
C1132 C1130 1.388 . S
C1132 C1133 1.366 . S
C1133 C1132 1.366 . S
C1133 C1134 1.414 . S
C1133 C1136 1.499 . S
C1134 H1114 0.950 . S
C1134 C1133 1.414 . S
C1134 C1135 1.374 . S
C1135 H1115 0.950 . S
C1135 C1131 1.385 . S
C1135 C1134 1.374 . S
C1136 C1133 1.499 . S
C1136 C1137 1.373 1_554 S
C1136 C1138 1.389 . S
C1137 H1116 0.950 . S
C1137 C1136 1.373 1_556 S
C1137 C1153 1.377 . S
C1138 C1136 1.389 . S
C1138 C1139 1.524 . S
C1138 C1152 1.377 1_554 S
C1139 C1138 1.524 . S
C1139 C1140 1.397 . S
C1139 C1144 1.363 . S
C1140 H1117 0.950 . S
C1140 C1139 1.397 . S
C1140 C1141 1.334 . S
C1141 H1118 0.950 . S
C1141 C1140 1.334 . S
C1141 C1142 1.287 . S
C1142 C1141 1.287 . S
C1142 C1143 1.524 . S
C1142 H1161 0.913 . S
C1143 H1119 0.950 . S
C1143 C1142 1.524 . S
C1143 C1144 1.415 . S
C1144 H1120 0.950 . S
C1144 C1139 1.363 . S
C1144 C1143 1.415 . S
C1145 H1121 0.951 . S
C1145 C1146 1.366 . S
C1145 C1147 1.388 . S
C1146 C1145 1.366 . S
C1146 C1150 1.385 . S
C1147 H1122 0.951 . S
C1147 C1145 1.388 . S
C1147 C1148 1.366 . S
C1148 C1147 1.366 . S
C1148 C1149 1.414 . S
C1148 C1151 1.499 . S
C1149 H1123 0.950 . S
C1149 C1148 1.414 . S
C1149 C1150 1.374 . S
C1150 H1124 0.950 . S
C1150 C1146 1.385 . S
C1150 C1149 1.374 . S
C1151 C1148 1.499 . S
C1151 C1152 1.373 . S
C1151 C1153 1.389 . S
C1152 H1125 0.950 . S
C1152 C1138 1.377 1_556 S
C1152 C1151 1.373 . S
C1153 C1137 1.377 . S
C1153 C1151 1.389 . S
C1153 C1154 1.524 . S
C1154 C1153 1.524 . S
C1154 C1155 1.397 . S
C1154 C1159 1.363 . S
C1155 H1126 0.950 . S
C1155 C1154 1.397 . S
C1155 C1156 1.334 . S
C1156 H1127 0.950 . S
C1156 C1155 1.334 . S
C1156 C1157 1.287 . S
C1157 C1156 1.287 . S
C1157 C1158 1.524 . S
C1157 H1160 0.999 . S
C1158 H1128 0.950 . S
C1158 C1157 1.524 . S
C1158 C1159 1.415 . S
C1159 H1129 0.950 . S
C1159 C1154 1.363 . S
C1159 C1158 1.415 . S
H1160 C1157 0.999 . S
H1161 C1142 0.913 . S
H1162 C1180 0.951 . S
H1163 C1182 0.951 . S
H1164 C1184 0.950 . S
H1165 C1185 0.950 . S
H1166 C1187 0.950 . S
H1167 C1190 0.950 . S
H1168 C1191 0.950 . S
H1169 C1193 0.950 . S
H1170 C1194 0.950 . S
H1171 C1195 0.951 . S
H1172 C1197 0.951 . S
H1173 C1199 0.950 . S
H1174 C1200 0.950 . S
H1175 C1202 0.950 . S
H1176 C1205 0.950 . S
H1177 C1206 0.950 . S
H1178 C1208 0.950 . S
H1179 C1209 0.950 . S
C1180 H1162 0.951 . S
C1180 C1181 1.366 . S
C1180 C1182 1.388 . S
C1181 C1180 1.366 . S
C1181 C1185 1.385 . S
C1182 H1163 0.951 . S
C1182 C1180 1.388 . S
C1182 C1183 1.366 . S
C1183 C1182 1.366 . S
C1183 C1184 1.414 . S
C1183 C1186 1.499 . S
C1184 H1164 0.950 . S
C1184 C1183 1.414 . S
C1184 C1185 1.374 . S
C1185 H1165 0.950 . S
C1185 C1181 1.385 . S
C1185 C1184 1.374 . S
C1186 C1183 1.499 . S
C1186 C1187 1.373 . S
C1186 C1188 1.389 . S
C1187 H1166 0.950 . S
C1187 C1186 1.373 . S
C1187 C1203 1.377 . S
C1188 C1186 1.389 . S
C1188 C1189 1.524 . S
C1188 C1202 1.377 . S
C1189 C1188 1.524 . S
C1189 C1190 1.397 . S
C1189 C1194 1.363 . S
C1190 H1167 0.950 . S
C1190 C1189 1.397 . S
C1190 C1191 1.334 . S
C1191 H1168 0.950 . S
C1191 C1190 1.334 . S
C1191 C1192 1.287 . S
C1192 C1191 1.287 . S
C1192 C1193 1.524 . S
C1192 H1211 0.913 . S
C1193 H1169 0.950 . S
C1193 C1192 1.524 . S
C1193 C1194 1.415 . S
C1194 H1170 0.950 . S
C1194 C1189 1.363 . S
C1194 C1193 1.415 . S
C1195 H1171 0.951 . S
C1195 C1196 1.366 . S
C1195 C1197 1.388 . S
C1196 C1195 1.366 . S
C1196 C1200 1.385 . S
C1197 H1172 0.951 . S
C1197 C1195 1.388 . S
C1197 C1198 1.366 . S
C1198 C1197 1.366 . S
C1198 C1199 1.414 . S
C1198 C1201 1.499 . S
C1199 H1173 0.950 . S
C1199 C1198 1.414 . S
C1199 C1200 1.374 . S
C1200 H1174 0.950 . S
C1200 C1196 1.385 . S
C1200 C1199 1.374 . S
C1201 C1198 1.499 . S
C1201 C1202 1.373 . S
C1201 C1203 1.389 . S
C1202 H1175 0.950 . S
C1202 C1188 1.377 . S
C1202 C1201 1.373 . S
C1203 C1187 1.377 . S
C1203 C1201 1.389 . S
C1203 C1204 1.524 . S
C1204 C1203 1.524 . S
C1204 C1205 1.397 . S
C1204 C1209 1.363 . S
C1205 H1176 0.950 . S
C1205 C1204 1.397 . S
C1205 C1206 1.334 . S
C1206 H1177 0.950 . S
C1206 C1205 1.334 . S
C1206 C1207 1.287 . S
C1207 C1206 1.287 . S
C1207 C1208 1.524 . S
C1207 H1210 0.999 . S
C1208 H1178 0.950 . S
C1208 C1207 1.524 . S
C1208 C1209 1.415 . S
C1209 H1179 0.950 . S
C1209 C1204 1.363 . S
C1209 C1208 1.415 . S
H1210 C1207 0.999 . S
H1211 C1192 0.913 . S
H1212 C1230 0.951 . S
H1213 C1232 0.951 . S
H1214 C1234 0.950 . S
H1215 C1235 0.950 . S
H1216 C1237 0.950 . S
H1217 C1240 0.950 . S
H1218 C1241 0.950 . S
H1219 C1243 0.950 . S
H1220 C1244 0.950 . S
H1221 C1245 0.951 . S
H1222 C1247 0.951 . S
H1223 C1249 0.950 . S
H1224 C1250 0.950 . S
H1225 C1252 0.950 . S
H1226 C1255 0.950 . S
H1227 C1256 0.950 . S
H1228 C1258 0.950 . S
H1229 C1259 0.950 . S
C1230 H1212 0.951 . S
C1230 C1231 1.366 . S
C1230 C1232 1.388 . S
C1231 C1230 1.366 . S
C1231 C1235 1.385 . S
C1232 H1213 0.951 . S
C1232 C1230 1.388 . S
C1232 C1233 1.366 . S
C1233 C1232 1.366 . S
C1233 C1234 1.414 . S
C1233 C1236 1.499 . S
C1234 H1214 0.950 . S
C1234 C1233 1.414 . S
C1234 C1235 1.374 . S
C1235 H1215 0.950 . S
C1235 C1231 1.385 . S
C1235 C1234 1.374 . S
C1236 C1233 1.499 . S
C1236 C1237 1.373 . S
C1236 C1238 1.389 . S
C1237 H1216 0.950 . S
C1237 C1236 1.373 . S
C1237 C1253 1.377 . S
C1238 C1236 1.389 . S
C1238 C1239 1.524 . S
C1238 C1252 1.377 . S
C1239 C1238 1.524 . S
C1239 C1240 1.397 . S
C1239 C1244 1.363 . S
C1240 H1217 0.950 . S
C1240 C1239 1.397 . S
C1240 C1241 1.334 . S
C1241 H1218 0.950 . S
C1241 C1240 1.334 . S
C1241 C1242 1.287 . S
C1242 C1241 1.287 . S
C1242 C1243 1.524 . S
C1242 H1261 0.913 . S
C1243 H1219 0.950 . S
C1243 C1242 1.524 . S
C1243 C1244 1.415 . S
C1244 H1220 0.950 . S
C1244 C1239 1.363 . S
C1244 C1243 1.415 . S
C1245 H1221 0.951 . S
C1245 C1246 1.366 . S
C1245 C1247 1.388 . S
C1246 C1245 1.366 . S
C1246 C1250 1.385 . S
C1247 H1222 0.951 . S
C1247 C1245 1.388 . S
C1247 C1248 1.366 . S
C1248 C1247 1.366 . S
C1248 C1249 1.414 . S
C1248 C1251 1.499 . S
C1249 H1223 0.950 . S
C1249 C1248 1.414 . S
C1249 C1250 1.374 . S
C1250 H1224 0.950 . S
C1250 C1246 1.385 . S
C1250 C1249 1.374 . S
C1251 C1248 1.499 . S
C1251 C1252 1.373 . S
C1251 C1253 1.389 . S
C1252 H1225 0.950 . S
C1252 C1238 1.377 . S
C1252 C1251 1.373 . S
C1253 C1237 1.377 . S
C1253 C1251 1.389 . S
C1253 C1254 1.524 . S
C1254 C1253 1.524 . S
C1254 C1255 1.397 . S
C1254 C1259 1.363 . S
C1255 H1226 0.950 . S
C1255 C1254 1.397 . S
C1255 C1256 1.334 . S
C1256 H1227 0.950 . S
C1256 C1255 1.334 . S
C1256 C1257 1.287 . S
C1257 C1256 1.287 . S
C1257 C1258 1.524 . S
C1257 H1260 0.999 . S
C1258 H1228 0.950 . S
C1258 C1257 1.524 . S
C1258 C1259 1.415 . S
C1259 H1229 0.950 . S
C1259 C1254 1.363 . S
C1259 C1258 1.415 . S
H1260 C1257 0.999 . S
H1261 C1242 0.913 . S
H1262 C1280 0.951 . S
H1263 C1282 0.951 . S
H1264 C1284 0.950 . S
H1265 C1285 0.950 . S
H1266 C1287 0.950 . S
H1267 C1290 0.950 . S
H1268 C1291 0.950 . S
H1269 C1293 0.950 . S
H1270 C1294 0.950 . S
H1271 C1295 0.951 . S
H1272 C1297 0.951 . S
H1273 C1299 0.950 . S
H1274 C1300 0.950 . S
H1275 C1302 0.950 . S
H1276 C1305 0.950 . S
H1277 C1306 0.950 . S
H1278 C1308 0.950 . S
H1279 C1309 0.950 . S
C1280 H1262 0.951 . S
C1280 C1281 1.366 . S
C1280 C1282 1.388 . S
C1281 C1280 1.366 . S
C1281 C1285 1.385 . S
C1282 H1263 0.951 . S
C1282 C1280 1.388 . S
C1282 C1283 1.366 . S
C1283 C1282 1.366 . S
C1283 C1284 1.414 . S
C1283 C1286 1.499 . S
C1284 H1264 0.950 . S
C1284 C1283 1.414 . S
C1284 C1285 1.374 . S
C1285 H1265 0.950 . S
C1285 C1281 1.385 . S
C1285 C1284 1.374 . S
C1286 C1283 1.499 . S
C1286 C1287 1.373 . S
C1286 C1288 1.389 . S
C1287 H1266 0.950 . S
C1287 C1286 1.373 . S
C1287 C1303 1.377 . S
C1288 C1286 1.389 . S
C1288 C1289 1.524 . S
C1288 C1302 1.377 . S
C1289 C1288 1.524 . S
C1289 C1290 1.397 . S
C1289 C1294 1.363 . S
C1290 H1267 0.950 . S
C1290 C1289 1.397 . S
C1290 C1291 1.334 . S
C1291 H1268 0.950 . S
C1291 C1290 1.334 . S
C1291 C1292 1.287 . S
C1292 C1291 1.287 . S
C1292 C1293 1.524 . S
C1292 H1311 0.913 . S
C1293 H1269 0.950 . S
C1293 C1292 1.524 . S
C1293 C1294 1.415 . S
C1294 H1270 0.950 . S
C1294 C1289 1.363 . S
C1294 C1293 1.415 . S
C1295 H1271 0.951 . S
C1295 C1296 1.366 . S
C1295 C1297 1.388 . S
C1296 C1295 1.366 . S
C1296 C1300 1.385 . S
C1297 H1272 0.951 . S
C1297 C1295 1.388 . S
C1297 C1298 1.366 . S
C1298 C1297 1.366 . S
C1298 C1299 1.414 . S
C1298 C1301 1.499 . S
C1299 H1273 0.950 . S
C1299 C1298 1.414 . S
C1299 C1300 1.374 . S
C1300 H1274 0.950 . S
C1300 C1296 1.385 . S
C1300 C1299 1.374 . S
C1301 C1298 1.499 . S
C1301 C1302 1.373 . S
C1301 C1303 1.389 . S
C1302 H1275 0.950 . S
C1302 C1288 1.377 . S
C1302 C1301 1.373 . S
C1303 C1287 1.377 . S
C1303 C1301 1.389 . S
C1303 C1304 1.524 . S
C1304 C1303 1.524 . S
C1304 C1305 1.397 . S
C1304 C1309 1.363 . S
C1305 H1276 0.950 . S
C1305 C1304 1.397 . S
C1305 C1306 1.334 . S
C1306 H1277 0.950 . S
C1306 C1305 1.334 . S
C1306 C1307 1.287 . S
C1307 C1306 1.287 . S
C1307 C1308 1.524 . S
C1307 H1310 0.999 . S
C1308 H1278 0.950 . S
C1308 C1307 1.524 . S
C1308 C1309 1.415 . S
C1309 H1279 0.950 . S
C1309 C1304 1.363 . S
C1309 C1308 1.415 . S
H1310 C1307 0.999 . S
H1311 C1292 0.913 . S
H1312 C1330 0.951 . S
H1313 C1332 0.951 . S
H1314 C1334 0.950 . S
H1315 C1335 0.950 . S
H1316 C1337 0.950 . S
H1317 C1340 0.950 . S
H1318 C1341 0.950 . S
H1319 C1343 0.950 . S
H1320 C1344 0.950 . S
H1321 C1345 0.951 . S
H1322 C1347 0.951 . S
H1323 C1349 0.950 . S
H1324 C1350 0.950 . S
H1325 C1352 0.950 . S
H1326 C1355 0.950 . S
H1327 C1356 0.950 . S
H1328 C1358 0.950 . S
H1329 C1359 0.950 . S
C1330 H1312 0.951 . S
C1330 C1331 1.366 . S
C1330 C1332 1.388 . S
C1331 C1330 1.366 . S
C1331 C1335 1.385 . S
C1332 H1313 0.951 . S
C1332 C1330 1.388 . S
C1332 C1333 1.366 . S
C1333 C1332 1.366 . S
C1333 C1334 1.414 . S
C1333 C1336 1.499 . S
C1334 H1314 0.950 . S
C1334 C1333 1.414 . S
C1334 C1335 1.374 . S
C1335 H1315 0.950 . S
C1335 C1331 1.385 . S
C1335 C1334 1.374 . S
C1336 C1333 1.499 . S
C1336 C1337 1.373 . S
C1336 C1338 1.389 . S
C1337 H1316 0.950 . S
C1337 C1336 1.373 . S
C1337 C1353 1.377 . S
C1338 C1336 1.389 . S
C1338 C1339 1.524 . S
C1338 C1352 1.377 . S
C1339 C1338 1.524 . S
C1339 C1340 1.397 . S
C1339 C1344 1.363 . S
C1340 H1317 0.950 . S
C1340 C1339 1.397 . S
C1340 C1341 1.334 . S
C1341 H1318 0.950 . S
C1341 C1340 1.334 . S
C1341 C1342 1.287 . S
C1342 C1341 1.287 . S
C1342 C1343 1.524 . S
C1342 H1361 0.913 . S
C1343 H1319 0.950 . S
C1343 C1342 1.524 . S
C1343 C1344 1.415 . S
C1344 H1320 0.950 . S
C1344 C1339 1.363 . S
C1344 C1343 1.415 . S
C1345 H1321 0.951 . S
C1345 C1346 1.366 . S
C1345 C1347 1.388 . S
C1346 C1345 1.366 . S
C1346 C1350 1.385 . S
C1347 H1322 0.951 . S
C1347 C1345 1.388 . S
C1347 C1348 1.366 . S
C1348 C1347 1.366 . S
C1348 C1349 1.414 . S
C1348 C1351 1.499 . S
C1349 H1323 0.950 . S
C1349 C1348 1.414 . S
C1349 C1350 1.374 . S
C1350 H1324 0.950 . S
C1350 C1346 1.385 . S
C1350 C1349 1.374 . S
C1351 C1348 1.499 . S
C1351 C1352 1.373 . S
C1351 C1353 1.389 . S
C1352 H1325 0.950 . S
C1352 C1338 1.377 . S
C1352 C1351 1.373 . S
C1353 C1337 1.377 . S
C1353 C1351 1.389 . S
C1353 C1354 1.524 . S
C1354 C1353 1.524 . S
C1354 C1355 1.397 . S
C1354 C1359 1.363 . S
C1355 H1326 0.950 . S
C1355 C1354 1.397 . S
C1355 C1356 1.334 . S
C1356 H1327 0.950 . S
C1356 C1355 1.334 . S
C1356 C1357 1.287 . S
C1357 C1356 1.287 . S
C1357 C1358 1.524 . S
C1357 H1360 0.999 . S
C1358 H1328 0.950 . S
C1358 C1357 1.524 . S
C1358 C1359 1.415 . S
C1359 H1329 0.950 . S
C1359 C1354 1.363 . S
C1359 C1358 1.415 . S
H1360 C1357 0.999 . S
H1361 C1342 0.913 . S
H1362 C1380 0.951 . S
H1363 C1382 0.951 . S
H1364 C1384 0.950 . S
H1365 C1385 0.950 . S
H1366 C1387 0.950 . S
H1367 C1390 0.950 . S
H1368 C1391 0.950 . S
H1369 C1393 0.950 . S
H1370 C1394 0.950 . S
H1371 C1395 0.951 . S
H1372 C1397 0.951 . S
H1373 C1399 0.950 . S
H1374 C1400 0.950 . S
H1375 C1402 0.950 . S
H1376 C1405 0.950 . S
H1377 C1406 0.950 . S
H1378 C1408 0.950 . S
H1379 C1409 0.950 . S
C1380 H1362 0.951 . S
C1380 C1381 1.366 . S
C1380 C1382 1.388 . S
C1381 C1380 1.366 . S
C1381 C1385 1.385 1_545 S
C1382 H1363 0.951 . S
C1382 C1380 1.388 . S
C1382 C1383 1.366 1_545 S
C1383 C1382 1.366 1_565 S
C1383 C1384 1.414 . S
C1383 C1386 1.499 . S
C1384 H1364 0.950 . S
C1384 C1383 1.414 . S
C1384 C1385 1.374 . S
C1385 H1365 0.950 . S
C1385 C1381 1.385 1_565 S
C1385 C1384 1.374 . S
C1386 C1383 1.499 . S
C1386 C1387 1.373 . S
C1386 C1388 1.389 . S
C1387 H1366 0.950 . S
C1387 C1386 1.373 . S
C1387 C1403 1.377 . S
C1388 C1386 1.389 . S
C1388 C1389 1.524 . S
C1388 C1402 1.377 . S
C1389 C1388 1.524 . S
C1389 C1390 1.397 . S
C1389 C1394 1.363 . S
C1390 H1367 0.950 . S
C1390 C1389 1.397 . S
C1390 C1391 1.334 . S
C1391 H1368 0.950 . S
C1391 C1390 1.334 . S
C1391 C1392 1.287 . S
C1392 C1391 1.287 . S
C1392 C1393 1.524 . S
C1392 H1411 0.913 . S
C1393 H1369 0.950 . S
C1393 C1392 1.524 . S
C1393 C1394 1.415 . S
C1394 H1370 0.950 . S
C1394 C1389 1.363 . S
C1394 C1393 1.415 . S
C1395 H1371 0.951 . S
C1395 C1396 1.366 . S
C1395 C1397 1.388 . S
C1396 C1395 1.366 . S
C1396 C1400 1.385 . S
C1397 H1372 0.951 . S
C1397 C1395 1.388 . S
C1397 C1398 1.366 . S
C1398 C1397 1.366 . S
C1398 C1399 1.414 . S
C1398 C1401 1.499 . S
C1399 H1373 0.950 . S
C1399 C1398 1.414 . S
C1399 C1400 1.374 . S
C1400 H1374 0.950 . S
C1400 C1396 1.385 . S
C1400 C1399 1.374 . S
C1401 C1398 1.499 . S
C1401 C1402 1.373 . S
C1401 C1403 1.389 . S
C1402 H1375 0.950 . S
C1402 C1388 1.377 . S
C1402 C1401 1.373 . S
C1403 C1387 1.377 . S
C1403 C1401 1.389 . S
C1403 C1404 1.524 . S
C1404 C1403 1.524 . S
C1404 C1405 1.397 . S
C1404 C1409 1.363 . S
C1405 H1376 0.950 . S
C1405 C1404 1.397 . S
C1405 C1406 1.334 . S
C1406 H1377 0.950 . S
C1406 C1405 1.334 . S
C1406 C1407 1.287 . S
C1407 C1406 1.287 . S
C1407 C1408 1.524 . S
C1407 H1410 0.999 . S
C1408 H1378 0.950 . S
C1408 C1407 1.524 . S
C1408 C1409 1.415 . S
C1409 H1379 0.950 . S
C1409 C1404 1.363 . S
C1409 C1408 1.415 . S
H1410 C1407 0.999 . S
H1411 C1392 0.913 . S
H1412 C1430 0.951 . S
H1413 C1432 0.951 . S
H1414 C1434 0.950 . S
H1415 C1435 0.950 . S
H1416 C1437 0.950 . S
H1417 C1440 0.950 . S
H1418 C1441 0.950 . S
H1419 C1443 0.950 . S
H1420 C1444 0.950 . S
H1421 C1445 0.951 . S
H1422 C1447 0.951 . S
H1423 C1449 0.950 . S
H1424 C1450 0.950 . S
H1425 C1452 0.950 . S
H1426 C1455 0.950 . S
H1427 C1456 0.950 . S
H1428 C1458 0.950 . S
H1429 C1459 0.950 . S
C1430 H1412 0.951 . S
C1430 C1431 1.366 . S
C1430 C1432 1.388 . S
C1431 C1430 1.366 . S
C1431 C1435 1.385 . S
C1432 H1413 0.951 . S
C1432 C1430 1.388 . S
C1432 C1433 1.366 . S
C1433 C1432 1.366 . S
C1433 C1434 1.414 . S
C1433 C1436 1.499 . S
C1434 H1414 0.950 . S
C1434 C1433 1.414 . S
C1434 C1435 1.374 . S
C1435 H1415 0.950 . S
C1435 C1431 1.385 . S
C1435 C1434 1.374 . S
C1436 C1433 1.499 . S
C1436 C1437 1.373 . S
C1436 C1438 1.389 . S
C1437 H1416 0.950 . S
C1437 C1436 1.373 . S
C1437 C1453 1.377 1_554 S
C1438 C1436 1.389 . S
C1438 C1439 1.524 . S
C1438 C1452 1.377 . S
C1439 C1438 1.524 . S
C1439 C1440 1.397 . S
C1439 C1444 1.363 . S
C1440 H1417 0.950 . S
C1440 C1439 1.397 . S
C1440 C1441 1.334 . S
C1441 H1418 0.950 . S
C1441 C1440 1.334 . S
C1441 C1442 1.287 . S
C1442 C1441 1.287 . S
C1442 C1443 1.524 . S
C1442 H1461 0.913 . S
C1443 H1419 0.950 . S
C1443 C1442 1.524 . S
C1443 C1444 1.415 . S
C1444 H1420 0.950 . S
C1444 C1439 1.363 . S
C1444 C1443 1.415 . S
C1445 H1421 0.951 . S
C1445 C1446 1.366 . S
C1445 C1447 1.388 . S
C1446 C1445 1.366 . S
C1446 C1450 1.385 . S
C1447 H1422 0.951 . S
C1447 C1445 1.388 . S
C1447 C1448 1.366 . S
C1448 C1447 1.366 . S
C1448 C1449 1.414 . S
C1448 C1451 1.499 . S
C1449 H1423 0.950 . S
C1449 C1448 1.414 . S
C1449 C1450 1.374 . S
C1450 H1424 0.950 . S
C1450 C1446 1.385 . S
C1450 C1449 1.374 . S
C1451 C1448 1.499 . S
C1451 C1452 1.373 1_556 S
C1451 C1453 1.389 . S
C1452 H1425 0.950 . S
C1452 C1438 1.377 . S
C1452 C1451 1.373 1_554 S
C1453 C1437 1.377 1_556 S
C1453 C1451 1.389 . S
C1453 C1454 1.524 . S
C1454 C1453 1.524 . S
C1454 C1455 1.397 . S
C1454 C1459 1.363 . S
C1455 H1426 0.950 . S
C1455 C1454 1.397 . S
C1455 C1456 1.334 . S
C1456 H1427 0.950 . S
C1456 C1455 1.334 . S
C1456 C1457 1.287 . S
C1457 C1456 1.287 . S
C1457 C1458 1.524 . S
C1457 H1460 0.999 . S
C1458 H1428 0.950 . S
C1458 C1457 1.524 . S
C1458 C1459 1.415 . S
C1459 H1429 0.950 . S
C1459 C1454 1.363 . S
C1459 C1458 1.415 . S
H1460 C1457 0.999 . S
H1461 C1442 0.913 . S
H1462 C1480 0.951 . S
H1463 C1482 0.951 . S
H1464 C1484 0.950 . S
H1465 C1485 0.950 . S
H1466 C1487 0.950 . S
H1467 C1490 0.950 . S
H1468 C1491 0.950 . S
H1469 C1493 0.950 . S
H1470 C1494 0.950 . S
H1471 C1495 0.953 . S
H1472 C1497 0.951 . S
H1473 C1499 0.950 . S
H1474 C1500 0.950 . S
H1475 C1502 0.950 . S
H1476 C1505 0.950 . S
H1477 C1506 0.950 . S
H1478 C1508 0.950 . S
H1479 C1509 0.950 . S
C1480 H1462 0.951 . S
C1480 C1481 1.366 . S
C1480 C1482 1.388 . S
C1481 C1480 1.366 . S
C1481 C1485 1.385 . S
C1482 H1463 0.951 . S
C1482 C1480 1.388 . S
C1482 C1483 1.366 . S
C1483 C1482 1.366 . S
C1483 C1484 1.414 . S
C1483 C1486 1.499 . S
C1484 H1464 0.950 . S
C1484 C1483 1.414 . S
C1484 C1485 1.374 . S
C1485 H1465 0.950 . S
C1485 C1481 1.385 . S
C1485 C1484 1.374 . S
C1486 C1483 1.499 . S
C1486 C1487 1.373 . S
C1486 C1488 1.389 . S
C1487 H1466 0.950 . S
C1487 C1486 1.373 . S
C1487 C1503 1.377 . S
C1488 C1486 1.389 . S
C1488 C1489 1.524 . S
C1488 C1502 1.377 . S
C1489 C1488 1.524 . S
C1489 C1490 1.397 . S
C1489 C1494 1.363 . S
C1490 H1467 0.950 . S
C1490 C1489 1.397 . S
C1490 C1491 1.334 . S
C1491 H1468 0.950 . S
C1491 C1490 1.334 . S
C1491 C1492 1.287 . S
C1492 C1491 1.287 . S
C1492 C1493 1.524 . S
C1492 H1511 0.913 . S
C1493 H1469 0.950 . S
C1493 C1492 1.524 . S
C1493 C1494 1.415 . S
C1494 H1470 0.950 . S
C1494 C1489 1.363 . S
C1494 C1493 1.415 . S
C1495 H1471 0.953 . S
C1495 C1496 1.369 . S
C1495 C1497 1.383 1_565 S
C1496 C1495 1.369 . S
C1496 C1500 1.385 . S
C1497 H1472 0.951 . S
C1497 C1495 1.383 1_545 S
C1497 C1498 1.366 . S
C1498 C1497 1.366 . S
C1498 C1499 1.414 . S
C1498 C1501 1.499 . S
C1499 H1473 0.950 . S
C1499 C1498 1.414 . S
C1499 C1500 1.374 1_545 S
C1500 H1474 0.950 . S
C1500 C1496 1.385 . S
C1500 C1499 1.374 1_565 S
C1501 C1498 1.499 . S
C1501 C1502 1.373 . S
C1501 C1503 1.389 . S
C1502 H1475 0.950 . S
C1502 C1488 1.377 . S
C1502 C1501 1.373 . S
C1503 C1487 1.377 . S
C1503 C1501 1.389 . S
C1503 C1504 1.524 . S
C1504 C1503 1.524 . S
C1504 C1505 1.397 1_545 S
C1504 C1509 1.363 . S
C1505 H1476 0.950 . S
C1505 C1504 1.397 1_565 S
C1505 C1506 1.334 . S
C1506 H1477 0.950 . S
C1506 C1505 1.334 . S
C1506 C1507 1.287 . S
C1507 C1506 1.287 . S
C1507 C1508 1.524 . S
C1507 H1510 0.999 . S
C1508 H1478 0.950 . S
C1508 C1507 1.524 . S
C1508 C1509 1.415 1_565 S
C1509 H1479 0.950 . S
C1509 C1504 1.363 . S
C1509 C1508 1.415 1_545 S
H1510 C1507 0.999 . S
H1511 C1492 0.913 . S
H1512 C1530 0.951 . S
H1513 C1532 0.951 . S
H1514 C1534 0.950 . S
H1515 C1535 0.950 . S
H1516 C1537 0.950 . S
H1517 C1540 0.950 . S
H1518 C1541 0.950 . S
H1519 C1543 0.950 . S
H1520 C1544 0.950 . S
H1521 C1545 0.951 . S
H1522 C1547 0.951 . S
H1523 C1549 0.950 . S
H1524 C1550 0.950 . S
H1525 C1552 0.950 . S
H1526 C1555 0.950 . S
H1527 C1556 0.950 . S
H1528 C1558 0.950 . S
H1529 C1559 0.950 . S
C1530 H1512 0.951 . S
C1530 C1531 1.366 . S
C1530 C1532 1.388 . S
C1531 C1530 1.366 . S
C1531 C1535 1.385 . S
C1532 H1513 0.951 . S
C1532 C1530 1.388 . S
C1532 C1533 1.366 . S
C1533 C1532 1.366 . S
C1533 C1534 1.414 . S
C1533 C1536 1.499 . S
C1534 H1514 0.950 . S
C1534 C1533 1.414 . S
C1534 C1535 1.374 . S
C1535 H1515 0.950 . S
C1535 C1531 1.385 . S
C1535 C1534 1.374 . S
C1536 C1533 1.499 . S
C1536 C1537 1.373 . S
C1536 C1538 1.389 . S
C1537 H1516 0.950 . S
C1537 C1536 1.373 . S
C1537 C1553 1.377 . S
C1538 C1536 1.389 . S
C1538 C1539 1.524 . S
C1538 C1552 1.377 . S
C1539 C1538 1.524 . S
C1539 C1540 1.397 . S
C1539 C1544 1.363 . S
C1540 H1517 0.950 . S
C1540 C1539 1.397 . S
C1540 C1541 1.334 . S
C1541 H1518 0.950 . S
C1541 C1540 1.334 . S
C1541 C1542 1.287 . S
C1542 C1541 1.287 . S
C1542 C1543 1.524 . S
C1542 H1561 0.913 . S
C1543 H1519 0.950 . S
C1543 C1542 1.524 . S
C1543 C1544 1.415 . S
C1544 H1520 0.950 . S
C1544 C1539 1.363 . S
C1544 C1543 1.415 . S
C1545 H1521 0.951 . S
C1545 C1546 1.366 . S
C1545 C1547 1.388 . S
C1546 C1545 1.366 . S
C1546 C1550 1.385 . S
C1547 H1522 0.951 . S
C1547 C1545 1.388 . S
C1547 C1548 1.366 . S
C1548 C1547 1.366 . S
C1548 C1549 1.414 . S
C1548 C1551 1.499 . S
C1549 H1523 0.950 . S
C1549 C1548 1.414 . S
C1549 C1550 1.374 . S
C1550 H1524 0.950 . S
C1550 C1546 1.385 . S
C1550 C1549 1.374 . S
C1551 C1548 1.499 . S
C1551 C1552 1.373 . S
C1551 C1553 1.389 . S
C1552 H1525 0.950 . S
C1552 C1538 1.377 . S
C1552 C1551 1.373 . S
C1553 C1537 1.377 . S
C1553 C1551 1.389 . S
C1553 C1554 1.524 . S
C1554 C1553 1.524 . S
C1554 C1555 1.397 . S
C1554 C1559 1.363 . S
C1555 H1526 0.950 . S
C1555 C1554 1.397 . S
C1555 C1556 1.334 . S
C1556 H1527 0.950 . S
C1556 C1555 1.334 . S
C1556 C1557 1.287 . S
C1557 C1556 1.287 . S
C1557 C1558 1.524 . S
C1557 H1560 0.999 . S
C1558 H1528 0.950 . S
C1558 C1557 1.524 . S
C1558 C1559 1.415 . S
C1559 H1529 0.950 . S
C1559 C1554 1.363 . S
C1559 C1558 1.415 . S
H1560 C1557 0.999 . S
H1561 C1542 0.913 . S
H1562 C1580 0.951 . S
H1563 C1582 0.951 . S
H1564 C1584 0.950 . S
H1565 C1585 0.950 . S
H1566 C1587 0.950 . S
H1567 C1590 0.950 . S
H1568 C1591 0.950 . S
H1569 C1593 0.950 . S
H1570 C1594 0.950 . S
H1571 C1595 0.951 . S
H1572 C1597 0.951 . S
H1573 C1599 0.950 . S
H1574 C1600 0.950 . S
H1575 C1602 0.950 . S
H1576 C1605 0.950 . S
H1577 C1606 0.950 . S
H1578 C1608 0.950 . S
H1579 C1609 0.950 . S
C1580 H1562 0.951 . S
C1580 C1581 1.366 1_545 S
C1580 C1582 1.388 . S
C1581 C1580 1.366 1_565 S
C1581 C1585 1.385 . S
C1582 H1563 0.951 . S
C1582 C1580 1.388 . S
C1582 C1583 1.366 . S
C1583 C1582 1.366 . S
C1583 C1584 1.414 1_545 S
C1583 C1586 1.499 . S
C1584 H1564 0.950 . S
C1584 C1583 1.414 1_565 S
C1584 C1585 1.374 . S
C1585 H1565 0.950 . S
C1585 C1581 1.385 . S
C1585 C1584 1.374 . S
C1586 C1583 1.499 . S
C1586 C1587 1.373 . S
C1586 C1588 1.389 . S
C1587 H1566 0.950 . S
C1587 C1586 1.373 . S
C1587 C1603 1.377 . S
C1588 C1586 1.389 . S
C1588 C1589 1.524 . S
C1588 C1602 1.377 . S
C1589 C1588 1.524 . S
C1589 C1590 1.397 . S
C1589 C1594 1.363 . S
C1590 H1567 0.950 . S
C1590 C1589 1.397 . S
C1590 C1591 1.334 . S
C1591 H1568 0.950 . S
C1591 C1590 1.334 . S
C1591 C1592 1.287 . S
C1592 C1591 1.287 . S
C1592 C1593 1.524 . S
C1592 H1611 0.913 . S
C1593 H1569 0.950 . S
C1593 C1592 1.524 . S
C1593 C1594 1.415 . S
C1594 H1570 0.950 . S
C1594 C1589 1.363 . S
C1594 C1593 1.415 . S
C1595 H1571 0.951 . S
C1595 C1596 1.366 . S
C1595 C1597 1.388 . S
C1596 C1595 1.366 . S
C1596 C1600 1.385 . S
C1597 H1572 0.951 . S
C1597 C1595 1.388 . S
C1597 C1598 1.366 . S
C1598 C1597 1.366 . S
C1598 C1599 1.414 . S
C1598 C1601 1.499 . S
C1599 H1573 0.950 . S
C1599 C1598 1.414 . S
C1599 C1600 1.374 . S
C1600 H1574 0.950 . S
C1600 C1596 1.385 . S
C1600 C1599 1.374 . S
C1601 C1598 1.499 . S
C1601 C1602 1.373 . S
C1601 C1603 1.389 . S
C1602 H1575 0.950 . S
C1602 C1588 1.377 . S
C1602 C1601 1.373 . S
C1603 C1587 1.377 . S
C1603 C1601 1.389 . S
C1603 C1604 1.524 . S
C1604 C1603 1.524 . S
C1604 C1605 1.397 . S
C1604 C1609 1.363 . S
C1605 H1576 0.950 . S
C1605 C1604 1.397 . S
C1605 C1606 1.334 . S
C1606 H1577 0.950 . S
C1606 C1605 1.334 . S
C1606 C1607 1.287 . S
C1607 C1606 1.287 . S
C1607 C1608 1.524 . S
C1607 H1610 0.999 . S
C1608 H1578 0.950 . S
C1608 C1607 1.524 . S
C1608 C1609 1.415 . S
C1609 H1579 0.950 . S
C1609 C1604 1.363 . S
C1609 C1608 1.415 . S
H1610 C1607 0.999 . S
H1611 C1592 0.913 . S
H1612 C1630 0.951 . S
H1613 C1632 0.951 . S
H1614 C1634 0.950 . S
H1615 C1635 0.950 . S
H1616 C1637 0.952 . S
H1617 C1640 0.950 . S
H1618 C1641 0.950 . S
H1619 C1643 0.950 . S
H1620 C1644 0.950 . S
H1621 C1645 0.951 . S
H1622 C1647 0.951 . S
H1623 C1649 0.950 . S
H1624 C1650 0.950 . S
H1625 C1652 0.950 . S
H1626 C1655 0.950 . S
H1627 C1656 0.950 . S
H1628 C1658 0.950 . S
H1629 C1659 0.950 . S
C1630 H1612 0.951 . S
C1630 C1631 1.366 . S
C1630 C1632 1.388 . S
C1631 C1630 1.366 . S
C1631 C1635 1.385 . S
C1632 H1613 0.951 . S
C1632 C1630 1.388 . S
C1632 C1633 1.366 . S
C1633 C1632 1.366 . S
C1633 C1634 1.414 . S
C1633 C1636 1.499 . S
C1634 H1614 0.950 . S
C1634 C1633 1.414 . S
C1634 C1635 1.374 . S
C1635 H1615 0.950 . S
C1635 C1631 1.385 . S
C1635 C1634 1.374 . S
C1636 C1633 1.499 . S
C1636 C1637 1.379 . S
C1636 C1638 1.389 . S
C1637 H1616 0.952 . S
C1637 C1636 1.379 . S
C1637 C1653 1.369 1_554 S
C1638 C1636 1.389 . S
C1638 C1639 1.524 . S
C1638 C1652 1.377 1_554 S
C1639 C1638 1.524 . S
C1639 C1640 1.397 . S
C1639 C1644 1.363 . S
C1640 H1617 0.950 . S
C1640 C1639 1.397 . S
C1640 C1641 1.334 . S
C1641 H1618 0.950 . S
C1641 C1640 1.334 . S
C1641 C1642 1.287 . S
C1642 C1641 1.287 . S
C1642 C1643 1.524 . S
C1642 H1661 0.913 . S
C1643 H1619 0.950 . S
C1643 C1642 1.524 . S
C1643 C1644 1.415 . S
C1644 H1620 0.950 . S
C1644 C1639 1.363 . S
C1644 C1643 1.415 . S
C1645 H1621 0.951 . S
C1645 C1646 1.366 . S
C1645 C1647 1.388 . S
C1646 C1645 1.366 . S
C1646 C1650 1.385 . S
C1647 H1622 0.951 . S
C1647 C1645 1.388 . S
C1647 C1648 1.366 . S
C1648 C1647 1.366 . S
C1648 C1649 1.414 . S
C1648 C1651 1.499 . S
C1649 H1623 0.950 . S
C1649 C1648 1.414 . S
C1649 C1650 1.374 . S
C1650 H1624 0.950 . S
C1650 C1646 1.385 . S
C1650 C1649 1.374 . S
C1651 C1648 1.499 . S
C1651 C1652 1.373 . S
C1651 C1653 1.389 . S
C1652 H1625 0.950 . S
C1652 C1638 1.377 1_556 S
C1652 C1651 1.373 . S
C1653 C1637 1.369 1_556 S
C1653 C1651 1.389 . S
C1653 C1654 1.524 . S
C1654 C1653 1.524 . S
C1654 C1655 1.397 . S
C1654 C1659 1.363 . S
C1655 H1626 0.950 . S
C1655 C1654 1.397 . S
C1655 C1656 1.334 . S
C1656 H1627 0.950 . S
C1656 C1655 1.334 . S
C1656 C1657 1.287 . S
C1657 C1656 1.287 . S
C1657 C1658 1.524 . S
C1657 H1660 0.999 . S
C1658 H1628 0.950 . S
C1658 C1657 1.524 . S
C1658 C1659 1.415 . S
C1659 H1629 0.950 . S
C1659 C1654 1.363 . S
C1659 C1658 1.415 . S
H1660 C1657 0.999 . S
H1661 C1642 0.913 . S
H1662 C1680 0.951 . S
H1663 C1682 0.951 . S
H1664 C1684 0.950 . S
H1665 C1685 0.950 . S
H1666 C1687 0.950 . S
H1667 C1690 0.950 . S
H1668 C1691 0.950 . S
H1669 C1693 0.950 . S
H1670 C1694 0.950 . S
H1671 C1695 0.951 . S
H1672 C1697 0.951 . S
H1673 C1699 0.950 . S
H1674 C1700 0.950 . S
H1675 C1702 0.950 . S
H1676 C1705 0.950 . S
H1677 C1706 0.950 . S
H1678 C1708 0.950 . S
H1679 C1709 0.950 . S
C1680 H1662 0.951 . S
C1680 C1681 1.366 1_565 S
C1680 C1682 1.388 . S
C1681 C1680 1.366 1_545 S
C1681 C1685 1.385 . S
C1682 H1663 0.951 . S
C1682 C1680 1.388 . S
C1682 C1683 1.366 . S
C1683 C1682 1.366 . S
C1683 C1684 1.414 1_565 S
C1683 C1686 1.499 . S
C1684 H1664 0.950 . S
C1684 C1683 1.414 1_545 S
C1684 C1685 1.374 . S
C1685 H1665 0.950 . S
C1685 C1681 1.385 . S
C1685 C1684 1.374 . S
C1686 C1683 1.499 . S
C1686 C1687 1.373 . S
C1686 C1688 1.389 . S
C1687 H1666 0.950 . S
C1687 C1686 1.373 . S
C1687 C1703 1.377 . S
C1688 C1686 1.389 . S
C1688 C1689 1.524 . S
C1688 C1702 1.377 . S
C1689 C1688 1.524 . S
C1689 C1690 1.397 . S
C1689 C1694 1.363 . S
C1690 H1667 0.950 . S
C1690 C1689 1.397 . S
C1690 C1691 1.334 . S
C1691 H1668 0.950 . S
C1691 C1690 1.334 . S
C1691 C1692 1.287 . S
C1692 C1691 1.287 . S
C1692 C1693 1.524 . S
C1692 H1711 0.913 . S
C1693 H1669 0.950 . S
C1693 C1692 1.524 . S
C1693 C1694 1.415 . S
C1694 H1670 0.950 . S
C1694 C1689 1.363 . S
C1694 C1693 1.415 . S
C1695 H1671 0.951 . S
C1695 C1696 1.366 . S
C1695 C1697 1.388 . S
C1696 C1695 1.366 . S
C1696 C1700 1.385 . S
C1697 H1672 0.951 . S
C1697 C1695 1.388 . S
C1697 C1698 1.366 . S
C1698 C1697 1.366 . S
C1698 C1699 1.414 . S
C1698 C1701 1.499 . S
C1699 H1673 0.950 . S
C1699 C1698 1.414 . S
C1699 C1700 1.374 . S
C1700 H1674 0.950 . S
C1700 C1696 1.385 . S
C1700 C1699 1.374 . S
C1701 C1698 1.499 . S
C1701 C1702 1.373 . S
C1701 C1703 1.389 . S
C1702 H1675 0.950 . S
C1702 C1688 1.377 . S
C1702 C1701 1.373 . S
C1703 C1687 1.377 . S
C1703 C1701 1.389 . S
C1703 C1704 1.524 . S
C1704 C1703 1.524 . S
C1704 C1705 1.397 . S
C1704 C1709 1.363 1_565 S
C1705 H1676 0.950 . S
C1705 C1704 1.397 . S
C1705 C1706 1.334 . S
C1706 H1677 0.950 . S
C1706 C1705 1.334 . S
C1706 C1707 1.287 1_565 S
C1707 C1706 1.287 1_545 S
C1707 C1708 1.524 . S
C1707 H1710 0.999 . S
C1708 H1678 0.950 . S
C1708 C1707 1.524 . S
C1708 C1709 1.415 . S
C1709 H1679 0.950 . S
C1709 C1704 1.363 1_545 S
C1709 C1708 1.415 . S
H1710 C1707 0.999 . S
H1711 C1692 0.913 . S
H1712 C1730 0.951 . S
H1713 C1732 0.951 . S
H1714 C1734 0.950 . S
H1715 C1735 0.950 . S
H1716 C1737 0.950 . S
H1717 C1740 0.950 . S
H1718 C1741 0.950 . S
H1719 C1743 0.950 . S
H1720 C1744 0.950 . S
H1721 C1745 0.951 . S
H1722 C1747 0.951 . S
H1723 C1749 0.950 . S
H1724 C1750 0.950 . S
H1725 C1752 0.950 . S
H1726 C1755 0.950 . S
H1727 C1756 0.950 . S
H1728 C1758 0.950 . S
H1729 C1759 0.950 . S
C1730 H1712 0.951 . S
C1730 C1731 1.366 . S
C1730 C1732 1.388 . S
C1731 C1730 1.366 . S
C1731 C1735 1.385 . S
C1732 H1713 0.951 . S
C1732 C1730 1.388 . S
C1732 C1733 1.366 . S
C1733 C1732 1.366 . S
C1733 C1734 1.414 . S
C1733 C1736 1.499 . S
C1734 H1714 0.950 . S
C1734 C1733 1.414 . S
C1734 C1735 1.374 . S
C1735 H1715 0.950 . S
C1735 C1731 1.385 . S
C1735 C1734 1.374 . S
C1736 C1733 1.499 . S
C1736 C1737 1.373 . S
C1736 C1738 1.389 . S
C1737 H1716 0.950 . S
C1737 C1736 1.373 . S
C1737 C1753 1.377 . S
C1738 C1736 1.389 . S
C1738 C1739 1.524 . S
C1738 C1752 1.377 . S
C1739 C1738 1.524 . S
C1739 C1740 1.397 . S
C1739 C1744 1.363 . S
C1740 H1717 0.950 . S
C1740 C1739 1.397 . S
C1740 C1741 1.334 . S
C1741 H1718 0.950 . S
C1741 C1740 1.334 . S
C1741 C1742 1.287 . S
C1742 C1741 1.287 . S
C1742 C1743 1.524 . S
C1742 H1761 0.913 . S
C1743 H1719 0.950 . S
C1743 C1742 1.524 . S
C1743 C1744 1.415 . S
C1744 H1720 0.950 . S
C1744 C1739 1.363 . S
C1744 C1743 1.415 . S
C1745 H1721 0.951 . S
C1745 C1746 1.366 . S
C1745 C1747 1.388 . S
C1746 C1745 1.366 . S
C1746 C1750 1.385 . S
C1747 H1722 0.951 . S
C1747 C1745 1.388 . S
C1747 C1748 1.366 . S
C1748 C1747 1.366 . S
C1748 C1749 1.414 . S
C1748 C1751 1.499 . S
C1749 H1723 0.950 . S
C1749 C1748 1.414 . S
C1749 C1750 1.374 . S
C1750 H1724 0.950 . S
C1750 C1746 1.385 . S
C1750 C1749 1.374 . S
C1751 C1748 1.499 . S
C1751 C1752 1.373 . S
C1751 C1753 1.389 . S
C1752 H1725 0.950 . S
C1752 C1738 1.377 . S
C1752 C1751 1.373 . S
C1753 C1737 1.377 . S
C1753 C1751 1.389 . S
C1753 C1754 1.524 . S
C1754 C1753 1.524 . S
C1754 C1755 1.397 . S
C1754 C1759 1.363 . S
C1755 H1726 0.950 . S
C1755 C1754 1.397 . S
C1755 C1756 1.334 . S
C1756 H1727 0.950 . S
C1756 C1755 1.334 . S
C1756 C1757 1.287 . S
C1757 C1756 1.287 . S
C1757 C1758 1.524 . S
C1757 H1760 0.999 . S
C1758 H1728 0.950 . S
C1758 C1757 1.524 . S
C1758 C1759 1.415 . S
C1759 H1729 0.950 . S
C1759 C1754 1.363 . S
C1759 C1758 1.415 . S
H1760 C1757 0.999 . S
H1761 C1742 0.913 . S
H1762 C1780 0.951 . S
H1763 C1782 0.951 . S
H1764 C1784 0.950 . S
H1765 C1785 0.950 . S
H1766 C1787 0.950 . S
H1767 C1790 0.950 . S
H1768 C1791 0.950 . S
H1769 C1793 0.950 . S
H1770 C1794 0.950 . S
H1771 C1795 0.951 . S
H1772 C1797 0.951 . S
H1773 C1799 0.950 . S
H1774 C1800 0.950 . S
H1775 C1802 0.950 . S
H1776 C1805 0.950 . S
H1777 C1806 0.950 . S
H1778 C1808 0.950 . S
H1779 C1809 0.950 . S
C1780 H1762 0.951 . S
C1780 C1781 1.366 . S
C1780 C1782 1.388 . S
C1781 C1780 1.366 . S
C1781 C1785 1.385 . S
C1782 H1763 0.951 . S
C1782 C1780 1.388 . S
C1782 C1783 1.366 . S
C1783 C1782 1.366 . S
C1783 C1784 1.414 . S
C1783 C1786 1.499 . S
C1784 H1764 0.950 . S
C1784 C1783 1.414 . S
C1784 C1785 1.374 . S
C1785 H1765 0.950 . S
C1785 C1781 1.385 . S
C1785 C1784 1.374 . S
C1786 C1783 1.499 . S
C1786 C1787 1.373 . S
C1786 C1788 1.389 . S
C1787 H1766 0.950 . S
C1787 C1786 1.373 . S
C1787 C1803 1.377 . S
C1788 C1786 1.389 . S
C1788 C1789 1.524 . S
C1788 C1802 1.377 . S
C1789 C1788 1.524 . S
C1789 C1790 1.397 . S
C1789 C1794 1.363 . S
C1790 H1767 0.950 . S
C1790 C1789 1.397 . S
C1790 C1791 1.334 . S
C1791 H1768 0.950 . S
C1791 C1790 1.334 . S
C1791 C1792 1.287 . S
C1792 C1791 1.287 . S
C1792 C1793 1.524 . S
C1792 H1811 0.913 . S
C1793 H1769 0.950 . S
C1793 C1792 1.524 . S
C1793 C1794 1.415 . S
C1794 H1770 0.950 . S
C1794 C1789 1.363 . S
C1794 C1793 1.415 . S
C1795 H1771 0.951 . S
C1795 C1796 1.366 . S
C1795 C1797 1.388 . S
C1796 C1795 1.366 . S
C1796 C1800 1.385 . S
C1797 H1772 0.951 . S
C1797 C1795 1.388 . S
C1797 C1798 1.366 . S
C1798 C1797 1.366 . S
C1798 C1799 1.414 . S
C1798 C1801 1.499 . S
C1799 H1773 0.950 . S
C1799 C1798 1.414 . S
C1799 C1800 1.374 . S
C1800 H1774 0.950 . S
C1800 C1796 1.385 . S
C1800 C1799 1.374 . S
C1801 C1798 1.499 . S
C1801 C1802 1.373 . S
C1801 C1803 1.389 . S
C1802 H1775 0.950 . S
C1802 C1788 1.377 . S
C1802 C1801 1.373 . S
C1803 C1787 1.377 . S
C1803 C1801 1.389 . S
C1803 C1804 1.524 . S
C1804 C1803 1.524 . S
C1804 C1805 1.397 . S
C1804 C1809 1.363 . S
C1805 H1776 0.950 . S
C1805 C1804 1.397 . S
C1805 C1806 1.334 . S
C1806 H1777 0.950 . S
C1806 C1805 1.334 . S
C1806 C1807 1.287 . S
C1807 C1806 1.287 . S
C1807 C1808 1.524 . S
C1807 H1810 0.999 . S
C1808 H1778 0.950 . S
C1808 C1807 1.524 . S
C1808 C1809 1.415 . S
C1809 H1779 0.950 . S
C1809 C1804 1.363 . S
C1809 C1808 1.415 . S
H1810 C1807 0.999 . S
H1811 C1792 0.913 . S
H1812 C1830 0.951 . S
H1813 C1832 0.951 . S
H1814 C1834 0.950 . S
H1815 C1835 0.950 . S
H1816 C1837 0.950 . S
H1817 C1840 0.950 . S
H1818 C1841 0.950 . S
H1819 C1843 0.950 . S
H1820 C1844 0.950 . S
H1821 C1845 0.951 . S
H1822 C1847 0.951 . S
H1823 C1849 0.950 . S
H1824 C1850 0.950 . S
H1825 C1852 0.950 . S
H1826 C1855 0.950 . S
H1827 C1856 0.950 . S
H1828 C1858 0.950 . S
H1829 C1859 0.950 . S
C1830 H1812 0.951 . S
C1830 C1831 1.366 . S
C1830 C1832 1.388 . S
C1831 C1830 1.366 . S
C1831 C1835 1.385 . S
C1832 H1813 0.951 . S
C1832 C1830 1.388 . S
C1832 C1833 1.366 . S
C1833 C1832 1.366 . S
C1833 C1834 1.414 . S
C1833 C1836 1.499 . S
C1834 H1814 0.950 . S
C1834 C1833 1.414 . S
C1834 C1835 1.374 . S
C1835 H1815 0.950 . S
C1835 C1831 1.385 . S
C1835 C1834 1.374 . S
C1836 C1833 1.499 . S
C1836 C1837 1.373 . S
C1836 C1838 1.389 . S
C1837 H1816 0.950 . S
C1837 C1836 1.373 . S
C1837 C1853 1.377 1_655 S
C1838 C1836 1.389 . S
C1838 C1839 1.524 . S
C1838 C1852 1.377 1_655 S
C1839 C1838 1.524 . S
C1839 C1840 1.397 . S
C1839 C1844 1.363 1_655 S
C1840 H1817 0.950 . S
C1840 C1839 1.397 . S
C1840 C1841 1.334 . S
C1841 H1818 0.950 . S
C1841 C1840 1.334 . S
C1841 C1842 1.287 . S
C1842 C1841 1.287 . S
C1842 C1843 1.524 1_655 S
C1842 H1861 0.913 . S
C1843 H1819 0.950 . S
C1843 C1842 1.524 1_455 S
C1843 C1844 1.415 . S
C1844 H1820 0.950 . S
C1844 C1839 1.363 1_455 S
C1844 C1843 1.415 . S
C1845 H1821 0.951 . S
C1845 C1846 1.366 . S
C1845 C1847 1.388 . S
C1846 C1845 1.366 . S
C1846 C1850 1.385 . S
C1847 H1822 0.951 . S
C1847 C1845 1.388 . S
C1847 C1848 1.366 . S
C1848 C1847 1.366 . S
C1848 C1849 1.414 . S
C1848 C1851 1.499 . S
C1849 H1823 0.950 . S
C1849 C1848 1.414 . S
C1849 C1850 1.374 . S
C1850 H1824 0.950 . S
C1850 C1846 1.385 . S
C1850 C1849 1.374 . S
C1851 C1848 1.499 . S
C1851 C1852 1.373 . S
C1851 C1853 1.389 . S
C1852 H1825 0.950 . S
C1852 C1838 1.377 1_455 S
C1852 C1851 1.373 . S
C1853 C1837 1.377 1_455 S
C1853 C1851 1.389 . S
C1853 C1854 1.524 . S
C1854 C1853 1.524 . S
C1854 C1855 1.397 . S
C1854 C1859 1.363 1_455 S
C1855 H1826 0.950 . S
C1855 C1854 1.397 . S
C1855 C1856 1.334 . S
C1856 H1827 0.950 . S
C1856 C1855 1.334 . S
C1856 C1857 1.287 . S
C1857 C1856 1.287 . S
C1857 C1858 1.524 1_455 S
C1857 H1860 0.999 . S
C1858 H1828 0.950 . S
C1858 C1857 1.524 1_655 S
C1858 C1859 1.415 . S
C1859 H1829 0.950 . S
C1859 C1854 1.363 1_655 S
C1859 C1858 1.415 . S
H1860 C1857 0.999 . S
H1861 C1842 0.913 . S
H1862 C1880 0.951 . S
H1863 C1882 0.951 . S
H1864 C1884 0.950 1_455 S
H1865 C1885 0.950 . S
H1866 C1887 0.950 . S
H1867 C1890 0.950 . S
H1868 C1891 0.950 . S
H1869 C1893 0.950 . S
H1870 C1894 0.950 . S
H1871 C1895 0.951 . S
H1872 C1897 0.951 . S
H1873 C1899 0.950 1_655 S
H1874 C1900 0.950 . S
H1875 C1902 0.950 . S
H1876 C1905 0.950 . S
H1877 C1906 0.950 . S
H1878 C1908 0.950 . S
H1879 C1909 0.950 . S
C1880 H1862 0.951 . S
C1880 C1881 1.366 . S
C1880 C1882 1.388 . S
C1881 C1880 1.366 . S
C1881 C1885 1.385 . S
C1882 H1863 0.951 . S
C1882 C1880 1.388 . S
C1882 C1883 1.366 . S
C1883 C1882 1.366 . S
C1883 C1884 1.414 . S
C1883 C1886 1.499 . S
C1884 H1864 0.950 1_655 S
C1884 C1883 1.414 . S
C1884 C1885 1.374 . S
C1885 H1865 0.950 . S
C1885 C1881 1.385 . S
C1885 C1884 1.374 . S
C1886 C1883 1.499 . S
C1886 C1887 1.373 1_655 S
C1886 C1888 1.389 . S
C1887 H1866 0.950 . S
C1887 C1886 1.373 1_455 S
C1887 C1903 1.377 . S
C1888 C1886 1.389 . S
C1888 C1889 1.524 . S
C1888 C1902 1.377 . S
C1889 C1888 1.524 . S
C1889 C1890 1.397 . S
C1889 C1894 1.363 . S
C1890 H1867 0.950 . S
C1890 C1889 1.397 . S
C1890 C1891 1.334 . S
C1891 H1868 0.950 . S
C1891 C1890 1.334 . S
C1891 C1892 1.287 . S
C1892 C1891 1.287 . S
C1892 C1893 1.524 . S
C1892 H1911 0.913 . S
C1893 H1869 0.950 . S
C1893 C1892 1.524 . S
C1893 C1894 1.415 . S
C1894 H1870 0.950 . S
C1894 C1889 1.363 . S
C1894 C1893 1.415 . S
C1895 H1871 0.951 . S
C1895 C1896 1.366 . S
C1895 C1897 1.388 . S
C1896 C1895 1.366 . S
C1896 C1900 1.385 . S
C1897 H1872 0.951 . S
C1897 C1895 1.388 . S
C1897 C1898 1.366 . S
C1898 C1897 1.366 . S
C1898 C1899 1.414 . S
C1898 C1901 1.499 . S
C1899 H1873 0.950 1_455 S
C1899 C1898 1.414 . S
C1899 C1900 1.374 . S
C1900 H1874 0.950 . S
C1900 C1896 1.385 . S
C1900 C1899 1.374 . S
C1901 C1898 1.499 . S
C1901 C1902 1.373 1_455 S
C1901 C1903 1.389 . S
C1902 H1875 0.950 . S
C1902 C1888 1.377 . S
C1902 C1901 1.373 1_655 S
C1903 C1887 1.377 . S
C1903 C1901 1.389 . S
C1903 C1904 1.524 . S
C1904 C1903 1.524 . S
C1904 C1905 1.397 . S
C1904 C1909 1.363 . S
C1905 H1876 0.950 . S
C1905 C1904 1.397 . S
C1905 C1906 1.334 . S
C1906 H1877 0.950 . S
C1906 C1905 1.334 . S
C1906 C1907 1.287 . S
C1907 C1906 1.287 . S
C1907 C1908 1.524 . S
C1907 H1910 0.999 . S
C1908 H1878 0.950 . S
C1908 C1907 1.524 . S
C1908 C1909 1.415 . S
C1909 H1879 0.950 . S
C1909 C1904 1.363 . S
C1909 C1908 1.415 . S
H1910 C1907 0.999 . S
H1911 C1892 0.913 . S
H1912 C1930 0.951 . S
H1913 C1932 0.951 . S
H1914 C1934 0.950 . S
H1915 C1935 0.950 . S
H1916 C1937 0.950 . S
H1917 C1940 0.950 . S
H1918 C1941 0.950 . S
H1919 C1943 0.950 . S
H1920 C1944 0.950 . S
H1921 C1945 0.951 . S
H1922 C1947 0.951 . S
H1923 C1949 0.950 . S
H1924 C1950 0.950 . S
H1925 C1952 0.950 . S
H1926 C1955 0.950 . S
H1927 C1956 0.950 . S
H1928 C1958 0.950 . S
H1929 C1959 0.950 . S
C1930 H1912 0.951 . S
C1930 C1931 1.366 . S
C1930 C1932 1.388 . S
C1931 C1930 1.366 . S
C1931 C1935 1.385 . S
C1932 H1913 0.951 . S
C1932 C1930 1.388 . S
C1932 C1933 1.366 . S
C1933 C1932 1.366 . S
C1933 C1934 1.414 . S
C1933 C1936 1.499 . S
C1934 H1914 0.950 . S
C1934 C1933 1.414 . S
C1934 C1935 1.374 . S
C1935 H1915 0.950 . S
C1935 C1931 1.385 . S
C1935 C1934 1.374 . S
C1936 C1933 1.499 . S
C1936 C1937 1.373 . S
C1936 C1938 1.389 . S
C1937 H1916 0.950 . S
C1937 C1936 1.373 . S
C1937 C1953 1.377 . S
C1938 C1936 1.389 . S
C1938 C1939 1.524 . S
C1938 C1952 1.377 . S
C1939 C1938 1.524 . S
C1939 C1940 1.397 . S
C1939 C1944 1.363 . S
C1940 H1917 0.950 . S
C1940 C1939 1.397 . S
C1940 C1941 1.334 . S
C1941 H1918 0.950 . S
C1941 C1940 1.334 . S
C1941 C1942 1.287 . S
C1942 C1941 1.287 . S
C1942 C1943 1.524 . S
C1942 H1961 0.913 . S
C1943 H1919 0.950 . S
C1943 C1942 1.524 . S
C1943 C1944 1.415 . S
C1944 H1920 0.950 . S
C1944 C1939 1.363 . S
C1944 C1943 1.415 . S
C1945 H1921 0.951 . S
C1945 C1946 1.366 . S
C1945 C1947 1.388 . S
C1946 C1945 1.366 . S
C1946 C1950 1.385 . S
C1947 H1922 0.951 . S
C1947 C1945 1.388 . S
C1947 C1948 1.366 . S
C1948 C1947 1.366 . S
C1948 C1949 1.414 . S
C1948 C1951 1.499 . S
C1949 H1923 0.950 . S
C1949 C1948 1.414 . S
C1949 C1950 1.374 . S
C1950 H1924 0.950 . S
C1950 C1946 1.385 . S
C1950 C1949 1.374 . S
C1951 C1948 1.499 . S
C1951 C1952 1.373 . S
C1951 C1953 1.389 . S
C1952 H1925 0.950 . S
C1952 C1938 1.377 . S
C1952 C1951 1.373 . S
C1953 C1937 1.377 . S
C1953 C1951 1.389 . S
C1953 C1954 1.524 . S
C1954 C1953 1.524 . S
C1954 C1955 1.397 . S
C1954 C1959 1.363 . S
C1955 H1926 0.950 . S
C1955 C1954 1.397 . S
C1955 C1956 1.334 . S
C1956 H1927 0.950 . S
C1956 C1955 1.334 . S
C1956 C1957 1.287 . S
C1957 C1956 1.287 . S
C1957 C1958 1.524 . S
C1957 H1960 0.999 . S
C1958 H1928 0.950 . S
C1958 C1957 1.524 . S
C1958 C1959 1.415 . S
C1959 H1929 0.950 . S
C1959 C1954 1.363 . S
C1959 C1958 1.415 . S
H1960 C1957 0.999 . S
H1961 C1942 0.913 . S
H1962 C1980 0.951 . S
H1963 C1982 0.951 . S
H1964 C1984 0.950 . S
H1965 C1985 0.950 . S
H1966 C1987 0.950 . S
H1967 C1990 0.950 . S
H1968 C1991 0.950 . S
H1969 C1993 0.950 . S
H1970 C1994 0.950 . S
H1971 C1995 0.951 . S
H1972 C1997 0.951 . S
H1973 C1999 0.950 . S
H1974 C2000 0.950 . S
H1975 C2002 0.950 . S
H1976 C2005 0.950 . S
H1977 C2006 0.950 . S
H1978 C2008 0.950 . S
H1979 C2009 0.950 . S
C1980 H1962 0.951 . S
C1980 C1981 1.366 . S
C1980 C1982 1.388 . S
C1981 C1980 1.366 . S
C1981 C1985 1.385 . S
C1982 H1963 0.951 . S
C1982 C1980 1.388 . S
C1982 C1983 1.366 . S
C1983 C1982 1.366 . S
C1983 C1984 1.414 . S
C1983 C1986 1.499 . S
C1984 H1964 0.950 . S
C1984 C1983 1.414 . S
C1984 C1985 1.374 . S
C1985 H1965 0.950 . S
C1985 C1981 1.385 . S
C1985 C1984 1.374 . S
C1986 C1983 1.499 . S
C1986 C1987 1.373 . S
C1986 C1988 1.389 . S
C1987 H1966 0.950 . S
C1987 C1986 1.373 . S
C1987 C2003 1.377 . S
C1988 C1986 1.389 . S
C1988 C1989 1.524 . S
C1988 C2002 1.377 . S
C1989 C1988 1.524 . S
C1989 C1990 1.397 . S
C1989 C1994 1.363 . S
C1990 H1967 0.950 . S
C1990 C1989 1.397 . S
C1990 C1991 1.334 . S
C1991 H1968 0.950 . S
C1991 C1990 1.334 . S
C1991 C1992 1.287 . S
C1992 C1991 1.287 . S
C1992 C1993 1.524 . S
C1992 H2011 0.913 . S
C1993 H1969 0.950 . S
C1993 C1992 1.524 . S
C1993 C1994 1.415 . S
C1994 H1970 0.950 . S
C1994 C1989 1.363 . S
C1994 C1993 1.415 . S
C1995 H1971 0.951 . S
C1995 C1996 1.366 . S
C1995 C1997 1.388 . S
C1996 C1995 1.366 . S
C1996 C2000 1.385 . S
C1997 H1972 0.951 . S
C1997 C1995 1.388 . S
C1997 C1998 1.366 . S
C1998 C1997 1.366 . S
C1998 C1999 1.414 . S
C1998 C2001 1.499 . S
C1999 H1973 0.950 . S
C1999 C1998 1.414 . S
C1999 C2000 1.374 . S
C2000 H1974 0.950 . S
C2000 C1996 1.385 . S
C2000 C1999 1.374 . S
C2001 C1998 1.499 . S
C2001 C2002 1.373 . S
C2001 C2003 1.389 . S
C2002 H1975 0.950 . S
C2002 C1988 1.377 . S
C2002 C2001 1.373 . S
C2003 C1987 1.377 . S
C2003 C2001 1.389 . S
C2003 C2004 1.524 . S
C2004 C2003 1.524 . S
C2004 C2005 1.397 . S
C2004 C2009 1.363 . S
C2005 H1976 0.950 . S
C2005 C2004 1.397 . S
C2005 C2006 1.334 . S
C2006 H1977 0.950 . S
C2006 C2005 1.334 . S
C2006 C2007 1.287 . S
C2007 C2006 1.287 . S
C2007 C2008 1.524 . S
C2007 H2010 0.999 . S
C2008 H1978 0.950 . S
C2008 C2007 1.524 . S
C2008 C2009 1.415 . S
C2009 H1979 0.950 . S
C2009 C2004 1.363 . S
C2009 C2008 1.415 . S
H2010 C2007 0.999 . S
H2011 C1992 0.913 . S
H2012 C2030 0.951 . S
H2013 C2032 0.951 . S
H2014 C2034 0.950 . S
H2015 C2035 0.950 . S
H2016 C2037 0.950 . S
H2017 C2040 0.950 . S
H2018 C2041 0.950 . S
H2019 C2043 0.950 . S
H2020 C2044 0.950 . S
H2021 C2045 0.951 . S
H2022 C2047 0.951 . S
H2023 C2049 0.950 . S
H2024 C2050 0.950 . S
H2025 C2052 0.950 . S
H2026 C2055 0.950 . S
H2027 C2056 0.950 . S
H2028 C2058 0.950 . S
H2029 C2059 0.950 . S
C2030 H2012 0.951 . S
C2030 C2031 1.366 . S
C2030 C2032 1.388 . S
C2031 C2030 1.366 . S
C2031 C2035 1.385 . S
C2032 H2013 0.951 . S
C2032 C2030 1.388 . S
C2032 C2033 1.366 . S
C2033 C2032 1.366 . S
C2033 C2034 1.414 . S
C2033 C2036 1.499 . S
C2034 H2014 0.950 . S
C2034 C2033 1.414 . S
C2034 C2035 1.374 . S
C2035 H2015 0.950 . S
C2035 C2031 1.385 . S
C2035 C2034 1.374 . S
C2036 C2033 1.499 . S
C2036 C2037 1.373 . S
C2036 C2038 1.389 . S
C2037 H2016 0.950 . S
C2037 C2036 1.373 . S
C2037 C2053 1.377 1_455 S
C2038 C2036 1.389 . S
C2038 C2039 1.524 . S
C2038 C2052 1.377 1_455 S
C2039 C2038 1.524 . S
C2039 C2040 1.397 . S
C2039 C2044 1.363 1_455 S
C2040 H2017 0.950 . S
C2040 C2039 1.397 . S
C2040 C2041 1.334 . S
C2041 H2018 0.950 . S
C2041 C2040 1.334 . S
C2041 C2042 1.287 . S
C2042 C2041 1.287 . S
C2042 C2043 1.524 1_455 S
C2042 H2061 0.913 . S
C2043 H2019 0.950 . S
C2043 C2042 1.524 1_655 S
C2043 C2044 1.415 . S
C2044 H2020 0.950 . S
C2044 C2039 1.363 1_655 S
C2044 C2043 1.415 . S
C2045 H2021 0.951 . S
C2045 C2046 1.366 . S
C2045 C2047 1.388 . S
C2046 C2045 1.366 . S
C2046 C2050 1.385 . S
C2047 H2022 0.951 . S
C2047 C2045 1.388 . S
C2047 C2048 1.366 . S
C2048 C2047 1.366 . S
C2048 C2049 1.414 . S
C2048 C2051 1.499 . S
C2049 H2023 0.950 . S
C2049 C2048 1.414 . S
C2049 C2050 1.374 . S
C2050 H2024 0.950 . S
C2050 C2046 1.385 . S
C2050 C2049 1.374 . S
C2051 C2048 1.499 . S
C2051 C2052 1.373 . S
C2051 C2053 1.389 . S
C2052 H2025 0.950 . S
C2052 C2038 1.377 1_655 S
C2052 C2051 1.373 . S
C2053 C2037 1.377 1_655 S
C2053 C2051 1.389 . S
C2053 C2054 1.524 . S
C2054 C2053 1.524 . S
C2054 C2055 1.397 . S
C2054 C2059 1.363 1_655 S
C2055 H2026 0.950 . S
C2055 C2054 1.397 . S
C2055 C2056 1.334 . S
C2056 H2027 0.950 . S
C2056 C2055 1.334 . S
C2056 C2057 1.287 . S
C2057 C2056 1.287 . S
C2057 C2058 1.524 1_655 S
C2057 H2060 0.999 . S
C2058 H2028 0.950 . S
C2058 C2057 1.524 1_455 S
C2058 C2059 1.415 . S
C2059 H2029 0.950 . S
C2059 C2054 1.363 1_455 S
C2059 C2058 1.415 . S
H2060 C2057 0.999 . S
H2061 C2042 0.913 . S
H2062 C2080 0.951 . S
H2063 C2082 0.951 1_655 S
H2064 C2084 0.950 . S
H2065 C2085 0.950 . S
H2066 C2087 0.950 . S
H2067 C2090 0.950 . S
H2068 C2091 0.950 . S
H2069 C2093 0.950 . S
H2070 C2094 0.950 . S
H2071 C2095 0.951 . S
H2072 C2097 0.951 1_455 S
H2073 C2099 0.950 . S
H2074 C2100 0.950 . S
H2075 C2102 0.950 . S
H2076 C2105 0.950 . S
H2077 C2106 0.950 . S
H2078 C2108 0.950 . S
H2079 C2109 0.950 . S
C2080 H2062 0.951 . S
C2080 C2081 1.366 . S
C2080 C2082 1.388 . S
C2081 C2080 1.366 . S
C2081 C2085 1.385 . S
C2082 H2063 0.951 1_455 S
C2082 C2080 1.388 . S
C2082 C2083 1.366 . S
C2083 C2082 1.366 . S
C2083 C2084 1.414 . S
C2083 C2086 1.499 . S
C2084 H2064 0.950 . S
C2084 C2083 1.414 . S
C2084 C2085 1.374 . S
C2085 H2065 0.950 . S
C2085 C2081 1.385 . S
C2085 C2084 1.374 . S
C2086 C2083 1.499 . S
C2086 C2087 1.373 . S
C2086 C2088 1.389 . S
C2087 H2066 0.950 . S
C2087 C2086 1.373 . S
C2087 C2103 1.377 1_455 S
C2088 C2086 1.389 . S
C2088 C2089 1.524 . S
C2088 C2102 1.377 1_455 S
C2089 C2088 1.524 . S
C2089 C2090 1.397 . S
C2089 C2094 1.363 1_455 S
C2090 H2067 0.950 . S
C2090 C2089 1.397 . S
C2090 C2091 1.334 . S
C2091 H2068 0.950 . S
C2091 C2090 1.334 . S
C2091 C2092 1.287 . S
C2092 C2091 1.287 . S
C2092 C2093 1.524 1_455 S
C2092 H2111 0.913 . S
C2093 H2069 0.950 . S
C2093 C2092 1.524 1_655 S
C2093 C2094 1.415 . S
C2094 H2070 0.950 . S
C2094 C2089 1.363 1_655 S
C2094 C2093 1.415 . S
C2095 H2071 0.951 . S
C2095 C2096 1.366 . S
C2095 C2097 1.388 . S
C2096 C2095 1.366 . S
C2096 C2100 1.385 . S
C2097 H2072 0.951 1_655 S
C2097 C2095 1.388 . S
C2097 C2098 1.366 . S
C2098 C2097 1.366 . S
C2098 C2099 1.414 . S
C2098 C2101 1.499 . S
C2099 H2073 0.950 . S
C2099 C2098 1.414 . S
C2099 C2100 1.374 . S
C2100 H2074 0.950 . S
C2100 C2096 1.385 . S
C2100 C2099 1.374 . S
C2101 C2098 1.499 . S
C2101 C2102 1.373 . S
C2101 C2103 1.389 . S
C2102 H2075 0.950 . S
C2102 C2088 1.377 1_655 S
C2102 C2101 1.373 . S
C2103 C2087 1.377 1_655 S
C2103 C2101 1.389 . S
C2103 C2104 1.524 . S
C2104 C2103 1.524 . S
C2104 C2105 1.397 . S
C2104 C2109 1.363 1_655 S
C2105 H2076 0.950 . S
C2105 C2104 1.397 . S
C2105 C2106 1.334 . S
C2106 H2077 0.950 . S
C2106 C2105 1.334 . S
C2106 C2107 1.287 . S
C2107 C2106 1.287 . S
C2107 C2108 1.524 1_655 S
C2107 H2110 0.999 . S
C2108 H2078 0.950 . S
C2108 C2107 1.524 1_455 S
C2108 C2109 1.415 . S
C2109 H2079 0.950 . S
C2109 C2104 1.363 1_455 S
C2109 C2108 1.415 . S
H2110 C2107 0.999 . S
H2111 C2092 0.913 . S
H2112 C2130 0.951 . S
H2113 C2132 0.951 . S
H2114 C2134 0.950 . S
H2115 C2135 0.950 . S
H2116 C2137 0.950 . S
H2117 C2140 0.950 . S
H2118 C2141 0.950 . S
H2119 C2143 0.950 . S
H2120 C2144 0.950 . S
H2121 C2145 0.951 . S
H2122 C2147 0.951 . S
H2123 C2149 0.950 . S
H2124 C2150 0.950 . S
H2125 C2152 0.950 . S
H2126 C2155 0.950 . S
H2127 C2156 0.950 . S
H2128 C2158 0.950 . S
H2129 C2159 0.950 . S
C2130 H2112 0.951 . S
C2130 C2131 1.366 . S
C2130 C2132 1.388 . S
C2131 C2130 1.366 . S
C2131 C2135 1.385 . S
C2132 H2113 0.951 . S
C2132 C2130 1.388 . S
C2132 C2133 1.366 . S
C2133 C2132 1.366 . S
C2133 C2134 1.414 . S
C2133 C2136 1.499 . S
C2134 H2114 0.950 . S
C2134 C2133 1.414 . S
C2134 C2135 1.374 . S
C2135 H2115 0.950 . S
C2135 C2131 1.385 . S
C2135 C2134 1.374 . S
C2136 C2133 1.499 . S
C2136 C2137 1.373 . S
C2136 C2138 1.389 . S
C2137 H2116 0.950 . S
C2137 C2136 1.373 . S
C2137 C2153 1.377 . S
C2138 C2136 1.389 . S
C2138 C2139 1.524 . S
C2138 C2152 1.377 . S
C2139 C2138 1.524 . S
C2139 C2140 1.397 . S
C2139 C2144 1.363 . S
C2140 H2117 0.950 . S
C2140 C2139 1.397 . S
C2140 C2141 1.334 . S
C2141 H2118 0.950 . S
C2141 C2140 1.334 . S
C2141 C2142 1.287 . S
C2142 C2141 1.287 . S
C2142 C2143 1.524 . S
C2142 H2161 0.913 . S
C2143 H2119 0.950 . S
C2143 C2142 1.524 . S
C2143 C2144 1.415 . S
C2144 H2120 0.950 . S
C2144 C2139 1.363 . S
C2144 C2143 1.415 . S
C2145 H2121 0.951 . S
C2145 C2146 1.366 . S
C2145 C2147 1.388 . S
C2146 C2145 1.366 . S
C2146 C2150 1.385 . S
C2147 H2122 0.951 . S
C2147 C2145 1.388 . S
C2147 C2148 1.366 . S
C2148 C2147 1.366 . S
C2148 C2149 1.414 . S
C2148 C2151 1.499 . S
C2149 H2123 0.950 . S
C2149 C2148 1.414 . S
C2149 C2150 1.374 . S
C2150 H2124 0.950 . S
C2150 C2146 1.385 . S
C2150 C2149 1.374 . S
C2151 C2148 1.499 . S
C2151 C2152 1.373 . S
C2151 C2153 1.389 . S
C2152 H2125 0.950 . S
C2152 C2138 1.377 . S
C2152 C2151 1.373 . S
C2153 C2137 1.377 . S
C2153 C2151 1.389 . S
C2153 C2154 1.524 . S
C2154 C2153 1.524 . S
C2154 C2155 1.397 . S
C2154 C2159 1.363 . S
C2155 H2126 0.950 . S
C2155 C2154 1.397 . S
C2155 C2156 1.334 . S
C2156 H2127 0.950 . S
C2156 C2155 1.334 . S
C2156 C2157 1.287 . S
C2157 C2156 1.287 . S
C2157 C2158 1.524 . S
C2157 H2160 0.999 . S
C2158 H2128 0.950 . S
C2158 C2157 1.524 . S
C2158 C2159 1.415 . S
C2159 H2129 0.950 . S
C2159 C2154 1.363 . S
C2159 C2158 1.415 . S
H2160 C2157 0.999 . S
H2161 C2142 0.913 . S
H2162 C2180 0.951 . S
H2163 C2182 0.951 . S
H2164 C2184 0.950 . S
H2165 C2185 0.950 . S
H2166 C2187 0.950 . S
H2167 C2190 0.950 . S
H2168 C2191 0.950 . S
H2169 C2193 0.950 . S
H2170 C2194 0.950 . S
H2171 C2195 0.951 . S
H2172 C2197 0.951 . S
H2173 C2199 0.950 . S
H2174 C2200 0.950 . S
H2175 C2202 0.950 . S
H2176 C2205 0.950 . S
H2177 C2206 0.950 . S
H2178 C2208 0.950 . S
H2179 C2209 0.950 . S
C2180 H2162 0.951 . S
C2180 C2181 1.366 . S
C2180 C2182 1.388 . S
C2181 C2180 1.366 . S
C2181 C2185 1.385 . S
C2182 H2163 0.951 . S
C2182 C2180 1.388 . S
C2182 C2183 1.366 . S
C2183 C2182 1.366 . S
C2183 C2184 1.414 . S
C2183 C2186 1.499 . S
C2184 H2164 0.950 . S
C2184 C2183 1.414 . S
C2184 C2185 1.374 . S
C2185 H2165 0.950 . S
C2185 C2181 1.385 . S
C2185 C2184 1.374 . S
C2186 C2183 1.499 . S
C2186 C2187 1.373 . S
C2186 C2188 1.389 . S
C2187 H2166 0.950 . S
C2187 C2186 1.373 . S
C2187 C2203 1.377 . S
C2188 C2186 1.389 . S
C2188 C2189 1.524 . S
C2188 C2202 1.377 . S
C2189 C2188 1.524 . S
C2189 C2190 1.397 . S
C2189 C2194 1.363 . S
C2190 H2167 0.950 . S
C2190 C2189 1.397 . S
C2190 C2191 1.334 . S
C2191 H2168 0.950 . S
C2191 C2190 1.334 . S
C2191 C2192 1.287 . S
C2192 C2191 1.287 . S
C2192 C2193 1.524 . S
C2192 H2211 0.913 . S
C2193 H2169 0.950 . S
C2193 C2192 1.524 . S
C2193 C2194 1.415 . S
C2194 H2170 0.950 . S
C2194 C2189 1.363 . S
C2194 C2193 1.415 . S
C2195 H2171 0.951 . S
C2195 C2196 1.366 . S
C2195 C2197 1.388 . S
C2196 C2195 1.366 . S
C2196 C2200 1.385 . S
C2197 H2172 0.951 . S
C2197 C2195 1.388 . S
C2197 C2198 1.366 . S
C2198 C2197 1.366 . S
C2198 C2199 1.414 . S
C2198 C2201 1.499 . S
C2199 H2173 0.950 . S
C2199 C2198 1.414 . S
C2199 C2200 1.374 . S
C2200 H2174 0.950 . S
C2200 C2196 1.385 . S
C2200 C2199 1.374 . S
C2201 C2198 1.499 . S
C2201 C2202 1.373 . S
C2201 C2203 1.389 . S
C2202 H2175 0.950 . S
C2202 C2188 1.377 . S
C2202 C2201 1.373 . S
C2203 C2187 1.377 . S
C2203 C2201 1.389 . S
C2203 C2204 1.524 . S
C2204 C2203 1.524 . S
C2204 C2205 1.397 . S
C2204 C2209 1.363 . S
C2205 H2176 0.950 . S
C2205 C2204 1.397 . S
C2205 C2206 1.334 . S
C2206 H2177 0.950 . S
C2206 C2205 1.334 . S
C2206 C2207 1.287 . S
C2207 C2206 1.287 . S
C2207 C2208 1.524 . S
C2207 H2210 0.999 . S
C2208 H2178 0.950 . S
C2208 C2207 1.524 . S
C2208 C2209 1.415 . S
C2209 H2179 0.950 . S
C2209 C2204 1.363 . S
C2209 C2208 1.415 . S
H2210 C2207 0.999 . S
H2211 C2192 0.913 . S
H2212 C2230 0.951 . S
H2213 C2232 0.951 . S
H2214 C2234 0.950 . S
H2215 C2235 0.950 . S
H2216 C2237 0.950 . S
H2217 C2240 0.950 . S
H2218 C2241 0.950 . S
H2219 C2243 0.950 . S
H2220 C2244 0.950 . S
H2221 C2245 0.951 . S
H2222 C2247 0.951 . S
H2223 C2249 0.950 . S
H2224 C2250 0.950 . S
H2225 C2252 0.950 . S
H2226 C2255 0.950 . S
H2227 C2256 0.950 . S
H2228 C2258 0.950 . S
H2229 C2259 0.950 . S
C2230 H2212 0.951 . S
C2230 C2231 1.366 . S
C2230 C2232 1.388 . S
C2231 C2230 1.366 . S
C2231 C2235 1.385 . S
C2232 H2213 0.951 . S
C2232 C2230 1.388 . S
C2232 C2233 1.366 . S
C2233 C2232 1.366 . S
C2233 C2234 1.414 . S
C2233 C2236 1.499 . S
C2234 H2214 0.950 . S
C2234 C2233 1.414 . S
C2234 C2235 1.374 . S
C2235 H2215 0.950 . S
C2235 C2231 1.385 . S
C2235 C2234 1.374 . S
C2236 C2233 1.499 . S
C2236 C2237 1.373 . S
C2236 C2238 1.389 . S
C2237 H2216 0.950 . S
C2237 C2236 1.373 . S
C2237 C2253 1.377 . S
C2238 C2236 1.389 . S
C2238 C2239 1.524 . S
C2238 C2252 1.377 . S
C2239 C2238 1.524 . S
C2239 C2240 1.397 . S
C2239 C2244 1.363 . S
C2240 H2217 0.950 . S
C2240 C2239 1.397 . S
C2240 C2241 1.334 . S
C2241 H2218 0.950 . S
C2241 C2240 1.334 . S
C2241 C2242 1.287 . S
C2242 C2241 1.287 . S
C2242 C2243 1.524 . S
C2242 H2261 0.913 . S
C2243 H2219 0.950 . S
C2243 C2242 1.524 . S
C2243 C2244 1.415 . S
C2244 H2220 0.950 . S
C2244 C2239 1.363 . S
C2244 C2243 1.415 . S
C2245 H2221 0.951 . S
C2245 C2246 1.366 . S
C2245 C2247 1.388 . S
C2246 C2245 1.366 . S
C2246 C2250 1.385 . S
C2247 H2222 0.951 . S
C2247 C2245 1.388 . S
C2247 C2248 1.366 . S
C2248 C2247 1.366 . S
C2248 C2249 1.414 . S
C2248 C2251 1.499 . S
C2249 H2223 0.950 . S
C2249 C2248 1.414 . S
C2249 C2250 1.374 . S
C2250 H2224 0.950 . S
C2250 C2246 1.385 . S
C2250 C2249 1.374 . S
C2251 C2248 1.499 . S
C2251 C2252 1.373 . S
C2251 C2253 1.389 . S
C2252 H2225 0.950 . S
C2252 C2238 1.377 . S
C2252 C2251 1.373 . S
C2253 C2237 1.377 . S
C2253 C2251 1.389 . S
C2253 C2254 1.524 . S
C2254 C2253 1.524 . S
C2254 C2255 1.397 . S
C2254 C2259 1.363 . S
C2255 H2226 0.950 . S
C2255 C2254 1.397 . S
C2255 C2256 1.334 . S
C2256 H2227 0.950 . S
C2256 C2255 1.334 . S
C2256 C2257 1.287 . S
C2257 C2256 1.287 . S
C2257 C2258 1.524 . S
C2257 H2260 0.999 . S
C2258 H2228 0.950 . S
C2258 C2257 1.524 . S
C2258 C2259 1.415 . S
C2259 H2229 0.950 . S
C2259 C2254 1.363 . S
C2259 C2258 1.415 . S
H2260 C2257 0.999 . S
H2261 C2242 0.913 . S
H2262 C2280 0.951 . S
H2263 C2282 0.951 . S
H2264 C2284 0.950 . S
H2265 C2285 0.950 . S
H2266 C2287 0.950 . S
H2267 C2290 0.950 . S
H2268 C2291 0.950 1_655 S
H2269 C2293 0.950 . S
H2270 C2294 0.950 . S
H2271 C2295 0.951 . S
H2272 C2297 0.951 . S
H2273 C2299 0.950 . S
H2274 C2300 0.950 . S
H2275 C2302 0.950 . S
H2276 C2305 0.950 . S
H2277 C2306 0.950 . S
H2278 C2308 0.950 . S
H2279 C2309 0.950 . S
C2280 H2262 0.951 . S
C2280 C2281 1.366 . S
C2280 C2282 1.388 . S
C2281 C2280 1.366 . S
C2281 C2285 1.385 . S
C2282 H2263 0.951 . S
C2282 C2280 1.388 . S
C2282 C2283 1.366 1_655 S
C2283 C2282 1.366 1_455 S
C2283 C2284 1.414 . S
C2283 C2286 1.499 . S
C2284 H2264 0.950 . S
C2284 C2283 1.414 . S
C2284 C2285 1.374 1_455 S
C2285 H2265 0.950 . S
C2285 C2281 1.385 . S
C2285 C2284 1.374 1_655 S
C2286 C2283 1.499 . S
C2286 C2287 1.373 . S
C2286 C2288 1.389 . S
C2287 H2266 0.950 . S
C2287 C2286 1.373 . S
C2287 C2303 1.377 . S
C2288 C2286 1.389 . S
C2288 C2289 1.524 . S
C2288 C2302 1.377 . S
C2289 C2288 1.524 . S
C2289 C2290 1.397 . S
C2289 C2294 1.363 . S
C2290 H2267 0.950 . S
C2290 C2289 1.397 . S
C2290 C2291 1.334 . S
C2291 H2268 0.950 1_455 S
C2291 C2290 1.334 . S
C2291 C2292 1.282 1_455 S
C2292 C2291 1.282 1_655 S
C2292 C2293 1.519 1_655 S
C2292 H2311 0.927 . S
C2293 H2269 0.950 . S
C2293 C2292 1.519 1_455 S
C2293 C2294 1.415 . S
C2294 H2270 0.950 . S
C2294 C2289 1.363 . S
C2294 C2293 1.415 . S
C2295 H2271 0.951 . S
C2295 C2296 1.366 . S
C2295 C2297 1.388 . S
C2296 C2295 1.366 . S
C2296 C2300 1.385 . S
C2297 H2272 0.951 . S
C2297 C2295 1.388 . S
C2297 C2298 1.366 . S
C2298 C2297 1.366 . S
C2298 C2299 1.414 . S
C2298 C2301 1.499 . S
C2299 H2273 0.950 . S
C2299 C2298 1.414 . S
C2299 C2300 1.374 . S
C2300 H2274 0.950 . S
C2300 C2296 1.385 . S
C2300 C2299 1.374 . S
C2301 C2298 1.499 . S
C2301 C2302 1.373 . S
C2301 C2303 1.389 . S
C2302 H2275 0.950 . S
C2302 C2288 1.377 . S
C2302 C2301 1.373 . S
C2303 C2287 1.377 . S
C2303 C2301 1.389 . S
C2303 C2304 1.524 . S
C2304 C2303 1.524 . S
C2304 C2305 1.397 . S
C2304 C2309 1.363 . S
C2305 H2276 0.950 . S
C2305 C2304 1.397 . S
C2305 C2306 1.334 . S
C2306 H2277 0.950 . S
C2306 C2305 1.334 . S
C2306 C2307 1.287 . S
C2307 C2306 1.287 . S
C2307 C2308 1.524 . S
C2307 H2310 0.999 . S
C2308 H2278 0.950 . S
C2308 C2307 1.524 . S
C2308 C2309 1.415 . S
C2309 H2279 0.950 . S
C2309 C2304 1.363 . S
C2309 C2308 1.415 . S
H2310 C2307 0.999 . S
H2311 C2292 0.927 . S
H2312 C2330 0.951 . S
H2313 C2332 0.951 . S
H2314 C2334 0.950 . S
H2315 C2335 0.950 . S
H2316 C2337 0.950 . S
H2317 C2340 0.950 . S
H2318 C2341 0.950 . S
H2319 C2343 0.950 . S
H2320 C2344 0.950 . S
H2321 C2345 0.951 . S
H2322 C2347 0.951 . S
H2323 C2349 0.950 . S
H2324 C2350 0.950 . S
H2325 C2352 0.950 . S
H2326 C2355 0.950 . S
H2327 C2356 0.950 . S
H2328 C2358 0.950 . S
H2329 C2359 0.950 . S
C2330 H2312 0.951 . S
C2330 C2331 1.366 . S
C2330 C2332 1.388 . S
C2331 C2330 1.366 . S
C2331 C2335 1.385 . S
C2332 H2313 0.951 . S
C2332 C2330 1.388 . S
C2332 C2333 1.366 . S
C2333 C2332 1.366 . S
C2333 C2334 1.414 . S
C2333 C2336 1.499 . S
C2334 H2314 0.950 . S
C2334 C2333 1.414 . S
C2334 C2335 1.374 . S
C2335 H2315 0.950 . S
C2335 C2331 1.385 . S
C2335 C2334 1.374 . S
C2336 C2333 1.499 . S
C2336 C2337 1.373 . S
C2336 C2338 1.389 . S
C2337 H2316 0.950 . S
C2337 C2336 1.373 . S
C2337 C2353 1.377 . S
C2338 C2336 1.389 . S
C2338 C2339 1.524 . S
C2338 C2352 1.377 . S
C2339 C2338 1.524 . S
C2339 C2340 1.397 . S
C2339 C2344 1.363 . S
C2340 H2317 0.950 . S
C2340 C2339 1.397 . S
C2340 C2341 1.334 . S
C2341 H2318 0.950 . S
C2341 C2340 1.334 . S
C2341 C2342 1.287 . S
C2342 C2341 1.287 . S
C2342 C2343 1.524 . S
C2342 H2361 0.913 . S
C2343 H2319 0.950 . S
C2343 C2342 1.524 . S
C2343 C2344 1.415 . S
C2344 H2320 0.950 . S
C2344 C2339 1.363 . S
C2344 C2343 1.415 . S
C2345 H2321 0.951 . S
C2345 C2346 1.366 . S
C2345 C2347 1.388 . S
C2346 C2345 1.366 . S
C2346 C2350 1.385 . S
C2347 H2322 0.951 . S
C2347 C2345 1.388 . S
C2347 C2348 1.366 . S
C2348 C2347 1.366 . S
C2348 C2349 1.414 . S
C2348 C2351 1.499 . S
C2349 H2323 0.950 . S
C2349 C2348 1.414 . S
C2349 C2350 1.374 . S
C2350 H2324 0.950 . S
C2350 C2346 1.385 . S
C2350 C2349 1.374 . S
C2351 C2348 1.499 . S
C2351 C2352 1.373 . S
C2351 C2353 1.389 . S
C2352 H2325 0.950 . S
C2352 C2338 1.377 . S
C2352 C2351 1.373 . S
C2353 C2337 1.377 . S
C2353 C2351 1.389 . S
C2353 C2354 1.524 . S
C2354 C2353 1.524 . S
C2354 C2355 1.397 . S
C2354 C2359 1.363 . S
C2355 H2326 0.950 . S
C2355 C2354 1.397 . S
C2355 C2356 1.334 . S
C2356 H2327 0.950 . S
C2356 C2355 1.334 . S
C2356 C2357 1.287 . S
C2357 C2356 1.287 . S
C2357 C2358 1.524 . S
C2357 H2360 0.999 . S
C2358 H2328 0.950 . S
C2358 C2357 1.524 . S
C2358 C2359 1.415 . S
C2359 H2329 0.950 . S
C2359 C2354 1.363 . S
C2359 C2358 1.415 . S
H2360 C2357 0.999 . S
H2361 C2342 0.913 . S
H2362 C2380 0.951 . S
H2363 C2382 0.951 . S
H2364 C2384 0.950 . S
H2365 C2385 0.950 . S
H2366 C2387 0.950 . S
H2367 C2390 0.950 . S
H2368 C2391 0.950 . S
H2369 C2393 0.950 . S
H2370 C2394 0.950 . S
H2371 C2395 0.951 . S
H2372 C2397 0.951 . S
H2373 C2399 0.950 . S
H2374 C2400 0.950 . S
H2375 C2402 0.950 . S
H2376 C2405 0.950 . S
H2377 C2406 0.950 . S
H2378 C2408 0.950 . S
H2379 C2409 0.950 . S
C2380 H2362 0.951 . S
C2380 C2381 1.366 . S
C2380 C2382 1.388 . S
C2381 C2380 1.366 . S
C2381 C2385 1.385 . S
C2382 H2363 0.951 . S
C2382 C2380 1.388 . S
C2382 C2383 1.366 . S
C2383 C2382 1.366 . S
C2383 C2384 1.414 . S
C2383 C2386 1.499 . S
C2384 H2364 0.950 . S
C2384 C2383 1.414 . S
C2384 C2385 1.374 . S
C2385 H2365 0.950 . S
C2385 C2381 1.385 . S
C2385 C2384 1.374 . S
C2386 C2383 1.499 . S
C2386 C2387 1.373 . S
C2386 C2388 1.389 . S
C2387 H2366 0.950 . S
C2387 C2386 1.373 . S
C2387 C2403 1.377 . S
C2388 C2386 1.389 . S
C2388 C2389 1.524 . S
C2388 C2402 1.377 . S
C2389 C2388 1.524 . S
C2389 C2390 1.397 . S
C2389 C2394 1.363 . S
C2390 H2367 0.950 . S
C2390 C2389 1.397 . S
C2390 C2391 1.334 . S
C2391 H2368 0.950 . S
C2391 C2390 1.334 . S
C2391 C2392 1.287 . S
C2392 C2391 1.287 . S
C2392 C2393 1.524 . S
C2392 H2411 0.913 . S
C2393 H2369 0.950 . S
C2393 C2392 1.524 . S
C2393 C2394 1.415 . S
C2394 H2370 0.950 . S
C2394 C2389 1.363 . S
C2394 C2393 1.415 . S
C2395 H2371 0.951 . S
C2395 C2396 1.366 . S
C2395 C2397 1.388 . S
C2396 C2395 1.366 . S
C2396 C2400 1.385 . S
C2397 H2372 0.951 . S
C2397 C2395 1.388 . S
C2397 C2398 1.366 . S
C2398 C2397 1.366 . S
C2398 C2399 1.414 . S
C2398 C2401 1.499 . S
C2399 H2373 0.950 . S
C2399 C2398 1.414 . S
C2399 C2400 1.374 . S
C2400 H2374 0.950 . S
C2400 C2396 1.385 . S
C2400 C2399 1.374 . S
C2401 C2398 1.499 . S
C2401 C2402 1.373 . S
C2401 C2403 1.389 . S
C2402 H2375 0.950 . S
C2402 C2388 1.377 . S
C2402 C2401 1.373 . S
C2403 C2387 1.377 . S
C2403 C2401 1.389 . S
C2403 C2404 1.524 . S
C2404 C2403 1.524 . S
C2404 C2405 1.397 . S
C2404 C2409 1.363 . S
C2405 H2376 0.950 . S
C2405 C2404 1.397 . S
C2405 C2406 1.334 . S
C2406 H2377 0.950 . S
C2406 C2405 1.334 . S
C2406 C2407 1.287 . S
C2407 C2406 1.287 . S
C2407 C2408 1.524 . S
C2407 H2410 0.999 . S
C2408 H2378 0.950 . S
C2408 C2407 1.524 . S
C2408 C2409 1.415 . S
C2409 H2379 0.950 . S
C2409 C2404 1.363 . S
C2409 C2408 1.415 . S
H2410 C2407 0.999 . S
H2411 C2392 0.913 . S
H2412 C2430 0.951 . S
H2413 C2432 0.951 . S
H2414 C2434 0.950 . S
H2415 C2435 0.950 . S
H2416 C2437 0.950 . S
H2417 C2440 0.950 . S
H2418 C2441 0.950 . S
H2419 C2443 0.950 . S
H2420 C2444 0.950 . S
H2421 C2445 0.951 . S
H2422 C2447 0.951 . S
H2423 C2449 0.950 . S
H2424 C2450 0.950 . S
H2425 C2452 0.950 . S
H2426 C2455 0.950 . S
H2427 C2456 0.950 . S
H2428 C2458 0.950 . S
H2429 C2459 0.950 . S
C2430 H2412 0.951 . S
C2430 C2431 1.366 . S
C2430 C2432 1.388 . S
C2431 C2430 1.366 . S
C2431 C2435 1.385 . S
C2432 H2413 0.951 . S
C2432 C2430 1.388 . S
C2432 C2433 1.366 . S
C2433 C2432 1.366 . S
C2433 C2434 1.414 . S
C2433 C2436 1.499 . S
C2434 H2414 0.950 . S
C2434 C2433 1.414 . S
C2434 C2435 1.374 . S
C2435 H2415 0.950 . S
C2435 C2431 1.385 . S
C2435 C2434 1.374 . S
C2436 C2433 1.499 . S
C2436 C2437 1.373 . S
C2436 C2438 1.389 . S
C2437 H2416 0.950 . S
C2437 C2436 1.373 . S
C2437 C2453 1.377 . S
C2438 C2436 1.389 . S
C2438 C2439 1.524 . S
C2438 C2452 1.377 . S
C2439 C2438 1.524 . S
C2439 C2440 1.397 . S
C2439 C2444 1.363 . S
C2440 H2417 0.950 . S
C2440 C2439 1.397 . S
C2440 C2441 1.334 . S
C2441 H2418 0.950 . S
C2441 C2440 1.334 . S
C2441 C2442 1.287 . S
C2442 C2441 1.287 . S
C2442 C2443 1.524 . S
C2442 H2461 0.913 . S
C2443 H2419 0.950 . S
C2443 C2442 1.524 . S
C2443 C2444 1.415 . S
C2444 H2420 0.950 . S
C2444 C2439 1.363 . S
C2444 C2443 1.415 . S
C2445 H2421 0.951 . S
C2445 C2446 1.366 . S
C2445 C2447 1.388 . S
C2446 C2445 1.366 . S
C2446 C2450 1.385 . S
C2447 H2422 0.951 . S
C2447 C2445 1.388 . S
C2447 C2448 1.366 . S
C2448 C2447 1.366 . S
C2448 C2449 1.414 . S
C2448 C2451 1.499 . S
C2449 H2423 0.950 . S
C2449 C2448 1.414 . S
C2449 C2450 1.374 . S
C2450 H2424 0.950 . S
C2450 C2446 1.385 . S
C2450 C2449 1.374 . S
C2451 C2448 1.499 . S
C2451 C2452 1.373 . S
C2451 C2453 1.389 . S
C2452 H2425 0.950 . S
C2452 C2438 1.377 . S
C2452 C2451 1.373 . S
C2453 C2437 1.377 . S
C2453 C2451 1.389 . S
C2453 C2454 1.524 . S
C2454 C2453 1.524 . S
C2454 C2455 1.397 . S
C2454 C2459 1.363 . S
C2455 H2426 0.950 . S
C2455 C2454 1.397 . S
C2455 C2456 1.334 . S
C2456 H2427 0.950 . S
C2456 C2455 1.334 . S
C2456 C2457 1.287 . S
C2457 C2456 1.287 . S
C2457 C2458 1.524 . S
C2457 H2460 0.999 . S
C2458 H2428 0.950 . S
C2458 C2457 1.524 . S
C2458 C2459 1.415 . S
C2459 H2429 0.950 . S
C2459 C2454 1.363 . S
C2459 C2458 1.415 . S
H2460 C2457 0.999 . S
H2461 C2442 0.913 . S
H2462 C2480 0.951 . S
H2463 C2482 0.951 . S
H2464 C2484 0.950 . S
H2465 C2485 0.950 . S
H2466 C2487 0.950 . S
H2467 C2490 0.950 . S
H2468 C2491 0.950 . S
H2469 C2493 0.950 . S
H2470 C2494 0.950 . S
H2471 C2495 0.951 . S
H2472 C2497 0.951 . S
H2473 C2499 0.950 . S
H2474 C2500 0.950 . S
H2475 C2502 0.950 . S
H2476 C2505 0.950 . S
H2477 C2506 0.950 . S
H2478 C2508 0.950 . S
H2479 C2509 0.950 . S
C2480 H2462 0.951 . S
C2480 C2481 1.366 . S
C2480 C2482 1.388 . S
C2481 C2480 1.366 . S
C2481 C2485 1.385 . S
C2482 H2463 0.951 . S
C2482 C2480 1.388 . S
C2482 C2483 1.366 . S
C2483 C2482 1.366 . S
C2483 C2484 1.414 . S
C2483 C2486 1.499 . S
C2484 H2464 0.950 . S
C2484 C2483 1.414 . S
C2484 C2485 1.374 . S
C2485 H2465 0.950 . S
C2485 C2481 1.385 . S
C2485 C2484 1.374 . S
C2486 C2483 1.499 . S
C2486 C2487 1.373 . S
C2486 C2488 1.389 . S
C2487 H2466 0.950 . S
C2487 C2486 1.373 . S
C2487 C2503 1.377 . S
C2488 C2486 1.389 . S
C2488 C2489 1.524 . S
C2488 C2502 1.377 . S
C2489 C2488 1.524 . S
C2489 C2490 1.397 . S
C2489 C2494 1.363 . S
C2490 H2467 0.950 . S
C2490 C2489 1.397 . S
C2490 C2491 1.334 . S
C2491 H2468 0.950 . S
C2491 C2490 1.334 . S
C2491 C2492 1.287 . S
C2492 C2491 1.287 . S
C2492 C2493 1.524 . S
C2492 H2511 0.913 . S
C2493 H2469 0.950 . S
C2493 C2492 1.524 . S
C2493 C2494 1.415 . S
C2494 H2470 0.950 . S
C2494 C2489 1.363 . S
C2494 C2493 1.415 . S
C2495 H2471 0.951 . S
C2495 C2496 1.366 . S
C2495 C2497 1.388 . S
C2496 C2495 1.366 . S
C2496 C2500 1.385 . S
C2497 H2472 0.951 . S
C2497 C2495 1.388 . S
C2497 C2498 1.366 1_455 S
C2498 C2497 1.366 1_655 S
C2498 C2499 1.414 . S
C2498 C2501 1.499 . S
C2499 H2473 0.950 . S
C2499 C2498 1.414 . S
C2499 C2500 1.374 1_655 S
C2500 H2474 0.950 . S
C2500 C2496 1.385 . S
C2500 C2499 1.374 1_455 S
C2501 C2498 1.499 . S
C2501 C2502 1.373 . S
C2501 C2503 1.389 . S
C2502 H2475 0.950 . S
C2502 C2488 1.377 . S
C2502 C2501 1.373 . S
C2503 C2487 1.377 . S
C2503 C2501 1.389 . S
C2503 C2504 1.524 . S
C2504 C2503 1.524 . S
C2504 C2505 1.397 . S
C2504 C2509 1.363 . S
C2505 H2476 0.950 . S
C2505 C2504 1.397 . S
C2505 C2506 1.334 . S
C2506 H2477 0.950 . S
C2506 C2505 1.334 . S
C2506 C2507 1.287 . S
C2507 C2506 1.287 . S
C2507 C2508 1.524 . S
C2507 H2510 0.999 . S
C2508 H2478 0.950 . S
C2508 C2507 1.524 . S
C2508 C2509 1.415 . S
C2509 H2479 0.950 . S
C2509 C2504 1.363 . S
C2509 C2508 1.415 . S
H2510 C2507 0.999 . S
H2511 C2492 0.913 . S
H2512 C2530 0.951 . S
H2513 C2532 0.951 . S
H2514 C2534 0.950 . S
H2515 C2535 0.950 . S
H2516 C2537 0.950 . S
H2517 C2540 0.950 . S
H2518 C2541 0.950 . S
H2519 C2543 0.950 . S
H2520 C2544 0.950 . S
H2521 C2545 0.951 . S
H2522 C2547 0.951 . S
H2523 C2549 0.950 . S
H2524 C2550 0.950 . S
H2525 C2552 0.950 . S
H2526 C2555 0.950 . S
H2527 C2556 0.950 . S
H2528 C2558 0.950 . S
H2529 C2559 0.950 . S
C2530 H2512 0.951 . S
C2530 C2531 1.366 . S
C2530 C2532 1.388 . S
C2531 C2530 1.366 . S
C2531 C2535 1.385 . S
C2532 H2513 0.951 . S
C2532 C2530 1.388 . S
C2532 C2533 1.366 . S
C2533 C2532 1.366 . S
C2533 C2534 1.414 . S
C2533 C2536 1.499 . S
C2534 H2514 0.950 . S
C2534 C2533 1.414 . S
C2534 C2535 1.374 . S
C2535 H2515 0.950 . S
C2535 C2531 1.385 . S
C2535 C2534 1.374 . S
C2536 C2533 1.499 . S
C2536 C2537 1.373 . S
C2536 C2538 1.389 . S
C2537 H2516 0.950 . S
C2537 C2536 1.373 . S
C2537 C2553 1.377 . S
C2538 C2536 1.389 . S
C2538 C2539 1.524 . S
C2538 C2552 1.377 . S
C2539 C2538 1.524 . S
C2539 C2540 1.397 . S
C2539 C2544 1.363 . S
C2540 H2517 0.950 . S
C2540 C2539 1.397 . S
C2540 C2541 1.334 . S
C2541 H2518 0.950 . S
C2541 C2540 1.334 . S
C2541 C2542 1.287 . S
C2542 C2541 1.287 . S
C2542 C2543 1.524 . S
C2542 H2561 0.913 . S
C2543 H2519 0.950 . S
C2543 C2542 1.524 . S
C2543 C2544 1.415 . S
C2544 H2520 0.950 . S
C2544 C2539 1.363 . S
C2544 C2543 1.415 . S
C2545 H2521 0.951 . S
C2545 C2546 1.366 . S
C2545 C2547 1.388 . S
C2546 C2545 1.366 . S
C2546 C2550 1.385 . S
C2547 H2522 0.951 . S
C2547 C2545 1.388 . S
C2547 C2548 1.366 . S
C2548 C2547 1.366 . S
C2548 C2549 1.414 . S
C2548 C2551 1.499 . S
C2549 H2523 0.950 . S
C2549 C2548 1.414 . S
C2549 C2550 1.374 . S
C2550 H2524 0.950 . S
C2550 C2546 1.385 . S
C2550 C2549 1.374 . S
C2551 C2548 1.499 . S
C2551 C2552 1.373 . S
C2551 C2553 1.389 . S
C2552 H2525 0.950 . S
C2552 C2538 1.377 . S
C2552 C2551 1.373 . S
C2553 C2537 1.377 . S
C2553 C2551 1.389 . S
C2553 C2554 1.524 . S
C2554 C2553 1.524 . S
C2554 C2555 1.397 . S
C2554 C2559 1.363 . S
C2555 H2526 0.950 . S
C2555 C2554 1.397 . S
C2555 C2556 1.334 . S
C2556 H2527 0.950 . S
C2556 C2555 1.334 . S
C2556 C2557 1.287 . S
C2557 C2556 1.287 . S
C2557 C2558 1.524 . S
C2557 H2560 0.999 . S
C2558 H2528 0.950 . S
C2558 C2557 1.524 . S
C2558 C2559 1.415 . S
C2559 H2529 0.950 . S
C2559 C2554 1.363 . S
C2559 C2558 1.415 . S
H2560 C2557 0.999 . S
H2561 C2542 0.913 . S
H2562 C2580 0.951 . S
H2563 C2582 0.951 . S
H2564 C2584 0.950 . S
H2565 C2585 0.950 . S
H2566 C2587 0.950 . S
H2567 C2590 0.950 . S
H2568 C2591 0.950 . S
H2569 C2593 0.950 . S
H2570 C2594 0.950 . S
H2571 C2595 0.951 . S
H2572 C2597 0.951 . S
H2573 C2599 0.950 . S
H2574 C2600 0.950 . S
H2575 C2602 0.950 . S
H2576 C2605 0.950 1_565 S
H2577 C2606 0.950 . S
H2578 C2608 0.950 . S
H2579 C2609 0.950 . S
C2580 H2562 0.951 . S
C2580 C2581 1.366 . S
C2580 C2582 1.388 . S
C2581 C2580 1.366 . S
C2581 C2585 1.385 . S
C2582 H2563 0.951 . S
C2582 C2580 1.388 . S
C2582 C2583 1.366 . S
C2583 C2582 1.366 . S
C2583 C2584 1.414 . S
C2583 C2586 1.499 . S
C2584 H2564 0.950 . S
C2584 C2583 1.414 . S
C2584 C2585 1.374 . S
C2585 H2565 0.950 . S
C2585 C2581 1.385 . S
C2585 C2584 1.374 . S
C2586 C2583 1.499 . S
C2586 C2587 1.373 . S
C2586 C2588 1.389 . S
C2587 H2566 0.950 . S
C2587 C2586 1.373 . S
C2587 C2603 1.377 . S
C2588 C2586 1.389 . S
C2588 C2589 1.524 . S
C2588 C2602 1.377 . S
C2589 C2588 1.524 . S
C2589 C2590 1.397 . S
C2589 C2594 1.363 . S
C2590 H2567 0.950 . S
C2590 C2589 1.397 . S
C2590 C2591 1.334 . S
C2591 H2568 0.950 . S
C2591 C2590 1.334 . S
C2591 C2592 1.287 . S
C2592 C2591 1.287 . S
C2592 C2593 1.524 . S
C2592 H2611 0.913 . S
C2593 H2569 0.950 . S
C2593 C2592 1.524 . S
C2593 C2594 1.415 . S
C2594 H2570 0.950 . S
C2594 C2589 1.363 . S
C2594 C2593 1.415 . S
C2595 H2571 0.951 . S
C2595 C2596 1.366 1_545 S
C2595 C2597 1.388 1_445 S
C2596 C2595 1.366 1_565 S
C2596 C2600 1.385 . S
C2597 H2572 0.951 . S
C2597 C2595 1.388 1_665 S
C2597 C2598 1.366 . S
C2598 C2597 1.366 . S
C2598 C2599 1.414 1_655 S
C2598 C2601 1.499 . S
C2599 H2573 0.950 . S
C2599 C2598 1.414 1_455 S
C2599 C2600 1.374 . S
C2600 H2574 0.950 . S
C2600 C2596 1.385 . S
C2600 C2599 1.374 . S
C2601 C2598 1.499 . S
C2601 C2602 1.373 . S
C2601 C2603 1.389 . S
C2602 H2575 0.950 . S
C2602 C2588 1.377 . S
C2602 C2601 1.373 . S
C2603 C2587 1.377 . S
C2603 C2601 1.389 . S
C2603 C2604 1.525 . S
C2604 C2603 1.525 . S
C2604 C2605 1.396 1_565 S
C2604 C2609 1.362 1_565 S
C2605 H2576 0.950 1_545 S
C2605 C2604 1.396 1_545 S
C2605 C2606 1.334 . S
C2606 H2577 0.950 . S
C2606 C2605 1.334 . S
C2606 C2607 1.287 . S
C2607 C2606 1.287 . S
C2607 C2608 1.524 . S
C2607 H2610 0.999 . S
C2608 H2578 0.950 . S
C2608 C2607 1.524 . S
C2608 C2609 1.415 . S
C2609 H2579 0.950 . S
C2609 C2604 1.362 1_545 S
C2609 C2608 1.415 . S
H2610 C2607 0.999 . S
H2611 C2592 0.913 . S
H2612 C2630 0.951 . S
H2613 C2632 0.951 . S
H2614 C2634 0.950 . S
H2615 C2635 0.950 . S
H2616 C2637 0.950 . S
H2617 C2640 0.950 . S
H2618 C2641 0.950 . S
H2619 C2643 0.950 . S
H2620 C2644 0.950 . S
H2621 C2645 0.951 . S
H2622 C2647 0.951 . S
H2623 C2649 0.950 . S
H2624 C2650 0.950 . S
H2625 C2652 0.950 . S
H2626 C2655 0.950 . S
H2627 C2656 0.950 . S
H2628 C2658 0.950 . S
H2629 C2659 0.950 . S
C2630 H2612 0.951 . S
C2630 C2631 1.366 . S
C2630 C2632 1.388 . S
C2631 C2630 1.366 . S
C2631 C2635 1.385 . S
C2632 H2613 0.951 . S
C2632 C2630 1.388 . S
C2632 C2633 1.366 . S
C2633 C2632 1.366 . S
C2633 C2634 1.414 . S
C2633 C2636 1.499 . S
C2634 H2614 0.950 . S
C2634 C2633 1.414 . S
C2634 C2635 1.374 . S
C2635 H2615 0.950 . S
C2635 C2631 1.385 . S
C2635 C2634 1.374 . S
C2636 C2633 1.499 . S
C2636 C2637 1.373 . S
C2636 C2638 1.389 . S
C2637 H2616 0.950 . S
C2637 C2636 1.373 . S
C2637 C2653 1.377 . S
C2638 C2636 1.389 . S
C2638 C2639 1.524 . S
C2638 C2652 1.377 . S
C2639 C2638 1.524 . S
C2639 C2640 1.397 . S
C2639 C2644 1.363 . S
C2640 H2617 0.950 . S
C2640 C2639 1.397 . S
C2640 C2641 1.334 . S
C2641 H2618 0.950 . S
C2641 C2640 1.334 . S
C2641 C2642 1.287 . S
C2642 C2641 1.287 . S
C2642 C2643 1.524 . S
C2642 H2661 0.913 . S
C2643 H2619 0.950 . S
C2643 C2642 1.524 . S
C2643 C2644 1.415 . S
C2644 H2620 0.950 . S
C2644 C2639 1.363 . S
C2644 C2643 1.415 . S
C2645 H2621 0.951 . S
C2645 C2646 1.366 . S
C2645 C2647 1.388 . S
C2646 C2645 1.366 . S
C2646 C2650 1.385 . S
C2647 H2622 0.951 . S
C2647 C2645 1.388 . S
C2647 C2648 1.366 . S
C2648 C2647 1.366 . S
C2648 C2649 1.414 . S
C2648 C2651 1.499 . S
C2649 H2623 0.950 . S
C2649 C2648 1.414 . S
C2649 C2650 1.374 . S
C2650 H2624 0.950 . S
C2650 C2646 1.385 . S
C2650 C2649 1.374 . S
C2651 C2648 1.499 . S
C2651 C2652 1.373 . S
C2651 C2653 1.389 . S
C2652 H2625 0.950 . S
C2652 C2638 1.377 . S
C2652 C2651 1.373 . S
C2653 C2637 1.377 . S
C2653 C2651 1.389 . S
C2653 C2654 1.524 . S
C2654 C2653 1.524 . S
C2654 C2655 1.397 . S
C2654 C2659 1.363 . S
C2655 H2626 0.950 . S
C2655 C2654 1.397 . S
C2655 C2656 1.334 . S
C2656 H2627 0.950 . S
C2656 C2655 1.334 . S
C2656 C2657 1.287 . S
C2657 C2656 1.287 . S
C2657 C2658 1.524 . S
C2657 H2660 0.999 . S
C2658 H2628 0.950 . S
C2658 C2657 1.524 . S
C2658 C2659 1.415 . S
C2659 H2629 0.950 . S
C2659 C2654 1.363 . S
C2659 C2658 1.415 . S
H2660 C2657 0.999 . S
H2661 C2642 0.913 . S
H2662 C2680 0.951 . S
H2663 C2682 0.951 . S
H2664 C2684 0.950 . S
H2665 C2685 0.950 . S
H2666 C2687 0.950 . S
H2667 C2690 0.950 . S
H2668 C2691 0.950 . S
H2669 C2693 0.950 . S
H2670 C2694 0.950 . S
H2671 C2695 0.951 . S
H2672 C2697 0.951 . S
H2673 C2699 0.950 . S
H2674 C2700 0.950 . S
H2675 C2702 0.950 . S
H2676 C2705 0.950 . S
H2677 C2706 0.950 . S
H2678 C2708 0.950 . S
H2679 C2709 0.950 . S
C2680 H2662 0.951 . S
C2680 C2681 1.366 1_565 S
C2680 C2682 1.388 1_565 S
C2681 C2680 1.366 1_545 S
C2681 C2685 1.385 . S
C2682 H2663 0.951 . S
C2682 C2680 1.388 1_545 S
C2682 C2683 1.366 . S
C2683 C2682 1.366 . S
C2683 C2684 1.414 . S
C2683 C2686 1.499 . S
C2684 H2664 0.950 . S
C2684 C2683 1.414 . S
C2684 C2685 1.374 . S
C2685 H2665 0.950 . S
C2685 C2681 1.385 . S
C2685 C2684 1.374 . S
C2686 C2683 1.499 . S
C2686 C2687 1.373 . S
C2686 C2688 1.389 . S
C2687 H2666 0.950 . S
C2687 C2686 1.373 . S
C2687 C2703 1.377 . S
C2688 C2686 1.389 . S
C2688 C2689 1.524 . S
C2688 C2702 1.377 . S
C2689 C2688 1.524 . S
C2689 C2690 1.397 . S
C2689 C2694 1.363 . S
C2690 H2667 0.950 . S
C2690 C2689 1.397 . S
C2690 C2691 1.334 . S
C2691 H2668 0.950 . S
C2691 C2690 1.334 . S
C2691 C2692 1.287 . S
C2692 C2691 1.287 . S
C2692 C2693 1.524 . S
C2692 H2711 0.913 . S
C2693 H2669 0.950 . S
C2693 C2692 1.524 . S
C2693 C2694 1.415 . S
C2694 H2670 0.950 . S
C2694 C2689 1.363 . S
C2694 C2693 1.415 . S
C2695 H2671 0.951 . S
C2695 C2696 1.366 . S
C2695 C2697 1.388 . S
C2696 C2695 1.366 . S
C2696 C2700 1.385 . S
C2697 H2672 0.951 . S
C2697 C2695 1.388 . S
C2697 C2698 1.366 . S
C2698 C2697 1.366 . S
C2698 C2699 1.414 . S
C2698 C2701 1.499 . S
C2699 H2673 0.950 . S
C2699 C2698 1.414 . S
C2699 C2700 1.374 . S
C2700 H2674 0.950 . S
C2700 C2696 1.385 . S
C2700 C2699 1.374 . S
C2701 C2698 1.499 . S
C2701 C2702 1.373 . S
C2701 C2703 1.389 . S
C2702 H2675 0.950 . S
C2702 C2688 1.377 . S
C2702 C2701 1.373 . S
C2703 C2687 1.377 . S
C2703 C2701 1.389 . S
C2703 C2704 1.524 . S
C2704 C2703 1.524 . S
C2704 C2705 1.397 . S
C2704 C2709 1.363 . S
C2705 H2676 0.950 . S
C2705 C2704 1.397 . S
C2705 C2706 1.334 . S
C2706 H2677 0.950 . S
C2706 C2705 1.334 . S
C2706 C2707 1.287 . S
C2707 C2706 1.287 . S
C2707 C2708 1.524 . S
C2707 H2710 0.999 . S
C2708 H2678 0.950 . S
C2708 C2707 1.524 . S
C2708 C2709 1.415 . S
C2709 H2679 0.950 . S
C2709 C2704 1.363 . S
C2709 C2708 1.415 . S
H2710 C2707 0.999 . S
H2711 C2692 0.913 . S
H2712 C2730 0.951 . S
H2713 C2732 0.951 . S
H2714 C2734 0.950 . S
H2715 C2735 0.950 . S
H2716 C2737 0.950 . S
H2717 C2740 0.950 . S
H2718 C2741 0.950 . S
H2719 C2743 0.950 . S
H2720 C2744 0.950 . S
H2721 C2745 0.951 . S
H2722 C2747 0.951 . S
H2723 C2749 0.950 . S
H2724 C2750 0.950 . S
H2725 C2752 0.950 . S
H2726 C2755 0.950 . S
H2727 C2756 0.950 . S
H2728 C2758 0.950 . S
H2729 C2759 0.950 . S
C2730 H2712 0.951 . S
C2730 C2731 1.366 . S
C2730 C2732 1.388 . S
C2731 C2730 1.366 . S
C2731 C2735 1.385 . S
C2732 H2713 0.951 . S
C2732 C2730 1.388 . S
C2732 C2733 1.366 . S
C2733 C2732 1.366 . S
C2733 C2734 1.414 . S
C2733 C2736 1.499 . S
C2734 H2714 0.950 . S
C2734 C2733 1.414 . S
C2734 C2735 1.374 . S
C2735 H2715 0.950 . S
C2735 C2731 1.385 . S
C2735 C2734 1.374 . S
C2736 C2733 1.499 . S
C2736 C2737 1.373 . S
C2736 C2738 1.389 . S
C2737 H2716 0.950 . S
C2737 C2736 1.373 . S
C2737 C2753 1.377 . S
C2738 C2736 1.389 . S
C2738 C2739 1.524 . S
C2738 C2752 1.377 . S
C2739 C2738 1.524 . S
C2739 C2740 1.397 . S
C2739 C2744 1.363 . S
C2740 H2717 0.950 . S
C2740 C2739 1.397 . S
C2740 C2741 1.334 . S
C2741 H2718 0.950 . S
C2741 C2740 1.334 . S
C2741 C2742 1.287 . S
C2742 C2741 1.287 . S
C2742 C2743 1.524 . S
C2742 H2761 0.913 . S
C2743 H2719 0.950 . S
C2743 C2742 1.524 . S
C2743 C2744 1.415 . S
C2744 H2720 0.950 . S
C2744 C2739 1.363 . S
C2744 C2743 1.415 . S
C2745 H2721 0.951 . S
C2745 C2746 1.366 . S
C2745 C2747 1.388 . S
C2746 C2745 1.366 . S
C2746 C2750 1.385 . S
C2747 H2722 0.951 . S
C2747 C2745 1.388 . S
C2747 C2748 1.366 . S
C2748 C2747 1.366 . S
C2748 C2749 1.414 . S
C2748 C2751 1.499 . S
C2749 H2723 0.950 . S
C2749 C2748 1.414 . S
C2749 C2750 1.374 . S
C2750 H2724 0.950 . S
C2750 C2746 1.385 . S
C2750 C2749 1.374 . S
C2751 C2748 1.499 . S
C2751 C2752 1.373 . S
C2751 C2753 1.389 . S
C2752 H2725 0.950 . S
C2752 C2738 1.377 . S
C2752 C2751 1.373 . S
C2753 C2737 1.377 . S
C2753 C2751 1.389 . S
C2753 C2754 1.524 . S
C2754 C2753 1.524 . S
C2754 C2755 1.397 . S
C2754 C2759 1.363 . S
C2755 H2726 0.950 . S
C2755 C2754 1.397 . S
C2755 C2756 1.334 . S
C2756 H2727 0.950 . S
C2756 C2755 1.334 . S
C2756 C2757 1.287 . S
C2757 C2756 1.287 . S
C2757 C2758 1.524 . S
C2757 H2760 0.999 . S
C2758 H2728 0.950 . S
C2758 C2757 1.524 . S
C2758 C2759 1.415 . S
C2759 H2729 0.950 . S
C2759 C2754 1.363 . S
C2759 C2758 1.415 . S
H2760 C2757 0.999 . S
H2761 C2742 0.913 . S
H2762 C2780 0.951 . S
H2763 C2782 0.951 1_565 S
H2764 C2784 0.950 . S
H2765 C2785 0.950 . S
H2766 C2787 0.950 . S
H2767 C2790 0.950 . S
H2768 C2791 0.950 . S
H2769 C2793 0.950 . S
H2770 C2794 0.950 . S
H2771 C2795 0.951 . S
H2772 C2797 0.951 . S
H2773 C2799 0.950 . S
H2774 C2800 0.950 . S
H2775 C2802 0.950 . S
H2776 C2805 0.950 . S
H2777 C2806 0.950 . S
H2778 C2808 0.950 . S
H2779 C2809 0.950 . S
C2780 H2762 0.951 . S
C2780 C2781 1.366 1_565 S
C2780 C2782 1.388 1_665 S
C2781 C2780 1.366 1_545 S
C2781 C2785 1.385 . S
C2782 H2763 0.951 1_545 S
C2782 C2780 1.388 1_445 S
C2782 C2783 1.366 . S
C2783 C2782 1.366 . S
C2783 C2784 1.414 1_455 S
C2783 C2786 1.499 . S
C2784 H2764 0.950 . S
C2784 C2783 1.414 1_655 S
C2784 C2785 1.374 . S
C2785 H2765 0.950 . S
C2785 C2781 1.385 . S
C2785 C2784 1.374 . S
C2786 C2783 1.499 . S
C2786 C2787 1.373 . S
C2786 C2788 1.389 . S
C2787 H2766 0.950 . S
C2787 C2786 1.373 . S
C2787 C2803 1.377 . S
C2788 C2786 1.389 . S
C2788 C2789 1.524 . S
C2788 C2802 1.377 . S
C2789 C2788 1.524 . S
C2789 C2790 1.397 . S
C2789 C2794 1.363 1_545 S
C2790 H2767 0.950 . S
C2790 C2789 1.397 . S
C2790 C2791 1.334 1_545 S
C2791 H2768 0.950 . S
C2791 C2790 1.334 1_565 S
C2791 C2792 1.287 . S
C2792 C2791 1.287 . S
C2792 C2793 1.524 . S
C2792 H2811 0.913 . S
C2793 H2769 0.950 . S
C2793 C2792 1.524 . S
C2793 C2794 1.415 . S
C2794 H2770 0.950 . S
C2794 C2789 1.363 1_565 S
C2794 C2793 1.415 . S
C2795 H2771 0.951 . S
C2795 C2796 1.366 . S
C2795 C2797 1.388 . S
C2796 C2795 1.366 . S
C2796 C2800 1.385 . S
C2797 H2772 0.951 . S
C2797 C2795 1.388 . S
C2797 C2798 1.366 . S
C2798 C2797 1.366 . S
C2798 C2799 1.414 . S
C2798 C2801 1.499 . S
C2799 H2773 0.950 . S
C2799 C2798 1.414 . S
C2799 C2800 1.374 . S
C2800 H2774 0.950 . S
C2800 C2796 1.385 . S
C2800 C2799 1.374 . S
C2801 C2798 1.499 . S
C2801 C2802 1.373 . S
C2801 C2803 1.389 . S
C2802 H2775 0.950 . S
C2802 C2788 1.377 . S
C2802 C2801 1.373 . S
C2803 C2787 1.377 . S
C2803 C2801 1.389 . S
C2803 C2804 1.524 . S
C2804 C2803 1.524 . S
C2804 C2805 1.397 . S
C2804 C2809 1.363 . S
C2805 H2776 0.950 . S
C2805 C2804 1.397 . S
C2805 C2806 1.334 . S
C2806 H2777 0.950 . S
C2806 C2805 1.334 . S
C2806 C2807 1.287 . S
C2807 C2806 1.287 . S
C2807 C2808 1.524 . S
C2807 H2810 0.999 . S
C2808 H2778 0.950 . S
C2808 C2807 1.524 . S
C2808 C2809 1.415 . S
C2809 H2779 0.950 . S
C2809 C2804 1.363 . S
C2809 C2808 1.415 . S
H2810 C2807 0.999 . S
H2811 C2792 0.913 . S
H2812 C2830 0.951 . S
H2813 C2832 0.951 . S
H2814 C2834 0.950 . S
H2815 C2835 0.950 . S
H2816 C2837 0.950 . S
H2817 C2840 0.950 . S
H2818 C2841 0.950 . S
H2819 C2843 0.950 . S
H2820 C2844 0.950 . S
H2821 C2845 0.951 . S
H2822 C2847 0.951 . S
H2823 C2849 0.950 . S
H2824 C2850 0.950 . S
H2825 C2852 0.950 . S
H2826 C2855 0.950 . S
H2827 C2856 0.950 . S
H2828 C2858 0.950 . S
H2829 C2859 0.950 . S
C2830 H2812 0.951 . S
C2830 C2831 1.366 . S
C2830 C2832 1.388 . S
C2831 C2830 1.366 . S
C2831 C2835 1.385 . S
C2832 H2813 0.951 . S
C2832 C2830 1.388 . S
C2832 C2833 1.366 . S
C2833 C2832 1.366 . S
C2833 C2834 1.414 . S
C2833 C2836 1.499 . S
C2834 H2814 0.950 . S
C2834 C2833 1.414 . S
C2834 C2835 1.374 . S
C2835 H2815 0.950 . S
C2835 C2831 1.385 . S
C2835 C2834 1.374 . S
C2836 C2833 1.499 . S
C2836 C2837 1.373 . S
C2836 C2838 1.389 . S
C2837 H2816 0.950 . S
C2837 C2836 1.373 . S
C2837 C2853 1.377 . S
C2838 C2836 1.389 . S
C2838 C2839 1.524 . S
C2838 C2852 1.377 . S
C2839 C2838 1.524 . S
C2839 C2840 1.397 . S
C2839 C2844 1.363 . S
C2840 H2817 0.950 . S
C2840 C2839 1.397 . S
C2840 C2841 1.334 . S
C2841 H2818 0.950 . S
C2841 C2840 1.334 . S
C2841 C2842 1.287 . S
C2842 C2841 1.287 . S
C2842 C2843 1.524 . S
C2842 H2861 0.913 . S
C2843 H2819 0.950 . S
C2843 C2842 1.524 . S
C2843 C2844 1.415 . S
C2844 H2820 0.950 . S
C2844 C2839 1.363 . S
C2844 C2843 1.415 . S
C2845 H2821 0.951 . S
C2845 C2846 1.366 . S
C2845 C2847 1.388 . S
C2846 C2845 1.366 . S
C2846 C2850 1.385 . S
C2847 H2822 0.951 . S
C2847 C2845 1.388 . S
C2847 C2848 1.366 . S
C2848 C2847 1.366 . S
C2848 C2849 1.414 . S
C2848 C2851 1.499 . S
C2849 H2823 0.950 . S
C2849 C2848 1.414 . S
C2849 C2850 1.374 . S
C2850 H2824 0.950 . S
C2850 C2846 1.385 . S
C2850 C2849 1.374 . S
C2851 C2848 1.499 . S
C2851 C2852 1.373 . S
C2851 C2853 1.389 . S
C2852 H2825 0.950 . S
C2852 C2838 1.377 . S
C2852 C2851 1.373 . S
C2853 C2837 1.377 . S
C2853 C2851 1.389 . S
C2853 C2854 1.524 . S
C2854 C2853 1.524 . S
C2854 C2855 1.397 . S
C2854 C2859 1.363 . S
C2855 H2826 0.950 . S
C2855 C2854 1.397 . S
C2855 C2856 1.334 . S
C2856 H2827 0.950 . S
C2856 C2855 1.334 . S
C2856 C2857 1.287 . S
C2857 C2856 1.287 . S
C2857 C2858 1.524 . S
C2857 H2860 0.999 . S
C2858 H2828 0.950 . S
C2858 C2857 1.524 . S
C2858 C2859 1.415 . S
C2859 H2829 0.950 . S
C2859 C2854 1.363 . S
C2859 C2858 1.415 . S
H2860 C2857 0.999 . S
H2861 C2842 0.913 . S
H2862 C2880 0.951 . S
H2863 C2882 0.951 . S
H2864 C2884 0.950 . S
H2865 C2885 0.950 . S
H2866 C2887 0.950 . S
H2867 C2890 0.950 . S
H2868 C2891 0.950 . S
H2869 C2893 0.950 . S
H2870 C2894 0.956 . S
H2871 C2895 0.951 . S
H2872 C2897 0.951 . S
H2873 C2899 0.950 1_545 S
H2874 C2900 0.950 . S
H2875 C2902 0.950 . S
H2876 C2905 0.950 . S
H2877 C2906 0.950 . S
H2878 C2908 0.950 . S
H2879 C2909 0.950 . S
C2880 H2862 0.951 . S
C2880 C2881 1.366 . S
C2880 C2882 1.388 . S
C2881 C2880 1.366 . S
C2881 C2885 1.385 . S
C2882 H2863 0.951 . S
C2882 C2880 1.388 . S
C2882 C2883 1.366 . S
C2883 C2882 1.366 . S
C2883 C2884 1.414 . S
C2883 C2886 1.499 . S
C2884 H2864 0.950 . S
C2884 C2883 1.414 . S
C2884 C2885 1.374 . S
C2885 H2865 0.950 . S
C2885 C2881 1.385 . S
C2885 C2884 1.374 . S
C2886 C2883 1.499 . S
C2886 C2887 1.373 . S
C2886 C2888 1.389 . S
C2887 H2866 0.950 . S
C2887 C2886 1.373 . S
C2887 C2903 1.377 . S
C2888 C2886 1.389 . S
C2888 C2889 1.524 . S
C2888 C2902 1.377 . S
C2889 C2888 1.524 . S
C2889 C2890 1.397 . S
C2889 C2894 1.348 1_565 S
C2890 H2867 0.950 . S
C2890 C2889 1.397 . S
C2890 C2891 1.334 . S
C2891 H2868 0.950 . S
C2891 C2890 1.334 . S
C2891 C2892 1.287 1_565 S
C2892 C2891 1.287 1_545 S
C2892 C2893 1.524 . S
C2892 H2911 0.913 . S
C2893 H2869 0.950 . S
C2893 C2892 1.524 . S
C2893 C2894 1.425 . S
C2894 H2870 0.956 . S
C2894 C2889 1.348 1_545 S
C2894 C2893 1.425 . S
C2895 H2871 0.951 . S
C2895 C2896 1.366 . S
C2895 C2897 1.388 . S
C2896 C2895 1.366 . S
C2896 C2900 1.385 1_565 S
C2897 H2872 0.951 . S
C2897 C2895 1.388 . S
C2897 C2898 1.366 . S
C2898 C2897 1.366 . S
C2898 C2899 1.414 . S
C2898 C2901 1.499 . S
C2899 H2873 0.950 1_565 S
C2899 C2898 1.414 . S
C2899 C2900 1.374 1_565 S
C2900 H2874 0.950 . S
C2900 C2896 1.385 1_545 S
C2900 C2899 1.374 1_545 S
C2901 C2898 1.499 . S
C2901 C2902 1.373 . S
C2901 C2903 1.389 . S
C2902 H2875 0.950 . S
C2902 C2888 1.377 . S
C2902 C2901 1.373 . S
C2903 C2887 1.377 . S
C2903 C2901 1.389 . S
C2903 C2904 1.524 . S
C2904 C2903 1.524 . S
C2904 C2905 1.397 . S
C2904 C2909 1.363 . S
C2905 H2876 0.950 . S
C2905 C2904 1.397 . S
C2905 C2906 1.334 . S
C2906 H2877 0.950 . S
C2906 C2905 1.334 . S
C2906 C2907 1.287 . S
C2907 C2906 1.287 . S
C2907 C2908 1.524 . S
C2907 H2910 0.999 . S
C2908 H2878 0.950 . S
C2908 C2907 1.524 . S
C2908 C2909 1.415 . S
C2909 H2879 0.950 . S
C2909 C2904 1.363 . S
C2909 C2908 1.415 . S
H2910 C2907 0.999 . S
H2911 C2892 0.913 . S
C531 C4 0.411 . S
C546 C413 0.411 . S
C581 C189 0.412 . S
C596 C36 0.412 . S
C631 C68 0.412 . S
C646 C452 0.412 . S
C681 C125 0.413 . S
C696 C253 0.413 . S
C731 C157 0.415 . S
C746 C260 0.415 . S
C781 C349 0.415 . S
C796 C196 0.415 . S
C831 C420 0.411 . S
C846 C292 0.411 . S
C881 C381 0.414 . S
C896 C509 0.414 . S
C931 C290 1.844 . S
C946 C6 1.822 . S
C981 C38 1.822 . S
C996 C326 1.845 . S
C1031 C70 1.822 . S
C1046 C358 1.845 . S
C1081 C258 1.844 . S
C1096 C98 1.822 . S
C1131 C418 1.844 . S
C1146 C130 1.822 . S
C1181 C450 1.844 . S
C1196 C162 1.822 . S
C1231 C198 1.822 . S
C1246 C486 1.844 . S
C1281 C390 1.844 . S
C1296 C226 1.822 . S
C1331 C262 1.822 . S
C1346 C34 1.844 . S
C1381 C294 1.822 . S
C1396 C66 1.844 . S
C1431 C322 1.822 . S
C1446 C102 1.844 . S
C1481 C2 1.845 . S
C1496 C354 1.822 . S
C1531 C166 1.844 . S
C1546 C386 1.822 . S
C1581 C422 1.822 . S
C1596 C194 1.844 . S
C1631 C230 1.844 . S
C1646 C454 1.822 . S
C1681 C482 1.822 . S
C1696 C134 1.844 . S
C1731 N18 1.341 . S
C1746 N333 1.342 . S
C1781 N50 1.342 . S
C1796 N365 1.341 . S
C1831 N274 1.341 . S
C1846 N82 1.341 . S
C1881 N109 1.341 . S
C1896 N306 1.342 . S
C1931 N141 1.341 . S
C1946 N466 1.342 . S
C1981 N173 1.341 . S
C1996 N493 1.341 . S
C2031 N397 1.342 . S
C2046 N210 1.341 . S
C2081 N237 1.341 . S
C2096 N434 1.342 . S
C2131 C29 0.889 . S
C2146 N242 0.906 . S
C2181 N402 0.907 . S
C2196 C61 0.890 . S
C2231 C93 0.889 . S
C2246 N178 0.906 . S
C2281 C100 0.887 . S
C2296 N461 0.905 . S
C2331 C132 0.889 . S
C2346 N114 0.907 . S
C2381 N269 0.906 . S
C2396 C164 0.888 . S
C2431 C221 0.888 . S
C2446 N45 0.906 . S
C2481 N338 0.905 . S
C2496 C228 0.888 . S
C2531 C285 0.888 . S
C2546 N498 0.905 . S
C2581 N146 0.905 . S
C2596 C317 0.888 1_565 S
C2631 N429 0.905 . S
C2646 C324 0.888 . S
C2681 C356 0.890 1_545 S
C2696 N205 0.907 . S
C2731 C388 0.888 . S
C2746 N370 0.905 . S
C2781 C445 0.888 1_545 S
C2796 N13 0.905 . S
C2831 N301 0.905 . S
C2846 C477 0.888 . S
C2881 N77 0.906 . S
C2896 C484 0.888 1_565 S
