# Generated by pormake.
# Topology wip, (6)-cn, num edge types: 1
# Building blocks:
#     Node 0, Type 0, BuildingBlock: JUFBIX_clean_sbu_0, # of connection points: 6
#     Node 1, Type 0, BuildingBlock: JUFBIX_clean_sbu_0, # of connection points: 6
#     Node 2, Type 0, BuildingBlock: JUFBIX_clean_sbu_0, # of connection points: 6
#     Node 3, Type 0, BuildingBlock: JUFBIX_clean_sbu_0, # of connection points: 6
#     Node 4, Type 0, BuildingBlock: JUFBIX_clean_sbu_0, # of connection points: 6
#     Node 5, Type 0, BuildingBlock: JUFBIX_clean_sbu_0, # of connection points: 6
#     Node 6, Type 0, BuildingBlock: JUFBIX_clean_sbu_0, # of connection points: 6
#     Node 7, Type 0, BuildingBlock: JUFBIX_clean_sbu_0, # of connection points: 6
#     Node 8, Type 0, BuildingBlock: JUFBIX_clean_sbu_0, # of connection points: 6
#     Node 9, Type 0, BuildingBlock: JUFBIX_clean_sbu_0, # of connection points: 6
#     Node 10, Type 0, BuildingBlock: JUFBIX_clean_sbu_0, # of connection points: 6
#     Node 11, Type 0, BuildingBlock: JUFBIX_clean_sbu_0, # of connection points: 6
#     Node 12, Type 0, BuildingBlock: JUFBIX_clean_sbu_0, # of connection points: 6
#     Node 13, Type 0, BuildingBlock: JUFBIX_clean_sbu_0, # of connection points: 6
#     Node 14, Type 0, BuildingBlock: JUFBIX_clean_sbu_0, # of connection points: 6
#     Node 15, Type 0, BuildingBlock: JUFBIX_clean_sbu_0, # of connection points: 6
#     Node 16, Type 0, BuildingBlock: JUFBIX_clean_sbu_0, # of connection points: 6
#     Node 17, Type 0, BuildingBlock: JUFBIX_clean_sbu_0, # of connection points: 6
#     Node 18, Type 0, BuildingBlock: JUFBIX_clean_sbu_0, # of connection points: 6
#     Node 19, Type 0, BuildingBlock: JUFBIX_clean_sbu_0, # of connection points: 6
#     Node 20, Type 0, BuildingBlock: JUFBIX_clean_sbu_0, # of connection points: 6
#     Node 21, Type 0, BuildingBlock: JUFBIX_clean_sbu_0, # of connection points: 6
#     Node 22, Type 0, BuildingBlock: JUFBIX_clean_sbu_0, # of connection points: 6
#     Node 23, Type 0, BuildingBlock: JUFBIX_clean_sbu_0, # of connection points: 6
#     Node 24, Type 0, BuildingBlock: JUFBIX_clean_sbu_0, # of connection points: 6
#     Node 25, Type 0, BuildingBlock: JUFBIX_clean_sbu_0, # of connection points: 6
#     Node 26, Type 0, BuildingBlock: JUFBIX_clean_sbu_0, # of connection points: 6
#     Node 27, Type 0, BuildingBlock: JUFBIX_clean_sbu_0, # of connection points: 6
#     Node 28, Type 0, BuildingBlock: JUFBIX_clean_sbu_0, # of connection points: 6
#     Node 29, Type 0, BuildingBlock: JUFBIX_clean_sbu_0, # of connection points: 6
#     Node 30, Type 0, BuildingBlock: JUFBIX_clean_sbu_0, # of connection points: 6
#     Node 31, Type 0, BuildingBlock: JUFBIX_clean_sbu_0, # of connection points: 6
#     Edge 32, Type (0, 0), None
#     Edge 33, Type (0, 0), None
#     Edge 34, Type (0, 0), None
#     Edge 35, Type (0, 0), None
#     Edge 36, Type (0, 0), None
#     Edge 37, Type (0, 0), None
#     Edge 38, Type (0, 0), None
#     Edge 39, Type (0, 0), None
#     Edge 40, Type (0, 0), None
#     Edge 41, Type (0, 0), None
#     Edge 42, Type (0, 0), None
#     Edge 43, Type (0, 0), None
#     Edge 44, Type (0, 0), None
#     Edge 45, Type (0, 0), None
#     Edge 46, Type (0, 0), None
#     Edge 47, Type (0, 0), None
#     Edge 48, Type (0, 0), None
#     Edge 49, Type (0, 0), None
#     Edge 50, Type (0, 0), None
#     Edge 51, Type (0, 0), None
#     Edge 52, Type (0, 0), None
#     Edge 53, Type (0, 0), None
#     Edge 54, Type (0, 0), None
#     Edge 55, Type (0, 0), None
#     Edge 56, Type (0, 0), None
#     Edge 57, Type (0, 0), None
#     Edge 58, Type (0, 0), None
#     Edge 59, Type (0, 0), None
#     Edge 60, Type (0, 0), None
#     Edge 61, Type (0, 0), None
#     Edge 62, Type (0, 0), None
#     Edge 63, Type (0, 0), None
#     Edge 64, Type (0, 0), None
#     Edge 65, Type (0, 0), None
#     Edge 66, Type (0, 0), None
#     Edge 67, Type (0, 0), None
#     Edge 68, Type (0, 0), None
#     Edge 69, Type (0, 0), None
#     Edge 70, Type (0, 0), None
#     Edge 71, Type (0, 0), None
#     Edge 72, Type (0, 0), None
#     Edge 73, Type (0, 0), None
#     Edge 74, Type (0, 0), None
#     Edge 75, Type (0, 0), None
#     Edge 76, Type (0, 0), None
#     Edge 77, Type (0, 0), None
#     Edge 78, Type (0, 0), None
#     Edge 79, Type (0, 0), None
#     Edge 80, Type (0, 0), None
#     Edge 81, Type (0, 0), None
#     Edge 82, Type (0, 0), None
#     Edge 83, Type (0, 0), None
#     Edge 84, Type (0, 0), None
#     Edge 85, Type (0, 0), None
#     Edge 86, Type (0, 0), None
#     Edge 87, Type (0, 0), None
#     Edge 88, Type (0, 0), None
#     Edge 89, Type (0, 0), None
#     Edge 90, Type (0, 0), None
#     Edge 91, Type (0, 0), None
#     Edge 92, Type (0, 0), None
#     Edge 93, Type (0, 0), None
#     Edge 94, Type (0, 0), None
#     Edge 95, Type (0, 0), None
#     Edge 96, Type (0, 0), None
#     Edge 97, Type (0, 0), None
#     Edge 98, Type (0, 0), None
#     Edge 99, Type (0, 0), None
#     Edge 100, Type (0, 0), None
#     Edge 101, Type (0, 0), None
#     Edge 102, Type (0, 0), None
#     Edge 103, Type (0, 0), None
#     Edge 104, Type (0, 0), None
#     Edge 105, Type (0, 0), None
#     Edge 106, Type (0, 0), None
#     Edge 107, Type (0, 0), None
#     Edge 108, Type (0, 0), None
#     Edge 109, Type (0, 0), None
#     Edge 110, Type (0, 0), None
#     Edge 111, Type (0, 0), None
#     Edge 112, Type (0, 0), None
#     Edge 113, Type (0, 0), None
#     Edge 114, Type (0, 0), None
#     Edge 115, Type (0, 0), None
#     Edge 116, Type (0, 0), None
#     Edge 117, Type (0, 0), None
#     Edge 118, Type (0, 0), None
#     Edge 119, Type (0, 0), None
#     Edge 120, Type (0, 0), None
#     Edge 121, Type (0, 0), None
#     Edge 122, Type (0, 0), None
#     Edge 123, Type (0, 0), None
#     Edge 124, Type (0, 0), None
#     Edge 125, Type (0, 0), None
#     Edge 126, Type (0, 0), None
#     Edge 127, Type (0, 0), None
# Relax obj value: 0.876
# Max RMSD: 0.322
# Mean RMSD: 0.303
data_MOF--net-wip--node1-JUFBIX_clean_sbu_0--edge1-none
_symmetry_space_group_name_H-M    P1
_symmetry_Int_Tables_number       1
_symmetry_cell_setting            triclinic
loop_
_symmetry_equiv_pos_as_xyz
'x, y, z'
_cell_length_a     31.962104
_cell_length_b     35.539163
_cell_length_c     13.474833
_cell_angle_alpha  95.128138
_cell_angle_beta   85.110593
_cell_angle_gamma 88.691659
loop_
_atom_site_label
_atom_site_type_symbol
_atom_site_fract_x
_atom_site_fract_y
_atom_site_fract_z
_atom_type_partial_charge
Co0 Co -0.0134 0.41045 0.28897 0.0
C1 C -0.03039 0.47368 0.20742 0.0
Co2 Co 0.04213 0.42851 0.20241 0.0
C3 C 0.94606 0.38677 0.46867 0.0
C4 C 0.90339 0.38905 0.35471 0.0
N5 N 0.94392 0.39313 0.37181 0.0
N6 N 0.90792 0.38163 0.51533 0.0
C7 C 0.88118 0.3823 0.44281 0.0
H8 H -0.02598 0.39151 0.50766 0.0
H9 H 0.8903 0.39427 0.28561 0.0
C10 C 0.05661 0.36519 0.29433 0.0
N11 N 0.08454 0.44424 0.1121 0.0
C12 C 0.07781 0.45166 1.01769 0.0
C13 C 0.12429 0.45475 0.12336 0.0
N14 N 0.1114 0.4665 0.96999 0.0
C15 C 0.1409 0.46865 1.03596 0.0
C16 C 0.03847 0.46255 0.39088 0.0
O17 O 0.0173 0.36751 0.31048 0.0
O18 O 0.07632 0.39026 0.2481 0.0
O19 O 0.05787 0.46365 0.30529 0.0
O20 O 0.00884 0.43927 0.4021 0.0
O21 O 0.006 0.46658 0.16313 0.0
H22 H 0.13965 0.45367 0.1916 0.0
H23 H 0.04815 0.4474 0.98586 0.0
O24 O 0.95457 0.45257 0.27099 0.0
O25 O -0.03495 0.38508 0.17156 0.0
O26 O 0.02712 0.39392 0.09828 0.0
C27 C -0.00948 0.38162 0.09294 0.0
H28 H 0.84722 0.38279 0.45542 0.0
H29 H 0.17172 0.48019 1.02321 0.0
Co30 Co 0.78013 0.79131 0.55854 0.0
C31 C 0.71895 0.7556 0.46537 0.0
Co32 Co 0.73836 0.83023 0.49013 0.0
C33 C 0.81757 0.75782 0.72776 0.0
C34 C 0.8298 0.72491 0.58702 0.0
N35 N 0.81413 0.75893 0.62769 0.0
N36 N 0.83302 0.7239 0.75077 0.0
C37 C 0.84062 0.7034 0.66159 0.0
H38 H 0.80326 0.77917 0.78352 0.0
H39 H 0.82894 0.71464 0.50922 0.0
C40 C 0.79872 0.86672 0.57892 0.0
N41 N 0.70686 0.86235 0.42201 0.0
C42 C 0.69216 0.85199 0.33341 0.0
C43 C 0.70798 0.90056 0.4259 0.0
N44 N 0.68538 0.8818 0.28144 0.0
C45 C 0.69586 0.9124 0.33809 0.0
C46 C 0.70929 0.8198 0.67726 0.0
O47 O 0.8133 0.83358 0.58814 0.0
O48 O 0.76417 0.87137 0.54407 0.0
O49 O 0.69836 0.83372 0.59961 0.0
O50 O 0.74504 0.8034 0.67722 0.0
O51 O 0.71176 0.78791 0.43688 0.0
H52 H 0.7214 0.91864 0.48293 0.0
H53 H 0.69153 0.82298 0.3023 0.0
O54 O 0.74642 0.75082 0.52597 0.0
O55 O 0.81301 0.77868 0.43357 0.0
O56 O 0.779 0.82566 0.37778 0.0
C57 C 0.80617 0.79862 0.3622 0.0
H58 H 0.84961 0.67363 0.65156 0.0
H59 H 0.69932 0.94018 0.31344 0.0
Co60 Co 0.43267 0.56871 0.83908 0.0
C61 C 0.44599 0.50629 0.72044 0.0
Co62 Co 0.37537 0.55415 0.77062 0.0
C63 C 0.47389 0.59137 1.01021 0.0
C64 C 0.51683 0.58709 0.87812 0.0
N65 N 0.4762 0.58397 0.91007 0.0
N66 N 0.51198 0.59601 1.04375 0.0
C67 C 0.53897 0.59426 0.96027 0.0
H68 H 0.44563 0.58769 1.05837 0.0
H69 H 0.52989 0.5812 0.80141 0.0
C70 C 0.36563 0.61507 0.90879 0.0
N71 N 0.33171 0.54193 0.68841 0.0
C72 C 0.3397 0.53147 0.58909 0.0
C73 C 0.28935 0.54243 0.7039 0.0
N74 N 0.30457 0.52529 0.54238 0.0
C75 C 0.27248 0.53226 0.61381 0.0
C76 C 0.37786 0.51845 0.93727 0.0
O77 O 0.40492 0.61221 0.89719 0.0
O78 O 0.34358 0.59293 0.85528 0.0
O79 O 0.35794 0.51876 0.86001 0.0
O80 O 0.40913 0.54002 0.94703 0.0
O81 O 0.40978 0.51514 0.69565 0.0
H82 H 0.27185 0.55011 0.77542 0.0
H83 H 0.37093 0.52929 0.55081 0.0
O84 O 0.46243 0.52622 0.78743 0.0
O85 O 0.45524 0.59368 0.72453 0.0
O86 O 0.39185 0.58928 0.67787 0.0
C87 C 0.42942 0.59875 0.65962 0.0
H88 H 0.57292 0.5931 0.95933 0.0
H89 H 0.23951 0.52998 0.60222 0.0
Co90 Co 0.62507 0.18571 0.97967 0.0
C91 C 0.61145 0.11592 1.05074 0.0
Co92 Co 0.67712 0.1589 1.0462 0.0
C93 C 0.58718 0.21539 0.82446 0.0
C94 C 0.53979 0.19257 0.92135 0.0
N95 N 0.58094 0.20111 0.91283 0.0
N96 N 0.55231 0.2152 0.77577 0.0
C97 C 0.52195 0.20109 0.83574 0.0
H98 H 0.61792 0.22217 0.79248 0.0
H99 H 0.52468 0.1782 0.98154 0.0
C100 C 0.6938 0.22564 0.96348 0.0
N101 N 0.72146 0.14167 0.11018 0.0
C102 C 0.72185 0.13794 0.20889 0.0
C103 C 0.76204 0.13928 0.07344 0.0
N104 N 0.76131 0.13618 0.23665 0.0
C105 C 0.78661 0.13653 0.15126 0.0
C106 C 0.68057 0.13765 0.84785 0.0
O107 O 0.65503 0.22772 0.95115 0.0
O108 O 0.70919 0.1983 1.00364 0.0
O109 O 0.69694 0.12853 0.92552 0.0
O110 O 0.6496 0.16088 0.85798 0.0
O111 O 0.6465 0.11875 0.08642 0.0
H112 H 0.77314 0.14374 0.99741 0.0
H113 H 0.69418 0.14278 0.26123 0.0
O114 O 0.59654 0.14256 1.00675 0.0
O115 O 0.60116 0.21293 0.09895 0.0
O116 O 0.65638 0.19202 0.16611 0.0
C117 C 0.62367 0.2139 0.17197 0.0
H118 H 0.49034 0.19533 0.81689 0.0
H119 H 0.82042 0.13902 0.14705 0.0
Co120 Co 0.00627 0.55736 0.58893 0.0
C121 C -0.02649 0.50175 0.6794 0.0
Co122 Co 0.056 0.5253 0.65502 0.0
C123 C -0.02662 0.59068 0.42225 0.0
C124 C 0.93186 0.60014 0.55619 0.0
N125 N -0.02993 0.58563 0.52113 0.0
N126 N 0.93771 0.60569 0.39285 0.0
C127 C 0.91182 0.61206 0.47772 0.0
H128 H -0.00093 0.57863 0.37068 0.0
H129 H 0.91797 0.59885 0.63183 0.0
C130 C 0.08562 0.5844 0.56722 0.0
N131 N 0.09332 0.50021 0.73105 0.0
C132 C 0.08218 0.48195 0.81329 0.0
C133 C 0.13389 0.50889 0.74075 0.0
N134 N 0.11377 0.47963 0.8734 0.0
C135 C 0.14614 0.49704 0.82874 0.0
C136 C 0.04292 0.49336 0.46939 0.0
O137 O 0.04754 0.58854 0.55255 0.0
O138 O 0.09888 0.5554 0.60485 0.0
O139 O 0.06447 0.48844 0.5428 0.0
O140 O 0.01943 0.52302 0.47118 0.0
O141 O 0.01076 0.49712 0.70362 0.0
H142 H 0.15255 0.52597 0.69253 0.0
H143 H 0.0505 0.47375 0.8338 0.0
O144 O -0.03574 0.52713 0.62498 0.0
O145 O -0.00699 0.58892 0.7127 0.0
O146 O 0.04737 0.56054 0.765 0.0
C147 C 0.01741 0.58464 0.7814 0.0
H148 H 0.87899 0.62081 0.48108 0.0
H149 H 0.17573 0.5027 0.85974 0.0
Co150 Co 0.61946 0.77011 0.85269 0.0
C151 C 0.6897 0.7514 0.93743 0.0
Co152 Co 0.64321 0.81677 0.94624 0.0
C153 C 0.59635 0.72892 0.6685 0.0
C154 C 0.59793 0.69449 0.79074 0.0
N155 N 0.60003 0.73067 0.76829 0.0
N156 N 0.59451 0.69286 0.62716 0.0
C157 C 0.59526 0.67131 0.70446 0.0
H158 H 0.60168 0.75286 0.62508 0.0
H159 H 0.60303 0.6851 0.86305 0.0
C160 C 0.57894 0.83781 0.84467 0.0
N161 N 0.66125 0.85442 1.03227 0.0
C162 C 0.66804 0.84811 0.12618 0.0
C163 C 0.66672 0.89181 1.02702 0.0
N164 N 0.67734 0.87968 0.18028 0.0
C165 C 0.67676 0.90767 0.11928 0.0
C166 C 0.67818 0.81416 0.75756 0.0
O167 O 0.57375 0.8024 0.82804 0.0
O168 O 0.60575 0.84999 0.90211 0.0
O169 O 0.68241 0.82912 0.84475 0.0
O170 O 0.6511 0.78898 0.74327 0.0
O171 O 0.68311 0.7834 0.98584 0.0
H172 H 0.66261 0.90662 0.96162 0.0
H173 H 0.66484 0.82082 0.15504 0.0
O174 O 0.66563 0.7398 0.87233 0.0
O175 O 0.59032 0.75055 0.96958 0.0
O176 O 0.60342 0.80394 1.0521 0.0
C177 C 0.58913 0.77092 1.05258 0.0
H178 H 0.59824 0.64073 0.69769 0.0
H179 H 0.68261 0.93709 0.13979 0.0
Co180 Co 0.40523 0.42364 0.07977 0.0
C181 C 0.44072 0.47868 0.18012 0.0
Co182 Co 0.35731 0.45827 0.18152 0.0
C183 C 0.43669 0.38961 0.88163 0.0
C184 C 0.47839 0.37921 0.9932 0.0
N185 N 0.44015 0.39403 0.98187 0.0
N186 N 0.4722 0.37451 0.82957 0.0
C187 C 0.49819 0.36764 0.90034 0.0
H188 H 0.41104 0.40206 0.84686 0.0
H189 H 0.49257 0.38018 0.06344 0.0
C190 C 0.32503 0.39847 0.08895 0.0
N191 N 0.32272 0.48669 0.28389 0.0
C192 C 0.33446 0.49648 0.37694 0.0
C193 C 0.28181 0.4979 0.28933 0.0
N194 N 0.30278 0.51305 0.43969 0.0
C195 C 0.26939 0.51406 0.38536 0.0
C196 C 0.37108 0.48813 1.00347 0.0
O197 O 0.36245 0.39318 1.05211 0.0
O198 O 0.31255 0.42938 0.13938 0.0
O199 O 0.3503 0.49456 0.08841 0.0
O200 O 0.39256 0.45734 0.98229 0.0
O201 O 0.40381 0.48475 0.22209 0.0
H202 H 0.26193 0.49365 0.22845 0.0
H203 H 0.36532 0.49004 0.39947 0.0
O204 O 0.44864 0.45307 0.10965 0.0
O205 O 0.4178 0.39263 0.18378 0.0
O206 O 0.36474 0.42331 0.27191 0.0
C207 C 0.39325 0.39778 0.26412 0.0
H208 H 0.5309 0.35857 0.88565 0.0
H209 H 0.23837 0.52523 0.41296 0.0
Co210 Co 0.80931 0.2076 0.44465 0.0
C211 C 0.72488 0.22912 0.45993 0.0
Co212 Co 0.76471 0.17242 0.52537 0.0
C213 C 0.83198 0.24186 0.27159 0.0
C214 C 0.88165 0.2482 0.36778 0.0
N215 N 0.84216 0.23565 0.36304 0.0
N216 N 0.86344 0.25699 0.21788 0.0
C217 C 0.89503 0.26154 0.27728 0.0
H218 H 0.80264 0.23338 0.24347 0.0
H219 H 0.90014 0.24607 0.43076 0.0
C220 C 0.84676 0.1455 0.47886 0.0
N221 N 0.73438 0.141 0.60975 0.0
C222 C 0.70413 0.1527 0.68282 0.0
C223 C 0.74769 0.10692 0.63514 0.0
N224 N 0.70018 0.12864 0.75526 0.0
C225 C 0.7277 0.0999 0.72596 0.0
C226 C 0.77184 0.14974 0.32791 0.0
O227 O 0.85634 0.17882 0.46275 0.0
O228 O 0.81141 0.13965 0.52275 0.0
O229 O 0.74934 0.14404 0.40756 0.0
O230 O 0.80076 0.17351 0.33216 0.0
O231 O 0.71882 0.20363 0.51917 0.0
H232 H 0.77331 0.0897 0.59603 0.0
H233 H 0.68995 0.18091 0.69065 0.0
O234 O 0.7614 0.23545 0.42189 0.0
O235 O 0.81676 0.24252 0.55564 0.0
O236 O 0.77894 0.20431 0.64332 0.0
C237 C 0.79819 0.2354 0.63835 0.0
H238 H 0.92547 0.27258 0.25627 0.0
H239 H 0.73449 0.07668 0.76947 0.0
Co240 Co 0.87265 0.55117 0.19077 0.0
C241 C 0.85817 0.6145 0.09887 0.0
Co242 Co 0.92818 0.56924 0.10421 0.0
C243 C 0.83697 0.52801 0.37547 0.0
C244 C 0.79048 0.52494 0.26982 0.0
N245 N 0.83024 0.53544 0.28107 0.0
N246 N 0.80337 0.51318 0.42317 0.0
C247 C 0.77387 0.51105 0.35722 0.0
H248 H 0.86663 0.53226 0.40729 0.0
H249 H 0.77512 0.52603 0.20158 0.0
C250 C 0.94516 0.506 0.18574 0.0
N251 N -0.02915 0.58656 1.02136 0.0
C252 C -0.0313 0.5929 0.92448 0.0
C253 C 0.01138 0.59064 1.03847 0.0
N254 N 0.00686 0.59796 0.87786 0.0
C255 C 0.03361 0.59734 0.95035 0.0
C256 C 0.92427 0.59807 0.30022 0.0
O257 O 0.90877 0.51308 0.23 0.0
O258 O -0.03979 0.52713 0.12223 0.0
O259 O 0.94973 0.59464 0.22158 0.0
O260 O 0.88768 0.58573 0.29496 0.0
O261 O 0.89747 0.61217 0.08266 0.0
H262 H 0.02447 0.58544 0.10759 0.0
H263 H 0.94075 0.58815 0.88549 0.0
O264 O 0.83846 0.58944 0.14514 0.0
O265 O 0.85689 0.51604 0.08786 0.0
O266 O 0.90594 0.5404 0.99108 0.0
C267 C 0.8763 0.51714 1.00228 0.0
H268 H 0.74304 0.49952 0.36997 0.0
H269 H 0.06758 0.59685 0.93773 0.0
Co270 Co 0.1764 0.14945 0.90307 0.0
C271 C 0.11605 0.11297 0.81425 0.0
Co272 Co 0.13464 0.18837 0.83466 0.0
C273 C 0.22261 0.12769 0.05979 0.0
C274 C 0.20676 0.07911 0.96732 0.0
N275 N 0.2079 0.11733 0.97119 0.0
N276 N 0.22938 0.09788 0.11177 0.0
C277 C 0.21889 0.06728 1.05513 0.0
H278 H 0.22325 0.1567 0.09088 0.0
H279 H 0.19333 0.06104 0.91031 0.0
C280 C 0.19582 0.22408 0.92784 0.0
N281 N 0.10064 0.22076 0.76551 0.0
C282 C 0.0972 0.22187 0.66544 0.0
C283 C 0.08497 0.25478 0.80618 0.0
N284 N 0.08174 0.25579 0.64243 0.0
C285 C 0.07415 0.27628 0.73161 0.0
C286 C 0.10859 0.18107 1.031 0.0
O287 O 0.20301 0.19177 0.95633 0.0
O288 O 0.16835 0.22886 0.86724 0.0
O289 O 0.10175 0.201 0.95963 0.0
O290 O 0.13576 0.15403 1.01541 0.0
O291 O 0.10146 0.14611 0.80504 0.0
H292 H 0.08583 0.26505 0.88397 0.0
H293 H 0.1115 0.20051 0.60968 0.0
O294 O 0.1506 0.10832 0.84912 0.0
O295 O 0.21641 0.14597 0.79359 0.0
O296 O 0.16973 0.17628 0.71598 0.0
C297 C 0.20548 0.15988 0.71595 0.0
H298 H 0.21542 0.0395 0.07979 0.0
H299 H 0.06516 0.30605 0.74164 0.0
Co300 Co 0.5394 0.42554 0.62255 0.0
C301 C 0.54914 0.36461 0.48439 0.0
Co302 Co 0.4821 0.41096 0.55408 0.0
C303 C 0.57507 0.44823 0.80405 0.0
C304 C 0.62542 0.43724 0.68925 0.0
N305 N 0.58306 0.43776 0.70474 0.0
N306 N 0.61021 0.4544 0.85076 0.0
C307 C 0.6423 0.44742 0.77934 0.0
H308 H 0.54385 0.45042 0.84233 0.0
H309 H 0.64293 0.42956 0.61774 0.0
C310 C 0.46878 0.4734 0.67271 0.0
N311 N 0.43858 0.3957 0.4831 0.0
C312 C 0.44089 0.38833 0.38295 0.0
C313 C 0.39793 0.39259 0.51506 0.0
N314 N 0.40278 0.38376 0.34949 0.0
C315 C 0.37578 0.38547 0.43292 0.0
C316 C 0.48534 0.38093 0.73355 0.0
O317 O 0.50501 0.46456 0.69747 0.0
O318 O 0.45234 0.45344 0.60577 0.0
O319 O 0.45953 0.38597 0.6686 0.0
O320 O 0.5229 0.39043 0.71538 0.0
O321 O 0.50986 0.36747 0.49595 0.0
H322 H 0.38489 0.39847 0.59178 0.0
H323 H 0.46914 0.39201 0.33478 0.0
O324 O 0.57119 0.38673 0.53793 0.0
O325 O 0.55684 0.4609 0.5331 0.0
O326 O 0.50563 0.43966 0.44614 0.0
C327 C 0.53692 0.46123 0.45586 0.0
H328 H 0.67527 0.44969 0.79093 0.0
H329 H 0.34183 0.38664 0.43385 0.0
Co330 Co 0.23766 0.82078 0.34697 0.0
C331 C 0.22097 0.75404 0.4297 0.0
Co332 Co 0.28971 0.79397 0.41351 0.0
C333 C 0.19293 0.84174 0.18428 0.0
C334 C 0.15274 0.84039 0.31972 0.0
N335 N 0.19332 0.83801 0.28299 0.0
N336 N 0.15347 0.8435 0.15652 0.0
C337 C 0.12817 0.84314 0.24191 0.0
H338 H 0.2206 0.83689 0.13194 0.0
H339 H 0.14164 0.83594 0.39576 0.0
C340 C 0.30333 0.86376 0.34241 0.0
N341 N 0.33384 0.77857 0.48034 0.0
C342 C 0.3276 0.76429 0.56871 0.0
C343 C 0.37498 0.78711 0.47182 0.0
N344 N 0.36247 0.76448 0.6174 0.0
C345 C 0.39283 0.77859 0.55743 0.0
C346 C 0.2911 0.76577 0.2212 0.0
O347 O 0.26828 0.86092 0.30673 0.0
O348 O 0.31824 0.83712 0.38641 0.0
O349 O 0.31362 0.76674 0.29422 0.0
O350 O 0.2584 0.78766 0.22706 0.0
O351 O 0.25975 0.75196 0.44203 0.0
H352 H 0.3901 0.80148 0.41163 0.0
H353 H 0.29686 0.75751 0.60069 0.0
O354 O 0.20559 0.78138 0.38954 0.0
O355 O 0.21784 0.85115 0.46765 0.0
O356 O 0.26518 0.8188 0.53519 0.0
C357 C 0.23421 0.84203 0.54532 0.0
H358 H 0.09435 0.84066 0.24612 0.0
H359 H 0.42444 0.78434 0.57628 0.0
Co360 Co 0.85878 0.45438 0.7381 0.0
C361 C 0.82916 0.39527 0.82592 0.0
Co362 Co 0.9085 0.42232 0.80421 0.0
C363 C 0.8326 0.49773 0.57986 0.0
C364 C 0.78089 0.4708 0.65242 0.0
N365 N 0.82146 0.47947 0.6621 0.0
N366 N 0.80101 0.50006 0.51977 0.0
C367 C 0.76863 0.48266 0.56443 0.0
H368 H 0.86428 0.50592 0.55933 0.0
H369 H 0.76222 0.45373 0.70066 0.0
C370 C 0.94127 0.47793 0.71373 0.0
N371 N 0.9447 0.39405 0.87202 0.0
C372 C 0.94139 0.38904 0.97092 0.0
C373 C -0.01708 0.37954 0.83695 0.0
N374 N -0.0229 0.37408 1.00028 0.0
C375 C 0.00298 0.36765 0.91543 0.0
C376 C 0.89738 0.39502 0.61175 0.0
O377 O 0.90401 0.48258 0.68955 0.0
O378 O 0.95052 0.45253 0.7681 0.0
O379 O 0.92175 0.39073 0.68049 0.0
O380 O 0.86744 0.41915 0.62807 0.0
O381 O 0.86723 0.39114 0.84066 0.0
H382 H -0.00321 0.3808 0.76128 0.0
H383 H 0.91571 0.40108 1.02249 0.0
O384 O 0.81591 0.42426 0.78822 0.0
O385 O 0.8503 0.49123 0.85037 0.0
O386 O 0.89536 0.45667 0.92194 0.0
C387 C 0.87185 0.48632 0.92376 0.0
H388 H 0.73904 0.477 0.53345 0.0
H389 H 0.03581 0.3589 0.91206 0.0
Co390 Co 0.27156 0.16291 0.44696 0.0
C391 C 0.33583 0.14188 0.54854 0.0
Co392 Co 0.2953 0.20957 0.54051 0.0
C393 C 0.24673 0.13157 0.26701 0.0
C394 C 0.24804 0.08787 0.36619 0.0
N395 N 0.25352 0.12526 0.36093 0.0
N396 N 0.23743 0.09999 0.21292 0.0
C397 C 0.238 0.07201 0.27392 0.0
H398 H 0.24993 0.15886 0.23816 0.0
H399 H 0.25215 0.07306 0.43159 0.0
C400 C 0.22506 0.22828 0.45577 0.0
N401 N 0.31474 0.24902 0.62491 0.0
C402 C 0.31842 0.25076 0.7247 0.0
C403 C 0.31683 0.28519 0.60246 0.0
N404 N 0.32025 0.28682 0.76604 0.0
C405 C 0.3195 0.30837 0.68874 0.0
C406 C 0.32564 0.20877 0.34062 0.0
O407 O 0.23166 0.19628 0.40736 0.0
O408 O 0.24914 0.23989 0.52087 0.0
O409 O 0.32444 0.22914 0.42362 0.0
O410 O 0.31134 0.17575 0.3411 0.0
O411 O 0.34101 0.17729 0.56516 0.0
H412 H 0.31173 0.29458 0.53014 0.0
H413 H 0.31308 0.22682 0.76811 0.0
O414 O 0.30902 0.12969 0.4911 0.0
O415 O 0.23236 0.15056 0.54845 0.0
O416 O 0.26366 0.1907 0.64993 0.0
C417 C 0.23659 0.16552 0.63564 0.0
H418 H 0.23216 0.04259 0.25342 0.0
H419 H 0.31652 0.33895 0.69552 0.0
Co420 Co 0.55745 0.52142 0.2116 0.0
C421 C 0.58974 0.58121 0.30421 0.0
Co422 Co 0.50953 0.55605 0.31337 0.0
C423 C 0.58031 0.48321 1.01618 0.0
C424 C 0.63296 0.48179 0.10382 0.0
N425 N 0.59205 0.493 0.10924 0.0
N426 N 0.61199 0.46664 0.95345 0.0
C427 C 0.64538 0.46563 1.00779 0.0
H428 H 0.54946 0.48965 0.99364 0.0
H429 H 0.65283 0.48604 0.1647 0.0
C430 C 0.47404 0.50102 0.21299 0.0
N431 N 0.47462 0.58565 0.41127 0.0
C432 C 0.47808 0.59004 0.51152 0.0
C433 C 0.43638 0.60048 0.39994 0.0
N434 N 0.44254 0.60507 0.56353 0.0
C435 C 0.41656 0.61202 0.4928 0.0
C436 C 0.52151 0.58193 0.12904 0.0
O437 O 0.51095 0.49493 0.17104 0.0
O438 O 0.46612 0.52663 0.28343 0.0
O439 O 0.49698 0.58709 0.20942 0.0
O440 O 0.55 0.55637 0.12118 0.0
O441 O 0.55232 0.5865 0.34109 0.0
H442 H 0.42222 0.59953 0.32968 0.0
H443 H 0.50373 0.5776 0.54629 0.0
O444 O 0.60221 0.55032 0.25371 0.0
O445 O 0.56447 0.48513 0.30472 0.0
O446 O 0.5222 0.52234 0.41082 0.0
C447 C 0.54368 0.49155 0.38965 0.0
H448 H 0.67639 0.45445 0.9802 0.0
H449 H 0.38385 0.6211 0.5075 0.0
Co450 Co 0.15007 0.80726 0.8678 0.0
C451 C 0.06802 0.83418 0.91433 0.0
Co452 Co 0.10547 0.77208 0.94852 0.0
C453 C 0.21065 0.82698 0.71035 0.0
C454 C 0.16708 0.87276 0.75802 0.0
N455 N 0.18039 0.83868 0.78342 0.0
N456 N 0.21459 0.85104 0.63791 0.0
C457 C 0.18707 0.87977 0.6672 0.0
H458 H 0.22483 0.79877 0.70252 0.0
H459 H 0.14146 0.88997 0.79713 0.0
C460 C 0.1899 0.75056 0.93323 0.0
N461 N 0.07262 0.74403 1.03013 0.0
C462 C 0.0828 0.73782 0.12158 0.0
C463 C 0.03313 0.73147 1.02539 0.0
N464 N 0.05134 0.72269 0.17529 0.0
C465 C 0.01975 0.71814 0.11589 0.0
C466 C 0.11659 0.74428 0.75482 0.0
O467 O 0.19596 0.77604 0.87399 0.0
O468 O 0.15338 0.74423 0.97128 0.0
O469 O 0.09802 0.73715 0.83753 0.0
O470 O 0.13583 0.77536 0.74985 0.0
O471 O 0.05844 0.80085 0.93042 0.0
H472 H 0.01464 0.7336 0.96241 0.0
H473 H 0.11214 0.74629 0.1497 0.0
O474 O 0.10336 0.84002 0.87043 0.0
O475 O 0.16544 0.83564 0.98561 0.0
O476 O 0.11402 0.80616 0.06101 0.0
C477 C 0.14294 0.82993 0.06526 0.0
H478 H 0.18028 0.903 0.62369 0.0
H479 H -0.01069 0.7071 0.1369 0.0
Co480 Co 0.48659 0.91045 0.78896 0.0
C481 C 0.46961 0.97368 0.70742 0.0
Co482 Co 0.54213 0.9285 0.7024 0.0
C483 C 0.44606 0.88677 0.96867 0.0
C484 C 0.40339 0.88905 0.85471 0.0
N485 N 0.44391 0.89314 0.87181 0.0
N486 N 0.40791 0.88163 1.01533 0.0
C487 C 0.38117 0.88231 0.94281 0.0
H488 H 0.47401 0.89151 1.00766 0.0
H489 H 0.39029 0.89427 0.78561 0.0
C490 C 0.5566 0.86518 0.7943 0.0
N491 N 0.58454 0.94423 0.61209 0.0
C492 C 0.57781 0.95165 0.51768 0.0
C493 C 0.62429 0.95473 0.62334 0.0
N494 N 0.61141 0.96649 0.46997 0.0
C495 C 0.6409 0.96863 0.53594 0.0
C496 C 0.53848 0.96254 0.89088 0.0
O497 O 0.51729 0.86751 0.81047 0.0
O498 O 0.57632 0.89026 0.74808 0.0
O499 O 0.55787 0.96365 0.80528 0.0
O500 O 0.50884 0.93927 0.9021 0.0
O501 O 0.506 0.96658 0.66313 0.0
H502 H 0.63965 0.95365 0.69158 0.0
H503 H 0.54815 0.9474 0.48586 0.0
O504 O 0.45457 0.95257 0.77098 0.0
O505 O 0.46504 0.88508 0.67156 0.0
O506 O 0.52712 0.89392 0.59827 0.0
C507 C 0.49051 0.88162 0.59294 0.0
H508 H 0.34721 0.8828 0.95542 0.0
H509 H 0.67173 0.98016 0.52318 0.0
Co510 Co 0.28016 0.29131 0.05851 0.0
C511 C 0.21898 0.25559 0.96532 0.0
Co512 Co 0.23838 0.33021 0.99007 0.0
C513 C 0.31756 0.25782 0.22776 0.0
C514 C 0.32984 0.22492 0.087 0.0
N515 N 0.31416 0.25893 0.12768 0.0
N516 N 0.33295 0.22387 0.25073 0.0
C517 C 0.34062 0.20339 0.16156 0.0
H518 H 0.30325 0.27917 0.28352 0.0
H519 H 0.32903 0.21467 1.00918 0.0
C520 C 0.29872 0.36672 0.07891 0.0
N521 N 0.20687 0.36232 0.92197 0.0
C522 C 0.19221 0.35196 0.83332 0.0
C523 C 0.20793 0.40054 0.92595 0.0
N524 N 0.1854 0.38178 0.7814 0.0
C525 C 0.19581 0.41238 0.83814 0.0
C526 C 0.2093 0.31979 0.17721 0.0
O527 O 0.31331 0.33358 0.08818 0.0
O528 O 0.26419 0.37136 1.04395 0.0
O529 O 0.19838 0.33372 0.09958 0.0
O530 O 0.24505 0.30338 0.17717 0.0
O531 O 0.21177 0.28789 0.93688 0.0
H532 H 0.2213 0.41862 0.98304 0.0
H533 H 0.19164 0.32295 0.80215 0.0
O534 O 0.24647 0.2508 1.02588 0.0
O535 O 0.31307 0.27869 0.93358 0.0
O536 O 0.27901 0.32562 0.87768 0.0
C537 C 0.30621 0.2986 0.86217 0.0
H538 H 0.34964 0.17362 0.15153 0.0
H539 H 0.19923 0.44018 0.81355 0.0
Co540 Co 0.93266 0.06871 0.33909 0.0
C541 C 0.94599 0.00629 0.22044 0.0
Co542 Co 0.87537 0.05414 0.27062 0.0
C543 C -0.02612 0.09137 0.51021 0.0
C544 C 0.01683 0.0871 0.37812 0.0
N545 N -0.02381 0.08397 0.41007 0.0
N546 N 0.01198 0.09602 0.54375 0.0
C547 C 0.03896 0.09426 0.46026 0.0
H548 H 0.94563 0.08768 0.55837 0.0
H549 H 0.02988 0.0812 0.30141 0.0
C550 C 0.86562 0.11505 0.4088 0.0
N551 N 0.83171 0.04192 0.18841 0.0
C552 C 0.8397 0.03146 0.08909 0.0
C553 C 0.78935 0.04244 0.20389 0.0
N554 N 0.80456 0.02528 1.04238 0.0
C555 C 0.77247 0.03227 0.11379 0.0
C556 C 0.87785 0.01844 0.43727 0.0
O557 O 0.9049 0.11221 0.39719 0.0
O558 O 0.84357 0.09292 0.35528 0.0
O559 O 0.85794 0.01875 0.36001 0.0
O560 O 0.90913 0.04002 0.44703 0.0
O561 O 0.90977 0.01513 0.19564 0.0
H562 H 0.77184 0.05012 0.2754 0.0
H563 H 0.87092 0.02927 1.05082 0.0
O564 O -0.03758 0.02622 0.28743 0.0
O565 O 0.95523 0.09368 0.22453 0.0
O566 O 0.89184 0.08928 0.17787 0.0
C567 C 0.92941 0.09874 0.15962 0.0
H568 H 0.07291 0.09311 0.45932 0.0
H569 H 0.7395 0.03 0.1022 0.0
Co570 Co 0.12508 0.68569 0.47956 0.0
C571 C 0.11145 0.61591 0.55069 0.0
Co572 Co 0.17713 0.65888 0.54611 0.0
C573 C 0.08723 0.71527 0.32419 0.0
C574 C 0.0398 0.69262 0.42131 0.0
N575 N 0.08096 0.70109 0.41268 0.0
N576 N 0.05236 0.71507 0.27551 0.0
C577 C 0.02195 0.7011 0.33565 0.0
H578 H 0.11797 0.722 0.29216 0.0
H579 H 0.02465 0.67834 0.48164 0.0
C580 C 0.19382 0.72561 0.46334 0.0
N581 N 0.22146 0.64165 0.61012 0.0
C582 C 0.22185 0.63793 0.70883 0.0
C583 C 0.26204 0.63925 0.57339 0.0
N584 N 0.26131 0.63614 0.73659 0.0
C585 C 0.28661 0.63649 0.6512 0.0
C586 C 0.18059 0.63761 0.34779 0.0
O587 O 0.15505 0.72769 0.45099 0.0
O588 O 0.20921 0.69827 0.50353 0.0
O589 O 0.19696 0.6285 0.42546 0.0
O590 O 0.14961 0.66084 0.35791 0.0
O591 O 0.1465 0.61875 0.58635 0.0
H592 H 0.27315 0.6437 0.49735 0.0
H593 H 0.19419 0.64278 0.76117 0.0
O594 O 0.09654 0.64255 0.50669 0.0
O595 O 0.10117 0.71293 0.59881 0.0
O596 O 0.15638 0.69201 0.666 0.0
C597 C 0.12368 0.7139 0.67183 0.0
H598 H -0.00969 0.69541 0.3169 0.0
H599 H 0.32043 0.63896 0.64698 0.0
Co600 Co 0.50628 0.05735 0.08893 0.0
C601 C 0.47351 0.00174 0.17939 0.0
Co602 Co 0.55601 0.02529 0.15502 0.0
C603 C 0.47339 0.09067 0.92225 0.0
C604 C 0.43187 0.10014 1.05619 0.0
N605 N 0.47008 0.08563 1.02113 0.0
N606 N 0.43772 0.1057 0.89285 0.0
C607 C 0.41183 0.11206 0.97772 0.0
H608 H 0.49908 0.07862 0.87068 0.0
H609 H 0.41798 0.09885 0.13184 0.0
C610 C 0.58563 0.0844 0.06723 0.0
N611 N 0.59332 0.0002 0.23104 0.0
C612 C 0.58218 0.98194 0.31328 0.0
C613 C 0.6339 0.00886 0.24072 0.0
N614 N 0.61377 0.97961 0.37338 0.0
C615 C 0.64615 -0.00299 0.32871 0.0
C616 C 0.54293 -0.00664 0.96938 0.0
O617 O 0.54755 0.08853 1.05254 0.0
O618 O 0.59889 0.0554 0.10486 0.0
O619 O 0.56447 0.98844 1.04278 0.0
O620 O 0.51943 0.02302 0.97118 0.0
O621 O 0.51076 -0.00289 0.20361 0.0
H622 H 0.65257 0.02593 0.19249 0.0
H623 H 0.5505 0.97376 0.33381 0.0
O624 O 0.46426 0.02713 0.12498 0.0
O625 O 0.49302 0.08892 0.2127 0.0
O626 O 0.54738 0.06053 0.265 0.0
C627 C 0.51742 0.08464 0.2814 0.0
H628 H 0.379 0.12082 0.98109 0.0
H629 H 0.67574 0.00266 0.3597 0.0
Co630 Co 0.11946 0.27011 0.35268 0.0
C631 C 0.18972 0.25139 0.43739 0.0
Co632 Co 0.14323 0.31677 0.44622 0.0
C633 C 0.09639 0.22893 0.16847 0.0
C634 C 0.09793 0.19449 0.29074 0.0
N635 N 0.10002 0.23067 0.26828 0.0
N636 N 0.09464 0.19286 0.12717 0.0
C637 C 0.09531 0.1713 0.20445 0.0
H638 H 0.10172 0.25287 0.12506 0.0
H639 H 0.10299 0.18511 0.36308 0.0
C640 C 0.07895 0.33781 0.34469 0.0
N641 N 0.16128 0.35442 0.53223 0.0
C642 C 0.1681 0.3481 0.62612 0.0
C643 C 0.16671 0.39182 0.52702 0.0
N644 N 0.17737 0.37967 0.68024 0.0
C645 C 0.17675 0.40767 0.61929 0.0
C646 C 0.17819 0.31416 0.25752 0.0
O647 O 0.07376 0.3024 0.32801 0.0
O648 O 0.10575 0.34999 0.40215 0.0
O649 O 0.18241 0.32914 0.3447 0.0
O650 O 0.15112 0.28897 0.24326 0.0
O651 O 0.18314 0.2834 0.48575 0.0
H652 H 0.16256 0.40664 0.46165 0.0
H653 H 0.16492 0.3208 0.65495 0.0
O654 O 0.16562 0.23978 0.37234 0.0
O655 O 0.0903 0.25055 0.46955 0.0
O656 O 0.10347 0.30391 0.55215 0.0
C657 C 0.08914 0.2709 0.55257 0.0
H658 H 0.09828 0.14072 0.19768 0.0
H659 H 0.18256 0.43709 0.63984 0.0
Co660 Co 0.90524 0.92364 0.57978 0.0
C661 C 0.94072 0.97867 0.68012 0.0
Co662 Co 0.85731 0.95826 0.68152 0.0
C663 C 0.9367 0.88961 0.38163 0.0
C664 C -0.0216 0.87921 0.49321 0.0
N665 N 0.94016 0.89403 0.48187 0.0
N666 N -0.02779 0.87452 0.32957 0.0
C667 C -0.0018 0.86764 0.40035 0.0
H668 H 0.91105 0.90206 0.34686 0.0
H669 H -0.00743 0.88019 0.56344 0.0
C670 C 0.82503 0.89847 0.58895 0.0
N671 N 0.82272 0.98668 0.78389 0.0
C672 C 0.83446 -0.00352 0.87694 0.0
C673 C 0.78181 -0.00209 0.78931 0.0
N674 N 0.80278 0.01305 0.93969 0.0
C675 C 0.76939 0.01407 0.88535 0.0
C676 C 0.87108 0.98812 0.50347 0.0
O677 O 0.86245 0.89317 0.55212 0.0
O678 O 0.81256 0.92938 0.63939 0.0
O679 O 0.85031 -0.00545 0.58842 0.0
O680 O 0.89256 0.95733 0.48229 0.0
O681 O 0.90382 0.98475 0.7221 0.0
H682 H 0.76194 -0.00635 0.72843 0.0
H683 H 0.86531 -0.00997 0.89948 0.0
O684 O 0.94864 0.95307 0.60965 0.0
O685 O 0.91781 0.89262 0.68378 0.0
O686 O 0.86475 0.92331 0.77191 0.0
C687 C 0.89326 0.89778 0.76412 0.0
H688 H 0.03091 0.85858 0.38565 0.0
H689 H 0.73838 0.02524 0.91293 0.0
Co690 Co 0.30931 0.70758 0.94454 0.0
C691 C 0.22487 0.72908 0.95981 0.0
Co692 Co 0.26471 0.6724 1.02529 0.0
C693 C 0.332 0.74178 0.77138 0.0
C694 C 0.38161 0.74823 0.86769 0.0
N695 N 0.34214 0.73563 0.86289 0.0
N696 N 0.36345 0.75691 0.71768 0.0
C697 C 0.39501 0.76154 0.77716 0.0
H698 H 0.30268 0.73326 0.74321 0.0
H699 H 0.40008 0.74616 0.93072 0.0
C700 C 0.34678 0.64551 0.97887 0.0
N701 N 0.2344 0.64097 0.10969 0.0
C702 C 0.20415 0.65267 0.18276 0.0
C703 C 0.24771 0.6069 0.13508 0.0
N704 N 0.2002 0.6286 0.2552 0.0
C705 C 0.22773 0.59988 0.2259 0.0
C706 C 0.27185 0.6497 0.82784 0.0
O707 O 0.35636 0.67882 0.96265 0.0
O708 O 0.31143 0.63964 1.02269 0.0
O709 O 0.24934 0.64401 0.9075 0.0
O710 O 0.30076 0.67348 0.83208 0.0
O711 O 0.21882 0.7036 1.01908 0.0
H712 H 0.27333 0.58968 0.09596 0.0
H713 H 0.18996 0.68088 0.1906 0.0
O714 O 0.26139 0.73541 0.92176 0.0
O715 O 0.31675 0.74252 1.0555 0.0
O716 O 0.27895 0.70431 0.14323 0.0
C717 C 0.29819 0.73539 0.13822 0.0
H718 H 0.42544 0.7726 0.75618 0.0
H719 H 0.23452 0.57665 0.2694 0.0
Co720 Co 0.37265 0.05118 0.69078 0.0
C721 C 0.35818 0.11451 0.5989 0.0
Co722 Co 0.42819 0.06925 0.60421 0.0
C723 C 0.33697 0.02802 0.87548 0.0
C724 C 0.29048 0.02496 0.76984 0.0
N725 N 0.33024 0.03545 0.78108 0.0
N726 N 0.30337 0.0132 0.92319 0.0
C727 C 0.27386 0.01107 0.85724 0.0
H728 H 0.36663 0.03226 0.90729 0.0
H729 H 0.27512 0.02606 0.70161 0.0
C730 C 0.44516 0.006 0.68574 0.0
N731 N 0.47086 0.08656 0.52136 0.0
C732 C 0.46871 0.09289 0.42448 0.0
C733 C 0.51139 0.09064 0.53847 0.0
N734 N 0.50687 0.09796 0.37786 0.0
C735 C 0.53362 0.09734 0.45035 0.0
C736 C 0.42428 0.09807 0.80023 0.0
O737 O 0.40877 0.01308 0.73001 0.0
O738 O 0.46022 0.02713 0.62223 0.0
O739 O 0.44974 0.09464 0.72158 0.0
O740 O 0.38769 0.08574 0.79497 0.0
O741 O 0.39748 0.11218 0.58267 0.0
H742 H 0.52447 0.08544 0.60759 0.0
H743 H 0.44076 0.08815 0.38549 0.0
O744 O 0.33847 0.08944 0.64516 0.0
O745 O 0.35689 0.01605 0.58787 0.0
O746 O 0.40594 0.04041 0.49109 0.0
C747 C 0.3763 0.01714 0.50228 0.0
H748 H 0.24304 -0.00045 0.87001 0.0
H749 H 0.56758 0.09684 0.43773 0.0
Co750 Co 0.67638 0.64947 0.40313 0.0
C751 C 0.61605 0.61297 0.31426 0.0
Co752 Co 0.63461 0.68838 0.33469 0.0
C753 C 0.72256 0.62772 0.55988 0.0
C754 C 0.70682 0.57914 0.46727 0.0
N755 N 0.70789 0.61735 0.47124 0.0
N756 N 0.72936 0.5979 0.6118 0.0
C757 C 0.71894 0.5673 0.55508 0.0
H758 H 0.72314 0.65673 0.59103 0.0
H759 H 0.69344 0.56106 0.41019 0.0
C760 C 0.69578 0.7241 0.42789 0.0
N761 N 0.60061 0.72075 0.26552 0.0
C762 C 0.59721 0.72187 0.16544 0.0
C763 C 0.58493 0.75477 0.3062 0.0
N764 N 0.58182 0.75581 0.14247 0.0
C765 C 0.57414 0.77629 0.23164 0.0
C766 C 0.60855 0.68108 0.53102 0.0
O767 O 0.70299 0.69179 0.45634 0.0
O768 O 0.66829 0.72888 0.36733 0.0
O769 O 0.60169 0.70099 0.45962 0.0
O770 O 0.63575 0.65406 0.51552 0.0
O771 O 0.60146 0.6461 0.305 0.0
H772 H 0.58574 0.76502 0.38402 0.0
H773 H 0.61151 0.70051 0.10968 0.0
O774 O 0.65057 0.60833 0.34924 0.0
O775 O 0.71638 0.64597 0.29363 0.0
O776 O 0.66972 0.67631 0.21603 0.0
C777 C 0.70547 0.65989 0.21599 0.0
H778 H 0.71551 0.53951 0.57968 0.0
H779 H 0.56513 0.80606 0.24167 0.0
Co780 Co 0.0394 0.92554 0.12255 0.0
C781 C 0.04915 0.86462 0.98439 0.0
Co782 Co -0.01789 0.91096 1.05408 0.0
C783 C 0.07508 0.94824 0.30405 0.0
C784 C 0.12543 0.93724 0.18926 0.0
N785 N 0.08306 0.93777 0.20474 0.0
N786 N 0.11021 0.95441 0.35076 0.0
C787 C 0.1423 0.94741 0.27935 0.0
H788 H 0.04385 0.95044 0.34232 0.0
H789 H 0.14293 0.92954 0.11776 0.0
C790 C -0.03122 0.9734 0.17271 0.0
N791 N 0.93858 0.8957 0.9831 0.0
C792 C 0.9409 0.88833 0.88295 0.0
C793 C 0.89794 0.89258 1.01506 0.0
N794 N 0.90279 0.88376 0.84949 0.0
C795 C 0.87579 0.88547 0.93292 0.0
C796 C -0.01465 0.88093 0.23355 0.0
O797 O 0.00501 0.96457 0.19748 0.0
O798 O 0.95234 0.95344 0.10577 0.0
O799 O -0.04046 0.88597 0.1686 0.0
O800 O 0.02291 0.89043 0.21538 0.0
O801 O 0.00987 0.86747 0.99595 0.0
H802 H 0.8849 0.89846 0.09178 0.0
H803 H -0.03085 0.89201 0.83478 0.0
O804 O 0.0712 0.88675 1.03793 0.0
O805 O 0.05684 0.96091 1.0331 0.0
O806 O 0.00564 0.93966 0.94614 0.0
C807 C 0.03692 0.96123 0.95586 0.0
H808 H 0.17527 0.94967 0.29096 0.0
H809 H 0.84184 0.88664 0.93385 0.0
Co810 Co 0.73764 0.32079 0.84706 0.0
C811 C 0.72095 0.25406 0.92984 0.0
Co812 Co 0.7897 0.29399 0.91361 0.0
C813 C 0.69293 0.34175 0.68434 0.0
C814 C 0.65273 0.34042 0.81978 0.0
N815 N 0.69332 0.33802 0.78305 0.0
N816 N 0.65347 0.34354 0.65658 0.0
C817 C 0.62816 0.34319 0.74197 0.0
H818 H 0.72059 0.3369 0.632 0.0
H819 H 0.64163 0.33597 0.89582 0.0
C820 C 0.80333 0.36376 0.84247 0.0
N821 N 0.83382 0.27859 0.98049 0.0
C822 C 0.82755 0.26441 0.06898 0.0
C823 C 0.87498 0.28706 0.97187 0.0
N824 N 0.86242 0.26461 0.11766 0.0
C825 C 0.89283 0.27858 1.05752 0.0
C826 C 0.7911 0.26577 0.72134 0.0
O827 O 0.76828 0.36093 0.80681 0.0
O828 O 0.81824 0.33713 0.88647 0.0
O829 O 0.81361 0.26674 0.79436 0.0
O830 O 0.7584 0.28766 0.72717 0.0
O831 O 0.75972 0.25199 0.94218 0.0
H832 H 0.89013 0.30133 0.91153 0.0
H833 H 0.7968 0.25768 0.10102 0.0
O834 O 0.70557 0.2814 0.88964 0.0
O835 O 0.71782 0.35118 0.96771 0.0
O836 O 0.76517 0.31884 1.03526 0.0
C837 C 0.73419 0.34207 1.04538 0.0
H838 H 0.59435 0.34071 0.74618 0.0
H839 H 0.92447 0.28426 0.07626 0.0
Co840 Co 0.35878 0.95439 0.2381 0.0
C841 C 0.32915 0.89528 0.32591 0.0
Co842 Co 0.4085 0.92232 0.30422 0.0
C843 C 0.3326 -0.00226 0.07987 0.0
C844 C 0.28088 0.97083 0.15245 0.0
N845 N 0.32146 0.97948 0.16211 0.0
N846 N 0.301 8e-05 1.01979 0.0
C847 C 0.26862 0.98269 0.06447 0.0
H848 H 0.36428 0.00591 0.05932 0.0
H849 H 0.26221 0.95376 0.2007 0.0
C850 C 0.44126 0.97794 0.21374 0.0
N851 N 0.44469 0.89405 0.37202 0.0
C852 C 0.44138 0.88904 0.47092 0.0
C853 C 0.48291 0.87954 0.33695 0.0
N854 N 0.47709 0.87408 0.50027 0.0
C855 C 0.50297 0.86765 0.41543 0.0
C856 C 0.39737 0.89503 0.11175 0.0
O857 O 0.40401 0.98258 0.18956 0.0
O858 O 0.45052 0.95253 0.2681 0.0
O859 O 0.42174 0.89073 0.18049 0.0
O860 O 0.36744 0.91916 0.12806 0.0
O861 O 0.36722 0.89115 0.34066 0.0
H862 H 0.49677 0.8808 0.26127 0.0
H863 H 0.4157 0.90108 0.52249 0.0
O864 O 0.3159 0.92426 0.28821 0.0
O865 O 0.35029 -0.00877 0.35038 0.0
O866 O 0.39536 0.95667 0.42195 0.0
C867 C 0.37185 0.98632 0.42377 0.0
H868 H 0.23903 0.97704 1.03349 0.0
H869 H 0.5358 0.85889 0.41206 0.0
Co870 Co 0.77154 0.66291 0.94698 0.0
C871 C 0.83582 0.64188 1.04852 0.0
Co872 Co 0.7953 0.70958 1.04052 0.0
C873 C 0.74667 0.63158 0.76708 0.0
C874 C 0.74806 0.58786 0.86619 0.0
N875 N 0.75349 0.62526 0.86097 0.0
N876 N 0.7374 0.60001 0.71296 0.0
C877 C 0.73802 0.57201 0.77392 0.0
H878 H 0.74985 0.65888 0.73825 0.0
H879 H 0.75221 0.57305 0.93156 0.0
C880 C 0.72505 0.72829 0.95581 0.0
N881 N 0.81474 0.74902 0.12491 0.0
C882 C 0.81838 0.75076 0.22472 0.0
C883 C 0.81683 0.78519 0.10245 0.0
N884 N 0.82013 0.78682 0.26603 0.0
C885 C 0.81945 0.80838 0.18875 0.0
C886 C 0.82562 0.70879 0.84063 0.0
O887 O 0.73162 0.69628 0.90744 0.0
O888 O 0.74914 0.7399 1.02085 0.0
O889 O 0.82446 0.72914 0.92365 0.0
O890 O 0.8113 0.67577 0.84105 0.0
O891 O 0.841 0.67729 0.06519 0.0
H892 H 0.81177 0.79457 1.03011 0.0
H893 H 0.81305 0.72681 0.26813 0.0
O894 O 0.80902 0.6297 0.99105 0.0
O895 O 0.73236 0.65055 1.0485 0.0
O896 O 0.76365 0.69071 0.14994 0.0
C897 C 0.73658 0.66552 0.13568 0.0
H898 H 0.73221 0.54259 0.75338 0.0
H899 H 0.81648 0.83896 0.19553 0.0
Co900 Co 0.05745 0.02142 0.71159 0.0
C901 C 0.08974 0.08122 0.8042 0.0
Co902 Co 0.00953 0.05605 0.81337 0.0
C903 C 0.08031 0.98322 0.51618 0.0
C904 C 0.13295 0.98178 0.60383 0.0
N905 N 0.09205 -0.00699 0.60924 0.0
N906 N 0.11199 0.96664 0.45345 0.0
C907 C 0.14538 0.96562 0.5078 0.0
H908 H 0.04946 0.98967 0.49363 0.0
H909 H 0.15282 0.98603 0.66472 0.0
C910 C -0.02596 0.00102 0.71299 0.0
N911 N -0.02538 0.08565 0.91127 0.0
C912 C -0.02193 0.09004 1.01152 0.0
C913 C 0.93638 0.10048 0.89994 0.0
N914 N 0.94253 0.10507 0.06353 0.0
C915 C 0.91655 0.11201 0.9928 0.0
C916 C 0.0215 0.08193 0.62904 0.0
O917 O 0.01095 -0.00507 0.67104 0.0
O918 O -0.03388 0.02663 0.78344 0.0
O919 O -0.00302 0.0871 0.70942 0.0
O920 O 0.04999 0.05638 0.62117 0.0
O921 O 0.05232 0.08651 0.84108 0.0
H922 H 0.92222 0.09953 0.82968 0.0
H923 H 0.00373 0.0776 1.04629 0.0
O924 O 0.1022 0.05032 0.7537 0.0
O925 O 0.06447 0.98514 0.80472 0.0
O926 O 0.0222 0.02234 0.91082 0.0
C927 C 0.04368 -0.00844 0.88965 0.0
H928 H 0.17639 0.95444 0.48023 0.0
H929 H 0.88384 0.12109 1.0075 0.0
Co930 Co 0.65007 0.30728 0.36788 0.0
C931 C 0.568 0.33417 0.41431 0.0
Co932 Co 0.60547 0.2721 0.44863 0.0
C933 C 0.71063 0.32701 0.2104 0.0
C934 C 0.66706 0.37278 0.25809 0.0
N935 N 0.68037 0.3387 0.28348 0.0
N936 N 0.71457 0.35108 0.13797 0.0
C937 C 0.68705 0.3798 0.16727 0.0
H938 H 0.72482 0.2988 0.20257 0.0
H939 H 0.64144 0.38999 0.2972 0.0
C940 C 0.68991 0.2506 0.43335 0.0
N941 N 0.57264 0.24405 0.53028 0.0
C942 C 0.58278 0.2379 0.62179 0.0
C943 C 0.53317 0.23144 0.52548 0.0
N944 N 0.55133 0.22277 0.6755 0.0
C945 C 0.51977 0.21814 0.61601 0.0
C946 C 0.61659 0.24428 0.25496 0.0
O947 O 0.69596 0.27607 0.37409 0.0
O948 O 0.65339 0.24427 0.47141 0.0
O949 O 0.59803 0.23715 0.33767 0.0
O950 O 0.63583 0.27537 0.24995 0.0
O951 O 0.55842 0.30085 0.43052 0.0
H952 H 0.5147 0.23352 0.46244 0.0
H953 H 0.6121 0.24642 0.64996 0.0
O954 O 0.60335 0.34003 0.37049 0.0
O955 O 0.66544 0.33567 0.48567 0.0
O956 O 0.61402 0.3062 0.56108 0.0
C957 C 0.64293 0.32997 0.56533 0.0
H958 H 0.68025 0.40302 0.12376 0.0
H959 H 0.48934 0.20708 0.63699 0.0
loop_
_geom_bond_atom_site_label_1
_geom_bond_atom_site_label_2
_geom_bond_distance
_geom_bond_site_symmetry_2
_ccdc_geom_bond_type
Co0 N5 2.057 1_455 S
Co0 O17 2.021 . S
Co0 O20 2.062 . S
Co0 O24 2.117 . S
Co0 O25 2.020 . S
C1 O21 1.259 . S
C1 O24 1.258 . S
Co2 N11 2.057 . S
Co2 O18 2.117 . S
Co2 O19 2.020 . S
Co2 O21 2.021 . S
Co2 O26 2.062 . S
C3 N5 1.316 . S
C3 N6 1.347 . S
C3 H8 0.931 1_655 S
C4 N5 1.375 . S
C4 C7 1.350 . S
C4 H9 0.930 . S
N5 Co0 2.057 1_655 S
N5 C3 1.316 . S
N5 C4 1.375 . S
N6 C3 1.347 . S
N6 C7 1.373 . S
C7 C4 1.350 . S
C7 N6 1.373 . S
C7 H28 0.931 . S
H8 C3 0.931 1_455 S
H9 C4 0.930 . S
C10 O17 1.259 . S
C10 O18 1.258 . S
N11 Co2 2.057 . S
N11 C12 1.316 1_554 S
N11 C13 1.375 . S
C12 N11 1.316 1_556 S
C12 N14 1.347 . S
C12 H23 0.931 . S
C13 N11 1.375 . S
C13 C15 1.350 1_554 S
C13 H22 0.930 . S
N14 C12 1.347 . S
N14 C15 1.373 . S
C15 C13 1.350 1_556 S
C15 N14 1.373 . S
C15 H29 0.931 . S
C16 O19 1.256 . S
C16 O20 1.255 . S
O17 Co0 2.021 . S
O17 C10 1.259 . S
O18 Co2 2.117 . S
O18 C10 1.258 . S
O19 Co2 2.020 . S
O19 C16 1.256 . S
O20 Co0 2.062 . S
O20 C16 1.255 . S
O21 C1 1.259 . S
O21 Co2 2.021 . S
H22 C13 0.930 . S
H23 C12 0.931 . S
O24 Co0 2.117 . S
O24 C1 1.258 . S
O25 Co0 2.020 . S
O25 C27 1.256 . S
O26 Co2 2.062 . S
O26 C27 1.255 . S
C27 O25 1.256 . S
C27 O26 1.255 . S
H28 C7 0.931 . S
H29 C15 0.931 . S
Co30 N35 2.057 . S
Co30 O47 2.021 . S
Co30 O50 2.062 . S
Co30 O54 2.117 . S
Co30 O55 2.020 . S
C31 O51 1.259 . S
C31 O54 1.258 . S
Co32 N41 2.057 . S
Co32 O48 2.117 . S
Co32 O49 2.020 . S
Co32 O51 2.021 . S
Co32 O56 2.062 . S
C33 N35 1.316 . S
C33 N36 1.347 . S
C33 H38 0.931 . S
C34 N35 1.375 . S
C34 C37 1.350 . S
C34 H39 0.930 . S
N35 Co30 2.057 . S
N35 C33 1.316 . S
N35 C34 1.375 . S
N36 C33 1.347 . S
N36 C37 1.373 . S
C37 C34 1.350 . S
C37 N36 1.373 . S
C37 H58 0.931 . S
H38 C33 0.931 . S
H39 C34 0.930 . S
C40 O47 1.259 . S
C40 O48 1.258 . S
N41 Co32 2.057 . S
N41 C42 1.316 . S
N41 C43 1.375 . S
C42 N41 1.316 . S
C42 N44 1.347 . S
C42 H53 0.931 . S
C43 N41 1.375 . S
C43 C45 1.350 . S
C43 H52 0.930 . S
N44 C42 1.347 . S
N44 C45 1.373 . S
C45 C43 1.350 . S
C45 N44 1.373 . S
C45 H59 0.931 . S
C46 O49 1.256 . S
C46 O50 1.255 . S
O47 Co30 2.021 . S
O47 C40 1.259 . S
O48 Co32 2.117 . S
O48 C40 1.258 . S
O49 Co32 2.020 . S
O49 C46 1.256 . S
O50 Co30 2.062 . S
O50 C46 1.255 . S
O51 C31 1.259 . S
O51 Co32 2.021 . S
H52 C43 0.930 . S
H53 C42 0.931 . S
O54 Co30 2.117 . S
O54 C31 1.258 . S
O55 Co30 2.020 . S
O55 C57 1.256 . S
O56 Co32 2.062 . S
O56 C57 1.255 . S
C57 O55 1.256 . S
C57 O56 1.255 . S
H58 C37 0.931 . S
H59 C45 0.931 . S
Co60 N65 2.057 . S
Co60 O77 2.021 . S
Co60 O80 2.062 . S
Co60 O84 2.117 . S
Co60 O85 2.020 . S
C61 O81 1.259 . S
C61 O84 1.258 . S
Co62 N71 2.057 . S
Co62 O78 2.117 . S
Co62 O79 2.020 . S
Co62 O81 2.021 . S
Co62 O86 2.062 . S
C63 N65 1.316 . S
C63 N66 1.347 1_556 S
C63 H68 0.930 1_556 S
C64 N65 1.375 . S
C64 C67 1.350 . S
C64 H69 0.930 . S
N65 Co60 2.057 . S
N65 C63 1.316 . S
N65 C64 1.375 . S
N66 C63 1.347 1_554 S
N66 C67 1.373 1_554 S
C67 C64 1.350 . S
C67 N66 1.373 1_556 S
C67 H88 0.931 1_556 S
H68 C63 0.930 1_554 S
H69 C64 0.930 . S
C70 O77 1.259 . S
C70 O78 1.258 . S
N71 Co62 2.057 . S
N71 C72 1.316 . S
N71 C73 1.375 . S
C72 N71 1.316 . S
C72 N74 1.347 . S
C72 H83 0.931 . S
C73 N71 1.375 . S
C73 C75 1.350 . S
C73 H82 0.930 . S
N74 C72 1.347 . S
N74 C75 1.373 . S
C75 C73 1.350 . S
C75 N74 1.373 . S
C75 H89 0.931 . S
C76 O79 1.256 . S
C76 O80 1.255 . S
O77 Co60 2.021 . S
O77 C70 1.259 . S
O78 Co62 2.117 . S
O78 C70 1.258 . S
O79 Co62 2.020 . S
O79 C76 1.256 . S
O80 Co60 2.062 . S
O80 C76 1.255 . S
O81 C61 1.259 . S
O81 Co62 2.021 . S
H82 C73 0.930 . S
H83 C72 0.931 . S
O84 Co60 2.117 . S
O84 C61 1.258 . S
O85 Co60 2.020 . S
O85 C87 1.256 . S
O86 Co62 2.062 . S
O86 C87 1.255 . S
C87 O85 1.256 . S
C87 O86 1.255 . S
H88 C67 0.931 1_554 S
H89 C75 0.931 . S
Co90 N95 2.057 . S
Co90 O107 2.021 . S
Co90 O110 2.062 . S
Co90 O114 2.117 . S
Co90 O115 2.020 1_556 S
C91 O111 1.259 . S
C91 O114 1.258 1_554 S
Co92 N101 2.057 . S
Co92 O108 2.117 . S
Co92 O109 2.020 1_554 S
Co92 O111 2.021 . S
Co92 O116 2.062 . S
C93 N95 1.316 . S
C93 N96 1.347 . S
C93 H98 0.931 . S
C94 N95 1.375 . S
C94 C97 1.350 . S
C94 H99 0.930 . S
N95 Co90 2.057 . S
N95 C93 1.316 . S
N95 C94 1.375 . S
N96 C93 1.347 . S
N96 C97 1.373 . S
C97 C94 1.350 . S
C97 N96 1.373 . S
C97 H118 0.931 . S
H98 C93 0.931 . S
H99 C94 0.930 . S
C100 O107 1.259 . S
C100 O108 1.258 1_556 S
N101 Co92 2.057 . S
N101 C102 1.316 . S
N101 C103 1.375 . S
C102 N101 1.316 . S
C102 N104 1.347 . S
C102 H113 0.931 . S
C103 N101 1.375 . S
C103 C105 1.350 . S
C103 H112 0.930 . S
N104 C102 1.347 . S
N104 C105 1.373 . S
C105 C103 1.350 . S
C105 N104 1.373 . S
C105 H119 0.931 . S
C106 O109 1.256 . S
C106 O110 1.255 . S
O107 Co90 2.021 . S
O107 C100 1.259 . S
O108 Co92 2.117 . S
O108 C100 1.258 1_554 S
O109 Co92 2.020 1_556 S
O109 C106 1.256 . S
O110 Co90 2.062 . S
O110 C106 1.255 . S
O111 C91 1.259 . S
O111 Co92 2.021 . S
H112 C103 0.930 . S
H113 C102 0.931 . S
O114 Co90 2.117 . S
O114 C91 1.258 1_556 S
O115 Co90 2.020 1_554 S
O115 C117 1.256 . S
O116 Co92 2.062 . S
O116 C117 1.255 . S
C117 O115 1.256 . S
C117 O116 1.255 . S
H118 C97 0.931 . S
H119 C105 0.931 . S
Co120 N125 2.057 . S
Co120 O137 2.021 . S
Co120 O140 2.062 . S
Co120 O144 2.117 . S
Co120 O145 2.020 . S
C121 O141 1.259 . S
C121 O144 1.258 . S
Co122 N131 2.057 . S
Co122 O138 2.117 . S
Co122 O139 2.020 . S
Co122 O141 2.021 . S
Co122 O146 2.062 . S
C123 N125 1.316 . S
C123 N126 1.347 1_455 S
C123 H128 0.931 . S
C124 N125 1.375 1_655 S
C124 C127 1.350 . S
C124 H129 0.930 . S
N125 Co120 2.057 . S
N125 C123 1.316 . S
N125 C124 1.375 1_455 S
N126 C123 1.347 1_655 S
N126 C127 1.373 . S
C127 C124 1.350 . S
C127 N126 1.373 . S
C127 H148 0.931 . S
H128 C123 0.931 . S
H129 C124 0.930 . S
C130 O137 1.259 . S
C130 O138 1.258 . S
N131 Co122 2.057 . S
N131 C132 1.316 . S
N131 C133 1.375 . S
C132 N131 1.316 . S
C132 N134 1.347 . S
C132 H143 0.931 . S
C133 N131 1.375 . S
C133 C135 1.350 . S
C133 H142 0.930 . S
N134 C132 1.347 . S
N134 C135 1.373 . S
C135 C133 1.350 . S
C135 N134 1.373 . S
C135 H149 0.931 . S
C136 O139 1.256 . S
C136 O140 1.255 . S
O137 Co120 2.021 . S
O137 C130 1.259 . S
O138 Co122 2.117 . S
O138 C130 1.258 . S
O139 Co122 2.020 . S
O139 C136 1.256 . S
O140 Co120 2.062 . S
O140 C136 1.255 . S
O141 C121 1.259 . S
O141 Co122 2.021 . S
H142 C133 0.930 . S
H143 C132 0.931 . S
O144 Co120 2.117 . S
O144 C121 1.258 . S
O145 Co120 2.020 . S
O145 C147 1.256 . S
O146 Co122 2.062 . S
O146 C147 1.255 . S
C147 O145 1.256 . S
C147 O146 1.255 . S
H148 C127 0.931 . S
H149 C135 0.931 . S
Co150 N155 2.057 . S
Co150 O167 2.021 . S
Co150 O170 2.062 . S
Co150 O174 2.117 . S
Co150 O175 2.020 . S
C151 O171 1.259 . S
C151 O174 1.258 . S
Co152 N161 2.057 . S
Co152 O168 2.117 . S
Co152 O169 2.020 . S
Co152 O171 2.021 . S
Co152 O176 2.062 . S
C153 N155 1.316 . S
C153 N156 1.347 . S
C153 H158 0.931 . S
C154 N155 1.375 . S
C154 C157 1.350 . S
C154 H159 0.930 . S
N155 Co150 2.057 . S
N155 C153 1.316 . S
N155 C154 1.375 . S
N156 C153 1.347 . S
N156 C157 1.373 . S
C157 C154 1.350 . S
C157 N156 1.373 . S
C157 H178 0.931 . S
H158 C153 0.931 . S
H159 C154 0.930 . S
C160 O167 1.259 . S
C160 O168 1.258 . S
N161 Co152 2.057 . S
N161 C162 1.316 1_556 S
N161 C163 1.375 . S
C162 N161 1.316 1_554 S
C162 N164 1.347 . S
C162 H173 0.931 . S
C163 N161 1.375 . S
C163 C165 1.351 1_556 S
C163 H172 0.929 . S
N164 C162 1.347 . S
N164 C165 1.373 . S
C165 C163 1.351 1_554 S
C165 N164 1.373 . S
C165 H179 0.931 . S
C166 O169 1.256 . S
C166 O170 1.255 . S
O167 Co150 2.021 . S
O167 C160 1.259 . S
O168 Co152 2.117 . S
O168 C160 1.258 . S
O169 Co152 2.020 . S
O169 C166 1.256 . S
O170 Co150 2.062 . S
O170 C166 1.255 . S
O171 C151 1.259 . S
O171 Co152 2.021 . S
H172 C163 0.929 . S
H173 C162 0.931 . S
O174 Co150 2.117 . S
O174 C151 1.258 . S
O175 Co150 2.020 . S
O175 C177 1.256 . S
O176 Co152 2.062 . S
O176 C177 1.255 . S
C177 O175 1.256 . S
C177 O176 1.255 . S
H178 C157 0.931 . S
H179 C165 0.931 . S
Co180 N185 2.057 . S
Co180 O197 2.021 . S
Co180 O200 2.062 . S
Co180 O204 2.117 1_556 S
Co180 O205 2.020 1_556 S
C181 O201 1.259 . S
C181 O204 1.258 . S
Co182 N191 2.057 . S
Co182 O198 2.117 . S
Co182 O199 2.020 . S
Co182 O201 2.021 . S
Co182 O206 2.062 . S
C183 N185 1.316 . S
C183 N186 1.347 . S
C183 H188 0.931 . S
C184 N185 1.375 . S
C184 C187 1.350 . S
C184 H189 0.930 . S
N185 Co180 2.057 . S
N185 C183 1.316 . S
N185 C184 1.375 . S
N186 C183 1.347 . S
N186 C187 1.373 . S
C187 C184 1.350 . S
C187 N186 1.373 . S
C187 H208 0.931 . S
H188 C183 0.931 . S
H189 C184 0.930 . S
C190 O197 1.259 1_554 S
C190 O198 1.258 . S
N191 Co182 2.057 . S
N191 C192 1.316 . S
N191 C193 1.375 . S
C192 N191 1.316 . S
C192 N194 1.347 . S
C192 H203 0.931 . S
C193 N191 1.375 . S
C193 C195 1.350 . S
C193 H202 0.930 . S
N194 C192 1.347 . S
N194 C195 1.373 . S
C195 C193 1.350 . S
C195 N194 1.373 . S
C195 H209 0.931 . S
C196 O199 1.256 1_556 S
C196 O200 1.255 . S
O197 Co180 2.021 . S
O197 C190 1.259 1_556 S
O198 Co182 2.117 . S
O198 C190 1.258 . S
O199 Co182 2.020 . S
O199 C196 1.256 1_554 S
O200 Co180 2.062 . S
O200 C196 1.255 . S
O201 C181 1.259 . S
O201 Co182 2.021 . S
H202 C193 0.930 . S
H203 C192 0.931 . S
O204 Co180 2.117 1_554 S
O204 C181 1.258 . S
O205 Co180 2.020 1_554 S
O205 C207 1.256 . S
O206 Co182 2.062 . S
O206 C207 1.255 . S
C207 O205 1.256 . S
C207 O206 1.255 . S
H208 C187 0.931 . S
H209 C195 0.931 . S
Co210 N215 2.057 . S
Co210 O227 2.021 . S
Co210 O230 2.062 . S
Co210 O234 2.117 . S
Co210 O235 2.020 . S
C211 O231 1.259 . S
C211 O234 1.258 . S
Co212 N221 2.057 . S
Co212 O228 2.117 . S
Co212 O229 2.020 . S
Co212 O231 2.021 . S
Co212 O236 2.062 . S
C213 N215 1.316 . S
C213 N216 1.347 . S
C213 H218 0.931 . S
C214 N215 1.375 . S
C214 C217 1.350 . S
C214 H219 0.930 . S
N215 Co210 2.057 . S
N215 C213 1.316 . S
N215 C214 1.375 . S
N216 C213 1.347 . S
N216 C217 1.373 . S
C217 C214 1.350 . S
C217 N216 1.373 . S
C217 H238 0.931 . S
H218 C213 0.931 . S
H219 C214 0.930 . S
C220 O227 1.259 . S
C220 O228 1.258 . S
N221 Co212 2.057 . S
N221 C222 1.316 . S
N221 C223 1.375 . S
C222 N221 1.316 . S
C222 N224 1.347 . S
C222 H233 0.931 . S
C223 N221 1.375 . S
C223 C225 1.350 . S
C223 H232 0.930 . S
N224 C222 1.347 . S
N224 C225 1.373 . S
C225 C223 1.350 . S
C225 N224 1.373 . S
C225 H239 0.931 . S
C226 O229 1.256 . S
C226 O230 1.255 . S
O227 Co210 2.021 . S
O227 C220 1.259 . S
O228 Co212 2.117 . S
O228 C220 1.258 . S
O229 Co212 2.020 . S
O229 C226 1.256 . S
O230 Co210 2.062 . S
O230 C226 1.255 . S
O231 C211 1.259 . S
O231 Co212 2.021 . S
H232 C223 0.930 . S
H233 C222 0.931 . S
O234 Co210 2.117 . S
O234 C211 1.258 . S
O235 Co210 2.020 . S
O235 C237 1.256 . S
O236 Co212 2.062 . S
O236 C237 1.255 . S
C237 O235 1.256 . S
C237 O236 1.255 . S
H238 C217 0.931 . S
H239 C225 0.931 . S
Co240 N245 2.057 . S
Co240 O257 2.021 . S
Co240 O260 2.062 . S
Co240 O264 2.117 . S
Co240 O265 2.020 . S
C241 O261 1.259 1_554 S
C241 O264 1.258 . S
Co242 N251 2.057 1_655 S
Co242 O258 2.117 1_556 S
Co242 O259 2.020 1_556 S
Co242 O261 2.021 . S
Co242 O266 2.062 . S
C243 N245 1.316 . S
C243 N246 1.347 . S
C243 H248 0.931 . S
C244 N245 1.375 . S
C244 C247 1.350 . S
C244 H249 0.930 . S
N245 Co240 2.057 . S
N245 C243 1.316 . S
N245 C244 1.375 . S
N246 C243 1.347 . S
N246 C247 1.373 . S
C247 C244 1.350 . S
C247 N246 1.373 . S
C247 H268 0.931 . S
H248 C243 0.931 . S
H249 C244 0.930 . S
C250 O257 1.259 . S
C250 O258 1.258 . S
N251 Co242 2.057 1_455 S
N251 C252 1.316 . S
N251 C253 1.375 . S
C252 N251 1.316 . S
C252 N254 1.347 . S
C252 H263 0.931 1_455 S
C253 N251 1.375 . S
C253 C255 1.350 . S
C253 H262 0.930 . S
N254 C252 1.347 . S
N254 C255 1.373 . S
C255 C253 1.350 . S
C255 N254 1.373 . S
C255 H269 0.931 . S
C256 O259 1.256 . S
C256 O260 1.255 . S
O257 Co240 2.021 . S
O257 C250 1.259 . S
O258 Co242 2.117 1_554 S
O258 C250 1.258 . S
O259 Co242 2.020 1_554 S
O259 C256 1.256 . S
O260 Co240 2.062 . S
O260 C256 1.255 . S
O261 C241 1.259 1_556 S
O261 Co242 2.021 . S
H262 C253 0.930 . S
H263 C252 0.931 1_655 S
O264 Co240 2.117 . S
O264 C241 1.258 . S
O265 Co240 2.020 . S
O265 C267 1.256 1_554 S
O266 Co242 2.062 . S
O266 C267 1.255 . S
C267 O265 1.256 1_556 S
C267 O266 1.255 . S
H268 C247 0.931 . S
H269 C255 0.931 . S
Co270 N275 2.057 . S
Co270 O287 2.021 . S
Co270 O290 2.062 . S
Co270 O294 2.117 . S
Co270 O295 2.020 . S
C271 O291 1.259 . S
C271 O294 1.258 . S
Co272 N281 2.057 . S
Co272 O288 2.117 . S
Co272 O289 2.020 . S
Co272 O291 2.021 . S
Co272 O296 2.062 . S
C273 N275 1.316 1_554 S
C273 N276 1.347 . S
C273 H278 0.931 . S
C274 N275 1.375 . S
C274 C277 1.350 1_556 S
C274 H279 0.930 . S
N275 Co270 2.057 . S
N275 C273 1.316 1_556 S
N275 C274 1.375 . S
N276 C273 1.347 . S
N276 C277 1.373 . S
C277 C274 1.350 1_554 S
C277 N276 1.373 . S
C277 H298 0.931 . S
H278 C273 0.931 . S
H279 C274 0.930 . S
C280 O287 1.259 . S
C280 O288 1.258 . S
N281 Co272 2.057 . S
N281 C282 1.316 . S
N281 C283 1.375 . S
C282 N281 1.316 . S
C282 N284 1.347 . S
C282 H293 0.931 . S
C283 N281 1.375 . S
C283 C285 1.350 . S
C283 H292 0.930 . S
N284 C282 1.347 . S
N284 C285 1.373 . S
C285 C283 1.350 . S
C285 N284 1.373 . S
C285 H299 0.931 . S
C286 O289 1.256 . S
C286 O290 1.255 . S
O287 Co270 2.021 . S
O287 C280 1.259 . S
O288 Co272 2.117 . S
O288 C280 1.258 . S
O289 Co272 2.020 . S
O289 C286 1.256 . S
O290 Co270 2.062 . S
O290 C286 1.255 . S
O291 C271 1.259 . S
O291 Co272 2.021 . S
H292 C283 0.930 . S
H293 C282 0.931 . S
O294 Co270 2.117 . S
O294 C271 1.258 . S
O295 Co270 2.020 . S
O295 C297 1.256 . S
O296 Co272 2.062 . S
O296 C297 1.255 . S
C297 O295 1.256 . S
C297 O296 1.255 . S
H298 C277 0.931 . S
H299 C285 0.931 . S
Co300 N305 2.057 . S
Co300 O317 2.021 . S
Co300 O320 2.062 . S
Co300 O324 2.117 . S
Co300 O325 2.020 . S
C301 O321 1.259 . S
C301 O324 1.258 . S
Co302 N311 2.057 . S
Co302 O318 2.117 . S
Co302 O319 2.020 . S
Co302 O321 2.021 . S
Co302 O326 2.062 . S
C303 N305 1.316 . S
C303 N306 1.347 . S
C303 H308 0.931 . S
C304 N305 1.375 . S
C304 C307 1.350 . S
C304 H309 0.930 . S
N305 Co300 2.057 . S
N305 C303 1.316 . S
N305 C304 1.375 . S
N306 C303 1.347 . S
N306 C307 1.373 . S
C307 C304 1.350 . S
C307 N306 1.373 . S
C307 H328 0.931 . S
H308 C303 0.931 . S
H309 C304 0.930 . S
C310 O317 1.259 . S
C310 O318 1.258 . S
N311 Co302 2.057 . S
N311 C312 1.316 . S
N311 C313 1.375 . S
C312 N311 1.316 . S
C312 N314 1.347 . S
C312 H323 0.931 . S
C313 N311 1.375 . S
C313 C315 1.350 . S
C313 H322 0.930 . S
N314 C312 1.347 . S
N314 C315 1.373 . S
C315 C313 1.350 . S
C315 N314 1.373 . S
C315 H329 0.931 . S
C316 O319 1.256 . S
C316 O320 1.255 . S
O317 Co300 2.021 . S
O317 C310 1.259 . S
O318 Co302 2.117 . S
O318 C310 1.258 . S
O319 Co302 2.020 . S
O319 C316 1.256 . S
O320 Co300 2.062 . S
O320 C316 1.255 . S
O321 C301 1.259 . S
O321 Co302 2.021 . S
H322 C313 0.930 . S
H323 C312 0.931 . S
O324 Co300 2.117 . S
O324 C301 1.258 . S
O325 Co300 2.020 . S
O325 C327 1.256 . S
O326 Co302 2.062 . S
O326 C327 1.255 . S
C327 O325 1.256 . S
C327 O326 1.255 . S
H328 C307 0.931 . S
H329 C315 0.931 . S
Co330 N335 2.057 . S
Co330 O347 2.021 . S
Co330 O350 2.062 . S
Co330 O354 2.117 . S
Co330 O355 2.020 . S
C331 O351 1.259 . S
C331 O354 1.258 . S
Co332 N341 2.057 . S
Co332 O348 2.117 . S
Co332 O349 2.020 . S
Co332 O351 2.021 . S
Co332 O356 2.062 . S
C333 N335 1.316 . S
C333 N336 1.347 . S
C333 H338 0.931 . S
C334 N335 1.375 . S
C334 C337 1.350 . S
C334 H339 0.930 . S
N335 Co330 2.057 . S
N335 C333 1.316 . S
N335 C334 1.375 . S
N336 C333 1.347 . S
N336 C337 1.373 . S
C337 C334 1.350 . S
C337 N336 1.373 . S
C337 H358 0.931 . S
H338 C333 0.931 . S
H339 C334 0.930 . S
C340 O347 1.259 . S
C340 O348 1.258 . S
N341 Co332 2.057 . S
N341 C342 1.316 . S
N341 C343 1.375 . S
C342 N341 1.316 . S
C342 N344 1.347 . S
C342 H353 0.931 . S
C343 N341 1.375 . S
C343 C345 1.350 . S
C343 H352 0.930 . S
N344 C342 1.347 . S
N344 C345 1.373 . S
C345 C343 1.350 . S
C345 N344 1.373 . S
C345 H359 0.931 . S
C346 O349 1.256 . S
C346 O350 1.255 . S
O347 Co330 2.021 . S
O347 C340 1.259 . S
O348 Co332 2.117 . S
O348 C340 1.258 . S
O349 Co332 2.020 . S
O349 C346 1.256 . S
O350 Co330 2.062 . S
O350 C346 1.255 . S
O351 C331 1.259 . S
O351 Co332 2.021 . S
H352 C343 0.930 . S
H353 C342 0.931 . S
O354 Co330 2.117 . S
O354 C331 1.258 . S
O355 Co330 2.020 . S
O355 C357 1.256 . S
O356 Co332 2.062 . S
O356 C357 1.255 . S
C357 O355 1.256 . S
C357 O356 1.255 . S
H358 C337 0.931 . S
H359 C345 0.931 . S
Co360 N365 2.057 . S
Co360 O377 2.021 . S
Co360 O380 2.062 . S
Co360 O384 2.117 . S
Co360 O385 2.020 . S
C361 O381 1.259 . S
C361 O384 1.258 . S
Co362 N371 2.057 . S
Co362 O378 2.117 . S
Co362 O379 2.020 . S
Co362 O381 2.021 . S
Co362 O386 2.062 . S
C363 N365 1.316 . S
C363 N366 1.347 . S
C363 H368 0.931 . S
C364 N365 1.375 . S
C364 C367 1.350 . S
C364 H369 0.930 . S
N365 Co360 2.057 . S
N365 C363 1.316 . S
N365 C364 1.375 . S
N366 C363 1.347 . S
N366 C367 1.373 . S
C367 C364 1.350 . S
C367 N366 1.373 . S
C367 H388 0.931 . S
H368 C363 0.931 . S
H369 C364 0.930 . S
C370 O377 1.259 . S
C370 O378 1.258 . S
N371 Co362 2.057 . S
N371 C372 1.316 . S
N371 C373 1.375 1_655 S
C372 N371 1.316 . S
C372 N374 1.347 1_656 S
C372 H383 0.931 . S
C373 N371 1.375 1_455 S
C373 C375 1.350 . S
C373 H382 0.930 . S
N374 C372 1.347 1_454 S
N374 C375 1.373 1_554 S
C375 C373 1.350 . S
C375 N374 1.373 1_556 S
C375 H389 0.931 . S
C376 O379 1.256 . S
C376 O380 1.255 . S
O377 Co360 2.021 . S
O377 C370 1.259 . S
O378 Co362 2.117 . S
O378 C370 1.258 . S
O379 Co362 2.020 . S
O379 C376 1.256 . S
O380 Co360 2.062 . S
O380 C376 1.255 . S
O381 C361 1.259 . S
O381 Co362 2.021 . S
H382 C373 0.930 . S
H383 C372 0.931 . S
O384 Co360 2.117 . S
O384 C361 1.258 . S
O385 Co360 2.020 . S
O385 C387 1.256 . S
O386 Co362 2.062 . S
O386 C387 1.255 . S
C387 O385 1.256 . S
C387 O386 1.255 . S
H388 C367 0.931 . S
H389 C375 0.931 . S
Co390 N395 2.057 . S
Co390 O407 2.021 . S
Co390 O410 2.062 . S
Co390 O414 2.117 . S
Co390 O415 2.020 . S
C391 O411 1.259 . S
C391 O414 1.258 . S
Co392 N401 2.057 . S
Co392 O408 2.117 . S
Co392 O409 2.020 . S
Co392 O411 2.021 . S
Co392 O416 2.062 . S
C393 N395 1.316 . S
C393 N396 1.347 . S
C393 H398 0.931 . S
C394 N395 1.375 . S
C394 C397 1.350 . S
C394 H399 0.930 . S
N395 Co390 2.057 . S
N395 C393 1.316 . S
N395 C394 1.375 . S
N396 C393 1.347 . S
N396 C397 1.373 . S
C397 C394 1.350 . S
C397 N396 1.373 . S
C397 H418 0.931 . S
H398 C393 0.931 . S
H399 C394 0.930 . S
C400 O407 1.259 . S
C400 O408 1.258 . S
N401 Co392 2.057 . S
N401 C402 1.316 . S
N401 C403 1.375 . S
C402 N401 1.316 . S
C402 N404 1.347 . S
C402 H413 0.931 . S
C403 N401 1.375 . S
C403 C405 1.350 . S
C403 H412 0.930 . S
N404 C402 1.347 . S
N404 C405 1.373 . S
C405 C403 1.350 . S
C405 N404 1.373 . S
C405 H419 0.931 . S
C406 O409 1.256 . S
C406 O410 1.255 . S
O407 Co390 2.021 . S
O407 C400 1.259 . S
O408 Co392 2.117 . S
O408 C400 1.258 . S
O409 Co392 2.020 . S
O409 C406 1.256 . S
O410 Co390 2.062 . S
O410 C406 1.255 . S
O411 C391 1.259 . S
O411 Co392 2.021 . S
H412 C403 0.930 . S
H413 C402 0.931 . S
O414 Co390 2.117 . S
O414 C391 1.258 . S
O415 Co390 2.020 . S
O415 C417 1.256 . S
O416 Co392 2.062 . S
O416 C417 1.255 . S
C417 O415 1.256 . S
C417 O416 1.255 . S
H418 C397 0.931 . S
H419 C405 0.931 . S
Co420 N425 2.057 . S
Co420 O437 2.021 . S
Co420 O440 2.062 . S
Co420 O444 2.117 . S
Co420 O445 2.020 . S
C421 O441 1.259 . S
C421 O444 1.258 . S
Co422 N431 2.057 . S
Co422 O438 2.117 . S
Co422 O439 2.020 . S
Co422 O441 2.021 . S
Co422 O446 2.062 . S
C423 N425 1.316 1_556 S
C423 N426 1.347 . S
C423 H428 0.931 . S
C424 N425 1.375 . S
C424 C427 1.350 1_554 S
C424 H429 0.930 . S
N425 Co420 2.057 . S
N425 C423 1.316 1_554 S
N425 C424 1.375 . S
N426 C423 1.347 . S
N426 C427 1.373 . S
C427 C424 1.350 1_556 S
C427 N426 1.373 . S
C427 H448 0.931 . S
H428 C423 0.931 . S
H429 C424 0.930 . S
C430 O437 1.259 . S
C430 O438 1.258 . S
N431 Co422 2.057 . S
N431 C432 1.316 . S
N431 C433 1.375 . S
C432 N431 1.316 . S
C432 N434 1.347 . S
C432 H443 0.931 . S
C433 N431 1.375 . S
C433 C435 1.350 . S
C433 H442 0.930 . S
N434 C432 1.347 . S
N434 C435 1.373 . S
C435 C433 1.350 . S
C435 N434 1.373 . S
C435 H449 0.931 . S
C436 O439 1.256 . S
C436 O440 1.255 . S
O437 Co420 2.021 . S
O437 C430 1.259 . S
O438 Co422 2.117 . S
O438 C430 1.258 . S
O439 Co422 2.020 . S
O439 C436 1.256 . S
O440 Co420 2.062 . S
O440 C436 1.255 . S
O441 C421 1.259 . S
O441 Co422 2.021 . S
H442 C433 0.930 . S
H443 C432 0.931 . S
O444 Co420 2.117 . S
O444 C421 1.258 . S
O445 Co420 2.020 . S
O445 C447 1.256 . S
O446 Co422 2.062 . S
O446 C447 1.255 . S
C447 O445 1.256 . S
C447 O446 1.255 . S
H448 C427 0.931 . S
H449 C435 0.931 . S
Co450 N455 2.057 . S
Co450 O467 2.021 . S
Co450 O470 2.062 . S
Co450 O474 2.117 . S
Co450 O475 2.020 . S
C451 O471 1.259 . S
C451 O474 1.258 . S
Co452 N461 2.057 1_556 S
Co452 O468 2.117 . S
Co452 O469 2.020 . S
Co452 O471 2.021 . S
Co452 O476 2.062 . S
C453 N455 1.316 . S
C453 N456 1.347 . S
C453 H458 0.931 . S
C454 N455 1.375 . S
C454 C457 1.350 . S
C454 H459 0.930 . S
N455 Co450 2.057 . S
N455 C453 1.316 . S
N455 C454 1.375 . S
N456 C453 1.347 . S
N456 C457 1.373 . S
C457 C454 1.350 . S
C457 N456 1.373 . S
C457 H478 0.931 . S
H458 C453 0.931 . S
H459 C454 0.930 . S
C460 O467 1.259 . S
C460 O468 1.258 . S
N461 Co452 2.057 1_554 S
N461 C462 1.316 . S
N461 C463 1.375 . S
C462 N461 1.316 . S
C462 N464 1.347 . S
C462 H473 0.931 . S
C463 N461 1.375 . S
C463 C465 1.350 . S
C463 H472 0.930 1_554 S
N464 C462 1.347 . S
N464 C465 1.373 . S
C465 C463 1.350 . S
C465 N464 1.373 . S
C465 H479 0.931 . S
C466 O469 1.256 . S
C466 O470 1.255 . S
O467 Co450 2.021 . S
O467 C460 1.259 . S
O468 Co452 2.117 . S
O468 C460 1.258 . S
O469 Co452 2.020 . S
O469 C466 1.256 . S
O470 Co450 2.062 . S
O470 C466 1.255 . S
O471 C451 1.259 . S
O471 Co452 2.021 . S
H472 C463 0.930 1_556 S
H473 C462 0.931 . S
O474 Co450 2.117 . S
O474 C451 1.258 . S
O475 Co450 2.020 . S
O475 C477 1.256 . S
O476 Co452 2.062 . S
O476 C477 1.255 . S
C477 O475 1.256 . S
C477 O476 1.255 . S
H478 C457 0.931 . S
H479 C465 0.931 . S
Co480 N485 2.057 . S
Co480 O497 2.021 . S
Co480 O500 2.062 . S
Co480 O504 2.117 . S
Co480 O505 2.020 . S
C481 O501 1.261 . S
C481 O504 1.258 . S
Co482 N491 2.057 . S
Co482 O498 2.117 . S
Co482 O499 2.020 . S
Co482 O501 2.038 . S
Co482 O506 2.062 . S
C483 N485 1.316 . S
C483 N486 1.347 1_556 S
C483 H488 0.931 . S
C484 N485 1.375 . S
C484 C487 1.350 . S
C484 H489 0.930 . S
N485 Co480 2.057 . S
N485 C483 1.316 . S
N485 C484 1.375 . S
N486 C483 1.347 1_554 S
N486 C487 1.373 1_554 S
C487 C484 1.350 . S
C487 N486 1.373 1_556 S
C487 H508 0.931 1_556 S
H488 C483 0.931 . S
H489 C484 0.930 . S
C490 O497 1.259 . S
C490 O498 1.258 . S
N491 Co482 2.057 . S
N491 C492 1.316 . S
N491 C493 1.375 . S
C492 N491 1.316 . S
C492 N494 1.347 . S
C492 H503 0.931 1_565 S
C493 N491 1.375 . S
C493 C495 1.350 . S
C493 H502 0.930 . S
N494 C492 1.347 . S
N494 C495 1.373 . S
C495 C493 1.350 . S
C495 N494 1.373 . S
C495 H509 0.931 . S
C496 O499 1.256 . S
C496 O500 1.255 . S
O497 Co480 2.021 . S
O497 C490 1.259 . S
O498 Co482 2.117 . S
O498 C490 1.258 . S
O499 Co482 2.020 . S
O499 C496 1.256 . S
O500 Co480 2.062 . S
O500 C496 1.255 . S
O501 C481 1.261 . S
O501 Co482 2.038 . S
H502 C493 0.930 . S
H503 C492 0.931 1_545 S
O504 Co480 2.117 . S
O504 C481 1.258 . S
O505 Co480 2.020 . S
O505 C507 1.256 . S
O506 Co482 2.062 . S
O506 C507 1.255 . S
C507 O505 1.256 . S
C507 O506 1.255 . S
H508 C487 0.931 1_554 S
H509 C495 0.931 . S
Co510 N515 2.057 . S
Co510 O527 2.021 . S
Co510 O530 2.062 . S
Co510 O534 2.117 . S
Co510 O535 2.020 1_554 S
C511 O531 1.259 . S
C511 O534 1.258 1_556 S
Co512 N521 2.057 . S
Co512 O528 2.117 . S
Co512 O529 2.020 1_556 S
Co512 O531 2.021 . S
Co512 O536 2.062 . S
C513 N515 1.316 . S
C513 N516 1.347 . S
C513 H518 0.931 . S
C514 N515 1.375 . S
C514 C517 1.350 . S
C514 H519 0.930 . S
N515 Co510 2.057 . S
N515 C513 1.316 . S
N515 C514 1.375 . S
N516 C513 1.347 . S
N516 C517 1.373 . S
C517 C514 1.350 . S
C517 N516 1.373 . S
C517 H538 0.931 . S
H518 C513 0.931 . S
H519 C514 0.930 . S
C520 O527 1.259 . S
C520 O528 1.258 1_554 S
N521 Co512 2.057 . S
N521 C522 1.316 . S
N521 C523 1.375 . S
C522 N521 1.316 . S
C522 N524 1.347 . S
C522 H533 0.931 . S
C523 N521 1.375 . S
C523 C525 1.350 . S
C523 H532 0.930 . S
N524 C522 1.347 . S
N524 C525 1.373 . S
C525 C523 1.350 . S
C525 N524 1.373 . S
C525 H539 0.931 . S
C526 O529 1.256 . S
C526 O530 1.255 . S
O527 Co510 2.021 . S
O527 C520 1.259 . S
O528 Co512 2.117 . S
O528 C520 1.258 1_556 S
O529 Co512 2.020 1_554 S
O529 C526 1.256 . S
O530 Co510 2.062 . S
O530 C526 1.255 . S
O531 C511 1.259 . S
O531 Co512 2.021 . S
H532 C523 0.930 . S
H533 C522 0.931 . S
O534 Co510 2.117 . S
O534 C511 1.258 1_554 S
O535 Co510 2.020 1_556 S
O535 C537 1.256 . S
O536 Co512 2.062 . S
O536 C537 1.255 . S
C537 O535 1.256 . S
C537 O536 1.255 . S
H538 C517 0.931 . S
H539 C525 0.931 . S
Co540 N545 2.057 1_655 S
Co540 O557 2.021 . S
Co540 O560 2.062 . S
Co540 O564 2.117 . S
Co540 O565 2.020 . S
C541 O561 1.259 . S
C541 O564 1.258 . S
Co542 N551 2.057 . S
Co542 O558 2.117 . S
Co542 O559 2.020 . S
Co542 O561 2.021 . S
Co542 O566 2.062 . S
C543 N545 1.316 . S
C543 N546 1.347 . S
C543 H548 0.931 1_455 S
C544 N545 1.375 . S
C544 C547 1.350 . S
C544 H549 0.930 . S
N545 Co540 2.057 1_455 S
N545 C543 1.316 . S
N545 C544 1.375 . S
N546 C543 1.347 . S
N546 C547 1.373 . S
C547 C544 1.350 . S
C547 N546 1.373 . S
C547 H568 0.931 . S
H548 C543 0.931 1_655 S
H549 C544 0.930 . S
C550 O557 1.259 . S
C550 O558 1.258 . S
N551 Co542 2.057 . S
N551 C552 1.316 . S
N551 C553 1.375 . S
C552 N551 1.316 . S
C552 N554 1.347 1_554 S
C552 H563 0.931 . S
C553 N551 1.375 . S
C553 C555 1.350 . S
C553 H562 0.930 . S
N554 C552 1.347 1_556 S
N554 C555 1.373 1_556 S
C555 C553 1.350 . S
C555 N554 1.373 1_554 S
C555 H569 0.931 . S
C556 O559 1.256 . S
C556 O560 1.255 . S
O557 Co540 2.021 . S
O557 C550 1.259 . S
O558 Co542 2.117 . S
O558 C550 1.258 . S
O559 Co542 2.020 . S
O559 C556 1.256 . S
O560 Co540 2.062 . S
O560 C556 1.255 . S
O561 C541 1.259 . S
O561 Co542 2.021 . S
H562 C553 0.930 . S
H563 C552 0.931 . S
O564 Co540 2.117 . S
O564 C541 1.258 . S
O565 Co540 2.020 . S
O565 C567 1.256 . S
O566 Co542 2.062 . S
O566 C567 1.255 . S
C567 O565 1.256 . S
C567 O566 1.255 . S
H568 C547 0.931 . S
H569 C555 0.931 . S
Co570 N575 2.057 . S
Co570 O587 2.021 . S
Co570 O590 2.062 . S
Co570 O594 2.117 . S
Co570 O595 2.020 . S
C571 O591 1.259 . S
C571 O594 1.258 . S
Co572 N581 2.057 . S
Co572 O588 2.117 . S
Co572 O589 2.020 . S
Co572 O591 2.021 . S
Co572 O596 2.062 . S
C573 N575 1.316 . S
C573 N576 1.347 . S
C573 H578 0.931 . S
C574 N575 1.375 . S
C574 C577 1.350 . S
C574 H579 0.930 . S
N575 Co570 2.057 . S
N575 C573 1.316 . S
N575 C574 1.375 . S
N576 C573 1.347 . S
N576 C577 1.373 . S
C577 C574 1.350 . S
C577 N576 1.373 . S
C577 H598 0.931 . S
H578 C573 0.931 . S
H579 C574 0.930 . S
C580 O587 1.259 . S
C580 O588 1.258 . S
N581 Co572 2.057 . S
N581 C582 1.316 . S
N581 C583 1.375 . S
C582 N581 1.316 . S
C582 N584 1.347 . S
C582 H593 0.931 . S
C583 N581 1.375 . S
C583 C585 1.350 . S
C583 H592 0.930 . S
N584 C582 1.347 . S
N584 C585 1.373 . S
C585 C583 1.350 . S
C585 N584 1.373 . S
C585 H599 0.931 . S
C586 O589 1.256 . S
C586 O590 1.255 . S
O587 Co570 2.021 . S
O587 C580 1.259 . S
O588 Co572 2.117 . S
O588 C580 1.258 . S
O589 Co572 2.020 . S
O589 C586 1.256 . S
O590 Co570 2.062 . S
O590 C586 1.255 . S
O591 C571 1.259 . S
O591 Co572 2.021 . S
H592 C583 0.930 . S
H593 C582 0.931 . S
O594 Co570 2.117 . S
O594 C571 1.258 . S
O595 Co570 2.020 . S
O595 C597 1.256 . S
O596 Co572 2.062 . S
O596 C597 1.255 . S
C597 O595 1.256 . S
C597 O596 1.255 . S
H598 C577 0.931 . S
H599 C585 0.931 . S
Co600 N605 2.057 . S
Co600 O617 2.021 . S
Co600 O620 2.062 . S
Co600 O624 2.117 1_556 S
Co600 O625 2.020 1_556 S
C601 O621 1.259 . S
C601 O624 1.258 1_565 S
Co602 N611 2.057 . S
Co602 O618 2.117 . S
Co602 O619 2.008 1_544 S
Co602 O621 2.021 1_545 S
Co602 O626 2.062 . S
C603 N605 1.316 . S
C603 N606 1.347 . S
C603 H608 0.931 . S
C604 N605 1.375 . S
C604 C607 1.350 . S
C604 H609 0.930 . S
N605 Co600 2.057 . S
N605 C603 1.316 . S
N605 C604 1.375 . S
N606 C603 1.347 . S
N606 C607 1.373 . S
C607 C604 1.350 . S
C607 N606 1.373 . S
C607 H628 0.931 . S
H608 C603 0.931 . S
H609 C604 0.930 . S
C610 O617 1.259 1_554 S
C610 O618 1.258 . S
N611 Co602 2.057 . S
N611 C612 1.316 1_545 S
N611 C613 1.375 . S
C612 N611 1.316 1_565 S
C612 N614 1.347 . S
C612 H623 0.931 . S
C613 N611 1.375 . S
C613 C615 1.350 . S
C613 H622 0.930 . S
N614 C612 1.347 . S
N614 C615 1.373 1_565 S
C615 C613 1.350 . S
C615 N614 1.373 1_545 S
C615 H629 0.931 . S
C616 O619 1.248 1_545 S
C616 O620 1.255 . S
O617 Co600 2.021 . S
O617 C610 1.259 1_556 S
O618 Co602 2.117 . S
O618 C610 1.258 . S
O619 Co602 2.008 1_566 S
O619 C616 1.248 1_565 S
O620 Co600 2.062 . S
O620 C616 1.255 . S
O621 C601 1.259 . S
O621 Co602 2.021 1_565 S
H622 C613 0.930 . S
H623 C612 0.931 . S
O624 Co600 2.117 1_554 S
O624 C601 1.258 1_545 S
O625 Co600 2.020 1_554 S
O625 C627 1.256 . S
O626 Co602 2.062 . S
O626 C627 1.255 . S
C627 O625 1.256 . S
C627 O626 1.255 . S
H628 C607 0.931 . S
H629 C615 0.931 . S
Co630 N635 2.057 . S
Co630 O647 2.021 . S
Co630 O650 2.062 . S
Co630 O654 2.117 . S
Co630 O655 2.020 . S
C631 O651 1.259 . S
C631 O654 1.258 . S
Co632 N641 2.057 . S
Co632 O648 2.117 . S
Co632 O649 2.020 . S
Co632 O651 2.021 . S
Co632 O656 2.062 . S
C633 N635 1.316 . S
C633 N636 1.347 . S
C633 H638 0.931 . S
C634 N635 1.375 . S
C634 C637 1.350 . S
C634 H639 0.930 . S
N635 Co630 2.057 . S
N635 C633 1.316 . S
N635 C634 1.375 . S
N636 C633 1.347 . S
N636 C637 1.373 . S
C637 C634 1.350 . S
C637 N636 1.373 . S
C637 H658 0.931 . S
H638 C633 0.931 . S
H639 C634 0.930 . S
C640 O647 1.259 . S
C640 O648 1.258 . S
N641 Co632 2.057 . S
N641 C642 1.316 . S
N641 C643 1.375 . S
C642 N641 1.316 . S
C642 N644 1.347 . S
C642 H653 0.931 . S
C643 N641 1.375 . S
C643 C645 1.350 . S
C643 H652 0.930 . S
N644 C642 1.347 . S
N644 C645 1.373 . S
C645 C643 1.350 . S
C645 N644 1.373 . S
C645 H659 0.931 . S
C646 O649 1.256 . S
C646 O650 1.255 . S
O647 Co630 2.021 . S
O647 C640 1.259 . S
O648 Co632 2.117 . S
O648 C640 1.258 . S
O649 Co632 2.020 . S
O649 C646 1.256 . S
O650 Co630 2.062 . S
O650 C646 1.255 . S
O651 C631 1.259 . S
O651 Co632 2.021 . S
H652 C643 0.930 . S
H653 C642 0.931 . S
O654 Co630 2.117 . S
O654 C631 1.258 . S
O655 Co630 2.020 . S
O655 C657 1.256 . S
O656 Co632 2.062 . S
O656 C657 1.255 . S
C657 O655 1.256 . S
C657 O656 1.255 . S
H658 C637 0.931 . S
H659 C645 0.931 . S
Co660 N665 2.057 . S
Co660 O677 2.021 . S
Co660 O680 2.062 . S
Co660 O684 2.117 . S
Co660 O685 2.020 . S
C661 O681 1.259 . S
C661 O684 1.258 1_545 S
Co662 N671 2.057 . S
Co662 O678 2.117 . S
Co662 O679 2.020 1_565 S
Co662 O681 2.021 1_565 S
Co662 O686 2.062 . S
C663 N665 1.316 . S
C663 N666 1.347 1_655 S
C663 H668 0.931 . S
C664 N665 1.375 1_455 S
C664 C667 1.350 . S
C664 H669 0.930 . S
N665 Co660 2.057 . S
N665 C663 1.316 . S
N665 C664 1.375 1_655 S
N666 C663 1.347 1_455 S
N666 C667 1.373 . S
C667 C664 1.350 . S
C667 N666 1.373 . S
C667 H688 0.931 . S
H668 C663 0.931 . S
H669 C664 0.930 . S
C670 O677 1.259 . S
C670 O678 1.258 . S
N671 Co662 2.057 . S
N671 C672 1.316 1_565 S
N671 C673 1.375 . S
C672 N671 1.316 1_545 S
C672 N674 1.347 . S
C672 H683 0.931 . S
C673 N671 1.375 . S
C673 C675 1.350 . S
C673 H682 0.930 . S
N674 C672 1.347 . S
N674 C675 1.373 1_545 S
C675 C673 1.350 . S
C675 N674 1.373 1_565 S
C675 H689 0.931 . S
C676 O679 1.256 1_565 S
C676 O680 1.255 . S
O677 Co660 2.021 . S
O677 C670 1.259 . S
O678 Co662 2.117 . S
O678 C670 1.258 . S
O679 Co662 2.020 1_545 S
O679 C676 1.256 1_545 S
O680 Co660 2.062 . S
O680 C676 1.255 . S
O681 C661 1.259 . S
O681 Co662 2.021 1_545 S
H682 C673 0.930 . S
H683 C672 0.931 . S
O684 Co660 2.117 . S
O684 C661 1.258 1_565 S
O685 Co660 2.020 . S
O685 C687 1.256 . S
O686 Co662 2.062 . S
O686 C687 1.255 . S
C687 O685 1.256 . S
C687 O686 1.255 . S
H688 C667 0.931 . S
H689 C675 0.931 . S
Co690 N695 2.057 . S
Co690 O707 2.021 . S
Co690 O710 2.062 . S
Co690 O714 2.117 . S
Co690 O715 2.020 . S
C691 O711 1.259 1_556 S
C691 O714 1.258 . S
Co692 N701 2.055 1_556 S
Co692 O708 2.117 . S
Co692 O709 2.022 . S
Co692 O711 2.021 1_556 S
Co692 O716 2.060 1_556 S
C693 N695 1.316 . S
C693 N696 1.347 . S
C693 H698 0.931 . S
C694 N695 1.375 . S
C694 C697 1.350 . S
C694 H699 0.930 . S
N695 Co690 2.057 . S
N695 C693 1.316 . S
N695 C694 1.375 . S
N696 C693 1.347 . S
N696 C697 1.373 . S
C697 C694 1.350 . S
C697 N696 1.373 . S
C697 H718 0.931 . S
H698 C693 0.931 . S
H699 C694 0.930 . S
C700 O707 1.259 . S
C700 O708 1.258 . S
N701 Co692 2.055 1_554 S
N701 C702 1.316 . S
N701 C703 1.375 . S
C702 N701 1.316 . S
C702 N704 1.347 . S
C702 H713 0.931 . S
C703 N701 1.375 . S
C703 C705 1.350 . S
C703 H712 0.930 . S
N704 C702 1.347 . S
N704 C705 1.373 . S
C705 C703 1.350 . S
C705 N704 1.373 . S
C705 H719 0.931 . S
C706 O709 1.256 . S
C706 O710 1.255 . S
O707 Co690 2.021 . S
O707 C700 1.259 . S
O708 Co692 2.117 . S
O708 C700 1.258 . S
O709 Co692 2.022 . S
O709 C706 1.256 . S
O710 Co690 2.062 . S
O710 C706 1.255 . S
O711 C691 1.259 1_554 S
O711 Co692 2.021 1_554 S
H712 C703 0.930 . S
H713 C702 0.931 . S
O714 Co690 2.117 . S
O714 C691 1.258 . S
O715 Co690 2.020 . S
O715 C717 1.256 1_556 S
O716 Co692 2.060 1_554 S
O716 C717 1.255 . S
C717 O715 1.256 1_554 S
C717 O716 1.255 . S
H718 C697 0.931 . S
H719 C705 0.931 . S
Co720 N725 2.057 . S
Co720 O737 2.037 . S
Co720 O740 2.062 . S
Co720 O744 2.117 . S
Co720 O745 2.020 . S
C721 O741 1.259 . S
C721 O744 1.258 . S
Co722 N731 2.057 . S
Co722 O738 2.117 . S
Co722 O739 2.020 . S
Co722 O741 2.021 . S
Co722 O746 2.062 . S
C723 N725 1.316 . S
C723 N726 1.347 . S
C723 H728 0.931 1_545 S
C724 N725 1.375 . S
C724 C727 1.350 . S
C724 H729 0.930 . S
N725 Co720 2.057 . S
N725 C723 1.316 . S
N725 C724 1.375 . S
N726 C723 1.347 . S
N726 C727 1.373 . S
C727 C724 1.350 . S
C727 N726 1.373 . S
C727 H748 0.931 . S
H728 C723 0.931 1_565 S
H729 C724 0.930 . S
C730 O737 1.261 . S
C730 O738 1.258 . S
N731 Co722 2.057 . S
N731 C732 1.316 . S
N731 C733 1.375 . S
C732 N731 1.316 . S
C732 N734 1.347 . S
C732 H743 0.931 . S
C733 N731 1.375 . S
C733 C735 1.350 . S
C733 H742 0.930 . S
N734 C732 1.347 . S
N734 C735 1.373 . S
C735 C733 1.350 . S
C735 N734 1.373 . S
C735 H749 0.931 . S
C736 O739 1.256 . S
C736 O740 1.255 . S
O737 Co720 2.037 . S
O737 C730 1.261 . S
O738 Co722 2.117 . S
O738 C730 1.258 . S
O739 Co722 2.020 . S
O739 C736 1.256 . S
O740 Co720 2.062 . S
O740 C736 1.255 . S
O741 C721 1.259 . S
O741 Co722 2.021 . S
H742 C733 0.930 . S
H743 C732 0.931 . S
O744 Co720 2.117 . S
O744 C721 1.258 . S
O745 Co720 2.020 . S
O745 C747 1.256 . S
O746 Co722 2.062 . S
O746 C747 1.255 . S
C747 O745 1.256 . S
C747 O746 1.255 . S
H748 C727 0.931 . S
H749 C735 0.931 . S
Co750 N755 2.057 . S
Co750 O767 2.021 . S
Co750 O770 2.062 . S
Co750 O774 2.117 . S
Co750 O775 2.020 . S
C751 O771 1.259 . S
C751 O774 1.258 . S
Co752 N761 2.057 . S
Co752 O768 2.117 . S
Co752 O769 2.020 . S
Co752 O771 2.021 . S
Co752 O776 2.062 . S
C753 N755 1.316 . S
C753 N756 1.347 . S
C753 H758 0.931 . S
C754 N755 1.375 . S
C754 C757 1.350 . S
C754 H759 0.930 . S
N755 Co750 2.057 . S
N755 C753 1.316 . S
N755 C754 1.375 . S
N756 C753 1.347 . S
N756 C757 1.373 . S
C757 C754 1.350 . S
C757 N756 1.373 . S
C757 H778 0.931 . S
H758 C753 0.931 . S
H759 C754 0.930 . S
C760 O767 1.259 . S
C760 O768 1.258 . S
N761 Co752 2.057 . S
N761 C762 1.316 . S
N761 C763 1.375 . S
C762 N761 1.316 . S
C762 N764 1.347 . S
C762 H773 0.931 . S
C763 N761 1.375 . S
C763 C765 1.350 . S
C763 H772 0.930 . S
N764 C762 1.347 . S
N764 C765 1.373 . S
C765 C763 1.350 . S
C765 N764 1.373 . S
C765 H779 0.931 . S
C766 O769 1.256 . S
C766 O770 1.255 . S
O767 Co750 2.021 . S
O767 C760 1.259 . S
O768 Co752 2.117 . S
O768 C760 1.258 . S
O769 Co752 2.020 . S
O769 C766 1.256 . S
O770 Co750 2.062 . S
O770 C766 1.255 . S
O771 C751 1.259 . S
O771 Co752 2.021 . S
H772 C763 0.930 . S
H773 C762 0.931 . S
O774 Co750 2.117 . S
O774 C751 1.258 . S
O775 Co750 2.020 . S
O775 C777 1.256 . S
O776 Co752 2.062 . S
O776 C777 1.255 . S
C777 O775 1.256 . S
C777 O776 1.255 . S
H778 C757 0.931 . S
H779 C765 0.931 . S
Co780 N785 2.057 . S
Co780 O797 2.021 . S
Co780 O800 2.062 . S
Co780 O804 2.117 . S
Co780 O805 2.020 1_554 S
C781 O801 1.259 . S
C781 O804 1.258 1_556 S
Co782 N791 2.057 1_455 S
Co782 O798 2.117 1_556 S
Co782 O799 2.020 1_556 S
Co782 O801 2.021 . S
Co782 O806 2.062 . S
C783 N785 1.316 . S
C783 N786 1.347 . S
C783 H788 0.931 . S
C784 N785 1.375 . S
C784 C787 1.350 . S
C784 H789 0.930 . S
N785 Co780 2.057 . S
N785 C783 1.316 . S
N785 C784 1.375 . S
N786 C783 1.347 . S
N786 C787 1.373 . S
C787 C784 1.350 . S
C787 N786 1.373 . S
C787 H808 0.931 . S
H788 C783 0.931 . S
H789 C784 0.930 . S
C790 O797 1.259 . S
C790 O798 1.258 . S
N791 Co782 2.057 1_655 S
N791 C792 1.316 . S
N791 C793 1.375 . S
C792 N791 1.316 . S
C792 N794 1.347 . S
C792 H803 0.931 1_655 S
C793 N791 1.375 . S
C793 C795 1.350 . S
C793 H802 0.930 . S
N794 C792 1.347 . S
N794 C795 1.373 . S
C795 C793 1.350 . S
C795 N794 1.373 . S
C795 H809 0.931 . S
C796 O799 1.256 . S
C796 O800 1.255 . S
O797 Co780 2.021 . S
O797 C790 1.259 . S
O798 Co782 2.117 1_554 S
O798 C790 1.258 . S
O799 Co782 2.020 1_554 S
O799 C796 1.256 . S
O800 Co780 2.062 . S
O800 C796 1.255 . S
O801 C781 1.259 . S
O801 Co782 2.021 . S
H802 C793 0.930 . S
H803 C792 0.931 1_455 S
O804 Co780 2.117 . S
O804 C781 1.258 1_554 S
O805 Co780 2.020 1_556 S
O805 C807 1.256 . S
O806 Co782 2.062 . S
O806 C807 1.255 . S
C807 O805 1.256 . S
C807 O806 1.255 . S
H808 C787 0.931 . S
H809 C795 0.931 . S
Co810 N815 2.057 . S
Co810 O827 2.021 . S
Co810 O830 2.062 . S
Co810 O834 2.117 . S
Co810 O835 2.020 . S
C811 O831 1.259 . S
C811 O834 1.258 . S
Co812 N821 2.057 . S
Co812 O828 2.117 . S
Co812 O829 2.020 . S
Co812 O831 2.021 . S
Co812 O836 2.062 . S
C813 N815 1.316 . S
C813 N816 1.347 . S
C813 H818 0.931 . S
C814 N815 1.375 . S
C814 C817 1.350 . S
C814 H819 0.930 . S
N815 Co810 2.057 . S
N815 C813 1.316 . S
N815 C814 1.375 . S
N816 C813 1.347 . S
N816 C817 1.373 . S
C817 C814 1.350 . S
C817 N816 1.373 . S
C817 H838 0.931 . S
H818 C813 0.931 . S
H819 C814 0.930 . S
C820 O827 1.259 . S
C820 O828 1.258 . S
N821 Co812 2.057 . S
N821 C822 1.316 1_556 S
N821 C823 1.375 . S
C822 N821 1.316 1_554 S
C822 N824 1.347 . S
C822 H833 0.931 . S
C823 N821 1.375 . S
C823 C825 1.350 1_556 S
C823 H832 0.930 . S
N824 C822 1.347 . S
N824 C825 1.373 . S
C825 C823 1.350 1_554 S
C825 N824 1.373 . S
C825 H839 0.931 . S
C826 O829 1.256 . S
C826 O830 1.255 . S
O827 Co810 2.021 . S
O827 C820 1.259 . S
O828 Co812 2.117 . S
O828 C820 1.258 . S
O829 Co812 2.020 . S
O829 C826 1.256 . S
O830 Co810 2.062 . S
O830 C826 1.255 . S
O831 C811 1.259 . S
O831 Co812 2.021 . S
H832 C823 0.930 . S
H833 C822 0.931 . S
O834 Co810 2.117 . S
O834 C811 1.258 . S
O835 Co810 2.020 . S
O835 C837 1.256 . S
O836 Co812 2.062 . S
O836 C837 1.255 . S
C837 O835 1.256 . S
C837 O836 1.255 . S
H838 C817 0.931 . S
H839 C825 0.931 . S
Co840 N845 2.057 . S
Co840 O857 2.021 1_565 S
Co840 O860 2.062 . S
Co840 O864 2.117 . S
Co840 O865 2.009 1_565 S
C841 O861 1.259 . S
C841 O864 1.258 . S
Co842 N851 2.057 . S
Co842 O858 2.117 . S
Co842 O859 2.020 . S
Co842 O861 2.021 . S
Co842 O866 2.062 . S
C843 N845 1.316 1_545 S
C843 N846 1.347 1_554 S
C843 H848 0.931 . S
C844 N845 1.375 . S
C844 C847 1.350 . S
C844 H849 0.930 . S
N845 Co840 2.057 . S
N845 C843 1.316 1_565 S
N845 C844 1.375 . S
N846 C843 1.347 1_556 S
N846 C847 1.373 1_546 S
C847 C844 1.350 . S
C847 N846 1.373 1_564 S
C847 H868 0.931 1_554 S
H848 C843 0.931 . S
H849 C844 0.930 . S
C850 O857 1.259 . S
C850 O858 1.258 1_545 S
N851 Co842 2.057 . S
N851 C852 1.316 . S
N851 C853 1.375 . S
C852 N851 1.316 . S
C852 N854 1.347 . S
C852 H863 0.931 . S
C853 N851 1.375 . S
C853 C855 1.350 . S
C853 H862 0.930 . S
N854 C852 1.347 . S
N854 C855 1.373 . S
C855 C853 1.350 . S
C855 N854 1.373 . S
C855 H869 0.931 . S
C856 O859 1.256 . S
C856 O860 1.255 . S
O857 Co840 2.021 1_545 S
O857 C850 1.259 . S
O858 Co842 2.117 . S
O858 C850 1.258 1_565 S
O859 Co842 2.020 . S
O859 C856 1.256 . S
O860 Co840 2.062 . S
O860 C856 1.255 . S
O861 C841 1.259 . S
O861 Co842 2.021 . S
H862 C853 0.930 . S
H863 C852 0.931 . S
O864 Co840 2.117 . S
O864 C841 1.258 . S
O865 Co840 2.009 1_545 S
O865 C867 1.249 1_545 S
O866 Co842 2.062 . S
O866 C867 1.255 . S
C867 O865 1.249 1_565 S
C867 O866 1.255 . S
H868 C847 0.931 1_556 S
H869 C855 0.931 . S
Co870 N875 2.057 . S
Co870 O887 2.021 . S
Co870 O890 2.062 . S
Co870 O894 2.117 . S
Co870 O895 2.020 1_556 S
C871 O891 1.259 1_556 S
C871 O894 1.258 . S
Co872 N881 2.057 . S
Co872 O888 2.117 1_554 S
Co872 O889 2.020 1_554 S
Co872 O891 2.021 . S
Co872 O896 2.062 . S
C873 N875 1.316 . S
C873 N876 1.347 . S
C873 H878 0.931 . S
C874 N875 1.375 . S
C874 C877 1.350 . S
C874 H879 0.930 . S
N875 Co870 2.057 . S
N875 C873 1.316 . S
N875 C874 1.375 . S
N876 C873 1.347 . S
N876 C877 1.373 . S
C877 C874 1.350 . S
C877 N876 1.373 . S
C877 H898 0.931 . S
H878 C873 0.931 . S
H879 C874 0.930 . S
C880 O887 1.259 . S
C880 O888 1.258 . S
N881 Co872 2.057 . S
N881 C882 1.316 . S
N881 C883 1.375 . S
C882 N881 1.316 . S
C882 N884 1.347 . S
C882 H893 0.931 . S
C883 N881 1.375 . S
C883 C885 1.350 . S
C883 H892 0.930 . S
N884 C882 1.347 . S
N884 C885 1.373 . S
C885 C883 1.350 . S
C885 N884 1.373 . S
C885 H899 0.931 . S
C886 O889 1.256 . S
C886 O890 1.255 . S
O887 Co870 2.021 . S
O887 C880 1.259 . S
O888 Co872 2.117 1_556 S
O888 C880 1.258 . S
O889 Co872 2.020 1_556 S
O889 C886 1.256 . S
O890 Co870 2.062 . S
O890 C886 1.255 . S
O891 C871 1.259 1_554 S
O891 Co872 2.021 . S
H892 C883 0.930 . S
H893 C882 0.931 . S
O894 Co870 2.117 . S
O894 C871 1.258 . S
O895 Co870 2.020 1_554 S
O895 C897 1.256 . S
O896 Co872 2.062 . S
O896 C897 1.255 . S
C897 O895 1.256 . S
C897 O896 1.255 . S
H898 C877 0.931 . S
H899 C885 0.931 . S
Co900 N905 2.057 . S
Co900 O917 2.021 1_545 S
Co900 O920 2.062 . S
Co900 O924 2.117 . S
Co900 O925 2.020 1_545 S
C901 O921 1.259 . S
C901 O924 1.258 . S
Co902 N911 2.057 . S
Co902 O918 2.117 . S
Co902 O919 2.020 . S
Co902 O921 2.021 . S
Co902 O926 2.062 . S
C903 N905 1.316 1_565 S
C903 N906 1.347 . S
C903 H908 0.931 . S
C904 N905 1.375 . S
C904 C907 1.350 . S
C904 H909 0.930 . S
N905 Co900 2.057 . S
N905 C903 1.316 1_545 S
N905 C904 1.375 . S
N906 C903 1.347 . S
N906 C907 1.373 1_565 S
C907 C904 1.350 . S
C907 N906 1.373 1_545 S
C907 H928 0.931 . S
H908 C903 0.931 . S
H909 C904 0.930 . S
C910 O917 1.259 . S
C910 O918 1.258 1_565 S
N911 Co902 2.057 . S
N911 C912 1.316 . S
N911 C913 1.375 1_455 S
C912 N911 1.316 . S
C912 N914 1.347 1_456 S
C912 H923 0.931 . S
C913 N911 1.375 1_655 S
C913 C915 1.350 1_556 S
C913 H922 0.930 . S
N914 C912 1.347 1_654 S
N914 C915 1.373 . S
C915 C913 1.350 1_554 S
C915 N914 1.373 . S
C915 H929 0.931 . S
C916 O919 1.256 . S
C916 O920 1.255 . S
O917 Co900 2.021 1_565 S
O917 C910 1.259 . S
O918 Co902 2.117 . S
O918 C910 1.258 1_545 S
O919 Co902 2.020 . S
O919 C916 1.256 . S
O920 Co900 2.062 . S
O920 C916 1.255 . S
O921 C901 1.259 . S
O921 Co902 2.021 . S
H922 C913 0.930 . S
H923 C912 0.931 . S
O924 Co900 2.117 . S
O924 C901 1.258 . S
O925 Co900 2.020 1_565 S
O925 C927 1.256 1_565 S
O926 Co902 2.062 . S
O926 C927 1.255 . S
C927 O925 1.256 1_545 S
C927 O926 1.255 . S
H928 C907 0.931 . S
H929 C915 0.931 . S
Co930 N935 2.057 . S
Co930 O947 2.021 . S
Co930 O950 2.062 . S
Co930 O954 2.117 . S
Co930 O955 2.020 . S
C931 O951 1.259 . S
C931 O954 1.258 . S
Co932 N941 2.057 . S
Co932 O948 2.117 . S
Co932 O949 2.020 . S
Co932 O951 2.021 . S
Co932 O956 2.062 . S
C933 N935 1.316 . S
C933 N936 1.347 . S
C933 H938 0.931 . S
C934 N935 1.375 . S
C934 C937 1.350 . S
C934 H939 0.930 . S
N935 Co930 2.057 . S
N935 C933 1.316 . S
N935 C934 1.375 . S
N936 C933 1.347 . S
N936 C937 1.373 . S
C937 C934 1.350 . S
C937 N936 1.373 . S
C937 H958 0.931 . S
H938 C933 0.931 . S
H939 C934 0.930 . S
C940 O947 1.259 . S
C940 O948 1.258 . S
N941 Co932 2.057 . S
N941 C942 1.316 . S
N941 C943 1.375 . S
C942 N941 1.316 . S
C942 N944 1.347 . S
C942 H953 0.931 . S
C943 N941 1.375 . S
C943 C945 1.350 . S
C943 H952 0.930 . S
N944 C942 1.347 . S
N944 C945 1.373 . S
C945 C943 1.350 . S
C945 N944 1.373 . S
C945 H959 0.931 . S
C946 O949 1.256 . S
C946 O950 1.255 . S
O947 Co930 2.021 . S
O947 C940 1.259 . S
O948 Co932 2.117 . S
O948 C940 1.258 . S
O949 Co932 2.020 . S
O949 C946 1.256 . S
O950 Co930 2.062 . S
O950 C946 1.255 . S
O951 C931 1.259 . S
O951 Co932 2.021 . S
H952 C943 0.930 . S
H953 C942 0.931 . S
O954 Co930 2.117 . S
O954 C931 1.258 . S
O955 Co930 2.020 . S
O955 C957 1.256 . S
O956 Co932 2.062 . S
O956 C957 1.255 . S
C957 O955 1.256 . S
C957 O956 1.255 . S
H958 C937 0.931 . S
H959 C945 0.931 . S
C16 C136 1.502 . S
C166 C46 1.567 . S
C76 C196 1.460 . S
C226 N104 1.123 . S
C267 C387 1.502 . S
C297 C417 1.567 . S
C447 C327 1.459 . S
N336 C477 1.124 1_554 S
C616 C496 1.502 1_545 S
C526 C646 1.567 . S
C556 C676 1.459 1_545 S
N584 C706 1.123 . S
C747 C867 1.502 1_545 S
C897 C777 1.567 . S
C807 C927 1.459 1_565 S
C957 N816 1.124 . S
C640 C10 1.390 . S
C670 C40 0.793 . S
C700 C70 1.701 . S
C91 C610 0.779 . S
C130 C571 0.778 . S
C490 C160 1.391 . S
C190 C520 0.793 . S
C220 C550 1.702 . S
C241 C871 1.390 1_554 S
C901 C271 0.791 . S
C931 C301 1.701 . S
C340 C841 0.776 . S
C361 C820 0.777 . S
C391 C721 1.390 . S
C421 C751 0.791 . S
C451 C781 1.702 . S
C250 C1 2.260 1_655 S
C31 C760 2.060 . S
C310 C61 2.168 . S
C100 C811 2.135 . S
C370 C121 2.433 1_655 S
C880 C151 2.060 . S
C181 C430 2.439 . S
C211 C940 2.670 . S
C511 C280 2.060 . S
C580 C331 2.135 . S
C400 C631 2.060 . S
C691 C460 2.670 . S
C730 C481 2.260 1_545 S
C790 C541 2.168 1_465 S
C850 C601 2.433 1_545 S
C661 C910 2.439 1_645 S
C27 N374 1.497 . S
N884 C57 1.575 . S
N434 C87 1.519 . S
N96 N944 1.292 . S
N254 C147 1.335 . S
N764 C177 1.526 1_554 S
N314 C207 1.308 . S
C826 C237 2.209 . S
N126 C256 1.497 . S
N636 C286 1.575 1_554 S
N186 C316 1.519 . S
N344 N696 1.292 . S
N6 C376 1.335 . S
N516 C406 1.526 . S
C436 N66 1.308 . S
C466 C597 2.209 . S
N854 C507 1.497 . S
N404 C537 1.575 . S
C567 N914 1.519 . S
N464 N576 1.292 . S
C627 N734 1.335 . S
C657 N284 1.526 . S
N794 C687 1.308 . S
C346 C717 2.208 . S
C736 N606 1.497 . S
C766 N156 1.575 . S
C796 N666 1.519 . S
N824 N216 1.292 . S
N486 C856 1.335 . S
N36 C886 1.527 . S
C916 N546 1.308 . S
C117 C946 2.208 . S
N134 N14 1.848 . S
N164 N44 1.693 . S
N74 N194 1.850 . S
N224 C106 2.153 . S
N366 N246 1.848 . S
N276 N396 1.693 . S
N306 N426 1.850 . S
N456 C357 2.152 . S
N494 N614 1.848 . S
N644 N524 1.693 . S
N554 N674 1.850 . S
C586 N704 2.152 . S
N846 N726 1.848 . S
N876 N756 1.693 . S
N786 N906 1.850 . S
N936 C837 2.152 1_554 S
