# Generated by pormake.
# Topology qdl, (4)-cn, num edge types: 1
# Building blocks:
#     Node 0, Type 0, BuildingBlock: ESEHIV_clean_sbu_0, # of connection points: 4
#     Node 1, Type 0, BuildingBlock: ESEHIV_clean_sbu_0, # of connection points: 4
#     Node 2, Type 0, BuildingBlock: ESEHIV_clean_sbu_0, # of connection points: 4
#     Node 3, Type 0, BuildingBlock: ESEHIV_clean_sbu_0, # of connection points: 4
#     Node 4, Type 0, BuildingBlock: ESEHIV_clean_sbu_0, # of connection points: 4
#     Node 5, Type 0, BuildingBlock: ESEHIV_clean_sbu_0, # of connection points: 4
#     Edge 6, Type (0, 0), BuildingBlock: CIFDUS_clean_linker_0, # of connection points: 2
#     Edge 7, Type (0, 0), BuildingBlock: CIFDUS_clean_linker_0, # of connection points: 2
#     Edge 8, Type (0, 0), BuildingBlock: CIFDUS_clean_linker_0, # of connection points: 2
#     Edge 9, Type (0, 0), BuildingBlock: CIFDUS_clean_linker_0, # of connection points: 2
#     Edge 10, Type (0, 0), BuildingBlock: CIFDUS_clean_linker_0, # of connection points: 2
#     Edge 11, Type (0, 0), BuildingBlock: CIFDUS_clean_linker_0, # of connection points: 2
#     Edge 12, Type (0, 0), BuildingBlock: CIFDUS_clean_linker_0, # of connection points: 2
#     Edge 13, Type (0, 0), BuildingBlock: CIFDUS_clean_linker_0, # of connection points: 2
#     Edge 14, Type (0, 0), BuildingBlock: CIFDUS_clean_linker_0, # of connection points: 2
#     Edge 15, Type (0, 0), BuildingBlock: CIFDUS_clean_linker_0, # of connection points: 2
#     Edge 16, Type (0, 0), BuildingBlock: CIFDUS_clean_linker_0, # of connection points: 2
#     Edge 17, Type (0, 0), BuildingBlock: CIFDUS_clean_linker_0, # of connection points: 2
# Relax obj value: 0.000
# Max RMSD: 0.127
# Mean RMSD: 0.085
data_MOF--net-qdl--node1-ESEHIV_clean_sbu_0--edge1-CIFDUS_clean_linker_0
_symmetry_space_group_name_H-M    P1
_symmetry_Int_Tables_number       1
_symmetry_cell_setting            triclinic
loop_
_symmetry_equiv_pos_as_xyz
'x, y, z'
_cell_length_a     12.931529
_cell_length_b     15.125369
_cell_length_c     81.127977
_cell_angle_alpha  99.815816
_cell_angle_beta   99.033446
_cell_angle_gamma 115.31271
loop_
_atom_site_label
_atom_site_type_symbol
_atom_site_fract_x
_atom_site_fract_y
_atom_site_fract_z
_atom_type_partial_charge
Cu0 Cu 0.19539 0.12936 0.09286 0.0
N1 N 0.09298 0.99043 0.0837 0.0
N2 N 1.0201 0.82239 0.07942 0.0
C3 C 0.11032 0.91498 0.08814 0.0
C4 C 0.94299 0.84082 0.06912 0.0
C5 C 0.98823 0.94444 0.07177 0.0
O6 O 0.27528 0.14425 0.11646 0.0
C7 C 0.29936 0.126 0.06411 0.0
O8 O 0.23614 1.02697 0.06036 0.0
H9 H 0.18709 0.92819 0.09779 0.0
H10 H 0.94784 0.98356 0.06544 0.0
N11 N 0.10905 0.20202 0.09322 0.0
N12 N 0.06479 0.32904 0.09195 0.0
C13 C 0.14568 0.29552 0.09078 0.0
C14 C 1.00109 0.17493 0.096 0.0
C15 C 0.9734 0.25303 0.09519 0.0
C16 C 0.28869 0.21061 0.12976 0.0
O17 O 0.26346 0.28402 0.12767 0.0
H18 H 0.23008 0.33775 0.08812 0.0
H19 H 0.94683 0.10376 0.09855 0.0
O20 O 0.30138 0.18056 0.07813 0.0
H21 H 0.86046 0.78364 0.06011 0.0
H22 H 0.89327 0.25443 0.09719 0.0
Cu23 Cu 0.33954 0.31443 0.43535 0.0
N24 N 0.27112 0.24346 0.41195 0.0
N25 N 0.238 0.21373 0.38314 0.0
C26 C 0.2976 0.28317 0.39858 0.0
C27 C 0.17192 0.12654 0.38695 0.0
C28 C 0.19237 0.14517 0.40474 0.0
O29 O 0.50723 0.39612 0.43697 0.0
C30 C 0.18563 0.4073 0.43321 0.0
O31 O 0.17367 0.38478 0.41643 0.0
H32 H 0.36025 0.36158 0.4002 0.0
H33 H 0.15274 0.09093 0.4119 0.0
N34 N 0.32083 0.22574 0.44949 0.0
N35 N 0.29921 0.1693 0.47317 0.0
C36 C 0.30668 0.24405 0.4656 0.0
C37 C 0.32207 0.13596 0.44665 0.0
C38 C 0.30832 0.10074 0.46122 0.0
C39 C 0.59215 0.40208 0.44826 0.0
O40 O 0.56963 0.36489 0.46152 0.0
H41 H 0.3024 0.31152 0.47164 0.0
H42 H 0.33401 0.09955 0.43494 0.0
O43 O 0.25917 0.39147 0.44308 0.0
H44 H 0.11155 1.05496 0.37755 0.0
H45 H 0.30845 1.03155 0.46304 0.0
Cu46 Cu 0.10203 0.1698 0.77904 0.0
N47 N 0.9391 0.10351 0.77724 0.0
N48 N 0.76712 0.98766 0.77977 0.0
C49 C 0.88536 1.02296 0.78345 0.0
C50 C 0.74494 1.04829 0.77098 0.0
C51 C 0.85153 0.12061 0.76961 0.0
O52 O 0.16934 0.1254 0.7972 0.0
C53 C 0.08561 0.15924 0.74422 0.0
O54 O 1.02426 0.20711 0.74765 0.0
H55 H 0.93179 0.98946 0.79023 0.0
H56 H 0.86373 0.18126 0.76351 0.0
N57 N 0.16141 0.31082 0.78599 0.0
N58 N 0.26707 0.47512 0.78761 0.0
C59 C 0.22957 0.37894 0.77847 0.0
C60 C 0.15534 0.36608 0.80034 0.0
C61 C 0.22141 0.46775 0.80145 0.0
C62 C 0.25602 0.18376 0.81029 0.0
O63 O 0.32289 0.27803 0.81032 0.0
H64 H 0.25522 0.3587 0.7669 0.0
H65 H 0.10938 0.33451 0.80963 0.0
O66 O 0.13079 0.13317 0.75643 0.0
H67 H 0.65821 1.04142 0.76611 0.0
H68 H 0.23563 0.53126 0.81166 0.0
Cu69 Cu 0.31539 0.20342 0.61534 0.0
N70 N 0.30236 0.12678 0.63146 0.0
N71 N 0.27291 0.08152 0.65588 0.0
C72 C 0.26988 0.14481 0.64613 0.0
C73 C 0.30913 1.02114 0.64695 0.0
C74 C 0.32685 1.04905 0.63184 0.0
O75 O 0.23682 0.28448 0.62168 0.0
C76 C 0.56946 0.29528 0.62684 0.0
O77 O 0.55334 0.26962 0.64126 0.0
H78 H 0.24766 0.20543 0.6498 0.0
H79 H 0.35701 1.01611 0.62197 0.0
N80 N 0.24014 0.11962 0.59279 0.0
N81 N 0.20211 0.06934 0.56392 0.0
C82 C 0.27262 0.14357 0.57852 0.0
C83 C 0.14605 1.02673 0.58713 0.0
C84 C 0.12243 0.9954 0.56932 0.0
C85 C 0.15789 0.29136 0.6112 0.0
O86 O 0.13954 0.25637 0.59447 0.0
H87 H 0.34738 0.21415 0.57892 0.0
H88 H 0.09776 0.98514 0.59537 0.0
O89 O 0.48069 0.28158 0.61536 0.0
H90 H 0.32155 0.96099 0.651 0.0
H91 H 1.05085 0.92449 0.56099 0.0
Cu92 Cu 0.26751 0.25861 0.94125 0.0
N93 N 0.30467 0.39583 0.94594 0.0
N94 N 0.39864 0.56056 0.94675 0.0
C95 C 0.39814 0.4698 0.94279 0.0
C96 C 0.30121 0.54244 0.95262 0.0
C97 C 0.24344 0.44087 0.95208 0.0
O98 O 0.3243 0.2337 0.92089 0.0
C99 C 0.36941 0.28442 0.97671 0.0
O100 O 0.37457 0.3744 0.97901 0.0
H101 H 0.46263 0.45633 0.93725 0.0
H102 H 0.16216 0.40237 0.95579 0.0
N103 N 0.10377 0.17678 0.93645 0.0
N104 N 0.93126 1.04641 0.93565 0.0
C105 C 1.05063 0.0898 0.94103 0.0
C106 C 1.01534 0.18944 0.9279 0.0
C107 C 0.90878 0.10923 0.92741 0.0
C108 C 0.26376 0.16087 0.90726 0.0
O109 O 0.16167 0.08762 0.90734 0.0
H110 H 0.09912 1.05949 0.94827 0.0
H111 H 1.02759 0.2521 0.9223 0.0
O112 O 0.33609 0.22752 0.96135 0.0
H113 H 0.2736 0.59847 0.95706 0.0
H114 H 0.82177 0.09723 0.92116 0.0
Cu115 Cu 0.09417 0.11741 0.24728 0.0
N116 N 0.99602 0.1793 0.247 0.0
N117 N 0.93481 0.2943 0.2435 0.0
C118 C 1.00546 0.25392 0.23936 0.0
C119 C 0.87824 0.24271 0.2541 0.0
C120 C 0.91587 0.1715 0.25619 0.0
O121 O 0.20181 0.17801 0.23336 0.0
C122 C 0.19152 0.20849 0.28391 0.0
O123 O 0.17673 0.28546 0.28087 0.0
H124 H 0.06793 0.28195 0.23171 0.0
H125 H 0.89085 0.12093 0.26445 0.0
N126 N 1.00567 0.97715 0.23753 0.0
N127 N 0.94502 0.81142 0.23453 0.0
C128 C 1.0049 0.90555 0.24546 0.0
C129 C 0.94322 0.92662 0.22104 0.0
C130 C 0.90612 0.82427 0.21912 0.0
C131 C 0.23479 0.13008 0.22269 0.0
O132 O 0.21195 1.03667 0.22266 0.0
H133 H 1.05233 0.92266 0.25878 0.0
H134 H 0.92984 0.96214 0.21097 0.0
O135 O 0.17062 0.13554 0.2712 0.0
H136 H 0.81617 0.25694 0.2602 0.0
H137 H 0.85612 0.76422 0.20727 0.0
H138 H 0.19699 0.77667 0.08921 0.0
H139 H 0.81663 0.64663 0.07281 0.0
H140 H 0.79653 0.48156 0.07514 0.0
H141 H 0.88705 0.37367 0.08189 0.0
H142 H 0.26746 0.50526 0.09876 0.0
H143 H 0.28717 0.66965 0.09622 0.0
C144 C 0.1096 0.71264 0.0863 0.0
C145 C 1.00857 0.7247 0.08086 0.0
C146 C 0.09859 0.61775 0.08771 0.0
C147 C 0.89611 0.63981 0.07684 0.0
C148 C 0.88445 0.54527 0.07826 0.0
C149 C 0.97423 0.4384 0.08515 0.0
C150 C 0.07553 0.42645 0.09048 0.0
C151 C 0.98508 0.53329 0.0837 0.0
C152 C 0.18788 0.51132 0.09439 0.0
C153 C 0.19931 0.6058 0.09304 0.0
H154 H 0.79163 0.41905 0.4689 0.0
H155 H 0.65689 0.44813 0.41904 0.0
H156 H 0.83581 0.46385 0.41068 0.0
H157 H 1.01906 0.44839 0.41614 0.0
H158 H 0.15292 0.41748 0.46588 0.0
H159 H 0.98705 0.42484 0.47566 0.0
C160 C 0.80212 0.43057 0.45631 0.0
C161 C 0.70975 0.43095 0.44455 0.0
C162 C 0.90496 0.43837 0.45146 0.0
C163 C 0.72584 0.44694 0.42835 0.0
C164 C 0.82814 0.45547 0.4235 0.0
C165 C 1.01318 0.44497 0.42923 0.0
C166 C 0.09787 0.43101 0.44015 0.0
C167 C 0.91656 0.44806 0.43474 0.0
C168 C 0.08907 0.42775 0.45713 0.0
C169 C 0.99369 0.43145 0.46273 0.0
H170 H 0.56361 0.83683 0.75859 0.0
H171 H 0.78374 0.94579 0.81069 0.0
H172 H 0.64311 0.79798 0.81821 0.0
H173 H 0.45926 0.63473 0.80961 0.0
H174 H 0.24949 0.51774 0.75678 0.0
H175 H 0.38313 0.67093 0.74974 0.0
C176 C 0.57967 0.82808 0.77159 0.0
C177 C 0.68275 0.90186 0.78414 0.0
C178 C 0.5004 0.74134 0.77561 0.0
C179 C 0.70466 0.88949 0.80088 0.0
C180 C 0.62435 0.80525 0.80516 0.0
C181 C 0.44287 0.6437 0.79663 0.0
C182 C 0.34466 0.56615 0.78373 0.0
C183 C 0.52222 0.73036 0.7926 0.0
C184 C 0.32485 0.57692 0.76685 0.0
C185 C 0.40103 0.66433 0.76286 0.0
H186 H 0.77597 0.32541 0.64761 0.0
H187 H 0.62112 0.31886 0.59594 0.0
H188 H 0.79622 0.32843 0.58702 0.0
H189 H 0.98258 0.31813 0.5929 0.0
H190 H 0.13688 0.32326 0.64449 0.0
H191 H 0.97395 0.33608 0.65438 0.0
C192 C 0.78122 0.32781 0.63447 0.0
C193 C 0.6844 0.32005 0.62244 0.0
C194 C 0.882 0.33223 0.62932 0.0
C195 C 0.69365 0.32418 0.6055 0.0
C196 C 0.79378 0.3292 0.60033 0.0
C197 C 0.98176 0.32381 0.60638 0.0
C198 C 0.07147 0.31845 0.61784 0.0
C199 C 0.88688 0.3301 0.61198 0.0
C200 C 0.06915 0.32683 0.63531 0.0
C201 C 0.97545 0.33365 0.64099 0.0
H202 H 0.62702 0.61733 0.94648 0.0
H203 H 0.36201 0.71979 0.94228 0.0
H204 H 0.50406 0.8801 0.93861 0.0
H205 H 0.70381 0.9915 0.93645 0.0
H206 H 0.96685 0.88674 0.93998 0.0
H207 H 0.8255 0.72758 0.94401 0.0
C208 C 0.59973 0.67414 0.94461 0.0
C209 C 0.48339 0.65579 0.94466 0.0
C210 C 0.68189 0.76628 0.94241 0.0
C211 C 0.45096 0.73172 0.94252 0.0
C212 C 0.53213 0.82347 0.94031 0.0
C213 C 0.73006 0.93365 0.93795 0.0
C214 C 0.84645 0.95185 0.93794 0.0
C215 C 0.64785 0.84159 0.9402 0.0
C216 C 0.87887 0.87604 0.94018 0.0
C217 C 0.79766 0.78442 0.94238 0.0
H218 H 0.91126 0.4427 0.26353 0.0
H219 H 0.95073 0.34139 0.21306 0.0
H220 H 0.95171 0.49136 0.20538 0.0
H221 H 0.94781 0.65455 0.2134 0.0
H222 H 0.9186 0.75989 0.26441 0.0
H223 H 0.90681 0.60554 0.27153 0.0
C224 C 0.91859 0.45299 0.25079 0.0
C225 C 0.93032 0.38079 0.23884 0.0
C226 C 0.92147 0.54047 0.24661 0.0
C227 C 0.94218 0.39614 0.22249 0.0
C228 C 0.94248 0.48175 0.21809 0.0
C229 C 0.93747 0.64299 0.22599 0.0
C230 C 0.9336 0.71837 0.23835 0.0
C231 C 0.93306 0.55485 0.23009 0.0
C232 C 0.92248 0.70327 0.25473 0.0
C233 C 0.91544 0.61493 0.25878 0.0
H234 H 0.28553 1.03913 0.19525 0.0
H235 H 0.27293 0.31404 0.21726 0.0
H236 H 0.30276 0.36892 0.19104 0.0
H237 H 0.3076 0.32938 0.1606 0.0
H238 H 0.31502 1.05247 0.1383 0.0
H239 H 0.31369 1.00902 0.16591 0.0
C240 C 0.29142 0.11193 0.19447 0.0
C241 C 0.27534 0.17154 0.20819 0.0
C242 C 0.30657 0.14246 0.17918 0.0
C243 C 0.28408 0.266 0.20691 0.0
C244 C 0.30069 0.29742 0.19186 0.0
C245 C 0.31093 0.2603 0.16182 0.0
C246 C 0.30979 0.19378 0.14725 0.0
C247 C 0.30818 0.23477 0.1777 0.0
C248 C 0.31508 0.10499 0.1492 0.0
C249 C 0.31383 0.07974 0.16501 0.0
H250 H 0.29486 0.23365 0.55158 0.0
H251 H 0.12627 0.90655 0.5364 0.0
H252 H 0.14077 0.90808 0.50676 0.0
H253 H 0.20272 1.00295 0.48509 0.0
H254 H 0.37472 0.33025 0.50083 0.0
H255 H 0.3579 0.32779 0.53023 0.0
C256 C 0.26235 0.16258 0.54188 0.0
C257 C 0.20998 0.07014 0.54634 0.0
C258 C 0.27139 0.16402 0.52487 0.0
C259 C 0.16603 0.97886 0.53338 0.0
C260 C 0.17491 0.97968 0.51641 0.0
C261 C 0.23728 0.0737 0.49497 0.0
C262 C 0.28947 0.16662 0.49062 0.0
C263 C 0.22767 0.07188 0.512 0.0
C264 C 0.33239 0.25754 0.50363 0.0
C265 C 0.32352 0.2563 0.52053 0.0
H266 H 0.41253 0.29548 0.84179 0.0
H267 H 0.11211 1.00295 0.81595 0.0
H268 H 0.09649 0.96524 0.84377 0.0
H269 H 0.15175 1.02388 0.87556 0.0
H270 H 0.44962 0.31778 0.90142 0.0
H271 H 0.48305 0.34534 0.87354 0.0
C272 C 0.34502 0.22261 0.84218 0.0
C273 C 0.26272 0.1529 0.82673 0.0
C274 C 0.33509 0.20187 0.8583 0.0
C275 C 0.17638 1.05856 0.82758 0.0
C276 C 0.16689 1.03699 0.84353 0.0
C277 C 0.22528 0.09329 0.87514 0.0
C278 C 0.2969 0.1691 0.89062 0.0
C279 C 0.2432 0.10944 0.85901 0.0
C280 C 0.39242 0.25817 0.88976 0.0
C281 C 0.41143 0.2743 0.87379 0.0
H282 H 0.29372 1.03196 0.03189 0.0
H283 H 0.41176 0.32861 0.0658 0.0
H284 H 0.45764 0.40529 0.04201 0.0
H285 H 0.4409 0.38586 1.01087 0.0
H286 H 0.3174 0.08873 0.97676 0.0
H287 H 0.2986 1.0151 1.00137 0.0
C288 C 0.33134 0.11361 0.03419 0.0
C289 C 0.34763 0.17407 0.05062 0.0
C290 C 0.3556 0.15721 0.02034 0.0
C291 C 0.39744 0.2799 0.05331 0.0
C292 C 0.42328 0.3239 0.03967 0.0
C293 C 0.41168 0.30518 1.00882 0.0
C294 C 0.37926 0.2429 0.9919 0.0
C295 C 0.39909 0.26295 0.023 0.0
C296 C 0.34264 0.13864 0.98958 0.0
C297 C 0.33122 0.09628 1.00366 0.0
H298 H 0.23976 0.34821 0.314 0.0
H299 H 0.19006 1.04516 0.2943 0.0
H300 H 0.20163 1.02038 0.32334 0.0
H301 H 0.21566 0.08146 0.35423 0.0
H302 H 0.26736 0.38465 0.37391 0.0
H303 H 0.26567 0.41269 0.34511 0.0
C304 C 0.23269 0.27708 0.31607 0.0
C305 C 0.21345 0.19862 0.3019 0.0
C306 C 0.23893 0.26299 0.33284 0.0
C307 C 0.20498 0.10709 0.3049 0.0
C308 C 0.21098 0.09253 0.32153 0.0
C309 C 0.22634 0.1535 0.35217 0.0
C310 C 0.24093 0.23061 0.36619 0.0
C311 C 0.22592 0.16929 0.33555 0.0
C312 C 0.25679 0.3243 0.36339 0.0
C313 C 0.25534 0.34023 0.3469 0.0
H314 H 0.12049 0.13866 0.66713 0.0
H315 H 0.36359 1.02388 0.68217 0.0
H316 H 0.32454 1.03325 0.71086 0.0
H317 H 0.22671 0.08195 0.73222 0.0
H318 H 0.9859 0.19845 0.71632 0.0
H319 H 1.01977 0.18146 0.68765 0.0
C320 C 0.16566 0.11625 0.67669 0.0
C321 C 0.24575 0.08161 0.67251 0.0
C322 C 0.14347 0.12253 0.69313 0.0
C323 C 0.30106 1.05042 0.68498 0.0
C324 C 0.27923 1.05633 0.70144 0.0
C325 C 0.18125 0.10299 0.72244 0.0
C326 C 0.10437 0.14203 0.72657 0.0
C327 C 0.20133 0.0933 0.70575 0.0
C328 C 1.04612 0.16875 0.71367 0.0
C329 C 0.06528 0.15907 0.69718 0.0
loop_
_geom_bond_atom_site_label_1
_geom_bond_atom_site_label_2
_geom_bond_distance
_geom_bond_site_symmetry_2
_ccdc_geom_bond_type
Cu0 N1 1.999 . S
Cu0 O6 1.974 . S
Cu0 N11 1.985 . S
Cu0 O20 1.959 . S
N1 Cu0 1.999 . S
N1 C3 1.263 . S
N1 C5 1.389 . S
N2 C3 1.358 1_565 S
N2 C4 1.400 . S
C3 N1 1.263 . S
C3 N2 1.358 1_545 S
C3 H9 0.930 . S
C4 N2 1.400 . S
C4 C5 1.351 1_565 S
C4 H21 0.930 . S
C5 N1 1.389 . S
C5 C4 1.351 1_545 S
C5 H10 0.930 . S
O6 Cu0 1.974 . S
O6 C16 1.282 . S
C7 O8 1.261 . S
C7 O20 1.251 . S
O8 C7 1.261 . S
H9 C3 0.930 . S
H10 C5 0.930 . S
N11 Cu0 1.985 . S
N11 C13 1.335 . S
N11 C14 1.390 . S
N12 C13 1.345 . S
N12 C15 1.336 . S
C13 N11 1.335 . S
C13 N12 1.345 . S
C13 H18 0.930 . S
C14 N11 1.390 . S
C14 C15 1.346 . S
C14 H19 0.930 . S
C15 N12 1.336 . S
C15 C14 1.346 . S
C15 H22 0.929 . S
C16 O6 1.282 . S
C16 O17 1.216 . S
O17 C16 1.216 . S
H18 C13 0.930 . S
H19 C14 0.930 . S
O20 Cu0 1.959 . S
O20 C7 1.251 . S
H21 C4 0.930 . S
H22 C15 0.929 . S
Cu23 N24 1.999 . S
Cu23 O29 1.974 . S
Cu23 N34 1.985 . S
Cu23 O43 1.959 . S
N24 Cu23 1.999 . S
N24 C26 1.263 . S
N24 C28 1.389 . S
N25 C26 1.358 . S
N25 C27 1.400 . S
C26 N24 1.263 . S
C26 N25 1.358 . S
C26 H32 0.930 . S
C27 N25 1.400 . S
C27 C28 1.351 . S
C27 H44 0.930 . S
C28 N24 1.389 . S
C28 C27 1.351 . S
C28 H33 0.930 . S
O29 Cu23 1.974 . S
O29 C39 1.282 1_545 S
C30 O31 1.261 1_545 S
C30 O43 1.251 1_655 S
O31 C30 1.261 1_565 S
H32 C26 0.930 . S
H33 C28 0.930 . S
N34 Cu23 1.985 . S
N34 C36 1.335 . S
N34 C37 1.390 . S
N35 C36 1.345 . S
N35 C38 1.336 1_545 S
C36 N34 1.335 . S
C36 N35 1.345 . S
C36 H41 0.930 . S
C37 N34 1.390 . S
C37 C38 1.346 1_545 S
C37 H42 0.930 1_545 S
C38 N35 1.336 1_565 S
C38 C37 1.346 1_565 S
C38 H45 0.929 . S
C39 O29 1.282 1_565 S
C39 O40 1.216 . S
O40 C39 1.216 . S
H41 C36 0.930 . S
H42 C37 0.930 1_565 S
O43 Cu23 1.959 . S
O43 C30 1.251 1_455 S
H44 C27 0.930 . S
H45 C38 0.929 . S
Cu46 N47 1.999 1_445 S
Cu46 O52 1.974 . S
Cu46 N57 1.985 . S
Cu46 O66 1.959 . S
N47 Cu46 1.999 1_665 S
N47 C49 1.263 . S
N47 C51 1.389 . S
N48 C49 1.358 . S
N48 C50 1.400 . S
C49 N47 1.263 . S
C49 N48 1.358 . S
C49 H55 0.930 1_565 S
C50 N48 1.400 . S
C50 C51 1.351 . S
C50 H67 0.930 . S
C51 N47 1.389 . S
C51 C50 1.351 . S
C51 H56 0.930 . S
O52 Cu46 1.974 . S
O52 C62 1.282 1_455 S
C53 O54 1.261 . S
C53 O66 1.251 1_655 S
O54 C53 1.261 . S
H55 C49 0.930 1_545 S
H56 C51 0.930 . S
N57 Cu46 1.985 . S
N57 C59 1.335 . S
N57 C60 1.390 . S
N58 C59 1.345 . S
N58 C61 1.336 . S
C59 N57 1.335 . S
C59 N58 1.345 . S
C59 H64 0.930 . S
C60 N57 1.390 . S
C60 C61 1.346 . S
C60 H65 0.930 . S
C61 N58 1.336 . S
C61 C60 1.346 . S
C61 H68 0.929 . S
C62 O52 1.282 1_655 S
C62 O63 1.216 . S
O63 C62 1.216 . S
H64 C59 0.930 . S
H65 C60 0.930 . S
O66 Cu46 1.959 . S
O66 C53 1.251 1_455 S
H67 C50 0.930 . S
H68 C61 0.929 . S
Cu69 N70 1.999 . S
Cu69 O75 1.974 1_455 S
Cu69 N80 1.985 1_455 S
Cu69 O89 1.959 . S
N70 Cu69 1.999 . S
N70 C72 1.263 1_455 S
N70 C74 1.389 . S
N71 C72 1.358 1_455 S
N71 C73 1.400 . S
C72 N70 1.263 1_655 S
C72 N71 1.358 1_655 S
C72 H78 0.930 . S
C73 N71 1.400 . S
C73 C74 1.351 . S
C73 H90 0.930 . S
C74 N70 1.389 . S
C74 C73 1.351 . S
C74 H79 0.930 . S
O75 Cu69 1.974 1_655 S
O75 C85 1.282 1_545 S
C76 O77 1.261 . S
C76 O89 1.251 1_565 S
O77 C76 1.261 . S
H78 C72 0.930 . S
H79 C74 0.930 . S
N80 Cu69 1.985 1_655 S
N80 C82 1.335 1_655 S
N80 C83 1.390 1_545 S
N81 C82 1.345 . S
N81 C84 1.336 1_445 S
C82 N80 1.335 1_455 S
C82 N81 1.345 . S
C82 H87 0.930 . S
C83 N80 1.390 1_565 S
C83 C84 1.346 . S
C83 H88 0.930 . S
C84 N81 1.336 1_665 S
C84 C83 1.346 . S
C84 H91 0.929 . S
C85 O75 1.282 1_565 S
C85 O86 1.216 . S
O86 C85 1.216 . S
H87 C82 0.930 . S
H88 C83 0.930 . S
O89 Cu69 1.959 . S
O89 C76 1.251 1_545 S
H90 C73 0.930 . S
H91 C84 0.929 . S
Cu92 N93 1.999 . S
Cu92 O98 1.974 . S
Cu92 N103 1.985 1_455 S
Cu92 O112 1.959 . S
N93 Cu92 1.999 . S
N93 C95 1.263 . S
N93 C97 1.389 . S
N94 C95 1.358 . S
N94 C96 1.400 . S
C95 N93 1.263 . S
C95 N94 1.358 . S
C95 H101 0.930 . S
C96 N94 1.400 . S
C96 C97 1.351 . S
C96 H113 0.930 . S
C97 N93 1.389 . S
C97 C96 1.351 . S
C97 H102 0.930 . S
O98 Cu92 1.974 . S
O98 C108 1.282 . S
C99 O100 1.261 . S
C99 O112 1.251 . S
O100 C99 1.261 . S
H101 C95 0.930 . S
H102 C97 0.930 . S
N103 Cu92 1.985 1_655 S
N103 C105 1.335 1_545 S
N103 C106 1.390 . S
N104 C105 1.345 . S
N104 C107 1.336 . S
C105 N103 1.335 1_565 S
C105 N104 1.345 . S
C105 H110 0.930 1_565 S
C106 N103 1.390 . S
C106 C107 1.346 1_545 S
C106 H111 0.930 . S
C107 N104 1.336 . S
C107 C106 1.346 1_565 S
C107 H114 0.929 . S
C108 O98 1.282 . S
C108 O109 1.216 1_455 S
O109 C108 1.216 1_655 S
H110 C105 0.930 1_545 S
H111 C106 0.930 . S
O112 Cu92 1.959 . S
O112 C99 1.251 . S
H113 C96 0.930 . S
H114 C107 0.929 . S
Cu115 N116 1.999 . S
Cu115 O121 1.974 . S
Cu115 N126 1.985 . S
Cu115 O135 1.959 . S
N116 Cu115 1.999 . S
N116 C118 1.263 . S
N116 C120 1.389 . S
N117 C118 1.358 . S
N117 C119 1.400 . S
C118 N116 1.263 . S
C118 N117 1.358 . S
C118 H124 0.930 . S
C119 N117 1.400 . S
C119 C120 1.351 . S
C119 H136 0.930 . S
C120 N116 1.389 . S
C120 C119 1.351 . S
C120 H125 0.930 . S
O121 Cu115 1.974 . S
O121 C131 1.282 . S
C122 O123 1.261 . S
C122 O135 1.251 . S
O123 C122 1.261 . S
H124 C118 0.930 . S
H125 C120 0.930 . S
N126 Cu115 1.985 . S
N126 C128 1.335 1_545 S
N126 C129 1.390 1_545 S
N127 C128 1.345 . S
N127 C130 1.336 . S
C128 N126 1.335 1_565 S
C128 N127 1.345 . S
C128 H133 0.930 1_565 S
C129 N126 1.390 1_565 S
C129 C130 1.346 . S
C129 H134 0.930 . S
C130 N127 1.336 . S
C130 C129 1.346 . S
C130 H137 0.929 . S
C131 O121 1.282 . S
C131 O132 1.216 . S
O132 C131 1.216 . S
H133 C128 0.930 1_545 S
H134 C129 0.930 . S
O135 Cu115 1.959 . S
O135 C122 1.251 . S
H136 C119 0.930 . S
H137 C130 0.929 . S
H138 C144 0.930 . S
H139 C147 0.930 . S
H140 C148 0.930 . S
H141 C149 0.930 . S
H142 C152 0.930 . S
H143 C153 0.930 . S
C144 H138 0.930 . S
C144 C145 1.355 . S
C144 C146 1.415 . S
C145 C144 1.355 . S
C145 C147 1.419 . S
C146 C144 1.415 . S
C146 C151 1.425 . S
C146 C153 1.409 . S
C147 H139 0.930 . S
C147 C145 1.419 . S
C147 C148 1.362 . S
C148 H140 0.930 . S
C148 C147 1.362 . S
C148 C151 1.409 . S
C149 H141 0.930 . S
C149 C150 1.355 . S
C149 C151 1.415 . S
C150 C149 1.355 . S
C150 C152 1.419 . S
C151 C146 1.425 . S
C151 C148 1.409 . S
C151 C149 1.415 . S
C152 H142 0.930 . S
C152 C150 1.419 . S
C152 C153 1.362 . S
C153 H143 0.930 . S
C153 C146 1.409 . S
C153 C152 1.362 . S
H154 C160 0.930 . S
H155 C163 0.931 1_565 S
H156 C164 0.930 . S
H157 C165 0.930 . S
H158 C168 0.930 . S
H159 C169 0.930 . S
C160 H154 0.930 . S
C160 C161 1.355 . S
C160 C162 1.415 . S
C161 C160 1.355 . S
C161 C163 1.419 . S
C162 C160 1.415 . S
C162 C167 1.425 . S
C162 C169 1.409 . S
C163 H155 0.931 1_545 S
C163 C161 1.419 . S
C163 C164 1.361 1_545 S
C164 H156 0.930 . S
C164 C163 1.361 1_565 S
C164 C167 1.409 1_565 S
C165 H157 0.930 . S
C165 C166 1.355 1_565 S
C165 C167 1.415 1_565 S
C166 C165 1.355 1_545 S
C166 C168 1.419 . S
C167 C162 1.425 . S
C167 C164 1.409 1_545 S
C167 C165 1.415 1_545 S
C168 H158 0.930 . S
C168 C166 1.419 . S
C168 C169 1.362 . S
C169 H159 0.930 . S
C169 C162 1.409 . S
C169 C168 1.362 . S
H170 C176 0.930 . S
H171 C179 0.930 . S
H172 C180 0.930 . S
H173 C181 0.930 . S
H174 C184 0.930 . S
H175 C185 0.930 . S
C176 H170 0.930 . S
C176 C177 1.355 . S
C176 C178 1.415 . S
C177 C176 1.355 . S
C177 C179 1.419 . S
C178 C176 1.415 . S
C178 C183 1.425 . S
C178 C185 1.409 . S
C179 H171 0.930 . S
C179 C177 1.419 . S
C179 C180 1.362 . S
C180 H172 0.930 . S
C180 C179 1.362 . S
C180 C183 1.409 . S
C181 H173 0.930 . S
C181 C182 1.355 . S
C181 C183 1.415 . S
C182 C181 1.355 . S
C182 C184 1.419 . S
C183 C178 1.425 . S
C183 C180 1.409 . S
C183 C181 1.415 . S
C184 H174 0.930 . S
C184 C182 1.419 . S
C184 C185 1.362 . S
C185 H175 0.930 . S
C185 C178 1.409 . S
C185 C184 1.362 . S
H186 C192 0.930 . S
H187 C195 0.930 . S
H188 C196 0.930 . S
H189 C197 0.930 . S
H190 C200 0.930 . S
H191 C201 0.930 . S
C192 H186 0.930 . S
C192 C193 1.355 1_565 S
C192 C194 1.415 . S
C193 C192 1.355 1_545 S
C193 C195 1.419 . S
C194 C192 1.415 . S
C194 C199 1.425 1_565 S
C194 C201 1.409 . S
C195 H187 0.930 . S
C195 C193 1.419 . S
C195 C196 1.362 . S
C196 H188 0.930 . S
C196 C195 1.362 . S
C196 C199 1.409 . S
C197 H189 0.930 . S
C197 C198 1.355 1_545 S
C197 C199 1.415 . S
C198 C197 1.355 1_565 S
C198 C200 1.419 . S
C199 C194 1.425 1_545 S
C199 C196 1.409 . S
C199 C197 1.415 . S
C200 H190 0.930 . S
C200 C198 1.419 . S
C200 C201 1.362 . S
C201 H191 0.930 . S
C201 C194 1.409 . S
C201 C200 1.362 . S
H202 C208 0.930 . S
H203 C211 0.930 . S
H204 C212 0.930 . S
H205 C213 0.930 . S
H206 C216 0.930 . S
H207 C217 0.930 . S
C208 H202 0.930 . S
C208 C209 1.355 . S
C208 C210 1.415 . S
C209 C208 1.355 . S
C209 C211 1.419 . S
C210 C208 1.415 . S
C210 C215 1.425 . S
C210 C217 1.409 . S
C211 H203 0.930 . S
C211 C209 1.419 . S
C211 C212 1.362 . S
C212 H204 0.930 . S
C212 C211 1.362 . S
C212 C215 1.409 . S
C213 H205 0.930 . S
C213 C214 1.355 . S
C213 C215 1.415 . S
C214 C213 1.355 . S
C214 C216 1.419 . S
C215 C210 1.425 . S
C215 C212 1.409 . S
C215 C213 1.415 . S
C216 H206 0.930 . S
C216 C214 1.419 . S
C216 C217 1.362 . S
C217 H207 0.930 . S
C217 C210 1.409 . S
C217 C216 1.362 . S
H218 C224 0.930 . S
H219 C227 0.930 . S
H220 C228 0.930 . S
H221 C229 0.930 . S
H222 C232 0.930 . S
H223 C233 0.930 . S
C224 H218 0.930 . S
C224 C225 1.355 . S
C224 C226 1.415 . S
C225 C224 1.355 . S
C225 C227 1.419 . S
C226 C224 1.415 . S
C226 C231 1.425 . S
C226 C233 1.409 . S
C227 H219 0.930 . S
C227 C225 1.419 . S
C227 C228 1.362 . S
C228 H220 0.930 . S
C228 C227 1.362 . S
C228 C231 1.409 . S
C229 H221 0.930 . S
C229 C230 1.355 . S
C229 C231 1.415 . S
C230 C229 1.355 . S
C230 C232 1.419 . S
C231 C226 1.425 . S
C231 C228 1.409 . S
C231 C229 1.415 . S
C232 H222 0.930 . S
C232 C230 1.419 . S
C232 C233 1.362 . S
C233 H223 0.930 . S
C233 C226 1.409 . S
C233 C232 1.362 . S
H234 C240 0.930 . S
H235 C243 0.930 . S
H236 C244 0.930 . S
H237 C245 0.930 . S
H238 C248 0.930 . S
H239 C249 0.930 . S
C240 H234 0.930 . S
C240 C241 1.355 . S
C240 C242 1.415 . S
C241 C240 1.355 . S
C241 C243 1.419 . S
C242 C240 1.415 . S
C242 C247 1.425 . S
C242 C249 1.409 . S
C243 H235 0.930 . S
C243 C241 1.419 . S
C243 C244 1.362 . S
C244 H236 0.930 . S
C244 C243 1.362 . S
C244 C247 1.409 . S
C245 H237 0.930 . S
C245 C246 1.355 . S
C245 C247 1.415 . S
C246 C245 1.355 . S
C246 C248 1.419 . S
C247 C242 1.425 . S
C247 C244 1.409 . S
C247 C245 1.415 . S
C248 H238 0.930 . S
C248 C246 1.419 . S
C248 C249 1.362 . S
C249 H239 0.930 . S
C249 C242 1.409 . S
C249 C248 1.362 . S
H250 C256 0.930 . S
H251 C259 0.930 . S
H252 C260 0.930 . S
H253 C261 0.930 1_655 S
H254 C264 0.930 . S
H255 C265 0.930 . S
C256 H250 0.930 . S
C256 C257 1.355 . S
C256 C258 1.415 . S
C257 C256 1.355 . S
C257 C259 1.419 1_445 S
C258 C256 1.415 . S
C258 C263 1.425 . S
C258 C265 1.409 . S
C259 H251 0.930 . S
C259 C257 1.419 1_665 S
C259 C260 1.362 . S
C260 H252 0.930 . S
C260 C259 1.362 . S
C260 C263 1.409 1_665 S
C261 H253 0.930 1_455 S
C261 C262 1.355 1_565 S
C261 C263 1.415 1_565 S
C262 C261 1.355 1_545 S
C262 C264 1.419 . S
C263 C258 1.425 . S
C263 C260 1.409 1_445 S
C263 C261 1.415 1_545 S
C264 H254 0.930 . S
C264 C262 1.419 . S
C264 C265 1.362 . S
C265 H255 0.930 . S
C265 C258 1.409 . S
C265 C264 1.362 . S
H266 C272 0.930 . S
H267 C275 0.930 . S
H268 C276 0.930 . S
H269 C277 0.930 . S
H270 C280 0.930 . S
H271 C281 0.930 . S
C272 H266 0.930 . S
C272 C273 1.355 . S
C272 C274 1.415 . S
C273 C272 1.355 . S
C273 C275 1.419 1_655 S
C274 C272 1.415 . S
C274 C279 1.425 1_655 S
C274 C281 1.409 . S
C275 H267 0.930 . S
C275 C273 1.419 1_455 S
C275 C276 1.362 . S
C276 H268 0.930 . S
C276 C275 1.362 . S
C276 C279 1.409 . S
C277 H269 0.930 . S
C277 C278 1.355 . S
C277 C279 1.415 . S
C278 C277 1.355 . S
C278 C280 1.419 1_455 S
C279 C274 1.425 1_455 S
C279 C276 1.409 . S
C279 C277 1.415 . S
C280 H270 0.930 . S
C280 C278 1.419 1_655 S
C280 C281 1.362 . S
C281 H271 0.930 . S
C281 C274 1.409 . S
C281 C280 1.362 . S
H282 C288 0.930 . S
H283 C291 0.930 . S
H284 C292 0.930 1_655 S
H285 C293 0.930 1_655 S
H286 C296 0.930 . S
H287 C297 0.930 . S
C288 H282 0.930 . S
C288 C289 1.355 . S
C288 C290 1.415 . S
C289 C288 1.355 . S
C289 C291 1.419 . S
C290 C288 1.415 . S
C290 C295 1.425 . S
C290 C297 1.409 1_554 S
C291 H283 0.930 . S
C291 C289 1.419 . S
C291 C292 1.362 . S
C292 H284 0.930 1_455 S
C292 C291 1.362 . S
C292 C295 1.409 . S
C293 H285 0.930 1_455 S
C293 C294 1.355 . S
C293 C295 1.415 1_556 S
C294 C293 1.355 . S
C294 C296 1.419 . S
C295 C290 1.425 . S
C295 C292 1.409 . S
C295 C293 1.415 1_554 S
C296 H286 0.930 . S
C296 C294 1.419 . S
C296 C297 1.362 . S
C297 H287 0.930 . S
C297 C290 1.409 1_556 S
C297 C296 1.362 . S
H298 C304 0.930 . S
H299 C307 0.930 . S
H300 C308 0.930 1_665 S
H301 C309 0.930 . S
H302 C312 0.930 . S
H303 C313 0.930 . S
C304 H298 0.930 . S
C304 C305 1.355 . S
C304 C306 1.415 . S
C305 C304 1.355 . S
C305 C307 1.419 . S
C306 C304 1.415 . S
C306 C311 1.425 . S
C306 C313 1.409 . S
C307 H299 0.930 . S
C307 C305 1.419 . S
C307 C308 1.362 . S
C308 H300 0.930 1_445 S
C308 C307 1.362 . S
C308 C311 1.409 . S
C309 H301 0.930 . S
C309 C310 1.355 . S
C309 C311 1.415 . S
C310 C309 1.355 . S
C310 C312 1.419 . S
C311 C306 1.425 . S
C311 C308 1.409 . S
C311 C309 1.415 . S
C312 H302 0.930 . S
C312 C310 1.419 . S
C312 C313 1.362 . S
C313 H303 0.930 . S
C313 C306 1.409 . S
C313 C312 1.362 . S
H314 C320 0.930 . S
H315 C323 0.930 . S
H316 C324 0.930 . S
H317 C325 0.930 . S
H318 C328 0.930 . S
H319 C329 0.930 . S
C320 H314 0.930 . S
C320 C321 1.355 1_655 S
C320 C322 1.415 . S
C321 C320 1.355 1_455 S
C321 C323 1.419 . S
C322 C320 1.415 . S
C322 C327 1.425 1_655 S
C322 C329 1.409 . S
C323 H315 0.930 . S
C323 C321 1.419 . S
C323 C324 1.362 . S
C324 H316 0.930 . S
C324 C323 1.362 . S
C324 C327 1.409 . S
C325 H317 0.930 . S
C325 C326 1.355 1_455 S
C325 C327 1.415 . S
C326 C325 1.355 1_655 S
C326 C328 1.419 . S
C327 C322 1.425 1_455 S
C327 C324 1.409 . S
C327 C325 1.415 . S
C328 H318 0.930 . S
C328 C326 1.419 . S
C328 C329 1.362 . S
C329 H319 0.930 . S
C329 C322 1.409 . S
C329 C328 1.362 . S
C145 N2 1.443 . S
C150 N12 1.435 . S
C161 C39 1.489 1_545 S
C166 C30 1.492 . S
C177 N48 1.477 . S
C182 N58 1.466 . S
C193 C76 1.488 1_545 S
C198 C85 1.471 . S
C209 N94 1.476 . S
C214 N104 1.466 . S
C225 N117 1.472 . S
C230 N127 1.461 . S
C241 C131 1.462 . S
C246 C16 1.483 . S
C257 N81 1.432 . S
C262 N35 1.435 . S
C273 C62 1.535 . S
C278 C108 1.521 . S
C289 C7 1.513 . S
C294 C99 1.503 . S
C305 C122 1.485 . S
C310 N25 1.435 . S
C321 N71 1.461 . S
C326 C53 1.520 . S
