# Generated by pormake.
# Topology tfs, (6)-cn, num edge types: 1
# Building blocks:
#     Node 0, Type 0, BuildingBlock: VOLQOD_clean_sbu_1, # of connection points: 6
#     Node 1, Type 0, BuildingBlock: VOLQOD_clean_sbu_1, # of connection points: 6
#     Node 2, Type 0, BuildingBlock: VOLQOD_clean_sbu_1, # of connection points: 6
#     Node 3, Type 0, BuildingBlock: VOLQOD_clean_sbu_1, # of connection points: 6
#     Node 4, Type 0, BuildingBlock: VOLQOD_clean_sbu_1, # of connection points: 6
#     Node 5, Type 0, BuildingBlock: VOLQOD_clean_sbu_1, # of connection points: 6
#     Edge 6, Type (0, 0), BuildingBlock: FUNLAD_clean_linker_0, # of connection points: 2
#     Edge 7, Type (0, 0), BuildingBlock: FUNLAD_clean_linker_0, # of connection points: 2
#     Edge 8, Type (0, 0), BuildingBlock: FUNLAD_clean_linker_0, # of connection points: 2
#     Edge 9, Type (0, 0), BuildingBlock: FUNLAD_clean_linker_0, # of connection points: 2
#     Edge 10, Type (0, 0), BuildingBlock: FUNLAD_clean_linker_0, # of connection points: 2
#     Edge 11, Type (0, 0), BuildingBlock: FUNLAD_clean_linker_0, # of connection points: 2
#     Edge 12, Type (0, 0), BuildingBlock: FUNLAD_clean_linker_0, # of connection points: 2
#     Edge 13, Type (0, 0), BuildingBlock: FUNLAD_clean_linker_0, # of connection points: 2
#     Edge 14, Type (0, 0), BuildingBlock: FUNLAD_clean_linker_0, # of connection points: 2
#     Edge 15, Type (0, 0), BuildingBlock: FUNLAD_clean_linker_0, # of connection points: 2
#     Edge 16, Type (0, 0), BuildingBlock: FUNLAD_clean_linker_0, # of connection points: 2
#     Edge 17, Type (0, 0), BuildingBlock: FUNLAD_clean_linker_0, # of connection points: 2
#     Edge 18, Type (0, 0), BuildingBlock: FUNLAD_clean_linker_0, # of connection points: 2
#     Edge 19, Type (0, 0), BuildingBlock: FUNLAD_clean_linker_0, # of connection points: 2
#     Edge 20, Type (0, 0), BuildingBlock: FUNLAD_clean_linker_0, # of connection points: 2
#     Edge 21, Type (0, 0), BuildingBlock: FUNLAD_clean_linker_0, # of connection points: 2
#     Edge 22, Type (0, 0), BuildingBlock: FUNLAD_clean_linker_0, # of connection points: 2
#     Edge 23, Type (0, 0), BuildingBlock: FUNLAD_clean_linker_0, # of connection points: 2
# Relax obj value: 0.115
# Max RMSD: 0.091
# Mean RMSD: 0.091
data_MOF--net-tfs--node1-VOLQOD_clean_sbu_1--edge1-FUNLAD_clean_linker_0
_symmetry_space_group_name_H-M    P1
_symmetry_Int_Tables_number       1
_symmetry_cell_setting            triclinic
loop_
_symmetry_equiv_pos_as_xyz
'x, y, z'
_cell_length_a     52.596969
_cell_length_b     52.754503
_cell_length_c     19.675878
_cell_angle_alpha  89.900728
_cell_angle_beta   89.997203
_cell_angle_gamma 120.0417
loop_
_atom_site_label
_atom_site_type_symbol
_atom_site_fract_x
_atom_site_fract_y
_atom_site_fract_z
_atom_type_partial_charge
O0 O 0.25012 0.47498 0.9168 0.0
Zn1 Zn 0.2063 0.45108 0.90812 0.0
O2 O 0.18919 0.41858 0.97088 0.0
Zn3 Zn 0.17167 0.38157 0.91954 0.0
Zn4 Zn 0.2203 0.42203 0.02948 0.0
Zn5 Zn 0.15989 0.42098 0.02697 0.0
O6 O 0.12932 0.35556 0.94785 0.0
O7 O 0.12075 0.38554 0.01067 0.0
O8 O 0.19591 0.43767 0.81261 0.0
O9 O 0.17152 0.38912 0.81828 0.0
O10 O 0.1947 0.36047 0.93382 0.0
O11 O 0.2282 0.39009 0.00807 0.0
O12 O 0.20933 0.41836 0.12789 0.0
O13 O 0.1906 0.47771 0.92501 0.0
O14 O 0.16785 0.41968 0.12682 0.0
O15 O 0.15756 0.45752 0.00735 0.0
C16 C 0.26765 0.47674 0.96357 0.0
C17 C 0.11189 0.36092 0.98181 0.0
C18 C 0.21721 0.36747 0.97062 0.0
C19 C 0.182 0.41279 0.78404 0.0
C20 C 0.1879 0.4179 0.15902 0.0
C21 C 0.17158 0.47797 0.96436 0.0
O22 O 0.25869 0.4591 0.01372 0.0
O23 O 0.78809 0.26024 0.90191 0.0
Zn24 Zn 0.76378 0.21703 0.88572 0.0
O25 O 0.7736 0.19496 0.94897 0.0
Zn26 Zn 0.7887 0.17323 0.89842 0.0
Zn27 Zn 0.80338 0.22214 0.01183 0.0
Zn28 Zn 0.73839 0.16779 -0.00032 0.0
O29 O 0.76571 0.13021 0.92133 0.0
O30 O 0.72902 0.12649 0.98463 0.0
O31 O 0.76903 0.20851 0.78955 0.0
O32 O 0.78563 0.17734 0.7974 0.0
O33 O 0.83131 0.18804 0.9199 0.0
O34 O 0.84036 0.22049 0.00172 0.0
O35 O 0.79025 0.21173 0.10829 0.0
O36 O 0.72183 0.20662 0.89583 0.0
O37 O 0.74442 0.17489 0.10028 0.0
O38 O 0.70331 0.17134 0.9734 0.0
C39 C 0.80591 0.27568 0.94847 0.0
C40 C 0.74206 0.11484 0.95466 0.0
C41 C 0.84852 0.20646 0.96344 0.0
C42 C 0.77753 0.19225 0.7619 0.0
C43 C 0.76631 0.19276 0.13585 0.0
C44 C 0.70035 0.18814 0.93163 0.0
O45 O 0.81315 0.26396 -0.00433 0.0
O46 O 0.51767 0.77457 0.94044 0.0
Zn47 Zn 0.54154 0.75482 0.92801 0.0
O48 O 0.57494 0.77008 -0.01081 0.0
Zn49 Zn 0.6113 0.78715 0.93599 0.0
Zn50 Zn 0.57435 0.80009 0.04566 0.0
Zn51 Zn 0.5722 0.73839 0.04643 0.0
O52 O 0.63558 0.76874 0.9602 0.0
O53 O 0.60714 0.73311 0.03186 0.0
O54 O 0.55412 0.75889 0.83099 0.0
O55 O 0.60268 0.78022 0.83618 0.0
O56 O 0.6356 0.83076 0.95041 0.0
O57 O 0.61031 0.83893 0.02924 0.0
O58 O 0.57306 0.79037 0.14417 0.0
O59 O 0.51446 0.71233 0.94541 0.0
O60 O 0.57192 0.74772 0.14527 0.0
O61 O 0.53493 0.70001 0.02803 0.0
C62 C 0.51891 0.79345 0.9825 0.0
C63 C 0.63079 0.74708 -0.00235 0.0
C64 C 0.63244 0.84807 -0.01001 0.0
C65 C 0.57896 0.76895 0.80207 0.0
C66 C 0.57219 0.76901 0.1763 0.0
C67 C 0.51415 0.69335 -0.01414 0.0
O68 O 0.53924 0.80478 0.02671 0.0
O69 O 0.73524 0.50895 0.00175 0.0
Zn70 Zn 0.77831 0.53337 0.98272 0.0
O71 O 0.79714 0.56771 0.04023 0.0
Zn72 Zn 0.81309 0.60324 0.98382 0.0
Zn73 Zn 0.76772 0.56649 0.10244 0.0
Zn74 Zn 0.82862 0.56699 0.09186 0.0
O75 O 0.85644 0.62914 0.00021 0.0
O76 O 0.86709 0.60336 0.0725 0.0
O77 O 0.78231 0.5446 0.88519 0.0
O78 O 0.80751 0.5932 0.88408 0.0
O79 O 0.79324 0.62677 0.00484 0.0
O80 O 0.76332 0.60159 0.08967 0.0
O81 O 0.77958 0.56684 0.1988 0.0
O82 O 0.79644 0.50823 -0.00542 0.0
O83 O 0.82199 0.56741 0.1924 0.0
O84 O 0.83203 0.53115 0.07026 0.0
C85 C 0.71811 0.51054 0.04497 0.0
C86 C 0.87484 0.62618 0.03648 0.0
C87 C 0.7742 0.6234 0.04938 0.0
C88 C 0.79445 0.56876 0.85308 0.0
C89 C 0.80161 0.56746 0.22716 0.0
C90 C 0.81738 0.50976 0.03007 0.0
O91 O 0.72762 0.53122 0.08812 0.0
O92 O 0.20539 0.73046 0.94105 0.0
Zn93 Zn 0.22842 0.77342 0.92085 0.0
O94 O 0.21697 0.79561 0.97887 0.0
Zn95 Zn 0.19943 0.81378 0.92288 0.0
Zn96 Zn 0.1883 0.76883 0.0438 0.0
Zn97 Zn 0.25128 0.8253 0.02829 0.0
O98 O 0.21941 0.857 0.9412 0.0
O99 O 0.25679 0.86497 0.00815 0.0
O100 O 0.22228 0.77874 0.8234 0.0
O101 O 0.20414 0.80873 0.82289 0.0
O102 O 0.15593 0.79609 0.94251 0.0
O103 O 0.14988 0.76667 0.02934 0.0
O104 O 0.20055 0.78186 0.13879 0.0
O105 O 0.27118 0.78703 0.93152 0.0
O106 O 0.24533 0.82038 0.12983 0.0
O107 O 0.28823 0.82418 0.00402 0.0
C108 C 0.18815 0.71568 -0.01078 0.0
C109 C 0.24222 0.87425 0.97509 0.0
C110 C 0.1397 0.77787 -0.01213 0.0
C111 C 0.21312 0.79358 0.79155 0.0
C112 C 0.22364 0.80234 0.16585 0.0
C113 C 0.29229 0.80731 0.96481 0.0
O114 O 0.18084 0.72775 0.03508 0.0
O115 O 0.47368 0.22056 0.9335 0.0
Zn116 Zn 0.44827 0.2386 0.92184 0.0
O117 O 0.41604 0.22253 -0.01378 0.0
Zn118 Zn 0.37898 0.19968 0.9367 0.0
Zn119 Zn 0.42154 0.1975 0.04986 0.0
Zn120 Zn 0.41618 0.25442 0.03646 0.0
O121 O 0.3517 0.21521 0.95531 0.0
O122 O 0.37929 0.25527 0.01628 0.0
O123 O 0.43389 0.23199 0.82625 0.0
O124 O 0.38568 0.20281 0.83538 0.0
O125 O 0.35897 0.15686 0.96207 0.0
O126 O 0.38891 0.15643 0.04095 0.0
O127 O 0.4214 0.20927 0.14632 0.0
O128 O 0.47391 0.28173 0.93468 0.0
O129 O 0.41674 0.24866 0.13729 0.0
O130 O 0.45187 0.29358 0.01441 0.0
C131 C 0.4761 0.20543 0.98085 0.0
C132 C 0.35534 0.23804 -0.01405 0.0
C133 C 0.36584 0.14317 0.00494 0.0
C134 C 0.40869 0.21702 0.79926 0.0
C135 C 0.41901 0.22986 0.17338 0.0
C136 C 0.47289 0.30069 0.97262 0.0
O137 O 0.45864 0.19658 0.03139 0.0
C138 C 0.33375 0.26782 0.02675 0.0
C139 C 0.33172 0.24541 0.98477 0.0
C140 C 0.3131 0.27684 0.02197 0.0
C141 C 0.29014 0.26395 0.9744 0.0
C142 C 0.28692 0.24032 0.93537 0.0
C143 C 0.30765 0.23114 0.9403 0.0
C144 C 0.27028 0.27591 0.96394 0.0
C145 C 0.28111 0.305 0.96568 0.0
C146 C 0.26338 0.31962 0.96483 0.0
C147 C 0.27646 0.34799 -0.00856 0.0
C148 C 0.2612 0.3631 -0.00649 0.0
C149 C 0.23245 0.35041 0.96808 0.0
H150 H 0.22404 0.28502 0.91679 0.0
C151 C 0.21929 0.32211 0.94017 0.0
C152 C 0.23461 0.30669 0.93885 0.0
H153 H 0.19721 0.31189 0.91983 0.0
H154 H 0.3516 0.27882 0.06267 0.0
H155 H 0.31544 0.29432 0.05488 0.0
H156 H 0.26911 0.22978 0.89918 0.0
H157 H 0.30533 0.21357 0.90777 0.0
H158 H 0.24712 0.26083 0.9551 0.0
H159 H 0.30466 0.31925 0.97214 0.0
H160 H 0.29862 0.35851 0.01154 0.0
H161 H 0.27222 0.38499 0.01466 0.0
C162 C 0.06935 0.31057 0.9582 0.0
C163 C 0.08061 0.33819 -0.01111 0.0
C164 C 0.03961 0.28946 0.965 0.0
C165 C 0.0206 0.29574 0.00247 0.0
C166 C 0.03211 0.32313 0.03402 0.0
C167 C 0.06165 0.3441 0.02724 0.0
C168 C 0.98865 0.275 0.0098 0.0
C169 C 0.9728 0.25161 0.96963 0.0
C170 C 0.9402 0.2352 0.97203 0.0
C171 C 0.92438 0.22271 0.91207 0.0
C172 C 0.89405 0.21166 0.90996 0.0
C173 C 0.8792 0.21314 0.9678 0.0
H174 H 0.93586 0.24184 0.07963 0.0
C175 C 0.8946 0.2234 0.02909 0.0
C176 C 0.92471 0.2339 0.03151 0.0
H177 H 0.88347 0.22402 0.07489 0.0
H178 H 0.08346 0.30524 0.92885 0.0
H179 H 0.03183 0.2684 0.94119 0.0
H180 H 0.01808 0.32857 0.06345 0.0
H181 H 0.06953 0.36505 0.05199 0.0
H182 H 0.97727 0.28114 0.04648 0.0
H183 H 0.98337 0.24651 0.92881 0.0
H184 H 0.93571 0.22299 0.86583 0.0
H185 H 0.88257 0.20359 0.86217 0.0
C186 C 0.74572 0.06958 0.93836 0.0
C187 C 0.72976 0.08285 0.96061 0.0
C188 C 0.73441 0.03948 0.94687 0.0
C189 C 0.7067 0.022 0.9773 0.0
C190 C 0.69077 0.03536 -0.00114 0.0
C191 C 0.70211 0.06536 -0.00929 0.0
C192 C 0.69346 0.99002 -0.01094 0.0
C193 C 0.70404 0.97326 0.96463 0.0
C194 C 0.6884 0.94112 0.97578 0.0
C195 C 0.6897 0.92288 0.92573 0.0
C196 C 0.67248 0.89243 0.93153 0.0
C197 C 0.65372 0.87979 -0.01233 0.0
H198 H 0.67087 0.94167 0.07555 0.0
C199 C 0.65398 0.89803 0.03987 0.0
C200 C 0.67132 0.92834 0.03432 0.0
H201 H 0.6403 0.88892 0.08455 0.0
H202 H 0.7672 0.08251 0.91538 0.0
H203 H 0.74774 0.03037 0.93034 0.0
H204 H 0.6694 0.02254 0.02251 0.0
H205 H 0.68917 0.07481 0.00837 0.0
H206 H 0.67299 0.97954 0.01747 0.0
H207 H 0.72309 0.98252 0.93156 0.0
H208 H 0.70307 0.93219 0.88069 0.0
H209 H 0.67292 0.8789 0.89071 0.0
C210 C 0.76929 0.66493 0.00143 0.0
C211 C 0.7634 0.64441 0.05342 0.0
C212 C 0.75664 0.6828 0.00303 0.0
C213 C 0.7379 0.68044 0.05686 0.0
C214 C 0.73337 0.66103 0.11037 0.0
C215 C 0.7458 0.64311 0.10857 0.0
C216 C 0.72159 0.69665 0.05855 0.0
C217 C 0.71502 0.7071 0.00286 0.0
C218 C 0.69423 0.71836 0.00479 0.0
C219 C 0.69712 0.73943 0.95709 0.0
C220 C 0.67685 0.7492 0.95544 0.0
C221 C 0.65294 0.73765 0.00081 0.0
H222 H 0.66678 0.68983 0.08621 0.0
C223 C 0.65001 0.71645 0.04836 0.0
C224 C 0.67037 0.70688 0.05032 0.0
H225 H 0.63178 0.70697 0.08378 0.0
H226 H 0.78302 0.66668 0.9586 0.0
H227 H 0.76149 0.69817 0.96186 0.0
H228 H 0.71931 0.65895 0.1528 0.0
H229 H 0.74111 0.62783 0.14999 0.0
H230 H 0.71267 0.69798 0.10737 0.0
H231 H 0.72409 0.70656 0.95373 0.0
H232 H 0.71508 0.7483 0.92089 0.0
H233 H 0.67966 0.76543 0.91787 0.0
C234 C 0.09147 0.75108 0.04698 0.0
C235 C 0.10802 0.76807 -0.00858 0.0
C236 C 0.06112 0.73889 0.04834 0.0
C237 C 0.04643 0.74361 -0.00566 0.0
C238 C 0.06302 0.76128 0.93953 0.0
C239 C 0.0936 0.77359 0.93822 0.0
C240 C 0.01382 0.72781 -0.00921 0.0
C241 C -0.00331 0.71697 0.04631 0.0
C242 C 0.96503 0.69494 0.0431 0.0
C243 C 0.95319 0.67383 0.09484 0.0
C244 C 0.92399 0.65144 0.0923 0.0
C245 C 0.90577 0.65003 0.03853 0.0
H246 H 0.95509 0.71024 0.94974 0.0
C247 C 0.91732 0.6717 -0.01234 0.0
C248 C 0.94678 0.69391 -0.01033 0.0
H249 H 0.90372 0.67128 0.94585 0.0
H250 H 0.10182 0.74635 0.08887 0.0
H251 H 0.04936 0.72462 0.09048 0.0
H252 H 0.05224 0.765 0.89692 0.0
H253 H 0.10575 0.7865 0.89454 0.0
H254 H 0.00393 0.72319 0.94059 0.0
H255 H 0.00657 0.72197 0.09647 0.0
H256 H 0.9668 0.67423 0.13667 0.0
H257 H 0.91567 0.63531 0.13273 0.0
C258 C 0.27025 0.92298 0.03076 0.0
C259 C 0.25157 0.90565 0.97834 0.0
C260 C 0.2792 0.95263 0.03472 0.0
C261 C 0.27025 0.96586 -0.01476 0.0
C262 C 0.25092 0.94836 0.93389 0.0
C263 C 0.24161 0.91849 0.93045 0.0
C264 C 0.28082 -0.00225 -0.01432 0.0
C265 C 0.30644 0.01722 0.01458 0.0
C266 C 0.31863 0.04932 0.01443 0.0
C267 C 0.34027 0.0659 0.06257 0.0
C268 C 0.35469 0.09633 0.06096 0.0
C269 C 0.34795 0.11099 0.01068 0.0
H270 H 0.29489 0.05191 0.92654 0.0
C271 C 0.32554 0.09447 0.96375 0.0
C272 C 0.31103 0.06386 0.96541 0.0
H273 H 0.31994 0.10514 0.92421 0.0
H274 H 0.2777 0.91356 0.06946 0.0
H275 H 0.29288 0.96487 0.07716 0.0
H276 H 0.2434 0.95791 0.89566 0.0
H277 H 0.22698 0.90559 0.88977 0.0
H278 H 0.26756 0.00522 0.95966 0.0
H279 H 0.3198 0.00958 0.03935 0.0
H280 H 0.34653 0.05526 0.10089 0.0
H281 H 0.3717 0.10833 0.09823 0.0
C282 C 0.17155 0.66828 0.93056 0.0
C283 C 0.17638 0.68385 -0.00866 0.0
C284 C 0.16209 0.63845 0.9318 0.0
C285 C 0.15832 0.62375 -0.00588 0.0
C286 C 0.16166 0.63908 0.05487 0.0
C287 C 0.17046 0.66886 0.05354 0.0
C288 C 0.15273 0.59319 -0.00222 0.0
C289 C 0.15993 0.58098 0.94669 0.0
C290 C 0.16019 0.55304 0.9516 0.0
C291 C 0.17593 0.54762 0.9018 0.0
C292 C 0.17905 0.52301 0.90567 0.0
C293 C 0.16632 0.50293 0.95939 0.0
H294 H 0.13341 0.5353 0.04269 0.0
C295 C 0.14948 0.50755 0.00802 0.0
C296 C 0.14641 0.53241 0.00423 0.0
H297 H 0.13915 0.49229 0.04963 0.0
H298 H 0.17514 0.67921 0.88189 0.0
H299 H 0.15819 0.62731 0.88361 0.0
H300 H 0.15851 0.62827 0.10357 0.0
H301 H 0.17376 0.68039 0.10114 0.0
H302 H 0.14558 0.58198 0.04624 0.0
H303 H 0.16903 0.59332 0.90021 0.0
H304 H 0.18657 0.56289 0.86032 0.0
H305 H 0.19186 0.52 0.86672 0.0
C306 C 0.51385 0.20048 0.91455 0.0
C307 C 0.49956 0.1979 0.97661 0.0
C308 C 0.53636 0.19385 0.91033 0.0
C309 C 0.54554 0.18507 0.9686 0.0
C310 C 0.53065 0.18171 0.03017 0.0
C311 C 0.50786 0.188 0.03419 0.0
C312 C 0.57065 0.17959 0.96762 0.0
C313 C 0.59172 0.19051 0.91948 0.0
C314 C 0.61859 0.18798 0.92144 0.0
C315 C 0.64276 0.2076 0.88204 0.0
C316 C 0.66906 0.20725 0.88441 0.0
C317 C 0.67181 0.18713 0.92621 0.0
H318 H 0.60257 0.15082 -0.00929 0.0
C319 C 0.64734 0.16676 0.96396 0.0
C320 C 0.62093 0.16705 0.9614 0.0
H321 H 0.64862 0.15071 -0.00401 0.0
H322 H 0.50752 0.20745 0.86892 0.0
H323 H 0.54622 0.19553 0.86112 0.0
H324 H 0.53701 0.17469 0.07571 0.0
H325 H 0.49713 0.18561 0.08269 0.0
H326 H 0.57284 0.16811 0.01099 0.0
H327 H 0.59069 0.204 0.87916 0.0
H328 H 0.64153 0.22375 0.85024 0.0
H329 H 0.68739 0.22315 0.85427 0.0
C330 C 0.46666 0.65575 0.93506 0.0
C331 C 0.48823 0.6635 -0.01454 0.0
C332 C 0.44083 0.62875 0.93713 0.0
C333 C 0.43596 0.60859 -0.01057 0.0
C334 C 0.45771 0.61606 0.0392 0.0
C335 C 0.48372 0.64319 0.03705 0.0
C336 C 0.40742 0.58095 -0.00356 0.0
C337 C 0.38952 0.56769 0.94319 0.0
C338 C 0.35875 0.54336 0.94964 0.0
C339 C 0.33916 0.53922 0.89673 0.0
C340 C 0.30964 0.51767 0.90136 0.0
C341 C 0.29903 0.49949 0.9589 0.0
H342 H 0.36285 0.52668 0.04782 0.0
C343 C 0.31876 0.50309 0.01129 0.0
C344 C 0.34834 0.52479 0.00676 0.0
H345 H 0.31137 0.48922 0.05599 0.0
H346 H 0.46931 0.67088 0.89469 0.0
H347 H 0.42431 0.62447 0.89912 0.0
H348 H 0.45437 0.60106 0.08045 0.0
H349 H 0.49984 0.64854 0.07685 0.0
H350 H 0.40063 0.57235 0.04745 0.0
H351 H 0.39692 0.57623 0.89233 0.0
H352 H 0.3466 0.5531 0.852 0.0
H353 H 0.29515 0.51537 0.85977 0.0
C354 C 0.81184 0.46536 0.97141 0.0
C355 C 0.82418 0.48577 0.02449 0.0
C356 C 0.81657 0.44168 0.96721 0.0
C357 C 0.83389 0.43778 0.01595 0.0
C358 C 0.84641 0.45823 0.06886 0.0
C359 C 0.84186 0.48219 0.07278 0.0
C360 C 0.83681 0.41118 0.01569 0.0
C361 C 0.83556 0.39689 0.9579 0.0
C362 C 0.8315 0.36692 0.95548 0.0
C363 C 0.81949 0.35045 0.89616 0.0
C364 C 0.81208 0.32113 0.89326 0.0
C365 C 0.81682 0.30758 0.94949 0.0
H366 H 0.8477 0.36594 0.05669 0.0
C367 C 0.83041 0.32444 0.00765 0.0
C368 C 0.83765 0.35383 0.01074 0.0
H369 H 0.83461 0.31471 0.05164 0.0
H370 H 0.79804 0.46736 0.9334 0.0
H371 H 0.80563 0.4259 0.92706 0.0
H372 H 0.8595 0.4555 0.10757 0.0
H373 H 0.85154 0.49744 0.11451 0.0
H374 H 0.83835 0.40257 0.06465 0.0
H375 H 0.83485 0.40651 0.90956 0.0
H376 H 0.81475 0.35998 0.85256 0.0
H377 H 0.80197 0.30892 0.84733 0.0
C378 C 0.34457 0.82781 0.00363 0.0
C379 C 0.32195 0.81092 0.95741 0.0
C380 C 0.37203 0.82972 -0.00224 0.0
C381 C 0.37736 0.81488 0.9452 0.0
C382 C 0.35509 0.79896 0.89779 0.0
C383 C 0.32767 0.7968 0.90403 0.0
C384 C 0.40544 0.81481 0.93804 0.0
C385 C 0.4233 0.81812 -0.00947 0.0
C386 C 0.44876 0.81329 0.98436 0.0
C387 C 0.4715 0.82599 0.03236 0.0
C388 C 0.49472 0.82021 0.03089 0.0
C389 C 0.49551 0.8013 0.98168 0.0
H390 H 0.43222 0.78345 0.89824 0.0
C391 C 0.47288 0.78881 0.93328 0.0
C392 C 0.44974 0.7946 0.93472 0.0
H393 H 0.47262 0.77396 0.89497 0.0
H394 H 0.34092 0.83915 0.04499 0.0
H395 H 0.38892 0.8429 0.03419 0.0
H396 H 0.35865 0.7875 0.85651 0.0
H397 H 0.31089 0.78387 0.86702 0.0
H398 H 0.41039 0.80981 0.88796 0.0
H399 H 0.41871 0.8235 0.04057 0.0
H400 H 0.47115 0.84021 0.07159 0.0
H401 H 0.51172 0.83013 0.06914 0.0
C402 C 0.67526 0.46784 -0.00983 0.0
C403 C 0.68646 0.48838 0.0432 0.0
C404 C 0.6454 0.44724 -0.01296 0.0
C405 C 0.62594 0.4467 0.03681 0.0
C406 C 0.63713 0.46683 0.09053 0.0
C407 C 0.66708 0.48766 0.09345 0.0
C408 C 0.59434 0.42407 0.03596 0.0
C409 C 0.57972 0.4123 0.97771 0.0
C410 C 0.55027 0.38564 0.97502 0.0
C411 C 0.54325 0.3676 0.91769 0.0
C412 C 0.51749 0.3405 0.91589 0.0
C413 C 0.49788 0.33103 0.97104 0.0
H414 H 0.5341 0.39076 0.07279 0.0
C415 C 0.50384 0.34992 0.02657 0.0
C416 C 0.52988 0.37699 0.02871 0.0
H417 H 0.48902 0.3433 0.06961 0.0
H418 H 0.68954 0.46761 0.95082 0.0
H419 H 0.63784 0.43134 0.94634 0.0
H420 H 0.62266 0.46653 0.1301 0.0
H421 H 0.67503 0.50308 0.13519 0.0
H422 H 0.58351 0.41621 0.08469 0.0
H423 H 0.59086 0.42083 0.92948 0.0
H424 H 0.5584 0.37388 0.8753 0.0
H425 H 0.51335 0.32661 0.87196 0.0
C426 C 0.17073 0.38669 0.67185 0.0
C427 C 0.1776 0.41187 0.70973 0.0
C428 C 0.16779 0.38672 0.60114 0.0
C429 C 0.17137 0.41187 0.56742 0.0
C430 C 0.17717 0.43656 0.60564 0.0
C431 C 0.18056 0.4367 0.67589 0.0
C432 C 0.16944 0.41333 0.49259 0.0
C433 C 0.17871 0.3997 0.45006 0.0
C434 C 0.18037 0.40428 0.37546 0.0
C435 C 0.20216 0.40234 0.33871 0.0
C436 C 0.20492 0.40726 0.26867 0.0
C437 C 0.1856 0.41382 0.23365 0.0
H438 H 0.14324 0.41145 0.36693 0.0
C439 C 0.16344 0.41529 0.27032 0.0
C440 C 0.16082 0.41057 0.3405 0.0
H441 H 0.14799 0.41997 0.24482 0.0
H442 H 0.16812 0.36717 0.69664 0.0
H443 H 0.16258 0.36706 0.57313 0.0
H444 H 0.17977 0.45609 0.5809 0.0
H445 H 0.18546 0.45634 0.7037 0.0
H446 H 0.16308 0.42851 0.47227 0.0
H447 H 0.18794 0.38694 0.47079 0.0
H448 H 0.21737 0.39736 0.3644 0.0
H449 H 0.22207 0.40565 0.24197 0.0
C450 C 0.76345 0.20207 0.64786 0.0
C451 C 0.77767 0.19056 0.68701 0.0
C452 C 0.76356 0.20072 0.57714 0.0
C453 C 0.77796 0.18786 0.54401 0.0
C454 C 0.79243 0.17663 0.58295 0.0
C455 C 0.79207 0.17769 0.65387 0.0
C456 C 0.77954 0.18738 0.46899 0.0
C457 C 0.75818 0.18584 0.42857 0.0
C458 C 0.76068 0.18737 0.35362 0.0
C459 C 0.73517 0.17281 0.31405 0.0
C460 C 0.73692 0.17439 0.24318 0.0
C461 C 0.76421 0.19109 0.21073 0.0
H462 H 0.80795 0.21647 0.35031 0.0
C463 C 0.78968 0.20608 0.25054 0.0
C464 C 0.78795 0.20422 0.32123 0.0
H465 H 0.81104 0.21922 0.22715 0.0
H466 H 0.75222 0.21221 0.67178 0.0
H467 H 0.75295 0.21041 0.54864 0.0
H468 H 0.80395 0.16691 0.55844 0.0
H469 H 0.80337 0.16878 0.68263 0.0
H470 H 0.79852 0.18757 0.44663 0.0
H471 H 0.73781 0.18252 0.45078 0.0
H472 H 0.71388 0.15998 0.338 0.0
H473 H 0.71687 0.16272 0.21392 0.0
C474 C 0.55465 0.75826 0.68844 0.0
C475 C 0.58013 0.76715 0.72739 0.0
C476 C 0.55559 0.75656 0.61793 0.0
C477 C 0.58205 0.76375 0.58485 0.0
C478 C 0.60733 0.77192 0.62367 0.0
C479 C 0.60648 0.77386 0.69433 0.0
C480 C 0.58368 0.76257 0.51002 0.0
C481 C 0.56732 0.76912 0.46905 0.0
C482 C 0.56913 0.76885 0.39417 0.0
C483 C 0.56349 0.78808 0.35655 0.0
C484 C 0.56477 0.78831 0.28578 0.0
C485 C 0.57118 0.76888 0.25122 0.0
H486 H 0.57905 0.7336 0.38736 0.0
C487 C 0.57635 0.74926 0.28889 0.0
C488 C 0.5754 0.74927 0.35979 0.0
H489 H 0.5812 0.73392 0.26368 0.0
H490 H 0.53393 0.75267 0.71234 0.0
H491 H 0.53547 0.74928 0.58956 0.0
H492 H 0.62789 0.77727 0.59922 0.0
H493 H 0.62642 0.7805 0.72296 0.0
H494 H 0.60002 0.75806 0.48841 0.0
H495 H 0.55333 0.77668 0.49096 0.0
H496 H 0.55834 0.80316 0.38201 0.0
H497 H 0.56044 0.80354 0.2582 0.0
C498 C 0.81229 0.59275 0.73952 0.0
C499 C 0.7931 0.56809 0.77824 0.0
C500 C 0.8112 0.59154 0.66858 0.0
C501 C 0.79073 0.56568 0.6354 0.0
C502 C 0.77119 0.54134 0.67412 0.0
C503 C 0.77253 0.5424 0.7448 0.0
C504 C 0.78841 0.5636 0.56062 0.0
C505 C 0.8116 0.57819 0.51909 0.0
C506 C 0.8087 0.57517 0.44436 0.0
C507 C 0.83219 0.57759 0.40561 0.0
C508 C 0.8298 0.57456 0.335 0.0
C509 C 0.80396 0.56947 0.30194 0.0
H510 H 0.76478 0.56928 0.4394 0.0
C511 C 0.78062 0.56745 0.34088 0.0
C512 C 0.78297 0.57034 0.41126 0.0
H513 H 0.76052 0.56385 0.31703 0.0
H514 H 0.82829 0.61287 0.76395 0.0
H515 H 0.82604 0.61095 0.63999 0.0
H516 H 0.75504 0.5213 0.6496 0.0
H517 H 0.75726 0.5231 0.77323 0.0
H518 H 0.76713 0.54807 0.5394 0.0
H519 H 0.83348 0.59132 0.54026 0.0
H520 H 0.85232 0.58157 0.43005 0.0
H521 H 0.84829 0.57651 0.30638 0.0
C522 C 0.20155 0.78416 0.28022 0.0
C523 C 0.22463 0.80541 0.24054 0.0
C524 C 0.20177 0.78697 0.35053 0.0
C525 C 0.22519 0.81104 0.38298 0.0
C526 C 0.24801 0.83261 0.34353 0.0
C527 C 0.24788 0.82974 0.27284 0.0
C528 C 0.22587 0.81404 0.45779 0.0
C529 C 0.21478 0.79049 0.49886 0.0
C530 C 0.21488 0.79237 0.57372 0.0
C531 C 0.21597 0.77046 0.6117 0.0
C532 C 0.21545 0.77097 0.68241 0.0
C533 C 0.21324 0.79315 0.71664 0.0
H534 H 0.21086 0.83133 0.57964 0.0
C535 C 0.21159 0.81485 0.67865 0.0
C536 C 0.21253 0.81456 0.60767 0.0
H537 H 0.20983 0.83218 0.7037 0.0
H538 H 0.18313 0.76529 0.25704 0.0
H539 H 0.18332 0.77042 0.37922 0.0
H540 H 0.26613 0.8515 0.36748 0.0
H541 H 0.26584 0.84664 0.24361 0.0
H542 H 0.23696 0.83594 0.47925 0.0
H543 H 0.20658 0.76887 0.477 0.0
H544 H 0.21746 0.75298 0.58657 0.0
H545 H 0.21655 0.7538 0.71023 0.0
C546 C 0.4305 0.23607 0.68488 0.0
C547 C 0.40632 0.21639 0.72443 0.0
C548 C 0.42868 0.23547 0.61421 0.0
C549 C 0.40261 0.21515 0.58147 0.0
C550 C 0.37852 0.19532 0.62079 0.0
C551 C 0.38023 0.19609 0.69171 0.0
C552 C 0.40067 0.21314 0.50648 0.0
C553 C 0.41603 0.23649 0.46581 0.0
C554 C 0.41596 0.23413 0.39092 0.0
C555 C 0.42037 0.25805 0.35096 0.0
C556 C 0.42121 0.25668 0.28017 0.0
C557 C 0.41823 0.23152 0.24818 0.0
H558 H 0.41062 0.19055 0.38839 0.0
C559 C 0.41429 0.20777 0.28836 0.0
C560 C 0.41312 0.20903 0.35899 0.0
H561 H 0.41201 0.18811 0.26531 0.0
H562 H 0.45096 0.25193 0.70845 0.0
H563 H 0.44799 0.25048 0.58546 0.0
H564 H 0.35832 0.17925 0.59659 0.0
H565 H 0.36128 0.18054 0.72077 0.0
H566 H 0.38572 0.19193 0.48436 0.0
H567 H 0.42855 0.25822 0.4878 0.0
H568 H 0.42299 0.27776 0.37456 0.0
H569 H 0.42445 0.27541 0.25062 0.0
loop_
_geom_bond_atom_site_label_1
_geom_bond_atom_site_label_2
_geom_bond_distance
_geom_bond_site_symmetry_2
_ccdc_geom_bond_type
O0 Zn1 1.953 . S
O0 C16 1.225 . S
Zn1 O0 1.953 . S
Zn1 O2 1.949 1_556 S
Zn1 O8 1.919 . S
Zn1 O13 1.924 . S
O2 Zn1 1.949 1_554 S
O2 Zn3 1.923 1_554 S
O2 Zn4 1.950 . S
O2 Zn5 1.945 . S
Zn3 O2 1.923 1_556 S
Zn3 O6 1.933 . S
Zn3 O9 1.941 . S
Zn3 O10 1.965 . S
Zn4 O2 1.950 . S
Zn4 O11 1.938 . S
Zn4 O12 1.906 . S
Zn4 O22 1.953 . S
Zn5 O2 1.945 . S
Zn5 O7 1.932 . S
Zn5 O14 1.977 . S
Zn5 O15 1.910 . S
O6 Zn3 1.933 . S
O6 C17 1.229 . S
O7 Zn5 1.932 . S
O7 C17 1.304 1_554 S
O8 Zn1 1.919 . S
O8 C19 1.253 . S
O9 Zn3 1.941 . S
O9 C19 1.283 . S
O10 Zn3 1.965 . S
O10 C18 1.303 1_556 S
O11 Zn4 1.938 . S
O11 C18 1.247 . S
O12 Zn4 1.906 . S
O12 C20 1.304 . S
O13 Zn1 1.924 . S
O13 C21 1.311 . S
O14 Zn5 1.977 . S
O14 C20 1.272 . S
O15 Zn5 1.910 . S
O15 C21 1.231 1_554 S
C16 O0 1.225 . S
C16 O22 1.298 1_556 S
C17 O6 1.229 . S
C17 O7 1.304 1_556 S
C18 O10 1.303 1_554 S
C18 O11 1.247 . S
C19 O8 1.253 . S
C19 O9 1.283 . S
C20 O12 1.304 . S
C20 O14 1.272 . S
C21 O13 1.311 . S
C21 O15 1.231 1_556 S
O22 Zn4 1.953 . S
O22 C16 1.298 1_554 S
O23 Zn24 1.953 . S
O23 C39 1.225 . S
Zn24 O23 1.953 . S
Zn24 O25 1.949 1_556 S
Zn24 O31 1.919 . S
Zn24 O36 1.924 . S
O25 Zn24 1.949 1_554 S
O25 Zn26 1.923 1_554 S
O25 Zn27 1.950 . S
O25 Zn28 1.945 . S
Zn26 O25 1.923 1_556 S
Zn26 O29 1.933 . S
Zn26 O32 1.941 . S
Zn26 O33 1.965 . S
Zn27 O25 1.950 . S
Zn27 O34 1.938 . S
Zn27 O35 1.906 . S
Zn27 O45 1.953 . S
Zn28 O25 1.945 . S
Zn28 O30 1.932 . S
Zn28 O37 1.977 . S
Zn28 O38 1.910 . S
O29 Zn26 1.933 . S
O29 C40 1.229 . S
O30 Zn28 1.932 . S
O30 C40 1.304 1_554 S
O31 Zn24 1.919 . S
O31 C42 1.253 . S
O32 Zn26 1.941 . S
O32 C42 1.283 . S
O33 Zn26 1.965 . S
O33 C41 1.303 1_556 S
O34 Zn27 1.938 . S
O34 C41 1.247 . S
O35 Zn27 1.906 . S
O35 C43 1.304 . S
O36 Zn24 1.924 . S
O36 C44 1.311 . S
O37 Zn28 1.977 . S
O37 C43 1.272 . S
O38 Zn28 1.910 . S
O38 C44 1.231 1_554 S
C39 O23 1.225 . S
C39 O45 1.298 1_556 S
C40 O29 1.229 . S
C40 O30 1.304 1_556 S
C41 O33 1.303 1_554 S
C41 O34 1.247 . S
C42 O31 1.253 . S
C42 O32 1.283 . S
C43 O35 1.304 . S
C43 O37 1.272 . S
C44 O36 1.311 . S
C44 O38 1.231 1_556 S
O45 Zn27 1.953 . S
O45 C39 1.298 1_554 S
O46 Zn47 1.953 . S
O46 C62 1.225 . S
Zn47 O46 1.953 . S
Zn47 O48 1.949 1_556 S
Zn47 O54 1.919 . S
Zn47 O59 1.924 . S
O48 Zn47 1.949 1_554 S
O48 Zn49 1.923 1_554 S
O48 Zn50 1.950 . S
O48 Zn51 1.945 . S
Zn49 O48 1.923 1_556 S
Zn49 O52 1.933 . S
Zn49 O55 1.941 . S
Zn49 O56 1.965 . S
Zn50 O48 1.950 . S
Zn50 O57 1.938 . S
Zn50 O58 1.906 . S
Zn50 O68 1.953 . S
Zn51 O48 1.945 . S
Zn51 O53 1.932 . S
Zn51 O60 1.977 . S
Zn51 O61 1.910 . S
O52 Zn49 1.933 . S
O52 C63 1.229 . S
O53 Zn51 1.932 . S
O53 C63 1.304 1_554 S
O54 Zn47 1.919 . S
O54 C65 1.253 . S
O55 Zn49 1.941 . S
O55 C65 1.283 . S
O56 Zn49 1.965 . S
O56 C64 1.303 1_556 S
O57 Zn50 1.938 . S
O57 C64 1.247 . S
O58 Zn50 1.906 . S
O58 C66 1.304 . S
O59 Zn47 1.924 . S
O59 C67 1.311 . S
O60 Zn51 1.977 . S
O60 C66 1.272 . S
O61 Zn51 1.910 . S
O61 C67 1.231 1_554 S
C62 O46 1.225 . S
C62 O68 1.298 1_556 S
C63 O52 1.229 . S
C63 O53 1.304 1_556 S
C64 O56 1.303 1_554 S
C64 O57 1.247 . S
C65 O54 1.253 . S
C65 O55 1.283 . S
C66 O58 1.304 . S
C66 O60 1.272 . S
C67 O59 1.311 . S
C67 O61 1.231 1_556 S
O68 Zn50 1.953 . S
O68 C62 1.298 1_554 S
O69 Zn70 1.953 . S
O69 C85 1.225 . S
Zn70 O69 1.953 . S
Zn70 O71 1.949 1_556 S
Zn70 O77 1.919 . S
Zn70 O82 1.924 . S
O71 Zn70 1.949 1_554 S
O71 Zn72 1.923 1_554 S
O71 Zn73 1.950 . S
O71 Zn74 1.945 . S
Zn72 O71 1.923 1_556 S
Zn72 O75 1.933 . S
Zn72 O78 1.941 . S
Zn72 O79 1.965 . S
Zn73 O71 1.950 . S
Zn73 O80 1.938 . S
Zn73 O81 1.906 . S
Zn73 O91 1.953 . S
Zn74 O71 1.945 . S
Zn74 O76 1.932 . S
Zn74 O83 1.977 . S
Zn74 O84 1.910 . S
O75 Zn72 1.933 . S
O75 C86 1.229 . S
O76 Zn74 1.932 . S
O76 C86 1.304 1_554 S
O77 Zn70 1.919 . S
O77 C88 1.253 . S
O78 Zn72 1.941 . S
O78 C88 1.283 . S
O79 Zn72 1.965 . S
O79 C87 1.303 1_556 S
O80 Zn73 1.938 . S
O80 C87 1.247 . S
O81 Zn73 1.906 . S
O81 C89 1.304 . S
O82 Zn70 1.924 . S
O82 C90 1.311 . S
O83 Zn74 1.977 . S
O83 C89 1.272 . S
O84 Zn74 1.910 . S
O84 C90 1.231 1_554 S
C85 O69 1.225 . S
C85 O91 1.298 1_556 S
C86 O75 1.229 . S
C86 O76 1.304 1_556 S
C87 O79 1.303 1_554 S
C87 O80 1.247 . S
C88 O77 1.253 . S
C88 O78 1.283 . S
C89 O81 1.304 . S
C89 O83 1.272 . S
C90 O82 1.311 . S
C90 O84 1.231 1_556 S
O91 Zn73 1.953 . S
O91 C85 1.298 1_554 S
O92 Zn93 1.953 . S
O92 C108 1.225 . S
Zn93 O92 1.953 . S
Zn93 O94 1.949 1_556 S
Zn93 O100 1.919 . S
Zn93 O105 1.924 . S
O94 Zn93 1.949 1_554 S
O94 Zn95 1.923 1_554 S
O94 Zn96 1.950 . S
O94 Zn97 1.945 . S
Zn95 O94 1.923 1_556 S
Zn95 O98 1.933 . S
Zn95 O101 1.941 . S
Zn95 O102 1.965 . S
Zn96 O94 1.950 . S
Zn96 O103 1.938 . S
Zn96 O104 1.906 . S
Zn96 O114 1.953 . S
Zn97 O94 1.945 . S
Zn97 O99 1.932 . S
Zn97 O106 1.977 . S
Zn97 O107 1.910 . S
O98 Zn95 1.933 . S
O98 C109 1.229 . S
O99 Zn97 1.932 . S
O99 C109 1.304 1_554 S
O100 Zn93 1.919 . S
O100 C111 1.253 . S
O101 Zn95 1.941 . S
O101 C111 1.283 . S
O102 Zn95 1.965 . S
O102 C110 1.303 1_556 S
O103 Zn96 1.938 . S
O103 C110 1.247 . S
O104 Zn96 1.906 . S
O104 C112 1.304 . S
O105 Zn93 1.924 . S
O105 C113 1.311 . S
O106 Zn97 1.977 . S
O106 C112 1.272 . S
O107 Zn97 1.910 . S
O107 C113 1.231 1_554 S
C108 O92 1.225 . S
C108 O114 1.298 1_556 S
C109 O98 1.229 . S
C109 O99 1.304 1_556 S
C110 O102 1.303 1_554 S
C110 O103 1.247 . S
C111 O100 1.253 . S
C111 O101 1.283 . S
C112 O104 1.304 . S
C112 O106 1.272 . S
C113 O105 1.311 . S
C113 O107 1.231 1_556 S
O114 Zn96 1.953 . S
O114 C108 1.298 1_554 S
O115 Zn116 1.953 . S
O115 C131 1.225 . S
Zn116 O115 1.953 . S
Zn116 O117 1.949 1_556 S
Zn116 O123 1.919 . S
Zn116 O128 1.924 . S
O117 Zn116 1.949 1_554 S
O117 Zn118 1.923 1_554 S
O117 Zn119 1.950 . S
O117 Zn120 1.945 . S
Zn118 O117 1.923 1_556 S
Zn118 O121 1.933 . S
Zn118 O124 1.941 . S
Zn118 O125 1.965 . S
Zn119 O117 1.950 . S
Zn119 O126 1.938 . S
Zn119 O127 1.906 . S
Zn119 O137 1.953 . S
Zn120 O117 1.945 . S
Zn120 O122 1.932 . S
Zn120 O129 1.977 . S
Zn120 O130 1.910 . S
O121 Zn118 1.933 . S
O121 C132 1.229 . S
O122 Zn120 1.932 . S
O122 C132 1.304 1_554 S
O123 Zn116 1.919 . S
O123 C134 1.253 . S
O124 Zn118 1.941 . S
O124 C134 1.283 . S
O125 Zn118 1.965 . S
O125 C133 1.303 1_556 S
O126 Zn119 1.938 . S
O126 C133 1.247 . S
O127 Zn119 1.906 . S
O127 C135 1.304 . S
O128 Zn116 1.924 . S
O128 C136 1.311 . S
O129 Zn120 1.977 . S
O129 C135 1.272 . S
O130 Zn120 1.910 . S
O130 C136 1.231 1_554 S
C131 O115 1.225 . S
C131 O137 1.298 1_556 S
C132 O121 1.229 . S
C132 O122 1.304 1_556 S
C133 O125 1.303 1_554 S
C133 O126 1.247 . S
C134 O123 1.253 . S
C134 O124 1.283 . S
C135 O127 1.304 . S
C135 O129 1.272 . S
C136 O128 1.311 . S
C136 O130 1.231 1_556 S
O137 Zn119 1.953 . S
O137 C131 1.298 1_554 S
C138 C139 1.386 . S
C138 C140 1.383 . S
C138 H154 0.951 . S
C139 C138 1.386 . S
C139 C143 1.383 1_556 S
C140 C138 1.383 . S
C140 C141 1.402 . S
C140 H155 0.951 . S
C141 C140 1.402 . S
C141 C142 1.375 1_556 S
C141 C144 1.481 . S
C142 C141 1.375 1_554 S
C142 C143 1.367 . S
C142 H156 0.951 . S
C143 C139 1.383 1_554 S
C143 C142 1.367 . S
C143 H157 0.950 . S
C144 C141 1.481 . S
C144 C145 1.297 . S
C144 H158 0.950 1_556 S
C145 C144 1.297 . S
C145 C146 1.479 . S
C145 H159 0.950 . S
C146 C145 1.479 . S
C146 C147 1.375 . S
C146 C152 1.404 . S
C147 C146 1.375 . S
C147 C148 1.369 . S
C147 H160 0.950 . S
C148 C147 1.369 . S
C148 C149 1.392 . S
C148 H161 0.951 . S
C149 C148 1.392 . S
C149 C151 1.384 1_556 S
H150 C152 0.949 1_554 S
C151 C149 1.384 1_554 S
C151 C152 1.385 1_554 S
C151 H153 0.950 . S
C152 C146 1.404 . S
C152 H150 0.949 1_556 S
C152 C151 1.385 1_556 S
H153 C151 0.950 . S
H154 C138 0.951 . S
H155 C140 0.951 . S
H156 C142 0.951 . S
H157 C143 0.950 . S
H158 C144 0.950 1_554 S
H159 C145 0.950 . S
H160 C147 0.950 . S
H161 C148 0.951 . S
C162 C163 1.386 1_554 S
C162 C164 1.383 . S
C162 H178 0.951 . S
C163 C162 1.386 1_556 S
C163 C167 1.383 . S
C164 C162 1.383 . S
C164 C165 1.399 1_554 S
C164 H179 0.951 . S
C165 C164 1.399 1_556 S
C165 C166 1.377 . S
C165 C168 1.481 1_455 S
C166 C165 1.377 . S
C166 C167 1.367 . S
C166 H180 0.951 . S
C167 C163 1.383 . S
C167 C166 1.367 . S
C167 H181 0.950 . S
C168 C165 1.481 1_655 S
C168 C169 1.297 1_556 S
C168 H182 0.950 . S
C169 C168 1.297 1_554 S
C169 C170 1.479 . S
C169 H183 0.950 . S
C170 C169 1.479 . S
C170 C171 1.375 . S
C170 C176 1.404 1_554 S
C171 C170 1.375 . S
C171 C172 1.369 . S
C171 H184 0.950 . S
C172 C171 1.369 . S
C172 C173 1.392 . S
C172 H185 0.951 . S
C173 C172 1.392 . S
C173 C175 1.384 1_554 S
H174 C176 0.949 . S
C175 C173 1.384 1_556 S
C175 C176 1.385 . S
C175 H177 0.950 . S
C176 C170 1.404 1_556 S
C176 H174 0.949 . S
C176 C175 1.385 . S
H177 C175 0.950 . S
H178 C162 0.951 . S
H179 C164 0.951 . S
H180 C166 0.951 . S
H181 C167 0.950 . S
H182 C168 0.950 . S
H183 C169 0.950 . S
H184 C171 0.950 . S
H185 C172 0.951 . S
C186 C187 1.386 1_556 S
C186 C188 1.383 . S
C186 H202 0.951 . S
C187 C186 1.386 1_554 S
C187 C191 1.383 . S
C188 C186 1.383 . S
C188 C189 1.402 1_556 S
C188 H203 0.951 . S
C189 C188 1.402 1_554 S
C189 C190 1.375 . S
C189 C192 1.481 1_545 S
C190 C189 1.375 . S
C190 C191 1.367 . S
C190 H204 0.951 . S
C191 C187 1.383 . S
C191 C190 1.367 . S
C191 H205 0.950 . S
C192 C189 1.481 1_565 S
C192 C193 1.297 . S
C192 H206 0.950 . S
C193 C192 1.297 . S
C193 C194 1.479 . S
C193 H207 0.950 1_554 S
C194 C193 1.479 . S
C194 C195 1.375 1_554 S
C194 C200 1.404 . S
C195 C194 1.375 1_556 S
C195 C196 1.369 . S
C195 H208 0.950 . S
C196 C195 1.369 . S
C196 C197 1.386 1_556 S
C196 H209 0.951 . S
C197 C196 1.386 1_554 S
C197 C199 1.391 . S
H198 C200 0.949 . S
C199 C197 1.391 . S
C199 C200 1.385 . S
C199 H201 0.950 . S
C200 C194 1.404 . S
C200 H198 0.949 . S
C200 C199 1.385 . S
H201 C199 0.950 . S
H202 C186 0.951 . S
H203 C188 0.951 . S
H204 C190 0.951 . S
H205 C191 0.950 . S
H206 C192 0.950 . S
H207 C193 0.950 1_556 S
H208 C195 0.950 . S
H209 C196 0.951 . S
C210 C211 1.379 1_556 S
C210 C212 1.383 . S
C210 H226 0.951 . S
C211 C210 1.379 1_554 S
C211 C215 1.391 . S
C212 C210 1.383 . S
C212 C213 1.402 1_556 S
C212 H227 0.951 . S
C213 C212 1.402 1_554 S
C213 C214 1.375 . S
C213 C216 1.481 . S
C214 C213 1.375 . S
C214 C215 1.367 . S
C214 H228 0.951 . S
C215 C211 1.391 . S
C215 C214 1.367 . S
C215 H229 0.950 . S
C216 C213 1.481 . S
C216 C217 1.297 1_554 S
C216 H230 0.950 . S
C217 C216 1.297 1_556 S
C217 C218 1.479 . S
C217 H231 0.950 . S
C218 C217 1.479 . S
C218 C219 1.375 . S
C218 C224 1.404 1_556 S
C219 C218 1.375 . S
C219 C220 1.369 . S
C219 H232 0.950 . S
C220 C219 1.369 . S
C220 C221 1.405 . S
C220 H233 0.951 . S
C221 C220 1.405 . S
C221 C223 1.371 1_556 S
H222 C224 0.949 . S
C223 C221 1.371 1_554 S
C223 C224 1.385 . S
C223 H225 0.950 . S
C224 C218 1.404 1_554 S
C224 H222 0.949 . S
C224 C223 1.385 . S
H225 C223 0.950 . S
H226 C210 0.951 . S
H227 C212 0.951 . S
H228 C214 0.951 . S
H229 C215 0.950 . S
H230 C216 0.950 . S
H231 C217 0.950 . S
H232 C219 0.950 . S
H233 C220 0.951 . S
C234 C235 1.385 1_556 S
C234 C236 1.383 . S
C234 H250 0.951 . S
C235 C234 1.385 1_554 S
C235 C239 1.384 . S
C236 C234 1.383 . S
C236 C237 1.402 1_556 S
C236 H251 0.951 . S
C237 C236 1.402 1_554 S
C237 C238 1.375 . S
C237 C240 1.481 . S
C238 C237 1.375 . S
C238 C239 1.367 . S
C238 H252 0.951 . S
C239 C235 1.384 . S
C239 C238 1.367 . S
C239 H253 0.950 . S
C240 C237 1.481 . S
C240 C241 1.297 . S
C240 H254 0.950 . S
C241 C240 1.297 . S
C241 C242 1.479 1_455 S
C241 H255 0.950 . S
C242 C241 1.479 1_655 S
C242 C243 1.375 1_554 S
C242 C248 1.404 . S
C243 C242 1.375 1_556 S
C243 C244 1.369 . S
C243 H256 0.950 . S
C244 C243 1.369 . S
C244 C245 1.392 1_556 S
C244 H257 0.951 . S
C245 C244 1.392 1_554 S
C245 C247 1.384 . S
H246 C248 0.949 . S
C247 C245 1.384 . S
C247 C248 1.385 . S
C247 H249 0.950 . S
C248 C242 1.404 . S
C248 H246 0.949 . S
C248 C247 1.385 . S
H249 C247 0.950 . S
H250 C234 0.951 . S
H251 C236 0.951 . S
H252 C238 0.951 . S
H253 C239 0.950 . S
H254 C240 0.950 . S
H255 C241 0.950 . S
H256 C243 0.950 . S
H257 C244 0.951 . S
C258 C259 1.386 . S
C258 C260 1.383 . S
C258 H274 0.951 . S
C259 C258 1.386 . S
C259 C263 1.383 1_556 S
C260 C258 1.383 . S
C260 C261 1.402 . S
C260 H275 0.951 . S
C261 C260 1.402 . S
C261 C262 1.375 1_556 S
C261 C264 1.481 1_565 S
C262 C261 1.375 1_554 S
C262 C263 1.367 . S
C262 H276 0.951 . S
C263 C259 1.383 1_554 S
C263 C262 1.367 . S
C263 H277 0.950 . S
C264 C261 1.481 1_545 S
C264 C265 1.297 . S
C264 H278 0.950 1_556 S
C265 C264 1.297 . S
C265 C266 1.479 . S
C265 H279 0.950 . S
C266 C265 1.479 . S
C266 C267 1.375 . S
C266 C272 1.404 1_556 S
C267 C266 1.375 . S
C267 C268 1.369 . S
C267 H280 0.950 . S
C268 C267 1.369 . S
C268 C269 1.392 . S
C268 H281 0.951 . S
C269 C268 1.392 . S
C269 C271 1.384 1_556 S
H270 C272 0.949 . S
C271 C269 1.384 1_554 S
C271 C272 1.385 . S
C271 H273 0.950 . S
C272 C266 1.404 1_554 S
C272 H270 0.949 . S
C272 C271 1.385 . S
H273 C271 0.950 . S
H274 C258 0.951 . S
H275 C260 0.951 . S
H276 C262 0.951 . S
H277 C263 0.950 . S
H278 C264 0.950 1_554 S
H279 C265 0.950 . S
H280 C267 0.950 . S
H281 C268 0.951 . S
C282 C283 1.386 1_556 S
C282 C284 1.383 . S
C282 H298 0.951 . S
C283 C282 1.386 1_554 S
C283 C287 1.383 . S
C284 C282 1.383 . S
C284 C285 1.402 1_556 S
C284 H299 0.951 . S
C285 C284 1.402 1_554 S
C285 C286 1.375 . S
C285 C288 1.481 . S
C286 C285 1.375 . S
C286 C287 1.367 . S
C286 H300 0.951 . S
C287 C283 1.383 . S
C287 C286 1.367 . S
C287 H301 0.950 . S
C288 C285 1.481 . S
C288 C289 1.297 1_554 S
C288 H302 0.950 . S
C289 C288 1.297 1_556 S
C289 C290 1.479 . S
C289 H303 0.950 . S
C290 C289 1.479 . S
C290 C291 1.375 . S
C290 C296 1.404 1_556 S
C291 C290 1.375 . S
C291 C292 1.369 . S
C291 H304 0.950 . S
C292 C291 1.369 . S
C292 C293 1.392 1_556 S
C292 H305 0.951 . S
C293 C292 1.392 1_554 S
C293 C295 1.384 . S
H294 C296 0.949 . S
C295 C293 1.384 . S
C295 C296 1.385 . S
C295 H297 0.950 . S
C296 C290 1.404 1_554 S
C296 H294 0.949 . S
C296 C295 1.385 . S
H297 C295 0.950 . S
H298 C282 0.951 . S
H299 C284 0.951 . S
H300 C286 0.951 . S
H301 C287 0.950 . S
H302 C288 0.950 . S
H303 C289 0.950 . S
H304 C291 0.950 . S
H305 C292 0.951 . S
C306 C307 1.381 1_556 S
C306 C308 1.383 . S
C306 H322 0.951 . S
C307 C306 1.381 1_554 S
C307 C311 1.388 . S
C308 C306 1.383 . S
C308 C309 1.402 1_556 S
C308 H323 0.951 . S
C309 C308 1.402 1_554 S
C309 C310 1.375 . S
C309 C312 1.481 . S
C310 C309 1.375 . S
C310 C311 1.367 . S
C310 H324 0.951 . S
C311 C307 1.388 . S
C311 C310 1.367 . S
C311 H325 0.950 . S
C312 C309 1.481 . S
C312 C313 1.297 1_554 S
C312 H326 0.950 . S
C313 C312 1.297 1_556 S
C313 C314 1.479 . S
C313 H327 0.950 . S
C314 C313 1.479 . S
C314 C315 1.375 . S
C314 C320 1.404 1_556 S
C315 C314 1.375 . S
C315 C316 1.369 . S
C315 H328 0.950 . S
C316 C315 1.369 . S
C316 C317 1.392 . S
C316 H329 0.951 . S
C317 C316 1.392 . S
C317 C319 1.384 1_556 S
H318 C320 0.949 . S
C319 C317 1.384 1_554 S
C319 C320 1.385 . S
C319 H321 0.950 . S
C320 C314 1.404 1_554 S
C320 H318 0.949 . S
C320 C319 1.385 . S
H321 C319 0.950 . S
H322 C306 0.951 . S
H323 C308 0.951 . S
H324 C310 0.951 . S
H325 C311 0.950 . S
H326 C312 0.950 . S
H327 C313 0.950 . S
H328 C315 0.950 . S
H329 C316 0.951 . S
C330 C331 1.386 . S
C330 C332 1.383 . S
C330 H346 0.951 . S
C331 C330 1.386 . S
C331 C335 1.383 . S
C332 C330 1.383 . S
C332 C333 1.402 . S
C332 H347 0.951 . S
C333 C332 1.402 . S
C333 C334 1.375 . S
C333 C336 1.481 . S
C334 C333 1.375 . S
C334 C335 1.367 . S
C334 H348 0.951 . S
C335 C331 1.383 . S
C335 C334 1.367 . S
C335 H349 0.950 . S
C336 C333 1.481 . S
C336 C337 1.297 . S
C336 H350 0.950 . S
C337 C336 1.297 . S
C337 C338 1.479 . S
C337 H351 0.950 . S
C338 C337 1.479 . S
C338 C339 1.375 . S
C338 C344 1.404 . S
C339 C338 1.375 . S
C339 C340 1.369 . S
C339 H352 0.950 . S
C340 C339 1.369 . S
C340 C341 1.392 . S
C340 H353 0.951 . S
C341 C340 1.392 . S
C341 C343 1.384 . S
H342 C344 0.949 . S
C343 C341 1.384 . S
C343 C344 1.385 . S
C343 H345 0.950 . S
C344 C338 1.404 . S
C344 H342 0.949 . S
C344 C343 1.385 . S
H345 C343 0.950 . S
H346 C330 0.951 . S
H347 C332 0.951 . S
H348 C334 0.951 . S
H349 C335 0.950 . S
H350 C336 0.950 . S
H351 C337 0.950 . S
H352 C339 0.950 . S
H353 C340 0.951 . S
C354 C355 1.386 1_556 S
C354 C356 1.383 . S
C354 H370 0.951 . S
C355 C354 1.386 1_554 S
C355 C359 1.383 . S
C356 C354 1.383 . S
C356 C357 1.402 1_556 S
C356 H371 0.951 . S
C357 C356 1.402 1_554 S
C357 C358 1.375 . S
C357 C360 1.481 . S
C358 C357 1.375 . S
C358 C359 1.367 . S
C358 H372 0.951 . S
C359 C355 1.383 . S
C359 C358 1.367 . S
C359 H373 0.950 . S
C360 C357 1.481 . S
C360 C361 1.297 1_554 S
C360 H374 0.950 . S
C361 C360 1.297 1_556 S
C361 C362 1.479 . S
C361 H375 0.950 . S
C362 C361 1.479 . S
C362 C363 1.375 . S
C362 C368 1.404 1_556 S
C363 C362 1.375 . S
C363 C364 1.369 . S
C363 H376 0.950 . S
C364 C363 1.369 . S
C364 C365 1.392 . S
C364 H377 0.951 . S
C365 C364 1.392 . S
C365 C367 1.384 1_556 S
H366 C368 0.949 . S
C367 C365 1.384 1_554 S
C367 C368 1.385 . S
C367 H369 0.950 . S
C368 C362 1.404 1_554 S
C368 H366 0.949 . S
C368 C367 1.385 . S
H369 C367 0.950 . S
H370 C354 0.951 . S
H371 C356 0.951 . S
H372 C358 0.951 . S
H373 C359 0.950 . S
H374 C360 0.950 . S
H375 C361 0.950 . S
H376 C363 0.950 . S
H377 C364 0.951 . S
C378 C379 1.386 . S
C378 C380 1.383 . S
C378 H394 0.951 . S
C379 C378 1.386 . S
C379 C383 1.383 1_554 S
C380 C378 1.383 . S
C380 C381 1.402 1_554 S
C380 H395 0.951 . S
C381 C380 1.402 1_556 S
C381 C382 1.375 . S
C381 C384 1.481 . S
C382 C381 1.375 . S
C382 C383 1.367 . S
C382 H396 0.951 . S
C383 C379 1.383 1_556 S
C383 C382 1.367 . S
C383 H397 0.950 . S
C384 C381 1.481 . S
C384 C385 1.297 1_556 S
C384 H398 0.950 . S
C385 C384 1.297 1_554 S
C385 C386 1.479 . S
C385 H399 0.950 . S
C386 C385 1.479 . S
C386 C387 1.375 . S
C386 C392 1.404 1_554 S
C387 C386 1.375 . S
C387 C388 1.369 . S
C387 H400 0.950 . S
C388 C387 1.369 . S
C388 C389 1.392 . S
C388 H401 0.951 . S
C389 C388 1.392 . S
C389 C391 1.384 1_554 S
H390 C392 0.949 . S
C391 C389 1.384 1_556 S
C391 C392 1.385 . S
C391 H393 0.950 . S
C392 C386 1.404 1_556 S
C392 H390 0.949 . S
C392 C391 1.385 . S
H393 C391 0.950 . S
H394 C378 0.951 . S
H395 C380 0.951 . S
H396 C382 0.951 . S
H397 C383 0.950 . S
H398 C384 0.950 . S
H399 C385 0.950 . S
H400 C387 0.950 . S
H401 C388 0.951 . S
C402 C403 1.386 1_556 S
C402 C404 1.383 . S
C402 H418 0.951 . S
C403 C402 1.386 1_554 S
C403 C407 1.383 . S
C404 C402 1.383 . S
C404 C405 1.402 1_556 S
C404 H419 0.951 . S
C405 C404 1.402 1_554 S
C405 C406 1.375 . S
C405 C408 1.481 . S
C406 C405 1.375 . S
C406 C407 1.367 . S
C406 H420 0.951 . S
C407 C403 1.383 . S
C407 C406 1.367 . S
C407 H421 0.950 . S
C408 C405 1.481 . S
C408 C409 1.297 1_554 S
C408 H422 0.950 . S
C409 C408 1.297 1_556 S
C409 C410 1.479 . S
C409 H423 0.950 . S
C410 C409 1.479 . S
C410 C411 1.375 . S
C410 C416 1.404 1_556 S
C411 C410 1.375 . S
C411 C412 1.369 . S
C411 H424 0.950 . S
C412 C411 1.369 . S
C412 C413 1.392 . S
C412 H425 0.951 . S
C413 C412 1.392 . S
C413 C415 1.384 1_556 S
H414 C416 0.949 . S
C415 C413 1.384 1_554 S
C415 C416 1.385 . S
C415 H417 0.950 . S
C416 C410 1.404 1_554 S
C416 H414 0.949 . S
C416 C415 1.385 . S
H417 C415 0.950 . S
H418 C402 0.951 . S
H419 C404 0.951 . S
H420 C406 0.951 . S
H421 C407 0.950 . S
H422 C408 0.950 . S
H423 C409 0.950 . S
H424 C411 0.950 . S
H425 C412 0.951 . S
C426 C427 1.386 . S
C426 C428 1.383 . S
C426 H442 0.951 . S
C427 C426 1.386 . S
C427 C431 1.383 . S
C428 C426 1.383 . S
C428 C429 1.402 . S
C428 H443 0.951 . S
C429 C428 1.402 . S
C429 C430 1.375 . S
C429 C432 1.481 . S
C430 C429 1.375 . S
C430 C431 1.367 . S
C430 H444 0.951 . S
C431 C427 1.383 . S
C431 C430 1.367 . S
C431 H445 0.950 . S
C432 C429 1.481 . S
C432 C433 1.297 . S
C432 H446 0.950 . S
C433 C432 1.297 . S
C433 C434 1.479 . S
C433 H447 0.950 . S
C434 C433 1.479 . S
C434 C435 1.375 . S
C434 C440 1.404 . S
C435 C434 1.375 . S
C435 C436 1.369 . S
C435 H448 0.950 . S
C436 C435 1.369 . S
C436 C437 1.392 . S
C436 H449 0.951 . S
C437 C436 1.392 . S
C437 C439 1.384 . S
H438 C440 0.949 . S
C439 C437 1.384 . S
C439 C440 1.385 . S
C439 H441 0.950 . S
C440 C434 1.404 . S
C440 H438 0.949 . S
C440 C439 1.385 . S
H441 C439 0.950 . S
H442 C426 0.951 . S
H443 C428 0.951 . S
H444 C430 0.951 . S
H445 C431 0.950 . S
H446 C432 0.950 . S
H447 C433 0.950 . S
H448 C435 0.950 . S
H449 C436 0.951 . S
C450 C451 1.386 . S
C450 C452 1.383 . S
C450 H466 0.951 . S
C451 C450 1.386 . S
C451 C455 1.383 . S
C452 C450 1.383 . S
C452 C453 1.402 . S
C452 H467 0.951 . S
C453 C452 1.402 . S
C453 C454 1.375 . S
C453 C456 1.481 . S
C454 C453 1.375 . S
C454 C455 1.367 . S
C454 H468 0.951 . S
C455 C451 1.383 . S
C455 C454 1.367 . S
C455 H469 0.950 . S
C456 C453 1.481 . S
C456 C457 1.297 . S
C456 H470 0.950 . S
C457 C456 1.297 . S
C457 C458 1.479 . S
C457 H471 0.950 . S
C458 C457 1.479 . S
C458 C459 1.375 . S
C458 C464 1.404 . S
C459 C458 1.375 . S
C459 C460 1.369 . S
C459 H472 0.950 . S
C460 C459 1.369 . S
C460 C461 1.392 . S
C460 H473 0.951 . S
C461 C460 1.392 . S
C461 C463 1.384 . S
H462 C464 0.949 . S
C463 C461 1.384 . S
C463 C464 1.385 . S
C463 H465 0.950 . S
C464 C458 1.404 . S
C464 H462 0.949 . S
C464 C463 1.385 . S
H465 C463 0.950 . S
H466 C450 0.951 . S
H467 C452 0.951 . S
H468 C454 0.951 . S
H469 C455 0.950 . S
H470 C456 0.950 . S
H471 C457 0.950 . S
H472 C459 0.950 . S
H473 C460 0.951 . S
C474 C475 1.386 . S
C474 C476 1.383 . S
C474 H490 0.951 . S
C475 C474 1.386 . S
C475 C479 1.383 . S
C476 C474 1.383 . S
C476 C477 1.402 . S
C476 H491 0.951 . S
C477 C476 1.402 . S
C477 C478 1.375 . S
C477 C480 1.481 . S
C478 C477 1.375 . S
C478 C479 1.367 . S
C478 H492 0.951 . S
C479 C475 1.383 . S
C479 C478 1.367 . S
C479 H493 0.950 . S
C480 C477 1.481 . S
C480 C481 1.297 . S
C480 H494 0.950 . S
C481 C480 1.297 . S
C481 C482 1.479 . S
C481 H495 0.950 . S
C482 C481 1.479 . S
C482 C483 1.375 . S
C482 C488 1.404 . S
C483 C482 1.375 . S
C483 C484 1.369 . S
C483 H496 0.950 . S
C484 C483 1.369 . S
C484 C485 1.392 . S
C484 H497 0.951 . S
C485 C484 1.392 . S
C485 C487 1.384 . S
H486 C488 0.949 . S
C487 C485 1.384 . S
C487 C488 1.385 . S
C487 H489 0.950 . S
C488 C482 1.404 . S
C488 H486 0.949 . S
C488 C487 1.385 . S
H489 C487 0.950 . S
H490 C474 0.951 . S
H491 C476 0.951 . S
H492 C478 0.951 . S
H493 C479 0.950 . S
H494 C480 0.950 . S
H495 C481 0.950 . S
H496 C483 0.950 . S
H497 C484 0.951 . S
C498 C499 1.386 . S
C498 C500 1.383 . S
C498 H514 0.951 . S
C499 C498 1.386 . S
C499 C503 1.383 . S
C500 C498 1.383 . S
C500 C501 1.402 . S
C500 H515 0.951 . S
C501 C500 1.402 . S
C501 C502 1.375 . S
C501 C504 1.481 . S
C502 C501 1.375 . S
C502 C503 1.367 . S
C502 H516 0.951 . S
C503 C499 1.383 . S
C503 C502 1.367 . S
C503 H517 0.950 . S
C504 C501 1.481 . S
C504 C505 1.297 . S
C504 H518 0.950 . S
C505 C504 1.297 . S
C505 C506 1.479 . S
C505 H519 0.950 . S
C506 C505 1.479 . S
C506 C507 1.375 . S
C506 C512 1.404 . S
C507 C506 1.375 . S
C507 C508 1.369 . S
C507 H520 0.950 . S
C508 C507 1.369 . S
C508 C509 1.392 . S
C508 H521 0.951 . S
C509 C508 1.392 . S
C509 C511 1.384 . S
H510 C512 0.949 . S
C511 C509 1.384 . S
C511 C512 1.385 . S
C511 H513 0.950 . S
C512 C506 1.404 . S
C512 H510 0.949 . S
C512 C511 1.385 . S
H513 C511 0.950 . S
H514 C498 0.951 . S
H515 C500 0.951 . S
H516 C502 0.951 . S
H517 C503 0.950 . S
H518 C504 0.950 . S
H519 C505 0.950 . S
H520 C507 0.950 . S
H521 C508 0.951 . S
C522 C523 1.386 . S
C522 C524 1.383 . S
C522 H538 0.951 . S
C523 C522 1.386 . S
C523 C527 1.383 . S
C524 C522 1.383 . S
C524 C525 1.402 . S
C524 H539 0.951 . S
C525 C524 1.402 . S
C525 C526 1.375 . S
C525 C528 1.481 . S
C526 C525 1.375 . S
C526 C527 1.367 . S
C526 H540 0.951 . S
C527 C523 1.383 . S
C527 C526 1.367 . S
C527 H541 0.950 . S
C528 C525 1.481 . S
C528 C529 1.297 . S
C528 H542 0.950 . S
C529 C528 1.297 . S
C529 C530 1.479 . S
C529 H543 0.950 . S
C530 C529 1.479 . S
C530 C531 1.375 . S
C530 C536 1.404 . S
C531 C530 1.375 . S
C531 C532 1.369 . S
C531 H544 0.950 . S
C532 C531 1.369 . S
C532 C533 1.392 . S
C532 H545 0.951 . S
C533 C532 1.392 . S
C533 C535 1.384 . S
H534 C536 0.949 . S
C535 C533 1.384 . S
C535 C536 1.385 . S
C535 H537 0.950 . S
C536 C530 1.404 . S
C536 H534 0.949 . S
C536 C535 1.385 . S
H537 C535 0.950 . S
H538 C522 0.951 . S
H539 C524 0.951 . S
H540 C526 0.951 . S
H541 C527 0.950 . S
H542 C528 0.950 . S
H543 C529 0.950 . S
H544 C531 0.950 . S
H545 C532 0.951 . S
C546 C547 1.386 . S
C546 C548 1.383 . S
C546 H562 0.951 . S
C547 C546 1.386 . S
C547 C551 1.383 . S
C548 C546 1.383 . S
C548 C549 1.402 . S
C548 H563 0.951 . S
C549 C548 1.402 . S
C549 C550 1.375 . S
C549 C552 1.481 . S
C550 C549 1.375 . S
C550 C551 1.367 . S
C550 H564 0.951 . S
C551 C547 1.383 . S
C551 C550 1.367 . S
C551 H565 0.950 . S
C552 C549 1.481 . S
C552 C553 1.297 . S
C552 H566 0.950 . S
C553 C552 1.297 . S
C553 C554 1.479 . S
C553 H567 0.950 . S
C554 C553 1.479 . S
C554 C555 1.375 . S
C554 C560 1.404 . S
C555 C554 1.375 . S
C555 C556 1.369 . S
C555 H568 0.950 . S
C556 C555 1.369 . S
C556 C557 1.392 . S
C556 H569 0.951 . S
C557 C556 1.392 . S
C557 C559 1.384 . S
H558 C560 0.949 . S
C559 C557 1.384 . S
C559 C560 1.385 . S
C559 H561 0.950 . S
C560 C554 1.404 . S
C560 H558 0.949 . S
C560 C559 1.385 . S
H561 C559 0.950 . S
H562 C546 0.951 . S
H563 C548 0.951 . S
H564 C550 0.951 . S
H565 C551 0.950 . S
H566 C552 0.950 . S
H567 C553 0.950 . S
H568 C555 0.950 . S
H569 C556 0.951 . S
C139 C132 1.475 . S
C149 C18 1.467 1_556 S
C163 C17 1.457 . S
C173 C41 1.419 . S
C187 C40 1.463 1_554 S
C197 C64 1.420 . S
C211 C87 1.436 . S
C221 C63 1.443 . S
C235 C110 1.432 . S
C245 C86 1.448 1_554 S
C259 C109 1.474 . S
C269 C133 1.465 1_556 S
C283 C108 1.436 1_554 S
C293 C21 1.447 1_554 S
C307 C131 1.430 1_554 S
C317 C44 1.436 . S
C331 C67 1.435 . S
C341 C16 1.429 . S
C355 C90 1.440 1_554 S
C365 C39 1.445 . S
C379 C113 1.449 1_554 S
C389 C62 1.422 1_554 S
C403 C85 1.432 1_554 S
C413 C136 1.440 . S
C427 C19 1.443 . S
C437 C20 1.461 . S
C451 C42 1.403 . S
C461 C43 1.391 . S
C475 C65 1.428 . S
C485 C66 1.423 . S
C499 C88 1.411 . S
C509 C89 1.417 . S
C523 C112 1.448 . S
C533 C111 1.434 . S
C547 C134 1.414 . S
C557 C135 1.403 . S
