# Generated by pormake.
# Topology vbm, (6)-cn, num edge types: 1
# Building blocks:
#     Node 0, Type 0, BuildingBlock: MIDCAF_clean_sbu_0, # of connection points: 6
#     Node 1, Type 0, BuildingBlock: MIDCAF_clean_sbu_0, # of connection points: 6
#     Node 2, Type 0, BuildingBlock: MIDCAF_clean_sbu_0, # of connection points: 6
#     Node 3, Type 0, BuildingBlock: MIDCAF_clean_sbu_0, # of connection points: 6
#     Node 4, Type 0, BuildingBlock: MIDCAF_clean_sbu_0, # of connection points: 6
#     Node 5, Type 0, BuildingBlock: MIDCAF_clean_sbu_0, # of connection points: 6
#     Node 6, Type 0, BuildingBlock: MIDCAF_clean_sbu_0, # of connection points: 6
#     Node 7, Type 0, BuildingBlock: MIDCAF_clean_sbu_0, # of connection points: 6
#     Node 8, Type 0, BuildingBlock: MIDCAF_clean_sbu_0, # of connection points: 6
#     Node 9, Type 0, BuildingBlock: MIDCAF_clean_sbu_0, # of connection points: 6
#     Node 10, Type 0, BuildingBlock: MIDCAF_clean_sbu_0, # of connection points: 6
#     Node 11, Type 0, BuildingBlock: MIDCAF_clean_sbu_0, # of connection points: 6
#     Node 12, Type 0, BuildingBlock: MIDCAF_clean_sbu_0, # of connection points: 6
#     Node 13, Type 0, BuildingBlock: MIDCAF_clean_sbu_0, # of connection points: 6
#     Node 14, Type 0, BuildingBlock: MIDCAF_clean_sbu_0, # of connection points: 6
#     Node 15, Type 0, BuildingBlock: MIDCAF_clean_sbu_0, # of connection points: 6
#     Edge 16, Type (0, 0), BuildingBlock: CIFDUS_clean_linker_0, # of connection points: 2
#     Edge 17, Type (0, 0), BuildingBlock: CIFDUS_clean_linker_0, # of connection points: 2
#     Edge 18, Type (0, 0), BuildingBlock: CIFDUS_clean_linker_0, # of connection points: 2
#     Edge 19, Type (0, 0), BuildingBlock: CIFDUS_clean_linker_0, # of connection points: 2
#     Edge 20, Type (0, 0), BuildingBlock: CIFDUS_clean_linker_0, # of connection points: 2
#     Edge 21, Type (0, 0), BuildingBlock: CIFDUS_clean_linker_0, # of connection points: 2
#     Edge 22, Type (0, 0), BuildingBlock: CIFDUS_clean_linker_0, # of connection points: 2
#     Edge 23, Type (0, 0), BuildingBlock: CIFDUS_clean_linker_0, # of connection points: 2
#     Edge 24, Type (0, 0), BuildingBlock: CIFDUS_clean_linker_0, # of connection points: 2
#     Edge 25, Type (0, 0), BuildingBlock: CIFDUS_clean_linker_0, # of connection points: 2
#     Edge 26, Type (0, 0), BuildingBlock: CIFDUS_clean_linker_0, # of connection points: 2
#     Edge 27, Type (0, 0), BuildingBlock: CIFDUS_clean_linker_0, # of connection points: 2
#     Edge 28, Type (0, 0), BuildingBlock: CIFDUS_clean_linker_0, # of connection points: 2
#     Edge 29, Type (0, 0), BuildingBlock: CIFDUS_clean_linker_0, # of connection points: 2
#     Edge 30, Type (0, 0), BuildingBlock: CIFDUS_clean_linker_0, # of connection points: 2
#     Edge 31, Type (0, 0), BuildingBlock: CIFDUS_clean_linker_0, # of connection points: 2
#     Edge 32, Type (0, 0), BuildingBlock: CIFDUS_clean_linker_0, # of connection points: 2
#     Edge 33, Type (0, 0), BuildingBlock: CIFDUS_clean_linker_0, # of connection points: 2
#     Edge 34, Type (0, 0), BuildingBlock: CIFDUS_clean_linker_0, # of connection points: 2
#     Edge 35, Type (0, 0), BuildingBlock: CIFDUS_clean_linker_0, # of connection points: 2
#     Edge 36, Type (0, 0), BuildingBlock: CIFDUS_clean_linker_0, # of connection points: 2
#     Edge 37, Type (0, 0), BuildingBlock: CIFDUS_clean_linker_0, # of connection points: 2
#     Edge 38, Type (0, 0), BuildingBlock: CIFDUS_clean_linker_0, # of connection points: 2
#     Edge 39, Type (0, 0), BuildingBlock: CIFDUS_clean_linker_0, # of connection points: 2
#     Edge 40, Type (0, 0), BuildingBlock: CIFDUS_clean_linker_0, # of connection points: 2
#     Edge 41, Type (0, 0), BuildingBlock: CIFDUS_clean_linker_0, # of connection points: 2
#     Edge 42, Type (0, 0), BuildingBlock: CIFDUS_clean_linker_0, # of connection points: 2
#     Edge 43, Type (0, 0), BuildingBlock: CIFDUS_clean_linker_0, # of connection points: 2
#     Edge 44, Type (0, 0), BuildingBlock: CIFDUS_clean_linker_0, # of connection points: 2
#     Edge 45, Type (0, 0), BuildingBlock: CIFDUS_clean_linker_0, # of connection points: 2
#     Edge 46, Type (0, 0), BuildingBlock: CIFDUS_clean_linker_0, # of connection points: 2
#     Edge 47, Type (0, 0), BuildingBlock: CIFDUS_clean_linker_0, # of connection points: 2
#     Edge 48, Type (0, 0), BuildingBlock: CIFDUS_clean_linker_0, # of connection points: 2
#     Edge 49, Type (0, 0), BuildingBlock: CIFDUS_clean_linker_0, # of connection points: 2
#     Edge 50, Type (0, 0), BuildingBlock: CIFDUS_clean_linker_0, # of connection points: 2
#     Edge 51, Type (0, 0), BuildingBlock: CIFDUS_clean_linker_0, # of connection points: 2
#     Edge 52, Type (0, 0), BuildingBlock: CIFDUS_clean_linker_0, # of connection points: 2
#     Edge 53, Type (0, 0), BuildingBlock: CIFDUS_clean_linker_0, # of connection points: 2
#     Edge 54, Type (0, 0), BuildingBlock: CIFDUS_clean_linker_0, # of connection points: 2
#     Edge 55, Type (0, 0), BuildingBlock: CIFDUS_clean_linker_0, # of connection points: 2
#     Edge 56, Type (0, 0), BuildingBlock: CIFDUS_clean_linker_0, # of connection points: 2
#     Edge 57, Type (0, 0), BuildingBlock: CIFDUS_clean_linker_0, # of connection points: 2
#     Edge 58, Type (0, 0), BuildingBlock: CIFDUS_clean_linker_0, # of connection points: 2
#     Edge 59, Type (0, 0), BuildingBlock: CIFDUS_clean_linker_0, # of connection points: 2
#     Edge 60, Type (0, 0), BuildingBlock: CIFDUS_clean_linker_0, # of connection points: 2
#     Edge 61, Type (0, 0), BuildingBlock: CIFDUS_clean_linker_0, # of connection points: 2
#     Edge 62, Type (0, 0), BuildingBlock: CIFDUS_clean_linker_0, # of connection points: 2
#     Edge 63, Type (0, 0), BuildingBlock: CIFDUS_clean_linker_0, # of connection points: 2
# Relax obj value: 0.153
# Max RMSD: 0.187
# Mean RMSD: 0.187
data_MOF--net-vbm--node1-MIDCAF_clean_sbu_0--edge1-CIFDUS_clean_linker_0
_symmetry_space_group_name_H-M    P1
_symmetry_Int_Tables_number       1
_symmetry_cell_setting            triclinic
loop_
_symmetry_equiv_pos_as_xyz
'x, y, z'
_cell_length_a     51.557668
_cell_length_b     13.509461
_cell_length_c     53.293688
_cell_angle_alpha  89.949357
_cell_angle_beta   90.025182
_cell_angle_gamma 90.062512
loop_
_atom_site_label
_atom_site_type_symbol
_atom_site_fract_x
_atom_site_fract_y
_atom_site_fract_z
_atom_type_partial_charge
Zn0 Zn 0.17004 0.89847 0.15098 0.0
Zn1 Zn 0.10451 0.04072 0.20623 0.0
Zn2 Zn 0.13799 0.9788 0.17512 0.0
C3 C 0.07521 0.98576 0.16573 0.0
C4 C 0.13136 0.90748 0.23362 0.0
O5 O 0.17096 0.08034 0.16549 0.0
O6 O 0.20141 0.96634 0.16282 0.0
C7 C 0.13064 0.96148 0.11854 0.0
O8 O 0.09818 0.96656 0.15732 0.0
O9 O 0.07238 0.02172 0.18738 0.0
O10 O 0.11108 0.9585 0.23611 0.0
O11 O 0.14278 0.90296 0.2121 0.0
O12 O 0.15485 0.94762 0.11892 0.0
O13 O 0.11772 0.95823 0.13918 0.0
O14 O 0.14943 0.83816 0.19233 0.0
O15 O 0.1668 0.75939 0.16029 0.0
C16 C 0.15848 0.75853 0.18253 0.0
O17 O 0.15148 0.1272 0.1833 0.0
O18 O 0.11968 0.17497 0.20821 0.0
C19 C 0.19512 0.05635 0.16322 0.0
C20 C 0.14087 0.19317 0.19726 0.0
Zn21 Zn 0.87776 0.79984 0.14501 0.0
Zn22 Zn 0.87009 0.00316 0.07551 0.0
Zn23 Zn 0.87447 0.90369 0.11254 0.0
C24 C 0.89916 0.11719 0.10813 0.0
C25 C 0.89221 0.83197 0.05792 0.0
O26 O 0.88757 0.75023 0.10389 0.0
O27 O 0.86087 0.68236 0.13103 0.0
C28 C 0.87175 0.96062 0.16915 0.0
O29 O 0.8955 0.04034 0.1221 0.0
O30 O 0.89082 0.11829 0.08587 0.0
O31 O 0.88514 0.91541 0.0498 0.0
O32 O 0.88984 0.81143 0.08141 0.0
O33 O 0.85783 0.88389 0.1689 0.0
O34 O 0.88441 0.98225 0.14893 0.0
O35 O 0.90858 0.95744 0.13304 0.0
O36 O 0.91918 0.80634 0.14348 0.0
C37 C 0.92638 0.89411 0.13874 0.0
O38 O 0.83288 0.92571 0.11405 0.0
O39 O 0.83133 0.01319 0.07933 0.0
C40 C 0.87807 0.67231 0.11438 0.0
C41 C 0.81976 0.9748 0.09791 0.0
Zn42 Zn 0.17333 0.19457 0.44799 0.0
Zn43 Zn 0.11698 0.09946 0.38437 0.0
Zn44 Zn 0.14639 0.11433 0.41642 0.0
C45 C 0.08888 0.1254 0.42652 0.0
C46 C 0.16067 0.09082 0.36141 0.0
O47 O 0.1842 0.06106 0.4054 0.0
O48 O 0.20711 0.14969 0.43205 0.0
C49 C 0.14002 0.05493 0.47285 0.0
O50 O 0.1088 0.07469 0.43345 0.0
O51 O 0.09021 0.17283 0.40599 0.0
O52 O 0.14258 0.15362 0.35898 0.0
O53 O 0.16449 0.05197 0.38308 0.0
O54 O 0.15804 0.1167 0.47671 0.0
O55 O 0.13142 0.04042 0.45043 0.0
O56 O 0.13653 0.26484 0.40929 0.0
O57 O 0.15844 0.33007 0.44055 0.0
C58 C 0.14306 0.34011 0.42219 0.0
O59 O 0.1245 0.98197 0.42715 0.0
O60 O 0.11734 0.94581 0.38759 0.0
C61 C 0.20624 0.08882 0.41399 0.0
C62 C 0.11976 0.91658 0.41006 0.0
Zn63 Zn 0.85636 0.0184 0.39524 0.0
Zn64 Zn 0.93223 0.13154 0.34891 0.0
Zn65 Zn 0.89172 0.10301 0.36925 0.0
C66 C 0.95013 0.08774 0.39233 0.0
C67 C 0.9073 0.03093 0.3135 0.0
O68 O 0.85994 0.20983 0.36515 0.0
O69 O 0.83034 0.1112 0.38195 0.0
C70 C 0.89268 0.06635 0.43025 0.0
O71 O 0.92604 0.11098 0.39518 0.0
O72 O 0.9587 0.06903 0.3707 0.0
O73 O 0.92714 0.08504 0.31477 0.0
O74 O 0.89399 0.01413 0.33363 0.0
O75 O 0.86992 0.03208 0.43004 0.0
O76 O 0.90365 0.09242 0.40954 0.0
O77 O 0.88361 0.95263 0.35273 0.0
O78 O 0.85611 0.88676 0.37997 0.0
C79 C 0.86978 0.87868 0.36047 0.0
O80 O 0.88477 0.25485 0.35604 0.0
O81 O 0.92686 0.27775 0.35168 0.0
C82 C 0.83613 0.18928 0.37018 0.0
C83 C 0.90414 0.3131 0.352 0.0
Zn84 Zn 0.85407 0.6919 0.90112 0.0
Zn85 Zn 0.89911 0.54945 0.83567 0.0
Zn86 Zn 0.87483 0.63801 0.8681 0.0
C87 C 0.93473 0.56888 0.87376 0.0
C88 C 0.88643 0.73339 0.81536 0.0
O89 O 0.83504 0.56722 0.86882 0.0
O90 O 0.81872 0.69223 0.88962 0.0
C91 C 0.88812 0.61383 0.92627 0.0
O92 O 0.9142 0.60598 0.88393 0.0
O93 O 0.93359 0.53661 0.85159 0.0
O94 O 0.89622 0.65065 0.80997 0.0
O95 O 0.87714 0.74895 0.8374 0.0
O96 O 0.86408 0.59806 0.92806 0.0
O97 O 0.89745 0.63761 0.90455 0.0
O98 O 0.86659 0.79728 0.86034 0.0
O99 O 0.86918 0.82637 0.9008 0.0
C100 C 0.86766 0.85957 0.87868 0.0
O101 O 0.85353 0.496 0.85993 0.0
O102 O 0.87876 0.42923 0.83098 0.0
C103 C 0.81508 0.61753 0.87606 0.0
C104 C 0.85923 0.42339 0.84509 0.0
Zn105 Zn 0.15386 0.83546 0.9457 0.0
Zn106 Zn 0.08166 -0.00404 0.89934 0.0
Zn107 Zn 0.12061 0.92255 0.91803 0.0
C108 C 0.06654 0.81067 0.89959 0.0
C109 C 0.12484 0.03286 0.86662 0.0
O110 O 0.15872 0.93898 0.89766 0.0
O111 O 0.18415 0.86135 0.92459 0.0
C112 C 0.13215 0.97538 0.97633 0.0
O113 O 0.08968 0.80713 0.90898 0.0
O114 O 0.05698 0.89196 0.8929 0.0
O115 O 0.10094 0.04781 0.87011 0.0
O116 O 0.13779 0.98153 0.88271 0.0
O117 O 0.14951 0.90993 0.97691 0.0
O118 O 0.1198 -0.0063 0.95582 0.0
O119 O 0.10994 0.76348 0.92295 0.0
O120 O 0.14077 0.69995 0.94697 0.0
C121 C 0.12005 0.68924 0.93475 0.0
O122 O 0.10695 0.06013 0.93832 0.0
O123 O 0.06935 0.09943 0.92126 0.0
C124 C 0.18147 0.90851 0.90431 0.0
C125 C 0.08749 0.11998 0.93616 0.0
Zn126 Zn 0.86633 0.98627 0.60484 0.0
Zn127 Zn 0.92457 0.16071 0.65717 0.0
Zn128 Zn 0.89366 0.06811 0.63075 0.0
C129 C 0.95462 0.11389 0.6175 0.0
C130 C 0.9104 0.00237 0.68621 0.0
O131 O 0.85707 0.15635 0.62455 0.0
O132 O 0.83228 0.02687 0.61718 0.0
C133 C 0.90209 0.04443 0.57246 0.0
O134 O 0.93317 0.06875 0.61217 0.0
O135 O 0.95557 0.17116 0.63611 0.0
O136 O 0.92654 0.07239 0.68628 0.0
O137 O 0.8961 0.98614 0.6668 0.0
O138 O 0.87778 0.03526 0.57178 0.0
O139 O 0.91378 0.04501 0.59386 0.0
O140 O 0.88288 0.92621 0.64876 0.0
O141 O 0.87376 0.84989 0.61333 0.0
C142 C 0.87677 0.84676 0.63679 0.0
O143 O 0.87602 0.21472 0.63774 0.0
O144 O 0.90492 0.27998 0.66339 0.0
C145 C 0.83428 0.11742 0.62211 0.0
C146 C 0.88363 0.28624 0.65194 0.0
Zn147 Zn 0.17371 0.06193 0.63663 0.0
Zn148 Zn 0.11473 0.88195 0.69531 0.0
Zn149 Zn 0.14842 0.96213 0.66653 0.0
C150 C 0.08584 0.91912 0.65451 0.0
C151 C 0.13758 0.02207 0.72496 0.0
O152 O 0.18336 0.87058 0.65781 0.0
O153 O 0.20168 0.97063 0.6302 0.0
C154 C 0.13034 0.03824 0.6105 0.0
O155 O 0.10863 0.95108 0.64832 0.0
O156 O 0.08221 0.88261 0.676 0.0
O157 O 0.11861 0.96317 0.72576 0.0
O158 O 0.15004 0.03521 0.70421 0.0
O159 O 0.15095 0.08725 0.60823 0.0
O160 O 0.12602 -0.0119 0.63073 0.0
O161 O 0.15927 0.10454 0.68546 0.0
O162 O 0.18333 0.1753 0.65638 0.0
C163 C 0.17326 0.17799 0.67786 0.0
O164 O 0.16529 0.81523 0.67342 0.0
O165 O 0.13364 0.75511 0.69689 0.0
C166 C 0.20202 0.89124 0.64255 0.0
C167 C 0.15537 0.74397 0.68636 0.0
Zn168 Zn 0.6512 0.71493 0.08457 0.0
Zn169 Zn 0.58354 0.82028 0.14212 0.0
Zn170 Zn 0.6194 0.75867 0.11688 0.0
C171 C 0.55703 0.73605 0.10498 0.0
C172 C 0.61449 0.6988 0.17304 0.0
O173 O 0.65057 0.87573 0.1168 0.0
O174 O 0.67963 0.80263 0.09264 0.0
C175 C 0.60875 0.72519 0.05701 0.0
O176 O 0.58086 0.73265 0.09751 0.0
O177 O 0.55186 0.76808 0.1266 0.0
O178 O 0.59691 0.76362 0.17364 0.0
O179 O 0.62397 0.67163 0.15176 0.0
O180 O 0.63256 0.73777 0.0528 0.0
O181 O 0.6004 0.72243 0.07985 0.0
O182 O 0.63488 0.61716 0.13138 0.0
O183 O 0.65484 0.57575 0.09628 0.0
C184 C 0.64709 0.55269 0.11801 0.0
O185 O 0.62758 0.91994 0.12599 0.0
O186 O 0.58891 0.96266 0.13985 0.0
C187 C 0.67364 0.87155 0.10739 0.0
C188 C 0.61176 -0.01303 0.13411 0.0
Zn189 Zn 0.41997 0.32076 0.14141 0.0
Zn190 Zn 0.34656 0.47878 0.0946 0.0
Zn191 Zn 0.3832 0.42027 0.12009 0.0
C192 C 0.35738 0.62683 0.12916 0.0
C193 C 0.3832 0.44938 0.0593 0.0
O194 O 0.37023 0.2699 0.1297 0.0
O195 O 0.40478 0.18865 0.14339 0.0
C196 C 0.40659 0.48173 0.17281 0.0
O197 O 0.37308 0.5616 0.13814 0.0
O198 O 0.34516 0.60945 0.10919 0.0
O199 O 0.35936 0.46871 0.06052 0.0
O200 O 0.39625 0.43365 0.07962 0.0
O201 O 0.41855 0.40031 0.17236 0.0
O202 O 0.39304 0.50994 0.15372 0.0
O203 O 0.41831 0.42693 0.09532 0.0
O204 O 0.44823 0.34811 0.11736 0.0
C205 C 0.4421 0.3992 0.09843 0.0
O206 O 0.3474 0.32463 0.12555 0.0
O207 O 0.31679 0.39969 0.10386 0.0
C208 C 0.38109 0.18978 0.1376 0.0
C209 C 0.32327 0.33339 0.1192 0.0
Zn210 Zn 0.66293 0.49698 0.39832 0.0
Zn211 Zn 0.60402 0.37867 0.33784 0.0
Zn212 Zn 0.63657 0.4546 0.36631 0.0
C213 C 0.57445 0.44217 0.37689 0.0
C214 C 0.62849 0.53992 0.31316 0.0
O215 O 0.67229 0.36049 0.36396 0.0
O216 O 0.69651 0.47062 0.38314 0.0
C217 C 0.62638 0.41439 0.42407 0.0
O218 O 0.59775 0.45693 0.38497 0.0
O219 O 0.57086 0.40782 0.35516 0.0
O220 O 0.61532 0.4624 0.30968 0.0
O221 O 0.63665 0.56235 0.33526 0.0
O222 O 0.6507 0.41072 0.426 0.0
O223 O 0.61617 0.44583 0.40347 0.0
O224 O 0.64899 0.60791 0.35778 0.0
O225 O 0.65396 0.63815 0.39807 0.0
C226 C 0.65295 0.66992 0.37579 0.0
O227 O 0.65122 0.30537 0.35492 0.0
O228 O 0.61656 0.24294 0.3361 0.0
C229 C 0.69496 0.39529 0.36937 0.0
C230 C 0.63944 0.23262 0.34402 0.0
Zn231 Zn 0.42977 0.85056 0.34273 0.0
Zn232 Zn 0.3621 0.67073 0.39595 0.0
Zn233 Zn 0.39501 0.74648 0.36815 0.0
C234 C 0.36204 0.55026 0.35499 0.0
C235 C 0.40691 0.65222 0.42286 0.0
O236 O 0.3817 0.90202 0.36178 0.0
O237 O 0.41256 0.97969 0.34047 0.0
C238 C 0.41161 0.69087 0.31245 0.0
O239 O 0.38114 0.6078 0.34909 0.0
O240 O 0.34784 0.57158 0.37342 0.0
O241 O 0.384 0.61977 0.42343 0.0
O242 O 0.4146 0.7046 0.40406 0.0
O243 O 0.42617 0.76606 0.31276 0.0
O244 O 0.39824 0.66676 0.332 0.0
O245 O 0.43342 0.73685 0.38681 0.0
O246 O 0.46041 0.83061 0.36499 0.0
C247 C 0.45639 0.7716 0.38297 0.0
O248 O 0.36228 0.85355 0.37596 0.0
O249 O 0.33834 0.77676 0.4044 0.0
C250 C 0.39056 0.98043 0.35077 0.0
C251 C 0.34254 0.85143 0.39091 0.0
Zn252 Zn 0.32275 0.40562 0.87955 0.0
Zn253 Zn 0.40237 0.21851 0.8514 0.0
Zn254 Zn 0.36039 0.30656 0.86224 0.0
C255 C 0.41609 0.28859 0.89506 0.0
C256 C 0.39466 0.36089 0.81427 0.0
O257 O 0.32552 0.20394 0.86169 0.0
O258 O 0.29538 0.30957 0.87417 0.0
C259 C 0.35743 0.40399 0.91841 0.0
O260 O 0.39295 0.32192 0.89075 0.0
O261 O 0.42555 0.2242 0.88065 0.0
O262 O 0.41173 0.30187 0.82223 0.0
O263 O 0.37354 0.37435 0.82673 0.0
O264 O 0.3348 0.43484 0.91403 0.0
O265 O 0.36979 0.35532 0.90138 0.0
O266 O 0.3555 0.44135 0.83842 0.0
O267 O 0.32266 0.51765 0.85649 0.0
C268 C 0.34006 0.51627 0.83991 0.0
O269 O 0.3485 0.15219 0.85161 0.0
O270 O 0.38712 0.09232 0.84216 0.0
C271 C 0.30149 0.22491 0.86629 0.0
C272 C 0.36289 0.081 0.84331 0.0
Zn273 Zn 0.63266 0.38691 0.90117 0.0
Zn274 Zn 0.56634 0.57701 0.85339 0.0
Zn275 Zn 0.60535 0.49263 0.87323 0.0
C276 C 0.54512 0.51997 0.89598 0.0
C277 C 0.58142 0.43283 0.81976 0.0
O278 O 0.64228 0.57612 0.87361 0.0
O279 O 0.66461 0.45665 0.89207 0.0
C280 C 0.59892 0.45172 0.93454 0.0
O281 O 0.56901 0.49081 0.89708 0.0
O282 O 0.53763 0.57074 0.87751 0.0
O283 O 0.56387 0.49658 0.82275 0.0
O284 O 0.59814 0.41622 0.83724 0.0
O285 O 0.61912 0.39949 0.93551 0.0
O286 O 0.59093 0.48544 0.91317 0.0
O287 O 0.61207 0.35025 0.85347 0.0
O288 O 0.62959 0.26171 0.88396 0.0
C289 C 0.62152 0.26814 0.86169 0.0
O290 O 0.6212 0.63749 0.86195 0.0
O291 O 0.58451 0.70178 0.84802 0.0
C292 C 0.66406 0.53817 0.88057 0.0
C293 C 0.60856 0.70968 0.85193 0.0
Zn294 Zn 0.36066 0.48657 0.58569 0.0
Zn295 Zn 0.42723 0.66556 0.64 0.0
Zn296 Zn 0.39179 0.5761 0.6152 0.0
C297 C 0.45276 0.61402 0.59807 0.0
C298 C 0.40877 0.51655 0.67126 0.0
O299 O 0.35599 0.66615 0.61222 0.0
O300 O 0.33199 0.58059 0.58539 0.0
C301 C 0.40328 0.50854 0.55678 0.0
O302 O 0.42959 0.58094 0.59408 0.0
O303 O 0.4578 0.65924 0.61816 0.0
O304 O 0.42561 0.58437 0.67064 0.0
O305 O 0.39517 0.49737 0.65154 0.0
O306 O 0.38111 0.46982 0.55511 0.0
O307 O 0.4104 0.55058 0.57744 0.0
O308 O 0.38226 0.43473 0.63398 0.0
O309 O 0.35552 0.36887 0.60629 0.0
C310 C 0.36755 0.36291 0.62682 0.0
O311 O 0.37582 0.72438 0.62402 0.0
O312 O 0.40951 0.79227 0.64299 0.0
C313 C 0.33464 0.65301 0.60004 0.0
C314 C 0.3865 0.79867 0.63516 0.0
Zn315 Zn 0.59214 0.2441 0.63513 0.0
Zn316 Zn 0.65902 0.44184 0.59525 0.0
Zn317 Zn 0.62908 0.34718 0.62113 0.0
C318 C 0.65134 0.55516 0.63819 0.0
C319 C 0.62124 0.43676 0.5632 0.0
O320 O 0.64584 0.19687 0.62947 0.0
O321 O 0.60975 0.12027 0.64048 0.0
C322 C 0.6022 0.38284 0.6734 0.0
O323 O 0.63562 0.48411 0.64378 0.0
O324 O 0.66446 0.55013 0.61833 0.0
O325 O 0.64287 0.47972 0.56366 0.0
O326 O 0.61373 0.38501 0.5823 0.0
O327 O 0.58672 0.31555 0.66665 0.0
O328 O 0.61988 0.41303 0.65809 0.0
O329 O 0.59303 0.34814 0.59624 0.0
O330 O 0.56381 0.24348 0.61086 0.0
C331 C 0.57029 0.30737 0.59485 0.0
O332 O 0.66659 0.26183 0.6201 0.0
O333 O 0.68843 0.3546 0.59342 0.0
C334 C 0.63395 0.11869 0.63746 0.0
C335 C 0.68783 0.28217 0.60827 0.0
H336 H 0.24515 0.05682 0.17832 0.0
H337 H 0.19045 0.21261 0.13155 0.0
H338 H 0.22578 0.30976 0.11323 0.0
H339 H 0.27206 0.34118 0.1085 0.0
H340 H 0.32683 0.19703 0.15765 0.0
H341 H 0.29165 0.10123 0.1765 0.0
C342 C 0.24101 0.11353 0.16446 0.0
C343 C 0.21531 0.12853 0.15639 0.0
C344 C 0.26142 0.16831 0.15392 0.0
C345 C 0.21005 0.20127 0.13831 0.0
C346 C 0.23026 0.25577 0.12765 0.0
C347 C 0.27648 0.28861 0.12328 0.0
C348 C 0.3024 0.27291 0.13077 0.0
C349 C 0.25602 0.23817 0.13492 0.0
C350 C 0.30741 0.20662 0.15049 0.0
C351 C 0.28717 0.15333 0.16165 0.0
H352 H 0.78678 0.92644 0.13705 0.0
H353 H 0.78795 0.0515 0.06238 0.0
H354 H 0.74102 0.05784 0.06184 0.0
H355 H 0.69981 0.00109 0.07912 0.0
H356 H 0.69727 0.8718 0.1528 0.0
H357 H 0.74403 0.89824 0.15771 0.0
C358 C 0.77674 0.95604 0.12081 0.0
C359 C 0.79107 0.98598 0.09957 0.0
C360 C 0.74933 0.96002 0.12053 0.0
C361 C 0.77764 0.02615 0.07889 0.0
C362 C 0.75066 0.0304 0.07854 0.0
C363 C 0.7093 0.98386 0.09678 0.0
C364 C 0.69519 0.93515 0.11559 0.0
C365 C 0.73631 -0.0055 0.09885 0.0
C366 C 0.70768 0.91124 0.13823 0.0
C367 C 0.73458 0.924 0.14075 0.0
H368 H 0.2993 0.86126 0.36333 0.0
H369 H 0.34074 0.00609 0.42304 0.0
H370 H 0.30221 0.10276 0.43354 0.0
H371 H 0.25532 0.12616 0.42992 0.0
H372 H 0.21238 0.96554 0.37349 0.0
H373 H 0.25265 0.89426 0.35764 0.0
C374 C 0.30005 0.91718 0.37792 0.0
C375 C 0.32303 0.93025 0.39168 0.0
C376 C 0.27727 0.96697 0.38497 0.0
C377 C 0.3236 -0.0013 0.41143 0.0
C378 C 0.3014 0.05226 0.41776 0.0
C379 C 0.25473 0.07638 0.41397 0.0
C380 C 0.23075 0.05057 0.40311 0.0
C381 C 0.27789 0.03395 0.40532 0.0
C382 C 0.23047 0.98622 0.38239 0.0
C383 C 0.25353 0.94548 0.37326 0.0
H384 H 0.79206 0.12783 0.34896 0.0
H385 H 0.83054 0.38874 0.37693 0.0
H386 H 0.78974 0.48084 0.37455 0.0
H387 H 0.74254 0.47733 0.37166 0.0
H388 H 0.70296 0.21065 0.34862 0.0
H389 H 0.74489 0.1295 0.34194 0.0
C390 C 0.79157 0.20578 0.35385 0.0
C391 C 0.81429 0.2525 0.36262 0.0
C392 C 0.76778 0.25571 0.35397 0.0
C393 C 0.81356 0.35271 0.3692 0.0
C394 C 0.7901 0.40443 0.36837 0.0
C395 C 0.74296 0.40155 0.36495 0.0
C396 C 0.71958 0.34896 0.36127 0.0
C397 C 0.76699 0.35522 0.36186 0.0
C398 C 0.72058 0.25204 0.35196 0.0
C399 C 0.74456 0.20582 0.34819 0.0
H400 H 0.70269 0.44786 0.85622 0.0
H401 H 0.68318 0.71762 0.89489 0.0
H402 H 0.7284 0.771 0.89284 0.0
H403 H 0.77343 0.73073 0.88551 0.0
H404 H 0.79499 0.45002 0.85284 0.0
H405 H 0.74877 0.40974 0.84724 0.0
C406 C 0.70835 0.51975 0.86348 0.0
C407 C 0.68945 0.58164 0.87447 0.0
C408 C 0.73471 0.54594 0.86397 0.0
C409 C 0.69697 0.67244 0.88476 0.0
C410 C 0.72297 0.70135 0.88422 0.0
C411 C 0.76826 0.66045 0.87703 0.0
C412 C 0.78776 0.59249 0.86998 0.0
C413 C 0.74199 0.63723 0.87461 0.0
C414 C 0.78044 0.50308 0.85863 0.0
C415 C 0.75405 0.48027 0.85547 0.0
H416 H 0.29577 0.0357 0.88397 0.0
H417 H 0.25731 0.26372 0.84147 0.0
H418 H 0.21582 0.17875 0.84622 0.0
H419 H 0.18952 0.05624 0.86941 0.0
H420 H 0.2286 0.82174 0.90935 0.0
H421 H 0.2705 0.89072 0.89807 0.0
C422 C 0.27852 0.06423 0.87482 0.0
C423 C 0.27962 0.15562 0.86239 0.0
C424 C 0.2546 0.01472 0.87754 0.0
C425 C 0.25694 0.19298 0.85108 0.0
C426 C 0.23314 0.14487 0.85393 0.0
C427 C 0.20713 0.01815 0.87483 0.0
C428 C 0.20573 0.93552 0.89079 0.0
C429 C 0.2315 0.05798 0.86815 0.0
C430 C 0.22896 0.88712 0.89757 0.0
C431 C 0.25308 0.92653 0.89118 0.0
H432 H 0.73292 0.31195 0.58394 0.0
H433 H 0.7005 0.15602 0.64738 0.0
H434 H 0.744 0.09788 0.65886 0.0
H435 H 0.79139 0.09178 0.6503 0.0
H436 H 0.82286 0.26155 0.58895 0.0
H437 H 0.77947 0.32015 0.57815 0.0
C438 C 0.73512 0.26483 0.6003 0.0
C439 C 0.71315 0.23531 0.61423 0.0
C440 C 0.76015 0.23802 0.60773 0.0
C441 C 0.71678 0.17594 0.63559 0.0
C442 C 0.74174 0.14467 0.64248 0.0
C443 C 0.78871 0.14448 0.63515 0.0
C444 C 0.81029 0.17544 0.62094 0.0
C445 C 0.76357 0.17591 0.62875 0.0
C446 C 0.80668 0.24068 0.60081 0.0
C447 C 0.78182 0.27209 0.59429 0.0
H448 H 0.22594 0.85517 0.59936 0.0
H449 H 0.23087 0.79626 0.67868 0.0
H450 H 0.27439 0.72522 0.67289 0.0
H451 H 0.3115 0.68484 0.64484 0.0
H452 H 0.30531 0.74626 0.56569 0.0
H453 H 0.26212 0.81635 0.5719 0.0
C454 C 0.23641 0.82533 0.61535 0.0
C455 C 0.22516 0.82892 0.63931 0.0
C456 C 0.26147 0.78868 0.61196 0.0
C457 C 0.23895 0.79156 0.65995 0.0
C458 C 0.26394 0.75275 0.65668 0.0
C459 C 0.30081 0.7159 0.62917 0.0
C460 C 0.31154 0.71287 0.60492 0.0
C461 C 0.27557 0.7526 0.63279 0.0
C462 C 0.29743 0.74998 0.58451 0.0
C463 C 0.2727 0.78866 0.58802 0.0
H464 H 0.14694 0.90969 0.34664 0.0
H465 H 0.19235 0.16304 0.32481 0.0
H466 H 0.19435 0.10131 0.28162 0.0
H467 H 0.1734 0.00127 0.24917 0.0
H468 H 0.11919 0.77353 0.27023 0.0
H469 H 0.13083 0.79524 0.31449 0.0
C470 C 0.15813 0.94896 0.33256 0.0
C471 C 0.16964 0.04018 0.33868 0.0
C472 C 0.1572 0.91733 0.3075 0.0
C473 C 0.1836 0.09222 0.32039 0.0
C474 C 0.1845 0.05727 0.29571 0.0
C475 C 0.16521 0.95302 0.26343 0.0
C476 C 0.14576 0.88512 0.25666 0.0
C477 C 0.17002 0.97336 0.28882 0.0
C478 C 0.1345 0.825 0.27513 0.0
C479 C 0.14086 0.83879 0.30041 0.0
H480 H 0.92836 0.08206 0.26876 0.0
H481 H 0.86398 0.92167 0.30112 0.0
H482 H 0.84563 0.89784 0.25914 0.0
H483 H 0.84802 0.92278 0.21355 0.0
H484 H 0.9131 0.07945 0.18153 0.0
H485 H 0.93035 0.10938 0.22349 0.0
C486 C 0.91042 0.04083 0.26677 0.0
C487 C 0.89771 0.00276 0.2882 0.0
C488 C 0.89973 0.02962 0.24274 0.0
C489 C 0.87436 0.95065 0.28504 0.0
C490 C 0.86372 0.93807 0.26106 0.0
C491 C 0.86581 0.9649 0.21568 0.0
C492 C 0.87916 -0.00051 0.19421 0.0
C493 C 0.87616 0.97799 0.23983 0.0
C494 C 0.90215 0.05359 0.19752 0.0
C495 C 0.91225 0.06916 0.22156 0.0
H496 H 0.86903 0.98443 0.71748 0.0
H497 H 0.94842 0.89442 0.70659 0.0
H498 H 0.94884 0.81598 0.74787 0.0
H499 H 0.92685 0.77196 0.78645 0.0
H500 H 0.84727 0.85574 0.79855 0.0
H501 H 0.84692 0.94305 0.75793 0.0
C502 C 0.88613 0.94577 0.72412 0.0
C503 C 0.90849 0.94234 0.709 0.0
C504 C 0.88644 0.90335 0.74827 0.0
C505 C 0.93092 0.89556 0.71786 0.0
C506 C 0.93125 0.852 0.7415 0.0
C507 C 0.90955 0.81107 0.78039 0.0
C508 C 0.8872 0.80855 0.7954 0.0
C509 C 0.90924 0.85617 0.75685 0.0
C510 C 0.86487 0.85887 0.78748 0.0
C511 C 0.86455 0.90678 0.76407 0.0
H512 H 0.16216 0.95105 0.83578 0.0
H513 H 0.11108 0.2018 0.84346 0.0
H514 H 0.1145 0.23642 0.79884 0.0
H515 H 0.123 0.16943 0.7567 0.0
H516 H 0.17602 0.9261 0.74839 0.0
H517 H 0.18135 0.9159 0.7939 0.0
C518 C 0.15277 0.01575 0.82788 0.0
C519 C 0.13574 0.07174 0.84279 0.0
C520 C 0.15476 0.03568 0.80189 0.0
C521 C 0.12382 0.1559 0.83224 0.0
C522 C 0.12564 0.17574 0.80665 0.0
C523 C 0.13682 0.11807 0.76481 0.0
C524 C 0.14913 0.04889 0.74931 0.0
C525 C 0.1397 0.11238 0.79105 0.0
C526 C 0.16661 0.9811 0.76004 0.0
C527 C 0.16936 0.97421 0.78612 0.0
H528 H 0.65044 0.47591 0.27085 0.0
H529 H 0.61532 0.73246 0.30464 0.0
H530 H 0.61077 0.80911 0.26325 0.0
H531 H 0.61003 0.78992 0.21771 0.0
H532 H 0.64233 0.52867 0.18322 0.0
H533 H 0.65452 0.46559 0.22478 0.0
C534 C 0.64268 0.55025 0.26912 0.0
C535 C 0.63378 0.59987 0.29072 0.0
C536 C 0.63877 0.59077 0.24518 0.0
C537 C 0.62323 0.69489 0.28842 0.0
C538 C 0.62007 0.73741 0.26468 0.0
C539 C 0.61982 0.71911 0.21916 0.0
C540 C 0.62449 0.66222 0.19741 0.0
C541 C 0.62666 0.68389 0.24297 0.0
C542 C 0.63797 0.57257 0.19965 0.0
C543 C 0.64502 0.53691 0.2234 0.0
H544 H 0.41288 0.76874 0.26593 0.0
H545 H 0.40972 0.49101 0.30537 0.0
H546 H 0.40529 0.4023 0.26535 0.0
H547 H 0.40278 0.40562 0.21918 0.0
H548 H 0.41535 0.6799 0.17976 0.0
H549 H 0.41593 0.7698 0.2198 0.0
C550 C 0.4111 0.68871 0.26574 0.0
C551 C 0.40975 0.63613 0.28856 0.0
C552 C 0.4103 0.63872 0.2427 0.0
C553 C 0.40862 0.53273 0.28807 0.0
C554 C 0.40672 0.48235 0.26521 0.0
C555 C 0.4055 0.48528 0.21939 0.0
C556 C 0.40735 0.53759 0.19658 0.0
C557 C 0.40732 0.53486 0.24244 0.0
C558 C 0.41217 0.63958 0.19707 0.0
C559 C 0.4129 0.69041 0.21993 0.0
H560 H 0.36262 0.36035 0.77391 0.0
H561 H 0.43754 0.45902 0.79971 0.0
H562 H 0.44919 0.50912 0.75712 0.0
H563 H 0.43885 0.51895 0.71265 0.0
H564 H 0.36428 0.41964 0.68579 0.0
H565 H 0.35208 0.37149 0.72851 0.0
C566 C 0.38121 0.39501 0.77015 0.0
C567 C 0.39909 0.40796 0.7898 0.0
C568 C 0.38814 0.42013 0.7454 0.0
C569 C 0.42343 0.44997 0.78481 0.0
C570 C 0.43018 0.47748 0.76047 0.0
C571 C 0.41998 0.48594 0.71603 0.0
C572 C 0.40265 0.47185 0.69596 0.0
C573 C 0.41288 0.46126 0.7406 0.0
C574 C 0.37824 0.42935 0.70077 0.0
C575 C 0.37109 0.40325 0.72527 0.0
H576 H 0.62077 0.47504 0.78846 0.0
H577 H 0.54833 0.31717 0.79372 0.0
H578 H 0.54751 0.29655 0.74812 0.0
H579 H 0.56567 0.33268 0.70722 0.0
H580 H 0.63836 0.48971 0.70061 0.0
H581 H 0.64018 0.50647 0.74647 0.0
C582 C 0.60536 0.43308 0.77956 0.0
C583 C 0.585 0.39472 0.79428 0.0
C584 C 0.6045 0.42556 0.75323 0.0
C585 C 0.5645 0.34441 0.78269 0.0
C586 C 0.56382 0.33437 0.75666 0.0
C587 C 0.58196 0.37127 0.71563 0.0
C588 C 0.60178 0.41063 0.70034 0.0
C589 C 0.58336 0.37682 0.74179 0.0
C590 C 0.6226 0.4603 0.7118 0.0
C591 C 0.62385 0.46834 0.73805 0.0
H592 H 0.09464 0.91747 0.00818 0.0
H593 H 0.15671 0.12774 0.9988 0.0
H594 H 0.15732 0.15863 0.04398 0.0
H595 H 0.14734 0.09655 0.08593 0.0
H596 H 0.08827 0.87474 0.09624 0.0
H597 H 0.07874 0.87833 0.05103 0.0
C598 C 0.10736 0.97351 0.01603 0.0
C599 C 0.12535 0.02171 1.00033 0.0
C600 C 0.10849 -0.0134 0.04222 0.0
C601 C 0.14242 0.09157 0.01058 0.0
C602 C 0.14296 0.10812 0.03641 0.0
C603 C 0.13177 0.05148 0.07833 0.0
C604 C 0.11871 0.98457 0.09411 0.0
C605 C 0.12717 0.05177 0.05243 0.0
C606 C 0.0985 0.92676 0.08433 0.0
C607 C 0.09329 0.92823 0.05848 0.0
H608 H 0.88035 0.52954 0.97163 0.0
H609 H 0.92526 0.7542 0.93391 0.0
H610 H 0.93602 0.82974 0.97412 0.0
H611 H 0.92386 0.85449 0.01821 0.0
H612 H 0.87315 0.64509 0.05443 0.0
H613 H 0.87371 0.54033 0.0171 0.0
C614 C 0.89331 0.59281 0.97235 0.0
C615 C 0.90212 0.6357 0.94983 0.0
C616 C 0.89793 0.63979 0.99542 0.0
C617 C 0.91863 0.71847 0.95096 0.0
C618 C 0.92443 0.76276 0.97396 0.0
C619 C 0.91377 0.78395 0.01815 0.0
C620 C 0.89895 0.75624 0.03916 0.0
C621 C 0.91292 0.72744 0.99608 0.0
C622 C 0.88539 0.66615 0.0388 0.0
C623 C 0.88537 0.60713 0.01728 0.0
H624 H 0.106 0.14344 0.50313 0.0
H625 H 0.14827 0.87222 0.49259 0.0
H626 H 0.14023 0.82563 0.53629 0.0
H627 H 0.13206 0.88524 0.57908 0.0
H628 H 0.09658 0.16987 0.59022 0.0
H629 H 0.0898 0.187 0.54503 0.0
C630 C 0.11234 0.07214 0.51024 0.0
C631 C 0.12743 0.01064 0.49485 0.0
C632 C 0.10901 0.04923 0.53573 0.0
C633 C 0.13618 0.91948 0.50409 0.0
C634 C 0.13186 0.89365 0.52916 0.0
C635 C 0.12152 0.9482 0.5716 0.0
C636 C 0.11463 0.02592 0.58777 0.0
C637 C 0.11977 0.96092 0.54549 0.0
C638 C 0.10165 0.10867 0.57805 0.0
C639 C 0.09825 0.11916 0.55217 0.0
H640 H 0.9093 0.19685 0.54048 0.0
H641 H 0.92205 0.88417 0.54953 0.0
H642 H 0.92428 0.86358 0.50399 0.0
H643 H 0.91227 0.92954 0.46224 0.0
H644 H 0.89983 0.2425 0.4531 0.0
H645 H 0.90815 0.26903 0.49786 0.0
C646 C 0.91402 0.12535 0.53244 0.0
C647 C 0.91574 0.04222 0.54823 0.0
C648 C 0.91457 0.11394 0.50619 0.0
C649 C 0.92118 0.94937 0.5377 0.0
C650 C 0.92197 0.93737 0.51163 0.0
C651 C 0.91237 0.00378 0.46998 0.0
C652 C 0.90529 0.08401 0.45466 0.0
C653 C 0.91714 0.01819 0.49574 0.0
C654 C 0.90533 0.17995 0.46468 0.0
C655 C 0.90991 0.19493 0.49028 0.0
H656 H 0.59032 0.54378 0.0475 0.0
H657 H 0.59357 0.83992 0.01793 0.0
H658 H 0.58315 0.77827 0.97594 0.0
H659 H 0.58459 0.63754 0.94672 0.0
H660 H 0.58897 0.34081 0.97599 0.0
H661 H 0.58424 0.40358 0.01877 0.0
C662 C 0.58745 0.59488 0.03202 0.0
C663 C 0.5924 0.69606 0.03566 0.0
C664 C 0.58342 0.55784 0.00767 0.0
C665 C 0.58945 0.76186 0.01548 0.0
C666 C 0.58386 0.72633 0.99144 0.0
C667 C 0.5834 0.58664 0.96244 0.0
C668 C 0.58723 0.48494 0.95835 0.0
C669 C 0.58247 0.62399 0.98707 0.0
C670 C 0.58611 0.41947 0.9788 0.0
C671 C 0.58362 0.45548 1.00326 0.0
H672 H 0.3862 0.29074 0.95123 0.0
H673 H 0.35668 0.58527 0.93875 0.0
H674 H 0.37003 0.63452 0.98073 0.0
H675 H 0.38143 0.58517 0.02317 0.0
H676 H 0.40671 0.28782 0.03829 0.0
H677 H 0.40482 0.24899 0.99328 0.0
C678 C 0.38328 0.36606 0.95764 0.0
C679 C 0.37 0.43389 0.94218 0.0
C680 C 0.39028 0.39323 0.98235 0.0
C681 C 0.36639 0.5314 0.95054 0.0
C682 C 0.37409 0.55975 0.97451 0.0
C683 C 0.38769 0.51325 0.01642 0.0
C684 C 0.39419 0.43953 0.03388 0.0
C685 C 0.3849 0.49017 0.99093 0.0
C686 C 0.40198 0.34619 0.02511 0.0
C687 C 0.40035 0.3235 0.99941 0.0
H688 H 0.6025 0.54688 0.45361 0.0
H689 H 0.61862 0.23608 0.44574 0.0
H690 H 0.61028 0.20999 0.49042 0.0
H691 H 0.61065 0.28398 0.53257 0.0
H692 H 0.60118 0.59873 0.54061 0.0
H693 H 0.59379 0.61552 0.49548 0.0
C694 C 0.60284 0.47289 0.46156 0.0
C695 C 0.61099 0.39333 0.44662 0.0
C696 C 0.59973 0.45994 0.48757 0.0
C697 C 0.61209 0.29797 0.457 0.0
C698 C 0.60766 0.2834 0.48261 0.0
C699 C 0.60568 0.35524 0.52449 0.0
C700 C 0.60646 0.44005 0.53964 0.0
C701 C 0.60322 0.3649 0.49831 0.0
C702 C 0.60056 0.5326 0.52913 0.0
C703 C 0.59664 0.54225 0.50331 0.0
H704 H 0.42569 0.67018 0.5354 0.0
H705 H 0.41445 0.3564 0.52601 0.0
H706 H 0.42254 0.3713 0.4811 0.0
H707 H 0.41956 0.47928 0.44431 0.0
H708 H 0.42775 0.79436 0.45277 0.0
H709 H 0.43476 0.77407 0.49797 0.0
C710 C 0.42634 0.60472 0.52364 0.0
C711 C 0.41908 0.51257 0.53376 0.0
C712 C 0.4298 0.61476 0.49752 0.0
C713 C 0.41979 0.4281 0.51846 0.0
C714 C 0.42415 0.43679 0.49274 0.0
C715 C 0.42422 0.54282 0.45592 0.0
C716 C 0.42285 0.63805 0.44549 0.0
C717 C 0.42721 0.53057 0.48191 0.0
C718 C 0.42881 0.72028 0.46051 0.0
C719 C 0.43242 0.70868 0.48642 0.0
H720 H 0.9708 0.78372 0.13449 0.0
H721 H 0.94331 0.08024 0.14841 0.0
H722 H 0.98755 0.13778 0.1543 0.0
H723 H 0.03374 0.10186 0.1591 0.0
H724 H 0.06268 0.80959 0.14351 0.0
H725 H 0.01849 0.75301 0.1337 0.0
C726 C 0.97458 0.86077 0.13886 0.0
C727 C 0.95365 0.92689 0.14181 0.0
C728 C 1.00038 0.89448 0.14147 0.0
C729 C 0.95889 0.02719 0.14665 0.0
C730 C 0.98426 0.06051 0.14983 0.0
C731 C 0.03043 0.02653 0.15278 0.0
C732 C 0.05132 0.95996 0.15194 0.0
C733 C 1.00509 -0.00536 0.14766 0.0
C734 C 0.0469 0.86246 0.14389 0.0
C735 C 0.02158 0.82982 0.13872 0.0
H736 H 0.98185 0.95143 0.41336 0.0
H737 H 0.96136 0.26019 0.41491 0.0
H738 H 1.00362 0.30143 0.43291 0.0
H739 H 0.04961 0.25241 0.43608 0.0
H740 H 0.0696 0.94288 0.43631 0.0
H741 H 0.02414 0.89826 0.43068 0.0
C742 C 0.98624 0.02689 0.4189 0.0
C743 C 0.96899 0.10309 0.41253 0.0
C744 C 0.01061 0.04989 0.42913 0.0
C745 C 0.97455 0.20067 0.41971 0.0
C746 C 0.99881 0.22434 0.42972 0.0
C747 C 0.04376 0.17523 0.43624 0.0
C748 C 0.06282 0.10112 0.43588 0.0
C749 C 0.01757 0.15021 0.43279 0.0
C750 C 0.05523 0.00125 0.43636 0.0
C751 C 0.02923 0.97566 0.43281 0.0
H752 H 0.03077 0.73513 0.93121 0.0
H753 H 0.06455 0.69891 0.85794 0.0
H754 H 0.0272 0.60088 0.84448 0.0
H755 H 0.98158 0.55946 0.85082 0.0
H756 H 0.94687 0.59511 0.92356 0.0
H757 H 0.98782 0.65975 0.94023 0.0
C758 C 0.03037 0.70161 0.91272 0.0
C759 C 0.05038 0.72268 0.89562 0.0
C760 C 0.00829 0.64887 0.90483 0.0
C761 C 0.04951 0.68172 0.87146 0.0
C762 C 0.02801 0.62692 0.8637 0.0
C763 C 0.98303 0.57895 0.87051 0.0
C764 C 0.96066 0.57897 0.88569 0.0
C765 C 1.00669 0.61507 0.87978 0.0
C766 C 0.96326 0.6017 0.91122 0.0
C767 C 0.98683 0.63698 0.92076 0.0
H768 H 0.9725 0.92768 0.61548 0.0
H769 H 0.99394 0.22958 0.60013 0.0
H770 H 0.03978 0.18843 0.60557 0.0
H771 H 0.07159 0.0781 0.62615 0.0
H772 H 0.04873 0.78163 0.64613 0.0
H773 H 1.00594 0.80831 0.62773 0.0
C774 C 0.98734 0.98301 0.61195 0.0
C775 C 0.97989 0.08142 0.60743 0.0
C776 C 0.01347 0.96034 0.61706 0.0
C777 C 0.99926 0.15308 0.60343 0.0
C778 C 0.02546 0.12992 0.60706 0.0
C779 C 0.05759 0.01825 0.62545 0.0
C780 C 0.06323 0.92824 0.63752 0.0
C781 C 0.03257 0.03554 0.61564 0.0
C782 C 0.04472 0.85182 0.63707 0.0
C783 C 0.02022 0.8671 0.62659 0.0
H784 H 0.44636 0.59014 0.08414 0.0
H785 H 0.48685 0.31162 0.08294 0.0
H786 H 0.52821 0.39777 0.07779 0.0
H787 H 0.553 0.55105 0.08571 0.0
H788 H 0.51213 0.82726 0.09291 0.0
H789 H 0.47114 0.74508 0.08316 0.0
C790 C 0.4641 0.54833 0.08146 0.0
C791 C 0.4636 0.44482 0.08411 0.0
C792 C 0.48799 0.59877 0.0803 0.0
C793 C 0.48678 0.39146 0.08098 0.0
C794 C 0.5105 0.44087 0.0784 0.0
C795 C 0.53526 0.5936 0.08396 0.0
C796 C 0.53546 0.69479 0.09005 0.0
C797 C 0.51148 0.5445 0.07983 0.0
C798 C 0.51234 0.74921 0.08824 0.0
C799 C 0.48886 0.702 0.0829 0.0
H800 H 0.4623 0.57959 0.39533 0.0
H801 H 0.50178 0.86082 0.39649 0.0
H802 H 0.54339 0.77695 0.4022 0.0
H803 H 0.56876 0.62504 0.39586 0.0
H804 H 0.52915 0.34667 0.38669 0.0
H805 H 0.48758 0.42623 0.39571 0.0
C806 C 0.47991 0.62252 0.39789 0.0
C807 C 0.47908 0.72608 0.39535 0.0
C808 C 0.50389 0.57346 0.39923 0.0
C809 C 0.50203 0.78095 0.39833 0.0
C810 C 0.52583 0.73289 0.40134 0.0
C811 C 0.55111 0.58142 0.39692 0.0
C812 C 0.55185 0.48044 0.39069 0.0
C813 C 0.52713 0.62921 0.4002 0.0
C814 C 0.52891 0.42454 0.39153 0.0
C815 C 0.50515 0.47028 0.39644 0.0
H816 H 0.46028 0.22168 0.91736 0.0
H817 H 0.41366 0.48382 0.90765 0.0
H818 H 0.45152 0.58757 0.91465 0.0
H819 H 0.4989 0.59959 0.90972 0.0
H820 H 0.54584 0.33769 0.91785 0.0
H821 H 0.5071 0.23896 0.92597 0.0
C822 C 0.4582 0.30155 0.91797 0.0
C823 C 0.43433 0.34473 0.91121 0.0
C824 C 0.48037 0.3611 0.92104 0.0
C825 C 0.43177 0.44822 0.91257 0.0
C826 C 0.4536 0.50797 0.91619 0.0
C827 C 0.50072 0.52176 0.91444 0.0
C828 C 0.52505 0.47534 0.91233 0.0
C829 C 0.47824 0.46485 0.91835 0.0
C830 C 0.5273 0.37504 0.919 0.0
C831 C 0.50505 0.31813 0.92334 0.0
H832 H 0.45961 0.4369 0.57535 0.0
H833 H 0.49601 0.72043 0.58692 0.0
H834 H 0.53846 0.64866 0.57817 0.0
H835 H 0.56496 0.49873 0.58082 0.0
H836 H 0.52847 0.21264 0.57477 0.0
H837 H 0.48664 0.29117 0.56689 0.0
C838 C 0.47669 0.48382 0.5747 0.0
C839 C 0.47485 0.58315 0.58229 0.0
C840 C 0.50123 0.44055 0.57124 0.0
C841 C 0.49709 0.6433 0.58146 0.0
C842 C 0.52141 0.60201 0.5767 0.0
C843 C 0.54812 0.45362 0.5765 0.0
C844 C 0.54962 0.3502 0.57897 0.0
C845 C 0.52384 0.49941 0.5736 0.0
C846 C 0.52766 0.29259 0.57334 0.0
C847 C 0.50366 0.33754 0.5691 0.0
H848 H 0.19124 0.60532 0.1784 0.0
H849 H 0.12134 0.70022 0.21568 0.0
H850 H 0.11156 0.52914 0.22723 0.0
H851 H 0.1186 0.35306 0.21907 0.0
H852 H 0.18865 0.25818 0.18247 0.0
H853 H 0.20281 0.42936 0.17802 0.0
C854 C 0.17423 0.58849 0.18961 0.0
C855 C 0.15669 0.66388 0.19573 0.0
C856 C 0.16846 0.49035 0.19558 0.0
C857 C 0.13501 0.64269 0.2107 0.0
C858 C 0.12928 0.54493 0.21705 0.0
C859 C 0.13717 0.36947 0.21044 0.0
C860 C 0.15192 0.29343 0.19947 0.0
C861 C 0.14516 0.46801 0.20836 0.0
C862 C 0.17629 0.31585 0.18935 0.0
C863 C 0.18451 0.41367 0.18723 0.0
H864 H 0.92576 0.26352 0.08508 0.0
H865 H 0.88847 0.1842 0.15467 0.0
H866 H 0.88104 0.35748 0.16407 0.0
H867 H 0.87493 0.52244 0.14722 0.0
H868 H 0.91298 0.60898 0.07862 0.0
H869 H 0.92944 0.44022 0.07335 0.0
C870 C 0.91708 0.28489 0.10281 0.0
C871 C 0.90718 0.21174 0.11896 0.0
C872 C 0.9115 0.38451 0.10736 0.0
C873 C 0.89644 0.23916 0.14209 0.0
C874 C 0.89153 0.33833 0.14713 0.0
C875 C 0.88677 0.50479 0.13101 0.0
C876 C 0.89066 0.57515 0.11193 0.0
C877 C 0.89716 0.41011 0.12895 0.0
C878 C 0.90774 0.55327 0.09222 0.0
C879 C 0.9177 0.45767 0.08962 0.0
H880 H 0.13457 0.49057 0.45424 0.0
H881 H 0.12988 0.41246 0.37595 0.0
H882 H 0.11945 0.58451 0.36525 0.0
H883 H 0.11631 0.75975 0.37802 0.0
H884 H 0.11972 0.83451 0.45665 0.0
H885 H 0.12573 0.66076 0.46744 0.0
C886 C 0.13103 0.51113 0.43485 0.0
C887 C 0.13343 0.43981 0.41584 0.0
C888 C 0.12494 0.60945 0.42894 0.0
C889 C 0.12825 0.46653 0.39087 0.0
C890 C 0.12239 0.56481 0.38477 0.0
C891 C 0.11787 0.73779 0.39755 0.0
C892 C 0.11821 0.8103 0.41652 0.0
C893 C 0.12132 0.63736 0.40361 0.0
C894 C 0.12001 0.7805 0.4417 0.0
C895 C 0.12342 0.68108 0.44788 0.0
H896 H 0.85965 0.42238 0.34486 0.0
H897 H 0.94287 0.44921 0.3499 0.0
H898 H 0.93972 0.6278 0.34713 0.0
H899 H 0.9134 0.77839 0.34923 0.0
H900 H 0.83014 0.75472 0.34892 0.0
H901 H 0.83308 0.57505 0.34366 0.0
C902 C 0.87697 0.46746 0.34567 0.0
C903 C 0.90128 0.42182 0.34845 0.0
C904 C 0.87506 0.57159 0.34469 0.0
C905 C 0.92374 0.48157 0.34821 0.0
C906 C 0.92205 0.58431 0.34657 0.0
C907 C 0.89597 0.73409 0.34704 0.0
C908 C 0.87164 0.77934 0.3492 0.0
C909 C 0.89782 0.6304 0.3455 0.0
C910 C 0.84911 0.72112 0.34703 0.0
C911 C 0.85078 0.61831 0.34435 0.0
H912 H 0.8527 0.96584 0.83673 0.0
H913 H 0.87519 -0.00139 0.91439 0.0
H914 H 0.86732 0.17489 0.9123 0.0
H915 H 0.85795 0.32289 0.88799 0.0
H916 H 0.84045 0.29814 0.80933 0.0
H917 H 0.84117 0.11695 0.81242 0.0
C918 C 0.85602 0.01176 0.85307 0.0
C919 C 0.86473 0.96831 0.87557 0.0
C920 C 0.85164 0.1149 0.85179 0.0
C921 C 0.86862 0.02927 0.89671 0.0
C922 C 0.86393 0.13054 0.89567 0.0
C923 C 0.8531 0.27764 0.87182 0.0
C924 C 0.84854 0.32339 0.84866 0.0
C925 C 0.85562 0.17436 0.87333 0.0
C926 C 0.84334 0.26414 0.82754 0.0
C927 C 0.84435 0.16064 0.8292 0.0
H928 H 0.07173 0.27604 0.90975 0.0
H929 H 0.11007 0.19788 0.97879 0.0
H930 H 0.12122 0.37236 0.98583 0.0
H931 H 0.12368 0.5437 0.96965 0.0
H932 H 0.09277 0.60888 0.89642 0.0
H933 H 0.07417 0.44335 0.89379 0.0
C934 C 0.08194 0.29713 0.92675 0.0
C935 C 0.08997 0.22422 0.94394 0.0
C936 C 0.08946 0.39564 0.92972 0.0
C937 C 0.10378 0.25263 0.9654 0.0
C938 C 0.11018 0.35223 0.96929 0.0
C939 C 0.11261 0.52171 0.95326 0.0
C940 C 0.10825 0.59005 0.93372 0.0
C941 C 0.10379 0.4238 0.95113 0.0
C942 C 0.09455 0.56011 0.91236 0.0
C943 C 0.08454 0.46464 0.91065 0.0
H944 H 0.84608 0.7003 0.62085 0.0
H945 H 0.89854 0.77923 0.68059 0.0
H946 H 0.89859 0.60793 0.69537 0.0
H947 H 0.89168 0.43381 0.68507 0.0
H948 H 0.84606 0.35495 0.62025 0.0
H949 H 0.83431 0.52785 0.61412 0.0
C950 C 0.85723 0.68022 0.63736 0.0
C951 C 0.87281 0.75131 0.64936 0.0
C952 C 0.85831 0.58128 0.64467 0.0
C953 C 0.88651 0.72565 0.67111 0.0
C954 C 0.88669 0.62754 0.67935 0.0
C955 C 0.8787 0.45417 0.6699 0.0
C956 C 0.8701 0.38198 0.65273 0.0
C957 C 0.87386 0.55422 0.66536 0.0
C958 C 0.8528 0.40885 0.63365 0.0
C959 C 0.84646 0.50804 0.62995 0.0
H960 H 0.20535 0.32992 0.66774 0.0
H961 H 0.14299 0.24323 0.71711 0.0
H962 H 0.13575 0.41684 0.72806 0.0
H963 H 0.14093 0.5914 0.71638 0.0
H964 H 0.19654 0.67255 0.6595 0.0
H965 H 0.21278 0.50356 0.65859 0.0
C966 C 0.19046 0.34854 0.68132 0.0
C967 C 0.17435 0.27376 0.69122 0.0
C968 C 0.18493 0.44823 0.68567 0.0
C969 C 0.15564 0.29905 0.70921 0.0
C970 C 0.15123 0.39857 0.71512 0.0
C971 C 0.15687 0.57265 0.704 0.0
C972 C 0.16774 0.6454 0.68811 0.0
C973 C 0.16473 0.47365 0.70228 0.0
C974 C 0.18838 0.61943 0.67235 0.0
C975 C 0.19739 0.52216 0.67161 0.0
H976 H 0.654 0.08951 0.11526 0.0
H977 H 0.58582 0.1232 0.16151 0.0
H978 H 0.59304 0.30001 0.16414 0.0
H979 H 0.6151 0.44869 0.1489 0.0
H980 H 0.68303 0.41872 0.10244 0.0
H981 H 0.67989 0.23858 0.10488 0.0
C982 C 0.64103 0.13525 0.12625 0.0
C983 C 0.61912 0.09259 0.13765 0.0
C984 C 0.64517 0.23851 0.12768 0.0
C985 C 0.60258 0.15362 0.15197 0.0
C986 C 0.60669 0.25528 0.15364 0.0
C987 C 0.62973 0.40285 0.14005 0.0
C988 C 0.64915 0.44722 0.12547 0.0
C989 C 0.62744 0.2991 0.14096 0.0
C990 C 0.66775 0.38638 0.11375 0.0
C991 C 0.66588 0.28317 0.11496 0.0
H992 H 0.33702 0.78558 0.10581 0.0
H993 H 0.37006 0.69491 0.17608 0.0
H994 H 0.37916 0.86902 0.18685 0.0
H995 H 0.38381 0.04233 0.17176 0.0
H996 H 0.34701 0.12864 0.10239 0.0
H997 H 0.33183 0.95948 0.09601 0.0
C998 C 0.34586 0.80338 0.12373 0.0
C999 C 0.35561 0.72795 0.13928 0.0
C1000 C 0.34992 0.90242 0.12978 0.0
C1001 C 0.36541 0.75254 0.1629 0.0
C1002 C 0.36984 0.8516 0.16916 0.0
C1003 C 0.37197 0.024 0.15558 0.0
C1004 C 0.36695 0.09608 0.13722 0.0
C1005 C 0.36351 0.92664 0.15197 0.0
C1006 C 0.35117 0.07346 0.11659 0.0
C1007 C 0.34265 0.97692 0.11289 0.0
H1008 H 0.66187 0.13306 0.38192 0.0
H1009 H 0.63949 0.1074 0.30437 0.0
H1010 H 0.64465 0.92746 0.30626 0.0
H1011 H 0.6491 0.77622 0.33202 0.0
H1012 H 0.66716 0.80542 0.41073 0.0
H1013 H 0.67043 0.98344 0.40635 0.0
C1014 C 0.65909 0.08811 0.36526 0.0
C1015 C 0.65049 0.13259 0.34306 0.0
C1016 C 0.66066 0.98464 0.36689 0.0
C1017 C 0.64633 0.074 0.32164 0.0
C1018 C 0.64898 0.9712 0.32279 0.0
C1019 C 0.65369 0.82165 0.34811 0.0
C1020 C 0.65698 0.77734 0.37171 0.0
C1021 C 0.65495 0.92531 0.34566 0.0
C1022 C 0.66384 0.83723 0.39235 0.0
C1023 C 0.66587 0.93948 0.38992 0.0
H1024 H 0.38189 0.11903 0.31457 0.0
H1025 H 0.3726 0.05859 0.39341 0.0
H1026 H 0.35901 0.22887 0.40074 0.0
H1027 H 0.35682 0.39792 0.38601 0.0
H1028 H 0.36433 0.46581 0.30748 0.0
H1029 H 0.37244 0.28925 0.29843 0.0
C1030 C 0.37616 0.14311 0.33317 0.0
C1031 C 0.37743 0.07623 0.35345 0.0
C1032 C 0.36914 0.24241 0.33727 0.0
C1033 C 0.37049 0.10777 0.37751 0.0
C1034 C 0.36329 0.20555 0.38173 0.0
C1035 C 0.3597 0.37427 0.36675 0.0
C1036 C 0.36167 0.44507 0.34746 0.0
C1037 C 0.36345 0.27386 0.36192 0.0
C1038 C 0.36481 0.413 0.3227 0.0
C1039 C 0.36887 0.31216 0.31759 0.0
H1040 H 0.30724 0.67017 0.83238 0.0
H1041 H 0.38656 0.57863 0.82097 0.0
H1042 H 0.39993 0.75092 0.81756 0.0
H1043 H 0.39069 0.92316 0.82739 0.0
H1044 H 0.31206 0.01893 0.83928 0.0
H1045 H 0.2967 0.84837 0.83384 0.0
C1046 C 0.32734 0.68787 0.82831 0.0
C1047 C 0.34597 0.61144 0.82742 0.0
C1048 C 0.33511 0.78742 0.82778 0.0
C1049 C 0.37179 0.63537 0.82168 0.0
C1050 C 0.37954 0.73428 0.82024 0.0
C1051 C 0.37009 0.90762 0.82863 0.0
C1052 C 0.35254 0.98283 0.83568 0.0
C1053 C 0.36162 0.8103 0.82488 0.0
C1054 C 0.32597 0.96123 0.83589 0.0
C1055 C 0.31726 0.86406 0.83221 0.0
H1056 H 0.65738 0.12555 0.86346 0.0
H1057 H 0.5856 0.20566 0.82724 0.0
H1058 H 0.57854 0.03267 0.81541 0.0
H1059 H 0.58745 0.85893 0.82493 0.0
H1060 H 0.65638 0.77862 0.86568 0.0
H1061 H 0.67038 0.95163 0.86601 0.0
C1062 C 0.64057 0.10531 0.85231 0.0
C1063 C 0.62165 0.177 0.84671 0.0
C1064 C 0.63596 0.00563 0.84703 0.0
C1065 C 0.6003 0.15138 0.83181 0.0
C1066 C 0.59613 0.05232 0.82539 0.0
C1067 C 0.60579 0.87881 0.83357 0.0
C1068 C 0.6205 0.80672 0.84641 0.0
C1069 C 0.61295 0.97857 0.83444 0.0
C1070 C 0.64456 0.83316 0.85649 0.0
C1071 C 0.65244 0.93207 0.85663 0.0
H1072 H 0.40141 0.95005 0.66481 0.0
H1073 H 0.34298 0.86636 0.61088 0.0
H1074 H 0.32675 0.03545 0.6101 0.0
H1075 H 0.33525 0.21005 0.61777 0.0
H1076 H 0.40035 0.29643 0.66386 0.0
H1077 H 0.40747 0.12405 0.6754 0.0
C1078 C 0.38486 0.96828 0.65312 0.0
C1079 C 0.37339 0.89522 0.63783 0.0
C1080 C 0.37702 0.06703 0.65133 0.0
C1081 C 0.3518 0.92004 0.62314 0.0
C1082 C 0.34279 0.01738 0.62244 0.0
C1083 C 0.35072 0.1916 0.63076 0.0
C1084 C 0.36744 0.26619 0.63973 0.0
C1085 C 0.35612 0.092 0.63548 0.0
C1086 C 0.38704 0.24109 0.65686 0.0
C1087 C 0.39138 0.14211 0.66312 0.0
H1088 H 0.68569 0.70307 0.63115 0.0
H1089 H 0.61671 0.62839 0.6731 0.0
H1090 H 0.60934 0.80436 0.68146 0.0
H1091 H 0.61688 0.97603 0.66858 0.0
H1092 H 0.67912 0.04487 0.61731 0.0
H1093 H 0.69502 0.87488 0.62083 0.0
C1094 C 0.66923 0.72476 0.64257 0.0
C1095 C 0.65139 0.65246 0.65103 0.0
C1096 C 0.66376 0.82562 0.64508 0.0
C1097 C 0.63067 0.68201 0.66631 0.0
C1098 C 0.62626 0.78283 0.67071 0.0
C1099 C 0.6342 0.95436 0.65843 0.0
C1100 C 0.64701 0.0235 0.6428 0.0
C1101 C 0.64176 0.85488 0.65885 0.0
C1102 C 0.66942 -0.00562 0.62997 0.0
C1103 C 0.6782 0.89663 0.6317 0.0
loop_
_geom_bond_atom_site_label_1
_geom_bond_atom_site_label_2
_geom_bond_distance
_geom_bond_site_symmetry_2
_ccdc_geom_bond_type
Zn0 O6 1.920 1_565 S
Zn0 O12 1.898 . S
Zn0 O15 1.905 . S
Zn1 O9 1.905 . S
Zn1 O10 1.898 . S
Zn1 O18 1.920 . S
Zn2 O5 2.080 . S
Zn2 O8 2.114 . S
Zn2 O11 2.120 . S
Zn2 O13 2.120 . S
Zn2 O14 2.114 1_545 S
Zn2 O17 2.080 . S
C3 O8 1.166 . S
C3 O9 1.182 . S
C4 O10 1.167 . S
C4 O11 1.299 . S
O5 Zn2 2.080 . S
O5 C19 1.305 . S
O6 Zn0 1.920 1_545 S
O6 C19 1.234 . S
C7 O12 1.167 1_545 S
C7 O13 1.299 . S
O8 Zn2 2.114 . S
O8 C3 1.166 . S
O9 Zn1 1.905 . S
O9 C3 1.182 . S
O10 Zn1 1.898 . S
O10 C4 1.167 . S
O11 Zn2 2.120 . S
O11 C4 1.299 . S
O12 Zn0 1.898 . S
O12 C7 1.167 1_565 S
O13 Zn2 2.120 . S
O13 C7 1.299 . S
O14 Zn2 2.114 1_565 S
O14 C16 1.166 . S
O15 Zn0 1.905 . S
O15 C16 1.182 . S
C16 O14 1.166 . S
C16 O15 1.182 . S
O17 Zn2 2.080 . S
O17 C20 1.305 . S
O18 Zn1 1.920 . S
O18 C20 1.234 . S
C19 O5 1.305 . S
C19 O6 1.234 . S
C20 O17 1.305 . S
C20 O18 1.234 . S
Zn21 O27 1.920 . S
Zn21 O33 1.898 . S
Zn21 O36 1.905 . S
Zn22 O30 1.905 . S
Zn22 O31 1.898 . S
Zn22 O39 1.920 1_545 S
Zn23 O26 2.080 . S
Zn23 O29 2.114 1_565 S
Zn23 O32 2.120 . S
Zn23 O34 2.120 . S
Zn23 O35 2.114 . S
Zn23 O38 2.080 . S
C24 O29 1.166 . S
C24 O30 1.182 . S
C25 O31 1.167 1_565 S
C25 O32 1.299 . S
O26 Zn23 2.080 . S
O26 C40 1.305 . S
O27 Zn21 1.920 . S
O27 C40 1.234 . S
C28 O33 1.167 . S
C28 O34 1.299 . S
O29 Zn23 2.114 1_545 S
O29 C24 1.166 . S
O30 Zn22 1.905 . S
O30 C24 1.182 . S
O31 Zn22 1.898 . S
O31 C25 1.167 1_545 S
O32 Zn23 2.120 . S
O32 C25 1.299 . S
O33 Zn21 1.898 . S
O33 C28 1.167 . S
O34 Zn23 2.120 . S
O34 C28 1.299 . S
O35 Zn23 2.114 . S
O35 C37 1.166 . S
O36 Zn21 1.905 . S
O36 C37 1.182 . S
C37 O35 1.166 . S
C37 O36 1.182 . S
O38 Zn23 2.080 . S
O38 C41 1.305 . S
O39 Zn22 1.920 1_565 S
O39 C41 1.234 . S
C40 O26 1.305 . S
C40 O27 1.234 . S
C41 O38 1.305 . S
C41 O39 1.234 . S
Zn42 O48 1.920 1_545 S
Zn42 O54 1.898 . S
Zn42 O57 1.905 . S
Zn43 O51 1.905 . S
Zn43 O52 1.898 . S
Zn43 O60 1.920 . S
Zn44 O47 2.080 . S
Zn44 O50 2.114 . S
Zn44 O53 2.120 . S
Zn44 O55 2.120 . S
Zn44 O56 2.114 1_565 S
Zn44 O59 2.080 . S
C45 O50 1.166 . S
C45 O51 1.182 . S
C46 O52 1.167 . S
C46 O53 1.299 . S
O47 Zn44 2.080 . S
O47 C61 1.305 . S
O48 Zn42 1.920 1_565 S
O48 C61 1.234 . S
C49 O54 1.167 1_565 S
C49 O55 1.299 . S
O50 Zn44 2.114 . S
O50 C45 1.166 . S
O51 Zn43 1.905 . S
O51 C45 1.182 . S
O52 Zn43 1.898 . S
O52 C46 1.167 . S
O53 Zn44 2.120 . S
O53 C46 1.299 . S
O54 Zn42 1.898 . S
O54 C49 1.167 1_545 S
O55 Zn44 2.120 . S
O55 C49 1.299 . S
O56 Zn44 2.114 1_545 S
O56 C58 1.166 . S
O57 Zn42 1.905 . S
O57 C58 1.182 . S
C58 O56 1.166 . S
C58 O57 1.182 . S
O59 Zn44 2.080 . S
O59 C62 1.305 . S
O60 Zn43 1.920 . S
O60 C62 1.234 . S
C61 O47 1.305 . S
C61 O48 1.234 . S
C62 O59 1.305 . S
C62 O60 1.234 . S
Zn63 O69 1.920 1_565 S
Zn63 O75 1.898 . S
Zn63 O78 1.905 . S
Zn64 O72 1.905 . S
Zn64 O73 1.898 . S
Zn64 O81 1.920 . S
Zn65 O68 2.080 . S
Zn65 O71 2.114 . S
Zn65 O74 2.120 . S
Zn65 O76 2.120 . S
Zn65 O77 2.114 1_545 S
Zn65 O80 2.080 . S
C66 O71 1.166 . S
C66 O72 1.182 . S
C67 O73 1.167 . S
C67 O74 1.299 . S
O68 Zn65 2.080 . S
O68 C82 1.305 . S
O69 Zn63 1.920 1_545 S
O69 C82 1.234 . S
C70 O75 1.167 1_545 S
C70 O76 1.299 . S
O71 Zn65 2.114 . S
O71 C66 1.166 . S
O72 Zn64 1.905 . S
O72 C66 1.182 . S
O73 Zn64 1.898 . S
O73 C67 1.167 . S
O74 Zn65 2.120 . S
O74 C67 1.299 . S
O75 Zn63 1.898 . S
O75 C70 1.167 1_565 S
O76 Zn65 2.120 . S
O76 C70 1.299 . S
O77 Zn65 2.114 1_565 S
O77 C79 1.166 . S
O78 Zn63 1.905 . S
O78 C79 1.182 . S
C79 O77 1.166 . S
C79 O78 1.182 . S
O80 Zn65 2.080 . S
O80 C83 1.305 . S
O81 Zn64 1.920 . S
O81 C83 1.234 . S
C82 O68 1.305 . S
C82 O69 1.234 . S
C83 O80 1.305 . S
C83 O81 1.234 . S
Zn84 O90 1.920 1_545 S
Zn84 O96 1.898 . S
Zn84 O99 1.905 . S
Zn85 O93 1.905 . S
Zn85 O94 1.898 . S
Zn85 O102 1.920 . S
Zn86 O89 2.080 . S
Zn86 O92 2.114 . S
Zn86 O95 2.120 . S
Zn86 O97 2.120 . S
Zn86 O98 2.114 1_565 S
Zn86 O101 2.080 . S
C87 O92 1.166 . S
C87 O93 1.182 . S
C88 O94 1.167 . S
C88 O95 1.299 . S
O89 Zn86 2.080 . S
O89 C103 1.305 . S
O90 Zn84 1.920 1_565 S
O90 C103 1.234 . S
C91 O96 1.167 1_565 S
C91 O97 1.299 . S
O92 Zn86 2.114 . S
O92 C87 1.166 . S
O93 Zn85 1.905 . S
O93 C87 1.182 . S
O94 Zn85 1.898 . S
O94 C88 1.167 . S
O95 Zn86 2.120 . S
O95 C88 1.299 . S
O96 Zn84 1.898 . S
O96 C91 1.167 1_545 S
O97 Zn86 2.120 . S
O97 C91 1.299 . S
O98 Zn86 2.114 1_545 S
O98 C100 1.166 . S
O99 Zn84 1.905 . S
O99 C100 1.182 . S
C100 O98 1.166 . S
C100 O99 1.182 . S
O101 Zn86 2.080 . S
O101 C104 1.305 . S
O102 Zn85 1.920 . S
O102 C104 1.234 . S
C103 O89 1.305 . S
C103 O90 1.234 . S
C104 O101 1.305 . S
C104 O102 1.234 . S
Zn105 O111 1.920 1_565 S
Zn105 O117 1.898 . S
Zn105 O120 1.905 . S
Zn106 O114 1.905 . S
Zn106 O115 1.898 . S
Zn106 O123 1.920 . S
Zn107 O110 2.080 . S
Zn107 O113 2.114 . S
Zn107 O116 2.120 . S
Zn107 O118 2.120 . S
Zn107 O119 2.114 1_545 S
Zn107 O122 2.080 . S
C108 O113 1.166 . S
C108 O114 1.182 . S
C109 O115 1.167 . S
C109 O116 1.299 . S
O110 Zn107 2.080 . S
O110 C124 1.305 . S
O111 Zn105 1.920 1_545 S
O111 C124 1.234 . S
C112 O117 1.167 1_545 S
C112 O118 1.299 . S
O113 Zn107 2.114 . S
O113 C108 1.166 . S
O114 Zn106 1.905 . S
O114 C108 1.182 . S
O115 Zn106 1.898 . S
O115 C109 1.167 . S
O116 Zn107 2.120 . S
O116 C109 1.299 . S
O117 Zn105 1.898 . S
O117 C112 1.167 1_565 S
O118 Zn107 2.120 . S
O118 C112 1.299 . S
O119 Zn107 2.114 1_565 S
O119 C121 1.166 . S
O120 Zn105 1.905 . S
O120 C121 1.182 . S
C121 O119 1.166 . S
C121 O120 1.182 . S
O122 Zn107 2.080 . S
O122 C125 1.305 . S
O123 Zn106 1.920 . S
O123 C125 1.234 . S
C124 O110 1.305 . S
C124 O111 1.234 . S
C125 O122 1.305 . S
C125 O123 1.234 . S
Zn126 O132 1.920 1_565 S
Zn126 O138 1.898 . S
Zn126 O141 1.905 . S
Zn127 O135 1.905 . S
Zn127 O136 1.898 . S
Zn127 O144 1.920 . S
Zn128 O131 2.080 . S
Zn128 O134 2.114 . S
Zn128 O137 2.120 . S
Zn128 O139 2.120 . S
Zn128 O140 2.114 1_545 S
Zn128 O143 2.080 . S
C129 O134 1.166 . S
C129 O135 1.182 . S
C130 O136 1.167 . S
C130 O137 1.299 . S
O131 Zn128 2.080 . S
O131 C145 1.305 . S
O132 Zn126 1.920 1_545 S
O132 C145 1.234 . S
C133 O138 1.167 1_545 S
C133 O139 1.299 . S
O134 Zn128 2.114 . S
O134 C129 1.166 . S
O135 Zn127 1.905 . S
O135 C129 1.182 . S
O136 Zn127 1.898 . S
O136 C130 1.167 . S
O137 Zn128 2.120 . S
O137 C130 1.299 . S
O138 Zn126 1.898 . S
O138 C133 1.167 1_565 S
O139 Zn128 2.120 . S
O139 C133 1.299 . S
O140 Zn128 2.114 1_565 S
O140 C142 1.166 . S
O141 Zn126 1.905 . S
O141 C142 1.182 . S
C142 O140 1.166 . S
C142 O141 1.182 . S
O143 Zn128 2.080 . S
O143 C146 1.305 . S
O144 Zn127 1.920 . S
O144 C146 1.234 . S
C145 O131 1.305 . S
C145 O132 1.234 . S
C146 O143 1.305 . S
C146 O144 1.234 . S
Zn147 O153 1.920 1_545 S
Zn147 O159 1.898 . S
Zn147 O162 1.905 . S
Zn148 O156 1.905 . S
Zn148 O157 1.898 . S
Zn148 O165 1.920 . S
Zn149 O152 2.080 . S
Zn149 O155 2.114 . S
Zn149 O158 2.120 . S
Zn149 O160 2.120 . S
Zn149 O161 2.114 1_565 S
Zn149 O164 2.080 . S
C150 O155 1.166 . S
C150 O156 1.182 . S
C151 O157 1.167 . S
C151 O158 1.299 . S
O152 Zn149 2.080 . S
O152 C166 1.305 . S
O153 Zn147 1.920 1_565 S
O153 C166 1.234 . S
C154 O159 1.167 1_565 S
C154 O160 1.299 . S
O155 Zn149 2.114 . S
O155 C150 1.166 . S
O156 Zn148 1.905 . S
O156 C150 1.182 . S
O157 Zn148 1.898 . S
O157 C151 1.167 . S
O158 Zn149 2.120 . S
O158 C151 1.299 . S
O159 Zn147 1.898 . S
O159 C154 1.167 1_545 S
O160 Zn149 2.120 . S
O160 C154 1.299 . S
O161 Zn149 2.114 1_545 S
O161 C163 1.166 . S
O162 Zn147 1.905 . S
O162 C163 1.182 . S
C163 O161 1.166 . S
C163 O162 1.182 . S
O164 Zn149 2.080 . S
O164 C167 1.305 . S
O165 Zn148 1.920 . S
O165 C167 1.234 . S
C166 O152 1.305 . S
C166 O153 1.234 . S
C167 O164 1.305 . S
C167 O165 1.234 . S
Zn168 O174 1.920 . S
Zn168 O180 1.898 . S
Zn168 O183 1.905 . S
Zn169 O177 1.905 . S
Zn169 O178 1.898 . S
Zn169 O186 1.920 . S
Zn170 O173 2.080 . S
Zn170 O176 2.114 . S
Zn170 O179 2.120 . S
Zn170 O181 2.120 . S
Zn170 O182 2.114 . S
Zn170 O185 2.080 . S
C171 O176 1.166 . S
C171 O177 1.182 . S
C172 O178 1.167 . S
C172 O179 1.299 . S
O173 Zn170 2.080 . S
O173 C187 1.305 . S
O174 Zn168 1.920 . S
O174 C187 1.234 . S
C175 O180 1.167 . S
C175 O181 1.299 . S
O176 Zn170 2.114 . S
O176 C171 1.166 . S
O177 Zn169 1.905 . S
O177 C171 1.182 . S
O178 Zn169 1.898 . S
O178 C172 1.167 . S
O179 Zn170 2.120 . S
O179 C172 1.299 . S
O180 Zn168 1.898 . S
O180 C175 1.167 . S
O181 Zn170 2.120 . S
O181 C175 1.299 . S
O182 Zn170 2.114 . S
O182 C184 1.166 . S
O183 Zn168 1.905 . S
O183 C184 1.182 . S
C184 O182 1.166 . S
C184 O183 1.182 . S
O185 Zn170 2.080 . S
O185 C188 1.305 . S
O186 Zn169 1.920 . S
O186 C188 1.234 . S
C187 O173 1.305 . S
C187 O174 1.234 . S
C188 O185 1.305 . S
C188 O186 1.234 . S
Zn189 O195 1.920 . S
Zn189 O201 1.898 . S
Zn189 O204 1.905 . S
Zn190 O198 1.905 . S
Zn190 O199 1.898 . S
Zn190 O207 1.920 . S
Zn191 O194 2.080 . S
Zn191 O197 2.114 . S
Zn191 O200 2.120 . S
Zn191 O202 2.120 . S
Zn191 O203 2.114 . S
Zn191 O206 2.080 . S
C192 O197 1.166 . S
C192 O198 1.182 . S
C193 O199 1.167 . S
C193 O200 1.299 . S
O194 Zn191 2.080 . S
O194 C208 1.305 . S
O195 Zn189 1.920 . S
O195 C208 1.234 . S
C196 O201 1.167 . S
C196 O202 1.299 . S
O197 Zn191 2.114 . S
O197 C192 1.166 . S
O198 Zn190 1.905 . S
O198 C192 1.182 . S
O199 Zn190 1.898 . S
O199 C193 1.167 . S
O200 Zn191 2.120 . S
O200 C193 1.299 . S
O201 Zn189 1.898 . S
O201 C196 1.167 . S
O202 Zn191 2.120 . S
O202 C196 1.299 . S
O203 Zn191 2.114 . S
O203 C205 1.166 . S
O204 Zn189 1.905 . S
O204 C205 1.182 . S
C205 O203 1.166 . S
C205 O204 1.182 . S
O206 Zn191 2.080 . S
O206 C209 1.305 . S
O207 Zn190 1.920 . S
O207 C209 1.234 . S
C208 O194 1.305 . S
C208 O195 1.234 . S
C209 O206 1.305 . S
C209 O207 1.234 . S
Zn210 O216 1.920 . S
Zn210 O222 1.898 . S
Zn210 O225 1.905 . S
Zn211 O219 1.905 . S
Zn211 O220 1.898 . S
Zn211 O228 1.920 . S
Zn212 O215 2.080 . S
Zn212 O218 2.114 . S
Zn212 O221 2.120 . S
Zn212 O223 2.120 . S
Zn212 O224 2.114 . S
Zn212 O227 2.080 . S
C213 O218 1.166 . S
C213 O219 1.182 . S
C214 O220 1.167 . S
C214 O221 1.299 . S
O215 Zn212 2.080 . S
O215 C229 1.305 . S
O216 Zn210 1.920 . S
O216 C229 1.234 . S
C217 O222 1.167 . S
C217 O223 1.299 . S
O218 Zn212 2.114 . S
O218 C213 1.166 . S
O219 Zn211 1.905 . S
O219 C213 1.182 . S
O220 Zn211 1.898 . S
O220 C214 1.167 . S
O221 Zn212 2.120 . S
O221 C214 1.299 . S
O222 Zn210 1.898 . S
O222 C217 1.167 . S
O223 Zn212 2.120 . S
O223 C217 1.299 . S
O224 Zn212 2.114 . S
O224 C226 1.166 . S
O225 Zn210 1.905 . S
O225 C226 1.182 . S
C226 O224 1.166 . S
C226 O225 1.182 . S
O227 Zn212 2.080 . S
O227 C230 1.305 . S
O228 Zn211 1.920 . S
O228 C230 1.234 . S
C229 O215 1.305 . S
C229 O216 1.234 . S
C230 O227 1.305 . S
C230 O228 1.234 . S
Zn231 O237 1.920 . S
Zn231 O243 1.898 . S
Zn231 O246 1.905 . S
Zn232 O240 1.905 . S
Zn232 O241 1.898 . S
Zn232 O249 1.920 . S
Zn233 O236 2.080 . S
Zn233 O239 2.114 . S
Zn233 O242 2.120 . S
Zn233 O244 2.120 . S
Zn233 O245 2.114 . S
Zn233 O248 2.080 . S
C234 O239 1.166 . S
C234 O240 1.182 . S
C235 O241 1.167 . S
C235 O242 1.299 . S
O236 Zn233 2.080 . S
O236 C250 1.305 . S
O237 Zn231 1.920 . S
O237 C250 1.234 . S
C238 O243 1.167 . S
C238 O244 1.299 . S
O239 Zn233 2.114 . S
O239 C234 1.166 . S
O240 Zn232 1.905 . S
O240 C234 1.182 . S
O241 Zn232 1.898 . S
O241 C235 1.167 . S
O242 Zn233 2.120 . S
O242 C235 1.299 . S
O243 Zn231 1.898 . S
O243 C238 1.167 . S
O244 Zn233 2.120 . S
O244 C238 1.299 . S
O245 Zn233 2.114 . S
O245 C247 1.166 . S
O246 Zn231 1.905 . S
O246 C247 1.182 . S
C247 O245 1.166 . S
C247 O246 1.182 . S
O248 Zn233 2.080 . S
O248 C251 1.305 . S
O249 Zn232 1.920 . S
O249 C251 1.234 . S
C250 O236 1.305 . S
C250 O237 1.234 . S
C251 O248 1.305 . S
C251 O249 1.234 . S
Zn252 O258 1.920 . S
Zn252 O264 1.898 . S
Zn252 O267 1.905 . S
Zn253 O261 1.905 . S
Zn253 O262 1.898 . S
Zn253 O270 1.920 . S
Zn254 O257 2.080 . S
Zn254 O260 2.114 . S
Zn254 O263 2.120 . S
Zn254 O265 2.120 . S
Zn254 O266 2.114 . S
Zn254 O269 2.080 . S
C255 O260 1.166 . S
C255 O261 1.182 . S
C256 O262 1.167 . S
C256 O263 1.299 . S
O257 Zn254 2.080 . S
O257 C271 1.305 . S
O258 Zn252 1.920 . S
O258 C271 1.234 . S
C259 O264 1.167 . S
C259 O265 1.299 . S
O260 Zn254 2.114 . S
O260 C255 1.166 . S
O261 Zn253 1.905 . S
O261 C255 1.182 . S
O262 Zn253 1.898 . S
O262 C256 1.167 . S
O263 Zn254 2.120 . S
O263 C256 1.299 . S
O264 Zn252 1.898 . S
O264 C259 1.167 . S
O265 Zn254 2.120 . S
O265 C259 1.299 . S
O266 Zn254 2.114 . S
O266 C268 1.166 . S
O267 Zn252 1.905 . S
O267 C268 1.182 . S
C268 O266 1.166 . S
C268 O267 1.182 . S
O269 Zn254 2.080 . S
O269 C272 1.305 . S
O270 Zn253 1.920 . S
O270 C272 1.234 . S
C271 O257 1.305 . S
C271 O258 1.234 . S
C272 O269 1.305 . S
C272 O270 1.234 . S
Zn273 O279 1.920 . S
Zn273 O285 1.898 . S
Zn273 O288 1.905 . S
Zn274 O282 1.905 . S
Zn274 O283 1.898 . S
Zn274 O291 1.920 . S
Zn275 O278 2.080 . S
Zn275 O281 2.114 . S
Zn275 O284 2.120 . S
Zn275 O286 2.120 . S
Zn275 O287 2.114 . S
Zn275 O290 2.080 . S
C276 O281 1.166 . S
C276 O282 1.182 . S
C277 O283 1.167 . S
C277 O284 1.299 . S
O278 Zn275 2.080 . S
O278 C292 1.305 . S
O279 Zn273 1.920 . S
O279 C292 1.234 . S
C280 O285 1.167 . S
C280 O286 1.299 . S
O281 Zn275 2.114 . S
O281 C276 1.166 . S
O282 Zn274 1.905 . S
O282 C276 1.182 . S
O283 Zn274 1.898 . S
O283 C277 1.167 . S
O284 Zn275 2.120 . S
O284 C277 1.299 . S
O285 Zn273 1.898 . S
O285 C280 1.167 . S
O286 Zn275 2.120 . S
O286 C280 1.299 . S
O287 Zn275 2.114 . S
O287 C289 1.166 . S
O288 Zn273 1.905 . S
O288 C289 1.182 . S
C289 O287 1.166 . S
C289 O288 1.182 . S
O290 Zn275 2.080 . S
O290 C293 1.305 . S
O291 Zn274 1.920 . S
O291 C293 1.234 . S
C292 O278 1.305 . S
C292 O279 1.234 . S
C293 O290 1.305 . S
C293 O291 1.234 . S
Zn294 O300 1.920 . S
Zn294 O306 1.898 . S
Zn294 O309 1.905 . S
Zn295 O303 1.905 . S
Zn295 O304 1.898 . S
Zn295 O312 1.920 . S
Zn296 O299 2.080 . S
Zn296 O302 2.114 . S
Zn296 O305 2.120 . S
Zn296 O307 2.120 . S
Zn296 O308 2.114 . S
Zn296 O311 2.080 . S
C297 O302 1.166 . S
C297 O303 1.182 . S
C298 O304 1.167 . S
C298 O305 1.299 . S
O299 Zn296 2.080 . S
O299 C313 1.305 . S
O300 Zn294 1.920 . S
O300 C313 1.234 . S
C301 O306 1.167 . S
C301 O307 1.299 . S
O302 Zn296 2.114 . S
O302 C297 1.166 . S
O303 Zn295 1.905 . S
O303 C297 1.182 . S
O304 Zn295 1.898 . S
O304 C298 1.167 . S
O305 Zn296 2.120 . S
O305 C298 1.299 . S
O306 Zn294 1.898 . S
O306 C301 1.167 . S
O307 Zn296 2.120 . S
O307 C301 1.299 . S
O308 Zn296 2.114 . S
O308 C310 1.166 . S
O309 Zn294 1.905 . S
O309 C310 1.182 . S
C310 O308 1.166 . S
C310 O309 1.182 . S
O311 Zn296 2.080 . S
O311 C314 1.305 . S
O312 Zn295 1.920 . S
O312 C314 1.234 . S
C313 O299 1.305 . S
C313 O300 1.234 . S
C314 O311 1.305 . S
C314 O312 1.234 . S
Zn315 O321 1.920 . S
Zn315 O327 1.898 . S
Zn315 O330 1.905 . S
Zn316 O324 1.905 . S
Zn316 O325 1.898 . S
Zn316 O333 1.920 . S
Zn317 O320 2.080 . S
Zn317 O323 2.114 . S
Zn317 O326 2.120 . S
Zn317 O328 2.120 . S
Zn317 O329 2.114 . S
Zn317 O332 2.080 . S
C318 O323 1.166 . S
C318 O324 1.182 . S
C319 O325 1.167 . S
C319 O326 1.299 . S
O320 Zn317 2.080 . S
O320 C334 1.305 . S
O321 Zn315 1.920 . S
O321 C334 1.234 . S
C322 O327 1.167 . S
C322 O328 1.299 . S
O323 Zn317 2.114 . S
O323 C318 1.166 . S
O324 Zn316 1.905 . S
O324 C318 1.182 . S
O325 Zn316 1.898 . S
O325 C319 1.167 . S
O326 Zn317 2.120 . S
O326 C319 1.299 . S
O327 Zn315 1.898 . S
O327 C322 1.167 . S
O328 Zn317 2.120 . S
O328 C322 1.299 . S
O329 Zn317 2.114 . S
O329 C331 1.166 . S
O330 Zn315 1.905 . S
O330 C331 1.182 . S
C331 O329 1.166 . S
C331 O330 1.182 . S
O332 Zn317 2.080 . S
O332 C335 1.305 . S
O333 Zn316 1.920 . S
O333 C335 1.234 . S
C334 O320 1.305 . S
C334 O321 1.234 . S
C335 O332 1.305 . S
C335 O333 1.234 . S
H336 C342 0.930 . S
H337 C345 0.930 . S
H338 C346 0.930 . S
H339 C347 0.930 . S
H340 C350 0.930 . S
H341 C351 0.930 . S
C342 H336 0.930 . S
C342 C343 1.355 . S
C342 C344 1.415 . S
C343 C342 1.355 . S
C343 C345 1.419 . S
C344 C342 1.415 . S
C344 C349 1.425 . S
C344 C351 1.409 . S
C345 H337 0.930 . S
C345 C343 1.419 . S
C345 C346 1.362 . S
C346 H338 0.930 . S
C346 C345 1.362 . S
C346 C349 1.409 . S
C347 H339 0.930 . S
C347 C348 1.355 . S
C347 C349 1.415 . S
C348 C347 1.355 . S
C348 C350 1.419 . S
C349 C344 1.425 . S
C349 C346 1.409 . S
C349 C347 1.415 . S
C350 H340 0.930 . S
C350 C348 1.419 . S
C350 C351 1.362 . S
C351 H341 0.930 . S
C351 C344 1.409 . S
C351 C350 1.362 . S
H352 C358 0.930 . S
H353 C361 0.930 . S
H354 C362 0.930 . S
H355 C363 0.930 . S
H356 C366 0.930 . S
H357 C367 0.930 . S
C358 H352 0.930 . S
C358 C359 1.355 . S
C358 C360 1.415 . S
C359 C358 1.355 . S
C359 C361 1.419 . S
C360 C358 1.415 . S
C360 C365 1.425 . S
C360 C367 1.409 . S
C361 H353 0.930 . S
C361 C359 1.419 . S
C361 C362 1.362 . S
C362 H354 0.930 . S
C362 C361 1.362 . S
C362 C365 1.409 . S
C363 H355 0.930 . S
C363 C364 1.355 . S
C363 C365 1.415 . S
C364 C363 1.355 . S
C364 C366 1.419 . S
C365 C360 1.425 . S
C365 C362 1.409 . S
C365 C363 1.415 . S
C366 H356 0.930 . S
C366 C364 1.419 . S
C366 C367 1.362 . S
C367 H357 0.930 . S
C367 C360 1.409 . S
C367 C366 1.362 . S
H368 C374 0.930 . S
H369 C377 0.930 . S
H370 C378 0.930 . S
H371 C379 0.930 . S
H372 C382 0.930 . S
H373 C383 0.930 . S
C374 H368 0.930 . S
C374 C375 1.355 . S
C374 C376 1.415 . S
C375 C374 1.355 . S
C375 C377 1.419 . S
C376 C374 1.415 . S
C376 C381 1.425 . S
C376 C383 1.409 . S
C377 H369 0.930 . S
C377 C375 1.419 . S
C377 C378 1.362 . S
C378 H370 0.930 . S
C378 C377 1.362 . S
C378 C381 1.409 . S
C379 H371 0.930 . S
C379 C380 1.355 . S
C379 C381 1.415 . S
C380 C379 1.355 . S
C380 C382 1.419 . S
C381 C376 1.425 . S
C381 C378 1.409 . S
C381 C379 1.415 . S
C382 H372 0.930 . S
C382 C380 1.419 . S
C382 C383 1.362 . S
C383 H373 0.930 . S
C383 C376 1.409 . S
C383 C382 1.362 . S
H384 C390 0.930 . S
H385 C393 0.930 . S
H386 C394 0.930 . S
H387 C395 0.930 . S
H388 C398 0.930 . S
H389 C399 0.930 . S
C390 H384 0.930 . S
C390 C391 1.355 . S
C390 C392 1.415 . S
C391 C390 1.355 . S
C391 C393 1.419 . S
C392 C390 1.415 . S
C392 C397 1.425 . S
C392 C399 1.409 . S
C393 H385 0.930 . S
C393 C391 1.419 . S
C393 C394 1.362 . S
C394 H386 0.930 . S
C394 C393 1.362 . S
C394 C397 1.409 . S
C395 H387 0.930 . S
C395 C396 1.355 . S
C395 C397 1.415 . S
C396 C395 1.355 . S
C396 C398 1.419 . S
C397 C392 1.425 . S
C397 C394 1.409 . S
C397 C395 1.415 . S
C398 H388 0.930 . S
C398 C396 1.419 . S
C398 C399 1.362 . S
C399 H389 0.930 . S
C399 C392 1.409 . S
C399 C398 1.362 . S
H400 C406 0.930 . S
H401 C409 0.930 . S
H402 C410 0.930 . S
H403 C411 0.930 . S
H404 C414 0.930 . S
H405 C415 0.930 . S
C406 H400 0.930 . S
C406 C407 1.355 . S
C406 C408 1.415 . S
C407 C406 1.355 . S
C407 C409 1.419 . S
C408 C406 1.415 . S
C408 C413 1.425 . S
C408 C415 1.409 . S
C409 H401 0.930 . S
C409 C407 1.419 . S
C409 C410 1.362 . S
C410 H402 0.930 . S
C410 C409 1.362 . S
C410 C413 1.409 . S
C411 H403 0.930 . S
C411 C412 1.355 . S
C411 C413 1.415 . S
C412 C411 1.355 . S
C412 C414 1.419 . S
C413 C408 1.425 . S
C413 C410 1.409 . S
C413 C411 1.415 . S
C414 H404 0.930 . S
C414 C412 1.419 . S
C414 C415 1.362 . S
C415 H405 0.930 . S
C415 C408 1.409 . S
C415 C414 1.362 . S
H416 C422 0.930 . S
H417 C425 0.930 . S
H418 C426 0.930 . S
H419 C427 0.930 . S
H420 C430 0.930 . S
H421 C431 0.930 . S
C422 H416 0.930 . S
C422 C423 1.355 . S
C422 C424 1.415 . S
C423 C422 1.355 . S
C423 C425 1.419 . S
C424 C422 1.415 . S
C424 C429 1.425 . S
C424 C431 1.409 . S
C425 H417 0.930 . S
C425 C423 1.419 . S
C425 C426 1.362 . S
C426 H418 0.930 . S
C426 C425 1.362 . S
C426 C429 1.409 . S
C427 H419 0.930 . S
C427 C428 1.355 . S
C427 C429 1.415 . S
C428 C427 1.355 . S
C428 C430 1.419 . S
C429 C424 1.425 . S
C429 C426 1.409 . S
C429 C427 1.415 . S
C430 H420 0.930 . S
C430 C428 1.419 . S
C430 C431 1.362 . S
C431 H421 0.930 . S
C431 C424 1.409 . S
C431 C430 1.362 . S
H432 C438 0.930 . S
H433 C441 0.930 . S
H434 C442 0.930 . S
H435 C443 0.930 . S
H436 C446 0.930 . S
H437 C447 0.930 . S
C438 H432 0.930 . S
C438 C439 1.355 . S
C438 C440 1.415 . S
C439 C438 1.355 . S
C439 C441 1.419 . S
C440 C438 1.415 . S
C440 C445 1.425 . S
C440 C447 1.409 . S
C441 H433 0.930 . S
C441 C439 1.419 . S
C441 C442 1.362 . S
C442 H434 0.930 . S
C442 C441 1.362 . S
C442 C445 1.409 . S
C443 H435 0.930 . S
C443 C444 1.355 . S
C443 C445 1.415 . S
C444 C443 1.355 . S
C444 C446 1.419 . S
C445 C440 1.425 . S
C445 C442 1.409 . S
C445 C443 1.415 . S
C446 H436 0.930 . S
C446 C444 1.419 . S
C446 C447 1.362 . S
C447 H437 0.930 . S
C447 C440 1.409 . S
C447 C446 1.362 . S
H448 C454 0.930 . S
H449 C457 0.930 . S
H450 C458 0.930 . S
H451 C459 0.930 . S
H452 C462 0.930 . S
H453 C463 0.930 . S
C454 H448 0.930 . S
C454 C455 1.355 . S
C454 C456 1.415 . S
C455 C454 1.355 . S
C455 C457 1.419 . S
C456 C454 1.415 . S
C456 C461 1.425 . S
C456 C463 1.409 . S
C457 H449 0.930 . S
C457 C455 1.419 . S
C457 C458 1.362 . S
C458 H450 0.930 . S
C458 C457 1.362 . S
C458 C461 1.409 . S
C459 H451 0.930 . S
C459 C460 1.355 . S
C459 C461 1.415 . S
C460 C459 1.355 . S
C460 C462 1.419 . S
C461 C456 1.425 . S
C461 C458 1.409 . S
C461 C459 1.415 . S
C462 H452 0.930 . S
C462 C460 1.419 . S
C462 C463 1.362 . S
C463 H453 0.930 . S
C463 C456 1.409 . S
C463 C462 1.362 . S
H464 C470 0.930 . S
H465 C473 0.930 . S
H466 C474 0.930 . S
H467 C475 0.930 . S
H468 C478 0.930 . S
H469 C479 0.930 . S
C470 H464 0.930 . S
C470 C471 1.355 . S
C470 C472 1.415 . S
C471 C470 1.355 . S
C471 C473 1.419 1_565 S
C472 C470 1.415 . S
C472 C477 1.425 1_565 S
C472 C479 1.409 . S
C473 H465 0.930 . S
C473 C471 1.419 1_545 S
C473 C474 1.362 . S
C474 H466 0.930 . S
C474 C473 1.362 . S
C474 C477 1.409 . S
C475 H467 0.930 . S
C475 C476 1.355 . S
C475 C477 1.415 . S
C476 C475 1.355 . S
C476 C478 1.419 1_545 S
C477 C472 1.425 1_545 S
C477 C474 1.409 . S
C477 C475 1.415 . S
C478 H468 0.930 . S
C478 C476 1.419 1_565 S
C478 C479 1.362 . S
C479 H469 0.930 . S
C479 C472 1.409 . S
C479 C478 1.362 . S
H480 C486 0.930 . S
H481 C489 0.930 . S
H482 C490 0.930 . S
H483 C491 0.930 . S
H484 C494 0.930 . S
H485 C495 0.930 . S
C486 H480 0.930 . S
C486 C487 1.355 . S
C486 C488 1.415 . S
C487 C486 1.355 . S
C487 C489 1.419 . S
C488 C486 1.415 . S
C488 C493 1.425 1_545 S
C488 C495 1.409 1_545 S
C489 H481 0.930 . S
C489 C487 1.419 . S
C489 C490 1.362 . S
C490 H482 0.930 . S
C490 C489 1.362 . S
C490 C493 1.409 1_545 S
C491 H483 0.930 . S
C491 C492 1.355 . S
C491 C493 1.415 . S
C492 C491 1.355 . S
C492 C494 1.419 . S
C493 C488 1.425 1_565 S
C493 C490 1.409 1_565 S
C493 C491 1.415 . S
C494 H484 0.930 . S
C494 C492 1.419 . S
C494 C495 1.362 . S
C495 H485 0.930 . S
C495 C488 1.409 1_565 S
C495 C494 1.362 . S
H496 C502 0.930 . S
H497 C505 0.930 . S
H498 C506 0.930 . S
H499 C507 0.930 . S
H500 C510 0.930 . S
H501 C511 0.930 . S
C502 H496 0.930 . S
C502 C503 1.355 1_565 S
C502 C504 1.415 . S
C503 C502 1.355 1_545 S
C503 C505 1.419 . S
C504 C502 1.415 . S
C504 C509 1.425 1_565 S
C504 C511 1.409 . S
C505 H497 0.930 . S
C505 C503 1.419 . S
C505 C506 1.362 . S
C506 H498 0.930 . S
C506 C505 1.362 . S
C506 C509 1.409 . S
C507 H499 0.930 . S
C507 C508 1.355 1_545 S
C507 C509 1.415 . S
C508 C507 1.355 1_565 S
C508 C510 1.419 . S
C509 C504 1.425 1_545 S
C509 C506 1.409 . S
C509 C507 1.415 . S
C510 H500 0.930 . S
C510 C508 1.419 . S
C510 C511 1.362 . S
C511 H501 0.930 . S
C511 C504 1.409 . S
C511 C510 1.362 . S
H512 C518 0.930 . S
H513 C521 0.930 . S
H514 C522 0.930 . S
H515 C523 0.930 . S
H516 C526 0.930 . S
H517 C527 0.930 . S
C518 H512 0.930 . S
C518 C519 1.355 1_565 S
C518 C520 1.415 . S
C519 C518 1.355 1_545 S
C519 C521 1.419 . S
C520 C518 1.415 . S
C520 C525 1.425 1_565 S
C520 C527 1.409 . S
C521 H513 0.930 . S
C521 C519 1.419 . S
C521 C522 1.362 . S
C522 H514 0.930 . S
C522 C521 1.362 . S
C522 C525 1.409 . S
C523 H515 0.930 . S
C523 C524 1.355 1_545 S
C523 C525 1.415 . S
C524 C523 1.355 1_565 S
C524 C526 1.419 . S
C525 C520 1.425 1_545 S
C525 C522 1.409 . S
C525 C523 1.415 . S
C526 H516 0.930 . S
C526 C524 1.419 . S
C526 C527 1.362 . S
C527 H517 0.930 . S
C527 C520 1.409 . S
C527 C526 1.362 . S
H528 C534 0.930 . S
H529 C537 0.930 . S
H530 C538 0.930 . S
H531 C539 0.930 . S
H532 C542 0.930 . S
H533 C543 0.930 . S
C534 H528 0.930 . S
C534 C535 1.355 . S
C534 C536 1.415 . S
C535 C534 1.355 . S
C535 C537 1.419 . S
C536 C534 1.415 . S
C536 C541 1.425 . S
C536 C543 1.409 . S
C537 H529 0.930 . S
C537 C535 1.419 . S
C537 C538 1.362 . S
C538 H530 0.930 . S
C538 C537 1.362 . S
C538 C541 1.409 . S
C539 H531 0.930 . S
C539 C540 1.355 . S
C539 C541 1.415 . S
C540 C539 1.355 . S
C540 C542 1.419 . S
C541 C536 1.425 . S
C541 C538 1.409 . S
C541 C539 1.415 . S
C542 H532 0.930 . S
C542 C540 1.419 . S
C542 C543 1.362 . S
C543 H533 0.930 . S
C543 C536 1.409 . S
C543 C542 1.362 . S
H544 C550 0.930 . S
H545 C553 0.930 . S
H546 C554 0.930 . S
H547 C555 0.930 . S
H548 C558 0.930 . S
H549 C559 0.930 . S
C550 H544 0.930 . S
C550 C551 1.355 . S
C550 C552 1.415 . S
C551 C550 1.355 . S
C551 C553 1.419 . S
C552 C550 1.415 . S
C552 C557 1.425 . S
C552 C559 1.409 . S
C553 H545 0.930 . S
C553 C551 1.419 . S
C553 C554 1.362 . S
C554 H546 0.930 . S
C554 C553 1.362 . S
C554 C557 1.409 . S
C555 H547 0.930 . S
C555 C556 1.355 . S
C555 C557 1.415 . S
C556 C555 1.355 . S
C556 C558 1.419 . S
C557 C552 1.425 . S
C557 C554 1.409 . S
C557 C555 1.415 . S
C558 H548 0.930 . S
C558 C556 1.419 . S
C558 C559 1.362 . S
C559 H549 0.930 . S
C559 C552 1.409 . S
C559 C558 1.362 . S
H560 C566 0.930 . S
H561 C569 0.930 . S
H562 C570 0.930 . S
H563 C571 0.930 . S
H564 C574 0.930 . S
H565 C575 0.930 . S
C566 H560 0.930 . S
C566 C567 1.355 . S
C566 C568 1.415 . S
C567 C566 1.355 . S
C567 C569 1.419 . S
C568 C566 1.415 . S
C568 C573 1.425 . S
C568 C575 1.409 . S
C569 H561 0.930 . S
C569 C567 1.419 . S
C569 C570 1.362 . S
C570 H562 0.930 . S
C570 C569 1.362 . S
C570 C573 1.409 . S
C571 H563 0.930 . S
C571 C572 1.355 . S
C571 C573 1.415 . S
C572 C571 1.355 . S
C572 C574 1.419 . S
C573 C568 1.425 . S
C573 C570 1.409 . S
C573 C571 1.415 . S
C574 H564 0.930 . S
C574 C572 1.419 . S
C574 C575 1.362 . S
C575 H565 0.930 . S
C575 C568 1.409 . S
C575 C574 1.362 . S
H576 C582 0.930 . S
H577 C585 0.930 . S
H578 C586 0.930 . S
H579 C587 0.930 . S
H580 C590 0.930 . S
H581 C591 0.930 . S
C582 H576 0.930 . S
C582 C583 1.355 . S
C582 C584 1.415 . S
C583 C582 1.355 . S
C583 C585 1.419 . S
C584 C582 1.415 . S
C584 C589 1.425 . S
C584 C591 1.409 . S
C585 H577 0.930 . S
C585 C583 1.419 . S
C585 C586 1.362 . S
C586 H578 0.930 . S
C586 C585 1.362 . S
C586 C589 1.409 . S
C587 H579 0.930 . S
C587 C588 1.355 . S
C587 C589 1.415 . S
C588 C587 1.355 . S
C588 C590 1.419 . S
C589 C584 1.425 . S
C589 C586 1.409 . S
C589 C587 1.415 . S
C590 H580 0.930 . S
C590 C588 1.419 . S
C590 C591 1.362 . S
C591 H581 0.930 . S
C591 C584 1.409 . S
C591 C590 1.362 . S
H592 C598 0.930 . S
H593 C601 0.930 . S
H594 C602 0.930 . S
H595 C603 0.930 . S
H596 C606 0.930 . S
H597 C607 0.930 . S
C598 H592 0.930 . S
C598 C599 1.355 1_565 S
C598 C600 1.415 . S
C599 C598 1.355 1_545 S
C599 C601 1.419 . S
C600 C598 1.415 . S
C600 C605 1.425 1_566 S
C600 C607 1.409 1_556 S
C601 H593 0.930 . S
C601 C599 1.419 . S
C601 C602 1.362 . S
C602 H594 0.930 . S
C602 C601 1.362 . S
C602 C605 1.409 1_556 S
C603 H595 0.930 . S
C603 C604 1.355 . S
C603 C605 1.415 . S
C604 C603 1.355 . S
C604 C606 1.419 1_545 S
C605 C600 1.425 1_544 S
C605 C602 1.409 1_554 S
C605 C603 1.415 . S
C606 H596 0.930 . S
C606 C604 1.419 1_565 S
C606 C607 1.362 . S
C607 H597 0.930 . S
C607 C600 1.409 1_554 S
C607 C606 1.362 . S
H608 C614 0.930 1_545 S
H609 C617 0.930 . S
H610 C618 0.930 . S
H611 C619 0.930 . S
H612 C622 0.930 1_545 S
H613 C623 0.930 . S
C614 H608 0.930 1_565 S
C614 C615 1.355 . S
C614 C616 1.415 . S
C615 C614 1.355 . S
C615 C617 1.419 . S
C616 C614 1.415 . S
C616 C621 1.425 1_556 S
C616 C623 1.409 1_566 S
C617 H609 0.930 . S
C617 C615 1.419 . S
C617 C618 1.362 . S
C618 H610 0.930 . S
C618 C617 1.362 . S
C618 C621 1.409 1_556 S
C619 H611 0.930 . S
C619 C620 1.355 . S
C619 C621 1.415 . S
C620 C619 1.355 . S
C620 C622 1.419 . S
C621 C616 1.425 1_554 S
C621 C618 1.409 1_554 S
C621 C619 1.415 . S
C622 H612 0.930 1_565 S
C622 C620 1.419 . S
C622 C623 1.362 1_565 S
C623 H613 0.930 . S
C623 C616 1.409 1_544 S
C623 C622 1.362 1_545 S
H624 C630 0.930 . S
H625 C633 0.930 . S
H626 C634 0.930 . S
H627 C635 0.930 . S
H628 C638 0.930 . S
H629 C639 0.930 . S
C630 H624 0.930 . S
C630 C631 1.355 . S
C630 C632 1.415 . S
C631 C630 1.355 . S
C631 C633 1.419 . S
C632 C630 1.415 . S
C632 C637 1.425 . S
C632 C639 1.409 . S
C633 H625 0.930 . S
C633 C631 1.419 . S
C633 C634 1.362 . S
C634 H626 0.930 . S
C634 C633 1.362 . S
C634 C637 1.409 . S
C635 H627 0.930 . S
C635 C636 1.355 . S
C635 C637 1.415 . S
C636 C635 1.355 . S
C636 C638 1.419 . S
C637 C632 1.425 . S
C637 C634 1.409 . S
C637 C635 1.415 . S
C638 H628 0.930 . S
C638 C636 1.419 . S
C638 C639 1.362 . S
C639 H629 0.930 . S
C639 C632 1.409 . S
C639 C638 1.362 . S
H640 C646 0.930 . S
H641 C649 0.930 . S
H642 C650 0.930 . S
H643 C651 0.930 . S
H644 C654 0.930 . S
H645 C655 0.930 . S
C646 H640 0.930 . S
C646 C647 1.355 . S
C646 C648 1.415 . S
C647 C646 1.355 . S
C647 C649 1.419 1_545 S
C648 C646 1.415 . S
C648 C653 1.425 . S
C648 C655 1.409 . S
C649 H641 0.930 . S
C649 C647 1.419 1_565 S
C649 C650 1.362 . S
C650 H642 0.930 . S
C650 C649 1.362 . S
C650 C653 1.409 1_565 S
C651 H643 0.930 . S
C651 C652 1.355 1_565 S
C651 C653 1.415 1_565 S
C652 C651 1.355 1_545 S
C652 C654 1.419 . S
C653 C648 1.425 . S
C653 C650 1.409 1_545 S
C653 C651 1.415 1_545 S
C654 H644 0.930 . S
C654 C652 1.419 . S
C654 C655 1.362 . S
C655 H645 0.930 . S
C655 C648 1.409 . S
C655 C654 1.362 . S
H656 C662 0.930 . S
H657 C665 0.930 . S
H658 C666 0.930 . S
H659 C667 0.930 . S
H660 C670 0.930 . S
H661 C671 0.930 . S
C662 H656 0.930 . S
C662 C663 1.355 . S
C662 C664 1.415 . S
C663 C662 1.355 . S
C663 C665 1.419 . S
C664 C662 1.415 . S
C664 C669 1.425 1_554 S
C664 C671 1.409 1_554 S
C665 H657 0.930 . S
C665 C663 1.419 . S
C665 C666 1.362 . S
C666 H658 0.930 . S
C666 C665 1.362 . S
C666 C669 1.409 1_554 S
C667 H659 0.930 . S
C667 C668 1.355 . S
C667 C669 1.415 . S
C668 C667 1.355 . S
C668 C670 1.419 . S
C669 C664 1.425 1_556 S
C669 C666 1.409 1_556 S
C669 C667 1.415 . S
C670 H660 0.930 . S
C670 C668 1.419 . S
C670 C671 1.362 . S
C671 H661 0.930 . S
C671 C664 1.409 1_556 S
C671 C670 1.362 . S
H672 C678 0.930 . S
H673 C681 0.930 . S
H674 C682 0.930 . S
H675 C683 0.930 . S
H676 C686 0.930 . S
H677 C687 0.930 . S
C678 H672 0.930 . S
C678 C679 1.355 . S
C678 C680 1.415 . S
C679 C678 1.355 . S
C679 C681 1.419 . S
C680 C678 1.415 . S
C680 C685 1.425 1_556 S
C680 C687 1.409 1_556 S
C681 H673 0.930 . S
C681 C679 1.419 . S
C681 C682 1.362 . S
C682 H674 0.930 . S
C682 C681 1.362 . S
C682 C685 1.409 1_556 S
C683 H675 0.930 . S
C683 C684 1.355 . S
C683 C685 1.415 . S
C684 C683 1.355 . S
C684 C686 1.419 . S
C685 C680 1.425 1_554 S
C685 C682 1.409 1_554 S
C685 C683 1.415 . S
C686 H676 0.930 . S
C686 C684 1.419 . S
C686 C687 1.362 . S
C687 H677 0.930 . S
C687 C680 1.409 1_554 S
C687 C686 1.362 . S
H688 C694 0.930 . S
H689 C697 0.930 . S
H690 C698 0.930 . S
H691 C699 0.930 . S
H692 C702 0.930 . S
H693 C703 0.930 . S
C694 H688 0.930 . S
C694 C695 1.355 . S
C694 C696 1.415 . S
C695 C694 1.355 . S
C695 C697 1.419 . S
C696 C694 1.415 . S
C696 C701 1.425 . S
C696 C703 1.409 . S
C697 H689 0.930 . S
C697 C695 1.419 . S
C697 C698 1.362 . S
C698 H690 0.930 . S
C698 C697 1.362 . S
C698 C701 1.409 . S
C699 H691 0.930 . S
C699 C700 1.355 . S
C699 C701 1.415 . S
C700 C699 1.355 . S
C700 C702 1.419 . S
C701 C696 1.425 . S
C701 C698 1.409 . S
C701 C699 1.415 . S
C702 H692 0.930 . S
C702 C700 1.419 . S
C702 C703 1.362 . S
C703 H693 0.930 . S
C703 C696 1.409 . S
C703 C702 1.362 . S
H704 C710 0.930 . S
H705 C713 0.930 . S
H706 C714 0.930 . S
H707 C715 0.930 . S
H708 C718 0.930 . S
H709 C719 0.930 . S
C710 H704 0.930 . S
C710 C711 1.355 . S
C710 C712 1.415 . S
C711 C710 1.355 . S
C711 C713 1.419 . S
C712 C710 1.415 . S
C712 C717 1.425 . S
C712 C719 1.409 . S
C713 H705 0.930 . S
C713 C711 1.419 . S
C713 C714 1.362 . S
C714 H706 0.930 . S
C714 C713 1.362 . S
C714 C717 1.409 . S
C715 H707 0.930 . S
C715 C716 1.355 . S
C715 C717 1.415 . S
C716 C715 1.355 . S
C716 C718 1.419 . S
C717 C712 1.425 . S
C717 C714 1.409 . S
C717 C715 1.415 . S
C718 H708 0.930 . S
C718 C716 1.419 . S
C718 C719 1.362 . S
C719 H709 0.930 . S
C719 C712 1.409 . S
C719 C718 1.362 . S
H720 C726 0.930 . S
H721 C729 0.930 . S
H722 C730 0.930 . S
H723 C731 0.930 . S
H724 C734 0.930 . S
H725 C735 0.930 . S
C726 H720 0.930 . S
C726 C727 1.355 . S
C726 C728 1.415 . S
C727 C726 1.355 . S
C727 C729 1.419 1_565 S
C728 C726 1.415 . S
C728 C733 1.425 1_665 S
C728 C735 1.409 1_655 S
C729 H721 0.930 . S
C729 C727 1.419 1_545 S
C729 C730 1.362 . S
C730 H722 0.930 . S
C730 C729 1.362 . S
C730 C733 1.409 1_655 S
C731 H723 0.930 . S
C731 C732 1.355 . S
C731 C733 1.415 . S
C732 C731 1.355 . S
C732 C734 1.419 1_545 S
C733 C728 1.425 1_445 S
C733 C730 1.409 1_455 S
C733 C731 1.415 . S
C734 H724 0.930 . S
C734 C732 1.419 1_565 S
C734 C735 1.362 . S
C735 H725 0.930 . S
C735 C728 1.409 1_455 S
C735 C734 1.362 . S
H736 C742 0.930 . S
H737 C745 0.930 . S
H738 C746 0.930 1_455 S
H739 C747 0.930 . S
H740 C750 0.930 . S
H741 C751 0.930 1_655 S
C742 H736 0.930 . S
C742 C743 1.355 1_565 S
C742 C744 1.415 . S
C743 C742 1.355 1_545 S
C743 C745 1.419 . S
C744 C742 1.415 . S
C744 C749 1.425 1_665 S
C744 C751 1.409 1_655 S
C745 H737 0.930 . S
C745 C743 1.419 . S
C745 C746 1.362 . S
C746 H738 0.930 1_655 S
C746 C745 1.362 . S
C746 C749 1.409 1_655 S
C747 H739 0.930 . S
C747 C748 1.355 1_545 S
C747 C749 1.415 . S
C748 C747 1.355 1_565 S
C748 C750 1.419 . S
C749 C744 1.425 1_445 S
C749 C746 1.409 1_455 S
C749 C747 1.415 . S
C750 H740 0.930 . S
C750 C748 1.419 . S
C750 C751 1.362 . S
C751 H741 0.930 1_455 S
C751 C744 1.409 1_455 S
C751 C750 1.362 . S
H752 C758 0.930 . S
H753 C761 0.930 . S
H754 C762 0.930 . S
H755 C763 0.930 . S
H756 C766 0.930 . S
H757 C767 0.930 . S
C758 H752 0.930 . S
C758 C759 1.355 . S
C758 C760 1.415 . S
C759 C758 1.355 . S
C759 C761 1.419 1_545 S
C760 C758 1.415 . S
C760 C765 1.425 1_445 S
C760 C767 1.409 1_455 S
C761 H753 0.930 . S
C761 C759 1.419 1_565 S
C761 C762 1.362 . S
C762 H754 0.930 . S
C762 C761 1.362 . S
C762 C765 1.409 1_455 S
C763 H755 0.930 . S
C763 C764 1.355 . S
C763 C765 1.415 . S
C764 C763 1.355 . S
C764 C766 1.419 1_565 S
C765 C760 1.425 1_665 S
C765 C762 1.409 1_655 S
C765 C763 1.415 . S
C766 H756 0.930 . S
C766 C764 1.419 1_545 S
C766 C767 1.362 . S
C767 H757 0.930 . S
C767 C760 1.409 1_655 S
C767 C766 1.362 . S
H768 C774 0.930 . S
H769 C777 0.930 . S
H770 C778 0.930 1_455 S
H771 C779 0.930 . S
H772 C782 0.930 . S
H773 C783 0.930 1_655 S
C774 H768 0.930 . S
C774 C775 1.355 1_565 S
C774 C776 1.415 . S
C775 C774 1.355 1_545 S
C775 C777 1.419 . S
C776 C774 1.415 . S
C776 C781 1.425 1_665 S
C776 C783 1.409 1_655 S
C777 H769 0.930 . S
C777 C775 1.419 . S
C777 C778 1.362 . S
C778 H770 0.930 1_655 S
C778 C777 1.362 . S
C778 C781 1.409 1_655 S
C779 H771 0.930 . S
C779 C780 1.355 1_545 S
C779 C781 1.415 . S
C780 C779 1.355 1_565 S
C780 C782 1.419 . S
C781 C776 1.425 1_445 S
C781 C778 1.409 1_455 S
C781 C779 1.415 . S
C782 H772 0.930 . S
C782 C780 1.419 . S
C782 C783 1.362 . S
C783 H773 0.930 1_455 S
C783 C776 1.409 1_455 S
C783 C782 1.362 . S
H784 C790 0.930 . S
H785 C793 0.930 . S
H786 C794 0.930 . S
H787 C795 0.930 . S
H788 C798 0.930 . S
H789 C799 0.930 . S
C790 H784 0.930 . S
C790 C791 1.355 . S
C790 C792 1.415 . S
C791 C790 1.355 . S
C791 C793 1.419 . S
C792 C790 1.415 . S
C792 C797 1.425 . S
C792 C799 1.409 . S
C793 H785 0.930 . S
C793 C791 1.419 . S
C793 C794 1.362 . S
C794 H786 0.930 . S
C794 C793 1.362 . S
C794 C797 1.409 . S
C795 H787 0.930 . S
C795 C796 1.355 . S
C795 C797 1.415 . S
C796 C795 1.355 . S
C796 C798 1.419 . S
C797 C792 1.425 . S
C797 C794 1.409 . S
C797 C795 1.415 . S
C798 H788 0.930 . S
C798 C796 1.419 . S
C798 C799 1.362 . S
C799 H789 0.930 . S
C799 C792 1.409 . S
C799 C798 1.362 . S
H800 C806 0.930 . S
H801 C809 0.930 . S
H802 C810 0.930 . S
H803 C811 0.930 . S
H804 C814 0.930 . S
H805 C815 0.930 . S
C806 H800 0.930 . S
C806 C807 1.355 . S
C806 C808 1.415 . S
C807 C806 1.355 . S
C807 C809 1.419 . S
C808 C806 1.415 . S
C808 C813 1.425 . S
C808 C815 1.409 . S
C809 H801 0.930 . S
C809 C807 1.419 . S
C809 C810 1.362 . S
C810 H802 0.930 . S
C810 C809 1.362 . S
C810 C813 1.409 . S
C811 H803 0.930 . S
C811 C812 1.355 . S
C811 C813 1.415 . S
C812 C811 1.355 . S
C812 C814 1.419 . S
C813 C808 1.425 . S
C813 C810 1.409 . S
C813 C811 1.415 . S
C814 H804 0.930 . S
C814 C812 1.419 . S
C814 C815 1.362 . S
C815 H805 0.930 . S
C815 C808 1.409 . S
C815 C814 1.362 . S
H816 C822 0.930 . S
H817 C825 0.930 . S
H818 C826 0.930 . S
H819 C827 0.930 . S
H820 C830 0.930 . S
H821 C831 0.930 . S
C822 H816 0.930 . S
C822 C823 1.355 . S
C822 C824 1.415 . S
C823 C822 1.355 . S
C823 C825 1.419 . S
C824 C822 1.415 . S
C824 C829 1.425 . S
C824 C831 1.409 . S
C825 H817 0.930 . S
C825 C823 1.419 . S
C825 C826 1.362 . S
C826 H818 0.930 . S
C826 C825 1.362 . S
C826 C829 1.409 . S
C827 H819 0.930 . S
C827 C828 1.355 . S
C827 C829 1.415 . S
C828 C827 1.355 . S
C828 C830 1.419 . S
C829 C824 1.425 . S
C829 C826 1.409 . S
C829 C827 1.415 . S
C830 H820 0.930 . S
C830 C828 1.419 . S
C830 C831 1.362 . S
C831 H821 0.930 . S
C831 C824 1.409 . S
C831 C830 1.362 . S
H832 C838 0.930 . S
H833 C841 0.930 . S
H834 C842 0.930 . S
H835 C843 0.930 . S
H836 C846 0.930 . S
H837 C847 0.930 . S
C838 H832 0.930 . S
C838 C839 1.355 . S
C838 C840 1.415 . S
C839 C838 1.355 . S
C839 C841 1.419 . S
C840 C838 1.415 . S
C840 C845 1.425 . S
C840 C847 1.409 . S
C841 H833 0.930 . S
C841 C839 1.419 . S
C841 C842 1.362 . S
C842 H834 0.930 . S
C842 C841 1.362 . S
C842 C845 1.409 . S
C843 H835 0.930 . S
C843 C844 1.355 . S
C843 C845 1.415 . S
C844 C843 1.355 . S
C844 C846 1.419 . S
C845 C840 1.425 . S
C845 C842 1.409 . S
C845 C843 1.415 . S
C846 H836 0.930 . S
C846 C844 1.419 . S
C846 C847 1.362 . S
C847 H837 0.930 . S
C847 C840 1.409 . S
C847 C846 1.362 . S
H848 C854 0.930 . S
H849 C857 0.930 . S
H850 C858 0.930 . S
H851 C859 0.930 . S
H852 C862 0.930 . S
H853 C863 0.930 . S
C854 H848 0.930 . S
C854 C855 1.355 . S
C854 C856 1.415 . S
C855 C854 1.355 . S
C855 C857 1.419 . S
C856 C854 1.415 . S
C856 C861 1.425 . S
C856 C863 1.409 . S
C857 H849 0.930 . S
C857 C855 1.419 . S
C857 C858 1.362 . S
C858 H850 0.930 . S
C858 C857 1.362 . S
C858 C861 1.409 . S
C859 H851 0.930 . S
C859 C860 1.355 . S
C859 C861 1.415 . S
C860 C859 1.355 . S
C860 C862 1.419 . S
C861 C856 1.425 . S
C861 C858 1.409 . S
C861 C859 1.415 . S
C862 H852 0.930 . S
C862 C860 1.419 . S
C862 C863 1.362 . S
C863 H853 0.930 . S
C863 C856 1.409 . S
C863 C862 1.362 . S
H864 C870 0.930 . S
H865 C873 0.930 . S
H866 C874 0.930 . S
H867 C875 0.930 . S
H868 C878 0.930 . S
H869 C879 0.930 . S
C870 H864 0.930 . S
C870 C871 1.355 . S
C870 C872 1.415 . S
C871 C870 1.355 . S
C871 C873 1.419 . S
C872 C870 1.415 . S
C872 C877 1.425 . S
C872 C879 1.409 . S
C873 H865 0.930 . S
C873 C871 1.419 . S
C873 C874 1.362 . S
C874 H866 0.930 . S
C874 C873 1.362 . S
C874 C877 1.409 . S
C875 H867 0.930 . S
C875 C876 1.355 . S
C875 C877 1.415 . S
C876 C875 1.355 . S
C876 C878 1.419 . S
C877 C872 1.425 . S
C877 C874 1.409 . S
C877 C875 1.415 . S
C878 H868 0.930 . S
C878 C876 1.419 . S
C878 C879 1.362 . S
C879 H869 0.930 . S
C879 C872 1.409 . S
C879 C878 1.362 . S
H880 C886 0.930 . S
H881 C889 0.930 . S
H882 C890 0.930 . S
H883 C891 0.930 . S
H884 C894 0.930 . S
H885 C895 0.930 . S
C886 H880 0.930 . S
C886 C887 1.355 . S
C886 C888 1.415 . S
C887 C886 1.355 . S
C887 C889 1.419 . S
C888 C886 1.415 . S
C888 C893 1.425 . S
C888 C895 1.409 . S
C889 H881 0.930 . S
C889 C887 1.419 . S
C889 C890 1.362 . S
C890 H882 0.930 . S
C890 C889 1.362 . S
C890 C893 1.409 . S
C891 H883 0.930 . S
C891 C892 1.355 . S
C891 C893 1.415 . S
C892 C891 1.355 . S
C892 C894 1.419 . S
C893 C888 1.425 . S
C893 C890 1.409 . S
C893 C891 1.415 . S
C894 H884 0.930 . S
C894 C892 1.419 . S
C894 C895 1.362 . S
C895 H885 0.930 . S
C895 C888 1.409 . S
C895 C894 1.362 . S
H896 C902 0.930 . S
H897 C905 0.930 . S
H898 C906 0.930 . S
H899 C907 0.930 . S
H900 C910 0.930 . S
H901 C911 0.930 . S
C902 H896 0.930 . S
C902 C903 1.355 . S
C902 C904 1.415 . S
C903 C902 1.355 . S
C903 C905 1.419 . S
C904 C902 1.415 . S
C904 C909 1.425 . S
C904 C911 1.409 . S
C905 H897 0.930 . S
C905 C903 1.419 . S
C905 C906 1.362 . S
C906 H898 0.930 . S
C906 C905 1.362 . S
C906 C909 1.409 . S
C907 H899 0.930 . S
C907 C908 1.355 . S
C907 C909 1.415 . S
C908 C907 1.355 . S
C908 C910 1.419 . S
C909 C904 1.425 . S
C909 C906 1.409 . S
C909 C907 1.415 . S
C910 H900 0.930 . S
C910 C908 1.419 . S
C910 C911 1.362 . S
C911 H901 0.930 . S
C911 C904 1.409 . S
C911 C910 1.362 . S
H912 C918 0.930 . S
H913 C921 0.930 . S
H914 C922 0.930 . S
H915 C923 0.930 . S
H916 C926 0.930 . S
H917 C927 0.930 . S
C918 H912 0.930 . S
C918 C919 1.355 . S
C918 C920 1.415 . S
C919 C918 1.355 . S
C919 C921 1.419 . S
C920 C918 1.415 . S
C920 C925 1.425 . S
C920 C927 1.409 . S
C921 H913 0.930 . S
C921 C919 1.419 . S
C921 C922 1.362 . S
C922 H914 0.930 . S
C922 C921 1.362 . S
C922 C925 1.409 . S
C923 H915 0.930 . S
C923 C924 1.355 . S
C923 C925 1.415 . S
C924 C923 1.355 . S
C924 C926 1.419 . S
C925 C920 1.425 . S
C925 C922 1.409 . S
C925 C923 1.415 . S
C926 H916 0.930 . S
C926 C924 1.419 . S
C926 C927 1.362 . S
C927 H917 0.930 . S
C927 C920 1.409 . S
C927 C926 1.362 . S
H928 C934 0.930 . S
H929 C937 0.930 . S
H930 C938 0.930 . S
H931 C939 0.930 . S
H932 C942 0.930 . S
H933 C943 0.930 . S
C934 H928 0.930 . S
C934 C935 1.355 . S
C934 C936 1.415 . S
C935 C934 1.355 . S
C935 C937 1.419 . S
C936 C934 1.415 . S
C936 C941 1.425 . S
C936 C943 1.409 . S
C937 H929 0.930 . S
C937 C935 1.419 . S
C937 C938 1.362 . S
C938 H930 0.930 . S
C938 C937 1.362 . S
C938 C941 1.409 . S
C939 H931 0.930 . S
C939 C940 1.355 . S
C939 C941 1.415 . S
C940 C939 1.355 . S
C940 C942 1.419 . S
C941 C936 1.425 . S
C941 C938 1.409 . S
C941 C939 1.415 . S
C942 H932 0.930 . S
C942 C940 1.419 . S
C942 C943 1.362 . S
C943 H933 0.930 . S
C943 C936 1.409 . S
C943 C942 1.362 . S
H944 C950 0.930 . S
H945 C953 0.930 . S
H946 C954 0.930 . S
H947 C955 0.930 . S
H948 C958 0.930 . S
H949 C959 0.930 . S
C950 H944 0.930 . S
C950 C951 1.355 . S
C950 C952 1.415 . S
C951 C950 1.355 . S
C951 C953 1.419 . S
C952 C950 1.415 . S
C952 C957 1.425 . S
C952 C959 1.409 . S
C953 H945 0.930 . S
C953 C951 1.419 . S
C953 C954 1.362 . S
C954 H946 0.930 . S
C954 C953 1.362 . S
C954 C957 1.409 . S
C955 H947 0.930 . S
C955 C956 1.355 . S
C955 C957 1.415 . S
C956 C955 1.355 . S
C956 C958 1.419 . S
C957 C952 1.425 . S
C957 C954 1.409 . S
C957 C955 1.415 . S
C958 H948 0.930 . S
C958 C956 1.419 . S
C958 C959 1.362 . S
C959 H949 0.930 . S
C959 C952 1.409 . S
C959 C958 1.362 . S
H960 C966 0.930 . S
H961 C969 0.930 . S
H962 C970 0.930 . S
H963 C971 0.930 . S
H964 C974 0.930 . S
H965 C975 0.930 . S
C966 H960 0.930 . S
C966 C967 1.355 . S
C966 C968 1.415 . S
C967 C966 1.355 . S
C967 C969 1.419 . S
C968 C966 1.415 . S
C968 C973 1.425 . S
C968 C975 1.409 . S
C969 H961 0.930 . S
C969 C967 1.419 . S
C969 C970 1.362 . S
C970 H962 0.930 . S
C970 C969 1.362 . S
C970 C973 1.409 . S
C971 H963 0.930 . S
C971 C972 1.355 . S
C971 C973 1.415 . S
C972 C971 1.355 . S
C972 C974 1.419 . S
C973 C968 1.425 . S
C973 C970 1.409 . S
C973 C971 1.415 . S
C974 H964 0.930 . S
C974 C972 1.419 . S
C974 C975 1.362 . S
C975 H965 0.930 . S
C975 C968 1.409 . S
C975 C974 1.362 . S
H976 C982 0.930 . S
H977 C985 0.930 . S
H978 C986 0.930 . S
H979 C987 0.930 . S
H980 C990 0.930 . S
H981 C991 0.930 . S
C982 H976 0.930 . S
C982 C983 1.355 . S
C982 C984 1.415 1_565 S
C983 C982 1.355 . S
C983 C985 1.419 . S
C984 C982 1.415 1_545 S
C984 C989 1.425 . S
C984 C991 1.409 . S
C985 H977 0.930 . S
C985 C983 1.419 . S
C985 C986 1.362 1_565 S
C986 H978 0.930 . S
C986 C985 1.362 1_545 S
C986 C989 1.409 . S
C987 H979 0.930 . S
C987 C988 1.355 . S
C987 C989 1.415 . S
C988 C987 1.355 . S
C988 C990 1.419 . S
C989 C984 1.425 . S
C989 C986 1.409 . S
C989 C987 1.415 . S
C990 H980 0.930 . S
C990 C988 1.419 . S
C990 C991 1.362 . S
C991 H981 0.930 . S
C991 C984 1.409 . S
C991 C990 1.362 . S
H992 C998 0.930 . S
H993 C1001 0.930 . S
H994 C1002 0.930 . S
H995 C1003 0.930 . S
H996 C1006 0.930 . S
H997 C1007 0.930 . S
C998 H992 0.930 . S
C998 C999 1.355 . S
C998 C1000 1.415 . S
C999 C998 1.355 . S
C999 C1001 1.419 . S
C1000 C998 1.415 . S
C1000 C1005 1.425 . S
C1000 C1007 1.409 . S
C1001 H993 0.930 . S
C1001 C999 1.419 . S
C1001 C1002 1.362 . S
C1002 H994 0.930 . S
C1002 C1001 1.362 . S
C1002 C1005 1.409 . S
C1003 H995 0.930 . S
C1003 C1004 1.355 . S
C1003 C1005 1.415 1_545 S
C1004 C1003 1.355 . S
C1004 C1006 1.419 . S
C1005 C1000 1.425 . S
C1005 C1002 1.409 . S
C1005 C1003 1.415 1_565 S
C1006 H996 0.930 . S
C1006 C1004 1.419 . S
C1006 C1007 1.362 1_545 S
C1007 H997 0.930 . S
C1007 C1000 1.409 . S
C1007 C1006 1.362 1_565 S
H1008 C1014 0.930 . S
H1009 C1017 0.930 . S
H1010 C1018 0.930 . S
H1011 C1019 0.930 . S
H1012 C1022 0.930 . S
H1013 C1023 0.930 . S
C1014 H1008 0.930 . S
C1014 C1015 1.355 . S
C1014 C1016 1.415 1_545 S
C1015 C1014 1.355 . S
C1015 C1017 1.419 . S
C1016 C1014 1.415 1_565 S
C1016 C1021 1.425 . S
C1016 C1023 1.409 . S
C1017 H1009 0.930 . S
C1017 C1015 1.419 . S
C1017 C1018 1.362 1_545 S
C1018 H1010 0.930 . S
C1018 C1017 1.362 1_565 S
C1018 C1021 1.409 . S
C1019 H1011 0.930 . S
C1019 C1020 1.355 . S
C1019 C1021 1.415 . S
C1020 C1019 1.355 . S
C1020 C1022 1.419 . S
C1021 C1016 1.425 . S
C1021 C1018 1.409 . S
C1021 C1019 1.415 . S
C1022 H1012 0.930 . S
C1022 C1020 1.419 . S
C1022 C1023 1.362 . S
C1023 H1013 0.930 . S
C1023 C1016 1.409 . S
C1023 C1022 1.362 . S
H1024 C1030 0.930 . S
H1025 C1033 0.930 . S
H1026 C1034 0.930 . S
H1027 C1035 0.930 . S
H1028 C1038 0.930 . S
H1029 C1039 0.930 . S
C1030 H1024 0.930 . S
C1030 C1031 1.355 . S
C1030 C1032 1.415 1_565 S
C1031 C1030 1.355 . S
C1031 C1033 1.419 . S
C1032 C1030 1.415 1_545 S
C1032 C1037 1.425 . S
C1032 C1039 1.409 . S
C1033 H1025 0.930 . S
C1033 C1031 1.419 . S
C1033 C1034 1.362 1_565 S
C1034 H1026 0.930 . S
C1034 C1033 1.362 1_545 S
C1034 C1037 1.409 . S
C1035 H1027 0.930 . S
C1035 C1036 1.355 . S
C1035 C1037 1.415 . S
C1036 C1035 1.355 . S
C1036 C1038 1.419 . S
C1037 C1032 1.425 . S
C1037 C1034 1.409 . S
C1037 C1035 1.415 . S
C1038 H1028 0.930 . S
C1038 C1036 1.419 . S
C1038 C1039 1.362 . S
C1039 H1029 0.930 . S
C1039 C1032 1.409 . S
C1039 C1038 1.362 . S
H1040 C1046 0.930 . S
H1041 C1049 0.930 . S
H1042 C1050 0.930 . S
H1043 C1051 0.930 . S
H1044 C1054 0.930 . S
H1045 C1055 0.930 . S
C1046 H1040 0.930 . S
C1046 C1047 1.355 . S
C1046 C1048 1.415 . S
C1047 C1046 1.355 . S
C1047 C1049 1.419 . S
C1048 C1046 1.415 . S
C1048 C1053 1.425 . S
C1048 C1055 1.409 . S
C1049 H1041 0.930 . S
C1049 C1047 1.419 . S
C1049 C1050 1.362 . S
C1050 H1042 0.930 . S
C1050 C1049 1.362 . S
C1050 C1053 1.409 . S
C1051 H1043 0.930 . S
C1051 C1052 1.355 . S
C1051 C1053 1.415 1_545 S
C1052 C1051 1.355 . S
C1052 C1054 1.419 . S
C1053 C1048 1.425 . S
C1053 C1050 1.409 . S
C1053 C1051 1.415 1_565 S
C1054 H1044 0.930 . S
C1054 C1052 1.419 . S
C1054 C1055 1.362 1_545 S
C1055 H1045 0.930 . S
C1055 C1048 1.409 . S
C1055 C1054 1.362 1_565 S
H1056 C1062 0.930 . S
H1057 C1065 0.930 . S
H1058 C1066 0.930 . S
H1059 C1067 0.930 . S
H1060 C1070 0.930 . S
H1061 C1071 0.930 . S
C1062 H1056 0.930 . S
C1062 C1063 1.355 . S
C1062 C1064 1.415 . S
C1063 C1062 1.355 . S
C1063 C1065 1.419 . S
C1064 C1062 1.415 . S
C1064 C1069 1.425 . S
C1064 C1071 1.409 . S
C1065 H1057 0.930 . S
C1065 C1063 1.419 . S
C1065 C1066 1.362 . S
C1066 H1058 0.930 . S
C1066 C1065 1.362 . S
C1066 C1069 1.409 . S
C1067 H1059 0.930 . S
C1067 C1068 1.355 . S
C1067 C1069 1.415 1_565 S
C1068 C1067 1.355 . S
C1068 C1070 1.419 . S
C1069 C1064 1.425 . S
C1069 C1066 1.409 . S
C1069 C1067 1.415 1_545 S
C1070 H1060 0.930 . S
C1070 C1068 1.419 . S
C1070 C1071 1.362 1_565 S
C1071 H1061 0.930 . S
C1071 C1064 1.409 . S
C1071 C1070 1.362 1_545 S
H1072 C1078 0.930 . S
H1073 C1081 0.930 . S
H1074 C1082 0.930 . S
H1075 C1083 0.930 . S
H1076 C1086 0.930 . S
H1077 C1087 0.930 . S
C1078 H1072 0.930 . S
C1078 C1079 1.355 . S
C1078 C1080 1.415 1_565 S
C1079 C1078 1.355 . S
C1079 C1081 1.419 . S
C1080 C1078 1.415 1_545 S
C1080 C1085 1.425 . S
C1080 C1087 1.409 . S
C1081 H1073 0.930 . S
C1081 C1079 1.419 . S
C1081 C1082 1.362 1_565 S
C1082 H1074 0.930 . S
C1082 C1081 1.362 1_545 S
C1082 C1085 1.409 . S
C1083 H1075 0.930 . S
C1083 C1084 1.355 . S
C1083 C1085 1.415 . S
C1084 C1083 1.355 . S
C1084 C1086 1.419 . S
C1085 C1080 1.425 . S
C1085 C1082 1.409 . S
C1085 C1083 1.415 . S
C1086 H1076 0.930 . S
C1086 C1084 1.419 . S
C1086 C1087 1.362 . S
C1087 H1077 0.930 . S
C1087 C1080 1.409 . S
C1087 C1086 1.362 . S
H1088 C1094 0.930 . S
H1089 C1097 0.930 . S
H1090 C1098 0.930 . S
H1091 C1099 0.930 . S
H1092 C1102 0.930 . S
H1093 C1103 0.930 . S
C1094 H1088 0.930 . S
C1094 C1095 1.355 . S
C1094 C1096 1.415 . S
C1095 C1094 1.355 . S
C1095 C1097 1.419 . S
C1096 C1094 1.415 . S
C1096 C1101 1.425 . S
C1096 C1103 1.409 . S
C1097 H1089 0.930 . S
C1097 C1095 1.419 . S
C1097 C1098 1.362 . S
C1098 H1090 0.930 . S
C1098 C1097 1.362 . S
C1098 C1101 1.409 . S
C1099 H1091 0.930 . S
C1099 C1100 1.355 . S
C1099 C1101 1.415 1_545 S
C1100 C1099 1.355 . S
C1100 C1102 1.419 . S
C1101 C1096 1.425 . S
C1101 C1098 1.409 . S
C1101 C1099 1.415 1_565 S
C1102 H1092 0.930 . S
C1102 C1100 1.419 . S
C1102 C1103 1.362 1_545 S
C1103 H1093 0.930 . S
C1103 C1096 1.409 . S
C1103 C1102 1.362 1_565 S
C343 C19 1.361 . S
C348 C209 1.373 . S
C359 C41 1.358 . S
C364 C187 1.383 . S
C375 C251 1.357 . S
C380 C61 1.388 . S
C391 C82 1.358 . S
C396 C229 1.397 . S
C407 C292 1.366 . S
C412 C103 1.366 . S
C423 C271 1.393 . S
C428 C124 1.357 . S
C439 C335 1.434 . S
C444 C145 1.437 . S
C455 C166 1.383 . S
C460 C313 1.357 . S
C471 C46 1.349 . S
C476 C4 1.291 . S
C487 C67 1.310 . S
C492 C28 1.248 . S
C503 C130 1.251 . S
C508 C88 1.238 . S
C519 C109 1.238 . S
C524 C151 1.250 . S
C535 C214 1.357 . S
C540 C172 1.341 . S
C551 C238 1.360 . S
C556 C196 1.327 . S
C567 C256 1.234 . S
C572 C298 1.270 . S
C583 C277 1.351 . S
C588 C322 1.351 . S
C599 C112 1.367 . S
C604 C7 1.247 . S
C615 C91 1.366 . S
C620 C25 1.248 . S
C631 C49 1.244 . S
C636 C154 1.370 . S
C647 C133 1.245 . S
C652 C70 1.369 . S
C663 C175 1.281 . S
C668 C280 1.335 . S
C679 C259 1.287 . S
C684 C193 1.330 . S
C695 C217 1.260 . S
C700 C319 1.355 . S
C711 C301 1.268 . S
C716 C235 1.348 . S
C727 C37 1.441 . S
C732 C3 1.392 . S
C743 C66 1.425 . S
C748 C45 1.361 . S
C759 C108 1.388 . S
C764 C87 1.443 . S
C775 C129 1.361 . S
C780 C150 1.425 . S
C791 C205 1.423 . S
C796 C171 1.362 . S
C807 C247 1.427 . S
C812 C213 1.359 . S
C823 C255 1.432 . S
C828 C276 1.403 . S
C839 C297 1.363 . S
C844 C331 1.421 . S
C855 C16 1.278 . S
C860 C20 1.319 . S
C871 C24 1.281 . S
C876 C40 1.320 . S
C887 C58 1.288 . S
C892 C62 1.268 . S
C903 C83 1.230 . S
C908 C79 1.197 . S
C919 C100 1.207 . S
C924 C104 1.224 . S
C935 C125 1.319 . S
C940 C121 1.294 . S
C951 C142 1.278 . S
C956 C146 1.319 . S
C967 C163 1.259 . S
C972 C167 1.241 . S
C983 C188 1.234 . S
C988 C184 1.195 . S
C999 C192 1.245 . S
C1004 C208 1.306 . S
C1015 C230 1.275 . S
C1020 C226 1.209 . S
C1031 C250 1.239 . S
C1036 C234 1.256 . S
C1047 C268 1.302 . S
C1052 C272 1.291 . S
C1063 C289 1.252 . S
C1068 C293 1.237 . S
C1079 C314 1.280 . S
C1084 C310 1.296 . S
C1095 C318 1.231 . S
C1100 C334 1.227 . S
