# Generated by pormake.
# Topology lcy-e, (6)-cn, num edge types: 1
# Building blocks:
#     Node 0, Type 0, BuildingBlock: PAMTUU_clean_sbu_0, # of connection points: 6
#     Node 1, Type 0, BuildingBlock: PAMTUU_clean_sbu_0, # of connection points: 6
#     Node 2, Type 0, BuildingBlock: PAMTUU_clean_sbu_0, # of connection points: 6
#     Node 3, Type 0, BuildingBlock: PAMTUU_clean_sbu_0, # of connection points: 6
#     Node 4, Type 0, BuildingBlock: PAMTUU_clean_sbu_0, # of connection points: 6
#     Node 5, Type 0, BuildingBlock: PAMTUU_clean_sbu_0, # of connection points: 6
#     Node 6, Type 0, BuildingBlock: PAMTUU_clean_sbu_0, # of connection points: 6
#     Node 7, Type 0, BuildingBlock: PAMTUU_clean_sbu_0, # of connection points: 6
#     Node 8, Type 0, BuildingBlock: PAMTUU_clean_sbu_0, # of connection points: 6
#     Node 9, Type 0, BuildingBlock: PAMTUU_clean_sbu_0, # of connection points: 6
#     Node 10, Type 0, BuildingBlock: PAMTUU_clean_sbu_0, # of connection points: 6
#     Node 11, Type 0, BuildingBlock: PAMTUU_clean_sbu_0, # of connection points: 6
#     Edge 12, Type (0, 0), BuildingBlock: KIFKEQ_clean_linker_1, # of connection points: 2
#     Edge 13, Type (0, 0), BuildingBlock: KIFKEQ_clean_linker_1, # of connection points: 2
#     Edge 14, Type (0, 0), BuildingBlock: KIFKEQ_clean_linker_1, # of connection points: 2
#     Edge 15, Type (0, 0), BuildingBlock: KIFKEQ_clean_linker_1, # of connection points: 2
#     Edge 16, Type (0, 0), BuildingBlock: KIFKEQ_clean_linker_1, # of connection points: 2
#     Edge 17, Type (0, 0), BuildingBlock: KIFKEQ_clean_linker_1, # of connection points: 2
#     Edge 18, Type (0, 0), BuildingBlock: KIFKEQ_clean_linker_1, # of connection points: 2
#     Edge 19, Type (0, 0), BuildingBlock: KIFKEQ_clean_linker_1, # of connection points: 2
#     Edge 20, Type (0, 0), BuildingBlock: KIFKEQ_clean_linker_1, # of connection points: 2
#     Edge 21, Type (0, 0), BuildingBlock: KIFKEQ_clean_linker_1, # of connection points: 2
#     Edge 22, Type (0, 0), BuildingBlock: KIFKEQ_clean_linker_1, # of connection points: 2
#     Edge 23, Type (0, 0), BuildingBlock: KIFKEQ_clean_linker_1, # of connection points: 2
#     Edge 24, Type (0, 0), BuildingBlock: KIFKEQ_clean_linker_1, # of connection points: 2
#     Edge 25, Type (0, 0), BuildingBlock: KIFKEQ_clean_linker_1, # of connection points: 2
#     Edge 26, Type (0, 0), BuildingBlock: KIFKEQ_clean_linker_1, # of connection points: 2
#     Edge 27, Type (0, 0), BuildingBlock: KIFKEQ_clean_linker_1, # of connection points: 2
#     Edge 28, Type (0, 0), BuildingBlock: KIFKEQ_clean_linker_1, # of connection points: 2
#     Edge 29, Type (0, 0), BuildingBlock: KIFKEQ_clean_linker_1, # of connection points: 2
#     Edge 30, Type (0, 0), BuildingBlock: KIFKEQ_clean_linker_1, # of connection points: 2
#     Edge 31, Type (0, 0), BuildingBlock: KIFKEQ_clean_linker_1, # of connection points: 2
#     Edge 32, Type (0, 0), BuildingBlock: KIFKEQ_clean_linker_1, # of connection points: 2
#     Edge 33, Type (0, 0), BuildingBlock: KIFKEQ_clean_linker_1, # of connection points: 2
#     Edge 34, Type (0, 0), BuildingBlock: KIFKEQ_clean_linker_1, # of connection points: 2
#     Edge 35, Type (0, 0), BuildingBlock: KIFKEQ_clean_linker_1, # of connection points: 2
#     Edge 36, Type (0, 0), BuildingBlock: KIFKEQ_clean_linker_1, # of connection points: 2
#     Edge 37, Type (0, 0), BuildingBlock: KIFKEQ_clean_linker_1, # of connection points: 2
#     Edge 38, Type (0, 0), BuildingBlock: KIFKEQ_clean_linker_1, # of connection points: 2
#     Edge 39, Type (0, 0), BuildingBlock: KIFKEQ_clean_linker_1, # of connection points: 2
#     Edge 40, Type (0, 0), BuildingBlock: KIFKEQ_clean_linker_1, # of connection points: 2
#     Edge 41, Type (0, 0), BuildingBlock: KIFKEQ_clean_linker_1, # of connection points: 2
#     Edge 42, Type (0, 0), BuildingBlock: KIFKEQ_clean_linker_1, # of connection points: 2
#     Edge 43, Type (0, 0), BuildingBlock: KIFKEQ_clean_linker_1, # of connection points: 2
#     Edge 44, Type (0, 0), BuildingBlock: KIFKEQ_clean_linker_1, # of connection points: 2
#     Edge 45, Type (0, 0), BuildingBlock: KIFKEQ_clean_linker_1, # of connection points: 2
#     Edge 46, Type (0, 0), BuildingBlock: KIFKEQ_clean_linker_1, # of connection points: 2
#     Edge 47, Type (0, 0), BuildingBlock: KIFKEQ_clean_linker_1, # of connection points: 2
# Relax obj value: 0.150
# Max RMSD: 0.296
# Mean RMSD: 0.283
data_MOF--net-lcy-e--node1-PAMTUU_clean_sbu_0--edge1-KIFKEQ_clean_linker_1
_symmetry_space_group_name_H-M    P1
_symmetry_Int_Tables_number       1
_symmetry_cell_setting            triclinic
loop_
_symmetry_equiv_pos_as_xyz
'x, y, z'
_cell_length_a     44.844661
_cell_length_b     44.872207
_cell_length_c     44.884653
_cell_angle_alpha  90.028452
_cell_angle_beta   90.224985
_cell_angle_gamma 89.578865
loop_
_atom_site_label
_atom_site_type_symbol
_atom_site_fract_x
_atom_site_fract_y
_atom_site_fract_z
_atom_type_partial_charge
Tb0 Tb 0.10649 0.28925 0.48132 0.0
Tb1 Tb 0.12833 0.23846 0.5296 0.0
C2 C 0.07964 0.2837 0.54648 0.0
C3 C 0.10528 0.34038 0.41584 0.0
C4 C 0.12934 0.36564 0.36357 0.0
C5 C 0.10783 0.38117 0.38044 0.0
C6 C 0.09588 0.36861 0.40623 0.0
C7 C 0.12729 0.32504 0.3996 0.0
C8 C 0.13917 0.33752 0.37367 0.0
C9 C 0.0913 0.32701 0.44226 0.0
O10 O 0.14922 0.30353 0.49818 0.0
O11 O 0.14673 0.28145 0.54408 0.0
O12 O 0.16411 0.24385 0.49827 0.0
O13 O 0.1364 0.2583 0.45791 0.0
O14 O 0.13441 0.22353 0.57358 0.0
O15 O 0.14817 0.19645 0.53623 0.0
O16 O 0.09717 0.21706 0.49862 0.0
O17 O 0.07002 0.25849 0.48591 0.0
O18 O 0.08813 0.30192 0.52504 0.0
O19 O 0.08633 0.25525 0.54572 0.0
C20 C 0.15614 0.30301 0.52655 0.0
O21 O 0.08554 0.29862 0.44056 0.0
O22 O 0.10262 0.33416 0.46807 0.0
C23 C 0.16066 0.24619 0.46941 0.0
C24 C 0.13095 0.17124 0.57857 0.0
C25 C 0.10597 0.12006 0.60483 0.0
C26 C 0.1371 0.12362 0.60351 0.0
C27 C 0.14943 0.14898 0.59055 0.0
C28 C 0.09988 0.16767 0.57921 0.0
C29 C 0.08748 0.14229 0.59228 0.0
C30 C 0.14458 0.19762 0.56499 0.0
C31 C 0.07281 0.22947 0.48763 0.0
H32 H 0.10021 0.40314 0.37379 0.0
H33 H 0.07908 0.38088 0.41857 0.0
H34 H 0.13495 0.30322 0.40673 0.0
H35 H 0.15554 0.32484 0.36121 0.0
H36 H 0.15202 0.10674 0.61244 0.0
H37 H 0.17346 0.15121 0.5899 0.0
H38 H 0.08527 0.18459 0.56982 0.0
H39 H 0.06344 0.1404 0.59314 0.0
Tb40 Tb 0.02953 0.91475 0.78166 0.0
Tb41 Tb 0.98055 0.89237 0.73215 0.0
C42 C 0.96421 0.94196 0.77689 0.0
C43 C 0.09591 0.91428 0.83135 0.0
C44 C 0.14578 0.88557 0.85753 0.0
C45 C 0.1277 0.905 0.87434 0.0
C46 C 0.10308 0.91927 0.86134 0.0
C47 C 0.11376 0.89469 0.81449 0.0
C48 C 0.1386 0.88063 0.82742 0.0
C49 C 0.06977 0.92954 0.81815 0.0
O50 O 0.01292 0.87283 0.79764 0.0
O51 O 0.96681 0.87414 0.77547 0.0
O52 O 0.0118 0.85614 0.73858 0.0
O53 O 0.0522 0.88423 0.75087 0.0
O54 O 0.93647 0.88661 0.71732 0.0
O55 O 0.97375 0.87192 0.69063 0.0
O56 O 0.01124 0.92305 0.70997 0.0
O57 O 0.02356 0.95098 0.75068 0.0
O58 O 0.98594 0.93318 0.79489 0.0
O59 O 0.96393 0.93454 0.74863 0.0
C60 C 0.98459 0.86594 0.79757 0.0
O61 O 0.07087 0.93483 0.78961 0.0
O62 O 0.04372 0.9197 0.82616 0.0
C63 C 0.0407 0.85931 0.74071 0.0
C64 C 0.93127 0.88911 0.66491 0.0
C65 C 0.90496 0.91325 0.6129 0.0
C66 C 0.90709 0.8822 0.61696 0.0
C67 C 0.92006 0.87029 0.64272 0.0
C68 C 0.9298 0.92011 0.66086 0.0
C69 C 0.91669 0.9321 0.63508 0.0
C70 C 0.94496 0.87588 0.69168 0.0
C71 C 0.02168 0.94776 0.72177 0.0
H72 H 0.13285 0.9095 0.89751 0.0
H73 H 0.08961 0.93425 0.87473 0.0
H74 H 0.10851 0.89021 0.79134 0.0
H75 H 0.15193 0.86556 0.81401 0.0
H76 H 0.89882 0.86701 0.60014 0.0
H77 H 0.92136 0.84631 0.64531 0.0
H78 H 0.9386 0.935 0.6777 0.0
H79 H 0.9152 0.95609 0.63282 0.0
Tb80 Tb 0.38051 0.76338 0.97964 0.0
Tb81 Tb 0.35783 0.81183 0.02977 0.0
C82 C 0.40803 0.76726 0.04467 0.0
C83 C 0.38095 0.71386 0.91341 0.0
C84 C 0.35239 0.68849 0.86341 0.0
C85 C 0.38358 0.69161 0.86414 0.0
C86 C 0.39771 0.70415 0.88894 0.0
C87 C 0.34979 0.71111 0.91273 0.0
C88 C 0.33564 0.6984 0.888 0.0
C89 C 0.39617 0.72763 0.93901 0.0
O90 O 0.33878 0.74683 0.99619 0.0
O91 O 0.33992 0.76813 0.04264 0.0
O92 O 0.32161 0.80648 0.99866 0.0
O93 O 0.34902 0.79402 0.95765 0.0
O94 O 0.35275 0.82574 0.07419 0.0
O95 O 0.33676 0.85296 0.03774 0.0
O96 O 0.38777 0.83492 0.99909 0.0
O97 O 0.41626 0.7948 0.98545 0.0
O98 O 0.39909 0.7495 0.02299 0.0
O99 O 0.40057 0.79553 0.04509 0.0
C100 C 0.33186 0.74639 0.02452 0.0
O101 O 0.39945 0.75642 0.93745 0.0
O102 O 0.38746 0.71929 0.96539 0.0
C103 C 0.32462 0.80505 0.96972 0.0
C104 C 0.35483 0.87809 0.0799 0.0
C105 C 0.37926 0.93001 0.10554 0.0
C106 C 0.34826 0.92527 0.10559 0.0
C107 C 0.33621 0.89955 0.09294 0.0
C108 C 0.38574 0.88282 0.07922 0.0
C109 C 0.39787 0.90855 0.09199 0.0
C110 C 0.34147 0.85147 0.06636 0.0
C111 C 0.41263 0.82364 0.98824 0.0
H112 H 0.39714 0.68388 0.84573 0.0
H113 H 0.42177 0.70625 0.88902 0.0
H114 H 0.33641 0.71885 0.93129 0.0
H115 H 0.31157 0.69659 0.888 0.0
H116 H 0.33321 0.94153 0.11531 0.0
H117 H 0.31227 0.89645 0.0933 0.0
H118 H 0.40044 0.86656 0.06896 0.0
H119 H 0.42183 0.91134 0.09177 0.0
Tb120 Tb 0.45343 0.13882 0.27951 0.0
Tb121 Tb 0.50218 0.16157 0.23048 0.0
C122 C 0.51901 0.11228 0.27533 0.0
C123 C 0.38741 0.1388 0.32899 0.0
C124 C 0.33785 0.16752 0.35527 0.0
C125 C 0.35579 0.14771 0.37191 0.0
C126 C 0.38027 0.13344 0.35885 0.0
C127 C 0.36969 0.15874 0.3123 0.0
C128 C 0.34498 0.17281 0.32528 0.0
C129 C 0.41349 0.12367 0.31579 0.0
O130 O 0.46933 0.18109 0.29544 0.0
O131 O 0.51557 0.18003 0.274 0.0
O132 O 0.47044 0.19743 0.23633 0.0
O133 O 0.43038 0.16892 0.2484 0.0
O134 O 0.54625 0.16814 0.21636 0.0
O135 O 0.50893 0.18167 0.18884 0.0
O136 O 0.47207 0.13021 0.20806 0.0
O137 O 0.45988 0.10247 0.24882 0.0
O138 O 0.49724 0.12096 0.29315 0.0
O139 O 0.51924 0.11964 0.24707 0.0
C140 C 0.49758 0.1882 0.29582 0.0
O141 O 0.41224 0.1185 0.28722 0.0
O142 O 0.43953 0.1336 0.32393 0.0
C143 C 0.44158 0.19392 0.23822 0.0
C144 C 0.55201 0.16502 0.1641 0.0
C145 C 0.57924 0.14063 0.11287 0.0
C146 C 0.57665 0.1717 0.11656 0.0
C147 C 0.56322 0.18373 0.14193 0.0
C148 C 0.55399 0.13399 0.16045 0.0
C149 C 0.56754 0.12189 0.13506 0.0
C150 C 0.53778 0.17835 0.19044 0.0
C151 C 0.4619 0.10545 0.21991 0.0
H152 H 0.35066 0.14295 0.39498 0.0
H153 H 0.39366 0.11819 0.37211 0.0
H154 H 0.37495 0.1635 0.28926 0.0
H155 H 0.33174 0.18817 0.31202 0.0
H156 H 0.58487 0.1868 0.09972 0.0
H157 H 0.56155 0.20773 0.14423 0.0
H158 H 0.5452 0.11918 0.17728 0.0
H159 H 0.56938 0.09789 0.1331 0.0
Tb160 Tb 0.60406 0.26601 0.5552 0.0
Tb161 Tb 0.62897 0.31423 0.50639 0.0
C162 C 0.57918 0.27068 0.4889 0.0
C163 C 0.60079 0.2168 0.62187 0.0
C164 C 0.62525 0.19048 0.67382 0.0
C165 C 0.60302 0.17585 0.65718 0.0
C166 C 0.59089 0.18894 0.63155 0.0
C167 C 0.62341 0.23129 0.63794 0.0
C168 C 0.63546 0.21829 0.66372 0.0
C169 C 0.58707 0.23051 0.59526 0.0
O170 O 0.64587 0.24824 0.53947 0.0
O171 O 0.64669 0.27025 0.49337 0.0
O172 O 0.66425 0.30683 0.53822 0.0
O173 O 0.63492 0.29624 0.57817 0.0
O174 O 0.63655 0.32823 0.46244 0.0
O175 O 0.64971 0.3555 0.49982 0.0
O176 O 0.59785 0.33749 0.53625 0.0
O177 O 0.56855 0.2978 0.54784 0.0
O178 O 0.58609 0.25286 0.51138 0.0
O179 O 0.58717 0.29871 0.48878 0.0
C180 C 0.65366 0.24796 0.51137 0.0
O181 O 0.58295 0.2593 0.59622 0.0
O182 O 0.59752 0.22188 0.56958 0.0
C183 C 0.66031 0.3056 0.56703 0.0
C184 C 0.633 0.38047 0.45684 0.0
C185 C 0.6078 0.43178 0.43002 0.0
C186 C 0.63896 0.42809 0.43201 0.0
C187 C 0.65139 0.40267 0.44525 0.0
C188 C 0.60191 0.38413 0.45542 0.0
C189 C 0.58941 0.40954 0.44207 0.0
C190 C 0.64661 0.35408 0.47098 0.0
C191 C 0.5724 0.32657 0.54566 0.0
H192 H 0.59507 0.15413 0.66382 0.0
H193 H 0.57365 0.17729 0.61932 0.0
H194 H 0.63153 0.25279 0.63075 0.0
H195 H 0.65236 0.23032 0.67602 0.0
H196 H 0.65381 0.44495 0.42348 0.0
H197 H 0.67544 0.40037 0.44648 0.0
H198 H 0.58734 0.36728 0.4645 0.0
H199 H 0.56536 0.41147 0.44068 0.0
Tb200 Tb 1.00293 0.39095 0.80541 0.0
Tb201 Tb 0.95284 0.4134 0.75645 0.0
C202 C 0.99792 0.36433 0.73997 0.0
C203 C 0.0533 0.39056 0.87134 0.0
C204 C 0.07809 0.41843 0.92207 0.0
C205 C 0.07581 0.3872 0.92057 0.0
C206 C 0.06357 0.37343 0.89542 0.0
C207 C 0.05522 0.42175 0.87277 0.0
C208 C 0.06765 0.43556 0.89785 0.0
C209 C 0.03975 0.37563 0.84543 0.0
O210 O 0.01819 0.43329 0.78874 0.0
O211 O 0.9961 0.43147 0.74262 0.0
O212 O 0.95864 0.44928 0.78769 0.0
O213 O 0.97209 0.42144 0.8282 0.0
O214 O 0.93769 0.4189 0.71241 0.0
O215 O 0.91126 0.43409 0.74962 0.0
O216 O 0.93098 0.3827 0.78725 0.0
O217 O 0.97191 0.35477 0.79995 0.0
O218 O 0.01597 0.37245 0.76183 0.0
O219 O 0.96952 0.37135 0.74029 0.0
C220 C 0.01776 0.44041 0.76043 0.0
O221 O 0.01111 0.37125 0.84712 0.0
O222 O 0.04745 0.38533 0.81919 0.0
C223 C 0.96056 0.44586 0.81656 0.0
C224 C 0.88524 0.4162 0.70791 0.0
C225 C 0.83311 0.39131 0.68306 0.0
C226 C 0.83759 0.42234 0.68277 0.0
C227 C 0.86341 0.43461 0.69504 0.0
C228 C 0.88076 0.38529 0.70887 0.0
C229 C 0.85491 0.37293 0.6965 0.0
C230 C 0.91204 0.42977 0.72093 0.0
C231 C 0.94294 0.35794 0.79772 0.0
H232 H 0.08396 0.37336 0.93865 0.0
H233 H 0.06211 0.34934 0.89478 0.0
H234 H 0.04703 0.43541 0.85455 0.0
H235 H 0.06881 0.45965 0.89843 0.0
H236 H 0.82107 0.43721 0.6731 0.0
H237 H 0.86634 0.45856 0.69448 0.0
H238 H 0.89731 0.37075 0.71901 0.0
H239 H 0.85232 0.34895 0.69688 0.0
Tb240 Tb 0.85225 0.73868 1.00556 0.0
Tb241 Tb 0.87557 0.78767 0.05446 0.0
C242 C 0.82536 0.80397 0.01029 0.0
C243 C 0.85186 0.67256 0.95617 0.0
C244 C 0.88077 0.62308 0.92998 0.0
C245 C 0.86048 0.64055 0.91341 0.0
C246 C 0.84611 0.665 0.92643 0.0
C247 C 0.87227 0.65529 0.97278 0.0
C248 C 0.88644 0.63062 0.95984 0.0
C249 C 0.8367 0.69863 0.96934 0.0
O250 O 0.89408 0.75502 0.98902 0.0
O251 O 0.8933 0.80118 0.0109 0.0
O252 O 0.91158 0.75618 0.04792 0.0
O253 O 0.88321 0.71589 0.03597 0.0
O254 O 0.8813 0.83173 0.06913 0.0
O255 O 0.89718 0.79452 0.09542 0.0
O256 O 0.84536 0.75719 0.07747 0.0
O257 O 0.81677 0.74417 0.03732 0.0
O258 O 0.83386 0.78225 0.99232 0.0
O259 O 0.83304 0.80412 0.0385 0.0
C260 C 0.90115 0.78329 0.98886 0.0
O261 O 0.8318 0.69751 0.99794 0.0
O262 O 0.8465 0.72463 0.96116 0.0
C263 C 0.90824 0.72731 0.046 0.0
C264 C 0.87962 0.83632 0.12157 0.0
C265 C 0.85567 0.86119 0.17414 0.0
C266 C 0.88673 0.8594 0.16994 0.0
C267 C 0.89854 0.84715 0.14389 0.0
C268 C 0.84863 0.83737 0.12579 0.0
C269 C 0.83673 0.84979 0.15184 0.0
C270 C 0.8927 0.82322 0.09456 0.0
C271 C 0.82076 0.74595 0.06615 0.0
H272 H 0.85544 0.63509 0.89043 0.0
H273 H 0.8305 0.67806 0.91325 0.0
H274 H 0.87734 0.66089 0.99572 0.0
H275 H 0.90217 0.61773 0.97303 0.0
H276 H 0.90198 0.86743 0.18685 0.0
H277 H 0.92253 0.8461 0.14118 0.0
H278 H 0.83367 0.82879 0.10887 0.0
H279 H 0.81274 0.85104 0.1542 0.0
Tb280 Tb 0.52732 0.64188 0.25624 0.0
Tb281 Tb 0.47758 0.66102 0.30635 0.0
C282 C 0.46323 0.61308 0.25979 0.0
C283 C 0.5931 0.64236 0.20534 0.0
C284 C 0.6454 0.66647 0.18042 0.0
C285 C 0.62832 0.64547 0.16459 0.0
C286 C 0.60252 0.63351 0.17698 0.0
C287 C 0.60949 0.66392 0.22098 0.0
C288 C 0.63545 0.67585 0.20864 0.0
C289 C 0.56678 0.62812 0.21854 0.0
O290 O 0.51051 0.68521 0.2435 0.0
O291 O 0.46395 0.68059 0.26341 0.0
O292 O 0.50884 0.69735 0.30394 0.0
O293 O 0.54985 0.67117 0.28813 0.0
O294 O 0.43273 0.66458 0.31982 0.0
O295 O 0.46856 0.67999 0.34804 0.0
O296 O 0.50896 0.63021 0.32806 0.0
O297 O 0.52353 0.60464 0.28643 0.0
O298 O 0.484 0.6238 0.24211 0.0
O299 O 0.46348 0.61872 0.28843 0.0
C300 C 0.48196 0.69139 0.24298 0.0
O301 O 0.56856 0.62185 0.24685 0.0
O302 O 0.54085 0.6394 0.21141 0.0
C303 C 0.53782 0.69452 0.30134 0.0
C304 C 0.42625 0.66026 0.37192 0.0
C305 C 0.39999 0.63588 0.42351 0.0
C306 C 0.42878 0.62692 0.41465 0.0
C307 C 0.44178 0.63896 0.38904 0.0
C308 C 0.39734 0.66866 0.38024 0.0
C309 C 0.38429 0.65656 0.40568 0.0
C310 C 0.44007 0.67476 0.34602 0.0
C311 C 0.52116 0.60663 0.31545 0.0
H312 H 0.63487 0.63824 0.14253 0.0
H313 H 0.59005 0.61706 0.1645 0.0
H314 H 0.60249 0.67116 0.24291 0.0
H315 H 0.64807 0.69185 0.22151 0.0
H316 H 0.44159 0.61119 0.42787 0.0
H317 H 0.46412 0.63203 0.38292 0.0
H318 H 0.38492 0.68489 0.3672 0.0
H319 H 0.36183 0.66346 0.41138 0.0
Tb320 Tb 0.25263 0.48937 0.13305 0.0
Tb321 Tb 0.20265 0.53871 0.15446 0.0
C322 C 0.24822 0.55467 0.10609 0.0
C323 C 0.30194 0.42254 0.13333 0.0
C324 C 0.32521 0.37098 0.16129 0.0
C325 C 0.32445 0.37325 0.13003 0.0
C326 C 0.31296 0.39881 0.11621 0.0
C327 C 0.30231 0.42033 0.16453 0.0
C328 C 0.31399 0.39483 0.1784 0.0
C329 C 0.28914 0.44886 0.11833 0.0
O330 O 0.2678 0.50615 0.17556 0.0
O331 O 0.24581 0.55237 0.17325 0.0
O332 O 0.20766 0.50747 0.19059 0.0
O333 O 0.22149 0.46689 0.16302 0.0
O334 O 0.18798 0.58297 0.15978 0.0
O335 O 0.16063 0.54616 0.17365 0.0
O336 O 0.18089 0.50793 0.1234 0.0
O337 O 0.22195 0.49499 0.09624 0.0
O338 O 0.2661 0.53269 0.11458 0.0
O339 O 0.21979 0.55467 0.11269 0.0
C340 C 0.26746 0.53453 0.18252 0.0
O341 O 0.26057 0.44775 0.1131 0.0
O342 O 0.29705 0.47484 0.12862 0.0
C343 C 0.20969 0.47857 0.18719 0.0
C344 C 0.13581 0.58789 0.15387 0.0
C345 C 0.08479 0.61152 0.12512 0.0
C346 C 0.08652 0.61051 0.15641 0.0
C347 C 0.11182 0.59883 0.17063 0.0
C348 C 0.13415 0.58856 0.12263 0.0
C349 C 0.10891 0.60041 0.10838 0.0
C350 C 0.16181 0.57481 0.16922 0.0
C351 C 0.19296 0.49727 0.0989 0.0
H352 H 0.33325 0.35546 0.11622 0.0
H353 H 0.31266 0.40006 0.0921 0.0
H354 H 0.2935 0.43828 0.17814 0.0
H355 H 0.31399 0.39365 0.2025 0.0
H356 H 0.06851 0.61923 0.16995 0.0
H357 H 0.11265 0.5983 0.19475 0.0
H358 H 0.15233 0.57983 0.1093 0.0
H359 H 0.10815 0.60061 0.08426 0.0
Tb360 Tb 0.75372 0.0648 0.90215 0.0
Tb361 Tb 0.70344 0.01556 0.88265 0.0
C362 C 0.74974 1.00062 0.9311 0.0
C363 C 0.80405 0.13043 0.90103 0.0
C364 C 0.8279 0.18138 0.87332 0.0
C365 C 0.82586 0.1797 0.90454 0.0
C366 C 0.81409 0.15443 0.91824 0.0
C367 C 0.8057 0.13205 0.86984 0.0
C368 C 0.81769 0.15726 0.8561 0.0
C369 C 0.79103 0.10445 0.916 0.0
O370 O 0.76705 0.04784 0.85918 0.0
O371 O 0.74639 1.00156 0.86344 0.0
O372 O 0.70648 0.04676 0.84623 0.0
O373 O 0.72178 0.0875 0.8727 0.0
O374 O 0.68945 0.97118 0.87824 0.0
O375 O 0.66118 1.00768 0.86407 0.0
O376 O 0.68197 0.04686 0.91348 0.0
O377 O 0.72364 0.06074 0.93935 0.0
O378 O 0.76756 0.02142 0.92065 0.0
O379 O 0.72116 1.00081 0.92496 0.0
C380 C 0.76718 0.01933 0.85295 0.0
O381 O 0.76259 0.10641 0.92154 0.0
O382 O 0.79839 0.07823 0.90565 0.0
C383 C 0.70881 0.07568 0.84919 0.0
C384 C 0.63733 0.96585 0.88401 0.0
C385 C 0.58694 0.9416 0.91235 0.0
C386 C 0.58798 0.94409 0.88113 0.0
C387 C 0.61296 0.95608 0.86712 0.0
C388 C 0.63637 0.96374 0.9152 0.0
C389 C 0.61144 0.95157 0.92925 0.0
C390 C 0.66302 0.97908 0.86875 0.0
C391 C 0.6946 0.05852 0.93726 0.0
H392 H 0.83387 0.1977 0.91844 0.0
H393 H 0.81281 0.15363 0.94233 0.0
H394 H 0.79768 0.11388 0.85614 0.0
H395 H 0.81871 0.158 0.83201 0.0
H396 H 0.56968 0.93627 0.86745 0.0
H397 H 0.61325 0.9577 0.84303 0.0
H398 H 0.65485 0.97155 0.92866 0.0
H399 H 0.61121 0.9502 0.95334 0.0
Tb400 Tb 0.72985 0.98913 0.40231 0.0
Tb401 Tb 0.78042 0.0374 0.38115 0.0
C402 C 0.73524 0.05428 0.42961 0.0
C403 C 0.6783 0.9239 0.4032 0.0
C404 C 0.65168 0.87195 0.37966 0.0
C405 C 0.63654 0.88982 0.40063 0.0
C406 C 0.64977 0.91543 0.4123 0.0
C407 C 0.69327 0.90669 0.3817 0.0
C408 C 0.68011 0.88092 0.37008 0.0
C409 C 0.69233 0.95011 0.41711 0.0
O410 O 0.71519 1.00614 0.3597 0.0
O411 O 0.73722 0.05197 0.36256 0.0
O412 O 0.77459 1.00635 0.345 0.0
O413 O 0.76098 0.96592 0.3725 0.0
O414 O 0.79511 0.08136 0.37534 0.0
O415 O 0.82247 0.04394 0.3619 0.0
O416 O 0.80197 1.00621 0.41226 0.0
O417 O 0.76063 0.99378 0.43903 0.0
O418 O 0.71709 0.03287 0.42087 0.0
O419 O 0.76367 0.05356 0.42305 0.0
C420 C 0.7157 0.0345 0.35288 0.0
O421 O 0.72087 0.94806 0.42244 0.0
O422 O 0.68499 0.9761 0.40624 0.0
C423 C 0.77228 0.97748 0.34812 0.0
C424 C 0.84746 0.08656 0.37911 0.0
C425 C 0.89855 0.11348 0.40407 0.0
C426 C 0.89517 0.11096 0.37297 0.0
C427 C 0.86987 0.09768 0.36067 0.0
C428 C 0.85083 0.08842 0.41017 0.0
C429 C 0.87616 0.10181 0.42256 0.0
C430 C 0.82108 0.07274 0.36542 0.0
C431 C 0.78964 0.9954 0.4365 0.0
H432 H 0.61437 0.88406 0.40804 0.0
H433 H 0.63777 0.92852 0.42871 0.0
H434 H 0.71532 0.9129 0.37424 0.0
H435 H 0.69251 0.86768 0.35414 0.0
H436 H 0.91217 0.11917 0.35806 0.0
H437 H 0.86779 0.09613 0.33666 0.0
H438 H 0.8338 0.07973 0.42479 0.0
H439 H 0.8779 0.10359 0.44656 0.0
Tb440 Tb 0.27767 0.51315 0.65442 0.0
Tb441 Tb 0.22748 0.56298 0.6345 0.0
C442 C 0.2134 0.51698 0.68307 0.0
C443 C 0.34467 0.46415 0.65279 0.0
C444 C 0.39607 0.44185 0.62403 0.0
C445 C 0.37255 0.45459 0.60738 0.0
C446 C 0.34712 0.46578 0.62166 0.0
C447 C 0.36805 0.45159 0.66946 0.0
C448 C 0.39353 0.44056 0.65524 0.0
C449 C 0.3185 0.47652 0.66825 0.0
O450 O 0.26042 0.49883 0.61182 0.0
O451 O 0.2139 0.51994 0.6155 0.0
O452 O 0.25819 0.559 0.59782 0.0
O453 O 0.29945 0.54463 0.62439 0.0
O454 O 0.18294 0.57748 0.63082 0.0
O455 O 0.21903 0.6048 0.61515 0.0
O456 O 0.25903 0.58479 0.66468 0.0
O457 O 0.27304 0.54367 0.6914 0.0
O458 O 0.23464 0.49918 0.67295 0.0
O459 O 0.21315 0.54551 0.67687 0.0
C460 C 0.23189 0.49885 0.60541 0.0
O461 O 0.31957 0.50497 0.67389 0.0
O462 O 0.29242 0.46872 0.65803 0.0
C463 C 0.2872 0.55679 0.6006 0.0
C464 C 0.17792 0.62977 0.63586 0.0
C465 C 0.15514 0.6813 0.66413 0.0
C466 C 0.15583 0.67927 0.63285 0.0
C467 C 0.16709 0.65373 0.61888 0.0
C468 C 0.17758 0.63171 0.66708 0.0
C469 C 0.16614 0.6572 0.6811 0.0
C470 C 0.19058 0.60355 0.62064 0.0
C471 C 0.27056 0.57265 0.68882 0.0
H472 H 0.37394 0.45617 0.58335 0.0
H473 H 0.32943 0.47579 0.60845 0.0
H474 H 0.3666 0.45034 0.69352 0.0
H475 H 0.41104 0.43055 0.66867 0.0
H476 H 0.14718 0.69724 0.61915 0.0
H477 H 0.16736 0.65269 0.59476 0.0
H478 H 0.18625 0.61358 0.68058 0.0
H479 H 0.16617 0.65818 0.70521 0.0
H480 H 0.15313 0.32465 0.58359 0.0
H481 H 0.1912 0.34247 0.49724 0.0
H482 H 0.17083 0.37307 0.60143 0.0
H483 H 0.20871 0.39062 0.51497 0.0
H484 H 0.2616 0.46042 0.56902 0.0
H485 H 0.24482 0.41216 0.55084 0.0
H486 H 0.15869 0.42738 0.59097 0.0
H487 H 0.17558 0.47589 0.60933 0.0
C488 C 0.1658 0.3386 0.56863 0.0
C489 C 0.17093 0.32966 0.53907 0.0
C490 C 0.17553 0.36649 0.5787 0.0
C491 C 0.19091 0.38579 0.55951 0.0
C492 C 0.19703 0.37627 0.53033 0.0
C493 C 0.18701 0.34864 0.52019 0.0
C494 C 0.23891 0.45371 0.57356 0.0
C495 C 0.21984 0.47208 0.59042 0.0
C496 C 0.22932 0.42602 0.56318 0.0
C497 C 0.20053 0.41582 0.56969 0.0
C498 C 0.18115 0.43448 0.58593 0.0
C499 C 0.19065 0.46244 0.59603 0.0
H500 H 0.79075 0.96305 0.85785 0.0
H501 H 0.80522 0.0484 0.81612 0.0
H502 H 0.83951 0.9458 0.84006 0.0
H503 H 0.85374 0.03123 0.79846 0.0
H504 H 0.92428 0.97633 0.74639 0.0
H505 H 0.87581 0.99429 0.76336 0.0
H506 H 0.89369 0.9583 0.85087 0.0
H507 H 0.94242 0.9402 0.83382 0.0
C508 C 0.80402 0.97788 0.84434 0.0
C509 C 0.79404 1.007 0.83818 0.0
C510 C 0.83212 0.96817 0.83457 0.0
C511 C 0.85058 0.98727 0.8181 0.0
C512 C 0.84003 0.01596 0.811 0.0
C513 C 0.81219 0.02577 0.82107 0.0
C514 C 0.9181 0.97265 0.7694 0.0
C515 C 0.93727 0.95698 0.78881 0.0
C516 C 0.8903 0.98292 0.7791 0.0
C517 C 0.88078 0.97745 0.80836 0.0
C518 C 0.90026 0.96249 0.82807 0.0
C519 C 0.92833 0.95253 0.81844 0.0
H520 H 0.32845 0.69248 0.99697 0.0
H521 H 0.30493 0.7375 0.07886 0.0
H522 H 0.30929 0.64595 0.01669 0.0
H523 H 0.28508 0.69053 0.09836 0.0
H524 H 0.22072 0.60871 0.10118 0.0
H525 H 0.24109 0.65509 0.08246 0.0
H526 H 0.32356 0.60996 0.06117 0.0
H527 H 0.30339 0.56311 0.08062 0.0
C528 C 0.31889 0.6926 0.0191 0.0
C529 C 0.31801 0.71889 0.03629 0.0
C530 C 0.3082 0.66578 0.03044 0.0
C531 C 0.29589 0.66462 0.05905 0.0
C532 C 0.29447 0.69089 0.07616 0.0
C533 C 0.30575 0.71774 0.06501 0.0
C534 C 0.24316 0.60842 0.09234 0.0
C535 C 0.26038 0.58201 0.09222 0.0
C536 C 0.25487 0.63516 0.08191 0.0
C537 C 0.28391 0.63615 0.07058 0.0
C538 C 0.30105 0.60974 0.06981 0.0
C539 C 0.28951 0.58295 0.08085 0.0
H540 H 0.54111 0.11457 0.33228 0.0
H541 H 0.55874 0.0777 0.24515 0.0
H542 H 0.58994 0.09659 0.34957 0.0
H543 H 0.60729 0.05986 0.26236 0.0
H544 H 0.67741 1.00553 0.31602 0.0
H545 H 0.62905 0.02301 0.29792 0.0
H546 H 0.64429 0.10876 0.33869 0.0
H547 H 0.69295 0.09118 0.35692 0.0
C548 C 0.55512 0.10212 0.31703 0.0
C549 C 0.54602 0.09739 0.28742 0.0
C550 C 0.58324 0.09223 0.32678 0.0
C551 C 0.60257 0.07708 0.30722 0.0
C552 C 0.59291 0.07139 0.27798 0.0
C553 C 0.56506 0.08158 0.26815 0.0
C554 C 0.67069 0.0283 0.32069 0.0
C555 C 0.68907 0.04705 0.33773 0.0
C556 C 0.64296 0.03828 0.31036 0.0
C557 C 0.63273 0.06715 0.31713 0.0
C558 C 0.65144 0.08625 0.33346 0.0
C559 C 0.67946 0.07636 0.3435 0.0
H560 H 0.68185 0.23877 0.45763 0.0
H561 H 0.65549 0.19373 0.53839 0.0
H562 H 0.70125 0.19134 0.43808 0.0
H563 H 0.67423 0.14679 0.51862 0.0
H564 H 0.67983 0.0644 0.45419 0.0
H565 H 0.66025 0.11179 0.47367 0.0
H566 H 0.744 0.15418 0.45434 0.0
H567 H 0.76377 0.10727 0.43557 0.0
C568 C 0.68033 0.21891 0.47123 0.0
C569 C 0.66737 0.22017 0.49965 0.0
C570 C 0.69135 0.1918 0.46004 0.0
C571 C 0.68899 0.16542 0.47681 0.0
C572 C 0.67603 0.16671 0.50513 0.0
C573 C 0.66559 0.19376 0.51651 0.0
C574 C 0.69412 0.08376 0.4544 0.0
C575 C 0.72341 0.0819 0.44355 0.0
C576 C 0.68292 0.11085 0.46545 0.0
C577 C 0.7006 0.13665 0.46523 0.0
C578 C 0.72981 0.13475 0.45445 0.0
C579 C 0.74117 0.10769 0.44399 0.0
H580 H 0.05756 0.47467 0.79059 0.0
H581 H 0.03923 0.43827 0.70337 0.0
H582 H 0.10572 0.49234 0.77325 0.0
H583 H 0.08766 0.4561 0.68595 0.0
H584 H 0.19054 0.46073 0.67827 0.0
H585 H 0.14211 0.44358 0.69637 0.0
H586 H 0.12699 0.52913 0.73796 0.0
H587 H 0.17517 0.54618 0.72001 0.0
C588 C 0.06362 0.47087 0.76754 0.0
C589 C 0.0445 0.45522 0.74829 0.0
C590 C 0.09125 0.48097 0.75764 0.0
C591 C 0.10062 0.47537 0.72833 0.0
C592 C 0.0812 0.4604 0.70879 0.0
C593 C 0.0533 0.45059 0.71862 0.0
C594 C 0.17714 0.4756 0.69183 0.0
C595 C 0.18676 0.50472 0.69792 0.0
C596 C 0.14923 0.46596 0.70179 0.0
C597 C 0.13062 0.48511 0.71836 0.0
C598 C 0.14082 0.51381 0.72536 0.0
C599 C 0.16846 0.52355 0.71511 0.0
H600 H 0.80575 0.97641 0.9262 0.0
H601 H 0.72077 0.96376 0.96915 0.0
H602 H 0.82275 0.92788 0.94505 0.0
H603 H 0.7377 0.9155 0.9879 0.0
H604 H 0.79258 0.84514 0.04076 0.0
H605 H 0.7752 0.89368 0.02315 0.0
H606 H 0.80898 0.87372 0.93538 0.0
H607 H 0.82644 0.82495 0.95302 0.0
C608 C 0.79097 0.96359 0.94019 0.0
C609 C 0.76201 0.97397 0.94637 0.0
C610 C 0.80052 0.93564 0.9506 0.0
C611 C 0.78144 0.91777 0.96772 0.0
C612 C 0.75295 0.92876 0.97486 0.0
C613 C 0.74328 0.95643 0.96414 0.0
C614 C 0.79589 0.85089 0.01757 0.0
C615 C 0.81073 0.83112 0.99824 0.0
C616 C 0.78598 0.87873 1.00751 0.0
C617 C 0.791 0.88764 0.97797 0.0
C618 C 0.80516 0.8676 0.95838 0.0
C619 C 0.81475 0.83952 0.96837 0.0
H620 H 0.42579 0.5754 0.28849 0.0
H621 H 0.43947 0.61849 0.20368 0.0
H622 H 0.37768 0.55709 0.27121 0.0
H623 H 0.39112 0.60003 0.18629 0.0
H624 H 0.28832 0.59177 0.18081 0.0
H625 H 0.33673 0.6095 0.19874 0.0
H626 H 0.35635 0.52205 0.23414 0.0
H627 H 0.30819 0.5044 0.21637 0.0
C628 C 0.41872 0.58055 0.26595 0.0
C629 C 0.43653 0.59822 0.24738 0.0
C630 C 0.39112 0.57008 0.25607 0.0
C631 C 0.38046 0.57732 0.22748 0.0
C632 C 0.39858 0.5944 0.20859 0.0
C633 C 0.42645 0.60458 0.21836 0.0
C634 C 0.30272 0.57654 0.19295 0.0
C635 C 0.29432 0.54674 0.19733 0.0
C636 C 0.33062 0.58656 0.20282 0.0
C637 C 0.35049 0.56709 0.21761 0.0
C638 C 0.34155 0.53763 0.22293 0.0
C639 C 0.31391 0.52754 0.21277 0.0
H640 H 0.46942 0.19342 0.34918 0.0
H641 H 0.55267 0.21346 0.3055 0.0
H642 H 0.48918 0.21229 0.39594 0.0
H643 H 0.57225 0.23302 0.35276 0.0
H644 H 0.57667 0.29759 0.43463 0.0
H645 H 0.55799 0.27757 0.38791 0.0
H646 H 0.53213 0.19685 0.4328 0.0
H647 H 0.55149 0.21667 0.48004 0.0
C648 C 0.49187 0.20216 0.34939 0.0
C649 C 0.50942 0.20212 0.3234 0.0
C650 C 0.50323 0.21268 0.37637 0.0
C651 C 0.53225 0.22391 0.37802 0.0
C652 C 0.54973 0.22447 0.35203 0.0
C653 C 0.53853 0.21338 0.325 0.0
C654 C 0.56684 0.27561 0.4348 0.0
C655 C 0.5654 0.25879 0.46126 0.0
C656 C 0.55643 0.26408 0.40785 0.0
C657 C 0.54383 0.23564 0.4067 0.0
C658 C 0.54177 0.21891 0.43314 0.0
C659 C 0.55276 0.23025 0.46015 0.0
H660 H 0.05364 0.33867 0.55632 0.0
H661 H 0.07577 0.25544 0.5999 0.0
H662 H 0.03433 0.35807 0.60374 0.0
H663 H 0.05721 0.27505 0.64685 0.0
H664 H 0.05289 0.33805 0.73064 0.0
H665 H 0.07264 0.31894 0.68329 0.0
H666 H 0.99007 0.34244 0.6393 0.0
H667 H 0.9701 0.3608 0.68615 0.0
C668 C 0.05426 0.32451 0.57585 0.0
C669 C 0.06598 0.29545 0.57418 0.0
C670 C 0.04332 0.33561 0.60295 0.0
C671 C 0.04455 0.31807 0.62894 0.0
C672 C 0.0563 0.28912 0.62725 0.0
C673 C 0.06663 0.27785 0.60019 0.0
C674 C 0.0389 0.33883 0.71093 0.0
C675 C 1.00985 0.35069 0.71232 0.0
C676 C 0.0502 0.328 0.68387 0.0
C677 C 0.0329 0.3295 0.65766 0.0
C678 C 1.00396 0.34134 0.65908 0.0
C679 C 0.99248 0.35155 0.68609 0.0
H680 H 0.01189 0.86126 0.85161 0.0
H681 H 0.92962 0.8402 0.80592 0.0
H682 H 0.99153 0.84233 0.89792 0.0
H683 H 0.90944 0.82059 0.85272 0.0
H684 H 0.9047 0.75614 0.93478 0.0
H685 H 0.92378 0.77622 0.88838 0.0
H686 H 0.94761 0.85762 0.93349 0.0
H687 H 0.92787 0.83772 0.98036 0.0
C688 C 0.98954 0.85228 0.85129 0.0
C689 C 0.97243 0.85205 0.82488 0.0
C690 C 0.97783 0.84173 0.87799 0.0
C691 C 0.94891 0.83021 0.87893 0.0
C692 C 0.93187 0.82938 0.85253 0.0
C693 C 0.94342 0.84051 0.82578 0.0
C694 C 0.91417 0.77828 0.93505 0.0
C695 C 0.91497 0.79527 0.96145 0.0
C696 C 0.9248 0.78984 0.9083 0.0
C697 C 0.93697 0.81847 0.90733 0.0
C698 C 0.93832 0.8354 0.93371 0.0
C699 C 0.92712 0.82402 0.9605 0.0
H700 H 0.51141 0.72841 0.20549 0.0
H701 H 0.42617 0.68627 0.21846 0.0
H702 H 0.49528 0.74573 0.15655 0.0
H703 H 0.40987 0.70386 0.1693 0.0
H704 H 0.40579 0.71031 0.06662 0.0
H705 H 0.42303 0.69322 0.11566 0.0
H706 H 0.45927 0.7804 0.13328 0.0
H707 H 0.44232 0.79732 0.0845 0.0
C708 C 0.48899 0.72332 0.19809 0.0
C709 C 0.46998 0.70616 0.21594 0.0
C710 C 0.47977 0.7332 0.17001 0.0
C711 C 0.45141 0.72592 0.15891 0.0
C712 C 0.43202 0.70946 0.17708 0.0
C713 C 0.44116 0.69982 0.20542 0.0
C714 C 0.41805 0.72557 0.08072 0.0
C715 C 0.42285 0.7551 0.07163 0.0
C716 C 0.42749 0.71594 0.10897 0.0
C717 C 0.44223 0.73557 0.12848 0.0
C718 C 0.44809 0.7647 0.11879 0.0
C719 C 0.43839 0.77438 0.09079 0.0
H720 H 0.09844 0.39704 0.32114 0.0
H721 H 0.18678 0.36373 0.34194 0.0
H722 H 0.11787 0.42166 0.27708 0.0
H723 H 0.20605 0.388 0.29722 0.0
H724 H 0.22155 0.41915 0.19834 0.0
H725 H 0.20215 0.3889 0.23957 0.0
H726 H 0.15223 0.46504 0.27143 0.0
H727 H 0.17131 0.49493 0.23086 0.0
C728 C 0.12203 0.39498 0.31639 0.0
C729 C 0.14109 0.37877 0.33546 0.0
C730 C 0.13311 0.40896 0.291 0.0
C731 C 0.16353 0.40695 0.28382 0.0
C732 C 0.18247 0.38975 0.30209 0.0
C733 C 0.17139 0.37587 0.32771 0.0
C734 C 0.20632 0.42927 0.21412 0.0
C735 C 0.19799 0.45943 0.21131 0.0
C736 C 0.19537 0.41205 0.23775 0.0
C737 C 0.17553 0.42458 0.2586 0.0
C738 C 0.16715 0.45462 0.25554 0.0
C739 C 0.1783 0.47182 0.23233 0.0
H740 H 0.85432 0.89294 0.58598 0.0
H741 H 0.92074 0.96184 0.57907 0.0
H742 H 0.82876 0.91294 0.54254 0.0
H743 H 0.89423 0.98273 0.53599 0.0
H744 H 0.85105 0.99201 0.441 0.0
H745 H 0.88042 0.97256 0.48306 0.0
H746 H 0.79915 0.9567 0.53168 0.0
H747 H 0.77011 0.97532 0.49008 0.0
C748 C 0.86361 0.91229 0.5751 0.0
C749 C 0.88965 0.92572 0.58608 0.0
C750 C 0.84871 0.92399 0.55035 0.0
C751 C 0.85929 0.94961 0.53591 0.0
C752 C 0.88558 0.96288 0.54651 0.0
C753 C 0.90056 0.95112 0.5714 0.0
C754 C 0.83954 0.98437 0.4607 0.0
C755 C 0.8082 0.98497 0.46196 0.0
C756 C 0.85635 0.97337 0.48484 0.0
C757 C 0.8421 0.96271 0.51059 0.0
C758 C 0.81085 0.96407 0.51197 0.0
C759 C 0.79417 0.97495 0.48805 0.0
H760 H 0.27611 0.63372 0.69094 0.0
H761 H 0.28728 0.55417 0.74423 0.0
H762 H 0.29358 0.66389 0.73301 0.0
H763 H 0.30466 0.58411 0.78576 0.0
H764 H 0.30794 0.64713 0.86397 0.0
H765 H 0.28564 0.62144 0.82156 0.0
H766 H 0.34144 0.67124 0.76159 0.0
H767 H 0.36337 0.69745 0.80404 0.0
C768 C 0.28218 0.62269 0.71157 0.0
C769 C 0.28037 0.59152 0.71414 0.0
C770 C 0.29228 0.63994 0.7356 0.0
C771 C 0.30039 0.62638 0.76275 0.0
C772 C 0.2982 0.59529 0.76532 0.0
C773 C 0.28841 0.5781 0.74135 0.0
C774 C 0.31513 0.65295 0.84173 0.0
C775 C 0.33755 0.67421 0.8374 0.0
C776 C 0.30253 0.63805 0.81744 0.0
C777 C 0.31191 0.64417 0.78823 0.0
C778 C 0.33361 0.66615 0.7838 0.0
C779 C 0.34639 0.68092 0.80813 0.0
H780 H 0.62974 0.16127 0.08633 0.0
H781 H 0.56423 0.09145 0.07943 0.0
H782 H 0.65555 0.14123 0.04323 0.0
H783 H 0.59101 0.07051 0.03677 0.0
H784 H 0.6333 0.06086 0.94216 0.0
H785 H 0.60418 0.08023 0.98414 0.0
H786 H 0.68579 0.09825 0.03208 0.0
H787 H 0.71461 0.07974 0.99044 0.0
C788 C 0.62073 0.14169 0.07554 0.0
C789 C 0.59484 0.12803 0.08639 0.0
C790 C 0.63578 0.12995 0.05099 0.0
C791 C 0.62551 0.1041 0.03665 0.0
C792 C 0.59942 0.09055 0.0472 0.0
C793 C 0.58428 0.10235 0.07186 0.0
C794 C 0.64495 0.06896 0.96169 0.0
C795 C 0.6763 0.069 0.96274 0.0
C796 C 0.62828 0.07991 0.9858 0.0
C797 C 0.64267 0.09113 0.01136 0.0
C798 C 0.67396 0.09044 0.01253 0.0
C799 C 0.69052 0.07962 0.98859 0.0
H800 H 0.59499 0.15937 0.71645 0.0
H801 H 0.68321 0.19051 0.6945 0.0
H802 H 0.61517 0.13396 0.76006 0.0
H803 H 0.70322 0.16551 0.73876 0.0
H804 H 0.72086 0.13465 0.8372 0.0
H805 H 0.70067 0.16498 0.79612 0.0
H806 H 0.64914 0.08983 0.76589 0.0
H807 H 0.66903 0.05981 0.80641 0.0
C808 C 0.6187 0.16078 0.72083 0.0
C809 C 0.63749 0.17668 0.7016 0.0
C810 C 0.63022 0.14633 0.74596 0.0
C811 C 0.66081 0.14757 0.75272 0.0
C812 C 0.67951 0.16437 0.73423 0.0
C813 C 0.668 0.17868 0.70888 0.0
C814 C 0.70511 0.12474 0.82183 0.0
C815 C 0.69656 0.09482 0.82508 0.0
C816 C 0.6937 0.14202 0.79826 0.0
C817 C 0.6732 0.12981 0.7779 0.0
C818 C 0.66458 0.10001 0.78141 0.0
C819 C 0.67619 0.08273 0.80457 0.0
H820 H 0.13193 0.49054 0.09675 0.0
H821 H 0.21133 0.48314 0.04288 0.0
H822 H 0.10183 0.47386 0.0542 0.0
H823 H 0.1815 0.46656 1.00092 0.0
H824 H 0.1182 0.46404 0.92274 0.0
H825 H 0.14348 0.48573 0.96574 0.0
H826 H 0.09541 0.42683 0.02417 0.0
H827 H 0.06963 0.4055 0.98114 0.0
C828 C 0.14294 0.48549 0.0759 0.0
C829 C 0.17406 0.48809 0.07331 0.0
C830 C 0.12573 0.47584 0.05159 0.0
C831 C 0.13928 0.469 0.02415 0.0
C832 C 0.1703 0.47203 0.02157 0.0
C833 C 0.18744 0.48135 0.0458 0.0
C834 C 0.11266 0.45603 0.94478 0.0
C835 C 0.09203 0.43291 0.94848 0.0
C836 C 0.12733 0.46829 0.96941 0.0
C837 C 0.12159 0.45786 0.99837 0.0
C838 C 0.1002 0.43547 1.00219 0.0
C839 C 0.08568 0.42304 0.97751 0.0
H840 H 0.77593 0.91598 0.3453 0.0
H841 H 0.79161 0.99583 0.29396 0.0
H842 H 0.79579 0.88584 0.30406 0.0
H843 H 0.81065 0.96608 0.25331 0.0
H844 H 0.87591 0.91148 0.20149 0.0
H845 H 0.8555 0.93685 0.24465 0.0
H846 H 0.78591 0.87113 0.25066 0.0
H847 H 0.80722 0.84476 0.20783 0.0
C848 C 0.78341 0.92707 0.32527 0.0
C849 C 0.78251 0.95834 0.32315 0.0
C850 C 0.79466 0.90984 0.30165 0.0
C851 C 0.80524 0.92363 0.27561 0.0
C852 C 0.80339 0.95477 0.2733 0.0
C853 C 0.79227 0.97185 0.29669 0.0
C854 C 0.85657 0.90205 0.21222 0.0
C855 C 0.84324 0.87605 0.20111 0.0
C856 C 0.84463 0.91683 0.23681 0.0
C857 C 0.81888 0.90619 0.25092 0.0
C858 C 0.80583 0.87982 0.24034 0.0
C859 C 0.81784 0.86494 0.2156 0.0
H860 H 0.34672 0.54572 0.58962 0.0
H861 H 0.26982 0.59366 0.55574 0.0
H862 H 0.37649 0.56476 0.548 0.0
H863 H 0.29927 0.61232 0.51466 0.0
H864 H 0.36656 0.6666 0.4642 0.0
H865 H 0.34158 0.6474 0.50812 0.0
H866 H 0.37821 0.55987 0.49095 0.0
H867 H 0.40292 0.57895 0.4464 0.0
C868 C 0.33623 0.56035 0.57344 0.0
C869 C 0.30592 0.5682 0.57604 0.0
C870 C 0.3532 0.57108 0.54956 0.0
C871 C 0.34024 0.59018 0.5282 0.0
C872 C 0.31001 0.598 0.53096 0.0
C873 C 0.29308 0.58709 0.55447 0.0
C874 C 0.36917 0.6432 0.46956 0.0
C875 C 0.3864 0.62425 0.45141 0.0
C876 C 0.35496 0.63224 0.49485 0.0
C877 C 0.35773 0.60208 0.50284 0.0
C878 C 0.37584 0.58327 0.48544 0.0
C879 C 0.38997 0.59423 0.45993 0.0
H880 H 0.16984 0.25612 0.40932 0.0
H881 H 0.20751 0.21158 0.48626 0.0
H882 H 0.21283 0.23972 0.37961 0.0
H883 H 0.24944 0.19496 0.45686 0.0
H884 H 0.33604 0.19499 0.40931 0.0
H885 H 0.29289 0.21615 0.43457 0.0
H886 H 0.23747 0.19483 0.35865 0.0
H887 H 0.28108 0.17407 0.33306 0.0
C888 C 0.1871 0.24275 0.41983 0.0
C889 C 0.18537 0.23548 0.45025 0.0
C890 C 0.21168 0.23331 0.40283 0.0
C891 C 0.23485 0.21645 0.41599 0.0
C892 C 0.2325 0.20861 0.44616 0.0
C893 C 0.20824 0.21805 0.46302 0.0
C894 C 0.31466 0.19488 0.39798 0.0
C895 C 0.31186 0.18249 0.3694 0.0
C896 C 0.2899 0.20696 0.41245 0.0
C897 C 0.26157 0.20672 0.39885 0.0
C898 C 0.25896 0.19548 0.3697 0.0
C899 C 0.2839 0.18353 0.35509 0.0
H900 H 0.12504 0.09428 0.6566 0.0
H901 H 0.05756 0.08639 0.58813 0.0
H902 H 0.10415 0.05185 0.68249 0.0
H903 H 0.03581 0.04427 0.6149 0.0
H904 H 0.02618 0.95019 0.66042 0.0
H905 H 0.04595 0.99132 0.6305 0.0
H906 H 0.05905 0.04293 0.71066 0.0
H907 H 0.04004 1.00232 0.74026 0.0
C908 C 0.10583 0.08338 0.64694 0.0
C909 C 0.09303 0.09379 0.62024 0.0
C910 C 0.09362 0.05922 0.662 0.0
C911 C 0.06814 0.04482 0.65091 0.0
C912 C 0.05553 0.05481 0.62394 0.0
C913 C 0.06779 0.07913 0.60881 0.0
C914 C 0.03322 0.97038 0.67156 0.0
C915 C 0.03184 0.97275 0.70278 0.0
C916 C 0.04442 0.99396 0.65443 0.0
C917 C 0.05448 0.02022 0.66827 0.0
C918 C 0.05217 0.02278 0.69934 0.0
C919 C 0.04108 0.99942 0.71632 0.0
H920 H 0.20247 0.8796 0.83537 0.0
H921 H 0.14816 0.85757 0.91132 0.0
H922 H 0.2463 0.85854 0.86062 0.0
H923 H 0.19153 0.83606 0.93623 0.0
H924 H 0.27754 0.83856 0.98787 0.0
H925 H 0.2352 0.85586 0.9591 0.0
H926 H 0.27123 0.81366 0.8804 0.0
H927 H 0.31463 0.79663 0.90948 0.0
C928 C 0.19983 0.86985 0.85727 0.0
C929 C 0.17198 0.87063 0.87157 0.0
C930 C 0.22491 0.85771 0.87169 0.0
C931 C 0.22257 0.84599 0.90065 0.0
C932 C 0.19436 0.8456 0.91427 0.0
C933 C 0.16945 0.85789 0.89999 0.0
C934 C 0.27657 0.83279 0.96445 0.0
C935 C 0.29944 0.81595 0.95106 0.0
C936 C 0.25207 0.84262 0.94794 0.0
C937 C 0.24946 0.83576 0.91751 0.0
C938 C 0.27258 0.81938 0.9038 0.0
C939 C 0.29739 0.80958 0.92044 0.0
H940 H 0.4469 0.05006 0.23868 0.0
H941 H 0.45533 0.10285 0.15865 0.0
H942 H 0.42833 1.00875 0.20962 0.0
H943 H 0.436 0.06095 0.12925 0.0
H944 H 0.42559 0.96547 0.08701 0.0
H945 H 0.44707 1.00835 0.113 0.0
H946 H 0.38239 0.99826 0.18324 0.0
H947 H 0.36185 0.95509 0.15813 0.0
C948 C 0.44475 0.05295 0.21481 0.0
C949 C 0.4523 0.08003 0.20107 0.0
C950 C 0.43392 0.02917 0.19814 0.0
C951 C 0.43016 0.03168 0.16718 0.0
C952 C 0.43864 0.05834 0.1531 0.0
C953 C 0.44961 0.08235 0.16992 0.0
C954 C 0.41612 0.97233 0.10811 0.0
C955 C 0.39201 0.95674 0.1205 0.0
C956 C 0.42822 0.99709 0.1228 0.0
C957 C 0.41658 1.00661 0.15028 0.0
C958 C 0.3922 0.99128 0.16233 0.0
C959 C 0.38016 0.96668 0.14772 0.0
H960 H 0.79806 0.34484 0.70202 0.0
H961 H 0.80776 0.40824 0.63034 0.0
H962 H 0.7555 0.3226 0.67594 0.0
H963 H 0.76501 0.38686 0.6051 0.0
H964 H 0.71622 0.32013 0.54967 0.0
H965 H 0.75662 0.33958 0.57947 0.0
H966 H 0.70233 0.33339 0.65842 0.0
H967 H 0.66124 0.31322 0.62825 0.0
C968 C 0.79109 0.35409 0.6808 0.0
C969 C 0.80642 0.37829 0.66824 0.0
C970 C 0.76654 0.34156 0.66607 0.0
C971 C 0.75702 0.35283 0.63837 0.0
C972 C 0.77201 0.37738 0.62621 0.0
C973 C 0.79637 0.38987 0.64088 0.0
C974 C 0.71266 0.32276 0.57338 0.0
C975 C 0.68521 0.31545 0.58647 0.0
C976 C 0.73592 0.33409 0.59047 0.0
C977 C 0.73253 0.33857 0.62121 0.0
C978 C 0.70555 0.33022 0.63472 0.0
C979 C 0.68203 0.31878 0.61747 0.0
H980 H 0.92529 0.49206 0.79952 0.0
H981 H 0.97095 0.45575 0.87648 0.0
H982 H 0.90838 0.53408 0.82874 0.0
H983 H 0.95425 0.49884 0.90603 0.0
H984 H 0.88819 0.56667 0.95246 0.0
H985 H 0.90925 0.52308 0.92702 0.0
H986 H 0.92918 0.57797 0.85067 0.0
H987 H 0.90769 0.62108 0.87579 0.0
C988 C 0.93194 0.49313 0.82272 0.0
C989 C 0.94974 0.47063 0.83559 0.0
C990 C 0.92233 0.51743 0.83948 0.0
C991 C 0.93039 0.52018 0.8696 0.0
C992 C 0.94765 0.49736 0.88284 0.0
C993 C 0.95724 0.47274 0.86596 0.0
C994 C 0.8974 0.56938 0.93037 0.0
C995 C 0.89588 0.59715 0.91589 0.0
C996 C 0.90953 0.54445 0.91584 0.0
C997 C 0.92047 0.54692 0.88663 0.0
C998 C 0.92023 0.57509 0.87286 0.0
C999 C 0.90795 0.59983 0.88723 0.0
H1000 H 0.81086 0.75746 0.12575 0.0
H1001 H 0.77636 0.7084 0.05039 0.0
H1002 H 0.77001 0.73828 0.1566 0.0
H1003 H 0.73619 0.68955 0.08087 0.0
H1004 H 0.68766 0.63547 0.14921 0.0
H1005 H 0.73166 0.65474 0.12445 0.0
H1006 H 0.71201 0.7428 0.1581 0.0
H1007 H 0.66734 0.72365 0.18256 0.0
C1008 C 0.79473 0.74254 0.11584 0.0
C1009 C 0.79686 0.73446 0.08564 0.0
C1010 C 0.77132 0.73173 0.13341 0.0
C1011 C 0.75006 0.71226 0.12116 0.0
C1012 C 0.75243 0.70417 0.09106 0.0
C1013 C 0.7754 0.71519 0.07353 0.0
C1014 C 0.69253 0.65898 0.15127 0.0
C1015 C 0.67358 0.67808 0.16746 0.0
C1016 C 0.71787 0.66998 0.13722 0.0
C1017 C 0.72511 0.70032 0.13913 0.0
C1018 C 0.70705 0.71927 0.15641 0.0
C1019 C 0.68147 0.70828 0.17039 0.0
H1020 H 0.62748 0.45876 0.37927 0.0
H1021 H 0.55839 0.46493 0.44587 0.0
H1022 H 0.60638 0.50171 0.35372 0.0
H1023 H 0.53638 0.50739 0.41935 0.0
H1024 H 0.52406 0.60177 0.37672 0.0
H1025 H 0.54467 0.56009 0.40573 0.0
H1026 H 0.56285 0.5123 0.32416 0.0
H1027 H 0.54313 0.55364 0.29545 0.0
C1028 C 0.60785 0.46936 0.38859 0.0
C1029 C 0.5947 0.45831 0.41469 0.0
C1030 C 0.5955 0.49382 0.37369 0.0
C1031 C 0.5695 0.50788 0.38431 0.0
C1032 C 0.5565 0.49719 0.41065 0.0
C1033 C 0.56893 0.47263 0.42564 0.0
C1034 C 0.53245 0.58232 0.36505 0.0
C1035 C 0.53219 0.58125 0.33373 0.0
C1036 C 0.54413 0.55839 0.38167 0.0
C1037 C 0.55577 0.53298 0.36725 0.0
C1038 C 0.55475 0.53175 0.336 0.0
C1039 C 0.54321 0.55551 0.31951 0.0
H1040 H 0.36322 0.36931 0.209 0.0
H1041 H 0.31764 0.31219 0.14646 0.0
H1042 H 0.38831 0.32593 0.23053 0.0
H1043 H 0.34326 0.26876 0.16769 0.0
H1044 H 0.38049 0.19474 0.23036 0.0
H1045 H 0.34938 0.23715 0.2144 0.0
H1046 H 0.42764 0.29246 0.21058 0.0
H1047 H 0.45842 0.25071 0.22634 0.0
C1048 C 0.35824 0.34745 0.20011 0.0
C1049 C 0.3386 0.34424 0.17587 0.0
C1050 C 0.37279 0.32262 0.2123 0.0
C1051 C 0.36793 0.29394 0.20066 0.0
C1052 C 0.34735 0.29053 0.17724 0.0
C1053 C 0.33294 0.31544 0.16488 0.0
C1054 C 0.39095 0.21601 0.22621 0.0
C1055 C 0.42196 0.21925 0.22951 0.0
C1056 C 0.37318 0.24023 0.217 0.0
C1057 C 0.38606 0.26818 0.21138 0.0
C1058 C 0.41695 0.27138 0.21513 0.0
C1059 C 0.43464 0.24728 0.22397 0.0
H1060 H 0.8818 0.35646 0.80364 0.0
H1061 H 0.9611 0.30163 0.81161 0.0
H1062 H 0.85142 0.31403 0.81927 0.0
H1063 H 0.93098 0.2598 0.82713 0.0
H1064 H 0.86801 0.18228 0.82765 0.0
H1065 H 0.89324 0.22538 0.8066 0.0
H1066 H 0.84441 0.28347 0.86596 0.0
H1067 H 0.81868 0.24035 0.88666 0.0
C1068 C 0.89273 0.33543 0.80861 0.0
C1069 C 0.9239 0.33253 0.80646 0.0
C1070 C 0.87536 0.3112 0.81764 0.0
C1071 C 0.88881 0.28353 0.82429 0.0
C1072 C 0.91988 0.28064 0.82175 0.0
C1073 C 0.93718 0.30479 0.81306 0.0
C1074 C 0.86227 0.20427 0.83586 0.0
C1075 C 0.8415 0.20786 0.85897 0.0
C1076 C 0.8769 0.22894 0.82398 0.0
C1077 C 0.87097 0.25781 0.83478 0.0
C1078 C 0.84934 0.26155 0.85707 0.0
C1079 C 0.83486 0.23683 0.86912 0.0
H1080 H 0.02578 0.60386 0.13874 0.0
H1081 H 0.08384 0.6497 0.0777 0.0
H1082 H 0.98264 0.62945 0.11683 0.0
H1083 H 0.04072 0.67472 0.05544 0.0
H1084 H 0.965 0.74443 0.05827 0.0
H1085 H 1.00678 0.71387 0.07448 0.0
H1086 H 0.95173 0.63544 0.06991 0.0
H1087 H 0.90931 0.66632 0.05358 0.0
C1088 C 0.0293 0.61922 0.1205 0.0
C1089 C 0.05827 0.62496 0.11014 0.0
C1090 C 1.00456 0.63361 0.10775 0.0
C1091 C 1.0083 0.65422 0.08452 0.0
C1092 C 0.03716 0.65917 0.07351 0.0
C1093 C 0.06184 0.64467 0.08611 0.0
C1094 C 0.96165 0.72066 0.06055 0.0
C1095 C 0.93368 0.70786 0.05474 0.0
C1096 C 0.98577 0.70309 0.06964 0.0
C1097 C 0.98263 0.67222 0.07336 0.0
C1098 C 0.95476 0.65922 0.06737 0.0
C1099 C 0.93053 0.67687 0.05793 0.0
H1100 H 0.61908 0.83128 0.41091 0.0
H1101 H 0.6532 0.84881 0.32277 0.0
H1102 H 0.59387 0.78722 0.39217 0.0
H1103 H 0.62827 0.80415 0.30417 0.0
H1104 H 0.59708 0.7058 0.28978 0.0
H1105 H 0.62699 0.74739 0.30874 0.0
H1106 H 0.55088 0.77975 0.35806 0.0
H1107 H 0.52128 0.73866 0.33943 0.0
C1108 C 0.62115 0.82585 0.3875 0.0
C1109 C 0.63785 0.84396 0.3683 0.0
C1110 C 0.60679 0.80046 0.3768 0.0
C1111 C 0.60888 0.79232 0.34664 0.0
C1112 C 0.62643 0.80972 0.32757 0.0
C1113 C 0.6407 0.83532 0.33827 0.0
C1114 C 0.58685 0.72174 0.30478 0.0
C1115 C 0.55678 0.71888 0.31306 0.0
C1116 C 0.60391 0.74562 0.31549 0.0
C1117 C 0.59132 0.76677 0.33502 0.0
C1118 C 0.56137 0.76365 0.34339 0.0
C1119 C 0.54433 0.74013 0.3325 0.0
H1120 H 0.51464 0.31075 0.55344 0.0
H1121 H 0.57272 0.38715 0.55625 0.0
H1122 H 0.47307 0.34162 0.56929 0.0
H1123 H 0.5305 0.4184 0.57222 0.0
H1124 H 0.45482 0.44734 0.64018 0.0
H1125 H 0.49805 0.42234 0.61811 0.0
H1126 H 0.44091 0.38287 0.5515 0.0
H1127 H 0.39768 0.40728 0.57389 0.0
C1128 C 0.51855 0.33424 0.55728 0.0
C1129 C 0.54712 0.34644 0.55373 0.0
C1130 C 0.49456 0.35201 0.56615 0.0
C1131 C 0.49843 0.38248 0.57192 0.0
C1132 C 0.52689 0.39492 0.56806 0.0
C1133 C 0.551 0.37709 0.55881 0.0
C1134 C 0.45154 0.4334 0.62075 0.0
C1135 C 0.42277 0.42906 0.60897 0.0
C1136 C 0.47634 0.41937 0.60792 0.0
C1137 C 0.47288 0.4005 0.58317 0.0
C1138 C 0.44426 0.39705 0.57074 0.0
C1139 C 0.41952 0.41122 0.58344 0.0
H1140 H 0.11726 0.68311 0.71166 0.0
H1141 H 0.16337 0.74005 0.64976 0.0
H1142 H 0.09265 0.72665 0.73328 0.0
H1143 H 0.13821 0.78363 0.67105 0.0
H1144 H 0.10176 0.85786 0.73336 0.0
H1145 H 0.13244 0.81513 0.71767 0.0
H1146 H 0.05364 0.76057 0.71335 0.0
H1147 H 0.02328 0.80264 0.72888 0.0
C1148 C 0.12246 0.70495 0.70293 0.0
C1149 C 0.1421 0.70808 0.67883 0.0
C1150 C 0.10819 0.72988 0.71516 0.0
C1151 C 0.11332 0.75855 0.70372 0.0
C1152 C 0.13391 0.76186 0.68046 0.0
C1153 C 0.14805 0.73688 0.66806 0.0
C1154 C 0.09109 0.83668 0.72918 0.0
C1155 C 0.06005 0.83375 0.73225 0.0
C1156 C 0.10862 0.81228 0.72012 0.0
C1157 C 0.09546 0.78445 0.71442 0.0
C1158 C 0.06454 0.78154 0.71798 0.0
C1159 C 0.04709 0.80583 0.72667 0.0
H1160 H 0.41317 0.88489 0.98322 0.0
H1161 H 0.4691 0.80658 0.97389 0.0
H1162 H 0.45506 0.91614 0.96775 0.0
H1163 H 0.51035 0.83751 0.95852 0.0
H1164 H 0.58708 0.90104 0.95775 0.0
H1165 H 0.54451 0.87526 0.97913 0.0
H1166 H 0.48504 0.92435 0.92097 0.0
H1167 H 0.52764 0.95067 0.89998 0.0
C1168 C 0.43432 0.87437 0.97799 0.0
C1169 C 0.4377 0.84323 0.97969 0.0
C1170 C 0.45825 0.89222 0.96906 0.0
C1171 C 0.48605 0.87929 0.96207 0.0
C1172 C 0.4894 0.84823 0.96418 0.0
C1173 C 0.46557 0.83046 0.97278 0.0
C1174 C 0.5649 0.90674 0.94989 0.0
C1175 C 0.56078 0.92774 0.92701 0.0
C1176 C 0.54053 0.8918 0.96197 0.0
C1177 C 0.51143 0.8976 0.95157 0.0
C1178 C 0.50715 0.91949 0.92955 0.0
C1179 C 0.53158 0.93431 0.91732 0.0
H1180 H 0.93176 0.09838 0.45368 0.0
H1181 H 0.92501 0.16409 0.38359 0.0
H1182 H 0.97418 0.12519 0.47498 0.0
H1183 H 0.9678 0.18996 0.40406 0.0
H1184 H 0.01931 0.24905 0.46622 0.0
H1185 H 0.97808 0.22 0.44738 0.0
H1186 H 0.02707 0.13876 0.46554 0.0
H1187 H 0.06871 0.16812 0.48519 0.0
C1188 C 0.93931 0.11848 0.44279 0.0
C1189 C 0.92489 0.12908 0.41692 0.0
C1190 C 0.96383 0.13363 0.45481 0.0
C1191 C 0.97432 0.15981 0.44132 0.0
C1192 C 0.96009 0.17011 0.41528 0.0
C1193 C 0.93571 0.15503 0.40331 0.0
C1194 C 0.02148 0.22499 0.46633 0.0
C1195 C 0.04755 0.21097 0.47705 0.0
C1196 C 0.99778 0.20831 0.45531 0.0
C1197 C 0.99937 0.17705 0.45455 0.0
C1198 C 0.02511 0.16283 0.4659 0.0
C1199 C 0.04901 0.17963 0.47701 0.0
loop_
_geom_bond_atom_site_label_1
_geom_bond_atom_site_label_2
_geom_bond_distance
_geom_bond_site_symmetry_2
_ccdc_geom_bond_type
Tb0 C9 2.764 . S
Tb0 O10 2.325 . S
Tb0 O13 2.303 . S
Tb0 O17 2.322 . S
Tb0 O18 2.349 . S
Tb0 O21 2.415 . S
Tb0 O22 2.399 . S
Tb1 O11 2.322 . S
Tb1 O12 2.349 . S
Tb1 O14 2.415 . S
Tb1 O15 2.399 . S
Tb1 O16 2.325 . S
Tb1 O19 2.303 . S
Tb1 C30 2.764 . S
C2 O18 1.261 . S
C2 O19 1.257 . S
C3 C6 1.358 . S
C3 C7 1.332 . S
C3 C9 1.504 . S
C4 C5 1.373 . S
C4 C8 1.308 . S
C5 C4 1.373 . S
C5 C6 1.429 . S
C5 H32 0.932 . S
C6 C3 1.358 . S
C6 C5 1.429 . S
C6 H33 0.930 . S
C7 C3 1.332 . S
C7 C8 1.394 . S
C7 H34 0.932 . S
C8 C4 1.308 . S
C8 C7 1.394 . S
C8 H35 0.929 . S
C9 Tb0 2.764 . S
C9 C3 1.504 . S
C9 O21 1.239 . S
C9 O22 1.263 . S
O10 Tb0 2.325 . S
O10 C20 1.236 . S
O11 Tb1 2.322 . S
O11 C20 1.257 . S
O12 Tb1 2.349 . S
O12 C23 1.261 . S
O13 Tb0 2.303 . S
O13 C23 1.257 . S
O14 Tb1 2.415 . S
O14 C30 1.239 . S
O15 Tb1 2.399 . S
O15 C30 1.263 . S
O16 Tb1 2.325 . S
O16 C31 1.236 . S
O17 Tb0 2.322 . S
O17 C31 1.257 . S
O18 Tb0 2.349 . S
O18 C2 1.261 . S
O19 Tb1 2.303 . S
O19 C2 1.257 . S
C20 O10 1.236 . S
C20 O11 1.257 . S
O21 Tb0 2.415 . S
O21 C9 1.239 . S
O22 Tb0 2.399 . S
O22 C9 1.263 . S
C23 O12 1.261 . S
C23 O13 1.257 . S
C24 C27 1.358 . S
C24 C28 1.332 . S
C24 C30 1.504 . S
C25 C26 1.373 . S
C25 C29 1.308 . S
C26 C25 1.373 . S
C26 C27 1.429 . S
C26 H36 0.932 . S
C27 C24 1.358 . S
C27 C26 1.429 . S
C27 H37 0.930 . S
C28 C24 1.332 . S
C28 C29 1.394 . S
C28 H38 0.932 . S
C29 C25 1.308 . S
C29 C28 1.394 . S
C29 H39 0.929 . S
C30 Tb1 2.764 . S
C30 O14 1.239 . S
C30 O15 1.263 . S
C30 C24 1.504 . S
C31 O16 1.236 . S
C31 O17 1.257 . S
H32 C5 0.932 . S
H33 C6 0.930 . S
H34 C7 0.932 . S
H35 C8 0.929 . S
H36 C26 0.932 . S
H37 C27 0.930 . S
H38 C28 0.932 . S
H39 C29 0.929 . S
Tb40 C49 2.764 . S
Tb40 O50 2.325 . S
Tb40 O53 2.303 . S
Tb40 O57 2.322 . S
Tb40 O58 2.349 . S
Tb40 O61 2.415 . S
Tb40 O62 2.399 . S
Tb41 O51 2.322 . S
Tb41 O52 2.349 1_655 S
Tb41 O54 2.415 . S
Tb41 O55 2.399 . S
Tb41 O56 2.325 1_655 S
Tb41 O59 2.303 . S
Tb41 C70 2.764 . S
C42 O58 1.261 1_655 S
C42 O59 1.257 . S
C43 C46 1.358 . S
C43 C47 1.332 . S
C43 C49 1.504 . S
C44 C45 1.373 . S
C44 C48 1.308 . S
C45 C44 1.373 . S
C45 C46 1.429 . S
C45 H72 0.932 . S
C46 C43 1.358 . S
C46 C45 1.429 . S
C46 H73 0.930 . S
C47 C43 1.332 . S
C47 C48 1.394 . S
C47 H74 0.932 . S
C48 C44 1.308 . S
C48 C47 1.394 . S
C48 H75 0.929 . S
C49 Tb40 2.764 . S
C49 C43 1.504 . S
C49 O61 1.239 . S
C49 O62 1.263 . S
O50 Tb40 2.325 . S
O50 C60 1.237 1_455 S
O51 Tb41 2.322 . S
O51 C60 1.257 . S
O52 Tb41 2.349 1_455 S
O52 C63 1.261 . S
O53 Tb40 2.303 . S
O53 C63 1.257 . S
O54 Tb41 2.415 . S
O54 C70 1.239 . S
O55 Tb41 2.399 . S
O55 C70 1.263 . S
O56 Tb41 2.325 1_455 S
O56 C71 1.236 . S
O57 Tb40 2.322 . S
O57 C71 1.257 . S
O58 Tb40 2.349 . S
O58 C42 1.261 1_455 S
O59 Tb41 2.303 . S
O59 C42 1.257 . S
C60 O50 1.237 1_655 S
C60 O51 1.257 . S
O61 Tb40 2.415 . S
O61 C49 1.239 . S
O62 Tb40 2.399 . S
O62 C49 1.263 . S
C63 O52 1.261 . S
C63 O53 1.257 . S
C64 C67 1.358 . S
C64 C68 1.332 . S
C64 C70 1.504 . S
C65 C66 1.373 . S
C65 C69 1.308 . S
C66 C65 1.373 . S
C66 C67 1.429 . S
C66 H76 0.932 . S
C67 C64 1.358 . S
C67 C66 1.429 . S
C67 H77 0.930 . S
C68 C64 1.332 . S
C68 C69 1.394 . S
C68 H78 0.932 . S
C69 C65 1.308 . S
C69 C68 1.394 . S
C69 H79 0.929 . S
C70 Tb41 2.764 . S
C70 O54 1.239 . S
C70 O55 1.263 . S
C70 C64 1.504 . S
C71 O56 1.236 . S
C71 O57 1.257 . S
H72 C45 0.932 . S
H73 C46 0.930 . S
H74 C47 0.932 . S
H75 C48 0.929 . S
H76 C66 0.932 . S
H77 C67 0.930 . S
H78 C68 0.932 . S
H79 C69 0.929 . S
Tb80 C89 2.764 . S
Tb80 O90 2.325 . S
Tb80 O93 2.303 . S
Tb80 O97 2.322 . S
Tb80 O98 2.349 1_556 S
Tb80 O101 2.415 . S
Tb80 O102 2.399 . S
Tb81 O91 2.322 . S
Tb81 O92 2.349 1_554 S
Tb81 O94 2.415 . S
Tb81 O95 2.399 . S
Tb81 O96 2.318 1_554 S
Tb81 O99 2.303 . S
Tb81 C110 2.764 . S
C82 O98 1.261 . S
C82 O99 1.257 . S
C83 C86 1.358 . S
C83 C87 1.332 . S
C83 C89 1.504 . S
C84 C85 1.373 . S
C84 C88 1.308 . S
C85 C84 1.373 . S
C85 C86 1.429 . S
C85 H112 0.932 . S
C86 C83 1.358 . S
C86 C85 1.429 . S
C86 H113 0.930 . S
C87 C83 1.332 . S
C87 C88 1.394 . S
C87 H114 0.932 . S
C88 C84 1.308 . S
C88 C87 1.394 . S
C88 H115 0.929 . S
C89 Tb80 2.764 . S
C89 C83 1.504 . S
C89 O101 1.239 . S
C89 O102 1.263 . S
O90 Tb80 2.325 . S
O90 C100 1.236 1_556 S
O91 Tb81 2.322 . S
O91 C100 1.257 . S
O92 Tb81 2.349 1_556 S
O92 C103 1.261 . S
O93 Tb80 2.303 . S
O93 C103 1.257 . S
O94 Tb81 2.415 . S
O94 C110 1.239 . S
O95 Tb81 2.399 . S
O95 C110 1.263 . S
O96 Tb81 2.318 1_556 S
O96 C111 1.243 . S
O97 Tb80 2.322 . S
O97 C111 1.257 . S
O98 Tb80 2.349 1_554 S
O98 C82 1.261 . S
O99 Tb81 2.303 . S
O99 C82 1.257 . S
C100 O90 1.236 1_554 S
C100 O91 1.257 . S
O101 Tb80 2.415 . S
O101 C89 1.239 . S
O102 Tb80 2.399 . S
O102 C89 1.263 . S
C103 O92 1.261 . S
C103 O93 1.257 . S
C104 C107 1.358 . S
C104 C108 1.332 . S
C104 C110 1.504 . S
C105 C106 1.373 . S
C105 C109 1.308 . S
C106 C105 1.373 . S
C106 C107 1.429 . S
C106 H116 0.932 . S
C107 C104 1.358 . S
C107 C106 1.429 . S
C107 H117 0.930 . S
C108 C104 1.332 . S
C108 C109 1.394 . S
C108 H118 0.932 . S
C109 C105 1.308 . S
C109 C108 1.394 . S
C109 H119 0.929 . S
C110 Tb81 2.764 . S
C110 O94 1.239 . S
C110 O95 1.263 . S
C110 C104 1.504 . S
C111 O96 1.243 . S
C111 O97 1.257 . S
H112 C85 0.932 . S
H113 C86 0.930 . S
H114 C87 0.932 . S
H115 C88 0.929 . S
H116 C106 0.932 . S
H117 C107 0.930 . S
H118 C108 0.932 . S
H119 C109 0.929 . S
Tb120 C129 2.764 . S
Tb120 O130 2.325 . S
Tb120 O133 2.303 . S
Tb120 O137 2.322 . S
Tb120 O138 2.349 . S
Tb120 O141 2.415 . S
Tb120 O142 2.399 . S
Tb121 O131 2.322 . S
Tb121 O132 2.349 . S
Tb121 O134 2.415 . S
Tb121 O135 2.399 . S
Tb121 O136 2.325 . S
Tb121 O139 2.303 . S
Tb121 C150 2.764 . S
C122 O138 1.261 . S
C122 O139 1.257 . S
C123 C126 1.358 . S
C123 C127 1.332 . S
C123 C129 1.504 . S
C124 C125 1.373 . S
C124 C128 1.308 . S
C125 C124 1.373 . S
C125 C126 1.429 . S
C125 H152 0.932 . S
C126 C123 1.358 . S
C126 C125 1.429 . S
C126 H153 0.930 . S
C127 C123 1.332 . S
C127 C128 1.394 . S
C127 H154 0.932 . S
C128 C124 1.308 . S
C128 C127 1.394 . S
C128 H155 0.929 . S
C129 Tb120 2.764 . S
C129 C123 1.504 . S
C129 O141 1.239 . S
C129 O142 1.263 . S
O130 Tb120 2.325 . S
O130 C140 1.236 . S
O131 Tb121 2.322 . S
O131 C140 1.257 . S
O132 Tb121 2.349 . S
O132 C143 1.261 . S
O133 Tb120 2.303 . S
O133 C143 1.257 . S
O134 Tb121 2.415 . S
O134 C150 1.239 . S
O135 Tb121 2.399 . S
O135 C150 1.263 . S
O136 Tb121 2.325 . S
O136 C151 1.236 . S
O137 Tb120 2.322 . S
O137 C151 1.257 . S
O138 Tb120 2.349 . S
O138 C122 1.261 . S
O139 Tb121 2.303 . S
O139 C122 1.257 . S
C140 O130 1.236 . S
C140 O131 1.257 . S
O141 Tb120 2.415 . S
O141 C129 1.239 . S
O142 Tb120 2.399 . S
O142 C129 1.263 . S
C143 O132 1.261 . S
C143 O133 1.257 . S
C144 C147 1.358 . S
C144 C148 1.332 . S
C144 C150 1.504 . S
C145 C146 1.373 . S
C145 C149 1.308 . S
C146 C145 1.373 . S
C146 C147 1.429 . S
C146 H156 0.932 . S
C147 C144 1.358 . S
C147 C146 1.429 . S
C147 H157 0.930 . S
C148 C144 1.332 . S
C148 C149 1.394 . S
C148 H158 0.932 . S
C149 C145 1.308 . S
C149 C148 1.394 . S
C149 H159 0.929 . S
C150 Tb121 2.764 . S
C150 O134 1.239 . S
C150 O135 1.263 . S
C150 C144 1.504 . S
C151 O136 1.236 . S
C151 O137 1.257 . S
H152 C125 0.932 . S
H153 C126 0.930 . S
H154 C127 0.932 . S
H155 C128 0.929 . S
H156 C146 0.932 . S
H157 C147 0.930 . S
H158 C148 0.932 . S
H159 C149 0.929 . S
Tb160 C169 2.764 . S
Tb160 O170 2.325 . S
Tb160 O173 2.303 . S
Tb160 O177 2.322 . S
Tb160 O178 2.349 . S
Tb160 O181 2.415 . S
Tb160 O182 2.399 . S
Tb161 O171 2.322 . S
Tb161 O172 2.349 . S
Tb161 O174 2.415 . S
Tb161 O175 2.399 . S
Tb161 O176 2.325 . S
Tb161 O179 2.303 . S
Tb161 C190 2.764 . S
C162 O178 1.261 . S
C162 O179 1.257 . S
C163 C166 1.358 . S
C163 C167 1.332 . S
C163 C169 1.504 . S
C164 C165 1.373 . S
C164 C168 1.308 . S
C165 C164 1.373 . S
C165 C166 1.429 . S
C165 H192 0.932 . S
C166 C163 1.358 . S
C166 C165 1.429 . S
C166 H193 0.930 . S
C167 C163 1.332 . S
C167 C168 1.394 . S
C167 H194 0.932 . S
C168 C164 1.308 . S
C168 C167 1.394 . S
C168 H195 0.929 . S
C169 Tb160 2.764 . S
C169 C163 1.504 . S
C169 O181 1.239 . S
C169 O182 1.263 . S
O170 Tb160 2.325 . S
O170 C180 1.236 . S
O171 Tb161 2.322 . S
O171 C180 1.257 . S
O172 Tb161 2.349 . S
O172 C183 1.261 . S
O173 Tb160 2.303 . S
O173 C183 1.257 . S
O174 Tb161 2.415 . S
O174 C190 1.239 . S
O175 Tb161 2.399 . S
O175 C190 1.263 . S
O176 Tb161 2.325 . S
O176 C191 1.236 . S
O177 Tb160 2.322 . S
O177 C191 1.257 . S
O178 Tb160 2.349 . S
O178 C162 1.261 . S
O179 Tb161 2.303 . S
O179 C162 1.257 . S
C180 O170 1.236 . S
C180 O171 1.257 . S
O181 Tb160 2.415 . S
O181 C169 1.239 . S
O182 Tb160 2.399 . S
O182 C169 1.263 . S
C183 O172 1.261 . S
C183 O173 1.257 . S
C184 C187 1.358 . S
C184 C188 1.332 . S
C184 C190 1.504 . S
C185 C186 1.373 . S
C185 C189 1.308 . S
C186 C185 1.373 . S
C186 C187 1.429 . S
C186 H196 0.932 . S
C187 C184 1.358 . S
C187 C186 1.429 . S
C187 H197 0.930 . S
C188 C184 1.332 . S
C188 C189 1.394 . S
C188 H198 0.932 . S
C189 C185 1.308 . S
C189 C188 1.394 . S
C189 H199 0.929 . S
C190 Tb161 2.764 . S
C190 O174 1.239 . S
C190 O175 1.263 . S
C190 C184 1.504 . S
C191 O176 1.236 . S
C191 O177 1.257 . S
H192 C165 0.932 . S
H193 C166 0.930 . S
H194 C167 0.932 . S
H195 C168 0.929 . S
H196 C186 0.932 . S
H197 C187 0.930 . S
H198 C188 0.932 . S
H199 C189 0.929 . S
Tb200 C209 2.732 1_655 S
Tb200 O210 2.311 1_655 S
Tb200 O213 2.332 . S
Tb200 O217 2.354 . S
Tb200 O218 2.339 1_655 S
Tb200 O221 2.396 1_655 S
Tb200 O222 2.361 1_655 S
Tb201 O211 2.322 . S
Tb201 O212 2.349 . S
Tb201 O214 2.415 . S
Tb201 O215 2.399 . S
Tb201 O216 2.325 . S
Tb201 O219 2.303 . S
Tb201 C230 2.764 . S
C202 O218 1.261 1_655 S
C202 O219 1.257 . S
C203 C206 1.358 . S
C203 C207 1.332 . S
C203 C209 1.504 . S
C204 C205 1.373 . S
C204 C208 1.308 . S
C205 C204 1.373 . S
C205 C206 1.429 . S
C205 H232 0.932 . S
C206 C203 1.358 . S
C206 C205 1.429 . S
C206 H233 0.930 . S
C207 C203 1.332 . S
C207 C208 1.394 . S
C207 H234 0.932 . S
C208 C204 1.308 . S
C208 C207 1.394 . S
C208 H235 0.929 . S
C209 Tb200 2.732 1_455 S
C209 C203 1.504 . S
C209 O221 1.239 . S
C209 O222 1.263 . S
O210 Tb200 2.311 1_455 S
O210 C220 1.236 . S
O211 Tb201 2.322 . S
O211 C220 1.257 1_655 S
O212 Tb201 2.349 . S
O212 C223 1.261 . S
O213 Tb200 2.332 . S
O213 C223 1.257 . S
O214 Tb201 2.415 . S
O214 C230 1.239 . S
O215 Tb201 2.399 . S
O215 C230 1.263 . S
O216 Tb201 2.325 . S
O216 C231 1.236 . S
O217 Tb200 2.354 . S
O217 C231 1.257 . S
O218 Tb200 2.339 1_455 S
O218 C202 1.261 1_455 S
O219 Tb201 2.303 . S
O219 C202 1.257 . S
C220 O210 1.236 . S
C220 O211 1.257 1_455 S
O221 Tb200 2.396 1_455 S
O221 C209 1.239 . S
O222 Tb200 2.361 1_455 S
O222 C209 1.263 . S
C223 O212 1.261 . S
C223 O213 1.257 . S
C224 C227 1.358 . S
C224 C228 1.332 . S
C224 C230 1.504 . S
C225 C226 1.373 . S
C225 C229 1.308 . S
C226 C225 1.373 . S
C226 C227 1.429 . S
C226 H236 0.932 . S
C227 C224 1.358 . S
C227 C226 1.429 . S
C227 H237 0.930 . S
C228 C224 1.332 . S
C228 C229 1.394 . S
C228 H238 0.932 . S
C229 C225 1.308 . S
C229 C228 1.394 . S
C229 H239 0.929 . S
C230 Tb201 2.764 . S
C230 O214 1.239 . S
C230 O215 1.263 . S
C230 C224 1.504 . S
C231 O216 1.236 . S
C231 O217 1.257 . S
H232 C205 0.932 . S
H233 C206 0.930 . S
H234 C207 0.932 . S
H235 C208 0.929 . S
H236 C226 0.932 . S
H237 C227 0.930 . S
H238 C228 0.932 . S
H239 C229 0.929 . S
Tb240 C249 2.764 . S
Tb240 O250 2.325 . S
Tb240 O253 2.303 1_556 S
Tb240 O257 2.322 1_556 S
Tb240 O258 2.349 . S
Tb240 O261 2.415 . S
Tb240 O262 2.399 . S
Tb241 O251 2.319 1_554 S
Tb241 O252 2.349 . S
Tb241 O254 2.415 . S
Tb241 O255 2.399 . S
Tb241 O256 2.325 . S
Tb241 O259 2.303 . S
Tb241 C270 2.764 . S
C242 O258 1.261 . S
C242 O259 1.257 1_556 S
C243 C246 1.358 . S
C243 C247 1.332 . S
C243 C249 1.504 . S
C244 C245 1.373 . S
C244 C248 1.308 . S
C245 C244 1.373 . S
C245 C246 1.429 . S
C245 H272 0.932 . S
C246 C243 1.358 . S
C246 C245 1.429 . S
C246 H273 0.930 . S
C247 C243 1.332 . S
C247 C248 1.394 . S
C247 H274 0.932 . S
C248 C244 1.308 . S
C248 C247 1.394 . S
C248 H275 0.929 . S
C249 Tb240 2.764 . S
C249 C243 1.504 . S
C249 O261 1.239 . S
C249 O262 1.263 . S
O250 Tb240 2.325 . S
O250 C260 1.236 . S
O251 Tb241 2.319 1_556 S
O251 C260 1.261 . S
O252 Tb241 2.349 . S
O252 C263 1.261 . S
O253 Tb240 2.303 1_554 S
O253 C263 1.257 . S
O254 Tb241 2.415 . S
O254 C270 1.239 . S
O255 Tb241 2.399 . S
O255 C270 1.263 . S
O256 Tb241 2.325 . S
O256 C271 1.236 . S
O257 Tb240 2.322 1_554 S
O257 C271 1.257 . S
O258 Tb240 2.349 . S
O258 C242 1.261 . S
O259 Tb241 2.303 . S
O259 C242 1.257 1_554 S
C260 O250 1.236 . S
C260 O251 1.261 . S
O261 Tb240 2.415 . S
O261 C249 1.239 . S
O262 Tb240 2.399 . S
O262 C249 1.263 . S
C263 O252 1.261 . S
C263 O253 1.257 . S
C264 C267 1.358 . S
C264 C268 1.332 . S
C264 C270 1.504 . S
C265 C266 1.373 . S
C265 C269 1.308 . S
C266 C265 1.373 . S
C266 C267 1.429 . S
C266 H276 0.932 . S
C267 C264 1.358 . S
C267 C266 1.429 . S
C267 H277 0.930 . S
C268 C264 1.332 . S
C268 C269 1.394 . S
C268 H278 0.932 . S
C269 C265 1.308 . S
C269 C268 1.394 . S
C269 H279 0.929 . S
C270 Tb241 2.764 . S
C270 O254 1.239 . S
C270 O255 1.263 . S
C270 C264 1.504 . S
C271 O256 1.236 . S
C271 O257 1.257 . S
H272 C245 0.932 . S
H273 C246 0.930 . S
H274 C247 0.932 . S
H275 C248 0.929 . S
H276 C266 0.932 . S
H277 C267 0.930 . S
H278 C268 0.932 . S
H279 C269 0.929 . S
Tb280 C289 2.764 . S
Tb280 O290 2.325 . S
Tb280 O293 2.303 . S
Tb280 O297 2.322 . S
Tb280 O298 2.349 . S
Tb280 O301 2.415 . S
Tb280 O302 2.399 . S
Tb281 O291 2.322 . S
Tb281 O292 2.349 . S
Tb281 O294 2.415 . S
Tb281 O295 2.399 . S
Tb281 O296 2.325 . S
Tb281 O299 2.303 . S
Tb281 C310 2.764 . S
C282 O298 1.261 . S
C282 O299 1.257 . S
C283 C286 1.358 . S
C283 C287 1.332 . S
C283 C289 1.504 . S
C284 C285 1.373 . S
C284 C288 1.308 . S
C285 C284 1.373 . S
C285 C286 1.429 . S
C285 H312 0.932 . S
C286 C283 1.358 . S
C286 C285 1.429 . S
C286 H313 0.930 . S
C287 C283 1.332 . S
C287 C288 1.394 . S
C287 H314 0.932 . S
C288 C284 1.308 . S
C288 C287 1.394 . S
C288 H315 0.929 . S
C289 Tb280 2.764 . S
C289 C283 1.504 . S
C289 O301 1.239 . S
C289 O302 1.263 . S
O290 Tb280 2.325 . S
O290 C300 1.236 . S
O291 Tb281 2.322 . S
O291 C300 1.257 . S
O292 Tb281 2.349 . S
O292 C303 1.261 . S
O293 Tb280 2.303 . S
O293 C303 1.257 . S
O294 Tb281 2.415 . S
O294 C310 1.239 . S
O295 Tb281 2.399 . S
O295 C310 1.263 . S
O296 Tb281 2.325 . S
O296 C311 1.236 . S
O297 Tb280 2.322 . S
O297 C311 1.257 . S
O298 Tb280 2.349 . S
O298 C282 1.261 . S
O299 Tb281 2.303 . S
O299 C282 1.257 . S
C300 O290 1.236 . S
C300 O291 1.257 . S
O301 Tb280 2.415 . S
O301 C289 1.239 . S
O302 Tb280 2.399 . S
O302 C289 1.263 . S
C303 O292 1.261 . S
C303 O293 1.257 . S
C304 C307 1.358 . S
C304 C308 1.332 . S
C304 C310 1.504 . S
C305 C306 1.373 . S
C305 C309 1.308 . S
C306 C305 1.373 . S
C306 C307 1.429 . S
C306 H316 0.932 . S
C307 C304 1.358 . S
C307 C306 1.429 . S
C307 H317 0.930 . S
C308 C304 1.332 . S
C308 C309 1.394 . S
C308 H318 0.932 . S
C309 C305 1.308 . S
C309 C308 1.394 . S
C309 H319 0.929 . S
C310 Tb281 2.764 . S
C310 O294 1.239 . S
C310 O295 1.263 . S
C310 C304 1.504 . S
C311 O296 1.236 . S
C311 O297 1.257 . S
H312 C285 0.932 . S
H313 C286 0.930 . S
H314 C287 0.932 . S
H315 C288 0.929 . S
H316 C306 0.932 . S
H317 C307 0.930 . S
H318 C308 0.932 . S
H319 C309 0.929 . S
Tb320 C329 2.764 . S
Tb320 O330 2.325 . S
Tb320 O333 2.303 . S
Tb320 O337 2.322 . S
Tb320 O338 2.349 . S
Tb320 O341 2.415 . S
Tb320 O342 2.399 . S
Tb321 O331 2.322 . S
Tb321 O332 2.349 . S
Tb321 O334 2.415 . S
Tb321 O335 2.399 . S
Tb321 O336 2.325 . S
Tb321 O339 2.303 . S
Tb321 C350 2.764 . S
C322 O338 1.261 . S
C322 O339 1.257 . S
C323 C326 1.358 . S
C323 C327 1.332 . S
C323 C329 1.504 . S
C324 C325 1.373 . S
C324 C328 1.308 . S
C325 C324 1.373 . S
C325 C326 1.429 . S
C325 H352 0.932 . S
C326 C323 1.358 . S
C326 C325 1.429 . S
C326 H353 0.930 . S
C327 C323 1.332 . S
C327 C328 1.394 . S
C327 H354 0.932 . S
C328 C324 1.308 . S
C328 C327 1.394 . S
C328 H355 0.929 . S
C329 Tb320 2.764 . S
C329 C323 1.504 . S
C329 O341 1.239 . S
C329 O342 1.263 . S
O330 Tb320 2.325 . S
O330 C340 1.236 . S
O331 Tb321 2.322 . S
O331 C340 1.257 . S
O332 Tb321 2.349 . S
O332 C343 1.261 . S
O333 Tb320 2.303 . S
O333 C343 1.257 . S
O334 Tb321 2.415 . S
O334 C350 1.239 . S
O335 Tb321 2.399 . S
O335 C350 1.263 . S
O336 Tb321 2.325 . S
O336 C351 1.236 . S
O337 Tb320 2.322 . S
O337 C351 1.257 . S
O338 Tb320 2.349 . S
O338 C322 1.261 . S
O339 Tb321 2.303 . S
O339 C322 1.257 . S
C340 O330 1.236 . S
C340 O331 1.257 . S
O341 Tb320 2.415 . S
O341 C329 1.239 . S
O342 Tb320 2.399 . S
O342 C329 1.263 . S
C343 O332 1.261 . S
C343 O333 1.257 . S
C344 C347 1.358 . S
C344 C348 1.332 . S
C344 C350 1.504 . S
C345 C346 1.373 . S
C345 C349 1.308 . S
C346 C345 1.373 . S
C346 C347 1.429 . S
C346 H356 0.932 . S
C347 C344 1.358 . S
C347 C346 1.429 . S
C347 H357 0.930 . S
C348 C344 1.332 . S
C348 C349 1.394 . S
C348 H358 0.932 . S
C349 C345 1.308 . S
C349 C348 1.394 . S
C349 H359 0.929 . S
C350 Tb321 2.764 . S
C350 O334 1.239 . S
C350 O335 1.263 . S
C350 C344 1.504 . S
C351 O336 1.236 . S
C351 O337 1.257 . S
H352 C325 0.932 . S
H353 C326 0.930 . S
H354 C327 0.932 . S
H355 C328 0.929 . S
H356 C346 0.932 . S
H357 C347 0.930 . S
H358 C348 0.932 . S
H359 C349 0.929 . S
Tb360 C369 2.764 . S
Tb360 O370 2.325 . S
Tb360 O373 2.303 . S
Tb360 O377 2.322 . S
Tb360 O378 2.349 . S
Tb360 O381 2.415 . S
Tb360 O382 2.399 . S
Tb361 O371 2.322 . S
Tb361 O372 2.349 1_565 S
Tb361 O374 2.415 . S
Tb361 O375 2.399 . S
Tb361 O376 2.325 1_565 S
Tb361 O379 2.303 . S
Tb361 C390 2.764 . S
C362 O378 1.261 1_565 S
C362 O379 1.257 . S
C363 C366 1.358 . S
C363 C367 1.332 . S
C363 C369 1.504 . S
C364 C365 1.373 . S
C364 C368 1.308 . S
C365 C364 1.373 . S
C365 C366 1.429 . S
C365 H392 0.932 . S
C366 C363 1.358 . S
C366 C365 1.429 . S
C366 H393 0.930 . S
C367 C363 1.332 . S
C367 C368 1.394 . S
C367 H394 0.932 . S
C368 C364 1.308 . S
C368 C367 1.394 . S
C368 H395 0.929 . S
C369 Tb360 2.764 . S
C369 C363 1.504 . S
C369 O381 1.239 . S
C369 O382 1.263 . S
O370 Tb360 2.325 . S
O370 C380 1.236 . S
O371 Tb361 2.322 . S
O371 C380 1.257 1_565 S
O372 Tb361 2.349 1_545 S
O372 C383 1.261 . S
O373 Tb360 2.303 . S
O373 C383 1.257 . S
O374 Tb361 2.415 . S
O374 C390 1.239 . S
O375 Tb361 2.399 . S
O375 C390 1.263 . S
O376 Tb361 2.325 1_545 S
O376 C391 1.236 . S
O377 Tb360 2.322 . S
O377 C391 1.257 . S
O378 Tb360 2.349 . S
O378 C362 1.261 1_545 S
O379 Tb361 2.303 . S
O379 C362 1.257 . S
C380 O370 1.236 . S
C380 O371 1.257 1_545 S
O381 Tb360 2.415 . S
O381 C369 1.239 . S
O382 Tb360 2.399 . S
O382 C369 1.263 . S
C383 O372 1.261 . S
C383 O373 1.257 . S
C384 C387 1.358 . S
C384 C388 1.332 . S
C384 C390 1.504 . S
C385 C386 1.373 . S
C385 C389 1.308 . S
C386 C385 1.373 . S
C386 C387 1.429 . S
C386 H396 0.932 . S
C387 C384 1.358 . S
C387 C386 1.429 . S
C387 H397 0.930 . S
C388 C384 1.332 . S
C388 C389 1.394 . S
C388 H398 0.932 . S
C389 C385 1.308 . S
C389 C388 1.394 . S
C389 H399 0.929 . S
C390 Tb361 2.764 . S
C390 O374 1.239 . S
C390 O375 1.263 . S
C390 C384 1.504 . S
C391 O376 1.236 . S
C391 O377 1.257 . S
H392 C365 0.932 . S
H393 C366 0.930 . S
H394 C367 0.932 . S
H395 C368 0.929 . S
H396 C386 0.932 . S
H397 C387 0.930 . S
H398 C388 0.932 . S
H399 C389 0.929 . S
Tb400 C409 2.764 . S
Tb400 O410 2.325 . S
Tb400 O413 2.303 . S
Tb400 O417 2.322 . S
Tb400 O418 2.349 . S
Tb400 O421 2.415 . S
Tb400 O422 2.399 . S
Tb401 O411 2.322 . S
Tb401 O412 2.349 1_545 S
Tb401 O414 2.415 . S
Tb401 O415 2.399 . S
Tb401 O416 2.325 1_545 S
Tb401 O419 2.303 . S
Tb401 C430 2.764 . S
C402 O418 1.261 1_545 S
C402 O419 1.257 . S
C403 C406 1.358 . S
C403 C407 1.332 . S
C403 C409 1.504 . S
C404 C405 1.373 . S
C404 C408 1.308 . S
C405 C404 1.373 . S
C405 C406 1.429 . S
C405 H432 0.932 . S
C406 C403 1.358 . S
C406 C405 1.429 . S
C406 H433 0.930 . S
C407 C403 1.332 . S
C407 C408 1.394 . S
C407 H434 0.932 . S
C408 C404 1.308 . S
C408 C407 1.394 . S
C408 H435 0.929 . S
C409 Tb400 2.764 . S
C409 C403 1.504 . S
C409 O421 1.239 . S
C409 O422 1.263 . S
O410 Tb400 2.325 . S
O410 C420 1.236 1_565 S
O411 Tb401 2.322 . S
O411 C420 1.257 . S
O412 Tb401 2.349 1_565 S
O412 C423 1.261 . S
O413 Tb400 2.303 . S
O413 C423 1.257 . S
O414 Tb401 2.415 . S
O414 C430 1.239 . S
O415 Tb401 2.399 . S
O415 C430 1.263 . S
O416 Tb401 2.325 1_565 S
O416 C431 1.236 . S
O417 Tb400 2.322 . S
O417 C431 1.257 . S
O418 Tb400 2.349 . S
O418 C402 1.261 1_565 S
O419 Tb401 2.303 . S
O419 C402 1.257 . S
C420 O410 1.236 1_545 S
C420 O411 1.257 . S
O421 Tb400 2.415 . S
O421 C409 1.239 . S
O422 Tb400 2.399 . S
O422 C409 1.263 . S
C423 O412 1.261 . S
C423 O413 1.257 . S
C424 C427 1.358 . S
C424 C428 1.332 . S
C424 C430 1.504 . S
C425 C426 1.373 . S
C425 C429 1.308 . S
C426 C425 1.373 . S
C426 C427 1.429 . S
C426 H436 0.932 . S
C427 C424 1.358 . S
C427 C426 1.429 . S
C427 H437 0.930 . S
C428 C424 1.332 . S
C428 C429 1.394 . S
C428 H438 0.932 . S
C429 C425 1.308 . S
C429 C428 1.394 . S
C429 H439 0.929 . S
C430 Tb401 2.764 . S
C430 O414 1.239 . S
C430 O415 1.263 . S
C430 C424 1.504 . S
C431 O416 1.236 . S
C431 O417 1.257 . S
H432 C405 0.932 . S
H433 C406 0.930 . S
H434 C407 0.932 . S
H435 C408 0.929 . S
H436 C426 0.932 . S
H437 C427 0.930 . S
H438 C428 0.932 . S
H439 C429 0.929 . S
Tb440 C449 2.764 . S
Tb440 O450 2.325 . S
Tb440 O453 2.303 . S
Tb440 O457 2.322 . S
Tb440 O458 2.349 . S
Tb440 O461 2.415 . S
Tb440 O462 2.399 . S
Tb441 O451 2.322 . S
Tb441 O452 2.349 . S
Tb441 O454 2.415 . S
Tb441 O455 2.399 . S
Tb441 O456 2.325 . S
Tb441 O459 2.303 . S
Tb441 C470 2.764 . S
C442 O458 1.261 . S
C442 O459 1.257 . S
C443 C446 1.358 . S
C443 C447 1.332 . S
C443 C449 1.504 . S
C444 C445 1.373 . S
C444 C448 1.308 . S
C445 C444 1.373 . S
C445 C446 1.429 . S
C445 H472 0.932 . S
C446 C443 1.358 . S
C446 C445 1.429 . S
C446 H473 0.930 . S
C447 C443 1.332 . S
C447 C448 1.394 . S
C447 H474 0.932 . S
C448 C444 1.308 . S
C448 C447 1.394 . S
C448 H475 0.929 . S
C449 Tb440 2.764 . S
C449 C443 1.504 . S
C449 O461 1.239 . S
C449 O462 1.263 . S
O450 Tb440 2.325 . S
O450 C460 1.236 . S
O451 Tb441 2.322 . S
O451 C460 1.257 . S
O452 Tb441 2.349 . S
O452 C463 1.261 . S
O453 Tb440 2.303 . S
O453 C463 1.257 . S
O454 Tb441 2.415 . S
O454 C470 1.239 . S
O455 Tb441 2.399 . S
O455 C470 1.263 . S
O456 Tb441 2.325 . S
O456 C471 1.236 . S
O457 Tb440 2.322 . S
O457 C471 1.257 . S
O458 Tb440 2.349 . S
O458 C442 1.261 . S
O459 Tb441 2.303 . S
O459 C442 1.257 . S
C460 O450 1.236 . S
C460 O451 1.257 . S
O461 Tb440 2.415 . S
O461 C449 1.239 . S
O462 Tb440 2.399 . S
O462 C449 1.263 . S
C463 O452 1.261 . S
C463 O453 1.257 . S
C464 C467 1.358 . S
C464 C468 1.332 . S
C464 C470 1.504 . S
C465 C466 1.373 . S
C465 C469 1.308 . S
C466 C465 1.373 . S
C466 C467 1.429 . S
C466 H476 0.932 . S
C467 C464 1.358 . S
C467 C466 1.429 . S
C467 H477 0.930 . S
C468 C464 1.332 . S
C468 C469 1.394 . S
C468 H478 0.932 . S
C469 C465 1.308 . S
C469 C468 1.394 . S
C469 H479 0.929 . S
C470 Tb441 2.764 . S
C470 O454 1.239 . S
C470 O455 1.263 . S
C470 C464 1.504 . S
C471 O456 1.236 . S
C471 O457 1.257 . S
H472 C445 0.932 . S
H473 C446 0.930 . S
H474 C447 0.932 . S
H475 C448 0.929 . S
H476 C466 0.932 . S
H477 C467 0.930 . S
H478 C468 0.932 . S
H479 C469 0.929 . S
H480 C488 0.950 . S
H481 C493 0.950 . S
H482 C490 0.950 . S
H483 C492 0.950 . S
H484 C494 0.950 . S
H485 C496 0.950 . S
H486 C498 0.950 . S
H487 C499 0.950 . S
C488 H480 0.950 . S
C488 C489 1.386 . S
C488 C490 1.391 . S
C489 C488 1.386 . S
C489 C493 1.393 . S
C490 H482 0.950 . S
C490 C488 1.391 . S
C490 C491 1.400 . S
C491 C490 1.400 . S
C491 C492 1.398 . S
C491 C497 1.491 . S
C492 H483 0.950 . S
C492 C491 1.398 . S
C492 C493 1.391 . S
C493 H481 0.950 . S
C493 C489 1.393 . S
C493 C492 1.391 . S
C494 H484 0.950 . S
C494 C495 1.386 . S
C494 C496 1.391 . S
C495 C494 1.386 . S
C495 C499 1.393 . S
C496 H485 0.950 . S
C496 C494 1.391 . S
C496 C497 1.400 . S
C497 C491 1.491 . S
C497 C496 1.400 . S
C497 C498 1.398 . S
C498 H486 0.950 . S
C498 C497 1.398 . S
C498 C499 1.391 . S
C499 H487 0.950 . S
C499 C495 1.393 . S
C499 C498 1.391 . S
H500 C508 0.950 . S
H501 C513 0.950 . S
H502 C510 0.950 . S
H503 C512 0.950 . S
H504 C514 0.950 1_545 S
H505 C516 0.950 . S
H506 C518 0.950 . S
H507 C519 0.950 . S
C508 H500 0.950 . S
C508 C509 1.386 1_565 S
C508 C510 1.391 . S
C509 C508 1.386 1_545 S
C509 C513 1.393 . S
C510 H502 0.950 . S
C510 C508 1.391 . S
C510 C511 1.400 . S
C511 C510 1.400 . S
C511 C512 1.398 1_565 S
C511 C517 1.491 . S
C512 H503 0.950 . S
C512 C511 1.398 1_545 S
C512 C513 1.391 . S
C513 H501 0.950 . S
C513 C509 1.393 . S
C513 C512 1.391 . S
C514 H504 0.950 1_565 S
C514 C515 1.386 . S
C514 C516 1.391 1_565 S
C515 C514 1.386 . S
C515 C519 1.393 . S
C516 H505 0.950 . S
C516 C514 1.391 1_545 S
C516 C517 1.400 1_545 S
C517 C511 1.491 . S
C517 C516 1.400 1_565 S
C517 C518 1.398 . S
C518 H506 0.950 . S
C518 C517 1.398 . S
C518 C519 1.391 . S
C519 H507 0.950 . S
C519 C515 1.393 . S
C519 C518 1.391 . S
H520 C528 0.950 1_556 S
H521 C533 0.950 . S
H522 C530 0.951 . S
H523 C532 0.950 . S
H524 C534 0.950 . S
H525 C536 0.950 . S
H526 C538 0.950 . S
H527 C539 0.950 . S
C528 H520 0.950 1_554 S
C528 C529 1.386 . S
C528 C530 1.391 . S
C529 C528 1.386 . S
C529 C533 1.393 . S
C530 H522 0.951 . S
C530 C528 1.391 . S
C530 C531 1.400 . S
C531 C530 1.400 . S
C531 C532 1.398 . S
C531 C537 1.491 . S
C532 H523 0.950 . S
C532 C531 1.398 . S
C532 C533 1.391 . S
C533 H521 0.950 . S
C533 C529 1.393 . S
C533 C532 1.391 . S
C534 H524 0.950 . S
C534 C535 1.386 . S
C534 C536 1.391 . S
C535 C534 1.386 . S
C535 C539 1.393 . S
C536 H525 0.950 . S
C536 C534 1.391 . S
C536 C537 1.400 . S
C537 C531 1.491 . S
C537 C536 1.400 . S
C537 C538 1.398 . S
C538 H526 0.950 . S
C538 C537 1.398 . S
C538 C539 1.391 . S
C539 H527 0.950 . S
C539 C535 1.393 . S
C539 C538 1.391 . S
H540 C548 0.950 . S
H541 C553 0.950 . S
H542 C550 0.950 . S
H543 C552 0.950 . S
H544 C554 0.950 . S
H545 C556 0.950 1_565 S
H546 C558 0.950 . S
H547 C559 0.950 . S
C548 H540 0.950 . S
C548 C549 1.386 . S
C548 C550 1.391 . S
C549 C548 1.386 . S
C549 C553 1.393 . S
C550 H542 0.950 . S
C550 C548 1.391 . S
C550 C551 1.400 . S
C551 C550 1.400 . S
C551 C552 1.398 . S
C551 C557 1.491 . S
C552 H543 0.950 . S
C552 C551 1.398 . S
C552 C553 1.391 . S
C553 H541 0.950 . S
C553 C549 1.393 . S
C553 C552 1.391 . S
C554 H544 0.950 . S
C554 C555 1.386 1_565 S
C554 C556 1.391 1_565 S
C555 C554 1.386 1_545 S
C555 C559 1.393 . S
C556 H545 0.950 1_545 S
C556 C554 1.391 1_545 S
C556 C557 1.400 . S
C557 C551 1.491 . S
C557 C556 1.400 . S
C557 C558 1.398 . S
C558 H546 0.950 . S
C558 C557 1.398 . S
C558 C559 1.391 . S
C559 H547 0.950 . S
C559 C555 1.393 . S
C559 C558 1.391 . S
H560 C568 0.950 . S
H561 C573 0.950 . S
H562 C570 0.950 . S
H563 C572 0.950 . S
H564 C574 0.950 . S
H565 C576 0.950 . S
H566 C578 0.950 . S
H567 C579 0.950 . S
C568 H560 0.950 . S
C568 C569 1.386 . S
C568 C570 1.391 . S
C569 C568 1.386 . S
C569 C573 1.393 . S
C570 H562 0.950 . S
C570 C568 1.391 . S
C570 C571 1.400 . S
C571 C570 1.400 . S
C571 C572 1.398 . S
C571 C577 1.491 . S
C572 H563 0.950 . S
C572 C571 1.398 . S
C572 C573 1.391 . S
C573 H561 0.950 . S
C573 C569 1.393 . S
C573 C572 1.391 . S
C574 H564 0.950 . S
C574 C575 1.386 . S
C574 C576 1.391 . S
C575 C574 1.386 . S
C575 C579 1.393 . S
C576 H565 0.950 . S
C576 C574 1.391 . S
C576 C577 1.400 . S
C577 C571 1.491 . S
C577 C576 1.400 . S
C577 C578 1.398 . S
C578 H566 0.950 . S
C578 C577 1.398 . S
C578 C579 1.391 . S
C579 H567 0.950 . S
C579 C575 1.393 . S
C579 C578 1.391 . S
H580 C588 0.950 . S
H581 C593 0.950 . S
H582 C590 0.950 . S
H583 C592 0.950 . S
H584 C594 0.950 . S
H585 C596 0.950 . S
H586 C598 0.950 . S
H587 C599 0.950 . S
C588 H580 0.950 . S
C588 C589 1.386 . S
C588 C590 1.391 . S
C589 C588 1.386 . S
C589 C593 1.393 . S
C590 H582 0.950 . S
C590 C588 1.391 . S
C590 C591 1.400 . S
C591 C590 1.400 . S
C591 C592 1.398 . S
C591 C597 1.491 . S
C592 H583 0.950 . S
C592 C591 1.398 . S
C592 C593 1.391 . S
C593 H581 0.950 . S
C593 C589 1.393 . S
C593 C592 1.391 . S
C594 H584 0.950 . S
C594 C595 1.386 . S
C594 C596 1.391 . S
C595 C594 1.386 . S
C595 C599 1.393 . S
C596 H585 0.950 . S
C596 C594 1.391 . S
C596 C597 1.400 . S
C597 C591 1.491 . S
C597 C596 1.400 . S
C597 C598 1.398 . S
C598 H586 0.950 . S
C598 C597 1.398 . S
C598 C599 1.391 . S
C599 H587 0.950 . S
C599 C595 1.393 . S
C599 C598 1.391 . S
H600 C608 0.950 . S
H601 C613 0.950 . S
H602 C610 0.950 . S
H603 C612 0.950 . S
H604 C614 0.950 1_554 S
H605 C616 0.950 . S
H606 C618 0.950 . S
H607 C619 0.950 . S
C608 H600 0.950 . S
C608 C609 1.386 . S
C608 C610 1.391 . S
C609 C608 1.386 . S
C609 C613 1.393 . S
C610 H602 0.950 . S
C610 C608 1.391 . S
C610 C611 1.400 . S
C611 C610 1.400 . S
C611 C612 1.398 . S
C611 C617 1.491 . S
C612 H603 0.950 . S
C612 C611 1.398 . S
C612 C613 1.391 . S
C613 H601 0.950 . S
C613 C609 1.393 . S
C613 C612 1.391 . S
C614 H604 0.950 1_556 S
C614 C615 1.386 . S
C614 C616 1.391 . S
C615 C614 1.386 . S
C615 C619 1.393 . S
C616 H605 0.950 . S
C616 C614 1.391 . S
C616 C617 1.400 . S
C617 C611 1.491 . S
C617 C616 1.400 . S
C617 C618 1.398 . S
C618 H606 0.950 . S
C618 C617 1.398 . S
C618 C619 1.391 . S
C619 H607 0.950 . S
C619 C615 1.393 . S
C619 C618 1.391 . S
H620 C628 0.950 . S
H621 C633 0.950 . S
H622 C630 0.950 . S
H623 C632 0.950 . S
H624 C634 0.950 . S
H625 C636 0.950 . S
H626 C638 0.950 . S
H627 C639 0.950 . S
C628 H620 0.950 . S
C628 C629 1.386 . S
C628 C630 1.391 . S
C629 C628 1.386 . S
C629 C633 1.393 . S
C630 H622 0.950 . S
C630 C628 1.391 . S
C630 C631 1.400 . S
C631 C630 1.400 . S
C631 C632 1.398 . S
C631 C637 1.491 . S
C632 H623 0.950 . S
C632 C631 1.398 . S
C632 C633 1.391 . S
C633 H621 0.950 . S
C633 C629 1.393 . S
C633 C632 1.391 . S
C634 H624 0.950 . S
C634 C635 1.386 . S
C634 C636 1.391 . S
C635 C634 1.386 . S
C635 C639 1.393 . S
C636 H625 0.950 . S
C636 C634 1.391 . S
C636 C637 1.400 . S
C637 C631 1.491 . S
C637 C636 1.400 . S
C637 C638 1.398 . S
C638 H626 0.950 . S
C638 C637 1.398 . S
C638 C639 1.391 . S
C639 H627 0.950 . S
C639 C635 1.393 . S
C639 C638 1.391 . S
H640 C648 0.950 . S
H641 C653 0.950 . S
H642 C650 0.950 . S
H643 C652 0.950 . S
H644 C654 0.950 . S
H645 C656 0.950 . S
H646 C658 0.950 . S
H647 C659 0.950 . S
C648 H640 0.950 . S
C648 C649 1.386 . S
C648 C650 1.391 . S
C649 C648 1.386 . S
C649 C653 1.393 . S
C650 H642 0.950 . S
C650 C648 1.391 . S
C650 C651 1.400 . S
C651 C650 1.400 . S
C651 C652 1.398 . S
C651 C657 1.491 . S
C652 H643 0.950 . S
C652 C651 1.398 . S
C652 C653 1.391 . S
C653 H641 0.950 . S
C653 C649 1.393 . S
C653 C652 1.391 . S
C654 H644 0.950 . S
C654 C655 1.386 . S
C654 C656 1.391 . S
C655 C654 1.386 . S
C655 C659 1.393 . S
C656 H645 0.950 . S
C656 C654 1.391 . S
C656 C657 1.400 . S
C657 C651 1.491 . S
C657 C656 1.400 . S
C657 C658 1.398 . S
C658 H646 0.950 . S
C658 C657 1.398 . S
C658 C659 1.391 . S
C659 H647 0.950 . S
C659 C655 1.393 . S
C659 C658 1.391 . S
H660 C668 0.950 . S
H661 C673 0.950 . S
H662 C670 0.950 1_655 S
H663 C672 0.950 . S
H664 C674 0.950 . S
H665 C676 0.950 . S
H666 C678 0.950 . S
H667 C679 0.950 . S
C668 H660 0.950 . S
C668 C669 1.386 . S
C668 C670 1.391 . S
C669 C668 1.386 . S
C669 C673 1.393 . S
C670 H662 0.950 1_455 S
C670 C668 1.391 . S
C670 C671 1.400 . S
C671 C670 1.400 . S
C671 C672 1.398 . S
C671 C677 1.491 . S
C672 H663 0.950 . S
C672 C671 1.398 . S
C672 C673 1.391 . S
C673 H661 0.950 . S
C673 C669 1.393 . S
C673 C672 1.391 . S
C674 H664 0.950 . S
C674 C675 1.386 . S
C674 C676 1.391 . S
C675 C674 1.386 . S
C675 C679 1.393 1_455 S
C676 H665 0.950 . S
C676 C674 1.391 . S
C676 C677 1.400 . S
C677 C671 1.491 . S
C677 C676 1.400 . S
C677 C678 1.398 1_455 S
C678 H666 0.950 . S
C678 C677 1.398 1_655 S
C678 C679 1.391 . S
C679 H667 0.950 . S
C679 C675 1.393 1_655 S
C679 C678 1.391 . S
H680 C688 0.950 . S
H681 C693 0.950 . S
H682 C690 0.950 . S
H683 C692 0.950 . S
H684 C694 0.950 . S
H685 C696 0.950 . S
H686 C698 0.950 . S
H687 C699 0.950 . S
C688 H680 0.950 . S
C688 C689 1.386 . S
C688 C690 1.391 . S
C689 C688 1.386 . S
C689 C693 1.393 . S
C690 H682 0.950 . S
C690 C688 1.391 . S
C690 C691 1.400 . S
C691 C690 1.400 . S
C691 C692 1.398 . S
C691 C697 1.491 . S
C692 H683 0.950 . S
C692 C691 1.398 . S
C692 C693 1.391 . S
C693 H681 0.950 . S
C693 C689 1.393 . S
C693 C692 1.391 . S
C694 H684 0.950 . S
C694 C695 1.386 . S
C694 C696 1.391 . S
C695 C694 1.386 . S
C695 C699 1.393 . S
C696 H685 0.950 . S
C696 C694 1.391 . S
C696 C697 1.400 . S
C697 C691 1.491 . S
C697 C696 1.400 . S
C697 C698 1.398 . S
C698 H686 0.950 . S
C698 C697 1.398 . S
C698 C699 1.391 . S
C699 H687 0.950 . S
C699 C695 1.393 . S
C699 C698 1.391 . S
H700 C708 0.950 . S
H701 C713 0.950 . S
H702 C710 0.950 . S
H703 C712 0.950 . S
H704 C714 0.950 . S
H705 C716 0.950 . S
H706 C718 0.950 . S
H707 C719 0.950 . S
C708 H700 0.950 . S
C708 C709 1.386 . S
C708 C710 1.391 . S
C709 C708 1.386 . S
C709 C713 1.393 . S
C710 H702 0.950 . S
C710 C708 1.391 . S
C710 C711 1.400 . S
C711 C710 1.400 . S
C711 C712 1.398 . S
C711 C717 1.491 . S
C712 H703 0.950 . S
C712 C711 1.398 . S
C712 C713 1.391 . S
C713 H701 0.950 . S
C713 C709 1.393 . S
C713 C712 1.391 . S
C714 H704 0.950 . S
C714 C715 1.386 . S
C714 C716 1.391 . S
C715 C714 1.386 . S
C715 C719 1.393 . S
C716 H705 0.950 . S
C716 C714 1.391 . S
C716 C717 1.400 . S
C717 C711 1.491 . S
C717 C716 1.400 . S
C717 C718 1.398 . S
C718 H706 0.950 . S
C718 C717 1.398 . S
C718 C719 1.391 . S
C719 H707 0.950 . S
C719 C715 1.393 . S
C719 C718 1.391 . S
H720 C728 0.950 . S
H721 C733 0.950 . S
H722 C730 0.950 . S
H723 C732 0.950 . S
H724 C734 0.950 . S
H725 C736 0.950 . S
H726 C738 0.950 . S
H727 C739 0.950 . S
C728 H720 0.950 . S
C728 C729 1.386 . S
C728 C730 1.391 . S
C729 C728 1.386 . S
C729 C733 1.393 . S
C730 H722 0.950 . S
C730 C728 1.391 . S
C730 C731 1.400 . S
C731 C730 1.400 . S
C731 C732 1.398 . S
C731 C737 1.491 . S
C732 H723 0.950 . S
C732 C731 1.398 . S
C732 C733 1.391 . S
C733 H721 0.950 . S
C733 C729 1.393 . S
C733 C732 1.391 . S
C734 H724 0.950 . S
C734 C735 1.386 . S
C734 C736 1.391 . S
C735 C734 1.386 . S
C735 C739 1.393 . S
C736 H725 0.950 . S
C736 C734 1.391 . S
C736 C737 1.400 . S
C737 C731 1.491 . S
C737 C736 1.400 . S
C737 C738 1.398 . S
C738 H726 0.950 . S
C738 C737 1.398 . S
C738 C739 1.391 . S
C739 H727 0.950 . S
C739 C735 1.393 . S
C739 C738 1.391 . S
H740 C748 0.950 . S
H741 C753 0.950 . S
H742 C750 0.950 . S
H743 C752 0.950 . S
H744 C754 0.950 1_545 S
H745 C756 0.950 1_545 S
H746 C758 0.950 . S
H747 C759 0.950 . S
C748 H740 0.950 . S
C748 C749 1.386 . S
C748 C750 1.391 . S
C749 C748 1.386 . S
C749 C753 1.393 . S
C750 H742 0.950 . S
C750 C748 1.391 . S
C750 C751 1.400 . S
C751 C750 1.400 . S
C751 C752 1.398 . S
C751 C757 1.491 . S
C752 H743 0.950 . S
C752 C751 1.398 . S
C752 C753 1.391 . S
C753 H741 0.950 . S
C753 C749 1.393 . S
C753 C752 1.391 . S
C754 H744 0.950 1_565 S
C754 C755 1.386 . S
C754 C756 1.391 . S
C755 C754 1.386 . S
C755 C759 1.393 . S
C756 H745 0.950 1_565 S
C756 C754 1.391 . S
C756 C757 1.400 . S
C757 C751 1.491 . S
C757 C756 1.400 . S
C757 C758 1.398 . S
C758 H746 0.950 . S
C758 C757 1.398 . S
C758 C759 1.391 . S
C759 H747 0.950 . S
C759 C755 1.393 . S
C759 C758 1.391 . S
H760 C768 0.950 . S
H761 C773 0.950 . S
H762 C770 0.950 . S
H763 C772 0.950 . S
H764 C774 0.950 . S
H765 C776 0.950 . S
H766 C778 0.950 . S
H767 C779 0.950 . S
C768 H760 0.950 . S
C768 C769 1.386 . S
C768 C770 1.391 . S
C769 C768 1.386 . S
C769 C773 1.393 . S
C770 H762 0.950 . S
C770 C768 1.391 . S
C770 C771 1.400 . S
C771 C770 1.400 . S
C771 C772 1.398 . S
C771 C777 1.491 . S
C772 H763 0.950 . S
C772 C771 1.398 . S
C772 C773 1.391 . S
C773 H761 0.950 . S
C773 C769 1.393 . S
C773 C772 1.391 . S
C774 H764 0.950 . S
C774 C775 1.386 . S
C774 C776 1.391 . S
C775 C774 1.386 . S
C775 C779 1.393 . S
C776 H765 0.950 . S
C776 C774 1.391 . S
C776 C777 1.400 . S
C777 C771 1.491 . S
C777 C776 1.400 . S
C777 C778 1.398 . S
C778 H766 0.950 . S
C778 C777 1.398 . S
C778 C779 1.391 . S
C779 H767 0.950 . S
C779 C775 1.393 . S
C779 C778 1.391 . S
H780 C788 0.950 . S
H781 C793 0.950 . S
H782 C790 0.950 . S
H783 C792 0.950 . S
H784 C794 0.950 . S
H785 C796 0.950 1_554 S
H786 C798 0.950 . S
H787 C799 0.950 . S
C788 H780 0.950 . S
C788 C789 1.386 . S
C788 C790 1.391 . S
C789 C788 1.386 . S
C789 C793 1.393 . S
C790 H782 0.950 . S
C790 C788 1.391 . S
C790 C791 1.400 . S
C791 C790 1.400 . S
C791 C792 1.398 . S
C791 C797 1.491 . S
C792 H783 0.950 . S
C792 C791 1.398 . S
C792 C793 1.391 . S
C793 H781 0.950 . S
C793 C789 1.393 . S
C793 C792 1.391 . S
C794 H784 0.950 . S
C794 C795 1.386 . S
C794 C796 1.391 . S
C795 C794 1.386 . S
C795 C799 1.393 . S
C796 H785 0.950 1_556 S
C796 C794 1.391 . S
C796 C797 1.400 1_556 S
C797 C791 1.491 . S
C797 C796 1.400 1_554 S
C797 C798 1.398 1_554 S
C798 H786 0.950 . S
C798 C797 1.398 1_556 S
C798 C799 1.391 . S
C799 H787 0.950 . S
C799 C795 1.393 . S
C799 C798 1.391 . S
H800 C808 0.950 . S
H801 C813 0.950 . S
H802 C810 0.950 . S
H803 C812 0.950 . S
H804 C814 0.950 . S
H805 C816 0.950 . S
H806 C818 0.950 . S
H807 C819 0.950 . S
C808 H800 0.950 . S
C808 C809 1.386 . S
C808 C810 1.391 . S
C809 C808 1.386 . S
C809 C813 1.393 . S
C810 H802 0.950 . S
C810 C808 1.391 . S
C810 C811 1.400 . S
C811 C810 1.400 . S
C811 C812 1.398 . S
C811 C817 1.491 . S
C812 H803 0.950 . S
C812 C811 1.398 . S
C812 C813 1.391 . S
C813 H801 0.950 . S
C813 C809 1.393 . S
C813 C812 1.391 . S
C814 H804 0.950 . S
C814 C815 1.386 . S
C814 C816 1.391 . S
C815 C814 1.386 . S
C815 C819 1.393 . S
C816 H805 0.950 . S
C816 C814 1.391 . S
C816 C817 1.400 . S
C817 C811 1.491 . S
C817 C816 1.400 . S
C817 C818 1.398 . S
C818 H806 0.950 . S
C818 C817 1.398 . S
C818 C819 1.391 . S
C819 H807 0.950 . S
C819 C815 1.393 . S
C819 C818 1.391 . S
H820 C828 0.950 . S
H821 C833 0.950 . S
H822 C830 0.950 . S
H823 C832 0.950 . S
H824 C834 0.950 . S
H825 C836 0.950 . S
H826 C838 0.950 . S
H827 C839 0.950 . S
C828 H820 0.950 . S
C828 C829 1.386 . S
C828 C830 1.391 1_554 S
C829 C828 1.386 . S
C829 C833 1.393 . S
C830 H822 0.950 . S
C830 C828 1.391 1_556 S
C830 C831 1.400 . S
C831 C830 1.400 . S
C831 C832 1.398 . S
C831 C837 1.491 . S
C832 H823 0.950 . S
C832 C831 1.398 . S
C832 C833 1.391 1_556 S
C833 H821 0.950 . S
C833 C829 1.393 . S
C833 C832 1.391 1_554 S
C834 H824 0.950 . S
C834 C835 1.386 . S
C834 C836 1.391 . S
C835 C834 1.386 . S
C835 C839 1.393 . S
C836 H825 0.950 . S
C836 C834 1.391 . S
C836 C837 1.400 . S
C837 C831 1.491 . S
C837 C836 1.400 . S
C837 C838 1.398 . S
C838 H826 0.950 . S
C838 C837 1.398 . S
C838 C839 1.391 . S
C839 H827 0.950 . S
C839 C835 1.393 . S
C839 C838 1.391 . S
H840 C848 0.950 . S
H841 C853 0.950 . S
H842 C850 0.950 . S
H843 C852 0.950 . S
H844 C854 0.950 . S
H845 C856 0.950 . S
H846 C858 0.950 . S
H847 C859 0.950 . S
C848 H840 0.950 . S
C848 C849 1.386 . S
C848 C850 1.391 . S
C849 C848 1.386 . S
C849 C853 1.393 . S
C850 H842 0.950 . S
C850 C848 1.391 . S
C850 C851 1.400 . S
C851 C850 1.400 . S
C851 C852 1.398 . S
C851 C857 1.491 . S
C852 H843 0.950 . S
C852 C851 1.398 . S
C852 C853 1.391 . S
C853 H841 0.950 . S
C853 C849 1.393 . S
C853 C852 1.391 . S
C854 H844 0.950 . S
C854 C855 1.386 . S
C854 C856 1.391 . S
C855 C854 1.386 . S
C855 C859 1.393 . S
C856 H845 0.950 . S
C856 C854 1.391 . S
C856 C857 1.400 . S
C857 C851 1.491 . S
C857 C856 1.400 . S
C857 C858 1.398 . S
C858 H846 0.950 . S
C858 C857 1.398 . S
C858 C859 1.391 . S
C859 H847 0.950 . S
C859 C855 1.393 . S
C859 C858 1.391 . S
H860 C868 0.950 . S
H861 C873 0.950 . S
H862 C870 0.950 . S
H863 C872 0.950 . S
H864 C874 0.950 . S
H865 C876 0.950 . S
H866 C878 0.950 . S
H867 C879 0.950 . S
C868 H860 0.950 . S
C868 C869 1.386 . S
C868 C870 1.391 . S
C869 C868 1.386 . S
C869 C873 1.393 . S
C870 H862 0.950 . S
C870 C868 1.391 . S
C870 C871 1.400 . S
C871 C870 1.400 . S
C871 C872 1.398 . S
C871 C877 1.491 . S
C872 H863 0.950 . S
C872 C871 1.398 . S
C872 C873 1.391 . S
C873 H861 0.950 . S
C873 C869 1.393 . S
C873 C872 1.391 . S
C874 H864 0.950 . S
C874 C875 1.386 . S
C874 C876 1.391 . S
C875 C874 1.386 . S
C875 C879 1.393 . S
C876 H865 0.950 . S
C876 C874 1.391 . S
C876 C877 1.400 . S
C877 C871 1.491 . S
C877 C876 1.400 . S
C877 C878 1.398 . S
C878 H866 0.950 . S
C878 C877 1.398 . S
C878 C879 1.391 . S
C879 H867 0.950 . S
C879 C875 1.393 . S
C879 C878 1.391 . S
H880 C888 0.950 . S
H881 C893 0.950 . S
H882 C890 0.950 . S
H883 C892 0.950 . S
H884 C894 0.950 . S
H885 C896 0.950 . S
H886 C898 0.950 . S
H887 C899 0.950 . S
C888 H880 0.950 . S
C888 C889 1.386 . S
C888 C890 1.391 . S
C889 C888 1.386 . S
C889 C893 1.393 . S
C890 H882 0.950 . S
C890 C888 1.391 . S
C890 C891 1.400 . S
C891 C890 1.400 . S
C891 C892 1.398 . S
C891 C897 1.491 . S
C892 H883 0.950 . S
C892 C891 1.398 . S
C892 C893 1.391 . S
C893 H881 0.950 . S
C893 C889 1.393 . S
C893 C892 1.391 . S
C894 H884 0.950 . S
C894 C895 1.386 . S
C894 C896 1.391 . S
C895 C894 1.386 . S
C895 C899 1.393 . S
C896 H885 0.950 . S
C896 C894 1.391 . S
C896 C897 1.400 . S
C897 C891 1.491 . S
C897 C896 1.400 . S
C897 C898 1.398 . S
C898 H886 0.950 . S
C898 C897 1.398 . S
C898 C899 1.391 . S
C899 H887 0.950 . S
C899 C895 1.393 . S
C899 C898 1.391 . S
H900 C908 0.950 . S
H901 C913 0.950 . S
H902 C910 0.950 . S
H903 C912 0.950 . S
H904 C914 0.950 . S
H905 C916 0.950 . S
H906 C918 0.950 . S
H907 C919 0.950 . S
C908 H900 0.950 . S
C908 C909 1.386 . S
C908 C910 1.391 . S
C909 C908 1.386 . S
C909 C913 1.393 . S
C910 H902 0.950 . S
C910 C908 1.391 . S
C910 C911 1.400 . S
C911 C910 1.400 . S
C911 C912 1.398 . S
C911 C917 1.491 . S
C912 H903 0.950 . S
C912 C911 1.398 . S
C912 C913 1.391 . S
C913 H901 0.950 . S
C913 C909 1.393 . S
C913 C912 1.391 . S
C914 H904 0.950 . S
C914 C915 1.386 . S
C914 C916 1.391 1_565 S
C915 C914 1.386 . S
C915 C919 1.393 . S
C916 H905 0.950 . S
C916 C914 1.391 1_545 S
C916 C917 1.400 . S
C917 C911 1.491 . S
C917 C916 1.400 . S
C917 C918 1.398 . S
C918 H906 0.950 . S
C918 C917 1.398 . S
C918 C919 1.391 1_545 S
C919 H907 0.950 . S
C919 C915 1.393 . S
C919 C918 1.391 1_565 S
H920 C928 0.950 . S
H921 C933 0.950 . S
H922 C930 0.950 . S
H923 C932 0.950 . S
H924 C934 0.950 . S
H925 C936 0.950 . S
H926 C938 0.950 . S
H927 C939 0.950 . S
C928 H920 0.950 . S
C928 C929 1.386 . S
C928 C930 1.391 . S
C929 C928 1.386 . S
C929 C933 1.393 . S
C930 H922 0.950 . S
C930 C928 1.391 . S
C930 C931 1.400 . S
C931 C930 1.400 . S
C931 C932 1.398 . S
C931 C937 1.491 . S
C932 H923 0.950 . S
C932 C931 1.398 . S
C932 C933 1.391 . S
C933 H921 0.950 . S
C933 C929 1.393 . S
C933 C932 1.391 . S
C934 H924 0.950 . S
C934 C935 1.386 . S
C934 C936 1.391 . S
C935 C934 1.386 . S
C935 C939 1.393 . S
C936 H925 0.950 . S
C936 C934 1.391 . S
C936 C937 1.400 . S
C937 C931 1.491 . S
C937 C936 1.400 . S
C937 C938 1.398 . S
C938 H926 0.950 . S
C938 C937 1.398 . S
C938 C939 1.391 . S
C939 H927 0.950 . S
C939 C935 1.393 . S
C939 C938 1.391 . S
H940 C948 0.950 . S
H941 C953 0.950 . S
H942 C950 0.950 . S
H943 C952 0.950 . S
H944 C954 0.950 . S
H945 C956 0.950 . S
H946 C958 0.950 . S
H947 C959 0.950 . S
C948 H940 0.950 . S
C948 C949 1.386 . S
C948 C950 1.391 . S
C949 C948 1.386 . S
C949 C953 1.393 . S
C950 H942 0.950 . S
C950 C948 1.391 . S
C950 C951 1.400 . S
C951 C950 1.400 . S
C951 C952 1.398 . S
C951 C957 1.491 1_545 S
C952 H943 0.950 . S
C952 C951 1.398 . S
C952 C953 1.391 . S
C953 H941 0.950 . S
C953 C949 1.393 . S
C953 C952 1.391 . S
C954 H944 0.950 . S
C954 C955 1.386 . S
C954 C956 1.391 . S
C955 C954 1.386 . S
C955 C959 1.393 . S
C956 H945 0.950 . S
C956 C954 1.391 . S
C956 C957 1.400 . S
C957 C951 1.491 1_565 S
C957 C956 1.400 . S
C957 C958 1.398 . S
C958 H946 0.950 . S
C958 C957 1.398 . S
C958 C959 1.391 . S
C959 H947 0.950 . S
C959 C955 1.393 . S
C959 C958 1.391 . S
H960 C968 0.950 . S
H961 C973 0.950 . S
H962 C970 0.950 . S
H963 C972 0.950 . S
H964 C974 0.950 . S
H965 C976 0.950 . S
H966 C978 0.950 . S
H967 C979 0.950 . S
C968 H960 0.950 . S
C968 C969 1.386 . S
C968 C970 1.391 . S
C969 C968 1.386 . S
C969 C973 1.393 . S
C970 H962 0.950 . S
C970 C968 1.391 . S
C970 C971 1.400 . S
C971 C970 1.400 . S
C971 C972 1.398 . S
C971 C977 1.491 . S
C972 H963 0.950 . S
C972 C971 1.398 . S
C972 C973 1.391 . S
C973 H961 0.950 . S
C973 C969 1.393 . S
C973 C972 1.391 . S
C974 H964 0.950 . S
C974 C975 1.386 . S
C974 C976 1.391 . S
C975 C974 1.386 . S
C975 C979 1.393 . S
C976 H965 0.950 . S
C976 C974 1.391 . S
C976 C977 1.400 . S
C977 C971 1.491 . S
C977 C976 1.400 . S
C977 C978 1.398 . S
C978 H966 0.950 . S
C978 C977 1.398 . S
C978 C979 1.391 . S
C979 H967 0.950 . S
C979 C975 1.393 . S
C979 C978 1.391 . S
H980 C988 0.950 . S
H981 C993 0.950 . S
H982 C990 0.950 . S
H983 C992 0.950 . S
H984 C994 0.950 . S
H985 C996 0.950 . S
H986 C998 0.950 . S
H987 C999 0.950 . S
C988 H980 0.950 . S
C988 C989 1.386 . S
C988 C990 1.391 . S
C989 C988 1.386 . S
C989 C993 1.393 . S
C990 H982 0.950 . S
C990 C988 1.391 . S
C990 C991 1.400 . S
C991 C990 1.400 . S
C991 C992 1.398 . S
C991 C997 1.491 . S
C992 H983 0.950 . S
C992 C991 1.398 . S
C992 C993 1.391 . S
C993 H981 0.950 . S
C993 C989 1.393 . S
C993 C992 1.391 . S
C994 H984 0.950 . S
C994 C995 1.386 . S
C994 C996 1.391 . S
C995 C994 1.386 . S
C995 C999 1.393 . S
C996 H985 0.950 . S
C996 C994 1.391 . S
C996 C997 1.400 . S
C997 C991 1.491 . S
C997 C996 1.400 . S
C997 C998 1.398 . S
C998 H986 0.950 . S
C998 C997 1.398 . S
C998 C999 1.391 . S
C999 H987 0.950 . S
C999 C995 1.393 . S
C999 C998 1.391 . S
H1000 C1008 0.950 . S
H1001 C1013 0.950 . S
H1002 C1010 0.950 . S
H1003 C1012 0.950 . S
H1004 C1014 0.950 . S
H1005 C1016 0.950 . S
H1006 C1018 0.950 . S
H1007 C1019 0.950 . S
C1008 H1000 0.950 . S
C1008 C1009 1.386 . S
C1008 C1010 1.391 . S
C1009 C1008 1.386 . S
C1009 C1013 1.393 . S
C1010 H1002 0.950 . S
C1010 C1008 1.391 . S
C1010 C1011 1.400 . S
C1011 C1010 1.400 . S
C1011 C1012 1.398 . S
C1011 C1017 1.491 . S
C1012 H1003 0.950 . S
C1012 C1011 1.398 . S
C1012 C1013 1.391 . S
C1013 H1001 0.950 . S
C1013 C1009 1.393 . S
C1013 C1012 1.391 . S
C1014 H1004 0.950 . S
C1014 C1015 1.386 . S
C1014 C1016 1.391 . S
C1015 C1014 1.386 . S
C1015 C1019 1.393 . S
C1016 H1005 0.950 . S
C1016 C1014 1.391 . S
C1016 C1017 1.400 . S
C1017 C1011 1.491 . S
C1017 C1016 1.400 . S
C1017 C1018 1.398 . S
C1018 H1006 0.950 . S
C1018 C1017 1.398 . S
C1018 C1019 1.391 . S
C1019 H1007 0.950 . S
C1019 C1015 1.393 . S
C1019 C1018 1.391 . S
H1020 C1028 0.950 . S
H1021 C1033 0.950 . S
H1022 C1030 0.950 . S
H1023 C1032 0.950 . S
H1024 C1034 0.950 . S
H1025 C1036 0.950 . S
H1026 C1038 0.950 . S
H1027 C1039 0.950 . S
C1028 H1020 0.950 . S
C1028 C1029 1.386 . S
C1028 C1030 1.391 . S
C1029 C1028 1.386 . S
C1029 C1033 1.393 . S
C1030 H1022 0.950 . S
C1030 C1028 1.391 . S
C1030 C1031 1.400 . S
C1031 C1030 1.400 . S
C1031 C1032 1.398 . S
C1031 C1037 1.491 . S
C1032 H1023 0.950 . S
C1032 C1031 1.398 . S
C1032 C1033 1.391 . S
C1033 H1021 0.950 . S
C1033 C1029 1.393 . S
C1033 C1032 1.391 . S
C1034 H1024 0.950 . S
C1034 C1035 1.386 . S
C1034 C1036 1.391 . S
C1035 C1034 1.386 . S
C1035 C1039 1.393 . S
C1036 H1025 0.950 . S
C1036 C1034 1.391 . S
C1036 C1037 1.400 . S
C1037 C1031 1.491 . S
C1037 C1036 1.400 . S
C1037 C1038 1.398 . S
C1038 H1026 0.950 . S
C1038 C1037 1.398 . S
C1038 C1039 1.391 . S
C1039 H1027 0.950 . S
C1039 C1035 1.393 . S
C1039 C1038 1.391 . S
H1040 C1048 0.950 . S
H1041 C1053 0.950 . S
H1042 C1050 0.950 . S
H1043 C1052 0.950 . S
H1044 C1054 0.950 . S
H1045 C1056 0.950 . S
H1046 C1058 0.950 . S
H1047 C1059 0.950 . S
C1048 H1040 0.950 . S
C1048 C1049 1.386 . S
C1048 C1050 1.391 . S
C1049 C1048 1.386 . S
C1049 C1053 1.393 . S
C1050 H1042 0.950 . S
C1050 C1048 1.391 . S
C1050 C1051 1.400 . S
C1051 C1050 1.400 . S
C1051 C1052 1.398 . S
C1051 C1057 1.491 . S
C1052 H1043 0.950 . S
C1052 C1051 1.398 . S
C1052 C1053 1.391 . S
C1053 H1041 0.950 . S
C1053 C1049 1.393 . S
C1053 C1052 1.391 . S
C1054 H1044 0.950 . S
C1054 C1055 1.386 . S
C1054 C1056 1.391 . S
C1055 C1054 1.386 . S
C1055 C1059 1.393 . S
C1056 H1045 0.950 . S
C1056 C1054 1.391 . S
C1056 C1057 1.400 . S
C1057 C1051 1.491 . S
C1057 C1056 1.400 . S
C1057 C1058 1.398 . S
C1058 H1046 0.950 . S
C1058 C1057 1.398 . S
C1058 C1059 1.391 . S
C1059 H1047 0.950 . S
C1059 C1055 1.393 . S
C1059 C1058 1.391 . S
H1060 C1068 0.950 . S
H1061 C1073 0.950 . S
H1062 C1070 0.950 . S
H1063 C1072 0.950 . S
H1064 C1074 0.950 . S
H1065 C1076 0.950 . S
H1066 C1078 0.950 . S
H1067 C1079 0.950 . S
C1068 H1060 0.950 . S
C1068 C1069 1.386 . S
C1068 C1070 1.391 . S
C1069 C1068 1.386 . S
C1069 C1073 1.393 . S
C1070 H1062 0.950 . S
C1070 C1068 1.391 . S
C1070 C1071 1.400 . S
C1071 C1070 1.400 . S
C1071 C1072 1.398 . S
C1071 C1077 1.491 . S
C1072 H1063 0.950 . S
C1072 C1071 1.398 . S
C1072 C1073 1.391 . S
C1073 H1061 0.950 . S
C1073 C1069 1.393 . S
C1073 C1072 1.391 . S
C1074 H1064 0.950 . S
C1074 C1075 1.386 . S
C1074 C1076 1.391 . S
C1075 C1074 1.386 . S
C1075 C1079 1.393 . S
C1076 H1065 0.950 . S
C1076 C1074 1.391 . S
C1076 C1077 1.400 . S
C1077 C1071 1.491 . S
C1077 C1076 1.400 . S
C1077 C1078 1.398 . S
C1078 H1066 0.950 . S
C1078 C1077 1.398 . S
C1078 C1079 1.391 . S
C1079 H1067 0.950 . S
C1079 C1075 1.393 . S
C1079 C1078 1.391 . S
H1080 C1088 0.950 . S
H1081 C1093 0.950 . S
H1082 C1090 0.950 1_655 S
H1083 C1092 0.950 . S
H1084 C1094 0.950 . S
H1085 C1096 0.950 . S
H1086 C1098 0.950 . S
H1087 C1099 0.950 . S
C1088 H1080 0.950 . S
C1088 C1089 1.386 . S
C1088 C1090 1.391 . S
C1089 C1088 1.386 . S
C1089 C1093 1.393 . S
C1090 H1082 0.950 1_455 S
C1090 C1088 1.391 . S
C1090 C1091 1.400 . S
C1091 C1090 1.400 . S
C1091 C1092 1.398 . S
C1091 C1097 1.491 1_455 S
C1092 H1083 0.950 . S
C1092 C1091 1.398 . S
C1092 C1093 1.391 . S
C1093 H1081 0.950 . S
C1093 C1089 1.393 . S
C1093 C1092 1.391 . S
C1094 H1084 0.950 . S
C1094 C1095 1.386 . S
C1094 C1096 1.391 . S
C1095 C1094 1.386 . S
C1095 C1099 1.393 . S
C1096 H1085 0.950 . S
C1096 C1094 1.391 . S
C1096 C1097 1.400 . S
C1097 C1091 1.491 1_655 S
C1097 C1096 1.400 . S
C1097 C1098 1.398 . S
C1098 H1086 0.950 . S
C1098 C1097 1.398 . S
C1098 C1099 1.391 . S
C1099 H1087 0.950 . S
C1099 C1095 1.393 . S
C1099 C1098 1.391 . S
H1100 C1108 0.950 . S
H1101 C1113 0.950 . S
H1102 C1110 0.950 . S
H1103 C1112 0.950 . S
H1104 C1114 0.950 . S
H1105 C1116 0.950 . S
H1106 C1118 0.950 . S
H1107 C1119 0.950 . S
C1108 H1100 0.950 . S
C1108 C1109 1.386 . S
C1108 C1110 1.391 . S
C1109 C1108 1.386 . S
C1109 C1113 1.393 . S
C1110 H1102 0.950 . S
C1110 C1108 1.391 . S
C1110 C1111 1.400 . S
C1111 C1110 1.400 . S
C1111 C1112 1.398 . S
C1111 C1117 1.491 . S
C1112 H1103 0.950 . S
C1112 C1111 1.398 . S
C1112 C1113 1.391 . S
C1113 H1101 0.950 . S
C1113 C1109 1.393 . S
C1113 C1112 1.391 . S
C1114 H1104 0.950 . S
C1114 C1115 1.386 . S
C1114 C1116 1.391 . S
C1115 C1114 1.386 . S
C1115 C1119 1.393 . S
C1116 H1105 0.950 . S
C1116 C1114 1.391 . S
C1116 C1117 1.400 . S
C1117 C1111 1.491 . S
C1117 C1116 1.400 . S
C1117 C1118 1.398 . S
C1118 H1106 0.950 . S
C1118 C1117 1.398 . S
C1118 C1119 1.391 . S
C1119 H1107 0.950 . S
C1119 C1115 1.393 . S
C1119 C1118 1.391 . S
H1120 C1128 0.950 . S
H1121 C1133 0.950 . S
H1122 C1130 0.950 . S
H1123 C1132 0.950 . S
H1124 C1134 0.950 . S
H1125 C1136 0.950 . S
H1126 C1138 0.950 . S
H1127 C1139 0.950 . S
C1128 H1120 0.950 . S
C1128 C1129 1.386 . S
C1128 C1130 1.391 . S
C1129 C1128 1.386 . S
C1129 C1133 1.393 . S
C1130 H1122 0.950 . S
C1130 C1128 1.391 . S
C1130 C1131 1.400 . S
C1131 C1130 1.400 . S
C1131 C1132 1.398 . S
C1131 C1137 1.491 . S
C1132 H1123 0.950 . S
C1132 C1131 1.398 . S
C1132 C1133 1.391 . S
C1133 H1121 0.950 . S
C1133 C1129 1.393 . S
C1133 C1132 1.391 . S
C1134 H1124 0.950 . S
C1134 C1135 1.386 . S
C1134 C1136 1.391 . S
C1135 C1134 1.386 . S
C1135 C1139 1.393 . S
C1136 H1125 0.950 . S
C1136 C1134 1.391 . S
C1136 C1137 1.400 . S
C1137 C1131 1.491 . S
C1137 C1136 1.400 . S
C1137 C1138 1.398 . S
C1138 H1126 0.950 . S
C1138 C1137 1.398 . S
C1138 C1139 1.391 . S
C1139 H1127 0.950 . S
C1139 C1135 1.393 . S
C1139 C1138 1.391 . S
H1140 C1148 0.950 . S
H1141 C1153 0.950 . S
H1142 C1150 0.950 . S
H1143 C1152 0.950 . S
H1144 C1154 0.950 . S
H1145 C1156 0.950 . S
H1146 C1158 0.950 . S
H1147 C1159 0.950 . S
C1148 H1140 0.950 . S
C1148 C1149 1.386 . S
C1148 C1150 1.391 . S
C1149 C1148 1.386 . S
C1149 C1153 1.393 . S
C1150 H1142 0.950 . S
C1150 C1148 1.391 . S
C1150 C1151 1.400 . S
C1151 C1150 1.400 . S
C1151 C1152 1.398 . S
C1151 C1157 1.491 . S
C1152 H1143 0.950 . S
C1152 C1151 1.398 . S
C1152 C1153 1.391 . S
C1153 H1141 0.950 . S
C1153 C1149 1.393 . S
C1153 C1152 1.391 . S
C1154 H1144 0.950 . S
C1154 C1155 1.386 . S
C1154 C1156 1.391 . S
C1155 C1154 1.386 . S
C1155 C1159 1.393 . S
C1156 H1145 0.950 . S
C1156 C1154 1.391 . S
C1156 C1157 1.400 . S
C1157 C1151 1.491 . S
C1157 C1156 1.400 . S
C1157 C1158 1.398 . S
C1158 H1146 0.950 . S
C1158 C1157 1.398 . S
C1158 C1159 1.391 . S
C1159 H1147 0.950 . S
C1159 C1155 1.393 . S
C1159 C1158 1.391 . S
H1160 C1168 0.950 . S
H1161 C1173 0.950 . S
H1162 C1170 0.950 . S
H1163 C1172 0.950 . S
H1164 C1174 0.950 . S
H1165 C1176 0.950 . S
H1166 C1178 0.950 . S
H1167 C1179 0.950 . S
C1168 H1160 0.950 . S
C1168 C1169 1.386 . S
C1168 C1170 1.391 . S
C1169 C1168 1.386 . S
C1169 C1173 1.393 . S
C1170 H1162 0.950 . S
C1170 C1168 1.391 . S
C1170 C1171 1.400 . S
C1171 C1170 1.400 . S
C1171 C1172 1.398 . S
C1171 C1177 1.491 . S
C1172 H1163 0.950 . S
C1172 C1171 1.398 . S
C1172 C1173 1.391 . S
C1173 H1161 0.950 . S
C1173 C1169 1.393 . S
C1173 C1172 1.391 . S
C1174 H1164 0.950 . S
C1174 C1175 1.386 . S
C1174 C1176 1.391 . S
C1175 C1174 1.386 . S
C1175 C1179 1.393 . S
C1176 H1165 0.950 . S
C1176 C1174 1.391 . S
C1176 C1177 1.400 . S
C1177 C1171 1.491 . S
C1177 C1176 1.400 . S
C1177 C1178 1.398 . S
C1178 H1166 0.950 . S
C1178 C1177 1.398 . S
C1178 C1179 1.391 . S
C1179 H1167 0.950 . S
C1179 C1175 1.393 . S
C1179 C1178 1.391 . S
H1180 C1188 0.950 . S
H1181 C1193 0.950 . S
H1182 C1190 0.950 . S
H1183 C1192 0.950 . S
H1184 C1194 0.950 . S
H1185 C1196 0.950 1_655 S
H1186 C1198 0.950 . S
H1187 C1199 0.950 . S
C1188 H1180 0.950 . S
C1188 C1189 1.386 . S
C1188 C1190 1.391 . S
C1189 C1188 1.386 . S
C1189 C1193 1.393 . S
C1190 H1182 0.950 . S
C1190 C1188 1.391 . S
C1190 C1191 1.400 . S
C1191 C1190 1.400 . S
C1191 C1192 1.398 . S
C1191 C1197 1.491 . S
C1192 H1183 0.950 . S
C1192 C1191 1.398 . S
C1192 C1193 1.391 . S
C1193 H1181 0.950 . S
C1193 C1189 1.393 . S
C1193 C1192 1.391 . S
C1194 H1184 0.950 . S
C1194 C1195 1.386 . S
C1194 C1196 1.391 . S
C1195 C1194 1.386 . S
C1195 C1199 1.393 . S
C1196 H1185 0.950 1_455 S
C1196 C1194 1.391 . S
C1196 C1197 1.400 1_455 S
C1197 C1191 1.491 . S
C1197 C1196 1.400 1_655 S
C1197 C1198 1.398 . S
C1198 H1186 0.950 . S
C1198 C1197 1.398 . S
C1198 C1199 1.391 1_655 S
C1199 H1187 0.950 . S
C1199 C1195 1.393 . S
C1199 C1198 1.391 1_455 S
C489 C20 1.577 . S
C495 C460 1.584 . S
C509 C380 1.726 . S
C515 C42 1.769 . S
C529 C100 1.458 . S
C535 C322 1.538 . S
C549 C122 1.705 . S
C555 C420 1.676 . S
C569 C180 1.724 . S
C575 C402 1.734 . S
C589 C220 1.447 . S
C595 C442 1.511 . S
C609 C362 1.594 . S
C615 C242 1.599 . S
C629 C282 1.478 . S
C635 C340 1.448 . S
C649 C140 1.569 . S
C655 C162 1.626 . S
C669 C2 1.542 . S
C675 C202 1.528 1_455 S
C689 C60 1.643 . S
C695 C260 1.666 . S
C709 C300 1.600 . S
C715 C82 1.681 . S
C729 C4 1.886 . S
C735 C343 1.865 . S
C749 C65 1.170 . S
C755 C431 1.170 . S
C769 C471 1.863 . S
C775 C84 1.795 . S
C789 C145 1.632 . S
C795 C391 1.636 . S
C809 C164 1.480 . S
C815 C383 1.463 . S
C829 C351 2.051 . S
C835 C204 1.975 . S
C849 C423 1.671 . S
C855 C265 1.727 . S
C869 C463 1.149 . S
C875 C305 1.172 . S
C889 C23 1.542 . S
C895 C124 1.561 . S
C909 C25 1.219 . S
C915 C71 1.222 . S
C929 C44 1.478 . S
C935 C103 1.463 . S
C949 C151 1.194 . S
C955 C105 1.193 . S
C969 C225 1.865 . S
C975 C183 1.791 . S
C989 C223 1.662 . S
C995 C244 1.663 . S
C1009 C271 1.938 . S
C1015 C284 1.879 . S
C1029 C185 1.797 . S
C1035 C311 1.799 . S
C1049 C324 1.979 . S
C1055 C143 1.970 . S
C1069 C231 2.193 . S
C1075 C364 2.126 . S
C1089 C345 1.501 . S
C1095 C263 1.468 . S
C1109 C404 1.408 . S
C1115 C303 1.394 . S
C1129 C191 1.328 . S
C1135 C444 1.290 . S
C1149 C465 1.327 . S
C1155 C63 1.282 . S
C1169 C111 1.419 . S
C1175 C385 1.415 . S
C1189 C425 1.669 . S
C1195 C31 1.672 . S
