# Generated by pormake.
# Topology snz, (6)-cn, num edge types: 1
# Building blocks:
#     Node 0, Type 0, BuildingBlock: NUHQIS_clean_sbu_0, # of connection points: 6
#     Node 1, Type 0, BuildingBlock: NUHQIS_clean_sbu_0, # of connection points: 6
#     Node 2, Type 0, BuildingBlock: NUHQIS_clean_sbu_0, # of connection points: 6
#     Node 3, Type 0, BuildingBlock: NUHQIS_clean_sbu_0, # of connection points: 6
#     Node 4, Type 0, BuildingBlock: NUHQIS_clean_sbu_0, # of connection points: 6
#     Node 5, Type 0, BuildingBlock: NUHQIS_clean_sbu_0, # of connection points: 6
#     Node 6, Type 0, BuildingBlock: NUHQIS_clean_sbu_0, # of connection points: 6
#     Node 7, Type 0, BuildingBlock: NUHQIS_clean_sbu_0, # of connection points: 6
#     Node 8, Type 0, BuildingBlock: NUHQIS_clean_sbu_0, # of connection points: 6
#     Edge 9, Type (0, 0), BuildingBlock: AJUNOK_clean_linker_0, # of connection points: 2
#     Edge 10, Type (0, 0), BuildingBlock: AJUNOK_clean_linker_0, # of connection points: 2
#     Edge 11, Type (0, 0), BuildingBlock: AJUNOK_clean_linker_0, # of connection points: 2
#     Edge 12, Type (0, 0), BuildingBlock: AJUNOK_clean_linker_0, # of connection points: 2
#     Edge 13, Type (0, 0), BuildingBlock: AJUNOK_clean_linker_0, # of connection points: 2
#     Edge 14, Type (0, 0), BuildingBlock: AJUNOK_clean_linker_0, # of connection points: 2
#     Edge 15, Type (0, 0), BuildingBlock: AJUNOK_clean_linker_0, # of connection points: 2
#     Edge 16, Type (0, 0), BuildingBlock: AJUNOK_clean_linker_0, # of connection points: 2
#     Edge 17, Type (0, 0), BuildingBlock: AJUNOK_clean_linker_0, # of connection points: 2
#     Edge 18, Type (0, 0), BuildingBlock: AJUNOK_clean_linker_0, # of connection points: 2
#     Edge 19, Type (0, 0), BuildingBlock: AJUNOK_clean_linker_0, # of connection points: 2
#     Edge 20, Type (0, 0), BuildingBlock: AJUNOK_clean_linker_0, # of connection points: 2
#     Edge 21, Type (0, 0), BuildingBlock: AJUNOK_clean_linker_0, # of connection points: 2
#     Edge 22, Type (0, 0), BuildingBlock: AJUNOK_clean_linker_0, # of connection points: 2
#     Edge 23, Type (0, 0), BuildingBlock: AJUNOK_clean_linker_0, # of connection points: 2
#     Edge 24, Type (0, 0), BuildingBlock: AJUNOK_clean_linker_0, # of connection points: 2
#     Edge 25, Type (0, 0), BuildingBlock: AJUNOK_clean_linker_0, # of connection points: 2
#     Edge 26, Type (0, 0), BuildingBlock: AJUNOK_clean_linker_0, # of connection points: 2
#     Edge 27, Type (0, 0), BuildingBlock: AJUNOK_clean_linker_0, # of connection points: 2
#     Edge 28, Type (0, 0), BuildingBlock: AJUNOK_clean_linker_0, # of connection points: 2
#     Edge 29, Type (0, 0), BuildingBlock: AJUNOK_clean_linker_0, # of connection points: 2
#     Edge 30, Type (0, 0), BuildingBlock: AJUNOK_clean_linker_0, # of connection points: 2
#     Edge 31, Type (0, 0), BuildingBlock: AJUNOK_clean_linker_0, # of connection points: 2
#     Edge 32, Type (0, 0), BuildingBlock: AJUNOK_clean_linker_0, # of connection points: 2
#     Edge 33, Type (0, 0), BuildingBlock: AJUNOK_clean_linker_0, # of connection points: 2
#     Edge 34, Type (0, 0), BuildingBlock: AJUNOK_clean_linker_0, # of connection points: 2
#     Edge 35, Type (0, 0), BuildingBlock: AJUNOK_clean_linker_0, # of connection points: 2
# Relax obj value: 0.577
# Max RMSD: 0.242
# Mean RMSD: 0.164
data_MOF--net-snz--node1-NUHQIS_clean_sbu_0--edge1-AJUNOK_clean_linker_0
_symmetry_space_group_name_H-M    P1
_symmetry_Int_Tables_number       1
_symmetry_cell_setting            triclinic
loop_
_symmetry_equiv_pos_as_xyz
'x, y, z'
_cell_length_a     56.221597
_cell_length_b     42.244538
_cell_length_c     12.632851
_cell_angle_alpha  96.451836
_cell_angle_beta   97.707023
_cell_angle_gamma 122.17476
loop_
_atom_site_label
_atom_site_type_symbol
_atom_site_fract_x
_atom_site_fract_y
_atom_site_fract_z
_atom_type_partial_charge
Tb0 Tb 0.14576 0.4981 0.30359 0.0
Eu1 Eu 0.0942 0.50985 0.27416 0.0
C2 C 0.12251 0.50618 1.04904 0.0
C3 C 0.16039 0.5871 0.33709 0.0
C4 C 0.19613 0.46457 0.39496 0.0
C5 C 0.23551 0.45692 0.46216 0.0
C6 C 0.22535 0.477 0.41187 0.0
C7 C 0.17727 0.43127 0.43053 0.0
C8 C 0.18747 0.4111 0.48127 0.0
C9 C 0.21686 0.4236 0.49847 0.0
C10 C 0.18617 0.48589 0.33514 0.0
O11 O 0.13692 0.49573 0.47869 0.0
O12 O 0.10127 0.5067 0.4651 0.0
O13 O 0.06912 0.44444 0.2287 0.0
O14 O 0.10663 0.43691 0.24164 0.0
C15 C 0.11946 0.50147 0.52965 0.0
O16 O 0.07304 0.53588 0.34146 0.0
O17 O 0.0536 0.49843 0.18124 0.0
O18 O 0.1033 0.50976 1.0931 0.0
O19 O 0.14143 0.50331 0.11971 0.0
O20 O 0.16975 0.56377 0.33947 0.0
O21 O 0.13249 0.57171 0.30664 0.0
C22 C 0.07833 0.42174 0.21419 0.0
O23 O 0.16305 0.46621 0.25645 0.0
O24 O 0.18693 0.51421 0.39162 0.0
C25 C 0.04293 0.54557 0.21766 0.0
C26 C 1.02273 0.58971 0.1419 0.0
C27 C 1.00759 0.56244 0.20299 0.0
C28 C 1.01759 0.54072 0.24041 0.0
C29 C 0.05857 0.57326 0.1586 0.0
C30 C 0.04854 0.59514 0.12095 0.0
C31 C 0.05196 0.52082 0.25523 0.0
H32 H 0.258 0.46713 0.4699 0.0
H33 H 0.24043 0.50217 0.38422 0.0
H34 H 0.15459 0.42063 0.41835 0.0
H35 H 0.17226 0.38567 0.50747 0.0
H36 H 0.98778 0.55767 0.22116 0.0
H37 H 1.00526 0.51965 0.28627 0.0
H38 H 0.07823 0.57751 0.14024 0.0
H39 H 0.0605 0.61543 1.07268 0.0
Tb40 Tb 0.65177 0.52952 1.05277 0.0
Eu41 Eu 0.59645 0.53219 1.02685 0.0
C42 C 0.625 0.52908 0.28178 0.0
C43 C 0.5862 0.44692 1.00209 0.0
C44 C 0.72842 0.55485 1.03991 0.0
C45 C 0.77875 0.61095 1.07851 0.0
C46 C 0.7507 0.59223 1.09886 0.0
C47 C 0.73538 0.53712 0.95961 0.0
C48 C 0.76343 0.55579 0.93948 0.0
C49 C 0.78584 0.59309 0.9988 0.0
C50 C 0.6992 0.53275 1.06873 0.0
O51 O 0.6454 0.533 0.86957 0.0
O52 O 0.60389 0.53142 0.84183 0.0
O53 O 0.63177 0.59677 1.06575 0.0
O54 O 0.67133 0.59365 1.08902 0.0
C55 C 0.62474 0.53197 0.79821 0.0
O56 O 0.55137 0.50794 0.94822 0.0
O57 O 0.57437 0.55918 1.07631 0.0
O58 O 0.60548 0.53194 0.21761 0.0
O59 O 0.64372 0.52603 0.23061 0.0
O60 O 0.61482 0.46513 1.00916 0.0
O61 O 0.57557 0.46788 1.01671 0.0
C62 C 0.66011 0.61465 1.09177 0.0
O63 O 0.69366 0.55008 0.14346 0.0
O64 O 0.6762 0.51009 0.99036 0.0
C65 C 0.52559 0.51446 1.07352 0.0
C66 C 0.48335 0.48568 0.1993 0.0
C67 C 0.48955 0.51738 0.15354 0.0
C68 C 0.51049 0.53165 1.09133 0.0
C69 C 0.51913 0.48242 0.11766 0.0
C70 C 0.4981 0.46802 0.17929 0.0
C71 C 0.54928 0.5316 1.01566 0.0
H72 H 0.79507 0.63919 0.12787 0.0
H73 H 0.74668 0.60691 0.16271 0.0
H74 H 0.71915 0.50826 0.91322 0.0
H75 H 0.76753 0.54082 0.87679 0.0
H76 H 0.47825 0.53123 0.16615 0.0
H77 H 0.51523 0.55649 1.05851 0.0
H78 H 0.53073 0.46894 0.10618 0.0
H79 H 0.4939 0.44368 0.21385 0.0
Tb80 Tb 0.58751 0.05644 0.84103 0.0
Eu81 Eu 0.65094 0.13178 0.90235 0.0
C82 C 0.61593 0.09313 0.62777 0.0
C83 C 0.63822 0.0493 0.91623 0.0
C84 C 0.51611 0.98122 0.87935 0.0
C85 C 0.47237 0.92905 0.91787 0.0
C86 C 0.49181 0.94332 0.84968 0.0
C87 C 0.52037 1.00491 0.97724 0.0
C88 C 0.50109 0.99057 1.04585 0.0
C89 C 0.47704 0.95237 1.01744 0.0
C90 C 0.53795 0.99497 0.81254 0.0
O91 O 0.59763 0.07046 1.03309 0.0
O92 O 0.64213 0.12752 1.08488 0.0
O93 O 0.61963 0.15531 0.87547 0.0
O94 O 0.57596 0.09874 0.86277 0.0
C95 C 0.61938 0.09889 0.11609 0.0
O96 O 0.69869 0.18021 0.95996 0.0
O97 O 0.68403 0.13025 0.83372 0.0
O98 O 0.63786 0.12193 0.70689 0.0
O99 O 0.5946 0.06434 0.66403 0.0
O100 O 0.61594 0.03545 0.8346 0.0
O101 O 0.64883 0.08353 0.97267 0.0
C102 C 0.59038 0.13571 0.86456 0.0
O103 O 0.54274 0.02409 0.77082 0.0
O104 O 0.56206 0.99921 0.85586 0.0
C105 C 0.73639 0.16621 0.91211 0.0
C106 C 0.7916 0.17146 0.90667 0.0
C107 C 0.78966 0.20399 0.91846 0.0
C108 C 0.76314 0.20147 0.92124 0.0
C109 C 0.73827 0.1337 0.90091 0.0
C110 C 0.76481 0.13622 0.89912 0.0
C111 C 0.70662 0.16253 0.89382 0.0
H112 H 0.45411 0.89944 0.89429 0.0
H113 H 0.4882 0.92451 0.77488 0.0
H114 H 0.53892 0.03429 1.00166 0.0
H115 H 0.50502 1.00928 0.12148 0.0
H116 H 0.8089 0.23206 0.92504 0.0
H117 H 0.76351 0.2275 0.92711 0.0
H118 H 0.71875 0.10552 0.88998 0.0
H119 H 0.76382 0.10976 0.8871 0.0
Tb120 Tb 0.80395 0.86649 0.29954 0.0
Eu121 Eu 0.75397 0.88145 0.27103 0.0
C122 C 0.78099 0.87615 1.04538 0.0
C123 C 0.8231 0.95549 0.36401 0.0
C124 C 0.85212 0.82942 0.36158 0.0
C125 C 0.87784 0.79798 0.34879 0.0
C126 C 0.86774 0.81894 0.30596 0.0
C127 C 0.84604 0.81758 0.45979 0.0
C128 C 0.85615 0.79651 0.50276 0.0
C129 C 0.87265 0.78709 0.44876 0.0
C130 C 0.84395 0.8543 0.3178 0.0
O131 O 0.79539 0.86557 0.47544 0.0
O132 O 0.75941 0.87635 0.46089 0.0
O133 O 0.729 0.81391 0.23251 0.0
O134 O 0.76637 0.80617 0.26756 0.0
C135 C 0.77771 0.8712 0.52575 0.0
O136 O 0.71127 0.86642 0.1835 0.0
O137 O 0.73669 0.91584 0.31571 0.0
O138 O 0.76341 0.88272 1.09131 0.0
O139 O 0.79834 0.87042 0.11446 0.0
O140 O 0.83019 0.93031 0.34866 0.0
O141 O 0.79551 0.94336 0.33499 0.0
C142 C 0.73837 0.79075 0.23549 0.0
O143 O 0.82219 0.83829 0.23398 0.0
O144 O 0.8436 0.87901 0.38764 0.0
C145 C 0.70306 0.91703 0.17829 0.0
C146 C 0.68277 0.95913 1.07941 0.0
C147 C 0.66369 0.9246 0.10952 0.0
C148 C 0.67368 0.90404 0.1582 0.0
C149 C 0.72213 0.95089 0.14565 0.0
C150 C 0.71214 0.97147 1.0966 0.0
C151 C 0.71316 0.89592 0.23856 0.0
H152 H 0.88992 0.79053 0.30389 0.0
H153 H 0.87258 0.82759 0.22987 0.0
H154 H 0.83397 0.8252 0.50424 0.0
H155 H 0.85176 0.78853 0.57986 0.0
H156 H 0.64104 0.91396 1.09845 0.0
H157 H 0.65836 0.87817 0.18247 0.0
H158 H 0.74486 0.96173 0.15917 0.0
H159 H 0.72756 0.99721 1.07225 0.0
Tb160 Tb 0.29938 0.84539 0.54201 0.0
Eu161 Eu 0.24471 0.84929 0.5182 0.0
C162 C 0.27307 0.84568 0.77245 0.0
C163 C 0.23736 0.76351 0.47973 0.0
C164 C 0.3661 0.86524 0.47305 0.0
C165 C 0.40417 0.87017 0.38914 0.0
C166 C 0.38621 0.85577 0.46253 0.0
C167 C 0.36449 0.88972 0.40995 0.0
C168 C 0.38234 0.90401 0.3366 0.0
C169 C 0.40215 0.89401 0.32407 0.0
C170 C 0.34528 0.84755 0.54265 0.0
O171 O 0.28993 0.84364 0.35574 0.0
O172 O 0.25414 0.8543 0.33661 0.0
O173 O 0.28313 0.91503 0.56773 0.0
O174 O 0.32072 0.90873 0.55905 0.0
C175 C 0.2721 0.84876 0.2886 0.0
O176 O 0.2012 0.82931 0.42517 0.0
O177 O 0.21797 0.86656 0.58412 0.0
O178 O 0.25282 0.84691 0.70725 0.0
O179 O 0.29258 0.84427 0.72232 0.0
O180 O 0.26583 0.7823 0.51014 0.0
O181 O 0.22557 0.78367 0.47815 0.0
C182 C 0.31147 0.93141 0.57637 0.0
O183 O 0.3435 0.87091 0.61249 0.0
O184 O 0.31974 0.81862 0.49018 0.0
C185 C 0.16586 0.82325 0.52639 0.0
C186 C 0.10936 0.78597 0.57356 0.0
C187 C 0.11459 0.80054 0.47797 0.0
C188 C 0.14227 0.81882 0.45505 0.0
C189 C 0.16066 0.80788 0.62068 0.0
C190 C 0.13283 0.78936 0.64349 0.0
C191 C 0.19552 0.84555 0.50253 0.0
H192 H 0.41922 0.86194 0.38141 0.0
H193 H 0.38768 0.83671 0.5096 0.0
H194 H 0.34911 0.89741 0.41621 0.0
H195 H 0.38066 0.92298 0.28976 0.0
H196 H 0.09719 0.79784 0.42026 0.0
H197 H 0.14532 0.83009 0.38153 0.0
H198 H 0.17819 0.81061 0.67767 0.0
H199 H 0.12988 0.77856 0.71774 0.0
Tb200 Tb 0.25751 0.25735 0.68653 0.0
Eu201 Eu 0.30058 0.30829 0.71562 0.0
C202 C 0.28603 0.27591 0.45276 0.0
C203 C 0.31012 0.24307 0.73184 0.0
C204 C 0.17405 0.21393 0.6797 0.0
C205 C 0.12106 0.17735 0.6791 0.0
C206 C 0.14741 0.17938 0.67729 0.0
C207 C 0.17225 0.24645 0.68349 0.0
C208 C 0.14572 0.24434 0.68357 0.0
C209 C 0.11906 0.20971 0.68261 0.0
C210 C 0.20331 0.21619 0.69715 0.0
O211 O 0.28429 0.28382 0.87008 0.0
O212 O 0.28631 0.28375 0.87725 0.0
O213 O 0.28553 0.34833 0.73687 0.0
O214 O 0.2457 0.29702 0.63428 0.0
C215 C 0.27257 0.28912 0.95112 0.0
O216 O 0.33734 0.36876 0.7581 0.0
O217 O 0.33934 0.32476 0.65902 0.0
O218 O 0.27271 0.2788 0.52881 0.0
O219 O 0.27052 0.27876 0.52461 0.0
O220 O 0.28189 0.2257 0.67963 0.0
O221 O 0.32236 0.27911 0.77531 0.0
C222 C 0.26014 0.33385 0.67478 0.0
O223 O 0.21354 0.2085 0.61679 0.0
O224 O 0.2248 0.24407 0.77362 0.0
C225 C 0.36834 0.38703 0.63062 0.0
C226 C 0.40336 0.42539 0.48705 0.0
C227 C 0.41518 0.43438 0.60012 0.0
C228 C 0.39783 0.41538 0.67102 0.0
C229 C 0.35613 0.37918 0.51857 0.0
C230 C 0.3735 0.39808 0.44737 0.0
C231 C 0.35239 0.36128 0.70138 0.0
H232 H 0.10196 0.14978 0.67807 0.0
H233 H 0.14702 0.15347 0.67728 0.0
H234 H 0.19174 0.27419 0.6894 0.0
H235 H 0.14657 0.27067 0.68874 0.0
H236 H 0.43816 0.4546 0.63311 0.0
H237 H 0.40782 0.42133 0.75665 0.0
H238 H 0.33347 0.35712 0.4853 0.0
H239 H 0.36375 0.39053 0.36077 0.0
Tb240 Tb 0.45119 0.19135 0.68507 0.0
Eu241 Eu 0.44808 0.18463 0.91213 0.0
C242 C 0.4929 0.27188 0.87479 0.0
C243 C 0.49674 0.17384 0.80766 0.0
C244 C 0.44829 0.16229 0.40742 0.0
C245 C 0.47166 0.13267 0.33849 0.0
C246 C 0.47333 0.16262 0.4049 0.0
C247 C 0.4214 0.13044 0.34675 0.0
C248 C 0.41977 0.10037 0.28107 0.0
C249 C 0.44515 0.10281 0.26979 0.0
C250 C 0.44938 0.19139 0.48693 0.0
O251 O 0.42456 0.12625 0.6605 0.0
O252 O 0.40844 0.12531 0.8131 0.0
O253 O 0.41638 0.20458 0.88402 0.0
O254 O 0.41473 0.20014 0.70217 0.0
C255 C 0.40562 0.10605 0.71781 0.0
O256 O 0.42308 0.15251 1.02507 0.0
O257 O 0.46964 0.18992 1.07741 0.0
O258 O 0.4794 0.25155 0.94565 0.0
O259 O 0.48528 0.25326 0.77114 0.0
O260 O 0.48616 0.1791 0.71557 0.0
O261 O 0.48463 0.17436 0.89031 0.0
C262 C 0.40441 0.20562 0.78708 0.0
O263 O 0.4267 0.17885 0.52781 0.0
O264 O 0.47319 0.21317 0.56239 0.0
C265 C 0.4481 0.12302 1.08631 0.0
C266 C 0.44393 0.03015 1.0596 0.0
C267 C 0.40826 0.03001 1.03244 0.0
C268 C 0.41231 0.07652 1.04444 0.0
C269 C 0.48283 0.12436 0.11972 0.0
C270 C 0.48188 0.07994 0.1111 0.0
C271 C 0.44632 0.15883 1.08684 0.0
H272 H 0.49128 0.13374 0.33686 0.0
H273 H 0.49423 0.18582 0.45468 0.0
H274 H 0.40157 0.12851 0.35108 0.0
H275 H 0.3988 0.0761 0.23538 0.0
H276 H 0.38735 1.00366 0.99781 0.0
H277 H 0.39305 0.07662 1.02376 0.0
H278 H 0.46708 0.12857 0.10533 0.0
H279 H 0.50178 0.08113 0.12067 0.0
Tb280 Tb 0.95431 0.16433 0.86034 0.0
Eu281 Eu 0.9533 0.21483 0.70475 0.0
C282 C 0.91506 0.11971 0.61825 0.0
C283 C 1.00567 0.19664 0.72826 0.0
C284 C 0.95537 0.12414 1.09531 0.0
C285 C 0.99376 0.1957 0.29549 0.0
C286 C 0.98985 0.16578 0.17318 0.0
C287 C 0.92109 0.10687 0.13195 0.0
C288 C 0.91727 0.13018 0.24987 0.0
C289 C 0.95569 0.17956 0.35368 0.0
C290 C 0.953 0.11924 0.97885 0.0
O291 O 0.98486 0.2237 0.97298 0.0
O292 O 0.9794 0.25966 0.86271 0.0
O293 O 0.91922 0.2104 0.79376 0.0
O294 O 0.9141 0.16393 0.88191 0.0
C295 C 0.99151 0.2579 0.95583 0.0
O296 O 0.97609 0.26438 0.63272 0.0
O297 O 0.92998 0.23337 0.60697 0.0
O298 O 0.91781 0.15203 0.60262 0.0
O299 O 0.93261 0.12207 0.70316 0.0
O300 O 0.99243 0.17556 0.79672 0.0
O301 O 0.99408 0.21355 0.68001 0.0
C302 C 0.90445 0.18518 0.85027 0.0
O303 O 0.93016 0.1159 0.92445 0.0
O304 O 0.97596 0.14479 0.95095 0.0
C305 C 0.95011 0.25468 0.46136 0.0
C306 C 0.94954 0.20007 0.2002 0.0
C307 C 0.91152 0.18379 0.25941 0.0
C308 C 0.91559 0.2133 0.38307 0.0
C309 C 0.9843 0.27215 0.42392 0.0
C310 C 0.98804 0.24932 0.30479 0.0
C311 C 0.95261 0.25946 0.57817 0.0
H312 H 1.0152 0.21897 0.34134 0.0
H313 H 1.00891 0.17479 0.14138 0.0
H314 H 0.9016 0.08301 1.07621 0.0
H315 H 0.89635 0.1172 0.27039 0.0
H316 H 0.89006 0.1606 0.21357 0.0
H317 H 0.8966 0.20415 0.41547 0.0
H318 H 1.00384 0.2959 0.47978 0.0
H319 H 1.00894 0.26238 0.28404 0.0
Tb320 Tb 0.93308 0.65057 0.70955 0.0
Eu321 Eu 0.9661 0.73289 0.87865 0.0
C322 C 0.97151 0.6634 0.93132 0.0
C323 C 0.9011 0.66282 0.89015 0.0
C324 C 0.90396 0.58688 0.4427 0.0
C325 C 0.92948 0.62295 0.31514 0.0
C326 C 0.92876 0.60464 0.40058 0.0
C327 C 0.878 0.57897 0.38031 0.0
C328 C 0.87862 0.59721 0.29417 0.0
C329 C 0.9052 0.62321 0.27012 0.0
C330 C 0.90735 0.59002 0.56195 0.0
O331 O 0.92877 0.69037 0.6233 0.0
O332 O 0.92795 0.7257 0.77038 0.0
O333 O 0.99045 0.74246 0.74379 0.0
O334 O 0.97866 0.68145 0.69355 0.0
C335 C 0.92104 0.71255 0.66507 0.0
O336 O 0.98086 0.79344 0.90575 0.0
O337 O 0.99475 0.77242 1.03196 0.0
O338 O 0.9854 0.70058 0.93777 0.0
O339 O 0.94632 0.63986 0.86308 0.0
O340 O 0.90066 0.64155 0.804 0.0
O341 O 0.92424 0.69751 0.93689 0.0
C342 C 0.99615 0.71851 0.69813 0.0
O343 O 0.93345 0.60561 0.62045 0.0
O344 O 0.89456 0.60462 0.60499 0.0
C345 C 0.98227 0.81474 1.08978 0.0
C346 C 0.94786 0.77487 0.22431 0.0
C347 C 0.93543 0.78137 0.13281 0.0
C348 C 0.95282 0.80119 1.06342 0.0
C349 C 0.99524 0.82126 0.19986 0.0
C350 C 0.97779 0.80021 0.2674 0.0
C351 C 0.99286 0.8005 1.00888 0.0
H352 H 0.95037 0.64141 0.29766 0.0
H353 H 0.94889 0.60974 0.44389 0.0
H354 H 0.85823 0.56395 0.40874 0.0
H355 H 0.85915 0.59515 0.25741 0.0
H356 H 0.91229 0.76451 0.10267 0.0
H357 H 0.94232 0.79834 0.98118 0.0
H358 H 1.01823 0.83371 0.22438 0.0
H359 H 0.98799 0.79695 0.34062 0.0
C360 C 0.10313 0.50938 0.83998 0.0
C361 C 0.12237 0.50517 0.91646 0.0
C362 C 0.10228 0.50814 0.72177 0.0
C363 C 0.12045 0.50229 0.66261 0.0
H364 H 0.08799 0.51387 0.87199 0.0
H365 H 0.08666 0.51194 0.6756 0.0
S366 S 0.17552 0.48891 0.81427 0.0
N367 N 0.16061 0.49442 0.91288 0.0
N368 N 0.15902 0.49206 0.70138 0.0
C369 C 0.13977 0.49794 0.73787 0.0
C370 C 0.1407 0.49932 0.85853 0.0
C371 C 0.60441 0.53138 0.58527 0.0
C372 C 0.62517 0.53131 0.66621 0.0
C373 C 0.60457 0.53064 0.46787 0.0
C374 C 0.62539 0.52949 0.41417 0.0
H375 H 0.58726 0.5321 0.61287 0.0
H376 H 0.58753 0.53093 0.4177 0.0
S377 S 0.68558 0.52868 0.57994 0.0
N378 N 0.66798 0.52994 0.67341 0.0
N379 N 0.66814 0.52839 0.46322 0.0
C380 C 0.64627 0.52931 0.49397 0.0
C381 C 0.64618 0.53022 0.61382 0.0
C382 C 0.6384 0.12519 0.45714 0.0
C383 C 0.61607 0.09402 0.49607 0.0
C384 C 0.63938 0.12675 0.34105 0.0
C385 C 0.61812 0.09735 0.24687 0.0
H386 H 0.65604 0.14958 0.51842 0.0
H387 H 0.65763 0.15212 0.32544 0.0
S388 S 0.5545 1.00739 0.29131 0.0
N389 N 0.57176 0.03174 0.41848 0.0
N390 N 0.57345 0.03442 0.21085 0.0
C391 C 0.59572 0.06591 0.2845 0.0
C392 C 0.59474 0.06434 0.4029 0.0
C393 C 0.76127 0.87923 0.71887 0.0
C394 C 0.77869 0.87202 0.65875 0.0
C395 C 0.76223 0.88059 0.83718 0.0
C396 C 0.78077 0.875 0.91272 0.0
H397 H 0.74621 0.88412 0.67348 0.0
H398 H 0.74771 0.88624 0.87002 0.0
S399 S 0.83177 0.85477 0.80778 0.0
N400 N 0.81584 0.85906 0.69568 0.0
N401 N 0.81749 0.86141 0.90719 0.0
C402 C 0.79831 0.86772 0.85381 0.0
C403 C 0.79735 0.86635 0.73314 0.0
C404 C 0.25719 0.85661 0.96376 0.0
C405 C 0.27335 0.84625 0.9049 0.0
C406 C 0.25686 0.85748 1.08111 0.0
C407 C 0.27257 0.84795 0.15658 0.0
H408 H 0.24425 0.86462 0.91798 0.0
H409 H 0.24372 0.86603 0.1131 0.0
S410 S 0.31674 0.81448 1.05263 0.0
N411 N 0.30463 0.82367 0.94155 0.0
N412 N 0.30401 0.82513 0.15142 0.0
C413 C 0.28846 0.83691 1.09856 0.0
C414 C 0.28886 0.83612 0.97894 0.0
C415 C 0.25636 0.28106 0.1425 0.0
C416 C 0.27698 0.28502 1.07861 0.0
C417 C 0.2585 0.27843 0.25825 0.0
C418 C 0.28189 0.27974 0.32494 0.0
H419 H 0.23758 0.27978 0.10151 0.0
H420 H 0.24124 0.27509 0.29527 0.0
S421 S 0.34452 0.29434 0.21166 0.0
N422 N 0.32341 0.29279 0.10384 0.0
N423 N 0.32752 0.28814 0.31222 0.0
C424 C 0.30296 0.28452 0.26291 0.0
C425 C 0.30068 0.28706 0.14497 0.0
C426 C 0.4419 0.04423 0.23361 0.0
C427 C 0.44452 0.07559 0.17721 0.0
C428 C 0.44176 1.01321 0.14112 0.0
C429 C 0.4435 1.00675 1.0086 0.0
H430 H 0.44056 0.04202 0.31761 0.0
H431 H 0.44006 0.98999 0.17999 0.0
S432 S 0.45008 0.06874 0.79306 0.0
N433 N 0.44968 0.09535 0.89982 0.0
N434 N 0.4476 0.03048 0.82908 0.0
C435 C 0.4462 0.03586 0.93514 0.0
C436 C 0.44758 0.07426 0.97702 0.0
C437 C 0.94691 0.21394 0.15976 0.0
C438 C 0.9516 0.1738 0.16697 0.0
C439 C 0.94632 0.24493 0.27199 0.0
C440 C 0.95377 0.20515 0.38725 0.0
H441 H 0.94345 0.22396 1.07275 0.0
H442 H 0.94375 0.26884 0.27443 0.0
S443 S 0.96583 0.1145 0.44164 0.0
N444 N 0.96285 0.10679 0.30481 0.0
N445 N 0.96285 0.15103 0.49058 0.0
C446 C 0.95849 0.16462 0.39498 0.0
C447 C 0.95901 0.13457 0.28436 0.0
C448 C 0.9338 0.67745 0.18371 0.0
C449 C 0.90964 0.65718 0.22864 0.0
C450 C 0.94754 0.71627 0.19275 0.0
C451 C 0.93484 0.73444 0.23066 0.0
H452 H 0.94406 0.66395 0.15262 0.0
H453 H 0.96757 0.73168 0.16653 0.0
S454 S 0.85425 0.68913 0.27379 0.0
N455 N 0.88734 0.70018 0.25359 0.0
N456 N 0.88714 0.71944 0.25328 0.0
C457 C 0.90473 0.70889 0.24905 0.0
C458 C 0.89267 0.67103 0.2599 0.0
C459 C 0.22214 0.33978 0.56248 0.0
C460 C 0.24907 0.35763 0.63781 0.0
C461 C 0.21178 0.36099 0.52026 0.0
C462 C 0.22783 0.40142 0.55002 0.0
H463 H 0.20895 0.30892 0.53389 0.0
H464 H 0.19124 0.34546 0.46118 0.0
S465 S 0.299 0.46256 0.7495 0.0
N466 N 0.29108 0.41862 0.74317 0.0
N467 N 0.27175 0.45821 0.66548 0.0
C468 C 0.25458 0.41963 0.62701 0.0
C469 C 0.26509 0.39795 0.67029 0.0
C470 C 0.71027 0.68073 0.16341 0.0
C471 C 0.67971 0.65972 0.12705 0.0
C472 C 0.72835 0.72188 0.19825 0.0
C473 C 0.71756 0.74579 0.19985 0.0
H474 H 0.72058 0.66519 0.16552 0.0
H475 H 0.7514 0.73513 0.22411 0.0
S476 S 0.63924 0.70683 0.11334 0.0
N477 N 0.63986 0.66796 1.09623 0.0
N478 N 0.67317 0.74343 0.15969 0.0
C479 C 0.68706 0.72521 0.16364 0.0
C480 C 0.66858 0.68324 0.12831 0.0
C481 C 0.46864 0.93944 0.20277 0.0
C482 C 0.4574 0.93672 1.0932 0.0
C483 C 0.45066 0.92527 0.27628 0.0
C484 C 0.42072 0.90845 0.24379 0.0
H485 H 0.49151 0.95225 0.23164 0.0
H486 H 0.46036 0.92804 0.35976 0.0
S487 S 0.38066 0.89552 0.96624 0.0
N488 N 0.41448 0.91592 0.95561 0.0
N489 N 0.38079 0.89051 1.09409 0.0
C490 C 0.40925 0.90584 0.13441 0.0
C491 C 0.4275 0.91949 1.05901 0.0
C492 C 0.55225 0.14716 0.92886 0.0
C493 C 0.57073 0.15256 0.85531 0.0
C494 C 0.5298 0.15468 0.91385 0.0
C495 C 0.52238 0.16691 0.82126 0.0
H496 H 0.55481 0.13613 0.99983 0.0
H497 H 0.5175 0.14981 0.97584 0.0
S498 S 0.56152 0.18324 0.59528 0.0
N499 N 0.57804 0.17021 0.68056 0.0
N500 N 0.53654 0.18301 0.65154 0.0
C501 C 0.54036 0.17196 0.74563 0.0
C502 C 0.5638 0.16506 0.76225 0.0
C503 C 0.04234 0.3116 1.08215 0.0
C504 C 1.01274 0.29678 1.03952 0.0
C505 C 0.06308 0.35089 0.14007 0.0
C506 C 0.0557 0.37817 0.16018 0.0
H507 H 0.04996 0.29319 1.06627 0.0
H508 H 0.08536 0.36016 0.16695 0.0
S509 S 0.98072 0.35393 1.07157 0.0
N510 N 0.97752 0.31334 1.02645 0.0
N511 N 1.01503 0.38485 0.13378 0.0
C512 C 0.02587 0.36297 0.12082 0.0
C513 C 1.00505 0.32338 1.06141 0.0
C514 C 0.85629 0.60805 0.93441 0.0
C515 C 0.87339 0.64706 0.92969 0.0
C516 C 0.82869 0.59133 0.9588 0.0
C517 C 0.81631 0.6125 0.97843 0.0
H518 H 0.86422 0.59002 0.91802 0.0
H519 H 0.81685 0.56129 0.96163 0.0
S520 S 0.85104 0.71515 0.96666 0.0
N521 N 0.8751 0.7059 0.94186 0.0
N522 N 0.82366 0.67498 0.98632 0.0
C523 C 0.8333 0.65167 0.97401 0.0
C524 C 0.86154 0.66871 0.94998 0.0
C525 C 0.96868 0.60696 0.99063 0.0
C526 C 0.98499 0.64666 0.99423 0.0
C527 C 0.98102 0.58922 1.0396 0.0
C528 C 1.01032 0.61019 1.09448 0.0
H529 H 0.94615 0.58904 0.94789 0.0
H530 H 0.96754 0.55849 1.032 0.0
S531 S 0.06225 0.71532 0.13616 0.0
N532 N 0.03197 0.70682 1.06323 0.0
N533 N 0.05501 0.67333 0.15567 0.0
C534 C 0.0268 0.65006 0.10164 0.0
C535 C 1.01418 0.66829 1.05192 0.0
C536 C 0.5636 0.37582 0.89128 0.0
C537 C 0.56411 0.40171 0.97593 0.0
C538 C 0.54104 0.33516 0.85935 0.0
C539 C 0.51738 0.31645 0.91106 0.0
H540 H 0.58039 0.38724 0.84608 0.0
H541 H 0.54234 0.31804 0.79277 0.0
S542 S 0.50758 0.36961 0.1386 0.0
N543 N 0.53739 0.40365 0.10949 0.0
N544 N 0.49712 0.32931 1.05465 0.0
C545 C 0.51803 0.34192 0.99712 0.0
C546 C 0.54046 0.38337 1.02747 0.0
C547 C 0.86746 0.20511 0.83505 0.0
C548 C 0.87599 0.18116 0.87239 0.0
C549 C 0.84125 0.20202 0.84745 0.0
C550 C 0.82066 0.17439 0.89763 0.0
H551 H 0.88124 0.22686 0.7939 0.0
H552 H 0.83689 0.22145 0.81445 0.0
S553 S 0.83199 0.10505 1.01749 0.0
N554 N 0.86082 0.12902 0.96716 0.0
N555 N 0.81263 0.12316 0.99042 0.0
C556 C 0.82903 0.15039 0.93697 0.0
C557 C 0.85601 0.15376 0.92474 0.0
C558 C 0.63517 0.98638 0.91546 0.0
C559 C 0.65021 0.02647 0.95322 0.0
C560 C 0.64576 0.96499 0.95547 0.0
C561 C 0.67216 0.98256 1.03425 0.0
H562 H 0.61474 0.97121 0.85585 0.0
H563 H 0.63311 0.93428 0.92393 0.0
S564 S 0.72018 0.08678 0.16047 0.0
N565 N 0.69333 0.0827 1.07484 0.0
N566 N 0.71277 0.04297 0.14876 0.0
C567 C 0.68751 0.02266 1.07156 0.0
C568 C 0.67669 0.04435 1.03164 0.0
C569 C 0.229 0.69492 0.44788 0.0
C570 C 0.21789 0.71844 0.44402 0.0
C571 C 0.21114 0.65355 0.41341 0.0
C572 C 0.18069 0.63226 0.37148 0.0
H573 H 0.25197 0.70862 0.47837 0.0
H574 H 0.22148 0.63813 0.42035 0.0
S575 S 0.13986 0.67876 0.34019 0.0
N576 N 0.17349 0.71539 0.39181 0.0
N577 N 0.14089 0.64024 0.32813 0.0
C578 C 0.16947 0.65566 0.3666 0.0
C579 C 0.18756 0.69749 0.40204 0.0
C580 C 0.44016 0.43211 0.25027 0.0
C581 C 0.46209 0.4714 0.26985 0.0
C582 C 0.42069 0.41775 0.3186 0.0
C583 C 0.42257 0.44203 0.41015 0.0
H584 H 0.43813 0.41225 0.1818 0.0
H585 H 0.40457 0.38718 0.30144 0.0
S586 S 0.47572 0.54727 0.49622 0.0
N587 N 0.48429 0.5344 0.38677 0.0
N588 N 0.44762 0.50753 0.51442 0.0
C589 C 0.44411 0.48145 0.4296 0.0
C590 C 0.46382 0.4961 0.35964 0.0
C591 C 0.87903 0.71496 0.58642 0.0
C592 C 0.90817 0.72794 0.59542 0.0
C593 C 0.8676 0.73394 0.53813 0.0
C594 C 0.88496 0.76675 0.49762 0.0
H595 H 0.86518 0.69056 0.61957 0.0
H596 H 0.84502 0.72291 0.53273 0.0
S597 S 0.96362 0.81499 0.51663 0.0
N598 N 0.95461 0.77695 0.56842 0.0
N599 N 0.93346 0.81292 0.47861 0.0
C600 C 0.91428 0.78014 0.50765 0.0
C601 C 0.92579 0.76069 0.55638 0.0
C602 C 0.38228 0.03566 0.60056 0.0
C603 C 0.38095 0.06165 0.6781 0.0
C604 C 0.3603 0.99486 0.56884 0.0
C605 C 0.3344 0.97644 0.60824 0.0
H606 H 0.40098 0.04676 0.56528 0.0
H607 H 0.36372 0.97743 0.51148 0.0
S608 S 0.31894 0.02981 0.81261 0.0
N609 N 0.35046 0.06372 0.7942 0.0
N610 N 0.30978 0.9896 0.73188 0.0
C611 C 0.33259 1.00218 0.68425 0.0
C612 C 0.35536 0.04347 0.71925 0.0
C613 C 0.04421 0.17947 0.75924 0.0
C614 C 0.03438 0.20048 0.70974 0.0
C615 C 0.07053 0.1824 0.74919 0.0
C616 C 0.09001 0.2071 0.6898 0.0
H617 H 0.03134 0.16011 0.80788 0.0
H618 H 0.07586 0.16525 0.79116 0.0
S619 S 0.07518 0.26802 0.5375 0.0
N620 N 0.04717 0.24654 0.59372 0.0
N621 N 0.09569 0.2524 0.57596 0.0
C622 C 0.08042 0.22823 0.63879 0.0
C623 C 0.05325 0.22485 0.64813 0.0
C624 C 0.36072 0.2056 0.66876 0.0
C625 C 0.37877 0.21264 0.77242 0.0
C626 C 0.33759 0.21226 0.65526 0.0
C627 C 0.33016 0.22673 0.74418 0.0
H628 H 0.36463 0.195 0.59553 0.0
H629 H 0.32612 0.2073 0.57281 0.0
S630 S 0.36996 0.2513 1.03405 0.0
N631 N 0.38601 0.23541 0.96612 0.0
N632 N 0.3448 0.24852 0.94163 0.0
C633 C 0.34812 0.23392 0.84766 0.0
C634 C 0.37127 0.22667 0.86146 0.0
C635 C 0.84304 0.02896 0.42377 0.0
C636 C 0.84717 0.99836 0.4208 0.0
C637 C 0.86496 0.06795 0.48139 0.0
C638 C 0.89247 0.07915 0.54237 0.0
H639 H 0.82245 0.02275 0.38175 0.0
H640 H 0.85981 0.08926 0.48107 0.0
S641 S 0.91546 1.01146 0.5622 0.0
N642 N 0.88239 0.98403 0.48469 0.0
N643 N 0.92199 0.0548 0.5922 0.0
C644 C 0.89684 0.04887 0.53882 0.0
C645 C 0.87489 1.00962 0.47897 0.0
C646 C 0.03913 0.7165 0.66281 0.0
C647 C 1.0239 0.73444 0.6586 0.0
C648 C 0.0665 0.73314 0.63587 0.0
C649 C 0.07984 0.76821 0.60103 0.0
H650 H 0.03022 0.68983 0.69019 0.0
H651 H 0.07726 0.71824 0.64201 0.0
S652 S 0.04868 0.82632 0.5717 0.0
N653 N 1.0243 0.78915 0.61409 0.0
N654 N 0.07491 0.81984 0.56297 0.0
C655 C 0.06447 0.78595 0.59431 0.0
C656 C 0.03688 0.76932 0.62316 0.0
loop_
_geom_bond_atom_site_label_1
_geom_bond_atom_site_label_2
_geom_bond_distance
_geom_bond_site_symmetry_2
_ccdc_geom_bond_type
Tb0 C10 2.825 . S
Tb0 O11 2.347 . S
Tb0 O14 2.366 . S
Tb0 O19 2.418 1_554 S
Tb0 O20 2.384 . S
Tb0 O23 2.479 . S
Tb0 O24 2.471 . S
Eu1 O12 2.418 . S
Eu1 O13 2.384 . S
Eu1 O16 2.441 1_455 S
Eu1 O17 2.471 1_554 S
Eu1 O18 2.347 1_554 S
Eu1 O21 2.366 . S
Eu1 C31 2.825 1_554 S
C2 O18 1.259 . S
C2 O19 1.265 . S
C3 O20 1.255 . S
C3 O21 1.265 . S
C4 C6 1.380 . S
C4 C7 1.374 . S
C4 C10 1.507 . S
C5 C6 1.384 . S
C5 C9 1.387 . S
C5 H32 0.930 . S
C6 C4 1.380 . S
C6 C5 1.384 . S
C6 H33 0.931 . S
C7 C4 1.374 . S
C7 C8 1.390 . S
C7 H34 0.930 . S
C8 C7 1.390 . S
C8 C9 1.391 . S
C8 H35 0.930 . S
C9 C5 1.387 . S
C9 C8 1.391 . S
C10 Tb0 2.825 . S
C10 C4 1.507 . S
C10 O23 1.238 . S
C10 O24 1.247 . S
O11 Tb0 2.347 . S
O11 C15 1.259 . S
O12 Eu1 2.418 . S
O12 C15 1.265 . S
O13 Eu1 2.384 . S
O13 C22 1.255 1_554 S
O14 Tb0 2.366 . S
O14 C22 1.265 1_554 S
C15 O11 1.259 . S
C15 O12 1.265 . S
O16 Eu1 2.441 1_655 S
O16 C31 1.235 1_654 S
O17 Eu1 2.471 1_556 S
O17 C31 1.247 . S
O18 Eu1 2.347 1_556 S
O18 C2 1.259 . S
O19 Tb0 2.418 1_556 S
O19 C2 1.265 . S
O20 Tb0 2.384 . S
O20 C3 1.255 . S
O21 Eu1 2.366 . S
O21 C3 1.265 . S
C22 O13 1.255 1_556 S
C22 O14 1.265 1_556 S
O23 Tb0 2.479 . S
O23 C10 1.238 . S
O24 Tb0 2.471 . S
O24 C10 1.247 . S
C25 C28 1.380 1_556 S
C25 C29 1.374 1_655 S
C25 C31 1.507 1_655 S
C26 C27 1.387 1_556 S
C26 C30 1.355 1_655 S
C27 C26 1.387 1_554 S
C27 C28 1.384 . S
C27 H36 0.930 . S
C28 C25 1.380 1_554 S
C28 C27 1.384 . S
C28 H37 0.931 . S
C29 C25 1.374 1_455 S
C29 C30 1.418 . S
C29 H38 0.930 . S
C30 C26 1.355 1_455 S
C30 C29 1.418 . S
C30 H39 0.940 . S
C31 Eu1 2.825 1_556 S
C31 O16 1.235 1_456 S
C31 O17 1.247 . S
C31 C25 1.507 1_455 S
H32 C5 0.930 . S
H33 C6 0.931 . S
H34 C7 0.930 . S
H35 C8 0.930 . S
H36 C27 0.930 . S
H37 C28 0.931 . S
H38 C29 0.930 . S
H39 C30 0.940 . S
Tb40 C50 2.825 . S
Tb40 O51 2.347 . S
Tb40 O54 2.366 . S
Tb40 O59 2.418 . S
Tb40 O60 2.384 . S
Tb40 O63 2.479 . S
Tb40 O64 2.471 . S
Eu41 O52 2.418 1_554 S
Eu41 O53 2.384 . S
Eu41 O56 2.479 . S
Eu41 O57 2.471 . S
Eu41 O58 2.347 . S
Eu41 O61 2.366 . S
Eu41 C71 2.825 . S
C42 O58 1.259 . S
C42 O59 1.265 . S
C43 O60 1.255 . S
C43 O61 1.265 . S
C44 C46 1.380 . S
C44 C47 1.374 . S
C44 C50 1.507 . S
C45 C46 1.384 . S
C45 C49 1.387 . S
C45 H72 0.930 . S
C46 C44 1.380 . S
C46 C45 1.384 . S
C46 H73 0.931 . S
C47 C44 1.374 . S
C47 C48 1.390 . S
C47 H74 0.926 1_554 S
C48 C47 1.390 . S
C48 C49 1.391 . S
C48 H75 0.930 1_554 S
C49 C45 1.387 . S
C49 C48 1.391 . S
C50 Tb40 2.825 . S
C50 C44 1.507 . S
C50 O63 1.238 . S
C50 O64 1.247 . S
O51 Tb40 2.347 . S
O51 C55 1.259 1_554 S
O52 Eu41 2.418 1_556 S
O52 C55 1.265 . S
O53 Eu41 2.384 . S
O53 C62 1.255 . S
O54 Tb40 2.366 . S
O54 C62 1.265 . S
C55 O51 1.259 1_556 S
C55 O52 1.265 . S
O56 Eu41 2.479 . S
O56 C71 1.238 . S
O57 Eu41 2.471 . S
O57 C71 1.247 . S
O58 Eu41 2.347 . S
O58 C42 1.259 . S
O59 Tb40 2.418 . S
O59 C42 1.265 . S
O60 Tb40 2.384 . S
O60 C43 1.255 . S
O61 Eu41 2.366 . S
O61 C43 1.265 . S
C62 O53 1.255 . S
C62 O54 1.265 . S
O63 Tb40 2.479 . S
O63 C50 1.238 . S
O64 Tb40 2.471 . S
O64 C50 1.247 . S
C65 C68 1.380 . S
C65 C69 1.374 . S
C65 C71 1.507 . S
C66 C67 1.387 . S
C66 C70 1.391 . S
C67 C66 1.387 . S
C67 C68 1.384 . S
C67 H76 0.930 . S
C68 C65 1.380 . S
C68 C67 1.384 . S
C68 H77 0.931 . S
C69 C65 1.374 . S
C69 C70 1.390 . S
C69 H78 0.930 . S
C70 C66 1.391 . S
C70 C69 1.390 . S
C70 H79 0.930 . S
C71 Eu41 2.825 . S
C71 O56 1.238 . S
C71 O57 1.247 . S
C71 C65 1.507 . S
H72 C45 0.930 . S
H73 C46 0.931 . S
H74 C47 0.926 1_556 S
H75 C48 0.930 1_556 S
H76 C67 0.930 . S
H77 C68 0.931 . S
H78 C69 0.930 . S
H79 C70 0.930 . S
Tb80 C90 2.825 . S
Tb80 O91 2.347 . S
Tb80 O94 2.366 . S
Tb80 O99 2.418 1_554 S
Tb80 O100 2.384 . S
Tb80 O103 2.479 . S
Tb80 O104 2.471 . S
Eu81 O92 2.418 . S
Eu81 O93 2.384 . S
Eu81 O96 2.479 . S
Eu81 O97 2.471 . S
Eu81 O98 2.347 . S
Eu81 O101 2.366 . S
Eu81 C111 2.825 . S
C82 O98 1.259 1_556 S
C82 O99 1.265 . S
C83 O100 1.255 . S
C83 O101 1.265 . S
C84 C86 1.380 . S
C84 C87 1.374 . S
C84 C90 1.507 . S
C85 C86 1.384 . S
C85 C89 1.387 . S
C85 H112 0.930 1_545 S
C86 C84 1.380 . S
C86 C85 1.384 . S
C86 H113 0.931 1_554 S
C87 C84 1.374 . S
C87 C88 1.390 . S
C87 H114 0.930 . S
C88 C87 1.390 . S
C88 C89 1.391 . S
C88 H115 0.930 . S
C89 C85 1.387 . S
C89 C88 1.391 . S
C90 Tb80 2.825 . S
C90 C84 1.507 . S
C90 O103 1.238 . S
C90 O104 1.247 . S
O91 Tb80 2.347 . S
O91 C95 1.259 . S
O92 Eu81 2.418 . S
O92 C95 1.265 . S
O93 Eu81 2.384 . S
O93 C102 1.255 . S
O94 Tb80 2.366 . S
O94 C102 1.265 . S
C95 O91 1.259 . S
C95 O92 1.265 . S
O96 Eu81 2.479 . S
O96 C111 1.238 . S
O97 Eu81 2.471 . S
O97 C111 1.247 . S
O98 Eu81 2.347 . S
O98 C82 1.259 1_554 S
O99 Tb80 2.418 1_556 S
O99 C82 1.265 . S
O100 Tb80 2.384 . S
O100 C83 1.255 . S
O101 Eu81 2.366 . S
O101 C83 1.265 . S
C102 O93 1.255 . S
C102 O94 1.265 . S
O103 Tb80 2.479 . S
O103 C90 1.238 . S
O104 Tb80 2.471 . S
O104 C90 1.247 . S
C105 C108 1.380 . S
C105 C109 1.374 . S
C105 C111 1.507 . S
C106 C107 1.387 . S
C106 C110 1.391 . S
C107 C106 1.387 . S
C107 C108 1.384 . S
C107 H116 0.930 . S
C108 C105 1.380 . S
C108 C107 1.384 . S
C108 H117 0.931 . S
C109 C105 1.374 . S
C109 C110 1.390 . S
C109 H118 0.930 . S
C110 C106 1.391 . S
C110 C109 1.390 . S
C110 H119 0.930 . S
C111 Eu81 2.825 . S
C111 O96 1.238 . S
C111 O97 1.247 . S
C111 C105 1.507 . S
H112 C85 0.930 1_565 S
H113 C86 0.931 1_556 S
H114 C87 0.930 . S
H115 C88 0.930 . S
H116 C107 0.930 . S
H117 C108 0.931 . S
H118 C109 0.930 . S
H119 C110 0.930 . S
Tb120 C130 2.825 . S
Tb120 O131 2.347 . S
Tb120 O134 2.366 . S
Tb120 O139 2.418 . S
Tb120 O140 2.384 . S
Tb120 O143 2.479 . S
Tb120 O144 2.471 . S
Eu121 O132 2.418 . S
Eu121 O133 2.384 . S
Eu121 O136 2.479 . S
Eu121 O137 2.471 . S
Eu121 O138 2.347 . S
Eu121 O141 2.366 . S
Eu121 C151 2.825 . S
C122 O138 1.259 . S
C122 O139 1.265 . S
C123 O140 1.255 . S
C123 O141 1.265 . S
C124 C126 1.380 . S
C124 C127 1.374 . S
C124 C130 1.507 . S
C125 C126 1.384 . S
C125 C129 1.387 . S
C125 H152 0.930 . S
C126 C124 1.380 . S
C126 C125 1.384 . S
C126 H153 0.931 . S
C127 C124 1.374 . S
C127 C128 1.390 . S
C127 H154 0.930 . S
C128 C127 1.390 . S
C128 C129 1.391 . S
C128 H155 0.930 . S
C129 C125 1.387 . S
C129 C128 1.391 . S
C130 Tb120 2.825 . S
C130 C124 1.507 . S
C130 O143 1.238 . S
C130 O144 1.247 . S
O131 Tb120 2.347 . S
O131 C135 1.259 . S
O132 Eu121 2.418 . S
O132 C135 1.265 . S
O133 Eu121 2.384 . S
O133 C142 1.255 . S
O134 Tb120 2.366 . S
O134 C142 1.265 . S
C135 O131 1.259 . S
C135 O132 1.265 . S
O136 Eu121 2.479 . S
O136 C151 1.238 . S
O137 Eu121 2.471 . S
O137 C151 1.247 . S
O138 Eu121 2.347 . S
O138 C122 1.259 . S
O139 Tb120 2.418 . S
O139 C122 1.265 . S
O140 Tb120 2.384 . S
O140 C123 1.255 . S
O141 Eu121 2.366 . S
O141 C123 1.265 . S
C142 O133 1.255 . S
C142 O134 1.265 . S
O143 Tb120 2.479 . S
O143 C130 1.238 . S
O144 Tb120 2.471 . S
O144 C130 1.247 . S
C145 C148 1.380 . S
C145 C149 1.374 . S
C145 C151 1.507 . S
C146 C147 1.387 1_545 S
C146 C150 1.386 1_545 S
C147 C146 1.387 1_565 S
C147 C148 1.384 . S
C147 H156 0.930 . S
C148 C145 1.380 . S
C148 C147 1.384 . S
C148 H157 0.931 . S
C149 C145 1.374 . S
C149 C150 1.400 . S
C149 H158 0.930 . S
C150 C146 1.386 1_565 S
C150 C149 1.400 . S
C150 H159 0.925 1_565 S
C151 Eu121 2.825 . S
C151 O136 1.238 . S
C151 O137 1.247 . S
C151 C145 1.507 . S
H152 C125 0.930 . S
H153 C126 0.931 . S
H154 C127 0.930 . S
H155 C128 0.930 . S
H156 C147 0.930 . S
H157 C148 0.931 . S
H158 C149 0.930 . S
H159 C150 0.925 1_545 S
Tb160 C170 2.825 . S
Tb160 O171 2.347 . S
Tb160 O174 2.366 . S
Tb160 O179 2.418 . S
Tb160 O180 2.384 . S
Tb160 O183 2.479 . S
Tb160 O184 2.471 . S
Eu161 O172 2.418 . S
Eu161 O173 2.384 . S
Eu161 O176 2.479 . S
Eu161 O177 2.471 . S
Eu161 O178 2.347 . S
Eu161 O181 2.366 . S
Eu161 C191 2.825 . S
C162 O178 1.259 . S
C162 O179 1.265 . S
C163 O180 1.255 . S
C163 O181 1.265 . S
C164 C166 1.380 . S
C164 C167 1.374 . S
C164 C170 1.507 . S
C165 C166 1.384 . S
C165 C169 1.387 . S
C165 H192 0.930 . S
C166 C164 1.380 . S
C166 C165 1.384 . S
C166 H193 0.931 . S
C167 C164 1.374 . S
C167 C168 1.390 . S
C167 H194 0.930 . S
C168 C167 1.390 . S
C168 C169 1.391 . S
C168 H195 0.930 . S
C169 C165 1.387 . S
C169 C168 1.391 . S
C170 Tb160 2.825 . S
C170 C164 1.507 . S
C170 O183 1.238 . S
C170 O184 1.247 . S
O171 Tb160 2.347 . S
O171 C175 1.259 . S
O172 Eu161 2.418 . S
O172 C175 1.265 . S
O173 Eu161 2.384 . S
O173 C182 1.255 . S
O174 Tb160 2.366 . S
O174 C182 1.265 . S
C175 O171 1.259 . S
C175 O172 1.265 . S
O176 Eu161 2.479 . S
O176 C191 1.238 . S
O177 Eu161 2.471 . S
O177 C191 1.247 . S
O178 Eu161 2.347 . S
O178 C162 1.259 . S
O179 Tb160 2.418 . S
O179 C162 1.265 . S
O180 Tb160 2.384 . S
O180 C163 1.255 . S
O181 Eu161 2.366 . S
O181 C163 1.265 . S
C182 O173 1.255 . S
C182 O174 1.265 . S
O183 Tb160 2.479 . S
O183 C170 1.238 . S
O184 Tb160 2.471 . S
O184 C170 1.247 . S
C185 C188 1.380 . S
C185 C189 1.374 . S
C185 C191 1.507 . S
C186 C187 1.387 . S
C186 C190 1.391 . S
C187 C186 1.387 . S
C187 C188 1.384 . S
C187 H196 0.930 . S
C188 C185 1.380 . S
C188 C187 1.384 . S
C188 H197 0.931 . S
C189 C185 1.374 . S
C189 C190 1.390 . S
C189 H198 0.930 . S
C190 C186 1.391 . S
C190 C189 1.390 . S
C190 H199 0.930 . S
C191 Eu161 2.825 . S
C191 O176 1.238 . S
C191 O177 1.247 . S
C191 C185 1.507 . S
H192 C165 0.930 . S
H193 C166 0.931 . S
H194 C167 0.930 . S
H195 C168 0.930 . S
H196 C187 0.930 . S
H197 C188 0.931 . S
H198 C189 0.930 . S
H199 C190 0.930 . S
Tb200 C210 2.825 . S
Tb200 O211 2.347 . S
Tb200 O214 2.366 . S
Tb200 O219 2.418 . S
Tb200 O220 2.384 . S
Tb200 O223 2.479 . S
Tb200 O224 2.471 . S
Eu201 O212 2.418 . S
Eu201 O213 2.384 . S
Eu201 O216 2.479 . S
Eu201 O217 2.471 . S
Eu201 O218 2.347 . S
Eu201 O221 2.366 . S
Eu201 C231 2.825 . S
C202 O218 1.259 . S
C202 O219 1.265 . S
C203 O220 1.255 . S
C203 O221 1.265 . S
C204 C206 1.380 . S
C204 C207 1.374 . S
C204 C210 1.507 . S
C205 C206 1.384 . S
C205 C209 1.387 . S
C205 H232 0.930 . S
C206 C204 1.380 . S
C206 C205 1.384 . S
C206 H233 0.931 . S
C207 C204 1.374 . S
C207 C208 1.390 . S
C207 H234 0.930 . S
C208 C207 1.390 . S
C208 C209 1.391 . S
C208 H235 0.930 . S
C209 C205 1.387 . S
C209 C208 1.391 . S
C210 Tb200 2.825 . S
C210 C204 1.507 . S
C210 O223 1.238 . S
C210 O224 1.247 . S
O211 Tb200 2.347 . S
O211 C215 1.259 . S
O212 Eu201 2.418 . S
O212 C215 1.265 . S
O213 Eu201 2.384 . S
O213 C222 1.255 . S
O214 Tb200 2.366 . S
O214 C222 1.265 . S
C215 O211 1.259 . S
C215 O212 1.265 . S
O216 Eu201 2.479 . S
O216 C231 1.238 . S
O217 Eu201 2.471 . S
O217 C231 1.247 . S
O218 Eu201 2.347 . S
O218 C202 1.259 . S
O219 Tb200 2.418 . S
O219 C202 1.265 . S
O220 Tb200 2.384 . S
O220 C203 1.255 . S
O221 Eu201 2.366 . S
O221 C203 1.265 . S
C222 O213 1.255 . S
C222 O214 1.265 . S
O223 Tb200 2.479 . S
O223 C210 1.238 . S
O224 Tb200 2.471 . S
O224 C210 1.247 . S
C225 C228 1.380 . S
C225 C229 1.374 . S
C225 C231 1.507 . S
C226 C227 1.387 . S
C226 C230 1.391 . S
C227 C226 1.387 . S
C227 C228 1.384 . S
C227 H236 0.930 . S
C228 C225 1.380 . S
C228 C227 1.384 . S
C228 H237 0.931 . S
C229 C225 1.374 . S
C229 C230 1.390 . S
C229 H238 0.930 . S
C230 C226 1.391 . S
C230 C229 1.390 . S
C230 H239 0.930 . S
C231 Eu201 2.825 . S
C231 O216 1.238 . S
C231 O217 1.247 . S
C231 C225 1.507 . S
H232 C205 0.930 . S
H233 C206 0.931 . S
H234 C207 0.930 . S
H235 C208 0.930 . S
H236 C227 0.930 . S
H237 C228 0.931 . S
H238 C229 0.930 . S
H239 C230 0.930 . S
Tb240 C250 2.825 . S
Tb240 O251 2.347 . S
Tb240 O254 2.366 . S
Tb240 O259 2.418 . S
Tb240 O260 2.384 . S
Tb240 O263 2.479 . S
Tb240 O264 2.471 . S
Eu241 O252 2.418 . S
Eu241 O253 2.384 . S
Eu241 O256 2.479 . S
Eu241 O257 2.471 . S
Eu241 O258 2.347 . S
Eu241 O261 2.366 . S
Eu241 C271 2.825 . S
C242 O258 1.259 . S
C242 O259 1.265 . S
C243 O260 1.255 . S
C243 O261 1.265 . S
C244 C246 1.380 . S
C244 C247 1.374 . S
C244 C250 1.507 . S
C245 C246 1.384 . S
C245 C249 1.387 . S
C245 H272 0.930 . S
C246 C244 1.380 . S
C246 C245 1.384 . S
C246 H273 0.931 . S
C247 C244 1.374 . S
C247 C248 1.390 . S
C247 H274 0.930 . S
C248 C247 1.390 . S
C248 C249 1.391 . S
C248 H275 0.930 . S
C249 C245 1.387 . S
C249 C248 1.391 . S
C250 Tb240 2.825 . S
C250 C244 1.507 . S
C250 O263 1.238 . S
C250 O264 1.247 . S
O251 Tb240 2.347 . S
O251 C255 1.259 . S
O252 Eu241 2.418 . S
O252 C255 1.265 . S
O253 Eu241 2.384 . S
O253 C262 1.255 . S
O254 Tb240 2.366 . S
O254 C262 1.265 . S
C255 O251 1.259 . S
C255 O252 1.265 . S
O256 Eu241 2.479 . S
O256 C271 1.238 . S
O257 Eu241 2.471 . S
O257 C271 1.247 . S
O258 Eu241 2.347 . S
O258 C242 1.259 . S
O259 Tb240 2.418 . S
O259 C242 1.265 . S
O260 Tb240 2.384 . S
O260 C243 1.255 . S
O261 Eu241 2.366 . S
O261 C243 1.265 . S
C262 O253 1.255 . S
C262 O254 1.265 . S
O263 Tb240 2.479 . S
O263 C250 1.238 . S
O264 Tb240 2.471 . S
O264 C250 1.247 . S
C265 C268 1.380 . S
C265 C269 1.374 . S
C265 C271 1.507 1_554 S
C266 C267 1.387 . S
C266 C270 1.391 . S
C267 C266 1.387 . S
C267 C268 1.384 . S
C267 H276 0.930 . S
C268 C265 1.380 . S
C268 C267 1.384 . S
C268 H277 0.931 . S
C269 C265 1.374 . S
C269 C270 1.390 . S
C269 H278 0.930 . S
C270 C266 1.391 . S
C270 C269 1.390 . S
C270 H279 0.930 . S
C271 Eu241 2.825 . S
C271 O256 1.238 . S
C271 O257 1.247 . S
C271 C265 1.507 1_556 S
H272 C245 0.930 . S
H273 C246 0.931 . S
H274 C247 0.930 . S
H275 C248 0.930 . S
H276 C267 0.930 . S
H277 C268 0.931 . S
H278 C269 0.930 . S
H279 C270 0.930 . S
Tb280 C290 2.825 . S
Tb280 O291 2.347 . S
Tb280 O294 2.366 . S
Tb280 O299 2.418 . S
Tb280 O300 2.384 . S
Tb280 O303 2.479 . S
Tb280 O304 2.471 . S
Eu281 O292 2.418 . S
Eu281 O293 2.384 . S
Eu281 O296 2.479 . S
Eu281 O297 2.471 . S
Eu281 O298 2.347 . S
Eu281 O301 2.366 . S
Eu281 C311 2.825 . S
C282 O298 1.259 . S
C282 O299 1.265 . S
C283 O300 1.255 . S
C283 O301 1.265 . S
C284 C286 1.380 . S
C284 C287 1.374 . S
C284 C290 1.507 1_554 S
C285 C286 1.384 . S
C285 C289 1.387 . S
C285 H312 0.930 . S
C286 C284 1.380 . S
C286 C285 1.384 . S
C286 H313 0.931 . S
C287 C284 1.374 . S
C287 C288 1.390 . S
C287 H314 0.930 . S
C288 C287 1.390 . S
C288 C289 1.391 . S
C288 H315 0.930 . S
C289 C285 1.387 . S
C289 C288 1.391 . S
C290 Tb280 2.825 . S
C290 C284 1.507 1_556 S
C290 O303 1.238 . S
C290 O304 1.247 . S
O291 Tb280 2.347 . S
O291 C295 1.259 . S
O292 Eu281 2.418 . S
O292 C295 1.265 . S
O293 Eu281 2.384 . S
O293 C302 1.255 . S
O294 Tb280 2.366 . S
O294 C302 1.265 . S
C295 O291 1.259 . S
C295 O292 1.265 . S
O296 Eu281 2.479 . S
O296 C311 1.238 . S
O297 Eu281 2.471 . S
O297 C311 1.247 . S
O298 Eu281 2.347 . S
O298 C282 1.259 . S
O299 Tb280 2.418 . S
O299 C282 1.265 . S
O300 Tb280 2.384 . S
O300 C283 1.255 . S
O301 Eu281 2.366 . S
O301 C283 1.265 . S
C302 O293 1.255 . S
C302 O294 1.265 . S
O303 Tb280 2.479 . S
O303 C290 1.238 . S
O304 Tb280 2.471 . S
O304 C290 1.247 . S
C305 C308 1.380 . S
C305 C309 1.374 . S
C305 C311 1.507 . S
C306 C307 1.387 . S
C306 C310 1.391 . S
C307 C306 1.387 . S
C307 C308 1.384 . S
C307 H316 0.930 . S
C308 C305 1.380 . S
C308 C307 1.384 . S
C308 H317 0.931 . S
C309 C305 1.374 . S
C309 C310 1.390 . S
C309 H318 0.930 . S
C310 C306 1.391 . S
C310 C309 1.390 . S
C310 H319 0.930 . S
C311 Eu281 2.825 . S
C311 O296 1.238 . S
C311 O297 1.247 . S
C311 C305 1.507 . S
H312 C285 0.930 . S
H313 C286 0.931 . S
H314 C287 0.930 . S
H315 C288 0.930 . S
H316 C307 0.930 . S
H317 C308 0.931 . S
H318 C309 0.930 . S
H319 C310 0.930 . S
Tb320 C330 2.825 . S
Tb320 O331 2.347 . S
Tb320 O334 2.366 . S
Tb320 O339 2.418 . S
Tb320 O340 2.384 . S
Tb320 O343 2.479 . S
Tb320 O344 2.471 . S
Eu321 O332 2.418 . S
Eu321 O333 2.384 . S
Eu321 O336 2.479 . S
Eu321 O337 2.471 . S
Eu321 O338 2.347 . S
Eu321 O341 2.366 . S
Eu321 C351 2.825 . S
C322 O338 1.259 . S
C322 O339 1.265 . S
C323 O340 1.255 . S
C323 O341 1.265 . S
C324 C326 1.380 . S
C324 C327 1.374 . S
C324 C330 1.507 . S
C325 C326 1.384 . S
C325 C329 1.387 . S
C325 H352 0.930 . S
C326 C324 1.380 . S
C326 C325 1.384 . S
C326 H353 0.931 . S
C327 C324 1.374 . S
C327 C328 1.390 . S
C327 H354 0.930 . S
C328 C327 1.390 . S
C328 C329 1.391 . S
C328 H355 0.930 . S
C329 C325 1.387 . S
C329 C328 1.391 . S
C330 Tb320 2.825 . S
C330 C324 1.507 . S
C330 O343 1.238 . S
C330 O344 1.247 . S
O331 Tb320 2.347 . S
O331 C335 1.259 . S
O332 Eu321 2.418 . S
O332 C335 1.265 . S
O333 Eu321 2.384 . S
O333 C342 1.255 . S
O334 Tb320 2.366 . S
O334 C342 1.265 . S
C335 O331 1.259 . S
C335 O332 1.265 . S
O336 Eu321 2.479 . S
O336 C351 1.238 . S
O337 Eu321 2.471 . S
O337 C351 1.247 . S
O338 Eu321 2.347 . S
O338 C322 1.259 . S
O339 Tb320 2.418 . S
O339 C322 1.265 . S
O340 Tb320 2.384 . S
O340 C323 1.255 . S
O341 Eu321 2.366 . S
O341 C323 1.265 . S
C342 O333 1.255 . S
C342 O334 1.265 . S
O343 Tb320 2.479 . S
O343 C330 1.238 . S
O344 Tb320 2.471 . S
O344 C330 1.247 . S
C345 C348 1.380 . S
C345 C349 1.374 . S
C345 C351 1.507 1_554 S
C346 C347 1.387 . S
C346 C350 1.391 . S
C347 C346 1.387 . S
C347 C348 1.384 . S
C347 H356 0.930 . S
C348 C345 1.380 . S
C348 C347 1.384 . S
C348 H357 0.931 . S
C349 C345 1.374 . S
C349 C350 1.390 . S
C349 H358 0.930 . S
C350 C346 1.391 . S
C350 C349 1.390 . S
C350 H359 0.930 . S
C351 Eu321 2.825 . S
C351 O336 1.238 . S
C351 O337 1.247 . S
C351 C345 1.507 1_556 S
H352 C325 0.930 . S
H353 C326 0.931 . S
H354 C327 0.930 . S
H355 C328 0.930 . S
H356 C347 0.930 . S
H357 C348 0.931 . S
H358 C349 0.930 . S
H359 C350 0.930 . S
C360 C361 1.369 . S
C360 C362 1.419 . S
C360 H364 0.930 . S
C361 C360 1.369 . S
C361 C370 1.429 . S
C362 C360 1.419 . S
C362 C363 1.363 . S
C362 H365 0.929 . S
C363 C362 1.363 . S
C363 C369 1.428 . S
H364 C360 0.930 . S
H365 C362 0.929 . S
S366 N367 1.613 . S
S366 N368 1.610 . S
N367 S366 1.613 . S
N367 C370 1.350 . S
N368 S366 1.610 . S
N368 C369 1.351 . S
C369 C363 1.428 . S
C369 N368 1.351 . S
C369 C370 1.434 . S
C370 C361 1.429 . S
C370 N367 1.350 . S
C370 C369 1.434 . S
C371 C372 1.369 . S
C371 C373 1.419 . S
C371 H375 0.930 . S
C372 C371 1.369 . S
C372 C381 1.429 . S
C373 C371 1.419 . S
C373 C374 1.363 . S
C373 H376 0.929 . S
C374 C373 1.363 . S
C374 C380 1.428 . S
H375 C371 0.930 . S
H376 C373 0.929 . S
S377 N378 1.613 . S
S377 N379 1.610 . S
N378 S377 1.613 . S
N378 C381 1.350 . S
N379 S377 1.610 . S
N379 C380 1.351 . S
C380 C374 1.428 . S
C380 N379 1.351 . S
C380 C381 1.434 . S
C381 C372 1.429 . S
C381 N378 1.350 . S
C381 C380 1.434 . S
C382 C383 1.369 . S
C382 C384 1.419 . S
C382 H386 0.930 . S
C383 C382 1.369 . S
C383 C392 1.429 . S
C384 C382 1.419 . S
C384 C385 1.363 . S
C384 H387 0.929 . S
C385 C384 1.363 . S
C385 C391 1.428 . S
H386 C382 0.930 . S
H387 C384 0.929 . S
S388 N389 1.613 . S
S388 N390 1.610 . S
N389 S388 1.613 . S
N389 C392 1.350 . S
N390 S388 1.610 . S
N390 C391 1.351 . S
C391 C385 1.428 . S
C391 N390 1.351 . S
C391 C392 1.434 . S
C392 C383 1.429 . S
C392 N389 1.350 . S
C392 C391 1.434 . S
C393 C394 1.369 . S
C393 C395 1.419 . S
C393 H397 0.930 . S
C394 C393 1.369 . S
C394 C403 1.429 . S
C395 C393 1.419 . S
C395 C396 1.363 . S
C395 H398 0.929 . S
C396 C395 1.363 . S
C396 C402 1.428 . S
H397 C393 0.930 . S
H398 C395 0.929 . S
S399 N400 1.613 . S
S399 N401 1.610 . S
N400 S399 1.613 . S
N400 C403 1.350 . S
N401 S399 1.610 . S
N401 C402 1.351 . S
C402 C396 1.428 . S
C402 N401 1.351 . S
C402 C403 1.434 . S
C403 C394 1.429 . S
C403 N400 1.350 . S
C403 C402 1.434 . S
C404 C405 1.369 . S
C404 C406 1.419 . S
C404 H408 0.930 . S
C405 C404 1.369 . S
C405 C414 1.429 . S
C406 C404 1.419 . S
C406 C407 1.363 . S
C406 H409 0.929 . S
C407 C406 1.363 . S
C407 C413 1.428 . S
H408 C404 0.930 . S
H409 C406 0.929 . S
S410 N411 1.613 . S
S410 N412 1.610 . S
N411 S410 1.613 . S
N411 C414 1.350 . S
N412 S410 1.610 . S
N412 C413 1.351 . S
C413 C407 1.428 . S
C413 N412 1.351 . S
C413 C414 1.434 . S
C414 C405 1.429 . S
C414 N411 1.350 . S
C414 C413 1.434 . S
C415 C416 1.369 . S
C415 C417 1.419 . S
C415 H419 0.930 . S
C416 C415 1.369 . S
C416 C425 1.429 . S
C417 C415 1.419 . S
C417 C418 1.363 . S
C417 H420 0.929 . S
C418 C417 1.363 . S
C418 C424 1.428 . S
H419 C415 0.930 . S
H420 C417 0.929 . S
S421 N422 1.613 . S
S421 N423 1.610 . S
N422 S421 1.613 . S
N422 C425 1.350 . S
N423 S421 1.610 . S
N423 C424 1.351 . S
C424 C418 1.428 . S
C424 N423 1.351 . S
C424 C425 1.434 . S
C425 C416 1.429 . S
C425 N422 1.350 . S
C425 C424 1.434 . S
C426 C427 1.369 . S
C426 C428 1.419 . S
C426 H430 0.930 . S
C427 C426 1.369 . S
C427 C436 1.429 . S
C428 C426 1.419 . S
C428 C429 1.363 . S
C428 H431 0.929 . S
C429 C428 1.363 . S
C429 C435 1.428 . S
H430 C426 0.930 . S
H431 C428 0.929 . S
S432 N433 1.613 . S
S432 N434 1.610 . S
N433 S432 1.613 . S
N433 C436 1.350 . S
N434 S432 1.610 . S
N434 C435 1.351 . S
C435 C429 1.428 . S
C435 N434 1.351 . S
C435 C436 1.434 . S
C436 C427 1.429 . S
C436 N433 1.350 . S
C436 C435 1.434 . S
C437 C438 1.369 . S
C437 C439 1.419 . S
C437 H441 0.930 . S
C438 C437 1.369 . S
C438 C447 1.429 . S
C439 C437 1.419 . S
C439 C440 1.363 . S
C439 H442 0.929 . S
C440 C439 1.363 . S
C440 C446 1.428 . S
H441 C437 0.930 . S
H442 C439 0.929 . S
S443 N444 1.613 . S
S443 N445 1.610 . S
N444 S443 1.613 . S
N444 C447 1.350 . S
N445 S443 1.610 . S
N445 C446 1.351 . S
C446 C440 1.428 . S
C446 N445 1.351 . S
C446 C447 1.434 . S
C447 C438 1.429 . S
C447 N444 1.350 . S
C447 C446 1.434 . S
C448 C449 1.369 . S
C448 C450 1.419 . S
C448 H452 0.930 . S
C449 C448 1.369 . S
C449 C458 1.429 . S
C450 C448 1.419 . S
C450 C451 1.363 . S
C450 H453 0.929 . S
C451 C450 1.363 . S
C451 C457 1.428 . S
H452 C448 0.930 . S
H453 C450 0.929 . S
S454 N455 1.613 . S
S454 N456 1.610 . S
N455 S454 1.613 . S
N455 C458 1.350 . S
N456 S454 1.610 . S
N456 C457 1.351 . S
C457 C451 1.428 . S
C457 N456 1.351 . S
C457 C458 1.434 . S
C458 C449 1.429 . S
C458 N455 1.350 . S
C458 C457 1.434 . S
C459 C460 1.369 . S
C459 C461 1.419 . S
C459 H463 0.930 . S
C460 C459 1.369 . S
C460 C469 1.429 . S
C461 C459 1.419 . S
C461 C462 1.363 . S
C461 H464 0.929 . S
C462 C461 1.363 . S
C462 C468 1.428 . S
H463 C459 0.930 . S
H464 C461 0.929 . S
S465 N466 1.613 . S
S465 N467 1.610 . S
N466 S465 1.613 . S
N466 C469 1.350 . S
N467 S465 1.610 . S
N467 C468 1.351 . S
C468 C462 1.428 . S
C468 N467 1.351 . S
C468 C469 1.434 . S
C469 C460 1.429 . S
C469 N466 1.350 . S
C469 C468 1.434 . S
C470 C471 1.369 . S
C470 C472 1.419 . S
C470 H474 0.930 . S
C471 C470 1.369 . S
C471 C480 1.429 . S
C472 C470 1.419 . S
C472 C473 1.363 . S
C472 H475 0.929 . S
C473 C472 1.363 . S
C473 C479 1.428 . S
H474 C470 0.930 . S
H475 C472 0.929 . S
S476 N477 1.613 . S
S476 N478 1.610 . S
N477 S476 1.613 . S
N477 C480 1.350 . S
N478 S476 1.610 . S
N478 C479 1.351 . S
C479 C473 1.428 . S
C479 N478 1.351 . S
C479 C480 1.434 . S
C480 C471 1.429 . S
C480 N477 1.350 . S
C480 C479 1.434 . S
C481 C482 1.369 . S
C481 C483 1.419 1_545 S
C481 H485 0.930 . S
C482 C481 1.369 . S
C482 C491 1.429 1_545 S
C483 C481 1.419 1_565 S
C483 C484 1.363 . S
C483 H486 0.929 . S
C484 C483 1.363 . S
C484 C490 1.428 . S
H485 C481 0.930 . S
H486 C483 0.929 . S
S487 N488 1.613 1_556 S
S487 N489 1.610 1_556 S
N488 S487 1.613 1_554 S
N488 C491 1.350 . S
N489 S487 1.610 1_554 S
N489 C490 1.351 . S
C490 C484 1.428 . S
C490 N489 1.351 . S
C490 C491 1.434 . S
C491 C482 1.429 1_565 S
C491 N488 1.350 . S
C491 C490 1.434 . S
C492 C493 1.369 . S
C492 C494 1.419 1_554 S
C492 H496 0.930 . S
C493 C492 1.369 . S
C493 C502 1.429 1_554 S
C494 C492 1.419 1_556 S
C494 C495 1.363 . S
C494 H497 0.929 . S
C495 C494 1.363 . S
C495 C501 1.428 . S
H496 C492 0.930 . S
H497 C494 0.929 . S
S498 N499 1.613 . S
S498 N500 1.610 . S
N499 S498 1.613 . S
N499 C502 1.350 . S
N500 S498 1.610 . S
N500 C501 1.351 . S
C501 C495 1.428 . S
C501 N500 1.351 . S
C501 C502 1.434 . S
C502 C493 1.429 1_556 S
C502 N499 1.350 . S
C502 C501 1.434 . S
C503 C504 1.369 . S
C503 C505 1.419 1_655 S
C503 H507 0.930 1_655 S
C504 C503 1.369 . S
C504 C513 1.429 . S
C505 C503 1.419 1_455 S
C505 C506 1.363 . S
C505 H508 0.929 . S
C506 C505 1.363 . S
C506 C512 1.428 1_455 S
H507 C503 0.930 1_455 S
H508 C505 0.929 . S
S509 N510 1.613 . S
S509 N511 1.610 . S
N510 S509 1.613 . S
N510 C513 1.350 . S
N511 S509 1.610 . S
N511 C512 1.351 . S
C512 C506 1.428 1_655 S
C512 N511 1.351 . S
C512 C513 1.434 . S
C513 C504 1.429 . S
C513 N510 1.350 . S
C513 C512 1.434 . S
C514 C515 1.369 . S
C514 C516 1.419 . S
C514 H518 0.930 . S
C515 C514 1.369 . S
C515 C524 1.429 . S
C516 C514 1.419 . S
C516 C517 1.363 1_556 S
C516 H519 0.929 . S
C517 C516 1.363 1_554 S
C517 C523 1.428 . S
H518 C514 0.930 . S
H519 C516 0.929 . S
S520 N521 1.613 1_554 S
S520 N522 1.610 . S
N521 S520 1.613 1_556 S
N521 C524 1.350 . S
N522 S520 1.610 . S
N522 C523 1.351 . S
C523 C517 1.428 . S
C523 N522 1.351 . S
C523 C524 1.434 1_554 S
C524 C515 1.429 . S
C524 N521 1.350 . S
C524 C523 1.434 1_556 S
C525 C526 1.369 . S
C525 C527 1.419 . S
C525 H529 0.930 . S
C526 C525 1.369 . S
C526 C535 1.429 . S
C527 C525 1.419 . S
C527 C528 1.363 . S
C527 H530 0.929 . S
C528 C527 1.363 . S
C528 C534 1.428 . S
H529 C525 0.930 . S
H530 C527 0.929 . S
S531 N532 1.613 1_455 S
S531 N533 1.610 . S
N532 S531 1.613 1_655 S
N532 C535 1.350 . S
N533 S531 1.610 . S
N533 C534 1.351 1_455 S
C534 C528 1.428 . S
C534 N533 1.351 1_655 S
C534 C535 1.434 . S
C535 C526 1.429 . S
C535 N532 1.350 . S
C535 C534 1.434 . S
C536 C537 1.369 . S
C536 C538 1.419 . S
C536 H540 0.930 . S
C537 C536 1.369 . S
C537 C546 1.429 1_556 S
C538 C536 1.419 . S
C538 C539 1.363 . S
C538 H541 0.929 . S
C539 C538 1.363 . S
C539 C545 1.428 . S
H540 C536 0.930 . S
H541 C538 0.929 . S
S542 N543 1.613 . S
S542 N544 1.610 1_554 S
N543 S542 1.613 . S
N543 C546 1.350 . S
N544 S542 1.610 1_556 S
N544 C545 1.351 . S
C545 C539 1.428 . S
C545 N544 1.351 . S
C545 C546 1.434 1_556 S
C546 C537 1.429 1_554 S
C546 N543 1.350 . S
C546 C545 1.434 1_554 S
C547 C548 1.369 . S
C547 C549 1.419 . S
C547 H551 0.930 . S
C548 C547 1.369 . S
C548 C557 1.429 . S
C549 C547 1.419 . S
C549 C550 1.363 1_556 S
C549 H552 0.929 . S
C550 C549 1.363 1_554 S
C550 C556 1.428 . S
H551 C547 0.930 . S
H552 C549 0.929 . S
S553 N554 1.613 1_554 S
S553 N555 1.610 . S
N554 S553 1.613 1_556 S
N554 C557 1.350 . S
N555 S553 1.610 . S
N555 C556 1.351 . S
C556 C550 1.428 . S
C556 N555 1.351 . S
C556 C557 1.434 1_554 S
C557 C548 1.429 . S
C557 N554 1.350 . S
C557 C556 1.434 1_556 S
C558 C559 1.369 . S
C558 C560 1.419 . S
C558 H562 0.930 . S
C559 C558 1.369 . S
C559 C568 1.429 . S
C560 C558 1.419 . S
C560 C561 1.363 . S
C560 H563 0.929 1_545 S
C561 C560 1.363 . S
C561 C567 1.428 . S
H562 C558 0.930 . S
H563 C560 0.929 1_565 S
S564 N565 1.613 . S
S564 N566 1.610 . S
N565 S564 1.613 . S
N565 C568 1.350 . S
N566 S564 1.610 . S
N566 C567 1.351 . S
C567 C561 1.428 . S
C567 N566 1.351 . S
C567 C568 1.434 . S
C568 C559 1.429 . S
C568 N565 1.350 . S
C568 C567 1.434 . S
C569 C570 1.369 . S
C569 C571 1.419 . S
C569 H573 0.930 . S
C570 C569 1.369 . S
C570 C579 1.429 . S
C571 C569 1.419 . S
C571 C572 1.363 . S
C571 H574 0.929 . S
C572 C571 1.363 . S
C572 C578 1.428 . S
H573 C569 0.930 . S
H574 C571 0.929 . S
S575 N576 1.613 . S
S575 N577 1.610 . S
N576 S575 1.613 . S
N576 C579 1.350 1_556 S
N577 S575 1.610 . S
N577 C578 1.351 1_556 S
C578 C572 1.428 . S
C578 N577 1.351 1_554 S
C578 C579 1.434 . S
C579 C570 1.429 . S
C579 N576 1.350 1_554 S
C579 C578 1.434 . S
C580 C581 1.369 . S
C580 C582 1.419 . S
C580 H584 0.930 . S
C581 C580 1.369 . S
C581 C590 1.429 . S
C582 C580 1.419 . S
C582 C583 1.363 . S
C582 H585 0.929 . S
C583 C582 1.363 . S
C583 C589 1.428 . S
H584 C580 0.930 . S
H585 C582 0.929 . S
S586 N587 1.613 . S
S586 N588 1.610 . S
N587 S586 1.613 . S
N587 C590 1.350 . S
N588 S586 1.610 . S
N588 C589 1.351 . S
C589 C583 1.428 . S
C589 N588 1.351 . S
C589 C590 1.434 . S
C590 C581 1.429 . S
C590 N587 1.350 . S
C590 C589 1.434 . S
C591 C592 1.369 . S
C591 C593 1.419 . S
C591 H595 0.930 . S
C592 C591 1.369 . S
C592 C601 1.429 . S
C593 C591 1.419 . S
C593 C594 1.363 . S
C593 H596 0.929 . S
C594 C593 1.363 . S
C594 C600 1.428 . S
H595 C591 0.930 . S
H596 C593 0.929 . S
S597 N598 1.613 . S
S597 N599 1.610 . S
N598 S597 1.613 . S
N598 C601 1.350 . S
N599 S597 1.610 . S
N599 C600 1.351 . S
C600 C594 1.428 . S
C600 N599 1.351 . S
C600 C601 1.434 . S
C601 C592 1.429 . S
C601 N598 1.350 . S
C601 C600 1.434 . S
C602 C603 1.369 . S
C602 C604 1.419 . S
C602 H606 0.930 . S
C603 C602 1.369 . S
C603 C612 1.429 . S
C604 C602 1.419 . S
C604 C605 1.363 1_545 S
C604 H607 0.929 . S
C605 C604 1.363 1_565 S
C605 C611 1.428 . S
H606 C602 0.930 . S
H607 C604 0.929 . S
S608 N609 1.613 1_565 S
S608 N610 1.610 . S
N609 S608 1.613 1_545 S
N609 C612 1.350 . S
N610 S608 1.610 . S
N610 C611 1.351 . S
C611 C605 1.428 . S
C611 N610 1.351 . S
C611 C612 1.434 1_565 S
C612 C603 1.429 . S
C612 N609 1.350 . S
C612 C611 1.434 1_545 S
C613 C614 1.369 . S
C613 C615 1.419 . S
C613 H617 0.930 . S
C614 C613 1.369 . S
C614 C623 1.429 1_655 S
C615 C613 1.419 . S
C615 C616 1.363 1_655 S
C615 H618 0.929 . S
C616 C615 1.363 1_455 S
C616 C622 1.428 . S
H617 C613 0.930 . S
H618 C615 0.929 . S
S619 N620 1.613 . S
S619 N621 1.610 . S
N620 S619 1.613 . S
N620 C623 1.350 . S
N621 S619 1.610 . S
N621 C622 1.351 . S
C622 C616 1.428 . S
C622 N621 1.351 . S
C622 C623 1.434 . S
C623 C614 1.429 1_455 S
C623 N620 1.350 . S
C623 C622 1.434 . S
C624 C625 1.369 . S
C624 C626 1.419 . S
C624 H628 0.930 . S
C625 C624 1.369 . S
C625 C634 1.429 . S
C626 C624 1.419 . S
C626 C627 1.363 . S
C626 H629 0.929 . S
C627 C626 1.363 . S
C627 C633 1.428 . S
H628 C624 0.930 . S
H629 C626 0.929 . S
S630 N631 1.613 . S
S630 N632 1.610 . S
N631 S630 1.613 . S
N631 C634 1.350 . S
N632 S630 1.610 . S
N632 C633 1.351 . S
C633 C627 1.428 . S
C633 N632 1.351 . S
C633 C634 1.434 . S
C634 C625 1.429 . S
C634 N631 1.350 . S
C634 C633 1.434 . S
C635 C636 1.369 . S
C635 C637 1.419 1_565 S
C635 H639 0.930 . S
C636 C635 1.369 . S
C636 C645 1.429 1_565 S
C637 C635 1.419 1_545 S
C637 C638 1.363 . S
C637 H640 0.929 . S
C638 C637 1.363 . S
C638 C644 1.428 . S
H639 C635 0.930 . S
H640 C637 0.929 . S
S641 N642 1.613 . S
S641 N643 1.610 . S
N642 S641 1.613 . S
N642 C645 1.350 . S
N643 S641 1.610 . S
N643 C644 1.351 . S
C644 C638 1.428 . S
C644 N643 1.351 . S
C644 C645 1.434 . S
C645 C636 1.429 1_545 S
C645 N642 1.350 . S
C645 C644 1.434 . S
C646 C647 1.369 1_455 S
C646 C648 1.419 . S
C646 H650 0.930 . S
C647 C646 1.369 1_655 S
C647 C656 1.429 . S
C648 C646 1.419 . S
C648 C649 1.363 . S
C648 H651 0.929 . S
C649 C648 1.363 . S
C649 C655 1.428 1_455 S
H650 C646 0.930 . S
H651 C648 0.929 . S
S652 N653 1.613 . S
S652 N654 1.610 . S
N653 S652 1.613 . S
N653 C656 1.350 . S
N654 S652 1.610 . S
N654 C655 1.351 . S
C655 C649 1.428 1_655 S
C655 N654 1.351 . S
C655 C656 1.434 . S
C656 C647 1.429 . S
C656 N653 1.350 . S
C656 C655 1.434 . S
C361 C2 3.647 . S
C363 C15 3.648 . S
C372 C55 3.729 . S
C374 C42 3.728 . S
C383 C82 3.762 . S
C385 C95 3.763 . S
C394 C135 3.648 . S
C396 C122 3.647 1_556 S
C405 C162 3.728 . S
C407 C175 3.729 1_556 S
C416 C215 3.762 . S
C418 C202 3.763 1_556 S
C427 C249 0.287 . S
C429 C266 0.258 . S
C438 C306 0.425 . S
C440 C289 0.410 . S
C449 C329 0.562 . S
C451 C346 0.539 . S
C460 C222 1.575 . S
C462 C9 1.562 . S
C471 C62 2.591 . S
C473 C142 2.624 . S
C482 C89 1.099 . S
C484 C169 1.115 . S
C493 C102 3.156 . S
C495 C243 3.221 . S
C504 C295 1.423 . S
C506 C22 1.374 . S
C515 C323 2.032 . S
C517 C49 1.901 . S
C526 C322 1.120 . S
C528 C26 1.033 . S
C537 C43 2.448 1_556 S
C539 C242 2.452 . S
C548 C302 2.949 . S
C550 C106 2.817 . S
C559 C83 1.576 . S
C561 C146 1.565 . S
C570 C163 2.593 . S
C572 C3 2.624 . S
C581 C66 1.116 . S
C583 C226 1.092 . S
C592 C335 1.121 . S
C594 C129 1.027 . S
C603 C255 2.452 . S
C605 C182 2.443 . S
C614 C283 2.949 . S
C616 C209 2.817 . S
C625 C262 3.222 . S
C627 C203 3.154 . S
C636 C123 1.378 . S
C638 C282 1.424 . S
C647 C342 2.032 . S
C649 C186 1.901 . S
