# Generated by pormake.
# Topology lcy-a, (4)-cn, num edge types: 1
# Building blocks:
#     Node 0, Type 0, BuildingBlock: CEKHIL_clean_sbu_0, # of connection points: 4
#     Node 1, Type 0, BuildingBlock: CEKHIL_clean_sbu_0, # of connection points: 4
#     Node 2, Type 0, BuildingBlock: CEKHIL_clean_sbu_0, # of connection points: 4
#     Node 3, Type 0, BuildingBlock: CEKHIL_clean_sbu_0, # of connection points: 4
#     Node 4, Type 0, BuildingBlock: CEKHIL_clean_sbu_0, # of connection points: 4
#     Node 5, Type 0, BuildingBlock: CEKHIL_clean_sbu_0, # of connection points: 4
#     Node 6, Type 0, BuildingBlock: CEKHIL_clean_sbu_0, # of connection points: 4
#     Node 7, Type 0, BuildingBlock: CEKHIL_clean_sbu_0, # of connection points: 4
#     Node 8, Type 0, BuildingBlock: CEKHIL_clean_sbu_0, # of connection points: 4
#     Node 9, Type 0, BuildingBlock: CEKHIL_clean_sbu_0, # of connection points: 4
#     Node 10, Type 0, BuildingBlock: CEKHIL_clean_sbu_0, # of connection points: 4
#     Node 11, Type 0, BuildingBlock: CEKHIL_clean_sbu_0, # of connection points: 4
#     Node 12, Type 0, BuildingBlock: CEKHIL_clean_sbu_0, # of connection points: 4
#     Node 13, Type 0, BuildingBlock: CEKHIL_clean_sbu_0, # of connection points: 4
#     Node 14, Type 0, BuildingBlock: CEKHIL_clean_sbu_0, # of connection points: 4
#     Node 15, Type 0, BuildingBlock: CEKHIL_clean_sbu_0, # of connection points: 4
#     Node 16, Type 0, BuildingBlock: CEKHIL_clean_sbu_0, # of connection points: 4
#     Node 17, Type 0, BuildingBlock: CEKHIL_clean_sbu_0, # of connection points: 4
#     Node 18, Type 0, BuildingBlock: CEKHIL_clean_sbu_0, # of connection points: 4
#     Node 19, Type 0, BuildingBlock: CEKHIL_clean_sbu_0, # of connection points: 4
#     Node 20, Type 0, BuildingBlock: CEKHIL_clean_sbu_0, # of connection points: 4
#     Node 21, Type 0, BuildingBlock: CEKHIL_clean_sbu_0, # of connection points: 4
#     Node 22, Type 0, BuildingBlock: CEKHIL_clean_sbu_0, # of connection points: 4
#     Node 23, Type 0, BuildingBlock: CEKHIL_clean_sbu_0, # of connection points: 4
#     Edge 24, Type (0, 0), BuildingBlock: KIFKEQ_clean_linker_1, # of connection points: 2
#     Edge 25, Type (0, 0), BuildingBlock: KIFKEQ_clean_linker_1, # of connection points: 2
#     Edge 26, Type (0, 0), BuildingBlock: KIFKEQ_clean_linker_1, # of connection points: 2
#     Edge 27, Type (0, 0), BuildingBlock: KIFKEQ_clean_linker_1, # of connection points: 2
#     Edge 28, Type (0, 0), BuildingBlock: KIFKEQ_clean_linker_1, # of connection points: 2
#     Edge 29, Type (0, 0), BuildingBlock: KIFKEQ_clean_linker_1, # of connection points: 2
#     Edge 30, Type (0, 0), BuildingBlock: KIFKEQ_clean_linker_1, # of connection points: 2
#     Edge 31, Type (0, 0), BuildingBlock: KIFKEQ_clean_linker_1, # of connection points: 2
#     Edge 32, Type (0, 0), BuildingBlock: KIFKEQ_clean_linker_1, # of connection points: 2
#     Edge 33, Type (0, 0), BuildingBlock: KIFKEQ_clean_linker_1, # of connection points: 2
#     Edge 34, Type (0, 0), BuildingBlock: KIFKEQ_clean_linker_1, # of connection points: 2
#     Edge 35, Type (0, 0), BuildingBlock: KIFKEQ_clean_linker_1, # of connection points: 2
#     Edge 36, Type (0, 0), BuildingBlock: KIFKEQ_clean_linker_1, # of connection points: 2
#     Edge 37, Type (0, 0), BuildingBlock: KIFKEQ_clean_linker_1, # of connection points: 2
#     Edge 38, Type (0, 0), BuildingBlock: KIFKEQ_clean_linker_1, # of connection points: 2
#     Edge 39, Type (0, 0), BuildingBlock: KIFKEQ_clean_linker_1, # of connection points: 2
#     Edge 40, Type (0, 0), BuildingBlock: KIFKEQ_clean_linker_1, # of connection points: 2
#     Edge 41, Type (0, 0), BuildingBlock: KIFKEQ_clean_linker_1, # of connection points: 2
#     Edge 42, Type (0, 0), BuildingBlock: KIFKEQ_clean_linker_1, # of connection points: 2
#     Edge 43, Type (0, 0), BuildingBlock: KIFKEQ_clean_linker_1, # of connection points: 2
#     Edge 44, Type (0, 0), BuildingBlock: KIFKEQ_clean_linker_1, # of connection points: 2
#     Edge 45, Type (0, 0), BuildingBlock: KIFKEQ_clean_linker_1, # of connection points: 2
#     Edge 46, Type (0, 0), BuildingBlock: KIFKEQ_clean_linker_1, # of connection points: 2
#     Edge 47, Type (0, 0), BuildingBlock: KIFKEQ_clean_linker_1, # of connection points: 2
#     Edge 48, Type (0, 0), BuildingBlock: KIFKEQ_clean_linker_1, # of connection points: 2
#     Edge 49, Type (0, 0), BuildingBlock: KIFKEQ_clean_linker_1, # of connection points: 2
#     Edge 50, Type (0, 0), BuildingBlock: KIFKEQ_clean_linker_1, # of connection points: 2
#     Edge 51, Type (0, 0), BuildingBlock: KIFKEQ_clean_linker_1, # of connection points: 2
#     Edge 52, Type (0, 0), BuildingBlock: KIFKEQ_clean_linker_1, # of connection points: 2
#     Edge 53, Type (0, 0), BuildingBlock: KIFKEQ_clean_linker_1, # of connection points: 2
#     Edge 54, Type (0, 0), BuildingBlock: KIFKEQ_clean_linker_1, # of connection points: 2
#     Edge 55, Type (0, 0), BuildingBlock: KIFKEQ_clean_linker_1, # of connection points: 2
#     Edge 56, Type (0, 0), BuildingBlock: KIFKEQ_clean_linker_1, # of connection points: 2
#     Edge 57, Type (0, 0), BuildingBlock: KIFKEQ_clean_linker_1, # of connection points: 2
#     Edge 58, Type (0, 0), BuildingBlock: KIFKEQ_clean_linker_1, # of connection points: 2
#     Edge 59, Type (0, 0), BuildingBlock: KIFKEQ_clean_linker_1, # of connection points: 2
#     Edge 60, Type (0, 0), BuildingBlock: KIFKEQ_clean_linker_1, # of connection points: 2
#     Edge 61, Type (0, 0), BuildingBlock: KIFKEQ_clean_linker_1, # of connection points: 2
#     Edge 62, Type (0, 0), BuildingBlock: KIFKEQ_clean_linker_1, # of connection points: 2
#     Edge 63, Type (0, 0), BuildingBlock: KIFKEQ_clean_linker_1, # of connection points: 2
#     Edge 64, Type (0, 0), BuildingBlock: KIFKEQ_clean_linker_1, # of connection points: 2
#     Edge 65, Type (0, 0), BuildingBlock: KIFKEQ_clean_linker_1, # of connection points: 2
#     Edge 66, Type (0, 0), BuildingBlock: KIFKEQ_clean_linker_1, # of connection points: 2
#     Edge 67, Type (0, 0), BuildingBlock: KIFKEQ_clean_linker_1, # of connection points: 2
#     Edge 68, Type (0, 0), BuildingBlock: KIFKEQ_clean_linker_1, # of connection points: 2
#     Edge 69, Type (0, 0), BuildingBlock: KIFKEQ_clean_linker_1, # of connection points: 2
#     Edge 70, Type (0, 0), BuildingBlock: KIFKEQ_clean_linker_1, # of connection points: 2
#     Edge 71, Type (0, 0), BuildingBlock: KIFKEQ_clean_linker_1, # of connection points: 2
# Relax obj value: 0.422
# Max RMSD: 0.178
# Mean RMSD: 0.178
data_MOF--net-lcy-a--node1-CEKHIL_clean_sbu_0--edge1-KIFKEQ_clean_linker_1
_symmetry_space_group_name_H-M    P1
_symmetry_Int_Tables_number       1
_symmetry_cell_setting            triclinic
loop_
_symmetry_equiv_pos_as_xyz
'x, y, z'
_cell_length_a     56.753912
_cell_length_b     56.836486
_cell_length_c     56.828604
_cell_angle_alpha  90.011696
_cell_angle_beta   90.034872
_cell_angle_gamma 90.012068
loop_
_atom_site_label
_atom_site_type_symbol
_atom_site_fract_x
_atom_site_fract_y
_atom_site_fract_z
_atom_type_partial_charge
Co0 Co 0.22101 0.25654 0.4089 0.0
O1 O 0.21388 0.24359 0.43935 0.0
O2 O 0.19101 0.26819 0.41942 0.0
C3 C 0.23304 0.2227 0.39191 0.0
O4 O 0.22122 0.27262 0.37694 0.0
Co5 Co 0.27105 0.25513 0.3868 0.0
O6 O 0.25459 0.26446 0.35741 0.0
C7 C 0.25919 0.29151 0.4223 0.0
C8 C 0.19425 0.25531 0.43804 0.0
C9 C 0.23382 0.27297 0.35815 0.0
O10 O 0.23772 0.28428 0.42371 0.0
O11 O 0.27499 0.28141 0.40981 0.0
O12 O 0.21068 0.22746 0.39336 0.0
O13 O 0.24682 0.23722 0.40256 0.0
Co14 Co 0.97929 0.97216 0.65654 0.0
O15 O 0.9916 0.96445 0.6872 0.0
O16 O 0.9678 0.94186 0.666 0.0
C17 C 0.01359 0.98472 0.64074 0.0
O18 O 0.96373 0.97276 0.62439 0.0
Co19 Co 0.98043 0.02221 0.63498 0.0
O20 O 0.97281 0.00592 0.60493 0.0
C21 C 0.94429 0.00996 0.67075 0.0
C22 C 0.98025 0.94469 0.68497 0.0
C23 C 0.96424 0.98523 0.60556 0.0
O24 O 0.95116 0.98835 0.67107 0.0
O25 O 0.95473 0.02603 0.65886 0.0
O26 O 0.00882 0.96237 0.64153 0.0
O27 O -0.00142 -0.00172 0.65104 0.0
Co28 Co 0.27193 0.73037 0.90207 0.0
O29 O 0.27996 0.745 0.93156 0.0
O30 O 0.30349 0.72177 0.91077 0.0
C31 C 0.25615 0.76242 0.88478 0.0
O32 O 0.27081 0.71294 0.87087 0.0
Co33 Co 0.22071 0.72677 0.88327 0.0
O34 O 0.2364 0.72015 0.85268 0.0
C35 C 0.23765 0.69331 0.91973 0.0
C36 C 0.30044 0.73505 0.92914 0.0
C37 C 0.25751 0.71256 0.85258 0.0
O38 O 0.25858 0.70208 0.91897 0.0
O39 O 0.22026 0.70165 0.90802 0.0
O40 O 0.27886 0.75947 0.88494 0.0
O41 O 0.24422 0.74731 0.89679 0.0
Co42 Co 0.51418 0.0267 0.1631 0.0
O43 O 0.49971 0.03601 0.1922 0.0
O44 O 0.52338 0.05836 0.17051 0.0
C45 C 0.48235 0.01058 0.14587 0.0
O46 O 0.53155 0.02394 0.13206 0.0
Co47 Co 0.51779 0.97434 0.14821 0.0
O48 O 0.52716 0.98762 0.11715 0.0
C49 C 0.54869 0.99272 0.18561 0.0
C50 C 0.51036 0.05604 0.18918 0.0
C51 C 0.53374 0.00899 0.11523 0.0
O52 O 0.54214 0.01385 0.18081 0.0
O53 O 0.53941 0.97448 0.17617 0.0
O54 O 0.48532 0.03326 0.14544 0.0
O55 O 0.49696 -0.00093 0.15891 0.0
Co56 Co 0.72124 0.22573 0.5887 0.0
O57 O 0.71363 0.23855 0.55822 0.0
O58 O 0.69036 0.21551 0.57947 0.0
C59 C 0.73526 0.25928 0.6047 0.0
O60 O 0.72157 0.21004 0.62078 0.0
Co61 Co 0.7714 0.22501 0.61027 0.0
O62 O 0.75449 0.21959 0.64048 0.0
C63 C 0.75765 0.1893 0.57449 0.0
C64 C 0.69339 0.2281 0.56064 0.0
C65 C 0.7337 0.21119 0.63983 0.0
O66 O 0.73633 0.19712 0.57384 0.0
O67 O 0.77403 0.19896 0.58665 0.0
O68 O 0.71269 0.25547 0.60398 0.0
O69 O 0.74814 0.24389 0.59413 0.0
Co70 Co 0.01363 0.46843 0.82984 0.0
O71 O -0.00012 0.45859 0.80052 0.0
O72 O 0.02385 0.43703 0.82265 0.0
C73 C 0.98112 0.48355 0.84665 0.0
O74 O 0.03031 0.47175 0.86126 0.0
Co75 Co 0.0155 0.52091 0.84452 0.0
O76 O 0.02465 0.50804 0.87582 0.0
C77 C 0.04745 0.5034 0.80771 0.0
C78 C 0.01098 0.43886 0.80382 0.0
C79 C 0.03167 0.48684 0.87807 0.0
O80 O 0.04149 0.4821 0.81256 0.0
O81 O 0.03747 0.5214 0.81689 0.0
O82 O 0.98472 0.46096 0.847 0.0
O83 O 0.99548 0.49551 0.83374 0.0
Co84 Co 0.7686 0.75664 0.0794 0.0
O85 O 0.77833 0.74183 0.05054 0.0
O86 O 0.80096 0.7641 0.07341 0.0
C87 C 0.74994 0.72591 0.0959 0.0
O88 O 0.7658 0.77392 0.11042 0.0
Co89 Co 0.71608 0.76348 0.09255 0.0
O90 O 0.72878 0.77203 0.12413 0.0
C91 C 0.73763 0.79342 0.05616 0.0
C92 C 0.79878 0.75138 0.05454 0.0
C93 C 0.75052 0.77711 0.12676 0.0
O94 O 0.75813 0.7854 0.0615 0.0
O95 O 0.71849 0.78532 0.06491 0.0
O96 O 0.77278 0.72741 0.09705 0.0
O97 O 0.73979 0.74114 0.08247 0.0
Co98 Co 0.48179 0.51775 0.33398 0.0
O99 O 0.49707 0.52595 0.30491 0.0
O100 O 0.47219 0.54872 0.32469 0.0
C101 C 0.5133 0.50297 0.3529 0.0
O102 O 0.46379 0.51657 0.3647 0.0
Co103 Co 0.47804 0.46637 0.35163 0.0
O104 O 0.46902 0.48148 0.38198 0.0
C105 C 0.4474 0.48238 0.31301 0.0
C106 C 0.48594 0.54587 0.30663 0.0
C107 C 0.46216 0.50284 0.38257 0.0
O108 O 0.45437 0.50367 0.3163 0.0
O109 O 0.45622 0.46471 0.32387 0.0
O110 O 0.51009 0.52561 0.352 0.0
O111 O 0.49917 0.49057 0.34012 0.0
Co112 Co 0.40794 0.21865 0.26979 0.0
O113 O 0.43789 0.21071 0.25612 0.0
O114 O 0.4164 0.18726 0.27884 0.0
C115 C 0.39099 0.23432 0.23764 0.0
O116 O 0.3761 0.21968 0.28596 0.0
Co117 Co 0.39057 0.27014 0.27367 0.0
O118 O 0.35963 0.2552 0.28081 0.0
C119 C 0.42809 0.25323 0.30521 0.0
C120 C 0.43528 0.19039 0.26631 0.0
C121 C 0.35834 0.23366 0.28699 0.0
O122 O 0.42428 0.23196 0.29841 0.0
O123 O 0.41803 0.27113 0.29591 0.0
O124 O 0.39153 0.21161 0.24035 0.0
O125 O 0.40303 0.24627 0.25276 0.0
Co126 Co 0.0264 0.15972 0.51322 0.0
O127 O 0.03443 0.18894 0.49817 0.0
O128 O 0.05639 0.17057 0.52472 0.0
C129 C 0.01479 0.14073 0.48028 0.0
O130 O 0.02513 0.12917 0.53177 0.0
Co131 Co 0.97601 0.13866 0.51252 0.0
O132 O 0.992 0.10932 0.52306 0.0
C133 C 0.98746 0.17791 0.54501 0.0
C134 C 0.0538 0.18818 0.51037 0.0
C135 C 0.01243 0.11047 0.53227 0.0
O136 O 0.00939 0.17692 0.53924 0.0
O137 O 0.9715 0.16543 0.53507 0.0
O138 O 0.03704 0.14189 0.48562 0.0
O139 O 0.00086 0.15246 0.49379 0.0
Co140 Co 0.08048 0.77725 0.75898 0.0
O141 O 0.05075 0.78726 0.74612 0.0
O142 O 0.07404 0.80892 0.76886 0.0
C143 C 0.09584 0.76124 0.72617 0.0
O144 O 0.11244 0.77393 0.77462 0.0
Co145 Co 0.09513 0.72472 0.76118 0.0
O146 O 0.12684 0.73758 0.76902 0.0
C147 C 0.05924 0.74295 0.79389 0.0
C148 C 0.05471 0.80715 0.75672 0.0
C149 C 0.12931 0.75888 0.77567 0.0
O150 O 0.06403 0.76419 0.78764 0.0
O151 O 0.06802 0.72481 0.78382 0.0
O152 O 0.09672 0.78389 0.72933 0.0
O153 O 0.08341 0.74976 0.74128 0.0
Co154 Co 0.46633 0.83843 0.01194 0.0
O155 O 0.45665 0.81029 0.99587 0.0
O156 O 0.43367 0.83229 0.01857 0.0
C157 C 0.48549 0.85586 0.982 0.0
O158 O 0.4695 0.8688 0.03046 0.0
Co159 Co 0.51924 0.85011 0.01951 0.0
O160 O 0.50691 0.88162 0.02866 0.0
C161 C 0.49672 0.8131 0.04792 0.0
C162 C 0.43604 0.81394 0.00512 0.0
C163 C 0.48527 0.88467 0.03391 0.0
O164 O 0.47633 0.81927 0.04015 0.0
O165 O 0.51607 0.82166 0.04013 0.0
O166 O 0.46267 0.8573 0.98337 0.0
O167 O 0.49529 0.84171 -0.00321 0.0
Co168 Co 0.90831 0.27363 0.73212 0.0
O169 O 0.93853 0.28248 0.74464 0.0
O170 O 0.917 0.30399 0.72011 0.0
C171 C 0.89183 0.26134 0.76606 0.0
O172 O 0.87625 0.27138 0.71634 0.0
Co173 Co 0.89008 0.2223 0.73369 0.0
O174 O 0.85963 0.23627 0.72351 0.0
C175 C 0.92605 0.23575 0.69865 0.0
C176 C 0.93599 0.30182 0.73271 0.0
C177 C 0.85859 0.25722 0.71557 0.0
O178 O 0.92402 0.25752 0.7046 0.0
O179 O 0.91547 0.21904 0.70945 0.0
O180 O 0.89239 0.28362 0.76099 0.0
O181 O 0.90339 0.24784 0.75192 0.0
Co182 Co 0.96894 0.65521 0.97848 0.0
O183 O 0.9588 0.68426 0.99255 0.0
O184 O 0.93722 0.66176 0.96892 0.0
C185 C 0.98519 0.63877 0.01062 0.0
O186 O 0.97221 0.62403 0.96156 0.0
Co187 Co 0.02141 0.64066 0.97527 0.0
O188 O 0.00853 0.60926 0.96645 0.0
C189 C 0.00292 0.67771 0.94399 0.0
C190 C 0.93889 0.68055 0.98183 0.0
C191 C 0.98716 0.60717 0.9598 0.0
O192 O 0.98175 0.67287 0.95048 0.0
O193 O 0.02119 0.66835 0.95335 0.0
O194 O 0.96251 0.63781 0.00748 0.0
O195 O 0.99659 0.65172 0.99587 0.0
Co196 Co 0.57721 0.71895 0.23121 0.0
O197 O 0.54949 0.70896 0.24786 0.0
O198 O 0.5693 0.68747 0.22191 0.0
C199 C 0.59682 0.73474 0.26179 0.0
O200 O 0.60683 0.72217 0.21162 0.0
Co201 Co 0.5915 0.77139 0.2271 0.0
O202 O 0.62215 0.75831 0.21604 0.0
C203 C 0.55235 0.75313 0.19835 0.0
C204 C 0.5518 0.6892 0.23654 0.0
C205 C 0.62363 0.73707 0.20893 0.0
O206 O 0.5573 0.73203 0.20488 0.0
O207 O 0.56252 0.77137 0.20683 0.0
O208 O 0.59714 0.7121 0.25845 0.0
O209 O 0.58257 0.74638 0.24846 0.0
Co210 Co 0.52672 0.33482 0.4892 0.0
O211 O 0.53657 0.30561 0.50322 0.0
O212 O 0.55838 0.32773 0.47952 0.0
C213 C 0.51091 0.3518 0.52133 0.0
O214 O 0.52346 0.36606 0.47226 0.0
Co215 Co 0.4741 0.34934 0.48653 0.0
O216 O 0.48699 0.38055 0.47712 0.0
C217 C 0.49222 0.31246 0.45496 0.0
C218 C 0.55646 0.30892 0.49237 0.0
C219 C 0.50831 0.38276 0.47037 0.0
O220 O 0.51348 0.31732 0.46121 0.0
O221 O 0.47406 0.32162 0.46467 0.0
O222 O 0.5336 0.35224 0.51812 0.0
O223 O 0.49928 0.33871 0.50687 0.0
Co224 Co 0.25828 0.40458 0.2206 0.0
O225 O 0.24503 0.43408 0.21056 0.0
O226 O 0.26747 0.41072 0.18869 0.0
C227 C 0.2259 0.38908 0.23739 0.0
O228 O 0.27422 0.37285 0.22394 0.0
Co229 Co 0.26173 0.39063 0.27325 0.0
O230 O 0.26964 0.3589 0.2606 0.0
C231 C 0.29446 0.42584 0.25378 0.0
C232 C 0.25521 0.42995 0.19049 0.0
C233 C 0.27589 0.35626 0.23921 0.0
O234 O 0.28726 0.42119 0.2328 0.0
O235 O 0.28497 0.41723 0.27231 0.0
O236 O 0.22857 0.38817 0.21468 0.0
O237 O 0.24114 0.40176 0.24849 0.0
Co238 Co 0.76188 0.08777 0.77534 0.0
O239 O 0.74791 0.0583 0.78435 0.0
O240 O 0.77542 0.07744 0.80451 0.0
C241 C 0.72805 0.10649 0.76601 0.0
O242 O 0.7799 0.11849 0.77281 0.0
Co243 Co 0.75781 0.10858 0.72515 0.0
O244 O 0.76947 0.13807 0.74008 0.0
C245 C 0.79142 0.06976 0.73458 0.0
C246 C 0.76128 0.05953 0.80289 0.0
C247 C 0.77982 0.13705 0.75995 0.0
O248 O 0.78698 0.07085 0.75678 0.0
O249 O 0.78038 0.08205 0.71921 0.0
O250 O 0.73486 0.10524 0.78781 0.0
O251 O 0.74065 0.09481 0.75116 0.0
Co252 Co 0.1608 0.51008 0.02068 0.0
O253 O 0.18912 0.4944 0.03068 0.0
O254 O 0.16855 0.5198 0.0521 0.0
C255 C 0.14197 0.47863 0.00549 0.0
O256 O 0.13051 0.52875 0.01746 0.0
Co257 Co 0.14561 0.51261 0.96831 0.0
O258 O 0.11493 0.52319 0.98157 0.0
C259 C 0.18494 0.54201 0.98539 0.0
C260 C 0.18641 0.5056 0.05045 0.0
C261 C 0.11344 0.53059 0.00271 0.0
O262 O 0.17999 0.5367 0.00686 0.0
O263 O 0.17476 0.53246 0.96768 0.0
O264 O 0.14164 0.48236 0.02807 0.0
O265 O 0.15572 0.49221 0.9936 0.0
Co266 Co 0.73392 0.90532 0.27261 0.0
O267 O 0.74995 0.9335 0.28227 0.0
O268 O 0.72626 0.91208 0.30483 0.0
C269 C 0.76421 0.88717 0.25472 0.0
O270 O 0.71516 0.87508 0.26948 0.0
Co271 Co 0.72767 0.89274 0.21986 0.0
O272 O 0.7174 0.86166 0.23237 0.0
C273 C 0.69912 0.93053 0.24079 0.0
C274 C 0.7399 0.93032 0.30256 0.0
C275 C 0.71167 0.85903 0.25391 0.0
O276 O 0.70624 0.92457 0.26145 0.0
O277 O 0.70734 0.92154 0.22184 0.0
O278 O 0.76219 0.88624 0.27749 0.0
O279 O 0.74989 0.90133 0.24422 0.0
Co280 Co 0.33748 0.48042 0.52093 0.0
O281 O 0.30638 0.49235 0.52721 0.0
O282 O 0.32805 0.47139 0.55206 0.0
C283 C 0.35265 0.51367 0.5055 0.0
O284 O 0.37028 0.46598 0.52174 0.0
Co285 Co 0.3589 0.47783 0.47076 0.0
O286 O 0.38902 0.4718 0.48748 0.0
C287 C 0.3254 0.44117 0.48678 0.0
C288 C 0.30866 0.48281 0.54787 0.0
C289 C 0.38895 0.4653 0.50894 0.0
O290 O 0.32381 0.45054 0.50734 0.0
O291 O 0.33744 0.44994 0.46989 0.0
O292 O 0.35158 0.51104 0.52819 0.0
O293 O 0.34257 0.49743 0.49327 0.0
Co294 Co 0.22873 0.58853 0.70817 0.0
O295 O 0.24325 0.55955 0.69868 0.0
O296 O 0.2182 0.58037 0.67703 0.0
C297 C 0.26121 0.60643 0.72236 0.0
O298 O 0.21095 0.61935 0.71143 0.0
Co299 Co 0.22757 0.60356 0.7606 0.0
O300 O 0.21596 0.63402 0.7478 0.0
C301 C 0.19619 0.56582 0.74404 0.0
C302 C 0.23164 0.56196 0.67912 0.0
C303 C 0.20863 0.63591 0.72666 0.0
O304 O 0.20173 0.57055 0.72261 0.0
O305 O 0.20624 0.57543 0.76179 0.0
O306 O 0.25691 0.6066 0.69989 0.0
O307 O 0.24739 0.5934 0.73482 0.0
Co308 Co 0.66326 0.98454 0.9717 0.0
O309 O 0.69219 -0.00112 0.96144 0.0
O310 O 0.66915 0.97604 0.93958 0.0
C311 C 0.64686 0.01592 0.98936 0.0
O312 O 0.63212 0.96747 0.9753 0.0
Co313 Co 0.65064 0.97953 0.02452 0.0
O314 O 0.61888 0.97073 0.01238 0.0
C315 C 0.68659 0.94859 0.00365 0.0
C316 C 0.68814 0.98869 0.94135 0.0
C317 C 0.61594 0.96489 0.9909 0.0
O318 O 0.68113 0.95606 0.983 0.0
O319 O 0.67805 0.95731 0.02259 0.0
O320 O 0.64566 0.01367 0.96662 0.0
O321 O 0.66037 0.00104 -5e-05 0.0
Co322 Co 0.8404 0.01102 0.46687 0.0
O323 O 0.81155 0.99583 0.45776 0.0
O324 O 0.83022 0.02313 0.43696 0.0
C325 C 0.85977 0.97806 0.47772 0.0
O326 O 0.87065 0.02999 0.46954 0.0
Co327 Co 0.86005 0.00903 0.5177 0.0
O328 O 0.8897 0.02053 0.50291 0.0
C329 C 0.8197 0.04021 0.50646 0.0
C330 C 0.81272 0.00848 0.43876 0.0
C331 C 0.88901 0.03036 0.48278 0.0
O332 O 0.82216 0.03607 0.48431 0.0
O333 O 0.83177 0.02971 0.52237 0.0
O334 O 0.85897 0.98416 0.4557 0.0
O335 O 0.84742 0.99084 0.49184 0.0
H336 H 0.05688 0.22051 0.47525 0.0
H337 H 0.09429 0.19383 0.53583 0.0
H338 H 0.09153 0.24236 0.4634 0.0
H339 H 0.12889 0.21667 0.5246 0.0
H340 H 0.19146 0.22156 0.47185 0.0
H341 H 0.15708 0.21108 0.49486 0.0
H342 H 0.12015 0.27184 0.46762 0.0
H343 H 0.1544 0.28162 0.44363 0.0
C344 C 0.07233 0.21988 0.48643 0.0
C345 C 0.07305 0.20509 0.50618 0.0
C346 C 0.09224 0.23261 0.47975 0.0
C347 C 0.11324 0.23105 0.49284 0.0
C348 C 0.11323 0.21783 0.51378 0.0
C349 C 0.09337 0.20483 0.52029 0.0
C350 C 0.17617 0.23295 0.47114 0.0
C351 C 0.1754 0.2521 0.45558 0.0
C352 C 0.15643 0.22705 0.48451 0.0
C353 C 0.13559 0.24038 0.48284 0.0
C354 C 0.13566 0.26082 0.46886 0.0
C355 C 0.15532 0.26651 0.45521 0.0
H356 H 0.96977 0.89862 0.67812 0.0
H357 H -0.00107 0.94664 0.72931 0.0
H358 H 0.98326 0.86555 0.70121 0.0
H359 H 0.01125 0.9134 0.7535 0.0
H360 H 0.06538 0.85332 0.76273 0.0
H361 H 0.04199 0.88693 0.75087 0.0
H362 H 0.98421 0.84049 0.73299 0.0
H363 H 0.00851 0.8067 0.74347 0.0
C364 C 0.97841 0.90209 0.69476 0.0
C365 C 0.98375 0.92518 0.70168 0.0
C366 C 0.98603 0.88305 0.70821 0.0
C367 C -0.00119 0.88666 0.72914 0.0
C368 C 0.00214 0.90989 0.73713 0.0
C369 C 0.99492 0.92897 0.72339 0.0
C370 C 0.04755 0.85035 0.7566 0.0
C371 C 0.0389 0.82744 0.75354 0.0
C372 C 0.03396 0.86969 0.74997 0.0
C373 C 0.0112 0.86656 0.74056 0.0
C374 C 0.00189 0.84361 0.73946 0.0
C375 C 0.01572 0.82422 0.74558 0.0
H376 H 0.34713 0.72826 0.92124 0.0
H377 H 0.29809 0.75475 0.97289 0.0
H378 H 0.37973 0.74395 0.94387 0.0
H379 H 0.33087 0.76936 -0.0035 0.0
H380 H 0.38942 0.82443 0.00841 0.0
H381 H 0.35649 0.80115 0.99412 0.0
H382 H 0.4044 0.74466 0.97628 0.0
H383 H 0.43745 0.76875 0.98929 0.0
C384 C 0.34339 0.73686 0.93784 0.0
C385 C 0.32009 0.74062 0.94514 0.0
C386 C 0.36214 0.74576 0.95098 0.0
C387 C 0.35803 0.75827 0.97196 0.0
C388 C 0.33471 0.76042 0.98012 0.0
C389 C 0.31591 0.75189 0.96671 0.0
C390 C 0.39283 0.80692 0.00167 0.0
C391 C 0.41595 0.79851 -0.00043 0.0
C392 C 0.37391 0.79342 0.99364 0.0
C393 C 0.3777 0.77101 0.98375 0.0
C394 C 0.40082 0.76205 0.98317 0.0
C395 C 0.41977 0.77578 0.99074 0.0
H396 H 0.51622 0.10255 0.1801 0.0
H397 H 0.49576 0.05398 0.23478 0.0
H398 H 0.50323 0.1353 0.20414 0.0
H399 H 0.48409 0.08687 0.25972 0.0
H400 H 0.42785 0.14384 0.27382 0.0
H401 H 0.45164 0.11144 0.25981 0.0
H402 H 0.50483 0.1606 0.2361 0.0
H403 H 0.48005 0.1932 0.24897 0.0
C404 C 0.50956 0.09897 0.1976 0.0
C405 C 0.50648 0.07579 0.20542 0.0
C406 C 0.50229 0.11779 0.21156 0.0
C407 C 0.4922 0.1138 0.23384 0.0
C408 C 0.49109 0.09059 0.2424 0.0
C409 C 0.49787 0.07174 0.22819 0.0
C410 C 0.44481 0.14771 0.26598 0.0
C411 C 0.4519 0.171 0.26201 0.0
C412 C 0.45864 0.12906 0.25809 0.0
C413 C 0.4801 0.13331 0.24642 0.0
C414 C 0.48811 0.15667 0.24437 0.0
C415 C 0.474 0.17536 0.25186 0.0
H416 H 0.64703 0.21925 0.56824 0.0
H417 H 0.69501 0.24835 0.51699 0.0
H418 H 0.61395 0.23492 0.54655 0.0
H419 H 0.66166 0.26291 0.49415 0.0
H420 H 0.60295 0.3187 0.48677 0.0
H421 H 0.63614 0.29432 0.49809 0.0
H422 H 0.58828 0.23759 0.5154 0.0
H423 H 0.55501 0.26284 0.50553 0.0
C424 C 0.65046 0.22836 0.55185 0.0
C425 C 0.67361 0.23297 0.54454 0.0
C426 C 0.63139 0.23726 0.53921 0.0
C427 C 0.635 0.25063 0.51867 0.0
C428 C 0.65818 0.25335 0.51025 0.0
C429 C 0.67732 0.24483 0.5232 0.0
C430 C 0.59959 0.30091 0.49272 0.0
C431 C 0.57646 0.29278 0.49571 0.0
C432 C 0.61867 0.28675 0.49903 0.0
C433 C 0.61503 0.26394 0.50802 0.0
C434 C 0.59181 0.25526 0.50924 0.0
C435 C 0.57272 0.26965 0.50346 0.0
H436 H 0.92819 0.34793 0.72312 0.0
H437 H 0.98134 0.29992 0.74855 0.0
H438 H 0.95213 0.38102 0.73525 0.0
H439 H 0.00629 0.33312 0.75941 0.0
H440 H 0.0182 0.39269 0.81357 0.0
H441 H 0.00531 0.35924 0.79052 0.0
H442 H 0.9841 0.40609 0.73431 0.0
H443 H 0.99568 0.43972 0.75833 0.0
C444 C 0.9454 0.34449 0.73061 0.0
C445 C 0.95272 0.32142 0.73538 0.0
C446 C 0.95932 0.36352 0.73744 0.0
C447 C 0.98109 0.35987 0.74877 0.0
C448 C 0.98933 0.33665 0.75143 0.0
C449 C 0.97513 0.3176 0.74507 0.0
C450 C 0.01115 0.39579 0.79612 0.0
C451 C 0.00745 0.41875 0.78791 0.0
C452 C 0.00391 0.37655 0.78272 0.0
C453 C 0.99324 0.37986 0.76059 0.0
C454 C 0.99156 0.40286 0.75155 0.0
C455 C -0.00169 0.42214 0.76522 0.0
H456 H 0.84493 0.75812 0.06486 0.0
H457 H 0.79838 0.73461 0.00951 0.0
H458 H 0.8787 0.74559 0.0421 0.0
H459 H 0.83237 0.72324 0.98583 0.0
H460 H 0.89294 0.67009 0.97382 0.0
H461 H 0.85882 0.6921 0.98686 0.0
H462 H 0.90439 0.74844 0.01052 0.0
H463 H 0.93869 0.72549 -0.00132 0.0
C464 C 0.84198 0.7508 0.0475 0.0
C465 C 0.81908 0.7469 0.03911 0.0
C466 C 0.86141 0.74381 0.03426 0.0
C467 C 0.85836 0.73314 0.01212 0.0
C468 C 0.83539 0.73084 0.00304 0.0
C469 C 0.81591 0.73742 0.01653 0.0
C470 C 0.89563 0.68734 0.98147 0.0
C471 C 0.91841 0.6959 0.98573 0.0
C472 C 0.87601 0.70013 0.98879 0.0
C473 C 0.87878 0.72196 0.00015 0.0
C474 C 0.90161 0.73138 0.00249 0.0
C475 C 0.92126 0.71833 0.99561 0.0
H476 H 0.54849 0.64825 0.2117 0.0
H477 H 0.52016 0.6846 0.27216 0.0
H478 H 0.52688 0.61287 0.22283 0.0
H479 H 0.49943 0.64916 0.28385 0.0
H480 H 0.45966 0.58554 0.30077 0.0
H481 H 0.47011 0.62027 0.27788 0.0
H482 H 0.53273 0.58476 0.25299 0.0
H483 H 0.52167 0.54984 0.27499 0.0
C484 C 0.53745 0.64873 0.22724 0.0
C485 C 0.53627 0.66902 0.24129 0.0
C486 C 0.52515 0.62845 0.23366 0.0
C487 C 0.51167 0.62802 0.25441 0.0
C488 C 0.50939 0.64885 0.26762 0.0
C489 C 0.52146 0.66917 0.26104 0.0
C490 C 0.4754 0.58506 0.28999 0.0
C491 C 0.49011 0.56521 0.28994 0.0
C492 C 0.48143 0.60497 0.27696 0.0
C493 C 0.50249 0.60551 0.26395 0.0
C494 C 0.51628 0.58497 0.26263 0.0
C495 C 0.51006 0.56496 0.2754 0.0
H496 H 0.24031 0.47559 0.19056 0.0
H497 H 0.26166 0.41914 0.14443 0.0
H498 H 0.22948 0.49937 0.15652 0.0
H499 H 0.24955 0.44203 0.11056 0.0
H500 H 0.23035 0.48614 0.05039 0.0
H501 H 0.25292 0.47303 0.08447 0.0
H502 H 0.19823 0.49964 0.13038 0.0
H503 H 0.17669 0.51394 0.09646 0.0
C504 C 0.24279 0.46835 0.1731 0.0
C505 C 0.25151 0.44546 0.17009 0.0
C506 C 0.23646 0.48189 0.15358 0.0
C507 C 0.23821 0.47255 0.13069 0.0
C508 C 0.24818 0.45006 0.12778 0.0
C509 C 0.25496 0.43677 0.14725 0.0
C510 C 0.22349 0.48958 0.06784 0.0
C511 C 0.20167 0.50075 0.07083 0.0
C512 C 0.23632 0.48194 0.08739 0.0
C513 C 0.22726 0.48481 0.11027 0.0
C514 C 0.20602 0.49728 0.11316 0.0
C515 C 0.1935 0.50536 0.09366 0.0
H516 H 0.73418 0.00249 0.94164 0.0
H517 H 0.67712 0.98314 0.89527 0.0
H518 H 0.75839 0.01275 0.90772 0.0
H519 H 0.70038 0.9948 0.86155 0.0
H520 H 0.74273 0.01527 0.80155 0.0
H521 H 0.73092 0.9914 0.83518 0.0
H522 H 0.75979 0.04405 0.88214 0.0
H523 H 0.77291 0.06675 0.8486 0.0
C524 C 0.72689 0.00038 0.92415 0.0
C525 C 0.70371 0.99239 0.92101 0.0
C526 C 0.74068 0.00634 0.9047 0.0
C527 C 0.73132 0.00503 0.88178 0.0
C528 C 0.70849 0.99578 0.87876 0.0
C529 C 0.69495 0.98931 0.89816 0.0
C530 C 0.74706 0.02131 0.81912 0.0
C531 C 0.75834 0.04299 0.82256 0.0
C532 C 0.74014 0.00777 0.83841 0.0
C533 C 0.74375 0.01603 0.8615 0.0
C534 C 0.75675 0.03688 0.86475 0.0
C535 C 0.76418 0.05008 0.84546 0.0
H536 H 0.73532 0.92051 0.34906 0.0
H537 H 0.75517 0.97574 0.30088 0.0
H538 H 0.74825 0.94439 0.38197 0.0
H539 H 0.76673 0.00055 0.33392 0.0
H540 H 0.82062 0.01738 0.39253 0.0
H541 H 0.79824 0.00243 0.35942 0.0
H542 H 0.74515 0.97592 0.40725 0.0
H543 H 0.76864 0.98959 0.44046 0.0
C544 C 0.74191 0.93807 0.34561 0.0
C545 C 0.74466 0.94615 0.32248 0.0
C546 C 0.74913 0.95195 0.36452 0.0
C547 C 0.75881 0.97446 0.36073 0.0
C548 C 0.75999 0.9831 0.33754 0.0
C549 C 0.75326 0.96896 0.31859 0.0
C550 C 0.80393 0.00876 0.39591 0.0
C551 C 0.79654 0.00423 0.419 0.0
C552 C 0.79093 0.00027 0.37687 0.0
C553 C 0.76999 0.98748 0.38056 0.0
C554 C 0.76155 0.98497 0.40372 0.0
C555 C 0.77488 0.99297 0.42277 0.0
H556 H 0.22618 0.57047 0.6324 0.0
H557 H 0.2448 0.51606 0.68198 0.0
H558 H 0.23924 0.54571 0.60014 0.0
H559 H 0.25644 0.49043 0.64964 0.0
H560 H 0.31423 0.47521 0.59468 0.0
H561 H 0.28951 0.48965 0.62612 0.0
H562 H 0.23821 0.51351 0.57501 0.0
H563 H 0.26395 0.50013 0.54336 0.0
C564 C 0.23238 0.55287 0.63629 0.0
C565 C 0.23502 0.54532 0.65961 0.0
C566 C 0.23971 0.53851 0.61776 0.0
C567 C 0.24938 0.51611 0.62222 0.0
C568 C 0.24983 0.50782 0.64555 0.0
C569 C 0.24305 0.52243 0.66409 0.0
C570 C 0.29747 0.48313 0.59015 0.0
C571 C 0.29124 0.487 0.5666 0.0
C572 C 0.28309 0.49129 0.60825 0.0
C573 C 0.2619 0.50316 0.60321 0.0
C574 C 0.25469 0.50507 0.57957 0.0
C575 C 0.26935 0.49727 0.56142 0.0
H576 H 0.28 0.42666 0.49577 0.0
H577 H 0.3469 0.40379 0.46795 0.0
H578 H 0.26177 0.38975 0.48209 0.0
H579 H 0.32937 0.36692 0.4555 0.0
H580 H 0.24439 0.30984 0.46488 0.0
H581 H 0.25949 0.34569 0.48413 0.0
H582 H 0.30337 0.35922 0.42348 0.0
H583 H 0.28926 0.3236 0.40509 0.0
C584 C 0.29083 0.4135 0.48723 0.0
C585 C 0.31466 0.41807 0.48243 0.0
C586 C 0.28048 0.39242 0.47948 0.0
C587 C 0.29401 0.37569 0.46716 0.0
C588 C 0.31826 0.37974 0.4642 0.0
C589 C 0.32836 0.40078 0.47144 0.0
C590 C 0.25725 0.32063 0.45582 0.0
C591 C 0.26612 0.31371 0.4338 0.0
C592 C 0.26582 0.3411 0.46676 0.0
C593 C 0.28311 0.35494 0.4556 0.0
C594 C 0.29077 0.34854 0.43299 0.0
C595 C 0.28258 0.32813 0.42237 0.0
H596 H 0.91653 0.98294 0.70017 0.0
H597 H 0.92185 0.05225 0.66907 0.0
H598 H 0.87814 0.9938 0.71701 0.0
H599 H 0.88392 0.06261 0.68553 0.0
H600 H 0.8053 0.06238 0.68923 0.0
H601 H 0.84203 0.0452 0.67573 0.0
H602 H 0.86063 0.02748 0.74716 0.0
H603 H 0.82365 0.04494 0.76106 0.0
C604 C 0.9097 0.00046 0.69708 0.0
C605 C 0.92226 0.01663 0.68311 0.0
C606 C 0.88779 0.00662 0.70673 0.0
C607 C 0.87804 0.02888 0.70221 0.0
C608 C 0.89092 0.0452 0.68894 0.0
C609 C 0.91276 0.03923 0.67962 0.0
C610 C 0.81693 0.05455 0.70216 0.0
C611 C 0.81165 0.05546 0.72632 0.0
C612 C 0.838 0.04472 0.69436 0.0
C613 C 0.85422 0.03538 0.71047 0.0
C614 C 0.84834 0.03462 0.73444 0.0
C615 C 0.82722 0.04466 0.74235 0.0
H616 H 0.201 0.66315 0.91452 0.0
H617 H 0.26484 0.67342 0.9549 0.0
H618 H 0.19472 0.62566 0.9338 0.0
H619 H 0.25801 0.63539 0.97468 0.0
H620 H 0.19625 0.57952 0.01378 0.0
H621 H 0.2142 0.61664 0.0008 0.0
H622 H 0.22731 0.5864 0.93248 0.0
H623 H 0.20967 0.54949 0.9452 0.0
C624 C 0.21357 0.65762 0.92776 0.0
C625 C 0.23346 0.67136 0.93316 0.0
C626 C 0.20998 0.63605 0.93869 0.0
C627 C 0.22596 0.62775 0.95553 0.0
C628 C 0.24551 0.64158 0.96166 0.0
C629 C 0.24938 0.66321 0.95035 0.0
C630 C 0.20379 0.58052 -0.00369 0.0
C631 C 0.20113 0.56177 0.98034 0.0
C632 C 0.21408 0.60171 0.98895 0.0
C633 C 0.2219 0.60423 0.96566 0.0
C634 C 0.22134 0.58477 0.95052 0.0
C635 C 0.21112 0.56373 0.9578 0.0
H636 H 0.5585 0.95445 0.21265 0.0
H637 H 0.58577 0.02255 0.19267 0.0
H638 H 0.59579 0.94516 0.23182 0.0
H639 H 0.62334 0.01301 0.21164 0.0
H640 H 0.66312 0.9371 0.27196 0.0
H641 H 0.62586 0.95748 0.26438 0.0
H642 H 0.65223 0.98042 0.19694 0.0
H643 H 0.6892 0.95984 0.20427 0.0
C644 C 0.57229 0.96763 0.21283 0.0
C645 C 0.56935 0.98911 0.20097 0.0
C646 C 0.59357 0.96238 0.22395 0.0
C647 C 0.61241 0.97836 0.22311 0.0
C648 C 0.60903 0.00042 0.21249 0.0
C649 C 0.58755 0.00586 0.20172 0.0
C650 C 0.66117 0.94705 0.25582 0.0
C651 C 0.67891 0.94669 0.23857 0.0
C652 C 0.63987 0.95862 0.25148 0.0
C653 C 0.63622 0.97043 0.23007 0.0
C654 C 0.65467 0.97163 0.21368 0.0
C655 C 0.67575 0.95971 0.2178 0.0
H656 H 0.73239 0.16565 0.54015 0.0
H657 H 0.79673 0.16255 0.58092 0.0
H658 H 0.74271 0.1278 0.52167 0.0
H659 H 0.80653 0.12529 0.56288 0.0
H660 H 0.80397 0.04857 0.55093 0.0
H661 H 0.78502 0.08401 0.56552 0.0
H662 H 0.78049 0.11122 0.49482 0.0
H663 H 0.79971 0.07552 0.47989 0.0
C664 C 0.74866 0.15703 0.54511 0.0
C665 C 0.76369 0.16717 0.56204 0.0
C666 C 0.75453 0.13546 0.53453 0.0
C667 C 0.77524 0.12361 0.54113 0.0
C668 C 0.7903 0.13394 0.55773 0.0
C669 C 0.78469 0.15543 0.56795 0.0
C670 C 0.7986 0.06184 0.53833 0.0
C671 C 0.80385 0.05942 0.51427 0.0
C672 C 0.78769 0.0821 0.54673 0.0
C673 C 0.78165 0.10039 0.5313 0.0
C674 C 0.78498 0.09728 0.50702 0.0
C675 C 0.79603 0.0769 0.49853 0.0
H676 H 0.18794 0.5394 0.78317 0.0
H677 H 0.15817 0.55784 0.71564 0.0
H678 H 0.15141 0.51939 0.79374 0.0
H679 H 0.12141 0.53807 0.72649 0.0
H680 H 0.05593 0.54162 0.78016 0.0
H681 H 0.09259 0.55159 0.76009 0.0
H682 H 0.12261 0.48518 0.78148 0.0
H683 H 0.08568 0.47492 0.8013 0.0
C684 C 0.17375 0.53877 0.77042 0.0
C685 C 0.17582 0.55033 0.74866 0.0
C686 C 0.15292 0.52718 0.77641 0.0
C687 C 0.13364 0.52728 0.76093 0.0
C688 C 0.13607 0.5378 0.7387 0.0
C689 C 0.15711 0.54901 0.7325 0.0
C690 C 0.07016 0.52892 0.78013 0.0
C691 C 0.06804 0.50758 0.79242 0.0
C692 C 0.09106 0.53456 0.76852 0.0
C693 C 0.11037 0.51915 0.76931 0.0
C694 C 0.10792 0.49733 0.78065 0.0
C695 C 0.0868 0.49146 0.79189 0.0
H696 H 0.71399 0.93578 0.04087 0.0
H697 H 0.69216 0.91323 0.97158 0.0
H698 H 0.73209 0.89747 0.04765 0.0
H699 H 0.71005 0.87469 0.9786 0.0
H700 H 0.70104 0.80621 0.02796 0.0
H701 H 0.69473 0.84449 0.00966 0.0
H702 H 0.76346 0.86715 0.03308 0.0
H703 H 0.77001 0.82859 0.05116 0.0
C704 C 0.71354 0.92281 0.02689 0.0
C705 C 0.70144 0.92738 0.00581 0.0
C706 C 0.72405 0.90096 0.03071 0.0
C707 C 0.72235 0.88316 0.01366 0.0
C708 C 0.71154 0.88817 0.992 0.0
C709 C 0.70138 0.91021 0.98799 0.0
C710 C 0.71506 0.81914 0.02866 0.0
C711 C 0.7359 0.81454 0.04117 0.0
C712 C 0.71152 0.84098 0.01804 0.0
C713 C 0.72859 0.85874 0.02007 0.0
C714 C 0.75005 0.85369 0.03132 0.0
C715 C 0.75379 0.83165 0.04158 0.0
H716 H 0.33289 0.42772 0.225 0.0
H717 H 0.30492 0.45512 0.29013 0.0
H718 H 0.37133 0.44518 0.23425 0.0
H719 H 0.34304 0.47295 0.29903 0.0
H720 H 0.43608 0.44196 0.28972 0.0
H721 H 0.39893 0.43279 0.27006 0.0
H722 H 0.37446 0.50351 0.28291 0.0
H723 H 0.41185 0.51293 0.30226 0.0
C724 C 0.33477 0.43807 0.2409 0.0
C725 C 0.31602 0.44 0.25693 0.0
C726 C 0.35673 0.44793 0.24621 0.0
C727 C 0.36005 0.46037 0.26731 0.0
C728 C 0.34085 0.46363 0.28253 0.0
C729 C 0.3191 0.45334 0.2775 0.0
C730 C 0.42301 0.45572 0.28787 0.0
C731 C 0.42679 0.4781 0.29769 0.0
C732 C 0.40183 0.45051 0.27649 0.0
C733 C 0.38389 0.46745 0.27506 0.0
C734 C 0.38807 0.49018 0.28383 0.0
C735 C 0.40946 0.49555 0.29481 0.0
H736 H 0.45482 0.28373 0.44668 0.0
H737 H 0.52013 0.30789 0.4161 0.0
H738 H 0.44436 0.26476 0.40959 0.0
H739 H 0.50938 0.2892 0.37872 0.0
H740 H 0.45344 0.29267 0.31514 0.0
H741 H 0.47407 0.30197 0.35164 0.0
H742 H 0.45751 0.23297 0.3787 0.0
H743 H 0.43711 0.22342 0.3419 0.0
C744 C 0.46716 0.28453 0.43216 0.0
C745 C 0.48821 0.29739 0.43419 0.0
C746 C 0.46124 0.27357 0.411 0.0
C747 C 0.47604 0.27561 0.39133 0.0
C748 C 0.49768 0.28741 0.39367 0.0
C749 C 0.50386 0.29799 0.41505 0.0
C750 C 0.45461 0.2793 0.32868 0.0
C751 C 0.44349 0.25739 0.32576 0.0
C752 C 0.46657 0.28456 0.34948 0.0
C753 C 0.46733 0.26818 0.36794 0.0
C754 C 0.45714 0.24588 0.36468 0.0
C755 C 0.44554 0.24043 0.34364 0.0
H756 H 0.01568 0.20221 0.57624 0.0
H757 H 0.94282 0.18576 0.56081 0.0
H758 H 0.0035 0.21939 0.61398 0.0
H759 H 0.93111 0.20248 0.59833 0.0
H760 H 0.93073 0.19234 0.67883 0.0
H761 H 0.94759 0.18259 0.64085 0.0
H762 H 0.96881 0.25477 0.63109 0.0
H763 H 0.95149 0.26502 0.66938 0.0
C764 C -0.00289 0.20268 0.58059 0.0
C765 C 0.98029 0.19223 0.56562 0.0
C766 C 0.99021 0.21252 0.60214 0.0
C767 C 0.96647 0.21191 0.60898 0.0
C768 C 0.94956 0.20292 0.59342 0.0
C769 C 0.95634 0.19333 0.57194 0.0
C770 C 0.9392 0.20622 0.6689 0.0
C771 C 0.93945 0.22957 0.67712 0.0
C772 C 0.94883 0.20057 0.64711 0.0
C773 C 0.95922 0.218 0.63312 0.0
C774 C 0.96083 0.24109 0.6417 0.0
C775 C 0.95089 0.24689 0.66354 0.0
H776 H 0.97234 0.68706 0.90796 0.0
H777 H 0.04207 0.70346 0.93378 0.0
H778 H 0.98117 0.70789 0.87128 0.0
H779 H 0.05067 0.7244 0.89736 0.0
H780 H 0.05595 0.77045 0.83316 0.0
H781 H 0.0379 0.75956 0.8708 0.0
H782 H 0.01196 0.69525 0.83972 0.0
H783 H 0.03024 0.70588 0.80237 0.0
C784 C 0.9893 0.6956 0.90605 0.0
C785 C 0.00661 0.69344 0.92362 0.0
C786 C 0.99434 0.70744 0.88507 0.0
C787 C 0.01658 0.71771 0.88155 0.0
C788 C 0.0333 0.71685 0.89973 0.0
C789 C 0.02843 0.7047 0.92049 0.0
C790 C 0.04585 0.75431 0.83425 0.0
C791 C 0.04462 0.7389 0.81496 0.0
C792 C 0.03564 0.74806 0.85576 0.0
C793 C 0.02361 0.72657 0.85811 0.0
C794 C 0.02095 0.71202 0.83833 0.0
C795 C 0.03153 0.71802 0.81701 0.0
H796 H 0.54242 0.72232 0.1628 0.0
H797 H 0.52625 0.7921 0.18829 0.0
H798 H 0.5227 0.73143 0.1256 0.0
H799 H 0.50633 0.80099 0.15132 0.0
H800 H 0.53164 0.78204 0.0581 0.0
H801 H 0.53845 0.7622 0.09552 0.0
H802 H 0.47268 0.78954 0.12209 0.0
H803 H 0.4656 0.80915 0.08433 0.0
C804 C 0.53402 0.73931 0.16076 0.0
C805 C 0.53613 0.75662 0.17831 0.0
C806 C 0.52281 0.74451 0.13947 0.0
C807 C 0.51311 0.76692 0.1356 0.0
C808 C 0.51348 0.78351 0.15391 0.0
C809 C 0.52504 0.77847 0.175 0.0
C810 C 0.51831 0.78325 0.07169 0.0
C811 C 0.4982 0.79726 0.06842 0.0
C812 C 0.52213 0.77177 0.09305 0.0
C813 C 0.50611 0.77443 0.11168 0.0
C814 C 0.48527 0.78725 0.10796 0.0
C815 C 0.4812 0.79837 0.08636 0.0
H816 H 0.19311 0.29865 0.35428 0.0
H817 H 0.25326 0.2749 0.31415 0.0
H818 H 0.18101 0.32342 0.32138 0.0
H819 H 0.24117 0.29959 0.28146 0.0
H820 H 0.2183 0.34365 0.22373 0.0
H821 H 0.2121 0.31068 0.25065 0.0
H822 H 0.20092 0.35964 0.30772 0.0
H823 H 0.2072 0.39235 0.28092 0.0
C824 C 0.20353 0.29834 0.33833 0.0
C825 C 0.22447 0.28514 0.33706 0.0
C826 C 0.19653 0.3125 0.31947 0.0
C827 C 0.21021 0.3136 0.2989 0.0
C828 C 0.23011 0.29901 0.29697 0.0
C829 C 0.2372 0.285 0.31585 0.0
C830 C 0.21335 0.34732 0.24177 0.0
C831 C 0.21343 0.37048 0.25038 0.0
C832 C 0.21006 0.32845 0.25723 0.0
C833 C 0.20645 0.33257 0.28137 0.0
C834 C 0.20358 0.35583 0.28924 0.0
C835 C 0.20718 0.37462 0.27389 0.0
H836 H 0.90637 0.98276 0.4685 0.0
H837 H 0.85691 0.94296 0.5098 0.0
H838 H 0.93632 0.97681 0.4981 0.0
H839 H 0.88759 0.93386 0.53809 0.0
H840 H 0.92113 0.96576 0.60301 0.0
H841 H 0.89989 0.95382 0.5684 0.0
H842 H 0.96167 0.96863 0.52584 0.0
H843 H 0.98168 0.9831 0.56083 0.0
C844 C 0.90238 0.97151 0.48337 0.0
C845 C 0.87922 0.96419 0.48753 0.0
C846 C 0.91962 0.96809 0.50062 0.0
C847 C 0.91408 0.95641 0.52186 0.0
C848 C 0.89217 0.94473 0.52317 0.0
C849 C 0.87463 0.94928 0.50657 0.0
C850 C 0.93007 0.96634 0.58618 0.0
C851 C 0.95275 0.97575 0.58442 0.0
C852 C 0.91803 0.95907 0.56608 0.0
C853 C 0.92868 0.96017 0.54362 0.0
C854 C 0.95225 0.9681 0.54235 0.0
C855 C 0.96393 0.97631 0.56245 0.0
H856 H 0.25499 0.6531 0.71549 0.0
H857 H 0.29484 0.60302 0.75606 0.0
H858 H 0.2603 0.6823 0.7458 0.0
H859 H 0.30377 0.6332 0.78495 0.0
H860 H 0.27539 0.66883 0.85031 0.0
H861 H 0.28494 0.64645 0.81564 0.0
H862 H 0.27114 0.70796 0.77247 0.0
H863 H 0.25895 0.72921 0.8076 0.0
C864 C 0.26611 0.64883 0.7304 0.0
C865 C 0.27384 0.62572 0.73396 0.0
C866 C 0.2693 0.66571 0.748 0.0
C867 C 0.2814 0.66002 0.76898 0.0
C868 C 0.29284 0.63798 0.77012 0.0
C869 C 0.28838 0.62073 0.7532 0.0
C870 C 0.27457 0.67747 0.83332 0.0
C871 C 0.26614 0.70049 0.83145 0.0
C872 C 0.28042 0.66474 0.8132 0.0
C873 C 0.27885 0.67502 0.7906 0.0
C874 C 0.27193 0.69886 0.78915 0.0
C875 C 0.26512 0.71126 0.80931 0.0
H876 H 0.55749 0.05014 0.10743 0.0
H877 H 0.53657 0.98543 0.07327 0.0
H878 H 0.58116 0.06056 0.0732 0.0
H879 H 0.56024 -0.00404 0.0391 0.0
H880 H 0.60045 0.0197 0.97754 0.0
H881 H 0.56815 0.02439 0.00566 0.0
H882 H 0.61849 0.04077 0.06029 0.0
H883 H 0.65058 0.03569 0.03237 0.0
C884 C 0.5576 0.03831 0.0925 0.0
C885 C 0.54553 0.01668 0.0933 0.0
C886 C 0.57113 0.04434 0.07288 0.0
C887 C 0.57266 0.02903 0.05356 0.0
C888 C 0.55926 0.00822 0.05366 0.0
C889 C 0.54591 0.00205 0.07336 0.0
C890 C 0.60447 0.02542 0.99528 0.0
C891 C 0.62795 0.02726 0.00291 0.0
C892 C 0.58602 0.02783 0.01142 0.0
C893 C 0.59084 0.03264 0.03521 0.0
C894 C 0.61419 0.03718 0.04207 0.0
C895 C 0.6326 0.03432 0.02609 0.0
H896 H 0.71134 0.16954 0.64248 0.0
H897 H 0.73389 0.22822 0.68482 0.0
H898 H 0.69938 0.14861 0.67707 0.0
H899 H 0.71949 0.20864 0.71999 0.0
H900 H 0.73282 0.15281 0.77631 0.0
H901 H 0.72601 0.1833 0.74764 0.0
H902 H 0.68165 0.13554 0.70791 0.0
H903 H 0.6917 0.1043 0.73513 0.0
C904 C 0.71307 0.1782 0.65939 0.0
C905 C 0.72397 0.20018 0.66112 0.0
C906 C 0.7058 0.16631 0.67956 0.0
C907 C 0.70846 0.17643 0.70215 0.0
C908 C 0.71777 0.19949 0.70342 0.0
C909 C 0.72595 0.21097 0.6832 0.0
C910 C 0.72113 0.14912 0.76168 0.0
C911 C 0.71372 0.12607 0.75719 0.0
C912 C 0.71723 0.1667 0.7449 0.0
C913 C 0.705 0.1616 0.72384 0.0
C914 C 0.69312 0.1398 0.72249 0.0
C915 C 0.69816 0.12192 0.73855 0.0
H916 H 0.14422 0.45444 0.96481 0.0
H917 H 0.09539 0.47933 0.01734 0.0
H918 H 0.11208 0.45005 0.93686 0.0
H919 H 0.06301 0.47536 0.98914 0.0
H920 H 0.03649 0.51255 0.91856 0.0
H921 H 0.05823 0.50182 0.95386 0.0
H922 H 0.07342 0.43363 0.92407 0.0
H923 H 0.05152 0.4442 0.8887 0.0
C924 C 0.12639 0.45786 0.97069 0.0
C925 C 0.12226 0.46728 0.99311 0.0
C926 C 0.10794 0.45542 0.95467 0.0
C927 C 0.08507 0.46274 0.96069 0.0
C928 C 0.08051 0.46978 0.98399 0.0
C929 C 0.09898 0.47176 0.00022 0.0
C930 C 0.04405 0.4951 0.91966 0.0
C931 C 0.0426 0.47943 0.90058 0.0
C932 C 0.05634 0.48886 0.94003 0.0
C933 C 0.06763 0.46691 0.94169 0.0
C934 C 0.06503 0.45072 0.92321 0.0
C935 C 0.05255 0.45687 0.90291 0.0
H936 H 0.78502 0.89 0.21219 0.0
H937 H 0.76423 0.84054 0.2659 0.0
H938 H 0.78785 0.8581 0.18376 0.0
H939 H 0.7665 0.80848 0.23721 0.0
H940 H 0.79342 0.79693 0.13608 0.0
H941 H 0.80501 0.8191 0.17091 0.0
H942 H 0.73764 0.80415 0.20278 0.0
H943 H 0.72585 0.78207 0.16792 0.0
C944 C 0.78213 0.87211 0.21813 0.0
C945 C 0.77441 0.86768 0.24113 0.0
C946 C 0.78367 0.85383 0.20186 0.0
C947 C 0.77706 0.83087 0.20822 0.0
C948 C 0.77154 0.82606 0.23185 0.0
C949 C 0.77053 0.84435 0.24831 0.0
C950 C 0.78115 0.79804 0.15063 0.0
C951 C 0.75848 0.78811 0.14902 0.0
C952 C 0.78788 0.81068 0.1706 0.0
C953 C 0.77221 0.81342 0.18948 0.0
C954 C 0.75017 0.80216 0.18856 0.0
C955 C 0.74331 0.78972 0.16848 0.0
H956 H 0.34912 0.53743 0.46472 0.0
H957 H 0.39814 0.51914 0.51975 0.0
H958 H 0.38159 0.54309 0.43751 0.0
H959 H 0.43092 0.52435 0.49232 0.0
H960 H 0.45854 0.48123 0.42549 0.0
H961 H 0.43675 0.49489 0.45971 0.0
H962 H 0.41974 0.55946 0.42351 0.0
H963 H 0.44147 0.54585 0.38912 0.0
C964 C 0.36698 0.53594 0.47131 0.0
C965 C 0.37119 0.52761 0.49413 0.0
C966 C 0.38564 0.53908 0.45571 0.0
C967 C 0.40876 0.53357 0.46265 0.0
C968 C 0.41321 0.52841 0.48645 0.0
C969 C 0.39448 0.52572 0.50223 0.0
C970 C 0.45049 0.49849 0.42491 0.0
C971 C 0.45128 0.51216 0.40434 0.0
C972 C 0.43827 0.50648 0.44468 0.0
C973 C 0.42649 0.52824 0.44427 0.0
C974 C 0.42856 0.54258 0.42427 0.0
C975 C 0.44091 0.53467 0.40454 0.0
H976 H 0.27108 0.19464 0.39438 0.0
H977 H 0.21883 0.22114 0.3461 0.0
H978 H 0.29854 0.18933 0.36216 0.0
H979 H 0.24649 0.21609 0.31353 0.0
H980 H 0.31604 0.25658 0.29024 0.0
H981 H 0.28052 0.24306 0.30982 0.0
H982 H 0.31351 0.17611 0.32402 0.0
H983 H 0.3493 0.18966 0.30456 0.0
C984 C 0.26501 0.19798 0.3766 0.0
C985 C 0.24307 0.20861 0.37271 0.0
C986 C 0.2808 0.19505 0.35806 0.0
C987 C 0.27492 0.20297 0.33537 0.0
C988 C 0.25163 0.21023 0.33093 0.0
C989 C 0.23565 0.21281 0.34952 0.0
C990 C 0.31566 0.23885 0.2972 0.0
C991 C 0.33577 0.22446 0.29636 0.0
C992 C 0.29511 0.23095 0.30815 0.0
C993 C 0.29419 0.20853 0.31859 0.0
C994 C 0.31374 0.19354 0.31631 0.0
C995 C 0.33429 0.2014 0.30526 0.0
H996 H 0.01368 0.97475 0.59411 0.0
H997 H 0.04657 0.01869 0.64634 0.0
H998 H 0.02068 0.00431 0.56447 0.0
H999 H 0.05697 0.0471 0.61623 0.0
H1000 H 0.02664 0.10992 0.57747 0.0
H1001 H 0.03701 0.07627 0.60108 0.0
H1002 H 0.03119 0.03157 0.53939 0.0
H1003 H 0.01811 0.06541 0.51675 0.0
C1004 C 0.02377 0.99022 0.59889 0.0
C1005 C 0.02876 0.99498 0.62254 0.0
C1006 C 0.02781 0.00746 0.58181 0.0
C1007 C 0.03797 0.0293 0.58802 0.0
C1008 C 0.04737 0.03155 0.61091 0.0
C1009 C 0.04212 0.0149 0.62818 0.0
C1010 C 0.02769 0.09282 0.56909 0.0
C1011 C 0.02123 0.09009 0.54552 0.0
C1012 C 0.03407 0.07331 0.58254 0.0
C1013 C 0.03502 0.05054 0.57253 0.0
C1014 C 0.03004 0.04834 0.54827 0.0
C1015 C 0.02268 0.06781 0.53508 0.0
H1016 H 0.21513 0.78585 0.88853 0.0
H1017 H 0.26891 0.76622 0.83865 0.0
H1018 H 0.18749 0.79231 0.8565 0.0
H1019 H 0.24097 0.77225 0.80633 0.0
H1020 H 0.17055 0.7339 0.77846 0.0
H1021 H 0.20593 0.74437 0.80042 0.0
H1022 H 0.17508 0.81142 0.81842 0.0
H1023 H 0.13964 0.80106 0.7965 0.0
C1024 C 0.22134 0.78407 0.87058 0.0
C1025 C 0.244 0.77541 0.86601 0.0
C1026 C 0.2055 0.7877 0.8522 0.0
C1027 C 0.21197 0.78233 0.82895 0.0
C1028 C 0.23551 0.77628 0.82414 0.0
C1029 C 0.25156 0.77312 0.84259 0.0
C1030 C 0.17144 0.75105 0.78671 0.0
C1031 C 0.15202 0.76639 0.78615 0.0
C1032 C 0.19185 0.75718 0.79906 0.0
C1033 C 0.1932 0.7787 0.81119 0.0
C1034 C 0.17444 0.79468 0.80931 0.0
C1035 C 0.15411 0.78865 0.79683 0.0
H1036 H 0.45957 0.96912 0.14925 0.0
H1037 H 0.47979 0.02285 0.09959 0.0
H1038 H 0.45331 0.94156 0.11709 0.0
H1039 H 0.47395 0.99505 0.0672 0.0
H1040 H 0.51074 0.92537 0.03755 0.0
H1041 H 0.50104 0.96016 0.0606 0.0
H1042 H 0.43398 0.92945 0.07913 0.0
H1043 H 0.44362 0.89453 0.05607 0.0
C1044 C 0.46158 0.97531 0.13133 0.0
C1045 C 0.4702 -0.00202 0.12684 0.0
C1046 C 0.45804 0.95954 0.11288 0.0
C1047 C 0.46349 0.96608 0.08967 0.0
C1048 C 0.46978 0.98954 0.08497 0.0
C1049 C 0.47286 0.00551 0.10346 0.0
C1050 C 0.49377 0.92615 0.04623 0.0
C1051 C 0.47818 0.90696 0.04538 0.0
C1052 C 0.48809 0.94623 0.05919 0.0
C1053 C 0.46677 0.94747 0.07172 0.0
C1054 C 0.45057 0.9289 0.06972 0.0
C1055 C 0.45615 0.90889 0.05656 0.0
H1056 H 0.77557 0.28385 0.60084 0.0
H1057 H 0.72089 0.26536 0.65015 0.0
H1058 H 0.80245 0.29154 0.63315 0.0
H1059 H 0.74797 0.27291 0.68283 0.0
H1060 H 0.81607 0.23447 0.71382 0.0
H1061 H 0.78149 0.24556 0.69109 0.0
H1062 H 0.81585 0.31001 0.67004 0.0
H1063 H 0.85069 0.29881 0.69252 0.0
C1064 C 0.76895 0.28268 0.61869 0.0
C1065 C 0.74634 0.27376 0.62305 0.0
C1066 C 0.78437 0.28703 0.63728 0.0
C1067 C 0.77749 0.28225 0.66054 0.0
C1068 C 0.75382 0.27638 0.66503 0.0
C1069 C 0.73822 0.27238 0.64635 0.0
C1070 C 0.81618 0.25117 0.70462 0.0
C1071 C 0.83642 0.26543 0.70447 0.0
C1072 C 0.79617 0.25771 0.69187 0.0
C1073 C 0.79598 0.27864 0.67867 0.0
C1074 C 0.81557 0.2937 0.6799 0.0
C1075 C 0.83556 0.2872 0.69271 0.0
H1076 H 0.95845 0.52516 0.84426 0.0
H1077 H 0.97818 0.47002 0.89257 0.0
H1078 H 0.95267 0.55199 0.87706 0.0
H1079 H 0.9728 0.49708 0.92562 0.0
H1080 H 0.01144 0.56565 0.95603 0.0
H1081 H 0.00043 0.53116 0.93309 0.0
H1082 H 0.93416 0.56383 0.91517 0.0
H1083 H 0.94498 0.59832 0.93821 0.0
C1084 C 0.96043 0.5185 0.86202 0.0
C1085 C 0.96888 0.49567 0.86593 0.0
C1086 C 0.95717 0.53386 0.88085 0.0
C1087 C 0.96269 0.52672 0.90388 0.0
C1088 C 0.96863 0.50306 0.90801 0.0
C1089 C 0.97144 0.48752 0.88912 0.0
C1090 C 0.99435 0.56534 0.94757 0.0
C1091 C 0.97937 0.58499 0.94852 0.0
C1092 C 0.98793 0.54545 0.93461 0.0
C1093 C 0.96651 0.5449 0.92218 0.0
C1094 C 0.95084 0.56387 0.92444 0.0
C1095 C 0.95715 0.58365 0.93757 0.0
H1096 H 0.63048 0.69582 0.18512 0.0
H1097 H 0.66564 0.76044 0.20467 0.0
H1098 H 0.66446 0.68453 0.16149 0.0
H1099 H 0.69959 0.74903 0.18102 0.0
H1100 H 0.76128 0.72268 0.14239 0.0
H1101 H 0.73261 0.7195 0.17439 0.0
H1102 H 0.67814 0.70321 0.12382 0.0
H1103 H 0.70661 0.70683 0.09203 0.0
C1104 C 0.64555 0.7075 0.18466 0.0
C1105 C 0.64515 0.72929 0.19643 0.0
C1106 C 0.66503 0.70095 0.17116 0.0
C1107 C 0.68462 0.7159 0.16937 0.0
C1108 C 0.68483 0.73702 0.18227 0.0
C1109 C 0.66525 0.7437 0.19559 0.0
C1110 C 0.74344 0.71727 0.13829 0.0
C1111 C 0.73603 0.71507 0.1148 0.0
C1112 C 0.72699 0.71575 0.15655 0.0
C1113 C 0.70311 0.71145 0.15154 0.0
C1114 C 0.69642 0.70646 0.12826 0.0
C1115 C 0.71272 0.70845 0.11003 0.0
H1116 H 0.53651 0.46162 0.35254 0.0
H1117 H 0.51454 0.51791 0.39848 0.0
H1118 H 0.54217 0.43604 0.38637 0.0
H1119 H 0.5197 0.49207 0.43256 0.0
H1120 H 0.4827 0.42325 0.46468 0.0
H1121 H 0.49284 0.45718 0.4406 0.0
H1122 H 0.56068 0.42643 0.42536 0.0
H1123 H 0.55069 0.39244 0.44951 0.0
C1124 C 0.53396 0.46881 0.37001 0.0
C1125 C 0.52504 0.49161 0.37295 0.0
C1126 C 0.53715 0.45417 0.38943 0.0
C1127 C 0.53103 0.46197 0.41208 0.0
C1128 C 0.5244 0.4856 0.41526 0.0
C1129 C 0.52171 0.50045 0.3958 0.0
C1130 C 0.49997 0.42389 0.45661 0.0
C1131 C 0.51565 0.40485 0.45863 0.0
C1132 C 0.50588 0.44348 0.44299 0.0
C1133 C 0.52751 0.44436 0.43098 0.0
C1134 C 0.54383 0.42611 0.4343 0.0
C1135 C 0.53802 0.40661 0.44808 0.0
H1136 H 0.393 0.27606 0.21523 0.0
H1137 H 0.34538 0.21986 0.23373 0.0
H1138 H 0.35968 0.30206 0.20825 0.0
H1139 H 0.31181 0.24616 0.22735 0.0
H1140 H 0.2797 0.31537 0.26451 0.0
H1141 H 0.30346 0.28103 0.25479 0.0
H1142 H 0.32127 0.312 0.18777 0.0
H1143 H 0.29744 0.34636 0.1973 0.0
C1144 C 0.37532 0.269 0.21672 0.0
C1145 C 0.37169 0.24609 0.22507 0.0
C1146 C 0.35621 0.28387 0.21278 0.0
C1147 C 0.33317 0.2762 0.21759 0.0
C1148 C 0.32942 0.25251 0.22363 0.0
C1149 C 0.3486 0.23741 0.22703 0.0
C1150 C 0.28825 0.31468 0.24749 0.0
C1151 C 0.28709 0.33387 0.23194 0.0
C1152 C 0.30167 0.29487 0.24181 0.0
C1153 C 0.31432 0.29395 0.22057 0.0
C1154 C 0.31179 0.31234 0.20431 0.0
C1155 C 0.29819 0.33205 0.20986 0.0
H1156 H 0.76533 0.18265 0.76402 0.0
H1157 H 0.82495 0.137 0.77442 0.0
H1158 H 0.78841 0.21617 0.77734 0.0
H1159 H 0.84902 0.17026 0.78514 0.0
H1160 H 0.89461 0.22678 0.79878 0.0
H1161 H 0.86328 0.19885 0.80689 0.0
H1162 H 0.81489 0.24266 0.76729 0.0
H1163 H 0.84541 0.27182 0.76277 0.0
C1164 C 0.78352 0.17994 0.76898 0.0
C1165 C 0.79351 0.15742 0.76807 0.0
C1166 C 0.79694 0.19919 0.77652 0.0
C1167 C 0.82098 0.19646 0.78234 0.0
C1168 C 0.8306 0.17354 0.78165 0.0
C1169 C 0.81691 0.15428 0.77505 0.0
C1170 C 0.87685 0.23091 0.79313 0.0
C1171 C 0.87245 0.25102 0.77964 0.0
C1172 C 0.85893 0.21456 0.79708 0.0
C1173 C 0.83674 0.21732 0.78619 0.0
C1174 C 0.83162 0.23925 0.77569 0.0
C1175 C 0.84924 0.25622 0.77303 0.0
H1176 H 0.97392 0.59226 0.01355 0.0
H1177 H 0.02641 0.64335 0.03371 0.0
H1178 H 0.00283 0.56074 0.01853 0.0
H1179 H 0.05512 0.61206 0.03902 0.0
H1180 H 0.10503 0.55275 0.0447 0.0
H1181 H 0.06984 0.57452 0.05622 0.0
H1182 H 0.03668 0.55583 0.99042 0.0
H1183 H 0.07173 0.53413 0.97883 0.0
C1184 C 0.99123 0.5966 0.02033 0.0
C1185 C -0.00188 0.62017 0.02306 0.0
C1186 C 0.00785 0.5786 0.0229 0.0
C1187 C 0.03134 0.58401 0.0287 0.0
C1188 C 0.03718 0.6073 0.03456 0.0
C1189 C 0.02073 0.62526 0.03158 0.0
C1190 C 0.09013 0.55302 0.03278 0.0
C1191 C 0.09138 0.54206 0.0106 0.0
C1192 C 0.06995 0.5654 0.03948 0.0
C1193 C 0.05053 0.56689 0.02424 0.0
C1194 C 0.05124 0.55476 0.00269 0.0
C1195 C 0.07147 0.54256 0.99591 0.0
H1196 H 0.69068 0.84939 0.29621 0.0
H1197 H 0.70569 0.81875 0.22821 0.0
H1198 H 0.66712 0.81498 0.30645 0.0
H1199 H 0.68225 0.78443 0.23856 0.0
H1200 H 0.64315 0.72209 0.26151 0.0
H1201 H 0.6762 0.74948 0.26559 0.0
H1202 H 0.62812 0.80357 0.28891 0.0
H1203 H 0.59528 0.7764 0.28444 0.0
C1204 C 0.6893 0.83519 0.28358 0.0
C1205 C 0.69972 0.83703 0.26118 0.0
C1206 C 0.67586 0.81546 0.28951 0.0
C1207 C 0.6728 0.79707 0.2733 0.0
C1208 C 0.68449 0.79821 0.25153 0.0
C1209 C 0.69772 0.81802 0.2455 0.0
C1210 C 0.63987 0.73948 0.26861 0.0
C1211 C 0.61673 0.74727 0.27259 0.0
C1212 C 0.65873 0.75522 0.27067 0.0
C1213 C 0.65467 0.77872 0.27726 0.0
C1214 C 0.63184 0.78555 0.28392 0.0
C1215 C 0.61301 0.77001 0.2814 0.0
H1216 H 0.43283 0.46345 0.48907 0.0
H1217 H 0.3943 0.44309 0.55143 0.0
H1218 H 0.46629 0.44025 0.50214 0.0
H1219 H 0.42797 0.41988 0.56453 0.0
H1220 H 0.46813 0.34967 0.54186 0.0
H1221 H 0.44141 0.38265 0.5469 0.0
H1222 H 0.49797 0.43088 0.53065 0.0
H1223 H 0.52482 0.39759 0.52572 0.0
C1224 C 0.43166 0.45445 0.50581 0.0
C1225 C 0.41064 0.4547 0.51889 0.0
C1226 C 0.45098 0.44131 0.51345 0.0
C1227 C 0.44969 0.428 0.53426 0.0
C1228 C 0.42938 0.42975 0.54828 0.0
C1229 C 0.41008 0.44304 0.54072 0.0
C1230 C 0.47511 0.36737 0.54052 0.0
C1231 C 0.49841 0.37111 0.53323 0.0
C1232 C 0.45981 0.38633 0.5434 0.0
C1233 C 0.46748 0.40938 0.53875 0.0
C1234 C 0.49152 0.41328 0.53409 0.0
C1235 C 0.50696 0.39424 0.53154 0.0
H1236 H 0.18319 0.64383 0.68649 0.0
H1237 H 0.20681 0.67776 0.7504 0.0
H1238 H 0.15945 0.67833 0.67696 0.0
H1239 H 0.18296 0.71205 0.74091 0.0
H1240 H 0.14197 0.77355 0.72074 0.0
H1241 H 0.17406 0.74565 0.71384 0.0
H1242 H 0.1231 0.69167 0.69719 0.0
H1243 H 0.09129 0.7194 0.70431 0.0
C1244 C 0.1836 0.65875 0.69834 0.0
C1245 C 0.19646 0.65782 0.7195 0.0
C1246 C 0.17004 0.67852 0.69282 0.0
C1247 C 0.16924 0.69784 0.70822 0.0
C1248 C 0.18336 0.69754 0.72855 0.0
C1249 C 0.19679 0.67773 0.73417 0.0
C1250 C 0.13774 0.75607 0.71442 0.0
C1251 C 0.11422 0.74849 0.71317 0.0
C1252 C 0.15609 0.74002 0.71077 0.0
C1253 C 0.15107 0.71638 0.70537 0.0
C1254 C 0.12758 0.70975 0.70124 0.0
C1255 C 0.10932 0.72563 0.70527 0.0
H1256 H 0.52838 0.85143 0.96213 0.0
H1257 H 0.47555 0.90275 0.98064 0.0
H1258 H 0.55755 0.88262 0.95824 0.0
H1259 H 0.50498 0.93411 0.97734 0.0
H1260 H 0.60592 0.94326 0.94908 0.0
H1261 H 0.57072 0.92084 0.93897 0.0
H1262 H 0.53988 0.93885 0.006 0.0
H1263 H 0.57509 0.96119 0.01631 0.0
C1264 C 0.52282 0.86953 0.96434 0.0
C1265 C 0.49981 0.87474 0.97164 0.0
C1266 C 0.5395 0.8874 0.96219 0.0
C1267 C 0.53356 0.91073 0.96777 0.0
C1268 C 0.50999 0.91623 0.97304 0.0
C1269 C 0.49312 0.89834 0.97466 0.0
C1270 C 0.59151 0.94278 0.96156 0.0
C1271 C 0.5935 0.95368 0.98372 0.0
C1272 C 0.57134 0.92998 0.95569 0.0
C1273 C 0.55263 0.92808 0.9717 0.0
C1274 C 0.55395 0.94022 0.99321 0.0
C1275 C 0.57423 0.95281 -0.00078 0.0
H1276 H 0.88973 0.07523 0.4674 0.0
H1277 H 0.93457 0.01546 0.47995 0.0
H1278 H 0.92364 0.09888 0.45759 0.0
H1279 H 0.96873 0.03801 0.46753 0.0
H1280 H 0.02464 0.09426 0.48398 0.0
H1281 H 0.99522 0.06406 0.47828 0.0
H1282 H 0.95335 0.11297 0.43731 0.0
H1283 H 0.98151 0.14383 0.4463 0.0
C1284 C 0.90697 0.06704 0.4674 0.0
C1285 C 0.90967 0.04374 0.47476 0.0
C1286 C 0.92663 0.08049 0.46136 0.0
C1287 C 0.94953 0.0707 0.46163 0.0
C1288 C 0.9518 0.04671 0.46768 0.0
C1289 C 0.93216 0.03358 0.47467 0.0
C1290 C 0.00942 0.09823 0.47318 0.0
C1291 C 0.0048 0.12142 0.46634 0.0
C1292 C 0.99229 0.08084 0.46986 0.0
C1293 C 0.97074 0.08622 0.4586 0.0
C1294 C 0.96868 0.1084 0.44766 0.0
C1295 C 0.98519 0.12605 0.45213 0.0
loop_
_geom_bond_atom_site_label_1
_geom_bond_atom_site_label_2
_geom_bond_distance
_geom_bond_site_symmetry_2
_ccdc_geom_bond_type
Co0 O1 2.216 . S
Co0 O2 2.091 . S
Co0 O4 2.004 . S
Co0 O10 2.021 . S
Co0 O12 2.137 . S
Co0 O13 2.244 . S
O1 Co0 2.216 . S
O1 C8 1.247 . S
O2 Co0 2.091 . S
O2 C8 1.261 . S
C3 O12 1.247 . S
C3 O13 1.272 . S
O4 Co0 2.004 . S
O4 C9 1.259 . S
Co5 O6 2.061 . S
Co5 O11 2.052 . S
Co5 O13 2.135 . S
O6 Co5 2.061 . S
O6 C9 1.235 . S
C7 O10 1.238 . S
C7 O11 1.241 . S
C8 O1 1.247 . S
C8 O2 1.261 . S
C9 O4 1.259 . S
C9 O6 1.235 . S
O10 Co0 2.021 . S
O10 C7 1.238 . S
O11 Co5 2.052 . S
O11 C7 1.241 . S
O12 Co0 2.137 . S
O12 C3 1.247 . S
O13 Co0 2.244 . S
O13 C3 1.272 . S
O13 Co5 2.135 . S
Co14 O15 2.216 . S
Co14 O16 2.091 . S
Co14 O18 2.004 . S
Co14 O24 2.021 . S
Co14 O26 2.137 . S
Co14 O27 2.244 . S
O15 Co14 2.216 . S
O15 C22 1.247 . S
O16 Co14 2.091 . S
O16 C22 1.261 . S
C17 O26 1.247 . S
C17 O27 1.272 . S
O18 Co14 2.004 . S
O18 C23 1.259 . S
Co19 O20 2.061 . S
Co19 O25 2.052 . S
Co19 O27 2.135 . S
O20 Co19 2.061 . S
O20 C23 1.235 . S
C21 O24 1.238 . S
C21 O25 1.241 . S
C22 O15 1.247 . S
C22 O16 1.261 . S
C23 O18 1.259 . S
C23 O20 1.235 . S
O24 Co14 2.021 . S
O24 C21 1.238 . S
O25 Co19 2.052 . S
O25 C21 1.241 . S
O26 Co14 2.137 . S
O26 C17 1.247 . S
O27 Co14 2.244 . S
O27 C17 1.272 . S
O27 Co19 2.135 . S
Co28 O29 2.216 . S
Co28 O30 2.091 . S
Co28 O32 2.004 . S
Co28 O38 2.021 . S
Co28 O40 2.137 . S
Co28 O41 2.244 . S
O29 Co28 2.216 . S
O29 C36 1.247 . S
O30 Co28 2.091 . S
O30 C36 1.261 . S
C31 O40 1.247 . S
C31 O41 1.272 . S
O32 Co28 2.004 . S
O32 C37 1.259 . S
Co33 O34 2.061 . S
Co33 O39 2.052 . S
Co33 O41 2.135 . S
O34 Co33 2.061 . S
O34 C37 1.235 . S
C35 O38 1.238 . S
C35 O39 1.241 . S
C36 O29 1.247 . S
C36 O30 1.261 . S
C37 O32 1.259 . S
C37 O34 1.235 . S
O38 Co28 2.021 . S
O38 C35 1.238 . S
O39 Co33 2.052 . S
O39 C35 1.241 . S
O40 Co28 2.137 . S
O40 C31 1.247 . S
O41 Co28 2.244 . S
O41 C31 1.272 . S
O41 Co33 2.135 . S
Co42 O43 2.216 . S
Co42 O44 2.091 . S
Co42 O46 2.004 . S
Co42 O52 2.021 . S
Co42 O54 2.137 . S
Co42 O55 2.244 . S
O43 Co42 2.216 . S
O43 C50 1.247 . S
O44 Co42 2.091 . S
O44 C50 1.261 . S
C45 O54 1.247 . S
C45 O55 1.272 . S
O46 Co42 2.004 . S
O46 C51 1.259 . S
Co47 O48 2.061 . S
Co47 O53 2.052 . S
Co47 O55 2.135 . S
O48 Co47 2.061 . S
O48 C51 1.235 . S
C49 O52 1.238 . S
C49 O53 1.241 . S
C50 O43 1.247 . S
C50 O44 1.261 . S
C51 O46 1.259 . S
C51 O48 1.235 . S
O52 Co42 2.021 . S
O52 C49 1.238 . S
O53 Co47 2.052 . S
O53 C49 1.241 . S
O54 Co42 2.137 . S
O54 C45 1.247 . S
O55 Co42 2.244 . S
O55 C45 1.272 . S
O55 Co47 2.135 . S
Co56 O57 2.216 . S
Co56 O58 2.091 . S
Co56 O60 2.004 . S
Co56 O66 2.021 . S
Co56 O68 2.137 . S
Co56 O69 2.244 . S
O57 Co56 2.216 . S
O57 C64 1.247 . S
O58 Co56 2.091 . S
O58 C64 1.261 . S
C59 O68 1.247 . S
C59 O69 1.272 . S
O60 Co56 2.004 . S
O60 C65 1.259 . S
Co61 O62 2.061 . S
Co61 O67 2.052 . S
Co61 O69 2.135 . S
O62 Co61 2.061 . S
O62 C65 1.235 . S
C63 O66 1.238 . S
C63 O67 1.241 . S
C64 O57 1.247 . S
C64 O58 1.261 . S
C65 O60 1.259 . S
C65 O62 1.235 . S
O66 Co56 2.021 . S
O66 C63 1.238 . S
O67 Co61 2.052 . S
O67 C63 1.241 . S
O68 Co56 2.137 . S
O68 C59 1.247 . S
O69 Co56 2.244 . S
O69 C59 1.272 . S
O69 Co61 2.135 . S
Co70 O71 2.216 . S
Co70 O72 2.091 . S
Co70 O74 2.004 . S
Co70 O80 2.021 . S
Co70 O82 2.137 . S
Co70 O83 2.244 . S
O71 Co70 2.216 . S
O71 C78 1.247 . S
O72 Co70 2.091 . S
O72 C78 1.261 . S
C73 O82 1.247 . S
C73 O83 1.272 . S
O74 Co70 2.004 . S
O74 C79 1.259 . S
Co75 O76 2.061 . S
Co75 O81 2.052 . S
Co75 O83 2.135 . S
O76 Co75 2.061 . S
O76 C79 1.235 . S
C77 O80 1.238 . S
C77 O81 1.241 . S
C78 O71 1.247 . S
C78 O72 1.261 . S
C79 O74 1.259 . S
C79 O76 1.235 . S
O80 Co70 2.021 . S
O80 C77 1.238 . S
O81 Co75 2.052 . S
O81 C77 1.241 . S
O82 Co70 2.137 . S
O82 C73 1.247 . S
O83 Co70 2.244 . S
O83 C73 1.272 . S
O83 Co75 2.135 . S
Co84 O85 2.216 . S
Co84 O86 2.091 . S
Co84 O88 2.004 . S
Co84 O94 2.021 . S
Co84 O96 2.137 . S
Co84 O97 2.244 . S
O85 Co84 2.216 . S
O85 C92 1.247 . S
O86 Co84 2.091 . S
O86 C92 1.261 . S
C87 O96 1.247 . S
C87 O97 1.272 . S
O88 Co84 2.004 . S
O88 C93 1.259 . S
Co89 O90 2.061 . S
Co89 O95 2.052 . S
Co89 O97 2.135 . S
O90 Co89 2.061 . S
O90 C93 1.235 . S
C91 O94 1.238 . S
C91 O95 1.241 . S
C92 O85 1.247 . S
C92 O86 1.261 . S
C93 O88 1.259 . S
C93 O90 1.235 . S
O94 Co84 2.021 . S
O94 C91 1.238 . S
O95 Co89 2.052 . S
O95 C91 1.241 . S
O96 Co84 2.137 . S
O96 C87 1.247 . S
O97 Co84 2.244 . S
O97 C87 1.272 . S
O97 Co89 2.135 . S
Co98 O99 2.216 . S
Co98 O100 2.091 . S
Co98 O102 2.004 . S
Co98 O108 2.021 . S
Co98 O110 2.137 . S
Co98 O111 2.244 . S
O99 Co98 2.216 . S
O99 C106 1.247 . S
O100 Co98 2.091 . S
O100 C106 1.261 . S
C101 O110 1.247 . S
C101 O111 1.272 . S
O102 Co98 2.004 . S
O102 C107 1.259 . S
Co103 O104 2.061 . S
Co103 O109 2.052 . S
Co103 O111 2.135 . S
O104 Co103 2.061 . S
O104 C107 1.235 . S
C105 O108 1.238 . S
C105 O109 1.241 . S
C106 O99 1.247 . S
C106 O100 1.261 . S
C107 O102 1.259 . S
C107 O104 1.235 . S
O108 Co98 2.021 . S
O108 C105 1.238 . S
O109 Co103 2.052 . S
O109 C105 1.241 . S
O110 Co98 2.137 . S
O110 C101 1.247 . S
O111 Co98 2.244 . S
O111 C101 1.272 . S
O111 Co103 2.135 . S
Co112 O113 2.216 . S
Co112 O114 2.091 . S
Co112 O116 2.004 . S
Co112 O122 2.021 . S
Co112 O124 2.137 . S
Co112 O125 2.244 . S
O113 Co112 2.216 . S
O113 C120 1.247 . S
O114 Co112 2.091 . S
O114 C120 1.261 . S
C115 O124 1.247 . S
C115 O125 1.272 . S
O116 Co112 2.004 . S
O116 C121 1.259 . S
Co117 O118 2.061 . S
Co117 O123 2.052 . S
Co117 O125 2.135 . S
O118 Co117 2.061 . S
O118 C121 1.235 . S
C119 O122 1.238 . S
C119 O123 1.241 . S
C120 O113 1.247 . S
C120 O114 1.261 . S
C121 O116 1.259 . S
C121 O118 1.235 . S
O122 Co112 2.021 . S
O122 C119 1.238 . S
O123 Co117 2.052 . S
O123 C119 1.241 . S
O124 Co112 2.137 . S
O124 C115 1.247 . S
O125 Co112 2.244 . S
O125 C115 1.272 . S
O125 Co117 2.135 . S
Co126 O127 2.216 . S
Co126 O128 2.091 . S
Co126 O130 2.004 . S
Co126 O136 2.021 . S
Co126 O138 2.137 . S
Co126 O139 2.244 . S
O127 Co126 2.216 . S
O127 C134 1.247 . S
O128 Co126 2.091 . S
O128 C134 1.261 . S
C129 O138 1.247 . S
C129 O139 1.272 . S
O130 Co126 2.004 . S
O130 C135 1.259 . S
Co131 O132 2.061 . S
Co131 O137 2.052 . S
Co131 O139 2.135 . S
O132 Co131 2.061 . S
O132 C135 1.235 . S
C133 O136 1.238 . S
C133 O137 1.241 . S
C134 O127 1.247 . S
C134 O128 1.261 . S
C135 O130 1.259 . S
C135 O132 1.235 . S
O136 Co126 2.021 . S
O136 C133 1.238 . S
O137 Co131 2.052 . S
O137 C133 1.241 . S
O138 Co126 2.137 . S
O138 C129 1.247 . S
O139 Co126 2.244 . S
O139 C129 1.272 . S
O139 Co131 2.135 . S
Co140 O141 2.216 . S
Co140 O142 2.091 . S
Co140 O144 2.004 . S
Co140 O150 2.021 . S
Co140 O152 2.137 . S
Co140 O153 2.244 . S
O141 Co140 2.216 . S
O141 C148 1.247 . S
O142 Co140 2.091 . S
O142 C148 1.261 . S
C143 O152 1.247 . S
C143 O153 1.272 . S
O144 Co140 2.004 . S
O144 C149 1.259 . S
Co145 O146 2.061 . S
Co145 O151 2.052 . S
Co145 O153 2.135 . S
O146 Co145 2.061 . S
O146 C149 1.235 . S
C147 O150 1.238 . S
C147 O151 1.241 . S
C148 O141 1.247 . S
C148 O142 1.261 . S
C149 O144 1.259 . S
C149 O146 1.235 . S
O150 Co140 2.021 . S
O150 C147 1.238 . S
O151 Co145 2.052 . S
O151 C147 1.241 . S
O152 Co140 2.137 . S
O152 C143 1.247 . S
O153 Co140 2.244 . S
O153 C143 1.272 . S
O153 Co145 2.135 . S
Co154 O155 2.216 . S
Co154 O156 2.091 . S
Co154 O158 2.004 . S
Co154 O164 2.021 . S
Co154 O166 2.137 . S
Co154 O167 2.244 . S
O155 Co154 2.216 . S
O155 C162 1.247 . S
O156 Co154 2.091 . S
O156 C162 1.261 . S
C157 O166 1.247 . S
C157 O167 1.272 . S
O158 Co154 2.004 . S
O158 C163 1.259 . S
Co159 O160 2.061 . S
Co159 O165 2.052 . S
Co159 O167 2.135 . S
O160 Co159 2.061 . S
O160 C163 1.235 . S
C161 O164 1.238 . S
C161 O165 1.241 . S
C162 O155 1.247 . S
C162 O156 1.261 . S
C163 O158 1.259 . S
C163 O160 1.235 . S
O164 Co154 2.021 . S
O164 C161 1.238 . S
O165 Co159 2.052 . S
O165 C161 1.241 . S
O166 Co154 2.137 . S
O166 C157 1.247 . S
O167 Co154 2.244 . S
O167 C157 1.272 . S
O167 Co159 2.135 . S
Co168 O169 2.216 . S
Co168 O170 2.091 . S
Co168 O172 2.004 . S
Co168 O178 2.021 . S
Co168 O180 2.137 . S
Co168 O181 2.244 . S
O169 Co168 2.216 . S
O169 C176 1.247 . S
O170 Co168 2.091 . S
O170 C176 1.261 . S
C171 O180 1.247 . S
C171 O181 1.272 . S
O172 Co168 2.004 . S
O172 C177 1.259 . S
Co173 O174 2.061 . S
Co173 O179 2.052 . S
Co173 O181 2.135 . S
O174 Co173 2.061 . S
O174 C177 1.235 . S
C175 O178 1.238 . S
C175 O179 1.241 . S
C176 O169 1.247 . S
C176 O170 1.261 . S
C177 O172 1.259 . S
C177 O174 1.235 . S
O178 Co168 2.021 . S
O178 C175 1.238 . S
O179 Co173 2.052 . S
O179 C175 1.241 . S
O180 Co168 2.137 . S
O180 C171 1.247 . S
O181 Co168 2.244 . S
O181 C171 1.272 . S
O181 Co173 2.135 . S
Co182 O183 2.216 . S
Co182 O184 2.091 . S
Co182 O186 2.004 . S
Co182 O192 2.021 . S
Co182 O194 2.137 . S
Co182 O195 2.244 . S
O183 Co182 2.216 . S
O183 C190 1.247 . S
O184 Co182 2.091 . S
O184 C190 1.261 . S
C185 O194 1.247 . S
C185 O195 1.272 . S
O186 Co182 2.004 . S
O186 C191 1.259 . S
Co187 O188 2.061 . S
Co187 O193 2.052 . S
Co187 O195 2.135 . S
O188 Co187 2.061 . S
O188 C191 1.235 . S
C189 O192 1.238 . S
C189 O193 1.241 . S
C190 O183 1.247 . S
C190 O184 1.261 . S
C191 O186 1.259 . S
C191 O188 1.235 . S
O192 Co182 2.021 . S
O192 C189 1.238 . S
O193 Co187 2.052 . S
O193 C189 1.241 . S
O194 Co182 2.137 . S
O194 C185 1.247 . S
O195 Co182 2.244 . S
O195 C185 1.272 . S
O195 Co187 2.135 . S
Co196 O197 2.216 . S
Co196 O198 2.091 . S
Co196 O200 2.004 . S
Co196 O206 2.021 . S
Co196 O208 2.137 . S
Co196 O209 2.244 . S
O197 Co196 2.216 . S
O197 C204 1.247 . S
O198 Co196 2.091 . S
O198 C204 1.261 . S
C199 O208 1.247 . S
C199 O209 1.272 . S
O200 Co196 2.004 . S
O200 C205 1.259 . S
Co201 O202 2.061 . S
Co201 O207 2.052 . S
Co201 O209 2.135 . S
O202 Co201 2.061 . S
O202 C205 1.235 . S
C203 O206 1.238 . S
C203 O207 1.241 . S
C204 O197 1.247 . S
C204 O198 1.261 . S
C205 O200 1.259 . S
C205 O202 1.235 . S
O206 Co196 2.021 . S
O206 C203 1.238 . S
O207 Co201 2.052 . S
O207 C203 1.241 . S
O208 Co196 2.137 . S
O208 C199 1.247 . S
O209 Co196 2.244 . S
O209 C199 1.272 . S
O209 Co201 2.135 . S
Co210 O211 2.216 . S
Co210 O212 2.091 . S
Co210 O214 2.004 . S
Co210 O220 2.021 . S
Co210 O222 2.137 . S
Co210 O223 2.244 . S
O211 Co210 2.216 . S
O211 C218 1.247 . S
O212 Co210 2.091 . S
O212 C218 1.261 . S
C213 O222 1.247 . S
C213 O223 1.272 . S
O214 Co210 2.004 . S
O214 C219 1.259 . S
Co215 O216 2.061 . S
Co215 O221 2.052 . S
Co215 O223 2.135 . S
O216 Co215 2.061 . S
O216 C219 1.235 . S
C217 O220 1.238 . S
C217 O221 1.241 . S
C218 O211 1.247 . S
C218 O212 1.261 . S
C219 O214 1.259 . S
C219 O216 1.235 . S
O220 Co210 2.021 . S
O220 C217 1.238 . S
O221 Co215 2.052 . S
O221 C217 1.241 . S
O222 Co210 2.137 . S
O222 C213 1.247 . S
O223 Co210 2.244 . S
O223 C213 1.272 . S
O223 Co215 2.135 . S
Co224 O225 2.216 . S
Co224 O226 2.091 . S
Co224 O228 2.004 . S
Co224 O234 2.021 . S
Co224 O236 2.137 . S
Co224 O237 2.244 . S
O225 Co224 2.216 . S
O225 C232 1.247 . S
O226 Co224 2.091 . S
O226 C232 1.261 . S
C227 O236 1.247 . S
C227 O237 1.272 . S
O228 Co224 2.004 . S
O228 C233 1.259 . S
Co229 O230 2.061 . S
Co229 O235 2.052 . S
Co229 O237 2.135 . S
O230 Co229 2.061 . S
O230 C233 1.235 . S
C231 O234 1.238 . S
C231 O235 1.241 . S
C232 O225 1.247 . S
C232 O226 1.261 . S
C233 O228 1.259 . S
C233 O230 1.235 . S
O234 Co224 2.021 . S
O234 C231 1.238 . S
O235 Co229 2.052 . S
O235 C231 1.241 . S
O236 Co224 2.137 . S
O236 C227 1.247 . S
O237 Co224 2.244 . S
O237 C227 1.272 . S
O237 Co229 2.135 . S
Co238 O239 2.216 . S
Co238 O240 2.091 . S
Co238 O242 2.004 . S
Co238 O248 2.021 . S
Co238 O250 2.137 . S
Co238 O251 2.244 . S
O239 Co238 2.216 . S
O239 C246 1.247 . S
O240 Co238 2.091 . S
O240 C246 1.261 . S
C241 O250 1.247 . S
C241 O251 1.272 . S
O242 Co238 2.004 . S
O242 C247 1.259 . S
Co243 O244 2.061 . S
Co243 O249 2.052 . S
Co243 O251 2.135 . S
O244 Co243 2.061 . S
O244 C247 1.235 . S
C245 O248 1.238 . S
C245 O249 1.241 . S
C246 O239 1.247 . S
C246 O240 1.261 . S
C247 O242 1.259 . S
C247 O244 1.235 . S
O248 Co238 2.021 . S
O248 C245 1.238 . S
O249 Co243 2.052 . S
O249 C245 1.241 . S
O250 Co238 2.137 . S
O250 C241 1.247 . S
O251 Co238 2.244 . S
O251 C241 1.272 . S
O251 Co243 2.135 . S
Co252 O253 2.216 . S
Co252 O254 2.091 . S
Co252 O256 2.004 . S
Co252 O262 2.021 . S
Co252 O264 2.137 . S
Co252 O265 2.244 . S
O253 Co252 2.216 . S
O253 C260 1.247 . S
O254 Co252 2.091 . S
O254 C260 1.261 . S
C255 O264 1.247 . S
C255 O265 1.272 . S
O256 Co252 2.004 . S
O256 C261 1.259 . S
Co257 O258 2.061 . S
Co257 O263 2.052 . S
Co257 O265 2.135 . S
O258 Co257 2.061 . S
O258 C261 1.235 . S
C259 O262 1.238 . S
C259 O263 1.241 . S
C260 O253 1.247 . S
C260 O254 1.261 . S
C261 O256 1.259 . S
C261 O258 1.235 . S
O262 Co252 2.021 . S
O262 C259 1.238 . S
O263 Co257 2.052 . S
O263 C259 1.241 . S
O264 Co252 2.137 . S
O264 C255 1.247 . S
O265 Co252 2.244 . S
O265 C255 1.272 . S
O265 Co257 2.135 . S
Co266 O267 2.216 . S
Co266 O268 2.091 . S
Co266 O270 2.004 . S
Co266 O276 2.021 . S
Co266 O278 2.137 . S
Co266 O279 2.244 . S
O267 Co266 2.216 . S
O267 C274 1.247 . S
O268 Co266 2.091 . S
O268 C274 1.261 . S
C269 O278 1.247 . S
C269 O279 1.272 . S
O270 Co266 2.004 . S
O270 C275 1.259 . S
Co271 O272 2.061 . S
Co271 O277 2.052 . S
Co271 O279 2.135 . S
O272 Co271 2.061 . S
O272 C275 1.235 . S
C273 O276 1.238 . S
C273 O277 1.241 . S
C274 O267 1.247 . S
C274 O268 1.261 . S
C275 O270 1.259 . S
C275 O272 1.235 . S
O276 Co266 2.021 . S
O276 C273 1.238 . S
O277 Co271 2.052 . S
O277 C273 1.241 . S
O278 Co266 2.137 . S
O278 C269 1.247 . S
O279 Co266 2.244 . S
O279 C269 1.272 . S
O279 Co271 2.135 . S
Co280 O281 2.216 . S
Co280 O282 2.091 . S
Co280 O284 2.004 . S
Co280 O290 2.021 . S
Co280 O292 2.137 . S
Co280 O293 2.244 . S
O281 Co280 2.216 . S
O281 C288 1.247 . S
O282 Co280 2.091 . S
O282 C288 1.261 . S
C283 O292 1.247 . S
C283 O293 1.272 . S
O284 Co280 2.004 . S
O284 C289 1.259 . S
Co285 O286 2.061 . S
Co285 O291 2.052 . S
Co285 O293 2.135 . S
O286 Co285 2.061 . S
O286 C289 1.235 . S
C287 O290 1.238 . S
C287 O291 1.241 . S
C288 O281 1.247 . S
C288 O282 1.261 . S
C289 O284 1.259 . S
C289 O286 1.235 . S
O290 Co280 2.021 . S
O290 C287 1.238 . S
O291 Co285 2.052 . S
O291 C287 1.241 . S
O292 Co280 2.137 . S
O292 C283 1.247 . S
O293 Co280 2.244 . S
O293 C283 1.272 . S
O293 Co285 2.135 . S
Co294 O295 2.216 . S
Co294 O296 2.091 . S
Co294 O298 2.004 . S
Co294 O304 2.021 . S
Co294 O306 2.137 . S
Co294 O307 2.244 . S
O295 Co294 2.216 . S
O295 C302 1.247 . S
O296 Co294 2.091 . S
O296 C302 1.261 . S
C297 O306 1.247 . S
C297 O307 1.272 . S
O298 Co294 2.004 . S
O298 C303 1.259 . S
Co299 O300 2.061 . S
Co299 O305 2.052 . S
Co299 O307 2.135 . S
O300 Co299 2.061 . S
O300 C303 1.235 . S
C301 O304 1.238 . S
C301 O305 1.241 . S
C302 O295 1.247 . S
C302 O296 1.261 . S
C303 O298 1.259 . S
C303 O300 1.235 . S
O304 Co294 2.021 . S
O304 C301 1.238 . S
O305 Co299 2.052 . S
O305 C301 1.241 . S
O306 Co294 2.137 . S
O306 C297 1.247 . S
O307 Co294 2.244 . S
O307 C297 1.272 . S
O307 Co299 2.135 . S
Co308 O309 2.216 . S
Co308 O310 2.091 . S
Co308 O312 2.004 . S
Co308 O318 2.021 . S
Co308 O320 2.137 . S
Co308 O321 2.244 . S
O309 Co308 2.216 . S
O309 C316 1.247 . S
O310 Co308 2.091 . S
O310 C316 1.261 . S
C311 O320 1.247 . S
C311 O321 1.272 . S
O312 Co308 2.004 . S
O312 C317 1.259 . S
Co313 O314 2.061 . S
Co313 O319 2.052 . S
Co313 O321 2.135 . S
O314 Co313 2.061 . S
O314 C317 1.235 . S
C315 O318 1.238 . S
C315 O319 1.241 . S
C316 O309 1.247 . S
C316 O310 1.261 . S
C317 O312 1.259 . S
C317 O314 1.235 . S
O318 Co308 2.021 . S
O318 C315 1.238 . S
O319 Co313 2.052 . S
O319 C315 1.241 . S
O320 Co308 2.137 . S
O320 C311 1.247 . S
O321 Co308 2.244 . S
O321 C311 1.272 . S
O321 Co313 2.135 . S
Co322 O323 2.216 . S
Co322 O324 2.091 . S
Co322 O326 2.004 . S
Co322 O332 2.021 . S
Co322 O334 2.137 . S
Co322 O335 2.244 . S
O323 Co322 2.216 . S
O323 C330 1.247 . S
O324 Co322 2.091 . S
O324 C330 1.261 . S
C325 O334 1.247 . S
C325 O335 1.272 . S
O326 Co322 2.004 . S
O326 C331 1.259 . S
Co327 O328 2.061 . S
Co327 O333 2.052 . S
Co327 O335 2.135 . S
O328 Co327 2.061 . S
O328 C331 1.235 . S
C329 O332 1.238 . S
C329 O333 1.241 . S
C330 O323 1.247 . S
C330 O324 1.261 . S
C331 O326 1.259 . S
C331 O328 1.235 . S
O332 Co322 2.021 . S
O332 C329 1.238 . S
O333 Co327 2.052 . S
O333 C329 1.241 . S
O334 Co322 2.137 . S
O334 C325 1.247 . S
O335 Co322 2.244 . S
O335 C325 1.272 . S
O335 Co327 2.135 . S
H336 C344 0.950 . S
H337 C349 0.950 . S
H338 C346 0.950 . S
H339 C348 0.950 . S
H340 C350 0.950 . S
H341 C352 0.950 . S
H342 C354 0.950 . S
H343 C355 0.950 . S
C344 H336 0.950 . S
C344 C345 1.386 . S
C344 C346 1.391 . S
C345 C344 1.386 . S
C345 C349 1.393 . S
C346 H338 0.950 . S
C346 C344 1.391 . S
C346 C347 1.400 . S
C347 C346 1.400 . S
C347 C348 1.398 . S
C347 C353 1.491 . S
C348 H339 0.950 . S
C348 C347 1.398 . S
C348 C349 1.391 . S
C349 H337 0.950 . S
C349 C345 1.393 . S
C349 C348 1.391 . S
C350 H340 0.950 . S
C350 C351 1.386 . S
C350 C352 1.391 . S
C351 C350 1.386 . S
C351 C355 1.393 . S
C352 H341 0.950 . S
C352 C350 1.391 . S
C352 C353 1.400 . S
C353 C347 1.491 . S
C353 C352 1.400 . S
C353 C354 1.398 . S
C354 H342 0.950 . S
C354 C353 1.398 . S
C354 C355 1.391 . S
C355 H343 0.950 . S
C355 C351 1.393 . S
C355 C354 1.391 . S
H356 C364 0.950 . S
H357 C369 0.950 . S
H358 C366 0.950 . S
H359 C368 0.950 . S
H360 C370 0.950 . S
H361 C372 0.950 . S
H362 C374 0.950 . S
H363 C375 0.950 . S
C364 H356 0.950 . S
C364 C365 1.386 . S
C364 C366 1.391 . S
C365 C364 1.386 . S
C365 C369 1.393 1_655 S
C366 H358 0.950 . S
C366 C364 1.391 . S
C366 C367 1.400 1_655 S
C367 C366 1.400 1_455 S
C367 C368 1.398 . S
C367 C373 1.491 . S
C368 H359 0.950 . S
C368 C367 1.398 . S
C368 C369 1.391 . S
C369 H357 0.950 . S
C369 C365 1.393 1_455 S
C369 C368 1.391 . S
C370 H360 0.950 . S
C370 C371 1.386 . S
C370 C372 1.391 . S
C371 C370 1.386 . S
C371 C375 1.393 . S
C372 H361 0.950 . S
C372 C370 1.391 . S
C372 C373 1.400 . S
C373 C367 1.491 . S
C373 C372 1.400 . S
C373 C374 1.398 . S
C374 H362 0.950 . S
C374 C373 1.398 . S
C374 C375 1.391 . S
C375 H363 0.950 . S
C375 C371 1.393 . S
C375 C374 1.391 . S
H376 C384 0.950 . S
H377 C389 0.950 . S
H378 C386 0.950 . S
H379 C388 0.950 . S
H380 C390 0.950 . S
H381 C392 0.950 . S
H382 C394 0.950 . S
H383 C395 0.950 . S
C384 H376 0.950 . S
C384 C385 1.386 . S
C384 C386 1.391 . S
C385 C384 1.386 . S
C385 C389 1.393 . S
C386 H378 0.950 . S
C386 C384 1.391 . S
C386 C387 1.400 . S
C387 C386 1.400 . S
C387 C388 1.398 . S
C387 C393 1.491 . S
C388 H379 0.950 . S
C388 C387 1.398 . S
C388 C389 1.391 . S
C389 H377 0.950 . S
C389 C385 1.393 . S
C389 C388 1.391 . S
C390 H380 0.950 . S
C390 C391 1.386 . S
C390 C392 1.391 . S
C391 C390 1.386 . S
C391 C395 1.393 1_554 S
C392 H381 0.950 . S
C392 C390 1.391 . S
C392 C393 1.400 1_554 S
C393 C387 1.491 . S
C393 C392 1.400 1_556 S
C393 C394 1.398 . S
C394 H382 0.950 . S
C394 C393 1.398 . S
C394 C395 1.391 . S
C395 H383 0.950 . S
C395 C391 1.393 1_556 S
C395 C394 1.391 . S
H396 C404 0.950 . S
H397 C409 0.950 . S
H398 C406 0.950 . S
H399 C408 0.950 . S
H400 C410 0.950 . S
H401 C412 0.950 . S
H402 C414 0.950 . S
H403 C415 0.950 . S
C404 H396 0.950 . S
C404 C405 1.386 . S
C404 C406 1.391 . S
C405 C404 1.386 . S
C405 C409 1.393 . S
C406 H398 0.950 . S
C406 C404 1.391 . S
C406 C407 1.400 . S
C407 C406 1.400 . S
C407 C408 1.398 . S
C407 C413 1.491 . S
C408 H399 0.950 . S
C408 C407 1.398 . S
C408 C409 1.391 . S
C409 H397 0.950 . S
C409 C405 1.393 . S
C409 C408 1.391 . S
C410 H400 0.950 . S
C410 C411 1.386 . S
C410 C412 1.391 . S
C411 C410 1.386 . S
C411 C415 1.393 . S
C412 H401 0.950 . S
C412 C410 1.391 . S
C412 C413 1.400 . S
C413 C407 1.491 . S
C413 C412 1.400 . S
C413 C414 1.398 . S
C414 H402 0.950 . S
C414 C413 1.398 . S
C414 C415 1.391 . S
C415 H403 0.950 . S
C415 C411 1.393 . S
C415 C414 1.391 . S
H416 C424 0.950 . S
H417 C429 0.950 . S
H418 C426 0.950 . S
H419 C428 0.950 . S
H420 C430 0.950 . S
H421 C432 0.950 . S
H422 C434 0.950 . S
H423 C435 0.950 . S
C424 H416 0.950 . S
C424 C425 1.386 . S
C424 C426 1.391 . S
C425 C424 1.386 . S
C425 C429 1.393 . S
C426 H418 0.950 . S
C426 C424 1.391 . S
C426 C427 1.400 . S
C427 C426 1.400 . S
C427 C428 1.398 . S
C427 C433 1.491 . S
C428 H419 0.950 . S
C428 C427 1.398 . S
C428 C429 1.391 . S
C429 H417 0.950 . S
C429 C425 1.393 . S
C429 C428 1.391 . S
C430 H420 0.950 . S
C430 C431 1.386 . S
C430 C432 1.391 . S
C431 C430 1.386 . S
C431 C435 1.393 . S
C432 H421 0.950 . S
C432 C430 1.391 . S
C432 C433 1.400 . S
C433 C427 1.491 . S
C433 C432 1.400 . S
C433 C434 1.398 . S
C434 H422 0.950 . S
C434 C433 1.398 . S
C434 C435 1.391 . S
C435 H423 0.950 . S
C435 C431 1.393 . S
C435 C434 1.391 . S
H436 C444 0.950 . S
H437 C449 0.950 . S
H438 C446 0.950 . S
H439 C448 0.950 . S
H440 C450 0.950 . S
H441 C452 0.950 . S
H442 C454 0.950 . S
H443 C455 0.950 . S
C444 H436 0.950 . S
C444 C445 1.386 . S
C444 C446 1.391 . S
C445 C444 1.386 . S
C445 C449 1.393 . S
C446 H438 0.950 . S
C446 C444 1.391 . S
C446 C447 1.400 . S
C447 C446 1.400 . S
C447 C448 1.398 . S
C447 C453 1.491 . S
C448 H439 0.950 . S
C448 C447 1.398 . S
C448 C449 1.391 . S
C449 H437 0.950 . S
C449 C445 1.393 . S
C449 C448 1.391 . S
C450 H440 0.950 . S
C450 C451 1.386 . S
C450 C452 1.391 1_455 S
C451 C450 1.386 . S
C451 C455 1.393 . S
C452 H441 0.950 . S
C452 C450 1.391 1_655 S
C452 C453 1.400 . S
C453 C447 1.491 . S
C453 C452 1.400 . S
C453 C454 1.398 . S
C454 H442 0.950 . S
C454 C453 1.398 . S
C454 C455 1.391 1_655 S
C455 H443 0.950 . S
C455 C451 1.393 . S
C455 C454 1.391 1_455 S
H456 C464 0.950 . S
H457 C469 0.950 . S
H458 C466 0.950 . S
H459 C468 0.950 . S
H460 C470 0.950 . S
H461 C472 0.950 . S
H462 C474 0.950 . S
H463 C475 0.950 . S
C464 H456 0.950 . S
C464 C465 1.386 . S
C464 C466 1.391 . S
C465 C464 1.386 . S
C465 C469 1.393 . S
C466 H458 0.950 . S
C466 C464 1.391 . S
C466 C467 1.400 . S
C467 C466 1.400 . S
C467 C468 1.398 . S
C467 C473 1.491 . S
C468 H459 0.950 . S
C468 C467 1.398 . S
C468 C469 1.391 . S
C469 H457 0.950 . S
C469 C465 1.393 . S
C469 C468 1.391 . S
C470 H460 0.950 . S
C470 C471 1.386 . S
C470 C472 1.391 . S
C471 C470 1.386 . S
C471 C475 1.393 1_556 S
C472 H461 0.950 . S
C472 C470 1.391 . S
C472 C473 1.400 1_556 S
C473 C467 1.491 . S
C473 C472 1.400 1_554 S
C473 C474 1.398 . S
C474 H462 0.950 . S
C474 C473 1.398 . S
C474 C475 1.391 . S
C475 H463 0.950 . S
C475 C471 1.393 1_554 S
C475 C474 1.391 . S
H476 C484 0.950 . S
H477 C489 0.950 . S
H478 C486 0.950 . S
H479 C488 0.950 . S
H480 C490 0.950 . S
H481 C492 0.950 . S
H482 C494 0.950 . S
H483 C495 0.950 . S
C484 H476 0.950 . S
C484 C485 1.386 . S
C484 C486 1.391 . S
C485 C484 1.386 . S
C485 C489 1.393 . S
C486 H478 0.950 . S
C486 C484 1.391 . S
C486 C487 1.400 . S
C487 C486 1.400 . S
C487 C488 1.398 . S
C487 C493 1.491 . S
C488 H479 0.950 . S
C488 C487 1.398 . S
C488 C489 1.391 . S
C489 H477 0.950 . S
C489 C485 1.393 . S
C489 C488 1.391 . S
C490 H480 0.950 . S
C490 C491 1.386 . S
C490 C492 1.391 . S
C491 C490 1.386 . S
C491 C495 1.393 . S
C492 H481 0.950 . S
C492 C490 1.391 . S
C492 C493 1.400 . S
C493 C487 1.491 . S
C493 C492 1.400 . S
C493 C494 1.398 . S
C494 H482 0.950 . S
C494 C493 1.398 . S
C494 C495 1.391 . S
C495 H483 0.950 . S
C495 C491 1.393 . S
C495 C494 1.391 . S
H496 C504 0.950 . S
H497 C509 0.950 . S
H498 C506 0.950 . S
H499 C508 0.950 . S
H500 C510 0.950 . S
H501 C512 0.950 . S
H502 C514 0.950 . S
H503 C515 0.950 . S
C504 H496 0.950 . S
C504 C505 1.386 . S
C504 C506 1.391 . S
C505 C504 1.386 . S
C505 C509 1.393 . S
C506 H498 0.950 . S
C506 C504 1.391 . S
C506 C507 1.400 . S
C507 C506 1.400 . S
C507 C508 1.398 . S
C507 C513 1.491 . S
C508 H499 0.950 . S
C508 C507 1.398 . S
C508 C509 1.391 . S
C509 H497 0.950 . S
C509 C505 1.393 . S
C509 C508 1.391 . S
C510 H500 0.950 . S
C510 C511 1.386 . S
C510 C512 1.391 . S
C511 C510 1.386 . S
C511 C515 1.393 . S
C512 H501 0.950 . S
C512 C510 1.391 . S
C512 C513 1.400 . S
C513 C507 1.491 . S
C513 C512 1.400 . S
C513 C514 1.398 . S
C514 H502 0.950 . S
C514 C513 1.398 . S
C514 C515 1.391 . S
C515 H503 0.950 . S
C515 C511 1.393 . S
C515 C514 1.391 . S
H516 C524 0.950 . S
H517 C529 0.950 . S
H518 C526 0.950 . S
H519 C528 0.950 . S
H520 C530 0.950 . S
H521 C532 0.950 . S
H522 C534 0.950 . S
H523 C535 0.950 . S
C524 H516 0.950 . S
C524 C525 1.386 1_545 S
C524 C526 1.391 . S
C525 C524 1.386 1_565 S
C525 C529 1.393 . S
C526 H518 0.950 . S
C526 C524 1.391 . S
C526 C527 1.400 . S
C527 C526 1.400 . S
C527 C528 1.398 1_545 S
C527 C533 1.491 . S
C528 H519 0.950 . S
C528 C527 1.398 1_565 S
C528 C529 1.391 . S
C529 H517 0.950 . S
C529 C525 1.393 . S
C529 C528 1.391 . S
C530 H520 0.950 . S
C530 C531 1.386 . S
C530 C532 1.391 . S
C531 C530 1.386 . S
C531 C535 1.393 . S
C532 H521 0.950 . S
C532 C530 1.391 . S
C532 C533 1.400 . S
C533 C527 1.491 . S
C533 C532 1.400 . S
C533 C534 1.398 . S
C534 H522 0.950 . S
C534 C533 1.398 . S
C534 C535 1.391 . S
C535 H523 0.950 . S
C535 C531 1.393 . S
C535 C534 1.391 . S
H536 C544 0.950 . S
H537 C549 0.950 . S
H538 C546 0.950 . S
H539 C548 0.950 . S
H540 C550 0.950 . S
H541 C552 0.950 . S
H542 C554 0.950 . S
H543 C555 0.950 . S
C544 H536 0.950 . S
C544 C545 1.386 . S
C544 C546 1.391 . S
C545 C544 1.386 . S
C545 C549 1.393 . S
C546 H538 0.950 . S
C546 C544 1.391 . S
C546 C547 1.400 . S
C547 C546 1.400 . S
C547 C548 1.398 . S
C547 C553 1.491 . S
C548 H539 0.950 . S
C548 C547 1.398 . S
C548 C549 1.391 . S
C549 H537 0.950 . S
C549 C545 1.393 . S
C549 C548 1.391 . S
C550 H540 0.950 . S
C550 C551 1.386 1_565 S
C550 C552 1.391 . S
C551 C550 1.386 1_545 S
C551 C555 1.393 . S
C552 H541 0.950 . S
C552 C550 1.391 . S
C552 C553 1.400 . S
C553 C547 1.491 . S
C553 C552 1.400 . S
C553 C554 1.398 1_565 S
C554 H542 0.950 . S
C554 C553 1.398 1_545 S
C554 C555 1.391 . S
C555 H543 0.950 . S
C555 C551 1.393 . S
C555 C554 1.391 . S
H556 C564 0.950 . S
H557 C569 0.950 . S
H558 C566 0.950 . S
H559 C568 0.950 . S
H560 C570 0.950 . S
H561 C572 0.950 . S
H562 C574 0.950 . S
H563 C575 0.950 . S
C564 H556 0.950 . S
C564 C565 1.386 . S
C564 C566 1.391 . S
C565 C564 1.386 . S
C565 C569 1.393 . S
C566 H558 0.950 . S
C566 C564 1.391 . S
C566 C567 1.400 . S
C567 C566 1.400 . S
C567 C568 1.398 . S
C567 C573 1.491 . S
C568 H559 0.950 . S
C568 C567 1.398 . S
C568 C569 1.391 . S
C569 H557 0.950 . S
C569 C565 1.393 . S
C569 C568 1.391 . S
C570 H560 0.950 . S
C570 C571 1.386 . S
C570 C572 1.391 . S
C571 C570 1.386 . S
C571 C575 1.393 . S
C572 H561 0.950 . S
C572 C570 1.391 . S
C572 C573 1.400 . S
C573 C567 1.491 . S
C573 C572 1.400 . S
C573 C574 1.398 . S
C574 H562 0.950 . S
C574 C573 1.398 . S
C574 C575 1.391 . S
C575 H563 0.950 . S
C575 C571 1.393 . S
C575 C574 1.391 . S
H576 C584 0.950 . S
H577 C589 0.950 . S
H578 C586 0.950 . S
H579 C588 0.950 . S
H580 C590 0.950 . S
H581 C592 0.950 . S
H582 C594 0.950 . S
H583 C595 0.950 . S
C584 H576 0.950 . S
C584 C585 1.386 . S
C584 C586 1.391 . S
C585 C584 1.386 . S
C585 C589 1.393 . S
C586 H578 0.950 . S
C586 C584 1.391 . S
C586 C587 1.400 . S
C587 C586 1.400 . S
C587 C588 1.398 . S
C587 C593 1.491 . S
C588 H579 0.950 . S
C588 C587 1.398 . S
C588 C589 1.391 . S
C589 H577 0.950 . S
C589 C585 1.393 . S
C589 C588 1.391 . S
C590 H580 0.950 . S
C590 C591 1.386 . S
C590 C592 1.391 . S
C591 C590 1.386 . S
C591 C595 1.393 . S
C592 H581 0.950 . S
C592 C590 1.391 . S
C592 C593 1.400 . S
C593 C587 1.491 . S
C593 C592 1.400 . S
C593 C594 1.398 . S
C594 H582 0.950 . S
C594 C593 1.398 . S
C594 C595 1.391 . S
C595 H583 0.950 . S
C595 C591 1.393 . S
C595 C594 1.391 . S
H596 C604 0.950 . S
H597 C609 0.950 . S
H598 C606 0.950 . S
H599 C608 0.950 . S
H600 C610 0.950 . S
H601 C612 0.950 . S
H602 C614 0.950 . S
H603 C615 0.950 . S
C604 H596 0.950 . S
C604 C605 1.386 . S
C604 C606 1.391 . S
C605 C604 1.386 . S
C605 C609 1.393 . S
C606 H598 0.950 . S
C606 C604 1.391 . S
C606 C607 1.400 1_565 S
C607 C606 1.400 1_545 S
C607 C608 1.398 . S
C607 C613 1.491 . S
C608 H599 0.950 . S
C608 C607 1.398 . S
C608 C609 1.391 1_545 S
C609 H597 0.950 . S
C609 C605 1.393 . S
C609 C608 1.391 1_565 S
C610 H600 0.950 . S
C610 C611 1.386 . S
C610 C612 1.391 . S
C611 C610 1.386 . S
C611 C615 1.393 . S
C612 H601 0.950 . S
C612 C610 1.391 . S
C612 C613 1.400 . S
C613 C607 1.491 . S
C613 C612 1.400 . S
C613 C614 1.398 . S
C614 H602 0.950 . S
C614 C613 1.398 . S
C614 C615 1.391 . S
C615 H603 0.950 . S
C615 C611 1.393 . S
C615 C614 1.391 . S
H616 C624 0.950 . S
H617 C629 0.950 . S
H618 C626 0.950 . S
H619 C628 0.950 . S
H620 C630 0.950 . S
H621 C632 0.950 . S
H622 C634 0.950 . S
H623 C635 0.950 . S
C624 H616 0.950 . S
C624 C625 1.386 . S
C624 C626 1.391 . S
C625 C624 1.386 . S
C625 C629 1.393 . S
C626 H618 0.950 . S
C626 C624 1.391 . S
C626 C627 1.400 . S
C627 C626 1.400 . S
C627 C628 1.398 . S
C627 C633 1.491 . S
C628 H619 0.950 . S
C628 C627 1.398 . S
C628 C629 1.391 . S
C629 H617 0.950 . S
C629 C625 1.393 . S
C629 C628 1.391 . S
C630 H620 0.950 . S
C630 C631 1.386 . S
C630 C632 1.391 . S
C631 C630 1.386 . S
C631 C635 1.393 . S
C632 H621 0.950 . S
C632 C630 1.391 . S
C632 C633 1.400 1_554 S
C633 C627 1.491 . S
C633 C632 1.400 1_556 S
C633 C634 1.398 . S
C634 H622 0.950 . S
C634 C633 1.398 . S
C634 C635 1.391 1_556 S
C635 H623 0.950 . S
C635 C631 1.393 . S
C635 C634 1.391 1_554 S
H636 C644 0.950 . S
H637 C649 0.950 . S
H638 C646 0.950 . S
H639 C648 0.950 1_565 S
H640 C650 0.950 . S
H641 C652 0.950 . S
H642 C654 0.950 . S
H643 C655 0.950 . S
C644 H636 0.950 . S
C644 C645 1.386 . S
C644 C646 1.391 . S
C645 C644 1.386 . S
C645 C649 1.393 . S
C646 H638 0.950 . S
C646 C644 1.391 . S
C646 C647 1.400 1_545 S
C647 C646 1.400 1_565 S
C647 C648 1.398 1_565 S
C647 C653 1.491 . S
C648 H639 0.950 1_545 S
C648 C647 1.398 1_545 S
C648 C649 1.391 . S
C649 H637 0.950 . S
C649 C645 1.393 . S
C649 C648 1.391 . S
C650 H640 0.950 . S
C650 C651 1.386 . S
C650 C652 1.391 . S
C651 C650 1.386 . S
C651 C655 1.393 . S
C652 H641 0.950 . S
C652 C650 1.391 . S
C652 C653 1.400 . S
C653 C647 1.491 . S
C653 C652 1.400 . S
C653 C654 1.398 . S
C654 H642 0.950 . S
C654 C653 1.398 . S
C654 C655 1.391 . S
C655 H643 0.950 . S
C655 C651 1.393 . S
C655 C654 1.391 . S
H656 C664 0.950 . S
H657 C669 0.950 . S
H658 C666 0.950 . S
H659 C668 0.950 . S
H660 C670 0.950 . S
H661 C672 0.950 . S
H662 C674 0.950 . S
H663 C675 0.950 . S
C664 H656 0.950 . S
C664 C665 1.386 . S
C664 C666 1.391 . S
C665 C664 1.386 . S
C665 C669 1.393 . S
C666 H658 0.950 . S
C666 C664 1.391 . S
C666 C667 1.400 . S
C667 C666 1.400 . S
C667 C668 1.398 . S
C667 C673 1.491 . S
C668 H659 0.950 . S
C668 C667 1.398 . S
C668 C669 1.391 . S
C669 H657 0.950 . S
C669 C665 1.393 . S
C669 C668 1.391 . S
C670 H660 0.950 . S
C670 C671 1.386 . S
C670 C672 1.391 . S
C671 C670 1.386 . S
C671 C675 1.393 . S
C672 H661 0.950 . S
C672 C670 1.391 . S
C672 C673 1.400 . S
C673 C667 1.491 . S
C673 C672 1.400 . S
C673 C674 1.398 . S
C674 H662 0.950 . S
C674 C673 1.398 . S
C674 C675 1.391 . S
C675 H663 0.950 . S
C675 C671 1.393 . S
C675 C674 1.391 . S
H676 C684 0.950 . S
H677 C689 0.950 . S
H678 C686 0.950 . S
H679 C688 0.950 . S
H680 C690 0.950 . S
H681 C692 0.950 . S
H682 C694 0.950 . S
H683 C695 0.950 . S
C684 H676 0.950 . S
C684 C685 1.386 . S
C684 C686 1.391 . S
C685 C684 1.386 . S
C685 C689 1.393 . S
C686 H678 0.950 . S
C686 C684 1.391 . S
C686 C687 1.400 . S
C687 C686 1.400 . S
C687 C688 1.398 . S
C687 C693 1.491 . S
C688 H679 0.950 . S
C688 C687 1.398 . S
C688 C689 1.391 . S
C689 H677 0.950 . S
C689 C685 1.393 . S
C689 C688 1.391 . S
C690 H680 0.950 . S
C690 C691 1.386 . S
C690 C692 1.391 . S
C691 C690 1.386 . S
C691 C695 1.393 . S
C692 H681 0.950 . S
C692 C690 1.391 . S
C692 C693 1.400 . S
C693 C687 1.491 . S
C693 C692 1.400 . S
C693 C694 1.398 . S
C694 H682 0.950 . S
C694 C693 1.398 . S
C694 C695 1.391 . S
C695 H683 0.950 . S
C695 C691 1.393 . S
C695 C694 1.391 . S
H696 C704 0.940 1_554 S
H697 C709 0.950 . S
H698 C706 0.950 . S
H699 C708 0.950 . S
H700 C710 0.950 . S
H701 C712 0.950 1_556 S
H702 C714 0.950 . S
H703 C715 0.950 . S
C704 H696 0.940 1_556 S
C704 C705 1.386 . S
C704 C706 1.391 1_556 S
C705 C704 1.386 . S
C705 C709 1.393 . S
C706 H698 0.950 . S
C706 C704 1.391 1_554 S
C706 C707 1.400 . S
C707 C706 1.400 . S
C707 C708 1.398 1_554 S
C707 C713 1.491 . S
C708 H699 0.950 . S
C708 C707 1.398 1_556 S
C708 C709 1.391 . S
C709 H697 0.950 . S
C709 C705 1.393 . S
C709 C708 1.391 . S
C710 H700 0.950 . S
C710 C711 1.386 . S
C710 C712 1.391 . S
C711 C710 1.386 . S
C711 C715 1.393 . S
C712 H701 0.950 1_554 S
C712 C710 1.391 . S
C712 C713 1.400 . S
C713 C707 1.491 . S
C713 C712 1.400 . S
C713 C714 1.398 . S
C714 H702 0.950 . S
C714 C713 1.398 . S
C714 C715 1.391 . S
C715 H703 0.950 . S
C715 C711 1.393 . S
C715 C714 1.391 . S
H716 C724 0.950 . S
H717 C729 0.950 . S
H718 C726 0.950 . S
H719 C728 0.950 . S
H720 C730 0.950 . S
H721 C732 0.950 . S
H722 C734 0.950 . S
H723 C735 0.950 . S
C724 H716 0.950 . S
C724 C725 1.386 . S
C724 C726 1.391 . S
C725 C724 1.386 . S
C725 C729 1.393 . S
C726 H718 0.950 . S
C726 C724 1.391 . S
C726 C727 1.400 . S
C727 C726 1.400 . S
C727 C728 1.398 . S
C727 C733 1.491 . S
C728 H719 0.950 . S
C728 C727 1.398 . S
C728 C729 1.391 . S
C729 H717 0.950 . S
C729 C725 1.393 . S
C729 C728 1.391 . S
C730 H720 0.950 . S
C730 C731 1.386 . S
C730 C732 1.391 . S
C731 C730 1.386 . S
C731 C735 1.393 . S
C732 H721 0.950 . S
C732 C730 1.391 . S
C732 C733 1.400 . S
C733 C727 1.491 . S
C733 C732 1.400 . S
C733 C734 1.398 . S
C734 H722 0.950 . S
C734 C733 1.398 . S
C734 C735 1.391 . S
C735 H723 0.950 . S
C735 C731 1.393 . S
C735 C734 1.391 . S
H736 C744 0.950 . S
H737 C749 0.950 . S
H738 C746 0.950 . S
H739 C748 0.950 . S
H740 C750 0.950 . S
H741 C752 0.950 . S
H742 C754 0.950 . S
H743 C755 0.950 . S
C744 H736 0.950 . S
C744 C745 1.386 . S
C744 C746 1.391 . S
C745 C744 1.386 . S
C745 C749 1.393 . S
C746 H738 0.950 . S
C746 C744 1.391 . S
C746 C747 1.400 . S
C747 C746 1.400 . S
C747 C748 1.398 . S
C747 C753 1.491 . S
C748 H739 0.950 . S
C748 C747 1.398 . S
C748 C749 1.391 . S
C749 H737 0.950 . S
C749 C745 1.393 . S
C749 C748 1.391 . S
C750 H740 0.950 . S
C750 C751 1.386 . S
C750 C752 1.391 . S
C751 C750 1.386 . S
C751 C755 1.393 . S
C752 H741 0.950 . S
C752 C750 1.391 . S
C752 C753 1.400 . S
C753 C747 1.491 . S
C753 C752 1.400 . S
C753 C754 1.398 . S
C754 H742 0.950 . S
C754 C753 1.398 . S
C754 C755 1.391 . S
C755 H743 0.950 . S
C755 C751 1.393 . S
C755 C754 1.391 . S
H756 C764 0.950 . S
H757 C769 0.950 1_655 S
H758 C766 0.950 . S
H759 C768 0.950 . S
H760 C770 0.950 . S
H761 C772 0.950 . S
H762 C774 0.950 1_455 S
H763 C775 0.950 . S
C764 H756 0.950 . S
C764 C765 1.386 . S
C764 C766 1.391 . S
C765 C764 1.386 . S
C765 C769 1.393 . S
C766 H758 0.950 . S
C766 C764 1.391 . S
C766 C767 1.400 1_455 S
C767 C766 1.400 1_655 S
C767 C768 1.398 . S
C767 C773 1.491 . S
C768 H759 0.950 . S
C768 C767 1.398 . S
C768 C769 1.391 1_655 S
C769 H757 0.950 1_455 S
C769 C765 1.393 . S
C769 C768 1.391 1_455 S
C770 H760 0.950 . S
C770 C771 1.386 . S
C770 C772 1.391 . S
C771 C770 1.386 . S
C771 C775 1.393 . S
C772 H761 0.950 . S
C772 C770 1.391 . S
C772 C773 1.400 . S
C773 C767 1.491 . S
C773 C772 1.400 . S
C773 C774 1.398 . S
C774 H762 0.950 1_655 S
C774 C773 1.398 . S
C774 C775 1.391 . S
C775 H763 0.950 . S
C775 C771 1.393 . S
C775 C774 1.391 . S
H776 C784 0.950 . S
H777 C789 0.950 . S
H778 C786 0.950 . S
H779 C788 0.950 . S
H780 C790 0.950 . S
H781 C792 0.950 . S
H782 C794 0.919 1_655 S
H783 C795 0.950 . S
C784 H776 0.950 . S
C784 C785 1.386 . S
C784 C786 1.391 . S
C785 C784 1.386 . S
C785 C789 1.393 . S
C786 H778 0.950 . S
C786 C784 1.391 . S
C786 C787 1.400 1_655 S
C787 C786 1.400 1_455 S
C787 C788 1.398 . S
C787 C793 1.491 . S
C788 H779 0.950 . S
C788 C787 1.398 . S
C788 C789 1.391 1_455 S
C789 H777 0.950 . S
C789 C785 1.393 . S
C789 C788 1.391 1_655 S
C790 H780 0.950 . S
C790 C791 1.386 . S
C790 C792 1.391 . S
C791 C790 1.386 . S
C791 C795 1.393 . S
C792 H781 0.950 . S
C792 C790 1.391 . S
C792 C793 1.400 . S
C793 C787 1.491 . S
C793 C792 1.400 . S
C793 C794 1.398 . S
C794 H782 0.919 1_455 S
C794 C793 1.398 . S
C794 C795 1.391 . S
C795 H783 0.950 . S
C795 C791 1.393 . S
C795 C794 1.391 . S
H796 C804 0.950 . S
H797 C809 0.950 . S
H798 C806 0.950 . S
H799 C808 0.950 . S
H800 C810 0.950 . S
H801 C812 0.950 . S
H802 C814 0.950 . S
H803 C815 0.950 . S
C804 H796 0.950 . S
C804 C805 1.386 . S
C804 C806 1.391 . S
C805 C804 1.386 . S
C805 C809 1.393 . S
C806 H798 0.950 . S
C806 C804 1.391 . S
C806 C807 1.400 . S
C807 C806 1.400 . S
C807 C808 1.398 . S
C807 C813 1.491 . S
C808 H799 0.950 . S
C808 C807 1.398 . S
C808 C809 1.391 . S
C809 H797 0.950 . S
C809 C805 1.393 . S
C809 C808 1.391 . S
C810 H800 0.950 . S
C810 C811 1.386 . S
C810 C812 1.391 . S
C811 C810 1.386 . S
C811 C815 1.393 . S
C812 H801 0.950 . S
C812 C810 1.391 . S
C812 C813 1.400 . S
C813 C807 1.491 . S
C813 C812 1.400 . S
C813 C814 1.398 . S
C814 H802 0.950 . S
C814 C813 1.398 . S
C814 C815 1.391 . S
C815 H803 0.950 . S
C815 C811 1.393 . S
C815 C814 1.391 . S
H816 C824 0.950 . S
H817 C829 0.950 . S
H818 C826 0.950 . S
H819 C828 0.950 . S
H820 C830 0.950 . S
H821 C832 0.950 . S
H822 C834 0.950 . S
H823 C835 0.950 . S
C824 H816 0.950 . S
C824 C825 1.386 . S
C824 C826 1.391 . S
C825 C824 1.386 . S
C825 C829 1.393 . S
C826 H818 0.950 . S
C826 C824 1.391 . S
C826 C827 1.400 . S
C827 C826 1.400 . S
C827 C828 1.398 . S
C827 C833 1.491 . S
C828 H819 0.950 . S
C828 C827 1.398 . S
C828 C829 1.391 . S
C829 H817 0.950 . S
C829 C825 1.393 . S
C829 C828 1.391 . S
C830 H820 0.950 . S
C830 C831 1.386 . S
C830 C832 1.391 . S
C831 C830 1.386 . S
C831 C835 1.393 . S
C832 H821 0.950 . S
C832 C830 1.391 . S
C832 C833 1.400 . S
C833 C827 1.491 . S
C833 C832 1.400 . S
C833 C834 1.398 . S
C834 H822 0.950 . S
C834 C833 1.398 . S
C834 C835 1.391 . S
C835 H823 0.950 . S
C835 C831 1.393 . S
C835 C834 1.391 . S
H836 C844 0.950 . S
H837 C849 0.950 . S
H838 C846 0.950 . S
H839 C848 0.950 . S
H840 C850 0.950 . S
H841 C852 0.950 . S
H842 C854 0.950 . S
H843 C855 0.950 . S
C844 H836 0.950 . S
C844 C845 1.386 . S
C844 C846 1.391 1_545 S
C845 C844 1.386 . S
C845 C849 1.393 1_545 S
C846 H838 0.950 . S
C846 C844 1.391 1_565 S
C846 C847 1.400 . S
C847 C846 1.400 . S
C847 C848 1.398 . S
C847 C853 1.491 . S
C848 H839 0.950 . S
C848 C847 1.398 . S
C848 C849 1.391 . S
C849 H837 0.950 . S
C849 C845 1.393 1_565 S
C849 C848 1.391 . S
C850 H840 0.950 . S
C850 C851 1.386 . S
C850 C852 1.391 . S
C851 C850 1.386 . S
C851 C855 1.393 . S
C852 H841 0.950 . S
C852 C850 1.391 . S
C852 C853 1.400 . S
C853 C847 1.491 . S
C853 C852 1.400 . S
C853 C854 1.398 . S
C854 H842 0.950 . S
C854 C853 1.398 . S
C854 C855 1.391 . S
C855 H843 0.950 . S
C855 C851 1.393 . S
C855 C854 1.391 . S
H856 C864 0.950 . S
H857 C869 0.950 . S
H858 C866 0.950 . S
H859 C868 0.950 . S
H860 C870 0.950 . S
H861 C872 0.950 . S
H862 C874 0.950 . S
H863 C875 0.950 . S
C864 H856 0.950 . S
C864 C865 1.386 . S
C864 C866 1.391 . S
C865 C864 1.386 . S
C865 C869 1.393 . S
C866 H858 0.950 . S
C866 C864 1.391 . S
C866 C867 1.400 . S
C867 C866 1.400 . S
C867 C868 1.398 . S
C867 C873 1.491 . S
C868 H859 0.950 . S
C868 C867 1.398 . S
C868 C869 1.391 . S
C869 H857 0.950 . S
C869 C865 1.393 . S
C869 C868 1.391 . S
C870 H860 0.950 . S
C870 C871 1.386 . S
C870 C872 1.391 . S
C871 C870 1.386 . S
C871 C875 1.393 . S
C872 H861 0.950 . S
C872 C870 1.391 . S
C872 C873 1.400 . S
C873 C867 1.491 . S
C873 C872 1.400 . S
C873 C874 1.398 . S
C874 H862 0.950 . S
C874 C873 1.398 . S
C874 C875 1.391 . S
C875 H863 0.950 . S
C875 C871 1.393 . S
C875 C874 1.391 . S
H876 C884 0.950 . S
H877 C889 0.950 . S
H878 C886 0.950 . S
H879 C888 0.950 . S
H880 C890 0.950 . S
H881 C892 0.950 . S
H882 C894 0.950 . S
H883 C895 0.948 1_556 S
C884 H876 0.950 . S
C884 C885 1.386 . S
C884 C886 1.391 . S
C885 C884 1.386 . S
C885 C889 1.393 . S
C886 H878 0.950 . S
C886 C884 1.391 . S
C886 C887 1.400 . S
C887 C886 1.400 . S
C887 C888 1.398 . S
C887 C893 1.491 . S
C888 H879 0.950 . S
C888 C887 1.398 . S
C888 C889 1.391 . S
C889 H877 0.950 . S
C889 C885 1.393 . S
C889 C888 1.391 . S
C890 H880 0.950 . S
C890 C891 1.386 1_545 S
C890 C892 1.391 1_556 S
C891 C890 1.386 1_565 S
C891 C895 1.380 1_556 S
C892 H881 0.950 . S
C892 C890 1.391 1_554 S
C892 C893 1.400 . S
C893 C887 1.491 . S
C893 C892 1.400 . S
C893 C894 1.398 . S
C894 H882 0.950 . S
C894 C893 1.398 . S
C894 C895 1.405 1_545 S
C895 H883 0.948 1_554 S
C895 C891 1.380 1_554 S
C895 C894 1.405 1_565 S
H896 C904 0.950 . S
H897 C909 0.950 . S
H898 C906 0.950 . S
H899 C908 0.950 . S
H900 C910 0.950 . S
H901 C912 0.950 . S
H902 C914 0.950 . S
H903 C915 0.950 . S
C904 H896 0.950 . S
C904 C905 1.386 . S
C904 C906 1.391 . S
C905 C904 1.386 . S
C905 C909 1.393 . S
C906 H898 0.950 . S
C906 C904 1.391 . S
C906 C907 1.400 . S
C907 C906 1.400 . S
C907 C908 1.398 . S
C907 C913 1.491 . S
C908 H899 0.950 . S
C908 C907 1.398 . S
C908 C909 1.391 . S
C909 H897 0.950 . S
C909 C905 1.393 . S
C909 C908 1.391 . S
C910 H900 0.950 . S
C910 C911 1.386 . S
C910 C912 1.391 . S
C911 C910 1.386 . S
C911 C915 1.393 . S
C912 H901 0.950 . S
C912 C910 1.391 . S
C912 C913 1.400 . S
C913 C907 1.491 . S
C913 C912 1.400 . S
C913 C914 1.398 . S
C914 H902 0.950 . S
C914 C913 1.398 . S
C914 C915 1.391 . S
C915 H903 0.950 . S
C915 C911 1.393 . S
C915 C914 1.391 . S
H916 C924 0.950 . S
H917 C929 0.950 . S
H918 C926 0.950 . S
H919 C928 0.950 . S
H920 C930 0.950 . S
H921 C932 0.950 . S
H922 C934 0.950 . S
H923 C935 0.950 . S
C924 H916 0.950 . S
C924 C925 1.386 1_556 S
C924 C926 1.391 . S
C925 C924 1.386 1_554 S
C925 C929 1.393 . S
C926 H918 0.950 . S
C926 C924 1.391 . S
C926 C927 1.400 . S
C927 C926 1.400 . S
C927 C928 1.398 . S
C927 C933 1.491 . S
C928 H919 0.950 . S
C928 C927 1.398 . S
C928 C929 1.391 1_556 S
C929 H917 0.950 . S
C929 C925 1.393 . S
C929 C928 1.391 1_554 S
C930 H920 0.950 . S
C930 C931 1.386 . S
C930 C932 1.391 . S
C931 C930 1.386 . S
C931 C935 1.393 . S
C932 H921 0.950 . S
C932 C930 1.391 . S
C932 C933 1.400 . S
C933 C927 1.491 . S
C933 C932 1.400 . S
C933 C934 1.398 . S
C934 H922 0.950 . S
C934 C933 1.398 . S
C934 C935 1.391 . S
C935 H923 0.950 . S
C935 C931 1.393 . S
C935 C934 1.391 . S
H936 C944 0.950 . S
H937 C949 0.950 . S
H938 C946 0.950 . S
H939 C948 0.950 . S
H940 C950 0.950 . S
H941 C952 0.950 . S
H942 C954 0.950 . S
H943 C955 0.950 . S
C944 H936 0.950 . S
C944 C945 1.386 . S
C944 C946 1.391 . S
C945 C944 1.386 . S
C945 C949 1.393 . S
C946 H938 0.950 . S
C946 C944 1.391 . S
C946 C947 1.400 . S
C947 C946 1.400 . S
C947 C948 1.398 . S
C947 C953 1.491 . S
C948 H939 0.950 . S
C948 C947 1.398 . S
C948 C949 1.391 . S
C949 H937 0.950 . S
C949 C945 1.393 . S
C949 C948 1.391 . S
C950 H940 0.950 . S
C950 C951 1.386 . S
C950 C952 1.391 . S
C951 C950 1.386 . S
C951 C955 1.393 . S
C952 H941 0.950 . S
C952 C950 1.391 . S
C952 C953 1.400 . S
C953 C947 1.491 . S
C953 C952 1.400 . S
C953 C954 1.398 . S
C954 H942 0.950 . S
C954 C953 1.398 . S
C954 C955 1.391 . S
C955 H943 0.950 . S
C955 C951 1.393 . S
C955 C954 1.391 . S
H956 C964 0.950 . S
H957 C969 0.950 . S
H958 C966 0.950 . S
H959 C968 0.950 . S
H960 C970 0.950 . S
H961 C972 0.950 . S
H962 C974 0.950 . S
H963 C975 0.950 . S
C964 H956 0.950 . S
C964 C965 1.386 . S
C964 C966 1.391 . S
C965 C964 1.386 . S
C965 C969 1.393 . S
C966 H958 0.950 . S
C966 C964 1.391 . S
C966 C967 1.400 . S
C967 C966 1.400 . S
C967 C968 1.398 . S
C967 C973 1.491 . S
C968 H959 0.950 . S
C968 C967 1.398 . S
C968 C969 1.391 . S
C969 H957 0.950 . S
C969 C965 1.393 . S
C969 C968 1.391 . S
C970 H960 0.950 . S
C970 C971 1.386 . S
C970 C972 1.391 . S
C971 C970 1.386 . S
C971 C975 1.393 . S
C972 H961 0.950 . S
C972 C970 1.391 . S
C972 C973 1.400 . S
C973 C967 1.491 . S
C973 C972 1.400 . S
C973 C974 1.398 . S
C974 H962 0.950 . S
C974 C973 1.398 . S
C974 C975 1.391 . S
C975 H963 0.950 . S
C975 C971 1.393 . S
C975 C974 1.391 . S
H976 C984 0.950 . S
H977 C989 0.950 . S
H978 C986 0.950 . S
H979 C988 0.950 . S
H980 C990 0.950 . S
H981 C992 0.950 . S
H982 C994 0.950 . S
H983 C995 0.950 . S
C984 H976 0.950 . S
C984 C985 1.386 . S
C984 C986 1.391 . S
C985 C984 1.386 . S
C985 C989 1.393 . S
C986 H978 0.950 . S
C986 C984 1.391 . S
C986 C987 1.400 . S
C987 C986 1.400 . S
C987 C988 1.398 . S
C987 C993 1.491 . S
C988 H979 0.950 . S
C988 C987 1.398 . S
C988 C989 1.391 . S
C989 H977 0.950 . S
C989 C985 1.393 . S
C989 C988 1.391 . S
C990 H980 0.950 . S
C990 C991 1.386 . S
C990 C992 1.391 . S
C991 C990 1.386 . S
C991 C995 1.393 . S
C992 H981 0.950 . S
C992 C990 1.391 . S
C992 C993 1.400 . S
C993 C987 1.491 . S
C993 C992 1.400 . S
C993 C994 1.398 . S
C994 H982 0.950 . S
C994 C993 1.398 . S
C994 C995 1.391 . S
C995 H983 0.950 . S
C995 C991 1.393 . S
C995 C994 1.391 . S
H996 C1004 0.950 . S
H997 C1009 0.952 . S
H998 C1006 0.950 . S
H999 C1008 0.950 . S
H1000 C1010 0.950 . S
H1001 C1012 0.950 . S
H1002 C1014 0.950 . S
H1003 C1015 0.950 . S
C1004 H996 0.950 . S
C1004 C1005 1.386 . S
C1004 C1006 1.391 1_665 S
C1005 C1004 1.386 . S
C1005 C1009 1.397 . S
C1006 H998 0.950 . S
C1006 C1004 1.391 1_445 S
C1006 C1007 1.400 . S
C1007 C1006 1.400 . S
C1007 C1008 1.398 . S
C1007 C1013 1.491 . S
C1008 H999 0.950 . S
C1008 C1007 1.398 . S
C1008 C1009 1.385 1_445 S
C1009 H997 0.952 . S
C1009 C1005 1.397 . S
C1009 C1008 1.385 1_665 S
C1010 H1000 0.950 . S
C1010 C1011 1.386 . S
C1010 C1012 1.391 . S
C1011 C1010 1.386 . S
C1011 C1015 1.393 . S
C1012 H1001 0.950 . S
C1012 C1010 1.391 . S
C1012 C1013 1.400 . S
C1013 C1007 1.491 . S
C1013 C1012 1.400 . S
C1013 C1014 1.398 . S
C1014 H1002 0.950 . S
C1014 C1013 1.398 . S
C1014 C1015 1.391 . S
C1015 H1003 0.950 . S
C1015 C1011 1.393 . S
C1015 C1014 1.391 . S
H1016 C1024 0.950 . S
H1017 C1029 0.950 . S
H1018 C1026 0.950 . S
H1019 C1028 0.950 . S
H1020 C1030 0.950 . S
H1021 C1032 0.950 . S
H1022 C1034 0.950 . S
H1023 C1035 0.950 . S
C1024 H1016 0.950 . S
C1024 C1025 1.386 . S
C1024 C1026 1.391 . S
C1025 C1024 1.386 . S
C1025 C1029 1.393 . S
C1026 H1018 0.950 . S
C1026 C1024 1.391 . S
C1026 C1027 1.400 . S
C1027 C1026 1.400 . S
C1027 C1028 1.398 . S
C1027 C1033 1.491 . S
C1028 H1019 0.950 . S
C1028 C1027 1.398 . S
C1028 C1029 1.391 . S
C1029 H1017 0.950 . S
C1029 C1025 1.393 . S
C1029 C1028 1.391 . S
C1030 H1020 0.950 . S
C1030 C1031 1.386 . S
C1030 C1032 1.391 . S
C1031 C1030 1.386 . S
C1031 C1035 1.393 . S
C1032 H1021 0.950 . S
C1032 C1030 1.391 . S
C1032 C1033 1.400 . S
C1033 C1027 1.491 . S
C1033 C1032 1.400 . S
C1033 C1034 1.398 . S
C1034 H1022 0.950 . S
C1034 C1033 1.398 . S
C1034 C1035 1.391 . S
C1035 H1023 0.950 . S
C1035 C1031 1.393 . S
C1035 C1034 1.391 . S
H1036 C1044 0.950 . S
H1037 C1049 0.950 . S
H1038 C1046 0.950 . S
H1039 C1048 0.950 . S
H1040 C1050 0.950 . S
H1041 C1052 0.950 . S
H1042 C1054 0.950 . S
H1043 C1055 0.950 . S
C1044 H1036 0.950 . S
C1044 C1045 1.386 1_565 S
C1044 C1046 1.391 . S
C1045 C1044 1.386 1_545 S
C1045 C1049 1.393 . S
C1046 H1038 0.950 . S
C1046 C1044 1.391 . S
C1046 C1047 1.400 . S
C1047 C1046 1.400 . S
C1047 C1048 1.398 . S
C1047 C1053 1.491 . S
C1048 H1039 0.950 . S
C1048 C1047 1.398 . S
C1048 C1049 1.391 1_565 S
C1049 H1037 0.950 . S
C1049 C1045 1.393 . S
C1049 C1048 1.391 1_545 S
C1050 H1040 0.950 . S
C1050 C1051 1.386 . S
C1050 C1052 1.391 . S
C1051 C1050 1.386 . S
C1051 C1055 1.393 . S
C1052 H1041 0.950 . S
C1052 C1050 1.391 . S
C1052 C1053 1.400 . S
C1053 C1047 1.491 . S
C1053 C1052 1.400 . S
C1053 C1054 1.398 . S
C1054 H1042 0.950 . S
C1054 C1053 1.398 . S
C1054 C1055 1.391 . S
C1055 H1043 0.950 . S
C1055 C1051 1.393 . S
C1055 C1054 1.391 . S
H1056 C1064 0.950 . S
H1057 C1069 0.950 . S
H1058 C1066 0.950 . S
H1059 C1068 0.950 . S
H1060 C1070 0.950 . S
H1061 C1072 0.950 . S
H1062 C1074 0.950 . S
H1063 C1075 0.950 . S
C1064 H1056 0.950 . S
C1064 C1065 1.386 . S
C1064 C1066 1.391 . S
C1065 C1064 1.386 . S
C1065 C1069 1.393 . S
C1066 H1058 0.950 . S
C1066 C1064 1.391 . S
C1066 C1067 1.400 . S
C1067 C1066 1.400 . S
C1067 C1068 1.398 . S
C1067 C1073 1.491 . S
C1068 H1059 0.950 . S
C1068 C1067 1.398 . S
C1068 C1069 1.391 . S
C1069 H1057 0.950 . S
C1069 C1065 1.393 . S
C1069 C1068 1.391 . S
C1070 H1060 0.950 . S
C1070 C1071 1.386 . S
C1070 C1072 1.391 . S
C1071 C1070 1.386 . S
C1071 C1075 1.393 . S
C1072 H1061 0.950 . S
C1072 C1070 1.391 . S
C1072 C1073 1.400 . S
C1073 C1067 1.491 . S
C1073 C1072 1.400 . S
C1073 C1074 1.398 . S
C1074 H1062 0.950 . S
C1074 C1073 1.398 . S
C1074 C1075 1.391 . S
C1075 H1063 0.950 . S
C1075 C1071 1.393 . S
C1075 C1074 1.391 . S
H1076 C1084 0.950 . S
H1077 C1089 0.950 . S
H1078 C1086 0.946 1_455 S
H1079 C1088 0.950 . S
H1080 C1090 0.950 . S
H1081 C1092 0.950 . S
H1082 C1094 0.950 . S
H1083 C1095 0.950 . S
C1084 H1076 0.950 . S
C1084 C1085 1.386 . S
C1084 C1086 1.383 1_455 S
C1085 C1084 1.386 . S
C1085 C1089 1.393 1_455 S
C1086 H1078 0.946 1_655 S
C1086 C1084 1.383 1_655 S
C1086 C1087 1.412 . S
C1087 C1086 1.412 . S
C1087 C1088 1.398 . S
C1087 C1093 1.491 . S
C1088 H1079 0.950 . S
C1088 C1087 1.398 . S
C1088 C1089 1.391 . S
C1089 H1077 0.950 . S
C1089 C1085 1.393 1_655 S
C1089 C1088 1.391 . S
C1090 H1080 0.950 . S
C1090 C1091 1.386 . S
C1090 C1092 1.391 . S
C1091 C1090 1.386 . S
C1091 C1095 1.393 . S
C1092 H1081 0.950 . S
C1092 C1090 1.391 . S
C1092 C1093 1.400 . S
C1093 C1087 1.491 . S
C1093 C1092 1.400 . S
C1093 C1094 1.398 . S
C1094 H1082 0.950 . S
C1094 C1093 1.398 . S
C1094 C1095 1.391 . S
C1095 H1083 0.950 . S
C1095 C1091 1.393 . S
C1095 C1094 1.391 . S
H1096 C1104 0.950 . S
H1097 C1109 0.950 . S
H1098 C1106 0.950 . S
H1099 C1108 0.950 . S
H1100 C1110 0.950 . S
H1101 C1112 0.950 . S
H1102 C1114 0.950 . S
H1103 C1115 0.950 . S
C1104 H1096 0.950 . S
C1104 C1105 1.386 . S
C1104 C1106 1.391 . S
C1105 C1104 1.386 . S
C1105 C1109 1.393 . S
C1106 H1098 0.950 . S
C1106 C1104 1.391 . S
C1106 C1107 1.400 . S
C1107 C1106 1.400 . S
C1107 C1108 1.398 . S
C1107 C1113 1.491 . S
C1108 H1099 0.950 . S
C1108 C1107 1.398 . S
C1108 C1109 1.391 . S
C1109 H1097 0.950 . S
C1109 C1105 1.393 . S
C1109 C1108 1.391 . S
C1110 H1100 0.950 . S
C1110 C1111 1.386 . S
C1110 C1112 1.391 . S
C1111 C1110 1.386 . S
C1111 C1115 1.393 . S
C1112 H1101 0.950 . S
C1112 C1110 1.391 . S
C1112 C1113 1.400 . S
C1113 C1107 1.491 . S
C1113 C1112 1.400 . S
C1113 C1114 1.398 . S
C1114 H1102 0.950 . S
C1114 C1113 1.398 . S
C1114 C1115 1.391 . S
C1115 H1103 0.950 . S
C1115 C1111 1.393 . S
C1115 C1114 1.391 . S
H1116 C1124 0.950 . S
H1117 C1129 0.950 . S
H1118 C1126 0.950 . S
H1119 C1128 0.950 . S
H1120 C1130 0.950 . S
H1121 C1132 0.950 . S
H1122 C1134 0.950 . S
H1123 C1135 0.950 . S
C1124 H1116 0.950 . S
C1124 C1125 1.386 . S
C1124 C1126 1.391 . S
C1125 C1124 1.386 . S
C1125 C1129 1.393 . S
C1126 H1118 0.950 . S
C1126 C1124 1.391 . S
C1126 C1127 1.400 . S
C1127 C1126 1.400 . S
C1127 C1128 1.398 . S
C1127 C1133 1.491 . S
C1128 H1119 0.950 . S
C1128 C1127 1.398 . S
C1128 C1129 1.391 . S
C1129 H1117 0.950 . S
C1129 C1125 1.393 . S
C1129 C1128 1.391 . S
C1130 H1120 0.950 . S
C1130 C1131 1.386 . S
C1130 C1132 1.391 . S
C1131 C1130 1.386 . S
C1131 C1135 1.393 . S
C1132 H1121 0.950 . S
C1132 C1130 1.391 . S
C1132 C1133 1.400 . S
C1133 C1127 1.491 . S
C1133 C1132 1.400 . S
C1133 C1134 1.398 . S
C1134 H1122 0.950 . S
C1134 C1133 1.398 . S
C1134 C1135 1.391 . S
C1135 H1123 0.950 . S
C1135 C1131 1.393 . S
C1135 C1134 1.391 . S
H1136 C1144 0.950 . S
H1137 C1149 0.950 . S
H1138 C1146 0.950 . S
H1139 C1148 0.950 . S
H1140 C1150 0.950 . S
H1141 C1152 0.950 . S
H1142 C1154 0.950 . S
H1143 C1155 0.950 . S
C1144 H1136 0.950 . S
C1144 C1145 1.386 . S
C1144 C1146 1.391 . S
C1145 C1144 1.386 . S
C1145 C1149 1.393 . S
C1146 H1138 0.950 . S
C1146 C1144 1.391 . S
C1146 C1147 1.400 . S
C1147 C1146 1.400 . S
C1147 C1148 1.398 . S
C1147 C1153 1.491 . S
C1148 H1139 0.950 . S
C1148 C1147 1.398 . S
C1148 C1149 1.391 . S
C1149 H1137 0.950 . S
C1149 C1145 1.393 . S
C1149 C1148 1.391 . S
C1150 H1140 0.950 . S
C1150 C1151 1.386 . S
C1150 C1152 1.391 . S
C1151 C1150 1.386 . S
C1151 C1155 1.393 . S
C1152 H1141 0.950 . S
C1152 C1150 1.391 . S
C1152 C1153 1.400 . S
C1153 C1147 1.491 . S
C1153 C1152 1.400 . S
C1153 C1154 1.398 . S
C1154 H1142 0.950 . S
C1154 C1153 1.398 . S
C1154 C1155 1.391 . S
C1155 H1143 0.950 . S
C1155 C1151 1.393 . S
C1155 C1154 1.391 . S
H1156 C1164 0.950 . S
H1157 C1169 0.950 . S
H1158 C1166 0.950 . S
H1159 C1168 0.950 . S
H1160 C1170 0.950 . S
H1161 C1172 0.950 . S
H1162 C1174 0.950 . S
H1163 C1175 0.950 . S
C1164 H1156 0.950 . S
C1164 C1165 1.386 . S
C1164 C1166 1.391 . S
C1165 C1164 1.386 . S
C1165 C1169 1.393 . S
C1166 H1158 0.950 . S
C1166 C1164 1.391 . S
C1166 C1167 1.400 . S
C1167 C1166 1.400 . S
C1167 C1168 1.398 . S
C1167 C1173 1.491 . S
C1168 H1159 0.950 . S
C1168 C1167 1.398 . S
C1168 C1169 1.391 . S
C1169 H1157 0.950 . S
C1169 C1165 1.393 . S
C1169 C1168 1.391 . S
C1170 H1160 0.950 . S
C1170 C1171 1.386 . S
C1170 C1172 1.391 . S
C1171 C1170 1.386 . S
C1171 C1175 1.393 . S
C1172 H1161 0.950 . S
C1172 C1170 1.391 . S
C1172 C1173 1.400 . S
C1173 C1167 1.491 . S
C1173 C1172 1.400 . S
C1173 C1174 1.398 . S
C1174 H1162 0.950 . S
C1174 C1173 1.398 . S
C1174 C1175 1.391 . S
C1175 H1163 0.950 . S
C1175 C1171 1.393 . S
C1175 C1174 1.391 . S
H1176 C1184 0.950 . S
H1177 C1189 0.950 . S
H1178 C1186 0.950 . S
H1179 C1188 0.950 . S
H1180 C1190 0.950 . S
H1181 C1192 0.950 . S
H1182 C1194 0.950 . S
H1183 C1195 0.950 . S
C1184 H1176 0.950 . S
C1184 C1185 1.386 1_554 S
C1184 C1186 1.391 1_655 S
C1185 C1184 1.386 1_556 S
C1185 C1189 1.393 1_655 S
C1186 H1178 0.950 . S
C1186 C1184 1.391 1_455 S
C1186 C1187 1.400 . S
C1187 C1186 1.400 . S
C1187 C1188 1.398 1_554 S
C1187 C1193 1.491 . S
C1188 H1179 0.950 . S
C1188 C1187 1.398 1_556 S
C1188 C1189 1.391 . S
C1189 H1177 0.950 . S
C1189 C1185 1.393 1_455 S
C1189 C1188 1.391 . S
C1190 H1180 0.950 . S
C1190 C1191 1.386 . S
C1190 C1192 1.391 . S
C1191 C1190 1.386 . S
C1191 C1195 1.393 . S
C1192 H1181 0.950 . S
C1192 C1190 1.391 . S
C1192 C1193 1.400 . S
C1193 C1187 1.491 . S
C1193 C1192 1.400 . S
C1193 C1194 1.398 . S
C1194 H1182 0.950 . S
C1194 C1193 1.398 . S
C1194 C1195 1.391 . S
C1195 H1183 0.950 . S
C1195 C1191 1.393 . S
C1195 C1194 1.391 . S
H1196 C1204 0.950 . S
H1197 C1209 0.950 . S
H1198 C1206 0.950 . S
H1199 C1208 0.950 . S
H1200 C1210 0.950 . S
H1201 C1212 0.950 . S
H1202 C1214 0.950 . S
H1203 C1215 0.950 . S
C1204 H1196 0.950 . S
C1204 C1205 1.386 . S
C1204 C1206 1.391 . S
C1205 C1204 1.386 . S
C1205 C1209 1.393 . S
C1206 H1198 0.950 . S
C1206 C1204 1.391 . S
C1206 C1207 1.400 . S
C1207 C1206 1.400 . S
C1207 C1208 1.398 . S
C1207 C1213 1.491 . S
C1208 H1199 0.950 . S
C1208 C1207 1.398 . S
C1208 C1209 1.391 . S
C1209 H1197 0.950 . S
C1209 C1205 1.393 . S
C1209 C1208 1.391 . S
C1210 H1200 0.950 . S
C1210 C1211 1.386 . S
C1210 C1212 1.391 . S
C1211 C1210 1.386 . S
C1211 C1215 1.393 . S
C1212 H1201 0.950 . S
C1212 C1210 1.391 . S
C1212 C1213 1.400 . S
C1213 C1207 1.491 . S
C1213 C1212 1.400 . S
C1213 C1214 1.398 . S
C1214 H1202 0.950 . S
C1214 C1213 1.398 . S
C1214 C1215 1.391 . S
C1215 H1203 0.950 . S
C1215 C1211 1.393 . S
C1215 C1214 1.391 . S
H1216 C1224 0.950 . S
H1217 C1229 0.950 . S
H1218 C1226 0.950 . S
H1219 C1228 0.950 . S
H1220 C1230 0.950 . S
H1221 C1232 0.950 . S
H1222 C1234 0.950 . S
H1223 C1235 0.950 . S
C1224 H1216 0.950 . S
C1224 C1225 1.386 . S
C1224 C1226 1.391 . S
C1225 C1224 1.386 . S
C1225 C1229 1.393 . S
C1226 H1218 0.950 . S
C1226 C1224 1.391 . S
C1226 C1227 1.400 . S
C1227 C1226 1.400 . S
C1227 C1228 1.398 . S
C1227 C1233 1.491 . S
C1228 H1219 0.950 . S
C1228 C1227 1.398 . S
C1228 C1229 1.391 . S
C1229 H1217 0.950 . S
C1229 C1225 1.393 . S
C1229 C1228 1.391 . S
C1230 H1220 0.950 . S
C1230 C1231 1.386 . S
C1230 C1232 1.391 . S
C1231 C1230 1.386 . S
C1231 C1235 1.393 . S
C1232 H1221 0.950 . S
C1232 C1230 1.391 . S
C1232 C1233 1.400 . S
C1233 C1227 1.491 . S
C1233 C1232 1.400 . S
C1233 C1234 1.398 . S
C1234 H1222 0.950 . S
C1234 C1233 1.398 . S
C1234 C1235 1.391 . S
C1235 H1223 0.950 . S
C1235 C1231 1.393 . S
C1235 C1234 1.391 . S
H1236 C1244 0.950 . S
H1237 C1249 0.950 . S
H1238 C1246 0.950 . S
H1239 C1248 0.950 . S
H1240 C1250 0.950 . S
H1241 C1252 0.950 . S
H1242 C1254 0.950 . S
H1243 C1255 0.950 . S
C1244 H1236 0.950 . S
C1244 C1245 1.386 . S
C1244 C1246 1.391 . S
C1245 C1244 1.386 . S
C1245 C1249 1.393 . S
C1246 H1238 0.950 . S
C1246 C1244 1.391 . S
C1246 C1247 1.400 . S
C1247 C1246 1.400 . S
C1247 C1248 1.398 . S
C1247 C1253 1.491 . S
C1248 H1239 0.950 . S
C1248 C1247 1.398 . S
C1248 C1249 1.391 . S
C1249 H1237 0.950 . S
C1249 C1245 1.393 . S
C1249 C1248 1.391 . S
C1250 H1240 0.950 . S
C1250 C1251 1.386 . S
C1250 C1252 1.391 . S
C1251 C1250 1.386 . S
C1251 C1255 1.393 . S
C1252 H1241 0.950 . S
C1252 C1250 1.391 . S
C1252 C1253 1.400 . S
C1253 C1247 1.491 . S
C1253 C1252 1.400 . S
C1253 C1254 1.398 . S
C1254 H1242 0.950 . S
C1254 C1253 1.398 . S
C1254 C1255 1.391 . S
C1255 H1243 0.950 . S
C1255 C1251 1.393 . S
C1255 C1254 1.391 . S
H1256 C1264 0.950 . S
H1257 C1269 0.950 . S
H1258 C1266 0.950 . S
H1259 C1268 0.950 . S
H1260 C1270 0.950 . S
H1261 C1272 0.950 . S
H1262 C1274 0.995 . S
H1263 C1275 0.950 . S
C1264 H1256 0.950 . S
C1264 C1265 1.386 . S
C1264 C1266 1.391 . S
C1265 C1264 1.386 . S
C1265 C1269 1.393 1_554 S
C1266 H1258 0.950 . S
C1266 C1264 1.391 . S
C1266 C1267 1.400 1_554 S
C1267 C1266 1.400 1_556 S
C1267 C1268 1.398 . S
C1267 C1273 1.491 . S
C1268 H1259 0.950 . S
C1268 C1267 1.398 . S
C1268 C1269 1.391 . S
C1269 H1257 0.950 . S
C1269 C1265 1.393 1_556 S
C1269 C1268 1.391 . S
C1270 H1260 0.950 . S
C1270 C1271 1.386 . S
C1270 C1272 1.391 . S
C1271 C1270 1.386 . S
C1271 C1275 1.393 . S
C1272 H1261 0.950 . S
C1272 C1270 1.391 . S
C1272 C1273 1.400 . S
C1273 C1267 1.491 . S
C1273 C1272 1.400 . S
C1273 C1274 1.398 . S
C1274 H1262 0.995 . S
C1274 C1273 1.398 . S
C1274 C1275 1.391 . S
C1275 H1263 0.950 . S
C1275 C1271 1.393 . S
C1275 C1274 1.391 . S
H1276 C1284 0.950 . S
H1277 C1289 0.950 . S
H1278 C1286 0.950 . S
H1279 C1288 0.950 . S
H1280 C1290 0.950 . S
H1281 C1292 0.950 . S
H1282 C1294 0.950 . S
H1283 C1295 0.950 . S
C1284 H1276 0.950 . S
C1284 C1285 1.386 . S
C1284 C1286 1.391 . S
C1285 C1284 1.386 . S
C1285 C1289 1.393 . S
C1286 H1278 0.950 . S
C1286 C1284 1.391 . S
C1286 C1287 1.400 . S
C1287 C1286 1.400 . S
C1287 C1288 1.398 . S
C1287 C1293 1.491 . S
C1288 H1279 0.950 . S
C1288 C1287 1.398 . S
C1288 C1289 1.391 . S
C1289 H1277 0.950 . S
C1289 C1285 1.393 . S
C1289 C1288 1.391 . S
C1290 H1280 0.950 . S
C1290 C1291 1.386 . S
C1290 C1292 1.391 1_455 S
C1291 C1290 1.386 . S
C1291 C1295 1.393 . S
C1292 H1281 0.950 . S
C1292 C1290 1.391 1_655 S
C1292 C1293 1.400 . S
C1293 C1287 1.491 . S
C1293 C1292 1.400 . S
C1293 C1294 1.398 . S
C1294 H1282 0.950 . S
C1294 C1293 1.398 . S
C1294 C1295 1.391 1_655 S
C1295 H1283 0.950 . S
C1295 C1291 1.393 . S
C1295 C1294 1.391 1_455 S
C345 C134 1.191 . S
C351 C8 1.187 . S
C365 C22 1.196 . S
C371 C148 1.198 . S
C385 C36 1.176 . S
C391 C162 1.176 . S
C405 C50 1.194 . S
C411 C120 1.197 . S
C425 C64 1.176 . S
C431 C218 1.178 . S
C445 C176 1.191 . S
C451 C78 1.194 . S
C465 C92 1.177 . S
C471 C190 1.180 . S
C485 C204 1.185 . S
C491 C106 1.189 . S
C505 C232 1.182 . S
C511 C260 1.179 . S
C525 C316 1.184 . S
C531 C246 1.181 . S
C545 C274 1.195 . S
C551 C330 1.198 . S
C565 C302 1.193 . S
C571 C288 1.197 . S
C585 C287 1.681 . S
C591 C7 1.706 . S
C605 C21 1.682 . S
C611 C245 1.704 . S
C625 C35 1.711 . S
C631 C259 1.683 . S
C645 C49 1.711 . S
C651 C273 1.683 . S
C665 C63 1.682 . S
C671 C329 1.710 . S
C685 C301 1.698 . S
C691 C77 1.707 . S
C705 C315 1.698 . S
C711 C91 1.707 . S
C725 C231 1.712 . S
C731 C105 1.686 . S
C745 C217 1.684 . S
C751 C119 1.698 . S
C765 C133 1.698 . S
C771 C175 1.684 . S
C785 C189 1.686 . S
C791 C147 1.695 . S
C805 C203 1.681 . S
C811 C161 1.705 . S
C825 C9 1.019 . S
C831 C227 1.139 . S
C845 C325 1.124 . S
C851 C23 1.065 . S
C865 C297 1.130 . S
C871 C37 1.032 . S
C885 C51 1.020 . S
C891 C311 1.140 . S
C905 C65 1.030 . S
C911 C241 1.143 . S
C925 C255 1.139 . S
C931 C79 1.019 . S
C945 C269 1.127 . S
C951 C93 1.040 . S
C965 C283 1.140 . S
C971 C107 1.020 . S
C985 C3 1.135 . S
C991 C121 1.023 . S
C1005 C17 1.124 . S
C1011 C135 1.068 . S
C1025 C31 1.137 . S
C1031 C149 1.020 . S
C1045 C45 1.139 . S
C1051 C163 1.019 . S
C1065 C59 1.138 . S
C1071 C177 1.020 . S
C1085 C73 1.139 . S
C1091 C191 1.019 . S
C1105 C205 1.019 . S
C1111 C87 1.138 . S
C1125 C101 1.137 . S
C1131 C219 1.020 . S
C1145 C115 1.135 . S
C1151 C233 1.023 . S
C1165 C247 1.063 . S
C1171 C171 1.124 . S
C1185 C185 1.131 . S
C1191 C261 1.072 . S
C1205 C275 1.024 . S
C1211 C199 1.134 . S
C1225 C289 1.068 . S
C1231 C213 1.134 . S
C1245 C303 1.024 . S
C1251 C143 1.134 . S
C1265 C157 1.128 . S
C1271 C317 1.036 . S
C1285 C331 1.032 . S
C1291 C129 1.143 . S
