# Generated by pormake.
# Topology wgb, (5)-cn, num edge types: 1
# Building blocks:
#     Node 0, Type 0, BuildingBlock: XOMCOT_clean_sbu_1, # of connection points: 5
#     Node 1, Type 0, BuildingBlock: XOMCOT_clean_sbu_1, # of connection points: 5
#     Node 2, Type 0, BuildingBlock: XOMCOT_clean_sbu_1, # of connection points: 5
#     Node 3, Type 0, BuildingBlock: XOMCOT_clean_sbu_1, # of connection points: 5
#     Node 4, Type 0, BuildingBlock: XOMCOT_clean_sbu_1, # of connection points: 5
#     Node 5, Type 0, BuildingBlock: XOMCOT_clean_sbu_1, # of connection points: 5
#     Node 6, Type 0, BuildingBlock: XOMCOT_clean_sbu_1, # of connection points: 5
#     Node 7, Type 0, BuildingBlock: XOMCOT_clean_sbu_1, # of connection points: 5
#     Node 8, Type 0, BuildingBlock: XOMCOT_clean_sbu_1, # of connection points: 5
#     Node 9, Type 0, BuildingBlock: XOMCOT_clean_sbu_1, # of connection points: 5
#     Node 10, Type 0, BuildingBlock: XOMCOT_clean_sbu_1, # of connection points: 5
#     Node 11, Type 0, BuildingBlock: XOMCOT_clean_sbu_1, # of connection points: 5
#     Node 12, Type 0, BuildingBlock: XOMCOT_clean_sbu_1, # of connection points: 5
#     Node 13, Type 0, BuildingBlock: XOMCOT_clean_sbu_1, # of connection points: 5
#     Node 14, Type 0, BuildingBlock: XOMCOT_clean_sbu_1, # of connection points: 5
#     Node 15, Type 0, BuildingBlock: XOMCOT_clean_sbu_1, # of connection points: 5
#     Edge 16, Type (0, 0), BuildingBlock: XIVTED_clean_linker_0, # of connection points: 2
#     Edge 17, Type (0, 0), BuildingBlock: XIVTED_clean_linker_0, # of connection points: 2
#     Edge 18, Type (0, 0), BuildingBlock: XIVTED_clean_linker_0, # of connection points: 2
#     Edge 19, Type (0, 0), BuildingBlock: XIVTED_clean_linker_0, # of connection points: 2
#     Edge 20, Type (0, 0), BuildingBlock: XIVTED_clean_linker_0, # of connection points: 2
#     Edge 21, Type (0, 0), BuildingBlock: XIVTED_clean_linker_0, # of connection points: 2
#     Edge 22, Type (0, 0), BuildingBlock: XIVTED_clean_linker_0, # of connection points: 2
#     Edge 23, Type (0, 0), BuildingBlock: XIVTED_clean_linker_0, # of connection points: 2
#     Edge 24, Type (0, 0), BuildingBlock: XIVTED_clean_linker_0, # of connection points: 2
#     Edge 25, Type (0, 0), BuildingBlock: XIVTED_clean_linker_0, # of connection points: 2
#     Edge 26, Type (0, 0), BuildingBlock: XIVTED_clean_linker_0, # of connection points: 2
#     Edge 27, Type (0, 0), BuildingBlock: XIVTED_clean_linker_0, # of connection points: 2
#     Edge 28, Type (0, 0), BuildingBlock: XIVTED_clean_linker_0, # of connection points: 2
#     Edge 29, Type (0, 0), BuildingBlock: XIVTED_clean_linker_0, # of connection points: 2
#     Edge 30, Type (0, 0), BuildingBlock: XIVTED_clean_linker_0, # of connection points: 2
#     Edge 31, Type (0, 0), BuildingBlock: XIVTED_clean_linker_0, # of connection points: 2
#     Edge 32, Type (0, 0), BuildingBlock: XIVTED_clean_linker_0, # of connection points: 2
#     Edge 33, Type (0, 0), BuildingBlock: XIVTED_clean_linker_0, # of connection points: 2
#     Edge 34, Type (0, 0), BuildingBlock: XIVTED_clean_linker_0, # of connection points: 2
#     Edge 35, Type (0, 0), BuildingBlock: XIVTED_clean_linker_0, # of connection points: 2
#     Edge 36, Type (0, 0), BuildingBlock: XIVTED_clean_linker_0, # of connection points: 2
#     Edge 37, Type (0, 0), BuildingBlock: XIVTED_clean_linker_0, # of connection points: 2
#     Edge 38, Type (0, 0), BuildingBlock: XIVTED_clean_linker_0, # of connection points: 2
#     Edge 39, Type (0, 0), BuildingBlock: XIVTED_clean_linker_0, # of connection points: 2
#     Edge 40, Type (0, 0), BuildingBlock: XIVTED_clean_linker_0, # of connection points: 2
#     Edge 41, Type (0, 0), BuildingBlock: XIVTED_clean_linker_0, # of connection points: 2
#     Edge 42, Type (0, 0), BuildingBlock: XIVTED_clean_linker_0, # of connection points: 2
#     Edge 43, Type (0, 0), BuildingBlock: XIVTED_clean_linker_0, # of connection points: 2
#     Edge 44, Type (0, 0), BuildingBlock: XIVTED_clean_linker_0, # of connection points: 2
#     Edge 45, Type (0, 0), BuildingBlock: XIVTED_clean_linker_0, # of connection points: 2
#     Edge 46, Type (0, 0), BuildingBlock: XIVTED_clean_linker_0, # of connection points: 2
#     Edge 47, Type (0, 0), BuildingBlock: XIVTED_clean_linker_0, # of connection points: 2
#     Edge 48, Type (0, 0), BuildingBlock: XIVTED_clean_linker_0, # of connection points: 2
#     Edge 49, Type (0, 0), BuildingBlock: XIVTED_clean_linker_0, # of connection points: 2
#     Edge 50, Type (0, 0), BuildingBlock: XIVTED_clean_linker_0, # of connection points: 2
#     Edge 51, Type (0, 0), BuildingBlock: XIVTED_clean_linker_0, # of connection points: 2
#     Edge 52, Type (0, 0), BuildingBlock: XIVTED_clean_linker_0, # of connection points: 2
#     Edge 53, Type (0, 0), BuildingBlock: XIVTED_clean_linker_0, # of connection points: 2
#     Edge 54, Type (0, 0), BuildingBlock: XIVTED_clean_linker_0, # of connection points: 2
#     Edge 55, Type (0, 0), BuildingBlock: XIVTED_clean_linker_0, # of connection points: 2
# Relax obj value: 0.106
# Max RMSD: 0.129
# Mean RMSD: 0.129
data_MOF--net-wgb--node1-XOMCOT_clean_sbu_1--edge1-XIVTED_clean_linker_0
_symmetry_space_group_name_H-M    P1
_symmetry_Int_Tables_number       1
_symmetry_cell_setting            triclinic
loop_
_symmetry_equiv_pos_as_xyz
'x, y, z'
_cell_length_a     59.141104
_cell_length_b     59.190458
_cell_length_c     26.704252
_cell_angle_alpha  90.069741
_cell_angle_beta   90.109132
_cell_angle_gamma 90.052304
loop_
_atom_site_label
_atom_site_type_symbol
_atom_site_fract_x
_atom_site_fract_y
_atom_site_fract_z
_atom_type_partial_charge
C0 C 0.36229 0.07213 0.11387 0.0
C1 C 0.36807 0.04969 0.11718 0.0
N2 N 0.36247 0.04222 0.1632 0.0
N3 N 0.35293 0.07877 0.15741 0.0
C4 C 0.35333 0.06027 0.18682 0.0
H5 H 0.3651 0.08308 0.08208 0.0
Co6 Co 0.34385 0.10801 0.1717 0.0
C7 C 0.30184 0.1033 0.22955 0.0
O8 O 0.29297 0.11826 0.19892 0.0
N9 N 0.3356 0.1382 0.18691 0.0
C10 C 0.32909 0.16879 0.23339 0.0
C11 C 0.33194 0.14582 0.23394 0.0
C12 C 0.33582 0.15723 0.1588 0.0
N13 N 0.33162 0.17606 0.186 0.0
O14 O 0.36785 0.11056 0.2191 0.0
H15 H 0.33213 0.1354 0.26718 0.0
H16 H 0.34047 0.15766 0.11989 0.0
O17 O 0.32248 0.0971 0.22372 0.0
C18 C 0.38461 0.11848 0.19485 0.0
O19 O 0.38173 0.12311 0.14711 0.0
N20 N 0.32212 0.1054 0.12055 0.0
C21 C 0.29652 0.09944 0.03375 0.0
C22 C 0.29221 0.08638 0.07642 0.0
C23 C 0.30568 0.08914 0.11897 0.0
C24 C 0.32743 0.11705 0.07823 0.0
C25 C 0.31453 0.11481 0.03488 0.0
H26 H 0.30342 0.07755 0.14975 0.0
H27 H 0.34265 0.12706 0.07693 0.0
H28 H 0.3472 0.06015 0.22495 0.0
H29 H 0.37641 0.03989 0.08841 0.0
H30 H 0.32592 0.17927 0.26582 0.0
H31 H 0.27921 0.07348 0.07619 0.0
H32 H 0.31895 0.12472 0.00226 0.0
C33 C 0.07071 0.63283 0.87845 0.0
C34 C 0.04813 0.62739 0.87646 0.0
N35 N 0.03936 0.63585 0.83375 0.0
N36 N 0.07626 0.64478 0.83742 0.0
C37 C 0.0569 0.64628 0.81068 0.0
H38 H 0.08239 0.62854 0.90818 0.0
Co39 Co 0.10522 0.65571 0.82545 0.0
C40 C 0.09848 0.69886 0.77247 0.0
O41 O 0.11238 0.70795 0.8053 0.0
N42 N 0.13525 0.66593 0.81268 0.0
C43 C 0.16562 0.67671 0.76914 0.0
C44 C 0.14284 0.67235 0.76702 0.0
C45 C 0.15427 0.66528 0.84113 0.0
N46 N 0.17275 0.67215 0.81573 0.0
O47 O 0.1093 0.63312 0.77534 0.0
H48 H 0.13264 0.67301 0.73342 0.0
H49 H 0.15506 0.65909 0.87903 0.0
O50 O 0.0936 0.67775 0.77543 0.0
C51 C 0.11974 0.61686 0.79641 0.0
O52 O 0.12521 0.61895 0.84394 0.0
N53 N 0.10123 0.67594 0.87906 0.0
C54 C 0.09475 0.70001 0.96767 0.0
C55 C 0.08117 0.70427 0.92566 0.0
C56 C 0.08419 0.6915 0.88217 0.0
C57 C 0.11325 0.67045 0.92083 0.0
C58 C 0.11071 0.68259 0.96514 0.0
H59 H 0.07246 0.69379 0.85157 0.0
H60 H 0.12403 0.65579 0.9207 0.0
H61 H 0.05578 0.65466 0.77481 0.0
H62 H 0.03889 0.61824 0.90486 0.0
H63 H 0.17634 0.68173 0.73826 0.0
H64 H 0.06786 0.71682 0.92695 0.0
H65 H 0.12103 0.6782 0.99722 0.0
C66 C 0.63538 0.93687 0.10579 0.0
C67 C 0.63065 0.95949 0.11048 0.0
N68 N 0.64038 0.96718 0.15294 0.0
N69 N 0.64807 0.93021 0.14496 0.0
C70 C 0.65082 0.94897 0.17318 0.0
H71 H 0.62974 0.92584 0.07595 0.0
Co72 Co 0.6576 0.90064 0.15377 0.0
C73 C 0.70079 0.90346 0.20869 0.0
O74 O 0.70904 0.88954 0.17495 0.0
N75 N 0.66634 0.87006 0.16307 0.0
C76 C 0.67515 0.83854 0.20439 0.0
C77 C 0.67038 0.86112 0.20884 0.0
C78 C 0.66772 0.85209 0.13161 0.0
N79 N 0.67339 0.83291 0.15584 0.0
O80 O 0.63475 0.89649 0.20321 0.0
H81 H 0.66957 0.87041 0.24369 0.0
H82 H 0.66437 0.85261 0.09195 0.0
O83 O 0.68012 0.90995 0.20539 0.0
C84 C 0.61753 0.8886 0.18035 0.0
O85 O 0.61921 0.88478 0.13199 0.0
N86 N 0.67803 0.90498 0.10109 0.0
C87 C 0.70217 0.91267 0.01328 0.0
C88 C 0.70758 0.92447 0.05725 0.0
C89 C 0.69481 0.9209 0.10043 0.0
C90 C 0.67147 0.89483 0.05766 0.0
C91 C 0.68362 0.89795 0.01363 0.0
H92 H 0.69804 0.93141 0.13272 0.0
H93 H 0.65613 0.88495 0.05667 0.0
H94 H 0.66031 0.9492 0.20782 0.0
H95 H 0.62034 0.9693 0.08505 0.0
H96 H 0.67892 0.82697 0.23465 0.0
H97 H 0.72107 0.93686 0.05783 0.0
H98 H 0.6784 0.88899 0.98015 0.0
C99 C 0.93855 0.35943 0.88331 0.0
C100 C 0.96121 0.36438 0.88054 0.0
N101 N 0.96859 0.3589 0.83436 0.0
N102 N 0.93164 0.35073 0.83923 0.0
C103 C 0.95023 0.35065 0.81009 0.0
H104 H 0.92763 0.36248 0.91504 0.0
Co105 Co 0.90202 0.34318 0.82387 0.0
C106 C 0.90455 0.30158 0.76405 0.0
O107 O 0.88878 0.29344 0.79361 0.0
N108 N 0.87157 0.33641 0.80762 0.0
C109 C 0.84087 0.33138 0.76032 0.0
C110 C 0.86384 0.3347 0.76009 0.0
C111 C 0.85267 0.33483 0.83592 0.0
N112 N 0.83381 0.33148 0.8082 0.0
O113 O 0.90076 0.36767 0.77753 0.0
H114 H 0.87426 0.33612 0.727 0.0
H115 H 0.85234 0.33716 0.87585 0.0
O116 O 0.91209 0.32168 0.77121 0.0
C117 C 0.8942 0.38456 0.80335 0.0
O118 O 0.89028 0.38146 0.8513 0.0
N119 N 0.90325 0.32114 0.8742 0.0
C120 C 0.90511 0.29435 0.95965 0.0
C121 C 0.91862 0.28925 0.91807 0.0
C122 C 0.91787 0.30326 0.87599 0.0
C123 C 0.89189 0.32746 0.91619 0.0
C124 C 0.892 0.31401 0.95876 0.0
H125 H 0.92941 0.29999 0.84556 0.0
H126 H 0.88339 0.34359 0.91735 0.0
H127 H 0.95016 0.3449 0.77164 0.0
H128 H 0.97122 0.37216 0.90981 0.0
H129 H 0.83028 0.32926 0.72759 0.0
H130 H 0.92972 0.27471 0.91815 0.0
H131 H 0.88248 0.31935 0.99131 0.0
C132 C 0.36663 0.43864 0.13504 0.0
C133 C 0.37132 0.46137 0.13349 0.0
N134 N 0.36372 0.46965 0.08955 0.0
N135 N 0.35604 0.43256 0.09243 0.0
C136 C 0.35453 0.45173 0.06535 0.0
H137 H 0.37097 0.42715 0.16499 0.0
Co138 Co 0.34764 0.40314 0.07751 0.0
C139 C 0.30555 0.40646 0.01947 0.0
O140 O 0.29724 0.39118 0.05006 0.0
N141 N 0.34008 0.37281 0.06183 0.0
C142 C 0.33436 0.34228 0.01456 0.0
C143 C 0.3375 0.36522 0.01439 0.0
C144 C 0.33922 0.35381 0.08997 0.0
N145 N 0.33552 0.33501 0.06224 0.0
O146 O 0.3716 0.40135 0.03006 0.0
H147 H 0.3384 0.3757 0.9813 0.0
H148 H 0.34247 0.35338 0.1296 0.0
O149 O 0.32592 0.41351 0.02551 0.0
C150 C 0.38863 0.39391 0.05422 0.0
O151 O 0.38606 0.38931 0.10203 0.0
N152 N 0.32603 0.40503 0.12865 0.0
C153 C 0.30053 0.40979 0.21562 0.0
C154 C 0.29549 0.42267 0.17305 0.0
C155 C 0.30892 0.42056 0.13039 0.0
C156 C 0.33206 0.39369 0.17091 0.0
C157 C 0.31925 0.39532 0.21438 0.0
H158 H 0.30603 0.43201 0.09962 0.0
H159 H 0.34766 0.38425 0.17182 0.0
H160 H 0.34694 0.4524 0.02852 0.0
H161 H 0.38026 0.47081 0.16204 0.0
H162 H 0.33177 0.33183 0.9818 0.0
H163 H 0.28189 0.4349 0.1734 0.0
H164 H 0.3242 0.3856 0.24693 0.0
C165 C 0.43751 0.64039 0.87528 0.0
C166 C 0.46034 0.63639 0.87918 0.0
N167 N 0.46832 0.64741 0.91983 0.0
N168 N 0.43096 0.65384 0.91321 0.0
C169 C 0.45002 0.65781 0.93983 0.0
H170 H 0.42631 0.63386 0.84663 0.0
Co171 Co 0.4013 0.66347 0.92226 0.0
C172 C 0.40541 0.70672 0.97636 0.0
O173 O 0.39176 0.71542 0.94259 0.0
N174 N 0.37066 0.6724 0.93213 0.0
C175 C 0.33913 0.68211 0.97283 0.0
C176 C 0.36198 0.67857 0.97705 0.0
C177 C 0.3522 0.67099 0.90197 0.0
N178 N 0.33308 0.67725 0.92566 0.0
O179 O 0.39703 0.64055 0.97148 0.0
H180 H 0.3715 0.67963 0.01157 0.0
H181 H 0.3523 0.66465 0.86411 0.0
O182 O 0.41099 0.6858 0.97356 0.0
C183 C 0.38859 0.62386 0.94766 0.0
O184 O 0.38484 0.62623 0.89941 0.0
N185 N 0.40557 0.68396 0.86946 0.0
C186 C 0.41232 0.70869 0.78203 0.0
C187 C 0.42508 0.71335 0.82511 0.0
C188 C 0.42196 0.70028 0.86804 0.0
C189 C 0.39451 0.67806 0.82666 0.0
C190 C 0.39714 0.69052 0.78291 0.0
H191 H 0.43304 0.70301 0.89965 0.0
H192 H 0.38435 0.66295 0.82568 0.0
H193 H 0.45045 0.6683 0.97297 0.0
H194 H 0.47013 0.62583 0.85426 0.0
H195 H 0.32764 0.68678 0.00261 0.0
H196 H 0.43782 0.72652 0.82517 0.0
H197 H 0.38746 0.68583 0.75004 0.0
C198 C 0.62167 0.57476 0.09839 0.0
C199 C 0.61582 0.55259 0.09071 0.0
N200 N 0.6337 0.54178 0.07072 0.0
N201 N 0.64308 0.57811 0.08298 0.0
C202 C 0.65003 0.5577 0.06622 0.0
H203 H 0.61116 0.58751 0.11559 0.0
Co204 Co 0.6583 0.60511 0.09344 0.0
C205 C 0.70195 0.60168 0.03766 0.0
O206 O 0.71233 0.61167 0.07505 0.0
N207 N 0.6734 0.6334 0.10599 0.0
C208 C 0.69471 0.66021 0.14139 0.0
C209 C 0.68837 0.63804 0.1432 0.0
C210 C 0.67092 0.65362 0.08243 0.0
N211 N 0.68369 0.6701 0.10336 0.0
O212 O 0.63905 0.61902 0.04437 0.0
H213 H 0.69493 0.62623 0.17021 0.0
H214 H 0.6599 0.65642 0.05071 0.0
O215 O 0.6807 0.5975 0.04058 0.0
C216 C 0.62264 0.62934 0.06529 0.0
O217 O 0.62297 0.63154 0.11429 0.0
N218 N 0.67438 0.59108 0.14496 0.0
C219 C 0.69551 0.5804 0.23463 0.0
C220 C 0.70442 0.57259 0.18905 0.0
C221 C 0.69322 0.57776 0.14419 0.0
C222 C 0.66388 0.59581 0.18907 0.0
C223 C 0.67426 0.59083 0.23444 0.0
H224 H 0.70024 0.57183 0.10935 0.0
H225 H 0.6482 0.6052 0.1888 0.0
H226 H 0.667 0.55437 0.05305 0.0
H227 H 0.59965 0.54503 0.09952 0.0
H228 H 0.70603 0.66863 0.16733 0.0
H229 H 0.72047 0.56381 0.1878 0.0
H230 H 0.66638 0.59634 0.26894 0.0
C231 C 0.57336 0.36582 0.86756 0.0
C232 C 0.55112 0.37238 0.8707 0.0
N233 N 0.54285 0.36534 0.91503 0.0
N234 N 0.57906 0.35456 0.9095 0.0
C235 C 0.56022 0.3546 0.93786 0.0
H236 H 0.5848 0.36927 0.83695 0.0
Co237 Co 0.60771 0.3435 0.92213 0.0
C238 C 0.60123 0.30146 0.97925 0.0
O239 O 0.61523 0.29198 0.94734 0.0
N240 N 0.63744 0.33325 0.9354 0.0
C241 C 0.66825 0.32463 0.9795 0.0
C242 C 0.64547 0.32875 0.98175 0.0
C243 C 0.65605 0.33265 0.90601 0.0
N244 N 0.67499 0.32719 0.93173 0.0
O245 O 0.61218 0.36693 0.97043 0.0
H246 H 0.63555 0.3293 0.0157 0.0
H247 H 0.65619 0.33771 0.86734 0.0
O248 O 0.59607 0.32243 0.97425 0.0
C249 C 0.6228 0.38312 0.94954 0.0
O250 O 0.62897 0.38069 0.90257 0.0
N251 N 0.60314 0.32233 0.87038 0.0
C252 C 0.59504 0.29698 0.78406 0.0
C253 C 0.58221 0.29337 0.82736 0.0
C254 C 0.58601 0.30677 0.86963 0.0
C255 C 0.6145 0.32713 0.82737 0.0
C256 C 0.61115 0.31434 0.78417 0.0
H257 H 0.57468 0.30504 0.90104 0.0
H258 H 0.6253 0.34178 0.82557 0.0
H259 H 0.55932 0.34694 0.97456 0.0
H260 H 0.54199 0.38214 0.84303 0.0
H261 H 0.679 0.32068 0.0111 0.0
H262 H 0.56879 0.28091 0.82795 0.0
H263 H 0.6209 0.31824 0.75098 0.0
C264 C 0.86192 0.56943 0.62112 0.0
C265 C 0.86824 0.54713 0.6228 0.0
N266 N 0.86179 0.53855 0.66727 0.0
N267 N 0.85138 0.57491 0.6641 0.0
C268 C 0.85163 0.55583 0.69172 0.0
H269 H 0.86507 0.58109 0.59078 0.0
Co270 Co 0.84117 0.60379 0.67742 0.0
C271 C 0.79928 0.59878 0.73573 0.0
O272 O 0.79016 0.61278 0.70329 0.0
N273 N 0.83186 0.63383 0.69111 0.0
C274 C 0.82428 0.66487 0.73537 0.0
C275 C 0.82815 0.64204 0.73765 0.0
C276 C 0.83105 0.65237 0.66154 0.0
N277 N 0.82617 0.67142 0.68732 0.0
O278 O 0.86521 0.60758 0.7249 0.0
H279 H 0.82895 0.63216 0.77165 0.0
H280 H 0.83548 0.65241 0.62251 0.0
O281 O 0.82007 0.59283 0.73056 0.0
C282 C 0.88162 0.61771 0.70357 0.0
O283 O 0.87908 0.62398 0.65669 0.0
N284 N 0.81936 0.59979 0.62642 0.0
C285 C 0.79232 0.59294 0.542 0.0
C286 C 0.78954 0.57946 0.58463 0.0
C287 C 0.80361 0.58281 0.6261 0.0
C288 C 0.82366 0.61136 0.58343 0.0
C289 C 0.80993 0.60877 0.54137 0.0
H290 H 0.80214 0.5714 0.65746 0.0
H291 H 0.83857 0.62175 0.58066 0.0
H292 H 0.8446 0.55471 0.729 0.0
H293 H 0.87749 0.53818 0.59406 0.0
H294 H 0.82085 0.67576 0.76699 0.0
H295 H 0.77668 0.56643 0.58589 0.0
H296 H 0.81356 0.61851 0.50802 0.0
C297 C 0.57125 0.13638 0.38108 0.0
C298 C 0.54885 0.1303 0.37816 0.0
N299 N 0.54014 0.13895 0.33562 0.0
N300 N 0.57665 0.14887 0.34074 0.0
C301 C 0.55744 0.1501 0.31355 0.0
H302 H 0.58295 0.13194 0.41064 0.0
Co303 Co 0.60529 0.16041 0.32946 0.0
C304 C 0.59725 0.20352 0.27634 0.0
O305 O 0.6102 0.21324 0.31016 0.0
N306 N 0.63506 0.1711 0.31771 0.0
C307 C 0.66589 0.18354 0.2781 0.0
C308 C 0.64305 0.17979 0.27425 0.0
C309 C 0.6539 0.16823 0.34591 0.0
N310 N 0.6726 0.17617 0.32316 0.0
O311 O 0.61013 0.13783 0.27949 0.0
H312 H 0.63322 0.18222 0.24054 0.0
H313 H 0.65439 0.15946 0.38125 0.0
O314 O 0.59348 0.18216 0.27883 0.0
C315 C 0.61925 0.12097 0.30128 0.0
O316 O 0.62369 0.12268 0.3494 0.0
N317 N 0.60047 0.18074 0.38285 0.0
C318 C 0.5926 0.20534 0.47027 0.0
C319 C 0.57878 0.20833 0.42815 0.0
C320 C 0.58254 0.1953 0.38532 0.0
C321 C 0.61285 0.17648 0.42485 0.0
C322 C 0.6096 0.18892 0.46852 0.0
H323 H 0.57073 0.19664 0.35457 0.0
H324 H 0.62447 0.16253 0.42564 0.0
H325 H 0.55617 0.15915 0.27852 0.0
H326 H 0.53987 0.11994 0.40491 0.0
H327 H 0.67695 0.18993 0.24911 0.0
H328 H 0.56476 0.22009 0.42884 0.0
H329 H 0.62019 0.1855 0.50077 0.0
C330 C 0.14368 0.43147 0.6106 0.0
C331 C 0.13811 0.45398 0.61143 0.0
N332 N 0.1445 0.46264 0.65598 0.0
N333 N 0.15367 0.42591 0.65424 0.0
C334 C 0.15387 0.44518 0.6813 0.0
H335 H 0.14064 0.41981 0.58011 0.0
Co336 Co 0.16333 0.39691 0.66929 0.0
C337 C 0.2053 0.40256 0.72716 0.0
O338 O 0.21439 0.38769 0.69664 0.0
N339 N 0.17209 0.36691 0.68483 0.0
C340 C 0.17927 0.33634 0.73087 0.0
C341 C 0.17627 0.35932 0.73168 0.0
C342 C 0.17167 0.34787 0.65668 0.0
N343 N 0.1763 0.32907 0.68354 0.0
O344 O 0.13955 0.39415 0.7168 0.0
H345 H 0.1763 0.36973 0.76498 0.0
H346 H 0.16651 0.34739 0.61806 0.0
O347 O 0.18456 0.4084 0.72124 0.0
C348 C 0.12265 0.38618 0.69297 0.0
O349 O 0.12514 0.3816 0.6451 0.0
N350 N 0.18495 0.39972 0.61815 0.0
C351 C 0.21046 0.40591 0.53159 0.0
C352 C 0.21452 0.41917 0.57416 0.0
C353 C 0.20108 0.41629 0.61657 0.0
C354 C 0.17986 0.38787 0.57586 0.0
C355 C 0.19273 0.39023 0.53263 0.0
H356 H 0.20311 0.42802 0.64724 0.0
H357 H 0.1648 0.37764 0.57442 0.0
H358 H 0.16035 0.44623 0.71914 0.0
H359 H 0.13016 0.46324 0.58127 0.0
H360 H 0.18281 0.32586 0.76308 0.0
H361 H 0.22729 0.4323 0.57395 0.0
H362 H 0.18849 0.38019 0.5 0.0
C363 C 0.43626 0.86555 0.38716 0.0
C364 C 0.45891 0.87052 0.38336 0.0
N365 N 0.4661 0.86412 0.33759 0.0
N366 N 0.42919 0.85595 0.34415 0.0
C367 C 0.44765 0.85535 0.31461 0.0
H368 H 0.42549 0.86906 0.41891 0.0
Co369 Co 0.3996 0.8476 0.33046 0.0
C370 C 0.40265 0.80558 0.27238 0.0
O371 O 0.38751 0.79725 0.30328 0.0
N372 N 0.36914 0.84007 0.31566 0.0
C373 C 0.33858 0.83439 0.26838 0.0
C374 C 0.36151 0.83761 0.26822 0.0
C375 C 0.35014 0.83907 0.34386 0.0
N376 N 0.33131 0.8354 0.31606 0.0
O377 O 0.3975 0.87156 0.28307 0.0
H378 H 0.37195 0.83862 0.23509 0.0
H379 H 0.34974 0.84215 0.38356 0.0
O380 O 0.40965 0.82595 0.27816 0.0
C381 C 0.39066 0.88885 0.30712 0.0
O382 O 0.38665 0.88666 0.35529 0.0
N383 N 0.40191 0.82585 0.38142 0.0
C384 C 0.40789 0.79999 0.46763 0.0
C385 C 0.42059 0.79553 0.42451 0.0
C386 C 0.41784 0.80911 0.38227 0.0
C387 C 0.3906 0.83129 0.42413 0.0
C388 C 0.39286 0.81827 0.46725 0.0
H389 H 0.42919 0.80667 0.35112 0.0
H390 H 0.38077 0.84661 0.42576 0.0
H391 H 0.44744 0.84873 0.27687 0.0
H392 H 0.46906 0.87882 0.41168 0.0
H393 H 0.32814 0.83183 0.23557 0.0
H394 H 0.43324 0.78231 0.42411 0.0
H395 H 0.38324 0.82279 0.50023 0.0
C396 C 0.86228 0.93176 0.6206 0.0
C397 C 0.8682 0.95417 0.6182 0.0
N398 N 0.86142 0.96237 0.57357 0.0
N399 N 0.8517 0.92582 0.57787 0.0
C400 C 0.85148 0.94475 0.54976 0.0
H401 H 0.86573 0.92037 0.65131 0.0
Co402 Co 0.84174 0.89671 0.56497 0.0
C403 C 0.80005 0.9013 0.50579 0.0
O404 O 0.79093 0.88698 0.53752 0.0
N405 N 0.83265 0.86659 0.55171 0.0
C406 C 0.82553 0.83539 0.50763 0.0
C407 C 0.82943 0.8582 0.50513 0.0
C408 C 0.83146 0.84818 0.58164 0.0
N409 N 0.82689 0.82901 0.55591 0.0
O410 O 0.86586 0.89283 0.51835 0.0
H411 H 0.83052 0.86797 0.47102 0.0
H412 H 0.83526 0.84837 0.62104 0.0
O413 O 0.82076 0.90739 0.5115 0.0
C414 C 0.88228 0.88468 0.5435 0.0
O415 O 0.87907 0.88064 0.59137 0.0
N416 N 0.82001 0.90065 0.61544 0.0
C417 C 0.79475 0.90869 0.70167 0.0
C418 C 0.79047 0.9209 0.65775 0.0
C419 C 0.8038 0.91714 0.61546 0.0
C420 C 0.82529 0.88983 0.65887 0.0
C421 C 0.81256 0.89312 0.70202 0.0
H422 H 0.80162 0.92814 0.58361 0.0
H423 H 0.84036 0.87963 0.66103 0.0
H424 H 0.84423 0.94551 0.5126 0.0
H425 H 0.87738 0.96346 0.64663 0.0
H426 H 0.82241 0.82438 0.476 0.0
H427 H 0.77761 0.93391 0.65676 0.0
H428 H 0.81694 0.88385 0.7356 0.0
C429 C 0.93542 0.14025 0.35664 0.0
C430 C 0.95784 0.13423 0.35925 0.0
N431 N 0.96551 0.13907 0.40561 0.0
N432 N 0.92902 0.14903 0.40097 0.0
C433 C 0.94763 0.14802 0.43013 0.0
H434 H 0.92433 0.13796 0.32479 0.0
Co435 Co 0.89991 0.15813 0.4168 0.0
C436 C 0.90567 0.20064 0.47286 0.0
O437 O 0.8906 0.20943 0.44234 0.0
N438 N 0.86992 0.16647 0.43372 0.0
C439 C 0.84012 0.17522 0.48121 0.0
C440 C 0.86302 0.17148 0.4808 0.0
C441 C 0.85045 0.16593 0.4069 0.0
N442 N 0.83233 0.17161 0.4347 0.0
O443 O 0.89796 0.1344 0.46479 0.0
H444 H 0.87387 0.1718 0.51343 0.0
H445 H 0.84912 0.16085 0.36826 0.0
O446 O 0.91155 0.17988 0.46764 0.0
C447 C 0.89031 0.11756 0.44017 0.0
O448 O 0.88582 0.12041 0.39235 0.0
N449 N 0.90171 0.17947 0.36494 0.0
C450 C 0.90472 0.20511 0.27784 0.0
C451 C 0.91927 0.20937 0.31827 0.0
C452 C 0.91789 0.19592 0.36112 0.0
C453 C 0.88904 0.17389 0.32416 0.0
C454 C 0.88977 0.18683 0.2808 0.0
H455 H 0.93018 0.1984 0.39058 0.0
H456 H 0.8793 0.1585 0.32409 0.0
H457 H 0.94793 0.15356 0.46874 0.0
H458 H 0.96748 0.12621 0.32978 0.0
H459 H 0.82983 0.17932 0.51345 0.0
H460 H 0.9317 0.2228 0.31668 0.0
H461 H 0.87933 0.18201 0.24915 0.0
C462 C 0.14222 0.06419 0.63626 0.0
C463 C 0.13705 0.0416 0.63293 0.0
N464 N 0.14259 0.0343 0.58672 0.0
N465 N 0.15114 0.07113 0.59254 0.0
C466 C 0.1511 0.05263 0.56298 0.0
H467 H 0.13916 0.07503 0.66815 0.0
Co468 Co 0.15893 0.10084 0.57856 0.0
C469 C 0.201 0.09861 0.52058 0.0
O470 O 0.20902 0.11399 0.55144 0.0
N471 N 0.16588 0.13139 0.56372 0.0
C472 C 0.17112 0.16215 0.5171 0.0
C473 C 0.168 0.1392 0.51642 0.0
C474 C 0.16703 0.15027 0.59237 0.0
N475 N 0.17045 0.1692 0.56502 0.0
O476 O 0.13494 0.10234 0.53092 0.0
H477 H 0.16693 0.12884 0.4831 0.0
H478 H 0.16433 0.15051 0.63218 0.0
O479 O 0.18081 0.09109 0.52649 0.0
C480 C 0.11752 0.10857 0.55529 0.0
O481 O 0.11971 0.11233 0.60359 0.0
N482 N 0.18061 0.09921 0.62983 0.0
C483 C 0.20628 0.0949 0.71691 0.0
C484 C 0.21162 0.08226 0.67413 0.0
C485 C 0.19812 0.08414 0.63139 0.0
C486 C 0.17432 0.1103 0.67226 0.0
C487 C 0.1872 0.10889 0.71578 0.0
H488 H 0.2013 0.07286 0.6004 0.0
H489 H 0.1585 0.11937 0.67319 0.0
H490 H 0.15693 0.05275 0.52462 0.0
H491 H 0.12905 0.03162 0.66182 0.0
H492 H 0.17347 0.17273 0.48454 0.0
H493 H 0.22554 0.07038 0.67434 0.0
H494 H 0.18202 0.11843 0.74843 0.0
C495 C 0.06832 0.8584 0.3612 0.0
C496 C 0.04572 0.86367 0.36255 0.0
N497 N 0.03734 0.85708 0.40714 0.0
N498 N 0.07424 0.84842 0.40457 0.0
C499 C 0.05509 0.8479 0.43196 0.0
H500 H 0.07987 0.86194 0.33085 0.0
Co501 Co 0.10354 0.83966 0.41985 0.0
C502 C 0.09921 0.7975 0.47712 0.0
O503 O 0.1144 0.78901 0.44654 0.0
N504 N 0.13378 0.83182 0.43587 0.0
C505 C 0.16424 0.82575 0.48322 0.0
C506 C 0.1412 0.82819 0.4831 0.0
C507 C 0.15298 0.83245 0.40835 0.0
N508 N 0.17175 0.82852 0.43608 0.0
O509 O 0.10558 0.8636 0.46757 0.0
H510 H 0.13059 0.82814 0.51604 0.0
H511 H 0.15354 0.8372 0.36951 0.0
O512 O 0.09265 0.81803 0.47152 0.0
C513 C 0.11301 0.88069 0.4437 0.0
O514 O 0.11743 0.87828 0.39575 0.0
N515 N 0.10147 0.81799 0.36839 0.0
C516 C 0.09619 0.79245 0.28129 0.0
C517 C 0.08302 0.7879 0.32365 0.0
C518 C 0.0854 0.80136 0.36632 0.0
C519 C 0.11326 0.82348 0.32637 0.0
C520 C 0.11133 0.81064 0.28285 0.0
H521 H 0.0737 0.7989 0.39682 0.0
H522 H 0.12313 0.83878 0.3254 0.0
H523 H 0.05428 0.84104 0.46942 0.0
H524 H 0.03641 0.87232 0.33341 0.0
H525 H 0.1746 0.82271 0.51594 0.0
H526 H 0.0703 0.77472 0.32307 0.0
H527 H 0.12128 0.81524 0.25041 0.0
H528 H 0.31537 0.08837 0.32241 0.0
H529 H 0.18821 0.08419 0.42675 0.0
H530 H 0.25614 0.09925 0.23115 0.0
H531 H 0.24682 0.09672 0.51902 0.0
H532 H 0.2133 0.07876 0.35434 0.0
H533 H 0.29064 0.08054 0.3943 0.0
C534 C 0.2972 0.08864 0.31729 0.0
C535 C 0.28776 0.09477 0.2711 0.0
C536 C 0.22064 0.08233 0.39069 0.0
C537 C 0.25948 0.08581 0.35262 0.0
C538 C 0.20635 0.08529 0.43195 0.0
C539 C 0.21548 0.0912 0.47863 0.0
C540 C 0.24415 0.08502 0.39652 0.0
C541 C 0.2391 0.09251 0.48342 0.0
C542 C 0.28311 0.08429 0.35827 0.0
C543 C 0.2641 0.09493 0.26641 0.0
N544 N 0.2526 0.08962 0.44285 0.0
N545 N 0.25078 0.09069 0.30669 0.0
H546 H 0.09533 0.75187 0.47742 0.0
H547 H 0.09318 0.74443 0.77211 0.0
H548 H 0.08517 0.8103 0.57124 0.0
H549 H 0.08625 0.68583 0.67719 0.0
H550 H 0.08669 0.76871 0.69975 0.0
H551 H 0.08846 0.72745 0.54931 0.0
C552 C 0.09131 0.75955 0.51316 0.0
C553 C 0.09105 0.78314 0.51858 0.0
C554 C 0.08619 0.75056 0.69473 0.0
C555 C 0.08353 0.75522 0.60144 0.0
C556 C 0.08995 0.73666 0.73604 0.0
C557 C 0.09051 0.71308 0.73049 0.0
C558 C 0.08339 0.74086 0.64716 0.0
C559 C 0.086 0.70393 0.68307 0.0
C560 C 0.08734 0.74558 0.5542 0.0
C561 C 0.08555 0.79219 0.56553 0.0
N562 N 0.08304 0.71786 0.643 0.0
N563 N 0.08242 0.7782 0.60544 0.0
H564 H 0.75458 0.90699 0.50475 0.0
H565 H 0.74671 0.90515 0.20967 0.0
H566 H 0.81335 0.91297 0.41041 0.0
H567 H 0.68871 0.91697 0.30372 0.0
H568 H 0.77143 0.91078 0.28185 0.0
H569 H 0.73039 0.91355 0.43215 0.0
C570 C 0.76241 0.91002 0.46872 0.0
C571 C 0.78601 0.90923 0.46344 0.0
C572 C 0.75334 0.91249 0.28671 0.0
C573 C 0.75831 0.91639 0.37978 0.0
C574 C 0.73917 0.90921 0.24551 0.0
C575 C 0.71558 0.91034 0.25084 0.0
C576 C 0.74389 0.91656 0.334 0.0
C577 C 0.70679 0.91589 0.298 0.0
C578 C 0.74856 0.91381 0.42727 0.0
C579 C 0.79524 0.91345 0.41606 0.0
N580 N 0.72094 0.91842 0.33798 0.0
N581 N 0.78134 0.91645 0.37581 0.0
H582 H 0.92074 0.31442 0.67178 0.0
H583 H 0.91907 0.18722 0.56692 0.0
H584 H 0.90651 0.25581 0.76218 0.0
H585 H 0.91041 0.24623 0.47433 0.0
H586 H 0.9255 0.21206 0.63949 0.0
H587 H 0.92786 0.28935 0.59991 0.0
C588 C 0.9196 0.2963 0.67673 0.0
C589 C 0.91273 0.28716 0.72265 0.0
C590 C 0.92258 0.21953 0.60305 0.0
C591 C 0.92087 0.2585 0.64118 0.0
C592 C 0.91907 0.20537 0.56167 0.0
C593 C 0.91393 0.21472 0.51483 0.0
C594 C 0.9212 0.24313 0.5972 0.0
C595 C 0.91401 0.23835 0.51004 0.0
C596 C 0.92354 0.28202 0.63577 0.0
C597 C 0.91142 0.26355 0.72713 0.0
N598 N 0.91738 0.25174 0.55073 0.0
N599 N 0.91529 0.25006 0.68688 0.0
H600 H 0.31859 0.42104 0.92609 0.0
H601 H 0.19154 0.41722 0.82005 0.0
H602 H 0.25976 0.40895 0.01741 0.0
H603 H 0.25093 0.40726 0.72923 0.0
H604 H 0.21615 0.42507 0.89238 0.0
H605 H 0.29364 0.4269 0.85346 0.0
C606 C 0.30044 0.42013 0.93105 0.0
C607 C 0.2912 0.4142 0.97751 0.0
C608 C 0.22375 0.42152 0.85635 0.0
C609 C 0.26267 0.42085 0.89512 0.0
C610 C 0.20972 0.41717 0.81512 0.0
C611 C 0.21925 0.41127 0.76892 0.0
C612 C 0.24739 0.42021 0.85097 0.0
C613 C 0.24291 0.41139 0.76449 0.0
C614 C 0.28622 0.42333 0.88965 0.0
C615 C 0.26757 0.41315 0.98197 0.0
N616 N 0.25616 0.41559 0.80503 0.0
N617 N 0.25413 0.41625 0.94127 0.0
H618 H 0.40553 0.75987 0.2715 0.0
H619 H 0.40932 0.75244 0.97733 0.0
H620 H 0.41739 0.8183 0.17889 0.0
H621 H 0.41741 0.69394 0.07175 0.0
H622 H 0.41511 0.7768 0.05003 0.0
H623 H 0.41267 0.73547 0.1996 0.0
C624 C 0.40994 0.76755 0.23603 0.0
C625 C 0.41062 0.79114 0.2309 0.0
C626 C 0.416 0.75866 0.05485 0.0
C627 C 0.4185 0.76326 0.14811 0.0
C628 C 0.41262 0.74472 0.01338 0.0
C629 C 0.41261 0.72113 0.01871 0.0
C630 C 0.41895 0.74897 0.10232 0.0
C631 C 0.41721 0.71204 0.06608 0.0
C632 C 0.41409 0.75359 0.19501 0.0
C633 C 0.41665 0.80019 0.18433 0.0
N634 N 0.41979 0.72599 0.1063 0.0
N635 N 0.41995 0.78623 0.1444 0.0
H636 H 0.68727 0.59128 0.94215 0.0
H637 H 0.81341 0.58673 0.83053 0.0
H638 H 0.74774 0.59745 0.0318 0.0
H639 H 0.75352 0.59597 0.74049 0.0
H640 H 0.78925 0.58238 0.9048 0.0
H641 H 0.71103 0.58502 0.868 0.0
C642 C 0.70548 0.59102 0.94637 0.0
C643 C 0.7155 0.59521 0.99313 0.0
C644 C 0.78142 0.58505 0.86861 0.0
C645 C 0.74279 0.58801 0.90868 0.0
C646 C 0.7952 0.58735 0.82623 0.0
C647 C 0.78547 0.59194 0.77943 0.0
C648 C 0.75777 0.58717 0.86394 0.0
C649 C 0.76176 0.59273 0.77602 0.0
C650 C 0.71905 0.58753 0.90406 0.0
C651 C 0.73924 0.59464 0.99639 0.0
N652 N 0.74876 0.59055 0.81764 0.0
N653 N 0.75203 0.59127 0.95482 0.0
H654 H 0.58607 0.18928 0.18124 0.0
H655 H 0.58683 0.31564 0.07222 0.0
H656 H 0.59199 0.24911 0.27273 0.0
H657 H 0.59716 0.2558 0.98284 0.0
H658 H 0.57936 0.29144 0.14516 0.0
H659 H 0.58066 0.21345 0.10747 0.0
C660 C 0.58575 0.20746 0.18596 0.0
C661 C 0.5898 0.21721 0.233 0.0
C662 C 0.58295 0.28365 0.10934 0.0
C663 C 0.58376 0.24492 0.14904 0.0
C664 C 0.58708 0.29745 0.06773 0.0
C665 C 0.59293 0.28771 0.02167 0.0
C666 C 0.58448 0.25999 0.10456 0.0
C667 C 0.59307 0.26402 0.0179 0.0
C668 C 0.58281 0.22125 0.14386 0.0
C669 C 0.58927 0.24089 0.23698 0.0
N670 N 0.58911 0.25101 0.0588 0.0
N671 N 0.58654 0.25392 0.19556 0.0
H672 H 0.34054 0.29653 0.00685 0.0
H673 H 0.33576 0.21444 0.24224 0.0
H674 H 0.32795 0.32013 0.15747 0.0
H675 H 0.32733 0.19112 0.08989 0.0
H676 H 0.33588 0.25318 0.21211 0.0
H677 H 0.33872 0.25781 0.03688 0.0
C678 C 0.33724 0.29372 0.04615 0.0
C679 C 0.33441 0.31189 0.07954 0.0
C680 C 0.33395 0.23955 0.18534 0.0
C681 C 0.33271 0.26727 0.11431 0.0
C682 C 0.33378 0.21731 0.20252 0.0
C683 C 0.33155 0.1992 0.16869 0.0
C684 C 0.33209 0.24386 0.13388 0.0
C685 C 0.32945 0.20432 0.11748 0.0
C686 C 0.3363 0.2715 0.06329 0.0
C687 C 0.33059 0.30686 0.13028 0.0
N688 N 0.32986 0.22614 0.10167 0.0
N689 N 0.32995 0.28505 0.1461 0.0
H690 H 0.19503 0.63986 0.86774 0.0
H691 H 0.30467 0.71249 0.91967 0.0
H692 H 0.20276 0.70581 0.80201 0.0
H693 H 0.31003 0.64121 0.89042 0.0
H694 H 0.26491 0.71141 0.89199 0.0
H695 H 0.23516 0.6408 0.89295 0.0
C696 C 0.20518 0.65459 0.85916 0.0
C697 C 0.19577 0.67282 0.83296 0.0
C698 C 0.27485 0.69605 0.89138 0.0
C699 C 0.24116 0.67411 0.86183 0.0
C700 C 0.29737 0.69669 0.90706 0.0
C701 C 0.31041 0.67697 0.90659 0.0
C702 C 0.26521 0.67538 0.87678 0.0
C703 C 0.30041 0.65675 0.89053 0.0
C704 C 0.22799 0.65504 0.87307 0.0
C705 C 0.20955 0.69145 0.82207 0.0
N706 N 0.27823 0.65638 0.87677 0.0
N707 N 0.23153 0.69175 0.837 0.0
H708 H 0.64656 0.81133 0.08842 0.0
H709 H 0.71955 0.698 0.11004 0.0
H710 H 0.70686 0.80388 0.17746 0.0
H711 H 0.64849 0.69669 0.07416 0.0
H712 H 0.71844 0.73921 0.11118 0.0
H713 H 0.65015 0.77154 0.06169 0.0
C714 C 0.66073 0.80139 0.10152 0.0
C715 C 0.67639 0.81066 0.13535 0.0
C716 C 0.70313 0.72995 0.10237 0.0
C717 C 0.68074 0.76569 0.10483 0.0
C718 C 0.70377 0.70646 0.10163 0.0
C719 C 0.684 0.69396 0.09295 0.0
C720 C 0.68254 0.74114 0.09444 0.0
C721 C 0.66408 0.70574 0.08118 0.0
C722 C 0.66271 0.77877 0.08654 0.0
C723 C 0.69437 0.79719 0.15173 0.0
N724 N 0.66375 0.72876 0.08303 0.0
N725 N 0.69605 0.77541 0.13636 0.0
H726 H 0.81991 0.3207 0.90248 0.0
H727 H 0.68859 0.32356 0.83441 0.0
H728 H 0.79481 0.3375 0.75506 0.0
H729 H 0.71424 0.32886 0.98568 0.0
H730 H 0.72737 0.32375 0.80359 0.0
H731 H 0.7811 0.3187 0.93242 0.0
C732 C 0.80636 0.32411 0.87634 0.0
C733 C 0.81086 0.32951 0.82609 0.0
C734 C 0.72442 0.32486 0.84353 0.0
C735 C 0.7662 0.32674 0.86022 0.0
C736 C 0.70223 0.32486 0.86127 0.0
C737 C 0.69788 0.32639 0.91291 0.0
C738 C 0.74246 0.32614 0.87761 0.0
C739 C 0.71651 0.32747 0.94568 0.0
C740 C 0.78414 0.32283 0.89351 0.0
C741 C 0.79235 0.33313 0.79393 0.0
N742 N 0.73792 0.32732 0.92747 0.0
N743 N 0.77086 0.33168 0.81155 0.0
H744 H 0.81983 0.81624 0.6528 0.0
H745 H 0.81967 0.68435 0.59041 0.0
H746 H 0.83062 0.78937 0.50419 0.0
H747 H 0.82969 0.71095 0.7396 0.0
H748 H 0.81903 0.72284 0.55821 0.0
H749 H 0.81882 0.77777 0.68523 0.0
C750 C 0.8221 0.80238 0.62688 0.0
C751 C 0.8255 0.80629 0.57552 0.0
C752 C 0.82136 0.7202 0.59801 0.0
C753 C 0.82389 0.76205 0.61259 0.0
C754 C 0.82186 0.69817 0.6165 0.0
C755 C 0.82495 0.69418 0.66793 0.0
C756 C 0.82375 0.73847 0.63112 0.0
C757 C 0.82709 0.713 0.69981 0.0
C758 C 0.82141 0.78037 0.64551 0.0
C759 C 0.82777 0.78741 0.54388 0.0
N760 N 0.82646 0.73429 0.68088 0.0
N761 N 0.82692 0.76616 0.56292 0.0
H762 H 0.80273 0.20516 0.45213 0.0
H763 H 0.69443 0.13961 0.35914 0.0
H764 H 0.80953 0.13998 0.38199 0.0
H765 H 0.70237 0.21045 0.32722 0.0
H766 H 0.73423 0.13815 0.38669 0.0
H767 H 0.76292 0.20642 0.42512 0.0
C768 C 0.79571 0.19114 0.43116 0.0
C769 C 0.80919 0.17251 0.41886 0.0
C770 C 0.72716 0.15398 0.37375 0.0
C771 C 0.76404 0.17354 0.3892 0.0
C772 C 0.70459 0.15483 0.35847 0.0
C773 C 0.6954 0.17518 0.3411 0.0
C774 C 0.74024 0.17377 0.37292 0.0
C775 C 0.70908 0.1945 0.34032 0.0
C776 C 0.77318 0.19188 0.41571 0.0
C777 C 0.79956 0.15468 0.39161 0.0
N778 N 0.73083 0.19341 0.35654 0.0
N779 N 0.7774 0.15549 0.37806 0.0
H780 H 0.17995 0.31423 0.58714 0.0
H781 H 0.17917 0.18358 0.66036 0.0
H782 H 0.17289 0.29055 0.73935 0.0
H783 H 0.16533 0.20798 0.51093 0.0
H784 H 0.18105 0.22257 0.6896 0.0
H785 H 0.17886 0.2752 0.55821 0.0
C786 C 0.17804 0.30096 0.61459 0.0
C787 C 0.17633 0.30595 0.66593 0.0
C788 C 0.1776 0.21931 0.65041 0.0
C789 C 0.17554 0.26099 0.63279 0.0
C790 C 0.1764 0.19699 0.63361 0.0
C791 C 0.17197 0.19223 0.58293 0.0
C792 C 0.17458 0.23709 0.61631 0.0
C793 C 0.16903 0.21058 0.55013 0.0
C794 C 0.17753 0.2786 0.59795 0.0
C795 C 0.17446 0.28775 0.69954 0.0
N796 N 0.17042 0.23214 0.56738 0.0
N797 N 0.17413 0.26613 0.68238 0.0
H798 H 0.29288 0.84033 0.26034 0.0
H799 H 0.20977 0.83309 0.49359 0.0
H800 H 0.31627 0.82757 0.41112 0.0
H801 H 0.18746 0.8249 0.3404 0.0
H802 H 0.24872 0.83407 0.46461 0.0
H803 H 0.25412 0.83783 0.28963 0.0
C804 C 0.29003 0.83685 0.29954 0.0
C805 C 0.30816 0.83411 0.33315 0.0
C806 C 0.23526 0.832 0.43741 0.0
C807 C 0.26341 0.83163 0.3671 0.0
C808 C 0.21291 0.83135 0.45392 0.0
C809 C 0.19502 0.82894 0.4195 0.0
C810 C 0.23989 0.83047 0.38605 0.0
C811 C 0.20047 0.82714 0.36843 0.0
C812 C 0.26776 0.83551 0.31625 0.0
C813 C 0.30302 0.83009 0.38377 0.0
N814 N 0.22238 0.82804 0.35329 0.0
N815 N 0.28114 0.82905 0.39919 0.0
H816 H 0.25069 0.09431 0.02516 0.0
H817 H 0.25236 0.09354 0.72548 0.0
H818 H 0.31176 0.09734 0.93713 0.0
H819 H 0.19125 0.09169 0.81353 0.0
H820 H 0.27458 0.09224 0.8027 0.0
H821 H 0.22869 0.09069 0.94798 0.0
C822 C 0.25947 0.09405 0.98959 0.0
C823 C 0.28305 0.09635 0.98749 0.0
C824 C 0.25631 0.09205 0.80512 0.0
C825 C 0.25804 0.09239 0.89912 0.0
C826 C 0.24364 0.09267 0.76106 0.0
C827 C 0.21995 0.09295 0.76315 0.0
C828 C 0.24519 0.09166 0.85157 0.0
C829 C 0.20949 0.09197 0.81025 0.0
C830 C 0.24692 0.09209 0.94556 0.0
C831 C 0.29356 0.09607 0.94041 0.0
N832 N 0.22218 0.09145 0.8526 0.0
N833 N 0.28098 0.09422 0.89808 0.0
H834 H 0.09346 0.80787 0.18494 0.0
H835 H 0.09371 0.68436 0.06408 0.0
H836 H 0.0925 0.74654 0.27212 0.0
H837 H 0.08956 0.7457 0.97737 0.0
H838 H 0.0919 0.70677 0.14079 0.0
H839 H 0.09076 0.78536 0.10854 0.0
C840 C 0.09273 0.78964 0.18796 0.0
C841 C 0.09345 0.77902 0.23488 0.0
C842 C 0.09125 0.71534 0.10501 0.0
C843 C 0.09016 0.75315 0.14762 0.0
C844 C 0.09242 0.70257 0.06123 0.0
C845 C 0.09201 0.71324 0.01433 0.0
C846 C 0.08981 0.73897 0.10192 0.0
C847 C 0.08984 0.73682 0.01277 0.0
C848 C 0.09104 0.7768 0.14435 0.0
C849 C 0.09194 0.75539 0.23668 0.0
N850 N 0.089 0.74892 0.05597 0.0
N851 N 0.09053 0.74322 0.19362 0.0
H852 H 0.68663 0.91718 0.91711 0.0
H853 H 0.8103 0.91306 0.79771 0.0
H854 H 0.74813 0.91538 0.0043 0.0
H855 H 0.74893 0.91375 0.71003 0.0
H856 H 0.78784 0.91714 0.87369 0.0
H857 H 0.70918 0.9192 0.84076 0.0
C858 C 0.70489 0.91723 0.92016 0.0
C859 C 0.71555 0.91584 0.96705 0.0
C860 C 0.77927 0.91651 0.83785 0.0
C861 C 0.74144 0.9183 0.87992 0.0
C862 C 0.79207 0.91405 0.7945 0.0
C863 C 0.78141 0.91275 0.74759 0.0
C864 C 0.75561 0.91762 0.83435 0.0
C865 C 0.7578 0.91469 0.74547 0.0
C866 C 0.71775 0.9185 0.87659 0.0
C867 C 0.73924 0.9165 0.96892 0.0
N868 N 0.74566 0.91684 0.78832 0.0
N869 N 0.7514 0.91749 0.92592 0.0
H870 H 0.94214 0.22015 0.22703 0.0
H871 H 0.86877 0.28061 0.01395 0.0
H872 H 0.86919 0.22113 0.22356 0.0
H873 H 0.94151 0.27569 0.00827 0.0
H874 H 0.86892 0.25916 0.09175 0.0
H875 H 0.94268 0.24142 0.14839 0.0
C876 C 0.92626 0.22502 0.20993 0.0
C877 C 0.90558 0.21886 0.2317 0.0
C878 C 0.88488 0.26267 0.07351 0.0
C879 C 0.90606 0.24287 0.14179 0.0
C880 C 0.88479 0.27496 0.02917 0.0
C881 C 0.90516 0.27998 0.00486 0.0
C882 C 0.90551 0.25541 0.09393 0.0
C883 C 0.92542 0.272 0.02572 0.0
C884 C 0.92657 0.23697 0.1649 0.0
C885 C 0.8855 0.22531 0.20771 0.0
N886 N 0.9251 0.26019 0.06933 0.0
N887 N 0.88624 0.23696 0.16408 0.0
H888 H 0.25622 0.4115 0.5235 0.0
H889 H 0.25451 0.41208 0.22384 0.0
H890 H 0.1952 0.4078 0.43489 0.0
H891 H 0.31566 0.41264 0.31233 0.0
H892 H 0.23234 0.41375 0.3009 0.0
H893 H 0.27822 0.41513 0.44651 0.0
C894 C 0.24746 0.41162 0.48784 0.0
C895 C 0.2239 0.4091 0.4855 0.0
C896 C 0.25061 0.41358 0.30345 0.0
C897 C 0.24889 0.41309 0.39739 0.0
C898 C 0.26325 0.41274 0.25949 0.0
C899 C 0.28693 0.41198 0.26177 0.0
C900 C 0.26175 0.41371 0.34997 0.0
C901 C 0.29742 0.41273 0.30893 0.0
C902 C 0.26001 0.41359 0.44392 0.0
C903 C 0.21339 0.40923 0.43833 0.0
N904 N 0.28475 0.41347 0.35119 0.0
N905 N 0.22597 0.4111 0.39612 0.0
H906 H 0.41224 0.7541 0.47495 0.0
H907 H 0.41604 0.75462 0.77452 0.0
H908 H 0.41092 0.81481 0.5646 0.0
H909 H 0.41463 0.69388 0.68497 0.0
H910 H 0.41756 0.77705 0.6978 0.0
H911 H 0.41628 0.73178 0.55137 0.0
C912 C 0.41295 0.76273 0.51071 0.0
C913 C 0.41102 0.78631 0.51348 0.0
C914 C 0.41702 0.75881 0.69494 0.0
C915 C 0.4155 0.76093 0.60104 0.0
C916 C 0.41629 0.74601 0.73871 0.0
C917 C 0.41497 0.72238 0.73607 0.0
C918 C 0.41645 0.74788 0.64822 0.0
C919 C 0.41517 0.71208 0.68869 0.0
C920 C 0.41517 0.74999 0.55432 0.0
C921 C 0.41189 0.79663 0.56081 0.0
N922 N 0.41578 0.7249 0.64663 0.0
N923 N 0.41399 0.78386 0.60273 0.0
H924 H 0.72142 0.5461 0.27519 0.0
H925 H 0.77222 0.62635 0.48834 0.0
H926 H 0.70129 0.61534 0.29897 0.0
H927 H 0.77865 0.55382 0.49511 0.0
H928 H 0.74851 0.62244 0.41409 0.0
H929 H 0.74482 0.54826 0.35149 0.0
C930 C 0.72186 0.56167 0.29654 0.0
C931 C 0.70921 0.58048 0.28114 0.0
C932 C 0.755 0.60733 0.43182 0.0
C933 C 0.73592 0.58315 0.36748 0.0
C934 C 0.76863 0.60958 0.47405 0.0
C935 C 0.77739 0.59039 0.4978 0.0
C936 C 0.75022 0.58573 0.41272 0.0
C937 C 0.77204 0.56903 0.47805 0.0
C938 C 0.7351 0.56287 0.34003 0.0
C939 C 0.7104 0.60028 0.30998 0.0
N940 N 0.75887 0.56725 0.43636 0.0
N941 N 0.72355 0.6011 0.35151 0.0
H942 H 0.58921 0.25123 0.77741 0.0
H943 H 0.5849 0.25077 0.47771 0.0
H944 H 0.59204 0.31156 0.68702 0.0
H945 H 0.5924 0.19064 0.56742 0.0
H946 H 0.58215 0.27321 0.55446 0.0
H947 H 0.58512 0.22867 0.70111 0.0
C948 C 0.58876 0.25973 0.74151 0.0
C949 C 0.59121 0.28325 0.73845 0.0
C950 C 0.58428 0.25509 0.55734 0.0
C951 C 0.58667 0.25761 0.65113 0.0
C952 C 0.58572 0.24228 0.51357 0.0
C953 C 0.58914 0.21887 0.51627 0.0
C954 C 0.58617 0.24438 0.60408 0.0
C955 C 0.59021 0.20872 0.56369 0.0
C956 C 0.58655 0.24685 0.698 0.0
C957 C 0.59064 0.29341 0.69099 0.0
N958 N 0.58883 0.22155 0.60573 0.0
N959 N 0.58851 0.28052 0.64917 0.0
H960 H 0.36608 0.03055 0.26132 0.0
H961 H 0.39251 0.90004 0.2067 0.0
H962 H 0.36835 0.00286 0.11173 0.0
H963 H 0.38083 0.92842 0.35341 0.0
H964 H 0.38575 0.93757 0.17005 0.0
H965 H 0.37323 0.9931 0.29486 0.0
C966 C 0.36789 0.01661 0.23541 0.0
C967 C 0.3665 0.01999 0.18351 0.0
C968 C 0.38469 0.93548 0.21025 0.0
C969 C 0.3751 0.97681 0.22189 0.0
C970 C 0.38859 0.91411 0.23113 0.0
C971 C 0.38719 0.91107 0.28314 0.0
C972 C 0.3795 0.95383 0.24176 0.0
C973 C 0.38202 0.92987 0.3131 0.0
C974 C 0.37213 0.99516 0.25465 0.0
C975 C 0.36951 1.00117 0.15195 0.0
N976 N 0.3784 0.95036 0.29201 0.0
N977 N 0.37367 0.98039 0.17163 0.0
H978 H 0.89886 0.59793 0.78917 0.0
H979 H 0.01783 0.66243 0.76539 0.0
H980 H 0.91461 0.64673 0.67446 0.0
H981 H 0.00732 0.60554 0.86377 0.0
H982 H 0.97873 0.65916 0.73743 0.0
H983 H 0.9371 0.60312 0.82386 0.0
C984 C 0.91024 0.60988 0.77166 0.0
C985 C 0.90359 0.6218 0.72871 0.0
C986 C 0.98497 0.6474 0.76522 0.0
C987 C 0.94721 0.62778 0.76789 0.0
C988 C 0.00743 0.64917 0.78103 0.0
C989 C 0.01613 0.6342 0.81696 0.0
C990 C 0.97093 0.63056 0.78547 0.0
C991 C 1.00146 0.61765 0.83643 0.0
C992 C 0.93208 0.61275 0.79125 0.0
C993 C 0.91905 0.63702 0.70737 0.0
N994 N 0.97964 0.61626 0.82041 0.0
N995 N 0.94007 0.63952 0.72706 0.0
H996 H 0.64824 0.98066 0.24907 0.0
H997 H 0.60969 0.10863 0.20349 0.0
H998 H 0.62928 0.00593 0.10321 0.0
H999 H 0.63953 0.08387 0.34051 0.0
H1000 H 0.61614 0.07136 0.16515 0.0
H1001 H 0.64464 0.01865 0.28263 0.0
C1002 C 0.6435 0.99413 0.22385 0.0
C1003 C 0.639 0.98983 0.17308 0.0
C1004 C 0.62136 0.07422 0.20352 0.0
C1005 C 0.63447 0.03368 0.21179 0.0
C1006 C 0.61769 0.09546 0.22535 0.0
C1007 C 0.62395 0.09936 0.27535 0.0
C1008 C 0.63124 0.05684 0.23207 0.0
C1009 C 0.63427 0.08168 0.30197 0.0
C1010 C 0.64132 0.01591 0.24319 0.0
C1011 C 0.63257 0.00819 0.14271 0.0
N1012 N 0.63746 0.06126 0.28013 0.0
N1013 N 0.63041 0.02926 0.16255 0.0
H1014 H 0.11083 0.38962 0.79282 0.0
H1015 H 0.98075 0.36188 0.73634 0.0
H1016 H 0.0837 0.37393 0.64661 0.0
H1017 H 0.00795 0.36429 0.88651 0.0
H1018 H 0.01842 0.36842 0.70354 0.0
H1019 H 0.07318 0.38276 0.8289 0.0
C1020 C 0.09701 0.38477 0.76839 0.0
C1021 C 0.10042 0.38234 0.71668 0.0
C1022 C 0.01619 0.36747 0.74372 0.0
C1023 C 0.05755 0.37457 0.75738 0.0
C1024 C 0.9946 0.36357 0.76256 0.0
C1025 C 0.99099 0.36243 0.81442 0.0
C1026 C 0.03446 0.37037 0.77682 0.0
C1027 C 0.00977 0.36529 0.84631 0.0
C1028 C 0.07559 0.38081 0.78895 0.0
C1029 C 0.08195 0.37598 0.68669 0.0
N1030 N 0.03068 0.36916 0.82701 0.0
N1031 N 0.06139 0.37239 0.70744 0.0
H1032 H 0.36931 0.58736 0.90355 0.0
H1033 H 0.37238 0.50774 0.14432 0.0
H1034 H 0.39591 0.61019 0.04559 0.0
H1035 H 0.36051 0.48438 0.99317 0.0
H1036 H 0.37771 0.54599 0.11217 0.0
H1037 H 0.36213 0.55055 0.93958 0.0
C1038 C 0.37364 0.58467 0.94252 0.0
C1039 C 0.38341 0.60192 0.9715 0.0
C1040 C 0.3739 0.53244 0.08621 0.0
C1041 C 0.37516 0.55938 0.01321 0.0
C1042 C 0.37094 0.51051 0.10444 0.0
C1043 C 0.36605 0.49255 0.0715 0.0
C1044 C 0.3718 0.53653 0.03471 0.0
C1045 C 0.36398 0.49749 0.02029 0.0
C1046 C 0.36953 0.56353 0.96306 0.0
C1047 C 0.38843 0.59734 0.02188 0.0
N1048 N 0.36688 0.51894 0.00361 0.0
N1049 N 0.3843 0.57643 0.04121 0.0
H1050 H 0.61011 0.61856 0.96846 0.0
H1051 H 0.48327 0.66026 0.01246 0.0
H1052 H 0.58776 0.65489 0.09952 0.0
H1053 H 0.50667 0.63479 0.86997 0.0
H1054 H 0.52187 0.65906 0.04354 0.0
H1055 H 0.57299 0.62526 0.92973 0.0
C1056 C 0.59757 0.62825 0.98872 0.0
C1057 C 0.602 0.63601 0.03746 0.0
C1058 C 0.51858 0.65383 0.00534 0.0
C1059 C 0.55949 0.64343 0.99385 0.0
C1060 C 0.49641 0.65458 0.98737 0.0
C1061 C 0.49137 0.6475 0.93836 0.0
C1062 C 0.53601 0.64578 0.97441 0.0
C1063 C 0.50944 0.64005 0.90824 0.0
C1064 C 0.57635 0.63198 0.96674 0.0
C1065 C 0.58507 0.64838 0.06208 0.0
N1066 N 0.53087 0.63926 0.92682 0.0
N1067 N 0.56457 0.65151 0.04025 0.0
H1068 H 0.66055 0.52186 0.00102 0.0
H1069 H 0.60411 0.3996 0.03683 0.0
H1070 H 0.60975 0.50736 0.11223 0.0
H1071 H 0.65131 0.41643 0.91955 0.0
H1072 H 0.60905 0.43775 0.07159 0.0
H1073 H 0.66055 0.48199 0.97713 0.0
C1074 C 0.64955 0.51029 0.02073 0.0
C1075 C 0.63494 0.51809 0.05825 0.0
C1076 C 0.61845 0.43298 0.03847 0.0
C1077 C 0.63468 0.47236 0.03088 0.0
C1078 C 0.6157 0.4112 0.0188 0.0
C1079 C 0.62714 0.40491 0.975 0.0
C1080 C 0.6328 0.44847 0.0142 0.0
C1081 C 0.64193 0.42061 0.95307 0.0
C1082 C 0.64946 0.48751 0.00693 0.0
C1083 C 0.62093 0.50225 0.08232 0.0
N1084 N 0.64422 0.44164 0.9727 0.0
N1085 N 0.62107 0.4802 0.06807 0.0
H1086 H 0.4008 0.39752 0.95455 0.0
H1087 H 0.53004 0.36602 0.01265 0.0
H1088 H 0.42751 0.38211 0.10117 0.0
H1089 H 0.50435 0.37407 0.86228 0.0
H1090 H 0.49236 0.3732 0.04503 0.0
H1091 H 0.43855 0.39062 0.91901 0.0
C1092 C 0.41456 0.39275 0.97919 0.0
C1093 C 0.41099 0.39035 0.03085 0.0
C1094 C 0.49491 0.37338 0.00488 0.0
C1095 C 0.45397 0.38249 0.99075 0.0
C1096 C 0.51648 0.36911 0.98632 0.0
C1097 C 0.52048 0.36935 0.93458 0.0
C1098 C 0.47706 0.37797 0.9716 0.0
C1099 C 0.50216 0.37395 0.90246 0.0
C1100 C 0.43604 0.38878 0.95895 0.0
C1101 C 0.42938 0.38411 0.06111 0.0
N1102 N 0.48124 0.37808 0.92148 0.0
N1103 N 0.44998 0.38042 0.04065 0.0
H1104 H 0.88573 0.42329 0.85408 0.0
H1105 H 0.86881 0.50056 0.61185 0.0
H1106 H 0.89395 0.39762 0.70381 0.0
H1107 H 0.86475 0.52477 0.76411 0.0
H1108 H 0.87762 0.46282 0.6434 0.0
H1109 H 0.87781 0.46042 0.8204 0.0
C1110 C 0.88591 0.42545 0.8138 0.0
C1111 C 0.89045 0.40723 0.78168 0.0
C1112 C 0.87479 0.47641 0.66984 0.0
C1113 C 0.88126 0.45009 0.74262 0.0
C1114 C 0.86983 0.49801 0.6519 0.0
C1115 C 0.86607 0.51599 0.68536 0.0
C1116 C 0.87598 0.47271 0.72165 0.0
C1117 C 0.86723 0.51149 0.73685 0.0
C1118 C 0.88137 0.44677 0.79457 0.0
C1119 C 0.89056 0.41121 0.72989 0.0
N1120 N 0.87212 0.49035 0.75332 0.0
N1121 N 0.88593 0.43225 0.71187 0.0
H1122 H 0.50236 0.12871 0.38955 0.0
H1123 H 0.42213 0.13472 0.14908 0.0
H1124 H 0.52537 0.14325 0.23961 0.0
H1125 H 0.39851 0.11063 0.29233 0.0
H1126 H 0.4595 0.14009 0.18434 0.0
H1127 H 0.464 0.12378 0.35711 0.0
C1128 C 0.49945 0.13079 0.34983 0.0
C1129 C 0.51729 0.1364 0.31731 0.0
C1130 C 0.44623 0.13362 0.20826 0.0
C1131 C 0.47325 0.13106 0.28016 0.0
C1132 C 0.42477 0.13056 0.18814 0.0
C1133 C 0.4071 0.12212 0.21777 0.0
C1134 C 0.45026 0.12828 0.25862 0.0
C1135 C 0.41166 0.11713 0.26816 0.0
C1136 C 0.47748 0.12806 0.33142 0.0
C1137 C 0.51227 0.13924 0.26633 0.0
N1138 N 0.43287 0.12028 0.28708 0.0
N1139 N 0.49078 0.13653 0.24944 0.0
H1140 H 0.11397 0.49359 0.62232 0.0
H1141 H 0.15095 0.58591 0.82435 0.0
H1142 H 0.16853 0.48459 0.72806 0.0
H1143 H 0.10136 0.59935 0.70947 0.0
H1144 H 0.15809 0.54912 0.78728 0.0
H1145 H 0.10946 0.53241 0.65156 0.0
C1146 C 0.12514 0.49976 0.6514 0.0
C1147 C 0.14166 0.48565 0.6728 0.0
C1148 C 0.14573 0.56009 0.76981 0.0
C1149 C 0.13636 0.53014 0.70679 0.0
C1150 C 0.14162 0.58114 0.79102 0.0
C1151 C 0.1254 0.59565 0.77015 0.0
C1152 C 0.13341 0.55324 0.72752 0.0
C1153 C 0.11401 0.58865 0.72669 0.0
C1154 C 0.12247 0.52195 0.66818 0.0
C1155 C 0.15535 0.49461 0.71093 0.0
N1156 N 0.11808 0.56779 0.70701 0.0
N1157 N 0.15235 0.51622 0.72672 0.0
H1158 H 0.57873 0.87365 0.13733 0.0
H1159 H 0.50571 0.87072 0.38832 0.0
H1160 H 0.60647 0.89352 0.28048 0.0
H1161 H 0.47799 0.86444 0.23916 0.0
H1162 H 0.54317 0.87653 0.35191 0.0
H1163 H 0.54243 0.86716 0.17663 0.0
C1164 C 0.57723 0.87664 0.17721 0.0
C1165 C 0.59573 0.88423 0.20562 0.0
C1166 C 0.52883 0.87386 0.32731 0.0
C1167 C 0.55381 0.87679 0.25113 0.0
C1168 C 0.50737 0.87062 0.348 0.0
C1169 C 0.48846 0.86706 0.31688 0.0
C1170 C 0.53146 0.87341 0.27513 0.0
C1171 C 0.49191 0.86676 0.26489 0.0
C1172 C 0.55638 0.87295 0.19964 0.0
C1173 C 0.59263 0.88772 0.25717 0.0
N1174 N 0.51293 0.86988 0.24579 0.0
N1175 N 0.57201 0.88397 0.27838 0.0
H1176 H 0.8936 0.10465 0.53955 0.0
H1177 H 0.86246 0.97584 0.47629 0.0
H1178 H 0.8783 0.07913 0.39175 0.0
H1179 H 0.86901 1.00072 0.62771 0.0
H1180 H 0.86957 0.01378 0.44534 0.0
H1181 H 0.88636 0.06669 0.57362 0.0
C1182 C 0.88877 0.09113 0.51435 0.0
C1183 C 0.88652 0.09509 0.46279 0.0
C1184 C 0.86942 0.01099 0.48541 0.0
C1185 C 0.87827 0.05187 0.50119 0.0
C1186 C 0.8652 0.98926 0.50314 0.0
C1187 C 0.8651 0.98494 0.55477 0.0
C1188 C 0.87364 0.02865 0.5194 0.0
C1189 C 0.86921 0.00312 0.5876 0.0
C1190 C 0.8846 0.06952 0.53375 0.0
C1191 C 0.8802 0.07697 0.43178 0.0
N1192 N 0.87334 0.02417 0.56938 0.0
N1193 N 0.87634 0.05625 0.45143 0.0
H1194 H 0.07758 0.11543 0.60235 0.0
H1195 H 0.00481 0.13416 0.35356 0.0
H1196 H 0.10645 0.10932 0.45459 0.0
H1197 H 0.97723 0.13313 0.50313 0.0
H1198 H 0.04214 0.12558 0.38826 0.0
H1199 H 0.04087 0.12243 0.56514 0.0
C1200 C 0.07621 0.11553 0.56189 0.0
C1201 C 0.09518 0.11185 0.53151 0.0
C1202 C 0.02789 0.12723 0.41338 0.0
C1203 C 0.05284 0.11998 0.48836 0.0
C1204 C 0.00652 0.13206 0.39362 0.0
C1205 C 0.98774 0.13444 0.42543 0.0
C1206 C 0.03051 0.1248 0.46532 0.0
C1207 C 0.99115 0.13183 0.47711 0.0
C1208 C 0.05514 0.11952 0.54062 0.0
C1209 C 0.09224 0.11206 0.47935 0.0
N1210 N 0.01206 0.12717 0.49532 0.0
N1211 N 0.07143 0.11617 0.45932 0.0
H1212 H 0.11103 0.89228 0.54402 0.0
H1213 H 0.1392 0.02237 0.48851 0.0
H1214 H 0.1237 0.91994 0.39719 0.0
H1215 H 0.13701 0.99492 0.63821 0.0
H1216 H 0.13186 0.98485 0.45516 0.0
H1217 H 0.11842 0.92983 0.58034 0.0
C1218 C 0.11529 0.9062 0.5195 0.0
C1219 C 0.11679 0.90295 0.46755 0.0
C1220 C 0.13301 0.987 0.49536 0.0
C1221 C 0.1252 0.94573 0.50854 0.0
C1222 C 0.13737 0.00849 0.51449 0.0
C1223 C 0.13878 0.01198 0.56638 0.0
C1224 C 0.12994 0.96872 0.52821 0.0
C1225 C 0.13579 0.99319 0.598 0.0
C1226 C 0.11957 0.92757 0.54018 0.0
C1227 C 0.12242 0.92156 0.43746 0.0
N1228 N 0.13148 0.97239 0.57843 0.0
N1229 N 0.12638 0.94206 0.45835 0.0
H1230 H 0.99925 0.86423 0.35153 0.0
H1231 H 0.91974 0.87009 0.5924 0.0
H1232 H 0.02289 0.85743 0.50391 0.0
H1233 H 0.89625 0.88881 0.44499 0.0
H1234 H 0.95697 0.86283 0.5584 0.0
H1235 H 0.96109 0.87097 0.383 0.0
C1236 C 0.99654 0.86422 0.39157 0.0
C1237 C 0.01453 0.8603 0.42505 0.0
C1238 C 0.94376 0.86854 0.5333 0.0
C1239 C 0.97066 0.86773 0.46117 0.0
C1240 C 0.92237 0.87267 0.55269 0.0
C1241 C 0.90477 0.88013 0.5215 0.0
C1242 C 0.94778 0.87177 0.4821 0.0
C1243 C 0.90935 0.88312 0.47037 0.0
C1244 C 0.97467 0.86799 0.40944 0.0
C1245 C 0.0097 0.86008 0.47649 0.0
N1246 N 0.93046 0.87891 0.45218 0.0
N1247 N 0.98829 0.86375 0.49286 0.0
loop_
_geom_bond_atom_site_label_1
_geom_bond_atom_site_label_2
_geom_bond_distance
_geom_bond_site_symmetry_2
_ccdc_geom_bond_type
C0 C1 1.351 . S
C0 N3 1.368 . S
C0 H5 0.931 . S
C1 C0 1.351 . S
C1 N2 1.373 . S
C1 H29 0.930 . S
N2 C1 1.373 . S
N2 C4 1.340 . S
N3 C0 1.368 . S
N3 C4 1.321 . S
N3 Co6 2.135 . S
C4 N2 1.340 . S
C4 N3 1.321 . S
C4 H28 0.930 . S
H5 C0 0.931 . S
Co6 N3 2.135 . S
Co6 N9 2.121 . S
Co6 O14 2.055 . S
Co6 O17 2.039 . S
Co6 N20 2.140 . S
C7 O8 1.227 . S
C7 O17 1.265 . S
O8 C7 1.227 . S
N9 Co6 2.121 . S
N9 C11 1.375 . S
N9 C12 1.313 . S
C10 C11 1.338 . S
C10 N13 1.377 . S
C10 H30 0.930 . S
C11 N9 1.375 . S
C11 C10 1.338 . S
C11 H15 0.931 . S
C12 N9 1.313 . S
C12 N13 1.344 . S
C12 H16 0.930 . S
N13 C10 1.377 . S
N13 C12 1.344 . S
O14 Co6 2.055 . S
O14 C18 1.253 . S
H15 C11 0.931 . S
H16 C12 0.930 . S
O17 Co6 2.039 . S
O17 C7 1.265 . S
C18 O14 1.253 . S
C18 O19 1.227 . S
O19 C18 1.227 . S
N20 Co6 2.140 . S
N20 C23 1.346 . S
N20 C24 1.345 . S
C21 C22 1.387 . S
C21 C25 1.391 . S
C22 C21 1.387 . S
C22 C23 1.369 . S
C22 H31 0.929 . S
C23 N20 1.346 . S
C23 C22 1.369 . S
C23 H26 0.928 . S
C24 N20 1.345 . S
C24 C25 1.371 . S
C24 H27 0.931 . S
C25 C21 1.391 . S
C25 C24 1.371 . S
C25 H32 0.930 . S
H26 C23 0.928 . S
H27 C24 0.931 . S
H28 C4 0.930 . S
H29 C1 0.930 . S
H30 C10 0.930 . S
H31 C22 0.929 . S
H32 C25 0.930 . S
C33 C34 1.351 . S
C33 N36 1.368 . S
C33 H38 0.931 . S
C34 C33 1.351 . S
C34 N35 1.373 . S
C34 H62 0.930 . S
N35 C34 1.373 . S
N35 C37 1.340 . S
N36 C33 1.368 . S
N36 C37 1.321 . S
N36 Co39 2.135 . S
C37 N35 1.340 . S
C37 N36 1.321 . S
C37 H61 0.930 . S
H38 C33 0.931 . S
Co39 N36 2.135 . S
Co39 N42 2.121 . S
Co39 O47 2.055 . S
Co39 O50 2.039 . S
Co39 N53 2.140 . S
C40 O41 1.227 . S
C40 O50 1.265 . S
O41 C40 1.227 . S
N42 Co39 2.121 . S
N42 C44 1.375 . S
N42 C45 1.313 . S
C43 C44 1.338 . S
C43 N46 1.377 . S
C43 H63 0.930 . S
C44 N42 1.375 . S
C44 C43 1.338 . S
C44 H48 0.931 . S
C45 N42 1.313 . S
C45 N46 1.344 . S
C45 H49 0.930 . S
N46 C43 1.377 . S
N46 C45 1.344 . S
O47 Co39 2.055 . S
O47 C51 1.253 . S
H48 C44 0.931 . S
H49 C45 0.930 . S
O50 Co39 2.039 . S
O50 C40 1.265 . S
C51 O47 1.253 . S
C51 O52 1.227 . S
O52 C51 1.227 . S
N53 Co39 2.140 . S
N53 C56 1.346 . S
N53 C57 1.345 . S
C54 C55 1.387 . S
C54 C58 1.391 . S
C55 C54 1.387 . S
C55 C56 1.369 . S
C55 H64 0.929 . S
C56 N53 1.346 . S
C56 C55 1.369 . S
C56 H59 0.928 . S
C57 N53 1.345 . S
C57 C58 1.371 . S
C57 H60 0.931 . S
C58 C54 1.391 . S
C58 C57 1.371 . S
C58 H65 0.930 . S
H59 C56 0.928 . S
H60 C57 0.931 . S
H61 C37 0.930 . S
H62 C34 0.930 . S
H63 C43 0.930 . S
H64 C55 0.929 . S
H65 C58 0.930 . S
C66 C67 1.351 . S
C66 N69 1.368 . S
C66 H71 0.931 . S
C67 C66 1.351 . S
C67 N68 1.373 . S
C67 H95 0.930 . S
N68 C67 1.373 . S
N68 C70 1.340 . S
N69 C66 1.368 . S
N69 C70 1.321 . S
N69 Co72 2.135 . S
C70 N68 1.340 . S
C70 N69 1.321 . S
C70 H94 0.930 . S
H71 C66 0.931 . S
Co72 N69 2.135 . S
Co72 N75 2.121 . S
Co72 O80 2.055 . S
Co72 O83 2.039 . S
Co72 N86 2.140 . S
C73 O74 1.227 . S
C73 O83 1.265 . S
O74 C73 1.227 . S
N75 Co72 2.121 . S
N75 C77 1.375 . S
N75 C78 1.313 . S
C76 C77 1.338 . S
C76 N79 1.377 . S
C76 H96 0.930 . S
C77 N75 1.375 . S
C77 C76 1.338 . S
C77 H81 0.931 . S
C78 N75 1.313 . S
C78 N79 1.344 . S
C78 H82 0.930 . S
N79 C76 1.377 . S
N79 C78 1.344 . S
O80 Co72 2.055 . S
O80 C84 1.253 . S
H81 C77 0.931 . S
H82 C78 0.930 . S
O83 Co72 2.039 . S
O83 C73 1.265 . S
C84 O80 1.253 . S
C84 O85 1.227 . S
O85 C84 1.227 . S
N86 Co72 2.140 . S
N86 C89 1.346 . S
N86 C90 1.345 . S
C87 C88 1.387 . S
C87 C91 1.391 . S
C88 C87 1.387 . S
C88 C89 1.369 . S
C88 H97 0.929 . S
C89 N86 1.346 . S
C89 C88 1.369 . S
C89 H92 0.928 . S
C90 N86 1.345 . S
C90 C91 1.371 . S
C90 H93 0.931 . S
C91 C87 1.391 . S
C91 C90 1.371 . S
C91 H98 0.930 . S
H92 C89 0.928 . S
H93 C90 0.931 . S
H94 C70 0.930 . S
H95 C67 0.930 . S
H96 C76 0.930 . S
H97 C88 0.929 . S
H98 C91 0.930 . S
C99 C100 1.351 . S
C99 N102 1.368 . S
C99 H104 0.931 . S
C100 C99 1.351 . S
C100 N101 1.373 . S
C100 H128 0.930 . S
N101 C100 1.373 . S
N101 C103 1.340 . S
N102 C99 1.368 . S
N102 C103 1.321 . S
N102 Co105 2.135 . S
C103 N101 1.340 . S
C103 N102 1.321 . S
C103 H127 0.930 . S
H104 C99 0.931 . S
Co105 N102 2.135 . S
Co105 N108 2.121 . S
Co105 O113 2.055 . S
Co105 O116 2.039 . S
Co105 N119 2.140 . S
C106 O107 1.227 . S
C106 O116 1.265 . S
O107 C106 1.227 . S
N108 Co105 2.121 . S
N108 C110 1.375 . S
N108 C111 1.313 . S
C109 C110 1.338 . S
C109 N112 1.377 . S
C109 H129 0.930 . S
C110 N108 1.375 . S
C110 C109 1.338 . S
C110 H114 0.931 . S
C111 N108 1.313 . S
C111 N112 1.344 . S
C111 H115 0.930 . S
N112 C109 1.377 . S
N112 C111 1.344 . S
O113 Co105 2.055 . S
O113 C117 1.253 . S
H114 C110 0.931 . S
H115 C111 0.930 . S
O116 Co105 2.039 . S
O116 C106 1.265 . S
C117 O113 1.253 . S
C117 O118 1.227 . S
O118 C117 1.227 . S
N119 Co105 2.140 . S
N119 C122 1.346 . S
N119 C123 1.345 . S
C120 C121 1.387 . S
C120 C124 1.391 . S
C121 C120 1.387 . S
C121 C122 1.369 . S
C121 H130 0.929 . S
C122 N119 1.346 . S
C122 C121 1.369 . S
C122 H125 0.928 . S
C123 N119 1.345 . S
C123 C124 1.371 . S
C123 H126 0.931 . S
C124 C120 1.391 . S
C124 C123 1.371 . S
C124 H131 0.930 . S
H125 C122 0.928 . S
H126 C123 0.931 . S
H127 C103 0.930 . S
H128 C100 0.930 . S
H129 C109 0.930 . S
H130 C121 0.929 . S
H131 C124 0.930 . S
C132 C133 1.351 . S
C132 N135 1.368 . S
C132 H137 0.931 . S
C133 C132 1.351 . S
C133 N134 1.373 . S
C133 H161 0.930 . S
N134 C133 1.373 . S
N134 C136 1.340 . S
N135 C132 1.368 . S
N135 C136 1.321 . S
N135 Co138 2.135 . S
C136 N134 1.340 . S
C136 N135 1.321 . S
C136 H160 0.930 . S
H137 C132 0.931 . S
Co138 N135 2.135 . S
Co138 N141 2.121 . S
Co138 O146 2.055 . S
Co138 O149 2.039 1_554 S
Co138 N152 2.140 . S
C139 O140 1.227 . S
C139 O149 1.265 1_554 S
O140 C139 1.227 . S
N141 Co138 2.121 . S
N141 C143 1.375 . S
N141 C144 1.313 . S
C142 C143 1.338 . S
C142 N145 1.377 . S
C142 H162 0.930 . S
C143 N141 1.375 . S
C143 C142 1.338 . S
C143 H147 0.931 . S
C144 N141 1.313 . S
C144 N145 1.344 . S
C144 H148 0.930 . S
N145 C142 1.377 . S
N145 C144 1.344 . S
O146 Co138 2.055 . S
O146 C150 1.253 . S
H147 C143 0.931 . S
H148 C144 0.930 . S
O149 Co138 2.039 1_556 S
O149 C139 1.265 1_556 S
C150 O146 1.253 . S
C150 O151 1.227 . S
O151 C150 1.227 . S
N152 Co138 2.140 . S
N152 C155 1.346 . S
N152 C156 1.345 . S
C153 C154 1.387 . S
C153 C157 1.391 . S
C154 C153 1.387 . S
C154 C155 1.369 . S
C154 H163 0.929 . S
C155 N152 1.346 . S
C155 C154 1.369 . S
C155 H158 0.928 . S
C156 N152 1.345 . S
C156 C157 1.371 . S
C156 H159 0.931 . S
C157 C153 1.391 . S
C157 C156 1.371 . S
C157 H164 0.930 . S
H158 C155 0.928 . S
H159 C156 0.931 . S
H160 C136 0.930 . S
H161 C133 0.930 . S
H162 C142 0.930 . S
H163 C154 0.929 . S
H164 C157 0.930 . S
C165 C166 1.351 . S
C165 N168 1.368 . S
C165 H170 0.931 . S
C166 C165 1.351 . S
C166 N167 1.373 . S
C166 H194 0.930 . S
N167 C166 1.373 . S
N167 C169 1.340 . S
N168 C165 1.368 . S
N168 C169 1.321 . S
N168 Co171 2.135 . S
C169 N167 1.340 . S
C169 N168 1.321 . S
C169 H193 0.930 . S
H170 C165 0.931 . S
Co171 N168 2.135 . S
Co171 N174 2.121 . S
Co171 O179 2.055 . S
Co171 O182 2.039 1_556 S
Co171 N185 2.140 . S
C172 O173 1.227 . S
C172 O182 1.265 1_556 S
O173 C172 1.227 . S
N174 Co171 2.121 . S
N174 C176 1.375 . S
N174 C177 1.313 . S
C175 C176 1.338 . S
C175 N178 1.377 . S
C175 H195 0.930 . S
C176 N174 1.375 . S
C176 C175 1.338 . S
C176 H180 0.931 . S
C177 N174 1.313 . S
C177 N178 1.344 . S
C177 H181 0.930 . S
N178 C175 1.377 . S
N178 C177 1.344 . S
O179 Co171 2.055 . S
O179 C183 1.253 . S
H180 C176 0.931 . S
H181 C177 0.930 . S
O182 Co171 2.039 1_554 S
O182 C172 1.265 1_554 S
C183 O179 1.253 . S
C183 O184 1.227 . S
O184 C183 1.227 . S
N185 Co171 2.140 . S
N185 C188 1.346 . S
N185 C189 1.345 . S
C186 C187 1.387 . S
C186 C190 1.391 . S
C187 C186 1.387 . S
C187 C188 1.369 . S
C187 H196 0.929 . S
C188 N185 1.346 . S
C188 C187 1.369 . S
C188 H191 0.928 . S
C189 N185 1.345 . S
C189 C190 1.371 . S
C189 H192 0.931 . S
C190 C186 1.391 . S
C190 C189 1.371 . S
C190 H197 0.930 . S
H191 C188 0.928 . S
H192 C189 0.931 . S
H193 C169 0.930 . S
H194 C166 0.930 . S
H195 C175 0.930 . S
H196 C187 0.929 . S
H197 C190 0.930 . S
C198 C199 1.351 . S
C198 N201 1.368 . S
C198 H203 0.931 . S
C199 C198 1.351 . S
C199 N200 1.373 . S
C199 H227 0.930 . S
N200 C199 1.373 . S
N200 C202 1.340 . S
N201 C198 1.368 . S
N201 C202 1.321 . S
N201 Co204 2.135 . S
C202 N200 1.340 . S
C202 N201 1.321 . S
C202 H226 0.930 . S
H203 C198 0.931 . S
Co204 N201 2.135 . S
Co204 N207 2.121 . S
Co204 O212 2.055 . S
Co204 O215 2.039 1_554 S
Co204 N218 2.140 . S
C205 O206 1.227 . S
C205 O215 1.265 1_554 S
O206 C205 1.227 . S
N207 Co204 2.121 . S
N207 C209 1.375 . S
N207 C210 1.313 . S
C208 C209 1.338 . S
C208 N211 1.377 . S
C208 H228 0.930 . S
C209 N207 1.375 . S
C209 C208 1.338 . S
C209 H213 0.931 . S
C210 N207 1.313 . S
C210 N211 1.344 . S
C210 H214 0.930 . S
N211 C208 1.377 . S
N211 C210 1.344 . S
O212 Co204 2.055 . S
O212 C216 1.253 . S
H213 C209 0.931 . S
H214 C210 0.930 . S
O215 Co204 2.039 1_556 S
O215 C205 1.265 1_556 S
C216 O212 1.253 . S
C216 O217 1.227 . S
O217 C216 1.227 . S
N218 Co204 2.140 . S
N218 C221 1.346 . S
N218 C222 1.345 . S
C219 C220 1.387 . S
C219 C223 1.391 . S
C220 C219 1.387 . S
C220 C221 1.369 . S
C220 H229 0.929 . S
C221 N218 1.346 . S
C221 C220 1.369 . S
C221 H224 0.928 . S
C222 N218 1.345 . S
C222 C223 1.371 . S
C222 H225 0.931 . S
C223 C219 1.391 . S
C223 C222 1.371 . S
C223 H230 0.930 . S
H224 C221 0.928 . S
H225 C222 0.931 . S
H226 C202 0.930 . S
H227 C199 0.930 . S
H228 C208 0.930 . S
H229 C220 0.929 . S
H230 C223 0.930 . S
C231 C232 1.351 . S
C231 N234 1.368 . S
C231 H236 0.931 . S
C232 C231 1.351 . S
C232 N233 1.373 . S
C232 H260 0.930 . S
N233 C232 1.373 . S
N233 C235 1.340 . S
N234 C231 1.368 . S
N234 C235 1.321 . S
N234 Co237 2.135 . S
C235 N233 1.340 . S
C235 N234 1.321 . S
C235 H259 0.930 . S
H236 C231 0.931 . S
Co237 N234 2.135 . S
Co237 N240 2.121 . S
Co237 O245 2.055 . S
Co237 O248 2.039 1_556 S
Co237 N251 2.140 . S
C238 O239 1.227 . S
C238 O248 1.265 1_556 S
O239 C238 1.227 . S
N240 Co237 2.121 . S
N240 C242 1.375 . S
N240 C243 1.313 . S
C241 C242 1.338 . S
C241 N244 1.377 . S
C241 H261 0.930 . S
C242 N240 1.375 . S
C242 C241 1.338 . S
C242 H246 0.931 . S
C243 N240 1.313 . S
C243 N244 1.344 . S
C243 H247 0.930 . S
N244 C241 1.377 . S
N244 C243 1.344 . S
O245 Co237 2.055 . S
O245 C249 1.253 . S
H246 C242 0.931 . S
H247 C243 0.930 . S
O248 Co237 2.039 1_554 S
O248 C238 1.265 1_554 S
C249 O245 1.253 . S
C249 O250 1.227 . S
O250 C249 1.227 . S
N251 Co237 2.140 . S
N251 C254 1.346 . S
N251 C255 1.345 . S
C252 C253 1.387 . S
C252 C256 1.391 . S
C253 C252 1.387 . S
C253 C254 1.369 . S
C253 H262 0.929 . S
C254 N251 1.346 . S
C254 C253 1.369 . S
C254 H257 0.928 . S
C255 N251 1.345 . S
C255 C256 1.371 . S
C255 H258 0.931 . S
C256 C252 1.391 . S
C256 C255 1.371 . S
C256 H263 0.930 . S
H257 C254 0.928 . S
H258 C255 0.931 . S
H259 C235 0.930 . S
H260 C232 0.930 . S
H261 C241 0.930 . S
H262 C253 0.929 . S
H263 C256 0.930 . S
C264 C265 1.351 . S
C264 N267 1.368 . S
C264 H269 0.931 . S
C265 C264 1.351 . S
C265 N266 1.373 . S
C265 H293 0.930 . S
N266 C265 1.373 . S
N266 C268 1.340 . S
N267 C264 1.368 . S
N267 C268 1.321 . S
N267 Co270 2.135 . S
C268 N266 1.340 . S
C268 N267 1.321 . S
C268 H292 0.930 . S
H269 C264 0.931 . S
Co270 N267 2.135 . S
Co270 N273 2.121 . S
Co270 O278 2.055 . S
Co270 O281 2.039 . S
Co270 N284 2.140 . S
C271 O272 1.227 . S
C271 O281 1.265 . S
O272 C271 1.227 . S
N273 Co270 2.121 . S
N273 C275 1.375 . S
N273 C276 1.313 . S
C274 C275 1.338 . S
C274 N277 1.377 . S
C274 H294 0.930 . S
C275 N273 1.375 . S
C275 C274 1.338 . S
C275 H279 0.931 . S
C276 N273 1.313 . S
C276 N277 1.344 . S
C276 H280 0.930 . S
N277 C274 1.377 . S
N277 C276 1.344 . S
O278 Co270 2.055 . S
O278 C282 1.253 . S
H279 C275 0.931 . S
H280 C276 0.930 . S
O281 Co270 2.039 . S
O281 C271 1.265 . S
C282 O278 1.253 . S
C282 O283 1.227 . S
O283 C282 1.227 . S
N284 Co270 2.140 . S
N284 C287 1.346 . S
N284 C288 1.345 . S
C285 C286 1.387 . S
C285 C289 1.391 . S
C286 C285 1.387 . S
C286 C287 1.369 . S
C286 H295 0.929 . S
C287 N284 1.346 . S
C287 C286 1.369 . S
C287 H290 0.928 . S
C288 N284 1.345 . S
C288 C289 1.371 . S
C288 H291 0.931 . S
C289 C285 1.391 . S
C289 C288 1.371 . S
C289 H296 0.930 . S
H290 C287 0.928 . S
H291 C288 0.931 . S
H292 C268 0.930 . S
H293 C265 0.930 . S
H294 C274 0.930 . S
H295 C286 0.929 . S
H296 C289 0.930 . S
C297 C298 1.351 . S
C297 N300 1.368 . S
C297 H302 0.931 . S
C298 C297 1.351 . S
C298 N299 1.373 . S
C298 H326 0.930 . S
N299 C298 1.373 . S
N299 C301 1.340 . S
N300 C297 1.368 . S
N300 C301 1.321 . S
N300 Co303 2.135 . S
C301 N299 1.340 . S
C301 N300 1.321 . S
C301 H325 0.930 . S
H302 C297 0.931 . S
Co303 N300 2.135 . S
Co303 N306 2.121 . S
Co303 O311 2.055 . S
Co303 O314 2.039 . S
Co303 N317 2.140 . S
C304 O305 1.227 . S
C304 O314 1.265 . S
O305 C304 1.227 . S
N306 Co303 2.121 . S
N306 C308 1.375 . S
N306 C309 1.313 . S
C307 C308 1.338 . S
C307 N310 1.377 . S
C307 H327 0.930 . S
C308 N306 1.375 . S
C308 C307 1.338 . S
C308 H312 0.931 . S
C309 N306 1.313 . S
C309 N310 1.344 . S
C309 H313 0.930 . S
N310 C307 1.377 . S
N310 C309 1.344 . S
O311 Co303 2.055 . S
O311 C315 1.253 . S
H312 C308 0.931 . S
H313 C309 0.930 . S
O314 Co303 2.039 . S
O314 C304 1.265 . S
C315 O311 1.253 . S
C315 O316 1.227 . S
O316 C315 1.227 . S
N317 Co303 2.140 . S
N317 C320 1.346 . S
N317 C321 1.345 . S
C318 C319 1.387 . S
C318 C322 1.391 . S
C319 C318 1.387 . S
C319 C320 1.369 . S
C319 H328 0.929 . S
C320 N317 1.346 . S
C320 C319 1.369 . S
C320 H323 0.928 . S
C321 N317 1.345 . S
C321 C322 1.371 . S
C321 H324 0.931 . S
C322 C318 1.391 . S
C322 C321 1.371 . S
C322 H329 0.930 . S
H323 C320 0.928 . S
H324 C321 0.931 . S
H325 C301 0.930 . S
H326 C298 0.930 . S
H327 C307 0.930 . S
H328 C319 0.929 . S
H329 C322 0.930 . S
C330 C331 1.351 . S
C330 N333 1.368 . S
C330 H335 0.931 . S
C331 C330 1.351 . S
C331 N332 1.373 . S
C331 H359 0.930 . S
N332 C331 1.373 . S
N332 C334 1.340 . S
N333 C330 1.368 . S
N333 C334 1.321 . S
N333 Co336 2.135 . S
C334 N332 1.340 . S
C334 N333 1.321 . S
C334 H358 0.930 . S
H335 C330 0.931 . S
Co336 N333 2.135 . S
Co336 N339 2.121 . S
Co336 O344 2.055 . S
Co336 O347 2.039 . S
Co336 N350 2.140 . S
C337 O338 1.227 . S
C337 O347 1.265 . S
O338 C337 1.227 . S
N339 Co336 2.121 . S
N339 C341 1.375 . S
N339 C342 1.313 . S
C340 C341 1.338 . S
C340 N343 1.377 . S
C340 H360 0.930 . S
C341 N339 1.375 . S
C341 C340 1.338 . S
C341 H345 0.931 . S
C342 N339 1.313 . S
C342 N343 1.344 . S
C342 H346 0.930 . S
N343 C340 1.377 . S
N343 C342 1.344 . S
O344 Co336 2.055 . S
O344 C348 1.253 . S
H345 C341 0.931 . S
H346 C342 0.930 . S
O347 Co336 2.039 . S
O347 C337 1.265 . S
C348 O344 1.253 . S
C348 O349 1.227 . S
O349 C348 1.227 . S
N350 Co336 2.140 . S
N350 C353 1.346 . S
N350 C354 1.345 . S
C351 C352 1.387 . S
C351 C355 1.391 . S
C352 C351 1.387 . S
C352 C353 1.369 . S
C352 H361 0.929 . S
C353 N350 1.346 . S
C353 C352 1.369 . S
C353 H356 0.928 . S
C354 N350 1.345 . S
C354 C355 1.371 . S
C354 H357 0.931 . S
C355 C351 1.391 . S
C355 C354 1.371 . S
C355 H362 0.930 . S
H356 C353 0.928 . S
H357 C354 0.931 . S
H358 C334 0.930 . S
H359 C331 0.930 . S
H360 C340 0.930 . S
H361 C352 0.929 . S
H362 C355 0.930 . S
C363 C364 1.351 . S
C363 N366 1.368 . S
C363 H368 0.931 . S
C364 C363 1.351 . S
C364 N365 1.373 . S
C364 H392 0.930 . S
N365 C364 1.373 . S
N365 C367 1.340 . S
N366 C363 1.368 . S
N366 C367 1.321 . S
N366 Co369 2.135 . S
C367 N365 1.340 . S
C367 N366 1.321 . S
C367 H391 0.930 . S
H368 C363 0.931 . S
Co369 N366 2.135 . S
Co369 N372 2.121 . S
Co369 O377 2.055 . S
Co369 O380 2.039 . S
Co369 N383 2.140 . S
C370 O371 1.227 . S
C370 O380 1.265 . S
O371 C370 1.227 . S
N372 Co369 2.121 . S
N372 C374 1.375 . S
N372 C375 1.313 . S
C373 C374 1.338 . S
C373 N376 1.377 . S
C373 H393 0.930 . S
C374 N372 1.375 . S
C374 C373 1.338 . S
C374 H378 0.931 . S
C375 N372 1.313 . S
C375 N376 1.344 . S
C375 H379 0.930 . S
N376 C373 1.377 . S
N376 C375 1.344 . S
O377 Co369 2.055 . S
O377 C381 1.253 . S
H378 C374 0.931 . S
H379 C375 0.930 . S
O380 Co369 2.039 . S
O380 C370 1.265 . S
C381 O377 1.253 . S
C381 O382 1.227 . S
O382 C381 1.227 . S
N383 Co369 2.140 . S
N383 C386 1.346 . S
N383 C387 1.345 . S
C384 C385 1.387 . S
C384 C388 1.391 . S
C385 C384 1.387 . S
C385 C386 1.369 . S
C385 H394 0.929 . S
C386 N383 1.346 . S
C386 C385 1.369 . S
C386 H389 0.928 . S
C387 N383 1.345 . S
C387 C388 1.371 . S
C387 H390 0.931 . S
C388 C384 1.391 . S
C388 C387 1.371 . S
C388 H395 0.930 . S
H389 C386 0.928 . S
H390 C387 0.931 . S
H391 C367 0.930 . S
H392 C364 0.930 . S
H393 C373 0.930 . S
H394 C385 0.929 . S
H395 C388 0.930 . S
C396 C397 1.351 . S
C396 N399 1.368 . S
C396 H401 0.931 . S
C397 C396 1.351 . S
C397 N398 1.373 . S
C397 H425 0.930 . S
N398 C397 1.373 . S
N398 C400 1.340 . S
N399 C396 1.368 . S
N399 C400 1.321 . S
N399 Co402 2.135 . S
C400 N398 1.340 . S
C400 N399 1.321 . S
C400 H424 0.930 . S
H401 C396 0.931 . S
Co402 N399 2.135 . S
Co402 N405 2.121 . S
Co402 O410 2.055 . S
Co402 O413 2.039 . S
Co402 N416 2.140 . S
C403 O404 1.227 . S
C403 O413 1.265 . S
O404 C403 1.227 . S
N405 Co402 2.121 . S
N405 C407 1.375 . S
N405 C408 1.313 . S
C406 C407 1.338 . S
C406 N409 1.377 . S
C406 H426 0.930 . S
C407 N405 1.375 . S
C407 C406 1.338 . S
C407 H411 0.931 . S
C408 N405 1.313 . S
C408 N409 1.344 . S
C408 H412 0.930 . S
N409 C406 1.377 . S
N409 C408 1.344 . S
O410 Co402 2.055 . S
O410 C414 1.253 . S
H411 C407 0.931 . S
H412 C408 0.930 . S
O413 Co402 2.039 . S
O413 C403 1.265 . S
C414 O410 1.253 . S
C414 O415 1.227 . S
O415 C414 1.227 . S
N416 Co402 2.140 . S
N416 C419 1.346 . S
N416 C420 1.345 . S
C417 C418 1.387 . S
C417 C421 1.391 . S
C418 C417 1.387 . S
C418 C419 1.369 . S
C418 H427 0.929 . S
C419 N416 1.346 . S
C419 C418 1.369 . S
C419 H422 0.928 . S
C420 N416 1.345 . S
C420 C421 1.371 . S
C420 H423 0.931 . S
C421 C417 1.391 . S
C421 C420 1.371 . S
C421 H428 0.930 . S
H422 C419 0.928 . S
H423 C420 0.931 . S
H424 C400 0.930 . S
H425 C397 0.930 . S
H426 C406 0.930 . S
H427 C418 0.929 . S
H428 C421 0.930 . S
C429 C430 1.351 . S
C429 N432 1.368 . S
C429 H434 0.931 . S
C430 C429 1.351 . S
C430 N431 1.373 . S
C430 H458 0.930 . S
N431 C430 1.373 . S
N431 C433 1.340 . S
N432 C429 1.368 . S
N432 C433 1.321 . S
N432 Co435 2.135 . S
C433 N431 1.340 . S
C433 N432 1.321 . S
C433 H457 0.930 . S
H434 C429 0.931 . S
Co435 N432 2.135 . S
Co435 N438 2.121 . S
Co435 O443 2.055 . S
Co435 O446 2.039 . S
Co435 N449 2.140 . S
C436 O437 1.227 . S
C436 O446 1.265 . S
O437 C436 1.227 . S
N438 Co435 2.121 . S
N438 C440 1.375 . S
N438 C441 1.313 . S
C439 C440 1.338 . S
C439 N442 1.377 . S
C439 H459 0.930 . S
C440 N438 1.375 . S
C440 C439 1.338 . S
C440 H444 0.931 . S
C441 N438 1.313 . S
C441 N442 1.344 . S
C441 H445 0.930 . S
N442 C439 1.377 . S
N442 C441 1.344 . S
O443 Co435 2.055 . S
O443 C447 1.253 . S
H444 C440 0.931 . S
H445 C441 0.930 . S
O446 Co435 2.039 . S
O446 C436 1.265 . S
C447 O443 1.253 . S
C447 O448 1.227 . S
O448 C447 1.227 . S
N449 Co435 2.140 . S
N449 C452 1.346 . S
N449 C453 1.345 . S
C450 C451 1.387 . S
C450 C454 1.391 . S
C451 C450 1.387 . S
C451 C452 1.369 . S
C451 H460 0.929 . S
C452 N449 1.346 . S
C452 C451 1.369 . S
C452 H455 0.928 . S
C453 N449 1.345 . S
C453 C454 1.371 . S
C453 H456 0.931 . S
C454 C450 1.391 . S
C454 C453 1.371 . S
C454 H461 0.930 . S
H455 C452 0.928 . S
H456 C453 0.931 . S
H457 C433 0.930 . S
H458 C430 0.930 . S
H459 C439 0.930 . S
H460 C451 0.929 . S
H461 C454 0.930 . S
C462 C463 1.351 . S
C462 N465 1.368 . S
C462 H467 0.931 . S
C463 C462 1.351 . S
C463 N464 1.373 . S
C463 H491 0.930 . S
N464 C463 1.373 . S
N464 C466 1.340 . S
N465 C462 1.368 . S
N465 C466 1.321 . S
N465 Co468 2.135 . S
C466 N464 1.340 . S
C466 N465 1.321 . S
C466 H490 0.930 . S
H467 C462 0.931 . S
Co468 N465 2.135 . S
Co468 N471 2.121 . S
Co468 O476 2.055 . S
Co468 O479 2.039 . S
Co468 N482 2.140 . S
C469 O470 1.227 . S
C469 O479 1.265 . S
O470 C469 1.227 . S
N471 Co468 2.121 . S
N471 C473 1.375 . S
N471 C474 1.313 . S
C472 C473 1.338 . S
C472 N475 1.377 . S
C472 H492 0.930 . S
C473 N471 1.375 . S
C473 C472 1.338 . S
C473 H477 0.931 . S
C474 N471 1.313 . S
C474 N475 1.344 . S
C474 H478 0.930 . S
N475 C472 1.377 . S
N475 C474 1.344 . S
O476 Co468 2.055 . S
O476 C480 1.253 . S
H477 C473 0.931 . S
H478 C474 0.930 . S
O479 Co468 2.039 . S
O479 C469 1.265 . S
C480 O476 1.253 . S
C480 O481 1.227 . S
O481 C480 1.227 . S
N482 Co468 2.140 . S
N482 C485 1.346 . S
N482 C486 1.345 . S
C483 C484 1.387 . S
C483 C487 1.391 . S
C484 C483 1.387 . S
C484 C485 1.369 . S
C484 H493 0.929 . S
C485 N482 1.346 . S
C485 C484 1.369 . S
C485 H488 0.928 . S
C486 N482 1.345 . S
C486 C487 1.371 . S
C486 H489 0.931 . S
C487 C483 1.391 . S
C487 C486 1.371 . S
C487 H494 0.930 . S
H488 C485 0.928 . S
H489 C486 0.931 . S
H490 C466 0.930 . S
H491 C463 0.930 . S
H492 C472 0.930 . S
H493 C484 0.929 . S
H494 C487 0.930 . S
C495 C496 1.351 . S
C495 N498 1.368 . S
C495 H500 0.931 . S
C496 C495 1.351 . S
C496 N497 1.373 . S
C496 H524 0.930 . S
N497 C496 1.373 . S
N497 C499 1.340 . S
N498 C495 1.368 . S
N498 C499 1.321 . S
N498 Co501 2.135 . S
C499 N497 1.340 . S
C499 N498 1.321 . S
C499 H523 0.930 . S
H500 C495 0.931 . S
Co501 N498 2.135 . S
Co501 N504 2.121 . S
Co501 O509 2.055 . S
Co501 O512 2.039 . S
Co501 N515 2.140 . S
C502 O503 1.227 . S
C502 O512 1.265 . S
O503 C502 1.227 . S
N504 Co501 2.121 . S
N504 C506 1.375 . S
N504 C507 1.313 . S
C505 C506 1.338 . S
C505 N508 1.377 . S
C505 H525 0.930 . S
C506 N504 1.375 . S
C506 C505 1.338 . S
C506 H510 0.931 . S
C507 N504 1.313 . S
C507 N508 1.344 . S
C507 H511 0.930 . S
N508 C505 1.377 . S
N508 C507 1.344 . S
O509 Co501 2.055 . S
O509 C513 1.253 . S
H510 C506 0.931 . S
H511 C507 0.930 . S
O512 Co501 2.039 . S
O512 C502 1.265 . S
C513 O509 1.253 . S
C513 O514 1.227 . S
O514 C513 1.227 . S
N515 Co501 2.140 . S
N515 C518 1.346 . S
N515 C519 1.345 . S
C516 C517 1.387 . S
C516 C520 1.391 . S
C517 C516 1.387 . S
C517 C518 1.369 . S
C517 H526 0.929 . S
C518 N515 1.346 . S
C518 C517 1.369 . S
C518 H521 0.928 . S
C519 N515 1.345 . S
C519 C520 1.371 . S
C519 H522 0.931 . S
C520 C516 1.391 . S
C520 C519 1.371 . S
C520 H527 0.930 . S
H521 C518 0.928 . S
H522 C519 0.931 . S
H523 C499 0.930 . S
H524 C496 0.930 . S
H525 C505 0.930 . S
H526 C517 0.929 . S
H527 C520 0.930 . S
H528 C534 0.930 . S
H529 C538 0.930 . S
H530 C543 0.929 . S
H531 C541 0.929 . S
H532 C536 0.929 . S
H533 C542 0.929 . S
C534 H528 0.930 . S
C534 C535 1.367 . S
C534 C542 1.378 . S
C535 C534 1.367 . S
C535 C543 1.433 . S
C536 H532 0.929 . S
C536 C538 1.378 . S
C536 C540 1.350 . S
C537 C540 1.463 . S
C537 C542 1.350 . S
C537 N545 1.427 . S
C538 H529 0.930 . S
C538 C536 1.378 . S
C538 C539 1.367 . S
C539 C538 1.367 . S
C539 C541 1.433 . S
C540 C536 1.350 . S
C540 C537 1.463 . S
C540 N544 1.427 . S
C541 H531 0.929 . S
C541 C539 1.433 . S
C541 N544 1.384 . S
C542 H533 0.929 . S
C542 C534 1.378 . S
C542 C537 1.350 . S
C543 H530 0.929 . S
C543 C535 1.433 . S
C543 N545 1.384 . S
N544 C540 1.427 . S
N544 C541 1.384 . S
N545 C537 1.427 . S
N545 C543 1.384 . S
H546 C552 0.930 . S
H547 C556 0.930 . S
H548 C561 0.929 . S
H549 C559 0.929 . S
H550 C554 0.929 . S
H551 C560 0.929 . S
C552 H546 0.930 . S
C552 C553 1.367 . S
C552 C560 1.378 . S
C553 C552 1.367 . S
C553 C561 1.433 . S
C554 H550 0.929 . S
C554 C556 1.378 . S
C554 C558 1.350 . S
C555 C558 1.463 . S
C555 C560 1.350 . S
C555 N563 1.427 . S
C556 H547 0.930 . S
C556 C554 1.378 . S
C556 C557 1.367 . S
C557 C556 1.367 . S
C557 C559 1.433 . S
C558 C554 1.350 . S
C558 C555 1.463 . S
C558 N562 1.427 . S
C559 H549 0.929 . S
C559 C557 1.433 . S
C559 N562 1.384 . S
C560 H551 0.929 . S
C560 C552 1.378 . S
C560 C555 1.350 . S
C561 H548 0.929 . S
C561 C553 1.433 . S
C561 N563 1.384 . S
N562 C558 1.427 . S
N562 C559 1.384 . S
N563 C555 1.427 . S
N563 C561 1.384 . S
H564 C570 0.930 . S
H565 C574 0.930 . S
H566 C579 0.929 . S
H567 C577 0.929 . S
H568 C572 0.929 . S
H569 C578 0.929 . S
C570 H564 0.930 . S
C570 C571 1.367 . S
C570 C578 1.378 . S
C571 C570 1.367 . S
C571 C579 1.433 . S
C572 H568 0.929 . S
C572 C574 1.378 . S
C572 C576 1.350 . S
C573 C576 1.463 . S
C573 C578 1.350 . S
C573 N581 1.427 . S
C574 H565 0.930 . S
C574 C572 1.378 . S
C574 C575 1.367 . S
C575 C574 1.367 . S
C575 C577 1.433 . S
C576 C572 1.350 . S
C576 C573 1.463 . S
C576 N580 1.427 . S
C577 H567 0.929 . S
C577 C575 1.433 . S
C577 N580 1.384 . S
C578 H569 0.929 . S
C578 C570 1.378 . S
C578 C573 1.350 . S
C579 H566 0.929 . S
C579 C571 1.433 . S
C579 N581 1.384 . S
N580 C576 1.427 . S
N580 C577 1.384 . S
N581 C573 1.427 . S
N581 C579 1.384 . S
H582 C588 0.930 . S
H583 C592 0.930 . S
H584 C597 0.929 . S
H585 C595 0.929 . S
H586 C590 0.929 . S
H587 C596 0.929 . S
C588 H582 0.930 . S
C588 C589 1.367 . S
C588 C596 1.378 . S
C589 C588 1.367 . S
C589 C597 1.433 . S
C590 H586 0.929 . S
C590 C592 1.378 . S
C590 C594 1.350 . S
C591 C594 1.463 . S
C591 C596 1.350 . S
C591 N599 1.427 . S
C592 H583 0.930 . S
C592 C590 1.378 . S
C592 C593 1.367 . S
C593 C592 1.367 . S
C593 C595 1.433 . S
C594 C590 1.350 . S
C594 C591 1.463 . S
C594 N598 1.427 . S
C595 H585 0.929 . S
C595 C593 1.433 . S
C595 N598 1.384 . S
C596 H587 0.929 . S
C596 C588 1.378 . S
C596 C591 1.350 . S
C597 H584 0.929 . S
C597 C589 1.433 . S
C597 N599 1.384 . S
N598 C594 1.427 . S
N598 C595 1.384 . S
N599 C591 1.427 . S
N599 C597 1.384 . S
H600 C606 0.930 . S
H601 C610 0.930 . S
H602 C615 0.929 1_554 S
H603 C613 0.929 . S
H604 C608 0.929 . S
H605 C614 0.929 . S
C606 H600 0.930 . S
C606 C607 1.367 . S
C606 C614 1.378 . S
C607 C606 1.367 . S
C607 C615 1.433 . S
C608 H604 0.929 . S
C608 C610 1.378 . S
C608 C612 1.350 . S
C609 C612 1.463 . S
C609 C614 1.350 . S
C609 N617 1.427 . S
C610 H601 0.930 . S
C610 C608 1.378 . S
C610 C611 1.367 . S
C611 C610 1.367 . S
C611 C613 1.433 . S
C612 C608 1.350 . S
C612 C609 1.463 . S
C612 N616 1.427 . S
C613 H603 0.929 . S
C613 C611 1.433 . S
C613 N616 1.384 . S
C614 H605 0.929 . S
C614 C606 1.378 . S
C614 C609 1.350 . S
C615 H602 0.929 1_556 S
C615 C607 1.433 . S
C615 N617 1.384 . S
N616 C612 1.427 . S
N616 C613 1.384 . S
N617 C609 1.427 . S
N617 C615 1.384 . S
H618 C624 0.930 . S
H619 C628 0.930 1_556 S
H620 C633 0.929 . S
H621 C631 0.929 . S
H622 C626 0.929 . S
H623 C632 0.929 . S
C624 H618 0.930 . S
C624 C625 1.367 . S
C624 C632 1.378 . S
C625 C624 1.367 . S
C625 C633 1.433 . S
C626 H622 0.929 . S
C626 C628 1.378 . S
C626 C630 1.350 . S
C627 C630 1.463 . S
C627 C632 1.350 . S
C627 N635 1.427 . S
C628 H619 0.930 1_554 S
C628 C626 1.378 . S
C628 C629 1.367 . S
C629 C628 1.367 . S
C629 C631 1.433 . S
C630 C626 1.350 . S
C630 C627 1.463 . S
C630 N634 1.427 . S
C631 H621 0.929 . S
C631 C629 1.433 . S
C631 N634 1.384 . S
C632 H623 0.929 . S
C632 C624 1.378 . S
C632 C627 1.350 . S
C633 H620 0.929 . S
C633 C625 1.433 . S
C633 N635 1.384 . S
N634 C630 1.427 . S
N634 C631 1.384 . S
N635 C627 1.427 . S
N635 C633 1.384 . S
H636 C642 0.930 . S
H637 C646 0.930 . S
H638 C651 0.929 1_554 S
H639 C649 0.929 . S
H640 C644 0.929 . S
H641 C650 0.929 . S
C642 H636 0.930 . S
C642 C643 1.367 . S
C642 C650 1.378 . S
C643 C642 1.367 . S
C643 C651 1.433 . S
C644 H640 0.929 . S
C644 C646 1.378 . S
C644 C648 1.350 . S
C645 C648 1.463 . S
C645 C650 1.350 . S
C645 N653 1.427 . S
C646 H637 0.930 . S
C646 C644 1.378 . S
C646 C647 1.367 . S
C647 C646 1.367 . S
C647 C649 1.433 . S
C648 C644 1.350 . S
C648 C645 1.463 . S
C648 N652 1.427 . S
C649 H639 0.929 . S
C649 C647 1.433 . S
C649 N652 1.384 . S
C650 H641 0.929 . S
C650 C642 1.378 . S
C650 C645 1.350 . S
C651 H638 0.929 1_556 S
C651 C643 1.433 . S
C651 N653 1.384 . S
N652 C648 1.427 . S
N652 C649 1.384 . S
N653 C645 1.427 . S
N653 C651 1.384 . S
H654 C660 0.930 . S
H655 C664 0.930 . S
H656 C669 0.929 . S
H657 C667 0.929 . S
H658 C662 0.929 . S
H659 C668 0.929 . S
C660 H654 0.930 . S
C660 C661 1.367 . S
C660 C668 1.378 . S
C661 C660 1.367 . S
C661 C669 1.433 . S
C662 H658 0.929 . S
C662 C664 1.378 . S
C662 C666 1.350 . S
C663 C666 1.463 . S
C663 C668 1.350 . S
C663 N671 1.427 . S
C664 H655 0.930 . S
C664 C662 1.378 . S
C664 C665 1.367 . S
C665 C664 1.367 . S
C665 C667 1.433 . S
C666 C662 1.350 . S
C666 C663 1.463 . S
C666 N670 1.427 . S
C667 H657 0.929 . S
C667 C665 1.433 . S
C667 N670 1.384 . S
C668 H659 0.929 . S
C668 C660 1.378 . S
C668 C663 1.350 . S
C669 H656 0.929 . S
C669 C661 1.433 . S
C669 N671 1.384 . S
N670 C666 1.427 . S
N670 C667 1.384 . S
N671 C663 1.427 . S
N671 C669 1.384 . S
H672 C678 0.930 . S
H673 C682 0.930 . S
H674 C687 0.929 . S
H675 C685 0.929 . S
H676 C680 0.929 . S
H677 C686 0.929 . S
C678 H672 0.930 . S
C678 C679 1.367 . S
C678 C686 1.378 . S
C679 C678 1.367 . S
C679 C687 1.433 . S
C680 H676 0.929 . S
C680 C682 1.378 . S
C680 C684 1.350 . S
C681 C684 1.463 . S
C681 C686 1.350 . S
C681 N689 1.427 . S
C682 H673 0.930 . S
C682 C680 1.378 . S
C682 C683 1.367 . S
C683 C682 1.367 . S
C683 C685 1.433 . S
C684 C680 1.350 . S
C684 C681 1.463 . S
C684 N688 1.427 . S
C685 H675 0.929 . S
C685 C683 1.433 . S
C685 N688 1.384 . S
C686 H677 0.929 . S
C686 C678 1.378 . S
C686 C681 1.350 . S
C687 H674 0.929 . S
C687 C679 1.433 . S
C687 N689 1.384 . S
N688 C684 1.427 . S
N688 C685 1.384 . S
N689 C681 1.427 . S
N689 C687 1.384 . S
H690 C696 0.930 . S
H691 C700 0.930 . S
H692 C705 0.929 . S
H693 C703 0.929 . S
H694 C698 0.929 . S
H695 C704 0.929 . S
C696 H690 0.930 . S
C696 C697 1.367 . S
C696 C704 1.378 . S
C697 C696 1.367 . S
C697 C705 1.433 . S
C698 H694 0.929 . S
C698 C700 1.378 . S
C698 C702 1.350 . S
C699 C702 1.463 . S
C699 C704 1.350 . S
C699 N707 1.427 . S
C700 H691 0.930 . S
C700 C698 1.378 . S
C700 C701 1.367 . S
C701 C700 1.367 . S
C701 C703 1.433 . S
C702 C698 1.350 . S
C702 C699 1.463 . S
C702 N706 1.427 . S
C703 H693 0.929 . S
C703 C701 1.433 . S
C703 N706 1.384 . S
C704 H695 0.929 . S
C704 C696 1.378 . S
C704 C699 1.350 . S
C705 H692 0.929 . S
C705 C697 1.433 . S
C705 N707 1.384 . S
N706 C702 1.427 . S
N706 C703 1.384 . S
N707 C699 1.427 . S
N707 C705 1.384 . S
H708 C714 0.930 . S
H709 C718 0.930 . S
H710 C723 0.929 . S
H711 C721 0.929 . S
H712 C716 0.929 . S
H713 C722 0.929 . S
C714 H708 0.930 . S
C714 C715 1.367 . S
C714 C722 1.378 . S
C715 C714 1.367 . S
C715 C723 1.433 . S
C716 H712 0.929 . S
C716 C718 1.378 . S
C716 C720 1.350 . S
C717 C720 1.463 . S
C717 C722 1.350 . S
C717 N725 1.427 . S
C718 H709 0.930 . S
C718 C716 1.378 . S
C718 C719 1.367 . S
C719 C718 1.367 . S
C719 C721 1.433 . S
C720 C716 1.350 . S
C720 C717 1.463 . S
C720 N724 1.427 . S
C721 H711 0.929 . S
C721 C719 1.433 . S
C721 N724 1.384 . S
C722 H713 0.929 . S
C722 C714 1.378 . S
C722 C717 1.350 . S
C723 H710 0.929 . S
C723 C715 1.433 . S
C723 N725 1.384 . S
N724 C720 1.427 . S
N724 C721 1.384 . S
N725 C717 1.427 . S
N725 C723 1.384 . S
H726 C732 0.930 . S
H727 C736 0.930 . S
H728 C741 0.929 . S
H729 C739 0.929 . S
H730 C734 0.929 . S
H731 C740 0.929 . S
C732 H726 0.930 . S
C732 C733 1.367 . S
C732 C740 1.378 . S
C733 C732 1.367 . S
C733 C741 1.433 . S
C734 H730 0.929 . S
C734 C736 1.378 . S
C734 C738 1.350 . S
C735 C738 1.463 . S
C735 C740 1.350 . S
C735 N743 1.427 . S
C736 H727 0.930 . S
C736 C734 1.378 . S
C736 C737 1.367 . S
C737 C736 1.367 . S
C737 C739 1.433 . S
C738 C734 1.350 . S
C738 C735 1.463 . S
C738 N742 1.427 . S
C739 H729 0.929 . S
C739 C737 1.433 . S
C739 N742 1.384 . S
C740 H731 0.929 . S
C740 C732 1.378 . S
C740 C735 1.350 . S
C741 H728 0.929 . S
C741 C733 1.433 . S
C741 N743 1.384 . S
N742 C738 1.427 . S
N742 C739 1.384 . S
N743 C735 1.427 . S
N743 C741 1.384 . S
H744 C750 0.930 . S
H745 C754 0.930 . S
H746 C759 0.929 . S
H747 C757 0.929 . S
H748 C752 0.929 . S
H749 C758 0.929 . S
C750 H744 0.930 . S
C750 C751 1.367 . S
C750 C758 1.378 . S
C751 C750 1.367 . S
C751 C759 1.433 . S
C752 H748 0.929 . S
C752 C754 1.378 . S
C752 C756 1.350 . S
C753 C756 1.463 . S
C753 C758 1.350 . S
C753 N761 1.427 . S
C754 H745 0.930 . S
C754 C752 1.378 . S
C754 C755 1.367 . S
C755 C754 1.367 . S
C755 C757 1.433 . S
C756 C752 1.350 . S
C756 C753 1.463 . S
C756 N760 1.427 . S
C757 H747 0.929 . S
C757 C755 1.433 . S
C757 N760 1.384 . S
C758 H749 0.929 . S
C758 C750 1.378 . S
C758 C753 1.350 . S
C759 H746 0.929 . S
C759 C751 1.433 . S
C759 N761 1.384 . S
N760 C756 1.427 . S
N760 C757 1.384 . S
N761 C753 1.427 . S
N761 C759 1.384 . S
H762 C768 0.930 . S
H763 C772 0.930 . S
H764 C777 0.929 . S
H765 C775 0.929 . S
H766 C770 0.929 . S
H767 C776 0.929 . S
C768 H762 0.930 . S
C768 C769 1.367 . S
C768 C776 1.378 . S
C769 C768 1.367 . S
C769 C777 1.433 . S
C770 H766 0.929 . S
C770 C772 1.378 . S
C770 C774 1.350 . S
C771 C774 1.463 . S
C771 C776 1.350 . S
C771 N779 1.427 . S
C772 H763 0.930 . S
C772 C770 1.378 . S
C772 C773 1.367 . S
C773 C772 1.367 . S
C773 C775 1.433 . S
C774 C770 1.350 . S
C774 C771 1.463 . S
C774 N778 1.427 . S
C775 H765 0.929 . S
C775 C773 1.433 . S
C775 N778 1.384 . S
C776 H767 0.929 . S
C776 C768 1.378 . S
C776 C771 1.350 . S
C777 H764 0.929 . S
C777 C769 1.433 . S
C777 N779 1.384 . S
N778 C774 1.427 . S
N778 C775 1.384 . S
N779 C771 1.427 . S
N779 C777 1.384 . S
H780 C786 0.930 . S
H781 C790 0.930 . S
H782 C795 0.929 . S
H783 C793 0.929 . S
H784 C788 0.929 . S
H785 C794 0.929 . S
C786 H780 0.930 . S
C786 C787 1.367 . S
C786 C794 1.378 . S
C787 C786 1.367 . S
C787 C795 1.433 . S
C788 H784 0.929 . S
C788 C790 1.378 . S
C788 C792 1.350 . S
C789 C792 1.463 . S
C789 C794 1.350 . S
C789 N797 1.427 . S
C790 H781 0.930 . S
C790 C788 1.378 . S
C790 C791 1.367 . S
C791 C790 1.367 . S
C791 C793 1.433 . S
C792 C788 1.350 . S
C792 C789 1.463 . S
C792 N796 1.427 . S
C793 H783 0.929 . S
C793 C791 1.433 . S
C793 N796 1.384 . S
C794 H785 0.929 . S
C794 C786 1.378 . S
C794 C789 1.350 . S
C795 H782 0.929 . S
C795 C787 1.433 . S
C795 N797 1.384 . S
N796 C792 1.427 . S
N796 C793 1.384 . S
N797 C789 1.427 . S
N797 C795 1.384 . S
H798 C804 0.930 . S
H799 C808 0.930 . S
H800 C813 0.929 . S
H801 C811 0.929 . S
H802 C806 0.929 . S
H803 C812 0.929 . S
C804 H798 0.930 . S
C804 C805 1.367 . S
C804 C812 1.378 . S
C805 C804 1.367 . S
C805 C813 1.433 . S
C806 H802 0.929 . S
C806 C808 1.378 . S
C806 C810 1.350 . S
C807 C810 1.463 . S
C807 C812 1.350 . S
C807 N815 1.427 . S
C808 H799 0.930 . S
C808 C806 1.378 . S
C808 C809 1.367 . S
C809 C808 1.367 . S
C809 C811 1.433 . S
C810 C806 1.350 . S
C810 C807 1.463 . S
C810 N814 1.427 . S
C811 H801 0.929 . S
C811 C809 1.433 . S
C811 N814 1.384 . S
C812 H803 0.929 . S
C812 C804 1.378 . S
C812 C807 1.350 . S
C813 H800 0.929 . S
C813 C805 1.433 . S
C813 N815 1.384 . S
N814 C810 1.427 . S
N814 C811 1.384 . S
N815 C807 1.427 . S
N815 C813 1.384 . S
H816 C822 0.930 . S
H817 C826 0.930 . S
H818 C831 0.929 . S
H819 C829 0.929 . S
H820 C824 0.929 . S
H821 C830 0.929 . S
C822 H816 0.930 . S
C822 C823 1.367 . S
C822 C830 1.378 . S
C823 C822 1.367 . S
C823 C831 1.433 . S
C824 H820 0.929 . S
C824 C826 1.378 . S
C824 C828 1.350 . S
C825 C828 1.463 . S
C825 C830 1.350 . S
C825 N833 1.427 . S
C826 H817 0.930 . S
C826 C824 1.378 . S
C826 C827 1.367 . S
C827 C826 1.367 . S
C827 C829 1.433 . S
C828 C824 1.350 . S
C828 C825 1.463 . S
C828 N832 1.427 . S
C829 H819 0.929 . S
C829 C827 1.433 . S
C829 N832 1.384 . S
C830 H821 0.929 . S
C830 C822 1.378 . S
C830 C825 1.350 . S
C831 H818 0.929 . S
C831 C823 1.433 . S
C831 N833 1.384 . S
N832 C828 1.427 . S
N832 C829 1.384 . S
N833 C825 1.427 . S
N833 C831 1.384 . S
H834 C840 0.930 . S
H835 C844 0.930 . S
H836 C849 0.929 . S
H837 C847 0.929 1_556 S
H838 C842 0.929 . S
H839 C848 0.929 . S
C840 H834 0.930 . S
C840 C841 1.367 . S
C840 C848 1.378 . S
C841 C840 1.367 . S
C841 C849 1.433 . S
C842 H838 0.929 . S
C842 C844 1.378 . S
C842 C846 1.350 . S
C843 C846 1.463 . S
C843 C848 1.350 . S
C843 N851 1.427 . S
C844 H835 0.930 . S
C844 C842 1.378 . S
C844 C845 1.367 . S
C845 C844 1.367 . S
C845 C847 1.433 . S
C846 C842 1.350 . S
C846 C843 1.463 . S
C846 N850 1.427 . S
C847 H837 0.929 1_554 S
C847 C845 1.433 . S
C847 N850 1.384 . S
C848 H839 0.929 . S
C848 C840 1.378 . S
C848 C843 1.350 . S
C849 H836 0.929 . S
C849 C841 1.433 . S
C849 N851 1.384 . S
N850 C846 1.427 . S
N850 C847 1.384 . S
N851 C843 1.427 . S
N851 C849 1.384 . S
H852 C858 0.930 . S
H853 C862 0.930 . S
H854 C867 0.929 1_554 S
H855 C865 0.929 . S
H856 C860 0.929 . S
H857 C866 0.929 . S
C858 H852 0.930 . S
C858 C859 1.367 . S
C858 C866 1.378 . S
C859 C858 1.367 . S
C859 C867 1.433 . S
C860 H856 0.929 . S
C860 C862 1.378 . S
C860 C864 1.350 . S
C861 C864 1.463 . S
C861 C866 1.350 . S
C861 N869 1.427 . S
C862 H853 0.930 . S
C862 C860 1.378 . S
C862 C863 1.367 . S
C863 C862 1.367 . S
C863 C865 1.433 . S
C864 C860 1.350 . S
C864 C861 1.463 . S
C864 N868 1.427 . S
C865 H855 0.929 . S
C865 C863 1.433 . S
C865 N868 1.384 . S
C866 H857 0.929 . S
C866 C858 1.378 . S
C866 C861 1.350 . S
C867 H854 0.929 1_556 S
C867 C859 1.433 . S
C867 N869 1.384 . S
N868 C864 1.427 . S
N868 C865 1.384 . S
N869 C861 1.427 . S
N869 C867 1.384 . S
H870 C876 0.930 . S
H871 C880 0.930 . S
H872 C885 0.929 . S
H873 C883 0.929 . S
H874 C878 0.929 . S
H875 C884 0.929 . S
C876 H870 0.930 . S
C876 C877 1.367 . S
C876 C884 1.378 . S
C877 C876 1.367 . S
C877 C885 1.433 . S
C878 H874 0.929 . S
C878 C880 1.378 . S
C878 C882 1.350 . S
C879 C882 1.463 . S
C879 C884 1.350 . S
C879 N887 1.427 . S
C880 H871 0.930 . S
C880 C878 1.378 . S
C880 C881 1.367 . S
C881 C880 1.367 . S
C881 C883 1.433 . S
C882 C878 1.350 . S
C882 C879 1.463 . S
C882 N886 1.427 . S
C883 H873 0.929 . S
C883 C881 1.433 . S
C883 N886 1.384 . S
C884 H875 0.929 . S
C884 C876 1.378 . S
C884 C879 1.350 . S
C885 H872 0.929 . S
C885 C877 1.433 . S
C885 N887 1.384 . S
N886 C882 1.427 . S
N886 C883 1.384 . S
N887 C879 1.427 . S
N887 C885 1.384 . S
H888 C894 0.930 . S
H889 C898 0.930 . S
H890 C903 0.929 . S
H891 C901 0.929 . S
H892 C896 0.929 . S
H893 C902 0.929 . S
C894 H888 0.930 . S
C894 C895 1.367 . S
C894 C902 1.378 . S
C895 C894 1.367 . S
C895 C903 1.433 . S
C896 H892 0.929 . S
C896 C898 1.378 . S
C896 C900 1.350 . S
C897 C900 1.463 . S
C897 C902 1.350 . S
C897 N905 1.427 . S
C898 H889 0.930 . S
C898 C896 1.378 . S
C898 C899 1.367 . S
C899 C898 1.367 . S
C899 C901 1.433 . S
C900 C896 1.350 . S
C900 C897 1.463 . S
C900 N904 1.427 . S
C901 H891 0.929 . S
C901 C899 1.433 . S
C901 N904 1.384 . S
C902 H893 0.929 . S
C902 C894 1.378 . S
C902 C897 1.350 . S
C903 H890 0.929 . S
C903 C895 1.433 . S
C903 N905 1.384 . S
N904 C900 1.427 . S
N904 C901 1.384 . S
N905 C897 1.427 . S
N905 C903 1.384 . S
H906 C912 0.930 . S
H907 C916 0.930 . S
H908 C921 0.929 . S
H909 C919 0.929 . S
H910 C914 0.929 . S
H911 C920 0.929 . S
C912 H906 0.930 . S
C912 C913 1.367 . S
C912 C920 1.378 . S
C913 C912 1.367 . S
C913 C921 1.433 . S
C914 H910 0.929 . S
C914 C916 1.378 . S
C914 C918 1.350 . S
C915 C918 1.463 . S
C915 C920 1.350 . S
C915 N923 1.427 . S
C916 H907 0.930 . S
C916 C914 1.378 . S
C916 C917 1.367 . S
C917 C916 1.367 . S
C917 C919 1.433 . S
C918 C914 1.350 . S
C918 C915 1.463 . S
C918 N922 1.427 . S
C919 H909 0.929 . S
C919 C917 1.433 . S
C919 N922 1.384 . S
C920 H911 0.929 . S
C920 C912 1.378 . S
C920 C915 1.350 . S
C921 H908 0.929 . S
C921 C913 1.433 . S
C921 N923 1.384 . S
N922 C918 1.427 . S
N922 C919 1.384 . S
N923 C915 1.427 . S
N923 C921 1.384 . S
H924 C930 0.930 . S
H925 C934 0.930 . S
H926 C939 0.929 . S
H927 C937 0.929 . S
H928 C932 0.929 . S
H929 C938 0.929 . S
C930 H924 0.930 . S
C930 C931 1.367 . S
C930 C938 1.378 . S
C931 C930 1.367 . S
C931 C939 1.433 . S
C932 H928 0.929 . S
C932 C934 1.378 . S
C932 C936 1.350 . S
C933 C936 1.463 . S
C933 C938 1.350 . S
C933 N941 1.427 . S
C934 H925 0.930 . S
C934 C932 1.378 . S
C934 C935 1.367 . S
C935 C934 1.367 . S
C935 C937 1.433 . S
C936 C932 1.350 . S
C936 C933 1.463 . S
C936 N940 1.427 . S
C937 H927 0.929 . S
C937 C935 1.433 . S
C937 N940 1.384 . S
C938 H929 0.929 . S
C938 C930 1.378 . S
C938 C933 1.350 . S
C939 H926 0.929 . S
C939 C931 1.433 . S
C939 N941 1.384 . S
N940 C936 1.427 . S
N940 C937 1.384 . S
N941 C933 1.427 . S
N941 C939 1.384 . S
H942 C948 0.930 . S
H943 C952 0.930 . S
H944 C957 0.929 . S
H945 C955 0.929 . S
H946 C950 0.929 . S
H947 C956 0.929 . S
C948 H942 0.930 . S
C948 C949 1.367 . S
C948 C956 1.378 . S
C949 C948 1.367 . S
C949 C957 1.433 . S
C950 H946 0.929 . S
C950 C952 1.378 . S
C950 C954 1.350 . S
C951 C954 1.463 . S
C951 C956 1.350 . S
C951 N959 1.427 . S
C952 H943 0.930 . S
C952 C950 1.378 . S
C952 C953 1.367 . S
C953 C952 1.367 . S
C953 C955 1.433 . S
C954 C950 1.350 . S
C954 C951 1.463 . S
C954 N958 1.427 . S
C955 H945 0.929 . S
C955 C953 1.433 . S
C955 N958 1.384 . S
C956 H947 0.929 . S
C956 C948 1.378 . S
C956 C951 1.350 . S
C957 H944 0.929 . S
C957 C949 1.433 . S
C957 N959 1.384 . S
N958 C954 1.427 . S
N958 C955 1.384 . S
N959 C951 1.427 . S
N959 C957 1.384 . S
H960 C966 0.930 . S
H961 C970 0.930 . S
H962 C975 0.929 . S
H963 C973 0.929 . S
H964 C968 0.929 . S
H965 C974 0.929 . S
C966 H960 0.930 . S
C966 C967 1.367 . S
C966 C974 1.378 1_545 S
C967 C966 1.367 . S
C967 C975 1.433 1_545 S
C968 H964 0.929 . S
C968 C970 1.378 . S
C968 C972 1.350 . S
C969 C972 1.463 . S
C969 C974 1.350 . S
C969 N977 1.427 . S
C970 H961 0.930 . S
C970 C968 1.378 . S
C970 C971 1.367 . S
C971 C970 1.367 . S
C971 C973 1.433 . S
C972 C968 1.350 . S
C972 C969 1.463 . S
C972 N976 1.427 . S
C973 H963 0.929 . S
C973 C971 1.433 . S
C973 N976 1.384 . S
C974 H965 0.929 . S
C974 C966 1.378 1_565 S
C974 C969 1.350 . S
C975 H962 0.929 . S
C975 C967 1.433 1_565 S
C975 N977 1.384 . S
N976 C972 1.427 . S
N976 C973 1.384 . S
N977 C969 1.427 . S
N977 C975 1.384 . S
H978 C984 0.930 . S
H979 C988 0.930 . S
H980 C993 0.929 . S
H981 C991 0.929 1_455 S
H982 C986 0.929 . S
H983 C992 0.929 . S
C984 H978 0.930 . S
C984 C985 1.367 . S
C984 C992 1.378 . S
C985 C984 1.367 . S
C985 C993 1.433 . S
C986 H982 0.929 . S
C986 C988 1.378 . S
C986 C990 1.350 . S
C987 C990 1.463 . S
C987 C992 1.350 . S
C987 N995 1.427 . S
C988 H979 0.930 . S
C988 C986 1.378 . S
C988 C989 1.367 1_655 S
C989 C988 1.367 1_455 S
C989 C991 1.433 1_455 S
C990 C986 1.350 . S
C990 C987 1.463 . S
C990 N994 1.427 . S
C991 H981 0.929 1_655 S
C991 C989 1.433 1_655 S
C991 N994 1.384 . S
C992 H983 0.929 . S
C992 C984 1.378 . S
C992 C987 1.350 . S
C993 H980 0.929 . S
C993 C985 1.433 . S
C993 N995 1.384 . S
N994 C990 1.427 . S
N994 C991 1.384 . S
N995 C987 1.427 . S
N995 C993 1.384 . S
H996 C1002 0.920 1_565 S
H997 C1006 0.930 . S
H998 C1011 0.929 1_565 S
H999 C1009 0.929 . S
H1000 C1004 0.929 . S
H1001 C1010 0.929 . S
C1002 H996 0.920 1_545 S
C1002 C1003 1.367 1_545 S
C1002 C1010 1.378 . S
C1003 C1002 1.367 1_565 S
C1003 C1011 1.433 1_565 S
C1004 H1000 0.929 . S
C1004 C1006 1.378 . S
C1004 C1008 1.350 . S
C1005 C1008 1.463 . S
C1005 C1010 1.350 . S
C1005 N1013 1.427 . S
C1006 H997 0.930 . S
C1006 C1004 1.378 . S
C1006 C1007 1.367 . S
C1007 C1006 1.367 . S
C1007 C1009 1.433 . S
C1008 C1004 1.350 . S
C1008 C1005 1.463 . S
C1008 N1012 1.427 . S
C1009 H999 0.929 . S
C1009 C1007 1.433 . S
C1009 N1012 1.384 . S
C1010 H1001 0.929 . S
C1010 C1002 1.378 . S
C1010 C1005 1.350 . S
C1011 H998 0.929 1_545 S
C1011 C1003 1.433 1_545 S
C1011 N1013 1.384 . S
N1012 C1008 1.427 . S
N1012 C1009 1.384 . S
N1013 C1005 1.427 . S
N1013 C1011 1.384 . S
H1014 C1020 0.930 . S
H1015 C1024 0.930 1_655 S
H1016 C1029 0.929 . S
H1017 C1027 0.929 . S
H1018 C1022 0.929 . S
H1019 C1028 0.929 . S
C1020 H1014 0.930 . S
C1020 C1021 1.367 . S
C1020 C1028 1.378 . S
C1021 C1020 1.367 . S
C1021 C1029 1.433 . S
C1022 H1018 0.929 . S
C1022 C1024 1.378 . S
C1022 C1026 1.350 . S
C1023 C1026 1.463 . S
C1023 C1028 1.350 . S
C1023 N1031 1.427 . S
C1024 H1015 0.930 1_455 S
C1024 C1022 1.378 . S
C1024 C1025 1.367 1_455 S
C1025 C1024 1.367 1_655 S
C1025 C1027 1.433 1_655 S
C1026 C1022 1.350 . S
C1026 C1023 1.463 . S
C1026 N1030 1.427 . S
C1027 H1017 0.929 . S
C1027 C1025 1.433 1_455 S
C1027 N1030 1.384 . S
C1028 H1019 0.929 . S
C1028 C1020 1.378 . S
C1028 C1023 1.350 . S
C1029 H1016 0.929 . S
C1029 C1021 1.433 . S
C1029 N1031 1.384 . S
N1030 C1026 1.427 . S
N1030 C1027 1.384 . S
N1031 C1023 1.427 . S
N1031 C1029 1.384 . S
H1032 C1038 0.930 . S
H1033 C1042 0.930 . S
H1034 C1047 0.929 1_554 S
H1035 C1045 0.929 . S
H1036 C1040 0.929 . S
H1037 C1046 0.929 . S
C1038 H1032 0.930 . S
C1038 C1039 1.367 . S
C1038 C1046 1.378 . S
C1039 C1038 1.367 . S
C1039 C1047 1.433 . S
C1040 H1036 0.929 . S
C1040 C1042 1.378 . S
C1040 C1044 1.350 1_554 S
C1041 C1044 1.463 . S
C1041 C1046 1.350 . S
C1041 N1049 1.427 1_556 S
C1042 H1033 0.930 . S
C1042 C1040 1.378 . S
C1042 C1043 1.367 . S
C1043 C1042 1.367 . S
C1043 C1045 1.433 1_554 S
C1044 C1040 1.350 1_556 S
C1044 C1041 1.463 . S
C1044 N1048 1.427 . S
C1045 H1035 0.929 . S
C1045 C1043 1.433 1_556 S
C1045 N1048 1.384 . S
C1046 H1037 0.929 . S
C1046 C1038 1.378 . S
C1046 C1041 1.350 . S
C1047 H1034 0.929 1_556 S
C1047 C1039 1.433 . S
C1047 N1049 1.384 1_556 S
N1048 C1044 1.427 . S
N1048 C1045 1.384 . S
N1049 C1041 1.427 1_554 S
N1049 C1047 1.384 1_554 S
H1050 C1056 0.930 1_556 S
H1051 C1060 0.930 . S
H1052 C1065 0.929 . S
H1053 C1063 0.929 . S
H1054 C1058 0.929 . S
H1055 C1064 0.929 . S
C1056 H1050 0.930 1_554 S
C1056 C1057 1.367 . S
C1056 C1064 1.378 1_554 S
C1057 C1056 1.367 . S
C1057 C1065 1.433 . S
C1058 H1054 0.929 . S
C1058 C1060 1.378 . S
C1058 C1062 1.350 . S
C1059 C1062 1.463 . S
C1059 C1064 1.350 1_554 S
C1059 N1067 1.427 . S
C1060 H1051 0.930 . S
C1060 C1058 1.378 . S
C1060 C1061 1.367 1_554 S
C1061 C1060 1.367 1_556 S
C1061 C1063 1.433 . S
C1062 C1058 1.350 . S
C1062 C1059 1.463 . S
C1062 N1066 1.427 1_554 S
C1063 H1053 0.929 . S
C1063 C1061 1.433 . S
C1063 N1066 1.384 . S
C1064 H1055 0.929 . S
C1064 C1056 1.378 1_556 S
C1064 C1059 1.350 1_556 S
C1065 H1052 0.929 . S
C1065 C1057 1.433 . S
C1065 N1067 1.384 . S
N1066 C1062 1.427 1_556 S
N1066 C1063 1.384 . S
N1067 C1059 1.427 . S
N1067 C1065 1.384 . S
H1068 C1074 0.930 . S
H1069 C1078 0.930 1_554 S
H1070 C1083 0.929 . S
H1071 C1081 0.929 . S
H1072 C1076 0.929 . S
H1073 C1082 0.929 . S
C1074 H1068 0.930 . S
C1074 C1075 1.367 1_556 S
C1074 C1082 1.378 . S
C1075 C1074 1.367 1_554 S
C1075 C1083 1.433 . S
C1076 H1072 0.929 . S
C1076 C1078 1.378 1_554 S
C1076 C1080 1.350 1_554 S
C1077 C1080 1.463 . S
C1077 C1082 1.350 . S
C1077 N1085 1.427 1_556 S
C1078 H1069 0.930 1_556 S
C1078 C1076 1.378 1_556 S
C1078 C1079 1.367 . S
C1079 C1078 1.367 . S
C1079 C1081 1.433 . S
C1080 C1076 1.350 1_556 S
C1080 C1077 1.463 . S
C1080 N1084 1.427 . S
C1081 H1071 0.929 . S
C1081 C1079 1.433 . S
C1081 N1084 1.384 . S
C1082 H1073 0.929 . S
C1082 C1074 1.378 . S
C1082 C1077 1.350 . S
C1083 H1070 0.929 . S
C1083 C1075 1.433 . S
C1083 N1085 1.384 . S
N1084 C1080 1.427 . S
N1084 C1081 1.384 . S
N1085 C1077 1.427 1_554 S
N1085 C1083 1.384 . S
H1086 C1092 0.930 . S
H1087 C1096 0.930 . S
H1088 C1101 0.929 . S
H1089 C1099 0.929 . S
H1090 C1094 0.929 . S
H1091 C1100 0.927 1_556 S
C1092 H1086 0.930 . S
C1092 C1093 1.367 . S
C1092 C1100 1.378 . S
C1093 C1092 1.367 . S
C1093 C1101 1.433 . S
C1094 H1090 0.929 . S
C1094 C1096 1.378 . S
C1094 C1098 1.350 . S
C1095 C1098 1.463 . S
C1095 C1100 1.351 . S
C1095 N1103 1.427 . S
C1096 H1087 0.930 . S
C1096 C1094 1.378 . S
C1096 C1097 1.367 1_554 S
C1097 C1096 1.367 1_556 S
C1097 C1099 1.433 . S
C1098 C1094 1.350 . S
C1098 C1095 1.463 . S
C1098 N1102 1.427 1_554 S
C1099 H1089 0.929 . S
C1099 C1097 1.433 . S
C1099 N1102 1.384 . S
C1100 H1091 0.927 1_554 S
C1100 C1092 1.378 . S
C1100 C1095 1.351 . S
C1101 H1088 0.929 . S
C1101 C1093 1.433 . S
C1101 N1103 1.384 . S
N1102 C1098 1.427 1_556 S
N1102 C1099 1.384 . S
N1103 C1095 1.427 . S
N1103 C1101 1.384 . S
H1104 C1110 0.930 . S
H1105 C1114 0.930 . S
H1106 C1119 0.929 . S
H1107 C1117 0.929 . S
H1108 C1112 0.929 . S
H1109 C1118 0.929 . S
C1110 H1104 0.930 . S
C1110 C1111 1.367 . S
C1110 C1118 1.378 . S
C1111 C1110 1.367 . S
C1111 C1119 1.433 . S
C1112 H1108 0.929 . S
C1112 C1114 1.378 . S
C1112 C1116 1.350 . S
C1113 C1116 1.463 . S
C1113 C1118 1.350 . S
C1113 N1121 1.427 . S
C1114 H1105 0.930 . S
C1114 C1112 1.378 . S
C1114 C1115 1.367 . S
C1115 C1114 1.367 . S
C1115 C1117 1.433 . S
C1116 C1112 1.350 . S
C1116 C1113 1.463 . S
C1116 N1120 1.427 . S
C1117 H1107 0.929 . S
C1117 C1115 1.433 . S
C1117 N1120 1.384 . S
C1118 H1109 0.929 . S
C1118 C1110 1.378 . S
C1118 C1113 1.350 . S
C1119 H1106 0.929 . S
C1119 C1111 1.433 . S
C1119 N1121 1.384 . S
N1120 C1116 1.427 . S
N1120 C1117 1.384 . S
N1121 C1113 1.427 . S
N1121 C1119 1.384 . S
H1122 C1128 0.930 . S
H1123 C1132 0.930 . S
H1124 C1137 0.929 . S
H1125 C1135 0.929 . S
H1126 C1130 0.929 . S
H1127 C1136 0.929 . S
C1128 H1122 0.930 . S
C1128 C1129 1.367 . S
C1128 C1136 1.378 . S
C1129 C1128 1.367 . S
C1129 C1137 1.433 . S
C1130 H1126 0.929 . S
C1130 C1132 1.378 . S
C1130 C1134 1.350 . S
C1131 C1134 1.463 . S
C1131 C1136 1.350 . S
C1131 N1139 1.427 . S
C1132 H1123 0.930 . S
C1132 C1130 1.378 . S
C1132 C1133 1.367 . S
C1133 C1132 1.367 . S
C1133 C1135 1.433 . S
C1134 C1130 1.350 . S
C1134 C1131 1.463 . S
C1134 N1138 1.427 . S
C1135 H1125 0.929 . S
C1135 C1133 1.433 . S
C1135 N1138 1.384 . S
C1136 H1127 0.929 . S
C1136 C1128 1.378 . S
C1136 C1131 1.350 . S
C1137 H1124 0.929 . S
C1137 C1129 1.433 . S
C1137 N1139 1.384 . S
N1138 C1134 1.427 . S
N1138 C1135 1.384 . S
N1139 C1131 1.427 . S
N1139 C1137 1.384 . S
H1140 C1146 0.930 . S
H1141 C1150 0.930 . S
H1142 C1155 0.929 . S
H1143 C1153 0.929 . S
H1144 C1148 0.929 . S
H1145 C1154 0.929 . S
C1146 H1140 0.930 . S
C1146 C1147 1.367 . S
C1146 C1154 1.378 . S
C1147 C1146 1.367 . S
C1147 C1155 1.433 . S
C1148 H1144 0.929 . S
C1148 C1150 1.378 . S
C1148 C1152 1.350 . S
C1149 C1152 1.463 . S
C1149 C1154 1.350 . S
C1149 N1157 1.427 . S
C1150 H1141 0.930 . S
C1150 C1148 1.378 . S
C1150 C1151 1.367 . S
C1151 C1150 1.367 . S
C1151 C1153 1.433 . S
C1152 C1148 1.350 . S
C1152 C1149 1.463 . S
C1152 N1156 1.427 . S
C1153 H1143 0.929 . S
C1153 C1151 1.433 . S
C1153 N1156 1.384 . S
C1154 H1145 0.929 . S
C1154 C1146 1.378 . S
C1154 C1149 1.350 . S
C1155 H1142 0.929 . S
C1155 C1147 1.433 . S
C1155 N1157 1.384 . S
N1156 C1152 1.427 . S
N1156 C1153 1.384 . S
N1157 C1149 1.427 . S
N1157 C1155 1.384 . S
H1158 C1164 0.930 . S
H1159 C1168 0.930 . S
H1160 C1173 0.929 . S
H1161 C1171 0.929 . S
H1162 C1166 0.929 . S
H1163 C1172 0.929 . S
C1164 H1158 0.930 . S
C1164 C1165 1.367 . S
C1164 C1172 1.378 . S
C1165 C1164 1.367 . S
C1165 C1173 1.433 . S
C1166 H1162 0.929 . S
C1166 C1168 1.378 . S
C1166 C1170 1.350 . S
C1167 C1170 1.463 . S
C1167 C1172 1.350 . S
C1167 N1175 1.427 . S
C1168 H1159 0.930 . S
C1168 C1166 1.378 . S
C1168 C1169 1.367 . S
C1169 C1168 1.367 . S
C1169 C1171 1.433 . S
C1170 C1166 1.350 . S
C1170 C1167 1.463 . S
C1170 N1174 1.427 . S
C1171 H1161 0.929 . S
C1171 C1169 1.433 . S
C1171 N1174 1.384 . S
C1172 H1163 0.929 . S
C1172 C1164 1.378 . S
C1172 C1167 1.350 . S
C1173 H1160 0.929 . S
C1173 C1165 1.433 . S
C1173 N1175 1.384 . S
N1174 C1170 1.427 . S
N1174 C1171 1.384 . S
N1175 C1167 1.427 . S
N1175 C1173 1.384 . S
H1176 C1182 0.930 . S
H1177 C1186 0.930 . S
H1178 C1191 0.929 . S
H1179 C1189 0.929 . S
H1180 C1184 0.929 . S
H1181 C1190 0.929 . S
C1182 H1176 0.930 . S
C1182 C1183 1.367 . S
C1182 C1190 1.378 . S
C1183 C1182 1.367 . S
C1183 C1191 1.433 . S
C1184 H1180 0.929 . S
C1184 C1186 1.378 1_545 S
C1184 C1188 1.350 . S
C1185 C1188 1.463 . S
C1185 C1190 1.350 . S
C1185 N1193 1.427 . S
C1186 H1177 0.930 . S
C1186 C1184 1.378 1_565 S
C1186 C1187 1.367 . S
C1187 C1186 1.367 . S
C1187 C1189 1.433 1_565 S
C1188 C1184 1.350 . S
C1188 C1185 1.463 . S
C1188 N1192 1.427 . S
C1189 H1179 0.929 . S
C1189 C1187 1.433 1_545 S
C1189 N1192 1.384 . S
C1190 H1181 0.929 . S
C1190 C1182 1.378 . S
C1190 C1185 1.350 . S
C1191 H1178 0.929 . S
C1191 C1183 1.433 . S
C1191 N1193 1.384 . S
N1192 C1188 1.427 . S
N1192 C1189 1.384 . S
N1193 C1185 1.427 . S
N1193 C1191 1.384 . S
H1194 C1200 0.930 . S
H1195 C1204 0.930 . S
H1196 C1209 0.929 . S
H1197 C1207 0.929 . S
H1198 C1202 0.929 . S
H1199 C1208 0.929 . S
C1200 H1194 0.930 . S
C1200 C1201 1.367 . S
C1200 C1208 1.378 . S
C1201 C1200 1.367 . S
C1201 C1209 1.433 . S
C1202 H1198 0.929 . S
C1202 C1204 1.378 . S
C1202 C1206 1.350 . S
C1203 C1206 1.463 . S
C1203 C1208 1.350 . S
C1203 N1211 1.427 . S
C1204 H1195 0.930 . S
C1204 C1202 1.378 . S
C1204 C1205 1.367 1_455 S
C1205 C1204 1.367 1_655 S
C1205 C1207 1.433 . S
C1206 C1202 1.350 . S
C1206 C1203 1.463 . S
C1206 N1210 1.427 . S
C1207 H1197 0.929 . S
C1207 C1205 1.433 . S
C1207 N1210 1.384 1_655 S
C1208 H1199 0.929 . S
C1208 C1200 1.378 . S
C1208 C1203 1.350 . S
C1209 H1196 0.929 . S
C1209 C1201 1.433 . S
C1209 N1211 1.384 . S
N1210 C1206 1.427 . S
N1210 C1207 1.384 1_455 S
N1211 C1203 1.427 . S
N1211 C1209 1.384 . S
H1212 C1218 0.930 . S
H1213 C1222 0.930 . S
H1214 C1227 0.929 . S
H1215 C1225 0.929 . S
H1216 C1220 0.929 . S
H1217 C1226 0.929 . S
C1218 H1212 0.930 . S
C1218 C1219 1.367 . S
C1218 C1226 1.378 . S
C1219 C1218 1.367 . S
C1219 C1227 1.433 . S
C1220 H1216 0.929 . S
C1220 C1222 1.378 1_565 S
C1220 C1224 1.350 . S
C1221 C1224 1.463 . S
C1221 C1226 1.350 . S
C1221 N1229 1.427 . S
C1222 H1213 0.930 . S
C1222 C1220 1.378 1_545 S
C1222 C1223 1.367 . S
C1223 C1222 1.367 . S
C1223 C1225 1.433 1_545 S
C1224 C1220 1.350 . S
C1224 C1221 1.463 . S
C1224 N1228 1.427 . S
C1225 H1215 0.929 . S
C1225 C1223 1.433 1_565 S
C1225 N1228 1.384 . S
C1226 H1217 0.929 . S
C1226 C1218 1.378 . S
C1226 C1221 1.350 . S
C1227 H1214 0.929 . S
C1227 C1219 1.433 . S
C1227 N1229 1.384 . S
N1228 C1224 1.427 . S
N1228 C1225 1.384 . S
N1229 C1221 1.427 . S
N1229 C1227 1.384 . S
H1230 C1236 0.930 . S
H1231 C1240 0.930 . S
H1232 C1245 0.929 1_455 S
H1233 C1243 0.929 . S
H1234 C1238 0.929 . S
H1235 C1244 0.929 . S
C1236 H1230 0.930 . S
C1236 C1237 1.367 1_655 S
C1236 C1244 1.378 . S
C1237 C1236 1.367 1_455 S
C1237 C1245 1.433 1_455 S
C1238 H1234 0.929 . S
C1238 C1240 1.378 . S
C1238 C1242 1.350 . S
C1239 C1242 1.463 . S
C1239 C1244 1.350 . S
C1239 N1247 1.427 . S
C1240 H1231 0.930 . S
C1240 C1238 1.378 . S
C1240 C1241 1.367 . S
C1241 C1240 1.367 . S
C1241 C1243 1.433 . S
C1242 C1238 1.350 . S
C1242 C1239 1.463 . S
C1242 N1246 1.427 . S
C1243 H1233 0.929 . S
C1243 C1241 1.433 . S
C1243 N1246 1.384 . S
C1244 H1235 0.929 . S
C1244 C1236 1.378 . S
C1244 C1239 1.350 . S
C1245 H1232 0.929 1_655 S
C1245 C1237 1.433 1_655 S
C1245 N1247 1.384 . S
N1246 C1242 1.427 . S
N1246 C1243 1.384 . S
N1247 C1239 1.427 . S
N1247 C1245 1.384 . S
C535 C7 0.930 . S
C539 C469 0.926 . S
C553 C502 0.927 . S
C557 C40 0.925 . S
C571 C403 0.929 . S
C575 C73 0.925 . S
C589 C106 0.926 . S
C593 C436 0.930 . S
C607 C139 0.929 1_556 S
C611 C337 0.926 . S
C625 C370 0.927 . S
C629 C172 0.925 1_554 S
C643 C205 0.927 1_556 S
C647 C271 0.929 . S
C661 C304 0.925 . S
C665 C238 0.929 1_554 S
C679 N145 1.419 . S
C683 N13 1.411 . S
C697 N46 1.420 . S
C701 N178 1.410 . S
C715 N79 1.420 . S
C719 N211 1.410 . S
C733 N112 1.410 . S
C737 N244 1.420 . S
C751 N409 1.412 . S
C755 N277 1.418 . S
C769 N442 1.410 . S
C773 N310 1.420 . S
C787 N343 1.420 . S
C791 N475 1.410 . S
C805 N376 1.418 . S
C809 N508 1.412 . S
C823 C21 1.502 1_556 S
C827 C483 1.499 . S
C841 C516 1.505 . S
C845 C54 1.508 1_554 S
C859 C87 1.507 1_556 S
C863 C417 1.507 . S
C877 C450 1.503 . S
C881 C120 1.499 1_554 S
C895 C351 1.503 . S
C899 C153 1.499 . S
C913 C384 1.502 . S
C917 C186 1.499 . S
C931 C219 1.505 . S
C935 C285 1.500 . S
C949 C252 1.501 . S
C953 C318 1.498 . S
C967 N2 1.490 . S
C971 C381 1.573 . S
C985 C282 1.576 . S
C989 N35 1.498 . S
C1003 N68 1.497 . S
C1007 C315 1.575 . S
C1021 C348 1.574 . S
C1025 N101 1.493 . S
C1039 C183 1.579 . S
C1043 N134 1.496 . S
C1057 C216 1.572 . S
C1061 N167 1.485 . S
C1075 N200 1.492 . S
C1079 C249 1.573 . S
C1093 C150 1.575 . S
C1097 N233 1.496 . S
C1111 C117 1.579 . S
C1115 N266 1.494 . S
C1129 N299 1.485 . S
C1133 C18 1.576 . S
C1147 N332 1.481 . S
C1151 C51 1.573 . S
C1165 C84 1.579 . S
C1169 N365 1.495 . S
C1183 C447 1.573 . S
C1187 N398 1.489 . S
C1201 C480 1.579 . S
C1205 N431 1.496 . S
C1219 C513 1.572 . S
C1223 N464 1.488 . S
C1237 N497 1.487 . S
C1241 C414 1.577 . S
