# Generated by pormake.
# Topology etb, (3)-cn, num edge types: 1
# Building blocks:
#     Node 0, Type 0, BuildingBlock: OLANEW_clean_sbu_2, # of connection points: 3
#     Node 1, Type 0, BuildingBlock: OLANEW_clean_sbu_2, # of connection points: 3
#     Node 2, Type 0, BuildingBlock: OLANEW_clean_sbu_2, # of connection points: 3
#     Node 3, Type 0, BuildingBlock: OLANEW_clean_sbu_2, # of connection points: 3
#     Node 4, Type 0, BuildingBlock: OLANEW_clean_sbu_2, # of connection points: 3
#     Node 5, Type 0, BuildingBlock: OLANEW_clean_sbu_2, # of connection points: 3
#     Node 6, Type 0, BuildingBlock: OLANEW_clean_sbu_2, # of connection points: 3
#     Node 7, Type 0, BuildingBlock: OLANEW_clean_sbu_2, # of connection points: 3
#     Node 8, Type 0, BuildingBlock: OLANEW_clean_sbu_2, # of connection points: 3
#     Node 9, Type 0, BuildingBlock: OLANEW_clean_sbu_2, # of connection points: 3
#     Node 10, Type 0, BuildingBlock: OLANEW_clean_sbu_2, # of connection points: 3
#     Node 11, Type 0, BuildingBlock: OLANEW_clean_sbu_2, # of connection points: 3
#     Node 12, Type 0, BuildingBlock: OLANEW_clean_sbu_2, # of connection points: 3
#     Node 13, Type 0, BuildingBlock: OLANEW_clean_sbu_2, # of connection points: 3
#     Node 14, Type 0, BuildingBlock: OLANEW_clean_sbu_2, # of connection points: 3
#     Node 15, Type 0, BuildingBlock: OLANEW_clean_sbu_2, # of connection points: 3
#     Node 16, Type 0, BuildingBlock: OLANEW_clean_sbu_2, # of connection points: 3
#     Node 17, Type 0, BuildingBlock: OLANEW_clean_sbu_2, # of connection points: 3
#     Edge 18, Type (0, 0), BuildingBlock: CIFDUS_clean_linker_0, # of connection points: 2
#     Edge 19, Type (0, 0), BuildingBlock: CIFDUS_clean_linker_0, # of connection points: 2
#     Edge 20, Type (0, 0), BuildingBlock: CIFDUS_clean_linker_0, # of connection points: 2
#     Edge 21, Type (0, 0), BuildingBlock: CIFDUS_clean_linker_0, # of connection points: 2
#     Edge 22, Type (0, 0), BuildingBlock: CIFDUS_clean_linker_0, # of connection points: 2
#     Edge 23, Type (0, 0), BuildingBlock: CIFDUS_clean_linker_0, # of connection points: 2
#     Edge 24, Type (0, 0), BuildingBlock: CIFDUS_clean_linker_0, # of connection points: 2
#     Edge 25, Type (0, 0), BuildingBlock: CIFDUS_clean_linker_0, # of connection points: 2
#     Edge 26, Type (0, 0), BuildingBlock: CIFDUS_clean_linker_0, # of connection points: 2
#     Edge 27, Type (0, 0), BuildingBlock: CIFDUS_clean_linker_0, # of connection points: 2
#     Edge 28, Type (0, 0), BuildingBlock: CIFDUS_clean_linker_0, # of connection points: 2
#     Edge 29, Type (0, 0), BuildingBlock: CIFDUS_clean_linker_0, # of connection points: 2
#     Edge 30, Type (0, 0), BuildingBlock: CIFDUS_clean_linker_0, # of connection points: 2
#     Edge 31, Type (0, 0), BuildingBlock: CIFDUS_clean_linker_0, # of connection points: 2
#     Edge 32, Type (0, 0), BuildingBlock: CIFDUS_clean_linker_0, # of connection points: 2
#     Edge 33, Type (0, 0), BuildingBlock: CIFDUS_clean_linker_0, # of connection points: 2
#     Edge 34, Type (0, 0), BuildingBlock: CIFDUS_clean_linker_0, # of connection points: 2
#     Edge 35, Type (0, 0), BuildingBlock: CIFDUS_clean_linker_0, # of connection points: 2
#     Edge 36, Type (0, 0), BuildingBlock: CIFDUS_clean_linker_0, # of connection points: 2
#     Edge 37, Type (0, 0), BuildingBlock: CIFDUS_clean_linker_0, # of connection points: 2
#     Edge 38, Type (0, 0), BuildingBlock: CIFDUS_clean_linker_0, # of connection points: 2
#     Edge 39, Type (0, 0), BuildingBlock: CIFDUS_clean_linker_0, # of connection points: 2
#     Edge 40, Type (0, 0), BuildingBlock: CIFDUS_clean_linker_0, # of connection points: 2
#     Edge 41, Type (0, 0), BuildingBlock: CIFDUS_clean_linker_0, # of connection points: 2
#     Edge 42, Type (0, 0), BuildingBlock: CIFDUS_clean_linker_0, # of connection points: 2
#     Edge 43, Type (0, 0), BuildingBlock: CIFDUS_clean_linker_0, # of connection points: 2
#     Edge 44, Type (0, 0), BuildingBlock: CIFDUS_clean_linker_0, # of connection points: 2
# Relax obj value: 0.018
# Max RMSD: 0.077
# Mean RMSD: 0.065
data_MOF--net-etb--node1-OLANEW_clean_sbu_2--edge1-CIFDUS_clean_linker_0
_symmetry_space_group_name_H-M    P1
_symmetry_Int_Tables_number       1
_symmetry_cell_setting            triclinic
loop_
_symmetry_equiv_pos_as_xyz
'x, y, z'
_cell_length_a     86.203904
_cell_length_b     81.216918
_cell_length_c     25.910717
_cell_angle_alpha  82.87027
_cell_angle_beta   96.675503
_cell_angle_gamma 124.99044
loop_
_atom_site_label
_atom_site_type_symbol
_atom_site_fract_x
_atom_site_fract_y
_atom_site_fract_z
_atom_type_partial_charge
O0 O 0.43863 0.06454 0.95591 0.0
Cd1 Cd 0.44097 0.03966 0.01337 0.0
O2 O 0.4193 0.06397 0.00575 0.0
Cd3 Cd 0.41494 0.03872 0.05874 0.0
O4 O 0.3985 0.01257 0.11312 0.0
C5 C 0.38059 0.00341 0.10739 0.0
O6 O 0.37345 0.00969 0.06883 0.0
C7 C 0.42913 0.07119 0.96581 0.0
C8 C 0.47519 0.04411 0.00425 0.0
O9 O 0.46027 0.03203 0.97662 0.0
O10 O 0.47392 0.05405 0.0363 0.0
O11 O 0.02299 0.45363 0.20636 0.0
Cd12 Cd 0.00686 0.45986 0.13031 0.0
O13 O 0.04224 0.45438 0.15581 0.0
Cd14 Cd 0.02573 0.45201 0.0833 0.0
O15 O 0.01044 0.43518 0.01481 0.0
C16 C 0.99827 0.41635 0.02302 0.0
O17 O 0.99475 0.40869 0.07137 0.0
C18 C 0.03733 0.45335 0.20115 0.0
C19 C 0.02741 0.50047 0.09424 0.0
O20 O 0.01371 0.49321 0.12412 0.0
O21 O 0.03137 0.4886 0.0815 0.0
O22 O 0.60818 0.63175 0.99131 0.0
Cd23 Cd 0.57795 0.61288 0.03287 0.0
O24 O 0.61569 0.65388 0.04648 0.0
Cd25 Cd 0.63541 0.68094 0.08846 0.0
O26 O 0.65608 0.70585 0.13594 0.0
C27 C 0.67113 0.7212 0.11714 0.0
O28 O 0.67405 0.72219 0.06788 0.0
C29 C 0.62036 0.64861 0.01012 0.0
C30 C 0.563 0.57211 0.05368 0.0
O31 O 0.55651 0.57815 0.01452 0.0
O32 O 0.57663 0.5853 0.0826 0.0
O33 O 0.62476 0.06342 0.06152 0.0
Cd34 Cd 0.61506 0.07809 0.98764 0.0
O35 O 0.65213 0.09231 0.07394 0.0
Cd36 Cd 0.65023 0.10678 0.99907 0.0
O37 O 0.66304 0.11567 0.92397 0.0
C38 C 0.65442 0.10458 0.88599 0.0
O39 O 0.63694 0.08869 0.89098 0.0
C40 C 0.64031 0.07387 0.08816 0.0
C41 C 0.58048 0.07223 0.00098 0.0
O42 O 0.58114 0.05972 0.97724 0.0
O43 O 0.59616 0.08746 0.01853 0.0
O44 O 0.09767 0.67776 0.00904 0.0
Cd45 Cd 0.09146 0.65445 0.94577 0.0
O46 O 0.06985 0.67118 0.98165 0.0
Cd47 Cd 0.04436 0.67119 0.97826 0.0
O48 O 0.01921 0.67128 0.9557 0.0
C49 C 0.02119 0.68635 0.92792 0.0
O50 O 0.03832 0.70149 0.91544 0.0
C51 C 0.08473 0.68057 0.01155 0.0
C52 C 0.07162 0.61475 0.98848 0.0
O53 O 0.0897 0.62527 0.98634 0.0
O54 O 0.06294 0.62298 0.97039 0.0
O55 O 0.49029 0.39934 0.11726 0.0
Cd56 Cd 0.51586 0.42035 0.1799 0.0
O57 O 0.47268 0.40061 0.16883 0.0
Cd58 Cd 0.44579 0.39175 0.19714 0.0
O59 O 0.4188 0.37961 0.23043 0.0
C60 C 0.40409 0.37494 0.20144 0.0
O61 O 0.40535 0.37784 0.15065 0.0
C62 C 0.47411 0.39466 0.12758 0.0
C63 C 0.53277 0.46094 0.14886 0.0
O64 O 0.54093 0.45227 0.14256 0.0
O65 O 0.51679 0.45054 0.17011 0.0
O66 O 0.10639 0.34842 0.54987 0.0
Cd67 Cd 0.13317 0.36053 0.49698 0.0
O68 O 0.10418 0.37107 0.50122 0.0
Cd69 Cd 0.09268 0.3889 0.47497 0.0
O70 O 0.08326 0.40661 0.4306 0.0
C71 C 0.09379 0.41933 0.39524 0.0
O72 O 0.1098 0.42152 0.38878 0.0
C73 C 0.0977 0.35685 0.53695 0.0
C74 C 0.14524 0.33504 0.50244 0.0
O75 O 0.1542 0.35069 0.52871 0.0
O76 O 0.13046 0.33128 0.47429 0.0
O77 O 0.764 0.82605 0.49058 0.0
Cd78 Cd 0.75731 0.83448 0.40069 0.0
O79 O 0.78543 0.8216 0.47078 0.0
Cd80 Cd 0.77785 0.82299 0.38799 0.0
O81 O 0.75682 0.80676 0.3255 0.0
C82 C 0.74043 0.79295 0.34088 0.0
O83 O 0.73764 0.79033 0.39089 0.0
C84 C 0.77635 0.82226 0.50487 0.0
C85 C 0.76363 0.87242 0.38889 0.0
O86 O 0.7472 0.85655 0.39893 0.0
O87 O 0.77704 0.8703 0.38445 0.0
O88 O 0.31624 0.93301 0.36529 0.0
Cd89 Cd 0.29814 0.92112 0.44352 0.0
O90 O 0.33844 0.92901 0.40057 0.0
Cd91 Cd 0.32815 0.92364 0.4779 0.0
O92 O 0.33387 0.94382 0.53649 0.0
C93 C 0.35049 0.95991 0.53484 0.0
O94 O 0.36199 0.9618 0.50185 0.0
C95 C 0.33124 0.93384 0.3611 0.0
C96 C 0.25977 0.89128 0.4239 0.0
O97 O 0.26616 0.91 0.41686 0.0
O98 O 0.27154 0.88666 0.4401 0.0
O99 O 0.23523 0.26157 0.54229 0.0
Cd100 Cd 0.21172 0.25858 0.47454 0.0
O101 O 0.25532 0.2796 0.48147 0.0
Cd102 Cd 0.28339 0.29952 0.4499 0.0
O103 O 0.31118 0.31721 0.41691 0.0
C104 C 0.31249 0.32153 0.36807 0.0
O105 O 0.29697 0.31541 0.33827 0.0
C106 C 0.25216 0.2719 0.52812 0.0
C107 C 0.19865 0.28188 0.49019 0.0
O108 O 0.18882 0.2629 0.50286 0.0
O109 O 0.21463 0.28983 0.47038 0.0
O110 O 0.77113 0.02673 0.38752 0.0
Cd111 Cd 0.77034 0.00934 0.31564 0.0
O112 O 0.74679 0.0249 0.34493 0.0
Cd113 Cd 0.72688 0.03362 0.32706 0.0
O114 O 0.71184 0.04737 0.2964 0.0
C115 C 0.6942 0.03699 0.28361 0.0
O116 O 0.68444 0.01726 0.29051 0.0
C117 C 0.75875 0.03069 0.38378 0.0
C118 C 0.76443 0.97198 0.34392 0.0
O119 O 0.78124 0.98811 0.3415 0.0
O120 O 0.75041 0.97359 0.33395 0.0
O121 O 0.11274 0.74576 0.29352 0.0
Cd122 Cd 0.11552 0.76384 0.36662 0.0
O123 O 0.09135 0.74899 0.24786 0.0
Cd124 Cd 0.0873 0.76128 0.31139 0.0
O125 O 0.073 0.76228 0.374 0.0
C126 C 0.06429 0.77082 0.3657 0.0
O127 O 0.06489 0.77999 0.31972 0.0
C128 C 0.10227 0.74304 0.25214 0.0
C129 C 0.15348 0.79418 0.38946 0.0
O130 O 0.14601 0.77615 0.40978 0.0
O131 O 0.14294 0.79793 0.35866 0.0
O132 O 0.79182 0.75991 0.78746 0.0
Cd133 Cd 0.78831 0.73861 0.86675 0.0
O134 O 0.77073 0.76532 0.80434 0.0
Cd135 Cd 0.75962 0.74367 0.87164 0.0
O136 O 0.73366 0.72242 0.9122 0.0
C137 C 0.72407 0.70354 0.9078 0.0
O138 O 0.73069 0.69625 0.88131 0.0
C139 C 0.78327 0.76853 0.77545 0.0
C140 C 0.80883 0.72232 0.85828 0.0
O141 O 0.81688 0.7398 0.87513 0.0
O142 O 0.79095 0.71227 0.84673 0.0
O143 O 0.42597 0.15811 0.74608 0.0
Cd144 Cd 0.41694 0.17449 0.67531 0.0
O145 O 0.41985 0.13786 0.68682 0.0
Cd146 Cd 0.41483 0.11041 0.66171 0.0
O147 O 0.40868 0.08257 0.63622 0.0
C148 C 0.39374 0.06568 0.64929 0.0
O149 O 0.38209 0.06518 0.679 0.0
C150 C 0.4251 0.14298 0.7334 0.0
C151 C 0.4095 0.20075 0.70708 0.0
O152 O 0.3966 0.18181 0.70677 0.0
O153 O 0.42599 0.20722 0.69317 0.0
O154 O 0.98924 0.33306 0.61406 0.0
Cd155 Cd 0.9634 0.32971 0.65578 0.0
O156 O 0.00084 0.32626 0.68728 0.0
Cd157 Cd 0.98149 0.3263 0.73431 0.0
O158 O 0.97633 0.34145 0.78684 0.0
C159 C 0.98222 0.35966 0.77364 0.0
O160 O 0.98969 0.36762 0.72822 0.0
C161 C 0.00145 0.33041 0.63829 0.0
C162 C 0.92871 0.2926 0.64394 0.0
O163 O 0.93352 0.3076 0.61064 0.0
O164 O 0.94041 0.29509 0.68262 0.0
O165 O 0.92657 0.6891 0.79447 0.0
Cd166 Cd 0.90027 0.68633 0.7393 0.0
O167 O 0.94294 0.70472 0.72523 0.0
Cd168 Cd 0.96758 0.71754 0.6787 0.0
O169 O 0.99089 0.72702 0.63035 0.0
C170 C 0.99489 0.7399 0.59185 0.0
O171 O 0.98499 0.74772 0.58204 0.0
C172 C 0.94218 0.69801 0.77259 0.0
C173 C 0.88138 0.69954 0.78223 0.0
O174 O 0.87501 0.68081 0.78584 0.0
O175 O 0.89682 0.71201 0.75918 0.0
O176 O 0.39104 0.30906 0.89864 0.0
Cd177 Cd 0.36652 0.28946 0.83199 0.0
O178 O 0.3791 0.32522 0.91728 0.0
Cd179 Cd 0.35466 0.30988 0.86199 0.0
O180 O 0.32962 0.29905 0.80859 0.0
C181 C 0.32994 0.2964 0.76151 0.0
O182 O 0.34549 0.29982 0.7453 0.0
C183 C 0.39198 0.32193 0.92458 0.0
C184 C 0.37247 0.26201 0.80041 0.0
O185 O 0.38117 0.28014 0.7801 0.0
O186 O 0.36063 0.25669 0.83499 0.0
O187 O 0.7927 0.12421 0.59815 0.0
Cd188 Cd 0.79481 0.14774 0.65375 0.0
O189 O 0.76157 0.10684 0.5881 0.0
Cd190 Cd 0.75786 0.12377 0.63881 0.0
O191 O 0.74412 0.13004 0.69162 0.0
C192 C 0.72619 0.12071 0.6859 0.0
O193 O 0.71716 0.10854 0.64803 0.0
C194 C 0.77715 0.10978 0.57847 0.0
C195 C 0.83124 0.18325 0.65947 0.0
O196 O 0.82638 0.16814 0.6924 0.0
O197 O 0.81887 0.18154 0.62379 0.0
H198 H 0.54568 0.04425 0.9585 0.0
H199 H 0.57417 0.09369 0.05831 0.0
H200 H 0.54413 0.08915 0.06878 0.0
H201 H 0.50981 0.07137 0.04901 0.0
H202 H 0.48144 0.02242 0.94761 0.0
H203 H 0.51138 0.02656 0.93843 0.0
C204 C 0.54532 0.05401 0.98265 0.0
C205 C 0.56217 0.06927 0.0076 0.0
C206 C 0.52801 0.05142 0.98819 0.0
C207 C 0.56144 0.08183 0.03857 0.0
C208 C 0.54425 0.07925 0.04462 0.0
C209 C 0.51016 0.06157 0.02498 0.0
C210 C 0.49338 0.0466 -0.00091 0.0
C211 C 0.52746 0.06412 0.01953 0.0
C212 C 0.49413 0.03409 0.96793 0.0
C213 C 0.51125 0.03644 0.96267 0.0
H214 H 0.01639 0.52608 0.0862 0.0
H215 H 0.06285 0.5228 0.05774 0.0
H216 H 0.08091 0.55808 0.02425 0.0
H217 H 0.08334 0.58973 0.00179 0.0
H218 H 0.03611 0.59245 0.02494 0.0
H219 H 0.01852 0.55756 0.06172 0.0
C220 C 0.03051 0.53314 0.07288 0.0
C221 C 0.03831 0.52189 0.07463 0.0
C222 C 0.04065 0.55331 0.05259 0.0
C223 C 0.05652 0.53114 0.05667 0.0
C224 C 0.06686 0.55131 0.03758 0.0
C225 C 0.06922 0.5827 0.01509 0.0
C226 C 0.06106 0.59367 0.01086 0.0
C227 C 0.05905 0.56252 0.03518 0.0
C228 C 0.04268 0.5843 0.02767 0.0
C229 C 0.03263 0.56436 0.04879 0.0
H230 H 0.51482 0.4781 0.10526 0.0
H231 H 0.57021 0.4915 0.15435 0.0
H232 H 0.58458 0.52735 0.12979 0.0
H233 H 0.58117 0.55492 0.09601 0.0
H234 H 0.52615 0.54098 0.03897 0.0
H235 H 0.51177 0.50524 0.06461 0.0
C236 C 0.53003 0.48892 0.1105 0.0
C237 C 0.54147 0.48235 0.13207 0.0
C238 C 0.5382 0.50933 0.0948 0.0
C239 C 0.56118 0.49633 0.13785 0.0
C240 C 0.56937 0.51678 0.12393 0.0
C241 C 0.56605 0.544 0.08914 0.0
C242 C 0.55466 0.55048 0.06618 0.0
C243 C 0.558 0.52346 0.10265 0.0
C244 C 0.53515 0.53626 0.05659 0.0
C245 C 0.52694 0.51587 0.07139 0.0
H246 H 0.16205 0.26974 0.48827 0.0
H247 H 0.21957 0.32177 0.50691 0.0
H248 H 0.20803 0.34256 0.51629 0.0
H249 H 0.18157 0.34617 0.51606 0.0
H250 H 0.12422 0.29489 0.48883 0.0
H251 H 0.13562 0.27352 0.48612 0.0
C252 C 0.17202 0.2856 0.49478 0.0
C253 C 0.1916 0.29423 0.4972 0.0
C254 C 0.1653 0.29757 0.49846 0.0
C255 C 0.20442 0.31484 0.50481 0.0
C256 C 0.19783 0.32671 0.51024 0.0
C257 C 0.17159 0.33027 0.51001 0.0
C258 C 0.1521 0.32204 0.50302 0.0
C259 C 0.17831 0.31827 0.50673 0.0
C260 C 0.1393 0.30152 0.49429 0.0
C261 C 0.14581 0.28932 0.49276 0.0
H262 H 0.7908 0.96332 0.35246 0.0
H263 H 0.73089 0.9357 0.3621 0.0
H264 H 0.72544 0.90254 0.37823 0.0
H265 H 0.73754 0.88129 0.38722 0.0
H266 H 0.79734 0.90888 0.37528 0.0
H267 H 0.80294 0.94213 0.36244 0.0
C268 C 0.77656 0.95007 0.35841 0.0
C269 C 0.76128 0.95201 0.35608 0.0
C270 C 0.77348 0.93102 0.36704 0.0
C271 C 0.74291 0.93465 0.36361 0.0
C272 C 0.73977 0.91567 0.37281 0.0
C273 C 0.75181 0.89457 0.38199 0.0
C274 C 0.76699 0.89257 0.38215 0.0
C275 C 0.75493 0.91366 0.3742 0.0
C276 C 0.78539 0.90996 0.37519 0.0
C277 C 0.78861 0.929 0.36788 0.0
H278 H 0.24107 0.85109 0.45049 0.0
H279 H 0.23267 0.89601 0.37457 0.0
H280 H 0.19909 0.86999 0.35715 0.0
H281 H 0.17213 0.83443 0.36307 0.0
H282 H 0.18041 0.78967 0.44115 0.0
H283 H 0.21398 0.81568 0.45819 0.0
C284 C 0.23191 0.85519 0.43006 0.0
C285 C 0.2394 0.87546 0.41369 0.0
C286 C 0.21257 0.84017 0.4206 0.0
C287 C 0.22728 0.88053 0.38763 0.0
C288 C 0.20807 0.86565 0.3776 0.0
C289 C 0.18127 0.83036 0.38383 0.0
C290 C 0.17375 0.81011 0.40066 0.0
C291 C 0.20056 0.84542 0.39386 0.0
C292 C 0.1858 0.80513 0.42779 0.0
C293 C 0.20502 0.81999 0.4375 0.0
H294 H 0.84426 0.67715 0.80467 0.0
H295 H 0.89485 0.73775 0.80348 0.0
H296 H 0.87709 0.74985 0.83091 0.0
H297 H 0.84688 0.74356 0.85052 0.0
H298 H 0.79582 0.6834 0.8459 0.0
H299 H 0.81407 0.67075 0.82575 0.0
C300 C 0.85143 0.69297 0.81095 0.0
C301 C 0.87084 0.70654 0.80209 0.0
C302 C 0.84102 0.69991 0.82546 0.0
C303 C 0.8799 0.72702 0.80986 0.0
C304 C 0.86975 0.73395 0.82555 0.0
C305 C 0.83977 0.72764 0.84567 0.0
C306 C 0.82004 0.71443 0.84977 0.0
C307 C 0.85027 0.72058 0.83278 0.0
C308 C 0.811 0.69388 0.84281 0.0
C309 C 0.82143 0.68665 0.83127 0.0
H310 H 0.40289 0.27114 0.75134 0.0
H311 H 0.35098 0.22101 0.81662 0.0
H312 H 0.35777 0.19758 0.79316 0.0
H313 H 0.37856 0.1914 0.75446 0.0
H314 H 0.43116 0.24175 0.69279 0.0
H315 H 0.42403 0.26504 0.71473 0.0
C316 C 0.39301 0.25508 0.7602 0.0
C317 C 0.3764 0.24781 0.78538 0.0
C318 C 0.39718 0.24175 0.74748 0.0
C319 C 0.36386 0.22698 0.79722 0.0
C320 C 0.36774 0.21358 0.78383 0.0
C321 C 0.38846 0.20747 0.74583 0.0
C322 C 0.40534 0.21481 0.7219 0.0
C323 C 0.38437 0.2208 0.75905 0.0
C324 C 0.41809 0.23569 0.71132 0.0
C325 C 0.414 0.24903 0.72371 0.0
H326 H 0.91468 0.25822 0.70751 0.0
H327 H 0.90069 0.28323 0.56789 0.0
H328 H 0.86949 0.25159 0.56002 0.0
H329 H 0.8459 0.21706 0.59362 0.0
H330 H 0.85985 0.19198 0.73316 0.0
H331 H 0.89131 0.22339 0.74009 0.0
C332 C 0.90483 0.25674 0.67526 0.0
C333 C 0.91003 0.27312 0.63844 0.0
C334 C 0.88687 0.2385 0.67098 0.0
C335 C 0.89708 0.2709 0.59685 0.0
C336 C 0.87921 0.2528 0.59232 0.0
C337 C 0.85582 0.21843 0.62552 0.0
C338 C 0.85047 0.20218 0.66288 0.0
C339 C 0.87391 0.23654 0.62931 0.0
C340 C 0.86356 0.20424 0.70386 0.0
C341 C 0.88157 0.22221 0.70789 0.0
H342 H 0.31931 0.94425 0.26898 0.0
H343 H 0.36671 0.94433 0.34448 0.0
H344 H 0.38586 0.9647 0.27047 0.0
H345 H 0.39017 0.98546 0.18859 0.0
H346 H 0.34269 0.98541 0.1138 0.0
H347 H 0.32261 0.96203 0.18311 0.0
C348 C 0.33374 0.94845 0.26898 0.0
C349 C 0.3416 0.94296 0.31258 0.0
C350 C 0.34477 0.96039 0.22662 0.0
C351 C 0.36028 0.94839 0.31158 0.0
C352 C 0.3713 0.96016 0.26936 0.0
C353 C 0.37538 0.98017 0.18718 0.0
C354 C 0.36805 0.98743 0.14641 0.0
C355 C 0.36387 0.96674 0.22736 0.0
C356 C 0.34878 0.98022 0.14487 0.0
C357 C 0.33726 0.96684 0.18457 0.0
H358 H 0.06308 0.42057 0.4013 0.0
H359 H 0.10997 0.44193 0.30605 0.0
H360 H 0.09753 0.45616 0.23981 0.0
H361 H 0.07189 0.45972 0.20525 0.0
H362 H 0.02491 0.43858 0.29965 0.0
H363 H 0.03902 0.42741 0.37025 0.0
C364 C 0.07067 0.42851 0.36628 0.0
C365 C 0.08728 0.4299 0.35834 0.0
C366 C 0.06341 0.43667 0.32812 0.0
C367 C 0.09708 0.44049 0.31306 0.0
C368 C 0.08996 0.44862 0.27504 0.0
C369 C 0.06484 0.4529 0.24151 0.0
C370 C 0.04726 0.44974 0.24691 0.0
C371 C 0.07292 0.44636 0.28162 0.0
C372 C 0.03844 0.44115 0.29443 0.0
C373 C 0.04644 0.43464 0.33469 0.0
H374 H 0.74183 0.7927 0.23629 0.0
H375 H 0.7044 0.76189 0.36321 0.0
H376 H 0.67952 0.73751 0.30481 0.0
H377 H 0.66877 0.72402 0.21889 0.0
H378 H 0.70603 0.75446 0.0916 0.0
H379 H 0.73051 0.77991 0.14896 0.0
C380 C 0.72819 0.78073 0.2511 0.0
C381 C 0.72506 0.77909 0.30415 0.0
C382 C 0.71391 0.76663 0.21731 0.0
C383 C 0.70727 0.7635 0.32263 0.0
C384 C 0.693 0.74951 0.28926 0.0
C385 C 0.68221 0.73626 0.20355 0.0
C386 C 0.68558 0.73724 0.15109 0.0
C387 C 0.69624 0.75078 0.23672 0.0
C388 C 0.70305 0.75329 0.13186 0.0
C389 C 0.71709 0.76785 0.16466 0.0
H390 H 0.0038 0.42706 0.91949 0.0
H391 H 0.97516 0.37526 0.02932 0.0
H392 H 0.96603 0.35292 0.96037 0.0
H393 H 0.969 0.34826 0.87114 0.0
H394 H 0.99802 0.40009 0.76158 0.0
H395 H 0.00395 0.42215 0.82803 0.0
C396 C 0.99534 0.41088 0.92824 0.0
C397 C 0.99042 0.40289 0.97969 0.0
C398 C 0.99031 0.39808 0.88851 0.0
C399 C 0.9793 0.38186 0.99018 0.0
C400 C 0.9741 0.36904 0.95077 0.0
C401 C 0.97641 0.36435 0.86157 0.0
C402 C 0.98329 0.37251 0.81165 0.0
C403 C 0.97997 0.37701 0.90014 0.0
C404 C 0.99269 0.39339 0.7998 0.0
C405 C 0.99615 0.40605 0.83784 0.0
H406 H 0.70322 0.71499 0.94161 0.0
H407 H 0.7015 0.66231 0.91758 0.0
H408 H 0.66908 0.64057 0.94648 0.0
H409 H 0.64108 0.63661 0.97809 0.0
H410 H 0.64274 0.68953 0.99807 0.0
H411 H 0.67529 0.7111 0.9708 0.0
C412 C 0.69584 0.69875 0.94303 0.0
C413 C 0.70482 0.69029 0.92775 0.0
C414 C 0.67716 0.68638 0.95888 0.0
C415 C 0.69493 0.66921 0.92926 0.0
C416 C 0.67638 0.65677 0.94567 0.0
C417 C 0.64861 0.65287 0.97641 0.0
C418 C 0.63974 0.6615 0.99141 0.0
C419 C 0.66732 0.6652 0.96035 0.0
C420 C 0.64953 0.68256 0.98864 0.0
C421 C 0.66808 0.69489 0.97264 0.0
H422 H 0.44254 0.08477 0.86859 0.0
H423 H 0.41478 0.09244 0.98254 0.0
H424 H 0.41222 0.11636 0.92185 0.0
H425 H 0.41626 0.13375 0.83455 0.0
H426 H 0.44335 0.12552 0.72014 0.0
H427 H 0.44776 0.1032 0.78268 0.0
C428 C 0.43608 0.09179 0.88034 0.0
C429 C 0.4288 0.08672 0.93 0.0
C430 C 0.43437 0.10532 0.84494 0.0
C431 C 0.42041 0.09595 0.94446 0.0
C432 C 0.41894 0.10966 0.90977 0.0
C433 C 0.42327 0.12718 0.8236 0.0
C434 C 0.4291 0.13087 0.7726 0.0
C435 C 0.42563 0.11425 0.85967 0.0
C436 C 0.43822 0.12237 0.75877 0.0
C437 C 0.44088 0.10974 0.79462 0.0
H438 H 0.68792 0.10008 0.68893 0.0
H439 H 0.74033 0.1446 0.76805 0.0
H440 H 0.72258 0.1449 0.83441 0.0
H441 H 0.69233 0.13071 0.87336 0.0
H442 H 0.64 0.08523 0.79592 0.0
H443 H 0.6576 0.08732 0.7252 0.0
C444 C 0.69548 0.10999 0.72041 0.0
C445 C 0.71544 0.12218 0.72367 0.0
C446 C 0.6852 0.10989 0.75883 0.0
C447 C 0.72498 0.13497 0.7647 0.0
C448 C 0.71484 0.13515 0.80271 0.0
C449 C 0.68473 0.12144 0.84069 0.0
C450 C 0.66486 0.10774 0.84015 0.0
C451 C 0.69496 0.12241 0.80066 0.0
C452 C 0.65528 0.09583 0.79751 0.0
C453 C 0.66534 0.09697 0.75708 0.0
H454 H 0.94231 0.67098 0.84511 0.0
H455 H 0.97935 0.72903 0.7649 0.0
H456 H 0.00707 0.73075 0.80684 0.0
H457 H 0.02078 0.71524 0.86384 0.0
H458 H 0.98383 0.65717 0.94461 0.0
H459 H 0.95611 0.65611 0.90558 0.0
C460 C 0.95647 0.68404 0.83714 0.0
C461 C 0.95883 0.6996 0.80086 0.0
C462 C 0.97235 0.68495 0.86158 0.0
C463 C 0.97721 0.71652 0.79113 0.0
C464 C 0.99305 0.71761 0.81554 0.0
C465 C 0.00668 0.70239 0.87319 0.0
C466 C 0.00442 0.68627 0.90691 0.0
C467 C 0.9908 0.70179 0.85027 0.0
C468 C 0.98601 0.66977 0.91866 0.0
C469 C 0.97013 0.66913 0.8963 0.0
H470 H 0.46696 0.36499 0.07051 0.0
H471 H 0.44408 0.39754 0.10408 0.0
H472 H 0.41629 0.37737 0.04603 0.0
H473 H 0.39879 0.35095 0.98443 0.0
H474 H 0.42194 0.31877 0.94911 0.0
H475 H 0.4493 0.33835 0.00891 0.0
C476 C 0.45584 0.36759 0.06514 0.0
C477 C 0.45731 0.38236 0.09252 0.0
C478 C 0.43998 0.35606 0.03125 0.0
C479 C 0.44292 0.38573 0.08498 0.0
C480 C 0.42713 0.37437 0.0513 0.0
C481 C 0.40977 0.34814 0.98989 0.0
C482 C 0.40828 0.3334 0.96219 0.0
C483 C 0.42551 0.35948 0.02425 0.0
C484 C 0.42269 0.33002 0.96984 0.0
C485 C 0.43838 0.34122 0.00402 0.0
H486 H 0.0835 0.73672 0.15672 0.0
H487 H 0.12068 0.72459 0.25333 0.0
H488 H 0.11882 0.70464 0.18687 0.0
H489 H 0.10563 0.68945 0.10295 0.0
H490 H 0.06956 0.70268 0.00486 0.0
H491 H 0.07179 0.72312 0.07052 0.0
C492 C 0.09127 0.72979 0.16321 0.0
C493 C 0.10212 0.73208 0.21017 0.0
C494 C 0.09013 0.71828 0.12485 0.0
C495 C 0.11219 0.72309 0.21765 0.0
C496 C 0.11111 0.71161 0.1797 0.0
C497 C 0.0983 0.69686 0.09588 0.0
C498 C 0.08685 0.6939 0.04989 0.0
C499 C 0.09997 0.70894 0.13342 0.0
C500 C 0.07766 0.70383 0.04098 0.0
C501 C 0.07919 0.71581 0.07823 0.0
H502 H 0.31996 0.33197 0.26548 0.0
H503 H 0.34712 0.33615 0.41885 0.0
H504 H 0.37784 0.35351 0.38087 0.0
H505 H 0.39688 0.36668 0.30422 0.0
H506 H 0.36979 0.36231 0.15069 0.0
H507 H 0.33917 0.34589 0.18878 0.0
C508 C 0.33259 0.33673 0.29066 0.0
C509 C 0.33119 0.33268 0.34494 0.0
C510 C 0.35024 0.34664 0.26856 0.0
C511 C 0.34775 0.33901 0.37693 0.0
C512 C 0.36534 0.34894 0.35526 0.0
C513 C 0.3843 0.3622 0.27902 0.0
C514 C 0.38565 0.36567 0.22465 0.0
C515 C 0.36673 0.3527 0.30113 0.0
C516 C 0.36919 0.3598 0.19266 0.0
C517 C 0.35165 0.35039 0.2144 0.0
H518 H 0.67247 0.09192 0.15102 0.0
H519 H 0.62056 0.03397 0.12302 0.0
H520 H 0.63203 0.01749 0.18513 0.0
H521 H 0.65818 0.01929 0.24017 0.0
H522 H 0.71037 0.07735 0.2654 0.0
H523 H 0.69732 0.09398 0.21177 0.0
C524 C 0.66351 0.07571 0.15894 0.0
C525 C 0.64577 0.0642 0.13184 0.0
C526 C 0.67033 0.0663 0.19386 0.0
C527 C 0.63433 0.04321 0.14307 0.0
C528 C 0.64091 0.03376 0.17843 0.0
C529 C 0.66662 0.03559 0.23447 0.0
C530 C 0.68533 0.04701 0.25625 0.0
C531 C 0.65912 0.0451 0.20291 0.0
C532 C 0.69601 0.06815 0.2487 0.0
C533 C 0.68856 0.0777 0.21799 0.0
H534 H 0.06646 0.35461 0.49331 0.0
H535 H 0.08989 0.3431 0.63821 0.0
H536 H 0.06156 0.33265 0.6819 0.0
H537 H 0.03088 0.32836 0.67955 0.0
H538 H 0.00771 0.34039 0.53446 0.0
H539 H 0.0353 0.34924 0.49025 0.0
C540 C 0.06552 0.35021 0.53467 0.0
C541 C 0.08045 0.3502 0.56293 0.0
C542 C 0.04922 0.34424 0.55938 0.0
C543 C 0.07863 0.34344 0.61586 0.0
C544 C 0.06246 0.33748 0.6408 0.0
C545 C 0.03175 0.33275 0.63816 0.0
C546 C 0.01724 0.33379 0.61049 0.0
C547 C 0.04775 0.33802 0.61303 0.0
C548 C 0.01865 0.33947 0.55681 0.0
C549 C 0.03446 0.34461 0.53148 0.0
H550 H 0.76814 0.78966 0.74001 0.0
H551 H 0.80633 0.77565 0.69922 0.0
H552 H 0.8091 0.793 0.61327 0.0
H553 H 0.79828 0.80922 0.54707 0.0
H554 H 0.7594 0.82234 0.58752 0.0
H555 H 0.75952 0.80844 0.67642 0.0
C556 C 0.77724 0.79056 0.71258 0.0
C557 C 0.78682 0.78113 0.7259 0.0
C558 C 0.77859 0.80032 0.66302 0.0
C559 C 0.79869 0.78265 0.68996 0.0
C560 C 0.80026 0.79253 0.6407 0.0
C561 C 0.79004 0.80932 0.57548 0.0
C562 C 0.77868 0.81662 0.56038 0.0
C563 C 0.78991 0.80099 0.6264 0.0
C564 C 0.76817 0.81669 0.59787 0.0
C565 C 0.76817 0.80869 0.64875 0.0
H566 H 0.38435 0.99613 0.5353 0.0
H567 H 0.32968 0.96235 0.60227 0.0
H568 H 0.33865 0.9919 0.646 0.0
H569 H 0.36138 0.0279 0.66091 0.0
H570 H 0.41566 0.06153 0.59159 0.0
H571 H 0.40743 0.03139 0.55318 0.0
C572 C 0.37441 0.99513 0.55976 0.0
C573 C 0.35633 0.97707 0.56523 0.0
C574 C 0.37955 0.0122 0.58413 0.0
C575 C 0.34368 0.97608 0.59727 0.0
C576 C 0.34878 0.99299 0.62218 0.0
C577 C 0.37147 0.02861 0.6377 0.0
C578 C 0.38906 0.04701 0.62888 0.0
C579 C 0.36658 0.01122 0.61522 0.0
C580 C 0.40197 0.04762 0.59878 0.0
C581 C 0.39729 0.03038 0.57677 0.0
H582 H 0.78954 0.06135 0.43392 0.0
H583 H 0.72847 0.02692 0.4206 0.0
H584 H 0.72882 0.04843 0.4794 0.0
H585 H 0.74644 0.07736 0.53299 0.0
H586 H 0.8076 0.11188 0.54732 0.0
H587 H 0.80725 0.0899 0.49007 0.0
C588 C 0.77633 0.05853 0.44422 0.0
C589 C 0.75902 0.0429 0.42205 0.0
C590 C 0.77666 0.07096 0.47816 0.0
C591 C 0.74199 0.03929 0.4358 0.0
C592 C 0.74218 0.05147 0.46978 0.0
C593 C 0.75973 0.08012 0.5237 0.0
C594 C 0.77703 0.09633 0.54433 0.0
C595 C 0.75943 0.06747 0.49072 0.0
C596 C 0.79407 0.09956 0.53193 0.0
C597 C 0.79389 0.08699 0.4992 0.0
H598 H 0.05716 0.74965 0.46009 0.0
H599 H 0.04399 0.78733 0.36061 0.0
H600 H 0.02201 0.78182 0.42295 0.0
H601 H 0.00531 0.76493 0.50346 0.0
H602 H 0.01806 0.72671 0.60195 0.0
H603 H 0.04144 0.73389 0.54224 0.0
C604 C 0.04961 0.75681 0.45217 0.0
C605 C 0.05217 0.76881 0.40555 0.0
C606 C 0.03682 0.75339 0.48788 0.0
C607 C 0.04226 0.77796 0.39605 0.0
C608 C 0.02965 0.77479 0.43166 0.0
C609 C 0.01327 0.75825 0.51207 0.0
C610 C 0.00982 0.7452 0.55702 0.0
C611 C 0.02662 0.76231 0.47734 0.0
C612 C 0.02033 0.73674 0.56755 0.0
C613 C 0.03373 0.74083 0.5334 0.0
H614 H 0.25465 0.27528 0.63187 0.0
H615 H 0.28448 0.27537 0.50919 0.0
H616 H 0.31116 0.28296 0.57048 0.0
H617 H 0.32626 0.29018 0.65868 0.0
H618 H 0.29615 0.28941 0.78199 0.0
H619 H 0.26926 0.28117 0.72097 0.0
C620 C 0.26698 0.27689 0.61868 0.0
C621 C 0.26786 0.27541 0.56577 0.0
C622 C 0.28218 0.28104 0.65432 0.0
C623 C 0.28381 0.27733 0.54923 0.0
C624 C 0.29897 0.2814 0.58443 0.0
C625 C 0.31381 0.28814 0.67231 0.0
C626 C 0.3133 0.29051 0.72484 0.0
C627 C 0.2984 0.28349 0.63696 0.0
C628 C 0.29698 0.28774 0.74177 0.0
C629 C 0.28157 0.28304 0.70688 0.0
loop_
_geom_bond_atom_site_label_1
_geom_bond_atom_site_label_2
_geom_bond_distance
_geom_bond_site_symmetry_2
_ccdc_geom_bond_type
O0 Cd1 2.300 . S
O0 C7 1.275 . S
Cd1 O0 2.300 . S
Cd1 O9 2.381 . S
Cd1 O10 2.378 . S
O2 Cd3 2.385 . S
O2 C7 1.255 . S
Cd3 O2 2.385 . S
Cd3 O4 2.317 . S
O4 Cd3 2.317 . S
O4 C5 1.232 . S
C5 O4 1.232 . S
C5 O6 1.218 . S
O6 C5 1.218 . S
C7 O0 1.275 . S
C7 O2 1.255 . S
C8 O9 1.258 . S
C8 O10 1.256 . S
O9 Cd1 2.381 . S
O9 C8 1.258 . S
O10 Cd1 2.378 . S
O10 C8 1.256 . S
O11 Cd12 2.300 . S
O11 C18 1.275 . S
Cd12 O11 2.300 . S
Cd12 O20 2.381 . S
Cd12 O21 2.378 . S
O13 Cd14 2.385 1_554 S
O13 C18 1.255 . S
Cd14 O13 2.385 1_556 S
Cd14 O15 2.317 . S
O15 Cd14 2.317 . S
O15 C16 1.232 . S
C16 O15 1.232 . S
C16 O17 1.218 . S
O17 C16 1.218 . S
C18 O11 1.275 . S
C18 O13 1.255 . S
C19 O20 1.258 . S
C19 O21 1.256 . S
O20 Cd12 2.381 . S
O20 C19 1.258 . S
O21 Cd12 2.378 . S
O21 C19 1.256 . S
O22 Cd23 2.300 . S
O22 C29 1.275 . S
Cd23 O22 2.300 . S
Cd23 O31 2.381 . S
Cd23 O32 2.378 . S
O24 Cd25 2.385 . S
O24 C29 1.255 . S
Cd25 O24 2.385 . S
Cd25 O26 2.317 . S
O26 Cd25 2.317 . S
O26 C27 1.232 . S
C27 O26 1.232 . S
C27 O28 1.218 . S
O28 C27 1.218 . S
C29 O22 1.275 . S
C29 O24 1.255 . S
C30 O31 1.258 . S
C30 O32 1.256 . S
O31 Cd23 2.381 . S
O31 C30 1.258 . S
O32 Cd23 2.378 . S
O32 C30 1.256 . S
O33 Cd34 2.300 . S
O33 C40 1.275 . S
Cd34 O33 2.300 . S
Cd34 O42 2.381 . S
Cd34 O43 2.378 . S
O35 Cd36 2.385 . S
O35 C40 1.255 . S
Cd36 O35 2.385 . S
Cd36 O37 2.317 1_554 S
O37 Cd36 2.317 1_556 S
O37 C38 1.232 . S
C38 O37 1.232 . S
C38 O39 1.218 . S
O39 C38 1.218 . S
C40 O33 1.275 . S
C40 O35 1.255 . S
C41 O42 1.258 . S
C41 O43 1.256 . S
O42 Cd34 2.381 . S
O42 C41 1.258 . S
O43 Cd34 2.378 . S
O43 C41 1.256 . S
O44 Cd45 2.300 . S
O44 C51 1.275 . S
Cd45 O44 2.300 . S
Cd45 O53 2.381 . S
Cd45 O54 2.378 . S
O46 Cd47 2.385 1_455 S
O46 C51 1.255 . S
Cd47 O46 2.385 1_655 S
Cd47 O48 2.317 1_554 S
O48 Cd47 2.317 1_556 S
O48 C49 1.232 . S
C49 O48 1.232 . S
C49 O50 1.218 1_556 S
O50 C49 1.218 1_554 S
C51 O44 1.275 . S
C51 O46 1.255 . S
C52 O53 1.258 . S
C52 O54 1.256 . S
O53 Cd45 2.381 . S
O53 C52 1.258 . S
O54 Cd45 2.378 . S
O54 C52 1.256 . S
O55 Cd56 2.300 . S
O55 C62 1.275 . S
Cd56 O55 2.300 . S
Cd56 O64 2.381 . S
Cd56 O65 2.378 . S
O57 Cd58 2.385 . S
O57 C62 1.255 . S
Cd58 O57 2.385 . S
Cd58 O59 2.317 . S
O59 Cd58 2.317 . S
O59 C60 1.232 . S
C60 O59 1.232 . S
C60 O61 1.218 . S
O61 C60 1.218 . S
C62 O55 1.275 . S
C62 O57 1.255 . S
C63 O64 1.258 . S
C63 O65 1.256 . S
O64 Cd56 2.381 . S
O64 C63 1.258 . S
O65 Cd56 2.378 . S
O65 C63 1.256 . S
O66 Cd67 2.300 . S
O66 C73 1.275 . S
Cd67 O66 2.300 . S
Cd67 O75 2.381 . S
Cd67 O76 2.378 . S
O68 Cd69 2.385 . S
O68 C73 1.255 . S
Cd69 O68 2.385 . S
Cd69 O70 2.317 . S
O70 Cd69 2.317 . S
O70 C71 1.232 . S
C71 O70 1.232 . S
C71 O72 1.218 . S
O72 C71 1.218 . S
C73 O66 1.275 . S
C73 O68 1.255 . S
C74 O75 1.258 . S
C74 O76 1.256 . S
O75 Cd67 2.381 . S
O75 C74 1.258 . S
O76 Cd67 2.378 . S
O76 C74 1.256 . S
O77 Cd78 2.300 . S
O77 C84 1.275 . S
Cd78 O77 2.300 . S
Cd78 O86 2.381 . S
Cd78 O87 2.378 . S
O79 Cd80 2.385 . S
O79 C84 1.255 . S
Cd80 O79 2.385 . S
Cd80 O81 2.317 . S
O81 Cd80 2.317 . S
O81 C82 1.232 . S
C82 O81 1.232 . S
C82 O83 1.218 . S
O83 C82 1.218 . S
C84 O77 1.275 . S
C84 O79 1.255 . S
C85 O86 1.258 . S
C85 O87 1.256 . S
O86 Cd78 2.381 . S
O86 C85 1.258 . S
O87 Cd78 2.378 . S
O87 C85 1.256 . S
O88 Cd89 2.300 . S
O88 C95 1.275 . S
Cd89 O88 2.300 . S
Cd89 O97 2.381 . S
Cd89 O98 2.378 . S
O90 Cd91 2.385 . S
O90 C95 1.255 . S
Cd91 O90 2.385 . S
Cd91 O92 2.317 . S
O92 Cd91 2.317 . S
O92 C93 1.232 . S
C93 O92 1.232 . S
C93 O94 1.218 1_565 S
O94 C93 1.218 1_545 S
C95 O88 1.275 . S
C95 O90 1.255 . S
C96 O97 1.258 . S
C96 O98 1.256 . S
O97 Cd89 2.381 . S
O97 C96 1.258 . S
O98 Cd89 2.378 . S
O98 C96 1.256 . S
O99 Cd100 2.300 . S
O99 C106 1.275 . S
Cd100 O99 2.300 . S
Cd100 O108 2.381 . S
Cd100 O109 2.378 . S
O101 Cd102 2.385 . S
O101 C106 1.255 . S
Cd102 O101 2.385 . S
Cd102 O103 2.317 . S
O103 Cd102 2.317 . S
O103 C104 1.232 . S
C104 O103 1.232 . S
C104 O105 1.218 . S
O105 C104 1.218 . S
C106 O99 1.275 . S
C106 O101 1.255 . S
C107 O108 1.258 . S
C107 O109 1.256 . S
O108 Cd100 2.381 . S
O108 C107 1.258 . S
O109 Cd100 2.378 . S
O109 C107 1.256 . S
O110 Cd111 2.300 . S
O110 C117 1.275 1_565 S
Cd111 O110 2.300 . S
Cd111 O119 2.381 . S
Cd111 O120 2.378 . S
O112 Cd113 2.385 . S
O112 C117 1.255 1_565 S
Cd113 O112 2.385 . S
Cd113 O114 2.317 . S
O114 Cd113 2.317 . S
O114 C115 1.232 . S
C115 O114 1.232 . S
C115 O116 1.218 1_565 S
O116 C115 1.218 1_545 S
C117 O110 1.275 1_545 S
C117 O112 1.255 1_545 S
C118 O119 1.258 . S
C118 O120 1.256 . S
O119 Cd111 2.381 . S
O119 C118 1.258 . S
O120 Cd111 2.378 . S
O120 C118 1.256 . S
O121 Cd122 2.300 . S
O121 C128 1.275 . S
Cd122 O121 2.300 . S
Cd122 O130 2.381 . S
Cd122 O131 2.378 . S
O123 Cd124 2.385 . S
O123 C128 1.255 . S
Cd124 O123 2.385 . S
Cd124 O125 2.317 . S
O125 Cd124 2.317 . S
O125 C126 1.232 . S
C126 O125 1.232 . S
C126 O127 1.218 . S
O127 C126 1.218 . S
C128 O121 1.275 . S
C128 O123 1.255 . S
C129 O130 1.258 . S
C129 O131 1.256 . S
O130 Cd122 2.381 . S
O130 C129 1.258 . S
O131 Cd122 2.378 . S
O131 C129 1.256 . S
O132 Cd133 2.300 . S
O132 C139 1.275 . S
Cd133 O132 2.300 . S
Cd133 O141 2.381 . S
Cd133 O142 2.378 . S
O134 Cd135 2.385 . S
O134 C139 1.255 . S
Cd135 O134 2.385 . S
Cd135 O136 2.317 . S
O136 Cd135 2.317 . S
O136 C137 1.232 . S
C137 O136 1.232 . S
C137 O138 1.218 . S
O138 C137 1.218 . S
C139 O132 1.275 . S
C139 O134 1.255 . S
C140 O141 1.258 . S
C140 O142 1.256 . S
O141 Cd133 2.381 . S
O141 C140 1.258 . S
O142 Cd133 2.378 . S
O142 C140 1.256 . S
O143 Cd144 2.300 . S
O143 C150 1.275 . S
Cd144 O143 2.300 . S
Cd144 O152 2.381 . S
Cd144 O153 2.378 . S
O145 Cd146 2.385 . S
O145 C150 1.255 . S
Cd146 O145 2.385 . S
Cd146 O147 2.317 . S
O147 Cd146 2.317 . S
O147 C148 1.232 . S
C148 O147 1.232 . S
C148 O149 1.218 . S
O149 C148 1.218 . S
C150 O143 1.275 . S
C150 O145 1.255 . S
C151 O152 1.258 . S
C151 O153 1.256 . S
O152 Cd144 2.381 . S
O152 C151 1.258 . S
O153 Cd144 2.378 . S
O153 C151 1.256 . S
O154 Cd155 2.295 1_455 S
O154 C161 1.286 . S
Cd155 O154 2.295 1_655 S
Cd155 O163 2.381 . S
Cd155 O164 2.378 . S
O156 Cd157 2.385 . S
O156 C161 1.255 . S
Cd157 O156 2.385 . S
Cd157 O158 2.317 . S
O158 Cd157 2.317 . S
O158 C159 1.232 . S
C159 O158 1.232 . S
C159 O160 1.218 . S
O160 C159 1.218 . S
C161 O154 1.286 . S
C161 O156 1.255 . S
C162 O163 1.258 . S
C162 O164 1.256 . S
O163 Cd155 2.381 . S
O163 C162 1.258 . S
O164 Cd155 2.378 . S
O164 C162 1.256 . S
O165 Cd166 2.300 . S
O165 C172 1.275 . S
Cd166 O165 2.300 . S
Cd166 O174 2.381 . S
Cd166 O175 2.378 . S
O167 Cd168 2.385 . S
O167 C172 1.255 . S
Cd168 O167 2.385 . S
Cd168 O169 2.317 . S
O169 Cd168 2.317 . S
O169 C170 1.232 . S
C170 O169 1.232 . S
C170 O171 1.236 . S
O171 C170 1.236 . S
C172 O165 1.275 . S
C172 O167 1.255 . S
C173 O174 1.258 . S
C173 O175 1.256 . S
O174 Cd166 2.381 . S
O174 C173 1.258 . S
O175 Cd166 2.378 . S
O175 C173 1.256 . S
O176 Cd177 2.300 . S
O176 C183 1.275 . S
Cd177 O176 2.300 . S
Cd177 O185 2.381 . S
Cd177 O186 2.378 . S
O178 Cd179 2.385 . S
O178 C183 1.255 . S
Cd179 O178 2.385 . S
Cd179 O180 2.317 . S
O180 Cd179 2.317 . S
O180 C181 1.232 . S
C181 O180 1.232 . S
C181 O182 1.218 . S
O182 C181 1.218 . S
C183 O176 1.275 . S
C183 O178 1.255 . S
C184 O185 1.258 . S
C184 O186 1.256 . S
O185 Cd177 2.381 . S
O185 C184 1.258 . S
O186 Cd177 2.378 . S
O186 C184 1.256 . S
O187 Cd188 2.300 . S
O187 C194 1.275 . S
Cd188 O187 2.300 . S
Cd188 O196 2.381 . S
Cd188 O197 2.378 . S
O189 Cd190 2.385 . S
O189 C194 1.255 . S
Cd190 O189 2.385 . S
Cd190 O191 2.317 . S
O191 Cd190 2.317 . S
O191 C192 1.232 . S
C192 O191 1.232 . S
C192 O193 1.218 . S
O193 C192 1.218 . S
C194 O187 1.275 . S
C194 O189 1.255 . S
C195 O196 1.258 . S
C195 O197 1.256 . S
O196 Cd188 2.381 . S
O196 C195 1.258 . S
O197 Cd188 2.378 . S
O197 C195 1.256 . S
H198 C204 0.930 1_556 S
H199 C207 0.930 . S
H200 C208 0.930 . S
H201 C209 0.930 . S
H202 C212 0.930 . S
H203 C213 0.930 1_556 S
C204 H198 0.930 1_554 S
C204 C205 1.355 . S
C204 C206 1.415 . S
C205 C204 1.355 . S
C205 C207 1.419 . S
C206 C204 1.415 . S
C206 C211 1.425 . S
C206 C213 1.409 . S
C207 H199 0.930 . S
C207 C205 1.419 . S
C207 C208 1.362 . S
C208 H200 0.930 . S
C208 C207 1.362 . S
C208 C211 1.409 . S
C209 H201 0.930 . S
C209 C210 1.355 . S
C209 C211 1.415 . S
C210 C209 1.355 . S
C210 C212 1.419 . S
C211 C206 1.425 . S
C211 C208 1.409 . S
C211 C209 1.415 . S
C212 H202 0.930 . S
C212 C210 1.419 . S
C212 C213 1.362 . S
C213 H203 0.930 1_554 S
C213 C206 1.409 . S
C213 C212 1.362 . S
H214 C220 0.930 . S
H215 C223 0.930 1_556 S
H216 C224 0.930 1_556 S
H217 C225 0.930 . S
H218 C228 0.930 . S
H219 C229 0.930 . S
C220 H214 0.930 . S
C220 C221 1.355 . S
C220 C222 1.415 . S
C221 C220 1.355 . S
C221 C223 1.419 . S
C222 C220 1.415 . S
C222 C227 1.425 . S
C222 C229 1.409 . S
C223 H215 0.930 1_554 S
C223 C221 1.419 . S
C223 C224 1.362 . S
C224 H216 0.930 1_554 S
C224 C223 1.362 . S
C224 C227 1.409 . S
C225 H217 0.930 . S
C225 C226 1.355 . S
C225 C227 1.415 . S
C226 C225 1.355 . S
C226 C228 1.419 . S
C227 C222 1.425 . S
C227 C224 1.409 . S
C227 C225 1.415 . S
C228 H218 0.930 . S
C228 C226 1.419 . S
C228 C229 1.362 . S
C229 H219 0.930 . S
C229 C222 1.409 . S
C229 C228 1.362 . S
H230 C236 0.930 . S
H231 C239 0.930 . S
H232 C240 0.930 . S
H233 C241 0.930 . S
H234 C244 0.930 . S
H235 C245 0.930 . S
C236 H230 0.930 . S
C236 C237 1.355 . S
C236 C238 1.415 . S
C237 C236 1.355 . S
C237 C239 1.419 . S
C238 C236 1.415 . S
C238 C243 1.425 . S
C238 C245 1.409 . S
C239 H231 0.930 . S
C239 C237 1.419 . S
C239 C240 1.362 . S
C240 H232 0.930 . S
C240 C239 1.362 . S
C240 C243 1.409 . S
C241 H233 0.930 . S
C241 C242 1.355 . S
C241 C243 1.415 . S
C242 C241 1.355 . S
C242 C244 1.419 . S
C243 C238 1.425 . S
C243 C240 1.409 . S
C243 C241 1.415 . S
C244 H234 0.930 . S
C244 C242 1.419 . S
C244 C245 1.362 . S
C245 H235 0.930 . S
C245 C238 1.409 . S
C245 C244 1.362 . S
H246 C252 0.930 . S
H247 C255 0.930 . S
H248 C256 0.930 . S
H249 C257 0.930 . S
H250 C260 0.930 . S
H251 C261 0.930 . S
C252 H246 0.930 . S
C252 C253 1.355 . S
C252 C254 1.415 . S
C253 C252 1.355 . S
C253 C255 1.419 . S
C254 C252 1.415 . S
C254 C259 1.425 . S
C254 C261 1.409 . S
C255 H247 0.930 . S
C255 C253 1.419 . S
C255 C256 1.362 . S
C256 H248 0.930 . S
C256 C255 1.362 . S
C256 C259 1.409 . S
C257 H249 0.930 . S
C257 C258 1.355 . S
C257 C259 1.415 . S
C258 C257 1.355 . S
C258 C260 1.419 . S
C259 C254 1.425 . S
C259 C256 1.409 . S
C259 C257 1.415 . S
C260 H250 0.930 . S
C260 C258 1.419 . S
C260 C261 1.362 . S
C261 H251 0.930 . S
C261 C254 1.409 . S
C261 C260 1.362 . S
H262 C268 0.930 . S
H263 C271 0.930 . S
H264 C272 0.930 . S
H265 C273 0.930 . S
H266 C276 0.930 . S
H267 C277 0.930 . S
C268 H262 0.930 . S
C268 C269 1.355 . S
C268 C270 1.415 . S
C269 C268 1.355 . S
C269 C271 1.419 . S
C270 C268 1.415 . S
C270 C275 1.425 . S
C270 C277 1.409 . S
C271 H263 0.930 . S
C271 C269 1.419 . S
C271 C272 1.362 . S
C272 H264 0.930 . S
C272 C271 1.362 . S
C272 C275 1.409 . S
C273 H265 0.930 . S
C273 C274 1.355 . S
C273 C275 1.415 . S
C274 C273 1.355 . S
C274 C276 1.419 . S
C275 C270 1.425 . S
C275 C272 1.409 . S
C275 C273 1.415 . S
C276 H266 0.930 . S
C276 C274 1.419 . S
C276 C277 1.362 . S
C277 H267 0.930 . S
C277 C270 1.409 . S
C277 C276 1.362 . S
H278 C284 0.930 . S
H279 C287 0.930 . S
H280 C288 0.930 . S
H281 C289 0.930 . S
H282 C292 0.930 . S
H283 C293 0.930 . S
C284 H278 0.930 . S
C284 C285 1.355 . S
C284 C286 1.415 . S
C285 C284 1.355 . S
C285 C287 1.419 . S
C286 C284 1.415 . S
C286 C291 1.425 . S
C286 C293 1.409 . S
C287 H279 0.930 . S
C287 C285 1.419 . S
C287 C288 1.362 . S
C288 H280 0.930 . S
C288 C287 1.362 . S
C288 C291 1.409 . S
C289 H281 0.930 . S
C289 C290 1.355 . S
C289 C291 1.415 . S
C290 C289 1.355 . S
C290 C292 1.419 . S
C291 C286 1.425 . S
C291 C288 1.409 . S
C291 C289 1.415 . S
C292 H282 0.930 . S
C292 C290 1.419 . S
C292 C293 1.362 . S
C293 H283 0.930 . S
C293 C286 1.409 . S
C293 C292 1.362 . S
H294 C300 0.930 . S
H295 C303 0.930 . S
H296 C304 0.930 . S
H297 C305 0.930 . S
H298 C308 0.930 . S
H299 C309 0.930 . S
C300 H294 0.930 . S
C300 C301 1.355 . S
C300 C302 1.415 . S
C301 C300 1.355 . S
C301 C303 1.419 . S
C302 C300 1.415 . S
C302 C307 1.425 . S
C302 C309 1.409 . S
C303 H295 0.930 . S
C303 C301 1.419 . S
C303 C304 1.362 . S
C304 H296 0.930 . S
C304 C303 1.362 . S
C304 C307 1.409 . S
C305 H297 0.930 . S
C305 C306 1.355 . S
C305 C307 1.415 . S
C306 C305 1.355 . S
C306 C308 1.419 . S
C307 C302 1.425 . S
C307 C304 1.409 . S
C307 C305 1.415 . S
C308 H298 0.930 . S
C308 C306 1.419 . S
C308 C309 1.362 . S
C309 H299 0.930 . S
C309 C302 1.409 . S
C309 C308 1.362 . S
H310 C316 0.930 . S
H311 C319 0.930 . S
H312 C320 0.930 . S
H313 C321 0.930 . S
H314 C324 0.930 . S
H315 C325 0.930 . S
C316 H310 0.930 . S
C316 C317 1.355 . S
C316 C318 1.415 . S
C317 C316 1.355 . S
C317 C319 1.419 . S
C318 C316 1.415 . S
C318 C323 1.425 . S
C318 C325 1.409 . S
C319 H311 0.930 . S
C319 C317 1.419 . S
C319 C320 1.362 . S
C320 H312 0.930 . S
C320 C319 1.362 . S
C320 C323 1.409 . S
C321 H313 0.930 . S
C321 C322 1.355 . S
C321 C323 1.415 . S
C322 C321 1.355 . S
C322 C324 1.419 . S
C323 C318 1.425 . S
C323 C320 1.409 . S
C323 C321 1.415 . S
C324 H314 0.930 . S
C324 C322 1.419 . S
C324 C325 1.362 . S
C325 H315 0.930 . S
C325 C318 1.409 . S
C325 C324 1.362 . S
H326 C332 0.930 . S
H327 C335 0.930 . S
H328 C336 0.930 . S
H329 C337 0.930 . S
H330 C340 0.930 . S
H331 C341 0.930 . S
C332 H326 0.930 . S
C332 C333 1.355 . S
C332 C334 1.415 . S
C333 C332 1.355 . S
C333 C335 1.419 . S
C334 C332 1.415 . S
C334 C339 1.425 . S
C334 C341 1.409 . S
C335 H327 0.930 . S
C335 C333 1.419 . S
C335 C336 1.362 . S
C336 H328 0.930 . S
C336 C335 1.362 . S
C336 C339 1.409 . S
C337 H329 0.930 . S
C337 C338 1.355 . S
C337 C339 1.415 . S
C338 C337 1.355 . S
C338 C340 1.419 . S
C339 C334 1.425 . S
C339 C336 1.409 . S
C339 C337 1.415 . S
C340 H330 0.930 . S
C340 C338 1.419 . S
C340 C341 1.362 . S
C341 H331 0.930 . S
C341 C334 1.409 . S
C341 C340 1.362 . S
H342 C348 0.930 . S
H343 C351 0.930 . S
H344 C352 0.930 . S
H345 C353 0.930 . S
H346 C356 0.930 . S
H347 C357 0.930 . S
C348 H342 0.930 . S
C348 C349 1.355 . S
C348 C350 1.415 1_565 S
C349 C348 1.355 . S
C349 C351 1.419 . S
C350 C348 1.415 1_545 S
C350 C355 1.425 . S
C350 C357 1.409 . S
C351 H343 0.930 . S
C351 C349 1.419 . S
C351 C352 1.362 . S
C352 H344 0.930 . S
C352 C351 1.362 . S
C352 C355 1.409 1_565 S
C353 H345 0.930 . S
C353 C354 1.355 . S
C353 C355 1.415 . S
C354 C353 1.355 . S
C354 C356 1.419 . S
C355 C350 1.425 . S
C355 C352 1.409 1_545 S
C355 C353 1.415 . S
C356 H346 0.930 . S
C356 C354 1.419 . S
C356 C357 1.362 . S
C357 H347 0.930 . S
C357 C350 1.409 . S
C357 C356 1.362 . S
H358 C364 0.930 . S
H359 C367 0.930 . S
H360 C368 0.930 . S
H361 C369 0.930 . S
H362 C372 0.930 . S
H363 C373 0.930 . S
C364 H358 0.930 . S
C364 C365 1.355 . S
C364 C366 1.415 . S
C365 C364 1.355 . S
C365 C367 1.419 . S
C366 C364 1.415 . S
C366 C371 1.425 . S
C366 C373 1.409 . S
C367 H359 0.930 . S
C367 C365 1.419 . S
C367 C368 1.362 . S
C368 H360 0.930 . S
C368 C367 1.362 . S
C368 C371 1.409 . S
C369 H361 0.930 . S
C369 C370 1.355 . S
C369 C371 1.415 . S
C370 C369 1.355 . S
C370 C372 1.419 . S
C371 C366 1.425 . S
C371 C368 1.409 . S
C371 C369 1.415 . S
C372 H362 0.930 . S
C372 C370 1.419 . S
C372 C373 1.362 . S
C373 H363 0.930 . S
C373 C366 1.409 . S
C373 C372 1.362 . S
H374 C380 0.930 . S
H375 C383 0.930 . S
H376 C384 0.930 . S
H377 C385 0.930 . S
H378 C388 0.930 . S
H379 C389 0.930 . S
C380 H374 0.930 . S
C380 C381 1.355 . S
C380 C382 1.415 . S
C381 C380 1.355 . S
C381 C383 1.419 . S
C382 C380 1.415 . S
C382 C387 1.425 . S
C382 C389 1.409 . S
C383 H375 0.930 . S
C383 C381 1.419 . S
C383 C384 1.362 . S
C384 H376 0.930 . S
C384 C383 1.362 . S
C384 C387 1.409 . S
C385 H377 0.930 . S
C385 C386 1.355 . S
C385 C387 1.415 . S
C386 C385 1.355 . S
C386 C388 1.419 . S
C387 C382 1.425 . S
C387 C384 1.409 . S
C387 C385 1.415 . S
C388 H378 0.930 . S
C388 C386 1.419 . S
C388 C389 1.362 . S
C389 H379 0.930 . S
C389 C382 1.409 . S
C389 C388 1.362 . S
H390 C396 0.930 . S
H391 C399 0.930 1_554 S
H392 C400 0.930 . S
H393 C401 0.930 . S
H394 C404 0.930 . S
H395 C405 0.930 . S
C396 H390 0.930 . S
C396 C397 1.355 . S
C396 C398 1.415 . S
C397 C396 1.355 . S
C397 C399 1.419 . S
C398 C396 1.415 . S
C398 C403 1.425 . S
C398 C405 1.409 . S
C399 H391 0.930 1_556 S
C399 C397 1.419 . S
C399 C400 1.362 . S
C400 H392 0.930 . S
C400 C399 1.362 . S
C400 C403 1.409 . S
C401 H393 0.930 . S
C401 C402 1.355 . S
C401 C403 1.415 . S
C402 C401 1.355 . S
C402 C404 1.419 . S
C403 C398 1.425 . S
C403 C400 1.409 . S
C403 C401 1.415 . S
C404 H394 0.930 . S
C404 C402 1.419 . S
C404 C405 1.362 . S
C405 H395 0.930 . S
C405 C398 1.409 . S
C405 C404 1.362 . S
H406 C412 0.930 . S
H407 C415 0.930 . S
H408 C416 0.930 . S
H409 C417 0.930 . S
H410 C420 0.934 . S
H411 C421 0.930 . S
C412 H406 0.930 . S
C412 C413 1.355 . S
C412 C414 1.415 . S
C413 C412 1.355 . S
C413 C415 1.419 . S
C414 C412 1.415 . S
C414 C419 1.425 . S
C414 C421 1.409 . S
C415 H407 0.930 . S
C415 C413 1.419 . S
C415 C416 1.362 . S
C416 H408 0.930 . S
C416 C415 1.362 . S
C416 C419 1.409 . S
C417 H409 0.930 . S
C417 C418 1.355 . S
C417 C419 1.415 . S
C418 C417 1.355 . S
C418 C420 1.418 1_556 S
C419 C414 1.425 . S
C419 C416 1.409 . S
C419 C417 1.415 . S
C420 H410 0.934 . S
C420 C418 1.418 1_554 S
C420 C421 1.360 1_554 S
C421 H411 0.930 . S
C421 C414 1.409 . S
C421 C420 1.360 1_556 S
H422 C428 0.930 . S
H423 C431 0.930 . S
H424 C432 0.930 . S
H425 C433 0.930 . S
H426 C436 0.930 . S
H427 C437 0.930 . S
C428 H422 0.930 . S
C428 C429 1.355 1_556 S
C428 C430 1.415 . S
C429 C428 1.355 1_554 S
C429 C431 1.419 . S
C430 C428 1.415 . S
C430 C435 1.425 . S
C430 C437 1.409 . S
C431 H423 0.930 . S
C431 C429 1.419 . S
C431 C432 1.362 1_554 S
C432 H424 0.930 . S
C432 C431 1.362 1_556 S
C432 C435 1.409 . S
C433 H425 0.930 . S
C433 C434 1.355 . S
C433 C435 1.415 . S
C434 C433 1.355 . S
C434 C436 1.419 . S
C435 C430 1.425 . S
C435 C432 1.409 . S
C435 C433 1.415 . S
C436 H426 0.930 . S
C436 C434 1.419 . S
C436 C437 1.362 . S
C437 H427 0.930 . S
C437 C430 1.409 . S
C437 C436 1.362 . S
H438 C444 0.930 . S
H439 C447 0.930 . S
H440 C448 0.930 . S
H441 C449 0.930 . S
H442 C452 0.930 . S
H443 C453 0.930 . S
C444 H438 0.930 . S
C444 C445 1.355 . S
C444 C446 1.415 . S
C445 C444 1.355 . S
C445 C447 1.419 . S
C446 C444 1.415 . S
C446 C451 1.425 . S
C446 C453 1.409 . S
C447 H439 0.930 . S
C447 C445 1.419 . S
C447 C448 1.362 . S
C448 H440 0.930 . S
C448 C447 1.362 . S
C448 C451 1.409 . S
C449 H441 0.930 . S
C449 C450 1.355 . S
C449 C451 1.415 . S
C450 C449 1.355 . S
C450 C452 1.419 . S
C451 C446 1.425 . S
C451 C448 1.409 . S
C451 C449 1.415 . S
C452 H442 0.930 . S
C452 C450 1.419 . S
C452 C453 1.362 . S
C453 H443 0.930 . S
C453 C446 1.409 . S
C453 C452 1.362 . S
H454 C460 0.930 . S
H455 C463 0.930 . S
H456 C464 0.930 1_455 S
H457 C465 0.930 1_455 S
H458 C468 0.930 . S
H459 C469 0.930 . S
C460 H454 0.930 . S
C460 C461 1.355 . S
C460 C462 1.415 . S
C461 C460 1.355 . S
C461 C463 1.419 . S
C462 C460 1.415 . S
C462 C467 1.425 . S
C462 C469 1.409 . S
C463 H455 0.930 . S
C463 C461 1.419 . S
C463 C464 1.362 . S
C464 H456 0.930 1_655 S
C464 C463 1.362 . S
C464 C467 1.409 . S
C465 H457 0.930 1_655 S
C465 C466 1.355 . S
C465 C467 1.415 . S
C466 C465 1.355 . S
C466 C468 1.419 . S
C467 C462 1.425 . S
C467 C464 1.409 . S
C467 C465 1.415 . S
C468 H458 0.930 . S
C468 C466 1.419 . S
C468 C469 1.362 . S
C469 H459 0.930 . S
C469 C462 1.409 . S
C469 C468 1.362 . S
H470 C476 0.930 . S
H471 C479 0.930 . S
H472 C480 0.930 . S
H473 C481 0.930 . S
H474 C484 0.930 . S
H475 C485 0.930 . S
C476 H470 0.930 . S
C476 C477 1.355 . S
C476 C478 1.415 1_554 S
C477 C476 1.355 . S
C477 C479 1.419 1_554 S
C478 C476 1.415 1_556 S
C478 C483 1.425 . S
C478 C485 1.409 . S
C479 H471 0.930 . S
C479 C477 1.419 1_556 S
C479 C480 1.362 . S
C480 H472 0.930 . S
C480 C479 1.362 . S
C480 C483 1.409 . S
C481 H473 0.930 . S
C481 C482 1.355 . S
C481 C483 1.415 . S
C482 C481 1.355 . S
C482 C484 1.419 . S
C483 C478 1.425 . S
C483 C480 1.409 . S
C483 C481 1.415 . S
C484 H474 0.930 . S
C484 C482 1.419 . S
C484 C485 1.362 . S
C485 H475 0.930 . S
C485 C478 1.409 . S
C485 C484 1.362 . S
H486 C492 0.930 . S
H487 C495 0.930 . S
H488 C496 0.930 . S
H489 C497 0.930 . S
H490 C500 0.930 . S
H491 C501 0.930 . S
C492 H486 0.930 . S
C492 C493 1.355 . S
C492 C494 1.415 . S
C493 C492 1.355 . S
C493 C495 1.419 . S
C494 C492 1.415 . S
C494 C499 1.425 . S
C494 C501 1.409 . S
C495 H487 0.930 . S
C495 C493 1.419 . S
C495 C496 1.362 . S
C496 H488 0.930 . S
C496 C495 1.362 . S
C496 C499 1.409 . S
C497 H489 0.930 . S
C497 C498 1.355 . S
C497 C499 1.415 . S
C498 C497 1.355 . S
C498 C500 1.419 . S
C499 C494 1.425 . S
C499 C496 1.409 . S
C499 C497 1.415 . S
C500 H490 0.930 . S
C500 C498 1.419 . S
C500 C501 1.362 . S
C501 H491 0.930 . S
C501 C494 1.409 . S
C501 C500 1.362 . S
H502 C508 0.930 . S
H503 C511 0.930 . S
H504 C512 0.930 . S
H505 C513 0.930 . S
H506 C516 0.930 . S
H507 C517 0.930 . S
C508 H502 0.930 . S
C508 C509 1.355 . S
C508 C510 1.415 . S
C509 C508 1.355 . S
C509 C511 1.419 . S
C510 C508 1.415 . S
C510 C515 1.425 . S
C510 C517 1.409 . S
C511 H503 0.930 . S
C511 C509 1.419 . S
C511 C512 1.362 . S
C512 H504 0.930 . S
C512 C511 1.362 . S
C512 C515 1.409 . S
C513 H505 0.930 . S
C513 C514 1.355 . S
C513 C515 1.415 . S
C514 C513 1.355 . S
C514 C516 1.419 . S
C515 C510 1.425 . S
C515 C512 1.409 . S
C515 C513 1.415 . S
C516 H506 0.930 . S
C516 C514 1.419 . S
C516 C517 1.362 . S
C517 H507 0.930 . S
C517 C510 1.409 . S
C517 C516 1.362 . S
H518 C524 0.930 . S
H519 C527 0.930 . S
H520 C528 0.930 . S
H521 C529 0.930 1_565 S
H522 C532 0.930 . S
H523 C533 0.930 . S
C524 H518 0.930 . S
C524 C525 1.355 . S
C524 C526 1.415 . S
C525 C524 1.355 . S
C525 C527 1.419 . S
C526 C524 1.415 . S
C526 C531 1.425 . S
C526 C533 1.409 . S
C527 H519 0.930 . S
C527 C525 1.419 . S
C527 C528 1.362 . S
C528 H520 0.930 . S
C528 C527 1.362 . S
C528 C531 1.409 . S
C529 H521 0.930 1_545 S
C529 C530 1.355 . S
C529 C531 1.415 . S
C530 C529 1.355 . S
C530 C532 1.419 . S
C531 C526 1.425 . S
C531 C528 1.409 . S
C531 C529 1.415 . S
C532 H522 0.930 . S
C532 C530 1.419 . S
C532 C533 1.362 . S
C533 H523 0.930 . S
C533 C526 1.409 . S
C533 C532 1.362 . S
H534 C540 0.930 . S
H535 C543 0.930 . S
H536 C544 0.930 . S
H537 C545 0.930 . S
H538 C548 0.930 . S
H539 C549 0.930 . S
C540 H534 0.930 . S
C540 C541 1.355 . S
C540 C542 1.415 . S
C541 C540 1.355 . S
C541 C543 1.419 . S
C542 C540 1.415 . S
C542 C547 1.425 . S
C542 C549 1.409 . S
C543 H535 0.930 . S
C543 C541 1.419 . S
C543 C544 1.362 . S
C544 H536 0.930 . S
C544 C543 1.362 . S
C544 C547 1.409 . S
C545 H537 0.930 . S
C545 C546 1.355 . S
C545 C547 1.415 . S
C546 C545 1.355 . S
C546 C548 1.419 . S
C547 C542 1.425 . S
C547 C544 1.409 . S
C547 C545 1.415 . S
C548 H538 0.930 . S
C548 C546 1.419 . S
C548 C549 1.362 . S
C549 H539 0.930 . S
C549 C542 1.409 . S
C549 C548 1.362 . S
H550 C556 0.930 . S
H551 C559 0.930 . S
H552 C560 0.930 . S
H553 C561 0.930 . S
H554 C564 0.930 . S
H555 C565 0.930 . S
C556 H550 0.930 . S
C556 C557 1.355 . S
C556 C558 1.415 . S
C557 C556 1.355 . S
C557 C559 1.419 . S
C558 C556 1.415 . S
C558 C563 1.425 . S
C558 C565 1.409 . S
C559 H551 0.930 . S
C559 C557 1.419 . S
C559 C560 1.362 . S
C560 H552 0.930 . S
C560 C559 1.362 . S
C560 C563 1.409 . S
C561 H553 0.930 . S
C561 C562 1.355 . S
C561 C563 1.415 . S
C562 C561 1.355 . S
C562 C564 1.419 . S
C563 C558 1.425 . S
C563 C560 1.409 . S
C563 C561 1.415 . S
C564 H554 0.930 . S
C564 C562 1.419 . S
C564 C565 1.362 . S
C565 H555 0.930 . S
C565 C558 1.409 . S
C565 C564 1.362 . S
H566 C572 0.930 . S
H567 C575 0.930 . S
H568 C576 0.930 . S
H569 C577 0.930 . S
H570 C580 0.930 . S
H571 C581 0.930 . S
C572 H566 0.930 . S
C572 C573 1.355 . S
C572 C574 1.415 . S
C573 C572 1.355 . S
C573 C575 1.419 . S
C574 C572 1.415 . S
C574 C579 1.425 . S
C574 C581 1.409 . S
C575 H567 0.930 . S
C575 C573 1.419 . S
C575 C576 1.362 . S
C576 H568 0.930 . S
C576 C575 1.362 . S
C576 C579 1.409 . S
C577 H569 0.930 . S
C577 C578 1.355 . S
C577 C579 1.415 . S
C578 C577 1.355 . S
C578 C580 1.419 . S
C579 C574 1.425 . S
C579 C576 1.409 . S
C579 C577 1.415 . S
C580 H570 0.930 . S
C580 C578 1.419 . S
C580 C581 1.362 . S
C581 H571 0.930 . S
C581 C574 1.409 . S
C581 C580 1.362 . S
H582 C588 0.930 . S
H583 C591 0.930 . S
H584 C592 0.930 . S
H585 C593 0.930 . S
H586 C596 0.930 . S
H587 C597 0.930 . S
C588 H582 0.930 . S
C588 C589 1.355 . S
C588 C590 1.415 . S
C589 C588 1.355 . S
C589 C591 1.419 . S
C590 C588 1.415 . S
C590 C595 1.425 . S
C590 C597 1.409 . S
C591 H583 0.930 . S
C591 C589 1.419 . S
C591 C592 1.362 . S
C592 H584 0.930 . S
C592 C591 1.362 . S
C592 C595 1.409 . S
C593 H585 0.930 . S
C593 C594 1.355 . S
C593 C595 1.415 . S
C594 C593 1.355 . S
C594 C596 1.419 . S
C595 C590 1.425 . S
C595 C592 1.409 . S
C595 C593 1.415 . S
C596 H586 0.930 . S
C596 C594 1.419 . S
C596 C597 1.362 . S
C597 H587 0.930 . S
C597 C590 1.409 . S
C597 C596 1.362 . S
H598 C604 0.930 . S
H599 C607 0.930 . S
H600 C608 0.930 1_655 S
H601 C609 0.930 . S
H602 C612 0.930 . S
H603 C613 0.930 . S
C604 H598 0.930 . S
C604 C605 1.355 . S
C604 C606 1.415 . S
C605 C604 1.355 . S
C605 C607 1.419 . S
C606 C604 1.415 . S
C606 C611 1.425 . S
C606 C613 1.409 . S
C607 H599 0.930 . S
C607 C605 1.419 . S
C607 C608 1.362 . S
C608 H600 0.930 1_455 S
C608 C607 1.362 . S
C608 C611 1.409 . S
C609 H601 0.930 . S
C609 C610 1.355 . S
C609 C611 1.415 1_655 S
C610 C609 1.355 . S
C610 C612 1.419 1_655 S
C611 C606 1.425 . S
C611 C608 1.409 . S
C611 C609 1.415 1_455 S
C612 H602 0.930 . S
C612 C610 1.419 1_455 S
C612 C613 1.362 . S
C613 H603 0.930 . S
C613 C606 1.409 . S
C613 C612 1.362 . S
H614 C620 0.930 . S
H615 C623 0.930 . S
H616 C624 0.930 . S
H617 C625 0.930 . S
H618 C628 0.930 . S
H619 C629 0.930 . S
C620 H614 0.930 . S
C620 C621 1.355 . S
C620 C622 1.415 . S
C621 C620 1.355 . S
C621 C623 1.419 . S
C622 C620 1.415 . S
C622 C627 1.425 . S
C622 C629 1.409 . S
C623 H615 0.930 . S
C623 C621 1.419 . S
C623 C624 1.362 . S
C624 H616 0.930 . S
C624 C623 1.362 . S
C624 C627 1.409 . S
C625 H617 0.930 . S
C625 C626 1.355 . S
C625 C627 1.415 . S
C626 C625 1.355 . S
C626 C628 1.419 . S
C627 C622 1.425 . S
C627 C624 1.409 . S
C627 C625 1.415 . S
C628 H618 0.930 . S
C628 C626 1.419 . S
C628 C629 1.362 . S
C629 H619 0.930 . S
C629 C622 1.409 . S
C629 C628 1.362 . S
C205 C41 1.481 . S
C210 C8 1.535 . S
C221 C19 1.560 . S
C226 C52 1.560 . S
C237 C63 1.527 . S
C242 C30 1.526 . S
C253 C107 1.534 . S
C258 C74 1.529 . S
C269 C118 1.563 . S
C274 C85 1.568 . S
C285 C96 1.619 . S
C290 C129 1.619 . S
C301 C173 1.492 . S
C306 C140 1.518 . S
C317 C184 1.689 . S
C322 C151 1.691 . S
C333 C162 1.610 . S
C338 C195 1.616 . S
C349 C95 1.486 . S
C354 C5 1.333 . S
C365 C71 1.341 . S
C370 C18 1.526 . S
C381 C82 1.384 . S
C386 C27 1.395 . S
C397 C16 1.423 . S
C402 C159 1.498 . S
C413 C137 1.373 . S
C418 C29 1.459 1_556 S
C429 C7 1.461 . S
C434 C150 1.486 . S
C445 C192 1.332 . S
C450 C38 1.314 . S
C461 C172 1.507 . S
C466 C49 1.446 . S
C477 C62 1.424 . S
C482 C183 1.438 . S
C493 C128 1.489 . S
C498 C51 1.493 . S
C509 C104 1.283 . S
C514 C60 1.325 . S
C525 C40 1.554 . S
C530 C115 1.366 1_545 S
C541 C73 1.460 . S
C546 C161 1.486 . S
C557 C139 1.455 . S
C562 C84 1.452 . S
C573 C93 1.485 1_545 S
C578 C148 1.429 . S
C589 C117 1.403 . S
C594 C194 1.404 . S
C605 C126 1.374 . S
C610 C170 1.256 . S
C621 C106 1.515 . S
C626 C181 1.388 . S
