# Generated by pormake.
# Topology uoj, (4)-cn, num edge types: 1
# Building blocks:
#     Node 0, Type 0, BuildingBlock: ESEHIV_clean_sbu_0, # of connection points: 4
#     Node 1, Type 0, BuildingBlock: ESEHIV_clean_sbu_0, # of connection points: 4
#     Node 2, Type 0, BuildingBlock: ESEHIV_clean_sbu_0, # of connection points: 4
#     Node 3, Type 0, BuildingBlock: ESEHIV_clean_sbu_0, # of connection points: 4
#     Node 4, Type 0, BuildingBlock: ESEHIV_clean_sbu_0, # of connection points: 4
#     Node 5, Type 0, BuildingBlock: ESEHIV_clean_sbu_0, # of connection points: 4
#     Node 6, Type 0, BuildingBlock: ESEHIV_clean_sbu_0, # of connection points: 4
#     Node 7, Type 0, BuildingBlock: ESEHIV_clean_sbu_0, # of connection points: 4
#     Edge 8, Type (0, 0), BuildingBlock: XUDNAN_clean_linker_2, # of connection points: 2
#     Edge 9, Type (0, 0), BuildingBlock: XUDNAN_clean_linker_2, # of connection points: 2
#     Edge 10, Type (0, 0), BuildingBlock: XUDNAN_clean_linker_2, # of connection points: 2
#     Edge 11, Type (0, 0), BuildingBlock: XUDNAN_clean_linker_2, # of connection points: 2
#     Edge 12, Type (0, 0), BuildingBlock: XUDNAN_clean_linker_2, # of connection points: 2
#     Edge 13, Type (0, 0), BuildingBlock: XUDNAN_clean_linker_2, # of connection points: 2
#     Edge 14, Type (0, 0), BuildingBlock: XUDNAN_clean_linker_2, # of connection points: 2
#     Edge 15, Type (0, 0), BuildingBlock: XUDNAN_clean_linker_2, # of connection points: 2
#     Edge 16, Type (0, 0), BuildingBlock: XUDNAN_clean_linker_2, # of connection points: 2
#     Edge 17, Type (0, 0), BuildingBlock: XUDNAN_clean_linker_2, # of connection points: 2
#     Edge 18, Type (0, 0), BuildingBlock: XUDNAN_clean_linker_2, # of connection points: 2
#     Edge 19, Type (0, 0), BuildingBlock: XUDNAN_clean_linker_2, # of connection points: 2
#     Edge 20, Type (0, 0), BuildingBlock: XUDNAN_clean_linker_2, # of connection points: 2
#     Edge 21, Type (0, 0), BuildingBlock: XUDNAN_clean_linker_2, # of connection points: 2
#     Edge 22, Type (0, 0), BuildingBlock: XUDNAN_clean_linker_2, # of connection points: 2
#     Edge 23, Type (0, 0), BuildingBlock: XUDNAN_clean_linker_2, # of connection points: 2
# Relax obj value: 0.035
# Max RMSD: 0.223
# Mean RMSD: 0.223
data_MOF--net-uoj--node1-ESEHIV_clean_sbu_0--edge1-XUDNAN_clean_linker_2
_symmetry_space_group_name_H-M    P1
_symmetry_Int_Tables_number       1
_symmetry_cell_setting            triclinic
loop_
_symmetry_equiv_pos_as_xyz
'x, y, z'
_cell_length_a     34.627694
_cell_length_b     35.14143
_cell_length_c     45.153914
_cell_angle_alpha  90.442991
_cell_angle_beta   89.889821
_cell_angle_gamma 90.221081
loop_
_atom_site_label
_atom_site_type_symbol
_atom_site_fract_x
_atom_site_fract_y
_atom_site_fract_z
_atom_type_partial_charge
Cu0 Cu 0.04417 0.30482 0.43532 0.0
N1 N 0.99468 0.28575 0.4423 0.0
N2 N 0.9458 0.25091 0.45989 0.0
C3 C 0.98434 0.25282 0.45527 0.0
C4 C 0.93145 0.28372 0.44929 0.0
C5 C 0.96166 0.30509 0.43843 0.0
O6 O 0.08248 0.2721 0.45316 0.0
C7 C 0.07358 0.37916 0.44853 0.0
O8 O 0.10521 0.36787 0.43503 0.0
H9 H 1.00476 0.23151 0.46235 0.0
H10 H 0.95991 0.33334 0.42919 0.0
N11 N 0.0541 0.30568 0.39464 0.0
N12 N 0.07342 0.32494 0.34992 0.0
C13 C 0.06131 0.33586 0.37715 0.0
C14 C 0.06136 0.2748 0.37778 0.0
C15 C 0.07337 0.28656 0.35023 0.0
C16 C 0.08459 0.26488 0.48066 0.0
O17 O 0.06021 0.28117 0.49909 0.0
H18 H 0.05988 0.36513 0.38468 0.0
H19 H 0.0597 0.24577 0.3855 0.0
O20 O 0.04556 0.35601 0.4515 0.0
H21 H 0.90133 0.29185 0.44967 0.0
H22 H 0.08241 0.26833 0.33209 0.0
Cu23 Cu 0.30613 0.98846 0.60889 0.0
N24 N 0.28202 0.03575 0.60507 0.0
N25 N 0.24951 0.08494 0.58642 0.0
C26 C 0.26503 0.05035 0.58088 0.0
C27 C 0.25712 0.09232 0.6152 0.0
C28 C 0.27719 0.06201 0.6266 0.0
O29 O 0.27569 0.94938 0.58922 0.0
C30 C 0.38132 1.01662 0.6004 0.0
O31 O 0.36892 0.04394 0.61797 0.0
H32 H 0.26344 0.03564 0.55981 0.0
H33 H 0.28755 0.05926 0.64905 0.0
N34 N 0.30864 0.97567 0.64882 0.0
N35 N 0.32944 0.95213 0.69174 0.0
C36 C 0.33866 0.96036 0.66339 0.0
C37 C 0.27953 0.97727 0.66852 0.0
C38 C 0.29225 0.96283 0.69503 0.0
C39 C 0.27301 0.94586 0.56125 0.0
O40 O 0.29216 0.96933 0.54408 0.0
H41 H 0.36622 0.95423 0.65311 0.0
H42 H 0.25087 0.98768 0.66375 0.0
O43 O 0.35823 0.98995 0.59303 0.0
H44 H 0.24918 0.11798 0.6271 0.0
H45 H 0.27536 0.96033 0.71512 0.0
Cu46 Cu 1.00372 0.72018 0.42273 0.0
N47 N 0.04719 0.75164 0.42596 0.0
N48 N 0.09602 0.78568 0.44517 0.0
C49 C 0.06677 0.76106 0.45072 0.0
C50 C 0.09465 0.79171 0.41566 0.0
C51 C 0.06452 0.77086 0.40397 0.0
O52 O 0.95958 0.74705 0.43934 0.0
C53 C 0.04274 0.6538 0.43924 0.0
O54 O 0.06996 0.66807 0.42229 0.0
H55 H 0.05903 0.75065 0.4724 0.0
H56 H 0.05557 0.77017 0.38105 0.0
N57 N 0.99551 0.7077 0.38285 0.0
N58 N 0.96733 0.69126 0.34004 0.0
C59 C 0.96183 0.70377 0.36817 0.0
C60 C 1.02308 0.69736 0.36339 0.0
C61 C 1.00587 0.68732 0.33702 0.0
C62 C 0.95703 0.7524 0.4672 0.0
O63 O 0.98368 0.73807 0.48447 0.0
H64 H 0.93389 0.70884 0.3782 0.0
H65 H 0.05365 0.6967 0.36817 0.0
O66 O 1.01198 0.67279 0.44351 0.0
H67 H 0.11394 0.80985 0.40322 0.0
H68 H 1.02068 0.67795 0.31715 0.0
Cu69 Cu 0.73811 0.02172 0.60252 0.0
N70 N 0.76172 0.9741 0.60231 0.0
N71 N 0.79165 0.92278 0.58389 0.0
C72 C 0.77343 0.95567 0.57767 0.0
C73 C 0.79136 0.92051 0.61375 0.0
C74 C 0.7728 0.95222 0.62506 0.0
O75 O 0.76877 0.0524 0.57567 0.0
C76 C 0.66207 0.04217 0.58479 0.0
O77 O 0.67385 0.07734 0.58915 0.0
H78 H 0.76968 0.96694 0.55563 0.0
H79 H 0.76824 0.95912 0.64819 0.0
N80 N 0.73723 0.04305 0.64075 0.0
N81 N 0.71591 0.07376 0.68125 0.0
C82 C 0.70651 0.05857 0.65462 0.0
C83 C 0.7671 0.04821 0.65939 0.0
C84 C 0.75404 0.06706 0.68442 0.0
C85 C 0.77325 0.08833 0.57643 0.0
O86 O 0.75432 0.10874 0.59611 0.0
H87 H 0.6778 0.05891 0.64532 0.0
H88 H 0.79649 0.03967 0.65476 0.0
O89 O 0.68559 1.01488 0.5884 0.0
H90 H 0.80368 0.89765 0.62653 0.0
H91 H 0.77155 0.07639 0.70296 0.0
Cu92 Cu 0.5035 0.79654 0.93214 0.0
N93 N 0.54872 0.76991 0.92321 0.0
N94 N 0.60092 0.73269 0.92588 0.0
C95 C 0.56992 0.74688 0.94053 0.0
C96 C 0.59905 0.74769 0.89847 0.0
C97 C 0.56697 0.77054 0.89693 0.0
O98 O 0.47596 0.77344 0.96509 0.0
C99 C 0.49183 0.87559 0.93959 0.0
O100 O 0.45585 0.86664 0.9334 0.0
H101 H 0.56242 0.74029 0.9632 0.0
H102 H 0.55757 0.78667 0.87798 0.0
N103 N 0.47152 0.79619 0.8988 0.0
N104 N 0.44369 0.81431 0.85656 0.0
C105 C 0.47333 0.81995 0.87555 0.0
C106 C 0.4399 0.77459 0.89427 0.0
C107 C 0.4227 0.78566 0.86826 0.0
C108 C 0.46846 0.73793 0.96576 0.0
O109 O 0.48105 0.71591 0.94419 0.0
H110 H 0.49498 0.84206 0.87337 0.0
H111 H 0.4294 0.75301 0.90922 0.0
O112 O 0.51686 0.84923 0.94125 0.0
H113 H 0.61969 0.74302 0.88081 0.0
H114 H 0.3965 0.77378 0.85891 0.0
Cu115 Cu 0.80978 0.55301 0.09189 0.0
N116 N 0.786 0.50533 0.09373 0.0
N117 N 0.75591 0.45106 0.08143 0.0
C118 C 0.76814 0.4855 0.07199 0.0
C119 C 0.76633 0.44941 0.1102 0.0
C120 C 0.78481 0.48287 0.11768 0.0
O121 O 0.78406 0.58307 0.06192 0.0
C122 C 0.89106 0.56955 0.08605 0.0
O123 O 0.88226 0.60453 0.09392 0.0
H124 H 0.76501 0.4957 0.04959 0.0
H125 H 0.7969 0.49028 0.13904 0.0
N126 N 0.80213 0.57749 0.12834 0.0
N127 N 0.80994 0.60652 0.17227 0.0
C128 C 0.82761 0.58863 0.1493 0.0
C129 C 0.76733 0.58821 0.13851 0.0
C130 C 0.77196 0.60602 0.16548 0.0
C131 C 0.78804 0.57744 0.03424 0.0
O132 O 0.81222 0.55122 0.0249 0.0
H133 H 0.85842 0.58422 0.14753 0.0
H134 H 0.74039 0.58342 0.12695 0.0
O135 O 0.86436 0.54477 0.08344 0.0
H136 H 0.76085 0.42579 0.12487 0.0
H137 H 0.74893 0.61741 0.17908 0.0
Cu138 Cu 0.55588 0.22867 0.92439 0.0
N139 N 0.5076 0.25153 0.93026 0.0
N140 N 0.45915 0.28482 0.95058 0.0
C141 C 0.49435 0.26918 0.95487 0.0
C142 C 0.45 0.27651 0.92221 0.0
C143 C 0.47986 0.25603 0.90978 0.0
O144 O 0.59361 0.25353 0.94992 0.0
C145 C 0.52766 0.15265 0.92454 0.0
O146 O 0.50016 0.16647 0.9078 0.0
H147 H 0.51072 0.27142 0.9752 0.0
H148 H 0.48149 0.24554 0.88724 0.0
N149 N 0.57039 0.23365 0.88467 0.0
N150 N 0.58883 0.22003 0.8383 0.0
C151 C 0.58518 0.20695 0.86626 0.0
C152 C 0.56488 0.26458 0.86786 0.0
C153 C 0.5761 0.25626 0.83928 0.0
C154 C 0.59827 0.28949 0.95066 0.0
O155 O 0.5775 0.31087 0.93311 0.0
H156 H 0.59164 0.17815 0.87292 0.0
H157 H 0.5525 0.29101 0.8757 0.0
O158 O 0.55395 0.17488 0.9342 0.0
H159 H 0.42353 0.28449 0.9112 0.0
H160 H 0.57462 0.27527 0.82057 0.0
Cu161 Cu 0.24333 0.49071 0.10957 0.0
N162 N 0.26893 0.53766 0.11121 0.0
N163 N 0.3032 0.58951 0.09933 0.0
C164 C 0.28748 0.55646 0.08942 0.0
C165 C 0.29423 0.59127 0.12842 0.0
C166 C 0.27324 0.55934 0.13564 0.0
O167 O 0.27537 0.45404 0.08843 0.0
C168 C 0.16989 0.52277 0.10242 0.0
O169 O 0.18361 0.54694 0.12213 0.0
H170 H 0.28915 0.54625 0.0668 0.0
H171 H 0.26206 0.55221 0.15729 0.0
N172 N 0.23866 0.47202 0.14803 0.0
N173 N 0.21465 0.44902 0.19025 0.0
C174 C 0.2066 0.46683 0.16457 0.0
C175 C 0.26779 0.4573 0.16385 0.0
C176 C 0.2531 0.44302 0.18986 0.0
C177 C 0.28214 0.45221 0.06075 0.0
O178 O 0.26525 0.47628 0.04287 0.0
H179 H 0.17785 0.47448 0.15746 0.0
H180 H 0.29754 0.45619 0.15655 0.0
O181 O 0.19167 0.49611 0.09298 0.0
H182 H 0.30283 0.61367 0.14364 0.0
H183 H 0.26935 0.42898 0.20704 0.0
H184 H 0.21775 0.3836 0.22132 0.0
H185 H 0.15095 0.48637 0.2098 0.0
H186 H 0.10646 0.46594 0.24987 0.0
H187 H 0.1364 0.32148 0.23469 0.0
H188 H 0.16185 0.29314 0.26136 0.0
H189 H 0.18808 0.31631 0.23207 0.0
H190 H 0.23192 0.34975 0.27087 0.0
H191 H 0.20581 0.32672 0.30028 0.0
H192 H 0.21019 0.37785 0.29998 0.0
H193 H 0.07155 0.43504 0.29359 0.0
H194 H 0.04612 0.39398 0.33371 0.0
H195 H 0.13443 0.31049 0.31406 0.0
C196 C 0.19383 0.40186 0.22733 0.0
C197 C 0.18788 0.43671 0.21272 0.0
C198 C 0.15585 0.45952 0.22074 0.0
C199 C 0.13061 0.4482 0.24351 0.0
C200 C 0.13755 0.41373 0.25768 0.0
C201 C 0.16814 0.39071 0.24958 0.0
C202 C 0.16897 0.35464 0.26765 0.0
C203 C 0.16349 0.31931 0.24775 0.0
C204 C 0.20644 0.35212 0.28577 0.0
C205 C 0.13429 0.36101 0.28746 0.0
C206 C 0.11666 0.39538 0.28163 0.0
C207 C 0.08491 0.40791 0.29807 0.0
C208 C 0.07075 0.38456 0.32085 0.0
C209 C 0.088 0.34893 0.32667 0.0
C210 C 0.12016 0.33721 0.30968 0.0
H211 H 0.3058 0.90743 0.73721 0.0
H212 H 0.4077 0.95579 0.6958 0.0
H213 H 0.44875 0.92505 0.73342 0.0
H214 H 0.3373 0.91837 0.81246 0.0
H215 H 0.31601 0.87414 0.82432 0.0
H216 H 0.29507 0.89977 0.79397 0.0
H217 H 0.30129 0.83987 0.76046 0.0
H218 H 0.32236 0.81409 0.79068 0.0
H219 H 0.34779 0.81764 0.75593 0.0
H220 H 0.47843 0.88979 0.77665 0.0
H221 H 0.49423 0.85164 0.82079 0.0
H222 H 0.37249 0.82695 0.8334 0.0
C223 C 0.3367 0.91187 0.73615 0.0
C224 C 0.35351 0.93417 0.71358 0.0
C225 C 0.3942 0.93859 0.71272 0.0
C226 C 0.41772 0.92138 0.73407 0.0
C227 C 0.40012 0.89967 0.75605 0.0
C228 C 0.36053 0.89478 0.75714 0.0
C229 C 0.34868 0.8699 0.78284 0.0
C230 C 0.32274 0.89187 0.80469 0.0
C231 C 0.32887 0.8332 0.7718 0.0
C232 C 0.38778 0.86165 0.79619 0.0
C233 C 0.41712 0.87911 0.78052 0.0
C234 C 0.45565 0.87595 0.78904 0.0
C235 C 0.46434 0.85438 0.81422 0.0
C236 C 0.43467 0.83611 0.83053 0.0
C237 C 0.39594 0.83994 0.82121 0.0
H238 H 0.97233 0.63997 0.29465 0.0
H239 H 0.89672 0.72395 0.33492 0.0
H240 H 0.84796 0.7111 0.29617 0.0
H241 H 0.95047 0.66145 0.21896 0.0
H242 H 0.9522 0.61256 0.20668 0.0
H243 H 0.98088 0.62792 0.23781 0.0
H244 H 0.94954 0.57572 0.27029 0.0
H245 H 0.92084 0.56013 0.23923 0.0
H246 H 0.89768 0.57344 0.27354 0.0
H247 H 0.80841 0.69045 0.25226 0.0
H248 H 0.77959 0.66212 0.20751 0.0
H249 H 0.88055 0.59042 0.1962 0.0
C250 C 0.94566 0.65588 0.29525 0.0
C251 C 0.93843 0.68313 0.31785 0.0
C252 C 0.90277 0.70274 0.31806 0.0
C253 C 0.87501 0.69578 0.29603 0.0
C254 C 0.88325 0.66897 0.27401 0.0
C255 C 0.91761 0.64917 0.27353 0.0
C256 C 0.91917 0.62159 0.24755 0.0
C257 C 0.95267 0.63149 0.22651 0.0
C258 C 0.92196 0.58027 0.2583 0.0
C259 C 0.8804 0.6292 0.23332 0.0
C260 C 0.86019 0.65664 0.24894 0.0
C261 C 0.82384 0.6687 0.24 0.0
C262 C 0.80758 0.65216 0.21455 0.0
C263 C 0.82748 0.62361 0.19824 0.0
C264 C 0.86454 0.61224 0.20788 0.0
H265 H 0.64633 0.16746 0.83416 0.0
H266 H 0.55908 0.22611 0.78334 0.0
H267 H 0.58083 0.19291 0.73795 0.0
H268 H 0.72017 0.17245 0.7789 0.0
H269 H 0.73993 0.12617 0.78648 0.0
H270 H 0.71607 0.15261 0.81548 0.0
H271 H 0.6695 0.09595 0.82431 0.0
H272 H 0.6933 0.06928 0.79538 0.0
H273 H 0.64191 0.0769 0.79376 0.0
H274 H 0.61237 0.15457 0.69802 0.0
H275 H 0.65365 0.11558 0.66544 0.0
H276 H 0.72216 0.08223 0.74129 0.0
C277 C 0.63159 0.17284 0.8135 0.0
C278 C 0.60097 0.19932 0.81223 0.0
C279 C 0.58276 0.20619 0.78473 0.0
C280 C 0.59478 0.18731 0.75888 0.0
C281 C 0.62528 0.16174 0.76078 0.0
C282 C 0.64362 0.15455 0.78731 0.0
C283 C 0.67688 0.12703 0.78281 0.0
C284 C 0.71555 0.14569 0.79143 0.0
C285 C 0.66997 0.0901 0.80009 0.0
C286 C 0.67443 0.12013 0.74962 0.0
C287 C 0.64417 0.14017 0.73747 0.0
C288 C 0.63606 0.13861 0.70729 0.0
C289 C 0.6596 0.11614 0.68896 0.0
C290 C 0.69115 0.09562 0.70072 0.0
C291 C 0.69847 0.09772 0.73155 0.0
H292 H 0.1936 0.13668 0.59967 0.0
H293 H 0.2589 0.08777 0.52674 0.0
H294 H 0.22415 0.129 0.49177 0.0
H295 H 0.10363 0.14466 0.56089 0.0
H296 H 0.09064 0.18914 0.5783 0.0
H297 H 0.12086 0.15594 0.59758 0.0
H298 H 0.17306 0.20829 0.60444 0.0
H299 H 0.14301 0.24166 0.58515 0.0
H300 H 0.19155 0.23278 0.57243 0.0
H301 H 0.18274 0.176 0.46481 0.0
H302 H 0.13629 0.22392 0.4475 0.0
H303 H 0.09766 0.24225 0.53805 0.0
C304 C 0.20085 0.13484 0.57639 0.0
C305 C 0.22908 0.10895 0.56598 0.0
C306 C 0.23716 0.10703 0.53523 0.0
C307 C 0.21772 0.13051 0.51521 0.0
C308 C 0.19015 0.15572 0.52625 0.0
C309 C 0.1816 0.15794 0.5561 0.0
C310 C 0.1503 0.18704 0.56216 0.0
C311 C 0.11422 0.16805 0.57552 0.0
C312 C 0.1654 0.21936 0.58223 0.0
C313 C 0.14267 0.20096 0.53105 0.0
C314 C 0.16604 0.18258 0.51069 0.0
C315 C 0.16428 0.19056 0.48056 0.0
C316 C 0.13779 0.2179 0.47096 0.0
C317 C 0.11326 0.23694 0.49139 0.0
C318 C 0.11597 0.22829 0.52185 0.0
H319 H 0.24519 0.94142 0.50444 0.0
H320 H 0.24265 0.88357 0.58901 0.0
H321 H 0.19862 0.83498 0.568 0.0
H322 H 0.14547 0.92729 0.48778 0.0
H323 H 0.15318 0.92058 0.4486 0.0
H324 H 0.18614 0.94959 0.46984 0.0
H325 H 0.24335 0.90796 0.45187 0.0
H326 H 0.21053 0.87881 0.43058 0.0
H327 H 0.24177 0.85725 0.45752 0.0
H328 H 0.15429 0.79299 0.53781 0.0
H329 H 0.11143 0.76201 0.5014 0.0
H330 H 0.14058 0.84932 0.43738 0.0
C331 C 0.2357 0.91832 0.51846 0.0
C332 C 0.24755 0.91616 0.54832 0.0
C333 C 0.23398 0.88579 0.56606 0.0
C334 C 0.20904 0.858 0.55431 0.0
C335 C 0.19771 0.86111 0.52484 0.0
C336 C 0.21046 0.89058 0.50719 0.0
C337 C 0.19268 0.88824 0.4766 0.0
C338 C 0.1679 0.92351 0.47035 0.0
C339 C 0.22395 0.88273 0.45274 0.0
C340 C 0.16794 0.85287 0.47983 0.0
C341 C 0.17141 0.83751 0.50773 0.0
C342 C 0.15122 0.80487 0.5159 0.0
C343 C 0.12667 0.78758 0.49503 0.0
C344 C 0.12217 0.80308 0.46631 0.0
C345 C 0.14339 0.8362 0.45883 0.0
H346 H 0.85273 0.87556 0.59325 0.0
H347 H 0.77053 0.91106 0.52662 0.0
H348 H 0.80236 0.86941 0.48983 0.0
H349 H 0.93451 0.87245 0.54619 0.0
H350 H 0.95534 0.83101 0.56306 0.0
H351 H 0.92491 0.86215 0.58457 0.0
H352 H 0.88053 0.80522 0.59786 0.0
H353 H 0.91091 0.77385 0.57643 0.0
H354 H 0.85997 0.77647 0.5686 0.0
H355 H 0.84499 0.82587 0.4596 0.0
H356 H 0.89506 0.78364 0.43846 0.0
H357 H 0.94878 0.77583 0.52499 0.0
C358 C 0.84099 0.87413 0.57108 0.0
C359 C 0.80909 0.89676 0.56288 0.0
C360 C 0.79518 0.89446 0.5334 0.0
C361 C 0.81293 0.87066 0.51236 0.0
C362 C 0.84456 0.84914 0.52109 0.0
C363 C 0.85841 0.85055 0.54977 0.0
C364 C 0.89363 0.8255 0.55318 0.0
C365 C 0.92919 0.8492 0.56228 0.0
C366 C 0.88578 0.79335 0.57533 0.0
C367 C 0.89765 0.8101 0.52188 0.0
C368 C 0.86899 0.82396 0.50372 0.0
C369 C 0.86742 0.81462 0.47367 0.0
C370 C 0.89602 0.79064 0.46184 0.0
C371 C 0.92582 0.77626 0.48003 0.0
C372 C 0.92628 0.78604 0.51049 0.0
H373 H 0.78238 0.16455 0.56418 0.0
H374 H 0.82868 0.05286 0.5432 0.0
H375 H 0.87786 0.08239 0.51112 0.0
H376 H 0.79535 0.20358 0.49069 0.0
H377 H 0.80815 0.25035 0.50418 0.0
H378 H 0.77651 0.22045 0.52563 0.0
H379 H 0.8224 0.22705 0.57067 0.0
H380 H 0.85421 0.2569 0.54934 0.0
H381 H 0.87259 0.21455 0.56653 0.0
H382 H 0.92397 0.1242 0.48294 0.0
H383 H 0.96071 0.17534 0.45794 0.0
H384 H 0.88307 0.25936 0.49552 0.0
C385 C 0.80281 0.1463 0.55278 0.0
C386 C 0.80168 0.10638 0.5563 0.0
C387 C 0.82883 0.0835 0.54083 0.0
C388 C 0.85699 0.10001 0.5226 0.0
C389 C 0.85747 0.13943 0.51975 0.0
C390 C 0.83087 0.16228 0.53417 0.0
C391 C 0.83741 0.20386 0.52696 0.0
C392 C 0.80227 0.22053 0.51091 0.0
C393 C 0.84724 0.22694 0.55505 0.0
C394 C 0.87198 0.20079 0.50645 0.0
C395 C 0.88328 0.1634 0.50275 0.0
C396 C 0.91523 0.15357 0.4855 0.0
C397 C 0.93603 0.18274 0.47152 0.0
C398 C 0.92457 0.22119 0.47461 0.0
C399 C 0.8921 0.23016 0.49235 0.0
H400 H 0.34608 0.57722 0.04926 0.0
H401 H 0.31057 0.66493 0.1117 0.0
H402 H 0.34997 0.71197 0.08493 0.0
H403 H 0.44363 0.60965 0.03998 0.0
H404 H 0.44557 0.59869 1.00095 0.0
H405 H 0.41441 0.57162 0.02492 0.0
H406 H 0.35566 0.5878 0.99195 0.0
H407 H 0.38668 0.61474 0.96778 0.0
H408 H 0.34489 0.63689 0.98426 0.0
H409 H 0.39338 0.74973 0.05157 0.0
H410 H 0.4367 0.77574 1.01318 0.0
H411 H 0.44372 0.6639 0.97196 0.0
C412 C 0.34626 0.60636 0.05716 0.0
C413 C 0.32528 0.61718 0.0828 0.0
C414 C 0.32679 0.65566 0.09249 0.0
C415 C 0.34897 0.68271 0.07731 0.0
C416 C 0.36955 0.67101 0.05238 0.0
C417 C 0.36833 0.63381 0.04227 0.0
C418 C 0.39324 0.62876 1.01486 0.0
C419 C 0.42616 0.60051 0.02053 0.0
C420 C 0.36864 0.61632 0.98813 0.0
C421 C 0.40856 0.66895 1.01116 0.0
C422 C 0.39457 0.69284 0.03307 0.0
C423 C 0.40453 0.73129 0.03428 0.0
C424 C 0.42921 0.7458 1.01238 0.0
C425 C 0.44371 0.72193 0.98953 0.0
C426 C 0.43327 0.68294 0.98913 0.0
H427 H 0.73309 0.63185 0.04643 0.0
H428 H 0.78746 0.57046 0.97377 0.0
H429 H 0.74519 0.60343 0.93836 0.0
H430 H 0.63698 0.62967 0.01737 0.0
H431 H 0.62493 0.67685 0.03021 0.0
H432 H 0.65997 0.64911 0.04995 0.0
H433 H 0.71034 0.70331 0.04441 0.0
H434 H 0.67538 0.73131 0.0248 0.0
H435 H 0.72154 0.72116 1.00805 0.0
H436 H 0.69624 0.64194 0.91093 0.0
H437 H 0.64515 0.68445 0.89309 0.0
H438 H 0.62285 0.72179 0.98338 0.0
C439 C 0.7363 0.62545 0.02306 0.0
C440 C 0.76373 0.59853 1.01291 0.0
C441 C 0.7668 0.59097 0.98213 0.0
C442 C 0.74285 0.60953 0.96182 0.0
C443 C 0.71596 0.63562 0.9726 0.0
C444 C 0.71263 0.64373 1.00247 0.0
C445 C 0.68121 0.67287 1.00822 0.0
C446 C 0.64886 0.65611 0.02758 0.0
C447 C 0.69814 0.70933 0.02219 0.0
C448 C 0.66733 0.67981 0.97691 0.0
C449 C 0.68779 0.65801 0.95674 0.0
C450 C 0.68021 0.65934 0.92651 0.0
C451 C 0.65119 0.68382 0.91657 0.0
C452 C 0.62998 0.70686 0.93672 0.0
C453 C 0.63819 0.70447 0.96736 0.0
H454 H 0.70821 0.46016 0.03402 0.0
H455 H 0.76026 0.37494 0.09018 0.0
H456 H 0.72665 0.32435 0.06211 0.0
H457 H 0.61608 0.41482 0.02732 0.0
H458 H 0.60917 0.42783 0.98917 0.0
H459 H 0.63826 0.45744 1.01308 0.0
H460 H 0.69561 0.45179 0.97641 0.0
H461 H 0.66667 0.42218 0.95234 0.0
H462 H 0.7126 0.40532 0.96549 0.0
H463 H 0.68692 0.28293 0.02844 0.0
H464 H 0.64267 0.25357 0.99202 0.0
H465 H 0.61598 0.36549 0.9576 0.0
C466 C 0.71286 0.43085 0.04019 0.0
C467 C 0.73685 0.42158 0.0644 0.0
C468 C 0.74167 0.38283 0.07202 0.0
C469 C 0.72289 0.35384 0.05607 0.0
C470 C 0.69928 0.36395 0.03251 0.0
C471 C 0.69414 0.40149 0.02457 0.0
C472 C 0.66637 0.40462 0.99877 0.0
C473 C 0.63033 0.42753 1.00763 0.0
C474 C 0.68653 0.422 0.97165 0.0
C475 C 0.65663 0.36299 0.99356 0.0
C476 C 0.67609 0.34002 1.01318 0.0
C477 C 0.67157 0.30061 1.01291 0.0
C478 C 0.64636 0.28419 0.99211 0.0
C479 C 0.6258 0.30715 0.97189 0.0
C480 C 0.63126 0.34709 0.97268 0.0
H481 H 0.40668 0.34026 0.93846 0.0
H482 H 0.45951 0.27831 1.01048 0.0
H483 H 0.41978 0.31433 0.04643 0.0
H484 H 0.40105 0.43069 0.97633 0.0
H485 H 0.35519 0.44311 0.96034 0.0
H486 H 0.38782 0.41248 0.9403 0.0
H487 H 0.3342 0.36113 0.93601 0.0
H488 H 0.30141 0.39157 0.95606 0.0
H489 H 0.31081 0.34416 0.9691 0.0
H490 H 0.37337 0.35617 0.07446 0.0
H491 H 0.32546 0.40236 0.09286 0.0
H492 H 0.30285 0.43775 1.00261 0.0
C493 C 0.40974 0.33404 0.96176 0.0
C494 C 0.43626 0.30628 0.97161 0.0
C495 C 0.43975 0.2996 1.00239 0.0
C496 C 0.41713 0.31979 0.02297 0.0
C497 C 0.39121 0.34678 1.01248 0.0
C498 C 0.38753 0.35409 0.98261 0.0
C499 C 0.35783 0.3849 0.97719 0.0
C500 C 0.3766 0.41986 0.96269 0.0
C501 C 0.32406 0.3695 0.95848 0.0
C502 C 0.34518 0.39362 1.00868 0.0
C503 C 0.36475 0.37123 0.02866 0.0
C504 C 0.35793 0.3739 0.05901 0.0
C505 C 0.33055 0.40025 0.06924 0.0
C506 C 0.31026 0.42381 0.04923 0.0
C507 C 0.31779 0.42025 0.01851 0.0
H508 H 0.09825 0.60135 0.42514 0.0
H509 H 0.99345 0.61628 0.47677 0.0
H510 H 0.99464 0.54817 0.48982 0.0
H511 H 0.07289 0.51501 0.39372 0.0
H512 H 0.1206 0.4947 0.39432 0.0
H513 H 0.11489 0.54547 0.39271 0.0
H514 H 0.15666 0.55349 0.43994 0.0
H515 H 0.16263 0.50261 0.44164 0.0
H516 H 0.14351 0.52826 0.4731 0.0
H517 H 1.00274 0.47741 0.49221 0.0
H518 H 1.01703 0.40945 0.48377 0.0
H519 H 0.11671 0.44054 0.43066 0.0
C520 C 0.07607 0.59058 0.43982 0.0
C521 C 0.04585 0.61424 0.45007 0.0
C522 C 1.01698 0.59877 0.46875 0.0
C523 C 1.01748 0.56012 0.47636 0.0
C524 C 0.04715 0.53738 0.46525 0.0
C525 C 0.07607 0.55208 0.44752 0.0
C526 C 0.10275 0.52102 0.43634 0.0
C527 C 0.10275 0.51894 0.40227 0.0
C528 C 0.14382 0.52669 0.44849 0.0
C529 C 0.08359 0.48636 0.44974 0.0
C530 C 0.05185 0.49647 0.46664 0.0
C531 C 0.02789 0.46921 0.47945 0.0
C532 C 0.0362 0.43066 0.47446 0.0
C533 C 0.06815 0.41966 0.45673 0.0
C534 C 0.09252 0.448 0.44476 0.0
H535 H 0.60032 0.08712 0.59896 0.0
H536 H 0.63048 0.97772 0.56044 0.0
H537 H 0.56116 0.96135 0.5563 0.0
H538 H 0.52581 0.05253 0.64383 0.0
H539 H 0.49514 0.09351 0.64001 0.0
H540 H 0.54665 0.09858 0.63643 0.0
H541 H 0.53799 0.12841 0.58456 0.0
H542 H 0.48635 0.12357 0.58802 0.0
H543 H 0.51097 0.10296 0.5566 0.0
H544 H 0.48872 0.95536 0.55932 0.0
H545 H 0.41913 0.95905 0.57109 0.0
H546 H 0.43673 0.07142 0.60949 0.0
C547 C 0.59231 0.06011 0.58897 0.0
C548 C 0.62072 0.03386 0.57964 0.0
C549 C 0.60913 0.99833 0.56753 0.0
C550 C 0.56985 0.98884 0.56503 0.0
C551 C 0.54255 1.01509 0.57494 0.0
C552 C 0.55328 0.04998 0.58673 0.0
C553 C 0.51853 0.07175 0.59806 0.0
C554 C 0.52174 0.07953 0.63157 0.0
C555 C 0.51315 0.10887 0.58077 0.0
C556 C 0.48662 0.04346 0.5912 0.0
C557 C 0.50098 1.01116 0.57752 0.0
C558 C 0.47712 0.98062 0.56984 0.0
C559 C 0.4376 0.983 0.57661 0.0
C560 C 0.42242 1.01552 0.5912 0.0
C561 C 0.44736 0.04621 0.59825 0.0
H562 H 0.47201 0.09883 0.9126 0.0
H563 H 0.58583 0.11293 0.95138 0.0
H564 H 0.58849 0.04383 0.96087 0.0
H565 H 0.43814 0.0266 0.96353 0.0
H566 H 0.41167 1.00087 0.93542 0.0
H567 H 0.41852 0.05151 0.93225 0.0
H568 H 0.44924 0.04187 0.88035 0.0
H569 H 0.4425 0.99123 0.88337 0.0
H570 H 0.48992 1.0104 0.87618 0.0
H571 H 0.57991 0.97233 0.96386 0.0
H572 H 0.55969 0.90475 0.96169 0.0
H573 H 0.45071 0.93811 0.92252 0.0
C574 C 0.49745 0.08747 0.92321 0.0
C575 C 0.52874 0.11138 0.93122 0.0
C576 C 0.56145 0.09527 0.9451 0.0
C577 C 0.56325 0.05601 0.95056 0.0
C578 C 0.53199 0.03325 0.94223 0.0
C579 C 0.49961 0.04844 0.92903 0.0
C580 C 0.47002 1.01782 0.92202 0.0
C581 C 0.43237 0.02461 0.93935 0.0
C582 C 0.4625 1.01518 0.88849 0.0
C583 C 0.49095 0.98295 0.93309 0.0
C584 C 0.5267 0.99238 0.9446 0.0
C585 C 0.55182 0.96468 0.95515 0.0
C586 C 0.54011 0.92637 0.9538 0.0
C587 C 0.5035 0.91612 0.94219 0.0
C588 C 0.47865 0.94498 0.93191 0.0
H589 H 0.11781 0.57856 0.11674 0.0
H590 H 0.12848 0.47189 0.06834 0.0
H591 H 0.05873 0.47381 0.05672 0.0
H592 H 0.02713 0.5595 0.14938 0.0
H593 H 1.00961 0.60755 0.14641 0.0
H594 H 0.06065 0.59889 0.14938 0.0
H595 H 0.07261 0.63594 0.10079 0.0
H596 H 1.02157 0.64482 0.0977 0.0
H597 H 0.0471 0.62207 0.06763 0.0
H598 H 0.98667 0.48514 0.05365 0.0
H599 H 0.91881 0.5062 0.05759 0.0
H600 H 0.95582 0.60645 0.10672 0.0
C601 C 0.10566 0.55576 0.1034 0.0
C602 C 0.12873 0.52504 0.09343 0.0
C603 C 0.1115 0.49578 0.07614 0.0
C604 C 0.07187 0.49661 0.06945 0.0
C605 C 0.0499 0.52706 0.08001 0.0
C606 C 0.06627 0.55626 0.09641 0.0
C607 C 0.03622 0.58525 0.10578 0.0
C608 C 0.03324 0.58793 0.13975 0.0
C609 C 0.0449 0.62433 0.09215 0.0
C610 C 1.00021 0.56756 0.09244 0.0
C611 C 1.00869 0.53399 0.07768 0.0
C612 C 0.97981 0.51162 0.06484 0.0
C613 C 0.94133 0.52377 0.06725 0.0
C614 C 0.932 0.55814 0.08222 0.0
C615 C 0.96202 0.58038 0.0947 0.0
loop_
_geom_bond_atom_site_label_1
_geom_bond_atom_site_label_2
_geom_bond_distance
_geom_bond_site_symmetry_2
_ccdc_geom_bond_type
Cu0 N1 2.000 . S
Cu0 O6 1.974 . S
Cu0 N11 1.985 . S
Cu0 O20 1.959 . S
N1 Cu0 2.000 . S
N1 C3 1.263 . S
N1 C5 1.388 1_455 S
N2 C3 1.358 1_655 S
N2 C4 1.400 . S
C3 N1 1.263 . S
C3 N2 1.358 1_455 S
C3 H9 0.930 . S
C4 N2 1.400 . S
C4 C5 1.351 . S
C4 H21 0.930 . S
C5 N1 1.388 1_655 S
C5 C4 1.351 . S
C5 H10 0.930 . S
O6 Cu0 1.974 . S
O6 C16 1.282 . S
C7 O8 1.261 . S
C7 O20 1.251 . S
O8 C7 1.261 . S
H9 C3 0.930 . S
H10 C5 0.930 . S
N11 Cu0 1.985 . S
N11 C13 1.335 . S
N11 C14 1.390 . S
N12 C13 1.345 . S
N12 C15 1.336 . S
C13 N11 1.335 . S
C13 N12 1.345 . S
C13 H18 0.930 . S
C14 N11 1.390 . S
C14 C15 1.346 . S
C14 H19 0.930 . S
C15 N12 1.336 . S
C15 C14 1.346 . S
C15 H22 0.929 . S
C16 O6 1.282 . S
C16 O17 1.216 . S
O17 C16 1.216 . S
H18 C13 0.930 . S
H19 C14 0.930 . S
O20 Cu0 1.959 . S
O20 C7 1.251 . S
H21 C4 0.930 . S
H22 C15 0.929 . S
Cu23 N24 2.000 . S
Cu23 O29 1.974 . S
Cu23 N34 1.985 . S
Cu23 O43 1.959 . S
N24 Cu23 2.000 . S
N24 C26 1.263 . S
N24 C28 1.388 1_565 S
N25 C26 1.358 1_545 S
N25 C27 1.400 . S
C26 N24 1.263 . S
C26 N25 1.358 1_565 S
C26 H32 0.930 . S
C27 N25 1.400 . S
C27 C28 1.351 . S
C27 H44 0.930 . S
C28 N24 1.388 1_545 S
C28 C27 1.351 . S
C28 H33 0.930 . S
O29 Cu23 1.974 . S
O29 C39 1.282 . S
C30 O31 1.261 . S
C30 O43 1.251 . S
O31 C30 1.261 . S
H32 C26 0.930 . S
H33 C28 0.930 . S
N34 Cu23 1.985 . S
N34 C36 1.335 . S
N34 C37 1.390 . S
N35 C36 1.345 . S
N35 C38 1.336 . S
C36 N34 1.335 . S
C36 N35 1.345 . S
C36 H41 0.930 . S
C37 N34 1.390 . S
C37 C38 1.346 . S
C37 H42 0.930 . S
C38 N35 1.336 . S
C38 C37 1.346 . S
C38 H45 0.929 . S
C39 O29 1.282 . S
C39 O40 1.216 . S
O40 C39 1.216 . S
H41 C36 0.930 . S
H42 C37 0.930 . S
O43 Cu23 1.959 . S
O43 C30 1.251 . S
H44 C27 0.930 . S
H45 C38 0.929 . S
Cu46 N47 2.000 . S
Cu46 O52 1.974 . S
Cu46 N57 1.985 . S
Cu46 O66 1.959 . S
N47 Cu46 2.000 . S
N47 C49 1.263 . S
N47 C51 1.388 1_655 S
N48 C49 1.358 1_455 S
N48 C50 1.400 . S
C49 N47 1.263 . S
C49 N48 1.358 1_655 S
C49 H55 0.930 . S
C50 N48 1.400 . S
C50 C51 1.351 . S
C50 H67 0.930 . S
C51 N47 1.388 1_455 S
C51 C50 1.351 . S
C51 H56 0.930 . S
O52 Cu46 1.974 . S
O52 C62 1.282 . S
C53 O54 1.261 . S
C53 O66 1.251 . S
O54 C53 1.261 . S
H55 C49 0.930 . S
H56 C51 0.930 . S
N57 Cu46 1.985 . S
N57 C59 1.335 . S
N57 C60 1.390 . S
N58 C59 1.345 . S
N58 C61 1.336 . S
C59 N57 1.335 . S
C59 N58 1.345 . S
C59 H64 0.930 . S
C60 N57 1.390 . S
C60 C61 1.346 . S
C60 H65 0.930 . S
C61 N58 1.336 . S
C61 C60 1.346 . S
C61 H68 0.929 . S
C62 O52 1.282 . S
C62 O63 1.216 . S
O63 C62 1.216 . S
H64 C59 0.930 . S
H65 C60 0.930 . S
O66 Cu46 1.959 . S
O66 C53 1.251 . S
H67 C50 0.930 . S
H68 C61 0.929 . S
Cu69 N70 2.000 . S
Cu69 O75 1.974 . S
Cu69 N80 1.985 . S
Cu69 O89 1.959 . S
N70 Cu69 2.000 . S
N70 C72 1.263 . S
N70 C74 1.388 1_545 S
N71 C72 1.358 1_565 S
N71 C73 1.400 . S
C72 N70 1.263 . S
C72 N71 1.358 1_545 S
C72 H78 0.930 . S
C73 N71 1.400 . S
C73 C74 1.351 . S
C73 H90 0.930 . S
C74 N70 1.388 1_565 S
C74 C73 1.351 . S
C74 H79 0.930 . S
O75 Cu69 1.974 . S
O75 C85 1.282 . S
C76 O77 1.261 . S
C76 O89 1.251 . S
O77 C76 1.261 . S
H78 C72 0.930 . S
H79 C74 0.930 . S
N80 Cu69 1.985 . S
N80 C82 1.335 . S
N80 C83 1.390 . S
N81 C82 1.345 . S
N81 C84 1.336 . S
C82 N80 1.335 . S
C82 N81 1.345 . S
C82 H87 0.930 . S
C83 N80 1.390 . S
C83 C84 1.346 . S
C83 H88 0.930 . S
C84 N81 1.336 . S
C84 C83 1.346 . S
C84 H91 0.929 . S
C85 O75 1.282 . S
C85 O86 1.216 . S
O86 C85 1.216 . S
H87 C82 0.930 . S
H88 C83 0.930 . S
O89 Cu69 1.959 . S
O89 C76 1.251 . S
H90 C73 0.930 . S
H91 C84 0.929 . S
Cu92 N93 1.999 . S
Cu92 O98 1.974 . S
Cu92 N103 1.985 . S
Cu92 O112 1.959 . S
N93 Cu92 1.999 . S
N93 C95 1.263 . S
N93 C97 1.389 . S
N94 C95 1.358 . S
N94 C96 1.400 . S
C95 N93 1.263 . S
C95 N94 1.358 . S
C95 H101 0.930 . S
C96 N94 1.400 . S
C96 C97 1.351 . S
C96 H113 0.930 . S
C97 N93 1.389 . S
C97 C96 1.351 . S
C97 H102 0.930 . S
O98 Cu92 1.974 . S
O98 C108 1.282 . S
C99 O100 1.261 . S
C99 O112 1.251 . S
O100 C99 1.261 . S
H101 C95 0.930 . S
H102 C97 0.930 . S
N103 Cu92 1.985 . S
N103 C105 1.335 . S
N103 C106 1.390 . S
N104 C105 1.345 . S
N104 C107 1.336 . S
C105 N103 1.335 . S
C105 N104 1.345 . S
C105 H110 0.930 . S
C106 N103 1.390 . S
C106 C107 1.346 . S
C106 H111 0.930 . S
C107 N104 1.336 . S
C107 C106 1.346 . S
C107 H114 0.929 . S
C108 O98 1.282 . S
C108 O109 1.216 . S
O109 C108 1.216 . S
H110 C105 0.930 . S
H111 C106 0.930 . S
O112 Cu92 1.959 . S
O112 C99 1.251 . S
H113 C96 0.930 . S
H114 C107 0.929 . S
Cu115 N116 1.999 . S
Cu115 O121 1.974 . S
Cu115 N126 1.985 . S
Cu115 O135 1.959 . S
N116 Cu115 1.999 . S
N116 C118 1.263 . S
N116 C120 1.389 . S
N117 C118 1.358 . S
N117 C119 1.400 . S
C118 N116 1.263 . S
C118 N117 1.358 . S
C118 H124 0.930 . S
C119 N117 1.400 . S
C119 C120 1.351 . S
C119 H136 0.930 . S
C120 N116 1.389 . S
C120 C119 1.351 . S
C120 H125 0.930 . S
O121 Cu115 1.974 . S
O121 C131 1.282 . S
C122 O123 1.261 . S
C122 O135 1.251 . S
O123 C122 1.261 . S
H124 C118 0.930 . S
H125 C120 0.930 . S
N126 Cu115 1.985 . S
N126 C128 1.335 . S
N126 C129 1.390 . S
N127 C128 1.345 . S
N127 C130 1.336 . S
C128 N126 1.335 . S
C128 N127 1.345 . S
C128 H133 0.930 . S
C129 N126 1.390 . S
C129 C130 1.346 . S
C129 H134 0.930 . S
C130 N127 1.336 . S
C130 C129 1.346 . S
C130 H137 0.929 . S
C131 O121 1.282 . S
C131 O132 1.216 . S
O132 C131 1.216 . S
H133 C128 0.930 . S
H134 C129 0.930 . S
O135 Cu115 1.959 . S
O135 C122 1.251 . S
H136 C119 0.930 . S
H137 C130 0.929 . S
Cu138 N139 1.999 . S
Cu138 O144 1.974 . S
Cu138 N149 1.985 . S
Cu138 O158 1.959 . S
N139 Cu138 1.999 . S
N139 C141 1.263 . S
N139 C143 1.389 . S
N140 C141 1.358 . S
N140 C142 1.400 . S
C141 N139 1.263 . S
C141 N140 1.358 . S
C141 H147 0.930 . S
C142 N140 1.400 . S
C142 C143 1.351 . S
C142 H159 0.930 . S
C143 N139 1.389 . S
C143 C142 1.351 . S
C143 H148 0.930 . S
O144 Cu138 1.974 . S
O144 C154 1.282 . S
C145 O146 1.261 . S
C145 O158 1.251 . S
O146 C145 1.261 . S
H147 C141 0.930 . S
H148 C143 0.930 . S
N149 Cu138 1.985 . S
N149 C151 1.335 . S
N149 C152 1.390 . S
N150 C151 1.345 . S
N150 C153 1.336 . S
C151 N149 1.335 . S
C151 N150 1.345 . S
C151 H156 0.930 . S
C152 N149 1.390 . S
C152 C153 1.346 . S
C152 H157 0.930 . S
C153 N150 1.336 . S
C153 C152 1.346 . S
C153 H160 0.929 . S
C154 O144 1.282 . S
C154 O155 1.216 . S
O155 C154 1.216 . S
H156 C151 0.930 . S
H157 C152 0.930 . S
O158 Cu138 1.959 . S
O158 C145 1.251 . S
H159 C142 0.930 . S
H160 C153 0.929 . S
Cu161 N162 1.999 . S
Cu161 O167 1.974 . S
Cu161 N172 1.985 . S
Cu161 O181 1.959 . S
N162 Cu161 1.999 . S
N162 C164 1.263 . S
N162 C166 1.389 . S
N163 C164 1.358 . S
N163 C165 1.400 . S
C164 N162 1.263 . S
C164 N163 1.358 . S
C164 H170 0.930 . S
C165 N163 1.400 . S
C165 C166 1.351 . S
C165 H182 0.930 . S
C166 N162 1.389 . S
C166 C165 1.351 . S
C166 H171 0.930 . S
O167 Cu161 1.974 . S
O167 C177 1.282 . S
C168 O169 1.261 . S
C168 O181 1.251 . S
O169 C168 1.261 . S
H170 C164 0.930 . S
H171 C166 0.930 . S
N172 Cu161 1.985 . S
N172 C174 1.335 . S
N172 C175 1.390 . S
N173 C174 1.345 . S
N173 C176 1.336 . S
C174 N172 1.335 . S
C174 N173 1.345 . S
C174 H179 0.930 . S
C175 N172 1.390 . S
C175 C176 1.346 . S
C175 H180 0.930 . S
C176 N173 1.336 . S
C176 C175 1.346 . S
C176 H183 0.929 . S
C177 O167 1.282 . S
C177 O178 1.216 . S
O178 C177 1.216 . S
H179 C174 0.930 . S
H180 C175 0.930 . S
O181 Cu161 1.959 . S
O181 C168 1.251 . S
H182 C165 0.930 . S
H183 C176 0.929 . S
H184 C196 0.930 . S
H185 C198 0.930 . S
H186 C199 0.930 . S
H187 C203 0.959 . S
H188 C203 0.959 . S
H189 C203 0.961 . S
H190 C204 0.960 . S
H191 C204 0.961 . S
H192 C204 0.959 . S
H193 C207 0.929 . S
H194 C208 0.931 . S
H195 C210 0.930 . S
C196 H184 0.930 . S
C196 C197 1.399 . S
C196 C201 1.399 . S
C197 C196 1.399 . S
C197 C198 1.376 . S
C198 H185 0.930 . S
C198 C197 1.376 . S
C198 C199 1.388 . S
C199 H186 0.930 . S
C199 C198 1.388 . S
C199 C200 1.390 . S
C200 C199 1.390 . S
C200 C201 1.394 . S
C200 C206 1.465 . S
C201 C196 1.399 . S
C201 C200 1.394 . S
C201 C202 1.516 . S
C202 C201 1.516 . S
C202 C203 1.502 . S
C202 C204 1.561 . S
C202 C205 1.526 . S
C203 H187 0.959 . S
C203 H188 0.959 . S
C203 H189 0.961 . S
C203 C202 1.502 . S
C204 H190 0.960 . S
C204 H191 0.961 . S
C204 H192 0.959 . S
C204 C202 1.561 . S
C205 C202 1.526 . S
C205 C206 1.396 . S
C205 C210 1.390 . S
C206 C200 1.465 . S
C206 C205 1.396 . S
C206 C207 1.399 . S
C207 H193 0.929 . S
C207 C206 1.399 . S
C207 C208 1.385 . S
C208 H194 0.931 . S
C208 C207 1.385 . S
C208 C209 1.389 . S
C209 C208 1.389 . S
C209 C210 1.387 . S
C210 H195 0.930 . S
C210 C205 1.390 . S
C210 C209 1.387 . S
H211 C223 0.930 . S
H212 C225 0.930 . S
H213 C226 0.930 . S
H214 C230 0.959 . S
H215 C230 0.959 . S
H216 C230 0.961 . S
H217 C231 0.960 . S
H218 C231 0.961 . S
H219 C231 0.959 . S
H220 C234 0.929 . S
H221 C235 0.931 . S
H222 C237 0.930 . S
C223 H211 0.930 . S
C223 C224 1.399 . S
C223 C228 1.399 . S
C224 C223 1.399 . S
C224 C225 1.376 . S
C225 H212 0.930 . S
C225 C224 1.376 . S
C225 C226 1.388 . S
C226 H213 0.930 . S
C226 C225 1.388 . S
C226 C227 1.390 . S
C227 C226 1.390 . S
C227 C228 1.394 . S
C227 C233 1.465 . S
C228 C223 1.399 . S
C228 C227 1.394 . S
C228 C229 1.516 . S
C229 C228 1.516 . S
C229 C230 1.502 . S
C229 C231 1.561 . S
C229 C232 1.526 . S
C230 H214 0.959 . S
C230 H215 0.959 . S
C230 H216 0.961 . S
C230 C229 1.502 . S
C231 H217 0.960 . S
C231 H218 0.961 . S
C231 H219 0.959 . S
C231 C229 1.561 . S
C232 C229 1.526 . S
C232 C233 1.396 . S
C232 C237 1.390 . S
C233 C227 1.465 . S
C233 C232 1.396 . S
C233 C234 1.399 . S
C234 H220 0.929 . S
C234 C233 1.399 . S
C234 C235 1.385 . S
C235 H221 0.931 . S
C235 C234 1.385 . S
C235 C236 1.389 . S
C236 C235 1.389 . S
C236 C237 1.387 . S
C237 H222 0.930 . S
C237 C232 1.390 . S
C237 C236 1.387 . S
H238 C250 0.930 . S
H239 C252 0.930 . S
H240 C253 0.930 . S
H241 C257 0.959 . S
H242 C257 0.959 . S
H243 C257 0.961 . S
H244 C258 0.960 . S
H245 C258 0.961 . S
H246 C258 0.959 . S
H247 C261 0.929 . S
H248 C262 0.931 . S
H249 C264 0.930 . S
C250 H238 0.930 . S
C250 C251 1.399 . S
C250 C255 1.399 . S
C251 C250 1.399 . S
C251 C252 1.376 . S
C252 H239 0.930 . S
C252 C251 1.376 . S
C252 C253 1.388 . S
C253 H240 0.930 . S
C253 C252 1.388 . S
C253 C254 1.390 . S
C254 C253 1.390 . S
C254 C255 1.394 . S
C254 C260 1.465 . S
C255 C250 1.399 . S
C255 C254 1.394 . S
C255 C256 1.516 . S
C256 C255 1.516 . S
C256 C257 1.502 . S
C256 C258 1.561 . S
C256 C259 1.526 . S
C257 H241 0.959 . S
C257 H242 0.959 . S
C257 H243 0.961 . S
C257 C256 1.502 . S
C258 H244 0.960 . S
C258 H245 0.961 . S
C258 H246 0.959 . S
C258 C256 1.561 . S
C259 C256 1.526 . S
C259 C260 1.396 . S
C259 C264 1.390 . S
C260 C254 1.465 . S
C260 C259 1.396 . S
C260 C261 1.399 . S
C261 H247 0.929 . S
C261 C260 1.399 . S
C261 C262 1.385 . S
C262 H248 0.931 . S
C262 C261 1.385 . S
C262 C263 1.389 . S
C263 C262 1.389 . S
C263 C264 1.387 . S
C264 H249 0.930 . S
C264 C259 1.390 . S
C264 C263 1.387 . S
H265 C277 0.930 . S
H266 C279 0.930 . S
H267 C280 0.930 . S
H268 C284 0.959 . S
H269 C284 0.959 . S
H270 C284 0.961 . S
H271 C285 0.960 . S
H272 C285 0.961 . S
H273 C285 0.959 . S
H274 C288 0.929 . S
H275 C289 0.931 . S
H276 C291 0.930 . S
C277 H265 0.930 . S
C277 C278 1.399 . S
C277 C282 1.399 . S
C278 C277 1.399 . S
C278 C279 1.376 . S
C279 H266 0.930 . S
C279 C278 1.376 . S
C279 C280 1.388 . S
C280 H267 0.930 . S
C280 C279 1.388 . S
C280 C281 1.390 . S
C281 C280 1.390 . S
C281 C282 1.394 . S
C281 C287 1.465 . S
C282 C277 1.399 . S
C282 C281 1.394 . S
C282 C283 1.516 . S
C283 C282 1.516 . S
C283 C284 1.502 . S
C283 C285 1.561 . S
C283 C286 1.526 . S
C284 H268 0.959 . S
C284 H269 0.959 . S
C284 H270 0.961 . S
C284 C283 1.502 . S
C285 H271 0.960 . S
C285 H272 0.961 . S
C285 H273 0.959 . S
C285 C283 1.561 . S
C286 C283 1.526 . S
C286 C287 1.396 . S
C286 C291 1.390 . S
C287 C281 1.465 . S
C287 C286 1.396 . S
C287 C288 1.399 . S
C288 H274 0.929 . S
C288 C287 1.399 . S
C288 C289 1.385 . S
C289 H275 0.931 . S
C289 C288 1.385 . S
C289 C290 1.389 . S
C290 C289 1.389 . S
C290 C291 1.387 . S
C291 H276 0.930 . S
C291 C286 1.390 . S
C291 C290 1.387 . S
H292 C304 0.930 . S
H293 C306 0.930 . S
H294 C307 0.930 . S
H295 C311 0.959 . S
H296 C311 0.959 . S
H297 C311 0.961 . S
H298 C312 0.960 . S
H299 C312 0.961 . S
H300 C312 0.959 . S
H301 C315 0.929 . S
H302 C316 0.931 . S
H303 C318 0.930 . S
C304 H292 0.930 . S
C304 C305 1.399 . S
C304 C309 1.399 . S
C305 C304 1.399 . S
C305 C306 1.376 . S
C306 H293 0.930 . S
C306 C305 1.376 . S
C306 C307 1.388 . S
C307 H294 0.930 . S
C307 C306 1.388 . S
C307 C308 1.390 . S
C308 C307 1.390 . S
C308 C309 1.394 . S
C308 C314 1.465 . S
C309 C304 1.399 . S
C309 C308 1.394 . S
C309 C310 1.516 . S
C310 C309 1.516 . S
C310 C311 1.502 . S
C310 C312 1.561 . S
C310 C313 1.526 . S
C311 H295 0.959 . S
C311 H296 0.959 . S
C311 H297 0.961 . S
C311 C310 1.502 . S
C312 H298 0.960 . S
C312 H299 0.961 . S
C312 H300 0.959 . S
C312 C310 1.561 . S
C313 C310 1.526 . S
C313 C314 1.396 . S
C313 C318 1.390 . S
C314 C308 1.465 . S
C314 C313 1.396 . S
C314 C315 1.399 . S
C315 H301 0.929 . S
C315 C314 1.399 . S
C315 C316 1.385 . S
C316 H302 0.931 . S
C316 C315 1.385 . S
C316 C317 1.389 . S
C317 C316 1.389 . S
C317 C318 1.387 . S
C318 H303 0.930 . S
C318 C313 1.390 . S
C318 C317 1.387 . S
H319 C331 0.930 . S
H320 C333 0.930 . S
H321 C334 0.930 . S
H322 C338 0.959 . S
H323 C338 0.959 . S
H324 C338 0.961 . S
H325 C339 0.960 . S
H326 C339 0.961 . S
H327 C339 0.959 . S
H328 C342 0.929 . S
H329 C343 0.931 . S
H330 C345 0.930 . S
C331 H319 0.930 . S
C331 C332 1.399 . S
C331 C336 1.399 . S
C332 C331 1.399 . S
C332 C333 1.376 . S
C333 H320 0.930 . S
C333 C332 1.376 . S
C333 C334 1.388 . S
C334 H321 0.930 . S
C334 C333 1.388 . S
C334 C335 1.390 . S
C335 C334 1.390 . S
C335 C336 1.394 . S
C335 C341 1.465 . S
C336 C331 1.399 . S
C336 C335 1.394 . S
C336 C337 1.516 . S
C337 C336 1.516 . S
C337 C338 1.502 . S
C337 C339 1.561 . S
C337 C340 1.526 . S
C338 H322 0.959 . S
C338 H323 0.959 . S
C338 H324 0.961 . S
C338 C337 1.502 . S
C339 H325 0.960 . S
C339 H326 0.961 . S
C339 H327 0.959 . S
C339 C337 1.561 . S
C340 C337 1.526 . S
C340 C341 1.396 . S
C340 C345 1.390 . S
C341 C335 1.465 . S
C341 C340 1.396 . S
C341 C342 1.399 . S
C342 H328 0.929 . S
C342 C341 1.399 . S
C342 C343 1.385 . S
C343 H329 0.931 . S
C343 C342 1.385 . S
C343 C344 1.389 . S
C344 C343 1.389 . S
C344 C345 1.387 . S
C345 H330 0.930 . S
C345 C340 1.390 . S
C345 C344 1.387 . S
H346 C358 0.930 . S
H347 C360 0.930 . S
H348 C361 0.930 . S
H349 C365 0.959 . S
H350 C365 0.959 . S
H351 C365 0.961 . S
H352 C366 0.960 . S
H353 C366 0.961 . S
H354 C366 0.959 . S
H355 C369 0.929 . S
H356 C370 0.931 . S
H357 C372 0.930 . S
C358 H346 0.930 . S
C358 C359 1.399 . S
C358 C363 1.399 . S
C359 C358 1.399 . S
C359 C360 1.376 . S
C360 H347 0.930 . S
C360 C359 1.376 . S
C360 C361 1.388 . S
C361 H348 0.930 . S
C361 C360 1.388 . S
C361 C362 1.390 . S
C362 C361 1.390 . S
C362 C363 1.394 . S
C362 C368 1.465 . S
C363 C358 1.399 . S
C363 C362 1.394 . S
C363 C364 1.516 . S
C364 C363 1.516 . S
C364 C365 1.502 . S
C364 C366 1.561 . S
C364 C367 1.526 . S
C365 H349 0.959 . S
C365 H350 0.959 . S
C365 H351 0.961 . S
C365 C364 1.502 . S
C366 H352 0.960 . S
C366 H353 0.961 . S
C366 H354 0.959 . S
C366 C364 1.561 . S
C367 C364 1.526 . S
C367 C368 1.396 . S
C367 C372 1.390 . S
C368 C362 1.465 . S
C368 C367 1.396 . S
C368 C369 1.399 . S
C369 H355 0.929 . S
C369 C368 1.399 . S
C369 C370 1.385 . S
C370 H356 0.931 . S
C370 C369 1.385 . S
C370 C371 1.389 . S
C371 C370 1.389 . S
C371 C372 1.387 . S
C372 H357 0.930 . S
C372 C367 1.390 . S
C372 C371 1.387 . S
H373 C385 0.930 . S
H374 C387 0.930 . S
H375 C388 0.930 . S
H376 C392 0.959 . S
H377 C392 0.959 . S
H378 C392 0.961 . S
H379 C393 0.960 . S
H380 C393 0.961 . S
H381 C393 0.959 . S
H382 C396 0.929 . S
H383 C397 0.931 . S
H384 C399 0.930 . S
C385 H373 0.930 . S
C385 C386 1.399 . S
C385 C390 1.399 . S
C386 C385 1.399 . S
C386 C387 1.376 . S
C387 H374 0.930 . S
C387 C386 1.376 . S
C387 C388 1.388 . S
C388 H375 0.930 . S
C388 C387 1.388 . S
C388 C389 1.390 . S
C389 C388 1.390 . S
C389 C390 1.394 . S
C389 C395 1.465 . S
C390 C385 1.399 . S
C390 C389 1.394 . S
C390 C391 1.516 . S
C391 C390 1.516 . S
C391 C392 1.502 . S
C391 C393 1.561 . S
C391 C394 1.526 . S
C392 H376 0.959 . S
C392 H377 0.959 . S
C392 H378 0.961 . S
C392 C391 1.502 . S
C393 H379 0.960 . S
C393 H380 0.961 . S
C393 H381 0.959 . S
C393 C391 1.561 . S
C394 C391 1.526 . S
C394 C395 1.396 . S
C394 C399 1.390 . S
C395 C389 1.465 . S
C395 C394 1.396 . S
C395 C396 1.399 . S
C396 H382 0.929 . S
C396 C395 1.399 . S
C396 C397 1.385 . S
C397 H383 0.931 . S
C397 C396 1.385 . S
C397 C398 1.389 . S
C398 C397 1.389 . S
C398 C399 1.387 . S
C399 H384 0.930 . S
C399 C394 1.390 . S
C399 C398 1.387 . S
H400 C412 0.930 . S
H401 C414 0.930 . S
H402 C415 0.930 . S
H403 C419 0.959 . S
H404 C419 0.959 . S
H405 C419 0.961 . S
H406 C420 0.960 . S
H407 C420 0.961 . S
H408 C420 0.959 . S
H409 C423 0.929 1_554 S
H410 C424 0.931 . S
H411 C426 0.930 . S
C412 H400 0.930 . S
C412 C413 1.399 1_556 S
C412 C417 1.399 . S
C413 C412 1.399 1_554 S
C413 C414 1.376 . S
C414 H401 0.930 . S
C414 C413 1.376 . S
C414 C415 1.388 . S
C415 H402 0.930 . S
C415 C414 1.388 . S
C415 C416 1.390 1_554 S
C416 C415 1.390 1_556 S
C416 C417 1.394 . S
C416 C422 1.465 . S
C417 C412 1.399 . S
C417 C416 1.394 . S
C417 C418 1.516 . S
C418 C417 1.516 . S
C418 C419 1.502 . S
C418 C420 1.561 . S
C418 C421 1.526 . S
C419 H403 0.959 . S
C419 H404 0.959 . S
C419 H405 0.961 . S
C419 C418 1.502 . S
C420 H406 0.960 . S
C420 H407 0.961 . S
C420 H408 0.959 . S
C420 C418 1.561 . S
C421 C418 1.526 . S
C421 C422 1.396 . S
C421 C426 1.390 . S
C422 C416 1.465 . S
C422 C421 1.396 . S
C422 C423 1.399 . S
C423 H409 0.929 1_556 S
C423 C422 1.399 . S
C423 C424 1.385 . S
C424 H410 0.931 . S
C424 C423 1.385 . S
C424 C425 1.389 . S
C425 C424 1.389 . S
C425 C426 1.387 . S
C426 H411 0.930 . S
C426 C421 1.390 . S
C426 C425 1.387 . S
H427 C439 0.930 . S
H428 C441 0.930 . S
H429 C442 0.930 1_556 S
H430 C446 0.959 . S
H431 C446 0.959 . S
H432 C446 0.961 . S
H433 C447 0.960 . S
H434 C447 0.961 . S
H435 C447 0.959 . S
H436 C450 0.929 . S
H437 C451 0.931 . S
H438 C453 0.930 . S
C439 H427 0.930 . S
C439 C440 1.399 . S
C439 C444 1.399 . S
C440 C439 1.399 . S
C440 C441 1.376 . S
C441 H428 0.930 . S
C441 C440 1.376 . S
C441 C442 1.388 . S
C442 H429 0.930 1_554 S
C442 C441 1.388 . S
C442 C443 1.390 . S
C443 C442 1.390 . S
C443 C444 1.394 . S
C443 C449 1.465 . S
C444 C439 1.399 . S
C444 C443 1.394 . S
C444 C445 1.516 . S
C445 C444 1.516 . S
C445 C446 1.502 . S
C445 C447 1.561 . S
C445 C448 1.526 . S
C446 H430 0.959 . S
C446 H431 0.959 . S
C446 H432 0.961 . S
C446 C445 1.502 . S
C447 H433 0.960 . S
C447 H434 0.961 . S
C447 H435 0.959 . S
C447 C445 1.561 . S
C448 C445 1.526 . S
C448 C449 1.396 . S
C448 C453 1.390 . S
C449 C443 1.465 . S
C449 C448 1.396 . S
C449 C450 1.399 1_554 S
C450 H436 0.929 . S
C450 C449 1.399 1_556 S
C450 C451 1.385 . S
C451 H437 0.931 . S
C451 C450 1.385 . S
C451 C452 1.389 . S
C452 C451 1.389 . S
C452 C453 1.387 1_556 S
C453 H438 0.930 . S
C453 C448 1.390 . S
C453 C452 1.387 1_554 S
H454 C466 0.930 . S
H455 C468 0.930 . S
H456 C469 0.930 . S
H457 C473 0.959 . S
H458 C473 0.959 . S
H459 C473 0.961 . S
H460 C474 0.960 . S
H461 C474 0.961 . S
H462 C474 0.959 . S
H463 C477 0.929 1_554 S
H464 C478 0.931 . S
H465 C480 0.930 . S
C466 H454 0.930 . S
C466 C467 1.399 1_556 S
C466 C471 1.399 . S
C467 C466 1.399 1_554 S
C467 C468 1.376 . S
C468 H455 0.930 . S
C468 C467 1.376 . S
C468 C469 1.388 . S
C469 H456 0.930 . S
C469 C468 1.388 . S
C469 C470 1.390 1_554 S
C470 C469 1.390 1_556 S
C470 C471 1.394 . S
C470 C476 1.465 . S
C471 C466 1.399 . S
C471 C470 1.394 . S
C471 C472 1.516 . S
C472 C471 1.516 . S
C472 C473 1.502 . S
C472 C474 1.561 . S
C472 C475 1.526 . S
C473 H457 0.959 . S
C473 H458 0.959 . S
C473 H459 0.961 . S
C473 C472 1.502 . S
C474 H460 0.960 . S
C474 H461 0.961 . S
C474 H462 0.959 . S
C474 C472 1.561 . S
C475 C472 1.526 . S
C475 C476 1.396 . S
C475 C480 1.390 . S
C476 C470 1.465 . S
C476 C475 1.396 . S
C476 C477 1.399 . S
C477 H463 0.929 1_556 S
C477 C476 1.399 . S
C477 C478 1.385 . S
C478 H464 0.931 . S
C478 C477 1.385 . S
C478 C479 1.389 . S
C479 C478 1.389 . S
C479 C480 1.387 . S
C480 H465 0.930 . S
C480 C475 1.390 . S
C480 C479 1.387 . S
H481 C493 0.930 . S
H482 C495 0.930 . S
H483 C496 0.930 . S
H484 C500 0.959 . S
H485 C500 0.959 . S
H486 C500 0.961 . S
H487 C501 0.960 . S
H488 C501 0.961 . S
H489 C501 0.959 . S
H490 C504 0.929 . S
H491 C505 0.931 . S
H492 C507 0.930 . S
C493 H481 0.930 . S
C493 C494 1.399 . S
C493 C498 1.383 1_556 S
C494 C493 1.399 . S
C494 C495 1.376 1_556 S
C495 H482 0.930 . S
C495 C494 1.376 1_554 S
C495 C496 1.388 . S
C496 H483 0.930 . S
C496 C495 1.388 . S
C496 C497 1.390 . S
C497 C496 1.390 . S
C497 C498 1.423 . S
C497 C503 1.465 . S
C498 C493 1.383 1_554 S
C498 C497 1.423 . S
C498 C499 1.507 1_554 S
C499 C498 1.507 1_556 S
C499 C500 1.502 . S
C499 C501 1.561 . S
C499 C502 1.526 1_556 S
C500 H484 0.959 . S
C500 H485 0.959 . S
C500 H486 0.961 . S
C500 C499 1.502 . S
C501 H487 0.960 . S
C501 H488 0.961 . S
C501 H489 0.959 . S
C501 C499 1.561 . S
C502 C499 1.526 1_554 S
C502 C503 1.396 . S
C502 C507 1.390 . S
C503 C497 1.465 . S
C503 C502 1.396 . S
C503 C504 1.399 . S
C504 H490 0.929 . S
C504 C503 1.399 . S
C504 C505 1.385 . S
C505 H491 0.931 . S
C505 C504 1.385 . S
C505 C506 1.389 . S
C506 C505 1.389 . S
C506 C507 1.387 . S
C507 H492 0.930 . S
C507 C502 1.390 . S
C507 C506 1.387 . S
H508 C520 0.930 . S
H509 C522 0.930 . S
H510 C523 0.930 . S
H511 C527 0.959 . S
H512 C527 0.959 . S
H513 C527 0.961 . S
H514 C528 0.960 . S
H515 C528 0.961 . S
H516 C528 0.959 . S
H517 C531 0.929 . S
H518 C532 0.931 . S
H519 C534 0.922 1_655 S
C520 H508 0.930 . S
C520 C521 1.399 . S
C520 C525 1.399 . S
C521 C520 1.399 . S
C521 C522 1.376 1_655 S
C522 H509 0.930 . S
C522 C521 1.376 1_455 S
C522 C523 1.388 . S
C523 H510 0.930 . S
C523 C522 1.388 . S
C523 C524 1.390 . S
C524 C523 1.390 . S
C524 C525 1.394 1_455 S
C524 C530 1.465 . S
C525 C520 1.399 . S
C525 C524 1.394 1_655 S
C525 C526 1.516 . S
C526 C525 1.516 . S
C526 C527 1.502 . S
C526 C528 1.561 1_655 S
C526 C529 1.524 1_655 S
C527 H511 0.959 . S
C527 H512 0.959 . S
C527 H513 0.961 . S
C527 C526 1.502 . S
C528 H514 0.960 . S
C528 H515 0.961 . S
C528 H516 0.959 . S
C528 C526 1.561 1_455 S
C529 C526 1.524 1_455 S
C529 C530 1.398 . S
C529 C534 1.389 . S
C530 C524 1.465 . S
C530 C529 1.398 . S
C530 C531 1.399 . S
C531 H517 0.929 . S
C531 C530 1.399 . S
C531 C532 1.385 . S
C532 H518 0.931 . S
C532 C531 1.385 . S
C532 C533 1.389 . S
C533 C532 1.389 . S
C533 C534 1.395 . S
C534 H519 0.922 1_455 S
C534 C529 1.389 . S
C534 C533 1.395 . S
H535 C547 0.930 . S
H536 C549 0.930 . S
H537 C550 0.930 . S
H538 C554 0.959 . S
H539 C554 0.959 . S
H540 C554 0.961 . S
H541 C555 0.960 . S
H542 C555 0.961 . S
H543 C555 0.959 . S
H544 C558 0.929 . S
H545 C559 0.931 . S
H546 C561 0.930 1_545 S
C547 H535 0.930 . S
C547 C548 1.399 . S
C547 C552 1.399 . S
C548 C547 1.399 . S
C548 C549 1.376 1_545 S
C549 H536 0.930 . S
C549 C548 1.376 1_565 S
C549 C550 1.388 . S
C550 H537 0.930 . S
C550 C549 1.388 . S
C550 C551 1.390 . S
C551 C550 1.390 . S
C551 C552 1.394 1_565 S
C551 C557 1.465 . S
C552 C547 1.399 . S
C552 C551 1.394 1_545 S
C552 C553 1.516 . S
C553 C552 1.516 . S
C553 C554 1.502 . S
C553 C555 1.561 1_545 S
C553 C556 1.518 1_545 S
C554 H538 0.959 . S
C554 H539 0.959 . S
C554 H540 0.961 . S
C554 C553 1.502 . S
C555 H541 0.960 . S
C555 H542 0.961 . S
C555 H543 0.959 . S
C555 C553 1.561 1_565 S
C556 C553 1.518 1_565 S
C556 C557 1.405 . S
C556 C561 1.391 . S
C557 C551 1.465 . S
C557 C556 1.405 . S
C557 C558 1.399 . S
C558 H544 0.929 . S
C558 C557 1.399 . S
C558 C559 1.385 . S
C559 H545 0.931 . S
C559 C558 1.385 . S
C559 C560 1.389 . S
C560 C559 1.389 . S
C560 C561 1.387 . S
C561 H546 0.930 1_565 S
C561 C556 1.391 . S
C561 C560 1.387 . S
H562 C574 0.930 . S
H563 C576 0.930 . S
H564 C577 0.930 . S
H565 C581 0.959 . S
H566 C581 0.959 1_565 S
H567 C581 0.961 . S
H568 C582 0.960 . S
H569 C582 0.961 1_565 S
H570 C582 0.959 . S
H571 C585 0.929 . S
H572 C586 0.931 . S
H573 C588 0.930 . S
C574 H562 0.930 . S
C574 C575 1.399 . S
C574 C579 1.399 . S
C575 C574 1.399 . S
C575 C576 1.376 . S
C576 H563 0.930 . S
C576 C575 1.376 . S
C576 C577 1.388 . S
C577 H564 0.930 . S
C577 C576 1.388 . S
C577 C578 1.390 . S
C578 C577 1.390 . S
C578 C579 1.394 . S
C578 C584 1.465 1_545 S
C579 C574 1.399 . S
C579 C578 1.394 . S
C579 C580 1.516 . S
C580 C579 1.516 . S
C580 C581 1.502 . S
C580 C582 1.561 . S
C580 C583 1.526 1_545 S
C581 H565 0.959 . S
C581 H566 0.959 1_545 S
C581 H567 0.961 . S
C581 C580 1.502 . S
C582 H568 0.960 . S
C582 H569 0.961 1_545 S
C582 H570 0.959 . S
C582 C580 1.561 . S
C583 C580 1.526 1_565 S
C583 C584 1.396 . S
C583 C588 1.390 . S
C584 C578 1.465 1_565 S
C584 C583 1.396 . S
C584 C585 1.399 . S
C585 H571 0.929 . S
C585 C584 1.399 . S
C585 C586 1.385 . S
C586 H572 0.931 . S
C586 C585 1.385 . S
C586 C587 1.389 . S
C587 C586 1.389 . S
C587 C588 1.387 . S
C588 H573 0.930 . S
C588 C583 1.390 . S
C588 C587 1.387 . S
H589 C601 0.930 . S
H590 C603 0.930 . S
H591 C604 0.930 . S
H592 C608 0.964 . S
H593 C608 0.959 1_655 S
H594 C608 0.961 . S
H595 C609 0.960 . S
H596 C609 0.961 1_655 S
H597 C609 0.959 . S
H598 C612 0.929 . S
H599 C613 0.931 . S
H600 C615 0.930 . S
C601 H589 0.930 . S
C601 C602 1.399 . S
C601 C606 1.399 . S
C602 C601 1.399 . S
C602 C603 1.376 . S
C603 H590 0.930 . S
C603 C602 1.376 . S
C603 C604 1.388 . S
C604 H591 0.930 . S
C604 C603 1.388 . S
C604 C605 1.390 . S
C605 C604 1.390 . S
C605 C606 1.394 . S
C605 C611 1.465 1_455 S
C606 C601 1.399 . S
C606 C605 1.394 . S
C606 C607 1.516 . S
C607 C606 1.516 . S
C607 C608 1.502 . S
C607 C609 1.561 . S
C607 C610 1.526 1_455 S
C608 H592 0.964 . S
C608 H593 0.959 1_455 S
C608 H594 0.961 . S
C608 C607 1.502 . S
C609 H595 0.960 . S
C609 H596 0.961 1_455 S
C609 H597 0.959 . S
C609 C607 1.561 . S
C610 C607 1.526 1_655 S
C610 C611 1.396 . S
C610 C615 1.390 . S
C611 C605 1.465 1_655 S
C611 C610 1.396 . S
C611 C612 1.399 . S
C612 H598 0.929 . S
C612 C611 1.399 . S
C612 C613 1.385 . S
C613 H599 0.931 . S
C613 C612 1.385 . S
C613 C614 1.389 . S
C614 C613 1.389 . S
C614 C615 1.387 . S
C615 H600 0.930 . S
C615 C610 1.390 . S
C615 C614 1.387 . S
C197 N173 1.721 . S
C209 N12 1.779 . S
C224 N35 1.772 . S
C236 N104 1.767 . S
C251 N58 1.742 . S
C263 N127 1.724 . S
C278 N150 1.719 . S
C290 N81 1.767 . S
C305 N25 1.670 . S
C317 C16 1.727 . S
C332 C39 1.675 . S
C344 N48 1.594 . S
C359 N71 1.645 . S
C371 C62 1.705 . S
C386 C85 1.716 . S
C398 N2 1.600 . S
C413 N163 1.578 . S
C425 C108 1.683 . S
C440 C131 1.674 . S
C452 N94 1.580 . S
C467 N117 1.579 . S
C479 C154 1.683 . S
C494 N140 1.653 . S
C506 C177 1.711 . S
C521 C53 1.823 . S
C533 C7 1.802 . S
C548 C76 1.842 . S
C560 C30 1.827 . S
C575 C145 1.822 . S
C587 C99 1.841 . S
C602 C168 1.801 . S
C614 C122 1.825 . S
