# Generated by pormake.
# Topology rkf, (6)-cn, num edge types: 1
# Building blocks:
#     Node 0, Type 0, BuildingBlock: PAMTOO_clean_sbu_0, # of connection points: 6
#     Node 1, Type 0, BuildingBlock: PAMTOO_clean_sbu_0, # of connection points: 6
#     Node 2, Type 0, BuildingBlock: PAMTOO_clean_sbu_0, # of connection points: 6
#     Node 3, Type 0, BuildingBlock: PAMTOO_clean_sbu_0, # of connection points: 6
#     Node 4, Type 0, BuildingBlock: PAMTOO_clean_sbu_0, # of connection points: 6
#     Node 5, Type 0, BuildingBlock: PAMTOO_clean_sbu_0, # of connection points: 6
#     Edge 6, Type (0, 0), BuildingBlock: FUNLAD_clean_linker_0, # of connection points: 2
#     Edge 7, Type (0, 0), BuildingBlock: FUNLAD_clean_linker_0, # of connection points: 2
#     Edge 8, Type (0, 0), BuildingBlock: FUNLAD_clean_linker_0, # of connection points: 2
#     Edge 9, Type (0, 0), BuildingBlock: FUNLAD_clean_linker_0, # of connection points: 2
#     Edge 10, Type (0, 0), BuildingBlock: FUNLAD_clean_linker_0, # of connection points: 2
#     Edge 11, Type (0, 0), BuildingBlock: FUNLAD_clean_linker_0, # of connection points: 2
#     Edge 12, Type (0, 0), BuildingBlock: FUNLAD_clean_linker_0, # of connection points: 2
#     Edge 13, Type (0, 0), BuildingBlock: FUNLAD_clean_linker_0, # of connection points: 2
#     Edge 14, Type (0, 0), BuildingBlock: FUNLAD_clean_linker_0, # of connection points: 2
#     Edge 15, Type (0, 0), BuildingBlock: FUNLAD_clean_linker_0, # of connection points: 2
#     Edge 16, Type (0, 0), BuildingBlock: FUNLAD_clean_linker_0, # of connection points: 2
#     Edge 17, Type (0, 0), BuildingBlock: FUNLAD_clean_linker_0, # of connection points: 2
#     Edge 18, Type (0, 0), BuildingBlock: FUNLAD_clean_linker_0, # of connection points: 2
#     Edge 19, Type (0, 0), BuildingBlock: FUNLAD_clean_linker_0, # of connection points: 2
#     Edge 20, Type (0, 0), BuildingBlock: FUNLAD_clean_linker_0, # of connection points: 2
#     Edge 21, Type (0, 0), BuildingBlock: FUNLAD_clean_linker_0, # of connection points: 2
#     Edge 22, Type (0, 0), BuildingBlock: FUNLAD_clean_linker_0, # of connection points: 2
#     Edge 23, Type (0, 0), BuildingBlock: FUNLAD_clean_linker_0, # of connection points: 2
# Relax obj value: 0.686
# Max RMSD: 0.270
# Mean RMSD: 0.270
data_MOF--net-rkf--node1-PAMTOO_clean_sbu_0--edge1-FUNLAD_clean_linker_0
_symmetry_space_group_name_H-M    P1
_symmetry_Int_Tables_number       1
_symmetry_cell_setting            triclinic
loop_
_symmetry_equiv_pos_as_xyz
'x, y, z'
_cell_length_a     29.216619
_cell_length_b     29.355475
_cell_length_c     52.995021
_cell_angle_alpha  89.582637
_cell_angle_beta   90.284348
_cell_angle_gamma 120.53465
loop_
_atom_site_label
_atom_site_type_symbol
_atom_site_fract_x
_atom_site_fract_y
_atom_site_fract_z
_atom_type_partial_charge
Dy0 Dy 0.16568 0.02744 0.12076 0.0
Dy1 Dy 0.25214 0.15243 0.10563 0.0
C2 C 0.13115 0.09827 1.09122 0.0
O3 O 0.16841 0.02623 1.07789 0.0
O4 O 0.23541 0.11042 1.06722 0.0
O5 O 0.09466 0.96964 0.14027 0.0
O6 O 0.13294 0.94431 0.11354 0.0
O7 O 0.30304 0.11933 0.11666 0.0
O8 O 0.24382 0.03229 0.12677 0.0
O9 O 0.22892 0.15397 0.1466 0.0
O10 O 0.18595 0.06672 0.15927 0.0
O11 O 0.33114 0.21296 0.09518 0.0
O12 O 0.27239 0.23431 0.10498 0.0
C13 C 0.19864 0.0614 1.06064 0.0
O14 O 0.12417 0.07202 0.11232 0.0
O15 O 0.17916 0.1346 1.08465 0.0
C16 C 0.09248 0.88927 0.14845 0.0
C17 C 0.0858 0.81091 0.1818 0.0
C18 C 0.11511 0.86479 0.18837 0.0
C19 C 0.11866 0.90361 0.17179 0.0
C20 C 0.06401 0.83585 0.14156 0.0
C21 C 0.0607 0.79694 0.15808 0.0
C22 C 0.09632 0.92966 0.1307 0.0
C23 C 0.29253 0.07218 0.12389 0.0
C24 C 0.20747 0.11753 0.16457 0.0
C25 C 0.34045 0.28998 1.07663 0.0
C26 C 0.38374 0.36553 1.03763 0.0
C27 C 0.39568 0.38114 1.06294 0.0
C28 C 0.37426 0.34352 1.0823 0.0
C29 C 0.32789 0.27416 1.05146 0.0
C30 C 0.34943 0.31167 1.03209 0.0
C31 C 0.32069 0.25102 0.09712 0.0
H32 H 0.13413 0.87703 0.20664 0.0
H33 H 0.14143 0.94477 0.1773 0.0
H34 H 0.04426 0.82424 0.12341 0.0
H35 H 0.03834 0.75596 0.1523 0.0
H36 H 0.42204 0.42226 1.06774 0.0
H37 H 0.38447 0.35617 0.1017 0.0
H38 H 0.30175 0.23287 1.04681 0.0
H39 H 0.33865 0.29861 1.01278 0.0
Dy40 Dy 0.18471 0.32906 0.4379 0.0
Dy41 Dy 0.18764 0.22299 0.45234 0.0
C42 C 0.0843 0.22015 0.42921 0.0
O43 O 0.14969 0.30375 0.47774 0.0
O44 O 0.18947 0.25811 0.49068 0.0
O45 O 0.14322 0.37151 0.44338 0.0
O46 O 0.21683 0.40757 0.42216 0.0
O47 O 0.27417 0.28634 0.4518 0.0
O48 O 0.26767 0.36119 0.45059 0.0
O49 O 0.18771 0.22135 0.4095 0.0
O50 O 0.19768 0.30234 0.39921 0.0
O51 O 0.21079 0.16579 0.44391 0.0
O52 O 0.16155 0.15418 0.47636 0.0
C53 C 0.16273 0.28181 0.49621 0.0
O54 O 0.11579 0.26542 0.41851 0.0
O55 O 0.10184 0.20095 0.44684 0.0
C56 C 0.1499 0.42625 0.40944 0.0
C57 C 0.09154 0.4458 0.37293 0.0
C58 C 0.12895 0.4318 0.36559 0.0
C59 C 0.15768 0.42183 0.38367 0.0
C60 C 0.11397 0.44207 0.4168 0.0
C61 C 0.08476 0.45148 0.3987 0.0
C62 C 0.17562 0.4108 0.42891 0.0
C63 C 0.29584 0.33806 0.45199 0.0
C64 C 0.19497 0.25745 0.39243 0.0
C65 C 0.22585 0.12899 0.48002 0.0
C66 C 0.29318 0.11102 0.51143 0.0
C67 C 0.3088 0.16244 0.503 0.0
C68 C 0.27533 0.17136 0.4875 0.0
C69 C 0.2106 0.07754 0.48777 0.0
C70 C 0.24396 0.06856 0.50337 0.0
C71 C 0.18996 0.13853 0.46442 0.0
H72 H 0.13428 0.42618 0.34587 0.0
H73 H 0.18469 0.40911 0.37747 0.0
H74 H 0.10733 0.44556 0.43661 0.0
H75 H 0.0562 0.46224 0.40483 0.0
H76 H 0.3466 0.1959 0.50866 0.0
H77 H 0.28778 0.21141 0.4816 0.0
H78 H 0.17249 0.04445 0.48214 0.0
H79 H 0.23029 0.02861 0.50986 0.0
Dy80 Dy 0.05121 0.27285 0.79049 0.0
Dy81 Dy 0.92954 0.22733 0.77233 0.0
C82 C 0.98412 0.16127 0.76457 0.0
O83 O 0.0571 0.28225 0.74733 0.0
O84 O 0.96999 0.2413 0.7339 0.0
O85 O 0.11506 0.27097 0.81029 0.0
O86 O 0.13047 0.34005 0.78812 0.0
O87 O 0.97293 0.31466 0.7667 0.0
O88 O 0.02659 0.33145 0.80046 0.0
O89 O 0.92659 0.22351 0.8156 0.0
O90 O 0.00351 0.22395 0.82463 0.0
O91 O 0.86059 0.23644 0.77345 0.0
O92 O 0.85559 0.16712 0.75637 0.0
C93 C 0.02147 0.26475 0.72875 0.0
O94 O 0.03163 0.20238 0.76766 0.0
O95 O 0.94338 0.15974 0.77562 0.0
C96 C 0.18499 0.35548 0.82339 0.0
C97 C 0.25452 0.42579 0.86013 0.0
C98 C 0.20448 0.38288 0.86706 0.0
C99 C 0.16989 0.34818 0.84884 0.0
C100 C 0.23432 0.39864 0.81633 0.0
C101 C 0.26876 0.43359 0.8345 0.0
C102 C 0.14989 0.31958 0.80372 0.0
C103 C 0.00297 0.34691 0.78438 0.0
C104 C 0.95636 0.21522 0.83182 0.0
C105 C 0.80366 0.19935 0.73851 0.0
C106 C 0.74456 0.19882 0.69626 0.0
C107 C 0.72396 0.19313 0.72078 0.0
C108 C 0.75326 0.19319 0.74173 0.0
C109 C 0.82578 0.20832 0.7143 0.0
C110 C 0.79644 0.20781 0.69336 0.0
C111 C 0.83172 0.19383 0.76026 0.0
H112 H 0.19255 0.37509 0.88667 0.0
H113 H 0.13173 0.3154 0.85468 0.0
H114 H 0.24633 0.4052 0.7967 0.0
H115 H 0.30664 0.46651 0.82848 0.0
H116 H 0.68455 0.18696 0.72374 0.0
H117 H 0.73592 0.18684 0.76038 0.0
H118 H 0.86491 0.21362 0.71147 0.0
H119 H 0.81346 0.2115 0.67483 0.0
Dy120 Dy 0.74123 0.96157 0.10553 0.0
Dy121 Dy 0.82509 0.0844 0.11943 0.0
C122 C 0.8625 0.00846 0.09536 0.0
O123 O 0.74207 0.96425 0.14861 0.0
O124 O 0.82147 0.04014 0.15581 0.0
O125 O 0.70735 0.87907 0.11508 0.0
O126 O 0.67517 0.90202 1.08393 0.0
O127 O 0.74558 0.07008 0.13192 0.0
O128 O 0.6933 0.00089 0.10608 0.0
O129 O 0.81228 0.08602 1.07673 0.0
O130 O 0.77603 -0.00175 1.06682 0.0
O131 O 0.84593 0.16571 0.11523 0.0
O132 O 0.89744 0.14596 0.13643 0.0
C133 C 0.78135 -0.00525 0.16415 0.0
O134 O 0.8204 0.96843 0.10545 0.0
O135 O 0.87146 0.0568 0.09764 0.0
C136 C 0.67092 0.82002 1.08136 0.0
C137 C 0.66465 0.73673 1.05276 0.0
C138 C 0.71012 0.78762 1.0515 0.0
C139 C 0.71318 0.82898 1.06568 0.0
C140 C 0.62575 0.76942 1.08288 0.0
C141 C 0.62252 0.72803 1.06863 0.0
C142 C 0.67366 0.86288 0.09643 0.0
C143 C 0.69974 0.03903 0.12098 0.0
C144 C 0.79921 0.04858 1.05962 0.0
C145 C 0.89418 0.22189 0.14851 0.0
C146 C 0.90597 0.29783 0.18414 0.0
C147 C 0.92242 0.31272 0.15903 0.0
C148 C 0.91662 0.27505 0.14141 0.0
C149 C 0.87641 0.2064 0.17333 0.0
C150 C 0.88246 0.24412 0.19105 0.0
C151 C 0.88804 0.18326 0.12943 0.0
H152 H 0.74282 0.79582 1.0391 0.0
H153 H 0.74824 0.86799 1.06428 0.0
H154 H 0.59292 0.76198 0.09504 0.0
H155 H 0.58718 0.68924 1.07006 0.0
H156 H 0.93998 0.35356 0.15301 0.0
H157 H 0.92979 0.28747 0.12219 0.0
H158 H 0.85836 0.16532 0.17906 0.0
H159 H 0.87003 0.23139 0.2103 0.0
Dy160 Dy 0.75123 0.85048 0.45765 0.0
Dy161 Dy 0.84918 0.8348 0.43921 0.0
C162 C 0.8594 0.94521 0.45098 0.0
O163 O 0.76472 0.87235 0.41531 0.0
O164 O 0.811 0.83331 0.40155 0.0
O165 O 0.71845 0.90167 0.45437 0.0
O166 O 0.67717 0.82883 0.47606 0.0
O167 O 0.77857 0.75172 0.43912 0.0
O168 O 0.70944 0.76547 0.44845 0.0
O169 O 0.86086 0.84765 0.48172 0.0
O170 O 0.78081 0.83574 0.49535 0.0
O171 O 0.89445 0.796 0.44488 0.0
O172 O 0.92137 0.8604 0.41808 0.0
C173 C 0.78522 0.85856 0.39656 0.0
O174 O 0.82814 0.91765 0.46928 0.0
O175 O 0.87194 0.92011 0.43462 0.0
C176 C 0.66552 0.89964 0.48811 0.0
C177 C 0.63818 0.95133 0.5243 0.0
C178 C 0.67141 0.93127 0.53079 0.0
C179 C 0.68514 0.90575 0.5128 0.0
C180 C 0.6329 0.92004 0.48148 0.0
C181 C 0.6194 0.94584 0.49941 0.0
C182 C 0.67824 0.87204 0.46898 0.0
C183 C 0.72783 0.73432 0.44308 0.0
C184 C 0.82782 0.84083 0.50035 0.0
C185 C 0.93651 0.79095 0.40849 0.0
C186 C 0.95361 0.73059 0.3728 0.0
C187 C 0.98691 0.75123 0.39403 0.0
C188 C 0.97839 0.78122 0.41173 0.0
C189 C 0.90218 0.76918 0.38781 0.0
C190 C 0.91077 0.73943 0.37006 0.0
C191 C 0.92813 0.82276 0.42704 0.0
H192 H 0.68723 0.93579 0.54972 0.0
H193 H 0.71088 0.89072 0.51815 0.0
H194 H 0.61761 0.91574 0.46244 0.0
H195 H 0.59361 0.96072 0.49392 0.0
H196 H 0.0199 0.74471 0.39682 0.0
H197 H 0.00477 0.7972 0.42783 0.0
H198 H 0.86926 0.7759 0.38518 0.0
H199 H 0.8849 0.72499 0.35373 0.0
Dy200 Dy 0.06768 0.90024 0.77411 0.0
Dy201 Dy 0.94522 0.82626 0.79307 0.0
C202 C 0.98652 0.9397 0.76813 0.0
O203 O 0.07302 0.90696 0.81717 0.0
O204 O 0.98591 0.87436 0.82815 0.0
O205 O 0.13281 0.96806 0.756 0.0
O206 O 0.14678 0.91185 0.77631 0.0
O207 O 0.9888 0.78339 0.80076 0.0
O208 O 0.04267 0.81581 0.76683 0.0
O209 O 0.93948 0.82122 0.7498 0.0
O210 O 0.02457 0.88074 0.7363 0.0
O211 O 0.87581 0.74856 0.79144 0.0
O212 O 0.87472 0.81007 0.81362 0.0
C213 C 0.03685 0.89897 0.83432 0.0
O214 O 0.03415 0.95334 0.7765 0.0
O215 O 0.94589 0.89252 0.77266 0.0
C216 C 0.19855 0.95207 0.74029 0.0
C217 C 0.261 0.95478 0.69933 0.0
C218 C 0.20584 0.93346 0.6965 0.0
C219 C 0.17489 0.93188 0.71681 0.0
C220 C 0.25306 0.97179 0.74353 0.0
C221 C 0.2841 0.97308 0.72323 0.0
C222 C 0.16678 0.953 0.76139 0.0
C223 C 0.01782 0.7783 0.7836 0.0
C224 C 0.97363 0.84791 0.73132 0.0
C225 C 0.8249 0.72242 0.82863 0.0
C226 C 0.77867 0.65502 0.87058 0.0
C227 C 0.8276 0.66469 0.86091 0.0
C228 C 0.85066 0.69834 0.84017 0.0
C229 C 0.77541 0.71157 0.83763 0.0
C230 C 0.75249 0.67826 0.85844 0.0
C231 C 0.84968 0.75997 0.80767 0.0
H232 H 0.18673 0.9199 0.67832 0.0
H233 H 0.1327 0.91606 0.71402 0.0
H234 H 0.27175 0.98693 0.76167 0.0
H235 H 0.32626 0.98915 0.72615 0.0
H236 H 0.84858 0.64711 0.86966 0.0
H237 H 0.889 0.70623 0.83344 0.0
H238 H 0.75508 0.72994 0.82894 0.0
H239 H 0.71533 0.67263 0.86565 0.0
C240 C 0.87184 0.94505 1.06745 0.0
C241 C 0.88833 -0.00248 1.07423 0.0
C242 C 0.88842 0.93426 1.0447 0.0
C243 C 0.92214 0.97576 1.02856 0.0
C244 C 0.93816 0.02801 1.03511 0.0
C245 C 0.92201 0.03885 1.05782 0.0
C246 C 0.94736 0.96574 1.00686 0.0
C247 C 0.00037 0.98648 1.00596 0.0
C248 C 0.03474 0.01532 1.0277 0.0
C249 C 0.02472 0.99065 1.05148 0.0
C250 C 0.05273 0.01913 1.07268 0.0
C251 C 0.09257 0.07258 1.07043 0.0
H252 H 0.08169 0.08848 1.00717 0.0
C253 C 0.10231 0.09728 1.04655 0.0
C254 C 0.07376 0.06875 1.02534 0.0
H255 H 0.13337 0.13817 1.04409 0.0
H256 H 0.84528 0.9122 1.07946 0.0
H257 H 0.8763 0.89378 1.04007 0.0
H258 H 0.96426 0.06059 1.02283 0.0
H259 H 0.93465 0.07961 1.06206 0.0
H260 H 0.9227 0.94165 0.99136 0.0
H261 H 0.01839 0.98206 0.98898 0.0
H262 H -0.00506 0.94921 1.05363 0.0
H263 H 0.04491 -0.0016 1.09056 0.0
C264 C 0.87247 0.01247 0.41808 0.0
C265 C 0.85652 0.99174 0.44253 0.0
C266 C 0.8607 0.04993 0.40869 0.0
C267 C 0.83272 0.06706 0.42358 0.0
C268 C 0.81681 0.04664 0.44792 0.0
C269 C 0.82939 0.01 0.45749 0.0
C270 C 0.82543 0.11079 0.41489 0.0
C271 C 0.867 0.15942 0.41045 0.0
C272 C 0.92253 0.17333 0.41539 0.0
C273 C 0.95993 0.19525 0.396 0.0
C274 C 0.01194 0.20693 0.40012 0.0
C275 C 0.02745 0.1971 0.42378 0.0
H276 H 0.90994 0.14783 0.45457 0.0
C277 C 0.98984 0.17448 0.44314 0.0
C278 C 0.93789 0.16339 0.43908 0.0
H279 H 0.00123 0.16813 0.46173 0.0
H280 H 0.8927 -0.00123 0.40595 0.0
H281 H 0.87361 0.06578 0.38985 0.0
H282 H 0.79597 0.06014 0.45976 0.0
H283 H 0.81621 -0.00531 0.47638 0.0
H284 H 0.78536 0.10343 0.41221 0.0
H285 H 0.85978 0.18929 0.40234 0.0
H286 H 0.94886 0.20319 0.37765 0.0
H287 H 0.04055 0.22509 0.38497 0.0
C288 C 0.02474 -0.0055 0.72919 0.0
C289 C 0.98123 0.96646 0.74555 0.0
C290 C 0.01688 0.00655 0.70455 0.0
C291 C 0.9656 0.9913 0.69604 0.0
C292 C 0.92242 0.96489 0.71249 0.0
C293 C 0.93014 0.95273 0.73703 0.0
C294 C 0.95788 0.0106 0.6715 0.0
C295 C 0.95344 0.05395 0.6703 0.0
C296 C 0.96073 0.0852 0.69322 0.0
C297 C 0.012 0.11686 0.70295 0.0
C298 C 0.01927 0.1385 0.72695 0.0
C299 C 0.97534 0.12955 0.74159 0.0
H300 H 0.87674 0.05013 0.7006 0.0
C301 C 0.92386 0.09771 0.7317 0.0
C302 C 0.91666 0.07571 0.70765 0.0
H303 H 0.88921 0.09064 0.74227 0.0
H304 H 0.06445 0.00472 0.73492 0.0
H305 H 0.05079 0.02824 0.69222 0.0
H306 H 0.88275 0.9541 0.70637 0.0
H307 H 0.89574 0.93058 0.74903 0.0
H308 H 0.95439 0.98873 0.65447 0.0
H309 H 0.94562 0.06678 0.65236 0.0
H310 H 0.04639 0.12356 0.69223 0.0
H311 H 0.05953 0.16329 0.73377 0.0
C312 C 0.40362 0.45214 1.01858 0.0
C313 C 0.40505 0.40511 1.01694 0.0
C314 C 0.41471 0.48472 0.99738 0.0
C315 C 0.42697 0.4704 0.97418 0.0
C316 C 0.43403 0.42656 0.97343 0.0
C317 C 0.42288 0.39404 0.99455 0.0
C318 C 0.42397 0.49382 0.94975 0.0
C319 C 0.38956 0.51108 0.94606 0.0
C320 C 0.36124 0.50361 0.92169 0.0
C321 C 0.30908 0.49416 0.92249 0.0
C322 C 0.27523 0.47223 0.90181 0.0
C323 C 0.29296 0.45945 0.87986 0.0
H324 H 0.42154 0.50607 0.89682 0.0
C325 C 0.34688 0.47459 0.87803 0.0
C326 C 0.38089 0.49695 0.89866 0.0
H327 H 0.36216 0.46596 0.86129 0.0
H328 H 0.39069 0.46207 1.03573 0.0
H329 H 0.41096 0.51941 0.99895 0.0
H330 H 0.44424 0.41501 0.95592 0.0
H331 H 0.42585 0.35885 0.99299 0.0
H332 H 0.43998 0.4841 0.9336 0.0
H333 H 0.37195 0.51856 0.96233 0.0
H334 H 0.29306 0.49987 0.9398 0.0
H335 H 0.23438 0.46277 0.90351 0.0
C336 C 0.0776 0.4752 0.33067 0.0
C337 C 0.05652 0.44932 0.35372 0.0
C338 C 0.04403 0.46919 0.31055 0.0
C339 C 0.98847 0.43703 0.31314 0.0
C340 C 0.96749 0.41471 0.33685 0.0
C341 C 0.00116 0.42096 0.35701 0.0
C342 C 0.95272 0.41737 0.29082 0.0
C343 C 0.96659 0.44001 0.2678 0.0
C344 C 0.9449 0.40869 0.24439 0.0
C345 C 0.97934 0.4212 0.2238 0.0
C346 C 0.96561 0.38633 0.20364 0.0
C347 C 0.91672 0.33845 0.20348 0.0
H348 H 0.86564 0.3532 0.25832 0.0
C349 C 0.88023 0.32822 0.223 0.0
C350 C 0.89408 0.36309 0.24325 0.0
H351 H 0.84157 0.29244 0.22301 0.0
H352 H 0.1202 0.49771 0.32776 0.0
H353 H 0.06231 0.48648 0.29263 0.0
H354 H 0.92498 0.3895 0.33936 0.0
H355 H 0.9838 0.40032 0.37456 0.0
H356 H 0.91755 0.37848 0.29287 0.0
H357 H 0.00129 0.47923 0.26581 0.0
H358 H 0.01862 0.4562 0.22412 0.0
H359 H -0.00524 0.3955 0.18897 0.0
C360 C 0.65722 0.14649 0.67392 0.0
C361 C 0.71031 0.18835 0.67365 0.0
C362 C 0.6293 0.12692 0.65136 0.0
C363 C 0.65444 0.14811 0.6281 0.0
C364 C 0.70465 0.19431 0.62808 0.0
C365 C 0.73235 0.21434 0.65065 0.0
C366 C 0.63435 0.11875 0.60402 0.0
C367 C 0.60613 0.06542 0.60352 0.0
C368 C 0.60633 0.03405 0.58172 0.0
C369 C 0.6003 0.98425 0.58672 0.0
C370 C 0.60916 0.95676 0.56788 0.0
C371 C 0.62366 0.9782 0.54349 0.0
H372 H 0.6208 0.09147 0.55206 0.0
C373 C 0.62609 0.02629 0.53794 0.0
C374 C 0.61745 0.05402 0.55687 0.0
H375 H 0.63678 0.04352 0.51922 0.0
H376 H 0.6385 0.12582 0.69126 0.0
H377 H 0.58946 0.09299 0.65223 0.0
H378 H 0.72448 0.21235 0.61046 0.0
H379 H 0.77245 0.24795 0.64988 0.0
H380 H 0.65269 0.14063 0.58682 0.0
H381 H 0.59082 0.04363 0.62106 0.0
H382 H 0.59123 0.96759 0.6056 0.0
H383 H 0.60574 0.91915 0.57254 0.0
C384 C 0.70456 0.68771 1.03304 0.0
C385 C 0.66044 0.6939 1.0365 0.0
C386 C 0.70366 0.6534 1.01471 0.0
C387 C 0.65833 0.62429 0.99945 0.0
C388 C 0.61294 0.62772 1.00424 0.0
C389 C 0.61387 0.66205 1.02262 0.0
C390 C 0.66048 0.59905 0.97563 0.0
C391 C 0.69947 0.58899 0.97014 0.0
C392 C 0.71754 0.59175 0.94379 0.0
C393 C 0.77242 0.61789 0.93933 0.0
C394 C 0.79237 0.63522 0.91509 0.0
C395 C 0.75765 0.62598 0.89477 0.0
H396 H 0.64 0.55532 0.92581 0.0
C397 C 0.70257 0.5943 0.89879 0.0
C398 C 0.68263 0.57727 0.92311 0.0
H399 H 0.67481 0.58499 0.88336 0.0
H400 H 0.74072 0.71119 1.04376 0.0
H401 H 0.73999 0.65305 1.01154 0.0
H402 H 0.57763 0.60614 0.99269 0.0
H403 H 0.57925 0.66607 1.02481 0.0
H404 H 0.63395 0.59721 0.96072 0.0
H405 H 0.72572 0.59015 0.98501 0.0
H406 H 0.80017 0.62917 0.95493 0.0
H407 H 0.83499 0.65946 0.91276 0.0
C408 C 0.92533 0.66246 0.33864 0.0
C409 C 0.96617 0.70448 0.35228 0.0
C410 C 0.9365 0.64579 0.31607 0.0
C411 C 0.98865 0.67043 0.30675 0.0
C412 C 0.03011 0.70906 0.32167 0.0
C413 C 0.01891 0.72581 0.34417 0.0
C414 C -0.00348 0.66395 0.27962 0.0
C415 C 0.04469 0.68163 0.26919 0.0
C416 C 0.05725 0.70394 0.24317 0.0
C417 C 0.10892 0.74592 0.2384 0.0
C418 C 0.11935 0.77856 0.21733 0.0
C419 C 0.07823 0.76977 0.20057 0.0
H420 H 0.97806 0.6576 0.22697 0.0
C421 C 0.02808 0.72403 0.20372 0.0
C422 C 0.01778 0.69111 0.22469 0.0
H423 H -0.00441 0.71553 0.19102 0.0
H424 H 0.88437 0.64438 0.34469 0.0
H425 H 0.90377 0.616 0.30501 0.0
H426 H 0.07079 0.73004 0.31516 0.0
H427 H 0.05133 0.75851 0.35408 0.0
H428 H 0.96237 0.65312 0.26761 0.0
H429 H 0.07818 0.69053 0.28137 0.0
H430 H 0.14044 0.75619 0.25202 0.0
H431 H 0.15895 0.81239 0.21495 0.0
C432 C 0.34292 0.01006 0.67343 0.0
C433 C 0.29434 0.96257 0.67679 0.0
C434 C 0.36802 0.02303 0.64993 0.0
C435 C 0.3443 0.98916 0.62919 0.0
C436 C 0.29955 0.93897 0.63347 0.0
C437 C 0.27482 0.92576 0.65702 0.0
C438 C 0.3585 0.00729 0.60257 0.0
C439 C 0.38147 0.05873 0.59585 0.0
C440 C 0.37009 0.07617 0.5714 0.0
C441 C 0.35213 0.04377 0.54989 0.0
C442 C 0.32976 0.05656 0.52963 0.0
C443 C 0.32543 0.1021 0.5304 0.0
H444 H 0.38429 0.15013 0.5872 0.0
C445 C 0.34801 0.13684 0.55084 0.0
C446 C 0.37034 0.12412 0.57101 0.0
H447 H 0.34533 0.17221 0.55212 0.0
H448 H 0.35966 0.03912 0.68832 0.0
H449 H 0.4041 0.06093 0.64788 0.0
H450 H 0.28103 0.91143 0.61805 0.0
H451 H 0.23853 0.88797 0.65926 0.0
H452 H 0.33889 0.97715 0.58826 0.0
H453 H 0.39932 0.08889 0.61025 0.0
H454 H 0.3533 0.00759 0.54894 0.0
H455 H 0.31416 0.02984 0.51376 0.0
C456 C 0.3906 0.10577 0.12432 0.0
C457 C 0.33818 0.06374 0.12789 0.0
C458 C 0.43369 0.09762 0.1262 0.0
C459 C 0.42561 0.04714 0.13189 0.0
C460 C 0.37332 0.00534 0.13589 0.0
C461 C 0.33013 0.0135 0.13401 0.0
C462 C 0.46995 0.03572 0.13191 0.0
C463 C 0.52186 0.07302 0.13432 0.0
C464 C 0.5662 0.06197 0.13186 0.0
C465 C 0.61624 0.09766 0.14219 0.0
C466 C 0.65954 0.09008 0.13904 0.0
C467 C 0.65391 0.04684 0.12519 0.0
H468 H 0.52344 0.99103 0.10909 0.0
C469 C 0.60382 0.01114 0.11487 0.0
C470 C 0.56061 0.01861 0.11808 0.0
H471 H 0.59792 0.97748 0.10398 0.0
H472 H 0.39853 0.14502 0.11944 0.0
H473 H 0.4729 0.13073 0.12226 0.0
H474 H 0.36572 0.96593 0.14013 0.0
H475 H 0.29041 0.98015 0.13685 0.0
H476 H 0.45891 -0.00541 0.13 0.0
H477 H 0.53281 0.11342 0.13859 0.0
H478 H 0.62197 0.13176 0.15265 0.0
H479 H 0.69753 0.11849 0.14717 0.0
C480 C 0.37665 0.41795 0.43592 0.0
C481 C 0.35434 0.37301 0.45164 0.0
C482 C 0.43121 0.45406 0.43618 0.0
C483 C 0.46493 0.44669 0.45253 0.0
C484 C 0.44281 0.40132 0.46807 0.0
C485 C 0.38801 0.36417 0.4673 0.0
C486 C 0.52149 0.48923 0.45567 0.0
C487 C 0.55101 0.52101 0.43648 0.0
C488 C 0.60161 0.57208 0.44025 0.0
C489 C 0.6398 0.59311 0.42085 0.0
C490 C 0.68345 0.64494 0.42235 0.0
C491 C 0.68856 0.677 0.44293 0.0
H492 H 0.57963 0.58936 0.47648 0.0
C493 C 0.65139 0.65544 0.46264 0.0
C494 C 0.60873 0.60351 0.46146 0.0
H495 H 0.65438 0.67951 0.47868 0.0
H496 H 0.35163 0.42563 0.42356 0.0
H497 H 0.44645 0.48909 0.42441 0.0
H498 H 0.46782 0.39507 0.48109 0.0
H499 H 0.37175 0.32991 0.47965 0.0
H500 H 0.53817 0.49623 0.47458 0.0
H501 H 0.53611 0.51093 0.41728 0.0
H502 H 0.63492 0.56998 0.40415 0.0
H503 H 0.71129 0.66088 0.4068 0.0
C504 C 0.98815 0.41872 0.76775 0.0
C505 C 0.0083 0.39981 0.78668 0.0
C506 C -0.00813 0.46797 0.77007 0.0
C507 C 0.01576 0.49955 0.79147 0.0
C508 C 0.03557 0.48049 0.81045 0.0
C509 C 0.03235 0.43144 0.80801 0.0
C510 C 0.01826 0.55112 0.79508 0.0
C511 C 0.02052 0.58238 0.77574 0.0
C512 C 0.02182 0.63343 0.77904 0.0
C513 C 0.04458 0.67215 0.76001 0.0
C514 C 0.04435 0.71958 0.76177 0.0
C515 C 0.02049 0.72914 0.78245 0.0
H516 H 0.97918 0.61379 0.81465 0.0
C517 C -0.00235 0.69042 0.80155 0.0
C518 C -0.00162 0.64315 0.79991 0.0
H519 H 0.97863 0.69631 0.81767 0.0
H520 H 0.96912 0.39531 0.75112 0.0
H521 H 0.97476 0.48047 0.75536 0.0
H522 H 0.05374 0.5037 0.82724 0.0
H523 H 0.04803 0.41801 0.82301 0.0
H524 H 0.02041 0.56454 0.81432 0.0
H525 H 0.02359 0.57129 0.75658 0.0
H526 H 0.06252 0.66562 0.74363 0.0
H527 H 0.06207 0.74834 0.74664 0.0
C528 C 0.16674 0.106 0.20904 0.0
C529 C 0.2087 0.13525 0.19178 0.0
C530 C 0.16846 0.12369 0.23421 0.0
C531 C 0.21298 0.17047 0.24335 0.0
C532 C 0.25502 0.19908 0.22617 0.0
C533 C 0.25245 0.18256 0.20087 0.0
C534 C 0.21957 0.18731 0.27105 0.0
C535 C 0.18414 0.19438 0.28482 0.0
C536 C 0.19185 0.2138 0.31218 0.0
C537 C 0.17164 0.24616 0.32004 0.0
C538 C 0.17465 0.26207 0.34553 0.0
C539 C 0.19627 0.24471 0.36459 0.0
H540 H 0.23026 0.17212 0.32624 0.0
C541 C 0.21634 0.2121 0.35678 0.0
C542 C 0.21495 0.19764 0.33109 0.0
H543 H 0.23313 0.19745 0.37066 0.0
H544 H 0.13218 0.06947 0.20303 0.0
H545 H 0.1356 0.09975 0.24677 0.0
H546 H 0.29036 0.23475 0.23236 0.0
H547 H 0.28577 0.20639 0.18852 0.0
H548 H 0.25738 0.19809 0.27984 0.0
H549 H 0.14867 0.18851 0.27516 0.0
H550 H 0.15305 0.2592 0.30632 0.0
H551 H 0.15816 0.28657 0.35047 0.0
C552 C 0.16172 0.26403 0.54437 0.0
C553 C 0.14426 0.28156 0.52339 0.0
C554 C 0.14302 0.26278 0.56937 0.0
C555 C 0.10541 0.27842 0.57452 0.0
C556 C 0.08808 0.29569 0.55349 0.0
C557 C 0.10721 0.29763 0.5287 0.0
C558 C 0.08135 0.27571 0.60077 0.0
C559 C 0.10164 0.27276 0.62377 0.0
C560 C 0.0789 0.27204 0.65011 0.0
C561 C 0.11221 0.2842 0.67148 0.0
C562 C 0.09387 0.28285 0.69635 0.0
C563 C 0.04071 0.2684 0.70142 0.0
H564 H -0.0023 0.24717 0.63953 0.0
C565 C 0.00683 0.25567 0.68011 0.0
C566 C 0.02555 0.25781 0.655 0.0
H567 H 0.9655 0.24377 0.6828 0.0
H568 H 0.18992 0.25097 0.5415 0.0
H569 H 0.15743 0.24844 0.58452 0.0
H570 H 0.05916 0.30791 0.55619 0.0
H571 H 0.09204 0.31114 0.5135 0.0
H572 H 0.04569 0.27846 0.60097 0.0
H573 H 0.13897 0.27313 0.62361 0.0
H574 H 0.15329 0.29496 0.66899 0.0
H575 H 0.12168 0.29244 0.71177 0.0
C576 C 0.95805 0.17409 0.87527 0.0
C577 C 0.93624 0.19676 0.85893 0.0
C578 C 0.9384 0.15688 0.9003 0.0
C579 C 0.89666 0.16252 0.91031 0.0
C580 C 0.87547 0.18559 0.89398 0.0
C581 C 0.89416 0.20159 0.86895 0.0
C582 C 0.87583 0.14834 0.93767 0.0
C583 C 0.87677 0.11106 0.95317 0.0
C584 C 0.85389 0.09572 0.98016 0.0
C585 C 0.84031 0.04554 0.99018 0.0
C586 C 0.82114 0.02995 1.01521 0.0
C587 C 0.8158 0.06427 1.03193 0.0
H588 H 0.85831 0.16921 0.99038 0.0
C589 C 0.82973 0.11476 1.02205 0.0
C590 C 0.84776 0.12994 0.9967 0.0
H591 H 0.82693 0.14298 1.03401 0.0
H592 H 0.99038 0.16932 0.86868 0.0
H593 H 0.95689 0.14026 0.91194 0.0
H594 H 0.84373 0.19129 0.90062 0.0
H595 H 0.87586 0.21871 0.85749 0.0
H596 H 0.85603 0.16839 0.94488 0.0
H597 H 0.89308 0.08825 0.94532 0.0
H598 H 0.84469 0.01783 0.97853 0.0
H599 H 0.81192 0.99113 1.02171 0.0
C600 C 0.81155 0.01076 0.21118 0.0
C601 C 0.78017 0.97622 0.19153 0.0
C602 C 0.81002 0.99221 0.23638 0.0
C603 C 0.77782 0.93802 0.24292 0.0
C604 C 0.74696 0.90384 0.22318 0.0
C605 C 0.74754 0.92242 0.19833 0.0
C606 C 0.77706 0.91442 0.26915 0.0
C607 C 0.7873 0.9396 0.292 0.0
C608 C 0.78399 0.91502 0.31828 0.0
C609 C 0.7753 0.93781 0.33983 0.0
C610 C 0.77414 0.91859 0.36462 0.0
C611 C 0.78298 0.87623 0.36939 0.0
H612 H 0.79978 0.85335 0.30724 0.0
C613 C 0.79213 0.85343 0.34788 0.0
C614 C 0.79204 0.87197 0.32288 0.0
H615 H 0.79957 0.82111 0.35035 0.0
H616 H 0.83741 0.05244 0.20713 0.0
H617 H 0.83518 0.0203 0.25054 0.0
H618 H 0.72183 0.86194 0.22699 0.0
H619 H 0.72282 0.89394 0.18418 0.0
H620 H 0.76438 0.87265 0.26957 0.0
H621 H 0.79609 0.98026 0.29176 0.0
H622 H 0.76936 0.97115 0.33753 0.0
H623 H 0.76761 0.93818 0.38025 0.0
C624 C 0.89921 0.854 0.53242 0.0
C625 C 0.84678 0.84248 0.5276 0.0
C626 C 0.9185 0.85657 0.55722 0.0
C627 C 0.88653 0.84727 0.57874 0.0
C628 C 0.83372 0.83543 0.57413 0.0
C629 C 0.81437 0.83327 0.54908 0.0
C630 C 0.91136 0.85201 0.60502 0.0
C631 C 0.88543 0.83605 0.62772 0.0
C632 C 0.91072 0.83943 0.65375 0.0
C633 C 0.87744 0.81166 0.6744 0.0
C634 C 0.89777 0.81361 0.69895 0.0
C635 C 0.95269 0.84382 0.70432 0.0
H636 H -0.0064 0.89286 0.64423 0.0
C637 C 0.98631 0.87207 0.68376 0.0
C638 C 0.96589 0.86985 0.65902 0.0
H639 H 0.02872 0.89656 0.68679 0.0
H640 H 0.92614 0.86157 0.51689 0.0
H641 H 0.95924 0.86597 0.55952 0.0
H642 H 0.80728 0.82846 0.58977 0.0
H643 H 0.77385 0.8244 0.54658 0.0
H644 H 0.95403 0.86837 0.60529 0.0
H645 H 0.84249 0.81758 0.62739 0.0
H646 H 0.83487 0.78802 0.67158 0.0
H647 H 0.8699 0.79162 0.7139 0.0
C648 C 0.10776 0.9501 0.86879 0.0
C649 C 0.0538 0.91746 0.86159 0.0
C650 C 0.12291 0.96656 0.89425 0.0
C651 C 0.0847 0.95066 0.91374 0.0
C652 C 0.03099 0.918 0.90644 0.0
C653 C 0.01589 0.90215 0.88109 0.0
C654 C 0.09798 0.96447 0.94183 0.0
C655 C 0.14487 0.00384 0.95184 0.0
C656 C 0.15714 0.01739 0.98002 0.0
C657 C 0.20108 0.06683 0.98719 0.0
C658 C 0.2149 0.081 1.01287 0.0
C659 C 0.18593 0.04599 1.03276 0.0
H660 H 0.09444 0.94363 0.99585 0.0
C661 C 0.14227 -0.00376 1.02561 0.0
C662 C 0.12804 0.98234 0.99993 0.0
H663 H 0.11825 0.96775 1.03999 0.0
H664 H 0.13865 0.96305 0.85468 0.0
H665 H 0.16474 0.99096 0.89859 0.0
H666 H -1e-05 0.90436 0.92055 0.0
H667 H 0.97403 0.8771 0.87686 0.0
H668 H 0.06585 0.94133 0.95494 0.0
H669 H 0.17605 0.02912 0.9387 0.0
H670 H 0.22498 0.0952 0.97274 0.0
H671 H 0.24844 0.11972 1.0171 0.0
loop_
_geom_bond_atom_site_label_1
_geom_bond_atom_site_label_2
_geom_bond_distance
_geom_bond_site_symmetry_2
_ccdc_geom_bond_type
Dy0 O3 2.307 1_554 S
Dy0 O5 2.395 . S
Dy0 O6 2.379 . S
Dy0 O8 2.339 . S
Dy0 O10 2.298 1_565 S
Dy0 O14 2.275 . S
Dy0 C22 2.738 . S
Dy1 O4 2.298 1_554 S
Dy1 O7 2.275 . S
Dy1 O9 2.307 . S
Dy1 O11 2.395 1_554 S
Dy1 O12 2.379 1_554 S
Dy1 O15 2.339 . S
Dy1 C31 2.738 1_554 S
C2 O14 1.254 1_545 S
C2 O15 1.257 . S
O3 Dy0 2.307 1_556 S
O3 C13 1.266 . S
O4 Dy1 2.298 1_556 S
O4 C13 1.236 1_545 S
O5 Dy0 2.395 . S
O5 C22 1.255 . S
O6 Dy0 2.379 . S
O6 C22 1.249 . S
O7 Dy1 2.275 . S
O7 C23 1.254 . S
O8 Dy0 2.339 . S
O8 C23 1.257 1_565 S
O9 Dy1 2.307 . S
O9 C24 1.266 . S
O10 Dy0 2.298 1_545 S
O10 C24 1.236 . S
O11 Dy1 2.395 1_556 S
O11 C31 1.255 . S
O12 Dy1 2.379 1_556 S
O12 C31 1.249 . S
C13 O3 1.266 . S
C13 O4 1.236 1_565 S
O14 Dy0 2.275 . S
O14 C2 1.254 1_565 S
O15 Dy1 2.339 . S
O15 C2 1.257 . S
C16 C19 1.344 . S
C16 C20 1.328 . S
C16 C22 1.516 . S
C17 C18 1.304 . S
C17 C21 1.323 . S
C18 C17 1.304 . S
C18 C19 1.371 . S
C18 H32 0.930 . S
C19 C16 1.344 . S
C19 C18 1.371 . S
C19 H33 0.931 . S
C20 C16 1.328 . S
C20 C21 1.433 . S
C20 H34 0.931 . S
C21 C17 1.323 . S
C21 C20 1.433 . S
C21 H35 0.933 . S
C22 Dy0 2.738 . S
C22 O5 1.255 . S
C22 O6 1.249 . S
C22 C16 1.516 . S
C23 O7 1.254 . S
C23 O8 1.257 1_545 S
C24 O9 1.266 . S
C24 O10 1.236 . S
C25 C28 1.344 . S
C25 C29 1.328 . S
C25 C31 1.516 . S
C26 C27 1.304 . S
C26 C30 1.323 . S
C27 C26 1.304 . S
C27 C28 1.371 . S
C27 H36 0.930 . S
C28 C25 1.344 . S
C28 C27 1.371 . S
C28 H37 0.931 . S
C29 C25 1.328 . S
C29 C30 1.433 . S
C29 H38 0.931 . S
C30 C26 1.323 . S
C30 C29 1.433 . S
C30 H39 0.933 . S
C31 Dy1 2.738 1_556 S
C31 O11 1.255 . S
C31 O12 1.249 . S
C31 C25 1.516 . S
H32 C18 0.930 . S
H33 C19 0.931 . S
H34 C20 0.931 . S
H35 C21 0.933 . S
H36 C27 0.930 . S
H37 C28 0.931 . S
H38 C29 0.931 . S
H39 C30 0.933 . S
Dy40 O43 2.307 . S
Dy40 O45 2.395 . S
Dy40 O46 2.379 . S
Dy40 O48 2.339 . S
Dy40 O50 2.298 . S
Dy40 O54 2.275 . S
Dy40 C62 2.738 . S
Dy41 O44 2.298 . S
Dy41 O47 2.275 . S
Dy41 O49 2.307 . S
Dy41 O51 2.395 . S
Dy41 O52 2.379 . S
Dy41 O55 2.339 . S
Dy41 C71 2.738 . S
C42 O54 1.254 . S
C42 O55 1.257 . S
O43 Dy40 2.307 . S
O43 C53 1.266 . S
O44 Dy41 2.298 . S
O44 C53 1.236 . S
O45 Dy40 2.395 . S
O45 C62 1.255 . S
O46 Dy40 2.379 . S
O46 C62 1.249 . S
O47 Dy41 2.275 . S
O47 C63 1.254 . S
O48 Dy40 2.339 . S
O48 C63 1.257 . S
O49 Dy41 2.307 . S
O49 C64 1.266 . S
O50 Dy40 2.298 . S
O50 C64 1.236 . S
O51 Dy41 2.395 . S
O51 C71 1.255 . S
O52 Dy41 2.379 . S
O52 C71 1.249 . S
C53 O43 1.266 . S
C53 O44 1.236 . S
O54 Dy40 2.275 . S
O54 C42 1.254 . S
O55 Dy41 2.339 . S
O55 C42 1.257 . S
C56 C59 1.344 . S
C56 C60 1.328 . S
C56 C62 1.516 . S
C57 C58 1.304 . S
C57 C61 1.323 . S
C58 C57 1.304 . S
C58 C59 1.371 . S
C58 H72 0.930 . S
C59 C56 1.344 . S
C59 C58 1.371 . S
C59 H73 0.931 . S
C60 C56 1.328 . S
C60 C61 1.433 . S
C60 H74 0.931 . S
C61 C57 1.323 . S
C61 C60 1.433 . S
C61 H75 0.933 . S
C62 Dy40 2.738 . S
C62 O45 1.255 . S
C62 O46 1.249 . S
C62 C56 1.516 . S
C63 O47 1.254 . S
C63 O48 1.257 . S
C64 O49 1.266 . S
C64 O50 1.236 . S
C65 C68 1.344 . S
C65 C69 1.328 . S
C65 C71 1.516 . S
C66 C67 1.304 . S
C66 C70 1.323 . S
C67 C66 1.304 . S
C67 C68 1.371 . S
C67 H76 0.930 . S
C68 C65 1.344 . S
C68 C67 1.371 . S
C68 H77 0.931 . S
C69 C65 1.328 . S
C69 C70 1.433 . S
C69 H78 0.931 . S
C70 C66 1.323 . S
C70 C69 1.433 . S
C70 H79 0.933 . S
C71 Dy41 2.738 . S
C71 O51 1.255 . S
C71 O52 1.249 . S
C71 C65 1.516 . S
H72 C58 0.930 . S
H73 C59 0.931 . S
H74 C60 0.931 . S
H75 C61 0.933 . S
H76 C67 0.930 . S
H77 C68 0.931 . S
H78 C69 0.931 . S
H79 C70 0.933 . S
Dy80 O83 2.307 . S
Dy80 O85 2.395 . S
Dy80 O86 2.379 . S
Dy80 O88 2.339 . S
Dy80 O90 2.298 . S
Dy80 O94 2.275 . S
Dy80 C102 2.738 . S
Dy81 O84 2.298 1_655 S
Dy81 O87 2.275 1_655 S
Dy81 O89 2.307 . S
Dy81 O91 2.395 . S
Dy81 O92 2.379 . S
Dy81 O95 2.339 1_655 S
Dy81 C111 2.738 . S
C82 O94 1.254 . S
C82 O95 1.257 . S
O83 Dy80 2.307 . S
O83 C93 1.266 . S
O84 Dy81 2.298 1_455 S
O84 C93 1.236 . S
O85 Dy80 2.395 . S
O85 C102 1.255 . S
O86 Dy80 2.379 . S
O86 C102 1.249 . S
O87 Dy81 2.275 1_455 S
O87 C103 1.254 . S
O88 Dy80 2.339 . S
O88 C103 1.257 . S
O89 Dy81 2.307 . S
O89 C104 1.266 1_655 S
O90 Dy80 2.298 . S
O90 C104 1.236 . S
O91 Dy81 2.395 . S
O91 C111 1.255 . S
O92 Dy81 2.379 . S
O92 C111 1.249 . S
C93 O83 1.266 . S
C93 O84 1.236 . S
O94 Dy80 2.275 . S
O94 C82 1.254 . S
O95 Dy81 2.339 1_455 S
O95 C82 1.257 . S
C96 C99 1.344 . S
C96 C100 1.328 . S
C96 C102 1.516 . S
C97 C98 1.304 . S
C97 C101 1.323 . S
C98 C97 1.304 . S
C98 C99 1.371 . S
C98 H112 0.930 . S
C99 C96 1.344 . S
C99 C98 1.371 . S
C99 H113 0.931 . S
C100 C96 1.328 . S
C100 C101 1.433 . S
C100 H114 0.931 . S
C101 C97 1.323 . S
C101 C100 1.433 . S
C101 H115 0.933 . S
C102 Dy80 2.738 . S
C102 O85 1.255 . S
C102 O86 1.249 . S
C102 C96 1.516 . S
C103 O87 1.254 . S
C103 O88 1.257 . S
C104 O89 1.266 1_455 S
C104 O90 1.236 . S
C105 C108 1.344 . S
C105 C109 1.328 . S
C105 C111 1.516 . S
C106 C107 1.304 . S
C106 C110 1.323 . S
C107 C106 1.304 . S
C107 C108 1.371 . S
C107 H116 0.930 . S
C108 C105 1.344 . S
C108 C107 1.371 . S
C108 H117 0.931 . S
C109 C105 1.328 . S
C109 C110 1.433 . S
C109 H118 0.931 . S
C110 C106 1.323 . S
C110 C109 1.433 . S
C110 H119 0.933 . S
C111 Dy81 2.738 . S
C111 O91 1.255 . S
C111 O92 1.249 . S
C111 C105 1.516 . S
H112 C98 0.930 . S
H113 C99 0.931 . S
H114 C100 0.931 . S
H115 C101 0.933 . S
H116 C107 0.930 . S
H117 C108 0.931 . S
H118 C109 0.931 . S
H119 C110 0.933 . S
Dy120 O123 2.307 1_556 S
Dy120 O125 2.395 . S
Dy120 O126 2.379 . S
Dy120 O128 2.339 1_556 S
Dy120 O130 2.298 1_565 S
Dy120 O134 2.275 1_556 S
Dy120 C142 2.738 . S
Dy121 O124 2.298 . S
Dy121 O127 2.275 . S
Dy121 O129 2.307 1_554 S
Dy121 O131 2.395 . S
Dy121 O132 2.379 . S
Dy121 O135 2.339 . S
Dy121 C151 2.738 . S
C122 O134 1.254 1_545 S
C122 O135 1.257 . S
O123 Dy120 2.307 1_554 S
O123 C133 1.266 . S
O124 Dy121 2.298 . S
O124 C133 1.236 1_545 S
O125 Dy120 2.395 . S
O125 C142 1.255 . S
O126 Dy120 2.379 . S
O126 C142 1.249 . S
O127 Dy121 2.275 . S
O127 C143 1.254 . S
O128 Dy120 2.339 1_554 S
O128 C143 1.257 1_565 S
O129 Dy121 2.307 1_556 S
O129 C144 1.266 . S
O130 Dy120 2.298 1_545 S
O130 C144 1.236 . S
O131 Dy121 2.395 . S
O131 C151 1.255 . S
O132 Dy121 2.379 . S
O132 C151 1.249 . S
C133 O123 1.266 . S
C133 O124 1.236 1_565 S
O134 Dy120 2.275 1_554 S
O134 C122 1.254 1_565 S
O135 Dy121 2.339 . S
O135 C122 1.257 . S
C136 C139 1.344 . S
C136 C140 1.328 . S
C136 C142 1.516 . S
C137 C138 1.304 . S
C137 C141 1.323 . S
C138 C137 1.304 . S
C138 C139 1.371 . S
C138 H152 0.930 . S
C139 C136 1.344 . S
C139 C138 1.371 . S
C139 H153 0.931 . S
C140 C136 1.328 . S
C140 C141 1.433 . S
C140 H154 0.931 . S
C141 C137 1.323 . S
C141 C140 1.433 . S
C141 H155 0.933 . S
C142 Dy120 2.738 . S
C142 O125 1.255 . S
C142 O126 1.249 . S
C142 C136 1.516 . S
C143 O127 1.254 . S
C143 O128 1.257 1_545 S
C144 O129 1.266 . S
C144 O130 1.236 . S
C145 C148 1.344 . S
C145 C149 1.328 . S
C145 C151 1.516 . S
C146 C147 1.304 . S
C146 C150 1.323 . S
C147 C146 1.304 . S
C147 C148 1.371 . S
C147 H156 0.930 . S
C148 C145 1.344 . S
C148 C147 1.371 . S
C148 H157 0.931 . S
C149 C145 1.328 . S
C149 C150 1.433 . S
C149 H158 0.931 . S
C150 C146 1.323 . S
C150 C149 1.433 . S
C150 H159 0.933 . S
C151 Dy121 2.738 . S
C151 O131 1.255 . S
C151 O132 1.249 . S
C151 C145 1.516 . S
H152 C138 0.930 . S
H153 C139 0.931 . S
H154 C140 0.931 . S
H155 C141 0.933 . S
H156 C147 0.930 . S
H157 C148 0.931 . S
H158 C149 0.931 . S
H159 C150 0.933 . S
Dy160 O163 2.307 . S
Dy160 O165 2.395 . S
Dy160 O166 2.379 . S
Dy160 O168 2.339 . S
Dy160 O170 2.298 . S
Dy160 O174 2.275 . S
Dy160 C182 2.738 . S
Dy161 O164 2.298 . S
Dy161 O167 2.275 . S
Dy161 O169 2.307 . S
Dy161 O171 2.395 . S
Dy161 O172 2.379 . S
Dy161 O175 2.339 . S
Dy161 C191 2.738 . S
C162 O174 1.254 . S
C162 O175 1.257 . S
O163 Dy160 2.307 . S
O163 C173 1.266 . S
O164 Dy161 2.298 . S
O164 C173 1.236 . S
O165 Dy160 2.395 . S
O165 C182 1.255 . S
O166 Dy160 2.379 . S
O166 C182 1.249 . S
O167 Dy161 2.275 . S
O167 C183 1.254 . S
O168 Dy160 2.339 . S
O168 C183 1.257 . S
O169 Dy161 2.307 . S
O169 C184 1.266 . S
O170 Dy160 2.298 . S
O170 C184 1.236 . S
O171 Dy161 2.395 . S
O171 C191 1.255 . S
O172 Dy161 2.379 . S
O172 C191 1.249 . S
C173 O163 1.266 . S
C173 O164 1.236 . S
O174 Dy160 2.275 . S
O174 C162 1.254 . S
O175 Dy161 2.339 . S
O175 C162 1.257 . S
C176 C179 1.344 . S
C176 C180 1.328 . S
C176 C182 1.516 . S
C177 C178 1.304 . S
C177 C181 1.323 . S
C178 C177 1.304 . S
C178 C179 1.371 . S
C178 H192 0.930 1_565 S
C179 C176 1.344 . S
C179 C178 1.371 . S
C179 H193 0.931 . S
C180 C176 1.328 . S
C180 C181 1.433 . S
C180 H194 0.931 . S
C181 C177 1.323 . S
C181 C180 1.433 . S
C181 H195 0.933 . S
C182 Dy160 2.738 . S
C182 O165 1.255 . S
C182 O166 1.249 . S
C182 C176 1.516 . S
C183 O167 1.254 . S
C183 O168 1.257 . S
C184 O169 1.266 . S
C184 O170 1.236 . S
C185 C188 1.344 . S
C185 C189 1.328 . S
C185 C191 1.516 . S
C186 C187 1.304 . S
C186 C190 1.323 . S
C187 C186 1.304 . S
C187 C188 1.371 . S
C187 H196 0.930 . S
C188 C185 1.344 . S
C188 C187 1.371 . S
C188 H197 0.931 . S
C189 C185 1.328 . S
C189 C190 1.433 . S
C189 H198 0.931 . S
C190 C186 1.323 . S
C190 C189 1.433 . S
C190 H199 0.933 . S
C191 Dy161 2.738 . S
C191 O171 1.255 . S
C191 O172 1.249 . S
C191 C185 1.516 . S
H192 C178 0.930 1_545 S
H193 C179 0.931 . S
H194 C180 0.931 . S
H195 C181 0.933 . S
H196 C187 0.930 . S
H197 C188 0.931 . S
H198 C189 0.931 . S
H199 C190 0.933 . S
Dy200 O203 2.307 . S
Dy200 O205 2.395 . S
Dy200 O206 2.379 . S
Dy200 O208 2.339 . S
Dy200 O210 2.298 . S
Dy200 O214 2.275 . S
Dy200 C222 2.738 . S
Dy201 O204 2.298 1_655 S
Dy201 O207 2.275 1_655 S
Dy201 O209 2.307 . S
Dy201 O211 2.395 . S
Dy201 O212 2.379 . S
Dy201 O215 2.339 1_655 S
Dy201 C231 2.738 . S
C202 O214 1.254 . S
C202 O215 1.257 . S
O203 Dy200 2.307 . S
O203 C213 1.266 . S
O204 Dy201 2.298 1_455 S
O204 C213 1.236 . S
O205 Dy200 2.395 . S
O205 C222 1.255 . S
O206 Dy200 2.379 . S
O206 C222 1.249 . S
O207 Dy201 2.275 1_455 S
O207 C223 1.254 . S
O208 Dy200 2.339 . S
O208 C223 1.257 . S
O209 Dy201 2.307 . S
O209 C224 1.266 1_655 S
O210 Dy200 2.298 . S
O210 C224 1.236 . S
O211 Dy201 2.395 . S
O211 C231 1.255 . S
O212 Dy201 2.379 . S
O212 C231 1.249 . S
C213 O203 1.266 . S
C213 O204 1.236 . S
O214 Dy200 2.275 . S
O214 C202 1.254 . S
O215 Dy201 2.339 1_455 S
O215 C202 1.257 . S
C216 C219 1.344 . S
C216 C220 1.328 . S
C216 C222 1.516 . S
C217 C218 1.304 . S
C217 C221 1.323 . S
C218 C217 1.304 . S
C218 C219 1.371 . S
C218 H232 0.930 1_565 S
C219 C216 1.344 . S
C219 C218 1.371 . S
C219 H233 0.931 . S
C220 C216 1.328 . S
C220 C221 1.433 . S
C220 H234 0.931 . S
C221 C217 1.323 . S
C221 C220 1.433 . S
C221 H235 0.933 . S
C222 Dy200 2.738 . S
C222 O205 1.255 . S
C222 O206 1.249 . S
C222 C216 1.516 . S
C223 O207 1.254 . S
C223 O208 1.257 . S
C224 O209 1.266 1_455 S
C224 O210 1.236 . S
C225 C228 1.344 . S
C225 C229 1.328 . S
C225 C231 1.516 . S
C226 C227 1.304 . S
C226 C230 1.323 . S
C227 C226 1.304 . S
C227 C228 1.371 . S
C227 H236 0.930 . S
C228 C225 1.344 . S
C228 C227 1.371 . S
C228 H237 0.931 . S
C229 C225 1.328 . S
C229 C230 1.433 . S
C229 H238 0.931 . S
C230 C226 1.323 . S
C230 C229 1.433 . S
C230 H239 0.933 . S
C231 Dy201 2.738 . S
C231 O211 1.255 . S
C231 O212 1.249 . S
C231 C225 1.516 . S
H232 C218 0.930 1_545 S
H233 C219 0.931 . S
H234 C220 0.931 . S
H235 C221 0.933 . S
H236 C227 0.930 . S
H237 C228 0.931 . S
H238 C229 0.931 . S
H239 C230 0.933 . S
C240 C241 1.386 1_565 S
C240 C242 1.383 . S
C240 H256 0.962 . S
C241 C240 1.386 1_545 S
C241 C245 1.383 . S
C242 C240 1.383 . S
C242 C243 1.402 1_565 S
C242 H257 0.951 . S
C243 C242 1.402 1_545 S
C243 C244 1.375 . S
C243 C246 1.481 . S
C244 C243 1.375 . S
C244 C245 1.367 . S
C244 H258 0.951 . S
C245 C241 1.383 . S
C245 C244 1.367 . S
C245 H259 0.950 . S
C246 C243 1.481 . S
C246 C247 1.297 . S
C246 H260 0.950 1_655 S
C247 C246 1.297 . S
C247 C248 1.479 1_655 S
C247 H261 0.950 1_544 S
C248 C247 1.479 1_455 S
C248 C249 1.375 1_545 S
C248 C254 1.404 . S
C249 C248 1.375 1_565 S
C249 C250 1.369 . S
C249 H262 0.950 . S
C250 C249 1.369 . S
C250 C251 1.392 1_565 S
C250 H263 0.951 . S
C251 C250 1.392 1_545 S
C251 C253 1.384 . S
H252 C254 0.949 . S
C253 C251 1.384 . S
C253 C254 1.385 . S
C253 H255 0.950 . S
C254 C248 1.404 . S
C254 H252 0.949 . S
C254 C253 1.385 . S
H255 C253 0.950 . S
H256 C240 0.962 . S
H257 C242 0.951 . S
H258 C244 0.951 . S
H259 C245 0.950 . S
H260 C246 0.950 1_455 S
H261 C247 0.950 1_566 S
H262 C249 0.950 . S
H263 C250 0.951 . S
C264 C265 1.386 . S
C264 C266 1.383 1_565 S
C264 H280 0.951 . S
C265 C264 1.386 . S
C265 C269 1.383 . S
C266 C264 1.383 1_545 S
C266 C267 1.402 . S
C266 H281 0.951 . S
C267 C266 1.402 . S
C267 C268 1.375 . S
C267 C270 1.481 . S
C268 C267 1.375 . S
C268 C269 1.367 1_545 S
C268 H282 0.951 . S
C269 C265 1.383 . S
C269 C268 1.367 1_565 S
C269 H283 0.950 . S
C270 C267 1.481 . S
C270 C271 1.297 . S
C270 H284 0.950 . S
C271 C270 1.297 . S
C271 C272 1.479 1_655 S
C271 H285 0.950 . S
C272 C271 1.479 1_455 S
C272 C273 1.375 . S
C272 C278 1.404 . S
C273 C272 1.375 . S
C273 C274 1.369 . S
C273 H286 0.950 . S
C274 C273 1.369 . S
C274 C275 1.392 . S
C274 H287 0.951 . S
C275 C274 1.392 . S
C275 C277 1.384 . S
H276 C278 0.949 . S
C277 C275 1.384 . S
C277 C278 1.385 . S
C277 H279 0.950 . S
C278 C272 1.404 . S
C278 H276 0.949 . S
C278 C277 1.385 . S
H279 C277 0.950 . S
H280 C264 0.951 . S
H281 C266 0.951 . S
H282 C268 0.951 . S
H283 C269 0.950 . S
H284 C270 0.950 . S
H285 C271 0.950 . S
H286 C273 0.950 . S
H287 C274 0.951 . S
C288 C289 1.386 . S
C288 C290 1.383 1_565 S
C288 H304 0.951 . S
C289 C288 1.386 . S
C289 C293 1.383 . S
C290 C288 1.383 1_545 S
C290 C291 1.402 . S
C290 H305 0.951 . S
C291 C290 1.402 . S
C291 C292 1.375 1_545 S
C291 C294 1.481 . S
C292 C291 1.375 1_565 S
C292 C293 1.367 . S
C292 H306 0.951 1_455 S
C293 C289 1.383 . S
C293 C292 1.367 . S
C293 H307 0.950 1_455 S
C294 C291 1.481 . S
C294 C295 1.297 . S
C294 H308 0.964 . S
C295 C294 1.297 . S
C295 C296 1.479 . S
C295 H309 0.950 . S
C296 C295 1.479 . S
C296 C297 1.375 . S
C296 C302 1.404 . S
C297 C296 1.375 . S
C297 C298 1.369 . S
C297 H310 0.950 . S
C298 C297 1.369 . S
C298 C299 1.392 . S
C298 H311 0.951 . S
C299 C298 1.392 . S
C299 C301 1.384 . S
H300 C302 0.949 1_655 S
C301 C299 1.384 . S
C301 C302 1.385 . S
C301 H303 0.950 1_455 S
C302 C296 1.404 . S
C302 H300 0.949 1_455 S
C302 C301 1.385 . S
H303 C301 0.950 1_655 S
H304 C288 0.951 . S
H305 C290 0.951 . S
H306 C292 0.951 1_655 S
H307 C293 0.950 1_655 S
H308 C294 0.964 . S
H309 C295 0.950 . S
H310 C297 0.950 . S
H311 C298 0.951 . S
C312 C313 1.386 . S
C312 C314 1.383 . S
C312 H328 0.951 . S
C313 C312 1.386 . S
C313 C317 1.383 . S
C314 C312 1.383 . S
C314 C315 1.402 . S
C314 H329 0.951 . S
C315 C314 1.402 . S
C315 C316 1.375 . S
C315 C318 1.481 . S
C316 C315 1.375 . S
C316 C317 1.367 . S
C316 H330 0.951 . S
C317 C313 1.383 . S
C317 C316 1.367 . S
C317 H331 0.950 . S
C318 C315 1.481 . S
C318 C319 1.297 . S
C318 H332 0.950 . S
C319 C318 1.297 . S
C319 C320 1.479 . S
C319 H333 0.950 . S
C320 C319 1.479 . S
C320 C321 1.375 . S
C320 C326 1.404 . S
C321 C320 1.375 . S
C321 C322 1.369 . S
C321 H334 0.950 . S
C322 C321 1.369 . S
C322 C323 1.392 . S
C322 H335 0.951 . S
C323 C322 1.392 . S
C323 C325 1.384 . S
H324 C326 0.949 . S
C325 C323 1.384 . S
C325 C326 1.385 . S
C325 H327 0.950 . S
C326 C320 1.404 . S
C326 H324 0.949 . S
C326 C325 1.385 . S
H327 C325 0.950 . S
H328 C312 0.951 . S
H329 C314 0.951 . S
H330 C316 0.951 . S
H331 C317 0.950 . S
H332 C318 0.950 . S
H333 C319 0.950 . S
H334 C321 0.950 . S
H335 C322 0.951 . S
C336 C337 1.386 . S
C336 C338 1.383 . S
C336 H352 0.951 . S
C337 C336 1.386 . S
C337 C341 1.383 . S
C338 C336 1.383 . S
C338 C339 1.402 . S
C338 H353 0.951 . S
C339 C338 1.402 . S
C339 C340 1.375 . S
C339 C342 1.481 1_455 S
C340 C339 1.375 . S
C340 C341 1.367 . S
C340 H354 0.951 . S
C341 C337 1.383 . S
C341 C340 1.367 . S
C341 H355 0.950 . S
C342 C339 1.481 1_655 S
C342 C343 1.297 . S
C342 H356 0.950 . S
C343 C342 1.297 . S
C343 C344 1.479 . S
C343 H357 0.950 . S
C344 C343 1.479 . S
C344 C345 1.375 . S
C344 C350 1.404 . S
C345 C344 1.375 . S
C345 C346 1.369 . S
C345 H358 0.950 . S
C346 C345 1.369 . S
C346 C347 1.392 . S
C346 H359 0.951 . S
C347 C346 1.392 . S
C347 C349 1.384 . S
H348 C350 0.949 . S
C349 C347 1.384 . S
C349 C350 1.385 . S
C349 H351 0.950 . S
C350 C344 1.404 . S
C350 H348 0.949 . S
C350 C349 1.385 . S
H351 C349 0.950 . S
H352 C336 0.951 . S
H353 C338 0.951 . S
H354 C340 0.951 . S
H355 C341 0.950 . S
H356 C342 0.950 . S
H357 C343 0.950 . S
H358 C345 0.950 . S
H359 C346 0.951 . S
C360 C361 1.386 . S
C360 C362 1.383 . S
C360 H376 0.951 . S
C361 C360 1.386 . S
C361 C365 1.383 . S
C362 C360 1.383 . S
C362 C363 1.402 . S
C362 H377 0.951 . S
C363 C362 1.402 . S
C363 C364 1.375 . S
C363 C366 1.481 . S
C364 C363 1.375 . S
C364 C365 1.367 . S
C364 H378 0.951 . S
C365 C361 1.383 . S
C365 C364 1.367 . S
C365 H379 0.950 . S
C366 C363 1.481 . S
C366 C367 1.297 . S
C366 H380 0.950 . S
C367 C366 1.297 . S
C367 C368 1.479 . S
C367 H381 0.950 . S
C368 C367 1.479 . S
C368 C369 1.375 . S
C368 C374 1.404 . S
C369 C368 1.375 . S
C369 C370 1.369 1_545 S
C369 H382 0.950 . S
C370 C369 1.369 1_565 S
C370 C371 1.392 . S
C370 H383 0.951 . S
C371 C370 1.392 . S
C371 C373 1.384 1_565 S
H372 C374 0.949 . S
C373 C371 1.384 1_545 S
C373 C374 1.385 . S
C373 H375 0.950 . S
C374 C368 1.404 . S
C374 H372 0.949 . S
C374 C373 1.385 . S
H375 C373 0.950 . S
H376 C360 0.951 . S
H377 C362 0.951 . S
H378 C364 0.951 . S
H379 C365 0.950 . S
H380 C366 0.950 . S
H381 C367 0.950 . S
H382 C369 0.950 . S
H383 C370 0.951 . S
C384 C385 1.386 . S
C384 C386 1.383 . S
C384 H400 0.951 . S
C385 C384 1.386 . S
C385 C389 1.383 . S
C386 C384 1.383 . S
C386 C387 1.402 . S
C386 H401 0.951 . S
C387 C386 1.402 . S
C387 C388 1.375 . S
C387 C390 1.481 . S
C388 C387 1.375 . S
C388 C389 1.367 . S
C388 H402 0.951 . S
C389 C385 1.383 . S
C389 C388 1.367 . S
C389 H403 0.950 . S
C390 C387 1.481 . S
C390 C391 1.297 . S
C390 H404 0.950 . S
C391 C390 1.297 . S
C391 C392 1.479 . S
C391 H405 0.950 . S
C392 C391 1.479 . S
C392 C393 1.375 . S
C392 C398 1.404 . S
C393 C392 1.375 . S
C393 C394 1.369 . S
C393 H406 0.950 . S
C394 C393 1.369 . S
C394 C395 1.392 . S
C394 H407 0.951 . S
C395 C394 1.392 . S
C395 C397 1.384 . S
H396 C398 0.949 . S
C397 C395 1.384 . S
C397 C398 1.385 . S
C397 H399 0.950 . S
C398 C392 1.404 . S
C398 H396 0.949 . S
C398 C397 1.385 . S
H399 C397 0.950 . S
H400 C384 0.951 . S
H401 C386 0.951 . S
H402 C388 0.951 . S
H403 C389 0.950 . S
H404 C390 0.950 . S
H405 C391 0.950 . S
H406 C393 0.950 . S
H407 C394 0.951 . S
C408 C409 1.386 . S
C408 C410 1.383 . S
C408 H424 0.951 . S
C409 C408 1.386 . S
C409 C413 1.383 . S
C410 C408 1.383 . S
C410 C411 1.402 . S
C410 H425 0.951 . S
C411 C410 1.402 . S
C411 C412 1.375 . S
C411 C414 1.481 . S
C412 C411 1.375 . S
C412 C413 1.367 . S
C412 H426 0.951 . S
C413 C409 1.383 . S
C413 C412 1.367 . S
C413 H427 0.950 . S
C414 C411 1.481 . S
C414 C415 1.297 . S
C414 H428 0.950 . S
C415 C414 1.297 . S
C415 C416 1.479 1_655 S
C415 H429 0.950 . S
C416 C415 1.479 1_455 S
C416 C417 1.375 . S
C416 C422 1.404 . S
C417 C416 1.375 . S
C417 C418 1.369 . S
C417 H430 0.950 . S
C418 C417 1.369 . S
C418 C419 1.392 . S
C418 H431 0.951 . S
C419 C418 1.392 . S
C419 C421 1.384 . S
H420 C422 0.949 . S
C421 C419 1.384 . S
C421 C422 1.385 . S
C421 H423 0.950 . S
C422 C416 1.404 . S
C422 H420 0.949 . S
C422 C421 1.385 . S
H423 C421 0.950 . S
H424 C408 0.951 . S
H425 C410 0.951 . S
H426 C412 0.951 . S
H427 C413 0.950 . S
H428 C414 0.950 . S
H429 C415 0.950 . S
H430 C417 0.950 . S
H431 C418 0.951 . S
C432 C433 1.386 . S
C432 C434 1.383 1_565 S
C432 H448 0.951 . S
C433 C432 1.386 . S
C433 C437 1.383 . S
C434 C432 1.383 1_545 S
C434 C435 1.402 . S
C434 H449 0.951 . S
C435 C434 1.402 . S
C435 C436 1.379 . S
C435 C438 1.481 . S
C436 C435 1.379 . S
C436 C437 1.357 1_545 S
C436 H450 0.957 . S
C437 C433 1.383 . S
C437 C436 1.357 1_565 S
C437 H451 0.950 . S
C438 C435 1.481 . S
C438 C439 1.297 . S
C438 H452 0.950 . S
C439 C438 1.297 . S
C439 C440 1.479 . S
C439 H453 0.950 . S
C440 C439 1.479 . S
C440 C441 1.375 . S
C440 C446 1.404 . S
C441 C440 1.375 . S
C441 C442 1.369 . S
C441 H454 0.950 . S
C442 C441 1.369 . S
C442 C443 1.392 . S
C442 H455 0.951 . S
C443 C442 1.392 . S
C443 C445 1.384 . S
H444 C446 0.949 . S
C445 C443 1.384 . S
C445 C446 1.385 . S
C445 H447 0.950 . S
C446 C440 1.404 . S
C446 H444 0.949 . S
C446 C445 1.385 . S
H447 C445 0.950 . S
H448 C432 0.951 . S
H449 C434 0.951 . S
H450 C436 0.957 . S
H451 C437 0.950 . S
H452 C438 0.950 . S
H453 C439 0.950 . S
H454 C441 0.950 . S
H455 C442 0.951 . S
C456 C457 1.386 . S
C456 C458 1.383 . S
C456 H472 0.951 . S
C457 C456 1.386 . S
C457 C461 1.383 1_545 S
C458 C456 1.383 . S
C458 C459 1.402 . S
C458 H473 0.951 . S
C459 C458 1.402 . S
C459 C460 1.375 1_545 S
C459 C462 1.481 . S
C460 C459 1.375 1_565 S
C460 C461 1.367 . S
C460 H474 0.951 . S
C461 C457 1.383 1_565 S
C461 C460 1.367 . S
C461 H475 0.950 . S
C462 C459 1.481 . S
C462 C463 1.297 . S
C462 H476 0.950 1_545 S
C463 C462 1.297 . S
C463 C464 1.479 . S
C463 H477 0.950 . S
C464 C463 1.479 . S
C464 C465 1.375 . S
C464 C470 1.404 1_545 S
C465 C464 1.375 . S
C465 C466 1.369 . S
C465 H478 0.950 . S
C466 C465 1.369 . S
C466 C467 1.392 . S
C466 H479 0.951 . S
C467 C466 1.392 . S
C467 C469 1.384 1_545 S
H468 C470 0.949 . S
C469 C467 1.384 1_565 S
C469 C470 1.385 . S
C469 H471 0.950 . S
C470 C464 1.404 1_565 S
C470 H468 0.949 . S
C470 C469 1.385 . S
H471 C469 0.950 . S
H472 C456 0.951 . S
H473 C458 0.951 . S
H474 C460 0.951 . S
H475 C461 0.950 . S
H476 C462 0.950 1_565 S
H477 C463 0.950 . S
H478 C465 0.950 . S
H479 C466 0.951 . S
C480 C481 1.386 . S
C480 C482 1.383 . S
C480 H496 0.951 . S
C481 C480 1.386 . S
C481 C485 1.383 . S
C482 C480 1.383 . S
C482 C483 1.402 . S
C482 H497 0.951 . S
C483 C482 1.402 . S
C483 C484 1.375 . S
C483 C486 1.481 . S
C484 C483 1.375 . S
C484 C485 1.367 . S
C484 H498 0.951 . S
C485 C481 1.383 . S
C485 C484 1.367 . S
C485 H499 0.950 . S
C486 C483 1.481 . S
C486 C487 1.297 . S
C486 H500 0.950 . S
C487 C486 1.297 . S
C487 C488 1.479 . S
C487 H501 0.950 . S
C488 C487 1.479 . S
C488 C489 1.375 . S
C488 C494 1.404 . S
C489 C488 1.375 . S
C489 C490 1.369 . S
C489 H502 0.950 . S
C490 C489 1.369 . S
C490 C491 1.392 . S
C490 H503 0.951 . S
C491 C490 1.392 . S
C491 C493 1.384 . S
H492 C494 0.949 . S
C493 C491 1.384 . S
C493 C494 1.385 . S
C493 H495 0.950 . S
C494 C488 1.404 . S
C494 H492 0.949 . S
C494 C493 1.385 . S
H495 C493 0.950 . S
H496 C480 0.951 . S
H497 C482 0.951 . S
H498 C484 0.951 . S
H499 C485 0.950 . S
H500 C486 0.950 . S
H501 C487 0.950 . S
H502 C489 0.950 . S
H503 C490 0.951 . S
C504 C505 1.386 . S
C504 C506 1.383 . S
C504 H520 0.951 . S
C505 C504 1.386 . S
C505 C509 1.383 . S
C506 C504 1.383 . S
C506 C507 1.402 . S
C506 H521 0.951 . S
C507 C506 1.402 . S
C507 C508 1.375 . S
C507 C510 1.481 . S
C508 C507 1.375 . S
C508 C509 1.367 . S
C508 H522 0.951 1_455 S
C509 C505 1.383 . S
C509 C508 1.367 . S
C509 H523 0.951 . S
C510 C507 1.481 . S
C510 C511 1.297 . S
C510 H524 0.950 . S
C511 C510 1.297 . S
C511 C512 1.479 . S
C511 H525 0.950 . S
C512 C511 1.479 . S
C512 C513 1.375 . S
C512 C518 1.404 . S
C513 C512 1.375 . S
C513 C514 1.369 . S
C513 H526 0.950 . S
C514 C513 1.369 . S
C514 C515 1.392 . S
C514 H527 0.951 . S
C515 C514 1.392 . S
C515 C517 1.384 . S
H516 C518 0.949 1_655 S
C517 C515 1.384 . S
C517 C518 1.385 . S
C517 H519 0.950 1_455 S
C518 C512 1.404 . S
C518 H516 0.949 1_455 S
C518 C517 1.385 . S
H519 C517 0.950 1_655 S
H520 C504 0.951 . S
H521 C506 0.951 . S
H522 C508 0.951 1_655 S
H523 C509 0.951 . S
H524 C510 0.950 . S
H525 C511 0.950 . S
H526 C513 0.950 . S
H527 C514 0.951 . S
C528 C529 1.386 . S
C528 C530 1.383 . S
C528 H544 0.951 . S
C529 C528 1.386 . S
C529 C533 1.383 . S
C530 C528 1.383 . S
C530 C531 1.402 . S
C530 H545 0.951 . S
C531 C530 1.402 . S
C531 C532 1.375 . S
C531 C534 1.481 . S
C532 C531 1.375 . S
C532 C533 1.367 . S
C532 H546 0.951 . S
C533 C529 1.383 . S
C533 C532 1.367 . S
C533 H547 0.950 . S
C534 C531 1.481 . S
C534 C535 1.297 . S
C534 H548 0.950 . S
C535 C534 1.297 . S
C535 C536 1.479 . S
C535 H549 0.950 . S
C536 C535 1.479 . S
C536 C537 1.375 . S
C536 C542 1.404 . S
C537 C536 1.375 . S
C537 C538 1.369 . S
C537 H550 0.950 . S
C538 C537 1.369 . S
C538 C539 1.392 . S
C538 H551 0.951 . S
C539 C538 1.392 . S
C539 C541 1.384 . S
H540 C542 0.949 . S
C541 C539 1.384 . S
C541 C542 1.385 . S
C541 H543 0.950 . S
C542 C536 1.404 . S
C542 H540 0.949 . S
C542 C541 1.385 . S
H543 C541 0.950 . S
H544 C528 0.951 . S
H545 C530 0.951 . S
H546 C532 0.951 . S
H547 C533 0.950 . S
H548 C534 0.950 . S
H549 C535 0.950 . S
H550 C537 0.950 . S
H551 C538 0.951 . S
C552 C553 1.386 . S
C552 C554 1.383 . S
C552 H568 0.951 . S
C553 C552 1.386 . S
C553 C557 1.383 . S
C554 C552 1.383 . S
C554 C555 1.402 . S
C554 H569 0.951 . S
C555 C554 1.402 . S
C555 C556 1.375 . S
C555 C558 1.481 . S
C556 C555 1.375 . S
C556 C557 1.367 . S
C556 H570 0.951 . S
C557 C553 1.383 . S
C557 C556 1.367 . S
C557 H571 0.950 . S
C558 C555 1.481 . S
C558 C559 1.297 . S
C558 H572 0.950 . S
C559 C558 1.297 . S
C559 C560 1.479 . S
C559 H573 0.950 . S
C560 C559 1.479 . S
C560 C561 1.375 . S
C560 C566 1.404 . S
C561 C560 1.375 . S
C561 C562 1.369 . S
C561 H574 0.950 . S
C562 C561 1.369 . S
C562 C563 1.392 . S
C562 H575 0.951 . S
C563 C562 1.392 . S
C563 C565 1.384 . S
H564 C566 0.949 . S
C565 C563 1.384 . S
C565 C566 1.385 . S
C565 H567 0.950 . S
C566 C560 1.404 . S
C566 H564 0.949 . S
C566 C565 1.385 . S
H567 C565 0.950 . S
H568 C552 0.951 . S
H569 C554 0.951 . S
H570 C556 0.951 . S
H571 C557 0.950 . S
H572 C558 0.950 . S
H573 C559 0.950 . S
H574 C561 0.950 . S
H575 C562 0.951 . S
C576 C577 1.386 . S
C576 C578 1.383 . S
C576 H592 0.951 . S
C577 C576 1.386 . S
C577 C581 1.383 . S
C578 C576 1.383 . S
C578 C579 1.402 . S
C578 H593 0.951 . S
C579 C578 1.402 . S
C579 C580 1.375 . S
C579 C582 1.481 . S
C580 C579 1.375 . S
C580 C581 1.367 . S
C580 H594 0.951 . S
C581 C577 1.383 . S
C581 C580 1.367 . S
C581 H595 0.950 . S
C582 C579 1.481 . S
C582 C583 1.297 . S
C582 H596 0.950 . S
C583 C582 1.297 . S
C583 C584 1.479 . S
C583 H597 0.950 . S
C584 C583 1.479 . S
C584 C585 1.375 . S
C584 C590 1.404 . S
C585 C584 1.375 . S
C585 C586 1.369 . S
C585 H598 0.950 . S
C586 C585 1.369 . S
C586 C587 1.392 . S
C586 H599 0.951 . S
C587 C586 1.392 . S
C587 C589 1.384 . S
H588 C590 0.949 . S
C589 C587 1.384 . S
C589 C590 1.385 . S
C589 H591 0.950 . S
C590 C584 1.404 . S
C590 H588 0.949 . S
C590 C589 1.385 . S
H591 C589 0.950 . S
H592 C576 0.951 . S
H593 C578 0.951 . S
H594 C580 0.951 . S
H595 C581 0.950 . S
H596 C582 0.950 . S
H597 C583 0.950 . S
H598 C585 0.950 . S
H599 C586 0.951 . S
C600 C601 1.386 . S
C600 C602 1.383 . S
C600 H616 0.951 . S
C601 C600 1.386 . S
C601 C605 1.383 . S
C602 C600 1.383 . S
C602 C603 1.402 . S
C602 H617 0.951 . S
C603 C602 1.402 . S
C603 C604 1.375 . S
C603 C606 1.481 . S
C604 C603 1.375 . S
C604 C605 1.367 . S
C604 H618 0.951 . S
C605 C601 1.383 . S
C605 C604 1.367 . S
C605 H619 0.950 . S
C606 C603 1.481 . S
C606 C607 1.297 . S
C606 H620 0.950 . S
C607 C606 1.297 . S
C607 C608 1.479 . S
C607 H621 0.950 . S
C608 C607 1.479 . S
C608 C609 1.375 . S
C608 C614 1.404 . S
C609 C608 1.375 . S
C609 C610 1.369 . S
C609 H622 0.950 . S
C610 C609 1.369 . S
C610 C611 1.392 . S
C610 H623 0.951 . S
C611 C610 1.392 . S
C611 C613 1.384 . S
H612 C614 0.949 . S
C613 C611 1.384 . S
C613 C614 1.385 . S
C613 H615 0.950 . S
C614 C608 1.404 . S
C614 H612 0.949 . S
C614 C613 1.385 . S
H615 C613 0.950 . S
H616 C600 0.951 . S
H617 C602 0.951 . S
H618 C604 0.951 . S
H619 C605 0.950 . S
H620 C606 0.950 . S
H621 C607 0.950 . S
H622 C609 0.950 . S
H623 C610 0.951 . S
C624 C625 1.386 . S
C624 C626 1.383 . S
C624 H640 0.951 . S
C625 C624 1.386 . S
C625 C629 1.383 . S
C626 C624 1.383 . S
C626 C627 1.402 . S
C626 H641 0.951 . S
C627 C626 1.402 . S
C627 C628 1.375 . S
C627 C630 1.481 . S
C628 C627 1.375 . S
C628 C629 1.367 . S
C628 H642 0.951 . S
C629 C625 1.383 . S
C629 C628 1.367 . S
C629 H643 0.950 . S
C630 C627 1.481 . S
C630 C631 1.297 . S
C630 H644 0.950 . S
C631 C630 1.297 . S
C631 C632 1.479 . S
C631 H645 0.950 . S
C632 C631 1.479 . S
C632 C633 1.375 . S
C632 C638 1.404 . S
C633 C632 1.375 . S
C633 C634 1.369 . S
C633 H646 0.950 . S
C634 C633 1.369 . S
C634 C635 1.392 . S
C634 H647 0.951 . S
C635 C634 1.392 . S
C635 C637 1.384 . S
H636 C638 0.949 . S
C637 C635 1.384 . S
C637 C638 1.385 . S
C637 H639 0.950 1_655 S
C638 C632 1.404 . S
C638 H636 0.949 . S
C638 C637 1.385 . S
H639 C637 0.950 1_455 S
H640 C624 0.951 . S
H641 C626 0.951 . S
H642 C628 0.951 . S
H643 C629 0.950 . S
H644 C630 0.950 . S
H645 C631 0.950 . S
H646 C633 0.950 . S
H647 C634 0.951 . S
C648 C649 1.386 . S
C648 C650 1.383 . S
C648 H664 0.951 . S
C649 C648 1.386 . S
C649 C653 1.383 . S
C650 C648 1.383 . S
C650 C651 1.402 . S
C650 H665 0.951 . S
C651 C650 1.402 . S
C651 C652 1.375 . S
C651 C654 1.481 . S
C652 C651 1.375 . S
C652 C653 1.367 . S
C652 H666 0.951 . S
C653 C649 1.383 . S
C653 C652 1.367 . S
C653 H667 0.950 . S
C654 C651 1.481 . S
C654 C655 1.297 . S
C654 H668 0.950 . S
C655 C654 1.297 . S
C655 C656 1.479 . S
C655 H669 0.950 . S
C656 C655 1.479 . S
C656 C657 1.375 . S
C656 C662 1.404 . S
C657 C656 1.375 . S
C657 C658 1.369 . S
C657 H670 0.950 1_565 S
C658 C657 1.369 . S
C658 C659 1.392 . S
C658 H671 0.951 1_565 S
C659 C658 1.392 . S
C659 C661 1.384 . S
H660 C662 0.949 . S
C661 C659 1.384 . S
C661 C662 1.385 . S
C661 H663 0.950 . S
C662 C656 1.404 . S
C662 H660 0.949 . S
C662 C661 1.385 . S
H663 C661 0.950 . S
H664 C648 0.951 . S
H665 C650 0.951 . S
H666 C652 0.951 . S
H667 C653 0.950 . S
H668 C654 0.950 . S
H669 C655 0.950 . S
H670 C657 0.950 1_545 S
H671 C658 0.951 1_545 S
C241 C122 0.534 . S
C251 C2 0.448 . S
C265 C162 0.624 . S
C275 C42 0.659 . S
C289 C202 0.562 . S
C299 C82 0.481 . S
C313 C26 0.639 . S
C323 C97 0.787 . S
C337 C57 0.530 . S
C347 C146 0.388 . S
C361 C106 0.646 . S
C371 C177 0.744 . S
C385 C137 0.701 . S
C395 C226 0.711 . S
C409 C186 0.528 . S
C419 C17 0.705 . S
C433 C217 0.645 . S
C443 C66 0.486 . S
C457 C23 0.408 . S
C467 C143 0.630 . S
C481 C63 0.509 . S
C491 C183 0.434 . S
C505 C103 0.524 . S
C515 C223 0.507 . S
C529 C24 4.057 . S
C539 C64 4.051 . S
C553 C53 3.729 . S
C563 C93 3.724 . S
C577 C104 4.055 1_655 S
C587 C144 4.048 . S
C601 C133 3.727 . S
C611 C173 3.721 . S
C625 C184 4.059 . S
C635 C224 4.040 1_655 S
C649 C213 3.713 . S
C659 C13 3.696 . S
