# Generated by pormake.
# Topology why, (6)-cn, num edge types: 1
# Building blocks:
#     Node 0, Type 0, BuildingBlock: BETFAJ_clean_sbu_0, # of connection points: 6
#     Node 1, Type 0, BuildingBlock: BETFAJ_clean_sbu_0, # of connection points: 6
#     Node 2, Type 0, BuildingBlock: BETFAJ_clean_sbu_0, # of connection points: 6
#     Node 3, Type 0, BuildingBlock: BETFAJ_clean_sbu_0, # of connection points: 6
#     Node 4, Type 0, BuildingBlock: BETFAJ_clean_sbu_0, # of connection points: 6
#     Node 5, Type 0, BuildingBlock: BETFAJ_clean_sbu_0, # of connection points: 6
#     Node 6, Type 0, BuildingBlock: BETFAJ_clean_sbu_0, # of connection points: 6
#     Node 7, Type 0, BuildingBlock: BETFAJ_clean_sbu_0, # of connection points: 6
#     Node 8, Type 0, BuildingBlock: BETFAJ_clean_sbu_0, # of connection points: 6
#     Node 9, Type 0, BuildingBlock: BETFAJ_clean_sbu_0, # of connection points: 6
#     Node 10, Type 0, BuildingBlock: BETFAJ_clean_sbu_0, # of connection points: 6
#     Node 11, Type 0, BuildingBlock: BETFAJ_clean_sbu_0, # of connection points: 6
#     Node 12, Type 0, BuildingBlock: BETFAJ_clean_sbu_0, # of connection points: 6
#     Node 13, Type 0, BuildingBlock: BETFAJ_clean_sbu_0, # of connection points: 6
#     Node 14, Type 0, BuildingBlock: BETFAJ_clean_sbu_0, # of connection points: 6
#     Node 15, Type 0, BuildingBlock: BETFAJ_clean_sbu_0, # of connection points: 6
#     Edge 16, Type (0, 0), BuildingBlock: ZUJKAS_clean_linker_0, # of connection points: 2
#     Edge 17, Type (0, 0), BuildingBlock: ZUJKAS_clean_linker_0, # of connection points: 2
#     Edge 18, Type (0, 0), BuildingBlock: ZUJKAS_clean_linker_0, # of connection points: 2
#     Edge 19, Type (0, 0), BuildingBlock: ZUJKAS_clean_linker_0, # of connection points: 2
#     Edge 20, Type (0, 0), BuildingBlock: ZUJKAS_clean_linker_0, # of connection points: 2
#     Edge 21, Type (0, 0), BuildingBlock: ZUJKAS_clean_linker_0, # of connection points: 2
#     Edge 22, Type (0, 0), BuildingBlock: ZUJKAS_clean_linker_0, # of connection points: 2
#     Edge 23, Type (0, 0), BuildingBlock: ZUJKAS_clean_linker_0, # of connection points: 2
#     Edge 24, Type (0, 0), BuildingBlock: ZUJKAS_clean_linker_0, # of connection points: 2
#     Edge 25, Type (0, 0), BuildingBlock: ZUJKAS_clean_linker_0, # of connection points: 2
#     Edge 26, Type (0, 0), BuildingBlock: ZUJKAS_clean_linker_0, # of connection points: 2
#     Edge 27, Type (0, 0), BuildingBlock: ZUJKAS_clean_linker_0, # of connection points: 2
#     Edge 28, Type (0, 0), BuildingBlock: ZUJKAS_clean_linker_0, # of connection points: 2
#     Edge 29, Type (0, 0), BuildingBlock: ZUJKAS_clean_linker_0, # of connection points: 2
#     Edge 30, Type (0, 0), BuildingBlock: ZUJKAS_clean_linker_0, # of connection points: 2
#     Edge 31, Type (0, 0), BuildingBlock: ZUJKAS_clean_linker_0, # of connection points: 2
#     Edge 32, Type (0, 0), BuildingBlock: ZUJKAS_clean_linker_0, # of connection points: 2
#     Edge 33, Type (0, 0), BuildingBlock: ZUJKAS_clean_linker_0, # of connection points: 2
#     Edge 34, Type (0, 0), BuildingBlock: ZUJKAS_clean_linker_0, # of connection points: 2
#     Edge 35, Type (0, 0), BuildingBlock: ZUJKAS_clean_linker_0, # of connection points: 2
#     Edge 36, Type (0, 0), BuildingBlock: ZUJKAS_clean_linker_0, # of connection points: 2
#     Edge 37, Type (0, 0), BuildingBlock: ZUJKAS_clean_linker_0, # of connection points: 2
#     Edge 38, Type (0, 0), BuildingBlock: ZUJKAS_clean_linker_0, # of connection points: 2
#     Edge 39, Type (0, 0), BuildingBlock: ZUJKAS_clean_linker_0, # of connection points: 2
#     Edge 40, Type (0, 0), BuildingBlock: ZUJKAS_clean_linker_0, # of connection points: 2
#     Edge 41, Type (0, 0), BuildingBlock: ZUJKAS_clean_linker_0, # of connection points: 2
#     Edge 42, Type (0, 0), BuildingBlock: ZUJKAS_clean_linker_0, # of connection points: 2
#     Edge 43, Type (0, 0), BuildingBlock: ZUJKAS_clean_linker_0, # of connection points: 2
#     Edge 44, Type (0, 0), BuildingBlock: ZUJKAS_clean_linker_0, # of connection points: 2
#     Edge 45, Type (0, 0), BuildingBlock: ZUJKAS_clean_linker_0, # of connection points: 2
#     Edge 46, Type (0, 0), BuildingBlock: ZUJKAS_clean_linker_0, # of connection points: 2
#     Edge 47, Type (0, 0), BuildingBlock: ZUJKAS_clean_linker_0, # of connection points: 2
#     Edge 48, Type (0, 0), BuildingBlock: ZUJKAS_clean_linker_0, # of connection points: 2
#     Edge 49, Type (0, 0), BuildingBlock: ZUJKAS_clean_linker_0, # of connection points: 2
#     Edge 50, Type (0, 0), BuildingBlock: ZUJKAS_clean_linker_0, # of connection points: 2
#     Edge 51, Type (0, 0), BuildingBlock: ZUJKAS_clean_linker_0, # of connection points: 2
#     Edge 52, Type (0, 0), BuildingBlock: ZUJKAS_clean_linker_0, # of connection points: 2
#     Edge 53, Type (0, 0), BuildingBlock: ZUJKAS_clean_linker_0, # of connection points: 2
#     Edge 54, Type (0, 0), BuildingBlock: ZUJKAS_clean_linker_0, # of connection points: 2
#     Edge 55, Type (0, 0), BuildingBlock: ZUJKAS_clean_linker_0, # of connection points: 2
#     Edge 56, Type (0, 0), BuildingBlock: ZUJKAS_clean_linker_0, # of connection points: 2
#     Edge 57, Type (0, 0), BuildingBlock: ZUJKAS_clean_linker_0, # of connection points: 2
#     Edge 58, Type (0, 0), BuildingBlock: ZUJKAS_clean_linker_0, # of connection points: 2
#     Edge 59, Type (0, 0), BuildingBlock: ZUJKAS_clean_linker_0, # of connection points: 2
#     Edge 60, Type (0, 0), BuildingBlock: ZUJKAS_clean_linker_0, # of connection points: 2
#     Edge 61, Type (0, 0), BuildingBlock: ZUJKAS_clean_linker_0, # of connection points: 2
#     Edge 62, Type (0, 0), BuildingBlock: ZUJKAS_clean_linker_0, # of connection points: 2
#     Edge 63, Type (0, 0), BuildingBlock: ZUJKAS_clean_linker_0, # of connection points: 2
# Relax obj value: 0.347
# Max RMSD: 0.214
# Mean RMSD: 0.214
data_MOF--net-why--node1-BETFAJ_clean_sbu_0--edge1-ZUJKAS_clean_linker_0
_symmetry_space_group_name_H-M    P1
_symmetry_Int_Tables_number       1
_symmetry_cell_setting            triclinic
loop_
_symmetry_equiv_pos_as_xyz
'x, y, z'
_cell_length_a     64.261443
_cell_length_b     64.004891
_cell_length_c     45.611508
_cell_angle_alpha  90.086886
_cell_angle_beta   90.057868
_cell_angle_gamma 90.088671
loop_
_atom_site_label
_atom_site_type_symbol
_atom_site_fract_x
_atom_site_fract_y
_atom_site_fract_z
_atom_type_partial_charge
Sm0 Sm 0.4677 0.19423 0.05911 0.0
Sm1 Sm 0.4491 0.21656 0.10238 0.0
C2 C 0.49089 0.17623 0.01828 0.0
C3 C 0.50217 0.18203 0.99166 0.0
C4 C 0.51006 0.2023 0.98773 0.0
C5 C 0.52094 0.20732 0.96217 0.0
C6 C 0.52382 0.19219 0.94017 0.0
C7 C 0.5156 0.17203 0.94413 0.0
C8 C 0.50488 0.167 0.96971 0.0
C9 C 0.45915 0.16771 0.10715 0.0
C10 C 0.49624 0.2328 0.09014 0.0
C11 C 0.42748 0.2241 0.15048 0.0
C12 C 0.40568 0.22368 0.15937 0.0
C13 C 0.40091 0.22094 0.18899 0.0
C14 C 0.38042 0.22265 0.1985 0.0
C15 C 0.36439 0.22717 0.17844 0.0
C16 C 0.36908 0.22834 0.14839 0.0
C17 C 0.38965 0.2266 0.13889 0.0
C18 C 0.45497 0.24225 0.05524 0.0
C19 C 0.41717 0.19909 0.04893 0.0
O20 O 0.47067 0.17733 0.01678 0.0
O21 O 0.49835 0.1832 0.04307 0.0
O22 O 0.46743 0.18586 0.10864 0.0
O23 O 0.45405 0.16426 0.08023 0.0
O24 O 0.49338 0.22091 0.06649 0.0
O25 O 0.48204 0.23146 0.11117 0.0
O26 O 0.43575 0.20598 0.14466 0.0
O27 O 0.43283 0.23863 0.1319 0.0
O28 O 0.4491 0.22347 0.05378 0.0
O29 O 0.45659 0.24868 0.08221 0.0
O30 O 0.41831 0.20642 0.07627 0.0
O31 O 0.43497 0.19442 0.03573 0.0
H32 H 0.50787 0.21416 0.00441 0.0
H33 H 0.52701 0.223 0.95954 0.0
H34 H 0.51785 0.16 0.92771 0.0
H35 H 0.49882 0.15132 0.97244 0.0
H36 H 0.41316 0.21843 0.20495 0.0
H37 H 0.37742 0.22199 0.22184 0.0
H38 H 0.35702 0.23171 0.13248 0.0
H39 H 0.39311 0.22842 0.1158 0.0
Sm40 Sm 0.69939 0.71297 0.3116 0.0
Sm41 Sm 0.67695 0.69237 0.35337 0.0
C42 C 0.71753 0.7373 0.27199 0.0
C43 C 0.71253 0.74896 0.24528 0.0
C44 C 0.69186 0.75255 0.23671 0.0
C45 C 0.68762 0.76348 0.21081 0.0
C46 C 0.70401 0.77079 0.19309 0.0
C47 C 0.72465 0.76712 0.20195 0.0
C48 C 0.72885 0.7563 0.2278 0.0
C49 C 0.72617 0.70199 0.35863 0.0
C50 C 0.66002 0.74018 0.34288 0.0
C51 C 0.66422 0.67166 0.40021 0.0
C52 C 0.6452 0.67262 0.41774 0.0
C53 C 0.6409 0.65686 0.43802 0.0
C54 C 0.62197 0.65676 0.45298 0.0
C55 C 0.60705 0.67245 0.44786 0.0
C56 C 0.61174 0.68858 0.42806 0.0
C57 C 0.63068 0.68864 0.41307 0.0
C58 C 0.65141 0.70035 0.3064 0.0
C59 C 0.69569 0.66255 0.29949 0.0
O60 O 0.71677 0.717 0.26994 0.0
O61 O 0.70971 0.74431 0.29651 0.0
O62 O 0.708 0.70991 0.36114 0.0
O63 O 0.7296 0.6988 0.33115 0.0
O64 O 0.67343 0.73906 0.32071 0.0
O65 O 0.65978 0.72437 0.36165 0.0
O66 O 0.66183 0.66471 0.37351 0.0
O67 O 0.67628 0.68807 0.40163 0.0
O68 O 0.67012 0.69461 0.3046 0.0
O69 O 0.64506 0.70066 0.3334 0.0
O70 O 0.6903 0.66282 0.32768 0.0
O71 O 0.69821 0.68087 0.28636 0.0
H72 H 0.67908 0.74683 0.24995 0.0
H73 H 0.67158 0.76596 0.20443 0.0
H74 H 0.73761 0.77284 0.18906 0.0
H75 H 0.74488 0.75365 0.23416 0.0
H76 H 0.65191 0.64433 0.44167 0.0
H77 H 0.61869 0.64386 0.46762 0.0
H78 H 0.60065 0.70093 0.42378 0.0
H79 H 0.63379 0.70092 0.39736 0.0
Sm80 Sm 0.18349 0.94362 0.56452 0.0
Sm81 Sm 0.20522 0.92187 0.6062 0.0
C82 C 0.16672 0.96316 0.51898 0.0
C83 C 0.15358 0.95876 0.49321 0.0
C84 C 0.15861 0.94307 0.4728 0.0
C85 C 0.14586 0.93964 0.44835 0.0
C86 C 0.12779 0.95165 0.44417 0.0
C87 C 0.12276 0.96715 0.4648 0.0
C88 C 0.13557 0.97071 0.489 0.0
C89 C 0.18737 0.96833 0.61591 0.0
C90 C 0.15599 0.9049 0.5943 0.0
C91 C 0.21888 0.91074 0.65863 0.0
C92 C 0.23687 0.91566 0.67719 0.0
C93 C 0.25583 0.92192 0.66472 0.0
C94 C 0.27344 0.92443 0.68234 0.0
C95 C 0.27232 0.92085 0.71272 0.0
C96 C 0.25293 0.9159 0.72528 0.0
C97 C 0.23537 0.91325 0.7076 0.0
C98 C 0.20518 0.89963 0.55521 0.0
C99 C 0.23562 0.9406 0.55584 0.0
O100 O 0.18572 0.95593 0.51907 0.0
O101 O 0.15767 0.96166 0.54446 0.0
O102 O 0.20182 0.95776 0.6038 0.0
O103 O 0.17024 0.96432 0.60215 0.0
O104 O 0.15705 0.9181 0.57184 0.0
O105 O 0.17222 0.90472 0.61255 0.0
O106 O 0.20544 0.9258 0.65468 0.0
O107 O 0.22282 0.90024 0.63469 0.0
O108 O 0.18964 0.90924 0.56544 0.0
O109 O 0.22107 0.9003 0.57288 0.0
O110 O 0.23565 0.93359 0.58318 0.0
O111 O 0.21735 0.94484 0.54345 0.0
H112 H 0.17237 0.93352 0.47566 0.0
H113 H 0.15002 0.92751 0.43285 0.0
H114 H 0.1091 0.97684 0.46193 0.0
H115 H 0.13144 0.98291 0.50442 0.0
H116 H 0.2572 0.92408 0.64125 0.0
H117 H 0.28814 0.92804 0.6719 0.0
H118 H 0.25149 0.91337 0.74866 0.0
H119 H 0.22076 0.90869 0.71759 0.0
Sm120 Sm 0.95084 0.42777 0.81675 0.0
Sm121 Sm 0.97356 0.45136 0.85681 0.0
C122 C 0.93094 0.40969 0.7725 0.0
C123 C 0.93581 0.39917 0.74471 0.0
C124 C 0.95207 0.40604 0.72654 0.0
C125 C 0.95615 0.39577 0.70006 0.0
C126 C 0.9441 0.37841 0.69146 0.0
C127 C 0.92813 0.37142 0.71014 0.0
C128 C 0.924 0.38176 0.73642 0.0
C129 C 0.9275 0.43248 0.86902 0.0
C130 C 0.99018 0.40179 0.84766 0.0
C131 C 0.9858 0.47012 0.9055 0.0
C132 C 0.98472 0.49203 0.91528 0.0
C133 C 0.97727 0.49687 0.94335 0.0
C134 C 0.97606 0.51768 0.95261 0.0
C135 C 0.98244 0.53402 0.93399 0.0
C136 C 0.98951 0.52903 0.90565 0.0
C137 C 0.99048 0.50831 0.89633 0.0
C138 C 0.99387 0.44969 0.80435 0.0
C139 C 0.95405 0.47981 0.80435 0.0
O140 O 0.93449 0.42976 0.77398 0.0
O141 O 0.93624 0.3998 0.79635 0.0
O142 O 0.93776 0.44677 0.85594 0.0
O143 O 0.93101 0.41509 0.85555 0.0
O144 O 0.97724 0.40236 0.82485 0.0
O145 O 0.9898 0.41818 0.86583 0.0
O146 O 0.96801 0.46028 0.90338 0.0
O147 O 0.99827 0.46621 0.88357 0.0
O148 O 0.98478 0.43456 0.81647 0.0
O149 O 0.99376 0.46634 0.82077 0.0
O150 O 0.96147 0.48076 0.83145 0.0
O151 O 0.94983 0.46104 0.79313 0.0
H152 H 0.96151 0.41939 0.73269 0.0
H153 H 0.96849 0.40163 0.68615 0.0
H154 H 0.91888 0.35783 0.70459 0.0
H155 H 0.91155 0.37612 0.75034 0.0
H156 H 0.97243 0.48455 0.95812 0.0
H157 H 0.97024 0.52094 0.97441 0.0
H158 H 0.99493 0.54106 0.89084 0.0
H159 H 0.99598 0.50506 0.87435 0.0
Sm160 Sm 0.70194 0.92763 0.8919 0.0
Sm161 Sm 0.68178 0.95009 0.93261 0.0
C162 C 0.72747 0.91808 0.84821 0.0
C163 C 0.74942 0.912 0.84681 0.0
C164 C 0.75896 0.90871 0.81966 0.0
C165 C 0.77977 0.90249 0.81833 0.0
C166 C 0.79144 0.89965 0.84421 0.0
C167 C 0.78181 0.90339 0.87139 0.0
C168 C 0.76095 0.90933 0.87266 0.0
C169 C 0.69542 0.90213 0.93939 0.0
C170 C 0.73163 0.94616 0.94732 0.0
C171 C 0.65614 0.96793 0.97072 0.0
C172 C 0.64422 0.96247 -0.00291 0.0
C173 C 0.6518 0.94801 0.0176 0.0
C174 C 0.64057 0.94386 0.0432 0.0
C175 C 0.62153 0.95402 0.0486 0.0
C176 C 0.61379 0.96801 0.02747 0.0
C177 C 0.62507 0.97222 0.00203 0.0
C178 C 0.69143 0.97627 0.88434 0.0
C179 C 0.65474 0.91094 0.90096 0.0
O180 O 0.72392 0.9372 0.8568 0.0
O181 O 0.715 0.9046 0.86045 0.0
O182 O 0.70049 0.92114 0.94096 0.0
O183 O 0.69517 0.89554 0.9125 0.0
O184 O 0.73143 0.93846 0.92022 0.0
O185 O 0.71334 0.95068 0.95918 0.0
O186 O 0.67636 0.96833 0.97323 0.0
O187 O 0.64989 0.95961 0.94611 0.0
O188 O 0.68348 0.95794 0.88265 0.0
O189 O 0.69574 0.97992 0.9115 0.0
O190 O 0.65698 0.92281 0.9247 0.0
O191 O 0.66934 0.91265 0.88051 0.0
H192 H 0.75023 0.91063 0.79951 0.0
H193 H 0.78651 0.89933 0.79704 0.0
H194 H 0.79033 0.90159 0.89173 0.0
H195 H 0.75378 0.91159 0.89385 0.0
H196 H 0.66652 0.94018 0.01405 0.0
H197 H 0.64706 0.93312 0.05907 0.0
H198 H 0.59898 0.97576 0.03059 0.0
H199 H 0.6189 0.98328 0.98629 0.0
Sm200 Sm 0.46936 0.45357 0.6389 0.0
Sm201 Sm 0.44865 0.43235 0.68371 0.0
C202 C 0.47779 0.47179 0.58833 0.0
C203 C 0.47949 0.49369 0.57835 0.0
C204 C 0.46157 0.50503 0.57051 0.0
C205 C 0.46305 0.52598 0.5623 0.0
C206 C 0.48248 0.53601 0.56163 0.0
C207 C 0.50043 0.52456 0.56891 0.0
C208 C 0.49895 0.50362 0.57712 0.0
C209 C 0.4918 0.45649 0.68979 0.0
C210 C 0.45139 0.48304 0.69348 0.0
C211 C 0.43272 0.40784 0.7246 0.0
C212 C 0.43948 0.3928 0.74705 0.0
C213 C 0.45561 0.39764 0.76677 0.0
C214 C 0.46014 0.38422 0.79003 0.0
C215 C 0.44874 0.36564 0.79389 0.0
C216 C 0.43334 0.36038 0.77317 0.0
C217 C 0.4287 0.3739 0.75007 0.0
C218 C 0.42069 0.44367 0.63827 0.0
C219 C 0.4879 0.40586 0.65005 0.0
O220 O 0.45916 0.46552 0.59582 0.0
O221 O 0.4923 0.46484 0.60595 0.0
O222 O 0.48246 0.44037 0.68085 0.0
O223 O 0.49038 0.47177 0.67112 0.0
O224 O 0.45531 0.48267 0.66476 0.0
O225 O 0.45013 0.46492 0.70738 0.0
O226 O 0.43774 0.42741 0.72902 0.0
O227 O 0.43426 0.40212 0.69713 0.0
O228 O 0.43851 0.43523 0.63506 0.0
O229 O 0.41829 0.44763 0.66581 0.0
O230 O 0.47391 0.40612 0.67171 0.0
O231 O 0.4885 0.42229 0.63223 0.0
H232 H 0.44631 0.49782 0.57096 0.0
H233 H 0.44897 0.53439 0.55682 0.0
H234 H 0.51569 0.53172 0.5679 0.0
H235 H 0.51305 0.49524 0.58265 0.0
H236 H 0.46427 0.4121 0.76483 0.0
H237 H 0.47198 0.38886 0.80565 0.0
H238 H 0.42458 0.34599 0.7751 0.0
H239 H 0.4163 0.36982 0.73498 0.0
Sm240 Sm 0.94584 0.22266 0.39049 0.0
Sm241 Sm 0.9658 0.20111 0.43388 0.0
C242 C 0.92307 0.23045 0.34329 0.0
C243 C 0.90219 0.22475 0.33289 0.0
C244 C 0.89833 0.22341 0.30274 0.0
C245 C 0.87816 0.21978 0.29248 0.0
C246 C 0.86154 0.2175 0.3123 0.0
C247 C 0.86571 0.21772 0.34255 0.0
C248 C 0.88588 0.22129 0.35277 0.0
C249 C 0.95263 0.24925 0.4365 0.0
C250 C 0.91568 0.20456 0.44496 0.0
C251 C 0.98969 0.18364 0.47453 0.0
C252 C 1.00038 0.18888 0.50196 0.0
C253 C 1.00466 0.20967 0.50978 0.0
C254 C 1.01493 0.21411 0.53617 0.0
C255 C 1.02086 0.19783 0.55511 0.0
C256 C 1.01636 0.17708 0.54709 0.0
C257 C 1.00622 0.17267 0.52077 0.0
C258 C 0.95632 0.17383 0.38666 0.0
C259 C 0.99322 0.24001 0.40196 0.0
O260 O 0.93665 0.21534 0.34452 0.0
O261 O 0.92388 0.2428 0.36604 0.0
O262 O 0.94701 0.23042 0.43906 0.0
O263 O 0.95371 0.25503 0.40923 0.0
O264 O 0.91623 0.20987 0.41674 0.0
O265 O 0.93376 0.2023 0.45857 0.0
O266 O 0.96942 0.18348 0.47546 0.0
O267 O 0.99698 0.19199 0.45053 0.0
O268 O 0.96433 0.19206 0.38447 0.0
O269 O 0.95218 0.17061 0.41392 0.0
O270 O 0.99132 0.22758 0.42517 0.0
O271 O 0.97827 0.23907 0.38179 0.0
H272 H 0.91078 0.22591 0.28712 0.0
H273 H 0.8754 0.21999 0.26906 0.0
H274 H 0.85322 0.21589 0.3583 0.0
H275 H 0.88858 0.22207 0.37617 0.0
H276 H 1.00009 0.22239 0.49552 0.0
H277 H 1.01808 0.23025 0.54186 0.0
H278 H 1.02104 0.16417 0.56094 0.0
H279 H 1.00301 0.15655 0.51501 0.0
Sm280 Sm 0.17556 0.69422 0.13891 0.0
Sm281 Sm 0.19733 0.71631 0.17784 0.0
C282 C 0.16064 0.68223 0.08748 0.0
C283 C 0.14048 0.68462 0.07283 0.0
C284 C 0.13865 0.6805 0.04279 0.0
C285 C 0.11903 0.68014 0.02955 0.0
C286 C 0.10103 0.68371 0.04633 0.0
C287 C 0.10307 0.68905 0.07607 0.0
C288 C 0.12269 0.68963 0.0892 0.0
C289 C 0.15295 0.69441 0.1897 0.0
C290 C 0.19398 0.66463 0.18978 0.0
C291 C 0.21844 0.73328 0.22191 0.0
C292 C 0.21433 0.74422 0.24962 0.0
C293 C 0.19776 0.75836 0.25228 0.0
C294 C 0.19501 0.76964 0.27825 0.0
C295 C 0.20868 0.76683 0.30204 0.0
C296 C 0.22478 0.75205 0.29953 0.0
C297 C 0.22761 0.74092 0.27351 0.0
C298 C 0.22129 0.71215 0.12581 0.0
C299 C 0.15773 0.74324 0.15039 0.0
O300 O 0.16048 0.67042 0.1108 0.0
O301 O 0.17164 0.69926 0.09093 0.0
O302 O 0.16289 0.70997 0.17998 0.0
O303 O 0.15337 0.67876 0.17159 0.0
O304 O 0.1876 0.66402 0.1622 0.0
O305 O 0.19774 0.68326 0.20149 0.0
O306 O 0.21357 0.71351 0.22085 0.0
O307 O 0.21372 0.74323 0.19789 0.0
O308 O 0.21132 0.69764 0.13875 0.0
O309 O 0.21681 0.7295 0.13882 0.0
O310 O 0.17187 0.74288 0.17165 0.0
O311 O 0.1569 0.72644 0.13317 0.0
H312 H 0.15227 0.6767 0.02987 0.0
H313 H 0.11784 0.67576 0.00666 0.0
H314 H 0.08942 0.69192 0.08941 0.0
H315 H 0.12389 0.69306 0.11242 0.0
H316 H 0.18722 0.76102 0.23412 0.0
H317 H 0.18256 0.781 0.27932 0.0
H318 H 0.23531 0.74917 0.31762 0.0
H319 H 0.24036 0.72992 0.27189 0.0
Sm320 Sm 0.96596 0.69568 0.56307 0.0
Sm321 Sm 0.94377 0.71701 0.60368 0.0
C322 C 0.98271 0.67605 0.51752 0.0
C323 C 0.99399 0.68097 0.49037 0.0
C324 C 1.0081 0.69771 0.48899 0.0
C325 C 1.0197 0.70118 0.46353 0.0
C326 C 1.0173 0.68805 0.43896 0.0
C327 C 1.00256 0.67178 0.4402 0.0
C328 C 0.99108 0.66825 0.4657 0.0
C329 C 0.96183 0.67074 0.61431 0.0
C330 C 0.99273 0.73501 0.5928 0.0
C331 C 0.93173 0.72974 0.65619 0.0
C332 C 0.93492 0.74732 0.67672 0.0
C333 C 0.94608 0.74424 0.70285 0.0
C334 C 0.94704 0.75999 0.72408 0.0
C335 C 0.93667 0.77907 0.7197 0.0
C336 C 0.92638 0.78244 0.69287 0.0
C337 C 0.92553 0.76678 0.67163 0.0
C338 C 0.94398 0.73995 0.55319 0.0
C339 C 0.9141 0.69853 0.55261 0.0
O340 O 0.96315 0.68141 0.51862 0.0
O341 O 0.99253 0.67951 0.5421 0.0
O342 O 0.94743 0.68116 0.60188 0.0
O343 O 0.97903 0.67492 0.6009 0.0
O344 O 0.99238 0.72122 0.57097 0.0
O345 O 0.97598 0.73557 0.61 0.0
O346 O 0.92129 0.73349 0.63215 0.0
O347 O 0.94737 0.71697 0.65217 0.0
O348 O 0.95948 0.73014 0.56317 0.0
O349 O 0.92827 0.73936 0.57107 0.0
O350 O 0.91372 0.70468 0.58033 0.0
O351 O 0.93257 0.69509 0.54043 0.0
H352 H 1.01046 0.70783 0.50778 0.0
H353 H 1.031 0.71375 0.46345 0.0
H354 H 0.99997 0.66165 0.42151 0.0
H355 H 0.98013 0.65537 0.4663 0.0
H356 H 0.95347 0.72937 0.70733 0.0
H357 H 0.95529 0.75695 0.74434 0.0
H358 H 0.91785 0.79673 0.68885 0.0
H359 H 0.91677 0.76969 0.65176 0.0
Sm360 Sm 0.20009 0.21306 0.81173 0.0
Sm361 Sm 0.1785 0.19289 0.85437 0.0
C362 C 0.21723 0.23782 0.77169 0.0
C363 C 0.2121 0.24893 0.74451 0.0
C364 C 0.19142 0.25258 0.73605 0.0
C365 C 0.18713 0.26324 0.70991 0.0
C366 C 0.20347 0.2702 0.69182 0.0
C367 C 0.22412 0.26636 0.70051 0.0
C368 C 0.22837 0.25583 0.72658 0.0
C369 C 0.22708 0.20406 0.85931 0.0
C370 C 0.16169 0.24021 0.84482 0.0
C371 C 0.17073 0.16757 0.89887 0.0
C372 C 0.16447 0.14552 0.90131 0.0
C373 C 0.17513 0.1323 0.92066 0.0
C374 C 0.16959 0.11123 0.92288 0.0
C375 C 0.15318 0.10315 0.90593 0.0
C376 C 0.14274 0.11634 0.88623 0.0
C377 C 0.14843 0.13731 0.88377 0.0
C378 C 0.15232 0.19921 0.80778 0.0
C379 C 0.19569 0.16257 0.79882 0.0
O380 O 0.21756 0.21749 0.77018 0.0
O381 O 0.20878 0.24471 0.79585 0.0
O382 O 0.20879 0.21181 0.86149 0.0
O383 O 0.2304 0.19984 0.83207 0.0
O384 O 0.17322 0.23801 0.82081 0.0
O385 O 0.16361 0.22564 0.86536 0.0
O386 O 0.18944 0.17088 0.88875 0.0
O387 O 0.157 0.1805 0.88818 0.0
O388 O 0.17117 0.194 0.80572 0.0
O389 O 0.14609 0.19931 0.83483 0.0
O390 O 0.18819 0.16298 0.82601 0.0
O391 O 0.20016 0.18081 0.78651 0.0
H392 H 0.17865 0.2472 0.74961 0.0
H393 H 0.17107 0.26584 0.70371 0.0
H394 H 0.23706 0.27181 0.68737 0.0
H395 H 0.24442 0.25313 0.73282 0.0
H396 H 0.18768 0.1383 0.93416 0.0
H397 H 0.17774 0.1014 0.93842 0.0
H398 H 0.13013 0.11041 0.87278 0.0
H399 H 0.14022 0.14708 0.86824 0.0
Sm400 Sm 0.68356 0.44533 0.06176 0.0
Sm401 Sm 0.70382 0.42288 0.10306 0.0
C402 C 0.65877 0.46418 0.02348 0.0
C403 C 0.64516 0.46007 -0.00183 0.0
C404 C 0.65118 0.44666 0.97531 0.0
C405 C 0.63848 0.44428 0.95059 0.0
C406 C 0.61952 0.45514 0.94848 0.0
C407 C 0.61335 0.46811 0.97179 0.0
C408 C 0.62609 0.47058 0.99635 0.0
C409 C 0.69468 0.47216 0.10885 0.0
C410 C 0.65656 0.40516 0.09142 0.0
C411 C 0.72516 0.40989 0.14929 0.0
C412 C 0.72749 0.38966 0.16385 0.0
C413 C 0.73898 0.38819 0.18982 0.0
C414 C 0.74277 0.36866 0.20235 0.0
C415 C 0.73524 0.35031 0.1889 0.0
C416 C 0.72296 0.35201 0.16351 0.0
C417 C 0.71909 0.37155 0.15112 0.0
C418 C 0.69648 0.39707 0.05595 0.0
C419 C 0.73359 0.44219 0.04955 0.0
O420 O 0.67877 0.46192 0.01968 0.0
O421 O 0.65241 0.45752 0.04898 0.0
O422 O 0.68659 0.454 0.11134 0.0
O423 O 0.69831 0.47539 0.08142 0.0
O424 O 0.6578 0.4188 0.06951 0.0
O425 O 0.67212 0.40499 0.11055 0.0
O426 O 0.73296 0.41099 0.12294 0.0
O427 O 0.70686 0.41858 0.15125 0.0
O428 O 0.70187 0.41596 0.0541 0.0
O429 O 0.6962 0.39079 0.08294 0.0
O430 O 0.73325 0.43652 0.07762 0.0
O431 O 0.71538 0.44484 0.03636 0.0
H432 H 0.66579 0.43827 0.97634 0.0
H433 H 0.6435 0.434 0.9331 0.0
H434 H 0.59896 0.47685 0.97067 0.0
H435 H 0.62122 0.48104 0.01374 0.0
H436 H 0.74542 0.40207 0.20002 0.0
H437 H 0.75197 0.36789 0.22222 0.0
H438 H 0.7171 0.33821 0.15246 0.0
H439 H 0.71008 0.37246 0.13111 0.0
Sm440 Sm 0.45067 0.93012 0.31537 0.0
Sm441 Sm 0.47311 0.94986 0.35707 0.0
C442 C 0.43266 0.90558 0.27577 0.0
C443 C 0.43773 0.89519 0.24807 0.0
C444 C 0.45843 0.89239 0.23911 0.0
C445 C 0.46278 0.88274 0.21225 0.0
C446 C 0.44645 0.87597 0.19396 0.0
C447 C 0.42578 0.87887 0.20316 0.0
C448 C 0.42148 0.88839 0.22998 0.0
C449 C 0.4244 0.93916 0.3636 0.0
C450 C 0.4894 0.90247 0.34683 0.0
C451 C 0.48137 0.97501 0.40177 0.0
C452 C 0.48493 0.99758 0.40424 0.0
C453 C 0.47968 1.00803 0.43019 0.0
C454 C 0.48263 1.0296 0.43253 0.0
C455 C 0.49093 1.041 0.40893 0.0
C456 C 0.49581 1.03051 0.38275 0.0
C457 C 0.49274 1.00897 0.38037 0.0
C458 C 0.4985 0.94334 0.30973 0.0
C459 C 0.45556 0.98041 0.30213 0.0
O460 O 0.43184 0.92591 0.27496 0.0
O461 O 0.44182 0.89854 0.29932 0.0
O462 O 0.44267 0.93125 0.36527 0.0
O463 O 0.42085 0.94369 0.33653 0.0
O464 O 0.47732 0.90476 0.32336 0.0
O465 O 0.48816 0.91711 0.36743 0.0
O466 O 0.46252 0.96953 0.39435 0.0
O467 O 0.49562 0.9643 0.38801 0.0
O468 O 0.47969 0.94883 0.30823 0.0
O469 O 0.50504 0.94265 0.33667 0.0
O470 O 0.46344 0.97993 0.32912 0.0
O471 O 0.45058 0.96221 0.29003 0.0
H472 H 0.47117 0.89775 0.25281 0.0
H473 H 0.47884 0.88081 0.20562 0.0
H474 H 0.41289 0.87352 0.18977 0.0
H475 H 0.40542 0.89048 0.23661 0.0
H476 H 0.47342 0.99948 0.44868 0.0
H477 H 0.47897 1.03726 0.45307 0.0
H478 H 0.50207 1.03895 0.36416 0.0
H479 H 0.49655 1.00121 0.35995 0.0
Sm480 Sm 0.19908 0.43115 0.39441 0.0
Sm481 Sm 0.18009 0.45253 0.4364 0.0
C482 C 0.22274 0.42443 0.34795 0.0
C483 C 0.24186 0.41302 0.34216 0.0
C484 C 0.24818 0.41002 0.31319 0.0
C485 C 0.26387 0.39574 0.30685 0.0
C486 C 0.27332 0.38425 0.32951 0.0
C487 C 0.26814 0.38871 0.35878 0.0
C488 C 0.25241 0.403 0.36508 0.0
C489 C 0.19411 0.40401 0.44036 0.0
C490 C 0.23027 0.44795 0.44915 0.0
C491 C 0.15494 0.47048 0.47498 0.0
C492 C 0.1402 0.46408 0.49762 0.0
C493 C 0.13713 0.44291 0.50424 0.0
C494 C 0.12294 0.43713 0.52599 0.0
C495 C 0.11164 0.45248 0.54127 0.0
C496 C 0.11478 0.47366 0.53432 0.0
C497 C 0.12894 0.47939 0.51264 0.0
C498 C 0.1893 0.47942 0.3889 0.0
C499 C 0.15263 0.41334 0.40548 0.0
O500 O 0.22449 0.44097 0.36452 0.0
O501 O 0.20676 0.41281 0.35473 0.0
O502 O 0.19858 0.42312 0.44306 0.0
O503 O 0.19418 0.39814 0.4131 0.0
O504 O 0.22937 0.43911 0.42273 0.0
O505 O 0.21244 0.45418 0.46089 0.0
O506 O 0.17451 0.46659 0.48021 0.0
O507 O 0.14952 0.46624 0.44806 0.0
O508 O 0.18076 0.46144 0.38707 0.0
O509 O 0.19467 0.48243 0.41588 0.0
O510 O 0.15524 0.42508 0.42928 0.0
O511 O 0.16671 0.41543 0.38447 0.0
H512 H 0.2401 0.4177 0.29534 0.0
H513 H 0.26731 0.39249 0.28406 0.0
H514 H 0.27533 0.38021 0.37664 0.0
H515 H 0.24764 0.4053 0.38764 0.0
H516 H 0.14572 0.43091 0.49265 0.0
H517 H 0.12075 0.4207 0.53076 0.0
H518 H 0.10661 0.48586 0.54607 0.0
H519 H 0.1312 0.49579 0.50773 0.0
Sm520 Sm 0.97036 0.95457 0.14237 0.0
Sm521 Sm 0.94912 0.93257 0.18358 0.0
C522 C 0.98321 0.96597 0.0897 0.0
C523 C 1.00178 0.96234 0.07176 0.0
C524 C 1.00061 0.96458 0.04127 0.0
C525 C 1.01865 0.96346 0.02428 0.0
C526 C 1.0381 0.96026 0.03765 0.0
C527 C 1.03904 0.95684 0.06804 0.0
C528 C 1.02097 0.95775 0.08498 0.0
C529 C 0.99374 0.9543 0.19246 0.0
C530 C 0.95249 0.98469 0.19341 0.0
C531 C 0.9296 0.91582 0.22921 0.0
C532 C 0.93417 0.90387 0.25597 0.0
C533 C 0.94989 0.88866 0.25658 0.0
C534 C 0.9528 0.87635 0.28158 0.0
C535 C 0.94011 0.87911 0.30643 0.0
C536 C 0.92491 0.89493 0.30597 0.0
C537 C 0.92194 0.90712 0.28095 0.0
C538 C 0.92423 0.93655 0.13235 0.0
C539 C 0.98798 0.90542 0.15375 0.0
O540 O 0.986 0.97728 0.11327 0.0
O541 O 0.9711 0.94983 0.09404 0.0
O542 O 0.98345 0.93889 0.18298 0.0
O543 O 0.99349 0.96985 0.17418 0.0
O544 O 0.95859 0.98492 0.16568 0.0
O545 O 0.94879 0.96624 0.20573 0.0
O546 O 0.93575 0.93525 0.22854 0.0
O547 O 0.93234 0.90619 0.20429 0.0
O548 O 0.93467 0.95105 0.14468 0.0
O549 O 0.92836 0.91932 0.14585 0.0
O550 O 0.9745 0.90605 0.17585 0.0
O551 O 0.98842 0.92205 0.1362 0.0
H552 H 0.98588 0.968 0.03076 0.0
H553 H 1.01753 0.96638 0.00094 0.0
H554 H 1.05384 0.95427 0.07881 0.0
H555 H 1.02209 0.95569 0.1085 0.0
H556 H 0.95961 0.88598 0.23755 0.0
H557 H 0.96454 0.86424 0.28105 0.0
H558 H 0.91517 0.89781 0.32491 0.0
H559 H 0.90984 0.91889 0.28094 0.0
Sm560 Sm 0.44447 0.72289 0.88966 0.0
Sm561 Sm 0.46507 0.70053 0.93092 0.0
C562 C 0.42289 0.73613 0.84385 0.0
C563 C 0.42125 0.75639 0.82915 0.0
C564 C 0.40339 0.76106 0.81292 0.0
C565 C 0.40059 0.78107 0.8015 0.0
C566 C 0.41564 0.79677 0.80611 0.0
C567 C 0.43383 0.7918 0.82176 0.0
C568 C 0.43658 0.77177 0.83328 0.0
C569 C 0.45213 0.74872 0.93667 0.0
C570 C 0.41506 0.70378 0.94362 0.0
C571 C 0.49001 0.68257 0.9698 0.0
C572 C 0.50248 0.68792 0.99577 0.0
C573 C 0.49531 0.70216 0.01692 0.0
C574 C 0.507 0.70598 0.04227 0.0
C575 C 0.52608 0.6957 0.0468 0.0
C576 C 0.53345 0.682 0.02501 0.0
C577 C 0.52172 0.67811 -0.00018 0.0
C578 C 0.45379 0.67355 0.88406 0.0
C579 C 0.49193 0.74052 0.90045 0.0
O580 O 0.4154 0.73557 0.8704 0.0
O581 O 0.44074 0.72653 0.84152 0.0
O582 O 0.44681 0.72983 0.93852 0.0
O583 O 0.45212 0.75508 0.90969 0.0
O584 O 0.41526 0.70888 0.91533 0.0
O585 O 0.43337 0.70164 0.95674 0.0
O586 O 0.46981 0.68338 0.97255 0.0
O587 O 0.49653 0.68978 0.94467 0.0
O588 O 0.46178 0.69177 0.88139 0.0
O589 O 0.45056 0.67028 0.91157 0.0
O590 O 0.49084 0.72691 0.92241 0.0
O591 O 0.47619 0.74071 0.8816 0.0
H592 H 0.39131 0.74942 0.80986 0.0
H593 H 0.38619 0.78444 0.7901 0.0
H594 H 0.44577 0.80346 0.82551 0.0
H595 H 0.45042 0.76844 0.84601 0.0
H596 H 0.48053 0.71004 0.01411 0.0
H597 H 0.50079 0.71652 0.05866 0.0
H598 H 0.54828 0.67418 0.02746 0.0
H599 H 0.52758 0.66721 0.98361 0.0
Sm600 Sm 0.67547 0.19318 0.63573 0.0
Sm601 Sm 0.69702 0.21559 0.67653 0.0
C602 C 0.66274 0.18142 0.58309 0.0
C603 C 0.64479 0.18485 0.56367 0.0
C604 C 0.6481 0.18823 0.53369 0.0
C605 C 0.63124 0.1894 0.5144 0.0
C606 C 0.61076 0.18697 0.52476 0.0
C607 C 0.6075 0.18478 0.55512 0.0
C608 C 0.62435 0.18383 0.5744 0.0
C609 C 0.65281 0.1937 0.68623 0.0
C610 C 0.69359 0.16353 0.68725 0.0
C611 C 0.71717 0.23276 0.72135 0.0
C612 C 0.71292 0.24394 0.74886 0.0
C613 C 0.69688 0.2378 0.76789 0.0
C614 C 0.69347 0.24873 0.79405 0.0
C615 C 0.70596 0.26606 0.80146 0.0
C616 C 0.72174 0.27229 0.78196 0.0
C617 C 0.72522 0.26128 0.75603 0.0
C618 C 0.72137 0.21154 0.62498 0.0
C619 C 0.65749 0.24236 0.64749 0.0
O620 O 0.6594 0.17052 0.60686 0.0
O621 O 0.67516 0.19736 0.5873 0.0
O622 O 0.66285 0.20904 0.67624 0.0
O623 O 0.65283 0.17793 0.66823 0.0
O624 O 0.68752 0.16308 0.65946 0.0
O625 O 0.69718 0.18212 0.69937 0.0
O626 O 0.71229 0.21297 0.72009 0.0
O627 O 0.71282 0.24276 0.69724 0.0
O628 O 0.71119 0.19702 0.63757 0.0
O629 O 0.71713 0.22882 0.6383 0.0
O630 O 0.67138 0.24196 0.66915 0.0
O631 O 0.65683 0.22557 0.63011 0.0
H632 H 0.66377 0.18932 0.52506 0.0
H633 H 0.6343 0.19148 0.49124 0.0
H634 H 0.59201 0.18261 0.56393 0.0
H635 H 0.62139 0.1815 0.59755 0.0
H636 H 0.68706 0.22453 0.76264 0.0
H637 H 0.68128 0.24343 0.80863 0.0
H638 H 0.73134 0.28582 0.78657 0.0
H639 H 0.73754 0.26637 0.74147 0.0
H640 H 0.52899 0.24082 0.05092 0.0
H641 H 0.55503 0.26908 0.05131 0.0
H642 H 0.52911 0.2927 0.13168 0.0
H643 H 0.50314 0.26454 0.13135 0.0
H644 H 0.58705 0.28188 0.08635 0.0
H645 H 0.53047 0.34668 0.08698 0.0
H646 H 0.52702 0.3291 0.1172 0.0
H647 H 0.52271 0.31998 0.08034 0.0
C648 C 0.52877 0.2519 0.06889 0.0
C649 C 0.51351 0.2498 0.09118 0.0
C650 C 0.54389 0.26835 0.06907 0.0
C651 C 0.54443 0.28393 0.09124 0.0
C652 C 0.52933 0.28166 0.11369 0.0
H653 H 0.62057 0.40031 0.05688 0.0
H654 H 0.59455 0.372 0.05681 0.0
C655 C 0.51435 0.26512 0.11366 0.0
C656 C 0.56062 0.30216 0.09098 0.0
H657 H 0.56583 0.35602 0.09491 0.0
C658 C 0.58219 0.29803 0.08828 0.0
C659 C 0.5551 0.32375 0.09296 0.0
C660 C 0.53258 0.33025 0.09424 0.0
C661 C 0.59778 0.31414 0.0882 0.0
C662 C 0.5923 0.3357 0.09108 0.0
C663 C 0.57069 0.33986 0.09306 0.0
C664 C 0.60852 0.35388 0.09166 0.0
C665 C 0.62017 0.30777 0.08423 0.0
C666 C 0.62553 0.35429 0.11151 0.0
C667 C 0.6405 0.37083 0.1118 0.0
C668 C 0.63943 0.38801 0.09222 0.0
C669 C 0.62231 0.38774 0.07255 0.0
C670 C 0.6072 0.37127 0.07248 0.0
H671 H 0.62147 0.29213 0.0738 0.0
H672 H 0.62875 0.31926 0.07058 0.0
H673 H 0.62782 0.30696 0.10601 0.0
H674 H 0.62727 0.34177 0.12723 0.0
H675 H 0.6532 0.36996 0.12737 0.0
H676 H 0.65613 0.77765 0.31105 0.0
H677 H 0.6286 0.80429 0.31285 0.0
H678 H 0.59634 0.7682 0.37816 0.0
H679 H 0.62424 0.74229 0.37742 0.0
H680 H 0.59125 0.80976 0.30013 0.0
H681 H 0.58775 0.82003 0.41972 0.0
H682 H 0.60777 0.80458 0.40272 0.0
H683 H 0.58251 0.79339 0.41026 0.0
C684 C 0.6434 0.77547 0.32627 0.0
C685 C 0.64318 0.75754 0.34452 0.0
C686 C 0.62728 0.7909 0.3272 0.0
C687 C 0.60987 0.78932 0.3463 0.0
C688 C 0.6095 0.77108 0.36399 0.0
H689 H 0.52365 0.89768 0.38454 0.0
H690 H 0.55174 0.87169 0.38356 0.0
C691 C 0.62571 0.75583 0.36336 0.0
C692 C 0.59217 0.80615 0.34699 0.0
H693 H 0.55931 0.83409 0.39278 0.0
C694 C 0.58448 0.81498 0.32062 0.0
C695 C 0.58286 0.81408 0.37328 0.0
C696 C 0.59079 0.80772 0.40307 0.0
C697 C 0.56832 0.83046 0.3197 0.0
C698 C 0.55822 0.83752 0.34589 0.0
C699 C 0.56618 0.82899 0.3723 0.0
C700 C 0.54008 0.85387 0.34658 0.0
C701 C 0.56295 0.83965 0.29024 0.0
C702 C 0.52301 0.85329 0.32676 0.0
C703 C 0.5068 0.86858 0.32711 0.0
C704 C 0.50628 0.88512 0.34781 0.0
C705 C 0.52295 0.8854 0.36822 0.0
C706 C 0.53933 0.87026 0.36762 0.0
H707 H 0.57626 0.83851 0.27478 0.0
H708 H 0.54981 0.83077 0.28052 0.0
H709 H 0.55846 0.85634 0.29212 0.0
H710 H 0.52194 0.84082 0.31083 0.0
H711 H 0.49452 0.86734 0.31093 0.0
H712 H 0.1523 0.86967 0.63062 0.0
H713 H 0.1259 0.84184 0.6305 0.0
H714 H 0.09272 0.87376 0.56193 0.0
H715 H 0.11949 0.90104 0.56125 0.0
H716 H 0.08803 0.83508 0.64232 0.0
H717 H 0.08928 0.81962 0.52361 0.0
H718 H 0.10778 0.83695 0.54067 0.0
H719 H 0.08219 0.84618 0.53076 0.0
C720 C 0.13942 0.87089 0.6154 0.0
C721 C 0.13856 0.88811 0.59589 0.0
C722 C 0.12405 0.85468 0.61531 0.0
C723 C 0.10689 0.85463 0.59565 0.0
C724 C 0.10576 0.87222 0.57676 0.0
H725 H 1.02992 0.7389 0.56119 0.0
H726 H 1.05655 0.76644 0.5629 0.0
C727 C 0.1212 0.88831 0.57666 0.0
C728 C 0.09035 0.83664 0.59534 0.0
H729 H 1.06129 0.80428 0.55003 0.0
C730 C 0.08236 0.82846 0.62193 0.0
C731 C 0.08258 0.82692 0.56922 0.0
C732 C 0.09105 0.83269 0.53949 0.0
C733 C 1.06727 0.81191 0.62317 0.0
C734 C 1.05874 0.8029 0.59701 0.0
C735 C 1.06702 0.81082 0.57043 0.0
C736 C 1.04188 0.78521 0.59658 0.0
C737 C 1.0613 0.80377 0.653 0.0
C738 C 1.02383 0.7856 0.61455 0.0
C739 C 1.00849 0.76939 0.61388 0.0
C740 C 1.01002 0.75193 0.59484 0.0
C741 C 1.02785 0.75166 0.57653 0.0
C742 C 1.04329 0.76777 0.57739 0.0
H743 H 0.07378 0.80671 0.66937 0.0
H744 H 1.04714 0.81202 0.66066 0.0
H745 H 1.05809 0.78673 0.65243 0.0
H746 H 1.02119 0.79877 0.62893 0.0
H747 H 0.99507 0.77084 0.62808 0.0
H748 H 0.99391 0.36406 0.81696 0.0
H749 H 1.02161 0.33774 0.81813 0.0
H750 H 1.05473 0.37459 0.88199 0.0
H751 H 1.02651 0.40028 0.88191 0.0
H752 H 1.05822 0.33244 0.80372 0.0
H753 H 1.06572 0.32324 0.92313 0.0
H754 H 1.04501 0.33833 0.9072 0.0
H755 H 1.07039 0.34982 0.91291 0.0
C756 C 1.00686 0.3665 0.83178 0.0
C757 C 1.00721 0.38461 0.84976 0.0
C758 C 1.0231 0.35123 0.8323 0.0
C759 C 1.04088 0.35312 0.85069 0.0
C760 C 1.04135 0.37149 0.86829 0.0
H761 H 0.12867 0.24518 0.88461 0.0
H762 H 0.10055 0.27116 0.88524 0.0
C763 C 1.02495 0.38661 0.86808 0.0
C764 C 1.05877 0.33645 0.85056 0.0
H765 H 0.09317 0.30891 0.89456 0.0
C766 C 1.06564 0.32741 0.82384 0.0
C767 C 1.06897 0.32875 0.87633 0.0
C768 C 1.06201 0.33535 0.90651 0.0
C769 C 0.08177 0.31193 0.82209 0.0
C770 C 0.09274 0.30509 0.84771 0.0
C771 C 0.08563 0.31384 0.87448 0.0
C772 C 0.11091 0.28875 0.8474 0.0
C773 C 0.08614 0.30247 0.79244 0.0
C774 C 0.1273 0.2892 0.82651 0.0
C775 C 0.14353 0.27393 0.82594 0.0
C776 C 0.14477 0.25751 0.84671 0.0
C777 C 0.12879 0.25736 0.86816 0.0
C778 C 0.1124 0.27249 0.8685 0.0
H779 H 1.07233 0.30347 0.77784 0.0
H780 H 0.09894 0.31127 0.78177 0.0
H781 H 0.09071 0.2858 0.79425 0.0
H782 H 0.12781 0.30157 0.81042 0.0
H783 H 0.15524 0.27508 0.80898 0.0
H784 H 0.62104 0.90366 0.93856 0.0
H785 H 0.59476 0.87571 0.93778 0.0
H786 H 0.62224 0.85067 0.85932 0.0
H787 H 0.64856 0.87858 0.86009 0.0
H788 H 0.56343 0.86288 0.90277 0.0
H789 H 0.61892 0.79715 0.90437 0.0
H790 H 0.62708 0.82377 0.91059 0.0
H791 H 0.6229 0.81433 0.87384 0.0
C792 C 0.62159 0.89233 0.92093 0.0
C793 C 0.63741 0.89398 0.89934 0.0
C794 C 0.6063 0.87605 0.92051 0.0
C795 C 0.60607 0.86015 0.8988 0.0
C796 C 0.62174 0.86195 0.87699 0.0
H797 H 0.52815 0.74515 0.93454 0.0
H798 H 0.55459 0.77305 0.93397 0.0
C799 C 0.63693 0.87835 0.87725 0.0
C800 C 0.58958 0.84215 0.89894 0.0
H801 H 0.58348 0.78832 0.89616 0.0
C802 C 0.56805 0.84663 0.90124 0.0
C803 C 0.59474 0.82043 0.89751 0.0
C804 C 0.61714 0.81353 0.89674 0.0
C805 C 0.55218 0.83077 0.9015 0.0
C806 C 0.55731 0.80909 0.8992 0.0
C807 C 0.57887 0.80457 0.89756 0.0
C808 C 0.54077 0.79114 0.89897 0.0
C809 C 0.52989 0.83758 0.9051 0.0
C810 C 0.52366 0.79081 0.87926 0.0
C811 C 0.50841 0.7745 0.87937 0.0
C812 C 0.50929 0.75745 0.8992 0.0
C813 C 0.52653 0.75763 0.9187 0.0
C814 C 0.54189 0.77386 0.91839 0.0
H815 H 0.52882 0.85335 0.9152 0.0
H816 H 0.52238 0.83833 0.88321 0.0
H817 H 0.52103 0.82639 0.91888 0.0
H818 H 0.52204 0.80322 0.86335 0.0
H819 H 0.49566 0.77545 0.86389 0.0
H820 H 0.49201 0.36875 0.68244 0.0
H821 H 0.51934 0.34196 0.68074 0.0
H822 H 0.5508 0.37665 0.61322 0.0
H823 H 0.52314 0.40291 0.61414 0.0
H824 H 0.55738 0.33724 0.69276 0.0
H825 H 0.55789 0.32335 0.57369 0.0
H826 H 0.56337 0.3502 0.58163 0.0
H827 H 0.53829 0.33929 0.59084 0.0
C828 C 0.50452 0.37064 0.66678 0.0
C829 C 0.50462 0.38835 0.64809 0.0
C830 C 0.52052 0.3551 0.66591 0.0
C831 C 0.53766 0.35625 0.64631 0.0
C832 C 0.53787 0.37417 0.62796 0.0
H833 H 0.62156 0.24521 0.61244 0.0
H834 H 0.59369 0.27149 0.61282 0.0
C835 C 0.5218 0.38961 0.62866 0.0
C836 C 0.55525 0.3393 0.64579 0.0
H837 H 0.58661 0.30946 0.60023 0.0
C838 C 0.56357 0.33129 0.67231 0.0
C839 C 0.56382 0.33045 0.61958 0.0
C840 C 0.55524 0.33607 0.58986 0.0
C841 C 0.57968 0.31575 0.6734 0.0
C842 C 0.58896 0.30768 0.64719 0.0
C843 C 0.58035 0.31536 0.62068 0.0
C844 C 0.60695 0.29117 0.64673 0.0
C845 C 0.58593 0.30762 0.70313 0.0
C846 C 0.62482 0.29269 0.66499 0.0
C847 C 0.64096 0.27733 0.66491 0.0
C848 C 0.64053 0.25964 0.64614 0.0
C849 C 0.62299 0.25835 0.62729 0.0
C850 C 0.60675 0.27366 0.62753 0.0
H851 H 0.57318 0.30953 0.71935 0.0
H852 H 0.59019 0.29083 0.70219 0.0
H853 H 0.5995 0.31667 0.71125 0.0
H854 H 0.62654 0.30598 0.67945 0.0
H855 H 0.65392 0.27939 0.67982 0.0
H856 H 1.02805 0.24611 0.43819 0.0
H857 H 1.05393 0.2745 0.4383 0.0
H858 H 1.02344 0.30251 0.36419 0.0
H859 H 0.99765 0.27412 0.36392 0.0
H860 H 0.08384 0.28958 0.40056 0.0
H861 H 1.02731 0.35355 0.41607 0.0
H862 H 1.02018 0.32645 0.42041 0.0
H863 H 1.02193 0.33776 0.3844 0.0
C864 C 1.02679 0.25817 0.42167 0.0
C865 C 1.01033 0.2572 0.40092 0.0
C866 C 1.04182 0.2747 0.42178 0.0
C867 C 1.04106 0.29152 0.40157 0.0
C868 C 1.02472 0.29043 0.38066 0.0
H869 H 0.11935 0.40517 0.44368 0.0
H870 H 0.09346 0.37678 0.44263 0.0
C871 C 1.00984 0.27378 0.38031 0.0
C872 C 1.05719 0.3098 0.40229 0.0
H873 H 1.06207 0.36372 0.40563 0.0
C874 C 0.07886 0.30573 0.40161 0.0
C875 C 1.05153 0.33136 0.40415 0.0
C876 C 1.02901 0.33764 0.4066 0.0
C877 C 0.09437 0.32193 0.40202 0.0
C878 C 0.0887 0.34352 0.40307 0.0
C879 C 1.06704 0.34757 0.40446 0.0
C880 C 0.10482 0.36181 0.40321 0.0
C881 C 0.11694 0.31557 0.40208 0.0
C882 C 0.12033 0.36405 0.38129 0.0
C883 C 0.13521 0.38069 0.38167 0.0
C884 C 0.13557 0.39612 0.40404 0.0
C885 C 0.11995 0.39401 0.42583 0.0
C886 C 0.10491 0.37749 0.42526 0.0
H887 H 0.11896 0.2992 0.40962 0.0
H888 H 0.12314 0.31667 0.37944 0.0
H889 H 0.12633 0.32599 0.41642 0.0
H890 H 0.12092 0.35291 0.36345 0.0
H891 H 0.14671 0.38127 0.36437 0.0
H892 H 0.12268 0.74679 0.11397 0.0
H893 H 0.09506 0.77337 0.11374 0.0
H894 H 0.12548 0.8055 0.18481 0.0
H895 H 0.15317 0.77916 0.1848 0.0
H896 H 1.06537 0.78627 0.14939 0.0
H897 H 0.11546 0.8556 0.13592 0.0
H898 H 0.12543 0.82943 0.13203 0.0
H899 H 0.12228 0.84085 0.16788 0.0
C900 C 0.12377 0.75963 0.12939 0.0
C901 C 0.14085 0.76052 0.14911 0.0
C902 C 0.10765 0.77502 0.12937 0.0
C903 C 0.10772 0.79233 0.14885 0.0
C904 C 0.12472 0.79309 0.16871 0.0
H905 H 1.02187 0.90135 0.11541 0.0
H906 H 1.04942 0.87471 0.11409 0.0
C907 C 0.14079 0.77768 0.16881 0.0
C908 C 0.09002 0.80902 0.1488 0.0
H909 H 0.08013 0.86223 0.14828 0.0
C910 C 1.06883 0.80284 0.14913 0.0
C911 C 0.09362 0.83107 0.14797 0.0
C912 C 0.1154 0.83969 0.14562 0.0
C913 C 1.05187 0.81743 0.14928 0.0
C914 C 1.05549 0.83948 0.1495 0.0
C915 C 0.07667 0.84566 0.14852 0.0
C916 C 1.03781 0.85618 0.15023 0.0
C917 C 1.03005 0.80879 0.14833 0.0
C918 C 1.02141 0.85568 0.17104 0.0
C919 C 1.00537 0.87112 0.17178 0.0
C920 C 1.00476 0.88806 0.15179 0.0
C921 C 1.02122 0.88869 0.13111 0.0
C922 C 1.03731 0.87327 0.13045 0.0
H923 H 1.02969 0.79277 0.13894 0.0
H924 H 1.02384 0.8079 0.17098 0.0
H925 H 1.01961 0.81889 0.13512 0.0
H926 H 1.02111 0.84346 0.18739 0.0
H927 H 0.99348 0.86985 0.18848 0.0
H928 H 0.26713 0.19058 0.85144 0.0
H929 H 0.29674 0.19025 0.88487 0.0
H930 H 0.25863 0.21713 0.95266 0.0
H931 H 0.22852 0.21723 0.91889 0.0
H932 H 0.31934 0.21861 0.9106 0.0
H933 H 0.28522 0.17315 0.00171 0.0
H934 H 0.27236 0.1756 0.96671 0.0
H935 H 0.27098 0.19645 0.99316 0.0
C936 C 0.26477 0.19638 0.8735 0.0
C937 C 0.24492 0.20389 0.88194 0.0
C938 C 0.28204 0.19621 0.89289 0.0
C939 C 0.28057 0.20337 0.92212 0.0
C940 C 0.26069 0.21095 0.93078 0.0
H941 H 0.37712 0.21184 0.0658 0.0
H942 H 0.34497 0.21329 0.03645 0.0
C943 C 0.24325 0.21117 0.91117 0.0
C944 C 0.29996 0.20327 0.94242 0.0
H945 H 0.31888 0.18712 0.00972 0.0
C946 C 0.31904 0.21161 0.93223 0.0
C947 C 0.30035 0.19437 0.97111 0.0
C948 C 0.28122 0.1842 0.98382 0.0
C949 C 0.33773 0.21153 0.94925 0.0
C950 C 0.33826 0.20228 0.97772 0.0
C951 C 0.31912 0.1942 0.98815 0.0
C952 C 0.35832 0.20078 0.99657 0.0
C953 C 0.35667 0.2221 0.93657 0.0
C954 C 0.37719 0.19279 0.98513 0.0
C955 C 0.39578 0.19197 0.00206 0.0
C956 C 0.39656 0.19885 0.03157 0.0
C957 C 0.37758 0.20632 0.04336 0.0
C958 C 0.35893 0.20717 0.02634 0.0
H959 H 0.35229 0.23419 0.92024 0.0
H960 H 0.36623 0.22964 0.95391 0.0
H961 H 0.36635 0.2103 0.92511 0.0
H962 H 0.37764 0.18699 0.96285 0.0
H963 H 0.40972 0.18598 0.99175 0.0
H964 H 0.7067 0.51286 0.10021 0.0
H965 H 0.70656 0.54273 0.13355 0.0
H966 H 0.68236 0.50366 0.2023 0.0
H967 H 0.68263 0.47339 0.16863 0.0
H968 H 0.67727 0.56412 0.16078 0.0
H969 H 0.72701 0.53217 0.24895 0.0
H970 H 0.72425 0.51932 0.21392 0.0
H971 H 0.70435 0.51664 0.24139 0.0
C972 C 0.70141 0.51037 0.12246 0.0
C973 C 0.69475 0.49021 0.13124 0.0
C974 C 0.70129 0.52777 0.14178 0.0
C975 C 0.69474 0.52607 0.17122 0.0
C976 C 0.68804 0.50589 0.1802 0.0
H977 H 0.68641 0.62148 0.31647 0.0
H978 H 0.68576 0.58941 0.28663 0.0
C979 C 0.68804 0.48836 0.16067 0.0
C980 C 0.69454 0.54551 0.19153 0.0
H981 H 0.71176 0.56519 0.25793 0.0
C982 C 0.68492 0.56417 0.18197 0.0
C983 C 0.70427 0.54631 0.21965 0.0
C984 C 0.71573 0.52764 0.23158 0.0
C985 C 0.68452 0.58286 0.19917 0.0
C986 C 0.69461 0.58384 0.22705 0.0
C987 C 0.70402 0.56509 0.23681 0.0
C988 C 0.69557 0.60393 0.24608 0.0
C989 C 0.6725 0.60124 0.18734 0.0
C990 C 0.70178 0.62347 0.23441 0.0
C991 C 0.70209 0.64203 0.25162 0.0
C992 C 0.69652 0.6421 0.28165 0.0
C993 C 0.69088 0.62248 0.29363 0.0
C994 C 0.69049 0.60388 0.27632 0.0
H995 H 0.66017 0.59614 0.1718 0.0
H996 H 0.6651 0.61035 0.20522 0.0
H997 H 0.68327 0.61165 0.17516 0.0
H998 H 0.70658 0.62449 0.21173 0.0
H999 H 0.70667 0.65649 0.24115 0.0
H1000 H 0.38421 0.95231 0.35619 0.0
H1001 H 0.35471 0.95217 0.38973 0.0
H1002 H 0.39331 0.92529 0.45695 0.0
H1003 H 0.42329 0.9256 0.42303 0.0
H1004 H 0.33248 0.92326 0.41536 0.0
H1005 H 0.36647 0.96915 0.50644 0.0
H1006 H 0.37913 0.96694 0.47129 0.0
H1007 H 0.38098 0.94606 0.49755 0.0
C1008 C 0.3867 0.9464 0.37814 0.0
C1009 C 0.40666 0.93902 0.38636 0.0
C1010 C 0.36949 0.9463 0.3976 0.0
C1011 C 0.37113 0.939 0.4267 0.0
C1012 C 0.39112 0.93155 0.43516 0.0
H1013 H 0.2762 0.92933 0.57158 0.0
H1014 H 0.30794 0.92859 0.54153 0.0
C1015 C 0.40849 0.93158 0.41547 0.0
C1016 C 0.35181 0.93886 0.4471 0.0
H1017 H 0.33301 0.95481 0.51456 0.0
C1018 C 0.33279 0.93027 0.43701 0.0
C1019 C 0.35144 0.94778 0.47581 0.0
C1020 C 0.3705 0.95819 0.48842 0.0
C1021 C 0.31418 0.93009 0.45417 0.0
C1022 C 0.31366 0.93935 0.48267 0.0
C1023 C 0.33275 0.94772 0.49296 0.0
C1024 C 0.29373 0.94043 0.50185 0.0
C1025 C 0.29534 0.9192 0.44161 0.0
C1026 C 0.27447 0.9478 0.4908 0.0
C1027 C 0.25606 0.94819 0.50817 0.0
C1028 C 0.2559 0.94154 0.53777 0.0
C1029 C 0.27527 0.9347 0.54912 0.0
C1030 C 0.29369 0.93425 0.53168 0.0
H1031 H 0.29983 0.9072 0.42518 0.0
H1032 H 0.28603 0.91149 0.45901 0.0
H1033 H 0.28539 0.93083 0.43031 0.0
H1034 H 0.27354 0.95342 0.46848 0.0
H1035 H 0.24179 0.95367 0.49817 0.0
H1036 H 0.99174 0.64248 0.63182 0.0
H1037 H 0.98887 0.61145 0.6627 0.0
H1038 H 0.92376 0.62419 0.67585 0.0
H1039 H 0.92652 0.65499 0.64377 0.0
H1040 H 0.98272 0.6022 0.71522 0.0
H1041 H 0.91587 0.56461 0.66044 0.0
H1042 H 0.92846 0.58734 0.64534 0.0
H1043 H 0.90935 0.59005 0.67403 0.0
C1044 C 0.97667 0.63874 0.64104 0.0
C1045 C 0.95937 0.65165 0.63462 0.0
C1046 C 0.97502 0.62071 0.65907 0.0
C1047 C 0.95597 0.61443 0.67188 0.0
C1048 C 0.93866 0.62761 0.66597 0.0
H1049 H 0.94658 0.48409 0.74417 0.0
H1050 H 0.9471 0.51571 0.71366 0.0
C1051 C 0.94028 0.64565 0.64762 0.0
C1052 C 0.9547 0.59465 0.69159 0.0
H1053 H 0.92652 0.54964 0.70562 0.0
C1054 C 0.97033 0.59082 0.71284 0.0
C1055 C 0.93896 0.57893 0.68906 0.0
C1056 C 0.92234 0.58027 0.66581 0.0
C1057 C 0.97062 0.57264 0.73107 0.0
C1058 C 0.95443 0.55735 0.72938 0.0
C1059 C 0.93893 0.56101 0.70789 0.0
C1060 C 0.95358 0.53747 0.74891 0.0
C1061 C 0.989 0.56976 0.75123 0.0
C1062 C 0.95654 0.5382 0.77972 0.0
C1063 C 0.9564 0.51985 0.79738 0.0
C1064 C 0.95286 0.49973 0.78539 0.0
C1065 C 0.94928 0.49901 0.75474 0.0
C1066 C 0.9496 0.51737 0.73702 0.0
H1067 H 1.00288 0.57839 0.74319 0.0
H1068 H 0.98511 0.57607 0.77322 0.0
H1069 H 0.99321 0.55303 0.75347 0.0
H1070 H 0.95889 0.55309 0.79045 0.0
H1071 H 0.95915 0.52152 0.8207 0.0
H1072 H 0.77285 0.93969 0.92989 0.0
H1073 H 0.80481 0.93976 0.95947 0.0
H1074 H 0.76866 0.95268 0.03682 0.0
H1075 H 0.73691 0.95345 0.00713 0.0
H1076 H 0.8217 0.91829 -0.00086 0.0
H1077 H 0.81143 0.99399 0.05466 0.0
H1078 H 0.78992 0.97702 0.06219 0.0
H1079 H 0.79461 0.98579 0.02519 0.0
C1080 C 0.77162 0.94287 0.95315 0.0
C1081 C 0.75183 0.9469 0.96558 0.0
C1082 C 0.79016 0.94281 0.97036 0.0
C1083 C 0.78998 0.94674 0.00098 0.0
C1084 C 0.77009 0.9504 0.01342 0.0
H1085 H 0.90839 0.97191 0.10282 0.0
H1086 H 0.87736 0.97447 0.07105 0.0
C1087 C 0.75159 0.95066 0.99618 0.0
C1088 C 0.81022 0.94627 0.01966 0.0
H1089 H 0.83734 0.97155 0.07494 0.0
C1090 C 0.82495 0.9301 0.01557 0.0
C1091 C 0.81555 0.96167 0.04117 0.0
C1092 C 0.80217 0.98071 0.04587 0.0
C1093 C 0.84383 0.92864 0.03208 0.0
C1094 C 0.84859 0.94338 0.05472 0.0
C1095 C 0.83414 0.95985 0.05833 0.0
C1096 C 0.86819 0.94197 0.07459 0.0
C1097 C 0.85884 0.91146 0.02408 0.0
C1098 C 0.87406 0.92308 0.08837 0.0
C1099 C 0.89206 0.92157 0.10635 0.0
C1100 C 0.90511 0.93894 0.1122 0.0
C1101 C 0.89911 0.95803 0.09903 0.0
C1102 C 0.88109 0.9595 0.08072 0.0
H1103 H 0.85696 0.90665 0.00081 0.0
H1104 H 0.87524 0.91636 0.02752 0.0
H1105 H 0.85561 0.89756 0.03785 0.0
H1106 H 0.86452 0.90928 0.08563 0.0
H1107 H 0.89562 0.90657 0.11607 0.0
H1108 H 0.46474 0.67215 0.82369 0.0
H1109 H 0.46386 0.6418 0.79 0.0
H1110 H 0.44221 0.60284 0.86051 0.0
H1111 H 0.44247 0.63279 0.89344 0.0
H1112 H 0.48265 0.60473 0.78468 0.0
H1113 H 0.40037 0.58465 0.80299 0.0
H1114 H 0.41147 0.60863 0.81664 0.0
H1115 H 0.41437 0.58463 0.83694 0.0
C1116 C 0.45959 0.65718 0.832 0.0
C1117 C 0.45348 0.65544 0.86172 0.0
C1118 C 0.45913 0.63957 0.81255 0.0
C1119 C 0.45242 0.61947 0.82184 0.0
C1120 C 0.44676 0.61784 0.85168 0.0
H1121 H 0.44218 0.48959 0.7524 0.0
H1122 H 0.44269 0.522 0.78116 0.0
C1123 C 0.44712 0.63528 0.8709 0.0
C1124 C 0.45162 0.60021 0.80113 0.0
H1125 H 0.42106 0.55814 0.78046 0.0
C1126 C 0.46901 0.59478 0.78369 0.0
C1127 C 0.43402 0.5866 0.79902 0.0
C1128 C 0.41394 0.59152 0.81464 0.0
C1129 C 0.46955 0.57641 0.76568 0.0
C1130 C 0.4521 0.5626 0.76411 0.0
C1131 C 0.43466 0.56818 0.78127 0.0
C1132 C 0.45166 0.54233 0.74549 0.0
C1133 C 0.48931 0.57159 0.74926 0.0
C1134 C 0.4561 0.54207 0.71503 0.0
C1135 C 0.45563 0.52326 0.69821 0.0
C1136 C 0.45068 0.50369 0.71094 0.0
C1137 C 0.44602 0.50402 0.74129 0.0
C1138 C 0.44634 0.52282 0.75802 0.0
H1139 H 0.50291 0.57991 0.75883 0.0
H1140 H 0.49259 0.55456 0.74929 0.0
H1141 H 0.48761 0.57676 0.72618 0.0
H1142 H 0.45979 0.55655 0.70397 0.0
H1143 H 0.45938 0.52407 0.6751 0.0
H1144 H 0.73855 0.17589 0.59764 0.0
H1145 H 0.76979 0.17353 0.56631 0.0
H1146 H 0.77987 0.23964 0.5767 0.0
H1147 H 0.74862 0.24209 0.6068 0.0
H1148 H 0.80988 0.17869 0.57115 0.0
H1149 H 0.78731 0.23902 0.49146 0.0
H1150 H 0.78788 0.24971 0.52775 0.0
H1151 H 0.76939 0.22945 0.51868 0.0
C1152 C 0.74726 0.19 0.59301 0.0
C1153 C 0.74049 0.20925 0.60492 0.0
C1154 C 0.76539 0.18865 0.57496 0.0
C1155 C 0.77757 0.20648 0.56785 0.0
C1156 C 0.77089 0.22557 0.5803 0.0
H1157 H 0.87439 0.20696 0.42518 0.0
H1158 H 0.84193 0.20633 0.45368 0.0
C1159 C 0.75281 0.22694 0.59806 0.0
C1160 C 0.79729 0.20521 0.54837 0.0
H1161 H 0.82318 0.22922 0.49114 0.0
C1162 C 0.81258 0.18977 0.55361 0.0
C1163 C 0.80138 0.21915 0.5246 0.0
C1164 C 0.78553 0.2351 0.51505 0.0
C1165 C 0.83139 0.18827 0.53697 0.0
C1166 C 0.836 0.20296 0.51428 0.0
C1167 C 0.82044 0.21801 0.50851 0.0
C1168 C 0.85647 0.20291 0.49628 0.0
C1169 C 0.84583 0.17034 0.54354 0.0
C1170 C 0.87629 0.20147 0.50974 0.0
C1171 C 0.89505 0.20159 0.49322 0.0
C1172 C 0.89514 0.20351 0.46229 0.0
C1173 C 0.87538 0.20529 0.44875 0.0
C1174 C 0.85656 0.20501 0.46531 0.0
H1175 H 0.83728 0.15693 0.55326 0.0
H1176 H 0.85392 0.16482 0.52349 0.0
H1177 H 0.85765 0.17549 0.55977 0.0
H1178 H 0.87743 0.20063 0.53337 0.0
H1179 H 0.90966 0.20053 0.50497 0.0
H1180 H 0.20376 0.51955 0.39552 0.0
H1181 H 0.20419 0.54874 0.36113 0.0
H1182 H 0.17667 0.50943 0.29488 0.0
H1183 H 0.17571 0.48011 0.32989 0.0
H1184 H 0.22277 0.55812 0.31332 0.0
H1185 H 0.13966 0.5577 0.28217 0.0
H1186 H 0.14951 0.5418 0.31165 0.0
H1187 H 0.15235 0.53343 0.27414 0.0
C1188 C 0.19763 0.51696 0.37369 0.0
C1189 C 0.18955 0.49708 0.36606 0.0
C1190 C 0.19794 0.53392 0.35371 0.0
C1191 C 0.19012 0.5321 0.32485 0.0
C1192 C 0.1823 0.51207 0.31692 0.0
H1193 H 0.1828 0.62361 0.17554 0.0
H1194 H 0.18224 0.59233 0.20679 0.0
C1195 C 0.18193 0.49499 0.33709 0.0
C1196 C 0.19077 0.55096 0.30358 0.0
H1197 H 0.16153 0.58067 0.25553 0.0
C1198 C 0.20922 0.56293 0.3009 0.0
C1199 C 0.17339 0.55791 0.28668 0.0
C1200 C 0.15255 0.5472 0.28894 0.0
C1201 C 0.21085 0.5808 0.28228 0.0
C1202 C 0.19346 0.58783 0.26556 0.0
C1203 C 0.17506 0.57577 0.26794 0.0
C1204 C 0.19401 0.6075 0.24587 0.0
C1205 C 0.23164 0.59164 0.2802 0.0
C1206 C 0.20059 0.62722 0.25657 0.0
C1207 C 0.20095 0.64533 0.23849 0.0
C1208 C 0.19473 0.64474 0.20871 0.0
C1209 C 0.18801 0.62505 0.19803 0.0
C1210 C 0.18757 0.60694 0.21618 0.0
H1211 H 0.24461 0.58104 0.28632 0.0
H1212 H 0.23451 0.59759 0.25771 0.0
H1213 H 0.2319 0.60507 0.29561 0.0
H1214 H 0.20515 0.62883 0.2793 0.0
H1215 H 0.20594 0.65998 0.24813 0.0
H1216 H 0.76662 0.68972 0.35025 0.0
H1217 H 0.79615 0.68932 0.38392 0.0
H1218 H 0.75708 0.71339 0.45269 0.0
H1219 H 0.72713 0.71361 0.4187 0.0
H1220 H 0.81782 0.71789 0.41174 0.0
H1221 H 0.78451 0.66833 0.49915 0.0
H1222 H 0.77188 0.6715 0.4641 0.0
H1223 H 0.76953 0.69138 0.49184 0.0
C1224 C 0.76406 0.69487 0.37258 0.0
C1225 C 0.74399 0.70164 0.38125 0.0
C1226 C 0.78126 0.69468 0.3921 0.0
C1227 C 0.77947 0.70102 0.42165 0.0
C1228 C 0.75938 0.70785 0.43052 0.0
H1229 H 0.8732 0.70845 0.56825 0.0
H1230 H 0.84169 0.70936 0.53769 0.0
C1231 C 0.74204 0.70813 0.4108 0.0
C1232 C 0.79872 0.70087 0.44218 0.0
H1233 H 0.81754 0.68328 0.50877 0.0
C1234 C 0.81758 0.7102 0.4329 0.0
C1235 C 0.79916 0.69107 0.47027 0.0
C1236 C 0.78028 0.67982 0.48192 0.0
C1237 C 0.83609 0.71028 0.45031 0.0
C1238 C 0.83666 0.70017 0.47819 0.0
C1239 C 0.81774 0.69103 0.48766 0.0
C1240 C 0.85647 0.699 0.49761 0.0
C1241 C 0.85474 0.72197 0.43875 0.0
C1242 C 0.87597 0.69241 0.48644 0.0
C1243 C 0.89425 0.69192 0.50412 0.0
C1244 C 0.89402 0.69771 0.5341 0.0
C1245 C 0.87443 0.70377 0.5455 0.0
C1246 C 0.85614 0.70432 0.52777 0.0
H1247 H 0.85007 0.73433 0.42299 0.0
H1248 H 0.86375 0.72938 0.45676 0.0
H1249 H 0.86504 0.71092 0.42692 0.0
H1250 H 0.87718 0.68747 0.46382 0.0
H1251 H 0.90871 0.68707 0.49407 0.0
H1252 H 0.18924 0.12132 0.81691 0.0
H1253 H 0.18964 0.08896 0.78786 0.0
H1254 H 0.20273 0.12468 0.71008 0.0
H1255 H 0.20317 0.15681 0.73923 0.0
H1256 H 0.16848 1.07158 0.74804 0.0
H1257 H 0.24429 0.08192 0.69384 0.0
H1258 H 0.23583 0.09899 0.7229 0.0
H1259 H 0.22741 0.10336 0.68565 0.0
C1260 C 0.19251 0.12237 0.79367 0.0
C1261 C 0.19648 0.14214 0.78094 0.0
C1262 C 0.19265 0.1036 0.77677 0.0
C1263 C 0.19673 0.10356 0.74621 0.0
C1264 C 0.20032 0.12343 0.73348 0.0
H1265 H 0.22246 0.98409 0.6462 0.0
H1266 H 0.22492 1.01536 0.67786 0.0
C1267 C 0.20039 0.14215 0.75039 0.0
C1268 C 0.19648 0.0831 0.72787 0.0
H1269 H 0.22213 1.05567 0.6734 0.0
C1270 C 0.18038 1.06827 0.73187 0.0
C1271 C 0.212 0.07771 0.70673 0.0
C1272 C 0.23097 0.09121 0.70223 0.0
C1273 C 0.17909 1.04921 0.71556 0.0
C1274 C 0.19394 1.04438 0.69324 0.0
C1275 C 0.21035 1.05893 0.68976 0.0
C1276 C 0.19264 1.02466 0.67349 0.0
C1277 C 0.16195 1.0341 0.7234 0.0
C1278 C 0.17392 1.0188 0.65934 0.0
C1279 C 0.17248 1.00069 0.64143 0.0
C1280 C 0.18975 0.98752 0.63605 0.0
C1281 C 0.20867 0.99348 0.64962 0.0
C1282 C 0.21008 1.01163 0.66786 0.0
H1283 H 0.15701 1.03607 0.74658 0.0
H1284 H 0.14818 1.03722 0.70939 0.0
H1285 H 0.16686 1.01764 0.72016 0.0
H1286 H 0.16022 1.02844 0.66172 0.0
H1287 H 0.15761 0.99715 0.63139 0.0
H1288 H 0.77465 0.43517 0.06777 0.0
H1289 H 0.80681 0.43472 0.03853 0.0
H1290 H 0.77168 0.45105 0.96154 0.0
H1291 H 0.7396 0.45116 0.99049 0.0
H1292 H 0.82976 0.46156 0.00735 0.0
H1293 H 0.80217 0.40287 0.92748 0.0
H1294 H 0.78566 0.42541 0.92854 0.0
H1295 H 0.78781 0.40889 0.96034 0.0
C1296 C 0.77365 0.43873 0.04462 0.0
C1297 C 0.75402 0.44316 0.03193 0.0
C1298 C 0.7923 0.43846 0.02767 0.0
C1299 C 0.79227 0.44239 -0.00291 0.0
C1300 C 0.77269 0.4473 0.98461 0.0
H1301 H 0.90197 0.40215 0.89218 0.0
H1302 H 0.87082 0.40531 0.92258 0.0
C1303 C 0.75409 0.44758 0.00151 0.0
C1304 C 0.81243 0.44139 0.97853 0.0
H1305 H 0.83381 0.42007 0.9158 0.0
C1306 C 0.83049 0.45244 0.98735 0.0
C1307 C 0.81424 0.42933 0.9523 0.0
C1308 C 0.79654 0.41578 0.94171 0.0
C1309 C 0.84952 0.45206 0.97104 0.0
C1310 C 0.85111 0.44051 0.94432 0.0
C1311 C 0.83313 0.42924 0.93578 0.0
C1312 C 0.87123 0.43904 0.92568 0.0
C1313 C 0.86801 0.46364 0.98335 0.0
C1314 C 0.88275 0.45679 0.91632 0.0
C1315 C 0.90101 0.45495 0.89863 0.0
C1316 C 0.90857 0.43528 0.88929 0.0
C1317 C 0.89703 0.41764 0.89866 0.0
C1318 C 0.87889 0.41947 0.91623 0.0
H1319 H 0.86643 0.46631 0.00732 0.0
H1320 H 0.88269 0.45498 0.97931 0.0
H1321 H 0.86918 0.47914 0.9726 0.0
H1322 H 0.87742 0.47226 0.92215 0.0
H1323 H 0.90904 0.46904 0.89192 0.0
H1324 H 0.44161 0.98672 0.24511 0.0
H1325 H 0.44244 1.01837 0.21505 0.0
H1326 H 0.47028 1.05236 0.28657 0.0
H1327 H 0.46902 1.02069 0.31704 0.0
H1328 H 0.44384 0.07806 0.26009 0.0
H1329 H 0.48903 1.04278 0.17012 0.0
H1330 H 0.46522 1.02887 0.17626 0.0
H1331 H 0.48496 1.02941 0.20438 0.0
C1332 C 0.44791 1.00087 0.25468 0.0
C1333 C 0.45526 1.00065 0.28394 0.0
C1334 C 0.44861 1.01919 0.2371 0.0
C1335 C 0.45696 1.03828 0.24764 0.0
C1336 C 0.46386 1.03821 0.27716 0.0
H1337 H 0.44491 0.1276 0.10068 0.0
H1338 H 0.44487 0.09833 0.13485 0.0
C1339 C 0.46312 1.01985 0.29482 0.0
C1340 C 0.45829 1.05804 0.22816 0.0
H1341 H 0.47367 0.0758 0.16006 0.0
C1342 C 0.45055 0.07744 0.23832 0.0
C1343 C 0.46707 1.05802 0.19943 0.0
C1344 C 0.47724 1.03873 0.18699 0.0
C1345 C 0.45063 0.09598 0.22076 0.0
C1346 C 0.45905 0.09583 0.19182 0.0
C1347 C 0.46704 0.07649 0.18188 0.0
C1348 C 0.45901 0.11495 0.17105 0.0
C1349 C 0.44087 0.11546 0.23322 0.0
C1350 C 0.46707 0.13489 0.17891 0.0
C1351 C 0.46713 0.15209 0.1589 0.0
C1352 C 0.45919 0.1501 0.13008 0.0
C1353 C 0.45121 0.13017 0.12242 0.0
C1354 C 0.45121 0.11312 0.14221 0.0
H1355 H 0.43013 0.11183 0.2516 0.0
H1356 H 0.4533 0.12584 0.24183 0.0
H1357 H 0.4321 0.12411 0.21614 0.0
H1358 H 0.47374 0.13718 0.20046 0.0
H1359 H 0.47357 0.16691 0.16598 0.0
H1360 H 0.23756 0.46203 0.5062 0.0
H1361 H 0.26971 0.46124 0.53531 0.0
H1362 H 0.30193 0.43281 0.46285 0.0
H1363 H 0.2699 0.43392 0.43357 0.0
H1364 H 0.29381 0.43194 0.55711 0.0
H1365 H 0.34502 0.47517 0.48123 0.0
H1366 H 0.31726 0.47368 0.47579 0.0
H1367 H 0.33378 0.4524 0.46458 0.0
C1368 C 0.25149 0.45582 0.49615 0.0
C1369 C 0.25069 0.4483 0.46694 0.0
C1370 C 0.27013 0.45527 0.51309 0.0
C1371 C 0.28905 0.44734 0.50172 0.0
C1372 C 0.28819 0.43968 0.47256 0.0
H1373 H 0.41753 0.42955 0.5795 0.0
H1374 H 0.38672 0.4299 0.54693 0.0
C1375 C 0.26955 0.44019 0.45562 0.0
C1376 C 0.30914 0.44651 0.52058 0.0
H1377 H 0.3616 0.45885 0.52172 0.0
C1378 C 0.30852 0.43799 0.54916 0.0
C1379 C 0.32893 0.45411 0.51104 0.0
C1380 C 0.33133 0.46454 0.48162 0.0
C1381 C 0.32645 0.43659 0.56764 0.0
C1382 C 0.34619 0.44439 0.55826 0.0
C1383 C 0.34689 0.45275 0.52957 0.0
C1384 C 0.36582 0.4445 0.57805 0.0
C1385 C 0.32401 0.42603 0.59698 0.0
C1386 C 0.36534 0.45297 0.60667 0.0
C1387 C 0.38302 0.45276 0.62533 0.0
C1388 C 0.40236 0.44423 0.6165 0.0
C1389 C 0.40316 0.43621 0.58757 0.0
C1390 C 0.38532 0.43643 0.56875 0.0
H1391 H 0.31073 0.41489 0.59689 0.0
H1392 H 0.33831 0.4174 0.60325 0.0
H1393 H 0.3208 0.43802 0.61396 0.0
H1394 H 0.35117 0.46001 0.61478 0.0
H1395 H 0.38144 0.45936 0.64709 0.0
H1396 H 0.94301 0.1335 0.39452 0.0
H1397 H 0.94268 0.10381 0.36097 0.0
H1398 H 0.96795 0.14272 0.29276 0.0
H1399 H 0.96879 0.17264 0.32697 0.0
H1400 H 0.92345 0.0931 0.31423 0.0
H1401 H 1.00586 0.09513 0.27983 0.0
H1402 H 0.99621 0.11126 0.30925 0.0
H1403 H 0.9923 0.11888 0.27164 0.0
C1404 C 0.94866 0.13594 0.37243 0.0
C1405 C 0.95609 0.15591 0.36406 0.0
C1406 C 0.94841 0.11865 0.35292 0.0
C1407 C 0.95563 0.12018 0.32376 0.0
C1408 C 0.96279 0.14029 0.31506 0.0
H1409 H 0.96279 1.02562 0.17755 0.0
H1410 H 0.96316 1.05754 0.20763 0.0
C1411 C 0.96309 0.15772 0.33476 0.0
C1412 C 0.95505 0.1009 0.30308 0.0
H1413 H 0.98412 1.07094 0.25505 0.0
C1414 C 0.93689 0.08839 0.30149 0.0
C1415 C 0.97226 0.09405 0.28576 0.0
C1416 C 0.99283 0.10537 0.28683 0.0
C1417 C 0.93536 1.07008 0.28359 0.0
C1418 C 0.95261 1.06313 0.2665 0.0
C1419 C 0.97071 0.07574 0.26777 0.0
C1420 C 0.95219 1.043 0.24754 0.0
C1421 C 0.91482 1.05869 0.28265 0.0
C1422 C 0.94614 1.02337 0.25908 0.0
C1423 C 0.94587 1.00488 0.24166 0.0
C1424 C 0.9517 1.00495 0.21172 0.0
C1425 C 0.95791 1.02455 0.2002 0.0
C1426 C 0.95824 1.04304 0.21768 0.0
H1427 H 0.90171 1.06912 0.28875 0.0
H1428 H 0.91169 1.05214 0.26053 0.0
H1429 H 0.91516 1.04565 0.29864 0.0
H1430 H 0.94191 1.02214 0.28197 0.0
H1431 H 0.94128 0.99035 0.25193 0.0
H1432 H 0.23875 0.67639 0.09912 0.0
H1433 H 0.26995 0.6739 0.06776 0.0
H1434 H 0.27961 0.74017 0.07673 0.0
H1435 H 0.24837 0.74273 0.10688 0.0
H1436 H 0.30996 0.67916 0.07204 0.0
H1437 H 0.28718 0.73893 0.99164 0.0
H1438 H 0.28786 0.74986 0.02778 0.0
H1439 H 0.26933 0.72956 0.01906 0.0
C1440 C 0.24735 0.69051 0.09417 0.0
C1441 C 0.24044 0.70984 0.10572 0.0
C1442 C 0.26548 0.68908 0.0761 0.0
C1443 C 0.27755 0.7069 0.06856 0.0
C1444 C 0.27074 0.72607 0.08064 0.0
H1445 H 0.3736 0.7063 0.92473 0.0
H1446 H 0.3414 0.70597 0.9538 0.0
C1447 C 0.25265 0.72752 0.09844 0.0
C1448 C 0.29728 0.70551 0.04898 0.0
H1449 H 0.32299 0.72903 0.99114 0.0
C1450 C 0.31259 0.69011 0.05432 0.0
C1451 C 0.30132 0.71926 0.02496 0.0
C1452 C 0.28546 0.73516 0.01528 0.0
C1453 C 0.33134 0.68844 0.03752 0.0
C1454 C 0.33589 0.70291 0.01453 0.0
C1455 C 0.32032 0.71796 0.00871 0.0
C1456 C 0.35626 0.70262 0.99618 0.0
C1457 C 0.34577 0.67053 0.04426 0.0
C1458 C 0.37622 0.70107 0.00927 0.0
C1459 C 0.39485 0.70099 0.99239 0.0
C1460 C 0.39468 0.70279 0.96144 0.0
C1461 C 0.3748 0.70467 0.94829 0.0
C1462 C 0.35612 0.70458 0.9652 0.0
H1463 H 0.33725 0.65724 0.05435 0.0
H1464 H 0.35371 0.66479 0.02421 0.0
H1465 H 0.35772 0.67581 0.06022 0.0
H1466 H 0.37757 0.70032 0.03288 0.0
H1467 H 0.40957 0.69989 0.00387 0.0
H1468 H 0.7042 0.15822 0.74622 0.0
H1469 H 0.70378 0.12647 0.77636 0.0
H1470 H 0.68291 0.09081 0.70182 0.0
H1471 H 0.68383 0.12241 0.67153 0.0
H1472 H 0.67602 0.10073 0.79602 0.0
H1473 H 0.72545 1.05047 0.72673 0.0
H1474 H 0.72259 0.07802 0.71973 0.0
H1475 H 0.70308 1.05978 0.70728 0.0
C1476 C 0.6998 0.14362 0.73593 0.0
C1477 C 0.69437 0.14336 0.70581 0.0
C1478 C 0.69944 0.12519 0.75348 0.0
C1479 C 0.69374 0.10541 0.74194 0.0
C1480 C 0.68812 0.10522 0.71185 0.0
H1481 H 0.67816 0.97722 0.82469 0.0
H1482 H 0.67815 1.00727 0.79051 0.0
C1483 C 0.68851 0.12364 0.69428 0.0
C1484 C 0.69302 0.08552 0.76148 0.0
H1485 H 0.7078 1.03357 0.76587 0.0
C1486 C 0.68315 0.08618 0.78919 0.0
C1487 C 0.70203 1.06589 0.75349 0.0
C1488 C 0.71406 1.06348 0.72535 0.0
C1489 C 0.68181 1.06847 0.80824 0.0
C1490 C 0.69093 1.04892 0.80036 0.0
C1491 C 0.70063 1.04814 0.77255 0.0
C1492 C 0.69122 1.02969 0.82108 0.0
C1493 C 0.66998 1.07092 0.83657 0.0
C1494 C 0.69895 1.03129 0.84999 0.0
C1495 C 0.69902 1.01405 0.86952 0.0
C1496 C 0.69145 0.99403 0.86144 0.0
C1497 C 0.68407 0.99213 0.83227 0.0
C1498 C 0.68409 1.00954 0.81251 0.0
H1499 H 0.65837 0.08373 0.83516 0.0
H1500 H 0.66176 1.05628 0.8426 0.0
H1501 H 0.68106 0.07494 0.85439 0.0
H1502 H 0.7052 1.04602 0.85766 0.0
H1503 H 0.70509 1.01655 0.8914 0.0
H1504 H 0.51399 0.1827 0.88355 0.0
H1505 H 0.53626 0.18649 0.84036 0.0
H1506 H 0.58338 0.21616 0.89347 0.0
H1507 H 0.56129 0.21218 0.93692 0.0
H1508 H 0.55707 0.22373 0.81507 0.0
H1509 H 0.61054 0.1621 0.85682 0.0
H1510 H 0.58453 0.16554 0.87094 0.0
H1511 H 0.6048 0.18339 0.88131 0.0
C1512 C 0.52904 0.19017 0.88595 0.0
C1513 C 0.53604 0.19695 0.91357 0.0
C1514 C 0.54164 0.19243 0.8613 0.0
C1515 C 0.56147 0.20137 0.86396 0.0
C1516 C 0.56814 0.20907 0.89118 0.0
H1517 H 0.64787 0.22736 0.72188 0.0
H1518 H 0.62565 0.23005 0.76523 0.0
C1519 C 0.55549 0.2069 0.91587 0.0
C1520 C 0.5756 0.20131 0.83855 0.0
H1521 H 0.61895 0.17746 0.81146 0.0
C1522 C 0.57069 0.21375 0.81425 0.0
C1523 C 0.59313 0.18802 0.83764 0.0
C1524 C 0.59859 0.17386 0.86293 0.0
C1525 C 0.58297 0.21324 0.78887 0.0
C1526 C 0.60055 0.20001 0.78803 0.0
C1527 C 0.60546 0.18761 0.81235 0.0
C1528 C 0.61385 0.19847 0.76183 0.0
C1529 C 0.57681 0.22644 0.76289 0.0
C1530 C 0.61481 0.17966 0.74606 0.0
C1531 C 0.62749 0.17805 0.72132 0.0
C1532 C 0.63942 0.19522 0.71221 0.0
C1533 C 0.63865 0.21395 0.7283 0.0
C1534 C 0.62594 0.21555 0.75296 0.0
H1535 H 0.5607 0.23253 0.76496 0.0
H1536 H 0.58757 0.23996 0.76118 0.0
H1537 H 0.578 0.21729 0.74224 0.0
H1538 H 0.60566 0.16628 0.75282 0.0
H1539 H 0.62797 0.16341 0.7094 0.0
H1540 H 0.67561 0.80201 0.18393 0.0
H1541 H 0.67125 0.82327 0.1397 0.0
H1542 H 0.71882 0.7873 0.09619 0.0
H1543 H 0.72322 0.76601 0.14018 0.0
H1544 H 0.72558 0.83 0.09401 0.0
H1545 H 0.64498 0.81031 0.05949 0.0
H1546 H 0.64757 0.81829 0.09711 0.0
H1547 H 0.65957 0.79447 0.08498 0.0
C1548 C 0.68483 0.79838 0.16472 0.0
C1549 C 0.69985 0.78243 0.16558 0.0
C1550 C 0.68231 0.81051 0.13947 0.0
C1551 C 0.69462 0.80675 0.11461 0.0
C1552 C 0.70918 0.79046 0.11516 0.0
H1553 H 0.68788 0.86018 0.9401 0.0
H1554 H 0.68689 0.83716 0.98304 0.0
C1555 C 0.71174 0.77838 0.14034 0.0
C1556 C 0.69356 0.82072 0.0888 0.0
H1557 H 0.66144 0.83846 0.0346 0.0
C1558 C 0.71157 0.83182 0.08098 0.0
C1559 C 0.6753 0.82293 0.07176 0.0
C1560 C 0.65578 0.81075 0.07852 0.0
C1561 C 0.71179 0.8452 0.05669 0.0
C1562 C 0.69341 0.8478 0.04004 0.0
C1563 C 0.67544 0.83655 0.04762 0.0
C1564 C 0.69278 0.8619 0.01437 0.0
C1565 C 0.73182 0.85618 0.04874 0.0
C1566 C 0.696 0.88344 0.01791 0.0
C1567 C 0.69667 0.89656 0.9935 0.0
C1568 C 0.69405 0.88833 0.96515 0.0
C1569 C 0.69017 0.86687 0.9617 0.0
C1570 C 0.68951 0.85374 0.98616 0.0
H1571 H 0.74553 0.84877 0.05931 0.0
H1572 H 0.7342 0.85617 0.02463 0.0
H1573 H 0.73105 0.87266 0.05623 0.0
H1574 H 0.69819 0.89007 0.03957 0.0
H1575 H 0.69943 0.9131 0.9968 0.0
H1576 H 1.02286 0.98282 0.20959 0.0
H1577 H 1.04671 0.98036 0.25132 0.0
H1578 H 1.02004 0.92072 0.27453 0.0
H1579 H 0.99656 0.92284 0.23237 0.0
H1580 H 1.03793 0.97822 0.30872 0.0
H1581 H 0.08149 0.90735 0.2755 0.0
H1582 H 1.06459 0.92126 0.25067 0.0
H1583 H 1.05387 0.90332 0.27698 0.0
C1584 C 1.02222 0.96912 0.22347 0.0
C1585 C 1.00803 0.95294 0.21765 0.0
C1586 C 1.03582 0.96773 0.24729 0.0
C1587 C 1.03543 0.95017 0.26572 0.0
C1588 C 1.02102 0.93413 0.26015 0.0
H1589 H 0.08546 0.94879 0.44243 0.0
H1590 H 1.06314 0.9473 0.39898 0.0
C1591 C 1.00752 0.93544 0.2362 0.0
C1592 C 1.04949 0.94914 0.29146 0.0
H1593 H 0.08689 0.91941 0.32442 0.0
C1594 C 1.04869 0.9654 0.31209 0.0
C1595 C 1.06371 0.93253 0.29562 0.0
C1596 C 1.06616 0.91523 0.27338 0.0
C1597 C 1.06152 0.96541 0.33696 0.0
C1598 C 0.07515 0.9484 0.34173 0.0
C1599 C 0.07622 0.93229 0.32089 0.0
C1600 C 0.08865 0.94733 0.36803 0.0
C1601 C 1.06062 0.98386 0.35758 0.0
C1602 C 0.11039 0.94678 0.36505 0.0
C1603 C 0.12317 0.9474 0.38987 0.0
C1604 C 0.1144 0.94863 0.41803 0.0
C1605 C 0.09263 0.94824 0.42096 0.0
C1606 C 0.07988 0.94745 0.39618 0.0
H1607 H 1.05392 0.99787 0.34676 0.0
H1608 H 1.05057 0.9799 0.37654 0.0
H1609 H 0.07634 0.98791 0.36599 0.0
H1610 H 0.11746 0.94656 0.3435 0.0
H1611 H 0.1399 0.94776 0.38698 0.0
H1612 H 0.94171 0.24229 0.49326 0.0
H1613 H 0.94448 0.26664 0.53444 0.0
H1614 H 0.9727 0.31248 0.47763 0.0
H1615 H 0.96934 0.28836 0.43608 0.0
H1616 H 0.97745 0.2855 0.56025 0.0
H1617 H 0.92478 0.34507 0.51199 0.0
H1618 H 0.92752 0.31925 0.49663 0.0
H1619 H 0.94702 0.33885 0.48988 0.0
C1620 C 0.94844 0.25759 0.48956 0.0
C1621 C 0.95497 0.26364 0.46147 0.0
C1622 C 0.95009 0.27145 0.51309 0.0
C1623 C 0.95844 0.29152 0.50898 0.0
C1624 C 0.9657 0.29729 0.48112 0.0
H1625 H 0.98162 0.3697 0.66513 0.0
H1626 H 0.98745 0.35056 0.61934 0.0
C1627 C 0.96383 0.2835 0.45746 0.0
C1628 C 0.95906 0.30638 0.5339 0.0
H1629 H 0.93977 0.35305 0.55778 0.0
C1630 C 0.96933 0.30035 0.5597 0.0
C1631 C 0.94831 0.32566 0.53312 0.0
C1632 C 0.93612 0.33257 0.50654 0.0
C1633 C 0.96868 0.31278 0.58505 0.0
C1634 C 0.95789 0.33204 0.58428 0.0
C1635 C 0.94814 0.33835 0.55821 0.0
C1636 C 0.95476 0.34489 0.61095 0.0
C1637 C 0.97868 0.3047 0.61276 0.0
C1638 C 0.93445 0.34882 0.62074 0.0
C1639 C 0.93106 0.36008 0.64646 0.0
C1640 C 0.94792 0.36758 0.66313 0.0
C1641 C 0.96828 0.36418 0.65282 0.0
C1642 C 0.97166 0.35302 0.62685 0.0
H1643 H 0.98217 0.28774 0.61134 0.0
H1644 H 0.99355 0.31312 0.61655 0.0
H1645 H 0.96846 0.30741 0.63201 0.0
H1646 H 0.92117 0.34285 0.60868 0.0
H1647 H 0.91518 0.36284 0.65332 0.0
H1648 H 0.61601 0.91728 0.07883 0.0
H1649 H 0.59715 0.91215 0.1249 0.0
H1650 H 0.58172 0.9777 0.12687 0.0
H1651 H 0.60128 0.98315 0.08178 0.0
H1652 H 0.59515 0.9636 0.17983 0.0
H1653 H 0.53425 0.9108 0.13466 0.0
H1654 H 0.56053 0.9021 0.12928 0.0
H1655 H 0.55168 0.92551 0.11153 0.0
C1656 C 0.60875 0.93063 0.0892 0.0
C1657 C 0.61002 0.9506 0.07645 0.0
C1658 C 0.59777 0.92762 0.11535 0.0
C1659 C 0.58774 0.94448 0.12903 0.0
C1660 C 0.58922 0.96444 0.11656 0.0
H1661 H 0.4885 0.9517 0.25304 0.0
H1662 H 0.51134 0.95019 0.21028 0.0
C1663 C 0.60025 0.96748 0.0906 0.0
C1664 C 0.57583 0.94164 0.15654 0.0
H1665 H 0.53293 0.91782 0.18543 0.0
C1666 C 0.58161 0.9535 0.18115 0.0
C1667 C 0.55808 0.92857 0.15805 0.0
C1668 C 0.5506 0.91614 0.13194 0.0
C1669 C 0.56989 0.95302 0.20706 0.0
C1670 C 0.55218 0.93991 0.20862 0.0
C1671 C 0.54662 0.92773 0.18421 0.0
C1672 C 0.53835 0.9398 0.23459 0.0
C1673 C 0.57608 0.96722 0.23206 0.0
C1674 C 0.54588 0.93412 0.26236 0.0
C1675 C 0.5329 0.9352 0.28691 0.0
C1676 C 0.51217 0.94176 0.28394 0.0
C1677 C 0.50448 0.94677 0.25599 0.0
C1678 C 0.51748 0.94583 0.23154 0.0
H1679 H 0.58698 0.97969 0.22486 0.0
H1680 H 0.5622 0.97469 0.24204 0.0
H1681 H 0.584 0.9579 0.24924 0.0
H1682 H 0.56181 0.92896 0.26507 0.0
H1683 H 0.53908 0.93092 0.30818 0.0
H1684 H 0.48552 0.35608 0.82175 0.0
H1685 H 0.49002 0.33646 0.86733 0.0
H1686 H 0.42383 0.32557 0.87115 0.0
H1687 H 0.41905 0.34597 0.82664 0.0
H1688 H 0.4395 0.33893 0.92328 0.0
H1689 H 0.48712 0.27363 0.87921 0.0
H1690 H 0.4976 0.29925 0.8728 0.0
H1691 H 0.47348 0.29172 0.85577 0.0
C1692 C 0.47192 0.34956 0.83233 0.0
C1693 C 0.45193 0.35253 0.82039 0.0
C1694 C 0.47455 0.33815 0.85821 0.0
C1695 C 0.45729 0.32933 0.8724 0.0
C1696 C 0.43738 0.33216 0.86045 0.0
H1697 H 0.44493 0.23245 -0.00092 0.0
H1698 H 0.44741 0.25483 0.95593 0.0
C1699 C 0.43471 0.34364 0.83478 0.0
C1700 C 0.45964 0.31767 0.90022 0.0
H1701 H 0.48087 0.27377 0.93022 0.0
C1702 C 0.44863 0.32473 0.92488 0.0
C1703 C 0.47148 0.29911 0.90212 0.0
C1704 C 0.48296 0.29032 0.87604 0.0
C1705 C 0.44869 0.31347 0.95123 0.0
C1706 C 0.46053 0.29492 0.95315 0.0
C1707 C 0.47194 0.2881 0.9287 0.0
C1708 C 0.4599 0.28143 0.97948 0.0
C1709 C 0.43537 0.32107 0.9763 0.0
C1710 C 0.46636 0.2889 0.007 0.0
C1711 C 0.46473 0.27619 0.03183 0.0
C1712 C 0.45683 0.2558 0.02934 0.0
C1713 C 0.45093 0.24819 0.00166 0.0
C1714 C 0.45242 0.26091 0.97697 0.0
H1715 H 0.4237 0.33277 0.96902 0.0
H1716 H 0.42705 0.30786 0.98685 0.0
H1717 H 0.44545 0.32858 0.99305 0.0
H1718 H 0.47262 0.30454 0.00929 0.0
H1719 H 0.46969 0.28227 0.05288 0.0
H1720 H 0.16281 0.19674 0.75016 0.0
H1721 H 0.13984 0.20051 0.70771 0.0
H1722 H 0.08778 0.21146 0.76535 0.0
H1723 H 0.11078 0.20794 0.80799 0.0
H1724 H 0.10539 0.17539 0.69603 0.0
H1725 H 0.08295 0.25894 0.70483 0.0
H1726 H 0.10512 0.24815 0.72388 0.0
H1727 H 0.0793 0.24399 0.73775 0.0
C1728 C 0.1465 0.20004 0.75377 0.0
C1729 C 0.13849 0.20186 0.7823 0.0
C1730 C 0.13342 0.20225 0.72953 0.0
C1731 C 0.11218 0.20647 0.73341 0.0
C1732 C 0.1042 0.20857 0.7619 0.0
H1733 H 1.01432 0.18023 0.60882 0.0
H1734 H 1.03589 0.18389 0.65274 0.0
C1735 C 0.11729 0.20636 0.78619 0.0
C1736 C 0.09819 0.20718 0.70766 0.0
H1737 H 1.06436 0.23834 0.66996 0.0
C1738 C 0.09647 0.18918 0.69027 0.0
C1739 C 0.08674 0.22526 0.70013 0.0
C1740 C 0.08869 0.24527 0.71743 0.0
C1741 C 0.08336 0.18862 0.66573 0.0
C1742 C 1.07143 0.20646 0.65867 0.0
C1743 C 0.07339 0.22463 0.6757 0.0
C1744 C 1.05699 0.20634 0.63344 0.0
C1745 C 0.08251 0.16899 0.64738 0.0
C1746 C 1.06129 0.21839 0.60851 0.0
C1747 C 1.04902 0.2163 0.58332 0.0
C1748 C 1.03227 0.20213 0.58277 0.0
C1749 C 1.02738 0.19096 0.60839 0.0
C1750 C 1.03962 0.19307 0.6335 0.0
H1751 H 0.09591 0.15852 0.65184 0.0
H1752 H 1.06801 0.1603 0.65249 0.0
H1753 H 0.08234 0.17283 0.62364 0.0
H1754 H 0.07464 0.22875 0.60813 0.0
H1755 H 1.05322 0.22505 0.56389 0.0
H1756 H 0.23711 0.87898 0.5291 0.0
H1757 H 0.23546 0.85651 0.48568 0.0
H1758 H 0.16933 0.86731 0.47932 0.0
H1759 H 0.17099 0.89022 0.52228 0.0
H1760 H 0.21338 0.82041 0.47828 0.0
H1761 H 0.18844 0.8796 0.39654 0.0
H1762 H 0.198 0.88667 0.43243 0.0
H1763 H 0.17169 0.87761 0.42789 0.0
C1764 C 0.22226 0.87661 0.51834 0.0
C1765 C 0.20419 0.88626 0.529 0.0
C1766 C 0.22132 0.8638 0.49358 0.0
C1767 C 0.20232 0.86046 0.47909 0.0
C1768 C 0.18423 0.87004 0.4898 0.0
H1769 H 0.17294 0.77933 0.33005 0.0
H1770 H 0.17013 0.80167 0.37357 0.0
C1771 C 0.18518 0.88299 0.51444 0.0
C1772 C 0.20145 0.84636 0.45338 0.0
H1773 H 0.18966 0.84439 0.3804 0.0
C1774 C 0.20819 0.82566 0.45688 0.0
C1775 C 0.19458 0.85325 0.42553 0.0
C1776 C 0.18794 0.87554 0.4202 0.0
C1777 C 0.20839 0.81168 0.43322 0.0
C1778 C 0.20179 0.81864 0.40537 0.0
C1779 C 0.19463 0.83917 0.40191 0.0
C1780 C 0.20336 0.80513 0.37924 0.0
C1781 C 0.21569 0.78956 0.43807 0.0
C1782 C 0.22297 0.79995 0.36804 0.0
C1783 C 0.22466 0.78745 0.34309 0.0
C1784 C 0.20672 0.77982 0.32892 0.0
C1785 C 0.18705 0.7851 0.34026 0.0
C1786 C 0.18539 0.79775 0.36516 0.0
H1787 H 0.21603 0.78542 0.46171 0.0
H1788 H 0.20547 0.77831 0.42633 0.0
H1789 H 0.23168 0.78783 0.42921 0.0
H1790 H 0.23699 0.8058 0.37843 0.0
H1791 H 0.24003 0.7841 0.33461 0.0
H1792 H 1.03489 0.65749 0.40516 0.0
H1793 H 1.057 0.66173 0.36209 0.0
H1794 H 1.05279 0.72868 0.37027 0.0
H1795 H 1.03007 0.72467 0.41306 0.0
H1796 H 1.04649 0.68649 0.30803 0.0
H1797 H 0.11721 0.7133 0.3682 0.0
H1798 H 0.09665 0.69882 0.38601 0.0
H1799 H 0.09278 0.72572 0.37656 0.0
C1800 C 1.03837 0.67315 0.39764 0.0
C1801 C 1.03062 0.69075 0.41257 0.0
C1802 C 1.05114 0.67551 0.37313 0.0
C1803 C 1.0566 0.69549 0.36323 0.0
C1804 C 1.0489 0.71313 0.37787 0.0
H1805 H 0.14349 0.72856 0.22309 0.0
H1806 H 0.11921 0.73023 0.26448 0.0
C1807 C 1.03599 0.71079 0.40235 0.0
C1808 C 1.07027 0.69766 0.33738 0.0
H1809 H 0.11993 0.70975 0.317 0.0
C1810 C 1.06252 0.69168 0.30988 0.0
C1811 C 0.09107 0.70459 0.34 0.0
C1812 C 0.1001 0.71091 0.36924 0.0
C1813 C 0.07514 0.69225 0.28482 0.0
C1814 C 0.09621 0.69842 0.28756 0.0
C1815 C 0.1038 0.70493 0.31499 0.0
C1816 C 0.11082 0.69749 0.26247 0.0
C1817 C 1.06571 0.68638 0.25562 0.0
C1818 C 0.11444 0.67846 0.248 0.0
C1819 C 0.12815 0.6775 0.22432 0.0
C1820 C 0.13868 0.69551 0.21491 0.0
C1821 C 0.13545 0.71446 0.22981 0.0
C1822 C 0.12162 0.71544 0.25342 0.0
H1823 H 1.04855 0.68848 0.25566 0.0
H1824 H 1.07242 0.69586 0.23757 0.0
H1825 H 1.06894 0.66966 0.25106 0.0
H1826 H 0.10673 0.6643 0.25515 0.0
H1827 H 0.13058 0.66263 0.21347 0.0
H1828 H 0.22248 0.26532 0.63869 0.0
H1829 H 0.21839 0.28697 0.59494 0.0
H1830 H 0.17096 0.32299 0.63858 0.0
H1831 H 0.17505 0.30145 0.68264 0.0
H1832 H 0.1622 0.31275 0.57778 0.0
H1833 H 0.24047 0.34792 0.59417 0.0
H1834 H 0.24008 0.31986 0.59318 0.0
H1835 H 0.22723 0.33344 0.62252 0.0
C1836 C 0.21115 0.27783 0.63899 0.0
C1837 C 0.19929 0.28186 0.66428 0.0
C1838 C 0.20881 0.29014 0.61396 0.0
C1839 C 0.19464 0.30677 0.61375 0.0
C1840 C 0.18204 0.31024 0.63839 0.0
H1841 H 0.19784 0.41373 0.49815 0.0
H1842 H 0.19644 0.38994 0.53999 0.0
C1843 C 0.18435 0.29789 0.66348 0.0
C1844 C 0.19378 0.32115 0.58835 0.0
H1845 H 0.22295 0.35642 0.55015 0.0
C1846 C 0.17544 0.32233 0.5717 0.0
C1847 C 0.21101 0.33382 0.58078 0.0
C1848 C 0.23077 0.33391 0.5987 0.0
C1849 C 0.17401 0.33565 0.54729 0.0
C1850 C 0.19146 0.34788 0.53927 0.0
C1851 C 0.20966 0.34689 0.55621 0.0
C1852 C 0.19114 0.36222 0.51379 0.0
C1853 C 0.15378 0.3368 0.53058 0.0
C1854 C 0.18867 0.3545 0.48515 0.0
C1855 C 0.18952 0.36809 0.46115 0.0
C1856 C 0.19299 0.38955 0.46546 0.0
C1857 C 0.19527 0.39724 0.49416 0.0
C1858 C 0.19444 0.38368 0.51808 0.0
H1859 H 0.14059 0.33035 0.54345 0.0
H1860 H 0.15013 0.35319 0.52449 0.0
H1861 H 0.15517 0.32756 0.51007 0.0
H1862 H 0.18647 0.33794 0.48133 0.0
H1863 H 0.18763 0.36178 0.43925 0.0
H1864 H 0.49557 0.42561 0.73009 0.0
H1865 H 0.51693 0.42562 0.77442 0.0
H1866 H 0.53874 0.4877 0.75394 0.0
H1867 H 0.5169 0.48797 0.70978 0.0
H1868 H 0.55906 0.42903 0.7791 0.0
H1869 H 0.52035 0.49382 0.83876 0.0
H1870 H 0.50899 0.48156 0.80686 0.0
H1871 H 0.52922 0.50077 0.80276 0.0
C1872 C 0.50484 0.43931 0.73512 0.0
C1873 C 0.50464 0.4568 0.71655 0.0
C1874 C 0.51704 0.43928 0.76042 0.0
C1875 C 0.52925 0.45673 0.76764 0.0
C1876 C 0.52912 0.47423 0.74907 0.0
H1877 H 0.63232 0.45674 0.89144 0.0
H1878 H 0.61061 0.45651 0.84734 0.0
C1879 C 0.51678 0.47432 0.72378 0.0
C1880 C 0.54253 0.45624 0.79419 0.0
H1881 H 0.55171 0.48084 0.85938 0.0
C1882 C 0.55744 0.44033 0.7967 0.0
C1883 C 0.54018 0.47084 0.81726 0.0
C1884 C 0.52369 0.4876 0.8165 0.0
C1885 C 0.5702 0.4387 0.82156 0.0
C1886 C 0.56828 0.45367 0.84424 0.0
C1887 C 0.55325 0.46948 0.84185 0.0
C1888 C 0.58154 0.45311 0.87081 0.0
C1889 C 0.58529 0.42071 0.82357 0.0
C1890 C 0.57239 0.45158 0.89864 0.0
C1891 C 0.58474 0.45183 0.92385 0.0
C1892 C 0.60649 0.45363 0.92169 0.0
C1893 C 0.61564 0.45496 0.89377 0.0
C1894 C 0.60326 0.45484 0.86856 0.0
H1895 H 0.58083 0.4077 0.80867 0.0
H1896 H 0.60101 0.42618 0.8171 0.0
H1897 H 0.5862 0.4146 0.84631 0.0
H1898 H 0.55565 0.45025 0.90085 0.0
H1899 H 0.57727 0.45062 0.94506 0.0
H1900 H 0.44923 0.73798 0.99414 0.0
H1901 H 0.45129 0.76115 0.03675 0.0
H1902 H 0.46202 0.81378 0.97975 0.0
H1903 H 0.46019 0.79059 0.93689 0.0
H1904 H 0.48815 0.81227 0.03149 0.0
H1905 H 0.404 0.80293 0.05626 0.0
H1906 H 0.41814 0.77886 0.05283 0.0
H1907 H 0.41516 0.79554 0.02146 0.0
C1908 C 0.45206 0.75449 0.99069 0.0
C1909 C 0.45422 0.7626 0.96226 0.0
C1910 C 0.45322 0.76768 0.01501 0.0
C1911 C 0.45647 0.78918 0.01129 0.0
C1912 C 0.45938 0.79723 0.98298 0.0
H1913 H 0.42734 0.88295 0.14148 0.0
H1914 H 0.43163 0.86328 0.09591 0.0
C1915 C 0.45823 0.78401 0.95859 0.0
C1916 C 0.45607 0.80333 0.03691 0.0
H1917 H 0.42436 0.82095 0.09146 0.0
C1918 C 0.47422 0.81428 0.0446 0.0
C1919 C 0.43777 0.80605 0.05365 0.0
C1920 C 0.41759 0.79539 0.04557 0.0
C1921 C 0.47464 0.82762 0.06908 0.0
C1922 C 0.45649 0.82983 0.08632 0.0
C1923 C 0.43828 0.81914 0.07827 0.0
C1924 C 0.45582 0.84315 0.11284 0.0
C1925 C 0.49437 0.83941 0.0761 0.0
C1926 C 0.46821 0.8385 0.13734 0.0
C1927 C 0.46576 0.8497 0.16346 0.0
C1928 C 0.45073 0.86557 0.16553 0.0
C1929 C 0.43884 0.87061 0.14065 0.0
C1930 C 0.44134 0.85947 0.11458 0.0
H1931 H 0.50496 0.84018 0.05689 0.0
H1932 H 0.49085 0.85557 0.08348 0.0
H1933 H 0.5027 0.83132 0.09411 0.0
H1934 H 0.47919 0.82569 0.13663 0.0
H1935 H 0.47498 0.84534 0.18237 0.0
H1936 H 0.11772 0.42353 0.58444 0.0
H1937 H 0.09577 0.41721 0.62732 0.0
H1938 H 1.05175 0.46285 0.59596 0.0
H1939 H 0.07317 0.46867 0.55258 0.0
H1940 H 0.08769 0.4472 0.6675 0.0
H1941 H 1.01352 0.41638 0.6233 0.0
H1942 H 1.03723 0.41685 0.60208 0.0
H1943 H 1.02145 0.43995 0.60522 0.0
C1944 C 0.10306 0.43175 0.58625 0.0
C1945 C 0.09722 0.4467 0.56525 0.0
C1946 C 0.0906 0.4282 0.61081 0.0
C1947 C 1.07206 0.43942 0.61466 0.0
C1948 C 1.06579 0.45372 0.59315 0.0
H1949 H 1.01515 0.48004 0.77506 0.0
H1950 H 1.03416 0.47626 0.72878 0.0
C1951 C 0.07819 0.45725 0.56858 0.0
C1952 C 1.06058 0.43814 0.64266 0.0
H1953 H 1.01212 0.43141 0.67173 0.0
C1954 C 1.07122 0.44346 0.66849 0.0
C1955 C 1.03917 0.43308 0.64391 0.0
C1956 C 1.02723 0.42603 0.61717 0.0
C1957 C 1.06086 0.44464 0.69542 0.0
C1958 C 1.0392 0.44086 0.69636 0.0
C1959 C 1.02869 0.43468 0.67078 0.0
C1960 C 1.0272 0.44333 0.72372 0.0
C1961 C 0.07321 0.44993 0.72261 0.0
C1962 C 1.01649 0.42624 0.73557 0.0
C1963 C 1.00558 0.42838 0.76181 0.0
C1964 C 1.00519 0.44769 0.77653 0.0
C1965 C 1.01549 0.46492 0.7643 0.0
C1966 C 1.02638 0.46277 0.738 0.0
H1967 H 0.09004 0.44653 0.71968 0.0
H1968 H 1.07162 0.46686 0.72736 0.0
H1969 H 1.06744 0.44108 0.74188 0.0
H1970 H 1.01679 0.41117 0.72471 0.0
H1971 H 0.99758 0.41491 0.77062 0.0
H1972 H 0.90884 0.86271 0.33997 0.0
H1973 H 0.91192 0.83971 0.38236 0.0
H1974 H 0.97868 0.83989 0.37345 0.0
H1975 H 0.97586 0.86342 0.33128 0.0
H1976 H 0.95849 0.79874 0.38044 0.0
H1977 H 0.93492 0.85658 0.46498 0.0
H1978 H 0.91802 0.85493 0.43363 0.0
H1979 H 0.94424 0.86414 0.42917 0.0
C1980 C 0.92424 0.85819 0.34725 0.0
C1981 C 0.94212 0.86512 0.33232 0.0
C1982 C 0.92593 0.84496 0.37142 0.0
C1983 C 0.94552 0.83833 0.38119 0.0
C1984 C 0.96342 0.84492 0.36624 0.0
H1985 H 0.97805 0.74955 0.52005 0.0
H1986 H 0.97968 0.77335 0.4781 0.0
C1987 C 0.96176 0.85828 0.34208 0.0
C1988 C 0.94712 0.8242 0.40674 0.0
H1989 H 0.93649 0.82111 0.47987 0.0
C1990 C 0.95389 0.80362 0.40227 0.0
C1991 C 0.94104 0.83068 0.43508 0.0
C1992 C 0.9343 0.85284 0.4412 0.0
C1993 C 0.95403 0.78906 0.4253 0.0
C1994 C 0.94765 0.79547 0.45362 0.0
C1995 C 0.9413 0.81621 0.45814 0.0
C1996 C 0.94683 0.78083 0.47878 0.0
C1997 C 0.96025 0.76679 0.41885 0.0
C1998 C 0.92794 0.7775 0.4935 0.0
C1999 C 0.92703 0.76415 0.51766 0.0
C2000 C 0.94502 0.75393 0.52756 0.0
C2001 C 0.96393 0.7572 0.5128 0.0
C2002 C 0.96486 0.77067 0.48872 0.0
H2003 H 0.95945 0.76323 0.39503 0.0
H2004 H 0.97653 0.7643 0.42617 0.0
H2005 H 0.95012 0.75559 0.43075 0.0
H2006 H 0.91386 0.78521 0.48622 0.0
H2007 H 0.91224 0.76182 0.52856 0.0
H2008 H 0.5322 0.73192 0.07824 0.0
H2009 H 0.55158 0.73615 0.12415 0.0
H2010 H 0.56667 0.67052 0.12333 0.0
H2011 H 0.54661 0.66595 0.07841 0.0
H2012 H 0.5537 0.68378 0.17701 0.0
H2013 H 0.61461 0.73694 0.1331 0.0
H2014 H 0.58833 0.74587 0.12839 0.0
H2015 H 0.59692 0.72273 0.10964 0.0
C2016 C 0.53951 0.71836 0.08796 0.0
C2017 C 0.53799 0.69862 0.07448 0.0
C2018 C 0.55078 0.72086 0.11401 0.0
C2019 C 0.56085 0.70371 0.12687 0.0
C2020 C 0.55914 0.68399 0.11366 0.0
H2021 H 0.661 0.69324 0.2492 0.0
H2022 H 0.63788 0.69594 0.20679 0.0
C2023 C 0.54783 0.68145 0.08779 0.0
C2024 C 0.573 0.706 0.15432 0.0
H2025 H 0.61633 0.72893 0.18353 0.0
C2026 C 0.56733 0.69374 0.17854 0.0
C2027 C 0.59086 0.71889 0.1561 0.0
C2028 C 0.59821 0.73174 0.13039 0.0
C2029 C 0.57927 0.69366 0.20429 0.0
C2030 C 0.5971 0.70659 0.20611 0.0
C2031 C 0.60256 0.71917 0.18212 0.0
C2032 C 0.61115 0.7061 0.23188 0.0
C2033 C 0.57317 0.67906 0.2288 0.0
C2034 C 0.60389 0.71129 0.25999 0.0
C2035 C 0.61703 0.70953 0.28432 0.0
C2036 C 0.63766 0.70277 0.28081 0.0
C2037 C 0.6451 0.69831 0.25255 0.0
C2038 C 0.63194 0.69992 0.22831 0.0
H2039 H 0.56211 0.66681 0.22125 0.0
H2040 H 0.58706 0.6713 0.23828 0.0
H2041 H 0.56546 0.68813 0.24645 0.0
H2042 H 0.58805 0.71656 0.26312 0.0
H2043 H 0.61104 0.7134 0.30584 0.0
H2044 H 0.68153 0.3573 0.0554 0.0
H2045 H 0.67951 0.33344 0.01341 0.0
H2046 H 0.70588 0.38105 0.95772 0.0
H2047 H 0.70729 0.40515 -0.00063 0.0
H2048 H 0.67407 0.36106 0.93116 0.0
H2049 H 0.72873 0.30319 0.97881 0.0
H2050 H 0.70628 0.30817 0.00109 0.0
H2051 H 0.72485 0.32871 0.99466 0.0
C2052 C 0.68691 0.36261 0.03417 0.0
C2053 C 0.69484 0.38291 0.03062 0.0
C2054 C 0.68583 0.34897 0.01026 0.0
C2055 C 0.69298 0.35532 0.98259 0.0
C2056 C 0.70039 0.3758 0.97892 0.0
H2057 H 0.7357 0.28228 0.83789 0.0
H2058 H 0.73065 0.30332 0.88183 0.0
C2059 C 0.70125 0.38951 0.00272 0.0
C2060 C 0.69304 0.34064 0.95741 0.0
H2061 H 0.71319 0.29435 0.93353 0.0
C2062 C 0.68256 0.34643 0.93166 0.0
C2063 C 0.70431 0.32167 0.95809 0.0
C2064 C 0.71685 0.31511 0.98452 0.0
C2065 C 0.68331 0.33393 0.90637 0.0
C2066 C 0.69438 0.31484 0.90716 0.0
C2067 C 0.70456 0.30889 0.93308 0.0
C2068 C 0.69702 0.30158 0.88075 0.0
C2069 C 0.67296 0.34173 0.87876 0.0
C2070 C 0.67979 0.29331 0.86573 0.0
C2071 C 0.68262 0.28156 0.84015 0.0
C2072 C 0.70276 0.27767 0.82936 0.0
C2073 C 0.71996 0.28538 0.84512 0.0
C2074 C 0.71711 0.29725 0.87045 0.0
H2075 H 0.66967 0.35875 0.87986 0.0
H2076 H 0.68282 0.33866 0.85925 0.0
H2077 H 0.65793 0.33345 0.87571 0.0
H2078 H 0.66415 0.29605 0.87367 0.0
H2079 H 0.66902 0.27592 0.82854 0.0
H2080 H 0.34083 0.21111 0.22323 0.0
H2081 H 0.31658 0.23149 0.25306 0.0
H2082 H 0.31932 0.28148 0.18982 0.0
H2083 H 0.3433 0.26143 0.16023 0.0
H2084 H 0.33409 0.26642 0.27495 0.0
H2085 H 0.26103 0.28821 0.21942 0.0
H2086 H 0.27627 0.26592 0.20804 0.0
H2087 H 0.28265 0.29178 0.19518 0.0
C2088 C 0.33549 0.22607 0.21512 0.0
C2089 C 0.34428 0.23488 0.18977 0.0
C2090 C 0.32161 0.23765 0.23211 0.0
C2091 C 0.31628 0.25802 0.22373 0.0
C2092 C 0.32292 0.26566 0.1965 0.0
H2093 H 0.3029 0.37948 0.28688 0.0
H2094 H 0.31419 0.34619 0.26573 0.0
C2095 C 0.33673 0.25412 0.17953 0.0
C2096 C 0.30849 0.27301 0.24569 0.0
H2097 H 0.27559 0.31435 0.25309 0.0
C2098 C 0.32088 0.2765 0.27068 0.0
C2099 C 0.29143 0.28626 0.2399 0.0
C2100 C 0.277 0.28269 0.21429 0.0
C2101 C 0.3175 0.29378 0.28889 0.0
C2102 C 0.30137 0.30773 0.28183 0.0
C2103 C 0.28818 0.30362 0.258 0.0
C2104 C 0.29837 0.32727 0.29804 0.0
C2105 C 0.33179 0.29779 0.31452 0.0
C2106 C 0.28662 0.32735 0.32381 0.0
C2107 C 0.2801 0.34625 0.33583 0.0
C2108 C 0.2852 0.36524 0.32206 0.0
C2109 C 0.29857 0.36507 0.2977 0.0
C2110 C 0.30501 0.34614 0.28565 0.0
H2111 H 0.34374 0.28539 0.31702 0.0
H2112 H 0.33975 0.31306 0.31162 0.0
H2113 H 0.32255 0.29873 0.33503 0.0
H2114 H 0.28137 0.31281 0.33347 0.0
H2115 H 0.26961 0.34584 0.3544 0.0
H2116 H 0.59727 0.66097 0.50387 0.0
H2117 H 0.56328 0.64964 0.52151 0.0
H2118 H 0.53516 0.66934 0.44025 0.0
H2119 H 0.56932 0.67977 0.4218 0.0
H2120 H 0.52192 0.66471 0.52819 0.0
H2121 H 0.5293 0.60582 0.43828 0.0
H2122 H 0.55058 0.62282 0.44802 0.0
H2123 H 0.52859 0.63294 0.42827 0.0
C2124 C 0.58382 0.66318 0.4899 0.0
C2125 C 0.58607 0.67069 0.46115 0.0
C2126 C 0.56436 0.65695 0.50014 0.0
C2127 C 0.54683 0.65824 0.48189 0.0
C2128 C 0.5486 0.6679 0.45444 0.0
H2129 H 0.4624 0.55558 0.51639 0.0
H2130 H 0.46942 0.59053 0.49714 0.0
C2131 C 0.56814 0.67398 0.44403 0.0
C2132 C 0.52811 0.64606 0.48982 0.0
H2133 H 0.50626 0.59857 0.47583 0.0
C2134 C 0.51801 0.65052 0.51637 0.0
C2135 C 0.52288 0.62766 0.47417 0.0
C2136 C 0.5334 0.62186 0.44568 0.0
C2137 C 0.50412 0.63615 0.52891 0.0
C2138 C 0.50065 0.6168 0.51474 0.0
C2139 C 0.50902 0.61339 0.48676 0.0
C2140 C 0.49219 0.59841 0.53038 0.0
C2141 C 0.49413 0.64141 0.55788 0.0
C2142 C 0.50225 0.59145 0.55588 0.0
C2143 C 0.49823 0.57157 0.56695 0.0
C2144 C 0.48426 0.55815 0.55252 0.0
C2145 C 0.4732 0.5656 0.52806 0.0
C2146 C 0.47717 0.58557 0.51705 0.0
H2147 H 0.49085 0.65842 0.55936 0.0
H2148 H 0.4794 0.63263 0.56116 0.0
H2149 H 0.50504 0.63746 0.57591 0.0
H2150 H 0.5143 0.60078 0.56615 0.0
H2151 H 0.50672 0.56638 0.58612 0.0
H2152 H 0.28179 0.89176 0.75388 0.0
H2153 H 0.3152 0.88533 0.77655 0.0
H2154 H 0.34084 0.93962 0.7337 0.0
H2155 H 0.30699 0.94622 0.71055 0.0
H2156 H 0.36398 0.90709 0.72294 0.0
H2157 H 0.35052 0.9069 0.8413 0.0
H2158 H 0.33011 0.89173 0.82513 0.0
H2159 H 0.33247 0.91915 0.81628 0.0
C2160 C 0.29423 0.90288 0.75009 0.0
C2161 C 0.29168 0.91953 0.73041 0.0
C2162 C 0.31341 0.89921 0.76324 0.0
C2163 C 0.33051 0.91222 0.75735 0.0
C2164 C 0.32782 0.9295 0.73879 0.0
H2165 H 0.42386 0.83324 0.83565 0.0
H2166 H 0.41151 0.86823 0.82333 0.0
C2167 C 0.30853 0.93316 0.72547 0.0
C2168 C 0.35149 0.90537 0.76679 0.0
H2169 H 0.37341 0.87808 0.82275 0.0
C2170 C 0.36644 0.90141 0.74506 0.0
C2171 C 0.35532 0.89866 0.79581 0.0
C2172 C 0.34129 0.90461 0.82094 0.0
C2173 C 0.38346 0.88831 0.75066 0.0
C2174 C 0.38506 0.87848 0.77833 0.0
C2175 C 0.3719 0.88499 0.80116 0.0
C2176 C 0.39706 0.8589 0.78246 0.0
C2177 C 0.3988 0.88423 0.72634 0.0
C2178 C 0.39366 0.84209 0.76319 0.0
C2179 C 0.40098 0.82219 0.76991 0.0
C2180 C 0.41147 0.8185 0.79642 0.0
C2181 C 0.41596 0.83555 0.81493 0.0
C2182 C 0.40882 0.85557 0.80799 0.0
H2183 H 0.40172 0.89877 0.71371 0.0
H2184 H 0.41386 0.87827 0.73483 0.0
H2185 H 0.39213 0.87261 0.71086 0.0
H2186 H 0.38413 0.84397 0.74378 0.0
H2187 H 0.39756 0.80948 0.75494 0.0
H2188 H 1.07193 0.65836 0.07011 0.0
H2189 H 1.04157 0.64354 0.04585 0.0
H2190 H 1.05264 0.68279 0.97056 0.0
H2191 H 0.08391 0.69698 0.99445 0.0
H2192 H 1.00555 0.65475 0.02182 0.0
H2193 H 1.05943 0.62649 0.93452 0.0
H2194 H 1.06886 0.6393 0.96707 0.0
H2195 H 1.05711 0.65429 0.93811 0.0
C2196 C 1.06762 0.66422 0.04868 0.0
C2197 C 0.08037 0.6786 0.03396 0.0
C2198 C 1.05023 0.65575 0.0348 0.0
C2199 C 1.04512 0.66164 0.00606 0.0
C2200 C 1.05667 0.67753 0.99238 0.0
H2201 H 0.97456 0.57011 0.90315 0.0
H2202 H 0.9836 0.60576 0.91789 0.0
C2203 C 0.07441 0.68572 0.00606 0.0
C2204 C 1.02954 0.64904 0.98977 0.0
H2205 H 1.02633 0.6121 0.9359 0.0
C2206 C 1.00991 0.64577 0.00261 0.0
C2207 C 1.0352 0.63731 0.96462 0.0
C2208 C 1.05631 0.63934 0.95032 0.0
C2209 C 0.99655 0.62998 0.99241 0.0
C2210 C 1.00292 0.61738 0.96867 0.0
C2211 C 1.02157 0.62191 0.95411 0.0
C2212 C 0.99277 0.59724 0.96187 0.0
C2213 C 0.97625 0.62611 0.00802 0.0
C2214 C 0.99459 0.58078 0.98195 0.0
C2215 C 0.99002 0.56034 0.97342 0.0
C2216 C 0.98343 0.556 0.94462 0.0
C2217 C 0.98007 0.57281 0.92528 0.0
C2218 C 0.98495 0.59324 0.93373 0.0
H2219 H 0.97078 0.64036 0.01961 0.0
H2220 H 0.96403 0.62087 0.99241 0.0
H2221 H 0.9785 0.61362 0.02457 0.0
H2222 H 1.00104 0.58351 0.00358 0.0
H2223 H 0.99307 0.54787 0.98883 0.0
H2224 H 0.82183 0.90911 0.80411 0.0
H2225 H 0.85491 0.89103 0.79703 0.0
H2226 H 0.84368 0.85449 0.87476 0.0
H2227 H 0.81009 0.87156 0.88115 0.0
H2228 H 0.89171 0.88238 0.8307 0.0
H2229 H 0.84374 0.81155 0.80805 0.0
H2230 H 0.83246 0.83721 0.81105 0.0
H2231 H 0.84024 0.82331 0.84345 0.0
C2232 C 0.82641 0.89728 0.81978 0.0
C2233 C 0.81305 0.89146 0.8428 0.0
C2234 C 0.84546 0.88718 0.81593 0.0
C2235 C 0.85152 0.87122 0.83512 0.0
C2236 C 0.8391 0.86661 0.85952 0.0
H2237 H 0.93032 0.77051 0.77778 0.0
H2238 H 0.91617 0.79419 0.8144 0.0
C2239 C 0.81995 0.87651 0.86322 0.0
C2240 C 0.86915 0.85757 0.82713 0.0
H2241 H 0.87941 0.80889 0.80071 0.0
C2242 C 0.88917 0.8662 0.82456 0.0
C2243 C 0.86573 0.83648 0.81914 0.0
C2244 C 0.84439 0.82655 0.8203 0.0
C2245 C 0.90579 0.85439 0.81333 0.0
C2246 C 0.9021 0.83361 0.80409 0.0
C2247 C 0.8823 0.82476 0.80806 0.0
C2248 C 0.91723 0.82147 0.7865 0.0
C2249 C 0.92697 0.86438 0.811 0.0
C2250 C 0.92381 0.82921 0.75926 0.0
C2251 C 0.9323 0.81575 0.73836 0.0
C2252 C 0.93392 0.79422 0.74412 0.0
C2253 C 0.92937 0.78697 0.77251 0.0
C2254 C 0.92116 0.8005 0.79353 0.0
H2255 H 0.92928 0.87625 0.82852 0.0
H2256 H 0.9396 0.8526 0.81246 0.0
H2257 H 0.92823 0.87251 0.7896 0.0
H2258 H 0.92069 0.84523 0.75308 0.0
H2259 H 0.93611 0.82193 0.71694 0.0
H2260 H 0.77357 0.33897 0.20845 0.0
H2261 H 0.7851 0.30463 0.22418 0.0
H2262 H 0.72371 0.27963 0.20854 0.0
H2263 H 0.7117 0.31446 0.19353 0.0
H2264 H 0.74149 0.2662 0.26167 0.0
H2265 H 0.79633 0.25474 0.1705 0.0
H2266 H 0.80021 0.28007 0.18644 0.0
H2267 H 0.7757 0.27389 0.16916 0.0
C2268 C 0.76237 0.32631 0.20872 0.0
C2269 C 0.7417 0.32948 0.1998 0.0
C2270 C 0.76908 0.30659 0.21727 0.0
C2271 C 0.75538 0.28952 0.21677 0.0
C2272 C 0.73457 0.29259 0.20861 0.0
H2273 H 0.84436 0.19615 0.26589 0.0
H2274 H 0.81137 0.20427 0.24146 0.0
C2275 C 0.72778 0.31244 0.20001 0.0
C2276 C 0.76319 0.26882 0.22585 0.0
H2277 H 0.8066 0.2392 0.21746 0.0
C2278 C 0.75536 0.25978 0.25158 0.0
C2279 C 0.78069 0.25985 0.21202 0.0
C2280 C 0.78854 0.26753 0.18279 0.0
C2281 C 0.76632 0.24382 0.2659 0.0
C2282 C 0.7858 0.23736 0.25458 0.0
C2283 C 0.79195 0.24438 0.22673 0.0
C2284 C 0.80192 0.22752 0.27332 0.0
C2285 C 0.75748 0.2349 0.29381 0.0
C2286 C 0.80719 0.23714 0.30003 0.0
C2287 C 0.82584 0.23239 0.31406 0.0
C2288 C 0.83984 0.21819 0.30141 0.0
C2289 C 0.8339 0.20731 0.27594 0.0
C2290 C 0.81503 0.21187 0.26207 0.0
H2291 H 0.74036 0.23298 0.29181 0.0
H2292 H 0.76449 0.21955 0.29931 0.0
H2293 H 0.76036 0.24598 0.31213 0.0
H2294 H 0.79786 0.24975 0.3088 0.0
H2295 H 0.83008 0.24127 0.3334 0.0
H2296 H 0.17653 1.06735 0.90688 0.0
H2297 H 0.16429 1.03171 0.91718 0.0
H2298 H 0.10169 1.05512 0.92699 0.0
H2299 H 0.11368 0.09022 0.91563 0.0
H2300 H 0.14906 1.01658 0.96402 0.0
H2301 H 0.08891 1.0047 0.8808 0.0
H2302 H 0.10759 1.02569 0.8779 0.0
H2303 H 0.0835 1.02932 0.8977 0.0
C2304 C 0.16011 1.06468 0.91073 0.0
C2305 C 0.14598 0.08142 0.91022 0.0
C2306 C 0.15313 1.04437 0.91651 0.0
C2307 C 0.13195 1.04056 0.92207 0.0
C2308 C 0.11793 1.05738 0.92151 0.0
H2309 H 1.07012 0.98561 0.05219 0.0
H2310 H 0.09792 0.99764 0.02061 0.0
C2311 C 0.12481 0.07752 0.91529 0.0
C2312 C 0.12454 1.01975 0.93194 0.0
H2313 H 0.08064 0.99003 0.93009 0.0
C2314 C 0.13441 1.01034 0.956 0.0
C2315 C 0.10601 1.01078 0.92081 0.0
C2316 C 0.09612 1.01807 0.89262 0.0
C2317 C 0.12479 0.99407 0.9715 0.0
C2318 C 0.10442 0.98779 0.96348 0.0
C2319 C 0.09593 0.99523 0.93708 0.0
C2320 C 0.09031 0.97699 0.98436 0.0
C2321 C 0.13622 0.98448 0.99703 0.0
C2322 C 0.07646 0.96138 0.97473 0.0
C2323 C 1.06001 0.9549 0.99267 0.0
C2324 C 1.05738 0.96371 0.02065 0.0
C2325 C 1.07202 0.97825 0.03095 0.0
C2326 C 0.08812 0.98501 0.01289 0.0
H2327 H 0.153 0.98272 0.99173 0.0
H2328 H 0.13517 0.99505 0.01628 0.0
H2329 H 0.12981 0.96894 0.00298 0.0
H2330 H 0.0777 0.95501 0.95279 0.0
H2331 H 1.04889 0.94365 0.98427 0.0
H2332 H 0.61127 0.16567 0.47293 0.0
H2333 H 0.58157 0.15354 0.44493 0.0
H2334 H 0.54027 0.18769 0.50193 0.0
H2335 H 0.57021 0.20044 0.53 0.0
H2336 H 0.53335 0.14594 0.50227 0.0
H2337 H 0.53722 0.17195 0.38742 0.0
H2338 H 0.56229 0.16326 0.39954 0.0
H2339 H 0.55044 0.18565 0.41674 0.0
C2340 C 0.59602 0.17147 0.47883 0.0
C2341 C 0.59316 0.18386 0.504 0.0
C2342 C 0.57896 0.16453 0.46263 0.0
C2343 C 0.55868 0.16984 0.47115 0.0
C2344 C 0.55581 0.18352 0.49488 0.0
H2345 H 0.46643 1.07182 0.43231 0.0
H2346 H 0.47686 0.1078 0.44396 0.0
C2347 C 0.57293 0.1906 0.51106 0.0
C2348 C 0.54107 0.1575 0.45935 0.0
H2349 H 0.52324 0.13658 0.39527 0.0
C2350 C 0.53052 0.14434 0.47892 0.0
C2351 C 0.53741 0.1555 0.42892 0.0
C2352 C 0.54732 0.17004 0.40702 0.0
C2353 C 0.51828 0.12769 0.4688 0.0
C2354 C 0.51613 0.12452 0.43821 0.0
C2355 C 0.52503 0.13894 0.4187 0.0
C2356 C 0.50797 0.10457 0.42637 0.0
C2357 C 0.50947 0.11252 0.49092 0.0
C2358 C 0.52158 0.0913 0.41117 0.0
C2359 C 0.5156 1.07094 0.40422 0.0
C2360 C 0.49592 1.06345 0.4125 0.0
C2361 C 0.48182 0.07714 0.42614 0.0
C2362 C 0.48775 0.09764 0.43278 0.0
H2363 H 0.51534 0.11556 0.51346 0.0
H2364 H 0.49227 0.11392 0.49133 0.0
H2365 H 0.51345 0.0962 0.48487 0.0
H2366 H 0.53727 0.09631 0.40607 0.0
H2367 H 0.52682 1.06072 0.39384 0.0
loop_
_geom_bond_atom_site_label_1
_geom_bond_atom_site_label_2
_geom_bond_distance
_geom_bond_site_symmetry_2
_ccdc_geom_bond_type
Sm0 C2 2.846 1_554 S
Sm0 O20 2.543 1_554 S
Sm0 O21 2.450 1_554 S
Sm0 O22 2.681 . S
Sm0 O23 2.464 . S
Sm0 O24 2.396 . S
Sm0 O28 2.386 . S
Sm0 O31 2.408 . S
Sm1 C11 2.846 . S
Sm1 O22 2.386 . S
Sm1 O25 2.408 . S
Sm1 O26 2.543 . S
Sm1 O27 2.450 . S
Sm1 O28 2.681 . S
Sm1 O29 2.464 . S
Sm1 O30 2.396 . S
C2 Sm0 2.846 1_556 S
C2 C3 1.506 . S
C2 O20 1.261 . S
C2 O21 1.242 . S
C3 C2 1.506 . S
C3 C4 1.358 . S
C3 C8 1.382 . S
C4 C3 1.358 . S
C4 C5 1.385 . S
C4 H32 0.930 . S
C5 C4 1.385 . S
C5 C6 1.395 . S
C5 H33 0.929 . S
C6 C5 1.395 . S
C6 C7 1.335 . S
C7 C6 1.335 . S
C7 C8 1.398 . S
C7 H34 0.930 . S
C8 C3 1.382 . S
C8 C7 1.398 . S
C8 H35 0.929 . S
C9 O22 1.271 . S
C9 O23 1.251 . S
C10 O24 1.252 . S
C10 O25 1.272 . S
C11 Sm1 2.846 . S
C11 C12 1.506 . S
C11 O26 1.261 . S
C11 O27 1.242 . S
C12 C11 1.506 . S
C12 C13 1.358 . S
C12 C17 1.382 . S
C13 C12 1.358 . S
C13 C14 1.385 . S
C13 H36 0.930 . S
C14 C13 1.385 . S
C14 C15 1.395 . S
C14 H37 0.929 . S
C15 C14 1.395 . S
C15 C16 1.335 . S
C16 C15 1.335 . S
C16 C17 1.398 . S
C16 H38 0.930 . S
C17 C12 1.382 . S
C17 C16 1.398 . S
C17 H39 0.929 . S
C18 O28 1.271 . S
C18 O29 1.251 . S
C19 O30 1.252 . S
C19 O31 1.272 . S
O20 Sm0 2.543 1_556 S
O20 C2 1.261 . S
O21 Sm0 2.450 1_556 S
O21 C2 1.242 . S
O22 Sm0 2.681 . S
O22 Sm1 2.386 . S
O22 C9 1.271 . S
O23 Sm0 2.464 . S
O23 C9 1.251 . S
O24 Sm0 2.396 . S
O24 C10 1.252 . S
O25 Sm1 2.408 . S
O25 C10 1.272 . S
O26 Sm1 2.543 . S
O26 C11 1.261 . S
O27 Sm1 2.450 . S
O27 C11 1.242 . S
O28 Sm0 2.386 . S
O28 Sm1 2.681 . S
O28 C18 1.271 . S
O29 Sm1 2.464 . S
O29 C18 1.251 . S
O30 Sm1 2.396 . S
O30 C19 1.252 . S
O31 Sm0 2.408 . S
O31 C19 1.272 . S
H32 C4 0.930 . S
H33 C5 0.929 . S
H34 C7 0.930 . S
H35 C8 0.929 . S
H36 C13 0.930 . S
H37 C14 0.929 . S
H38 C16 0.930 . S
H39 C17 0.929 . S
Sm40 C42 2.846 . S
Sm40 O60 2.543 . S
Sm40 O61 2.450 . S
Sm40 O62 2.681 . S
Sm40 O63 2.464 . S
Sm40 O64 2.396 . S
Sm40 O68 2.386 . S
Sm40 O71 2.408 . S
Sm41 C51 2.846 . S
Sm41 O62 2.386 . S
Sm41 O65 2.408 . S
Sm41 O66 2.543 . S
Sm41 O67 2.450 . S
Sm41 O68 2.681 . S
Sm41 O69 2.464 . S
Sm41 O70 2.396 . S
C42 Sm40 2.846 . S
C42 C43 1.506 . S
C42 O60 1.261 . S
C42 O61 1.242 . S
C43 C42 1.506 . S
C43 C44 1.358 . S
C43 C48 1.382 . S
C44 C43 1.358 . S
C44 C45 1.385 . S
C44 H72 0.930 . S
C45 C44 1.385 . S
C45 C46 1.395 . S
C45 H73 0.929 . S
C46 C45 1.395 . S
C46 C47 1.335 . S
C47 C46 1.335 . S
C47 C48 1.398 . S
C47 H74 0.930 . S
C48 C43 1.382 . S
C48 C47 1.398 . S
C48 H75 0.929 . S
C49 O62 1.271 . S
C49 O63 1.251 . S
C50 O64 1.252 . S
C50 O65 1.272 . S
C51 Sm41 2.846 . S
C51 C52 1.506 . S
C51 O66 1.261 . S
C51 O67 1.242 . S
C52 C51 1.506 . S
C52 C53 1.358 . S
C52 C57 1.382 . S
C53 C52 1.358 . S
C53 C54 1.385 . S
C53 H76 0.930 . S
C54 C53 1.385 . S
C54 C55 1.395 . S
C54 H77 0.929 . S
C55 C54 1.395 . S
C55 C56 1.335 . S
C56 C55 1.335 . S
C56 C57 1.398 . S
C56 H78 0.930 . S
C57 C52 1.382 . S
C57 C56 1.398 . S
C57 H79 0.929 . S
C58 O68 1.271 . S
C58 O69 1.251 . S
C59 O70 1.252 . S
C59 O71 1.272 . S
O60 Sm40 2.543 . S
O60 C42 1.261 . S
O61 Sm40 2.450 . S
O61 C42 1.242 . S
O62 Sm40 2.681 . S
O62 Sm41 2.386 . S
O62 C49 1.271 . S
O63 Sm40 2.464 . S
O63 C49 1.251 . S
O64 Sm40 2.396 . S
O64 C50 1.252 . S
O65 Sm41 2.408 . S
O65 C50 1.272 . S
O66 Sm41 2.543 . S
O66 C51 1.261 . S
O67 Sm41 2.450 . S
O67 C51 1.242 . S
O68 Sm40 2.386 . S
O68 Sm41 2.681 . S
O68 C58 1.271 . S
O69 Sm41 2.464 . S
O69 C58 1.251 . S
O70 Sm41 2.396 . S
O70 C59 1.252 . S
O71 Sm40 2.408 . S
O71 C59 1.272 . S
H72 C44 0.930 . S
H73 C45 0.929 . S
H74 C47 0.930 . S
H75 C48 0.929 . S
H76 C53 0.930 . S
H77 C54 0.929 . S
H78 C56 0.930 . S
H79 C57 0.929 . S
Sm80 C82 2.846 . S
Sm80 O100 2.543 . S
Sm80 O101 2.450 . S
Sm80 O102 2.681 . S
Sm80 O103 2.464 . S
Sm80 O104 2.396 . S
Sm80 O108 2.386 . S
Sm80 O111 2.408 . S
Sm81 C91 2.846 . S
Sm81 O102 2.386 . S
Sm81 O105 2.408 . S
Sm81 O106 2.543 . S
Sm81 O107 2.450 . S
Sm81 O108 2.681 . S
Sm81 O109 2.464 . S
Sm81 O110 2.396 . S
C82 Sm80 2.846 . S
C82 C83 1.506 . S
C82 O100 1.261 . S
C82 O101 1.242 . S
C83 C82 1.506 . S
C83 C84 1.358 . S
C83 C88 1.382 . S
C84 C83 1.358 . S
C84 C85 1.385 . S
C84 H112 0.930 . S
C85 C84 1.385 . S
C85 C86 1.395 . S
C85 H113 0.929 . S
C86 C85 1.395 . S
C86 C87 1.335 . S
C87 C86 1.335 . S
C87 C88 1.398 . S
C87 H114 0.930 . S
C88 C83 1.382 . S
C88 C87 1.398 . S
C88 H115 0.929 . S
C89 O102 1.271 . S
C89 O103 1.251 . S
C90 O104 1.252 . S
C90 O105 1.272 . S
C91 Sm81 2.846 . S
C91 C92 1.506 . S
C91 O106 1.261 . S
C91 O107 1.242 . S
C92 C91 1.506 . S
C92 C93 1.358 . S
C92 C97 1.382 . S
C93 C92 1.358 . S
C93 C94 1.385 . S
C93 H116 0.930 . S
C94 C93 1.385 . S
C94 C95 1.395 . S
C94 H117 0.929 . S
C95 C94 1.395 . S
C95 C96 1.335 . S
C96 C95 1.335 . S
C96 C97 1.398 . S
C96 H118 0.930 . S
C97 C92 1.382 . S
C97 C96 1.398 . S
C97 H119 0.929 . S
C98 O108 1.271 . S
C98 O109 1.251 . S
C99 O110 1.252 . S
C99 O111 1.272 . S
O100 Sm80 2.543 . S
O100 C82 1.261 . S
O101 Sm80 2.450 . S
O101 C82 1.242 . S
O102 Sm80 2.681 . S
O102 Sm81 2.386 . S
O102 C89 1.271 . S
O103 Sm80 2.464 . S
O103 C89 1.251 . S
O104 Sm80 2.396 . S
O104 C90 1.252 . S
O105 Sm81 2.408 . S
O105 C90 1.272 . S
O106 Sm81 2.543 . S
O106 C91 1.261 . S
O107 Sm81 2.450 . S
O107 C91 1.242 . S
O108 Sm80 2.386 . S
O108 Sm81 2.681 . S
O108 C98 1.271 . S
O109 Sm81 2.464 . S
O109 C98 1.251 . S
O110 Sm81 2.396 . S
O110 C99 1.252 . S
O111 Sm80 2.408 . S
O111 C99 1.272 . S
H112 C84 0.930 . S
H113 C85 0.929 . S
H114 C87 0.930 . S
H115 C88 0.929 . S
H116 C93 0.930 . S
H117 C94 0.929 . S
H118 C96 0.930 . S
H119 C97 0.929 . S
Sm120 C122 2.846 . S
Sm120 O140 2.543 . S
Sm120 O141 2.450 . S
Sm120 O142 2.681 . S
Sm120 O143 2.464 . S
Sm120 O144 2.396 . S
Sm120 O148 2.386 . S
Sm120 O151 2.408 . S
Sm121 C131 2.846 . S
Sm121 O142 2.386 . S
Sm121 O145 2.408 . S
Sm121 O146 2.543 . S
Sm121 O147 2.450 . S
Sm121 O148 2.681 . S
Sm121 O149 2.464 . S
Sm121 O150 2.396 . S
C122 Sm120 2.846 . S
C122 C123 1.506 . S
C122 O140 1.261 . S
C122 O141 1.242 . S
C123 C122 1.506 . S
C123 C124 1.358 . S
C123 C128 1.382 . S
C124 C123 1.358 . S
C124 C125 1.385 . S
C124 H152 0.930 . S
C125 C124 1.385 . S
C125 C126 1.395 . S
C125 H153 0.929 . S
C126 C125 1.395 . S
C126 C127 1.335 . S
C127 C126 1.335 . S
C127 C128 1.398 . S
C127 H154 0.930 . S
C128 C123 1.382 . S
C128 C127 1.398 . S
C128 H155 0.929 . S
C129 O142 1.271 . S
C129 O143 1.251 . S
C130 O144 1.252 . S
C130 O145 1.272 . S
C131 Sm121 2.846 . S
C131 C132 1.506 . S
C131 O146 1.261 . S
C131 O147 1.242 . S
C132 C131 1.506 . S
C132 C133 1.358 . S
C132 C137 1.382 . S
C133 C132 1.358 . S
C133 C134 1.385 . S
C133 H156 0.930 . S
C134 C133 1.385 . S
C134 C135 1.395 . S
C134 H157 0.929 . S
C135 C134 1.395 . S
C135 C136 1.335 . S
C136 C135 1.335 . S
C136 C137 1.398 . S
C136 H158 0.930 . S
C137 C132 1.382 . S
C137 C136 1.398 . S
C137 H159 0.929 . S
C138 O148 1.271 . S
C138 O149 1.251 . S
C139 O150 1.252 . S
C139 O151 1.272 . S
O140 Sm120 2.543 . S
O140 C122 1.261 . S
O141 Sm120 2.450 . S
O141 C122 1.242 . S
O142 Sm120 2.681 . S
O142 Sm121 2.386 . S
O142 C129 1.271 . S
O143 Sm120 2.464 . S
O143 C129 1.251 . S
O144 Sm120 2.396 . S
O144 C130 1.252 . S
O145 Sm121 2.408 . S
O145 C130 1.272 . S
O146 Sm121 2.543 . S
O146 C131 1.261 . S
O147 Sm121 2.450 . S
O147 C131 1.242 . S
O148 Sm120 2.386 . S
O148 Sm121 2.681 . S
O148 C138 1.271 . S
O149 Sm121 2.464 . S
O149 C138 1.251 . S
O150 Sm121 2.396 . S
O150 C139 1.252 . S
O151 Sm120 2.408 . S
O151 C139 1.272 . S
H152 C124 0.930 . S
H153 C125 0.929 . S
H154 C127 0.930 . S
H155 C128 0.929 . S
H156 C133 0.930 . S
H157 C134 0.929 . S
H158 C136 0.930 . S
H159 C137 0.929 . S
Sm160 C162 2.846 . S
Sm160 O180 2.543 . S
Sm160 O181 2.450 . S
Sm160 O182 2.681 . S
Sm160 O183 2.464 . S
Sm160 O184 2.396 . S
Sm160 O188 2.386 . S
Sm160 O191 2.408 . S
Sm161 C171 2.846 1_556 S
Sm161 O182 2.386 . S
Sm161 O185 2.408 . S
Sm161 O186 2.543 1_556 S
Sm161 O187 2.450 1_556 S
Sm161 O188 2.681 . S
Sm161 O189 2.464 . S
Sm161 O190 2.396 . S
C162 Sm160 2.846 . S
C162 C163 1.506 . S
C162 O180 1.261 . S
C162 O181 1.242 . S
C163 C162 1.506 . S
C163 C164 1.358 . S
C163 C168 1.382 . S
C164 C163 1.358 . S
C164 C165 1.385 . S
C164 H192 0.930 . S
C165 C164 1.385 . S
C165 C166 1.395 . S
C165 H193 0.929 . S
C166 C165 1.395 . S
C166 C167 1.335 . S
C167 C166 1.335 . S
C167 C168 1.398 . S
C167 H194 0.930 . S
C168 C163 1.382 . S
C168 C167 1.398 . S
C168 H195 0.929 . S
C169 O182 1.271 . S
C169 O183 1.251 . S
C170 O184 1.252 . S
C170 O185 1.272 . S
C171 Sm161 2.846 1_554 S
C171 C172 1.506 . S
C171 O186 1.261 . S
C171 O187 1.242 . S
C172 C171 1.506 . S
C172 C173 1.358 . S
C172 C177 1.382 . S
C173 C172 1.358 . S
C173 C174 1.385 . S
C173 H196 0.930 . S
C174 C173 1.385 . S
C174 C175 1.395 . S
C174 H197 0.929 . S
C175 C174 1.395 . S
C175 C176 1.335 . S
C176 C175 1.335 . S
C176 C177 1.398 . S
C176 H198 0.930 . S
C177 C172 1.382 . S
C177 C176 1.398 . S
C177 H199 0.929 . S
C178 O188 1.271 . S
C178 O189 1.251 . S
C179 O190 1.252 . S
C179 O191 1.272 . S
O180 Sm160 2.543 . S
O180 C162 1.261 . S
O181 Sm160 2.450 . S
O181 C162 1.242 . S
O182 Sm160 2.681 . S
O182 Sm161 2.386 . S
O182 C169 1.271 . S
O183 Sm160 2.464 . S
O183 C169 1.251 . S
O184 Sm160 2.396 . S
O184 C170 1.252 . S
O185 Sm161 2.408 . S
O185 C170 1.272 . S
O186 Sm161 2.543 1_554 S
O186 C171 1.261 . S
O187 Sm161 2.450 1_554 S
O187 C171 1.242 . S
O188 Sm160 2.386 . S
O188 Sm161 2.681 . S
O188 C178 1.271 . S
O189 Sm161 2.464 . S
O189 C178 1.251 . S
O190 Sm161 2.396 . S
O190 C179 1.252 . S
O191 Sm160 2.408 . S
O191 C179 1.272 . S
H192 C164 0.930 . S
H193 C165 0.929 . S
H194 C167 0.930 . S
H195 C168 0.929 . S
H196 C173 0.930 . S
H197 C174 0.929 . S
H198 C176 0.930 . S
H199 C177 0.929 . S
Sm200 C202 2.846 . S
Sm200 O220 2.543 . S
Sm200 O221 2.450 . S
Sm200 O222 2.681 . S
Sm200 O223 2.464 . S
Sm200 O224 2.396 . S
Sm200 O228 2.386 . S
Sm200 O231 2.408 . S
Sm201 C211 2.846 . S
Sm201 O222 2.386 . S
Sm201 O225 2.408 . S
Sm201 O226 2.543 . S
Sm201 O227 2.450 . S
Sm201 O228 2.681 . S
Sm201 O229 2.464 . S
Sm201 O230 2.396 . S
C202 Sm200 2.846 . S
C202 C203 1.506 . S
C202 O220 1.261 . S
C202 O221 1.242 . S
C203 C202 1.506 . S
C203 C204 1.358 . S
C203 C208 1.382 . S
C204 C203 1.358 . S
C204 C205 1.385 . S
C204 H232 0.930 . S
C205 C204 1.385 . S
C205 C206 1.395 . S
C205 H233 0.929 . S
C206 C205 1.395 . S
C206 C207 1.335 . S
C207 C206 1.335 . S
C207 C208 1.398 . S
C207 H234 0.930 . S
C208 C203 1.382 . S
C208 C207 1.398 . S
C208 H235 0.929 . S
C209 O222 1.271 . S
C209 O223 1.251 . S
C210 O224 1.252 . S
C210 O225 1.272 . S
C211 Sm201 2.846 . S
C211 C212 1.506 . S
C211 O226 1.261 . S
C211 O227 1.242 . S
C212 C211 1.506 . S
C212 C213 1.358 . S
C212 C217 1.382 . S
C213 C212 1.358 . S
C213 C214 1.385 . S
C213 H236 0.930 . S
C214 C213 1.385 . S
C214 C215 1.395 . S
C214 H237 0.929 . S
C215 C214 1.395 . S
C215 C216 1.335 . S
C216 C215 1.335 . S
C216 C217 1.398 . S
C216 H238 0.930 . S
C217 C212 1.382 . S
C217 C216 1.398 . S
C217 H239 0.929 . S
C218 O228 1.271 . S
C218 O229 1.251 . S
C219 O230 1.252 . S
C219 O231 1.272 . S
O220 Sm200 2.543 . S
O220 C202 1.261 . S
O221 Sm200 2.450 . S
O221 C202 1.242 . S
O222 Sm200 2.681 . S
O222 Sm201 2.386 . S
O222 C209 1.271 . S
O223 Sm200 2.464 . S
O223 C209 1.251 . S
O224 Sm200 2.396 . S
O224 C210 1.252 . S
O225 Sm201 2.408 . S
O225 C210 1.272 . S
O226 Sm201 2.543 . S
O226 C211 1.261 . S
O227 Sm201 2.450 . S
O227 C211 1.242 . S
O228 Sm200 2.386 . S
O228 Sm201 2.681 . S
O228 C218 1.271 . S
O229 Sm201 2.464 . S
O229 C218 1.251 . S
O230 Sm201 2.396 . S
O230 C219 1.252 . S
O231 Sm200 2.408 . S
O231 C219 1.272 . S
H232 C204 0.930 . S
H233 C205 0.929 . S
H234 C207 0.930 . S
H235 C208 0.929 . S
H236 C213 0.930 . S
H237 C214 0.929 . S
H238 C216 0.930 . S
H239 C217 0.929 . S
Sm240 C242 2.846 . S
Sm240 O260 2.543 . S
Sm240 O261 2.450 . S
Sm240 O262 2.681 . S
Sm240 O263 2.464 . S
Sm240 O264 2.396 . S
Sm240 O268 2.386 . S
Sm240 O271 2.408 . S
Sm241 C251 2.846 . S
Sm241 O262 2.386 . S
Sm241 O265 2.408 . S
Sm241 O266 2.543 . S
Sm241 O267 2.450 . S
Sm241 O268 2.681 . S
Sm241 O269 2.464 . S
Sm241 O270 2.396 . S
C242 Sm240 2.846 . S
C242 C243 1.506 . S
C242 O260 1.261 . S
C242 O261 1.242 . S
C243 C242 1.506 . S
C243 C244 1.358 . S
C243 C248 1.382 . S
C244 C243 1.358 . S
C244 C245 1.385 . S
C244 H272 0.930 . S
C245 C244 1.385 . S
C245 C246 1.395 . S
C245 H273 0.929 . S
C246 C245 1.395 . S
C246 C247 1.335 . S
C247 C246 1.335 . S
C247 C248 1.398 . S
C247 H274 0.930 . S
C248 C243 1.382 . S
C248 C247 1.398 . S
C248 H275 0.929 . S
C249 O262 1.271 . S
C249 O263 1.251 . S
C250 O264 1.252 . S
C250 O265 1.272 . S
C251 Sm241 2.846 . S
C251 C252 1.506 . S
C251 O266 1.261 . S
C251 O267 1.242 . S
C252 C251 1.506 . S
C252 C253 1.358 . S
C252 C257 1.382 . S
C253 C252 1.358 . S
C253 C254 1.385 . S
C253 H276 0.930 . S
C254 C253 1.385 . S
C254 C255 1.395 . S
C254 H277 0.929 . S
C255 C254 1.395 . S
C255 C256 1.335 . S
C256 C255 1.335 . S
C256 C257 1.398 . S
C256 H278 0.930 . S
C257 C252 1.382 . S
C257 C256 1.398 . S
C257 H279 0.929 . S
C258 O268 1.271 . S
C258 O269 1.251 . S
C259 O270 1.252 . S
C259 O271 1.272 . S
O260 Sm240 2.543 . S
O260 C242 1.261 . S
O261 Sm240 2.450 . S
O261 C242 1.242 . S
O262 Sm240 2.681 . S
O262 Sm241 2.386 . S
O262 C249 1.271 . S
O263 Sm240 2.464 . S
O263 C249 1.251 . S
O264 Sm240 2.396 . S
O264 C250 1.252 . S
O265 Sm241 2.408 . S
O265 C250 1.272 . S
O266 Sm241 2.543 . S
O266 C251 1.261 . S
O267 Sm241 2.450 . S
O267 C251 1.242 . S
O268 Sm240 2.386 . S
O268 Sm241 2.681 . S
O268 C258 1.271 . S
O269 Sm241 2.464 . S
O269 C258 1.251 . S
O270 Sm241 2.396 . S
O270 C259 1.252 . S
O271 Sm240 2.408 . S
O271 C259 1.272 . S
H272 C244 0.930 . S
H273 C245 0.929 . S
H274 C247 0.930 . S
H275 C248 0.929 . S
H276 C253 0.930 . S
H277 C254 0.929 . S
H278 C256 0.930 . S
H279 C257 0.929 . S
Sm280 C282 2.846 . S
Sm280 O300 2.543 . S
Sm280 O301 2.450 . S
Sm280 O302 2.681 . S
Sm280 O303 2.464 . S
Sm280 O304 2.396 . S
Sm280 O308 2.386 . S
Sm280 O311 2.408 . S
Sm281 C291 2.846 . S
Sm281 O302 2.386 . S
Sm281 O305 2.408 . S
Sm281 O306 2.543 . S
Sm281 O307 2.450 . S
Sm281 O308 2.681 . S
Sm281 O309 2.464 . S
Sm281 O310 2.396 . S
C282 Sm280 2.846 . S
C282 C283 1.506 . S
C282 O300 1.261 . S
C282 O301 1.242 . S
C283 C282 1.506 . S
C283 C284 1.358 . S
C283 C288 1.382 . S
C284 C283 1.358 . S
C284 C285 1.385 . S
C284 H312 0.930 . S
C285 C284 1.385 . S
C285 C286 1.395 . S
C285 H313 0.929 . S
C286 C285 1.395 . S
C286 C287 1.335 . S
C287 C286 1.335 . S
C287 C288 1.398 . S
C287 H314 0.930 . S
C288 C283 1.382 . S
C288 C287 1.398 . S
C288 H315 0.929 . S
C289 O302 1.271 . S
C289 O303 1.251 . S
C290 O304 1.252 . S
C290 O305 1.272 . S
C291 Sm281 2.846 . S
C291 C292 1.506 . S
C291 O306 1.261 . S
C291 O307 1.242 . S
C292 C291 1.506 . S
C292 C293 1.358 . S
C292 C297 1.382 . S
C293 C292 1.358 . S
C293 C294 1.385 . S
C293 H316 0.930 . S
C294 C293 1.385 . S
C294 C295 1.395 . S
C294 H317 0.929 . S
C295 C294 1.395 . S
C295 C296 1.335 . S
C296 C295 1.335 . S
C296 C297 1.398 . S
C296 H318 0.930 . S
C297 C292 1.382 . S
C297 C296 1.398 . S
C297 H319 0.929 . S
C298 O308 1.271 . S
C298 O309 1.251 . S
C299 O310 1.252 . S
C299 O311 1.272 . S
O300 Sm280 2.543 . S
O300 C282 1.261 . S
O301 Sm280 2.450 . S
O301 C282 1.242 . S
O302 Sm280 2.681 . S
O302 Sm281 2.386 . S
O302 C289 1.271 . S
O303 Sm280 2.464 . S
O303 C289 1.251 . S
O304 Sm280 2.396 . S
O304 C290 1.252 . S
O305 Sm281 2.408 . S
O305 C290 1.272 . S
O306 Sm281 2.543 . S
O306 C291 1.261 . S
O307 Sm281 2.450 . S
O307 C291 1.242 . S
O308 Sm280 2.386 . S
O308 Sm281 2.681 . S
O308 C298 1.271 . S
O309 Sm281 2.464 . S
O309 C298 1.251 . S
O310 Sm281 2.396 . S
O310 C299 1.252 . S
O311 Sm280 2.408 . S
O311 C299 1.272 . S
H312 C284 0.930 . S
H313 C285 0.929 . S
H314 C287 0.930 . S
H315 C288 0.929 . S
H316 C293 0.930 . S
H317 C294 0.929 . S
H318 C296 0.930 . S
H319 C297 0.929 . S
Sm320 C322 2.846 . S
Sm320 O340 2.543 . S
Sm320 O341 2.450 . S
Sm320 O342 2.681 . S
Sm320 O343 2.464 . S
Sm320 O344 2.396 . S
Sm320 O348 2.386 . S
Sm320 O351 2.408 . S
Sm321 C331 2.846 . S
Sm321 O342 2.386 . S
Sm321 O345 2.408 . S
Sm321 O346 2.543 . S
Sm321 O347 2.450 . S
Sm321 O348 2.681 . S
Sm321 O349 2.464 . S
Sm321 O350 2.396 . S
C322 Sm320 2.846 . S
C322 C323 1.506 . S
C322 O340 1.261 . S
C322 O341 1.242 . S
C323 C322 1.506 . S
C323 C324 1.358 . S
C323 C328 1.382 . S
C324 C323 1.358 . S
C324 C325 1.385 . S
C324 H352 0.930 . S
C325 C324 1.385 . S
C325 C326 1.395 . S
C325 H353 0.929 . S
C326 C325 1.395 . S
C326 C327 1.335 . S
C327 C326 1.335 . S
C327 C328 1.398 . S
C327 H354 0.930 . S
C328 C323 1.382 . S
C328 C327 1.398 . S
C328 H355 0.929 . S
C329 O342 1.271 . S
C329 O343 1.251 . S
C330 O344 1.252 . S
C330 O345 1.272 . S
C331 Sm321 2.846 . S
C331 C332 1.506 . S
C331 O346 1.261 . S
C331 O347 1.242 . S
C332 C331 1.506 . S
C332 C333 1.358 . S
C332 C337 1.382 . S
C333 C332 1.358 . S
C333 C334 1.385 . S
C333 H356 0.930 . S
C334 C333 1.385 . S
C334 C335 1.395 . S
C334 H357 0.929 . S
C335 C334 1.395 . S
C335 C336 1.335 . S
C336 C335 1.335 . S
C336 C337 1.398 . S
C336 H358 0.930 . S
C337 C332 1.382 . S
C337 C336 1.398 . S
C337 H359 0.929 . S
C338 O348 1.271 . S
C338 O349 1.251 . S
C339 O350 1.252 . S
C339 O351 1.272 . S
O340 Sm320 2.543 . S
O340 C322 1.261 . S
O341 Sm320 2.450 . S
O341 C322 1.242 . S
O342 Sm320 2.681 . S
O342 Sm321 2.386 . S
O342 C329 1.271 . S
O343 Sm320 2.464 . S
O343 C329 1.251 . S
O344 Sm320 2.396 . S
O344 C330 1.252 . S
O345 Sm321 2.408 . S
O345 C330 1.272 . S
O346 Sm321 2.543 . S
O346 C331 1.261 . S
O347 Sm321 2.450 . S
O347 C331 1.242 . S
O348 Sm320 2.386 . S
O348 Sm321 2.681 . S
O348 C338 1.271 . S
O349 Sm321 2.464 . S
O349 C338 1.251 . S
O350 Sm321 2.396 . S
O350 C339 1.252 . S
O351 Sm320 2.408 . S
O351 C339 1.272 . S
H352 C324 0.930 . S
H353 C325 0.929 . S
H354 C327 0.930 . S
H355 C328 0.929 . S
H356 C333 0.930 . S
H357 C334 0.929 . S
H358 C336 0.930 . S
H359 C337 0.929 . S
Sm360 C362 2.846 . S
Sm360 O380 2.543 . S
Sm360 O381 2.450 . S
Sm360 O382 2.681 . S
Sm360 O383 2.464 . S
Sm360 O384 2.396 . S
Sm360 O388 2.386 . S
Sm360 O391 2.408 . S
Sm361 C371 2.846 . S
Sm361 O382 2.386 . S
Sm361 O385 2.408 . S
Sm361 O386 2.543 . S
Sm361 O387 2.450 . S
Sm361 O388 2.681 . S
Sm361 O389 2.464 . S
Sm361 O390 2.396 . S
C362 Sm360 2.846 . S
C362 C363 1.506 . S
C362 O380 1.261 . S
C362 O381 1.242 . S
C363 C362 1.506 . S
C363 C364 1.358 . S
C363 C368 1.382 . S
C364 C363 1.358 . S
C364 C365 1.385 . S
C364 H392 0.930 . S
C365 C364 1.385 . S
C365 C366 1.395 . S
C365 H393 0.929 . S
C366 C365 1.395 . S
C366 C367 1.335 . S
C367 C366 1.335 . S
C367 C368 1.398 . S
C367 H394 0.930 . S
C368 C363 1.382 . S
C368 C367 1.398 . S
C368 H395 0.929 . S
C369 O382 1.271 . S
C369 O383 1.251 . S
C370 O384 1.252 . S
C370 O385 1.272 . S
C371 Sm361 2.846 . S
C371 C372 1.506 . S
C371 O386 1.261 . S
C371 O387 1.242 . S
C372 C371 1.506 . S
C372 C373 1.358 . S
C372 C377 1.382 . S
C373 C372 1.358 . S
C373 C374 1.385 . S
C373 H396 0.930 . S
C374 C373 1.385 . S
C374 C375 1.395 . S
C374 H397 0.929 . S
C375 C374 1.395 . S
C375 C376 1.335 . S
C376 C375 1.335 . S
C376 C377 1.398 . S
C376 H398 0.930 . S
C377 C372 1.382 . S
C377 C376 1.398 . S
C377 H399 0.929 . S
C378 O388 1.271 . S
C378 O389 1.251 . S
C379 O390 1.252 . S
C379 O391 1.272 . S
O380 Sm360 2.543 . S
O380 C362 1.261 . S
O381 Sm360 2.450 . S
O381 C362 1.242 . S
O382 Sm360 2.681 . S
O382 Sm361 2.386 . S
O382 C369 1.271 . S
O383 Sm360 2.464 . S
O383 C369 1.251 . S
O384 Sm360 2.396 . S
O384 C370 1.252 . S
O385 Sm361 2.408 . S
O385 C370 1.272 . S
O386 Sm361 2.543 . S
O386 C371 1.261 . S
O387 Sm361 2.450 . S
O387 C371 1.242 . S
O388 Sm360 2.386 . S
O388 Sm361 2.681 . S
O388 C378 1.271 . S
O389 Sm361 2.464 . S
O389 C378 1.251 . S
O390 Sm361 2.396 . S
O390 C379 1.252 . S
O391 Sm360 2.408 . S
O391 C379 1.272 . S
H392 C364 0.930 . S
H393 C365 0.929 . S
H394 C367 0.930 . S
H395 C368 0.929 . S
H396 C373 0.930 . S
H397 C374 0.929 . S
H398 C376 0.930 . S
H399 C377 0.929 . S
Sm400 C402 2.846 1_554 S
Sm400 O420 2.543 1_554 S
Sm400 O421 2.450 1_554 S
Sm400 O422 2.681 . S
Sm400 O423 2.464 . S
Sm400 O424 2.396 . S
Sm400 O428 2.386 . S
Sm400 O431 2.408 . S
Sm401 C411 2.846 . S
Sm401 O422 2.386 . S
Sm401 O425 2.408 . S
Sm401 O426 2.543 . S
Sm401 O427 2.450 . S
Sm401 O428 2.681 . S
Sm401 O429 2.464 . S
Sm401 O430 2.396 . S
C402 Sm400 2.846 1_556 S
C402 C403 1.506 . S
C402 O420 1.261 . S
C402 O421 1.242 . S
C403 C402 1.506 . S
C403 C404 1.358 . S
C403 C408 1.382 . S
C404 C403 1.358 . S
C404 C405 1.385 . S
C404 H432 0.930 . S
C405 C404 1.385 . S
C405 C406 1.395 . S
C405 H433 0.929 . S
C406 C405 1.395 . S
C406 C407 1.335 . S
C407 C406 1.335 . S
C407 C408 1.398 . S
C407 H434 0.930 . S
C408 C403 1.382 . S
C408 C407 1.398 . S
C408 H435 0.929 . S
C409 O422 1.271 . S
C409 O423 1.251 . S
C410 O424 1.252 . S
C410 O425 1.272 . S
C411 Sm401 2.846 . S
C411 C412 1.506 . S
C411 O426 1.261 . S
C411 O427 1.242 . S
C412 C411 1.506 . S
C412 C413 1.358 . S
C412 C417 1.382 . S
C413 C412 1.358 . S
C413 C414 1.385 . S
C413 H436 0.930 . S
C414 C413 1.385 . S
C414 C415 1.395 . S
C414 H437 0.929 . S
C415 C414 1.395 . S
C415 C416 1.335 . S
C416 C415 1.335 . S
C416 C417 1.398 . S
C416 H438 0.930 . S
C417 C412 1.382 . S
C417 C416 1.398 . S
C417 H439 0.929 . S
C418 O428 1.271 . S
C418 O429 1.251 . S
C419 O430 1.252 . S
C419 O431 1.272 . S
O420 Sm400 2.543 1_556 S
O420 C402 1.261 . S
O421 Sm400 2.450 1_556 S
O421 C402 1.242 . S
O422 Sm400 2.681 . S
O422 Sm401 2.386 . S
O422 C409 1.271 . S
O423 Sm400 2.464 . S
O423 C409 1.251 . S
O424 Sm400 2.396 . S
O424 C410 1.252 . S
O425 Sm401 2.408 . S
O425 C410 1.272 . S
O426 Sm401 2.543 . S
O426 C411 1.261 . S
O427 Sm401 2.450 . S
O427 C411 1.242 . S
O428 Sm400 2.386 . S
O428 Sm401 2.681 . S
O428 C418 1.271 . S
O429 Sm401 2.464 . S
O429 C418 1.251 . S
O430 Sm401 2.396 . S
O430 C419 1.252 . S
O431 Sm400 2.408 . S
O431 C419 1.272 . S
H432 C404 0.930 . S
H433 C405 0.929 . S
H434 C407 0.930 . S
H435 C408 0.929 . S
H436 C413 0.930 . S
H437 C414 0.929 . S
H438 C416 0.930 . S
H439 C417 0.929 . S
Sm440 C442 2.846 . S
Sm440 O460 2.543 . S
Sm440 O461 2.450 . S
Sm440 O462 2.681 . S
Sm440 O463 2.464 . S
Sm440 O464 2.396 . S
Sm440 O468 2.386 . S
Sm440 O471 2.408 . S
Sm441 C451 2.846 . S
Sm441 O462 2.386 . S
Sm441 O465 2.408 . S
Sm441 O466 2.543 . S
Sm441 O467 2.450 . S
Sm441 O468 2.681 . S
Sm441 O469 2.464 . S
Sm441 O470 2.396 . S
C442 Sm440 2.846 . S
C442 C443 1.506 . S
C442 O460 1.261 . S
C442 O461 1.242 . S
C443 C442 1.506 . S
C443 C444 1.358 . S
C443 C448 1.382 . S
C444 C443 1.358 . S
C444 C445 1.385 . S
C444 H472 0.930 . S
C445 C444 1.385 . S
C445 C446 1.395 . S
C445 H473 0.929 . S
C446 C445 1.395 . S
C446 C447 1.335 . S
C447 C446 1.335 . S
C447 C448 1.398 . S
C447 H474 0.930 . S
C448 C443 1.382 . S
C448 C447 1.398 . S
C448 H475 0.929 . S
C449 O462 1.271 . S
C449 O463 1.251 . S
C450 O464 1.252 . S
C450 O465 1.272 . S
C451 Sm441 2.846 . S
C451 C452 1.506 . S
C451 O466 1.261 . S
C451 O467 1.242 . S
C452 C451 1.506 . S
C452 C453 1.358 . S
C452 C457 1.382 . S
C453 C452 1.358 . S
C453 C454 1.385 . S
C453 H476 0.930 . S
C454 C453 1.385 . S
C454 C455 1.395 . S
C454 H477 0.929 . S
C455 C454 1.395 . S
C455 C456 1.335 . S
C456 C455 1.335 . S
C456 C457 1.398 . S
C456 H478 0.930 . S
C457 C452 1.382 . S
C457 C456 1.398 . S
C457 H479 0.929 . S
C458 O468 1.271 . S
C458 O469 1.251 . S
C459 O470 1.252 . S
C459 O471 1.272 . S
O460 Sm440 2.543 . S
O460 C442 1.261 . S
O461 Sm440 2.450 . S
O461 C442 1.242 . S
O462 Sm440 2.681 . S
O462 Sm441 2.386 . S
O462 C449 1.271 . S
O463 Sm440 2.464 . S
O463 C449 1.251 . S
O464 Sm440 2.396 . S
O464 C450 1.252 . S
O465 Sm441 2.408 . S
O465 C450 1.272 . S
O466 Sm441 2.543 . S
O466 C451 1.261 . S
O467 Sm441 2.450 . S
O467 C451 1.242 . S
O468 Sm440 2.386 . S
O468 Sm441 2.681 . S
O468 C458 1.271 . S
O469 Sm441 2.464 . S
O469 C458 1.251 . S
O470 Sm441 2.396 . S
O470 C459 1.252 . S
O471 Sm440 2.408 . S
O471 C459 1.272 . S
H472 C444 0.930 . S
H473 C445 0.929 . S
H474 C447 0.930 . S
H475 C448 0.929 . S
H476 C453 0.930 . S
H477 C454 0.929 . S
H478 C456 0.930 . S
H479 C457 0.929 . S
Sm480 C482 2.846 . S
Sm480 O500 2.543 . S
Sm480 O501 2.450 . S
Sm480 O502 2.681 . S
Sm480 O503 2.464 . S
Sm480 O504 2.396 . S
Sm480 O508 2.386 . S
Sm480 O511 2.408 . S
Sm481 C491 2.846 . S
Sm481 O502 2.386 . S
Sm481 O505 2.408 . S
Sm481 O506 2.543 . S
Sm481 O507 2.450 . S
Sm481 O508 2.681 . S
Sm481 O509 2.464 . S
Sm481 O510 2.396 . S
C482 Sm480 2.846 . S
C482 C483 1.506 . S
C482 O500 1.261 . S
C482 O501 1.242 . S
C483 C482 1.506 . S
C483 C484 1.358 . S
C483 C488 1.382 . S
C484 C483 1.358 . S
C484 C485 1.385 . S
C484 H512 0.930 . S
C485 C484 1.385 . S
C485 C486 1.395 . S
C485 H513 0.929 . S
C486 C485 1.395 . S
C486 C487 1.335 . S
C487 C486 1.335 . S
C487 C488 1.398 . S
C487 H514 0.930 . S
C488 C483 1.382 . S
C488 C487 1.398 . S
C488 H515 0.929 . S
C489 O502 1.271 . S
C489 O503 1.251 . S
C490 O504 1.252 . S
C490 O505 1.272 . S
C491 Sm481 2.846 . S
C491 C492 1.506 . S
C491 O506 1.261 . S
C491 O507 1.242 . S
C492 C491 1.506 . S
C492 C493 1.358 . S
C492 C497 1.382 . S
C493 C492 1.358 . S
C493 C494 1.385 . S
C493 H516 0.930 . S
C494 C493 1.385 . S
C494 C495 1.395 . S
C494 H517 0.929 . S
C495 C494 1.395 . S
C495 C496 1.335 . S
C496 C495 1.335 . S
C496 C497 1.398 . S
C496 H518 0.930 . S
C497 C492 1.382 . S
C497 C496 1.398 . S
C497 H519 0.929 . S
C498 O508 1.271 . S
C498 O509 1.251 . S
C499 O510 1.252 . S
C499 O511 1.272 . S
O500 Sm480 2.543 . S
O500 C482 1.261 . S
O501 Sm480 2.450 . S
O501 C482 1.242 . S
O502 Sm480 2.681 . S
O502 Sm481 2.386 . S
O502 C489 1.271 . S
O503 Sm480 2.464 . S
O503 C489 1.251 . S
O504 Sm480 2.396 . S
O504 C490 1.252 . S
O505 Sm481 2.408 . S
O505 C490 1.272 . S
O506 Sm481 2.543 . S
O506 C491 1.261 . S
O507 Sm481 2.450 . S
O507 C491 1.242 . S
O508 Sm480 2.386 . S
O508 Sm481 2.681 . S
O508 C498 1.271 . S
O509 Sm481 2.464 . S
O509 C498 1.251 . S
O510 Sm481 2.396 . S
O510 C499 1.252 . S
O511 Sm480 2.408 . S
O511 C499 1.272 . S
H512 C484 0.930 . S
H513 C485 0.929 . S
H514 C487 0.930 . S
H515 C488 0.929 . S
H516 C493 0.930 . S
H517 C494 0.929 . S
H518 C496 0.930 . S
H519 C497 0.929 . S
Sm520 C522 2.846 . S
Sm520 O540 2.543 . S
Sm520 O541 2.450 . S
Sm520 O542 2.681 . S
Sm520 O543 2.464 . S
Sm520 O544 2.396 . S
Sm520 O548 2.386 . S
Sm520 O551 2.408 . S
Sm521 C531 2.846 . S
Sm521 O542 2.386 . S
Sm521 O545 2.408 . S
Sm521 O546 2.543 . S
Sm521 O547 2.450 . S
Sm521 O548 2.681 . S
Sm521 O549 2.464 . S
Sm521 O550 2.396 . S
C522 Sm520 2.846 . S
C522 C523 1.506 . S
C522 O540 1.261 . S
C522 O541 1.242 . S
C523 C522 1.506 . S
C523 C524 1.358 . S
C523 C528 1.382 . S
C524 C523 1.358 . S
C524 C525 1.385 . S
C524 H552 0.930 . S
C525 C524 1.385 . S
C525 C526 1.395 . S
C525 H553 0.929 . S
C526 C525 1.395 . S
C526 C527 1.335 . S
C527 C526 1.335 . S
C527 C528 1.398 . S
C527 H554 0.930 . S
C528 C523 1.382 . S
C528 C527 1.398 . S
C528 H555 0.929 . S
C529 O542 1.271 . S
C529 O543 1.251 . S
C530 O544 1.252 . S
C530 O545 1.272 . S
C531 Sm521 2.846 . S
C531 C532 1.506 . S
C531 O546 1.261 . S
C531 O547 1.242 . S
C532 C531 1.506 . S
C532 C533 1.358 . S
C532 C537 1.382 . S
C533 C532 1.358 . S
C533 C534 1.385 . S
C533 H556 0.930 . S
C534 C533 1.385 . S
C534 C535 1.395 . S
C534 H557 0.929 . S
C535 C534 1.395 . S
C535 C536 1.335 . S
C536 C535 1.335 . S
C536 C537 1.398 . S
C536 H558 0.930 . S
C537 C532 1.382 . S
C537 C536 1.398 . S
C537 H559 0.929 . S
C538 O548 1.271 . S
C538 O549 1.251 . S
C539 O550 1.252 . S
C539 O551 1.272 . S
O540 Sm520 2.543 . S
O540 C522 1.261 . S
O541 Sm520 2.450 . S
O541 C522 1.242 . S
O542 Sm520 2.681 . S
O542 Sm521 2.386 . S
O542 C529 1.271 . S
O543 Sm520 2.464 . S
O543 C529 1.251 . S
O544 Sm520 2.396 . S
O544 C530 1.252 . S
O545 Sm521 2.408 . S
O545 C530 1.272 . S
O546 Sm521 2.543 . S
O546 C531 1.261 . S
O547 Sm521 2.450 . S
O547 C531 1.242 . S
O548 Sm520 2.386 . S
O548 Sm521 2.681 . S
O548 C538 1.271 . S
O549 Sm521 2.464 . S
O549 C538 1.251 . S
O550 Sm521 2.396 . S
O550 C539 1.252 . S
O551 Sm520 2.408 . S
O551 C539 1.272 . S
H552 C524 0.930 . S
H553 C525 0.929 . S
H554 C527 0.930 . S
H555 C528 0.929 . S
H556 C533 0.930 . S
H557 C534 0.929 . S
H558 C536 0.930 . S
H559 C537 0.929 . S
Sm560 C562 2.846 . S
Sm560 O580 2.543 . S
Sm560 O581 2.450 . S
Sm560 O582 2.681 . S
Sm560 O583 2.464 . S
Sm560 O584 2.396 . S
Sm560 O588 2.386 . S
Sm560 O591 2.408 . S
Sm561 C571 2.846 1_556 S
Sm561 O582 2.386 . S
Sm561 O585 2.408 . S
Sm561 O586 2.543 1_556 S
Sm561 O587 2.450 1_556 S
Sm561 O588 2.681 . S
Sm561 O589 2.464 . S
Sm561 O590 2.396 . S
C562 Sm560 2.846 . S
C562 C563 1.506 . S
C562 O580 1.261 . S
C562 O581 1.242 . S
C563 C562 1.506 . S
C563 C564 1.358 . S
C563 C568 1.382 . S
C564 C563 1.358 . S
C564 C565 1.385 . S
C564 H592 0.930 . S
C565 C564 1.385 . S
C565 C566 1.395 . S
C565 H593 0.929 . S
C566 C565 1.395 . S
C566 C567 1.335 . S
C567 C566 1.335 . S
C567 C568 1.398 . S
C567 H594 0.930 . S
C568 C563 1.382 . S
C568 C567 1.398 . S
C568 H595 0.929 . S
C569 O582 1.271 . S
C569 O583 1.251 . S
C570 O584 1.252 . S
C570 O585 1.272 . S
C571 Sm561 2.846 1_554 S
C571 C572 1.506 . S
C571 O586 1.261 . S
C571 O587 1.242 . S
C572 C571 1.506 . S
C572 C573 1.358 . S
C572 C577 1.382 . S
C573 C572 1.358 . S
C573 C574 1.385 . S
C573 H596 0.930 . S
C574 C573 1.385 . S
C574 C575 1.395 . S
C574 H597 0.929 . S
C575 C574 1.395 . S
C575 C576 1.335 . S
C576 C575 1.335 . S
C576 C577 1.398 . S
C576 H598 0.930 . S
C577 C572 1.382 . S
C577 C576 1.398 . S
C577 H599 0.929 . S
C578 O588 1.271 . S
C578 O589 1.251 . S
C579 O590 1.252 . S
C579 O591 1.272 . S
O580 Sm560 2.543 . S
O580 C562 1.261 . S
O581 Sm560 2.450 . S
O581 C562 1.242 . S
O582 Sm560 2.681 . S
O582 Sm561 2.386 . S
O582 C569 1.271 . S
O583 Sm560 2.464 . S
O583 C569 1.251 . S
O584 Sm560 2.396 . S
O584 C570 1.252 . S
O585 Sm561 2.408 . S
O585 C570 1.272 . S
O586 Sm561 2.543 1_554 S
O586 C571 1.261 . S
O587 Sm561 2.450 1_554 S
O587 C571 1.242 . S
O588 Sm560 2.386 . S
O588 Sm561 2.681 . S
O588 C578 1.271 . S
O589 Sm561 2.464 . S
O589 C578 1.251 . S
O590 Sm561 2.396 . S
O590 C579 1.252 . S
O591 Sm560 2.408 . S
O591 C579 1.272 . S
H592 C564 0.930 . S
H593 C565 0.929 . S
H594 C567 0.930 . S
H595 C568 0.929 . S
H596 C573 0.930 . S
H597 C574 0.929 . S
H598 C576 0.930 . S
H599 C577 0.929 . S
Sm600 C602 2.846 . S
Sm600 O620 2.543 . S
Sm600 O621 2.450 . S
Sm600 O622 2.681 . S
Sm600 O623 2.464 . S
Sm600 O624 2.396 . S
Sm600 O628 2.386 . S
Sm600 O631 2.408 . S
Sm601 C611 2.846 . S
Sm601 O622 2.386 . S
Sm601 O625 2.408 . S
Sm601 O626 2.543 . S
Sm601 O627 2.450 . S
Sm601 O628 2.681 . S
Sm601 O629 2.464 . S
Sm601 O630 2.396 . S
C602 Sm600 2.846 . S
C602 C603 1.506 . S
C602 O620 1.261 . S
C602 O621 1.242 . S
C603 C602 1.506 . S
C603 C604 1.358 . S
C603 C608 1.382 . S
C604 C603 1.358 . S
C604 C605 1.385 . S
C604 H632 0.930 . S
C605 C604 1.385 . S
C605 C606 1.395 . S
C605 H633 0.929 . S
C606 C605 1.395 . S
C606 C607 1.335 . S
C607 C606 1.335 . S
C607 C608 1.398 . S
C607 H634 0.930 . S
C608 C603 1.382 . S
C608 C607 1.398 . S
C608 H635 0.929 . S
C609 O622 1.271 . S
C609 O623 1.251 . S
C610 O624 1.252 . S
C610 O625 1.272 . S
C611 Sm601 2.846 . S
C611 C612 1.506 . S
C611 O626 1.261 . S
C611 O627 1.242 . S
C612 C611 1.506 . S
C612 C613 1.358 . S
C612 C617 1.382 . S
C613 C612 1.358 . S
C613 C614 1.385 . S
C613 H636 0.930 . S
C614 C613 1.385 . S
C614 C615 1.395 . S
C614 H637 0.929 . S
C615 C614 1.395 . S
C615 C616 1.335 . S
C616 C615 1.335 . S
C616 C617 1.398 . S
C616 H638 0.930 . S
C617 C612 1.382 . S
C617 C616 1.398 . S
C617 H639 0.929 . S
C618 O628 1.271 . S
C618 O629 1.251 . S
C619 O630 1.252 . S
C619 O631 1.272 . S
O620 Sm600 2.543 . S
O620 C602 1.261 . S
O621 Sm600 2.450 . S
O621 C602 1.242 . S
O622 Sm600 2.681 . S
O622 Sm601 2.386 . S
O622 C609 1.271 . S
O623 Sm600 2.464 . S
O623 C609 1.251 . S
O624 Sm600 2.396 . S
O624 C610 1.252 . S
O625 Sm601 2.408 . S
O625 C610 1.272 . S
O626 Sm601 2.543 . S
O626 C611 1.261 . S
O627 Sm601 2.450 . S
O627 C611 1.242 . S
O628 Sm600 2.386 . S
O628 Sm601 2.681 . S
O628 C618 1.271 . S
O629 Sm601 2.464 . S
O629 C618 1.251 . S
O630 Sm601 2.396 . S
O630 C619 1.252 . S
O631 Sm600 2.408 . S
O631 C619 1.272 . S
H632 C604 0.930 . S
H633 C605 0.929 . S
H634 C607 0.930 . S
H635 C608 0.929 . S
H636 C613 0.930 . S
H637 C614 0.929 . S
H638 C616 0.930 . S
H639 C617 0.929 . S
H640 C648 0.929 . S
H641 C650 0.930 . S
H642 C652 0.930 . S
H643 C655 0.929 . S
H644 C658 0.930 . S
H645 C660 0.960 . S
H646 C660 0.960 . S
H647 C660 0.960 . S
C648 H640 0.929 . S
C648 C649 1.377 . S
C648 C650 1.384 . S
C649 C648 1.377 . S
C649 C655 1.390 . S
C650 H641 0.930 . S
C650 C648 1.384 . S
C650 C651 1.372 . S
C651 C650 1.372 . S
C651 C652 1.400 . S
C651 C656 1.490 . S
C652 H642 0.930 . S
C652 C651 1.400 . S
C652 C655 1.386 . S
H653 C669 0.930 . S
H654 C670 0.931 . S
C655 H643 0.929 . S
C655 C649 1.390 . S
C655 C652 1.386 . S
C656 C651 1.490 . S
C656 C658 1.395 . S
C656 C659 1.403 . S
H657 C663 0.930 . S
C658 H644 0.930 . S
C658 C656 1.395 . S
C658 C661 1.403 . S
C659 C656 1.403 . S
C659 C660 1.524 . S
C659 C663 1.400 . S
C660 H645 0.960 . S
C660 H646 0.960 . S
C660 H647 0.960 . S
C660 C659 1.524 . S
C661 C658 1.403 . S
C661 C662 1.392 . S
C661 C665 1.495 . S
C662 C661 1.392 . S
C662 C663 1.385 . S
C662 C664 1.478 . S
C663 H657 0.930 . S
C663 C659 1.400 . S
C663 C662 1.385 . S
C664 C662 1.478 . S
C664 C666 1.381 . S
C664 C670 1.383 . S
C665 C661 1.495 . S
C665 H671 0.959 . S
C665 H672 0.961 . S
C665 H673 0.960 . S
C666 C664 1.381 . S
C666 C667 1.394 . S
C666 H674 0.930 . S
C667 C666 1.394 . S
C667 C668 1.383 . S
C667 H675 0.929 . S
C668 C667 1.383 . S
C668 C669 1.377 . S
C669 H653 0.930 . S
C669 C668 1.377 . S
C669 C670 1.379 . S
C670 H654 0.931 . S
C670 C664 1.383 . S
C670 C669 1.379 . S
H671 C665 0.959 . S
H672 C665 0.961 . S
H673 C665 0.960 . S
H674 C666 0.930 . S
H675 C667 0.929 . S
H676 C684 0.929 . S
H677 C686 0.930 . S
H678 C688 0.930 . S
H679 C691 0.929 . S
H680 C694 0.930 . S
H681 C696 0.960 . S
H682 C696 0.960 . S
H683 C696 0.960 . S
C684 H676 0.929 . S
C684 C685 1.377 . S
C684 C686 1.384 . S
C685 C684 1.377 . S
C685 C691 1.390 . S
C686 H677 0.930 . S
C686 C684 1.384 . S
C686 C687 1.372 . S
C687 C686 1.372 . S
C687 C688 1.400 . S
C687 C692 1.490 . S
C688 H678 0.930 . S
C688 C687 1.400 . S
C688 C691 1.386 . S
H689 C705 0.930 . S
H690 C706 0.931 . S
C691 H679 0.929 . S
C691 C685 1.390 . S
C691 C688 1.386 . S
C692 C687 1.490 . S
C692 C694 1.395 . S
C692 C695 1.403 . S
H693 C699 0.930 . S
C694 H680 0.930 . S
C694 C692 1.395 . S
C694 C697 1.403 . S
C695 C692 1.403 . S
C695 C696 1.524 . S
C695 C699 1.400 . S
C696 H681 0.960 . S
C696 H682 0.960 . S
C696 H683 0.960 . S
C696 C695 1.524 . S
C697 C694 1.403 . S
C697 C698 1.392 . S
C697 C701 1.495 . S
C698 C697 1.392 . S
C698 C699 1.385 . S
C698 C700 1.478 . S
C699 H693 0.930 . S
C699 C695 1.400 . S
C699 C698 1.385 . S
C700 C698 1.478 . S
C700 C702 1.381 . S
C700 C706 1.383 . S
C701 C697 1.495 . S
C701 H707 0.959 . S
C701 H708 0.961 . S
C701 H709 0.960 . S
C702 C700 1.381 . S
C702 C703 1.394 . S
C702 H710 0.930 . S
C703 C702 1.394 . S
C703 C704 1.383 . S
C703 H711 0.929 . S
C704 C703 1.383 . S
C704 C705 1.377 . S
C705 H689 0.930 . S
C705 C704 1.377 . S
C705 C706 1.379 . S
C706 H690 0.931 . S
C706 C700 1.383 . S
C706 C705 1.379 . S
H707 C701 0.959 . S
H708 C701 0.961 . S
H709 C701 0.960 . S
H710 C702 0.930 . S
H711 C703 0.929 . S
H712 C720 0.929 . S
H713 C722 0.930 . S
H714 C724 0.930 . S
H715 C727 0.929 . S
H716 C730 0.930 . S
H717 C732 0.960 . S
H718 C732 0.960 . S
H719 C732 0.960 . S
C720 H712 0.929 . S
C720 C721 1.377 . S
C720 C722 1.384 . S
C721 C720 1.377 . S
C721 C727 1.390 . S
C722 H713 0.930 . S
C722 C720 1.384 . S
C722 C723 1.372 . S
C723 C722 1.372 . S
C723 C724 1.400 . S
C723 C728 1.490 . S
C724 H714 0.930 . S
C724 C723 1.400 . S
C724 C727 1.386 . S
H725 C741 0.930 . S
H726 C742 0.931 . S
C727 H715 0.929 . S
C727 C721 1.390 . S
C727 C724 1.386 . S
C728 C723 1.490 . S
C728 C730 1.395 1_455 S
C728 C731 1.403 . S
H729 C735 0.930 . S
C730 H716 0.930 . S
C730 C728 1.395 1_655 S
C730 C733 1.403 . S
C731 C728 1.403 . S
C731 C732 1.524 . S
C731 C735 1.400 . S
C732 H717 0.960 . S
C732 H718 0.960 . S
C732 H719 0.960 . S
C732 C731 1.524 . S
C733 C730 1.403 . S
C733 C734 1.392 . S
C733 C737 1.495 . S
C734 C733 1.392 . S
C734 C735 1.385 1_655 S
C734 C736 1.478 . S
C735 H729 0.930 . S
C735 C731 1.400 . S
C735 C734 1.385 1_455 S
C736 C734 1.478 . S
C736 C738 1.381 . S
C736 C742 1.383 . S
C737 C733 1.495 . S
C737 H743 0.959 . S
C737 H744 0.961 . S
C737 H745 0.960 . S
C738 C736 1.381 . S
C738 C739 1.394 . S
C738 H746 0.930 . S
C739 C738 1.394 . S
C739 C740 1.383 . S
C739 H747 0.929 . S
C740 C739 1.383 . S
C740 C741 1.377 . S
C741 H725 0.930 . S
C741 C740 1.377 . S
C741 C742 1.379 . S
C742 H726 0.931 . S
C742 C736 1.383 . S
C742 C741 1.379 . S
H743 C737 0.959 . S
H744 C737 0.961 . S
H745 C737 0.960 . S
H746 C738 0.930 . S
H747 C739 0.929 . S
H748 C756 0.929 . S
H749 C758 0.930 . S
H750 C760 0.930 . S
H751 C763 0.929 . S
H752 C766 0.930 . S
H753 C768 0.960 . S
H754 C768 0.960 . S
H755 C768 0.960 . S
C756 H748 0.929 . S
C756 C757 1.377 . S
C756 C758 1.384 . S
C757 C756 1.377 . S
C757 C763 1.390 . S
C758 H749 0.930 . S
C758 C756 1.384 . S
C758 C759 1.372 . S
C759 C758 1.372 . S
C759 C760 1.400 . S
C759 C764 1.490 . S
C760 H750 0.930 . S
C760 C759 1.400 . S
C760 C763 1.386 . S
H761 C777 0.930 . S
H762 C778 0.931 . S
C763 H751 0.929 . S
C763 C757 1.390 . S
C763 C760 1.386 . S
C764 C759 1.490 . S
C764 C766 1.395 1_655 S
C764 C767 1.403 . S
H765 C771 0.930 . S
C766 H752 0.930 . S
C766 C764 1.395 1_455 S
C766 C769 1.403 . S
C767 C764 1.403 . S
C767 C768 1.524 . S
C767 C771 1.400 . S
C768 H753 0.960 . S
C768 H754 0.960 . S
C768 H755 0.960 . S
C768 C767 1.524 . S
C769 C766 1.403 . S
C769 C770 1.392 . S
C769 C773 1.495 . S
C770 C769 1.392 . S
C770 C771 1.385 1_455 S
C770 C772 1.478 . S
C771 H765 0.930 . S
C771 C767 1.400 . S
C771 C770 1.385 1_655 S
C772 C770 1.478 . S
C772 C774 1.381 . S
C772 C778 1.383 . S
C773 C769 1.495 . S
C773 H779 0.959 . S
C773 H780 0.961 . S
C773 H781 0.960 . S
C774 C772 1.381 . S
C774 C775 1.394 . S
C774 H782 0.930 . S
C775 C774 1.394 . S
C775 C776 1.383 . S
C775 H783 0.929 . S
C776 C775 1.383 . S
C776 C777 1.377 . S
C777 H761 0.930 . S
C777 C776 1.377 . S
C777 C778 1.379 . S
C778 H762 0.931 . S
C778 C772 1.383 . S
C778 C777 1.379 . S
H779 C773 0.959 . S
H780 C773 0.961 . S
H781 C773 0.960 . S
H782 C774 0.930 . S
H783 C775 0.929 . S
H784 C792 0.929 . S
H785 C794 0.930 . S
H786 C796 0.930 . S
H787 C799 0.929 . S
H788 C802 0.930 . S
H789 C804 0.960 . S
H790 C804 0.960 . S
H791 C804 0.960 . S
C792 H784 0.929 . S
C792 C793 1.377 . S
C792 C794 1.384 . S
C793 C792 1.377 . S
C793 C799 1.390 . S
C794 H785 0.930 . S
C794 C792 1.384 . S
C794 C795 1.372 . S
C795 C794 1.372 . S
C795 C796 1.400 . S
C795 C800 1.490 . S
C796 H786 0.930 . S
C796 C795 1.400 . S
C796 C799 1.386 . S
H797 C813 0.930 . S
H798 C814 0.931 . S
C799 H787 0.929 . S
C799 C793 1.390 . S
C799 C796 1.386 . S
C800 C795 1.490 . S
C800 C802 1.395 . S
C800 C803 1.403 . S
H801 C807 0.930 . S
C802 H788 0.930 . S
C802 C800 1.395 . S
C802 C805 1.403 . S
C803 C800 1.403 . S
C803 C804 1.524 . S
C803 C807 1.400 . S
C804 H789 0.960 . S
C804 H790 0.960 . S
C804 H791 0.960 . S
C804 C803 1.524 . S
C805 C802 1.403 . S
C805 C806 1.392 . S
C805 C809 1.495 . S
C806 C805 1.392 . S
C806 C807 1.385 . S
C806 C808 1.478 . S
C807 H801 0.930 . S
C807 C803 1.400 . S
C807 C806 1.385 . S
C808 C806 1.478 . S
C808 C810 1.381 . S
C808 C814 1.383 . S
C809 C805 1.495 . S
C809 H815 0.959 . S
C809 H816 0.961 . S
C809 H817 0.960 . S
C810 C808 1.381 . S
C810 C811 1.394 . S
C810 H818 0.930 . S
C811 C810 1.394 . S
C811 C812 1.383 . S
C811 H819 0.929 . S
C812 C811 1.383 . S
C812 C813 1.377 . S
C813 H797 0.930 . S
C813 C812 1.377 . S
C813 C814 1.379 . S
C814 H798 0.931 . S
C814 C808 1.383 . S
C814 C813 1.379 . S
H815 C809 0.959 . S
H816 C809 0.961 . S
H817 C809 0.960 . S
H818 C810 0.930 . S
H819 C811 0.929 . S
H820 C828 0.929 . S
H821 C830 0.930 . S
H822 C832 0.930 . S
H823 C835 0.929 . S
H824 C838 0.930 . S
H825 C840 0.960 . S
H826 C840 0.960 . S
H827 C840 0.960 . S
C828 H820 0.929 . S
C828 C829 1.377 . S
C828 C830 1.384 . S
C829 C828 1.377 . S
C829 C835 1.390 . S
C830 H821 0.930 . S
C830 C828 1.384 . S
C830 C831 1.372 . S
C831 C830 1.372 . S
C831 C832 1.400 . S
C831 C836 1.490 . S
C832 H822 0.930 . S
C832 C831 1.400 . S
C832 C835 1.386 . S
H833 C849 0.930 . S
H834 C850 0.931 . S
C835 H823 0.929 . S
C835 C829 1.390 . S
C835 C832 1.386 . S
C836 C831 1.490 . S
C836 C838 1.395 . S
C836 C839 1.403 . S
H837 C843 0.930 . S
C838 H824 0.930 . S
C838 C836 1.395 . S
C838 C841 1.403 . S
C839 C836 1.403 . S
C839 C840 1.524 . S
C839 C843 1.400 . S
C840 H825 0.960 . S
C840 H826 0.960 . S
C840 H827 0.960 . S
C840 C839 1.524 . S
C841 C838 1.403 . S
C841 C842 1.392 . S
C841 C845 1.495 . S
C842 C841 1.392 . S
C842 C843 1.385 . S
C842 C844 1.478 . S
C843 H837 0.930 . S
C843 C839 1.400 . S
C843 C842 1.385 . S
C844 C842 1.478 . S
C844 C846 1.381 . S
C844 C850 1.383 . S
C845 C841 1.495 . S
C845 H851 0.959 . S
C845 H852 0.961 . S
C845 H853 0.960 . S
C846 C844 1.381 . S
C846 C847 1.394 . S
C846 H854 0.930 . S
C847 C846 1.394 . S
C847 C848 1.383 . S
C847 H855 0.929 . S
C848 C847 1.383 . S
C848 C849 1.377 . S
C849 H833 0.930 . S
C849 C848 1.377 . S
C849 C850 1.379 . S
C850 H834 0.931 . S
C850 C844 1.383 . S
C850 C849 1.379 . S
H851 C845 0.959 . S
H852 C845 0.961 . S
H853 C845 0.960 . S
H854 C846 0.930 . S
H855 C847 0.929 . S
H856 C864 0.929 . S
H857 C866 0.930 . S
H858 C868 0.930 . S
H859 C871 0.929 . S
H860 C874 0.930 . S
H861 C876 0.960 . S
H862 C876 0.960 . S
H863 C876 0.960 . S
C864 H856 0.929 . S
C864 C865 1.377 . S
C864 C866 1.384 . S
C865 C864 1.377 . S
C865 C871 1.390 . S
C866 H857 0.930 . S
C866 C864 1.384 . S
C866 C867 1.372 . S
C867 C866 1.372 . S
C867 C868 1.400 . S
C867 C872 1.490 . S
C868 H858 0.930 . S
C868 C867 1.400 . S
C868 C871 1.386 . S
H869 C885 0.930 . S
H870 C886 0.931 . S
C871 H859 0.929 . S
C871 C865 1.390 . S
C871 C868 1.386 . S
C872 C867 1.490 . S
C872 C874 1.395 1_655 S
C872 C875 1.403 . S
H873 C879 0.930 1_655 S
C874 H860 0.930 . S
C874 C872 1.395 1_455 S
C874 C877 1.403 . S
C875 C872 1.403 . S
C875 C876 1.524 . S
C875 C879 1.401 1_655 S
C876 H861 0.960 . S
C876 H862 0.960 . S
C876 H863 0.960 . S
C876 C875 1.524 . S
C877 C874 1.403 . S
C877 C878 1.392 . S
C877 C881 1.495 . S
C878 C877 1.392 . S
C878 C879 1.383 . S
C878 C880 1.478 . S
C879 H873 0.930 1_455 S
C879 C875 1.401 1_455 S
C879 C878 1.383 . S
C880 C878 1.478 . S
C880 C882 1.381 . S
C880 C886 1.383 . S
C881 C877 1.495 . S
C881 H887 0.959 . S
C881 H888 0.961 . S
C881 H889 0.960 . S
C882 C880 1.381 . S
C882 C883 1.394 . S
C882 H890 0.930 . S
C883 C882 1.394 . S
C883 C884 1.383 . S
C883 H891 0.929 . S
C884 C883 1.383 . S
C884 C885 1.377 . S
C885 H869 0.930 . S
C885 C884 1.377 . S
C885 C886 1.379 . S
C886 H870 0.931 . S
C886 C880 1.383 . S
C886 C885 1.379 . S
H887 C881 0.959 . S
H888 C881 0.961 . S
H889 C881 0.960 . S
H890 C882 0.930 . S
H891 C883 0.929 . S
H892 C900 0.929 . S
H893 C902 0.930 . S
H894 C904 0.930 . S
H895 C907 0.929 . S
H896 C910 0.930 . S
H897 C912 0.960 . S
H898 C912 0.960 . S
H899 C912 0.960 . S
C900 H892 0.929 . S
C900 C901 1.377 . S
C900 C902 1.384 . S
C901 C900 1.377 . S
C901 C907 1.390 . S
C902 H893 0.930 . S
C902 C900 1.384 . S
C902 C903 1.372 . S
C903 C902 1.372 . S
C903 C904 1.400 . S
C903 C908 1.490 . S
C904 H894 0.930 . S
C904 C903 1.400 . S
C904 C907 1.386 . S
H905 C921 0.930 . S
H906 C922 0.931 . S
C907 H895 0.929 . S
C907 C901 1.390 . S
C907 C904 1.386 . S
C908 C903 1.490 . S
C908 C910 1.395 1_455 S
C908 C911 1.403 . S
H909 C915 0.928 1_455 S
C910 H896 0.930 . S
C910 C908 1.395 1_655 S
C910 C913 1.403 . S
C911 C908 1.403 . S
C911 C912 1.524 . S
C911 C915 1.382 1_455 S
C912 H897 0.960 . S
C912 H898 0.960 . S
C912 H899 0.960 . S
C912 C911 1.524 . S
C913 C910 1.403 . S
C913 C914 1.392 . S
C913 C917 1.495 . S
C914 C913 1.392 . S
C914 C915 1.405 . S
C914 C916 1.478 . S
C915 H909 0.928 1_655 S
C915 C911 1.382 1_655 S
C915 C914 1.405 . S
C916 C914 1.478 . S
C916 C918 1.381 . S
C916 C922 1.383 . S
C917 C913 1.495 . S
C917 H923 0.959 . S
C917 H924 0.961 . S
C917 H925 0.960 . S
C918 C916 1.381 . S
C918 C919 1.394 . S
C918 H926 0.930 . S
C919 C918 1.394 . S
C919 C920 1.383 . S
C919 H927 0.929 . S
C920 C919 1.383 . S
C920 C921 1.377 . S
C921 H905 0.930 . S
C921 C920 1.377 . S
C921 C922 1.379 . S
C922 H906 0.931 . S
C922 C916 1.383 . S
C922 C921 1.379 . S
H923 C917 0.959 . S
H924 C917 0.961 . S
H925 C917 0.960 . S
H926 C918 0.930 . S
H927 C919 0.929 . S
H928 C936 0.929 . S
H929 C938 0.930 . S
H930 C940 0.930 . S
H931 C943 0.929 . S
H932 C946 0.930 . S
H933 C948 0.960 . S
H934 C948 0.960 . S
H935 C948 0.960 . S
C936 H928 0.929 . S
C936 C937 1.377 . S
C936 C938 1.384 . S
C937 C936 1.377 . S
C937 C943 1.390 . S
C938 H929 0.930 . S
C938 C936 1.384 . S
C938 C939 1.372 . S
C939 C938 1.372 . S
C939 C940 1.400 . S
C939 C944 1.490 . S
C940 H930 0.930 . S
C940 C939 1.400 . S
C940 C943 1.386 . S
H941 C957 0.930 1_554 S
H942 C958 0.931 . S
C943 H931 0.929 . S
C943 C937 1.390 . S
C943 C940 1.386 . S
C944 C939 1.490 . S
C944 C946 1.395 . S
C944 C947 1.403 . S
H945 C951 0.930 . S
C946 H932 0.930 . S
C946 C944 1.395 . S
C946 C949 1.403 . S
C947 C944 1.403 . S
C947 C948 1.524 . S
C947 C951 1.400 . S
C948 H933 0.960 . S
C948 H934 0.960 . S
C948 H935 0.960 . S
C948 C947 1.524 . S
C949 C946 1.403 . S
C949 C950 1.392 . S
C949 C953 1.495 . S
C950 C949 1.392 . S
C950 C951 1.385 . S
C950 C952 1.478 . S
C951 H945 0.930 . S
C951 C947 1.400 . S
C951 C950 1.385 . S
C952 C950 1.478 . S
C952 C954 1.381 . S
C952 C958 1.383 . S
C953 C949 1.495 . S
C953 H959 0.959 . S
C953 H960 0.961 . S
C953 H961 0.960 . S
C954 C952 1.381 . S
C954 C955 1.394 . S
C954 H962 0.930 . S
C955 C954 1.394 . S
C955 C956 1.383 . S
C955 H963 0.929 . S
C956 C955 1.383 . S
C956 C957 1.377 . S
C957 H941 0.930 1_556 S
C957 C956 1.377 . S
C957 C958 1.379 . S
C958 H942 0.931 . S
C958 C952 1.383 . S
C958 C957 1.379 . S
H959 C953 0.959 . S
H960 C953 0.961 . S
H961 C953 0.960 . S
H962 C954 0.930 . S
H963 C955 0.929 . S
H964 C972 0.929 . S
H965 C974 0.930 . S
H966 C976 0.930 . S
H967 C979 0.929 . S
H968 C982 0.930 . S
H969 C984 0.960 . S
H970 C984 0.960 . S
H971 C984 0.960 . S
C972 H964 0.929 . S
C972 C973 1.377 . S
C972 C974 1.384 . S
C973 C972 1.377 . S
C973 C979 1.390 . S
C974 H965 0.930 . S
C974 C972 1.384 . S
C974 C975 1.372 . S
C975 C974 1.372 . S
C975 C976 1.400 . S
C975 C980 1.490 . S
C976 H966 0.930 . S
C976 C975 1.400 . S
C976 C979 1.386 . S
H977 C993 0.930 . S
H978 C994 0.931 . S
C979 H967 0.929 . S
C979 C973 1.390 . S
C979 C976 1.386 . S
C980 C975 1.490 . S
C980 C982 1.395 . S
C980 C983 1.403 . S
H981 C987 0.930 . S
C982 H968 0.930 . S
C982 C980 1.395 . S
C982 C985 1.403 . S
C983 C980 1.403 . S
C983 C984 1.524 . S
C983 C987 1.400 . S
C984 H969 0.960 . S
C984 H970 0.960 . S
C984 H971 0.960 . S
C984 C983 1.524 . S
C985 C982 1.403 . S
C985 C986 1.392 . S
C985 C989 1.495 . S
C986 C985 1.392 . S
C986 C987 1.385 . S
C986 C988 1.478 . S
C987 H981 0.930 . S
C987 C983 1.400 . S
C987 C986 1.385 . S
C988 C986 1.478 . S
C988 C990 1.381 . S
C988 C994 1.383 . S
C989 C985 1.495 . S
C989 H995 0.959 . S
C989 H996 0.961 . S
C989 H997 0.960 . S
C990 C988 1.381 . S
C990 C991 1.394 . S
C990 H998 0.930 . S
C991 C990 1.394 . S
C991 C992 1.383 . S
C991 H999 0.929 . S
C992 C991 1.383 . S
C992 C993 1.377 . S
C993 H977 0.930 . S
C993 C992 1.377 . S
C993 C994 1.379 . S
C994 H978 0.931 . S
C994 C988 1.383 . S
C994 C993 1.379 . S
H995 C989 0.959 . S
H996 C989 0.961 . S
H997 C989 0.960 . S
H998 C990 0.930 . S
H999 C991 0.929 . S
H1000 C1008 0.929 . S
H1001 C1010 0.930 . S
H1002 C1012 0.930 . S
H1003 C1015 0.929 . S
H1004 C1018 0.930 . S
H1005 C1020 0.960 . S
H1006 C1020 0.960 . S
H1007 C1020 0.960 . S
C1008 H1000 0.929 . S
C1008 C1009 1.377 . S
C1008 C1010 1.384 . S
C1009 C1008 1.377 . S
C1009 C1015 1.390 . S
C1010 H1001 0.930 . S
C1010 C1008 1.384 . S
C1010 C1011 1.372 . S
C1011 C1010 1.372 . S
C1011 C1012 1.400 . S
C1011 C1016 1.490 . S
C1012 H1002 0.930 . S
C1012 C1011 1.400 . S
C1012 C1015 1.386 . S
H1013 C1029 0.930 . S
H1014 C1030 0.931 . S
C1015 H1003 0.929 . S
C1015 C1009 1.390 . S
C1015 C1012 1.386 . S
C1016 C1011 1.490 . S
C1016 C1018 1.395 . S
C1016 C1019 1.403 . S
H1017 C1023 0.930 . S
C1018 H1004 0.930 . S
C1018 C1016 1.395 . S
C1018 C1021 1.403 . S
C1019 C1016 1.403 . S
C1019 C1020 1.524 . S
C1019 C1023 1.400 . S
C1020 H1005 0.960 . S
C1020 H1006 0.960 . S
C1020 H1007 0.960 . S
C1020 C1019 1.524 . S
C1021 C1018 1.403 . S
C1021 C1022 1.392 . S
C1021 C1025 1.495 . S
C1022 C1021 1.392 . S
C1022 C1023 1.385 . S
C1022 C1024 1.478 . S
C1023 H1017 0.930 . S
C1023 C1019 1.400 . S
C1023 C1022 1.385 . S
C1024 C1022 1.478 . S
C1024 C1026 1.381 . S
C1024 C1030 1.383 . S
C1025 C1021 1.495 . S
C1025 H1031 0.959 . S
C1025 H1032 0.961 . S
C1025 H1033 0.960 . S
C1026 C1024 1.381 . S
C1026 C1027 1.394 . S
C1026 H1034 0.930 . S
C1027 C1026 1.394 . S
C1027 C1028 1.383 . S
C1027 H1035 0.929 . S
C1028 C1027 1.383 . S
C1028 C1029 1.377 . S
C1029 H1013 0.930 . S
C1029 C1028 1.377 . S
C1029 C1030 1.379 . S
C1030 H1014 0.931 . S
C1030 C1024 1.383 . S
C1030 C1029 1.379 . S
H1031 C1025 0.959 . S
H1032 C1025 0.961 . S
H1033 C1025 0.960 . S
H1034 C1026 0.930 . S
H1035 C1027 0.929 . S
H1036 C1044 0.929 . S
H1037 C1046 0.930 . S
H1038 C1048 0.930 . S
H1039 C1051 0.929 . S
H1040 C1054 0.930 . S
H1041 C1056 0.960 . S
H1042 C1056 0.960 . S
H1043 C1056 0.960 . S
C1044 H1036 0.929 . S
C1044 C1045 1.377 . S
C1044 C1046 1.384 . S
C1045 C1044 1.377 . S
C1045 C1051 1.390 . S
C1046 H1037 0.930 . S
C1046 C1044 1.384 . S
C1046 C1047 1.372 . S
C1047 C1046 1.372 . S
C1047 C1048 1.400 . S
C1047 C1052 1.490 . S
C1048 H1038 0.930 . S
C1048 C1047 1.400 . S
C1048 C1051 1.386 . S
H1049 C1065 0.930 . S
H1050 C1066 0.931 . S
C1051 H1039 0.929 . S
C1051 C1045 1.390 . S
C1051 C1048 1.386 . S
C1052 C1047 1.490 . S
C1052 C1054 1.395 . S
C1052 C1055 1.403 . S
H1053 C1059 0.930 . S
C1054 H1040 0.930 . S
C1054 C1052 1.395 . S
C1054 C1057 1.403 . S
C1055 C1052 1.403 . S
C1055 C1056 1.524 . S
C1055 C1059 1.400 . S
C1056 H1041 0.960 . S
C1056 H1042 0.960 . S
C1056 H1043 0.960 . S
C1056 C1055 1.524 . S
C1057 C1054 1.403 . S
C1057 C1058 1.392 . S
C1057 C1061 1.495 . S
C1058 C1057 1.392 . S
C1058 C1059 1.385 . S
C1058 C1060 1.478 . S
C1059 H1053 0.930 . S
C1059 C1055 1.400 . S
C1059 C1058 1.385 . S
C1060 C1058 1.478 . S
C1060 C1062 1.381 . S
C1060 C1066 1.383 . S
C1061 C1057 1.495 . S
C1061 H1067 0.959 . S
C1061 H1068 0.961 . S
C1061 H1069 0.960 . S
C1062 C1060 1.381 . S
C1062 C1063 1.394 . S
C1062 H1070 0.930 . S
C1063 C1062 1.394 . S
C1063 C1064 1.383 . S
C1063 H1071 0.929 . S
C1064 C1063 1.383 . S
C1064 C1065 1.377 . S
C1065 H1049 0.930 . S
C1065 C1064 1.377 . S
C1065 C1066 1.379 . S
C1066 H1050 0.931 . S
C1066 C1060 1.383 . S
C1066 C1065 1.379 . S
H1067 C1061 0.959 . S
H1068 C1061 0.961 . S
H1069 C1061 0.960 . S
H1070 C1062 0.930 . S
H1071 C1063 0.929 . S
H1072 C1080 0.929 . S
H1073 C1082 0.930 . S
H1074 C1084 0.930 . S
H1075 C1087 0.929 . S
H1076 C1090 0.930 . S
H1077 C1092 0.960 . S
H1078 C1092 0.960 . S
H1079 C1092 0.960 . S
C1080 H1072 0.929 . S
C1080 C1081 1.377 . S
C1080 C1082 1.384 . S
C1081 C1080 1.377 . S
C1081 C1087 1.390 . S
C1082 H1073 0.930 . S
C1082 C1080 1.384 . S
C1082 C1083 1.372 . S
C1083 C1082 1.372 . S
C1083 C1084 1.400 . S
C1083 C1088 1.490 . S
C1084 H1074 0.930 . S
C1084 C1083 1.400 . S
C1084 C1087 1.386 . S
H1085 C1101 0.930 . S
H1086 C1102 0.931 . S
C1087 H1075 0.929 . S
C1087 C1081 1.390 . S
C1087 C1084 1.386 . S
C1088 C1083 1.490 . S
C1088 C1090 1.395 . S
C1088 C1091 1.403 . S
H1089 C1095 0.930 . S
C1090 H1076 0.930 . S
C1090 C1088 1.395 . S
C1090 C1093 1.403 . S
C1091 C1088 1.403 . S
C1091 C1092 1.524 . S
C1091 C1095 1.400 . S
C1092 H1077 0.960 . S
C1092 H1078 0.960 . S
C1092 H1079 0.960 . S
C1092 C1091 1.524 . S
C1093 C1090 1.403 . S
C1093 C1094 1.392 . S
C1093 C1097 1.495 . S
C1094 C1093 1.392 . S
C1094 C1095 1.385 . S
C1094 C1096 1.478 . S
C1095 H1089 0.930 . S
C1095 C1091 1.400 . S
C1095 C1094 1.385 . S
C1096 C1094 1.478 . S
C1096 C1098 1.381 . S
C1096 C1102 1.383 . S
C1097 C1093 1.495 . S
C1097 H1103 0.959 . S
C1097 H1104 0.961 . S
C1097 H1105 0.960 . S
C1098 C1096 1.381 . S
C1098 C1099 1.394 . S
C1098 H1106 0.930 . S
C1099 C1098 1.394 . S
C1099 C1100 1.383 . S
C1099 H1107 0.929 . S
C1100 C1099 1.383 . S
C1100 C1101 1.377 . S
C1101 H1085 0.930 . S
C1101 C1100 1.377 . S
C1101 C1102 1.379 . S
C1102 H1086 0.931 . S
C1102 C1096 1.383 . S
C1102 C1101 1.379 . S
H1103 C1097 0.959 . S
H1104 C1097 0.961 . S
H1105 C1097 0.960 . S
H1106 C1098 0.930 . S
H1107 C1099 0.929 . S
H1108 C1116 0.929 . S
H1109 C1118 0.930 . S
H1110 C1120 0.930 . S
H1111 C1123 0.929 . S
H1112 C1126 0.930 . S
H1113 C1128 0.960 . S
H1114 C1128 0.960 . S
H1115 C1128 0.960 . S
C1116 H1108 0.929 . S
C1116 C1117 1.377 . S
C1116 C1118 1.384 . S
C1117 C1116 1.377 . S
C1117 C1123 1.390 . S
C1118 H1109 0.930 . S
C1118 C1116 1.384 . S
C1118 C1119 1.372 . S
C1119 C1118 1.372 . S
C1119 C1120 1.400 . S
C1119 C1124 1.490 . S
C1120 H1110 0.930 . S
C1120 C1119 1.400 . S
C1120 C1123 1.386 . S
H1121 C1137 0.930 . S
H1122 C1138 0.931 . S
C1123 H1111 0.929 . S
C1123 C1117 1.390 . S
C1123 C1120 1.386 . S
C1124 C1119 1.490 . S
C1124 C1126 1.395 . S
C1124 C1127 1.403 . S
H1125 C1131 0.930 . S
C1126 H1112 0.930 . S
C1126 C1124 1.395 . S
C1126 C1129 1.403 . S
C1127 C1124 1.403 . S
C1127 C1128 1.524 . S
C1127 C1131 1.400 . S
C1128 H1113 0.960 . S
C1128 H1114 0.960 . S
C1128 H1115 0.960 . S
C1128 C1127 1.524 . S
C1129 C1126 1.403 . S
C1129 C1130 1.392 . S
C1129 C1133 1.495 . S
C1130 C1129 1.392 . S
C1130 C1131 1.385 . S
C1130 C1132 1.478 . S
C1131 H1125 0.930 . S
C1131 C1127 1.400 . S
C1131 C1130 1.385 . S
C1132 C1130 1.478 . S
C1132 C1134 1.381 . S
C1132 C1138 1.383 . S
C1133 C1129 1.495 . S
C1133 H1139 0.959 . S
C1133 H1140 0.961 . S
C1133 H1141 0.960 . S
C1134 C1132 1.381 . S
C1134 C1135 1.394 . S
C1134 H1142 0.930 . S
C1135 C1134 1.394 . S
C1135 C1136 1.383 . S
C1135 H1143 0.929 . S
C1136 C1135 1.383 . S
C1136 C1137 1.377 . S
C1137 H1121 0.930 . S
C1137 C1136 1.377 . S
C1137 C1138 1.379 . S
C1138 H1122 0.931 . S
C1138 C1132 1.383 . S
C1138 C1137 1.379 . S
H1139 C1133 0.959 . S
H1140 C1133 0.961 . S
H1141 C1133 0.960 . S
H1142 C1134 0.930 . S
H1143 C1135 0.929 . S
H1144 C1152 0.929 . S
H1145 C1154 0.930 . S
H1146 C1156 0.930 . S
H1147 C1159 0.929 . S
H1148 C1162 0.930 . S
H1149 C1164 0.960 . S
H1150 C1164 0.960 . S
H1151 C1164 0.960 . S
C1152 H1144 0.929 . S
C1152 C1153 1.377 . S
C1152 C1154 1.384 . S
C1153 C1152 1.377 . S
C1153 C1159 1.390 . S
C1154 H1145 0.930 . S
C1154 C1152 1.384 . S
C1154 C1155 1.372 . S
C1155 C1154 1.372 . S
C1155 C1156 1.400 . S
C1155 C1160 1.490 . S
C1156 H1146 0.930 . S
C1156 C1155 1.400 . S
C1156 C1159 1.386 . S
H1157 C1173 0.930 . S
H1158 C1174 0.931 . S
C1159 H1147 0.929 . S
C1159 C1153 1.390 . S
C1159 C1156 1.386 . S
C1160 C1155 1.490 . S
C1160 C1162 1.395 . S
C1160 C1163 1.403 . S
H1161 C1167 0.930 . S
C1162 H1148 0.930 . S
C1162 C1160 1.395 . S
C1162 C1165 1.403 . S
C1163 C1160 1.403 . S
C1163 C1164 1.524 . S
C1163 C1167 1.400 . S
C1164 H1149 0.960 . S
C1164 H1150 0.960 . S
C1164 H1151 0.960 . S
C1164 C1163 1.524 . S
C1165 C1162 1.403 . S
C1165 C1166 1.392 . S
C1165 C1169 1.495 . S
C1166 C1165 1.392 . S
C1166 C1167 1.385 . S
C1166 C1168 1.478 . S
C1167 H1161 0.930 . S
C1167 C1163 1.400 . S
C1167 C1166 1.385 . S
C1168 C1166 1.478 . S
C1168 C1170 1.381 . S
C1168 C1174 1.383 . S
C1169 C1165 1.495 . S
C1169 H1175 0.959 . S
C1169 H1176 0.961 . S
C1169 H1177 0.960 . S
C1170 C1168 1.381 . S
C1170 C1171 1.394 . S
C1170 H1178 0.930 . S
C1171 C1170 1.394 . S
C1171 C1172 1.383 . S
C1171 H1179 0.929 . S
C1172 C1171 1.383 . S
C1172 C1173 1.377 . S
C1173 H1157 0.930 . S
C1173 C1172 1.377 . S
C1173 C1174 1.379 . S
C1174 H1158 0.931 . S
C1174 C1168 1.383 . S
C1174 C1173 1.379 . S
H1175 C1169 0.959 . S
H1176 C1169 0.961 . S
H1177 C1169 0.960 . S
H1178 C1170 0.930 . S
H1179 C1171 0.929 . S
H1180 C1188 0.929 . S
H1181 C1190 0.930 . S
H1182 C1192 0.930 . S
H1183 C1195 0.929 . S
H1184 C1198 0.930 . S
H1185 C1200 0.960 . S
H1186 C1200 0.960 . S
H1187 C1200 0.960 . S
C1188 H1180 0.929 . S
C1188 C1189 1.377 . S
C1188 C1190 1.384 . S
C1189 C1188 1.377 . S
C1189 C1195 1.390 . S
C1190 H1181 0.930 . S
C1190 C1188 1.384 . S
C1190 C1191 1.372 . S
C1191 C1190 1.372 . S
C1191 C1192 1.400 . S
C1191 C1196 1.490 . S
C1192 H1182 0.930 . S
C1192 C1191 1.400 . S
C1192 C1195 1.386 . S
H1193 C1209 0.930 . S
H1194 C1210 0.931 . S
C1195 H1183 0.929 . S
C1195 C1189 1.390 . S
C1195 C1192 1.386 . S
C1196 C1191 1.490 . S
C1196 C1198 1.395 . S
C1196 C1199 1.403 . S
H1197 C1203 0.930 . S
C1198 H1184 0.930 . S
C1198 C1196 1.395 . S
C1198 C1201 1.403 . S
C1199 C1196 1.403 . S
C1199 C1200 1.524 . S
C1199 C1203 1.400 . S
C1200 H1185 0.960 . S
C1200 H1186 0.960 . S
C1200 H1187 0.960 . S
C1200 C1199 1.524 . S
C1201 C1198 1.403 . S
C1201 C1202 1.392 . S
C1201 C1205 1.495 . S
C1202 C1201 1.392 . S
C1202 C1203 1.385 . S
C1202 C1204 1.478 . S
C1203 H1197 0.930 . S
C1203 C1199 1.400 . S
C1203 C1202 1.385 . S
C1204 C1202 1.478 . S
C1204 C1206 1.381 . S
C1204 C1210 1.383 . S
C1205 C1201 1.495 . S
C1205 H1211 0.959 . S
C1205 H1212 0.961 . S
C1205 H1213 0.960 . S
C1206 C1204 1.381 . S
C1206 C1207 1.394 . S
C1206 H1214 0.930 . S
C1207 C1206 1.394 . S
C1207 C1208 1.383 . S
C1207 H1215 0.929 . S
C1208 C1207 1.383 . S
C1208 C1209 1.377 . S
C1209 H1193 0.930 . S
C1209 C1208 1.377 . S
C1209 C1210 1.379 . S
C1210 H1194 0.931 . S
C1210 C1204 1.383 . S
C1210 C1209 1.379 . S
H1211 C1205 0.959 . S
H1212 C1205 0.961 . S
H1213 C1205 0.960 . S
H1214 C1206 0.930 . S
H1215 C1207 0.929 . S
H1216 C1224 0.929 . S
H1217 C1226 0.930 . S
H1218 C1228 0.930 . S
H1219 C1231 0.929 . S
H1220 C1234 0.930 . S
H1221 C1236 0.960 . S
H1222 C1236 0.960 . S
H1223 C1236 0.960 . S
C1224 H1216 0.929 . S
C1224 C1225 1.377 . S
C1224 C1226 1.384 . S
C1225 C1224 1.377 . S
C1225 C1231 1.390 . S
C1226 H1217 0.930 . S
C1226 C1224 1.384 . S
C1226 C1227 1.372 . S
C1227 C1226 1.372 . S
C1227 C1228 1.400 . S
C1227 C1232 1.490 . S
C1228 H1218 0.930 . S
C1228 C1227 1.400 . S
C1228 C1231 1.386 . S
H1229 C1245 0.930 . S
H1230 C1246 0.931 . S
C1231 H1219 0.929 . S
C1231 C1225 1.390 . S
C1231 C1228 1.386 . S
C1232 C1227 1.490 . S
C1232 C1234 1.395 . S
C1232 C1235 1.403 . S
H1233 C1239 0.930 . S
C1234 H1220 0.930 . S
C1234 C1232 1.395 . S
C1234 C1237 1.403 . S
C1235 C1232 1.403 . S
C1235 C1236 1.524 . S
C1235 C1239 1.400 . S
C1236 H1221 0.960 . S
C1236 H1222 0.960 . S
C1236 H1223 0.960 . S
C1236 C1235 1.524 . S
C1237 C1234 1.403 . S
C1237 C1238 1.392 . S
C1237 C1241 1.495 . S
C1238 C1237 1.392 . S
C1238 C1239 1.385 . S
C1238 C1240 1.478 . S
C1239 H1233 0.930 . S
C1239 C1235 1.400 . S
C1239 C1238 1.385 . S
C1240 C1238 1.478 . S
C1240 C1242 1.381 . S
C1240 C1246 1.383 . S
C1241 C1237 1.495 . S
C1241 H1247 0.959 . S
C1241 H1248 0.961 . S
C1241 H1249 0.960 . S
C1242 C1240 1.381 . S
C1242 C1243 1.394 . S
C1242 H1250 0.930 . S
C1243 C1242 1.394 . S
C1243 C1244 1.383 . S
C1243 H1251 0.929 . S
C1244 C1243 1.383 . S
C1244 C1245 1.377 . S
C1245 H1229 0.930 . S
C1245 C1244 1.377 . S
C1245 C1246 1.379 . S
C1246 H1230 0.931 . S
C1246 C1240 1.383 . S
C1246 C1245 1.379 . S
H1247 C1241 0.959 . S
H1248 C1241 0.961 . S
H1249 C1241 0.960 . S
H1250 C1242 0.930 . S
H1251 C1243 0.929 . S
H1252 C1260 0.929 . S
H1253 C1262 0.930 . S
H1254 C1264 0.930 . S
H1255 C1267 0.929 . S
H1256 C1270 0.946 . S
H1257 C1272 0.960 . S
H1258 C1272 0.960 . S
H1259 C1272 0.960 . S
C1260 H1252 0.929 . S
C1260 C1261 1.377 . S
C1260 C1262 1.384 . S
C1261 C1260 1.377 . S
C1261 C1267 1.390 . S
C1262 H1253 0.930 . S
C1262 C1260 1.384 . S
C1262 C1263 1.372 . S
C1263 C1262 1.372 . S
C1263 C1264 1.400 . S
C1263 C1268 1.490 1_545 S
C1264 H1254 0.930 . S
C1264 C1263 1.400 . S
C1264 C1267 1.386 . S
H1265 C1281 0.930 . S
H1266 C1282 0.931 . S
C1267 H1255 0.929 . S
C1267 C1261 1.390 . S
C1267 C1264 1.386 . S
C1268 C1263 1.490 1_565 S
C1268 C1270 1.395 . S
C1268 C1271 1.403 . S
H1269 C1275 0.930 . S
C1270 H1256 0.946 . S
C1270 C1268 1.395 . S
C1270 C1273 1.403 . S
C1271 C1268 1.403 . S
C1271 C1272 1.524 . S
C1271 C1275 1.400 . S
C1272 H1257 0.960 . S
C1272 H1258 0.960 . S
C1272 H1259 0.960 . S
C1272 C1271 1.524 . S
C1273 C1270 1.403 . S
C1273 C1274 1.392 . S
C1273 C1277 1.495 . S
C1274 C1273 1.392 . S
C1274 C1275 1.385 . S
C1274 C1276 1.478 . S
C1275 H1269 0.930 . S
C1275 C1271 1.400 . S
C1275 C1274 1.385 . S
C1276 C1274 1.478 . S
C1276 C1278 1.381 . S
C1276 C1282 1.383 . S
C1277 C1273 1.495 . S
C1277 H1283 0.959 . S
C1277 H1284 0.961 . S
C1277 H1285 0.960 . S
C1278 C1276 1.381 . S
C1278 C1279 1.394 . S
C1278 H1286 0.930 . S
C1279 C1278 1.394 . S
C1279 C1280 1.383 . S
C1279 H1287 0.929 . S
C1280 C1279 1.383 . S
C1280 C1281 1.377 . S
C1281 H1265 0.930 . S
C1281 C1280 1.377 . S
C1281 C1282 1.379 . S
C1282 H1266 0.931 . S
C1282 C1276 1.383 . S
C1282 C1281 1.379 . S
H1283 C1277 0.959 . S
H1284 C1277 0.961 . S
H1285 C1277 0.960 . S
H1286 C1278 0.930 . S
H1287 C1279 0.929 . S
H1288 C1296 0.929 1_554 S
H1289 C1298 0.930 . S
H1290 C1300 0.930 . S
H1291 C1303 0.929 . S
H1292 C1306 0.930 . S
H1293 C1308 0.960 . S
H1294 C1308 0.960 . S
H1295 C1308 0.960 . S
C1296 H1288 0.929 1_556 S
C1296 C1297 1.377 . S
C1296 C1298 1.384 . S
C1297 C1296 1.377 . S
C1297 C1303 1.390 . S
C1298 H1289 0.930 . S
C1298 C1296 1.384 . S
C1298 C1299 1.372 . S
C1299 C1298 1.372 . S
C1299 C1300 1.400 . S
C1299 C1304 1.490 . S
C1300 H1290 0.930 . S
C1300 C1299 1.400 . S
C1300 C1303 1.386 . S
H1301 C1317 0.930 . S
H1302 C1318 0.931 . S
C1303 H1291 0.929 . S
C1303 C1297 1.390 . S
C1303 C1300 1.386 . S
C1304 C1299 1.490 . S
C1304 C1306 1.395 . S
C1304 C1307 1.403 . S
H1305 C1311 0.930 . S
C1306 H1292 0.930 . S
C1306 C1304 1.395 . S
C1306 C1309 1.403 . S
C1307 C1304 1.403 . S
C1307 C1308 1.524 . S
C1307 C1311 1.400 . S
C1308 H1293 0.960 . S
C1308 H1294 0.960 . S
C1308 H1295 0.960 . S
C1308 C1307 1.524 . S
C1309 C1306 1.403 . S
C1309 C1310 1.392 . S
C1309 C1313 1.495 . S
C1310 C1309 1.392 . S
C1310 C1311 1.385 . S
C1310 C1312 1.478 . S
C1311 H1305 0.930 . S
C1311 C1307 1.400 . S
C1311 C1310 1.385 . S
C1312 C1310 1.478 . S
C1312 C1314 1.381 . S
C1312 C1318 1.383 . S
C1313 C1309 1.495 . S
C1313 H1319 0.959 . S
C1313 H1320 0.961 . S
C1313 H1321 0.960 . S
C1314 C1312 1.381 . S
C1314 C1315 1.394 . S
C1314 H1322 0.930 . S
C1315 C1314 1.394 . S
C1315 C1316 1.383 . S
C1315 H1323 0.929 . S
C1316 C1315 1.383 . S
C1316 C1317 1.377 . S
C1317 H1301 0.930 . S
C1317 C1316 1.377 . S
C1317 C1318 1.379 . S
C1318 H1302 0.931 . S
C1318 C1312 1.383 . S
C1318 C1317 1.379 . S
H1319 C1313 0.959 . S
H1320 C1313 0.961 . S
H1321 C1313 0.960 . S
H1322 C1314 0.930 . S
H1323 C1315 0.929 . S
H1324 C1332 0.929 . S
H1325 C1334 0.930 . S
H1326 C1336 0.930 . S
H1327 C1339 0.929 . S
H1328 C1342 0.930 . S
H1329 C1344 0.960 . S
H1330 C1344 0.960 . S
H1331 C1344 0.960 . S
C1332 H1324 0.929 . S
C1332 C1333 1.377 . S
C1332 C1334 1.384 . S
C1333 C1332 1.377 . S
C1333 C1339 1.390 . S
C1334 H1325 0.930 . S
C1334 C1332 1.384 . S
C1334 C1335 1.372 . S
C1335 C1334 1.372 . S
C1335 C1336 1.400 . S
C1335 C1340 1.490 1_565 S
C1336 H1326 0.930 . S
C1336 C1335 1.400 . S
C1336 C1339 1.386 . S
H1337 C1353 0.930 . S
H1338 C1354 0.931 . S
C1339 H1327 0.929 . S
C1339 C1333 1.390 . S
C1339 C1336 1.386 . S
C1340 C1335 1.490 1_545 S
C1340 C1342 1.395 . S
C1340 C1343 1.403 . S
H1341 C1347 0.930 . S
C1342 H1328 0.930 . S
C1342 C1340 1.395 . S
C1342 C1345 1.403 . S
C1343 C1340 1.403 . S
C1343 C1344 1.524 1_545 S
C1343 C1347 1.400 . S
C1344 H1329 0.960 . S
C1344 H1330 0.960 . S
C1344 H1331 0.960 . S
C1344 C1343 1.524 1_565 S
C1345 C1342 1.403 . S
C1345 C1346 1.392 . S
C1345 C1349 1.495 . S
C1346 C1345 1.392 . S
C1346 C1347 1.385 . S
C1346 C1348 1.478 . S
C1347 H1341 0.930 . S
C1347 C1343 1.400 . S
C1347 C1346 1.385 . S
C1348 C1346 1.478 . S
C1348 C1350 1.381 . S
C1348 C1354 1.383 . S
C1349 C1345 1.495 . S
C1349 H1355 0.959 . S
C1349 H1356 0.961 . S
C1349 H1357 0.960 . S
C1350 C1348 1.381 . S
C1350 C1351 1.394 . S
C1350 H1358 0.930 . S
C1351 C1350 1.394 . S
C1351 C1352 1.383 . S
C1351 H1359 0.929 . S
C1352 C1351 1.383 . S
C1352 C1353 1.377 . S
C1353 H1337 0.930 . S
C1353 C1352 1.377 . S
C1353 C1354 1.379 . S
C1354 H1338 0.931 . S
C1354 C1348 1.383 . S
C1354 C1353 1.379 . S
H1355 C1349 0.959 . S
H1356 C1349 0.961 . S
H1357 C1349 0.960 . S
H1358 C1350 0.930 . S
H1359 C1351 0.929 . S
H1360 C1368 0.929 . S
H1361 C1370 0.930 . S
H1362 C1372 0.930 . S
H1363 C1375 0.929 . S
H1364 C1378 0.930 . S
H1365 C1380 0.960 . S
H1366 C1380 0.960 . S
H1367 C1380 0.960 . S
C1368 H1360 0.929 . S
C1368 C1369 1.377 . S
C1368 C1370 1.384 . S
C1369 C1368 1.377 . S
C1369 C1375 1.390 . S
C1370 H1361 0.930 . S
C1370 C1368 1.384 . S
C1370 C1371 1.372 . S
C1371 C1370 1.372 . S
C1371 C1372 1.400 . S
C1371 C1376 1.490 . S
C1372 H1362 0.930 . S
C1372 C1371 1.400 . S
C1372 C1375 1.386 . S
H1373 C1389 0.930 . S
H1374 C1390 0.931 . S
C1375 H1363 0.929 . S
C1375 C1369 1.390 . S
C1375 C1372 1.386 . S
C1376 C1371 1.490 . S
C1376 C1378 1.395 . S
C1376 C1379 1.403 . S
H1377 C1383 0.930 . S
C1378 H1364 0.930 . S
C1378 C1376 1.395 . S
C1378 C1381 1.403 . S
C1379 C1376 1.403 . S
C1379 C1380 1.524 . S
C1379 C1383 1.400 . S
C1380 H1365 0.960 . S
C1380 H1366 0.960 . S
C1380 H1367 0.960 . S
C1380 C1379 1.524 . S
C1381 C1378 1.403 . S
C1381 C1382 1.392 . S
C1381 C1385 1.495 . S
C1382 C1381 1.392 . S
C1382 C1383 1.385 . S
C1382 C1384 1.478 . S
C1383 H1377 0.930 . S
C1383 C1379 1.400 . S
C1383 C1382 1.385 . S
C1384 C1382 1.478 . S
C1384 C1386 1.381 . S
C1384 C1390 1.383 . S
C1385 C1381 1.495 . S
C1385 H1391 0.959 . S
C1385 H1392 0.961 . S
C1385 H1393 0.960 . S
C1386 C1384 1.381 . S
C1386 C1387 1.394 . S
C1386 H1394 0.930 . S
C1387 C1386 1.394 . S
C1387 C1388 1.383 . S
C1387 H1395 0.929 . S
C1388 C1387 1.383 . S
C1388 C1389 1.377 . S
C1389 H1373 0.930 . S
C1389 C1388 1.377 . S
C1389 C1390 1.379 . S
C1390 H1374 0.931 . S
C1390 C1384 1.383 . S
C1390 C1389 1.379 . S
H1391 C1385 0.959 . S
H1392 C1385 0.961 . S
H1393 C1385 0.960 . S
H1394 C1386 0.930 . S
H1395 C1387 0.929 . S
H1396 C1404 0.929 . S
H1397 C1406 0.930 . S
H1398 C1408 0.930 . S
H1399 C1411 0.929 . S
H1400 C1414 0.930 . S
H1401 C1416 0.960 . S
H1402 C1416 0.960 . S
H1403 C1416 0.960 . S
C1404 H1396 0.929 . S
C1404 C1405 1.377 . S
C1404 C1406 1.384 . S
C1405 C1404 1.377 . S
C1405 C1411 1.390 . S
C1406 H1397 0.930 . S
C1406 C1404 1.384 . S
C1406 C1407 1.372 . S
C1407 C1406 1.372 . S
C1407 C1408 1.400 . S
C1407 C1412 1.490 . S
C1408 H1398 0.930 . S
C1408 C1407 1.400 . S
C1408 C1411 1.386 . S
H1409 C1425 0.930 . S
H1410 C1426 0.931 . S
C1411 H1399 0.929 . S
C1411 C1405 1.390 . S
C1411 C1408 1.386 . S
C1412 C1407 1.490 . S
C1412 C1414 1.395 . S
C1412 C1415 1.403 . S
H1413 C1419 0.930 . S
C1414 H1400 0.930 . S
C1414 C1412 1.395 . S
C1414 C1417 1.403 . S
C1415 C1412 1.403 . S
C1415 C1416 1.524 . S
C1415 C1419 1.400 . S
C1416 H1401 0.960 . S
C1416 H1402 0.960 . S
C1416 H1403 0.960 . S
C1416 C1415 1.524 . S
C1417 C1414 1.403 . S
C1417 C1418 1.392 . S
C1417 C1421 1.495 . S
C1418 C1417 1.392 . S
C1418 C1419 1.385 . S
C1418 C1420 1.478 1_545 S
C1419 H1413 0.930 . S
C1419 C1415 1.400 . S
C1419 C1418 1.385 . S
C1420 C1418 1.478 1_565 S
C1420 C1422 1.381 . S
C1420 C1426 1.383 . S
C1421 C1417 1.495 . S
C1421 H1427 0.959 . S
C1421 H1428 0.961 . S
C1421 H1429 0.917 1_545 S
C1422 C1420 1.381 . S
C1422 C1423 1.394 . S
C1422 H1430 0.930 . S
C1423 C1422 1.394 . S
C1423 C1424 1.383 . S
C1423 H1431 0.929 . S
C1424 C1423 1.383 . S
C1424 C1425 1.377 . S
C1425 H1409 0.930 . S
C1425 C1424 1.377 . S
C1425 C1426 1.379 . S
C1426 H1410 0.931 . S
C1426 C1420 1.383 . S
C1426 C1425 1.379 . S
H1427 C1421 0.959 . S
H1428 C1421 0.961 . S
H1429 C1421 0.917 1_565 S
H1430 C1422 0.930 . S
H1431 C1423 0.929 . S
H1432 C1440 0.929 . S
H1433 C1442 0.930 . S
H1434 C1444 0.930 . S
H1435 C1447 0.929 . S
H1436 C1450 0.930 . S
H1437 C1452 0.960 . S
H1438 C1452 0.960 . S
H1439 C1452 0.960 . S
C1440 H1432 0.929 . S
C1440 C1441 1.377 . S
C1440 C1442 1.384 . S
C1441 C1440 1.377 . S
C1441 C1447 1.390 . S
C1442 H1433 0.930 . S
C1442 C1440 1.384 . S
C1442 C1443 1.372 . S
C1443 C1442 1.372 . S
C1443 C1444 1.400 . S
C1443 C1448 1.490 . S
C1444 H1434 0.930 . S
C1444 C1443 1.400 . S
C1444 C1447 1.386 . S
H1445 C1461 0.930 1_556 S
H1446 C1462 0.931 . S
C1447 H1435 0.929 . S
C1447 C1441 1.390 . S
C1447 C1444 1.386 . S
C1448 C1443 1.490 . S
C1448 C1450 1.395 . S
C1448 C1451 1.403 . S
H1449 C1455 0.930 . S
C1450 H1436 0.930 . S
C1450 C1448 1.395 . S
C1450 C1453 1.403 . S
C1451 C1448 1.403 . S
C1451 C1452 1.524 . S
C1451 C1455 1.400 . S
C1452 H1437 0.960 . S
C1452 H1438 0.960 . S
C1452 H1439 0.960 . S
C1452 C1451 1.524 . S
C1453 C1450 1.403 . S
C1453 C1454 1.392 . S
C1453 C1457 1.495 . S
C1454 C1453 1.392 . S
C1454 C1455 1.385 . S
C1454 C1456 1.478 . S
C1455 H1449 0.930 . S
C1455 C1451 1.400 . S
C1455 C1454 1.385 . S
C1456 C1454 1.478 . S
C1456 C1458 1.381 . S
C1456 C1462 1.383 . S
C1457 C1453 1.495 . S
C1457 H1463 0.959 . S
C1457 H1464 0.961 . S
C1457 H1465 0.960 . S
C1458 C1456 1.381 . S
C1458 C1459 1.394 . S
C1458 H1466 0.930 . S
C1459 C1458 1.394 . S
C1459 C1460 1.383 . S
C1459 H1467 0.929 . S
C1460 C1459 1.383 . S
C1460 C1461 1.377 . S
C1461 H1445 0.930 1_554 S
C1461 C1460 1.377 . S
C1461 C1462 1.379 . S
C1462 H1446 0.931 . S
C1462 C1456 1.383 . S
C1462 C1461 1.379 . S
H1463 C1457 0.959 . S
H1464 C1457 0.961 . S
H1465 C1457 0.960 . S
H1466 C1458 0.930 . S
H1467 C1459 0.929 . S
H1468 C1476 0.929 . S
H1469 C1478 0.930 . S
H1470 C1480 0.930 . S
H1471 C1483 0.929 . S
H1472 C1486 0.930 . S
H1473 C1488 0.960 . S
H1474 C1488 0.938 1_545 S
H1475 C1488 0.960 . S
C1476 H1468 0.929 . S
C1476 C1477 1.377 . S
C1476 C1478 1.384 . S
C1477 C1476 1.377 . S
C1477 C1483 1.390 . S
C1478 H1469 0.930 . S
C1478 C1476 1.384 . S
C1478 C1479 1.372 . S
C1479 C1478 1.372 . S
C1479 C1480 1.400 . S
C1479 C1484 1.490 1_545 S
C1480 H1470 0.930 . S
C1480 C1479 1.400 . S
C1480 C1483 1.386 . S
H1481 C1497 0.930 . S
H1482 C1498 0.931 . S
C1483 H1471 0.929 . S
C1483 C1477 1.390 . S
C1483 C1480 1.386 . S
C1484 C1479 1.490 1_565 S
C1484 C1486 1.395 . S
C1484 C1487 1.403 . S
H1485 C1491 0.930 . S
C1486 H1472 0.930 . S
C1486 C1484 1.395 . S
C1486 C1489 1.403 . S
C1487 C1484 1.403 . S
C1487 C1488 1.524 . S
C1487 C1491 1.400 . S
C1488 H1473 0.960 . S
C1488 H1474 0.938 1_565 S
C1488 H1475 0.960 . S
C1488 C1487 1.524 . S
C1489 C1486 1.403 . S
C1489 C1490 1.392 . S
C1489 C1493 1.495 . S
C1490 C1489 1.392 . S
C1490 C1491 1.385 . S
C1490 C1492 1.478 . S
C1491 H1485 0.930 . S
C1491 C1487 1.400 . S
C1491 C1490 1.385 . S
C1492 C1490 1.478 . S
C1492 C1494 1.381 . S
C1492 C1498 1.383 . S
C1493 C1489 1.495 . S
C1493 H1499 0.959 . S
C1493 H1500 0.961 . S
C1493 H1501 0.960 . S
C1494 C1492 1.381 . S
C1494 C1495 1.394 . S
C1494 H1502 0.930 . S
C1495 C1494 1.394 . S
C1495 C1496 1.383 . S
C1495 H1503 0.929 . S
C1496 C1495 1.383 . S
C1496 C1497 1.377 . S
C1497 H1481 0.930 . S
C1497 C1496 1.377 . S
C1497 C1498 1.379 . S
C1498 H1482 0.931 . S
C1498 C1492 1.383 . S
C1498 C1497 1.379 . S
H1499 C1493 0.959 . S
H1500 C1493 0.961 . S
H1501 C1493 0.960 . S
H1502 C1494 0.930 . S
H1503 C1495 0.929 . S
H1504 C1512 0.929 . S
H1505 C1514 0.930 . S
H1506 C1516 0.930 . S
H1507 C1519 0.929 . S
H1508 C1522 0.930 . S
H1509 C1524 0.960 . S
H1510 C1524 0.960 . S
H1511 C1524 0.960 . S
C1512 H1504 0.929 . S
C1512 C1513 1.377 . S
C1512 C1514 1.384 . S
C1513 C1512 1.377 . S
C1513 C1519 1.390 . S
C1514 H1505 0.930 . S
C1514 C1512 1.384 . S
C1514 C1515 1.372 . S
C1515 C1514 1.372 . S
C1515 C1516 1.400 . S
C1515 C1520 1.490 . S
C1516 H1506 0.930 . S
C1516 C1515 1.400 . S
C1516 C1519 1.386 . S
H1517 C1533 0.930 . S
H1518 C1534 0.931 . S
C1519 H1507 0.929 . S
C1519 C1513 1.390 . S
C1519 C1516 1.386 . S
C1520 C1515 1.490 . S
C1520 C1522 1.395 . S
C1520 C1523 1.403 . S
H1521 C1527 0.930 . S
C1522 H1508 0.930 . S
C1522 C1520 1.395 . S
C1522 C1525 1.403 . S
C1523 C1520 1.403 . S
C1523 C1524 1.524 . S
C1523 C1527 1.400 . S
C1524 H1509 0.960 . S
C1524 H1510 0.960 . S
C1524 H1511 0.960 . S
C1524 C1523 1.524 . S
C1525 C1522 1.403 . S
C1525 C1526 1.392 . S
C1525 C1529 1.495 . S
C1526 C1525 1.392 . S
C1526 C1527 1.385 . S
C1526 C1528 1.478 . S
C1527 H1521 0.930 . S
C1527 C1523 1.400 . S
C1527 C1526 1.385 . S
C1528 C1526 1.478 . S
C1528 C1530 1.381 . S
C1528 C1534 1.383 . S
C1529 C1525 1.495 . S
C1529 H1535 0.959 . S
C1529 H1536 0.961 . S
C1529 H1537 0.960 . S
C1530 C1528 1.381 . S
C1530 C1531 1.394 . S
C1530 H1538 0.930 . S
C1531 C1530 1.394 . S
C1531 C1532 1.383 . S
C1531 H1539 0.929 . S
C1532 C1531 1.383 . S
C1532 C1533 1.377 . S
C1533 H1517 0.930 . S
C1533 C1532 1.377 . S
C1533 C1534 1.379 . S
C1534 H1518 0.931 . S
C1534 C1528 1.383 . S
C1534 C1533 1.379 . S
H1535 C1529 0.959 . S
H1536 C1529 0.961 . S
H1537 C1529 0.960 . S
H1538 C1530 0.930 . S
H1539 C1531 0.929 . S
H1540 C1548 0.929 . S
H1541 C1550 0.930 . S
H1542 C1552 0.930 . S
H1543 C1555 0.929 . S
H1544 C1558 0.930 . S
H1545 C1560 0.960 . S
H1546 C1560 0.960 . S
H1547 C1560 0.960 . S
C1548 H1540 0.929 . S
C1548 C1549 1.377 . S
C1548 C1550 1.384 . S
C1549 C1548 1.377 . S
C1549 C1555 1.390 . S
C1550 H1541 0.930 . S
C1550 C1548 1.384 . S
C1550 C1551 1.372 . S
C1551 C1550 1.372 . S
C1551 C1552 1.400 . S
C1551 C1556 1.490 . S
C1552 H1542 0.930 . S
C1552 C1551 1.400 . S
C1552 C1555 1.386 . S
H1553 C1569 0.930 . S
H1554 C1570 0.931 . S
C1555 H1543 0.929 . S
C1555 C1549 1.390 . S
C1555 C1552 1.386 . S
C1556 C1551 1.490 . S
C1556 C1558 1.395 . S
C1556 C1559 1.403 . S
H1557 C1563 0.930 . S
C1558 H1544 0.930 . S
C1558 C1556 1.395 . S
C1558 C1561 1.403 . S
C1559 C1556 1.403 . S
C1559 C1560 1.524 . S
C1559 C1563 1.400 . S
C1560 H1545 0.960 . S
C1560 H1546 0.960 . S
C1560 H1547 0.960 . S
C1560 C1559 1.524 . S
C1561 C1558 1.403 . S
C1561 C1562 1.392 . S
C1561 C1565 1.495 . S
C1562 C1561 1.392 . S
C1562 C1563 1.385 . S
C1562 C1564 1.478 . S
C1563 H1557 0.930 . S
C1563 C1559 1.400 . S
C1563 C1562 1.385 . S
C1564 C1562 1.478 . S
C1564 C1566 1.381 . S
C1564 C1570 1.383 . S
C1565 C1561 1.495 . S
C1565 H1571 0.959 . S
C1565 H1572 0.961 . S
C1565 H1573 0.960 . S
C1566 C1564 1.381 . S
C1566 C1567 1.394 . S
C1566 H1574 0.930 . S
C1567 C1566 1.394 . S
C1567 C1568 1.383 1_554 S
C1567 H1575 0.929 . S
C1568 C1567 1.383 1_556 S
C1568 C1569 1.377 . S
C1569 H1553 0.930 . S
C1569 C1568 1.377 . S
C1569 C1570 1.379 1_556 S
C1570 H1554 0.931 . S
C1570 C1564 1.383 . S
C1570 C1569 1.379 1_554 S
H1571 C1565 0.959 . S
H1572 C1565 0.961 . S
H1573 C1565 0.960 . S
H1574 C1566 0.930 . S
H1575 C1567 0.929 . S
H1576 C1584 0.929 . S
H1577 C1586 0.930 . S
H1578 C1588 0.930 . S
H1579 C1591 0.929 . S
H1580 C1594 0.930 . S
H1581 C1596 0.960 . S
H1582 C1596 0.960 . S
H1583 C1596 0.960 . S
C1584 H1576 0.929 . S
C1584 C1585 1.377 . S
C1584 C1586 1.384 . S
C1585 C1584 1.377 . S
C1585 C1591 1.390 . S
C1586 H1577 0.930 . S
C1586 C1584 1.384 . S
C1586 C1587 1.372 . S
C1587 C1586 1.372 . S
C1587 C1588 1.400 . S
C1587 C1592 1.490 . S
C1588 H1578 0.930 . S
C1588 C1587 1.400 . S
C1588 C1591 1.386 . S
H1589 C1605 0.930 . S
H1590 C1606 0.931 1_655 S
C1591 H1579 0.929 . S
C1591 C1585 1.390 . S
C1591 C1588 1.386 . S
C1592 C1587 1.490 . S
C1592 C1594 1.395 . S
C1592 C1595 1.403 . S
H1593 C1599 0.930 . S
C1594 H1580 0.930 . S
C1594 C1592 1.395 . S
C1594 C1597 1.403 . S
C1595 C1592 1.403 . S
C1595 C1596 1.524 . S
C1595 C1599 1.400 . S
C1596 H1581 0.960 . S
C1596 H1582 0.960 . S
C1596 H1583 0.960 . S
C1596 C1595 1.524 . S
C1597 C1594 1.403 . S
C1597 C1598 1.392 . S
C1597 C1601 1.495 1_655 S
C1598 C1597 1.392 . S
C1598 C1599 1.385 . S
C1598 C1600 1.478 1_655 S
C1599 H1593 0.930 . S
C1599 C1595 1.400 . S
C1599 C1598 1.385 . S
C1600 C1598 1.478 1_455 S
C1600 C1602 1.381 . S
C1600 C1606 1.383 . S
C1601 C1597 1.495 1_455 S
C1601 H1607 0.950 1_455 S
C1601 H1608 0.949 1_455 S
C1601 H1609 0.960 . S
C1602 C1600 1.381 . S
C1602 C1603 1.394 . S
C1602 H1610 0.930 . S
C1603 C1602 1.394 . S
C1603 C1604 1.383 . S
C1603 H1611 0.929 . S
C1604 C1603 1.383 . S
C1604 C1605 1.377 . S
C1605 H1589 0.930 . S
C1605 C1604 1.377 . S
C1605 C1606 1.379 . S
C1606 H1590 0.931 1_455 S
C1606 C1600 1.383 . S
C1606 C1605 1.379 . S
H1607 C1601 0.950 1_655 S
H1608 C1601 0.949 1_655 S
H1609 C1601 0.960 . S
H1610 C1602 0.930 . S
H1611 C1603 0.929 . S
H1612 C1620 0.929 . S
H1613 C1622 0.930 . S
H1614 C1624 0.930 . S
H1615 C1627 0.929 . S
H1616 C1630 0.930 . S
H1617 C1632 0.960 . S
H1618 C1632 0.960 . S
H1619 C1632 0.960 . S
C1620 H1612 0.929 . S
C1620 C1621 1.377 . S
C1620 C1622 1.384 . S
C1621 C1620 1.377 . S
C1621 C1627 1.390 . S
C1622 H1613 0.930 . S
C1622 C1620 1.384 . S
C1622 C1623 1.372 . S
C1623 C1622 1.372 . S
C1623 C1624 1.400 . S
C1623 C1628 1.490 . S
C1624 H1614 0.930 . S
C1624 C1623 1.400 . S
C1624 C1627 1.386 . S
H1625 C1641 0.930 . S
H1626 C1642 0.931 . S
C1627 H1615 0.929 . S
C1627 C1621 1.390 . S
C1627 C1624 1.386 . S
C1628 C1623 1.490 . S
C1628 C1630 1.395 . S
C1628 C1631 1.403 . S
H1629 C1635 0.930 . S
C1630 H1616 0.930 . S
C1630 C1628 1.395 . S
C1630 C1633 1.403 . S
C1631 C1628 1.403 . S
C1631 C1632 1.524 . S
C1631 C1635 1.400 . S
C1632 H1617 0.960 . S
C1632 H1618 0.960 . S
C1632 H1619 0.960 . S
C1632 C1631 1.524 . S
C1633 C1630 1.403 . S
C1633 C1634 1.392 . S
C1633 C1637 1.495 . S
C1634 C1633 1.392 . S
C1634 C1635 1.385 . S
C1634 C1636 1.478 . S
C1635 H1629 0.930 . S
C1635 C1631 1.400 . S
C1635 C1634 1.385 . S
C1636 C1634 1.478 . S
C1636 C1638 1.381 . S
C1636 C1642 1.383 . S
C1637 C1633 1.495 . S
C1637 H1643 0.959 . S
C1637 H1644 0.961 . S
C1637 H1645 0.960 . S
C1638 C1636 1.381 . S
C1638 C1639 1.394 . S
C1638 H1646 0.930 . S
C1639 C1638 1.394 . S
C1639 C1640 1.383 . S
C1639 H1647 0.929 . S
C1640 C1639 1.383 . S
C1640 C1641 1.377 . S
C1641 H1625 0.930 . S
C1641 C1640 1.377 . S
C1641 C1642 1.379 . S
C1642 H1626 0.931 . S
C1642 C1636 1.383 . S
C1642 C1641 1.379 . S
H1643 C1637 0.959 . S
H1644 C1637 0.961 . S
H1645 C1637 0.960 . S
H1646 C1638 0.930 . S
H1647 C1639 0.929 . S
H1648 C1656 0.929 . S
H1649 C1658 0.930 . S
H1650 C1660 0.930 . S
H1651 C1663 0.929 . S
H1652 C1666 0.930 . S
H1653 C1668 0.960 . S
H1654 C1668 0.960 . S
H1655 C1668 0.960 . S
C1656 H1648 0.929 . S
C1656 C1657 1.377 . S
C1656 C1658 1.384 . S
C1657 C1656 1.377 . S
C1657 C1663 1.390 . S
C1658 H1649 0.930 . S
C1658 C1656 1.384 . S
C1658 C1659 1.372 . S
C1659 C1658 1.372 . S
C1659 C1660 1.400 . S
C1659 C1664 1.490 . S
C1660 H1650 0.930 . S
C1660 C1659 1.400 . S
C1660 C1663 1.386 . S
H1661 C1677 0.930 . S
H1662 C1678 0.931 . S
C1663 H1651 0.929 . S
C1663 C1657 1.390 . S
C1663 C1660 1.386 . S
C1664 C1659 1.490 . S
C1664 C1666 1.395 . S
C1664 C1667 1.403 . S
H1665 C1671 0.930 . S
C1666 H1652 0.930 . S
C1666 C1664 1.395 . S
C1666 C1669 1.403 . S
C1667 C1664 1.403 . S
C1667 C1668 1.524 . S
C1667 C1671 1.400 . S
C1668 H1653 0.960 . S
C1668 H1654 0.960 . S
C1668 H1655 0.960 . S
C1668 C1667 1.524 . S
C1669 C1666 1.403 . S
C1669 C1670 1.392 . S
C1669 C1673 1.495 . S
C1670 C1669 1.392 . S
C1670 C1671 1.385 . S
C1670 C1672 1.478 . S
C1671 H1665 0.930 . S
C1671 C1667 1.400 . S
C1671 C1670 1.385 . S
C1672 C1670 1.478 . S
C1672 C1674 1.381 . S
C1672 C1678 1.383 . S
C1673 C1669 1.495 . S
C1673 H1679 0.959 . S
C1673 H1680 0.961 . S
C1673 H1681 0.960 . S
C1674 C1672 1.381 . S
C1674 C1675 1.394 . S
C1674 H1682 0.930 . S
C1675 C1674 1.394 . S
C1675 C1676 1.383 . S
C1675 H1683 0.929 . S
C1676 C1675 1.383 . S
C1676 C1677 1.377 . S
C1677 H1661 0.930 . S
C1677 C1676 1.377 . S
C1677 C1678 1.379 . S
C1678 H1662 0.931 . S
C1678 C1672 1.383 . S
C1678 C1677 1.379 . S
H1679 C1673 0.959 . S
H1680 C1673 0.961 . S
H1681 C1673 0.960 . S
H1682 C1674 0.930 . S
H1683 C1675 0.929 . S
H1684 C1692 0.929 . S
H1685 C1694 0.930 . S
H1686 C1696 0.930 . S
H1687 C1699 0.929 . S
H1688 C1702 0.930 . S
H1689 C1704 0.960 . S
H1690 C1704 0.960 . S
H1691 C1704 0.960 . S
C1692 H1684 0.929 . S
C1692 C1693 1.377 . S
C1692 C1694 1.384 . S
C1693 C1692 1.377 . S
C1693 C1699 1.390 . S
C1694 H1685 0.930 . S
C1694 C1692 1.384 . S
C1694 C1695 1.372 . S
C1695 C1694 1.372 . S
C1695 C1696 1.400 . S
C1695 C1700 1.490 . S
C1696 H1686 0.930 . S
C1696 C1695 1.400 . S
C1696 C1699 1.386 . S
H1697 C1713 0.930 . S
H1698 C1714 0.931 . S
C1699 H1687 0.929 . S
C1699 C1693 1.390 . S
C1699 C1696 1.386 . S
C1700 C1695 1.490 . S
C1700 C1702 1.395 . S
C1700 C1703 1.403 . S
H1701 C1707 0.930 . S
C1702 H1688 0.930 . S
C1702 C1700 1.395 . S
C1702 C1705 1.403 . S
C1703 C1700 1.403 . S
C1703 C1704 1.524 . S
C1703 C1707 1.400 . S
C1704 H1689 0.960 . S
C1704 H1690 0.960 . S
C1704 H1691 0.960 . S
C1704 C1703 1.524 . S
C1705 C1702 1.403 . S
C1705 C1706 1.392 . S
C1705 C1709 1.495 . S
C1706 C1705 1.392 . S
C1706 C1707 1.385 . S
C1706 C1708 1.478 . S
C1707 H1701 0.930 . S
C1707 C1703 1.400 . S
C1707 C1706 1.385 . S
C1708 C1706 1.478 . S
C1708 C1710 1.381 . S
C1708 C1714 1.383 . S
C1709 C1705 1.495 . S
C1709 H1715 0.959 . S
C1709 H1716 0.961 . S
C1709 H1717 0.960 . S
C1710 C1708 1.381 . S
C1710 C1711 1.394 1_556 S
C1710 H1718 0.930 . S
C1711 C1710 1.394 1_554 S
C1711 C1712 1.383 . S
C1711 H1719 0.929 . S
C1712 C1711 1.383 . S
C1712 C1713 1.377 . S
C1713 H1697 0.930 . S
C1713 C1712 1.377 . S
C1713 C1714 1.379 1_554 S
C1714 H1698 0.931 . S
C1714 C1708 1.383 . S
C1714 C1713 1.379 1_556 S
H1715 C1709 0.959 . S
H1716 C1709 0.961 . S
H1717 C1709 0.960 . S
H1718 C1710 0.930 . S
H1719 C1711 0.929 . S
H1720 C1728 0.929 . S
H1721 C1730 0.930 . S
H1722 C1732 0.930 . S
H1723 C1735 0.929 . S
H1724 C1738 0.930 . S
H1725 C1740 0.960 . S
H1726 C1740 0.960 1_455 S
H1727 C1740 0.960 1_455 S
C1728 H1720 0.929 . S
C1728 C1729 1.377 . S
C1728 C1730 1.384 . S
C1729 C1728 1.377 . S
C1729 C1735 1.390 . S
C1730 H1721 0.930 . S
C1730 C1728 1.384 . S
C1730 C1731 1.372 . S
C1731 C1730 1.372 . S
C1731 C1732 1.400 . S
C1731 C1736 1.490 . S
C1732 H1722 0.930 . S
C1732 C1731 1.400 . S
C1732 C1735 1.386 . S
H1733 C1749 0.930 . S
H1734 C1750 0.931 . S
C1735 H1723 0.929 . S
C1735 C1729 1.390 . S
C1735 C1732 1.386 . S
C1736 C1731 1.490 . S
C1736 C1738 1.395 . S
C1736 C1739 1.403 . S
H1737 C1743 0.993 . S
C1738 H1724 0.930 . S
C1738 C1736 1.395 . S
C1738 C1741 1.403 . S
C1739 C1736 1.403 . S
C1739 C1740 1.524 1_455 S
C1739 C1743 1.368 1_455 S
C1740 H1725 0.960 . S
C1740 H1726 0.960 1_655 S
C1740 H1727 0.960 1_655 S
C1740 C1739 1.524 1_655 S
C1741 C1738 1.403 . S
C1741 C1742 1.392 . S
C1741 C1745 1.495 . S
C1742 C1741 1.392 . S
C1742 C1743 1.360 1_455 S
C1742 C1744 1.478 1_455 S
C1743 H1737 0.993 . S
C1743 C1739 1.368 1_655 S
C1743 C1742 1.360 1_655 S
C1744 C1742 1.478 1_655 S
C1744 C1746 1.381 . S
C1744 C1750 1.383 . S
C1745 C1741 1.495 . S
C1745 H1751 0.959 . S
C1745 H1752 0.961 . S
C1745 H1753 0.960 . S
C1746 C1744 1.381 . S
C1746 C1747 1.394 . S
C1746 H1754 0.930 1_655 S
C1747 C1746 1.394 . S
C1747 C1748 1.383 . S
C1747 H1755 0.929 . S
C1748 C1747 1.383 . S
C1748 C1749 1.377 . S
C1749 H1733 0.930 . S
C1749 C1748 1.377 . S
C1749 C1750 1.379 . S
C1750 H1734 0.931 . S
C1750 C1744 1.383 . S
C1750 C1749 1.379 . S
H1751 C1745 0.959 . S
H1752 C1745 0.961 . S
H1753 C1745 0.960 . S
H1754 C1746 0.930 1_455 S
H1755 C1747 0.929 . S
H1756 C1764 0.929 . S
H1757 C1766 0.930 . S
H1758 C1768 0.930 . S
H1759 C1771 0.929 . S
H1760 C1774 0.930 . S
H1761 C1776 0.960 . S
H1762 C1776 0.960 . S
H1763 C1776 0.960 . S
C1764 H1756 0.929 . S
C1764 C1765 1.377 . S
C1764 C1766 1.384 . S
C1765 C1764 1.377 . S
C1765 C1771 1.390 . S
C1766 H1757 0.930 . S
C1766 C1764 1.384 . S
C1766 C1767 1.372 . S
C1767 C1766 1.372 . S
C1767 C1768 1.400 . S
C1767 C1772 1.490 . S
C1768 H1758 0.930 . S
C1768 C1767 1.400 . S
C1768 C1771 1.386 . S
H1769 C1785 0.930 . S
H1770 C1786 0.931 . S
C1771 H1759 0.929 . S
C1771 C1765 1.390 . S
C1771 C1768 1.386 . S
C1772 C1767 1.490 . S
C1772 C1774 1.395 . S
C1772 C1775 1.403 . S
H1773 C1779 0.930 . S
C1774 H1760 0.930 . S
C1774 C1772 1.395 . S
C1774 C1777 1.403 . S
C1775 C1772 1.403 . S
C1775 C1776 1.524 . S
C1775 C1779 1.400 . S
C1776 H1761 0.960 . S
C1776 H1762 0.960 . S
C1776 H1763 0.960 . S
C1776 C1775 1.524 . S
C1777 C1774 1.403 . S
C1777 C1778 1.392 . S
C1777 C1781 1.495 . S
C1778 C1777 1.392 . S
C1778 C1779 1.385 . S
C1778 C1780 1.478 . S
C1779 H1773 0.930 . S
C1779 C1775 1.400 . S
C1779 C1778 1.385 . S
C1780 C1778 1.478 . S
C1780 C1782 1.381 . S
C1780 C1786 1.383 . S
C1781 C1777 1.495 . S
C1781 H1787 0.959 . S
C1781 H1788 0.961 . S
C1781 H1789 0.960 . S
C1782 C1780 1.381 . S
C1782 C1783 1.394 . S
C1782 H1790 0.930 . S
C1783 C1782 1.394 . S
C1783 C1784 1.383 . S
C1783 H1791 0.929 . S
C1784 C1783 1.383 . S
C1784 C1785 1.377 . S
C1785 H1769 0.930 . S
C1785 C1784 1.377 . S
C1785 C1786 1.379 . S
C1786 H1770 0.931 . S
C1786 C1780 1.383 . S
C1786 C1785 1.379 . S
H1787 C1781 0.959 . S
H1788 C1781 0.961 . S
H1789 C1781 0.960 . S
H1790 C1782 0.930 . S
H1791 C1783 0.929 . S
H1792 C1800 0.929 . S
H1793 C1802 0.930 1_455 S
H1794 C1804 0.930 . S
H1795 C1807 0.929 . S
H1796 C1810 0.930 1_655 S
H1797 C1812 0.960 . S
H1798 C1812 0.960 . S
H1799 C1812 0.960 . S
C1800 H1792 0.929 . S
C1800 C1801 1.377 . S
C1800 C1802 1.384 . S
C1801 C1800 1.377 . S
C1801 C1807 1.390 . S
C1802 H1793 0.930 1_655 S
C1802 C1800 1.384 . S
C1802 C1803 1.372 . S
C1803 C1802 1.372 . S
C1803 C1804 1.400 . S
C1803 C1808 1.490 1_655 S
C1804 H1794 0.930 . S
C1804 C1803 1.400 . S
C1804 C1807 1.386 . S
H1805 C1821 0.930 . S
H1806 C1822 0.931 . S
C1807 H1795 0.929 . S
C1807 C1801 1.390 . S
C1807 C1804 1.386 . S
C1808 C1803 1.490 1_455 S
C1808 C1810 1.395 . S
C1808 C1811 1.403 . S
H1809 C1815 0.930 . S
C1810 H1796 0.930 1_455 S
C1810 C1808 1.395 . S
C1810 C1813 1.403 . S
C1811 C1808 1.403 . S
C1811 C1812 1.524 . S
C1811 C1815 1.400 . S
C1812 H1797 0.960 . S
C1812 H1798 0.960 . S
C1812 H1799 0.960 . S
C1812 C1811 1.524 . S
C1813 C1810 1.403 . S
C1813 C1814 1.392 . S
C1813 C1817 1.495 . S
C1814 C1813 1.392 . S
C1814 C1815 1.385 . S
C1814 C1816 1.478 . S
C1815 H1809 0.930 . S
C1815 C1811 1.400 . S
C1815 C1814 1.385 . S
C1816 C1814 1.478 . S
C1816 C1818 1.381 . S
C1816 C1822 1.383 . S
C1817 C1813 1.495 . S
C1817 H1823 0.959 . S
C1817 H1824 0.961 . S
C1817 H1825 0.960 . S
C1818 C1816 1.381 . S
C1818 C1819 1.394 . S
C1818 H1826 0.930 . S
C1819 C1818 1.394 . S
C1819 C1820 1.383 . S
C1819 H1827 0.929 . S
C1820 C1819 1.383 . S
C1820 C1821 1.377 . S
C1821 H1805 0.930 . S
C1821 C1820 1.377 . S
C1821 C1822 1.379 . S
C1822 H1806 0.931 . S
C1822 C1816 1.383 . S
C1822 C1821 1.379 . S
H1823 C1817 0.959 . S
H1824 C1817 0.961 . S
H1825 C1817 0.960 . S
H1826 C1818 0.930 . S
H1827 C1819 0.929 . S
H1828 C1836 0.929 . S
H1829 C1838 0.930 . S
H1830 C1840 0.930 . S
H1831 C1843 0.929 . S
H1832 C1846 0.930 . S
H1833 C1848 0.960 . S
H1834 C1848 0.960 . S
H1835 C1848 0.960 . S
C1836 H1828 0.929 . S
C1836 C1837 1.377 . S
C1836 C1838 1.384 . S
C1837 C1836 1.377 . S
C1837 C1843 1.390 . S
C1838 H1829 0.930 . S
C1838 C1836 1.384 . S
C1838 C1839 1.372 . S
C1839 C1838 1.372 . S
C1839 C1840 1.400 . S
C1839 C1844 1.490 . S
C1840 H1830 0.930 . S
C1840 C1839 1.400 . S
C1840 C1843 1.386 . S
H1841 C1857 0.930 . S
H1842 C1858 0.931 . S
C1843 H1831 0.929 . S
C1843 C1837 1.390 . S
C1843 C1840 1.386 . S
C1844 C1839 1.490 . S
C1844 C1846 1.395 . S
C1844 C1847 1.403 . S
H1845 C1851 0.930 . S
C1846 H1832 0.930 . S
C1846 C1844 1.395 . S
C1846 C1849 1.403 . S
C1847 C1844 1.403 . S
C1847 C1848 1.524 . S
C1847 C1851 1.400 . S
C1848 H1833 0.960 . S
C1848 H1834 0.960 . S
C1848 H1835 0.960 . S
C1848 C1847 1.524 . S
C1849 C1846 1.403 . S
C1849 C1850 1.392 . S
C1849 C1853 1.495 . S
C1850 C1849 1.392 . S
C1850 C1851 1.385 . S
C1850 C1852 1.478 . S
C1851 H1845 0.930 . S
C1851 C1847 1.400 . S
C1851 C1850 1.385 . S
C1852 C1850 1.478 . S
C1852 C1854 1.381 . S
C1852 C1858 1.383 . S
C1853 C1849 1.495 . S
C1853 H1859 0.959 . S
C1853 H1860 0.961 . S
C1853 H1861 0.960 . S
C1854 C1852 1.381 . S
C1854 C1855 1.394 . S
C1854 H1862 0.930 . S
C1855 C1854 1.394 . S
C1855 C1856 1.383 . S
C1855 H1863 0.929 . S
C1856 C1855 1.383 . S
C1856 C1857 1.377 . S
C1857 H1841 0.930 . S
C1857 C1856 1.377 . S
C1857 C1858 1.379 . S
C1858 H1842 0.931 . S
C1858 C1852 1.383 . S
C1858 C1857 1.379 . S
H1859 C1853 0.959 . S
H1860 C1853 0.961 . S
H1861 C1853 0.960 . S
H1862 C1854 0.930 . S
H1863 C1855 0.929 . S
H1864 C1872 0.929 . S
H1865 C1874 0.930 . S
H1866 C1876 0.930 . S
H1867 C1879 0.929 . S
H1868 C1882 0.930 . S
H1869 C1884 0.960 . S
H1870 C1884 0.960 . S
H1871 C1884 0.960 . S
C1872 H1864 0.929 . S
C1872 C1873 1.377 . S
C1872 C1874 1.384 . S
C1873 C1872 1.377 . S
C1873 C1879 1.390 . S
C1874 H1865 0.930 . S
C1874 C1872 1.384 . S
C1874 C1875 1.372 . S
C1875 C1874 1.372 . S
C1875 C1876 1.400 . S
C1875 C1880 1.490 . S
C1876 H1866 0.930 . S
C1876 C1875 1.400 . S
C1876 C1879 1.386 . S
H1877 C1893 0.930 . S
H1878 C1894 0.931 . S
C1879 H1867 0.929 . S
C1879 C1873 1.390 . S
C1879 C1876 1.386 . S
C1880 C1875 1.490 . S
C1880 C1882 1.395 . S
C1880 C1883 1.403 . S
H1881 C1887 0.930 . S
C1882 H1868 0.930 . S
C1882 C1880 1.395 . S
C1882 C1885 1.403 . S
C1883 C1880 1.403 . S
C1883 C1884 1.524 . S
C1883 C1887 1.400 . S
C1884 H1869 0.960 . S
C1884 H1870 0.960 . S
C1884 H1871 0.960 . S
C1884 C1883 1.524 . S
C1885 C1882 1.403 . S
C1885 C1886 1.392 . S
C1885 C1889 1.495 . S
C1886 C1885 1.392 . S
C1886 C1887 1.385 . S
C1886 C1888 1.478 . S
C1887 H1881 0.930 . S
C1887 C1883 1.400 . S
C1887 C1886 1.385 . S
C1888 C1886 1.478 . S
C1888 C1890 1.381 . S
C1888 C1894 1.383 . S
C1889 C1885 1.495 . S
C1889 H1895 0.959 . S
C1889 H1896 0.961 . S
C1889 H1897 0.960 . S
C1890 C1888 1.381 . S
C1890 C1891 1.394 . S
C1890 H1898 0.930 . S
C1891 C1890 1.394 . S
C1891 C1892 1.383 . S
C1891 H1899 0.929 . S
C1892 C1891 1.383 . S
C1892 C1893 1.377 . S
C1893 H1877 0.930 . S
C1893 C1892 1.377 . S
C1893 C1894 1.379 . S
C1894 H1878 0.931 . S
C1894 C1888 1.383 . S
C1894 C1893 1.379 . S
H1895 C1889 0.959 . S
H1896 C1889 0.961 . S
H1897 C1889 0.960 . S
H1898 C1890 0.930 . S
H1899 C1891 0.929 . S
H1900 C1908 0.929 . S
H1901 C1910 0.930 . S
H1902 C1912 0.930 . S
H1903 C1915 0.929 . S
H1904 C1918 0.930 . S
H1905 C1920 0.960 . S
H1906 C1920 0.960 . S
H1907 C1920 0.960 . S
C1908 H1900 0.929 . S
C1908 C1909 1.377 1_554 S
C1908 C1910 1.384 . S
C1909 C1908 1.377 1_556 S
C1909 C1915 1.390 . S
C1910 H1901 0.930 . S
C1910 C1908 1.384 . S
C1910 C1911 1.372 . S
C1911 C1910 1.372 . S
C1911 C1912 1.400 . S
C1911 C1916 1.490 . S
C1912 H1902 0.930 . S
C1912 C1911 1.400 . S
C1912 C1915 1.386 1_554 S
H1913 C1929 0.930 . S
H1914 C1930 0.931 . S
C1915 H1903 0.929 . S
C1915 C1909 1.390 . S
C1915 C1912 1.386 1_556 S
C1916 C1911 1.490 . S
C1916 C1918 1.395 . S
C1916 C1919 1.403 . S
H1917 C1923 0.930 . S
C1918 H1904 0.930 . S
C1918 C1916 1.395 . S
C1918 C1921 1.403 . S
C1919 C1916 1.403 . S
C1919 C1920 1.524 . S
C1919 C1923 1.400 . S
C1920 H1905 0.960 . S
C1920 H1906 0.960 . S
C1920 H1907 0.960 . S
C1920 C1919 1.524 . S
C1921 C1918 1.403 . S
C1921 C1922 1.392 . S
C1921 C1925 1.495 . S
C1922 C1921 1.392 . S
C1922 C1923 1.385 . S
C1922 C1924 1.478 . S
C1923 H1917 0.930 . S
C1923 C1919 1.400 . S
C1923 C1922 1.385 . S
C1924 C1922 1.478 . S
C1924 C1926 1.381 . S
C1924 C1930 1.383 . S
C1925 C1921 1.495 . S
C1925 H1931 0.959 . S
C1925 H1932 0.961 . S
C1925 H1933 0.960 . S
C1926 C1924 1.381 . S
C1926 C1927 1.394 . S
C1926 H1934 0.930 . S
C1927 C1926 1.394 . S
C1927 C1928 1.383 . S
C1927 H1935 0.929 . S
C1928 C1927 1.383 . S
C1928 C1929 1.377 . S
C1929 H1913 0.930 . S
C1929 C1928 1.377 . S
C1929 C1930 1.379 . S
C1930 H1914 0.931 . S
C1930 C1924 1.383 . S
C1930 C1929 1.379 . S
H1931 C1925 0.959 . S
H1932 C1925 0.961 . S
H1933 C1925 0.960 . S
H1934 C1926 0.930 . S
H1935 C1927 0.929 . S
H1936 C1944 0.929 . S
H1937 C1946 0.930 . S
H1938 C1948 0.930 1_655 S
H1939 C1951 0.929 . S
H1940 C1954 0.930 . S
H1941 C1956 0.960 . S
H1942 C1956 0.960 . S
H1943 C1956 0.960 . S
C1944 H1936 0.929 . S
C1944 C1945 1.377 . S
C1944 C1946 1.384 . S
C1945 C1944 1.377 . S
C1945 C1951 1.390 . S
C1946 H1937 0.930 . S
C1946 C1944 1.384 . S
C1946 C1947 1.372 . S
C1947 C1946 1.372 . S
C1947 C1948 1.400 . S
C1947 C1952 1.490 1_455 S
C1948 H1938 0.930 1_455 S
C1948 C1947 1.400 . S
C1948 C1951 1.386 . S
H1949 C1965 0.930 . S
H1950 C1966 0.931 . S
C1951 H1939 0.929 . S
C1951 C1945 1.390 . S
C1951 C1948 1.386 . S
C1952 C1947 1.490 1_655 S
C1952 C1954 1.395 1_655 S
C1952 C1955 1.403 . S
H1953 C1959 0.930 . S
C1954 H1940 0.930 . S
C1954 C1952 1.395 1_455 S
C1954 C1957 1.403 1_455 S
C1955 C1952 1.403 . S
C1955 C1956 1.524 . S
C1955 C1959 1.400 . S
C1956 H1941 0.960 . S
C1956 H1942 0.960 . S
C1956 H1943 0.960 . S
C1956 C1955 1.524 . S
C1957 C1954 1.403 1_655 S
C1957 C1958 1.392 . S
C1957 C1961 1.495 . S
C1958 C1957 1.392 . S
C1958 C1959 1.385 . S
C1958 C1960 1.478 . S
C1959 H1953 0.930 . S
C1959 C1955 1.400 . S
C1959 C1958 1.385 . S
C1960 C1958 1.478 . S
C1960 C1962 1.381 . S
C1960 C1966 1.383 . S
C1961 C1957 1.495 . S
C1961 H1967 0.959 1_655 S
C1961 H1968 0.961 . S
C1961 H1969 0.960 . S
C1962 C1960 1.381 . S
C1962 C1963 1.394 . S
C1962 H1970 0.930 . S
C1963 C1962 1.394 . S
C1963 C1964 1.383 . S
C1963 H1971 0.929 . S
C1964 C1963 1.383 . S
C1964 C1965 1.377 . S
C1965 H1949 0.930 . S
C1965 C1964 1.377 . S
C1965 C1966 1.379 . S
C1966 H1950 0.931 . S
C1966 C1960 1.383 . S
C1966 C1965 1.379 . S
H1967 C1961 0.959 1_455 S
H1968 C1961 0.961 . S
H1969 C1961 0.960 . S
H1970 C1962 0.930 . S
H1971 C1963 0.929 . S
H1972 C1980 0.929 . S
H1973 C1982 0.930 . S
H1974 C1984 0.930 . S
H1975 C1987 0.929 . S
H1976 C1990 0.930 . S
H1977 C1992 0.960 . S
H1978 C1992 0.960 . S
H1979 C1992 0.960 . S
C1980 H1972 0.929 . S
C1980 C1981 1.377 . S
C1980 C1982 1.384 . S
C1981 C1980 1.377 . S
C1981 C1987 1.390 . S
C1982 H1973 0.930 . S
C1982 C1980 1.384 . S
C1982 C1983 1.372 . S
C1983 C1982 1.372 . S
C1983 C1984 1.400 . S
C1983 C1988 1.490 . S
C1984 H1974 0.930 . S
C1984 C1983 1.400 . S
C1984 C1987 1.386 . S
H1985 C2001 0.930 . S
H1986 C2002 0.931 . S
C1987 H1975 0.929 . S
C1987 C1981 1.390 . S
C1987 C1984 1.386 . S
C1988 C1983 1.490 . S
C1988 C1990 1.395 . S
C1988 C1991 1.403 . S
H1989 C1995 0.930 . S
C1990 H1976 0.930 . S
C1990 C1988 1.395 . S
C1990 C1993 1.403 . S
C1991 C1988 1.403 . S
C1991 C1992 1.524 . S
C1991 C1995 1.400 . S
C1992 H1977 0.960 . S
C1992 H1978 0.960 . S
C1992 H1979 0.960 . S
C1992 C1991 1.524 . S
C1993 C1990 1.403 . S
C1993 C1994 1.392 . S
C1993 C1997 1.495 . S
C1994 C1993 1.392 . S
C1994 C1995 1.385 . S
C1994 C1996 1.478 . S
C1995 H1989 0.930 . S
C1995 C1991 1.400 . S
C1995 C1994 1.385 . S
C1996 C1994 1.478 . S
C1996 C1998 1.381 . S
C1996 C2002 1.383 . S
C1997 C1993 1.495 . S
C1997 H2003 0.959 . S
C1997 H2004 0.961 . S
C1997 H2005 0.960 . S
C1998 C1996 1.381 . S
C1998 C1999 1.394 . S
C1998 H2006 0.930 . S
C1999 C1998 1.394 . S
C1999 C2000 1.383 . S
C1999 H2007 0.929 . S
C2000 C1999 1.383 . S
C2000 C2001 1.377 . S
C2001 H1985 0.930 . S
C2001 C2000 1.377 . S
C2001 C2002 1.379 . S
C2002 H1986 0.931 . S
C2002 C1996 1.383 . S
C2002 C2001 1.379 . S
H2003 C1997 0.959 . S
H2004 C1997 0.961 . S
H2005 C1997 0.960 . S
H2006 C1998 0.930 . S
H2007 C1999 0.929 . S
H2008 C2016 0.929 . S
H2009 C2018 0.930 . S
H2010 C2020 0.930 . S
H2011 C2023 0.929 . S
H2012 C2026 0.930 . S
H2013 C2028 0.960 . S
H2014 C2028 0.960 . S
H2015 C2028 0.960 . S
C2016 H2008 0.929 . S
C2016 C2017 1.377 . S
C2016 C2018 1.384 . S
C2017 C2016 1.377 . S
C2017 C2023 1.390 . S
C2018 H2009 0.930 . S
C2018 C2016 1.384 . S
C2018 C2019 1.372 . S
C2019 C2018 1.372 . S
C2019 C2020 1.400 . S
C2019 C2024 1.490 . S
C2020 H2010 0.930 . S
C2020 C2019 1.400 . S
C2020 C2023 1.386 . S
H2021 C2037 0.930 . S
H2022 C2038 0.931 . S
C2023 H2011 0.929 . S
C2023 C2017 1.390 . S
C2023 C2020 1.386 . S
C2024 C2019 1.490 . S
C2024 C2026 1.395 . S
C2024 C2027 1.403 . S
H2025 C2031 0.930 . S
C2026 H2012 0.930 . S
C2026 C2024 1.395 . S
C2026 C2029 1.403 . S
C2027 C2024 1.403 . S
C2027 C2028 1.524 . S
C2027 C2031 1.400 . S
C2028 H2013 0.960 . S
C2028 H2014 0.960 . S
C2028 H2015 0.960 . S
C2028 C2027 1.524 . S
C2029 C2026 1.403 . S
C2029 C2030 1.392 . S
C2029 C2033 1.495 . S
C2030 C2029 1.392 . S
C2030 C2031 1.385 . S
C2030 C2032 1.478 . S
C2031 H2025 0.930 . S
C2031 C2027 1.400 . S
C2031 C2030 1.385 . S
C2032 C2030 1.478 . S
C2032 C2034 1.381 . S
C2032 C2038 1.383 . S
C2033 C2029 1.495 . S
C2033 H2039 0.959 . S
C2033 H2040 0.961 . S
C2033 H2041 0.960 . S
C2034 C2032 1.381 . S
C2034 C2035 1.394 . S
C2034 H2042 0.930 . S
C2035 C2034 1.394 . S
C2035 C2036 1.383 . S
C2035 H2043 0.929 . S
C2036 C2035 1.383 . S
C2036 C2037 1.377 . S
C2037 H2021 0.930 . S
C2037 C2036 1.377 . S
C2037 C2038 1.379 . S
C2038 H2022 0.931 . S
C2038 C2032 1.383 . S
C2038 C2037 1.379 . S
H2039 C2033 0.959 . S
H2040 C2033 0.961 . S
H2041 C2033 0.960 . S
H2042 C2034 0.930 . S
H2043 C2035 0.929 . S
H2044 C2052 0.933 . S
H2045 C2054 0.930 . S
H2046 C2056 0.930 . S
H2047 C2059 0.929 1_554 S
H2048 C2062 0.930 . S
H2049 C2064 0.960 . S
H2050 C2064 0.960 . S
H2051 C2064 0.960 . S
C2052 H2044 0.933 . S
C2052 C2053 1.380 . S
C2052 C2054 1.378 1_554 S
C2053 C2052 1.380 . S
C2053 C2059 1.390 1_554 S
C2054 H2045 0.930 . S
C2054 C2052 1.378 1_556 S
C2054 C2055 1.372 . S
C2055 C2054 1.372 . S
C2055 C2056 1.400 . S
C2055 C2060 1.490 . S
C2056 H2046 0.930 . S
C2056 C2055 1.400 . S
C2056 C2059 1.386 . S
H2057 C2073 0.930 . S
H2058 C2074 0.931 . S
C2059 H2047 0.929 1_556 S
C2059 C2053 1.390 1_556 S
C2059 C2056 1.386 . S
C2060 C2055 1.490 . S
C2060 C2062 1.395 . S
C2060 C2063 1.403 . S
H2061 C2067 0.930 . S
C2062 H2048 0.930 . S
C2062 C2060 1.395 . S
C2062 C2065 1.403 . S
C2063 C2060 1.403 . S
C2063 C2064 1.524 . S
C2063 C2067 1.400 . S
C2064 H2049 0.960 . S
C2064 H2050 0.960 . S
C2064 H2051 0.960 . S
C2064 C2063 1.524 . S
C2065 C2062 1.403 . S
C2065 C2066 1.392 . S
C2065 C2069 1.495 . S
C2066 C2065 1.392 . S
C2066 C2067 1.385 . S
C2066 C2068 1.478 . S
C2067 H2061 0.930 . S
C2067 C2063 1.400 . S
C2067 C2066 1.385 . S
C2068 C2066 1.478 . S
C2068 C2070 1.381 . S
C2068 C2074 1.383 . S
C2069 C2065 1.495 . S
C2069 H2075 0.959 . S
C2069 H2076 0.961 . S
C2069 H2077 0.960 . S
C2070 C2068 1.381 . S
C2070 C2071 1.394 . S
C2070 H2078 0.930 . S
C2071 C2070 1.394 . S
C2071 C2072 1.383 . S
C2071 H2079 0.929 . S
C2072 C2071 1.383 . S
C2072 C2073 1.377 . S
C2073 H2057 0.930 . S
C2073 C2072 1.377 . S
C2073 C2074 1.379 . S
C2074 H2058 0.931 . S
C2074 C2068 1.383 . S
C2074 C2073 1.379 . S
H2075 C2069 0.959 . S
H2076 C2069 0.961 . S
H2077 C2069 0.960 . S
H2078 C2070 0.930 . S
H2079 C2071 0.929 . S
H2080 C2088 0.929 . S
H2081 C2090 0.930 . S
H2082 C2092 0.930 . S
H2083 C2095 0.929 . S
H2084 C2098 0.930 . S
H2085 C2100 0.960 . S
H2086 C2100 0.960 . S
H2087 C2100 0.960 . S
C2088 H2080 0.929 . S
C2088 C2089 1.377 . S
C2088 C2090 1.384 . S
C2089 C2088 1.377 . S
C2089 C2095 1.390 . S
C2090 H2081 0.930 . S
C2090 C2088 1.384 . S
C2090 C2091 1.372 . S
C2091 C2090 1.372 . S
C2091 C2092 1.400 . S
C2091 C2096 1.490 . S
C2092 H2082 0.930 . S
C2092 C2091 1.400 . S
C2092 C2095 1.386 . S
H2093 C2109 0.930 . S
H2094 C2110 0.931 . S
C2095 H2083 0.929 . S
C2095 C2089 1.390 . S
C2095 C2092 1.386 . S
C2096 C2091 1.490 . S
C2096 C2098 1.395 . S
C2096 C2099 1.403 . S
H2097 C2103 0.930 . S
C2098 H2084 0.930 . S
C2098 C2096 1.395 . S
C2098 C2101 1.403 . S
C2099 C2096 1.403 . S
C2099 C2100 1.524 . S
C2099 C2103 1.400 . S
C2100 H2085 0.960 . S
C2100 H2086 0.960 . S
C2100 H2087 0.960 . S
C2100 C2099 1.524 . S
C2101 C2098 1.403 . S
C2101 C2102 1.392 . S
C2101 C2105 1.495 . S
C2102 C2101 1.392 . S
C2102 C2103 1.385 . S
C2102 C2104 1.478 . S
C2103 H2097 0.930 . S
C2103 C2099 1.400 . S
C2103 C2102 1.385 . S
C2104 C2102 1.478 . S
C2104 C2106 1.381 . S
C2104 C2110 1.383 . S
C2105 C2101 1.495 . S
C2105 H2111 0.959 . S
C2105 H2112 0.961 . S
C2105 H2113 0.960 . S
C2106 C2104 1.381 . S
C2106 C2107 1.394 . S
C2106 H2114 0.930 . S
C2107 C2106 1.394 . S
C2107 C2108 1.383 . S
C2107 H2115 0.929 . S
C2108 C2107 1.383 . S
C2108 C2109 1.377 . S
C2109 H2093 0.930 . S
C2109 C2108 1.377 . S
C2109 C2110 1.379 . S
C2110 H2094 0.931 . S
C2110 C2104 1.383 . S
C2110 C2109 1.379 . S
H2111 C2105 0.959 . S
H2112 C2105 0.961 . S
H2113 C2105 0.960 . S
H2114 C2106 0.930 . S
H2115 C2107 0.929 . S
H2116 C2124 0.929 . S
H2117 C2126 0.930 . S
H2118 C2128 0.930 . S
H2119 C2131 0.929 . S
H2120 C2134 0.930 . S
H2121 C2136 0.960 . S
H2122 C2136 0.960 . S
H2123 C2136 0.960 . S
C2124 H2116 0.929 . S
C2124 C2125 1.377 . S
C2124 C2126 1.384 . S
C2125 C2124 1.377 . S
C2125 C2131 1.390 . S
C2126 H2117 0.930 . S
C2126 C2124 1.384 . S
C2126 C2127 1.372 . S
C2127 C2126 1.372 . S
C2127 C2128 1.400 . S
C2127 C2132 1.490 . S
C2128 H2118 0.930 . S
C2128 C2127 1.400 . S
C2128 C2131 1.386 . S
H2129 C2145 0.930 . S
H2130 C2146 0.931 . S
C2131 H2119 0.929 . S
C2131 C2125 1.390 . S
C2131 C2128 1.386 . S
C2132 C2127 1.490 . S
C2132 C2134 1.395 . S
C2132 C2135 1.403 . S
H2133 C2139 0.930 . S
C2134 H2120 0.930 . S
C2134 C2132 1.395 . S
C2134 C2137 1.403 . S
C2135 C2132 1.403 . S
C2135 C2136 1.524 . S
C2135 C2139 1.400 . S
C2136 H2121 0.960 . S
C2136 H2122 0.960 . S
C2136 H2123 0.960 . S
C2136 C2135 1.524 . S
C2137 C2134 1.403 . S
C2137 C2138 1.392 . S
C2137 C2141 1.495 . S
C2138 C2137 1.392 . S
C2138 C2139 1.385 . S
C2138 C2140 1.478 . S
C2139 H2133 0.930 . S
C2139 C2135 1.400 . S
C2139 C2138 1.385 . S
C2140 C2138 1.478 . S
C2140 C2142 1.381 . S
C2140 C2146 1.383 . S
C2141 C2137 1.495 . S
C2141 H2147 0.959 . S
C2141 H2148 0.961 . S
C2141 H2149 0.960 . S
C2142 C2140 1.381 . S
C2142 C2143 1.394 . S
C2142 H2150 0.930 . S
C2143 C2142 1.394 . S
C2143 C2144 1.383 . S
C2143 H2151 0.929 . S
C2144 C2143 1.383 . S
C2144 C2145 1.377 . S
C2145 H2129 0.930 . S
C2145 C2144 1.377 . S
C2145 C2146 1.379 . S
C2146 H2130 0.931 . S
C2146 C2140 1.383 . S
C2146 C2145 1.379 . S
H2147 C2141 0.959 . S
H2148 C2141 0.961 . S
H2149 C2141 0.960 . S
H2150 C2142 0.930 . S
H2151 C2143 0.929 . S
H2152 C2160 0.929 . S
H2153 C2162 0.930 . S
H2154 C2164 0.930 . S
H2155 C2167 0.929 . S
H2156 C2170 0.930 . S
H2157 C2172 0.960 . S
H2158 C2172 0.960 . S
H2159 C2172 0.960 . S
C2160 H2152 0.929 . S
C2160 C2161 1.377 . S
C2160 C2162 1.384 . S
C2161 C2160 1.377 . S
C2161 C2167 1.390 . S
C2162 H2153 0.930 . S
C2162 C2160 1.384 . S
C2162 C2163 1.372 . S
C2163 C2162 1.372 . S
C2163 C2164 1.400 . S
C2163 C2168 1.490 . S
C2164 H2154 0.930 . S
C2164 C2163 1.400 . S
C2164 C2167 1.386 . S
H2165 C2181 0.930 . S
H2166 C2182 0.931 . S
C2167 H2155 0.929 . S
C2167 C2161 1.390 . S
C2167 C2164 1.386 . S
C2168 C2163 1.490 . S
C2168 C2170 1.395 . S
C2168 C2171 1.403 . S
H2169 C2175 0.930 . S
C2170 H2156 0.930 . S
C2170 C2168 1.395 . S
C2170 C2173 1.403 . S
C2171 C2168 1.403 . S
C2171 C2172 1.524 . S
C2171 C2175 1.400 . S
C2172 H2157 0.960 . S
C2172 H2158 0.960 . S
C2172 H2159 0.960 . S
C2172 C2171 1.524 . S
C2173 C2170 1.403 . S
C2173 C2174 1.392 . S
C2173 C2177 1.495 . S
C2174 C2173 1.392 . S
C2174 C2175 1.385 . S
C2174 C2176 1.478 . S
C2175 H2169 0.930 . S
C2175 C2171 1.400 . S
C2175 C2174 1.385 . S
C2176 C2174 1.478 . S
C2176 C2178 1.381 . S
C2176 C2182 1.383 . S
C2177 C2173 1.495 . S
C2177 H2183 0.959 . S
C2177 H2184 0.961 . S
C2177 H2185 0.960 . S
C2178 C2176 1.381 . S
C2178 C2179 1.394 . S
C2178 H2186 0.930 . S
C2179 C2178 1.394 . S
C2179 C2180 1.383 . S
C2179 H2187 0.929 . S
C2180 C2179 1.383 . S
C2180 C2181 1.377 . S
C2181 H2165 0.930 . S
C2181 C2180 1.377 . S
C2181 C2182 1.379 . S
C2182 H2166 0.931 . S
C2182 C2176 1.383 . S
C2182 C2181 1.379 . S
H2183 C2177 0.959 . S
H2184 C2177 0.961 . S
H2185 C2177 0.960 . S
H2186 C2178 0.930 . S
H2187 C2179 0.929 . S
H2188 C2196 0.929 . S
H2189 C2198 0.930 . S
H2190 C2200 0.930 . S
H2191 C2203 0.929 . S
H2192 C2206 0.930 . S
H2193 C2208 0.960 . S
H2194 C2208 0.960 . S
H2195 C2208 0.960 . S
C2196 H2188 0.929 . S
C2196 C2197 1.377 . S
C2196 C2198 1.384 . S
C2197 C2196 1.377 . S
C2197 C2203 1.390 . S
C2198 H2189 0.930 . S
C2198 C2196 1.384 . S
C2198 C2199 1.372 . S
C2199 C2198 1.372 . S
C2199 C2200 1.400 . S
C2199 C2204 1.490 . S
C2200 H2190 0.930 . S
C2200 C2199 1.400 . S
C2200 C2203 1.386 . S
H2201 C2217 0.930 . S
H2202 C2218 0.931 . S
C2203 H2191 0.929 . S
C2203 C2197 1.390 . S
C2203 C2200 1.386 . S
C2204 C2199 1.490 . S
C2204 C2206 1.395 1_455 S
C2204 C2207 1.403 1_554 S
H2205 C2211 0.930 . S
C2206 H2192 0.930 . S
C2206 C2204 1.395 1_655 S
C2206 C2209 1.403 . S
C2207 C2204 1.403 1_556 S
C2207 C2208 1.524 . S
C2207 C2211 1.400 . S
C2208 H2193 0.960 . S
C2208 H2194 0.960 . S
C2208 H2195 0.960 . S
C2208 C2207 1.524 . S
C2209 C2206 1.403 . S
C2209 C2210 1.392 1_554 S
C2209 C2213 1.495 . S
C2210 C2209 1.392 1_556 S
C2210 C2211 1.385 1_655 S
C2210 C2212 1.478 . S
C2211 H2205 0.930 . S
C2211 C2207 1.400 . S
C2211 C2210 1.385 1_455 S
C2212 C2210 1.478 . S
C2212 C2214 1.381 . S
C2212 C2218 1.383 . S
C2213 C2209 1.495 . S
C2213 H2219 0.959 . S
C2213 H2220 0.961 . S
C2213 H2221 0.960 . S
C2214 C2212 1.381 . S
C2214 C2215 1.394 . S
C2214 H2222 0.930 . S
C2215 C2214 1.394 . S
C2215 C2216 1.383 . S
C2215 H2223 0.929 . S
C2216 C2215 1.383 . S
C2216 C2217 1.377 . S
C2217 H2201 0.930 . S
C2217 C2216 1.377 . S
C2217 C2218 1.379 . S
C2218 H2202 0.931 . S
C2218 C2212 1.383 . S
C2218 C2217 1.379 . S
H2219 C2213 0.959 . S
H2220 C2213 0.961 . S
H2221 C2213 0.960 . S
H2222 C2214 0.930 . S
H2223 C2215 0.929 . S
H2224 C2232 0.929 . S
H2225 C2234 0.930 . S
H2226 C2236 0.930 . S
H2227 C2239 0.929 . S
H2228 C2242 0.930 . S
H2229 C2244 0.960 . S
H2230 C2244 0.960 . S
H2231 C2244 0.960 . S
C2232 H2224 0.929 . S
C2232 C2233 1.377 . S
C2232 C2234 1.384 . S
C2233 C2232 1.377 . S
C2233 C2239 1.390 . S
C2234 H2225 0.930 . S
C2234 C2232 1.384 . S
C2234 C2235 1.372 . S
C2235 C2234 1.372 . S
C2235 C2236 1.400 . S
C2235 C2240 1.490 . S
C2236 H2226 0.930 . S
C2236 C2235 1.400 . S
C2236 C2239 1.386 . S
H2237 C2253 0.930 . S
H2238 C2254 0.931 . S
C2239 H2227 0.929 . S
C2239 C2233 1.390 . S
C2239 C2236 1.386 . S
C2240 C2235 1.490 . S
C2240 C2242 1.395 . S
C2240 C2243 1.403 . S
H2241 C2247 0.930 . S
C2242 H2228 0.930 . S
C2242 C2240 1.395 . S
C2242 C2245 1.403 . S
C2243 C2240 1.403 . S
C2243 C2244 1.524 . S
C2243 C2247 1.400 . S
C2244 H2229 0.960 . S
C2244 H2230 0.960 . S
C2244 H2231 0.960 . S
C2244 C2243 1.524 . S
C2245 C2242 1.403 . S
C2245 C2246 1.392 . S
C2245 C2249 1.495 . S
C2246 C2245 1.392 . S
C2246 C2247 1.385 . S
C2246 C2248 1.478 . S
C2247 H2241 0.930 . S
C2247 C2243 1.400 . S
C2247 C2246 1.385 . S
C2248 C2246 1.478 . S
C2248 C2250 1.381 . S
C2248 C2254 1.383 . S
C2249 C2245 1.495 . S
C2249 H2255 0.959 . S
C2249 H2256 0.961 . S
C2249 H2257 0.960 . S
C2250 C2248 1.381 . S
C2250 C2251 1.394 . S
C2250 H2258 0.930 . S
C2251 C2250 1.394 . S
C2251 C2252 1.383 . S
C2251 H2259 0.929 . S
C2252 C2251 1.383 . S
C2252 C2253 1.377 . S
C2253 H2237 0.930 . S
C2253 C2252 1.377 . S
C2253 C2254 1.379 . S
C2254 H2238 0.931 . S
C2254 C2248 1.383 . S
C2254 C2253 1.379 . S
H2255 C2249 0.959 . S
H2256 C2249 0.961 . S
H2257 C2249 0.960 . S
H2258 C2250 0.930 . S
H2259 C2251 0.929 . S
H2260 C2268 0.929 . S
H2261 C2270 0.930 . S
H2262 C2272 0.930 . S
H2263 C2275 0.929 . S
H2264 C2278 0.930 . S
H2265 C2280 0.960 . S
H2266 C2280 0.960 . S
H2267 C2280 0.960 . S
C2268 H2260 0.929 . S
C2268 C2269 1.377 . S
C2268 C2270 1.384 . S
C2269 C2268 1.377 . S
C2269 C2275 1.390 . S
C2270 H2261 0.930 . S
C2270 C2268 1.384 . S
C2270 C2271 1.372 . S
C2271 C2270 1.372 . S
C2271 C2272 1.400 . S
C2271 C2276 1.490 . S
C2272 H2262 0.930 . S
C2272 C2271 1.400 . S
C2272 C2275 1.386 . S
H2273 C2289 0.930 . S
H2274 C2290 0.931 . S
C2275 H2263 0.929 . S
C2275 C2269 1.390 . S
C2275 C2272 1.386 . S
C2276 C2271 1.490 . S
C2276 C2278 1.395 . S
C2276 C2279 1.403 . S
H2277 C2283 0.930 . S
C2278 H2264 0.930 . S
C2278 C2276 1.395 . S
C2278 C2281 1.403 . S
C2279 C2276 1.403 . S
C2279 C2280 1.524 . S
C2279 C2283 1.400 . S
C2280 H2265 0.960 . S
C2280 H2266 0.960 . S
C2280 H2267 0.960 . S
C2280 C2279 1.524 . S
C2281 C2278 1.403 . S
C2281 C2282 1.392 . S
C2281 C2285 1.495 . S
C2282 C2281 1.392 . S
C2282 C2283 1.385 . S
C2282 C2284 1.478 . S
C2283 H2277 0.930 . S
C2283 C2279 1.400 . S
C2283 C2282 1.385 . S
C2284 C2282 1.478 . S
C2284 C2286 1.381 . S
C2284 C2290 1.383 . S
C2285 C2281 1.495 . S
C2285 H2291 0.959 . S
C2285 H2292 0.961 . S
C2285 H2293 0.960 . S
C2286 C2284 1.381 . S
C2286 C2287 1.394 . S
C2286 H2294 0.930 . S
C2287 C2286 1.394 . S
C2287 C2288 1.383 . S
C2287 H2295 0.929 . S
C2288 C2287 1.383 . S
C2288 C2289 1.377 . S
C2289 H2273 0.930 . S
C2289 C2288 1.377 . S
C2289 C2290 1.379 . S
C2290 H2274 0.931 . S
C2290 C2284 1.383 . S
C2290 C2289 1.379 . S
H2291 C2285 0.959 . S
H2292 C2285 0.961 . S
H2293 C2285 0.960 . S
H2294 C2286 0.930 . S
H2295 C2287 0.929 . S
H2296 C2304 0.929 1_565 S
H2297 C2306 0.992 . S
H2298 C2308 0.930 . S
H2299 C2311 0.929 . S
H2300 C2314 0.929 . S
H2301 C2316 0.960 . S
H2302 C2316 0.960 . S
H2303 C2316 0.960 . S
C2304 H2296 0.929 1_545 S
C2304 C2305 1.377 . S
C2304 C2306 1.364 1_545 S
C2305 C2304 1.377 . S
C2305 C2311 1.390 . S
C2306 H2297 0.992 . S
C2306 C2304 1.364 1_565 S
C2306 C2307 1.332 1_565 S
C2307 C2306 1.332 1_545 S
C2307 C2308 1.400 . S
C2307 C2312 1.490 . S
C2308 H2298 0.930 . S
C2308 C2307 1.400 . S
C2308 C2311 1.386 . S
H2309 C2325 0.930 1_545 S
H2310 C2326 0.931 1_545 S
C2311 H2299 0.929 . S
C2311 C2305 1.390 . S
C2311 C2308 1.386 . S
C2312 C2307 1.490 . S
C2312 C2314 1.393 1_545 S
C2312 C2315 1.403 1_455 S
H2313 C2319 0.930 . S
C2314 H2300 0.929 . S
C2314 C2312 1.393 1_565 S
C2314 C2317 1.405 1_556 S
C2315 C2312 1.403 1_655 S
C2315 C2316 1.524 . S
C2315 C2319 1.400 1_556 S
C2316 H2301 0.960 . S
C2316 H2302 0.960 . S
C2316 H2303 0.960 . S
C2316 C2315 1.524 . S
C2317 C2314 1.405 1_554 S
C2317 C2318 1.392 1_455 S
C2317 C2321 1.495 . S
C2318 C2317 1.392 1_655 S
C2318 C2319 1.385 1_565 S
C2318 C2320 1.478 . S
C2319 H2313 0.930 . S
C2319 C2315 1.400 1_554 S
C2319 C2318 1.385 1_545 S
C2320 C2318 1.478 . S
C2320 C2322 1.381 . S
C2320 C2326 1.383 . S
C2321 C2317 1.495 . S
C2321 H2327 0.959 . S
C2321 H2328 0.961 . S
C2321 H2329 0.960 . S
C2322 C2320 1.381 . S
C2322 C2323 1.394 . S
C2322 H2330 0.930 . S
C2323 C2322 1.394 . S
C2323 C2324 1.383 . S
C2323 H2331 0.929 . S
C2324 C2323 1.383 . S
C2324 C2325 1.377 . S
C2325 H2309 0.930 1_565 S
C2325 C2324 1.377 . S
C2325 C2326 1.379 . S
C2326 H2310 0.931 1_565 S
C2326 C2320 1.383 . S
C2326 C2325 1.379 . S
H2327 C2321 0.959 . S
H2328 C2321 0.961 . S
H2329 C2321 0.960 . S
H2330 C2322 0.930 . S
H2331 C2323 0.929 . S
H2332 C2340 0.929 1_565 S
H2333 C2342 0.930 . S
H2334 C2344 0.930 . S
H2335 C2347 0.929 . S
H2336 C2350 0.930 . S
H2337 C2352 0.960 . S
H2338 C2352 0.960 . S
H2339 C2352 0.960 . S
C2340 H2332 0.929 1_545 S
C2340 C2341 1.377 . S
C2340 C2342 1.384 1_545 S
C2341 C2340 1.377 . S
C2341 C2347 1.390 . S
C2342 H2333 0.930 . S
C2342 C2340 1.384 1_565 S
C2342 C2343 1.372 1_565 S
C2343 C2342 1.372 1_545 S
C2343 C2344 1.400 . S
C2343 C2348 1.490 . S
C2344 H2334 0.930 . S
C2344 C2343 1.400 . S
C2344 C2347 1.386 . S
H2345 C2361 0.930 1_545 S
H2346 C2362 0.904 1_545 S
C2347 H2335 0.929 . S
C2347 C2341 1.390 . S
C2347 C2344 1.386 . S
C2348 C2343 1.490 . S
C2348 C2350 1.395 1_545 S
C2348 C2351 1.403 . S
H2349 C2355 0.930 . S
C2350 H2336 0.930 . S
C2350 C2348 1.395 1_565 S
C2350 C2353 1.403 . S
C2351 C2348 1.403 . S
C2351 C2352 1.524 . S
C2351 C2355 1.400 . S
C2352 H2337 0.960 . S
C2352 H2338 0.960 . S
C2352 H2339 0.960 . S
C2352 C2351 1.524 . S
C2353 C2350 1.403 . S
C2353 C2354 1.392 . S
C2353 C2357 1.495 . S
C2354 C2353 1.392 . S
C2354 C2355 1.385 1_565 S
C2354 C2356 1.478 . S
C2355 H2349 0.930 . S
C2355 C2351 1.400 . S
C2355 C2354 1.385 1_545 S
C2356 C2354 1.478 . S
C2356 C2358 1.381 . S
C2356 C2362 1.402 . S
C2357 C2353 1.495 . S
C2357 H2363 0.959 . S
C2357 H2364 0.961 . S
C2357 H2365 0.960 . S
C2358 C2356 1.381 . S
C2358 C2359 1.394 . S
C2358 H2366 0.930 . S
C2359 C2358 1.394 . S
C2359 C2360 1.383 . S
C2359 H2367 0.929 . S
C2360 C2359 1.383 . S
C2360 C2361 1.377 . S
C2361 H2345 0.930 1_565 S
C2361 C2360 1.377 . S
C2361 C2362 1.387 . S
C2362 H2346 0.904 1_565 S
C2362 C2356 1.402 . S
C2362 C2361 1.387 . S
H2363 C2357 0.959 . S
H2364 C2357 0.961 . S
H2365 C2357 0.960 . S
H2366 C2358 0.930 . S
H2367 C2359 0.929 . S
C649 C10 3.173 . S
C668 C410 3.160 . S
C685 C50 3.175 . S
C704 C450 3.172 . S
C721 C90 3.172 . S
C740 C330 3.159 . S
C757 C130 3.174 . S
C776 C370 3.177 . S
C793 C179 3.173 . S
C812 C579 3.159 . S
C829 C219 3.171 . S
C848 C619 3.159 . S
C865 C259 3.173 . S
C884 C499 3.160 . S
C901 C299 3.172 . S
C920 C539 3.175 . S
C937 C369 3.760 . S
C956 C19 3.737 1_556 S
C973 C409 3.758 . S
C992 C59 3.740 . S
C1009 C449 3.760 . S
C1028 C99 3.738 . S
C1045 C329 3.757 . S
C1064 C139 3.757 . S
C1081 C170 3.752 1_554 S
C1100 C538 3.763 . S
C1117 C578 3.761 . S
C1136 C210 3.742 . S
C1153 C618 3.757 . S
C1172 C250 3.761 . S
C1189 C498 3.757 . S
C1208 C290 3.759 . S
C1225 C49 3.759 . S
C1244 C339 3.738 . S
C1261 C379 3.756 . S
C1280 C89 3.744 . S
C1297 C419 3.755 1_556 S
C1316 C129 3.764 . S
C1333 C459 3.754 . S
C1352 C9 3.765 . S
C1369 C490 3.756 . S
C1388 C218 3.742 . S
C1405 C258 3.757 . S
C1424 C530 3.759 . S
C1441 C298 3.757 . S
C1460 C570 3.760 1_554 S
C1477 C610 3.754 . S
C1496 C178 3.747 . S
C1513 C6 0.365 . S
C1532 C609 0.278 . S
C1549 C46 0.362 . S
C1568 C169 0.305 . S
C1585 C529 0.256 . S
C1604 C86 0.407 . S
C1621 C249 0.250 . S
C1640 C126 0.448 . S
C1657 C175 0.369 . S
C1676 C458 0.235 . S
C1693 C215 0.371 . S
C1712 C18 0.243 . S
C1729 C378 0.262 . S
C1748 C255 0.444 . S
C1765 C98 0.274 . S
C1784 C295 0.419 . S
C1801 C326 0.379 . S
C1820 C289 0.237 . S
C1837 C366 0.375 . S
C1856 C489 0.239 . S
C1873 C209 0.265 . S
C1892 C406 0.378 . S
C1909 C569 0.274 . S
C1928 C446 0.307 . S
C1945 C495 0.354 . S
C1964 C138 0.228 . S
C1981 C535 0.379 . S
C2000 C338 0.328 . S
C2017 C575 0.368 . S
C2036 C58 0.232 . S
C2053 C418 0.256 . S
C2072 C615 0.424 . S
C2089 C15 1.330 . S
C2108 C486 1.316 . S
C2125 C55 1.332 . S
C2144 C206 1.349 . S
C2161 C95 1.316 . S
C2180 C566 1.299 . S
C2197 C286 1.332 . S
C2216 C135 1.335 . S
C2233 C166 1.325 . S
C2252 C335 1.291 . S
C2269 C415 1.326 . S
C2288 C246 1.292 . S
C2305 C375 1.325 . S
C2324 C526 1.291 . S
C2341 C606 1.331 . S
C2360 C455 1.325 . S
