# Generated by pormake.
# Topology wla, (5)-cn, num edge types: 1
# Building blocks:
#     Node 0, Type 0, BuildingBlock: XOMCOT_clean_sbu_1, # of connection points: 5
#     Node 1, Type 0, BuildingBlock: XOMCOT_clean_sbu_1, # of connection points: 5
#     Node 2, Type 0, BuildingBlock: XOMCOT_clean_sbu_1, # of connection points: 5
#     Node 3, Type 0, BuildingBlock: XOMCOT_clean_sbu_1, # of connection points: 5
#     Node 4, Type 0, BuildingBlock: XOMCOT_clean_sbu_1, # of connection points: 5
#     Node 5, Type 0, BuildingBlock: XOMCOT_clean_sbu_1, # of connection points: 5
#     Node 6, Type 0, BuildingBlock: XOMCOT_clean_sbu_1, # of connection points: 5
#     Node 7, Type 0, BuildingBlock: XOMCOT_clean_sbu_1, # of connection points: 5
#     Node 8, Type 0, BuildingBlock: XOMCOT_clean_sbu_1, # of connection points: 5
#     Node 9, Type 0, BuildingBlock: XOMCOT_clean_sbu_1, # of connection points: 5
#     Node 10, Type 0, BuildingBlock: XOMCOT_clean_sbu_1, # of connection points: 5
#     Node 11, Type 0, BuildingBlock: XOMCOT_clean_sbu_1, # of connection points: 5
#     Node 12, Type 0, BuildingBlock: XOMCOT_clean_sbu_1, # of connection points: 5
#     Node 13, Type 0, BuildingBlock: XOMCOT_clean_sbu_1, # of connection points: 5
#     Node 14, Type 0, BuildingBlock: XOMCOT_clean_sbu_1, # of connection points: 5
#     Node 15, Type 0, BuildingBlock: XOMCOT_clean_sbu_1, # of connection points: 5
#     Node 16, Type 0, BuildingBlock: XOMCOT_clean_sbu_1, # of connection points: 5
#     Node 17, Type 0, BuildingBlock: XOMCOT_clean_sbu_1, # of connection points: 5
#     Edge 18, Type (0, 0), BuildingBlock: OJICUG_clean_linker_0, # of connection points: 2
#     Edge 19, Type (0, 0), BuildingBlock: OJICUG_clean_linker_0, # of connection points: 2
#     Edge 20, Type (0, 0), BuildingBlock: OJICUG_clean_linker_0, # of connection points: 2
#     Edge 21, Type (0, 0), BuildingBlock: OJICUG_clean_linker_0, # of connection points: 2
#     Edge 22, Type (0, 0), BuildingBlock: OJICUG_clean_linker_0, # of connection points: 2
#     Edge 23, Type (0, 0), BuildingBlock: OJICUG_clean_linker_0, # of connection points: 2
#     Edge 24, Type (0, 0), BuildingBlock: OJICUG_clean_linker_0, # of connection points: 2
#     Edge 25, Type (0, 0), BuildingBlock: OJICUG_clean_linker_0, # of connection points: 2
#     Edge 26, Type (0, 0), BuildingBlock: OJICUG_clean_linker_0, # of connection points: 2
#     Edge 27, Type (0, 0), BuildingBlock: OJICUG_clean_linker_0, # of connection points: 2
#     Edge 28, Type (0, 0), BuildingBlock: OJICUG_clean_linker_0, # of connection points: 2
#     Edge 29, Type (0, 0), BuildingBlock: OJICUG_clean_linker_0, # of connection points: 2
#     Edge 30, Type (0, 0), BuildingBlock: OJICUG_clean_linker_0, # of connection points: 2
#     Edge 31, Type (0, 0), BuildingBlock: OJICUG_clean_linker_0, # of connection points: 2
#     Edge 32, Type (0, 0), BuildingBlock: OJICUG_clean_linker_0, # of connection points: 2
#     Edge 33, Type (0, 0), BuildingBlock: OJICUG_clean_linker_0, # of connection points: 2
#     Edge 34, Type (0, 0), BuildingBlock: OJICUG_clean_linker_0, # of connection points: 2
#     Edge 35, Type (0, 0), BuildingBlock: OJICUG_clean_linker_0, # of connection points: 2
#     Edge 36, Type (0, 0), BuildingBlock: OJICUG_clean_linker_0, # of connection points: 2
#     Edge 37, Type (0, 0), BuildingBlock: OJICUG_clean_linker_0, # of connection points: 2
#     Edge 38, Type (0, 0), BuildingBlock: OJICUG_clean_linker_0, # of connection points: 2
#     Edge 39, Type (0, 0), BuildingBlock: OJICUG_clean_linker_0, # of connection points: 2
#     Edge 40, Type (0, 0), BuildingBlock: OJICUG_clean_linker_0, # of connection points: 2
#     Edge 41, Type (0, 0), BuildingBlock: OJICUG_clean_linker_0, # of connection points: 2
#     Edge 42, Type (0, 0), BuildingBlock: OJICUG_clean_linker_0, # of connection points: 2
#     Edge 43, Type (0, 0), BuildingBlock: OJICUG_clean_linker_0, # of connection points: 2
#     Edge 44, Type (0, 0), BuildingBlock: OJICUG_clean_linker_0, # of connection points: 2
#     Edge 45, Type (0, 0), BuildingBlock: OJICUG_clean_linker_0, # of connection points: 2
#     Edge 46, Type (0, 0), BuildingBlock: OJICUG_clean_linker_0, # of connection points: 2
#     Edge 47, Type (0, 0), BuildingBlock: OJICUG_clean_linker_0, # of connection points: 2
#     Edge 48, Type (0, 0), BuildingBlock: OJICUG_clean_linker_0, # of connection points: 2
#     Edge 49, Type (0, 0), BuildingBlock: OJICUG_clean_linker_0, # of connection points: 2
#     Edge 50, Type (0, 0), BuildingBlock: OJICUG_clean_linker_0, # of connection points: 2
#     Edge 51, Type (0, 0), BuildingBlock: OJICUG_clean_linker_0, # of connection points: 2
#     Edge 52, Type (0, 0), BuildingBlock: OJICUG_clean_linker_0, # of connection points: 2
#     Edge 53, Type (0, 0), BuildingBlock: OJICUG_clean_linker_0, # of connection points: 2
#     Edge 54, Type (0, 0), BuildingBlock: OJICUG_clean_linker_0, # of connection points: 2
#     Edge 55, Type (0, 0), BuildingBlock: OJICUG_clean_linker_0, # of connection points: 2
#     Edge 56, Type (0, 0), BuildingBlock: OJICUG_clean_linker_0, # of connection points: 2
#     Edge 57, Type (0, 0), BuildingBlock: OJICUG_clean_linker_0, # of connection points: 2
#     Edge 58, Type (0, 0), BuildingBlock: OJICUG_clean_linker_0, # of connection points: 2
#     Edge 59, Type (0, 0), BuildingBlock: OJICUG_clean_linker_0, # of connection points: 2
#     Edge 60, Type (0, 0), BuildingBlock: OJICUG_clean_linker_0, # of connection points: 2
#     Edge 61, Type (0, 0), BuildingBlock: OJICUG_clean_linker_0, # of connection points: 2
#     Edge 62, Type (0, 0), BuildingBlock: OJICUG_clean_linker_0, # of connection points: 2
# Relax obj value: 0.395
# Max RMSD: 0.238
# Mean RMSD: 0.238
data_MOF--net-wla--node1-XOMCOT_clean_sbu_1--edge1-OJICUG_clean_linker_0
_symmetry_space_group_name_H-M    P1
_symmetry_Int_Tables_number       1
_symmetry_cell_setting            triclinic
loop_
_symmetry_equiv_pos_as_xyz
'x, y, z'
_cell_length_a     48.454187
_cell_length_b     48.160389
_cell_length_c     20.381742
_cell_angle_alpha  90.088861
_cell_angle_beta   90.113808
_cell_angle_gamma 120.22349
loop_
_atom_site_label
_atom_site_type_symbol
_atom_site_fract_x
_atom_site_fract_y
_atom_site_fract_z
_atom_type_partial_charge
C0 C 0.119 0.02752 0.22374 0.0
C1 C 0.08969 -0.00023 0.22278 0.0
N2 N 0.09032 0.97924 0.26681 0.0
N3 N 0.13786 0.02438 0.26818 0.0
C4 C 0.11978 -0.00533 0.29349 0.0
H5 H 0.12623 0.04861 0.19386 0.0
Co6 Co 0.18043 0.0541 0.28429 0.0
C7 C 0.18436 0.04622 0.42919 0.0
O8 O 0.19602 0.07739 0.43404 0.0
N9 N 0.22456 0.0836 0.29773 0.0
C10 C 0.2757 0.10198 0.32313 0.0
C11 C 0.2447 0.08145 0.34089 0.0
C12 C 0.24445 0.10503 0.25278 0.0
N13 N 0.27552 0.11642 0.26705 0.0
O14 O 0.19162 0.02702 0.23294 0.0
H15 H 0.23814 0.06336 0.37807 0.0
H16 H 0.23646 0.1102 0.20731 0.0
O17 O 0.178 0.03301 0.37175 0.0
C18 C 0.1933 0.03706 0.17376 0.0
O19 O 0.1892 0.06173 0.16447 0.0
N20 N 0.16768 0.08182 0.32315 0.0
C21 C 0.13078 0.11156 0.32376 0.0
C22 C 0.12196 0.08414 0.36198 0.0
C23 C 0.14079 0.06967 0.36119 0.0
C24 C 0.1785 0.11057 0.29235 0.0
C25 C 0.16071 0.1261 0.29298 0.0
H26 H 0.13135 0.04644 0.38414 0.0
H27 H 0.19888 0.11987 0.26045 0.0
H28 H 0.12816 0.9842 0.3297 0.0
H29 H 0.06939 -0.00485 0.19264 0.0
H30 H 0.2966 0.10304 0.34503 0.0
H31 H 0.09905 0.07184 0.38639 0.0
H32 H 0.16894 0.1477 0.2641 0.0
C33 C -0.01427 0.11694 0.17268 0.0
C34 C 0.01287 0.11486 0.1776 0.0
N35 N 0.02646 0.12664 0.2365 0.0
N36 N -0.01784 0.13011 0.22798 0.0
C37 C 0.0073 0.13568 0.26634 0.0
H38 H 0.96933 0.10902 0.13161 0.0
Co39 Co 0.94754 0.13623 0.23887 0.0
C40 C 0.95265 0.1637 0.37352 0.0
O41 O 0.92137 0.14912 0.37363 0.0
N42 N 0.91168 0.14225 0.24674 0.0
C43 C 0.86256 0.1354 0.25057 0.0
C44 C 0.88061 0.12103 0.26025 0.0
C45 C 0.91167 0.16945 0.23049 0.0
N46 N 0.88217 0.1657 0.2308 0.0
O47 O 0.96819 0.17232 0.17766 0.0
H48 H 0.87105 0.09635 0.27476 0.0
H49 H 0.9328 0.19152 0.21622 0.0
O50 O 0.96725 0.16223 0.32183 0.0
C51 C 0.9544 0.1628 0.12135 0.0
O52 O 0.92774 0.13494 0.11844 0.0
N53 N 0.92742 0.09814 0.28599 0.0
C54 C 0.91633 0.03639 0.3034 0.0
C55 C 0.93345 0.06001 0.35084 0.0
C56 C 0.93895 0.09116 0.34103 0.0
C57 C 0.90834 0.0745 0.24297 0.0
C58 C 0.902 0.0433 0.25137 0.0
H59 H 0.95586 0.10998 0.37279 0.0
H60 H 0.90111 0.0807 0.19766 0.0
H61 H 0.01152 0.14606 0.31497 0.0
H62 H 0.0215 0.10468 0.14121 0.0
H63 H 0.83682 0.1239 0.25406 0.0
H64 H 0.94538 0.05542 0.39079 0.0
H65 H 0.889 0.02559 0.2135 0.0
C66 C 0.92856 0.88354 0.22391 0.0
C67 C 0.93993 0.91604 0.22731 0.0
N68 N 0.91933 0.92076 0.26332 0.0
N69 N 0.90104 0.86801 0.25781 0.0
C70 C 0.89586 0.89125 0.28063 0.0
H71 H 0.93983 0.87196 0.19925 0.0
Co72 Co 0.87751 0.82437 0.27318 0.0
C73 C 0.83486 0.8192 0.39154 0.0
O74 O 0.80966 0.79202 0.37362 0.0
N75 N 0.85419 0.78035 0.28852 0.0
C76 C 0.83262 0.73232 0.33525 0.0
C77 C 0.85152 0.76485 0.3453 0.0
C78 C 0.8374 0.7568 0.24455 0.0
N79 N 0.82372 0.72727 0.2716 0.0
O80 O 0.84486 0.82203 0.21233 0.0
H81 H 0.86252 0.77648 0.39123 0.0
H82 H 0.83581 0.76117 0.19325 0.0
O83 O 0.8594 0.8324 0.35406 0.0
C84 C 0.85439 0.8204 0.15416 0.0
O85 O 0.88002 0.81774 0.14925 0.0
N86 N 0.9117 0.82772 0.32206 0.0
C87 C 0.97754 0.86188 0.33129 0.0
C88 C 0.95901 0.86707 0.3771 0.0
C89 C 0.92577 0.84949 0.37178 0.0
C90 C 0.929 0.81812 0.28587 0.0
C91 C 0.96227 0.835 0.28976 0.0
H92 H 0.91226 0.85728 0.40042 0.0
H93 H 0.91755 0.80109 0.24627 0.0
H94 H 0.87508 0.88664 0.30874 0.0
H95 H 0.96182 0.9347 0.20562 0.0
H96 H 0.82586 0.71399 0.37234 0.0
H97 H 0.96983 0.88745 0.41025 0.0
H98 H 0.97581 0.82987 0.25446 0.0
C99 C 0.00546 0.1098 0.79301 0.0
C100 C 0.97956 0.07958 0.78375 0.0
N101 N 0.95725 0.08246 0.74986 0.0
N102 N -0.00035 0.1315 0.76396 0.0
C103 C 0.96979 0.11416 0.73908 0.0
H104 H 0.0277 0.11554 0.81678 0.0
Co105 Co 0.0293 0.17498 0.75452 0.0
C106 C -0.00398 0.18995 0.64488 0.0
O107 O -0.00935 0.2091 0.68182 0.0
N108 N 0.05906 0.21865 0.74541 0.0
C109 C 0.0931 0.26697 0.70594 0.0
C110 C 0.07125 0.23565 0.68987 0.0
C111 C 0.07427 0.23993 0.7943 0.0
N112 N 0.09497 0.26962 0.77191 0.0
O113 O 0.00274 0.18499 0.81059 0.0
H114 H 0.06498 0.2259 0.64074 0.0
H115 H 0.07087 0.23361 0.84553 0.0
O116 O 0.00958 0.17555 0.66992 0.0
C117 C 0.0119 0.18323 0.86902 0.0
O118 O 0.03451 0.1759 0.87517 0.0
N119 N 0.05645 0.16437 0.71008 0.0
C120 C 0.08624 0.12842 0.69593 0.0
C121 C 0.06049 0.12261 0.65508 0.0
C122 C 0.04602 0.14128 0.66237 0.0
C123 C 0.08385 0.17289 0.74402 0.0
C124 C 0.09946 0.15546 0.73693 0.0
H125 H 0.02385 0.134 0.63673 0.0
H126 H 0.09135 0.19048 0.78301 0.0
H127 H 0.95802 0.12431 0.71105 0.0
H128 H 0.97743 0.05714 0.79963 0.0
H129 H 0.10625 0.28622 0.67142 0.0
H130 H 0.04959 0.10179 0.62305 0.0
H131 H 0.11905 0.16047 0.7698 0.0
C132 C 0.87793 0.93525 0.81603 0.0
C133 C 0.91011 0.94638 0.81361 0.0
N134 N 0.91434 0.92158 0.79815 0.0
N135 N 0.86179 0.90372 0.80012 0.0
C136 C 0.88468 0.89582 0.79336 0.0
H137 H 0.86753 0.94973 0.82826 0.0
Co138 Co 0.81806 0.87529 0.78743 0.0
C139 C 0.84811 0.87018 0.65895 0.0
O140 O 0.87044 0.90044 0.66595 0.0
N141 N 0.77501 0.84721 0.77681 0.0
C142 C 0.72654 0.81339 0.73855 0.0
C143 C 0.75849 0.83059 0.7233 0.0
C144 C 0.75283 0.84011 0.82341 0.0
N145 N 0.7231 0.81947 0.80166 0.0
O146 O 0.8212 0.84537 0.84852 0.0
H147 H 0.76872 0.83143 0.67578 0.0
H148 H 0.75839 0.85007 0.87237 0.0
O149 O 0.82686 0.85673 0.70444 0.0
C150 C 0.81936 0.85466 0.90689 0.0
O151 O 0.8158 0.87986 0.91243 0.0
N152 N 0.81393 0.90638 0.73871 0.0
C153 C 0.83892 0.96924 0.70139 0.0
C154 C 0.83261 0.94561 0.65382 0.0
C155 C 0.81868 0.91353 0.6735 0.0
C156 C 0.81122 0.92706 0.78022 0.0
C157 C 0.82388 0.95919 0.76248 0.0
H158 H 0.81493 0.89558 0.63752 0.0
H159 H 0.80482 0.92028 0.8309 0.0
H160 H 0.87949 0.87176 0.78157 0.0
H161 H 0.9288 0.97112 0.82019 0.0
H162 H 0.70731 0.79848 0.70509 0.0
H163 H 0.84191 0.95221 0.60449 0.0
H164 H 0.82705 0.97644 0.80018 0.0
C165 C 0.10742 -0.00185 0.87263 0.0
C166 C 0.09965 0.02149 0.86107 0.0
N167 N 0.11371 0.03644 0.80477 0.0
N168 N 0.12596 -0.00183 0.82341 0.0
C169 C 0.12984 0.0222 0.78323 0.0
H170 H 0.098 0.98052 0.91146 0.0
Co171 Co 0.13325 0.96431 0.80985 0.0
C172 C 0.15895 0.97338 0.67224 0.0
O173 O 0.14472 0.94209 0.66613 0.0
N174 N 0.13983 0.9287 0.79802 0.0
C175 C 0.13106 0.87913 0.78006 0.0
C176 C 0.12014 0.89995 0.76896 0.0
C177 C 0.16283 0.92442 0.82576 0.0
N178 N 0.15766 0.89444 0.81663 0.0
O179 O 0.16975 0.98549 0.8695 0.0
H180 H 0.09867 0.89378 0.74171 0.0
H181 H 0.18257 0.94244 0.85425 0.0
O182 O 0.15833 0.98567 0.72808 0.0
C183 C 0.16001 0.97313 0.92669 0.0
O184 O 0.13139 0.94759 0.93102 0.0
N185 N 0.09498 0.94365 0.76348 0.0
C186 C 0.03191 0.9264 0.74384 0.0
C187 C 0.0553 0.94715 0.69976 0.0
C188 C 0.08704 0.95543 0.7102 0.0
C189 C 0.07194 0.92174 0.80385 0.0
C190 C 0.04007 0.9122 0.794 0.0
H191 H 0.10514 0.97433 0.68063 0.0
H192 H 0.07874 0.91404 0.84775 0.0
H193 H 0.14137 0.02709 0.73593 0.0
H194 H 0.08338 0.02587 0.88958 0.0
H195 H 0.11924 0.85408 0.7657 0.0
H196 H 0.04961 0.95924 0.66185 0.0
H197 H 0.02253 0.89682 0.82985 0.0
C198 C 0.77958 0.37507 0.54398 0.0
C199 C 0.74974 0.34812 0.54327 0.0
N200 N 0.74908 0.32768 0.58913 0.0
N201 N 0.7976 0.37155 0.58993 0.0
C202 C 0.77836 0.34243 0.61688 0.0
H203 H 0.78785 0.39579 0.51245 0.0
Co204 Co 0.84029 0.40119 0.60372 0.0
C205 C 0.85174 0.39162 0.74359 0.0
O206 O 0.86717 0.42304 0.74909 0.0
N207 N 0.88461 0.43177 0.61563 0.0
C208 C 0.9316 0.47711 0.62594 0.0
C209 C 0.89943 0.46237 0.63861 0.0
C210 C 0.90883 0.42845 0.59179 0.0
N211 N 0.93731 0.4558 0.59529 0.0
O212 O 0.85038 0.37528 0.5458 0.0
H213 H 0.88785 0.47407 0.66132 0.0
H214 H 0.90579 0.40668 0.56984 0.0
O215 O 0.84041 0.37875 0.68712 0.0
C216 C 0.85386 0.38794 0.48861 0.0
O217 O 0.85366 0.41507 0.48456 0.0
N218 N 0.82775 0.42716 0.64733 0.0
C219 C 0.78606 0.45077 0.65259 0.0
C220 C 0.78399 0.42839 0.69916 0.0
C221 C 0.80499 0.41649 0.69527 0.0
C222 C 0.83191 0.45131 0.60631 0.0
C223 C 0.81169 0.46388 0.60889 0.0
H224 H 0.79968 0.39562 0.72413 0.0
H225 H 0.84839 0.45803 0.56577 0.0
H226 H 0.78582 0.33178 0.65455 0.0
H227 H 0.73005 0.34382 0.51147 0.0
H228 H 0.94898 0.50214 0.63476 0.0
H229 H 0.7639 0.41715 0.73246 0.0
H230 H 0.8137 0.48087 0.57173 0.0
C231 C 0.61427 0.41269 0.58521 0.0
C232 C 0.64226 0.41229 0.57901 0.0
N233 N 0.6662 0.44072 0.60028 0.0
N234 N 0.6205 0.44103 0.61157 0.0
C235 C 0.65262 0.45805 0.6178 0.0
H236 H 0.59101 0.39354 0.57056 0.0
Co237 Co 0.59109 0.45463 0.62581 0.0
C238 C 0.62862 0.47278 0.75639 0.0
O239 O 0.63779 0.45169 0.74647 0.0
N240 N 0.56167 0.468 0.63768 0.0
C241 C 0.5288 0.4831 0.67865 0.0
C242 C 0.54855 0.47107 0.69357 0.0
C243 C 0.54914 0.47753 0.58988 0.0
N244 N 0.52935 0.48717 0.61313 0.0
O245 O 0.61758 0.49207 0.57047 0.0
H246 H 0.55345 0.46546 0.74206 0.0
H247 H 0.55537 0.47866 0.5389 0.0
O248 O 0.612 0.4769 0.71208 0.0
C249 C 0.60902 0.48151 0.51145 0.0
O250 O 0.58636 0.45139 0.50389 0.0
N251 N 0.56302 0.41553 0.66745 0.0
C252 C 0.53989 0.35018 0.67138 0.0
C253 C 0.55679 0.36959 0.72512 0.0
C254 C 0.56755 0.40248 0.72294 0.0
C255 C 0.5411 0.39609 0.6219 0.0
C256 C 0.52906 0.36301 0.62291 0.0
H257 H 0.58133 0.41705 0.76345 0.0
H258 H 0.53698 0.40662 0.57885 0.0
H259 H 0.66577 0.48245 0.63628 0.0
H260 H 0.64477 0.39237 0.56199 0.0
H261 H 0.51563 0.48892 0.71346 0.0
H262 H 0.56428 0.36007 0.76512 0.0
H263 H 0.51559 0.34873 0.58097 0.0
C264 C 0.57249 0.21765 0.53364 0.0
C265 C 0.57639 0.24781 0.54166 0.0
N266 N 0.55134 0.24486 0.57608 0.0
N267 N 0.54541 0.19603 0.56398 0.0
C268 C 0.5327 0.21326 0.58801 0.0
H269 H 0.58928 0.21207 0.51089 0.0
Co270 Co 0.5325 0.15334 0.58097 0.0
C271 C 0.48727 0.13818 0.69917 0.0
O272 O 0.4658 0.10895 0.68093 0.0
N273 N 0.51945 0.11036 0.59879 0.0
C274 C 0.50706 0.06488 0.65063 0.0
C275 C 0.52139 0.09776 0.65668 0.0
C276 C 0.50469 0.08485 0.55811 0.0
N277 N 0.49675 0.05703 0.58839 0.0
O278 O 0.49625 0.14091 0.52228 0.0
H279 H 0.53171 0.11152 0.70106 0.0
H280 H 0.49861 0.08614 0.5077 0.0
O281 O 0.5112 0.15529 0.66206 0.0
C282 C 0.50745 0.14073 0.46512 0.0
O283 O 0.53664 0.14552 0.46203 0.0
N284 N 0.57033 0.1668 0.6279 0.0
C285 C 0.63545 0.20838 0.64178 0.0
C286 C 0.61389 0.21116 0.68326 0.0
C287 C 0.58113 0.18995 0.67551 0.0
C288 C 0.59107 0.16083 0.59438 0.0
C289 C 0.62392 0.18134 0.60082 0.0
H290 H 0.56485 0.19526 0.70084 0.0
H291 H 0.5822 0.14282 0.55601 0.0
H292 H 0.51132 0.20324 0.6176 0.0
H293 H 0.59664 0.27027 0.52573 0.0
H294 H 0.50412 0.04807 0.68893 0.0
H295 H 0.62182 0.2318 0.71527 0.0
H296 H 0.63988 0.17818 0.56858 0.0
C297 C 0.66472 0.45068 0.20843 0.0
C298 C 0.64039 0.41918 0.20557 0.0
N299 N 0.61866 0.41713 0.16151 0.0
N300 N 0.65816 0.46821 0.1665 0.0
C301 C 0.62982 0.44715 0.13907 0.0
H302 H 0.68628 0.46005 0.23755 0.0
Co303 Co 0.68449 0.51134 0.14793 0.0
C304 C 0.65071 0.52 1.0263 0.0
O305 O 0.65443 0.5481 0.04254 0.0
N306 N 0.71128 0.55481 0.12913 0.0
C307 C 0.74467 0.60054 0.07862 0.0
C308 C 0.72393 0.56812 0.07044 0.0
C309 C 0.7251 0.57942 0.17216 0.0
N310 N 0.74544 0.60736 0.14282 0.0
O311 O 0.65768 0.5206 0.20464 0.0
H312 H 0.71921 0.55492 1.02487 0.0
H313 H 0.72098 0.57711 0.22437 0.0
O314 O 0.66056 0.50594 0.06525 0.0
C315 C 0.66935 0.52234 0.2624 0.0
O316 O 0.69576 0.52105 0.26694 0.0
N317 N 0.71193 0.50127 0.10385 0.0
C318 C 0.74273 0.46617 0.0935 0.0
C319 C 0.71739 0.45984 0.05108 0.0
C320 C 0.70212 0.47778 0.05716 0.0
C321 C 0.73919 0.51055 0.13882 0.0
C322 C 0.75513 0.49334 0.13417 0.0
H323 H 0.68009 0.4698 0.0309 0.0
H324 H 0.74623 0.52866 0.17668 0.0
H325 H 0.61762 0.45345 0.10279 0.0
H326 H 0.63938 0.39916 0.23179 0.0
H327 H 0.75906 0.61747 0.04096 0.0
H328 H 0.70702 0.43892 1.01934 0.0
H329 H 0.77487 0.49911 0.1672 0.0
C330 C 0.54283 0.24153 0.14623 0.0
C331 C 0.57346 0.24737 0.1541 0.0
N332 N 0.57443 0.22147 0.13256 0.0
N333 N 0.5246 0.21229 0.11862 0.0
C334 C 0.54437 0.20017 0.11329 0.0
H335 H 0.53444 0.2577 0.15984 0.0
Co336 Co 0.48054 0.19296 0.10213 0.0
C337 C 0.50506 0.18054 0.97138 0.0
O338 O 0.53488 0.20229 0.9836 0.0
N339 N 0.43648 0.17383 0.08793 0.0
C340 C 0.38912 0.15943 0.04353 0.0
C341 C 0.42066 0.16923 0.03066 0.0
C342 C 0.41416 0.16658 0.1345 0.0
N343 N 0.38528 0.1582 0.1091 0.0
O344 O 0.47427 0.15659 0.15517 0.0
H345 H 0.43161 0.17431 0.98268 0.0
H346 H 0.41916 0.16849 0.1864 0.0
O347 O 0.4834 0.17424 1.01472 0.0
C348 C 0.47348 0.16627 0.21376 0.0
O349 O 0.47594 0.19458 0.22053 0.0
N350 N 0.48648 0.23101 0.06306 0.0
C351 C 0.51553 0.2973 0.07001 0.0
C352 C 0.52316 0.28279 1.01892 0.0
C353 C 0.50788 0.24923 1.01572 0.0
C354 C 0.47499 0.24481 0.10517 0.0
C355 C 0.48889 0.27799 0.10882 0.0
H356 H 0.51608 0.23885 0.97991 0.0
H357 H 0.45828 0.23061 0.14301 0.0
H358 H 0.53706 0.17644 0.09424 0.0
H359 H 0.59374 0.26935 0.1722 0.0
H360 H 0.3709 0.15505 1.00755 0.0
H361 H 0.54321 0.29694 0.98682 0.0
H362 H 0.48169 0.28835 0.14773 0.0
C363 C 0.75602 0.31618 0.19248 0.0
C364 C 0.74563 0.33799 0.19387 0.0
N365 N 0.76126 0.36005 0.14689 0.0
N366 N 0.77807 0.32458 0.14492 0.0
C367 C 0.78078 0.35141 0.11794 0.0
H368 H 0.74841 0.29576 0.2246 0.0
Co369 Co 0.80057 0.30388 0.12781 0.0
C370 C 0.81842 0.31683 0.9864 0.0
O371 O 0.80856 0.28599 0.98171 0.0
N372 N 0.82473 0.28376 0.11262 0.0
C373 C 0.86945 0.28226 0.09801 0.0
C374 C 0.85518 0.30041 0.09108 0.0
C375 C 0.82137 0.2556 0.13385 0.0
N376 N 0.84828 0.25409 0.12548 0.0
O377 O 0.83488 0.33548 0.18293 0.0
H378 H 0.86719 0.32527 0.07583 0.0
H379 H 0.80056 0.23739 0.1589 0.0
O380 O 0.81754 0.32859 0.04285 0.0
C381 C 0.83025 0.32234 0.23981 0.0
O382 O 0.80835 0.29182 0.24473 0.0
N383 N 0.76372 0.27115 0.08586 0.0
C384 C 0.69704 0.23645 0.08368 0.0
C385 C 0.71401 0.25971 0.03581 0.0
C386 C 0.74742 0.27723 0.03831 0.0
C387 C 0.74739 0.24617 0.12809 0.0
C388 C 0.7141 0.22837 0.12754 0.0
H389 H 0.75924 0.29859 1.00867 0.0
H390 H 0.75943 0.24351 0.16995 0.0
H391 H 0.79743 0.36501 0.07938 0.0
H392 H 0.72805 0.33772 0.22694 0.0
H393 H 0.89432 0.29033 0.08847 0.0
H394 H 0.70165 0.26724 1.0023 0.0
H395 H 0.70182 0.21102 0.16613 0.0
C396 C 0.45181 0.68622 0.84334 0.0
C397 C 0.42211 0.65911 0.84368 0.0
N398 N 0.41902 0.64304 0.89981 0.0
N399 N 0.46738 0.68717 0.89883 0.0
C400 C 0.44679 0.6606 0.93252 0.0
H401 H 0.46151 0.70423 0.80524 0.0
Co402 Co 0.50839 0.71966 0.91712 0.0
C403 C 0.52005 0.71103 0.05754 0.0
O404 O 0.53478 0.74245 0.06268 0.0
N405 N 0.55079 0.75316 0.93385 0.0
C406 C 0.59517 0.80075 0.94503 0.0
C407 C 0.56247 0.78445 0.94966 0.0
C408 C 0.57715 0.75109 0.92246 0.0
N409 N 0.60431 0.77976 0.92667 0.0
O410 O 0.52363 0.69724 0.86112 0.0
H411 H 0.54851 0.79549 0.96164 0.0
H412 H 0.57649 0.72916 0.90818 0.0
O413 O 0.50902 0.69787 1.0011 0.0
C414 C 0.53 0.71093 0.80456 0.0
O415 O 0.53083 0.73854 0.79967 0.0
N416 N 0.491 0.74184 0.95829 0.0
C417 C 0.44514 0.76007 0.96388 0.0
C418 C 0.44617 0.73997 1.0123 0.0
C419 C 0.4692 0.73065 1.00812 0.0
C420 C 0.49151 0.76329 0.91407 0.0
C421 C 0.4691 0.77312 0.91654 0.0
H422 H 0.4666 0.71148 0.03952 0.0
H423 H 0.50728 0.77013 0.87224 0.0
H424 H 0.452 0.65405 0.97974 0.0
H425 H 0.40398 0.65206 0.80604 0.0
H426 H 0.6107 0.82647 0.94996 0.0
H427 H 0.42727 0.72872 0.04826 0.0
H428 H 0.46854 0.78819 0.87775 0.0
C429 C 0.27512 0.73498 0.90827 0.0
C430 C 0.30038 0.72986 0.90099 0.0
N431 N 0.32687 0.75627 0.9224 0.0
N432 N 0.28556 0.76416 0.93559 0.0
C433 C 0.31747 0.77707 0.94081 0.0
H434 H 0.25081 0.71853 0.89382 0.0
Co435 Co 0.26146 0.78357 0.95307 0.0
C436 C 0.30021 0.79725 0.08244 0.0
O437 O 0.30719 0.77462 0.07141 0.0
N438 N 0.2375 0.8031 0.96887 0.0
C439 C 0.21228 0.82554 1.01651 0.0
C440 C 0.22811 0.8089 0.02712 0.0
C441 C 0.22668 0.81577 0.92387 0.0
N442 N 0.21151 0.82976 0.9514 0.0
O443 O 0.29093 0.81951 0.89742 0.0
H444 H 0.23267 0.80175 0.07432 0.0
H445 H 0.23043 0.81552 0.87178 0.0
O446 O 0.28476 0.80336 0.03878 0.0
C447 C 0.28035 0.80985 0.83879 0.0
O448 O 0.25421 0.78171 0.83225 0.0
N449 N 0.23007 0.74595 0.99493 0.0
C450 C 0.19952 0.67956 0.9896 0.0
C451 C 0.21937 0.69622 0.04305 0.0
C452 C 0.2341 0.72973 0.04546 0.0
C453 C 0.20574 0.72974 0.95126 0.0
C454 C 0.18992 0.69628 0.94785 0.0
H455 H 0.25069 0.74204 0.08436 0.0
H456 H 0.20219 0.74272 0.91201 0.0
H457 H 0.33348 0.80109 0.95908 0.0
H458 H 0.29926 0.70816 0.88297 0.0
H459 H 0.20204 0.83373 0.05364 0.0
H460 H 0.22653 0.68416 0.07816 0.0
H461 H 0.17374 0.68419 0.90729 0.0
C462 C 0.23136 0.54466 0.86676 0.0
C463 C 0.23236 0.57375 0.86872 0.0
N464 N 0.20939 0.571 0.90989 0.0
N465 N 0.20781 0.52381 0.90642 0.0
C466 C 0.19477 0.54052 0.93171 0.0
H467 H 0.24693 0.5391 0.83882 0.0
Co468 Co 0.1958 0.48113 0.92154 0.0
C469 C 0.15305 0.46649 0.04491 0.0
O470 O 0.13035 0.43753 0.02805 0.0
N471 N 0.1833 0.43795 0.9366 0.0
C472 C 0.17163 0.3913 0.98228 0.0
C473 C 0.18365 0.42366 0.99338 0.0
C474 C 0.17193 0.41408 0.89172 0.0
N475 N 0.16454 0.38559 0.91805 0.0
O476 O 0.15852 0.46876 0.86615 0.0
H477 H 0.19182 0.4359 0.04002 0.0
H478 H 0.16823 0.41697 0.84061 0.0
O479 O 0.17634 0.48273 1.00571 0.0
C480 C 0.16959 0.46956 0.8083 0.0
O481 O 0.19908 0.47529 0.80366 0.0
N482 N 0.23458 0.49447 0.96454 0.0
C483 C 0.30053 0.5327 0.97277 0.0
C484 C 0.28078 0.5392 1.01251 0.0
C485 C 0.24761 0.51952 1.00794 0.0
C486 C 0.25342 0.48535 0.9326 0.0
C487 C 0.28654 0.50384 0.93705 0.0
H488 H 0.23278 0.52722 0.03185 0.0
H489 H 0.24301 0.46595 0.89724 0.0
H490 H 0.17472 0.53055 0.96503 0.0
H491 H 0.24912 0.59542 0.84309 0.0
H492 H 0.16834 0.37343 1.01837 0.0
H493 H 0.29049 0.56123 0.04073 0.0
H494 H 0.30094 0.49749 0.90691 0.0
C495 C 0.34454 0.77559 0.51627 0.0
C496 C 0.3211 0.74392 0.50836 0.0
N497 N 0.29622 0.74315 0.47694 0.0
N498 N 0.33455 0.79447 0.4888 0.0
C499 C 0.30475 0.77404 0.4667 0.0
H500 H 0.36808 0.78424 0.53686 0.0
Co501 Co 0.35892 0.83824 0.47238 0.0
C502 C 0.32186 0.84417 0.35297 0.0
O503 O 0.32274 0.87088 0.37029 0.0
N504 N 0.38345 0.88215 0.45524 0.0
C505 C 0.4144 0.92832 0.40433 0.0
C506 C 0.39389 0.89599 0.39606 0.0
C507 C 0.39841 0.90646 0.4987 0.0
N508 N 0.41748 0.93492 0.46913 0.0
O509 O 0.33099 0.84487 0.53121 0.0
H510 H 0.38809 0.88322 0.34981 0.0
H511 H 0.39669 0.90308 0.55114 0.0
O512 O 0.3341 0.83196 0.39074 0.0
C513 C 0.34295 0.8464 0.58856 0.0
O514 O 0.36965 0.84562 0.59187 0.0
N515 N 0.38789 0.8312 0.42544 0.0
C516 C 0.42432 0.80225 0.40782 0.0
C517 C 0.39705 0.79297 0.36905 0.0
C518 C 0.37904 0.80792 0.37861 0.0
C519 C 0.41667 0.84356 0.45633 0.0
C520 C 0.43558 0.82968 0.44745 0.0
H521 H 0.35594 0.79754 0.35553 0.0
H522 H 0.42315 0.86155 0.49421 0.0
H523 H 0.29031 0.78146 0.43971 0.0
H524 H 0.32265 0.72309 0.52244 0.0
H525 H 0.42653 0.94536 0.36533 0.0
H526 H 0.38743 0.77179 0.33814 0.0
H527 H 0.45679 0.83786 0.47743 0.0
C528 C 0.20808 0.5736 0.48985 0.0
C529 C 0.23893 0.57975 0.49418 0.0
N530 N 0.23978 0.55436 0.46918 0.0
N531 N 0.18964 0.54472 0.46091 0.0
C532 C 0.20953 0.53303 0.45156 0.0
H533 H 0.19989 0.58938 0.50707 0.0
Co534 Co 0.14562 0.52475 0.44445 0.0
C535 C 0.17136 0.51439 0.31456 0.0
O536 O 0.19897 0.54062 0.32475 0.0
N537 N 0.10194 0.50507 0.43072 0.0
C538 C 0.05289 0.48167 0.38911 0.0
C539 C 0.08466 0.49333 0.37514 0.0
C540 C 0.08041 0.5007 0.4772 0.0
N541 N 0.05039 0.48644 0.45348 0.0
O542 O 0.13975 0.48906 0.49959 0.0
H543 H 0.09439 0.49362 0.3273 0.0
H544 H 0.08657 0.50782 0.52775 0.0
O545 O 0.14946 0.50499 0.35873 0.0
C546 C 0.13867 0.4986 0.5581 0.0
O547 O 0.14169 0.52713 0.56497 0.0
N548 N 0.15085 0.56202 0.40273 0.0
C549 C 0.18501 0.62809 0.39321 0.0
C550 C 0.18293 0.60906 0.33912 0.0
C551 C 0.16449 0.57561 0.34412 0.0
C552 C 0.14689 0.58009 0.4492 0.0
C553 C 0.16395 0.6135 0.44554 0.0
H554 H 0.1633 0.56136 0.3026 0.0
H555 H 0.13466 0.56897 0.49431 0.0
H556 H 0.20224 0.50977 0.43003 0.0
H557 H 0.2594 0.60166 0.51198 0.0
H558 H 0.03334 0.4712 0.35428 0.0
H559 H 0.19759 0.61973 0.2961 0.0
H560 H 0.16431 0.62737 0.48777 0.0
C561 C 0.42978 0.65049 0.51011 0.0
C562 C 0.42424 0.67575 0.51168 0.0
N563 N 0.44211 0.69674 0.4647 0.0
N564 N 0.45111 0.65568 0.46256 0.0
C565 C 0.4582 0.68407 0.4355 0.0
H566 H 0.41898 0.6296 0.54153 0.0
Co567 Co 0.46655 0.62834 0.44585 0.0
C568 C 0.48065 0.63752 0.30193 0.0
O569 O 0.46379 0.60604 0.29712 0.0
N570 N 0.48304 0.60072 0.43232 0.0
C571 C 0.51555 0.58184 0.4089 0.0
C572 C 0.50748 0.60467 0.39374 0.0
C573 C 0.47806 0.5764 0.47267 0.0
N574 N 0.49704 0.56432 0.45891 0.0
O575 O 0.50408 0.65641 0.4988 0.0
H576 H 0.52081 0.62448 0.3607 0.0
H577 H 0.46273 0.56913 0.5151 0.0
O578 O 0.48528 0.6507 0.35923 0.0
C579 C 0.49642 0.64529 0.55747 0.0
O580 O 0.46874 0.61897 0.56573 0.0
N581 N 0.42686 0.59952 0.40565 0.0
C582 C 0.36043 0.56895 0.40216 0.0
C583 C 0.37874 0.5947 0.36005 0.0
C584 C 0.4121 0.60992 0.36291 0.0
C585 C 0.40889 0.57234 0.44144 0.0
C586 C 0.37571 0.5565 0.43988 0.0
H587 H 0.42563 0.63254 0.33766 0.0
H588 H 0.41954 0.56532 0.47905 0.0
H589 H 0.47508 0.6955 0.39601 0.0
H590 H 0.40802 0.67834 0.54417 0.0
H591 H 0.53538 0.58018 0.38903 0.0
H592 H 0.36767 0.6054 0.33136 0.0
H593 H 0.36226 0.537 0.47388 0.0
C594 C 0.10454 0.12854 0.23961 0.0
C595 C 0.10662 0.1208 0.30532 0.0
H596 H 0.0778 0.13692 0.16687 0.0
C597 C 0.08317 0.11816 0.34978 0.0
H598 H 0.12162 0.13022 0.20338 0.0
C599 C 0.05756 0.1217 0.32816 0.0
C600 C 0.05479 0.12762 0.26162 0.0
H601 H 0.08408 0.11239 0.40078 0.0
H602 H 0.03915 0.11822 0.3627 0.0
C603 C 0.07905 0.13192 0.2182 0.0
C604 C 0.93601 0.97642 0.23334 0.0
C605 C 0.9209 0.95076 0.27743 0.0
H606 H 0.94634 0.02371 0.20793 0.0
C607 C 0.90616 0.9544 0.33377 0.0
H608 H 0.94739 0.97434 0.18947 0.0
C609 C 0.90553 0.9828 0.34431 0.0
C610 C 0.9194 0.00764 0.29832 0.0
H611 H 0.89484 0.9352 0.36923 0.0
H612 H 0.89342 0.98495 0.38694 0.0
C613 C 0.93521 0.00454 0.24365 0.0
C614 C 0.03179 0.90751 0.36378 0.0
C615 C 0.00982 0.88873 0.31469 0.0
H616 H 0.07514 0.95131 0.38658 0.0
C617 C 0.01647 0.89902 0.24907 0.0
H618 H 0.02716 0.90029 0.41473 0.0
C619 C 0.04341 0.92822 0.23331 0.0
C620 C 0.06457 0.94767 0.28257 0.0
H621 H -0.0002 0.88551 0.21011 0.0
H622 H 0.0473 0.93605 0.1827 0.0
C623 C 0.05914 0.93663 0.34771 0.0
C624 C 0.13194 0.08687 0.74365 0.0
C625 C 0.10704 0.05792 0.76856 0.0
H626 H 0.14489 0.1325 0.70031 0.0
C627 C 0.07536 0.05064 0.76026 0.0
H628 H 0.15651 0.09272 0.74946 0.0
C629 C 0.06865 0.07265 0.73065 0.0
C630 C 0.09357 0.10267 0.70984 0.0
H631 H 0.05584 0.02825 0.77846 0.0
H632 H 0.04402 0.06707 0.7283 0.0
C633 C 0.12529 0.10937 0.71531 0.0
C634 C 0.89879 0.05664 0.73572 0.0
C635 C 0.92742 0.05653 0.72609 0.0
H636 H 0.84748 0.02865 0.73468 0.0
C637 C 0.92643 0.02956 0.69758 0.0
H638 H 0.89916 0.07731 0.75774 0.0
C639 C 0.89726 0.00232 0.68271 0.0
C640 C 0.86834 0.00121 0.6973 0.0
H641 H 0.94829 0.02915 0.68928 0.0
H642 H 0.89743 0.98119 0.66495 0.0
C643 C 0.86937 0.02898 0.72222 0.0
C644 C 0.97313 0.90064 0.72743 0.0
C645 C 0.0019 0.92645 0.75005 0.0
H646 H 0.92246 0.87913 0.72374 0.0
C647 C 0.0018 0.95074 0.7877 0.0
H648 H 0.97296 0.88149 0.69913 0.0
C649 C 0.97311 0.94908 0.80365 0.0
C650 C 0.94396 0.92311 0.7819 0.0
H651 H 0.02393 0.97038 0.80696 0.0
H652 H 0.97384 0.96777 0.83437 0.0
C653 C 0.94432 0.89912 0.74269 0.0
C654 C 0.71298 0.4592 0.67267 0.0
C655 C 0.69851 0.44848 0.61084 0.0
H656 H 0.7524 0.46799 0.73521 0.0
C657 C 0.71441 0.44165 0.56186 0.0
H658 H 0.70073 0.46414 0.7113 0.0
C659 C 0.74388 0.4444 0.57494 0.0
C660 C 0.75771 0.45348 0.63771 0.0
H661 H 0.70344 0.43316 0.51415 0.0
H662 H 0.75503 0.43767 0.53691 0.0
C663 C 0.74228 0.46126 0.68638 0.0
C664 C 0.51432 0.29286 0.63276 0.0
C665 C 0.54122 0.32083 0.65635 0.0
H666 H 0.49659 0.24633 0.58878 0.0
C667 C 0.57119 0.32284 0.65515 0.0
H668 H 0.49108 0.29097 0.63231 0.0
C669 C 0.57443 0.29793 0.62877 0.0
C670 C 0.54773 0.27027 0.60389 0.0
H671 H 0.59247 0.34443 0.67156 0.0
H672 H 0.59787 0.30032 0.62749 0.0
C673 C 0.5175 0.26755 0.60754 0.0
C674 C 0.68726 0.25575 0.68115 0.0
C675 C 0.66737 0.2368 0.62951 0.0
H676 H 0.72961 0.29979 0.70833 0.0
C677 C 0.6761 0.24741 0.56459 0.0
H678 H 0.68094 0.24825 0.73161 0.0
C679 C 0.70334 0.2768 0.55159 0.0
C680 C 0.72272 0.29619 0.60303 0.0
H681 H 0.66097 0.23375 0.52373 0.0
H682 H 0.70899 0.28472 0.5012 0.0
C683 C 0.715 0.2851 0.6679 0.0
C684 C 0.76057 0.39869 0.06813 0.0
C685 C 0.75875 0.38792 0.13294 0.0
H686 H 0.75681 0.43216 1.00433 0.0
C687 C 0.75385 0.40437 0.18419 0.0
H688 H 0.76419 0.38622 0.0278 0.0
C689 C 0.75018 0.43069 0.17104 0.0
C690 C 0.75103 0.441 0.10619 0.0
H691 H 0.75268 0.39673 0.23455 0.0
H692 H 0.74542 0.44222 0.21162 0.0
C693 C 0.75636 0.42484 0.05474 0.0
C694 C 0.5735 0.36312 0.18264 0.0
C695 C 0.59084 0.3884 0.13896 0.0
H696 H 0.53602 0.31478 0.19501 0.0
C697 C 0.58161 0.38463 0.07252 0.0
H698 H 0.58005 0.36554 0.23403 0.0
C699 C 0.5562 0.35545 0.04977 0.0
C700 C 0.53934 0.32987 0.09343 0.0
H701 H 0.59487 0.40375 0.03772 0.0
H702 H 0.55021 0.35263 0.99803 0.0
C703 C 0.548 0.33424 0.16025 0.0
C704 C 0.63989 0.21527 0.04896 0.0
C705 C 0.66347 0.22705 0.09816 0.0
H706 H 0.59216 0.20325 1.02248 0.0
C707 C 0.65597 0.23383 0.16061 0.0
H708 H 0.6452 0.21019 1.00031 0.0
C709 C 0.62611 0.2305 0.17271 0.0
C710 C 0.60289 0.21972 0.12313 0.0
H711 H 0.67386 0.24354 0.19911 0.0
H712 H 0.62144 0.23739 0.22018 0.0
C713 C 0.60963 0.21119 0.06169 0.0
C714 C 0.36958 0.74715 0.88411 0.0
C715 C 0.35778 0.75971 0.93112 0.0
H716 H 0.40689 0.73788 0.85798 0.0
C717 C 0.37547 0.77359 0.98881 0.0
H718 H 0.35629 0.73636 0.83945 0.0
C719 C 0.40417 0.77401 1.00005 0.0
C720 C 0.41576 0.76128 0.95291 0.0
H721 H 0.36652 0.78303 1.0261 0.0
H722 H 0.41718 0.78406 0.04536 0.0
C723 C 0.39845 0.74815 0.89466 0.0
C724 C 0.20258 0.64482 0.90229 0.0
C725 C 0.19612 0.64845 0.96814 0.0
H726 H 0.21211 0.61745 0.83255 0.0
C727 C 0.19155 0.62455 1.01353 0.0
H728 H 0.20678 0.66292 0.86601 0.0
C729 C 0.19459 0.59832 0.99386 0.0
C730 C 0.20284 0.59589 0.92881 0.0
H731 H 0.18666 0.62669 0.06454 0.0
H732 H 0.19201 0.58078 0.03014 0.0
C733 C 0.20612 0.61901 0.88306 0.0
C734 C 0.35375 0.58053 1.00484 0.0
C735 C 0.3335 0.55863 0.95694 0.0
H736 H 0.39726 0.6248 1.02403 0.0
C737 C 0.34327 0.56396 0.89094 0.0
H738 H 0.3469 0.57711 0.05603 0.0
C739 C 0.3718 0.59104 0.87288 0.0
C740 C 0.39139 0.61358 0.92014 0.0
H741 H 0.32811 0.5481 0.85236 0.0
H742 H 0.37821 0.59472 0.82148 0.0
C743 C 0.38259 0.6077 0.9866 0.0
C744 C 0.44174 0.74517 0.49977 0.0
C745 C 0.44295 0.72617 0.44911 0.0
H746 H 0.43539 0.78434 0.52621 0.0
C747 C 0.44227 0.73485 0.38359 0.0
H748 H 0.4425 0.73902 0.55056 0.0
C749 C 0.43816 0.76098 0.3692 0.0
C750 C 0.43533 0.77906 0.42024 0.0
H751 H 0.44308 0.72035 0.34381 0.0
H752 H 0.43594 0.76628 0.31848 0.0
C753 C 0.43812 0.77139 0.48558 0.0
C754 C 0.27094 0.68994 0.42414 0.0
C755 C 0.26843 0.71542 0.45089 0.0
H756 H 0.24638 0.64272 0.38277 0.0
C757 C 0.23854 0.71357 0.45137 0.0
H758 H 0.29381 0.69107 0.42223 0.0
C759 C 0.21127 0.68584 0.42878 0.0
C760 C 0.2137 0.65997 0.40375 0.0
H761 H 0.23614 0.73304 0.47163 0.0
H762 H 0.18819 0.68416 0.43279 0.0
C763 C 0.2439 0.6626 0.40036 0.0
C764 C 0.32183 0.56685 0.48436 0.0
C765 C 0.32772 0.56097 0.41978 0.0
H766 H 0.28878 0.56932 0.55046 0.0
C767 C 0.30328 0.55034 0.37276 0.0
H768 H 0.34053 0.57556 0.52121 0.0
C769 C 0.27345 0.5461 0.39014 0.0
C770 C 0.26814 0.55337 0.45411 0.0
H771 H 0.30749 0.54596 0.32263 0.0
H772 H 0.2551 0.53881 0.35292 0.0
C773 C 0.29241 0.56339 0.50115 0.0
C774 C 0.32639 0.13105 0.11905 0.0
C775 C 0.357 0.15112 0.14552 0.0
H776 H 0.276 0.10435 0.13745 0.0
C777 C 0.35965 0.16301 0.20975 0.0
H778 H 0.32352 0.12148 0.06985 0.0
C779 C 0.33256 0.15315 0.24823 0.0
C780 C 0.3022 0.13159 0.22319 0.0
H781 H 0.38271 0.17936 0.23111 0.0
H782 H 0.33533 0.16138 0.29859 0.0
C783 C 0.29918 0.1214 0.15757 0.0
C784 C 0.88056 0.22762 0.12303 0.0
C785 C 0.8553 0.23025 0.15008 0.0
H786 H 0.90887 0.20512 0.12759 0.0
C787 C 0.83845 0.21055 0.2036 0.0
H788 H 0.8936 0.24184 0.08099 0.0
C789 C 0.84714 0.18924 0.23007 0.0
C790 C 0.87302 0.1875 0.20403 0.0
H791 H 0.81913 0.21214 0.2263 0.0
H792 H 0.83412 0.17463 0.27175 0.0
C793 C 0.88942 0.20666 0.14988 0.0
C794 C 0.77174 0.66635 0.1448 0.0
C795 C 0.76541 0.6376 0.17477 0.0
H796 H 0.79414 0.71721 0.15259 0.0
C797 C 0.77856 0.63863 0.23674 0.0
H798 H 0.76152 0.66604 0.09731 0.0
C799 C 0.79779 0.66794 0.26826 0.0
C800 C 0.80399 0.69691 0.23883 0.0
H801 H 0.77438 0.61674 0.2604 0.0
H802 H 0.80796 0.66772 0.31536 0.0
C803 C 0.79058 0.69568 0.17667 0.0
C804 C 0.14012 0.32545 0.78227 0.0
C805 C 0.11428 0.29816 0.81065 0.0
H806 H 0.17666 0.3746 0.79487 0.0
C807 C 0.10711 0.29961 0.87717 0.0
H808 H 0.14693 0.3252 0.73189 0.0
C809 C 0.12466 0.32785 0.91352 0.0
C810 C 0.14943 0.35535 0.88398 0.0
H811 H 0.08726 0.2794 0.90095 0.0
H812 H 0.11788 0.32866 0.96377 0.0
C813 C 0.15734 0.35374 0.81843 0.0
C814 C 0.66267 0.81578 0.92123 0.0
C815 C 0.63502 0.7877 0.90081 0.0
H816 H 0.71225 0.84825 0.90516 0.0
C817 C 0.63735 0.76916 0.85005 0.0
H818 H 0.66167 0.83041 0.96048 0.0
C819 C 0.66639 0.77916 0.81875 0.0
C820 C 0.69374 0.80795 0.83728 0.0
H821 H 0.61652 0.74761 0.83229 0.0
H822 H 0.66727 0.76457 0.7793 0.0
C823 C 0.69172 0.82584 0.88977 0.0
C824 C 0.18669 0.83755 0.85302 0.0
C825 C 0.19839 0.84656 0.9173 0.0
H826 H 0.16509 0.84631 0.77009 0.0
C827 C 0.19779 0.87258 0.94694 0.0
H828 H 0.18659 0.81742 0.82912 0.0
C829 C 0.18544 0.8891 0.91304 0.0
C830 C 0.1733 0.87971 0.84911 0.0
H831 H 0.20701 0.88025 0.99611 0.0
H832 H 0.18452 0.90856 0.93761 0.0
C833 C 0.17425 0.85395 0.81932 0.0
C834 C -0.00411 0.48744 0.58286 0.0
C835 C 0.96608 0.46249 0.56153 0.0
H836 H 0.04597 0.51507 0.56467 0.0
C837 C 0.96452 0.44538 0.50424 0.0
H838 H -0.00214 0.501 0.62675 0.0
C839 C -0.00789 0.4532 0.46893 0.0
C840 C 0.0219 0.47832 0.48994 0.0
H841 H 0.9419 0.42644 0.4855 0.0
H842 H -0.00992 0.43947 0.42528 0.0
C843 C 0.02349 0.49529 0.54746 0.0
C844 C 0.50635 0.51899 0.46863 0.0
C845 C 0.50138 0.54226 0.49841 0.0
H846 H 0.51716 0.48166 0.48213 0.0
C847 C 0.5022 0.54481 0.56712 0.0
H848 H 0.50527 0.5164 0.41574 0.0
C849 C 0.50976 0.52554 0.60538 0.0
C850 C 0.51632 0.5032 0.57548 0.0
H851 H 0.49861 0.56284 0.59102 0.0
H852 H 0.51204 0.52938 0.65788 0.0
C853 C 0.51328 0.4993 0.50681 0.0
C854 C 0.46326 -0.00941 0.46496 0.0
C855 C 0.43835 0.96541 0.50038 0.0
H856 H 0.50156 0.03941 0.46579 0.0
C857 C 0.43424 0.97064 0.5668 0.0
H858 H 0.46782 0.98753 0.41435 0.0
C859 C 0.45421 0.00034 0.59653 0.0
C860 C 0.47833 0.02555 0.56026 0.0
H861 H 0.41519 0.95214 0.59571 0.0
H862 H 0.45003 0.00401 0.64714 0.0
C863 C 0.48284 0.02034 0.49447 0.0
C864 C 0.18601 0.04323 0.55257 0.0
C865 C 0.17976 0.02763 0.49095 0.0
H866 H 0.18499 0.0389 0.65756 0.0
C867 C 0.16877 -0.00544 0.48998 0.0
H868 H 0.19463 0.06876 0.55562 0.0
C869 C 0.16347 0.97748 0.54887 0.0
C870 C 0.16877 -0.00711 0.61057 0.0
H871 H 0.16381 0.98174 0.4438 0.0
H872 H 0.15433 0.95186 0.54577 0.0
C873 C 0.18056 0.02613 0.61144 0.0
C874 C 0.96569 0.19453 0.54872 0.0
C875 C -0.01243 0.18606 0.57328 0.0
H876 H 0.93805 0.19453 0.46643 0.0
C877 C 0.0011 0.17382 0.52861 0.0
H878 H 0.95488 0.20418 0.58117 0.0
C879 C -0.00796 0.16909 0.46185 0.0
C880 C 0.96883 0.17599 0.43835 0.0
H881 H 0.01838 0.16743 0.54541 0.0
H882 H 0.00186 0.15835 0.42969 0.0
C883 C 0.95623 0.18925 0.48259 0.0
C884 C 0.86646 0.87366 0.54225 0.0
C885 C 0.84441 0.85551 0.59189 0.0
H886 H 0.88013 0.87745 0.44145 0.0
C887 C 0.81843 0.82528 0.5743 0.0
H888 H 0.88669 0.8972 0.55287 0.0
C889 C 0.81484 0.8137 0.5092 0.0
C890 C 0.83705 0.83206 0.45986 0.0
H891 H 0.80078 0.81066 0.6106 0.0
H892 H 0.79478 0.79018 0.49773 0.0
C893 C 0.86274 0.86229 0.47763 0.0
C894 C 0.84224 0.36991 0.92595 0.0
C895 C 0.82761 0.33631 0.92464 0.0
H896 H 0.86165 0.41346 0.87064 0.0
C897 C 0.82134 0.32092 0.86275 0.0
H898 H 0.84741 0.38262 0.97231 0.0
C899 C 0.82918 0.33855 0.80401 0.0
C900 C 0.84396 0.37218 0.8053 0.0
H901 H 0.80993 0.29501 0.85944 0.0
H902 H 0.82362 0.32581 0.75764 0.0
C903 C 0.85048 0.38758 0.86724 0.0
C904 C 0.64051 0.52648 0.90589 0.0
C905 C 0.6409 0.50721 0.95778 0.0
H906 H 0.63607 0.53092 0.80134 0.0
C907 C 0.63448 0.47606 0.94243 0.0
H908 H 0.64522 0.55059 0.91564 0.0
C909 C 0.63006 0.46527 0.87743 0.0
C910 C 0.63111 0.48487 0.82513 0.0
H911 H 0.63343 0.46001 0.98064 0.0
H912 H 0.62595 0.44132 0.86815 0.0
C913 C 0.6354 0.51532 0.84026 0.0
C914 C 0.46903 0.12791 0.8183 0.0
C915 C 0.48767 0.14935 0.76805 0.0
H916 H 0.45944 0.12077 0.92232 0.0
C917 C 0.5093 0.18138 0.78557 0.0
H918 H 0.45199 0.10306 0.8068 0.0
C919 C 0.51402 0.19113 0.85128 0.0
C920 C 0.49672 0.16947 0.90191 0.0
H921 H 0.5233 0.19893 0.74854 0.0
H922 H 0.53168 0.21584 0.86254 0.0
C923 C 0.47332 0.13796 0.88458 0.0
C924 C 0.51121 0.69026 0.2404 0.0
C925 C 0.4925 0.65661 0.23986 0.0
H926 H 0.5349 0.73353 0.18405 0.0
C927 C 0.48415 0.64083 0.17828 0.0
H928 H 0.51814 0.70329 0.28647 0.0
C929 C 0.49359 0.65814 0.11917 0.0
C930 C 0.51189 0.69182 0.11965 0.0
H931 H 0.46971 0.6149 0.17545 0.0
H932 H 0.4861 0.64512 0.07314 0.0
C933 C 0.52086 0.70757 0.18125 0.0
C934 C 0.30461 0.7906 0.20322 0.0
C935 C 0.30382 0.80952 0.15138 0.0
H936 H 0.30868 0.78553 0.30635 0.0
C937 C 0.30603 0.83904 0.16722 0.0
H938 H 0.302 0.76726 0.19361 0.0
C939 C 0.31073 0.85 0.23293 0.0
C940 C 0.31273 0.83141 0.28432 0.0
H941 H 0.30508 0.85403 0.12877 0.0
H942 H 0.31369 0.87342 0.24316 0.0
C943 C 0.30856 0.80114 0.26838 0.0
C944 C 0.18257 0.52153 0.19407 0.0
C945 C 0.16431 0.50133 0.24594 0.0
H946 H 0.19226 0.52717 0.09136 0.0
C947 C 0.14016 0.46983 0.23033 0.0
H948 H 0.20085 0.54624 0.20336 0.0
C949 C 0.13563 0.45855 0.16484 0.0
C950 C 0.15482 0.47869 0.11349 0.0
H951 H 0.1254 0.45372 0.26877 0.0
H952 H 0.11763 0.43384 0.15474 0.0
C953 C 0.1777 0.51055 0.12921 0.0
C954 C 0.17574 0.98604 0.10981 0.0
C955 C 0.19386 0.01962 0.11378 0.0
H956 H 0.15132 0.94495 0.04685 0.0
C957 C 0.20618 0.03714 0.05509 0.0
H958 H 0.16558 0.97187 0.15369 0.0
C959 C 0.19792 0.02183 0.99356 0.0
C960 C 0.17694 0.98859 0.9893 0.0
H961 H 0.22026 0.06314 0.05651 0.0
H962 H 0.20572 0.03635 0.94957 0.0
C963 C 0.16734 0.97072 0.04824 0.0
C964 C 0.00319 0.19325 0.05065 0.0
C965 C 0.96994 0.17766 0.05761 0.0
H966 H 0.04246 0.2077 0.98471 0.0
C967 C 0.95104 0.16989 1.00007 0.0
H968 H 0.01844 0.1993 0.0935 0.0
C969 C 0.96478 0.17469 0.93732 0.0
C970 C -0.00227 0.18717 0.93081 0.0
H971 H 0.92526 0.15785 1.00364 0.0
H972 H 0.94935 0.16606 0.8946 0.0
C973 C 0.01687 0.19781 0.98804 0.0
C974 C 0.83956 0.8231 0.97072 0.0
C975 C 0.82334 0.84034 0.96902 0.0
H976 H 0.86161 0.80304 0.03039 0.0
C977 C 0.81377 0.84734 0.02951 0.0
H978 H 0.84738 0.81735 0.92559 0.0
C979 C 0.8218 0.83909 0.08994 0.0
C980 C 0.83988 0.82376 0.09173 0.0
H981 H 0.80099 0.86042 0.03035 0.0
H982 H 0.81536 0.84628 0.13509 0.0
C983 C 0.8478 0.81506 0.03119 0.0
C984 C 0.85622 0.37399 0.30541 0.0
C985 C 0.84357 0.34068 0.3022 0.0
H986 H 0.86991 0.41498 0.36686 0.0
C987 C 0.83891 0.32378 0.3617 0.0
H988 H 0.86003 0.38777 0.26099 0.0
C989 C 0.84431 0.33928 0.42278 0.0
C990 C 0.85454 0.37212 0.42597 0.0
H991 H 0.82939 0.29804 0.36126 0.0
H992 H 0.83865 0.32516 0.46723 0.0
C993 C 0.86164 0.38948 0.36648 0.0
C994 C 0.61944 0.50181 0.33039 0.0
C995 C 0.65272 0.52056 0.32518 0.0
H996 H 0.57957 0.47528 0.39429 0.0
C997 C 0.67088 0.53173 0.38372 0.0
H998 H 0.60478 0.49253 0.28672 0.0
C999 C 0.6565 0.52186 0.4457 0.0
C1000 C 0.62361 0.50036 0.45049 0.0
H1001 H 0.69667 0.54628 0.38146 0.0
H1002 H 0.67145 0.52877 0.48914 0.0
C1003 C 0.60511 0.49175 0.3923 0.0
C1004 C 0.46092 0.15516 0.333 0.0
C1005 C 0.47378 0.14978 0.27533 0.0
H1006 H 0.46088 0.15606 0.43859 0.0
C1007 C 0.49271 0.13555 0.28139 0.0
H1008 H 0.4462 0.16616 0.32996 0.0
C1009 C 0.5012 0.12992 0.34389 0.0
C1010 C 0.49083 0.13822 0.40172 0.0
H1011 H 0.50329 0.13147 0.23834 0.0
H1012 H 0.51774 0.12104 0.34686 0.0
C1013 C 0.46923 0.14933 0.39548 0.0
C1014 C 0.51553 0.66095 0.73858 0.0
C1015 C 0.5298 0.69446 0.74213 0.0
H1016 H 0.49467 0.61928 0.67672 0.0
C1017 C 0.53886 0.71202 0.68273 0.0
H1018 H 0.50819 0.64664 0.78287 0.0
C1019 C 0.53098 0.69635 0.62147 0.0
C1020 C 0.51386 0.66272 0.61819 0.0
H1021 H 0.55016 0.73797 0.68346 0.0
H1022 H 0.53596 0.7105 0.57721 0.0
C1023 C 0.50769 0.64532 0.67741 0.0
C1024 C 0.27853 0.81998 0.71856 0.0
C1025 C 0.29662 0.827 0.77713 0.0
H1026 H 0.27866 0.82101 0.61294 0.0
C1027 C 0.32995 0.84545 0.77264 0.0
H1028 H 0.25269 0.80591 0.72018 0.0
C1029 C 0.34476 0.85406 0.71082 0.0
C1030 C 0.32668 0.84466 0.65199 0.0
H1031 H 0.34461 0.8511 0.81633 0.0
H1032 H 0.37061 0.86651 0.70904 0.0
C1033 C 0.29333 0.82879 0.6568 0.0
C1034 C 0.12568 0.48776 0.67733 0.0
C1035 C 0.1378 0.48147 0.61958 0.0
H1036 H 0.12554 0.48835 0.78292 0.0
C1037 C 0.15461 0.46498 0.62533 0.0
H1038 H 0.11247 0.50038 0.67452 0.0
C1039 C 0.16204 0.45811 0.68772 0.0
C1040 C 0.15269 0.46739 0.74564 0.0
H1041 H 0.16446 0.46002 0.58222 0.0
H1042 H 0.17721 0.44761 0.69062 0.0
C1043 C 0.13294 0.48071 0.73969 0.0
loop_
_geom_bond_atom_site_label_1
_geom_bond_atom_site_label_2
_geom_bond_distance
_geom_bond_site_symmetry_2
_ccdc_geom_bond_type
C0 C1 1.351 . S
C0 N3 1.368 . S
C0 H5 0.931 . S
C1 C0 1.351 . S
C1 N2 1.373 . S
C1 H29 0.930 . S
N2 C1 1.373 . S
N2 C4 1.340 . S
N3 C0 1.368 . S
N3 C4 1.321 . S
N3 Co6 2.135 1_565 S
C4 N2 1.340 . S
C4 N3 1.321 . S
C4 H28 0.930 . S
H5 C0 0.931 . S
Co6 N3 2.135 1_545 S
Co6 N9 2.121 . S
Co6 O14 2.055 1_545 S
Co6 O17 2.039 1_545 S
Co6 N20 2.140 . S
C7 O8 1.227 1_565 S
C7 O17 1.265 . S
O8 C7 1.227 1_545 S
N9 Co6 2.121 . S
N9 C11 1.375 . S
N9 C12 1.313 . S
C10 C11 1.338 . S
C10 N13 1.377 . S
C10 H30 0.930 . S
C11 N9 1.375 . S
C11 C10 1.338 . S
C11 H15 0.931 . S
C12 N9 1.313 . S
C12 N13 1.344 . S
C12 H16 0.930 . S
N13 C10 1.377 . S
N13 C12 1.344 . S
O14 Co6 2.055 1_565 S
O14 C18 1.242 1_565 S
H15 C11 0.931 . S
H16 C12 0.930 . S
O17 Co6 2.039 1_565 S
O17 C7 1.265 . S
C18 O14 1.242 1_545 S
C18 O19 1.247 . S
O19 C18 1.247 . S
N20 Co6 2.140 . S
N20 C23 1.346 . S
N20 C24 1.345 . S
C21 C22 1.387 . S
C21 C25 1.391 . S
C22 C21 1.387 . S
C22 C23 1.369 . S
C22 H31 0.929 . S
C23 N20 1.346 . S
C23 C22 1.369 . S
C23 H26 0.928 . S
C24 N20 1.345 . S
C24 C25 1.371 . S
C24 H27 0.931 . S
C25 C21 1.391 . S
C25 C24 1.371 . S
C25 H32 0.930 . S
H26 C23 0.928 . S
H27 C24 0.931 . S
H28 C4 0.930 . S
H29 C1 0.930 . S
H30 C10 0.930 . S
H31 C22 0.929 . S
H32 C25 0.930 . S
C33 C34 1.351 . S
C33 N36 1.368 . S
C33 H38 0.931 . S
C34 C33 1.351 . S
C34 N35 1.373 . S
C34 H62 0.930 . S
N35 C34 1.373 . S
N35 C37 1.340 . S
N36 C33 1.368 . S
N36 C37 1.321 . S
N36 Co39 2.135 . S
C37 N35 1.340 . S
C37 N36 1.321 . S
C37 H61 0.930 . S
H38 C33 0.931 . S
Co39 N36 2.135 . S
Co39 N42 2.121 1_455 S
Co39 O47 2.055 . S
Co39 O50 2.039 . S
Co39 N53 2.140 1_455 S
C40 O41 1.227 . S
C40 O50 1.265 . S
O41 C40 1.227 . S
N42 Co39 2.121 1_655 S
N42 C44 1.375 . S
N42 C45 1.313 . S
C43 C44 1.338 . S
C43 N46 1.377 . S
C43 H63 0.930 . S
C44 N42 1.375 . S
C44 C43 1.338 . S
C44 H48 0.931 . S
C45 N42 1.313 . S
C45 N46 1.344 . S
C45 H49 0.930 . S
N46 C43 1.377 . S
N46 C45 1.344 . S
O47 Co39 2.055 . S
O47 C51 1.253 . S
H48 C44 0.931 . S
H49 C45 0.930 . S
O50 Co39 2.039 . S
O50 C40 1.265 . S
C51 O47 1.253 . S
C51 O52 1.237 . S
O52 C51 1.237 . S
N53 Co39 2.140 1_655 S
N53 C56 1.346 . S
N53 C57 1.345 . S
C54 C55 1.387 . S
C54 C58 1.391 . S
C55 C54 1.387 . S
C55 C56 1.369 . S
C55 H64 0.929 . S
C56 N53 1.346 . S
C56 C55 1.369 . S
C56 H59 0.928 . S
C57 N53 1.345 . S
C57 C58 1.371 . S
C57 H60 0.931 . S
C58 C54 1.391 . S
C58 C57 1.371 . S
C58 H65 0.930 . S
H59 C56 0.928 . S
H60 C57 0.931 . S
H61 C37 0.930 . S
H62 C34 0.930 . S
H63 C43 0.930 . S
H64 C55 0.929 . S
H65 C58 0.930 . S
C66 C67 1.351 . S
C66 N69 1.368 . S
C66 H71 0.931 . S
C67 C66 1.351 . S
C67 N68 1.373 . S
C67 H95 0.930 . S
N68 C67 1.373 . S
N68 C70 1.340 . S
N69 C66 1.368 . S
N69 C70 1.321 . S
N69 Co72 2.135 . S
C70 N68 1.340 . S
C70 N69 1.321 . S
C70 H94 0.930 . S
H71 C66 0.931 . S
Co72 N69 2.135 . S
Co72 N75 2.121 . S
Co72 O80 2.055 . S
Co72 O83 2.039 . S
Co72 N86 2.140 . S
C73 O74 1.227 . S
C73 O83 1.265 . S
O74 C73 1.227 . S
N75 Co72 2.121 . S
N75 C77 1.375 . S
N75 C78 1.313 . S
C76 C77 1.338 . S
C76 N79 1.377 . S
C76 H96 0.930 . S
C77 N75 1.375 . S
C77 C76 1.338 . S
C77 H81 0.931 . S
C78 N75 1.313 . S
C78 N79 1.344 . S
C78 H82 0.930 . S
N79 C76 1.377 . S
N79 C78 1.344 . S
O80 Co72 2.055 . S
O80 C84 1.253 . S
H81 C77 0.931 . S
H82 C78 0.930 . S
O83 Co72 2.039 . S
O83 C73 1.265 . S
C84 O80 1.253 . S
C84 O85 1.227 . S
O85 C84 1.227 . S
N86 Co72 2.140 . S
N86 C89 1.346 . S
N86 C90 1.345 . S
C87 C88 1.387 . S
C87 C91 1.391 . S
C88 C87 1.387 . S
C88 C89 1.369 . S
C88 H97 0.929 . S
C89 N86 1.346 . S
C89 C88 1.369 . S
C89 H92 0.928 . S
C90 N86 1.345 . S
C90 C91 1.371 . S
C90 H93 0.931 . S
C91 C87 1.391 . S
C91 C90 1.371 . S
C91 H98 0.930 . S
H92 C89 0.928 . S
H93 C90 0.931 . S
H94 C70 0.930 . S
H95 C67 0.930 . S
H96 C76 0.930 . S
H97 C88 0.929 . S
H98 C91 0.930 . S
C99 C100 1.351 . S
C99 N102 1.368 . S
C99 H104 0.931 . S
C100 C99 1.351 . S
C100 N101 1.373 . S
C100 H128 0.930 . S
N101 C100 1.373 . S
N101 C103 1.340 . S
N102 C99 1.368 . S
N102 C103 1.321 . S
N102 Co105 2.135 1_655 S
C103 N101 1.340 . S
C103 N102 1.321 . S
C103 H127 0.930 . S
H104 C99 0.931 . S
Co105 N102 2.135 1_455 S
Co105 N108 2.121 . S
Co105 O113 2.055 1_455 S
Co105 O116 2.039 1_455 S
Co105 N119 2.140 . S
C106 O107 1.227 1_655 S
C106 O116 1.265 . S
O107 C106 1.227 1_455 S
N108 Co105 2.121 . S
N108 C110 1.375 . S
N108 C111 1.313 . S
C109 C110 1.338 . S
C109 N112 1.377 . S
C109 H129 0.930 . S
C110 N108 1.375 . S
C110 C109 1.338 . S
C110 H114 0.931 . S
C111 N108 1.313 . S
C111 N112 1.344 . S
C111 H115 0.930 . S
N112 C109 1.377 . S
N112 C111 1.344 . S
O113 Co105 2.055 1_655 S
O113 C117 1.242 1_655 S
H114 C110 0.931 . S
H115 C111 0.930 . S
O116 Co105 2.039 1_655 S
O116 C106 1.265 . S
C117 O113 1.242 1_455 S
C117 O118 1.247 . S
O118 C117 1.247 . S
N119 Co105 2.140 . S
N119 C122 1.346 . S
N119 C123 1.345 . S
C120 C121 1.387 . S
C120 C124 1.391 . S
C121 C120 1.387 . S
C121 C122 1.369 . S
C121 H130 0.929 . S
C122 N119 1.346 . S
C122 C121 1.369 . S
C122 H125 0.928 . S
C123 N119 1.345 . S
C123 C124 1.371 . S
C123 H126 0.931 . S
C124 C120 1.391 . S
C124 C123 1.371 . S
C124 H131 0.930 . S
H125 C122 0.928 . S
H126 C123 0.931 . S
H127 C103 0.930 . S
H128 C100 0.930 . S
H129 C109 0.930 . S
H130 C121 0.929 . S
H131 C124 0.930 . S
C132 C133 1.351 . S
C132 N135 1.368 . S
C132 H137 0.931 . S
C133 C132 1.351 . S
C133 N134 1.373 . S
C133 H161 0.930 . S
N134 C133 1.373 . S
N134 C136 1.340 . S
N135 C132 1.368 . S
N135 C136 1.321 . S
N135 Co138 2.135 . S
C136 N134 1.340 . S
C136 N135 1.321 . S
C136 H160 0.930 . S
H137 C132 0.931 . S
Co138 N135 2.135 . S
Co138 N141 2.121 . S
Co138 O146 2.055 . S
Co138 O149 2.039 . S
Co138 N152 2.140 . S
C139 O140 1.227 . S
C139 O149 1.265 . S
O140 C139 1.227 . S
N141 Co138 2.121 . S
N141 C143 1.375 . S
N141 C144 1.313 . S
C142 C143 1.338 . S
C142 N145 1.377 . S
C142 H162 0.930 . S
C143 N141 1.375 . S
C143 C142 1.338 . S
C143 H147 0.931 . S
C144 N141 1.313 . S
C144 N145 1.344 . S
C144 H148 0.930 . S
N145 C142 1.377 . S
N145 C144 1.344 . S
O146 Co138 2.055 . S
O146 C150 1.253 . S
H147 C143 0.931 . S
H148 C144 0.930 . S
O149 Co138 2.039 . S
O149 C139 1.265 . S
C150 O146 1.253 . S
C150 O151 1.227 . S
O151 C150 1.227 . S
N152 Co138 2.140 . S
N152 C155 1.346 . S
N152 C156 1.345 . S
C153 C154 1.387 . S
C153 C157 1.391 . S
C154 C153 1.387 . S
C154 C155 1.369 . S
C154 H163 0.929 . S
C155 N152 1.346 . S
C155 C154 1.369 . S
C155 H158 0.928 . S
C156 N152 1.345 . S
C156 C157 1.371 . S
C156 H159 0.931 . S
C157 C153 1.391 . S
C157 C156 1.371 . S
C157 H164 0.930 . S
H158 C155 0.928 . S
H159 C156 0.931 . S
H160 C136 0.930 . S
H161 C133 0.930 . S
H162 C142 0.930 . S
H163 C154 0.929 . S
H164 C157 0.930 . S
C165 C166 1.351 . S
C165 N168 1.368 . S
C165 H170 0.931 . S
C166 C165 1.351 . S
C166 N167 1.373 . S
C166 H194 0.930 . S
N167 C166 1.373 . S
N167 C169 1.340 . S
N168 C165 1.368 . S
N168 C169 1.321 . S
N168 Co171 2.135 . S
C169 N167 1.340 . S
C169 N168 1.321 . S
C169 H193 0.930 . S
H170 C165 0.931 . S
Co171 N168 2.135 . S
Co171 N174 2.121 1_545 S
Co171 O179 2.055 . S
Co171 O182 2.039 . S
Co171 N185 2.140 1_545 S
C172 O173 1.227 . S
C172 O182 1.265 . S
O173 C172 1.227 . S
N174 Co171 2.121 1_565 S
N174 C176 1.375 . S
N174 C177 1.313 . S
C175 C176 1.338 . S
C175 N178 1.377 . S
C175 H195 0.930 . S
C176 N174 1.375 . S
C176 C175 1.338 . S
C176 H180 0.931 . S
C177 N174 1.313 . S
C177 N178 1.344 . S
C177 H181 0.930 . S
N178 C175 1.377 . S
N178 C177 1.344 . S
O179 Co171 2.055 . S
O179 C183 1.253 . S
H180 C176 0.931 . S
H181 C177 0.930 . S
O182 Co171 2.039 . S
O182 C172 1.265 . S
C183 O179 1.253 . S
C183 O184 1.237 . S
O184 C183 1.237 . S
N185 Co171 2.140 1_565 S
N185 C188 1.346 . S
N185 C189 1.345 . S
C186 C187 1.387 . S
C186 C190 1.391 . S
C187 C186 1.387 . S
C187 C188 1.369 . S
C187 H196 0.929 . S
C188 N185 1.346 . S
C188 C187 1.369 . S
C188 H191 0.928 . S
C189 N185 1.345 . S
C189 C190 1.371 . S
C189 H192 0.931 . S
C190 C186 1.391 . S
C190 C189 1.371 . S
C190 H197 0.930 . S
H191 C188 0.928 . S
H192 C189 0.931 . S
H193 C169 0.930 . S
H194 C166 0.930 . S
H195 C175 0.930 . S
H196 C187 0.929 . S
H197 C190 0.930 . S
C198 C199 1.351 . S
C198 N201 1.368 . S
C198 H203 0.931 . S
C199 C198 1.351 . S
C199 N200 1.373 . S
C199 H227 0.930 . S
N200 C199 1.373 . S
N200 C202 1.340 . S
N201 C198 1.368 . S
N201 C202 1.321 . S
N201 Co204 2.135 . S
C202 N200 1.340 . S
C202 N201 1.321 . S
C202 H226 0.930 . S
H203 C198 0.931 . S
Co204 N201 2.135 . S
Co204 N207 2.121 . S
Co204 O212 2.055 . S
Co204 O215 2.039 . S
Co204 N218 2.140 . S
C205 O206 1.227 . S
C205 O215 1.265 . S
O206 C205 1.227 . S
N207 Co204 2.121 . S
N207 C209 1.375 . S
N207 C210 1.313 . S
C208 C209 1.338 . S
C208 N211 1.377 . S
C208 H228 0.930 . S
C209 N207 1.375 . S
C209 C208 1.338 . S
C209 H213 0.931 . S
C210 N207 1.313 . S
C210 N211 1.344 . S
C210 H214 0.930 . S
N211 C208 1.377 . S
N211 C210 1.344 . S
O212 Co204 2.055 . S
O212 C216 1.253 . S
H213 C209 0.931 . S
H214 C210 0.930 . S
O215 Co204 2.039 . S
O215 C205 1.265 . S
C216 O212 1.253 . S
C216 O217 1.227 . S
O217 C216 1.227 . S
N218 Co204 2.140 . S
N218 C221 1.346 . S
N218 C222 1.345 . S
C219 C220 1.387 . S
C219 C223 1.391 . S
C220 C219 1.387 . S
C220 C221 1.369 . S
C220 H229 0.929 . S
C221 N218 1.346 . S
C221 C220 1.369 . S
C221 H224 0.928 . S
C222 N218 1.345 . S
C222 C223 1.371 . S
C222 H225 0.931 . S
C223 C219 1.391 . S
C223 C222 1.371 . S
C223 H230 0.930 . S
H224 C221 0.928 . S
H225 C222 0.931 . S
H226 C202 0.930 . S
H227 C199 0.930 . S
H228 C208 0.930 . S
H229 C220 0.929 . S
H230 C223 0.930 . S
C231 C232 1.351 . S
C231 N234 1.368 . S
C231 H236 0.931 . S
C232 C231 1.351 . S
C232 N233 1.373 . S
C232 H260 0.930 . S
N233 C232 1.373 . S
N233 C235 1.340 . S
N234 C231 1.368 . S
N234 C235 1.321 . S
N234 Co237 2.135 . S
C235 N233 1.340 . S
C235 N234 1.321 . S
C235 H259 0.930 . S
H236 C231 0.931 . S
Co237 N234 2.135 . S
Co237 N240 2.121 . S
Co237 O245 2.055 . S
Co237 O248 2.039 . S
Co237 N251 2.140 . S
C238 O239 1.227 . S
C238 O248 1.265 . S
O239 C238 1.227 . S
N240 Co237 2.121 . S
N240 C242 1.375 . S
N240 C243 1.313 . S
C241 C242 1.338 . S
C241 N244 1.377 . S
C241 H261 0.930 . S
C242 N240 1.375 . S
C242 C241 1.338 . S
C242 H246 0.931 . S
C243 N240 1.313 . S
C243 N244 1.344 . S
C243 H247 0.930 . S
N244 C241 1.377 . S
N244 C243 1.344 . S
O245 Co237 2.055 . S
O245 C249 1.253 . S
H246 C242 0.931 . S
H247 C243 0.930 . S
O248 Co237 2.039 . S
O248 C238 1.265 . S
C249 O245 1.253 . S
C249 O250 1.227 . S
O250 C249 1.227 . S
N251 Co237 2.140 . S
N251 C254 1.346 . S
N251 C255 1.345 . S
C252 C253 1.387 . S
C252 C256 1.391 . S
C253 C252 1.387 . S
C253 C254 1.369 . S
C253 H262 0.929 . S
C254 N251 1.346 . S
C254 C253 1.369 . S
C254 H257 0.928 . S
C255 N251 1.345 . S
C255 C256 1.371 . S
C255 H258 0.931 . S
C256 C252 1.391 . S
C256 C255 1.371 . S
C256 H263 0.930 . S
H257 C254 0.928 . S
H258 C255 0.931 . S
H259 C235 0.930 . S
H260 C232 0.930 . S
H261 C241 0.930 . S
H262 C253 0.929 . S
H263 C256 0.930 . S
C264 C265 1.351 . S
C264 N267 1.368 . S
C264 H269 0.931 . S
C265 C264 1.351 . S
C265 N266 1.373 . S
C265 H293 0.930 . S
N266 C265 1.373 . S
N266 C268 1.340 . S
N267 C264 1.368 . S
N267 C268 1.321 . S
N267 Co270 2.135 . S
C268 N266 1.340 . S
C268 N267 1.321 . S
C268 H292 0.930 . S
H269 C264 0.931 . S
Co270 N267 2.135 . S
Co270 N273 2.121 . S
Co270 O278 2.055 . S
Co270 O281 2.039 . S
Co270 N284 2.140 . S
C271 O272 1.227 . S
C271 O281 1.265 . S
O272 C271 1.227 . S
N273 Co270 2.121 . S
N273 C275 1.375 . S
N273 C276 1.313 . S
C274 C275 1.338 . S
C274 N277 1.377 . S
C274 H294 0.930 . S
C275 N273 1.375 . S
C275 C274 1.338 . S
C275 H279 0.931 . S
C276 N273 1.313 . S
C276 N277 1.344 . S
C276 H280 0.930 . S
N277 C274 1.377 . S
N277 C276 1.344 . S
O278 Co270 2.055 . S
O278 C282 1.253 . S
H279 C275 0.931 . S
H280 C276 0.930 . S
O281 Co270 2.039 . S
O281 C271 1.265 . S
C282 O278 1.253 . S
C282 O283 1.227 . S
O283 C282 1.227 . S
N284 Co270 2.140 . S
N284 C287 1.346 . S
N284 C288 1.345 . S
C285 C286 1.387 . S
C285 C289 1.391 . S
C286 C285 1.387 . S
C286 C287 1.369 . S
C286 H295 0.929 . S
C287 N284 1.346 . S
C287 C286 1.369 . S
C287 H290 0.928 . S
C288 N284 1.345 . S
C288 C289 1.371 . S
C288 H291 0.931 . S
C289 C285 1.391 . S
C289 C288 1.371 . S
C289 H296 0.930 . S
H290 C287 0.928 . S
H291 C288 0.931 . S
H292 C268 0.930 . S
H293 C265 0.930 . S
H294 C274 0.930 . S
H295 C286 0.929 . S
H296 C289 0.930 . S
C297 C298 1.351 . S
C297 N300 1.368 . S
C297 H302 0.931 . S
C298 C297 1.351 . S
C298 N299 1.373 . S
C298 H326 0.930 . S
N299 C298 1.373 . S
N299 C301 1.340 . S
N300 C297 1.368 . S
N300 C301 1.321 . S
N300 Co303 2.135 . S
C301 N299 1.340 . S
C301 N300 1.321 . S
C301 H325 0.930 . S
H302 C297 0.931 . S
Co303 N300 2.135 . S
Co303 N306 2.121 . S
Co303 O311 2.055 . S
Co303 O314 2.039 . S
Co303 N317 2.140 . S
C304 O305 1.227 . S
C304 O314 1.265 1_556 S
O305 C304 1.227 . S
N306 Co303 2.121 . S
N306 C308 1.375 . S
N306 C309 1.313 . S
C307 C308 1.338 . S
C307 N310 1.377 . S
C307 H327 0.930 . S
C308 N306 1.375 . S
C308 C307 1.338 . S
C308 H312 0.931 1_554 S
C309 N306 1.313 . S
C309 N310 1.344 . S
C309 H313 0.930 . S
N310 C307 1.377 . S
N310 C309 1.344 . S
O311 Co303 2.055 . S
O311 C315 1.253 . S
H312 C308 0.931 1_556 S
H313 C309 0.930 . S
O314 Co303 2.039 . S
O314 C304 1.265 1_554 S
C315 O311 1.253 . S
C315 O316 1.227 . S
O316 C315 1.227 . S
N317 Co303 2.140 . S
N317 C320 1.346 . S
N317 C321 1.345 . S
C318 C319 1.387 . S
C318 C322 1.391 . S
C319 C318 1.387 . S
C319 C320 1.369 . S
C319 H328 0.929 . S
C320 N317 1.346 . S
C320 C319 1.369 . S
C320 H323 0.928 . S
C321 N317 1.345 . S
C321 C322 1.371 . S
C321 H324 0.931 . S
C322 C318 1.391 . S
C322 C321 1.371 . S
C322 H329 0.930 . S
H323 C320 0.928 . S
H324 C321 0.931 . S
H325 C301 0.930 . S
H326 C298 0.930 . S
H327 C307 0.930 . S
H328 C319 0.929 . S
H329 C322 0.930 . S
C330 C331 1.351 . S
C330 N333 1.368 . S
C330 H335 0.931 . S
C331 C330 1.351 . S
C331 N332 1.373 . S
C331 H359 0.930 . S
N332 C331 1.373 . S
N332 C334 1.340 . S
N333 C330 1.368 . S
N333 C334 1.321 . S
N333 Co336 2.135 . S
C334 N332 1.340 . S
C334 N333 1.321 . S
C334 H358 0.930 . S
H335 C330 0.931 . S
Co336 N333 2.135 . S
Co336 N339 2.121 . S
Co336 O344 2.055 . S
Co336 O347 2.039 . S
Co336 N350 2.140 . S
C337 O338 1.227 . S
C337 O347 1.265 1_556 S
O338 C337 1.227 . S
N339 Co336 2.121 . S
N339 C341 1.375 . S
N339 C342 1.313 . S
C340 C341 1.338 . S
C340 N343 1.377 . S
C340 H360 0.930 . S
C341 N339 1.375 . S
C341 C340 1.338 . S
C341 H345 0.931 1_554 S
C342 N339 1.313 . S
C342 N343 1.344 . S
C342 H346 0.930 . S
N343 C340 1.377 . S
N343 C342 1.344 . S
O344 Co336 2.055 . S
O344 C348 1.253 . S
H345 C341 0.931 1_556 S
H346 C342 0.930 . S
O347 Co336 2.039 . S
O347 C337 1.265 1_554 S
C348 O344 1.253 . S
C348 O349 1.227 . S
O349 C348 1.227 . S
N350 Co336 2.140 . S
N350 C353 1.346 . S
N350 C354 1.345 . S
C351 C352 1.387 . S
C351 C355 1.391 . S
C352 C351 1.387 . S
C352 C353 1.369 . S
C352 H361 0.929 . S
C353 N350 1.346 . S
C353 C352 1.369 . S
C353 H356 0.928 . S
C354 N350 1.345 . S
C354 C355 1.371 . S
C354 H357 0.931 . S
C355 C351 1.391 . S
C355 C354 1.371 . S
C355 H362 0.930 . S
H356 C353 0.928 . S
H357 C354 0.931 . S
H358 C334 0.930 . S
H359 C331 0.930 . S
H360 C340 0.930 . S
H361 C352 0.929 . S
H362 C355 0.930 . S
C363 C364 1.351 . S
C363 N366 1.368 . S
C363 H368 0.931 . S
C364 C363 1.351 . S
C364 N365 1.373 . S
C364 H392 0.930 . S
N365 C364 1.373 . S
N365 C367 1.340 . S
N366 C363 1.368 . S
N366 C367 1.321 . S
N366 Co369 2.135 . S
C367 N365 1.340 . S
C367 N366 1.321 . S
C367 H391 0.930 . S
H368 C363 0.931 . S
Co369 N366 2.135 . S
Co369 N372 2.121 . S
Co369 O377 2.055 . S
Co369 O380 2.039 . S
Co369 N383 2.140 . S
C370 O371 1.227 . S
C370 O380 1.265 1_556 S
O371 C370 1.227 . S
N372 Co369 2.121 . S
N372 C374 1.375 . S
N372 C375 1.313 . S
C373 C374 1.338 . S
C373 N376 1.377 . S
C373 H393 0.930 . S
C374 N372 1.375 . S
C374 C373 1.338 . S
C374 H378 0.931 1_554 S
C375 N372 1.313 . S
C375 N376 1.344 . S
C375 H379 0.930 . S
N376 C373 1.377 . S
N376 C375 1.344 . S
O377 Co369 2.055 . S
O377 C381 1.253 . S
H378 C374 0.931 1_556 S
H379 C375 0.930 . S
O380 Co369 2.039 . S
O380 C370 1.265 1_554 S
C381 O377 1.253 . S
C381 O382 1.227 . S
O382 C381 1.227 . S
N383 Co369 2.140 . S
N383 C386 1.346 . S
N383 C387 1.345 . S
C384 C385 1.387 . S
C384 C388 1.391 . S
C385 C384 1.387 . S
C385 C386 1.369 . S
C385 H394 0.929 . S
C386 N383 1.346 . S
C386 C385 1.369 . S
C386 H389 0.928 . S
C387 N383 1.345 . S
C387 C388 1.371 . S
C387 H390 0.931 . S
C388 C384 1.391 . S
C388 C387 1.371 . S
C388 H395 0.930 . S
H389 C386 0.928 . S
H390 C387 0.931 . S
H391 C367 0.930 . S
H392 C364 0.930 . S
H393 C373 0.930 . S
H394 C385 0.929 . S
H395 C388 0.930 . S
C396 C397 1.351 . S
C396 N399 1.368 . S
C396 H401 0.931 . S
C397 C396 1.351 . S
C397 N398 1.373 . S
C397 H425 0.930 . S
N398 C397 1.373 . S
N398 C400 1.340 . S
N399 C396 1.368 . S
N399 C400 1.321 . S
N399 Co402 2.135 . S
C400 N398 1.340 . S
C400 N399 1.321 . S
C400 H424 0.930 . S
H401 C396 0.931 . S
Co402 N399 2.135 . S
Co402 N405 2.121 . S
Co402 O410 2.055 . S
Co402 O413 2.039 . S
Co402 N416 2.140 . S
C403 O404 1.227 . S
C403 O413 1.265 1_554 S
O404 C403 1.227 . S
N405 Co402 2.121 . S
N405 C407 1.375 . S
N405 C408 1.313 . S
C406 C407 1.338 . S
C406 N409 1.377 . S
C406 H426 0.930 . S
C407 N405 1.375 . S
C407 C406 1.338 . S
C407 H411 0.931 1_556 S
C408 N405 1.313 . S
C408 N409 1.344 . S
C408 H412 0.930 . S
N409 C406 1.377 . S
N409 C408 1.344 . S
O410 Co402 2.055 . S
O410 C414 1.253 . S
H411 C407 0.931 1_554 S
H412 C408 0.930 . S
O413 Co402 2.039 . S
O413 C403 1.265 1_556 S
C414 O410 1.253 . S
C414 O415 1.227 . S
O415 C414 1.227 . S
N416 Co402 2.140 . S
N416 C419 1.346 . S
N416 C420 1.345 . S
C417 C418 1.387 . S
C417 C421 1.391 . S
C418 C417 1.387 . S
C418 C419 1.369 . S
C418 H427 0.929 . S
C419 N416 1.346 . S
C419 C418 1.369 . S
C419 H422 0.928 . S
C420 N416 1.345 . S
C420 C421 1.371 . S
C420 H423 0.931 . S
C421 C417 1.391 . S
C421 C420 1.371 . S
C421 H428 0.930 . S
H422 C419 0.928 . S
H423 C420 0.931 . S
H424 C400 0.930 . S
H425 C397 0.930 . S
H426 C406 0.930 . S
H427 C418 0.929 . S
H428 C421 0.930 . S
C429 C430 1.351 . S
C429 N432 1.368 . S
C429 H434 0.931 . S
C430 C429 1.351 . S
C430 N431 1.373 . S
C430 H458 0.930 . S
N431 C430 1.373 . S
N431 C433 1.340 . S
N432 C429 1.368 . S
N432 C433 1.321 . S
N432 Co435 2.135 . S
C433 N431 1.340 . S
C433 N432 1.321 . S
C433 H457 0.930 . S
H434 C429 0.931 . S
Co435 N432 2.135 . S
Co435 N438 2.121 . S
Co435 O443 2.055 . S
Co435 O446 2.039 . S
Co435 N449 2.140 . S
C436 O437 1.227 . S
C436 O446 1.265 1_554 S
O437 C436 1.227 . S
N438 Co435 2.121 . S
N438 C440 1.375 . S
N438 C441 1.313 . S
C439 C440 1.338 . S
C439 N442 1.377 . S
C439 H459 0.930 . S
C440 N438 1.375 . S
C440 C439 1.338 . S
C440 H444 0.931 1_556 S
C441 N438 1.313 . S
C441 N442 1.344 . S
C441 H445 0.930 . S
N442 C439 1.377 . S
N442 C441 1.344 . S
O443 Co435 2.055 . S
O443 C447 1.253 . S
H444 C440 0.931 1_554 S
H445 C441 0.930 . S
O446 Co435 2.039 . S
O446 C436 1.265 1_556 S
C447 O443 1.253 . S
C447 O448 1.227 . S
O448 C447 1.227 . S
N449 Co435 2.140 . S
N449 C452 1.346 . S
N449 C453 1.345 . S
C450 C451 1.387 . S
C450 C454 1.391 . S
C451 C450 1.387 . S
C451 C452 1.369 . S
C451 H460 0.929 . S
C452 N449 1.346 . S
C452 C451 1.369 . S
C452 H455 0.928 . S
C453 N449 1.345 . S
C453 C454 1.371 . S
C453 H456 0.931 . S
C454 C450 1.391 . S
C454 C453 1.371 . S
C454 H461 0.930 . S
H455 C452 0.928 . S
H456 C453 0.931 . S
H457 C433 0.930 . S
H458 C430 0.930 . S
H459 C439 0.930 . S
H460 C451 0.929 . S
H461 C454 0.930 . S
C462 C463 1.351 . S
C462 N465 1.368 . S
C462 H467 0.931 . S
C463 C462 1.351 . S
C463 N464 1.373 . S
C463 H491 0.930 . S
N464 C463 1.373 . S
N464 C466 1.340 . S
N465 C462 1.368 . S
N465 C466 1.321 . S
N465 Co468 2.135 . S
C466 N464 1.340 . S
C466 N465 1.321 . S
C466 H490 0.930 . S
H467 C462 0.931 . S
Co468 N465 2.135 . S
Co468 N471 2.121 . S
Co468 O476 2.055 . S
Co468 O479 2.039 . S
Co468 N482 2.140 . S
C469 O470 1.227 . S
C469 O479 1.265 1_554 S
O470 C469 1.227 . S
N471 Co468 2.121 . S
N471 C473 1.375 . S
N471 C474 1.313 . S
C472 C473 1.338 . S
C472 N475 1.377 . S
C472 H492 0.930 . S
C473 N471 1.375 . S
C473 C472 1.338 . S
C473 H477 0.931 1_556 S
C474 N471 1.313 . S
C474 N475 1.344 . S
C474 H478 0.930 . S
N475 C472 1.377 . S
N475 C474 1.344 . S
O476 Co468 2.055 . S
O476 C480 1.253 . S
H477 C473 0.931 1_554 S
H478 C474 0.930 . S
O479 Co468 2.039 . S
O479 C469 1.265 1_556 S
C480 O476 1.253 . S
C480 O481 1.227 . S
O481 C480 1.227 . S
N482 Co468 2.140 . S
N482 C485 1.346 . S
N482 C486 1.345 . S
C483 C484 1.387 . S
C483 C487 1.391 . S
C484 C483 1.387 . S
C484 C485 1.369 . S
C484 H493 0.929 . S
C485 N482 1.346 . S
C485 C484 1.369 . S
C485 H488 0.928 . S
C486 N482 1.345 . S
C486 C487 1.371 . S
C486 H489 0.931 . S
C487 C483 1.391 . S
C487 C486 1.371 . S
C487 H494 0.930 . S
H488 C485 0.928 . S
H489 C486 0.931 . S
H490 C466 0.930 . S
H491 C463 0.930 . S
H492 C472 0.930 . S
H493 C484 0.929 . S
H494 C487 0.930 . S
C495 C496 1.351 . S
C495 N498 1.368 . S
C495 H500 0.931 . S
C496 C495 1.351 . S
C496 N497 1.373 . S
C496 H524 0.930 . S
N497 C496 1.373 . S
N497 C499 1.340 . S
N498 C495 1.368 . S
N498 C499 1.321 . S
N498 Co501 2.135 . S
C499 N497 1.340 . S
C499 N498 1.321 . S
C499 H523 0.930 . S
H500 C495 0.931 . S
Co501 N498 2.135 . S
Co501 N504 2.121 . S
Co501 O509 2.055 . S
Co501 O512 2.039 . S
Co501 N515 2.140 . S
C502 O503 1.227 . S
C502 O512 1.265 . S
O503 C502 1.227 . S
N504 Co501 2.121 . S
N504 C506 1.375 . S
N504 C507 1.313 . S
C505 C506 1.338 . S
C505 N508 1.377 . S
C505 H525 0.930 . S
C506 N504 1.375 . S
C506 C505 1.338 . S
C506 H510 0.931 . S
C507 N504 1.313 . S
C507 N508 1.344 . S
C507 H511 0.930 . S
N508 C505 1.377 . S
N508 C507 1.344 . S
O509 Co501 2.055 . S
O509 C513 1.253 . S
H510 C506 0.931 . S
H511 C507 0.930 . S
O512 Co501 2.039 . S
O512 C502 1.265 . S
C513 O509 1.253 . S
C513 O514 1.227 . S
O514 C513 1.227 . S
N515 Co501 2.140 . S
N515 C518 1.346 . S
N515 C519 1.345 . S
C516 C517 1.387 . S
C516 C520 1.391 . S
C517 C516 1.387 . S
C517 C518 1.369 . S
C517 H526 0.929 . S
C518 N515 1.346 . S
C518 C517 1.369 . S
C518 H521 0.928 . S
C519 N515 1.345 . S
C519 C520 1.371 . S
C519 H522 0.931 . S
C520 C516 1.391 . S
C520 C519 1.371 . S
C520 H527 0.930 . S
H521 C518 0.928 . S
H522 C519 0.931 . S
H523 C499 0.930 . S
H524 C496 0.930 . S
H525 C505 0.930 . S
H526 C517 0.929 . S
H527 C520 0.930 . S
C528 C529 1.351 . S
C528 N531 1.368 . S
C528 H533 0.931 . S
C529 C528 1.351 . S
C529 N530 1.373 . S
C529 H557 0.930 . S
N530 C529 1.373 . S
N530 C532 1.340 . S
N531 C528 1.368 . S
N531 C532 1.321 . S
N531 Co534 2.135 . S
C532 N530 1.340 . S
C532 N531 1.321 . S
C532 H556 0.930 . S
H533 C528 0.931 . S
Co534 N531 2.135 . S
Co534 N537 2.121 . S
Co534 O542 2.055 . S
Co534 O545 2.039 . S
Co534 N548 2.140 . S
C535 O536 1.227 . S
C535 O545 1.265 . S
O536 C535 1.227 . S
N537 Co534 2.121 . S
N537 C539 1.375 . S
N537 C540 1.313 . S
C538 C539 1.338 . S
C538 N541 1.377 . S
C538 H558 0.930 . S
C539 N537 1.375 . S
C539 C538 1.338 . S
C539 H543 0.931 . S
C540 N537 1.313 . S
C540 N541 1.344 . S
C540 H544 0.930 . S
N541 C538 1.377 . S
N541 C540 1.344 . S
O542 Co534 2.055 . S
O542 C546 1.253 . S
H543 C539 0.931 . S
H544 C540 0.930 . S
O545 Co534 2.039 . S
O545 C535 1.265 . S
C546 O542 1.253 . S
C546 O547 1.227 . S
O547 C546 1.227 . S
N548 Co534 2.140 . S
N548 C551 1.346 . S
N548 C552 1.345 . S
C549 C550 1.387 . S
C549 C553 1.391 . S
C550 C549 1.387 . S
C550 C551 1.369 . S
C550 H559 0.929 . S
C551 N548 1.346 . S
C551 C550 1.369 . S
C551 H554 0.928 . S
C552 N548 1.345 . S
C552 C553 1.371 . S
C552 H555 0.931 . S
C553 C549 1.391 . S
C553 C552 1.371 . S
C553 H560 0.930 . S
H554 C551 0.928 . S
H555 C552 0.931 . S
H556 C532 0.930 . S
H557 C529 0.930 . S
H558 C538 0.930 . S
H559 C550 0.929 . S
H560 C553 0.930 . S
C561 C562 1.351 . S
C561 N564 1.368 . S
C561 H566 0.931 . S
C562 C561 1.351 . S
C562 N563 1.373 . S
C562 H590 0.930 . S
N563 C562 1.373 . S
N563 C565 1.340 . S
N564 C561 1.368 . S
N564 C565 1.321 . S
N564 Co567 2.135 . S
C565 N563 1.340 . S
C565 N564 1.321 . S
C565 H589 0.930 . S
H566 C561 0.931 . S
Co567 N564 2.135 . S
Co567 N570 2.121 . S
Co567 O575 2.055 . S
Co567 O578 2.039 . S
Co567 N581 2.140 . S
C568 O569 1.227 . S
C568 O578 1.265 . S
O569 C568 1.227 . S
N570 Co567 2.121 . S
N570 C572 1.375 . S
N570 C573 1.313 . S
C571 C572 1.338 . S
C571 N574 1.377 . S
C571 H591 0.930 . S
C572 N570 1.375 . S
C572 C571 1.338 . S
C572 H576 0.931 . S
C573 N570 1.313 . S
C573 N574 1.344 . S
C573 H577 0.930 . S
N574 C571 1.377 . S
N574 C573 1.344 . S
O575 Co567 2.055 . S
O575 C579 1.253 . S
H576 C572 0.931 . S
H577 C573 0.930 . S
O578 Co567 2.039 . S
O578 C568 1.265 . S
C579 O575 1.253 . S
C579 O580 1.227 . S
O580 C579 1.227 . S
N581 Co567 2.140 . S
N581 C584 1.346 . S
N581 C585 1.345 . S
C582 C583 1.387 . S
C582 C586 1.391 . S
C583 C582 1.387 . S
C583 C584 1.369 . S
C583 H592 0.929 . S
C584 N581 1.346 . S
C584 C583 1.369 . S
C584 H587 0.928 . S
C585 N581 1.345 . S
C585 C586 1.371 . S
C585 H588 0.931 . S
C586 C582 1.391 . S
C586 C585 1.371 . S
C586 H593 0.930 . S
H587 C584 0.928 . S
H588 C585 0.931 . S
H589 C565 0.930 . S
H590 C562 0.930 . S
H591 C571 0.930 . S
H592 C583 0.929 . S
H593 C586 0.930 . S
C594 C595 1.387 . S
C594 H598 0.950 . S
C594 C603 1.390 . S
C595 C594 1.387 . S
C595 C597 1.387 . S
H596 C603 0.950 . S
C597 C595 1.387 . S
C597 C599 1.390 . S
C597 H601 0.950 . S
H598 C594 0.950 . S
C599 C597 1.390 . S
C599 C600 1.387 . S
C599 H602 0.950 . S
C600 C599 1.387 . S
C600 C603 1.387 . S
H601 C597 0.950 . S
H602 C599 0.950 . S
C603 C594 1.390 . S
C603 H596 0.950 . S
C603 C600 1.387 . S
C604 C605 1.387 . S
C604 H608 0.950 . S
C604 C613 1.390 1_565 S
C605 C604 1.387 . S
C605 C607 1.387 . S
H606 C613 0.950 . S
C607 C605 1.387 . S
C607 C609 1.390 1_565 S
C607 H611 0.950 . S
H608 C604 0.950 . S
C609 C607 1.390 1_545 S
C609 C610 1.387 . S
C609 H612 0.950 . S
C610 C609 1.387 . S
C610 C613 1.387 . S
H611 C607 0.950 . S
H612 C609 0.950 . S
C613 C604 1.390 1_545 S
C613 H606 0.950 . S
C613 C610 1.387 . S
C614 C615 1.393 . S
C614 H618 0.959 . S
C614 C623 1.376 1_655 S
C615 C614 1.393 . S
C615 C617 1.387 1_655 S
H616 C623 0.950 . S
C617 C615 1.387 1_455 S
C617 C619 1.390 . S
C617 H621 0.950 1_455 S
H618 C614 0.959 . S
C619 C617 1.390 . S
C619 C620 1.387 . S
C619 H622 0.950 . S
C620 C619 1.387 . S
C620 C623 1.387 . S
H621 C617 0.950 1_655 S
H622 C619 0.950 . S
C623 C614 1.376 1_455 S
C623 H616 0.950 . S
C623 C620 1.387 . S
C624 C625 1.387 . S
C624 H628 0.950 . S
C624 C633 1.390 . S
C625 C624 1.387 . S
C625 C627 1.387 . S
H626 C633 0.950 . S
C627 C625 1.387 . S
C627 C629 1.390 . S
C627 H631 0.950 . S
H628 C624 0.950 . S
C629 C627 1.390 . S
C629 C630 1.387 . S
C629 H632 0.950 . S
C630 C629 1.387 . S
C630 C633 1.387 . S
H631 C627 0.950 . S
H632 C629 0.950 . S
C633 C624 1.390 . S
C633 H626 0.950 . S
C633 C630 1.387 . S
C634 C635 1.387 . S
C634 H638 0.950 . S
C634 C643 1.390 . S
C635 C634 1.387 . S
C635 C637 1.387 . S
H636 C643 0.950 1_565 S
C637 C635 1.387 . S
C637 C639 1.390 . S
C637 H641 0.950 . S
H638 C634 0.950 . S
C639 C637 1.390 . S
C639 C640 1.387 1_545 S
C639 H642 0.950 1_545 S
C640 C639 1.387 1_565 S
C640 C643 1.387 1_565 S
H641 C637 0.950 . S
H642 C639 0.950 1_565 S
C643 C634 1.390 . S
C643 H636 0.950 1_545 S
C643 C640 1.387 1_545 S
C644 C645 1.387 . S
C644 H648 0.950 . S
C644 C653 1.390 1_455 S
C645 C644 1.387 . S
C645 C647 1.387 . S
H646 C653 0.950 . S
C647 C645 1.387 . S
C647 C649 1.390 1_455 S
C647 H651 0.950 . S
H648 C644 0.950 . S
C649 C647 1.390 1_655 S
C649 C650 1.387 . S
C649 H652 0.950 . S
C650 C649 1.387 . S
C650 C653 1.387 . S
H651 C647 0.950 . S
H652 C649 0.950 . S
C653 C644 1.390 1_655 S
C653 H646 0.950 . S
C653 C650 1.387 . S
C654 C655 1.387 . S
C654 H658 0.950 . S
C654 C663 1.390 . S
C655 C654 1.387 . S
C655 C657 1.387 . S
H656 C663 0.950 . S
C657 C655 1.387 . S
C657 C659 1.390 . S
C657 H661 0.950 . S
H658 C654 0.950 . S
C659 C657 1.390 . S
C659 C660 1.387 . S
C659 H662 0.950 . S
C660 C659 1.387 . S
C660 C663 1.387 . S
H661 C657 0.950 . S
H662 C659 0.950 . S
C663 C654 1.390 . S
C663 H656 0.950 . S
C663 C660 1.387 . S
C664 C665 1.387 . S
C664 H668 0.950 . S
C664 C673 1.390 . S
C665 C664 1.387 . S
C665 C667 1.387 . S
H666 C673 0.950 . S
C667 C665 1.387 . S
C667 C669 1.390 . S
C667 H671 0.950 . S
H668 C664 0.950 . S
C669 C667 1.390 . S
C669 C670 1.387 . S
C669 H672 0.950 . S
C670 C669 1.387 . S
C670 C673 1.387 . S
H671 C667 0.950 . S
H672 C669 0.950 . S
C673 C664 1.390 . S
C673 H666 0.950 . S
C673 C670 1.387 . S
C674 C675 1.387 . S
C674 H678 0.950 . S
C674 C683 1.390 . S
C675 C674 1.387 . S
C675 C677 1.387 . S
H676 C683 0.950 . S
C677 C675 1.387 . S
C677 C679 1.390 . S
C677 H681 0.950 . S
H678 C674 0.950 . S
C679 C677 1.390 . S
C679 C680 1.387 . S
C679 H682 0.950 . S
C680 C679 1.387 . S
C680 C683 1.387 . S
H681 C677 0.950 . S
H682 C679 0.950 . S
C683 C674 1.390 . S
C683 H676 0.950 . S
C683 C680 1.387 . S
C684 C685 1.387 . S
C684 H688 0.950 1_554 S
C684 C693 1.390 . S
C685 C684 1.387 . S
C685 C687 1.387 . S
H686 C693 0.950 1_556 S
C687 C685 1.387 . S
C687 C689 1.390 . S
C687 H691 0.950 . S
H688 C684 0.950 1_556 S
C689 C687 1.390 . S
C689 C690 1.387 . S
C689 H692 0.950 . S
C690 C689 1.387 . S
C690 C693 1.387 . S
H691 C687 0.950 . S
H692 C689 0.950 . S
C693 C684 1.390 . S
C693 H686 0.950 1_554 S
C693 C690 1.387 . S
C694 C695 1.387 . S
C694 H698 0.950 . S
C694 C703 1.390 . S
C695 C694 1.387 . S
C695 C697 1.387 . S
H696 C703 0.950 . S
C697 C695 1.387 . S
C697 C699 1.390 . S
C697 H701 0.950 1_554 S
H698 C694 0.950 . S
C699 C697 1.390 . S
C699 C700 1.387 . S
C699 H702 0.950 1_554 S
C700 C699 1.387 . S
C700 C703 1.387 . S
H701 C697 0.950 1_556 S
H702 C699 0.950 1_556 S
C703 C694 1.390 . S
C703 H696 0.950 . S
C703 C700 1.387 . S
C704 C705 1.387 . S
C704 H708 0.950 1_554 S
C704 C713 1.390 . S
C705 C704 1.387 . S
C705 C707 1.387 . S
H706 C713 0.950 1_556 S
C707 C705 1.387 . S
C707 C709 1.390 . S
C707 H711 0.950 . S
H708 C704 0.950 1_556 S
C709 C707 1.390 . S
C709 C710 1.387 . S
C709 H712 0.950 . S
C710 C709 1.387 . S
C710 C713 1.387 . S
H711 C707 0.950 . S
H712 C709 0.950 . S
C713 C704 1.390 . S
C713 H706 0.950 1_554 S
C713 C710 1.387 . S
C714 C715 1.387 . S
C714 H718 0.950 . S
C714 C723 1.390 . S
C715 C714 1.387 . S
C715 C717 1.387 . S
H716 C723 0.950 . S
C717 C715 1.387 . S
C717 C719 1.390 . S
C717 H721 0.950 1_556 S
H718 C714 0.950 . S
C719 C717 1.390 . S
C719 C720 1.387 . S
C719 H722 0.950 1_556 S
C720 C719 1.387 . S
C720 C723 1.387 . S
H721 C717 0.950 1_554 S
H722 C719 0.950 1_554 S
C723 C714 1.390 . S
C723 H716 0.950 . S
C723 C720 1.387 . S
C724 C725 1.387 . S
C724 H728 0.950 . S
C724 C733 1.390 . S
C725 C724 1.387 . S
C725 C727 1.387 . S
H726 C733 0.950 . S
C727 C725 1.387 . S
C727 C729 1.390 . S
C727 H731 0.950 1_556 S
H728 C724 0.950 . S
C729 C727 1.390 . S
C729 C730 1.387 . S
C729 H732 0.950 1_556 S
C730 C729 1.387 . S
C730 C733 1.387 . S
H731 C727 0.950 1_554 S
H732 C729 0.950 1_554 S
C733 C724 1.390 . S
C733 H726 0.950 . S
C733 C730 1.387 . S
C734 C735 1.387 . S
C734 H738 0.950 1_556 S
C734 C743 1.390 . S
C735 C734 1.387 . S
C735 C737 1.387 . S
H736 C743 0.950 1_554 S
C737 C735 1.387 . S
C737 C739 1.390 . S
C737 H741 0.950 . S
H738 C734 0.950 1_554 S
C739 C737 1.390 . S
C739 C740 1.387 . S
C739 H742 0.950 . S
C740 C739 1.387 . S
C740 C743 1.387 . S
H741 C737 0.950 . S
H742 C739 0.950 . S
C743 C734 1.390 . S
C743 H736 0.950 1_556 S
C743 C740 1.387 . S
C744 C745 1.387 . S
C744 H748 0.950 . S
C744 C753 1.390 . S
C745 C744 1.387 . S
C745 C747 1.387 . S
H746 C753 0.950 . S
C747 C745 1.387 . S
C747 C749 1.390 . S
C747 H751 0.950 . S
H748 C744 0.950 . S
C749 C747 1.390 . S
C749 C750 1.387 . S
C749 H752 0.950 . S
C750 C749 1.387 . S
C750 C753 1.387 . S
H751 C747 0.950 . S
H752 C749 0.950 . S
C753 C744 1.390 . S
C753 H746 0.950 . S
C753 C750 1.387 . S
C754 C755 1.387 . S
C754 H758 0.950 . S
C754 C763 1.390 . S
C755 C754 1.387 . S
C755 C757 1.387 . S
H756 C763 0.950 . S
C757 C755 1.387 . S
C757 C759 1.390 . S
C757 H761 0.950 . S
H758 C754 0.950 . S
C759 C757 1.390 . S
C759 C760 1.387 . S
C759 H762 0.950 . S
C760 C759 1.387 . S
C760 C763 1.387 . S
H761 C757 0.950 . S
H762 C759 0.950 . S
C763 C754 1.390 . S
C763 H756 0.950 . S
C763 C760 1.387 . S
C764 C765 1.387 . S
C764 H768 0.950 . S
C764 C773 1.390 . S
C765 C764 1.387 . S
C765 C767 1.387 . S
H766 C773 0.950 . S
C767 C765 1.387 . S
C767 C769 1.390 . S
C767 H771 0.950 . S
H768 C764 0.950 . S
C769 C767 1.390 . S
C769 C770 1.387 . S
C769 H772 0.950 . S
C770 C769 1.387 . S
C770 C773 1.387 . S
H771 C767 0.950 . S
H772 C769 0.950 . S
C773 C764 1.390 . S
C773 H766 0.950 . S
C773 C770 1.387 . S
C774 C775 1.387 . S
C774 H778 0.950 . S
C774 C783 1.390 . S
C775 C774 1.387 . S
C775 C777 1.387 . S
H776 C783 0.950 . S
C777 C775 1.387 . S
C777 C779 1.390 . S
C777 H781 0.950 . S
H778 C774 0.950 . S
C779 C777 1.390 . S
C779 C780 1.387 . S
C779 H782 0.950 . S
C780 C779 1.387 . S
C780 C783 1.387 . S
H781 C777 0.950 . S
H782 C779 0.950 . S
C783 C774 1.390 . S
C783 H776 0.950 . S
C783 C780 1.387 . S
C784 C785 1.387 . S
C784 H788 0.950 . S
C784 C793 1.390 . S
C785 C784 1.387 . S
C785 C787 1.387 . S
H786 C793 0.950 . S
C787 C785 1.387 . S
C787 C789 1.390 . S
C787 H791 0.950 . S
H788 C784 0.950 . S
C789 C787 1.390 . S
C789 C790 1.387 . S
C789 H792 0.950 . S
C790 C789 1.387 . S
C790 C793 1.387 . S
H791 C787 0.950 . S
H792 C789 0.950 . S
C793 C784 1.390 . S
C793 H786 0.950 . S
C793 C790 1.387 . S
C794 C795 1.387 . S
C794 H798 0.950 . S
C794 C803 1.390 . S
C795 C794 1.387 . S
C795 C797 1.387 . S
H796 C803 0.950 . S
C797 C795 1.387 . S
C797 C799 1.390 . S
C797 H801 0.950 . S
H798 C794 0.950 . S
C799 C797 1.390 . S
C799 C800 1.387 . S
C799 H802 0.950 . S
C800 C799 1.387 . S
C800 C803 1.387 . S
H801 C797 0.950 . S
H802 C799 0.950 . S
C803 C794 1.390 . S
C803 H796 0.950 . S
C803 C800 1.387 . S
C804 C805 1.387 . S
C804 H808 0.950 . S
C804 C813 1.390 . S
C805 C804 1.387 . S
C805 C807 1.387 . S
H806 C813 0.950 . S
C807 C805 1.387 . S
C807 C809 1.390 . S
C807 H811 0.950 . S
H808 C804 0.950 . S
C809 C807 1.390 . S
C809 C810 1.387 . S
C809 H812 0.950 . S
C810 C809 1.387 . S
C810 C813 1.387 . S
H811 C807 0.950 . S
H812 C809 0.950 . S
C813 C804 1.390 . S
C813 H806 0.950 . S
C813 C810 1.387 . S
C814 C815 1.387 . S
C814 H818 0.950 . S
C814 C823 1.390 . S
C815 C814 1.387 . S
C815 C817 1.387 . S
H816 C823 0.950 . S
C817 C815 1.387 . S
C817 C819 1.390 . S
C817 H821 0.950 . S
H818 C814 0.950 . S
C819 C817 1.390 . S
C819 C820 1.387 . S
C819 H822 0.950 . S
C820 C819 1.387 . S
C820 C823 1.387 . S
H821 C817 0.950 . S
H822 C819 0.950 . S
C823 C814 1.390 . S
C823 H816 0.950 . S
C823 C820 1.387 . S
C824 C825 1.387 . S
C824 H828 0.950 . S
C824 C833 1.390 . S
C825 C824 1.387 . S
C825 C827 1.387 . S
H826 C833 0.950 . S
C827 C825 1.387 . S
C827 C829 1.390 . S
C827 H831 0.950 . S
H828 C824 0.950 . S
C829 C827 1.390 . S
C829 C830 1.387 . S
C829 H832 0.950 . S
C830 C829 1.387 . S
C830 C833 1.387 . S
H831 C827 0.950 . S
H832 C829 0.950 . S
C833 C824 1.390 . S
C833 H826 0.950 . S
C833 C830 1.387 . S
C834 C835 1.387 1_455 S
C834 H838 0.950 . S
C834 C843 1.390 . S
C835 C834 1.387 1_655 S
C835 C837 1.387 . S
H836 C843 0.950 . S
C837 C835 1.387 . S
C837 C839 1.390 1_655 S
C837 H841 0.950 . S
H838 C834 0.950 . S
C839 C837 1.390 1_455 S
C839 C840 1.387 . S
C839 H842 0.950 . S
C840 C839 1.387 . S
C840 C843 1.387 . S
H841 C837 0.950 . S
H842 C839 0.950 . S
C843 C834 1.390 . S
C843 H836 0.950 . S
C843 C840 1.387 . S
C844 C845 1.387 . S
C844 H848 0.950 . S
C844 C853 1.390 . S
C845 C844 1.387 . S
C845 C847 1.387 . S
H846 C853 0.950 . S
C847 C845 1.387 . S
C847 C849 1.390 . S
C847 H851 0.950 . S
H848 C844 0.950 . S
C849 C847 1.390 . S
C849 C850 1.387 . S
C849 H852 0.950 . S
C850 C849 1.387 . S
C850 C853 1.387 . S
H851 C847 0.950 . S
H852 C849 0.950 . S
C853 C844 1.390 . S
C853 H846 0.950 . S
C853 C850 1.387 . S
C854 C855 1.387 . S
C854 H858 0.950 . S
C854 C863 1.390 1_565 S
C855 C854 1.387 . S
C855 C857 1.387 . S
H856 C863 0.950 . S
C857 C855 1.387 . S
C857 C859 1.390 1_565 S
C857 H861 0.950 . S
H858 C854 0.950 . S
C859 C857 1.390 1_545 S
C859 C860 1.387 . S
C859 H862 0.950 . S
C860 C859 1.387 . S
C860 C863 1.387 . S
H861 C857 0.950 . S
H862 C859 0.950 . S
C863 C854 1.390 1_545 S
C863 H856 0.950 . S
C863 C860 1.387 . S
C864 C865 1.394 . S
C864 H868 0.950 . S
C864 C873 1.390 . S
C865 C864 1.394 . S
C865 C867 1.384 . S
H866 C873 0.950 . S
C867 C865 1.384 . S
C867 C869 1.390 . S
C867 H871 0.950 . S
H868 C864 0.950 . S
C869 C867 1.390 . S
C869 C870 1.387 . S
C869 H872 0.950 . S
C870 C869 1.387 . S
C870 C873 1.387 . S
H871 C867 0.950 . S
H872 C869 0.950 . S
C873 C864 1.390 . S
C873 H866 0.950 . S
C873 C870 1.387 . S
C874 C875 1.387 1_655 S
C874 H878 0.950 . S
C874 C883 1.380 1_655 S
C875 C874 1.387 1_455 S
C875 C877 1.388 . S
H876 C883 0.929 1_655 S
C877 C875 1.388 . S
C877 C879 1.390 . S
C877 H881 0.950 . S
H878 C874 0.950 . S
C879 C877 1.390 . S
C879 C880 1.387 . S
C879 H882 0.950 . S
C880 C879 1.387 . S
C880 C883 1.419 . S
H881 C877 0.950 . S
H882 C879 0.950 . S
C883 C874 1.380 1_455 S
C883 H876 0.929 1_455 S
C883 C880 1.419 . S
C884 C885 1.387 . S
C884 H888 0.950 . S
C884 C893 1.390 . S
C885 C884 1.387 . S
C885 C887 1.387 . S
H886 C893 0.950 . S
C887 C885 1.387 . S
C887 C889 1.390 . S
C887 H891 0.950 . S
H888 C884 0.950 . S
C889 C887 1.390 . S
C889 C890 1.387 . S
C889 H892 0.950 . S
C890 C889 1.387 . S
C890 C893 1.387 . S
H891 C887 0.950 . S
H892 C889 0.950 . S
C893 C884 1.390 . S
C893 H886 0.950 . S
C893 C890 1.387 . S
C894 C895 1.387 . S
C894 H898 0.950 . S
C894 C903 1.390 . S
C895 C894 1.387 . S
C895 C897 1.387 . S
H896 C903 0.950 . S
C897 C895 1.387 . S
C897 C899 1.390 . S
C897 H901 0.950 . S
H898 C894 0.950 . S
C899 C897 1.390 . S
C899 C900 1.387 . S
C899 H902 0.950 . S
C900 C899 1.387 . S
C900 C903 1.387 . S
H901 C897 0.950 . S
H902 C899 0.950 . S
C903 C894 1.390 . S
C903 H896 0.950 . S
C903 C900 1.387 . S
C904 C905 1.387 . S
C904 H908 0.950 . S
C904 C913 1.390 . S
C905 C904 1.387 . S
C905 C907 1.387 . S
H906 C913 0.950 . S
C907 C905 1.387 . S
C907 C909 1.390 . S
C907 H911 0.950 . S
H908 C904 0.950 . S
C909 C907 1.390 . S
C909 C910 1.387 . S
C909 H912 0.950 . S
C910 C909 1.387 . S
C910 C913 1.387 . S
H911 C907 0.950 . S
H912 C909 0.950 . S
C913 C904 1.390 . S
C913 H906 0.950 . S
C913 C910 1.387 . S
C914 C915 1.387 . S
C914 H918 0.950 . S
C914 C923 1.390 . S
C915 C914 1.387 . S
C915 C917 1.387 . S
H916 C923 0.950 . S
C917 C915 1.387 . S
C917 C919 1.390 . S
C917 H921 0.950 . S
H918 C914 0.950 . S
C919 C917 1.390 . S
C919 C920 1.387 . S
C919 H922 0.950 . S
C920 C919 1.387 . S
C920 C923 1.387 . S
H921 C917 0.950 . S
H922 C919 0.950 . S
C923 C914 1.390 . S
C923 H916 0.950 . S
C923 C920 1.387 . S
C924 C925 1.387 . S
C924 H928 0.950 . S
C924 C933 1.390 . S
C925 C924 1.387 . S
C925 C927 1.387 . S
H926 C933 0.950 . S
C927 C925 1.387 . S
C927 C929 1.390 . S
C927 H931 0.950 . S
H928 C924 0.950 . S
C929 C927 1.390 . S
C929 C930 1.387 . S
C929 H932 0.950 . S
C930 C929 1.387 . S
C930 C933 1.387 . S
H931 C927 0.950 . S
H932 C929 0.950 . S
C933 C924 1.390 . S
C933 H926 0.950 . S
C933 C930 1.387 . S
C934 C935 1.387 . S
C934 H938 0.950 . S
C934 C943 1.390 . S
C935 C934 1.387 . S
C935 C937 1.387 . S
H936 C943 0.950 . S
C937 C935 1.387 . S
C937 C939 1.390 . S
C937 H941 0.950 . S
H938 C934 0.950 . S
C939 C937 1.390 . S
C939 C940 1.387 . S
C939 H942 0.950 . S
C940 C939 1.387 . S
C940 C943 1.387 . S
H941 C937 0.950 . S
H942 C939 0.950 . S
C943 C934 1.390 . S
C943 H936 0.950 . S
C943 C940 1.387 . S
C944 C945 1.387 . S
C944 H948 0.950 . S
C944 C953 1.390 . S
C945 C944 1.387 . S
C945 C947 1.387 . S
H946 C953 0.950 . S
C947 C945 1.387 . S
C947 C949 1.390 . S
C947 H951 0.950 . S
H948 C944 0.950 . S
C949 C947 1.390 . S
C949 C950 1.387 . S
C949 H952 0.950 . S
C950 C949 1.387 . S
C950 C953 1.387 . S
H951 C947 0.950 . S
H952 C949 0.950 . S
C953 C944 1.390 . S
C953 H946 0.950 . S
C953 C950 1.387 . S
C954 C955 1.405 . S
C954 H958 0.950 . S
C954 C963 1.390 1_554 S
C955 C954 1.405 . S
C955 C957 1.379 . S
H956 C963 0.950 . S
C957 C955 1.379 . S
C957 C959 1.390 1_554 S
C957 H961 0.950 . S
H958 C954 0.950 . S
C959 C957 1.390 1_556 S
C959 C960 1.387 . S
C959 H962 0.950 . S
C960 C959 1.387 . S
C960 C963 1.387 . S
H961 C957 0.950 . S
H962 C959 0.950 . S
C963 C954 1.390 1_556 S
C963 H956 0.950 . S
C963 C960 1.387 . S
C964 C965 1.387 . S
C964 H968 0.950 . S
C964 C973 1.390 1_554 S
C965 C964 1.387 . S
C965 C967 1.387 . S
H966 C973 0.950 . S
C967 C965 1.387 . S
C967 C969 1.390 1_554 S
C967 H971 0.950 . S
H968 C964 0.950 . S
C969 C967 1.390 1_556 S
C969 C970 1.408 . S
C969 H972 0.950 1_455 S
C970 C969 1.408 . S
C970 C973 1.380 . S
H971 C967 0.950 . S
H972 C969 0.950 1_655 S
C973 C964 1.390 1_556 S
C973 H966 0.950 . S
C973 C970 1.380 . S
C974 C975 1.387 . S
C974 H978 0.950 . S
C974 C983 1.390 1_556 S
C975 C974 1.387 . S
C975 C977 1.387 . S
H976 C983 0.950 . S
C977 C975 1.387 . S
C977 C979 1.390 1_556 S
C977 H981 0.950 . S
H978 C974 0.950 . S
C979 C977 1.390 1_554 S
C979 C980 1.387 . S
C979 H982 0.950 . S
C980 C979 1.387 . S
C980 C983 1.387 . S
H981 C977 0.950 . S
H982 C979 0.950 . S
C983 C974 1.390 1_554 S
C983 H976 0.950 . S
C983 C980 1.387 . S
C984 C985 1.387 . S
C984 H988 0.950 . S
C984 C993 1.390 . S
C985 C984 1.387 . S
C985 C987 1.387 . S
H986 C993 0.950 . S
C987 C985 1.387 . S
C987 C989 1.390 . S
C987 H991 0.950 . S
H988 C984 0.950 . S
C989 C987 1.390 . S
C989 C990 1.387 . S
C989 H992 0.950 . S
C990 C989 1.387 . S
C990 C993 1.387 . S
H991 C987 0.950 . S
H992 C989 0.950 . S
C993 C984 1.390 . S
C993 H986 0.950 . S
C993 C990 1.387 . S
C994 C995 1.387 . S
C994 H998 0.950 . S
C994 C1003 1.390 . S
C995 C994 1.387 . S
C995 C997 1.387 . S
H996 C1003 0.950 . S
C997 C995 1.387 . S
C997 C999 1.390 . S
C997 H1001 0.950 . S
H998 C994 0.950 . S
C999 C997 1.390 . S
C999 C1000 1.387 . S
C999 H1002 0.950 . S
C1000 C999 1.387 . S
C1000 C1003 1.387 . S
H1001 C997 0.950 . S
H1002 C999 0.950 . S
C1003 C994 1.390 . S
C1003 H996 0.950 . S
C1003 C1000 1.387 . S
C1004 C1005 1.387 . S
C1004 H1008 0.950 . S
C1004 C1013 1.390 . S
C1005 C1004 1.387 . S
C1005 C1007 1.387 . S
H1006 C1013 0.950 . S
C1007 C1005 1.387 . S
C1007 C1009 1.390 . S
C1007 H1011 0.950 . S
H1008 C1004 0.950 . S
C1009 C1007 1.390 . S
C1009 C1010 1.387 . S
C1009 H1012 0.950 . S
C1010 C1009 1.387 . S
C1010 C1013 1.387 . S
H1011 C1007 0.950 . S
H1012 C1009 0.950 . S
C1013 C1004 1.390 . S
C1013 H1006 0.950 . S
C1013 C1010 1.387 . S
C1014 C1015 1.387 . S
C1014 H1018 0.950 . S
C1014 C1023 1.390 . S
C1015 C1014 1.387 . S
C1015 C1017 1.387 . S
H1016 C1023 0.950 . S
C1017 C1015 1.387 . S
C1017 C1019 1.390 . S
C1017 H1021 0.950 . S
H1018 C1014 0.950 . S
C1019 C1017 1.390 . S
C1019 C1020 1.387 . S
C1019 H1022 0.950 . S
C1020 C1019 1.387 . S
C1020 C1023 1.387 . S
H1021 C1017 0.950 . S
H1022 C1019 0.950 . S
C1023 C1014 1.390 . S
C1023 H1016 0.950 . S
C1023 C1020 1.387 . S
C1024 C1025 1.387 . S
C1024 H1028 0.950 . S
C1024 C1033 1.390 . S
C1025 C1024 1.387 . S
C1025 C1027 1.387 . S
H1026 C1033 0.950 . S
C1027 C1025 1.387 . S
C1027 C1029 1.390 . S
C1027 H1031 0.950 . S
H1028 C1024 0.950 . S
C1029 C1027 1.390 . S
C1029 C1030 1.387 . S
C1029 H1032 0.950 . S
C1030 C1029 1.387 . S
C1030 C1033 1.387 . S
H1031 C1027 0.950 . S
H1032 C1029 0.950 . S
C1033 C1024 1.390 . S
C1033 H1026 0.950 . S
C1033 C1030 1.387 . S
C1034 C1035 1.387 . S
C1034 H1038 0.950 . S
C1034 C1043 1.390 . S
C1035 C1034 1.387 . S
C1035 C1037 1.387 . S
H1036 C1043 0.950 . S
C1037 C1035 1.387 . S
C1037 C1039 1.390 . S
C1037 H1041 0.950 . S
H1038 C1034 0.950 . S
C1039 C1037 1.390 . S
C1039 C1040 1.387 . S
C1039 H1042 0.950 . S
C1040 C1039 1.387 . S
C1040 C1043 1.387 . S
H1041 C1037 0.950 . S
H1042 C1039 0.950 . S
C1043 C1034 1.390 . S
C1043 H1036 0.950 . S
C1043 C1040 1.387 . S
C595 C21 1.236 . S
C600 N35 1.186 . S
C605 N68 1.187 . S
C610 C54 1.236 . S
C615 C87 1.233 . S
C620 N2 1.187 . S
C625 N167 1.184 . S
C630 C120 1.235 . S
C635 N101 1.186 . S
C640 C153 1.233 . S
C645 C186 1.233 . S
C650 N134 1.187 . S
C655 N233 1.187 . S
C660 C219 1.233 . S
C665 C252 1.234 . S
C670 N266 1.184 . S
C675 C285 1.233 . S
C680 N200 1.187 . S
C685 N365 1.187 . S
C690 C318 1.233 . S
C695 N299 1.187 . S
C700 C351 1.236 . S
C705 C384 1.234 . S
C710 N332 1.188 . S
C715 N431 1.186 . S
C720 C417 1.236 . S
C725 C450 1.236 . S
C730 N464 1.187 . S
C735 C483 1.233 . S
C740 N398 1.186 . S
C745 N563 1.187 . S
C750 C516 1.236 . S
C755 N497 1.189 . S
C760 C549 1.236 . S
C765 C582 1.236 . S
C770 N530 1.186 . S
C775 N343 1.443 . S
C780 N13 1.443 . S
C785 N376 1.443 . S
C790 N46 1.442 . S
C795 N310 1.443 . S
C800 N79 1.443 . S
C805 N112 1.443 . S
C810 N475 1.443 . S
C815 N409 1.444 . S
C820 N145 1.443 . S
C825 N442 1.443 . S
C830 N178 1.443 . S
C835 N211 1.444 . S
C840 N541 1.443 . S
C845 N574 1.444 . S
C850 N244 1.443 . S
C855 N508 1.443 . S
C860 N277 1.443 . S
C865 C7 1.405 1_545 S
C870 C172 1.404 . S
C875 C106 1.407 1_455 S
C880 C40 1.409 . S
C885 C139 1.406 . S
C890 C73 1.404 . S
C895 C370 1.408 . S
C900 C205 1.408 . S
C905 C304 1.409 . S
C910 C238 1.407 . S
C915 C271 1.409 . S
C920 C337 1.407 . S
C925 C568 1.408 . S
C930 C403 1.408 . S
C935 C436 1.406 . S
C940 C502 1.404 . S
C945 C535 1.406 . S
C950 C469 1.404 . S
C955 C18 1.481 . S
C960 C183 1.481 . S
C965 C51 1.477 . S
C970 C117 1.479 . S
C975 C150 1.477 . S
C980 C84 1.477 . S
C985 C381 1.481 . S
C990 C216 1.481 . S
C995 C315 1.481 . S
C1000 C249 1.479 . S
C1005 C348 1.480 . S
C1010 C282 1.481 . S
C1015 C414 1.477 . S
C1020 C579 1.477 . S
C1025 C447 1.480 . S
C1030 C513 1.481 . S
C1035 C546 1.481 . S
C1040 C480 1.481 . S
