# Generated by pormake.
# Topology umd, (4)-cn, num edge types: 1
# Building blocks:
#     Node 0, Type 0, BuildingBlock: KOZSID_clean_sbu_0, # of connection points: 4
#     Node 1, Type 0, BuildingBlock: KOZSID_clean_sbu_0, # of connection points: 4
#     Node 2, Type 0, BuildingBlock: KOZSID_clean_sbu_0, # of connection points: 4
#     Node 3, Type 0, BuildingBlock: KOZSID_clean_sbu_0, # of connection points: 4
#     Node 4, Type 0, BuildingBlock: KOZSID_clean_sbu_0, # of connection points: 4
#     Node 5, Type 0, BuildingBlock: KOZSID_clean_sbu_0, # of connection points: 4
#     Node 6, Type 0, BuildingBlock: KOZSID_clean_sbu_0, # of connection points: 4
#     Node 7, Type 0, BuildingBlock: KOZSID_clean_sbu_0, # of connection points: 4
#     Node 8, Type 0, BuildingBlock: KOZSID_clean_sbu_0, # of connection points: 4
#     Node 9, Type 0, BuildingBlock: KOZSID_clean_sbu_0, # of connection points: 4
#     Node 10, Type 0, BuildingBlock: KOZSID_clean_sbu_0, # of connection points: 4
#     Node 11, Type 0, BuildingBlock: KOZSID_clean_sbu_0, # of connection points: 4
#     Node 12, Type 0, BuildingBlock: KOZSID_clean_sbu_0, # of connection points: 4
#     Node 13, Type 0, BuildingBlock: KOZSID_clean_sbu_0, # of connection points: 4
#     Node 14, Type 0, BuildingBlock: KOZSID_clean_sbu_0, # of connection points: 4
#     Node 15, Type 0, BuildingBlock: KOZSID_clean_sbu_0, # of connection points: 4
#     Edge 16, Type (0, 0), BuildingBlock: UVAHIK_clean_linker_0, # of connection points: 2
#     Edge 17, Type (0, 0), BuildingBlock: UVAHIK_clean_linker_0, # of connection points: 2
#     Edge 18, Type (0, 0), BuildingBlock: UVAHIK_clean_linker_0, # of connection points: 2
#     Edge 19, Type (0, 0), BuildingBlock: UVAHIK_clean_linker_0, # of connection points: 2
#     Edge 20, Type (0, 0), BuildingBlock: UVAHIK_clean_linker_0, # of connection points: 2
#     Edge 21, Type (0, 0), BuildingBlock: UVAHIK_clean_linker_0, # of connection points: 2
#     Edge 22, Type (0, 0), BuildingBlock: UVAHIK_clean_linker_0, # of connection points: 2
#     Edge 23, Type (0, 0), BuildingBlock: UVAHIK_clean_linker_0, # of connection points: 2
#     Edge 24, Type (0, 0), BuildingBlock: UVAHIK_clean_linker_0, # of connection points: 2
#     Edge 25, Type (0, 0), BuildingBlock: UVAHIK_clean_linker_0, # of connection points: 2
#     Edge 26, Type (0, 0), BuildingBlock: UVAHIK_clean_linker_0, # of connection points: 2
#     Edge 27, Type (0, 0), BuildingBlock: UVAHIK_clean_linker_0, # of connection points: 2
#     Edge 28, Type (0, 0), BuildingBlock: UVAHIK_clean_linker_0, # of connection points: 2
#     Edge 29, Type (0, 0), BuildingBlock: UVAHIK_clean_linker_0, # of connection points: 2
#     Edge 30, Type (0, 0), BuildingBlock: UVAHIK_clean_linker_0, # of connection points: 2
#     Edge 31, Type (0, 0), BuildingBlock: UVAHIK_clean_linker_0, # of connection points: 2
#     Edge 32, Type (0, 0), BuildingBlock: UVAHIK_clean_linker_0, # of connection points: 2
#     Edge 33, Type (0, 0), BuildingBlock: UVAHIK_clean_linker_0, # of connection points: 2
#     Edge 34, Type (0, 0), BuildingBlock: UVAHIK_clean_linker_0, # of connection points: 2
#     Edge 35, Type (0, 0), BuildingBlock: UVAHIK_clean_linker_0, # of connection points: 2
#     Edge 36, Type (0, 0), BuildingBlock: UVAHIK_clean_linker_0, # of connection points: 2
#     Edge 37, Type (0, 0), BuildingBlock: UVAHIK_clean_linker_0, # of connection points: 2
#     Edge 38, Type (0, 0), BuildingBlock: UVAHIK_clean_linker_0, # of connection points: 2
#     Edge 39, Type (0, 0), BuildingBlock: UVAHIK_clean_linker_0, # of connection points: 2
#     Edge 40, Type (0, 0), BuildingBlock: UVAHIK_clean_linker_0, # of connection points: 2
#     Edge 41, Type (0, 0), BuildingBlock: UVAHIK_clean_linker_0, # of connection points: 2
#     Edge 42, Type (0, 0), BuildingBlock: UVAHIK_clean_linker_0, # of connection points: 2
#     Edge 43, Type (0, 0), BuildingBlock: UVAHIK_clean_linker_0, # of connection points: 2
#     Edge 44, Type (0, 0), BuildingBlock: UVAHIK_clean_linker_0, # of connection points: 2
#     Edge 45, Type (0, 0), BuildingBlock: UVAHIK_clean_linker_0, # of connection points: 2
#     Edge 46, Type (0, 0), BuildingBlock: UVAHIK_clean_linker_0, # of connection points: 2
#     Edge 47, Type (0, 0), BuildingBlock: UVAHIK_clean_linker_0, # of connection points: 2
# Relax obj value: 0.058
# Max RMSD: 0.210
# Mean RMSD: 0.210
data_MOF--net-umd--node1-KOZSID_clean_sbu_0--edge1-UVAHIK_clean_linker_0
_symmetry_space_group_name_H-M    P1
_symmetry_Int_Tables_number       1
_symmetry_cell_setting            triclinic
loop_
_symmetry_equiv_pos_as_xyz
'x, y, z'
_cell_length_a     66.195711
_cell_length_b     66.281797
_cell_length_c     79.337372
_cell_angle_alpha  89.998741
_cell_angle_beta   89.99767
_cell_angle_gamma 89.988325
loop_
_atom_site_label
_atom_site_type_symbol
_atom_site_fract_x
_atom_site_fract_y
_atom_site_fract_z
_atom_type_partial_charge
C0 C 0.16328 0.42752 0.17666 0.0
C1 C 0.15657 0.41423 0.18894 0.0
C2 C 0.15405 0.39585 0.18116 0.0
C3 C 0.15925 0.39891 0.16458 0.0
N4 N 0.16482 0.41806 0.16151 0.0
Co5 Co 0.17274 0.42914 0.13923 0.0
N6 N 0.16007 0.40642 0.12683 0.0
C7 C 0.15509 0.38845 0.13356 0.0
C8 C 0.14674 0.37554 0.12194 0.0
C9 C 0.14669 0.38599 0.10698 0.0
C10 C 0.15511 0.40476 0.11027 0.0
N11 N 0.18072 0.44054 0.11711 0.0
C12 C 0.17391 0.43622 0.10141 0.0
C13 C 0.18429 0.4474 0.08937 0.0
C14 C 0.19809 0.45896 0.09789 0.0
C15 C 0.19545 0.45422 0.11457 0.0
N16 N 0.18564 0.45172 0.15156 0.0
C17 C 0.20008 0.46399 0.14546 0.0
C18 C 0.20631 0.47815 0.15698 0.0
C19 C 0.1951 0.47451 0.1712 0.0
C20 C 0.18257 0.45831 0.16751 0.0
N21 N 0.19829 0.41358 0.14011 0.0
C22 C 0.23208 0.38737 0.14183 0.0
C23 C 0.22149 0.39037 0.1267 0.0
C24 C 0.20484 0.40343 0.1261 0.0
C25 C 0.2256 0.3984 0.156 0.0
C26 C 0.20883 0.41143 0.15486 0.0
N27 N 0.14703 0.44405 0.13832 0.0
C28 C 0.12771 0.47451 0.13364 0.0
C29 C 0.10954 0.46412 0.13656 0.0
C30 C 0.11068 0.4436 0.1406 0.0
C31 C 0.12941 0.43397 0.14155 0.0
C32 C 0.14628 0.46416 0.13442 0.0
H33 H 0.12956 0.41825 0.1449 0.0
H34 H 0.16002 0.47236 0.13181 0.0
H35 H 0.19692 0.40479 0.1143 0.0
H36 H 0.20414 0.41945 0.16604 0.0
C37 C 0.15551 0.38562 0.15113 0.0
C38 C 0.16897 0.44873 0.17973 0.0
C39 C 0.15946 0.4201 0.0973 0.0
C40 C 0.20446 0.46416 0.12821 0.0
H41 H 0.15369 0.41745 0.20209 0.0
H42 H 0.14817 0.38217 0.18678 0.0
H43 H 0.14075 0.36059 0.12417 0.0
H44 H 0.14119 0.38039 0.09502 0.0
H45 H 0.18242 0.44694 0.07583 0.0
H46 H 0.20849 0.46982 0.09255 0.0
H47 H 0.21706 0.49024 0.15506 0.0
H48 H 0.19606 0.48278 0.18293 0.0
H49 H 0.22556 0.38217 0.1154 0.0
H50 H 0.23338 0.39699 0.16794 0.0
H51 H 0.12757 0.49039 0.13045 0.0
H52 H 0.09712 0.435 0.14324 0.0
C53 C 0.58964 0.16361 0.67673 0.0
C54 C 0.60308 0.15766 0.68917 0.0
C55 C 0.62152 0.15519 0.68144 0.0
C56 C 0.61835 0.15977 0.66474 0.0
N57 N 0.59908 0.16491 0.66155 0.0
Co58 Co 0.58792 0.17232 0.63918 0.0
N59 N 0.61088 0.15978 0.62696 0.0
C60 C 0.6289 0.15512 0.6338 0.0
C61 C 0.642 0.14679 0.62231 0.0
C62 C 0.63164 0.14643 0.60731 0.0
C63 C 0.61273 0.15468 0.61044 0.0
N64 N 0.57644 0.17979 0.61694 0.0
C65 C 0.581 0.17294 0.60129 0.0
C66 C 0.56967 0.18299 0.58916 0.0
C67 C 0.55777 0.19661 0.59753 0.0
C68 C 0.56246 0.1942 0.61425 0.0
N69 N 0.56508 0.18508 0.65135 0.0
C70 C 0.55246 0.19909 0.64506 0.0
C71 C 0.53805 0.20513 0.65644 0.0
C72 C 0.54189 0.19426 0.6708 0.0
C73 C 0.5585 0.18216 0.66734 0.0
N74 N 0.60315 0.19806 0.63982 0.0
C75 C 0.62927 0.23192 0.64139 0.0
C76 C 0.62636 0.22119 0.62632 0.0
C77 C 0.61335 0.20451 0.6258 0.0
C78 C 0.61813 0.22558 0.65555 0.0
C79 C 0.60514 0.20879 0.65449 0.0
N80 N 0.57334 0.14642 0.63857 0.0
C81 C 0.54305 0.1266 0.63447 0.0
C82 C 0.55349 0.10864 0.6383 0.0
C83 C 0.57414 0.11026 0.64206 0.0
C84 C 0.58362 0.12907 0.64225 0.0
C85 C 0.55325 0.14527 0.63462 0.0
H86 H 0.59941 0.1295 0.64541 0.0
H87 H 0.54487 0.15879 0.63164 0.0
H88 H 0.61208 0.19646 0.61406 0.0
H89 H 0.59707 0.2042 0.66567 0.0
C90 C 0.63172 0.15595 0.65136 0.0
C91 C 0.56836 0.16903 0.67974 0.0
C92 C 0.59748 0.15883 0.59731 0.0
C93 C 0.55226 0.20316 0.62777 0.0
H94 H 0.59987 0.15533 0.70241 0.0
H95 H 0.63534 0.14983 0.68719 0.0
H96 H 0.65706 0.14106 0.62465 0.0
H97 H 0.63741 0.14088 0.59543 0.0
H98 H 0.57026 0.18107 0.57562 0.0
H99 H 0.54673 0.20674 0.59209 0.0
H100 H 0.52566 0.21549 0.65433 0.0
H101 H 0.53344 0.19514 0.68245 0.0
H102 H 0.63462 0.22517 0.61503 0.0
H103 H 0.61944 0.23348 0.66744 0.0
H104 H 0.52707 0.12636 0.6316 0.0
H105 H 0.58318 0.09702 0.64468 0.0
C106 C 0.85393 0.58935 0.17687 0.0
C107 C 0.86046 0.60274 0.18915 0.0
C108 C 0.86284 0.62112 0.18134 0.0
C109 C 0.85775 0.61797 0.16475 0.0
N110 N 0.85237 0.59876 0.1617 0.0
Co111 Co 0.8447 0.58753 0.13941 0.0
N112 N 0.85726 0.61031 0.12701 0.0
C113 C 0.86202 0.62835 0.13372 0.0
C114 C 0.87028 0.64132 0.1221 0.0
C115 C 0.87049 0.63084 0.10715 0.0
C116 C 0.86225 0.61199 0.11046 0.0
N117 N 0.83696 0.57598 0.11728 0.0
C118 C 0.8438 0.58033 0.10159 0.0
C119 C 0.83359 0.569 0.08955 0.0
C120 C 0.81987 0.55734 0.09804 0.0
C121 C 0.82238 0.56215 0.11472 0.0
N122 N 0.83192 0.56488 0.15174 0.0
C123 C 0.81763 0.55246 0.14562 0.0
C124 C 0.81146 0.53828 0.15714 0.0
C125 C 0.82256 0.54207 0.1714 0.0
C126 C 0.83497 0.55837 0.16771 0.0
N127 N 0.81902 0.60288 0.14016 0.0
C128 C 0.78524 0.62911 0.14183 0.0
C129 C 0.79583 0.62607 0.1267 0.0
C130 C 0.81248 0.613 0.12613 0.0
C131 C 0.79168 0.61806 0.156 0.0
C132 C 0.80843 0.60501 0.15488 0.0
N133 N 0.87055 0.57284 0.1387 0.0
C134 C 0.89022 0.54246 0.13472 0.0
C135 C 0.90827 0.55283 0.13841 0.0
C136 C 0.90678 0.5735 0.14201 0.0
C137 C 0.88799 0.58306 0.14223 0.0
C138 C 0.87158 0.55273 0.13488 0.0
H139 H 0.88766 0.59886 0.14528 0.0
H140 H 0.85798 0.54441 0.13203 0.0
H141 H 0.82043 0.61162 0.11434 0.0
H142 H 0.8131 0.597 0.16607 0.0
C143 C 0.86145 0.63125 0.15128 0.0
C144 C 0.84844 0.56809 0.17995 0.0
C145 C 0.85808 0.59659 0.09749 0.0
C146 C 0.81338 0.55218 0.12835 0.0
H147 H 0.86332 0.59958 0.20231 0.0
H148 H 0.86858 0.63486 0.18695 0.0
H149 H 0.87609 0.65635 0.12432 0.0
H150 H 0.87596 0.63647 0.0952 0.0
H151 H 0.83551 0.56945 0.07601 0.0
H152 H 0.80959 0.54636 0.0927 0.0
H153 H 0.80083 0.52609 0.15521 0.0
H154 H 0.8216 0.53383 0.18314 0.0
H155 H 0.79178 0.63427 0.1154 0.0
H156 H 0.78388 0.61947 0.16793 0.0
H157 H 0.89039 0.52647 0.13196 0.0
H158 H 0.92009 0.58249 0.14452 0.0
C159 C 0.42815 0.8536 0.67668 0.0
C160 C 0.41478 0.86009 0.68901 0.0
C161 C 0.39639 0.86264 0.68122 0.0
C162 C 0.39951 0.85764 0.6646 0.0
N163 N 0.41871 0.85217 0.66151 0.0
Co164 Co 0.42983 0.84431 0.63923 0.0
N165 N 0.40704 0.85693 0.62686 0.0
C166 C 0.38904 0.86185 0.63359 0.0
C167 C 0.37608 0.87018 0.62199 0.0
C168 C 0.38654 0.87027 0.60702 0.0
C169 C 0.40535 0.8619 0.6103 0.0
N170 N 0.44125 0.83639 0.6171 0.0
C171 C 0.43689 0.8432 0.60141 0.0
C172 C 0.44812 0.83289 0.58936 0.0
C173 C 0.45974 0.81913 0.59785 0.0
C174 C 0.455 0.82173 0.61455 0.0
N175 N 0.45249 0.83147 0.65154 0.0
C176 C 0.46486 0.81713 0.64542 0.0
C177 C 0.47909 0.81096 0.65691 0.0
C178 C 0.4754 0.82211 0.67115 0.0
C179 C 0.45907 0.83452 0.6675 0.0
N180 N 0.41431 0.81876 0.64011 0.0
C181 C 0.38809 0.78499 0.64186 0.0
C182 C 0.39106 0.79557 0.62672 0.0
C183 C 0.40413 0.81221 0.62611 0.0
C184 C 0.39916 0.79147 0.65601 0.0
C185 C 0.4122 0.80821 0.65485 0.0
N186 N 0.4447 0.87003 0.63834 0.0
C187 C 0.47515 0.88939 0.63366 0.0
C188 C 0.46471 0.90753 0.63661 0.0
C189 C 0.44417 0.90634 0.64066 0.0
C190 C 0.43457 0.88761 0.64159 0.0
C191 C 0.46482 0.87083 0.63442 0.0
H192 H 0.41882 0.88742 0.64495 0.0
H193 H 0.47307 0.85713 0.63179 0.0
H194 H 0.40547 0.82013 0.61431 0.0
H195 H 0.42025 0.81289 0.66602 0.0
C196 C 0.38619 0.86137 0.65116 0.0
C197 C 0.44938 0.84797 0.67977 0.0
C198 C 0.42072 0.85761 0.59732 0.0
C199 C 0.46503 0.81278 0.62817 0.0
H200 H 0.41799 0.86277 0.70219 0.0
H201 H 0.38265 0.86836 0.68687 0.0
H202 H 0.36108 0.87611 0.62422 0.0
H203 H 0.3809 0.87576 0.59507 0.0
H204 H 0.44764 0.83477 0.57582 0.0
H205 H 0.47066 0.80879 0.59251 0.0
H206 H 0.49126 0.80031 0.65496 0.0
H207 H 0.48371 0.82118 0.68287 0.0
H208 H 0.38284 0.7915 0.61543 0.0
H209 H 0.39778 0.78369 0.66795 0.0
H210 H 0.49105 0.88957 0.63046 0.0
H211 H 0.43553 0.91986 0.64332 0.0
C212 C 0.16312 0.58923 0.3361 0.0
C213 C 0.15635 0.60253 0.32385 0.0
C214 C 0.15381 0.62089 0.33166 0.0
C215 C 0.15907 0.61781 0.34823 0.0
N216 N 0.16469 0.59866 0.35126 0.0
Co217 Co 0.17272 0.58756 0.3735 0.0
N218 N 0.16006 0.61024 0.38596 0.0
C219 C 0.15502 0.62821 0.37927 0.0
C220 C 0.1467 0.64109 0.39093 0.0
C221 C 0.14673 0.63062 0.40588 0.0
C222 C 0.15517 0.61187 0.40254 0.0
N223 N 0.18081 0.57613 0.39559 0.0
C224 C 0.17405 0.58042 0.41132 0.0
C225 C 0.18449 0.56923 0.42331 0.0
C226 C 0.19828 0.55771 0.41475 0.0
C227 C 0.19557 0.56247 0.39807 0.0
N228 N 0.18562 0.56502 0.36112 0.0
C229 C 0.2001 0.55275 0.36716 0.0
C230 C 0.20633 0.53862 0.35561 0.0
C231 C 0.19506 0.54228 0.34142 0.0
C232 C 0.1825 0.55846 0.34517 0.0
N233 N 0.19824 0.60315 0.37256 0.0
C234 C 0.23196 0.62944 0.37076 0.0
C235 C 0.22145 0.62639 0.38592 0.0
C236 C 0.20483 0.6133 0.38656 0.0
C237 C 0.22543 0.61842 0.3566 0.0
C238 C 0.20871 0.60534 0.35778 0.0
N239 N 0.14704 0.57261 0.37447 0.0
C240 C 0.12779 0.54211 0.37914 0.0
C241 C 0.10958 0.55249 0.37627 0.0
C242 C 0.11068 0.57302 0.37226 0.0
C243 C 0.12939 0.58267 0.37129 0.0
C244 C 0.14634 0.55249 0.37833 0.0
H245 H 0.1295 0.5984 0.36797 0.0
H246 H 0.1601 0.5443 0.3809 0.0
H247 H 0.19696 0.6119 0.39839 0.0
H248 H 0.20398 0.59733 0.34661 0.0
C249 C 0.15537 0.63107 0.36171 0.0
C250 C 0.16885 0.56803 0.33299 0.0
C251 C 0.15958 0.59651 0.41548 0.0
C252 C 0.20454 0.55256 0.3844 0.0
H253 H 0.15343 0.59933 0.31071 0.0
H254 H 0.14789 0.63457 0.32608 0.0
H255 H 0.14068 0.65605 0.38873 0.0
H256 H 0.14128 0.6362 0.41786 0.0
H257 H 0.18267 0.56966 0.43686 0.0
H258 H 0.20872 0.54685 0.42004 0.0
H259 H 0.21711 0.52655 0.35749 0.0
H260 H 0.196 0.53403 0.32968 0.0
H261 H 0.22556 0.63458 0.39722 0.0
H262 H 0.23316 0.61986 0.34464 0.0
H263 H 0.12768 0.52622 0.3823 0.0
H264 H 0.0971 0.5816 0.36966 0.0
C265 C 0.42809 0.16312 0.83605 0.0
C266 C 0.41463 0.15689 0.82371 0.0
C267 C 0.39622 0.15449 0.83152 0.0
C268 C 0.39944 0.15932 0.84816 0.0
N269 N 0.41871 0.16454 0.85124 0.0
Co270 Co 0.42997 0.17206 0.87355 0.0
N271 N 0.40709 0.15957 0.8859 0.0
C272 C 0.38902 0.15491 0.87916 0.0
C273 C 0.37598 0.14667 0.89075 0.0
C274 C 0.38646 0.14636 0.9057 0.0
C275 C 0.40536 0.15453 0.90244 0.0
N276 N 0.44155 0.17965 0.89572 0.0
C277 C 0.43713 0.1728 0.91139 0.0
C278 C 0.44851 0.18289 0.92347 0.0
C279 C 0.46028 0.19655 0.91502 0.0
C280 C 0.45548 0.19412 0.89833 0.0
N281 N 0.45273 0.18477 0.86128 0.0
C282 C 0.46529 0.1989 0.86746 0.0
C283 C 0.47956 0.205 0.85598 0.0
C284 C 0.4757 0.19402 0.84168 0.0
C285 C 0.45925 0.18177 0.84529 0.0
N286 N 0.41472 0.19778 0.87287 0.0
C287 C 0.38854 0.2316 0.87124 0.0
C288 C 0.39153 0.22096 0.88635 0.0
C289 C 0.40457 0.2043 0.8869 0.0
C290 C 0.39963 0.2252 0.85708 0.0
C291 C 0.41265 0.20843 0.85817 0.0
N292 N 0.44458 0.14617 0.87421 0.0
C293 C 0.47491 0.12639 0.87821 0.0
C294 C 0.46446 0.10841 0.87448 0.0
C295 C 0.44378 0.11 0.87084 0.0
C296 C 0.43428 0.12881 0.87064 0.0
C297 C 0.4647 0.14506 0.87806 0.0
H298 H 0.41846 0.12921 0.86755 0.0
H299 H 0.47307 0.15859 0.88095 0.0
H300 H 0.40591 0.19631 0.89867 0.0
H301 H 0.42068 0.20379 0.84698 0.0
C302 C 0.38612 0.1556 0.86161 0.0
C303 C 0.44939 0.16852 0.83297 0.0
C304 C 0.42077 0.1586 0.91544 0.0
C305 C 0.46556 0.20308 0.88474 0.0
H306 H 0.41778 0.15428 0.81051 0.0
H307 H 0.38241 0.14897 0.82586 0.0
H308 H 0.36091 0.14095 0.88851 0.0
H309 H 0.38077 0.14088 0.91764 0.0
H310 H 0.44803 0.18094 0.937 0.0
H311 H 0.47133 0.20672 0.9204 0.0
H312 H 0.49186 0.21549 0.85797 0.0
H313 H 0.484 0.19495 0.82996 0.0
H314 H 0.3833 0.22499 0.89765 0.0
H315 H 0.39826 0.23303 0.84516 0.0
H316 H 0.49091 0.12617 0.88099 0.0
H317 H 0.43473 0.09675 0.8683 0.0
C318 C 0.85401 0.42714 0.33603 0.0
C319 C 0.86053 0.41374 0.32376 0.0
C320 C 0.86292 0.39536 0.33158 0.0
C321 C 0.85783 0.39852 0.34817 0.0
N322 N 0.85246 0.41774 0.35121 0.0
Co323 Co 0.8448 0.42899 0.3735 0.0
N324 N 0.85736 0.40621 0.38591 0.0
C325 C 0.86212 0.38816 0.3792 0.0
C326 C 0.87038 0.3752 0.39082 0.0
C327 C 0.87059 0.38569 0.40577 0.0
C328 C 0.86235 0.40453 0.40246 0.0
N329 N 0.83707 0.44057 0.39562 0.0
C330 C 0.84391 0.43622 0.41131 0.0
C331 C 0.83371 0.44756 0.42335 0.0
C332 C 0.81999 0.45923 0.41486 0.0
C333 C 0.8225 0.45441 0.39818 0.0
N334 N 0.83202 0.45163 0.36116 0.0
C335 C 0.81773 0.46408 0.36728 0.0
C336 C 0.81156 0.47825 0.35575 0.0
C337 C 0.82265 0.47444 0.3415 0.0
C338 C 0.83506 0.45813 0.34518 0.0
N339 N 0.81911 0.41366 0.37277 0.0
C340 C 0.78531 0.38746 0.37114 0.0
C341 C 0.79592 0.3905 0.38626 0.0
C342 C 0.81257 0.40355 0.38681 0.0
C343 C 0.79174 0.39849 0.35696 0.0
C344 C 0.80851 0.41152 0.35806 0.0
N345 N 0.87066 0.44367 0.37419 0.0
C346 C 0.89034 0.47403 0.37817 0.0
C347 C 0.90838 0.46365 0.37448 0.0
C348 C 0.90688 0.44299 0.37087 0.0
C349 C 0.88809 0.43344 0.37066 0.0
C350 C 0.87169 0.46378 0.37801 0.0
H351 H 0.88776 0.41763 0.36761 0.0
H352 H 0.85809 0.4721 0.38086 0.0
H353 H 0.82053 0.40493 0.3986 0.0
H354 H 0.81318 0.41951 0.34686 0.0
C355 C 0.86154 0.38526 0.36165 0.0
C356 C 0.84852 0.4484 0.33294 0.0
C357 C 0.85819 0.41994 0.41542 0.0
C358 C 0.81349 0.46437 0.38455 0.0
H359 H 0.86338 0.41689 0.3106 0.0
H360 H 0.86865 0.38161 0.32597 0.0
H361 H 0.87618 0.36016 0.38861 0.0
H362 H 0.87606 0.38005 0.41772 0.0
H363 H 0.83562 0.44712 0.43689 0.0
H364 H 0.80972 0.47021 0.4202 0.0
H365 H 0.80094 0.49045 0.35769 0.0
H366 H 0.82169 0.48267 0.32975 0.0
H367 H 0.79187 0.38232 0.39757 0.0
H368 H 0.78394 0.39707 0.34503 0.0
H369 H 0.8905 0.49002 0.38093 0.0
H370 H 0.9202 0.43399 0.36836 0.0
C371 C 0.58942 0.853 0.8361 0.0
C372 C 0.60273 0.85917 0.82363 0.0
C373 C 0.62118 0.86179 0.83133 0.0
C374 C 0.61813 0.85707 0.84801 0.0
N375 N 0.59893 0.85171 0.85124 0.0
Co376 Co 0.58796 0.84401 0.8736 0.0
N377 N 0.61084 0.85669 0.8858 0.0
C378 C 0.62879 0.86159 0.87894 0.0
C379 C 0.64183 0.87002 0.89042 0.0
C380 C 0.6315 0.8702 0.90544 0.0
C381 C 0.61268 0.86175 0.90233 0.0
N382 N 0.57667 0.83626 0.89584 0.0
C383 C 0.5812 0.84309 0.91149 0.0
C384 C 0.57005 0.83285 0.92363 0.0
C385 C 0.55828 0.81913 0.91523 0.0
C386 C 0.56288 0.82167 0.89851 0.0
N387 N 0.5652 0.8311 0.86144 0.0
C388 C 0.55277 0.81691 0.86771 0.0
C389 C 0.53837 0.81079 0.85635 0.0
C390 C 0.54203 0.82179 0.84203 0.0
C391 C 0.55853 0.83403 0.84549 0.0
N392 N 0.60345 0.81843 0.87278 0.0
C393 C 0.62962 0.78461 0.87111 0.0
C394 C 0.62675 0.79531 0.88619 0.0
C395 C 0.61371 0.81197 0.88677 0.0
C396 C 0.61847 0.791 0.85697 0.0
C397 C 0.60546 0.80777 0.85808 0.0
N398 N 0.57311 0.86975 0.87445 0.0
C399 C 0.54273 0.88917 0.87925 0.0
C400 C 0.55315 0.90727 0.87616 0.0
C401 C 0.57365 0.90604 0.87197 0.0
C402 C 0.58322 0.88729 0.87104 0.0
C403 C 0.55302 0.87059 0.87848 0.0
H404 H 0.59894 0.88706 0.86758 0.0
H405 H 0.54479 0.85692 0.88123 0.0
H406 H 0.61246 0.81998 0.89853 0.0
H407 H 0.59735 0.81238 0.84693 0.0
C408 C 0.63153 0.86092 0.86137 0.0
C409 C 0.5682 0.84734 0.8331 0.0
C410 C 0.5975 0.85742 0.91546 0.0
C411 C 0.55271 0.8127 0.88498 0.0
H412 H 0.59945 0.86152 0.81042 0.0
H413 H 0.63492 0.86731 0.82555 0.0
H414 H 0.6568 0.87594 0.88806 0.0
H415 H 0.63724 0.87579 0.91733 0.0
H416 H 0.57065 0.83474 0.93716 0.0
H417 H 0.54738 0.80885 0.92067 0.0
H418 H 0.52611 0.80028 0.85845 0.0
H419 H 0.53353 0.8209 0.8304 0.0
H420 H 0.63504 0.79131 0.89747 0.0
H421 H 0.61977 0.78313 0.84506 0.0
H422 H 0.52686 0.88939 0.88255 0.0
H423 H 0.58227 0.91953 0.86919 0.0
C424 C 0.83419 0.55611 0.84695 0.0
C425 C 0.82267 0.5389 0.84415 0.0
C426 C 0.81209 0.5353 0.85867 0.0
C427 C 0.81785 0.55026 0.86959 0.0
N428 N 0.83148 0.56301 0.86288 0.0
Co429 Co 0.84434 0.58609 0.87469 0.0
N430 N 0.83707 0.57508 0.89715 0.0
C431 C 0.82275 0.56112 0.90017 0.0
C432 C 0.82056 0.55673 0.91696 0.0
C433 C 0.83426 0.5688 0.92506 0.0
C434 C 0.84412 0.57991 0.91268 0.0
N435 N 0.85698 0.60926 0.88656 0.0
C436 C 0.86224 0.6114 0.90303 0.0
C437 C 0.87038 0.63038 0.90591 0.0
C438 C 0.86985 0.64048 0.89079 0.0
C439 C 0.86151 0.62716 0.87949 0.0
N440 N 0.85161 0.5968 0.85213 0.0
C441 C 0.85672 0.61601 0.84871 0.0
C442 C 0.86105 0.61897 0.83195 0.0
C443 C 0.8584 0.60048 0.8244 0.0
C444 C 0.85264 0.5872 0.83701 0.0
N445 N 0.81857 0.60128 0.87397 0.0
C446 C 0.78485 0.62758 0.87212 0.0
C447 C 0.79106 0.61612 0.85811 0.0
C448 C 0.80777 0.60304 0.85931 0.0
C449 C 0.7956 0.62486 0.88722 0.0
C450 C 0.81221 0.61175 0.88788 0.0
N451 N 0.87031 0.57157 0.87537 0.0
C452 C 0.9065 0.57243 0.87177 0.0
C453 C 0.90823 0.55191 0.87586 0.0
C454 C 0.8903 0.54151 0.87989 0.0
C455 C 0.87156 0.55161 0.87963 0.0
C456 C 0.88762 0.58182 0.87147 0.0
H457 H 0.85808 0.54327 0.88279 0.0
H458 H 0.88712 0.59752 0.86807 0.0
H459 H 0.81227 0.59473 0.84823 0.0
H460 H 0.82032 0.61066 0.89961 0.0
C461 C 0.81389 0.55048 0.88689 0.0
C462 C 0.84668 0.56606 0.83404 0.0
C463 C 0.85841 0.59631 0.91631 0.0
C464 C 0.86057 0.62962 0.86191 0.0
H465 H 0.82202 0.52972 0.8329 0.0
H466 H 0.80221 0.52265 0.86123 0.0
H467 H 0.81059 0.54571 0.92263 0.0
H468 H 0.83642 0.56958 0.93856 0.0
H469 H 0.87599 0.63635 0.91771 0.0
H470 H 0.87549 0.6555 0.88825 0.0
H471 H 0.86624 0.63273 0.82601 0.0
H472 H 0.86036 0.59717 0.81114 0.0
H473 H 0.78312 0.61728 0.84621 0.0
H474 H 0.7917 0.63335 0.89841 0.0
H475 H 0.9197 0.58147 0.86898 0.0
H476 H 0.89062 0.52562 0.88301 0.0
C477 C 0.46046 0.83387 0.3467 0.0
C478 C 0.47756 0.82221 0.3438 0.0
C479 C 0.48107 0.81143 0.35823 0.0
C480 C 0.46615 0.81722 0.36921 0.0
N481 N 0.45352 0.83105 0.36261 0.0
Co482 Co 0.43055 0.844 0.37453 0.0
N483 N 0.44149 0.83635 0.39692 0.0
C484 C 0.4553 0.82186 0.39983 0.0
C485 C 0.4597 0.81947 0.4166 0.0
C486 C 0.44779 0.83323 0.4248 0.0
C487 C 0.43677 0.84332 0.41249 0.0
N488 N 0.40747 0.8567 0.3865 0.0
C489 C 0.40543 0.86186 0.40299 0.0
C490 C 0.38652 0.87018 0.40595 0.0
C491 C 0.37637 0.86988 0.39084 0.0
C492 C 0.38959 0.86148 0.37948 0.0
N493 N 0.41989 0.85165 0.35204 0.0
C494 C 0.40071 0.85698 0.34867 0.0
C495 C 0.39776 0.8615 0.33194 0.0
C496 C 0.41624 0.85875 0.32436 0.0
C497 C 0.4295 0.85273 0.33692 0.0
N498 N 0.4151 0.81842 0.37359 0.0
C499 C 0.38872 0.78481 0.3716 0.0
C500 C 0.40014 0.79112 0.35759 0.0
C501 C 0.41326 0.80778 0.35887 0.0
C502 C 0.39148 0.79543 0.38674 0.0
C503 C 0.40462 0.81199 0.38748 0.0
N504 N 0.44533 0.86976 0.37547 0.0
C505 C 0.44466 0.90605 0.37298 0.0
C506 C 0.46509 0.90736 0.3774 0.0
C507 C 0.47555 0.88931 0.38059 0.0
C508 C 0.46535 0.87068 0.37973 0.0
C509 C 0.4352 0.88726 0.37195 0.0
H510 H 0.47359 0.85706 0.38258 0.0
H511 H 0.41954 0.88698 0.36833 0.0
H512 H 0.42157 0.81235 0.3478 0.0
H513 H 0.40575 0.81998 0.39926 0.0
C514 C 0.46587 0.81306 0.38647 0.0
C515 C 0.4506 0.84657 0.33389 0.0
C516 C 0.42055 0.8578 0.41621 0.0
C517 C 0.3871 0.86079 0.36189 0.0
H518 H 0.48672 0.82157 0.33253 0.0
H519 H 0.49362 0.80139 0.3607 0.0
H520 H 0.47063 0.80934 0.42219 0.0
H521 H 0.44705 0.8353 0.43831 0.0
H522 H 0.38063 0.87578 0.41778 0.0
H523 H 0.36139 0.87572 0.38835 0.0
H524 H 0.38404 0.86688 0.32604 0.0
H525 H 0.41956 0.8608 0.31111 0.0
H526 H 0.39893 0.7833 0.34566 0.0
H527 H 0.383 0.79145 0.39793 0.0
H528 H 0.43603 0.91952 0.37014 0.0
H529 H 0.49137 0.8896 0.38407 0.0
C530 C 0.18391 0.46005 0.84691 0.0
C531 C 0.1956 0.47714 0.84411 0.0
C532 C 0.20634 0.48055 0.85859 0.0
C533 C 0.20049 0.46559 0.86949 0.0
N534 N 0.18666 0.45303 0.86281 0.0
Co535 Co 0.17361 0.43006 0.8746 0.0
N536 N 0.18115 0.44089 0.89706 0.0
C537 C 0.19567 0.45464 0.90006 0.0
C538 C 0.19797 0.45895 0.91685 0.0
C539 C 0.18414 0.44705 0.92496 0.0
C540 C 0.17408 0.43611 0.91258 0.0
N541 N 0.16081 0.40697 0.88646 0.0
C542 C 0.15556 0.40487 0.90293 0.0
C543 C 0.14719 0.38599 0.9058 0.0
C544 C 0.14757 0.37591 0.89066 0.0
C545 C 0.15605 0.38915 0.87937 0.0
N546 N 0.16607 0.41952 0.85205 0.0
C547 C 0.16073 0.40039 0.8486 0.0
C548 C 0.15626 0.39754 0.83185 0.0
C549 C 0.15906 0.41603 0.82434 0.0
C550 C 0.16504 0.42921 0.83697 0.0
N551 N 0.19922 0.4146 0.87373 0.0
C552 C 0.23288 0.38823 0.87183 0.0
C553 C 0.22665 0.39967 0.85781 0.0
C554 C 0.20996 0.41279 0.85904 0.0
C555 C 0.22215 0.39094 0.88693 0.0
C556 C 0.20556 0.40408 0.88762 0.0
N557 N 0.14781 0.44484 0.8755 0.0
C558 C 0.11148 0.4442 0.87291 0.0
C559 C 0.11014 0.46457 0.87742 0.0
C560 C 0.12821 0.475 0.8807 0.0
C561 C 0.14687 0.46481 0.87983 0.0
C562 C 0.1303 0.43475 0.87188 0.0
H563 H 0.1605 0.47303 0.88275 0.0
H564 H 0.1306 0.41914 0.86819 0.0
H565 H 0.20546 0.42112 0.84797 0.0
H566 H 0.19749 0.40518 0.89937 0.0
C567 C 0.20457 0.46524 0.88677 0.0
C568 C 0.17123 0.45029 0.83403 0.0
C569 C 0.15955 0.41992 0.9162 0.0
C570 C 0.15683 0.38675 0.86177 0.0
H571 H 0.19628 0.48637 0.83289 0.0
H572 H 0.21638 0.49306 0.86114 0.0
H573 H 0.20811 0.46983 0.92251 0.0
H574 H 0.182 0.44625 0.93847 0.0
H575 H 0.14153 0.38006 0.91759 0.0
H576 H 0.14172 0.36097 0.8881 0.0
H577 H 0.15089 0.38387 0.82589 0.0
H578 H 0.15706 0.41942 0.8111 0.0
H579 H 0.23456 0.3985 0.84591 0.0
H580 H 0.22606 0.38244 0.89812 0.0
H581 H 0.09802 0.4356 0.87 0.0
H582 H 0.1279 0.49077 0.88426 0.0
C583 C 0.55701 0.18278 0.3467 0.0
C584 C 0.53979 0.19431 0.34392 0.0
C585 C 0.53621 0.20487 0.35845 0.0
C586 C 0.5512 0.19909 0.36936 0.0
N587 N 0.56395 0.18547 0.36263 0.0
Co588 Co 0.58706 0.17258 0.37441 0.0
N589 N 0.57608 0.17983 0.39689 0.0
C590 C 0.56211 0.19415 0.39992 0.0
C591 C 0.55777 0.19638 0.41671 0.0
C592 C 0.56988 0.18273 0.42481 0.0
C593 C 0.58097 0.17283 0.41242 0.0
N594 N 0.61027 0.15991 0.38625 0.0
C595 C 0.61245 0.15465 0.40271 0.0
C596 C 0.63142 0.14638 0.40552 0.0
C597 C 0.64149 0.14689 0.39039 0.0
C598 C 0.62816 0.15531 0.37914 0.0
N599 N 0.59775 0.16533 0.35183 0.0
C600 C 0.61697 0.1602 0.34839 0.0
C601 C 0.61992 0.1559 0.33161 0.0
C602 C 0.6014 0.15859 0.32408 0.0
C603 C 0.58812 0.16434 0.33672 0.0
N604 N 0.60229 0.1983 0.37369 0.0
C605 C 0.62858 0.23199 0.37188 0.0
C606 C 0.61712 0.22581 0.35786 0.0
C607 C 0.60404 0.20911 0.35905 0.0
C608 C 0.62589 0.22123 0.38696 0.0
C609 C 0.61279 0.20462 0.38761 0.0
N610 N 0.5725 0.14667 0.37509 0.0
C611 C 0.57329 0.11053 0.37146 0.0
C612 C 0.55275 0.10885 0.37559 0.0
C613 C 0.54238 0.12677 0.37966 0.0
C614 C 0.55252 0.14546 0.37939 0.0
C615 C 0.58272 0.12937 0.37115 0.0
H616 H 0.5442 0.15894 0.38258 0.0
H617 H 0.59843 0.12984 0.36771 0.0
H618 H 0.59572 0.20463 0.34797 0.0
H619 H 0.61172 0.1965 0.39933 0.0
C620 C 0.55145 0.20301 0.38665 0.0
C621 C 0.56695 0.17031 0.33378 0.0
C622 C 0.59746 0.15862 0.41606 0.0
C623 C 0.6306 0.15628 0.36156 0.0
H624 H 0.53061 0.195 0.33266 0.0
H625 H 0.52356 0.21476 0.36102 0.0
H626 H 0.54677 0.20638 0.42238 0.0
H627 H 0.57073 0.18065 0.43831 0.0
H628 H 0.63743 0.14073 0.41729 0.0
H629 H 0.65649 0.14118 0.3878 0.0
H630 H 0.63367 0.15069 0.32565 0.0
H631 H 0.59806 0.15666 0.31083 0.0
H632 H 0.61826 0.23376 0.34598 0.0
H633 H 0.6344 0.22511 0.39815 0.0
H634 H 0.5823 0.09733 0.36863 0.0
H635 H 0.52648 0.12648 0.38283 0.0
C636 C 0.83401 0.46018 0.66607 0.0
C637 C 0.82248 0.47738 0.66893 0.0
C638 C 0.81189 0.48104 0.65442 0.0
C639 C 0.81766 0.46611 0.64345 0.0
N640 N 0.8313 0.45334 0.65012 0.0
Co641 Co 0.84417 0.43031 0.63826 0.0
N642 N 0.83689 0.4414 0.61582 0.0
C643 C 0.82257 0.45537 0.61284 0.0
C644 C 0.82039 0.45983 0.59606 0.0
C645 C 0.83409 0.44778 0.58793 0.0
C646 C 0.84394 0.43662 0.60028 0.0
N647 N 0.85681 0.40718 0.62633 0.0
C648 C 0.86207 0.40509 0.60986 0.0
C649 C 0.87023 0.38613 0.60693 0.0
C650 C 0.8697 0.37597 0.62203 0.0
C651 C 0.86134 0.38925 0.63335 0.0
N652 N 0.85143 0.4195 0.66079 0.0
C653 C 0.85654 0.40028 0.66416 0.0
C654 C 0.86087 0.39725 0.68091 0.0
C655 C 0.85822 0.41572 0.68851 0.0
C656 C 0.85246 0.42906 0.67593 0.0
N657 N 0.8184 0.41511 0.63893 0.0
C658 C 0.78467 0.38882 0.64069 0.0
C659 C 0.79087 0.40021 0.65474 0.0
C660 C 0.80759 0.41329 0.65358 0.0
C661 C 0.79543 0.39159 0.62561 0.0
C662 C 0.81205 0.40469 0.62499 0.0
N663 N 0.87013 0.44482 0.63761 0.0
C664 C 0.90633 0.44396 0.64122 0.0
C665 C 0.90804 0.46449 0.63717 0.0
C666 C 0.89011 0.47491 0.63316 0.0
C667 C 0.87137 0.4648 0.6334 0.0
C668 C 0.88745 0.43457 0.64149 0.0
H669 H 0.85789 0.47315 0.63026 0.0
H670 H 0.88695 0.41886 0.64486 0.0
H671 H 0.81208 0.42155 0.66469 0.0
H672 H 0.82016 0.40583 0.61326 0.0
C673 C 0.81371 0.46596 0.62615 0.0
C674 C 0.84651 0.45019 0.67895 0.0
C675 C 0.85823 0.42022 0.59661 0.0
C676 C 0.8604 0.38672 0.65093 0.0
H677 H 0.82182 0.48649 0.68021 0.0
H678 H 0.802 0.49369 0.6519 0.0
H679 H 0.81042 0.47087 0.59043 0.0
H680 H 0.83625 0.44704 0.57443 0.0
H681 H 0.87583 0.38019 0.59512 0.0
H682 H 0.87534 0.36094 0.62453 0.0
H683 H 0.86606 0.38348 0.68682 0.0
H684 H 0.86017 0.41898 0.70178 0.0
H685 H 0.78292 0.39902 0.66663 0.0
H686 H 0.79154 0.38314 0.61439 0.0
H687 H 0.91953 0.43492 0.64399 0.0
H688 H 0.89042 0.49081 0.63007 0.0
C689 C 0.55689 0.83388 0.16592 0.0
C690 C 0.53975 0.82223 0.16868 0.0
C691 C 0.53637 0.81152 0.15419 0.0
C692 C 0.55139 0.81734 0.14333 0.0
N693 N 0.56396 0.83113 0.15004 0.0
Co694 Co 0.58703 0.84413 0.13829 0.0
N695 N 0.57626 0.8366 0.11581 0.0
C696 C 0.56247 0.82213 0.11279 0.0
C697 C 0.55824 0.81976 0.09599 0.0
C698 C 0.57025 0.83349 0.08788 0.0
C699 C 0.58116 0.84358 0.10027 0.0
N700 N 0.61021 0.85689 0.12649 0.0
C701 C 0.61241 0.8621 0.11003 0.0
C702 C 0.63131 0.87052 0.10724 0.0
C703 C 0.64131 0.87018 0.12241 0.0
C704 C 0.628 0.86169 0.13365 0.0
N705 N 0.5975 0.85166 0.16087 0.0
C706 C 0.61665 0.85699 0.16438 0.0
C707 C 0.61944 0.86144 0.18114 0.0
C708 C 0.6009 0.85865 0.1886 0.0
C709 C 0.58776 0.85268 0.17594 0.0
N710 N 0.60247 0.81854 0.13921 0.0
C711 C 0.62878 0.78486 0.14117 0.0
C712 C 0.6173 0.79112 0.15516 0.0
C713 C 0.60421 0.80782 0.1539 0.0
C714 C 0.62615 0.79559 0.12606 0.0
C715 C 0.61304 0.81218 0.12535 0.0
N716 N 0.57225 0.8699 0.13736 0.0
C717 C 0.5729 0.90618 0.13995 0.0
C718 C 0.55252 0.90752 0.1354 0.0
C719 C 0.54208 0.88949 0.1321 0.0
C720 C 0.55227 0.87085 0.13298 0.0
C721 C 0.58235 0.88738 0.141 0.0
H722 H 0.54405 0.85724 0.13004 0.0
H723 H 0.59797 0.88708 0.14472 0.0
H724 H 0.59584 0.81233 0.16495 0.0
H725 H 0.612 0.82025 0.1136 0.0
C726 C 0.5518 0.81327 0.12605 0.0
C727 C 0.56664 0.84652 0.17883 0.0
C728 C 0.59749 0.85797 0.09665 0.0
C729 C 0.63034 0.8609 0.15125 0.0
H730 H 0.53046 0.82156 0.17987 0.0
H731 H 0.52383 0.80151 0.15161 0.0
H732 H 0.54738 0.80962 0.09031 0.0
H733 H 0.57115 0.83552 0.07437 0.0
H734 H 0.63732 0.8762 0.09547 0.0
H735 H 0.65624 0.87606 0.12503 0.0
H736 H 0.63311 0.86681 0.18713 0.0
H737 H 0.59746 0.86065 0.20183 0.0
H738 H 0.61842 0.78321 0.16707 0.0
H739 H 0.63469 0.79166 0.1149 0.0
H740 H 0.58151 0.91963 0.14288 0.0
H741 H 0.5263 0.8898 0.12851 0.0
C742 C 0.18363 0.55644 0.66615 0.0
C743 C 0.19529 0.53934 0.66903 0.0
C744 C 0.20604 0.53583 0.65458 0.0
C745 C 0.20023 0.55074 0.64361 0.0
N746 N 0.18642 0.56336 0.65023 0.0
Co747 Co 0.17345 0.58632 0.63834 0.0
N748 N 0.18105 0.57538 0.61593 0.0
C749 C 0.19553 0.56156 0.613 0.0
C750 C 0.19789 0.55718 0.59622 0.0
C751 C 0.18412 0.5691 0.58805 0.0
C752 C 0.17406 0.58012 0.60037 0.0
N753 N 0.16074 0.60939 0.62638 0.0
C754 C 0.15556 0.61145 0.60989 0.0
C755 C 0.14724 0.63034 0.60695 0.0
C756 C 0.14758 0.64047 0.62206 0.0
C757 C 0.15598 0.62725 0.63341 0.0
N758 N 0.16586 0.59698 0.66084 0.0
C759 C 0.16054 0.61614 0.66422 0.0
C760 C 0.15606 0.61908 0.68096 0.0
C761 C 0.15882 0.60062 0.68853 0.0
C762 C 0.16481 0.58737 0.67596 0.0
N763 N 0.19909 0.60173 0.63923 0.0
C764 C 0.23274 0.6281 0.64116 0.0
C765 C 0.22646 0.6167 0.65518 0.0
C766 C 0.20977 0.60358 0.65393 0.0
C767 C 0.22208 0.62533 0.62603 0.0
C768 C 0.2055 0.61219 0.62533 0.0
N769 N 0.14763 0.57159 0.63743 0.0
C770 C 0.11129 0.57231 0.63998 0.0
C771 C 0.10993 0.55191 0.63556 0.0
C772 C 0.12799 0.54144 0.63233 0.0
C773 C 0.14666 0.5516 0.63317 0.0
C774 C 0.13013 0.58173 0.64099 0.0
H775 H 0.16029 0.54334 0.6303 0.0
H776 H 0.13044 0.59737 0.64461 0.0
H777 H 0.20523 0.59529 0.66501 0.0
H778 H 0.19748 0.61105 0.61356 0.0
C779 C 0.20435 0.551 0.62634 0.0
C780 C 0.17097 0.5663 0.67899 0.0
C781 C 0.1596 0.59635 0.59666 0.0
C782 C 0.15671 0.62972 0.651 0.0
H783 H 0.19594 0.53019 0.6803 0.0
H784 H 0.21607 0.52328 0.65209 0.0
H785 H 0.20801 0.54624 0.59062 0.0
H786 H 0.18204 0.56985 0.57453 0.0
H787 H 0.14165 0.63624 0.59512 0.0
H788 H 0.14175 0.65543 0.62456 0.0
H789 H 0.1507 0.6328 0.68686 0.0
H790 H 0.1568 0.59731 0.70179 0.0
H791 H 0.23431 0.61791 0.66711 0.0
H792 H 0.22603 0.63379 0.61484 0.0
H793 H 0.09784 0.58095 0.64285 0.0
H794 H 0.12767 0.52565 0.62884 0.0
C795 C 0.46072 0.183 0.1659 0.0
C796 C 0.47793 0.19454 0.16871 0.0
C797 C 0.48152 0.20513 0.15419 0.0
C798 C 0.46654 0.19936 0.14327 0.0
N799 N 0.4538 0.18572 0.14997 0.0
Co800 Co 0.43071 0.17284 0.13817 0.0
N801 N 0.44172 0.18013 0.11571 0.0
C802 C 0.45566 0.19447 0.11269 0.0
C803 C 0.46006 0.19664 0.0959 0.0
C804 C 0.44801 0.18293 0.08781 0.0
C805 C 0.43691 0.17306 0.10019 0.0
N806 N 0.40753 0.1602 0.1263 0.0
C807 C 0.40541 0.15492 0.10984 0.0
C808 C 0.38642 0.14675 0.10695 0.0
C809 C 0.37629 0.14729 0.12207 0.0
C810 C 0.38961 0.15566 0.13336 0.0
N811 N 0.41999 0.16557 0.16072 0.0
C812 C 0.40077 0.16045 0.16414 0.0
C813 C 0.39781 0.15611 0.18091 0.0
C814 C 0.41632 0.15876 0.18845 0.0
C815 C 0.42962 0.16453 0.17583 0.0
N816 N 0.41548 0.19856 0.1389 0.0
C817 C 0.38914 0.23222 0.14076 0.0
C818 C 0.40061 0.22602 0.15477 0.0
C819 C 0.41371 0.20934 0.15356 0.0
C820 C 0.39185 0.2215 0.12566 0.0
C821 C 0.40498 0.2049 0.12499 0.0
N822 N 0.44528 0.14694 0.13748 0.0
C823 C 0.44447 0.1108 0.14108 0.0
C824 C 0.46502 0.10911 0.13699 0.0
C825 C 0.47541 0.12702 0.13296 0.0
C826 C 0.46527 0.14572 0.13322 0.0
C827 C 0.43505 0.12964 0.14138 0.0
H828 H 0.4736 0.1592 0.13005 0.0
H829 H 0.41933 0.13011 0.14479 0.0
H830 H 0.42204 0.20485 0.16464 0.0
H831 H 0.40607 0.19681 0.11325 0.0
C832 C 0.4663 0.20332 0.12597 0.0
C833 C 0.45078 0.17049 0.17879 0.0
C834 C 0.42054 0.15874 0.09657 0.0
C835 C 0.38713 0.15659 0.15095 0.0
H836 H 0.48712 0.1952 0.17996 0.0
H837 H 0.49416 0.21503 0.15164 0.0
H838 H 0.47108 0.20663 0.09023 0.0
H839 H 0.44724 0.18075 0.0743 0.0
H840 H 0.38046 0.14113 0.09516 0.0
H841 H 0.36126 0.14164 0.12461 0.0
H842 H 0.38404 0.15091 0.18685 0.0
H843 H 0.41965 0.1568 0.20171 0.0
H844 H 0.39945 0.23394 0.16666 0.0
H845 H 0.38334 0.22539 0.11447 0.0
H846 H 0.43545 0.0976 0.14388 0.0
H847 H 0.49132 0.12672 0.12983 0.0
C848 C 0.08568 0.49266 0.14379 0.0
C849 C 0.08938 0.47427 0.13549 0.0
C850 C 0.06623 0.50119 0.14387 0.0
C851 C 0.01717 0.50137 0.12132 0.0
H852 H 0.99515 0.5195 0.16394 0.0
C853 C 0.93321 0.52682 0.12724 0.0
C854 C 0.92857 0.54256 0.13853 0.0
C855 C 0.95258 0.51809 0.12692 0.0
C856 C 1.00105 0.51487 0.15183 0.0
H857 H 0.07564 0.45087 0.12025 0.0
H858 H 0.04192 0.4659 0.12013 0.0
H859 H 0.02948 0.50641 0.16275 0.0
H860 H 0.94095 0.56068 0.15887 0.0
H861 H 0.97454 0.54641 0.15772 0.0
H862 H 0.98904 0.51024 0.11024 0.0
C863 C 0.05397 0.47366 0.1267 0.0
C864 C 0.02083 0.50727 0.15119 0.0
C865 C 0.07329 0.46498 0.12685 0.0
C866 C 0.94386 0.54895 0.14969 0.0
C867 C 0.96322 0.54043 0.14923 0.0
C868 C 0.99747 0.50925 0.12189 0.0
C869 C 0.05008 0.49174 0.1354 0.0
C870 C 0.02916 0.50037 0.13594 0.0
C871 C 0.96802 0.5249 0.1378 0.0
C872 C 0.98903 0.51613 0.13717 0.0
H873 H 0.09768 0.50014 0.15064 0.0
H874 H 0.06381 0.51522 0.15058 0.0
H875 H 0.02315 0.49635 0.10932 0.0
H876 H 0.92201 0.52146 0.11836 0.0
H877 H 0.95539 0.50595 0.11811 0.0
C878 C 0.4933 0.93137 0.64382 0.0
C879 C 0.47485 0.92768 0.63557 0.0
C880 C 0.50185 0.95079 0.64389 0.0
C881 C 0.50199 0.99978 0.62132 0.0
H882 H 0.52034 0.02178 0.66388 0.0
C883 C 0.52755 0.08363 0.6271 0.0
C884 C 0.54328 0.08832 0.63841 0.0
C885 C 0.51884 0.06426 0.62679 0.0
C886 C 0.51565 0.01588 0.65178 0.0
H887 H 0.45137 0.94143 0.6204 0.0
H888 H 0.46643 0.9751 0.62026 0.0
H889 H 0.50719 0.98751 0.66275 0.0
H890 H 0.5614 0.076 0.65879 0.0
H891 H 0.54718 0.04244 0.65765 0.0
H892 H 0.51087 0.02784 0.6102 0.0
C893 C 0.47422 0.96306 0.6268 0.0
C894 C 0.50802 0.99614 0.65118 0.0
C895 C 0.46552 0.94376 0.62697 0.0
C896 C 0.54969 0.07307 0.64959 0.0
C897 C 0.54119 0.05371 0.64915 0.0
C898 C 0.50991 0.01944 0.62186 0.0
C899 C 0.49236 0.96693 0.63545 0.0
C900 C 0.50103 0.98782 0.63595 0.0
C901 C 0.52566 0.04888 0.63771 0.0
C902 C 0.51687 0.02789 0.63712 0.0
H903 H 0.50082 0.91937 0.65064 0.0
H904 H 0.51592 0.95319 0.65056 0.0
H905 H 0.49691 0.99381 0.60934 0.0
H906 H 0.52218 0.09478 0.61819 0.0
H907 H 0.5067 0.06144 0.61797 0.0
C908 C 0.07336 0.55155 0.38602 0.0
C909 C 0.08944 0.5423 0.37735 0.0
C910 C 0.05405 0.54284 0.38618 0.0
C911 C 0.02093 0.50922 0.36168 0.0
H912 H 0.98916 0.50623 0.40265 0.0
C913 C 0.94398 0.46751 0.3632 0.0
C914 C 0.92869 0.47392 0.37436 0.0
C915 C 0.96334 0.47603 0.36366 0.0
C916 C 0.99759 0.50722 0.39099 0.0
H917 H 0.09776 0.51646 0.36216 0.0
H918 H 0.06392 0.50134 0.36224 0.0
H919 H 0.02325 0.52014 0.40355 0.0
H920 H 0.92213 0.49501 0.39453 0.0
H921 H 0.9555 0.51052 0.39478 0.0
H922 H 0.99526 0.49697 0.34894 0.0
C923 C 0.06632 0.51536 0.36896 0.0
C924 C 0.01727 0.51511 0.39156 0.0
C925 C 0.08576 0.52392 0.36903 0.0
C926 C 0.93332 0.48966 0.38565 0.0
C927 C 0.9527 0.49838 0.38597 0.0
C928 C 1.00116 0.50161 0.36105 0.0
C929 C 0.05017 0.52477 0.37746 0.0
C930 C 0.02926 0.51613 0.37693 0.0
C931 C 0.96813 0.49157 0.37509 0.0
C932 C 0.98914 0.50034 0.37571 0.0
H933 H 0.07569 0.56565 0.39264 0.0
H934 H 0.04199 0.55058 0.39277 0.0
H935 H 0.02958 0.51009 0.35012 0.0
H936 H 0.94108 0.45579 0.35402 0.0
H937 H 0.97466 0.47005 0.35518 0.0
C938 C 0.52453 0.93112 0.86905 0.0
C939 C 0.54304 0.92744 0.8772 0.0
C940 C 0.516 0.95055 0.86898 0.0
C941 C 0.51605 0.9996 0.89144 0.0
H942 H 0.49747 0.02151 0.84891 0.0
C943 C 0.49048 0.08344 0.88561 0.0
C944 C 0.47468 0.0881 0.87436 0.0
C945 C 0.4992 0.06408 0.88591 0.0
C946 C 0.50223 0.01564 0.861 0.0
H947 H 0.56667 0.94121 0.8922 0.0
H948 H 0.55164 0.9749 0.89236 0.0
H949 H 0.51061 0.98722 0.85006 0.0
H950 H 0.45643 0.07573 0.85409 0.0
H951 H 0.47066 0.04217 0.85522 0.0
H952 H 0.50726 0.0277 0.90255 0.0
C953 C 0.54378 0.96284 0.88588 0.0
C954 C 0.50985 0.99589 0.86162 0.0
C955 C 0.55246 0.94354 0.88571 0.0
C956 C 0.4682 0.07282 0.86324 0.0
C957 C 0.47671 0.05347 0.86368 0.0
C958 C 0.50814 0.01926 0.8909 0.0
C959 C 0.52557 0.96671 0.87733 0.0
C960 C 0.51692 0.9876 0.87682 0.0
C961 C 0.49232 0.04866 0.87506 0.0
C962 C 0.5011 0.02767 0.87565 0.0
H963 H 0.51695 0.91911 0.8623 0.0
H964 H 0.50188 0.95295 0.86239 0.0
H965 H 0.5212 0.99365 0.90341 0.0
H966 H 0.49591 0.09462 0.89447 0.0
H967 H 0.5114 0.06127 0.89468 0.0
C968 C 0.94393 0.54815 0.8647 0.0
C969 C 0.92863 0.54182 0.87592 0.0
C970 C 0.96338 0.53984 0.86537 0.0
C971 C 0.99242 0.49524 0.87876 0.0
H972 H 0.03829 0.53158 0.87815 0.0
C973 C 0.07395 0.46489 0.88719 0.0
C974 C 0.08989 0.4745 0.87865 0.0
C975 C 0.05454 0.47335 0.88751 0.0
C976 C 0.02576 0.5211 0.87806 0.0
H977 H 0.92223 0.52109 0.89641 0.0
H978 H 0.956 0.50613 0.89712 0.0
H979 H 1.00412 0.54519 0.87702 0.0
H980 H 0.09785 0.50068 0.86379 0.0
H981 H 0.06393 0.51519 0.8638 0.0
H982 H 0.01384 0.4711 0.8792 0.0
C983 C 0.95282 0.51777 0.88792 0.0
C984 C 1.00608 0.52897 0.8775 0.0
C985 C 0.93337 0.52632 0.88744 0.0
C986 C 0.08596 0.49299 0.87063 0.0
C987 C 0.06643 0.50133 0.8707 0.0
C988 C 0.0121 0.48733 0.87905 0.0
C989 C 0.96817 0.52464 0.87704 0.0
C990 C 0.98913 0.51616 0.87786 0.0
C991 C 0.05029 0.49157 0.87905 0.0
C992 C 0.02917 0.50011 0.87875 0.0
H993 H 0.94093 0.55956 0.85527 0.0
H994 H 0.97468 0.54521 0.85657 0.0
H995 H 0.97974 0.48492 0.87884 0.0
H996 H 0.07651 0.45074 0.89369 0.0
H997 H 0.04288 0.46553 0.89449 0.0
C998 C 0.54887 0.07322 0.36443 0.0
C999 C 0.54262 0.08849 0.37568 0.0
C1000 C 0.54052 0.05381 0.36511 0.0
C1001 C 0.49591 0.02488 0.37868 0.0
H1002 H 0.53225 0.97901 0.3779 0.0
C1003 C 0.4655 0.94349 0.38721 0.0
C1004 C 0.47505 0.92758 0.3786 0.0
C1005 C 0.474 0.96287 0.3875 0.0
C1006 C 0.52177 0.99154 0.37786 0.0
H1007 H 0.52199 0.09491 0.39627 0.0
H1008 H 0.50697 0.06121 0.39702 0.0
H1009 H 0.5459 0.01312 0.37673 0.0
H1010 H 0.50115 0.91961 0.3636 0.0
H1011 H 0.51571 0.95347 0.36358 0.0
H1012 H 0.47172 1.00352 0.37921 0.0
C1013 C 0.51858 0.06438 0.38776 0.0
C1014 C 0.52967 0.01119 0.37728 0.0
C1015 C 0.52716 0.08379 0.38726 0.0
C1016 C 0.49351 0.93149 0.37049 0.0
C1017 C 0.50188 0.95098 0.37055 0.0
C1018 C 0.48797 1.00524 0.379 0.0
C1019 C 0.52537 0.04905 0.37685 0.0
C1020 C 0.51686 0.02813 0.37769 0.0
C1021 C 0.49219 0.96709 0.37895 0.0
C1022 C 0.50075 0.98817 0.37864 0.0
H1023 H 0.56025 0.07621 0.35495 0.0
H1024 H 0.54584 0.04252 0.35629 0.0
H1025 H 0.48559 0.03756 0.37881 0.0
H1026 H 0.45138 0.94094 0.39377 0.0
H1027 H 0.46623 0.97451 0.39453 0.0
C1028 C 0.94374 0.46824 0.64833 0.0
C1029 C 0.92844 0.47459 0.63713 0.0
C1030 C 0.96319 0.47656 0.64768 0.0
C1031 C 0.99219 0.52122 0.63433 0.0
H1032 H 0.0381 0.48491 0.63495 0.0
C1033 C 0.07371 0.55159 0.62584 0.0
C1034 C 0.08967 0.542 0.63438 0.0
C1035 C 0.0543 0.54313 0.62555 0.0
C1036 C 0.02556 0.49538 0.63504 0.0
H1037 H 0.92202 0.49538 0.61667 0.0
H1038 H 0.95578 0.51036 0.61599 0.0
H1039 H 1.00394 0.47128 0.63607 0.0
H1040 H 0.09765 0.51583 0.64925 0.0
H1041 H 0.06373 0.50132 0.64928 0.0
H1042 H 0.0136 0.54537 0.63388 0.0
C1043 C 0.95261 0.49869 0.62518 0.0
C1044 C 1.00589 0.4875 0.63559 0.0
C1045 C 0.93316 0.49013 0.62564 0.0
C1046 C 0.08575 0.52351 0.64242 0.0
C1047 C 0.06622 0.51517 0.64237 0.0
C1048 C 0.01187 0.52914 0.63403 0.0
C1049 C 0.96796 0.4918 0.63603 0.0
C1050 C 0.98892 0.5003 0.63523 0.0
C1051 C 0.05007 0.52492 0.63403 0.0
C1052 C 0.02895 0.51637 0.63434 0.0
H1053 H 0.94075 0.4568 0.65773 0.0
H1054 H 0.9745 0.47117 0.65646 0.0
H1055 H 0.9795 0.53154 0.63424 0.0
H1056 H 0.07626 0.56573 0.61933 0.0
H1057 H 0.04263 0.55095 0.61858 0.0
C1058 C 0.46886 0.07348 0.14817 0.0
C1059 C 0.47515 0.08874 0.13693 0.0
C1060 C 0.47719 0.05406 0.1475 0.0
C1061 C 0.52182 0.02508 0.13405 0.0
H1062 H 0.48543 0.97926 0.13466 0.0
C1063 C 0.5522 0.94366 0.12562 0.0
C1064 C 0.54258 0.92774 0.13417 0.0
C1065 C 0.54373 0.96304 0.12529 0.0
C1066 C 0.49593 0.99177 0.13475 0.0
H1067 H 0.49585 0.09515 0.11639 0.0
H1068 H 0.51085 0.06143 0.11567 0.0
H1069 H 0.47181 0.01339 0.13581 0.0
H1070 H 0.51638 0.9198 0.14904 0.0
H1071 H 0.50185 0.95368 0.14902 0.0
H1072 H 0.54599 1.00368 0.1336 0.0
C1073 C 0.49922 0.06461 0.1249 0.0
C1074 C 0.48804 0.01143 0.13532 0.0
C1075 C 0.49065 0.08403 0.12539 0.0
C1076 C 0.52407 0.93167 0.1422 0.0
C1077 C 0.51572 0.95118 0.14212 0.0
C1078 C 0.52974 1.00542 0.13375 0.0
C1079 C 0.49238 0.04929 0.13579 0.0
C1080 C 0.50087 0.02836 0.13496 0.0
C1081 C 0.52549 0.96728 0.13376 0.0
C1082 C 0.51694 0.98838 0.13406 0.0
H1083 H 0.45745 0.07647 0.15762 0.0
H1084 H 0.47184 0.04277 0.15631 0.0
H1085 H 0.53215 0.03774 0.13397 0.0
H1086 H 0.56636 0.94109 0.11912 0.0
H1087 H 0.55155 0.97468 0.11831 0.0
C1088 C 0.15339 0.53985 0.31618 0.0
C1089 C 0.16495 0.55761 0.31654 0.0
C1090 C 0.15195 0.52825 0.30142 0.0
C1091 C 0.16164 0.52941 0.2548 0.0
H1092 H 0.16158 0.4712 0.25951 0.0
C1093 C 0.15347 0.47692 0.19651 0.0
C1094 C 0.16508 0.45919 0.19616 0.0
C1095 C 0.15201 0.48853 0.21127 0.0
C1096 C 0.16172 0.48741 0.25789 0.0
H1097 H 0.18446 0.57692 0.3018 0.0
H1098 H 0.18199 0.55684 0.27599 0.0
H1099 H 0.16204 0.4924 0.28457 0.0
H1100 H 0.18465 0.43994 0.2109 0.0
H1101 H 0.18216 0.46004 0.2367 0.0
H1102 H 0.16198 0.52442 0.22812 0.0
C1103 C 0.17355 0.55202 0.28696 0.0
C1104 C 0.1617 0.49966 0.27235 0.0
C1105 C 0.17494 0.56362 0.30175 0.0
C1106 C 0.17511 0.45322 0.21095 0.0
C1107 C 0.17369 0.46483 0.22573 0.0
C1108 C 0.16167 0.51716 0.24034 0.0
C1109 C 0.16224 0.53397 0.2866 0.0
C1110 C 0.16173 0.52088 0.27107 0.0
C1111 C 0.16233 0.48285 0.22609 0.0
C1112 C 0.16177 0.49594 0.24162 0.0
H1113 H 0.1458 0.5347 0.32749 0.0
H1114 H 0.14286 0.51468 0.30168 0.0
H1115 H 0.16146 0.54562 0.25318 0.0
H1116 H 0.14586 0.48204 0.18521 0.0
H1117 H 0.14288 0.50208 0.211 0.0
C1118 C 0.54431 0.15049 0.6988 0.0
C1119 C 0.55851 0.16599 0.69652 0.0
C1120 C 0.53285 0.14931 0.71368 0.0
C1121 C 0.51351 0.18152 0.74834 0.0
H1122 H 0.50113 0.13084 0.77043 0.0
C1123 C 0.45422 0.17663 0.80216 0.0
C1124 C 0.45951 0.16507 0.81634 0.0
C1125 C 0.4658 0.17568 0.78733 0.0
C1126 C 0.50446 0.14515 0.76446 0.0
H1127 H 0.57191 0.19239 0.70793 0.0
H1128 H 0.55201 0.1904 0.73396 0.0
H1129 H 0.52311 0.13115 0.74562 0.0
H1130 H 0.48104 0.14356 0.82615 0.0
H1131 H 0.5011 0.14157 0.80022 0.0
H1132 H 0.49497 0.19555 0.76715 0.0
C1133 C 0.54967 0.17909 0.72431 0.0
C1134 C 0.51698 0.14531 0.75013 0.0
C1135 C 0.56126 0.18013 0.7095 0.0
C1136 C 0.47639 0.15229 0.81528 0.0
C1137 C 0.48788 0.1512 0.80041 0.0
C1138 C 0.50085 0.18133 0.76253 0.0
C1139 C 0.53508 0.16382 0.72654 0.0
C1140 C 0.52178 0.16352 0.74189 0.0
C1141 C 0.48298 0.16315 0.7863 0.0
C1142 C 0.49615 0.16316 0.77086 0.0
H1143 H 0.54168 0.13963 0.68883 0.0
H1144 H 0.52167 0.13746 0.71483 0.0
H1145 H 0.51663 0.19582 0.74227 0.0
H1146 H 0.44153 0.18692 0.80276 0.0
H1147 H 0.4614 0.18497 0.77672 0.0
C1148 C 0.84236 0.56356 0.21119 0.0
C1149 C 0.8524 0.55766 0.19639 0.0
C1150 C 0.8438 0.55191 0.22595 0.0
C1151 C 0.85583 0.49955 0.24041 0.0
H1152 H 0.85554 0.52411 0.28472 0.0
C1153 C 0.84242 0.45291 0.30171 0.0
C1154 C 0.85248 0.45882 0.3165 0.0
C1155 C 0.84384 0.46456 0.28695 0.0
C1156 C 0.85585 0.51691 0.27247 0.0
H1157 H 0.87171 0.53489 0.1854 0.0
H1158 H 0.87472 0.51479 0.21116 0.0
H1159 H 0.856 0.54543 0.25971 0.0
H1160 H 0.8718 0.48157 0.32747 0.0
H1161 H 0.87478 0.50167 0.30171 0.0
H1162 H 0.85599 0.47103 0.25317 0.0
C1163 C 0.86556 0.52831 0.21145 0.0
C1164 C 0.85584 0.52922 0.25805 0.0
C1165 C 0.86408 0.53996 0.19671 0.0
C1166 C 0.86415 0.4765 0.31616 0.0
C1167 C 0.86562 0.48815 0.30142 0.0
C1168 C 0.85584 0.48724 0.25483 0.0
C1169 C 0.85521 0.53392 0.22627 0.0
C1170 C 0.85576 0.52077 0.24175 0.0
C1171 C 0.85525 0.48254 0.28661 0.0
C1172 C 0.85578 0.4957 0.27113 0.0
H1173 H 0.83276 0.5768 0.21116 0.0
H1174 H 0.83532 0.55665 0.23692 0.0
H1175 H 0.8555 0.49235 0.22816 0.0
H1176 H 0.83281 0.43968 0.30175 0.0
H1177 H 0.83535 0.45983 0.27598 0.0
C1178 C 0.56088 0.83601 0.80344 0.0
C1179 C 0.55831 0.85031 0.81633 0.0
C1180 C 0.54932 0.83706 0.78863 0.0
C1181 C 0.51709 0.87102 0.76256 0.0
H1182 H 0.49453 0.8209 0.74582 0.0
C1183 C 0.47658 0.86397 0.69739 0.0
C1184 C 0.45955 0.85139 0.69639 0.0
C1185 C 0.48806 0.86504 0.71227 0.0
C1186 C 0.50056 0.83508 0.75036 0.0
H1187 H 0.54184 0.87698 0.82383 0.0
H1188 H 0.52186 0.87915 0.79781 0.0
H1189 H 0.51611 0.82059 0.77075 0.0
H1190 H 0.44129 0.82987 0.71006 0.0
H1191 H 0.46113 0.83179 0.73611 0.0
H1192 H 0.50147 0.8855 0.74214 0.0
C1193 C 0.53288 0.86716 0.79905 0.0
C1194 C 0.51318 0.83487 0.76458 0.0
C1195 C 0.54433 0.86598 0.81394 0.0
C1196 C 0.4541 0.84001 0.71062 0.0
C1197 C 0.46566 0.84094 0.72545 0.0
C1198 C 0.50462 0.87121 0.74821 0.0
C1199 C 0.53493 0.85249 0.78629 0.0
C1200 C 0.52165 0.85283 0.77092 0.0
C1201 C 0.48298 0.85327 0.72645 0.0
C1202 C 0.49611 0.85324 0.74191 0.0
H1203 H 0.57139 0.82363 0.80509 0.0
H1204 H 0.55152 0.82562 0.77905 0.0
H1205 H 0.52338 0.88514 0.76699 0.0
H1206 H 0.48135 0.87256 0.68647 0.0
H1207 H 0.50138 0.87451 0.71243 0.0
C1208 C 0.83163 0.55378 0.80672 0.0
C1209 C 0.84874 0.55659 0.81695 0.0
C1210 C 0.83279 0.54223 0.79194 0.0
C1211 C 0.86606 0.52285 0.75872 0.0
H1212 H 0.8275 0.47901 0.75571 0.0
C1213 C 0.8671 0.4672 0.70171 0.0
C1214 C 0.84852 0.45953 0.6961 0.0
C1215 C 0.86838 0.47803 0.71694 0.0
C1216 C 0.8382 0.49134 0.75604 0.0
H1217 H 0.88078 0.55083 0.81908 0.0
H1218 H 0.88304 0.53122 0.79275 0.0
H1219 H 0.82716 0.5012 0.78011 0.0
H1220 H 0.81691 0.45631 0.70235 0.0
H1221 H 0.81873 0.47575 0.72828 0.0
H1222 H 0.87659 0.51371 0.73436 0.0
C1223 C 0.86862 0.53757 0.79642 0.0
C1224 C 0.83805 0.50403 0.77019 0.0
C1225 C 0.86736 0.54881 0.81145 0.0
C1226 C 0.83143 0.46216 0.70635 0.0
C1227 C 0.83259 0.47325 0.72137 0.0
C1228 C 0.86594 0.51041 0.74433 0.0
C1229 C 0.85121 0.53365 0.78674 0.0
C1230 C 0.85189 0.52001 0.7717 0.0
C1231 C 0.85104 0.48164 0.72691 0.0
C1232 C 0.85191 0.49446 0.74266 0.0
H1233 H 0.81714 0.55982 0.81056 0.0
H1234 H 0.81917 0.53977 0.78465 0.0
H1235 H 0.87687 0.53507 0.75946 0.0
H1236 H 0.88054 0.46525 0.6941 0.0
H1237 H 0.883 0.48367 0.72079 0.0
C1238 C 0.46246 0.83154 0.30644 0.0
C1239 C 0.45997 0.84858 0.31675 0.0
C1240 C 0.47354 0.8327 0.29141 0.0
C1241 C 0.51093 0.86586 0.26851 0.0
H1242 H 0.5014 0.82734 0.23264 0.0
C1243 C 0.54927 0.86721 0.20134 0.0
C1244 C 0.55704 0.8486 0.19587 0.0
C1245 C 0.538 0.86851 0.21636 0.0
C1246 C 0.50431 0.83816 0.24258 0.0
H1247 H 0.46591 0.88052 0.31884 0.0
H1248 H 0.48432 0.88297 0.29213 0.0
H1249 H 0.47921 0.82774 0.25705 0.0
H1250 H 0.56025 0.81705 0.20232 0.0
H1251 H 0.54013 0.81915 0.2282 0.0
H1252 H 0.53568 0.87667 0.25339 0.0
C1253 C 0.47859 0.86839 0.29595 0.0
C1254 C 0.49163 0.83834 0.25674 0.0
C1255 C 0.46776 0.86711 0.31119 0.0
C1256 C 0.55419 0.83153 0.20613 0.0
C1257 C 0.54261 0.83273 0.22089 0.0
C1258 C 0.52337 0.86595 0.25412 0.0
C1259 C 0.48206 0.85109 0.28592 0.0
C1260 C 0.49487 0.85195 0.27016 0.0
C1261 C 0.53405 0.85115 0.22606 0.0
C1262 C 0.5204 0.85188 0.2411 0.0
H1263 H 0.4565 0.81707 0.31039 0.0
H1264 H 0.47594 0.81887 0.28445 0.0
H1265 H 0.51433 0.87643 0.27851 0.0
H1266 H 0.55133 0.8806 0.19371 0.0
H1267 H 0.53166 0.88293 0.22001 0.0
C1268 C 0.18618 0.46266 0.80669 0.0
C1269 C 0.16912 0.45985 0.81697 0.0
C1270 C 0.18498 0.47424 0.79192 0.0
C1271 C 0.15165 0.49358 0.75877 0.0
H1272 H 0.19004 0.53756 0.75577 0.0
C1273 C 0.15044 0.54917 0.70173 0.0
C1274 C 0.16899 0.55694 0.69613 0.0
C1275 C 0.14919 0.53835 0.71697 0.0
C1276 C 0.17939 0.52519 0.75609 0.0
H1277 H 0.13709 0.46563 0.8192 0.0
H1278 H 0.13474 0.48529 0.7929 0.0
H1279 H 0.19047 0.51538 0.78016 0.0
H1280 H 0.20056 0.56035 0.70243 0.0
H1281 H 0.1988 0.5409 0.72836 0.0
H1282 H 0.1411 0.50267 0.73441 0.0
C1283 C 0.14917 0.47892 0.79652 0.0
C1284 C 0.17958 0.51251 0.77025 0.0
C1285 C 0.15048 0.46766 0.81153 0.0
C1286 C 0.18607 0.55441 0.70641 0.0
C1287 C 0.18495 0.54333 0.72143 0.0
C1288 C 0.15173 0.50602 0.74439 0.0
C1289 C 0.16654 0.48283 0.78679 0.0
C1290 C 0.16581 0.49648 0.77176 0.0
C1291 C 0.16653 0.53484 0.72695 0.0
C1292 C 0.1657 0.52201 0.74271 0.0
H1293 H 0.20069 0.45658 0.81047 0.0
H1294 H 0.19857 0.47669 0.7846 0.0
H1295 H 0.14088 0.48131 0.75952 0.0
H1296 H 0.13699 0.55105 0.69411 0.0
H1297 H 0.13459 0.53263 0.72081 0.0
C1298 C 0.54988 0.14981 0.311 0.0
C1299 C 0.55754 0.16836 0.31665 0.0
C1300 C 0.53902 0.14857 0.29578 0.0
C1301 C 0.52564 0.1788 0.25676 0.0
H1302 H 0.48186 0.14017 0.2533 0.0
C1303 C 0.46309 0.18546 0.20614 0.0
C1304 C 0.46028 0.1684 0.19587 0.0
C1305 C 0.47466 0.18427 0.22091 0.0
C1306 C 0.4941 0.15098 0.25405 0.0
H1307 H 0.56072 0.19995 0.31047 0.0
H1308 H 0.54122 0.19819 0.28455 0.0
H1309 H 0.50326 0.14041 0.27839 0.0
H1310 H 0.46607 0.13641 0.19368 0.0
H1311 H 0.48573 0.1341 0.21999 0.0
H1312 H 0.51576 0.18988 0.23271 0.0
C1313 C 0.54375 0.18434 0.29143 0.0
C1314 C 0.50656 0.15106 0.26843 0.0
C1315 C 0.55487 0.18546 0.30645 0.0
C1316 C 0.46809 0.14979 0.20133 0.0
C1317 C 0.47936 0.1485 0.21635 0.0
C1318 C 0.51293 0.17897 0.24261 0.0
C1319 C 0.53537 0.16591 0.28586 0.0
C1320 C 0.52252 0.16508 0.27012 0.0
C1321 C 0.48326 0.16586 0.22606 0.0
C1322 C 0.49693 0.16515 0.24109 0.0
H1323 H 0.55187 0.13636 0.31858 0.0
H1324 H 0.53339 0.13397 0.2919 0.0
H1325 H 0.53799 0.18948 0.2571 0.0
H1326 H 0.45702 0.19994 0.20233 0.0
H1327 H 0.47711 0.19785 0.22822 0.0
C1328 C 0.14136 0.42963 0.94277 0.0
C1329 C 0.15406 0.41611 0.93421 0.0
C1330 C 0.13902 0.42842 0.96032 0.0
C1331 C 0.1486 0.39552 0.99791 0.0
H1332 H 0.14893 0.44646 0.02188 0.0
C1333 C 0.16431 0.40151 0.06992 0.0
C1334 C 0.15437 0.41661 0.07916 0.0
C1335 C 0.16201 0.40023 0.05236 0.0
C1336 C 0.14848 0.43206 0.01545 0.0
H1337 H 0.1743 0.39076 0.93723 0.0
H1338 H 0.1702 0.38847 0.96783 0.0
H1339 H 0.14877 0.44629 0.99123 0.0
H1340 H 0.13421 0.44216 0.07739 0.0
H1341 H 0.12974 0.43977 0.0468 0.0
H1342 H 0.14862 0.38132 0.02221 0.0
C1343 C 0.16167 0.39979 0.96104 0.0
C1344 C 0.14839 0.43196 0.99778 0.0
C1345 C 0.164 0.40103 0.94348 0.0
C1346 C 0.14179 0.43019 0.07056 0.0
C1347 C 0.13946 0.42894 0.05301 0.0
C1348 C 0.14869 0.39562 0.01561 0.0
C1349 C 0.14947 0.41374 0.96979 0.0
C1350 C 0.14856 0.4137 0.9887 0.0
C1351 C 0.14982 0.41416 0.04358 0.0
C1352 C 0.14875 0.4139 0.02467 0.0
H1353 H 0.1338 0.44159 0.93593 0.0
H1354 H 0.12928 0.43925 0.96651 0.0
H1355 H 0.14847 0.38114 0.99143 0.0
H1356 H 0.17452 0.39118 0.0762 0.0
H1357 H 0.17049 0.38884 0.04561 0.0
C1358 C 0.58845 0.14137 0.44329 0.0
C1359 C 0.60175 0.15372 0.43413 0.0
C1360 C 0.59023 0.13959 0.46086 0.0
C1361 C 0.61045 0.16766 0.49776 0.0
H1362 H 0.59817 0.11849 0.52214 0.0
C1363 C 0.61692 0.16431 0.57042 0.0
C1364 C 0.60151 0.15417 0.57916 0.0
C1365 C 0.61872 0.16249 0.55287 0.0
C1366 C 0.6015 0.13241 0.51556 0.0
H1367 H 0.62737 0.1738 0.43612 0.0
H1368 H 0.63095 0.1703 0.46667 0.0
H1369 H 0.5983 0.11833 0.49134 0.0
H1370 H 0.57592 0.13421 0.57643 0.0
H1371 H 0.57894 0.13096 0.54577 0.0
H1372 H 0.61336 0.18184 0.52187 0.0
C1373 C 0.619 0.16207 0.46038 0.0
C1374 C 0.60158 0.13231 0.49784 0.0
C1375 C 0.61719 0.16385 0.44283 0.0
C1376 C 0.58818 0.14185 0.57002 0.0
C1377 C 0.58994 0.14002 0.55245 0.0
C1378 C 0.61037 0.16775 0.51543 0.0
C1379 C 0.60528 0.15026 0.46974 0.0
C1380 C 0.60598 0.14997 0.48866 0.0
C1381 C 0.60502 0.15062 0.54355 0.0
C1382 C 0.60582 0.15016 0.52463 0.0
H1383 H 0.57616 0.13375 0.43691 0.0
H1384 H 0.57921 0.13056 0.46756 0.0
H1385 H 0.61348 0.18168 0.49124 0.0
H1386 H 0.62714 0.17424 0.57712 0.0
H1387 H 0.63069 0.17068 0.54657 0.0
C1388 C 0.85302 0.61508 0.07007 0.0
C1389 C 0.86315 0.60012 0.07935 0.0
C1390 C 0.8553 0.61633 0.05251 0.0
C1391 C 0.8693 0.58458 0.01565 0.0
H1392 H 0.86856 0.63543 0.99152 0.0
C1393 C 0.85356 0.61519 0.94356 0.0
C1394 C 0.86376 0.60024 0.93433 0.0
C1395 C 0.85579 0.6165 0.96112 0.0
C1396 C 0.86864 0.62107 0.99802 0.0
H1397 H 0.88364 0.57483 0.07761 0.0
H1398 H 0.88808 0.5772 0.04702 0.0
H1399 H 0.86836 0.63534 0.0223 0.0
H1400 H 0.88439 0.57507 0.93616 0.0
H1401 H 0.88874 0.57754 0.96675 0.0
H1402 H 0.86928 0.57029 0.99145 0.0
C1403 C 0.87821 0.58792 0.05321 0.0
C1404 C 0.86852 0.62102 0.01573 0.0
C1405 C 0.8759 0.58668 0.07076 0.0
C1406 C 0.87662 0.58693 0.94296 0.0
C1407 C 0.87886 0.58822 0.96052 0.0
C1408 C 0.86943 0.58464 0.99797 0.0
C1409 C 0.86766 0.60254 0.04375 0.0
C1410 C 0.86873 0.60276 0.02483 0.0
C1411 C 0.86815 0.60276 0.96993 0.0
C1412 C 0.86899 0.60287 0.98885 0.0
H1413 H 0.84268 0.62529 0.07634 0.0
H1414 H 0.84667 0.6276 0.04574 0.0
H1415 H 0.86906 0.57019 0.0221 0.0
H1416 H 0.84313 0.62529 0.93726 0.0
H1417 H 0.84706 0.62771 0.96786 0.0
C1418 C 0.43079 0.87532 0.57061 0.0
C1419 C 0.41722 0.86271 0.57919 0.0
C1420 C 0.42955 0.87765 0.55306 0.0
C1421 C 0.39624 0.86841 0.51564 0.0
H1422 H 0.447 0.8684 0.49129 0.0
C1423 C 0.40172 0.85322 0.44351 0.0
C1424 C 0.41679 0.86318 0.43424 0.0
C1425 C 0.40049 0.8555 0.46107 0.0
C1426 C 0.43265 0.86877 0.49783 0.0
H1427 H 0.3918 0.84254 0.5762 0.0
H1428 H 0.38948 0.84659 0.54561 0.0
H1429 H 0.44715 0.86822 0.52194 0.0
H1430 H 0.44227 0.88344 0.43598 0.0
H1431 H 0.43994 0.88789 0.46657 0.0
H1432 H 0.38177 0.86863 0.49144 0.0
C1433 C 0.40086 0.85508 0.55238 0.0
C1434 C 0.43273 0.86866 0.5155 0.0
C1435 C 0.40212 0.85276 0.56993 0.0
C1436 C 0.43032 0.87585 0.44282 0.0
C1437 C 0.42911 0.87815 0.46037 0.0
C1438 C 0.39616 0.86851 0.49793 0.0
C1439 C 0.41478 0.86729 0.54362 0.0
C1440 C 0.41454 0.86836 0.52471 0.0
C1441 C 0.41443 0.86768 0.46982 0.0
C1442 C 0.41437 0.86857 0.48874 0.0
H1443 H 0.44275 0.8829 0.57744 0.0
H1444 H 0.44038 0.88739 0.54686 0.0
H1445 H 0.38191 0.86846 0.52222 0.0
H1446 H 0.39144 0.84294 0.43725 0.0
H1447 H 0.38916 0.84695 0.46785 0.0
C1448 C 0.16452 0.61502 0.44289 0.0
C1449 C 0.15455 0.59995 0.43364 0.0
C1450 C 0.16226 0.61625 0.46045 0.0
C1451 C 0.14874 0.58435 0.49734 0.0
H1452 H 0.14886 0.63521 0.52145 0.0
C1453 C 0.16424 0.6152 0.56938 0.0
C1454 C 0.15422 0.60015 0.57862 0.0
C1455 C 0.16197 0.61646 0.55182 0.0
C1456 C 0.14895 0.62085 0.51494 0.0
H1457 H 0.13438 0.57442 0.4354 0.0
H1458 H 0.12998 0.57673 0.466 0.0
H1459 H 0.14899 0.63511 0.49067 0.0
H1460 H 0.1339 0.57474 0.57685 0.0
H1461 H 0.12948 0.57711 0.54626 0.0
H1462 H 0.149 0.57007 0.52154 0.0
C1463 C 0.1397 0.58757 0.45979 0.0
C1464 C 0.14904 0.62079 0.49724 0.0
C1465 C 0.14198 0.58636 0.44224 0.0
C1466 C 0.14152 0.58667 0.57003 0.0
C1467 C 0.13924 0.5879 0.55247 0.0
C1468 C 0.14865 0.58441 0.51501 0.0
C1469 C 0.15009 0.60231 0.46923 0.0
C1470 C 0.14905 0.60252 0.48814 0.0
C1471 C 0.14975 0.60256 0.54304 0.0
C1472 C 0.14887 0.60265 0.52412 0.0
H1473 H 0.17472 0.62536 0.43661 0.0
H1474 H 0.17076 0.62761 0.46721 0.0
H1475 H 0.14916 0.56996 0.49089 0.0
H1476 H 0.17454 0.62543 0.57565 0.0
H1477 H 0.17055 0.62776 0.54505 0.0
C1478 C 0.40218 0.1637 0.94281 0.0
C1479 C 0.41715 0.15354 0.93357 0.0
C1480 C 0.40086 0.16143 0.96037 0.0
C1481 C 0.43253 0.1475 0.99729 0.0
H1482 H 0.38156 0.14826 0.02133 0.0
C1483 C 0.43002 0.14046 0.06999 0.0
C1484 C 0.41666 0.15331 0.07855 0.0
C1485 C 0.42878 0.13815 0.05244 0.0
C1486 C 0.39596 0.14818 0.01485 0.0
H1487 H 0.44243 0.13303 0.93537 0.0
H1488 H 0.43996 0.12862 0.96596 0.0
H1489 H 0.38173 0.14838 0.99055 0.0
H1490 H 0.39154 0.17386 0.07553 0.0
H1491 H 0.3892 0.16981 0.04494 0.0
H1492 H 0.44679 0.1476 0.02151 0.0
C1493 C 0.42926 0.13849 0.95974 0.0
C1494 C 0.39605 0.14825 0.99714 0.0
C1495 C 0.43055 0.14077 0.94219 0.0
C1496 C 0.40169 0.16344 0.06928 0.0
C1497 C 0.40042 0.16114 0.05172 0.0
C1498 C 0.43244 0.14742 0.01497 0.0
C1499 C 0.41462 0.14906 0.96916 0.0
C1500 C 0.41436 0.14803 0.98807 0.0
C1501 C 0.41423 0.14878 0.04297 0.0
C1502 C 0.41416 0.14787 0.02405 0.0
H1503 H 0.39199 0.17405 0.93652 0.0
H1504 H 0.38958 0.17008 0.96712 0.0
H1505 H 0.44696 0.14773 0.99086 0.0
H1506 H 0.4419 0.13275 0.07683 0.0
H1507 H 0.4395 0.12828 0.04625 0.0
C1508 C 0.87598 0.42983 0.44216 0.0
C1509 C 0.86322 0.4164 0.43357 0.0
C1510 C 0.87826 0.4286 0.45972 0.0
C1511 C 0.86846 0.39553 0.49719 0.0
H1512 H 0.86919 0.44628 0.52145 0.0
C1513 C 0.87643 0.42964 0.56996 0.0
C1514 C 0.86357 0.41633 0.57858 0.0
C1515 C 0.8787 0.42836 0.55241 0.0
C1516 C 0.86935 0.43192 0.51494 0.0
H1517 H 0.84273 0.39126 0.43656 0.0
H1518 H 0.84667 0.38896 0.46716 0.0
H1519 H 0.86904 0.44636 0.49081 0.0
H1520 H 0.84293 0.3913 0.57563 0.0
H1521 H 0.84689 0.38888 0.54503 0.0
H1522 H 0.86845 0.38114 0.52141 0.0
C1523 C 0.85532 0.40021 0.4604 0.0
C1524 C 0.86926 0.43197 0.49726 0.0
C1525 C 0.85306 0.40146 0.44284 0.0
C1526 C 0.85336 0.4014 0.56934 0.0
C1527 C 0.85561 0.40009 0.55178 0.0
C1528 C 0.86855 0.39549 0.5149 0.0
C1529 C 0.86768 0.41399 0.46917 0.0
C1530 C 0.8687 0.41379 0.48808 0.0
C1531 C 0.868 0.41382 0.54298 0.0
C1532 C 0.86888 0.4137 0.52406 0.0
H1533 H 0.88373 0.44167 0.43532 0.0
H1534 H 0.88812 0.43931 0.46592 0.0
H1535 H 0.86831 0.38121 0.49064 0.0
H1536 H 0.88421 0.44149 0.57677 0.0
H1537 H 0.88859 0.43902 0.54619 0.0
C1538 C 0.61731 0.85297 0.06991 0.0
C1539 C 0.60174 0.86292 0.0786 0.0
C1540 C 0.61911 0.85476 0.05236 0.0
C1541 C 0.60132 0.88423 0.01487 0.0
H1542 H 0.61367 0.83477 0.99092 0.0
C1543 C 0.58797 0.87433 0.94273 0.0
C1544 C 0.60146 0.86216 0.93361 0.0
C1545 C 0.58972 0.87622 0.96029 0.0
C1546 C 0.61052 0.84885 0.99734 0.0
H1547 H 0.57591 0.88258 0.0758 0.0
H1548 H 0.57894 0.88577 0.04515 0.0
H1549 H 0.61381 0.83501 0.02155 0.0
H1550 H 0.62736 0.84242 0.93567 0.0
H1551 H 0.63088 0.84611 0.9662 0.0
H1552 H 0.59774 0.89795 0.99055 0.0
C1553 C 0.59007 0.87689 0.05185 0.0
C1554 C 0.6106 0.84898 0.015 0.0
C1555 C 0.5883 0.8751 0.06942 0.0
C1556 C 0.61701 0.85223 0.94235 0.0
C1557 C 0.6188 0.85413 0.95989 0.0
C1558 C 0.60124 0.88409 0.99716 0.0
C1559 C 0.60525 0.86639 0.04299 0.0
C1560 C 0.60594 0.86664 0.02407 0.0
C1561 C 0.60495 0.86584 0.9692 0.0
C1562 C 0.60576 0.86636 0.98811 0.0
H1563 H 0.62762 0.84314 0.07663 0.0
H1564 H 0.63117 0.84667 0.04608 0.0
H1565 H 0.59789 0.89819 0.02134 0.0
H1566 H 0.5756 0.88179 0.93631 0.0
H1567 H 0.5786 0.88516 0.96696 0.0
C1568 C 0.26259 0.36986 0.12901 0.0
C1569 C 0.24934 0.37252 0.14275 0.0
C1570 C 0.27809 0.35538 0.12948 0.0
C1571 C 0.29432 0.30832 0.1519 0.0
H1572 H 0.34553 0.31902 0.12999 0.0
C1573 C 0.36215 0.25217 0.15637 0.0
C1574 C 0.3741 0.24928 0.14185 0.0
C1575 C 0.34743 0.26749 0.15704 0.0
C1576 C 0.33127 0.3156 0.13603 0.0
H1577 H 0.24247 0.36169 0.1679 0.0
H1578 H 0.26966 0.33684 0.16887 0.0
H1579 H 0.31939 0.34488 0.13021 0.0
H1580 H 0.37994 0.26097 0.11679 0.0
H1581 H 0.35428 0.28726 0.11785 0.0
H1582 H 0.30622 0.279 0.15767 0.0
C1583 C 0.26789 0.34581 0.15757 0.0
C1584 C 0.31618 0.33054 0.13616 0.0
C1585 C 0.25238 0.36034 0.1571 0.0
C1586 C 0.37099 0.26245 0.12814 0.0
C1587 C 0.35633 0.27778 0.12882 0.0
C1588 C 0.30944 0.29338 0.15178 0.0
C1589 C 0.28098 0.34299 0.14373 0.0
C1590 C 0.29737 0.32714 0.14401 0.0
C1591 C 0.34419 0.28052 0.14324 0.0
C1592 C 0.32816 0.29671 0.14377 0.0
H1593 H 0.26104 0.37902 0.11778 0.0
H1594 H 0.2876 0.35366 0.11847 0.0
H1595 H 0.28002 0.30488 0.15787 0.0
H1596 H 0.36384 0.24231 0.16715 0.0
H1597 H 0.33864 0.26916 0.16846 0.0
C1598 C 0.76458 0.36186 0.65623 0.0
C1599 C 0.76757 0.3738 0.64172 0.0
C1600 C 0.74924 0.34717 0.65683 0.0
C1601 C 0.70121 0.33095 0.63555 0.0
H1602 H 0.71176 0.27989 0.65766 0.0
C1603 C 0.64695 0.26227 0.62849 0.0
C1604 C 0.64414 0.24916 0.64229 0.0
C1605 C 0.66145 0.27776 0.62897 0.0
C1606 C 0.70837 0.29413 0.65161 0.0
H1607 H 0.75599 0.37964 0.61661 0.0
H1608 H 0.72968 0.35401 0.61756 0.0
H1609 H 0.73765 0.30605 0.65755 0.0
H1610 H 0.65477 0.2425 0.66754 0.0
H1611 H 0.67965 0.26965 0.66852 0.0
H1612 H 0.67197 0.31904 0.62957 0.0
C1613 C 0.7391 0.35605 0.62858 0.0
C1614 C 0.72332 0.30923 0.65154 0.0
C1615 C 0.75445 0.37069 0.62796 0.0
C1616 C 0.65622 0.25231 0.65669 0.0
C1617 C 0.67077 0.26779 0.65716 0.0
C1618 C 0.68627 0.31586 0.63563 0.0
C1619 C 0.73627 0.34392 0.64298 0.0
C1620 C 0.72006 0.32789 0.64344 0.0
C1621 C 0.67372 0.28075 0.64328 0.0
C1622 C 0.68959 0.29713 0.64358 0.0
H1623 H 0.77439 0.36355 0.66705 0.0
H1624 H 0.7475 0.33839 0.66825 0.0
H1625 H 0.69784 0.34516 0.62944 0.0
H1626 H 0.63788 0.26063 0.61721 0.0
H1627 H 0.66327 0.28716 0.61792 0.0
C1628 C 0.76508 0.6562 0.15714 0.0
C1629 C 0.76805 0.64403 0.14277 0.0
C1630 C 0.74962 0.67078 0.15766 0.0
C1631 C 0.70135 0.68627 0.13636 0.0
H1632 H 0.71152 0.73771 0.15797 0.0
C1633 C 0.64676 0.75455 0.12854 0.0
C1634 C 0.64373 0.76772 0.14226 0.0
C1635 C 0.66135 0.73916 0.1292 0.0
C1636 C 0.70824 0.72336 0.15206 0.0
H1637 H 0.75631 0.63766 0.1178 0.0
H1638 H 0.72984 0.66312 0.11857 0.0
H1639 H 0.73764 0.71176 0.15805 0.0
H1640 H 0.65404 0.77463 0.16756 0.0
H1641 H 0.67914 0.74767 0.16881 0.0
H1642 H 0.67201 0.69789 0.13028 0.0
C1643 C 0.73935 0.66133 0.12957 0.0
C1644 C 0.72331 0.70838 0.15211 0.0
C1645 C 0.7548 0.6468 0.12904 0.0
C1646 C 0.65568 0.76476 0.15677 0.0
C1647 C 0.67034 0.74938 0.15741 0.0
C1648 C 0.6863 0.70125 0.1363 0.0
C1649 C 0.73653 0.67369 0.14384 0.0
C1650 C 0.72019 0.68959 0.14419 0.0
C1651 C 0.67351 0.73636 0.1436 0.0
C1652 C 0.68949 0.72011 0.14407 0.0
H1653 H 0.77499 0.65478 0.16793 0.0
H1654 H 0.7479 0.67973 0.16898 0.0
H1655 H 0.69808 0.67195 0.1304 0.0
H1656 H 0.63779 0.75607 0.1172 0.0
H1657 H 0.66334 0.72968 0.11821 0.0
C1658 C 0.25274 0.65508 0.65674 0.0
C1659 C 0.24984 0.64311 0.64225 0.0
C1660 C 0.26808 0.66978 0.65738 0.0
C1661 C 0.31625 0.68589 0.63629 0.0
H1662 H 0.30553 0.73709 0.6581 0.0
C1663 C 0.3705 0.75452 0.62908 0.0
C1664 C 0.37322 0.76775 0.64281 0.0
C1665 C 0.35601 0.73903 0.6296 0.0
C1666 C 0.30898 0.72281 0.65214 0.0
H1667 H 0.2616 0.63717 0.61721 0.0
H1668 H 0.28791 0.66279 0.61822 0.0
H1669 H 0.27965 0.71092 0.65799 0.0
H1670 H 0.36245 0.77462 0.66798 0.0
H1671 H 0.33758 0.74747 0.66902 0.0
H1672 H 0.34553 0.69776 0.63039 0.0
C1673 C 0.27841 0.66079 0.6292 0.0
C1674 C 0.29403 0.7077 0.65207 0.0
C1675 C 0.26306 0.64615 0.62854 0.0
C1676 C 0.36106 0.76473 0.65719 0.0
C1677 C 0.34652 0.74923 0.6577 0.0
C1678 C 0.33119 0.70098 0.63637 0.0
C1679 C 0.28114 0.67297 0.64359 0.0
C1680 C 0.29735 0.68899 0.64407 0.0
C1681 C 0.34366 0.73615 0.64387 0.0
C1682 C 0.3278 0.71977 0.64421 0.0
H1683 H 0.24284 0.65344 0.66752 0.0
H1684 H 0.26973 0.6786 0.66878 0.0
H1685 H 0.31966 0.67164 0.63026 0.0
H1686 H 0.37964 0.75607 0.61783 0.0
H1687 H 0.35426 0.72953 0.6186 0.0
C1688 C 0.37072 0.75447 0.38415 0.0
C1689 C 0.37372 0.76773 0.37048 0.0
C1690 C 0.35609 0.73912 0.38347 0.0
C1691 C 0.30909 0.72356 0.36065 0.0
H1692 H 0.31926 0.672 0.38205 0.0
C1693 C 0.25211 0.65653 0.35545 0.0
C1694 C 0.24918 0.64432 0.3698 0.0
C1695 C 0.26759 0.67109 0.35494 0.0
C1696 C 0.31599 0.68636 0.37615 0.0
H1697 H 0.36332 0.77482 0.34525 0.0
H1698 H 0.33816 0.74793 0.34394 0.0
H1699 H 0.34537 0.69789 0.38222 0.0
H1700 H 0.26103 0.63779 0.39471 0.0
H1701 H 0.28754 0.66319 0.39394 0.0
H1702 H 0.27966 0.71205 0.35467 0.0
C1703 C 0.34701 0.74955 0.35533 0.0
C1704 C 0.33106 0.70131 0.37625 0.0
C1705 C 0.3617 0.76489 0.356 0.0
C1706 C 0.2625 0.64697 0.38349 0.0
C1707 C 0.27798 0.66148 0.38297 0.0
C1708 C 0.294 0.7086 0.36056 0.0
C1709 C 0.34387 0.73644 0.36909 0.0
C1710 C 0.32787 0.72022 0.36857 0.0
C1711 C 0.28076 0.67389 0.36873 0.0
C1712 C 0.29713 0.68976 0.3684 0.0
H1713 H 0.37973 0.75589 0.39548 0.0
H1714 H 0.35412 0.72958 0.39442 0.0
H1715 H 0.30581 0.73795 0.35481 0.0
H1716 H 0.24215 0.65519 0.34469 0.0
H1717 H 0.26928 0.68009 0.34364 0.0
C1718 C 0.37083 0.26198 0.88407 0.0
C1719 C 0.37362 0.2488 0.87032 0.0
C1720 C 0.35631 0.27744 0.88356 0.0
C1721 C 0.3093 0.29364 0.86095 0.0
H1722 H 0.31982 0.34479 0.88291 0.0
C1723 C 0.25298 0.36131 0.85627 0.0
C1724 C 0.25001 0.37325 0.87076 0.0
C1725 C 0.26834 0.34663 0.85565 0.0
C1726 C 0.31645 0.33054 0.87685 0.0
H1727 H 0.36293 0.24198 0.84511 0.0
H1728 H 0.338 0.26908 0.84408 0.0
H1729 H 0.34574 0.3187 0.88281 0.0
H1730 H 0.26165 0.37915 0.89585 0.0
H1731 H 0.288 0.35356 0.89488 0.0
H1732 H 0.27998 0.30549 0.85503 0.0
C1733 C 0.34692 0.26731 0.85542 0.0
C1734 C 0.33142 0.31547 0.8768 0.0
C1735 C 0.36149 0.25184 0.85593 0.0
C1736 C 0.26317 0.37019 0.88451 0.0
C1737 C 0.27854 0.35557 0.88387 0.0
C1738 C 0.29433 0.30872 0.86099 0.0
C1739 C 0.34399 0.28034 0.86927 0.0
C1740 C 0.32809 0.29669 0.86892 0.0
C1741 C 0.28135 0.34343 0.86948 0.0
C1742 C 0.29759 0.32742 0.86902 0.0
H1743 H 0.37994 0.26042 0.89533 0.0
H1744 H 0.3545 0.28691 0.89458 0.0
H1745 H 0.30591 0.27936 0.85496 0.0
H1746 H 0.24313 0.36296 0.84546 0.0
H1747 H 0.27006 0.33783 0.84424 0.0
C1748 C 0.65553 0.25205 0.35632 0.0
C1749 C 0.64358 0.24909 0.37082 0.0
C1750 C 0.67022 0.26739 0.3557 0.0
C1751 C 0.68629 0.31546 0.37684 0.0
H1752 H 0.73756 0.30488 0.35499 0.0
C1753 C 0.75487 0.36983 0.38397 0.0
C1754 C 0.76809 0.37256 0.37022 0.0
C1755 C 0.7394 0.35531 0.38348 0.0
C1756 C 0.72326 0.30828 0.36096 0.0
H1757 H 0.63769 0.2607 0.39591 0.0
H1758 H 0.6633 0.28703 0.39493 0.0
H1759 H 0.71142 0.27898 0.3551 0.0
H1760 H 0.77498 0.36179 0.34506 0.0
H1761 H 0.74786 0.33688 0.34406 0.0
H1762 H 0.69812 0.34473 0.38274 0.0
C1763 C 0.66128 0.27758 0.38393 0.0
C1764 C 0.70817 0.29333 0.36103 0.0
C1765 C 0.64665 0.26222 0.38457 0.0
C1766 C 0.76508 0.3604 0.35586 0.0
C1767 C 0.74961 0.34584 0.35538 0.0
C1768 C 0.70136 0.33041 0.37676 0.0
C1769 C 0.67343 0.28039 0.36952 0.0
C1770 C 0.68944 0.2966 0.36905 0.0
C1771 C 0.73654 0.34296 0.36921 0.0
C1772 C 0.72018 0.32708 0.36889 0.0
H1773 H 0.65387 0.24222 0.34551 0.0
H1774 H 0.67902 0.26911 0.34428 0.0
H1775 H 0.67202 0.31883 0.38288 0.0
H1776 H 0.75641 0.37897 0.39521 0.0
H1777 H 0.72991 0.35355 0.39449 0.0
C1778 C 0.76482 0.6545 0.85651 0.0
C1779 C 0.76776 0.6426 0.87104 0.0
C1780 C 0.74949 0.66921 0.85585 0.0
C1781 C 0.70141 0.68548 0.87699 0.0
H1782 H 0.71207 0.73653 0.85491 0.0
C1783 C 0.64721 0.7542 0.88399 0.0
C1784 C 0.64445 0.76734 0.8702 0.0
C1785 C 0.66168 0.73869 0.88351 0.0
C1786 C 0.70864 0.72229 0.86095 0.0
H1787 H 0.75612 0.63683 0.89614 0.0
H1788 H 0.72982 0.66247 0.8951 0.0
H1789 H 0.73795 0.71035 0.8551 0.0
H1790 H 0.65513 0.77401 0.84496 0.0
H1791 H 0.67998 0.74683 0.844 0.0
H1792 H 0.67214 0.69741 0.8829 0.0
C1793 C 0.73927 0.66039 0.8841 0.0
C1794 C 0.72358 0.70718 0.86106 0.0
C1795 C 0.75462 0.64575 0.88477 0.0
C1796 C 0.65655 0.76419 0.8558 0.0
C1797 C 0.67108 0.74868 0.85534 0.0
C1798 C 0.68647 0.70058 0.87687 0.0
C1799 C 0.73649 0.67249 0.86967 0.0
C1800 C 0.72028 0.68853 0.86916 0.0
C1801 C 0.67398 0.7357 0.86922 0.0
C1802 C 0.68984 0.71931 0.86893 0.0
H1803 H 0.77467 0.65279 0.84571 0.0
H1804 H 0.74779 0.67796 0.84442 0.0
H1805 H 0.69801 0.67127 0.8831 0.0
H1806 H 0.63812 0.75584 0.89525 0.0
H1807 H 0.66347 0.72927 0.89456 0.0
loop_
_geom_bond_atom_site_label_1
_geom_bond_atom_site_label_2
_geom_bond_distance
_geom_bond_site_symmetry_2
_ccdc_geom_bond_type
C0 C1 1.443 . S
C0 N4 1.376 . S
C0 C38 1.389 . S
C1 C0 1.443 . S
C1 C2 1.340 . S
C1 H41 0.951 . S
C2 C1 1.340 . S
C2 C3 1.439 . S
C2 H42 0.950 . S
C3 C2 1.439 . S
C3 N4 1.374 . S
C3 C37 1.395 . S
N4 C0 1.376 . S
N4 C3 1.374 . S
N4 Co5 2.008 . S
Co5 N4 2.008 . S
Co5 N6 1.995 . S
Co5 N11 2.008 . S
Co5 N16 1.995 . S
Co5 N21 2.282 . S
Co5 N27 2.282 . S
N6 Co5 1.995 . S
N6 C7 1.376 . S
N6 C10 1.383 . S
C7 N6 1.376 . S
C7 C8 1.446 . S
C7 C37 1.391 . S
C8 C7 1.446 . S
C8 C9 1.339 . S
C8 H43 0.949 . S
C9 C8 1.339 . S
C9 C10 1.439 . S
C9 H44 0.950 . S
C10 N6 1.383 . S
C10 C9 1.439 . S
C10 C39 1.392 . S
N11 Co5 2.008 . S
N11 C12 1.376 . S
N11 C15 1.374 . S
C12 N11 1.376 . S
C12 C13 1.443 . S
C12 C39 1.389 . S
C13 C12 1.443 . S
C13 C14 1.340 . S
C13 H45 0.951 . S
C14 C13 1.340 . S
C14 C15 1.439 . S
C14 H46 0.950 . S
C15 N11 1.374 . S
C15 C14 1.439 . S
C15 C40 1.395 . S
N16 Co5 1.995 . S
N16 C17 1.376 . S
N16 C20 1.383 . S
C17 N16 1.376 . S
C17 C18 1.446 . S
C17 C40 1.391 . S
C18 C17 1.446 . S
C18 C19 1.339 . S
C18 H47 0.949 . S
C19 C18 1.339 . S
C19 C20 1.439 . S
C19 H48 0.950 . S
C20 N16 1.383 . S
C20 C19 1.439 . S
C20 C38 1.392 . S
N21 Co5 2.282 . S
N21 C24 1.332 . S
N21 C26 1.332 . S
C22 C23 1.386 . S
C22 C25 1.388 . S
C23 C22 1.386 . S
C23 C24 1.382 . S
C23 H49 0.950 . S
C24 N21 1.332 . S
C24 C23 1.382 . S
C24 H35 0.952 . S
C25 C22 1.388 . S
C25 C26 1.382 . S
C25 H50 0.950 . S
C26 N21 1.332 . S
C26 C25 1.382 . S
C26 H36 0.948 . S
N27 Co5 2.282 . S
N27 C31 1.332 . S
N27 C32 1.332 . S
C28 C29 1.388 . S
C28 C32 1.382 . S
C28 H51 0.950 . S
C29 C28 1.388 . S
C29 C30 1.386 . S
C30 C29 1.386 . S
C30 C31 1.382 . S
C30 H52 0.950 . S
C31 N27 1.332 . S
C31 C30 1.382 . S
C31 H33 0.952 . S
C32 N27 1.332 . S
C32 C28 1.382 . S
C32 H34 0.948 . S
H33 C31 0.952 . S
H34 C32 0.948 . S
H35 C24 0.952 . S
H36 C26 0.948 . S
C37 C3 1.395 . S
C37 C7 1.391 . S
C38 C0 1.389 . S
C38 C20 1.392 . S
C39 C10 1.392 . S
C39 C12 1.389 . S
C40 C15 1.395 . S
C40 C17 1.391 . S
H41 C1 0.951 . S
H42 C2 0.950 . S
H43 C8 0.949 . S
H44 C9 0.950 . S
H45 C13 0.951 . S
H46 C14 0.950 . S
H47 C18 0.949 . S
H48 C19 0.950 . S
H49 C23 0.950 . S
H50 C25 0.950 . S
H51 C28 0.950 . S
H52 C30 0.950 . S
C53 C54 1.443 . S
C53 N57 1.376 . S
C53 C91 1.389 . S
C54 C53 1.443 . S
C54 C55 1.340 . S
C54 H94 0.951 . S
C55 C54 1.340 . S
C55 C56 1.439 . S
C55 H95 0.950 . S
C56 C55 1.439 . S
C56 N57 1.374 . S
C56 C90 1.395 . S
N57 C53 1.376 . S
N57 C56 1.374 . S
N57 Co58 2.008 . S
Co58 N57 2.008 . S
Co58 N59 1.995 . S
Co58 N64 2.008 . S
Co58 N69 1.995 . S
Co58 N74 2.282 . S
Co58 N80 2.282 . S
N59 Co58 1.995 . S
N59 C60 1.376 . S
N59 C63 1.383 . S
C60 N59 1.376 . S
C60 C61 1.446 . S
C60 C90 1.391 . S
C61 C60 1.446 . S
C61 C62 1.339 . S
C61 H96 0.949 . S
C62 C61 1.339 . S
C62 C63 1.439 . S
C62 H97 0.950 . S
C63 N59 1.383 . S
C63 C62 1.439 . S
C63 C92 1.392 . S
N64 Co58 2.008 . S
N64 C65 1.376 . S
N64 C68 1.374 . S
C65 N64 1.376 . S
C65 C66 1.443 . S
C65 C92 1.389 . S
C66 C65 1.443 . S
C66 C67 1.340 . S
C66 H98 0.951 . S
C67 C66 1.340 . S
C67 C68 1.439 . S
C67 H99 0.950 . S
C68 N64 1.374 . S
C68 C67 1.439 . S
C68 C93 1.395 . S
N69 Co58 1.995 . S
N69 C70 1.376 . S
N69 C73 1.383 . S
C70 N69 1.376 . S
C70 C71 1.446 . S
C70 C93 1.391 . S
C71 C70 1.446 . S
C71 C72 1.339 . S
C71 H100 0.949 . S
C72 C71 1.339 . S
C72 C73 1.439 . S
C72 H101 0.950 . S
C73 N69 1.383 . S
C73 C72 1.439 . S
C73 C91 1.392 . S
N74 Co58 2.282 . S
N74 C77 1.332 . S
N74 C79 1.332 . S
C75 C76 1.386 . S
C75 C78 1.388 . S
C76 C75 1.386 . S
C76 C77 1.382 . S
C76 H102 0.950 . S
C77 N74 1.332 . S
C77 C76 1.382 . S
C77 H88 0.952 . S
C78 C75 1.388 . S
C78 C79 1.382 . S
C78 H103 0.950 . S
C79 N74 1.332 . S
C79 C78 1.382 . S
C79 H89 0.948 . S
N80 Co58 2.282 . S
N80 C84 1.332 . S
N80 C85 1.332 . S
C81 C82 1.388 . S
C81 C85 1.382 . S
C81 H104 0.950 . S
C82 C81 1.388 . S
C82 C83 1.386 . S
C83 C82 1.386 . S
C83 C84 1.382 . S
C83 H105 0.950 . S
C84 N80 1.332 . S
C84 C83 1.382 . S
C84 H86 0.952 . S
C85 N80 1.332 . S
C85 C81 1.382 . S
C85 H87 0.948 . S
H86 C84 0.952 . S
H87 C85 0.948 . S
H88 C77 0.952 . S
H89 C79 0.948 . S
C90 C56 1.395 . S
C90 C60 1.391 . S
C91 C53 1.389 . S
C91 C73 1.392 . S
C92 C63 1.392 . S
C92 C65 1.389 . S
C93 C68 1.395 . S
C93 C70 1.391 . S
H94 C54 0.951 . S
H95 C55 0.950 . S
H96 C61 0.949 . S
H97 C62 0.950 . S
H98 C66 0.951 . S
H99 C67 0.950 . S
H100 C71 0.949 . S
H101 C72 0.950 . S
H102 C76 0.950 . S
H103 C78 0.950 . S
H104 C81 0.950 . S
H105 C83 0.950 . S
C106 C107 1.443 . S
C106 N110 1.376 . S
C106 C144 1.389 . S
C107 C106 1.443 . S
C107 C108 1.340 . S
C107 H147 0.951 . S
C108 C107 1.340 . S
C108 C109 1.439 . S
C108 H148 0.950 . S
C109 C108 1.439 . S
C109 N110 1.374 . S
C109 C143 1.395 . S
N110 C106 1.376 . S
N110 C109 1.374 . S
N110 Co111 2.008 . S
Co111 N110 2.008 . S
Co111 N112 1.995 . S
Co111 N117 2.008 . S
Co111 N122 1.995 . S
Co111 N127 2.282 . S
Co111 N133 2.282 . S
N112 Co111 1.995 . S
N112 C113 1.376 . S
N112 C116 1.383 . S
C113 N112 1.376 . S
C113 C114 1.446 . S
C113 C143 1.391 . S
C114 C113 1.446 . S
C114 C115 1.339 . S
C114 H149 0.949 . S
C115 C114 1.339 . S
C115 C116 1.439 . S
C115 H150 0.950 . S
C116 N112 1.383 . S
C116 C115 1.439 . S
C116 C145 1.392 . S
N117 Co111 2.008 . S
N117 C118 1.376 . S
N117 C121 1.374 . S
C118 N117 1.376 . S
C118 C119 1.443 . S
C118 C145 1.389 . S
C119 C118 1.443 . S
C119 C120 1.340 . S
C119 H151 0.951 . S
C120 C119 1.340 . S
C120 C121 1.439 . S
C120 H152 0.950 . S
C121 N117 1.374 . S
C121 C120 1.439 . S
C121 C146 1.395 . S
N122 Co111 1.995 . S
N122 C123 1.376 . S
N122 C126 1.383 . S
C123 N122 1.376 . S
C123 C124 1.446 . S
C123 C146 1.391 . S
C124 C123 1.446 . S
C124 C125 1.339 . S
C124 H153 0.949 . S
C125 C124 1.339 . S
C125 C126 1.439 . S
C125 H154 0.950 . S
C126 N122 1.383 . S
C126 C125 1.439 . S
C126 C144 1.392 . S
N127 Co111 2.282 . S
N127 C130 1.332 . S
N127 C132 1.332 . S
C128 C129 1.386 . S
C128 C131 1.388 . S
C129 C128 1.386 . S
C129 C130 1.382 . S
C129 H155 0.950 . S
C130 N127 1.332 . S
C130 C129 1.382 . S
C130 H141 0.952 . S
C131 C128 1.388 . S
C131 C132 1.382 . S
C131 H156 0.950 . S
C132 N127 1.332 . S
C132 C131 1.382 . S
C132 H142 0.948 . S
N133 Co111 2.282 . S
N133 C137 1.332 . S
N133 C138 1.332 . S
C134 C135 1.388 . S
C134 C138 1.382 . S
C134 H157 0.950 . S
C135 C134 1.388 . S
C135 C136 1.386 . S
C136 C135 1.386 . S
C136 C137 1.382 . S
C136 H158 0.950 . S
C137 N133 1.332 . S
C137 C136 1.382 . S
C137 H139 0.952 . S
C138 N133 1.332 . S
C138 C134 1.382 . S
C138 H140 0.948 . S
H139 C137 0.952 . S
H140 C138 0.948 . S
H141 C130 0.952 . S
H142 C132 0.948 . S
C143 C109 1.395 . S
C143 C113 1.391 . S
C144 C106 1.389 . S
C144 C126 1.392 . S
C145 C116 1.392 . S
C145 C118 1.389 . S
C146 C121 1.395 . S
C146 C123 1.391 . S
H147 C107 0.951 . S
H148 C108 0.950 . S
H149 C114 0.949 . S
H150 C115 0.950 . S
H151 C119 0.951 . S
H152 C120 0.950 . S
H153 C124 0.949 . S
H154 C125 0.950 . S
H155 C129 0.950 . S
H156 C131 0.950 . S
H157 C134 0.950 . S
H158 C136 0.950 . S
C159 C160 1.443 . S
C159 N163 1.376 . S
C159 C197 1.389 . S
C160 C159 1.443 . S
C160 C161 1.340 . S
C160 H200 0.951 . S
C161 C160 1.340 . S
C161 C162 1.439 . S
C161 H201 0.950 . S
C162 C161 1.439 . S
C162 N163 1.374 . S
C162 C196 1.395 . S
N163 C159 1.376 . S
N163 C162 1.374 . S
N163 Co164 2.008 . S
Co164 N163 2.008 . S
Co164 N165 1.995 . S
Co164 N170 2.008 . S
Co164 N175 1.995 . S
Co164 N180 2.282 . S
Co164 N186 2.282 . S
N165 Co164 1.995 . S
N165 C166 1.376 . S
N165 C169 1.383 . S
C166 N165 1.376 . S
C166 C167 1.446 . S
C166 C196 1.391 . S
C167 C166 1.446 . S
C167 C168 1.339 . S
C167 H202 0.949 . S
C168 C167 1.339 . S
C168 C169 1.439 . S
C168 H203 0.950 . S
C169 N165 1.383 . S
C169 C168 1.439 . S
C169 C198 1.392 . S
N170 Co164 2.008 . S
N170 C171 1.376 . S
N170 C174 1.374 . S
C171 N170 1.376 . S
C171 C172 1.443 . S
C171 C198 1.389 . S
C172 C171 1.443 . S
C172 C173 1.340 . S
C172 H204 0.951 . S
C173 C172 1.340 . S
C173 C174 1.439 . S
C173 H205 0.950 . S
C174 N170 1.374 . S
C174 C173 1.439 . S
C174 C199 1.395 . S
N175 Co164 1.995 . S
N175 C176 1.376 . S
N175 C179 1.383 . S
C176 N175 1.376 . S
C176 C177 1.446 . S
C176 C199 1.391 . S
C177 C176 1.446 . S
C177 C178 1.339 . S
C177 H206 0.949 . S
C178 C177 1.339 . S
C178 C179 1.439 . S
C178 H207 0.950 . S
C179 N175 1.383 . S
C179 C178 1.439 . S
C179 C197 1.392 . S
N180 Co164 2.282 . S
N180 C183 1.332 . S
N180 C185 1.332 . S
C181 C182 1.386 . S
C181 C184 1.388 . S
C182 C181 1.386 . S
C182 C183 1.382 . S
C182 H208 0.950 . S
C183 N180 1.332 . S
C183 C182 1.382 . S
C183 H194 0.952 . S
C184 C181 1.388 . S
C184 C185 1.382 . S
C184 H209 0.950 . S
C185 N180 1.332 . S
C185 C184 1.382 . S
C185 H195 0.948 . S
N186 Co164 2.282 . S
N186 C190 1.332 . S
N186 C191 1.332 . S
C187 C188 1.388 . S
C187 C191 1.382 . S
C187 H210 0.950 . S
C188 C187 1.388 . S
C188 C189 1.386 . S
C189 C188 1.386 . S
C189 C190 1.382 . S
C189 H211 0.950 . S
C190 N186 1.332 . S
C190 C189 1.382 . S
C190 H192 0.952 . S
C191 N186 1.332 . S
C191 C187 1.382 . S
C191 H193 0.948 . S
H192 C190 0.952 . S
H193 C191 0.948 . S
H194 C183 0.952 . S
H195 C185 0.948 . S
C196 C162 1.395 . S
C196 C166 1.391 . S
C197 C159 1.389 . S
C197 C179 1.392 . S
C198 C169 1.392 . S
C198 C171 1.389 . S
C199 C174 1.395 . S
C199 C176 1.391 . S
H200 C160 0.951 . S
H201 C161 0.950 . S
H202 C167 0.949 . S
H203 C168 0.950 . S
H204 C172 0.951 . S
H205 C173 0.950 . S
H206 C177 0.949 . S
H207 C178 0.950 . S
H208 C182 0.950 . S
H209 C184 0.950 . S
H210 C187 0.950 . S
H211 C189 0.950 . S
C212 C213 1.443 . S
C212 N216 1.376 . S
C212 C250 1.389 . S
C213 C212 1.443 . S
C213 C214 1.340 . S
C213 H253 0.951 . S
C214 C213 1.340 . S
C214 C215 1.439 . S
C214 H254 0.950 . S
C215 C214 1.439 . S
C215 N216 1.374 . S
C215 C249 1.395 . S
N216 C212 1.376 . S
N216 C215 1.374 . S
N216 Co217 2.008 . S
Co217 N216 2.008 . S
Co217 N218 1.995 . S
Co217 N223 2.008 . S
Co217 N228 1.995 . S
Co217 N233 2.282 . S
Co217 N239 2.282 . S
N218 Co217 1.995 . S
N218 C219 1.376 . S
N218 C222 1.383 . S
C219 N218 1.376 . S
C219 C220 1.446 . S
C219 C249 1.391 . S
C220 C219 1.446 . S
C220 C221 1.339 . S
C220 H255 0.949 . S
C221 C220 1.339 . S
C221 C222 1.439 . S
C221 H256 0.950 . S
C222 N218 1.383 . S
C222 C221 1.439 . S
C222 C251 1.392 . S
N223 Co217 2.008 . S
N223 C224 1.376 . S
N223 C227 1.374 . S
C224 N223 1.376 . S
C224 C225 1.443 . S
C224 C251 1.389 . S
C225 C224 1.443 . S
C225 C226 1.340 . S
C225 H257 0.951 . S
C226 C225 1.340 . S
C226 C227 1.439 . S
C226 H258 0.950 . S
C227 N223 1.374 . S
C227 C226 1.439 . S
C227 C252 1.395 . S
N228 Co217 1.995 . S
N228 C229 1.376 . S
N228 C232 1.383 . S
C229 N228 1.376 . S
C229 C230 1.446 . S
C229 C252 1.391 . S
C230 C229 1.446 . S
C230 C231 1.339 . S
C230 H259 0.949 . S
C231 C230 1.339 . S
C231 C232 1.439 . S
C231 H260 0.950 . S
C232 N228 1.383 . S
C232 C231 1.439 . S
C232 C250 1.392 . S
N233 Co217 2.282 . S
N233 C236 1.332 . S
N233 C238 1.332 . S
C234 C235 1.386 . S
C234 C237 1.388 . S
C235 C234 1.386 . S
C235 C236 1.382 . S
C235 H261 0.950 . S
C236 N233 1.332 . S
C236 C235 1.382 . S
C236 H247 0.952 . S
C237 C234 1.388 . S
C237 C238 1.382 . S
C237 H262 0.950 . S
C238 N233 1.332 . S
C238 C237 1.382 . S
C238 H248 0.948 . S
N239 Co217 2.282 . S
N239 C243 1.332 . S
N239 C244 1.332 . S
C240 C241 1.388 . S
C240 C244 1.382 . S
C240 H263 0.950 . S
C241 C240 1.388 . S
C241 C242 1.386 . S
C242 C241 1.386 . S
C242 C243 1.382 . S
C242 H264 0.950 . S
C243 N239 1.332 . S
C243 C242 1.382 . S
C243 H245 0.952 . S
C244 N239 1.332 . S
C244 C240 1.382 . S
C244 H246 0.948 . S
H245 C243 0.952 . S
H246 C244 0.948 . S
H247 C236 0.952 . S
H248 C238 0.948 . S
C249 C215 1.395 . S
C249 C219 1.391 . S
C250 C212 1.389 . S
C250 C232 1.392 . S
C251 C222 1.392 . S
C251 C224 1.389 . S
C252 C227 1.395 . S
C252 C229 1.391 . S
H253 C213 0.951 . S
H254 C214 0.950 . S
H255 C220 0.949 . S
H256 C221 0.950 . S
H257 C225 0.951 . S
H258 C226 0.950 . S
H259 C230 0.949 . S
H260 C231 0.950 . S
H261 C235 0.950 . S
H262 C237 0.950 . S
H263 C240 0.950 . S
H264 C242 0.950 . S
C265 C266 1.443 . S
C265 N269 1.376 . S
C265 C303 1.389 . S
C266 C265 1.443 . S
C266 C267 1.340 . S
C266 H306 0.951 . S
C267 C266 1.340 . S
C267 C268 1.439 . S
C267 H307 0.950 . S
C268 C267 1.439 . S
C268 N269 1.374 . S
C268 C302 1.395 . S
N269 C265 1.376 . S
N269 C268 1.374 . S
N269 Co270 2.008 . S
Co270 N269 2.008 . S
Co270 N271 1.995 . S
Co270 N276 2.008 . S
Co270 N281 1.995 . S
Co270 N286 2.282 . S
Co270 N292 2.282 . S
N271 Co270 1.995 . S
N271 C272 1.376 . S
N271 C275 1.383 . S
C272 N271 1.376 . S
C272 C273 1.446 . S
C272 C302 1.391 . S
C273 C272 1.446 . S
C273 C274 1.339 . S
C273 H308 0.949 . S
C274 C273 1.339 . S
C274 C275 1.439 . S
C274 H309 0.950 . S
C275 N271 1.383 . S
C275 C274 1.439 . S
C275 C304 1.392 . S
N276 Co270 2.008 . S
N276 C277 1.376 . S
N276 C280 1.374 . S
C277 N276 1.376 . S
C277 C278 1.443 . S
C277 C304 1.389 . S
C278 C277 1.443 . S
C278 C279 1.340 . S
C278 H310 0.951 . S
C279 C278 1.340 . S
C279 C280 1.439 . S
C279 H311 0.950 . S
C280 N276 1.374 . S
C280 C279 1.439 . S
C280 C305 1.395 . S
N281 Co270 1.995 . S
N281 C282 1.376 . S
N281 C285 1.383 . S
C282 N281 1.376 . S
C282 C283 1.446 . S
C282 C305 1.391 . S
C283 C282 1.446 . S
C283 C284 1.339 . S
C283 H312 0.949 . S
C284 C283 1.339 . S
C284 C285 1.439 . S
C284 H313 0.950 . S
C285 N281 1.383 . S
C285 C284 1.439 . S
C285 C303 1.392 . S
N286 Co270 2.282 . S
N286 C289 1.332 . S
N286 C291 1.332 . S
C287 C288 1.386 . S
C287 C290 1.388 . S
C288 C287 1.386 . S
C288 C289 1.382 . S
C288 H314 0.950 . S
C289 N286 1.332 . S
C289 C288 1.382 . S
C289 H300 0.952 . S
C290 C287 1.388 . S
C290 C291 1.382 . S
C290 H315 0.950 . S
C291 N286 1.332 . S
C291 C290 1.382 . S
C291 H301 0.948 . S
N292 Co270 2.282 . S
N292 C296 1.332 . S
N292 C297 1.332 . S
C293 C294 1.388 . S
C293 C297 1.382 . S
C293 H316 0.950 . S
C294 C293 1.388 . S
C294 C295 1.386 . S
C295 C294 1.386 . S
C295 C296 1.382 . S
C295 H317 0.950 . S
C296 N292 1.332 . S
C296 C295 1.382 . S
C296 H298 0.952 . S
C297 N292 1.332 . S
C297 C293 1.382 . S
C297 H299 0.948 . S
H298 C296 0.952 . S
H299 C297 0.948 . S
H300 C289 0.952 . S
H301 C291 0.948 . S
C302 C268 1.395 . S
C302 C272 1.391 . S
C303 C265 1.389 . S
C303 C285 1.392 . S
C304 C275 1.392 . S
C304 C277 1.389 . S
C305 C280 1.395 . S
C305 C282 1.391 . S
H306 C266 0.951 . S
H307 C267 0.950 . S
H308 C273 0.949 . S
H309 C274 0.950 . S
H310 C278 0.951 . S
H311 C279 0.950 . S
H312 C283 0.949 . S
H313 C284 0.950 . S
H314 C288 0.950 . S
H315 C290 0.950 . S
H316 C293 0.950 . S
H317 C295 0.950 . S
C318 C319 1.443 . S
C318 N322 1.376 . S
C318 C356 1.389 . S
C319 C318 1.443 . S
C319 C320 1.340 . S
C319 H359 0.951 . S
C320 C319 1.340 . S
C320 C321 1.439 . S
C320 H360 0.950 . S
C321 C320 1.439 . S
C321 N322 1.374 . S
C321 C355 1.395 . S
N322 C318 1.376 . S
N322 C321 1.374 . S
N322 Co323 2.008 . S
Co323 N322 2.008 . S
Co323 N324 1.995 . S
Co323 N329 2.008 . S
Co323 N334 1.995 . S
Co323 N339 2.282 . S
Co323 N345 2.282 . S
N324 Co323 1.995 . S
N324 C325 1.376 . S
N324 C328 1.383 . S
C325 N324 1.376 . S
C325 C326 1.446 . S
C325 C355 1.391 . S
C326 C325 1.446 . S
C326 C327 1.339 . S
C326 H361 0.949 . S
C327 C326 1.339 . S
C327 C328 1.439 . S
C327 H362 0.950 . S
C328 N324 1.383 . S
C328 C327 1.439 . S
C328 C357 1.392 . S
N329 Co323 2.008 . S
N329 C330 1.376 . S
N329 C333 1.374 . S
C330 N329 1.376 . S
C330 C331 1.443 . S
C330 C357 1.389 . S
C331 C330 1.443 . S
C331 C332 1.340 . S
C331 H363 0.951 . S
C332 C331 1.340 . S
C332 C333 1.439 . S
C332 H364 0.950 . S
C333 N329 1.374 . S
C333 C332 1.439 . S
C333 C358 1.395 . S
N334 Co323 1.995 . S
N334 C335 1.376 . S
N334 C338 1.383 . S
C335 N334 1.376 . S
C335 C336 1.446 . S
C335 C358 1.391 . S
C336 C335 1.446 . S
C336 C337 1.339 . S
C336 H365 0.949 . S
C337 C336 1.339 . S
C337 C338 1.439 . S
C337 H366 0.950 . S
C338 N334 1.383 . S
C338 C337 1.439 . S
C338 C356 1.392 . S
N339 Co323 2.282 . S
N339 C342 1.332 . S
N339 C344 1.332 . S
C340 C341 1.386 . S
C340 C343 1.388 . S
C341 C340 1.386 . S
C341 C342 1.382 . S
C341 H367 0.950 . S
C342 N339 1.332 . S
C342 C341 1.382 . S
C342 H353 0.952 . S
C343 C340 1.388 . S
C343 C344 1.382 . S
C343 H368 0.950 . S
C344 N339 1.332 . S
C344 C343 1.382 . S
C344 H354 0.948 . S
N345 Co323 2.282 . S
N345 C349 1.332 . S
N345 C350 1.332 . S
C346 C347 1.388 . S
C346 C350 1.382 . S
C346 H369 0.950 . S
C347 C346 1.388 . S
C347 C348 1.386 . S
C348 C347 1.386 . S
C348 C349 1.382 . S
C348 H370 0.950 . S
C349 N345 1.332 . S
C349 C348 1.382 . S
C349 H351 0.952 . S
C350 N345 1.332 . S
C350 C346 1.382 . S
C350 H352 0.948 . S
H351 C349 0.952 . S
H352 C350 0.948 . S
H353 C342 0.952 . S
H354 C344 0.948 . S
C355 C321 1.395 . S
C355 C325 1.391 . S
C356 C318 1.389 . S
C356 C338 1.392 . S
C357 C328 1.392 . S
C357 C330 1.389 . S
C358 C333 1.395 . S
C358 C335 1.391 . S
H359 C319 0.951 . S
H360 C320 0.950 . S
H361 C326 0.949 . S
H362 C327 0.950 . S
H363 C331 0.951 . S
H364 C332 0.950 . S
H365 C336 0.949 . S
H366 C337 0.950 . S
H367 C341 0.950 . S
H368 C343 0.950 . S
H369 C346 0.950 . S
H370 C348 0.950 . S
C371 C372 1.443 . S
C371 N375 1.376 . S
C371 C409 1.389 . S
C372 C371 1.443 . S
C372 C373 1.340 . S
C372 H412 0.951 . S
C373 C372 1.340 . S
C373 C374 1.439 . S
C373 H413 0.950 . S
C374 C373 1.439 . S
C374 N375 1.374 . S
C374 C408 1.395 . S
N375 C371 1.376 . S
N375 C374 1.374 . S
N375 Co376 2.008 . S
Co376 N375 2.008 . S
Co376 N377 1.995 . S
Co376 N382 2.008 . S
Co376 N387 1.995 . S
Co376 N392 2.282 . S
Co376 N398 2.282 . S
N377 Co376 1.995 . S
N377 C378 1.376 . S
N377 C381 1.383 . S
C378 N377 1.376 . S
C378 C379 1.446 . S
C378 C408 1.391 . S
C379 C378 1.446 . S
C379 C380 1.339 . S
C379 H414 0.949 . S
C380 C379 1.339 . S
C380 C381 1.439 . S
C380 H415 0.950 . S
C381 N377 1.383 . S
C381 C380 1.439 . S
C381 C410 1.392 . S
N382 Co376 2.008 . S
N382 C383 1.376 . S
N382 C386 1.374 . S
C383 N382 1.376 . S
C383 C384 1.443 . S
C383 C410 1.389 . S
C384 C383 1.443 . S
C384 C385 1.340 . S
C384 H416 0.951 . S
C385 C384 1.340 . S
C385 C386 1.439 . S
C385 H417 0.950 . S
C386 N382 1.374 . S
C386 C385 1.439 . S
C386 C411 1.395 . S
N387 Co376 1.995 . S
N387 C388 1.376 . S
N387 C391 1.383 . S
C388 N387 1.376 . S
C388 C389 1.446 . S
C388 C411 1.391 . S
C389 C388 1.446 . S
C389 C390 1.339 . S
C389 H418 0.949 . S
C390 C389 1.339 . S
C390 C391 1.439 . S
C390 H419 0.950 . S
C391 N387 1.383 . S
C391 C390 1.439 . S
C391 C409 1.392 . S
N392 Co376 2.282 . S
N392 C395 1.332 . S
N392 C397 1.332 . S
C393 C394 1.386 . S
C393 C396 1.388 . S
C394 C393 1.386 . S
C394 C395 1.382 . S
C394 H420 0.950 . S
C395 N392 1.332 . S
C395 C394 1.382 . S
C395 H406 0.952 . S
C396 C393 1.388 . S
C396 C397 1.382 . S
C396 H421 0.950 . S
C397 N392 1.332 . S
C397 C396 1.382 . S
C397 H407 0.948 . S
N398 Co376 2.282 . S
N398 C402 1.332 . S
N398 C403 1.332 . S
C399 C400 1.388 . S
C399 C403 1.382 . S
C399 H422 0.950 . S
C400 C399 1.388 . S
C400 C401 1.386 . S
C401 C400 1.386 . S
C401 C402 1.382 . S
C401 H423 0.950 . S
C402 N398 1.332 . S
C402 C401 1.382 . S
C402 H404 0.952 . S
C403 N398 1.332 . S
C403 C399 1.382 . S
C403 H405 0.948 . S
H404 C402 0.952 . S
H405 C403 0.948 . S
H406 C395 0.952 . S
H407 C397 0.948 . S
C408 C374 1.395 . S
C408 C378 1.391 . S
C409 C371 1.389 . S
C409 C391 1.392 . S
C410 C381 1.392 . S
C410 C383 1.389 . S
C411 C386 1.395 . S
C411 C388 1.391 . S
H412 C372 0.951 . S
H413 C373 0.950 . S
H414 C379 0.949 . S
H415 C380 0.950 . S
H416 C384 0.951 . S
H417 C385 0.950 . S
H418 C389 0.949 . S
H419 C390 0.950 . S
H420 C394 0.950 . S
H421 C396 0.950 . S
H422 C399 0.950 . S
H423 C401 0.950 . S
C424 C425 1.443 . S
C424 N428 1.376 . S
C424 C462 1.389 . S
C425 C424 1.443 . S
C425 C426 1.340 . S
C425 H465 0.951 . S
C426 C425 1.340 . S
C426 C427 1.439 . S
C426 H466 0.950 . S
C427 C426 1.439 . S
C427 N428 1.374 . S
C427 C461 1.395 . S
N428 C424 1.376 . S
N428 C427 1.374 . S
N428 Co429 2.008 . S
Co429 N428 2.008 . S
Co429 N430 1.995 . S
Co429 N435 2.008 . S
Co429 N440 1.995 . S
Co429 N445 2.282 . S
Co429 N451 2.282 . S
N430 Co429 1.995 . S
N430 C431 1.376 . S
N430 C434 1.383 . S
C431 N430 1.376 . S
C431 C432 1.446 . S
C431 C461 1.391 . S
C432 C431 1.446 . S
C432 C433 1.339 . S
C432 H467 0.949 . S
C433 C432 1.339 . S
C433 C434 1.439 . S
C433 H468 0.950 . S
C434 N430 1.383 . S
C434 C433 1.439 . S
C434 C463 1.392 . S
N435 Co429 2.008 . S
N435 C436 1.376 . S
N435 C439 1.374 . S
C436 N435 1.376 . S
C436 C437 1.443 . S
C436 C463 1.389 . S
C437 C436 1.443 . S
C437 C438 1.340 . S
C437 H469 0.951 . S
C438 C437 1.340 . S
C438 C439 1.439 . S
C438 H470 0.950 . S
C439 N435 1.374 . S
C439 C438 1.439 . S
C439 C464 1.395 . S
N440 Co429 1.995 . S
N440 C441 1.376 . S
N440 C444 1.383 . S
C441 N440 1.376 . S
C441 C442 1.446 . S
C441 C464 1.391 . S
C442 C441 1.446 . S
C442 C443 1.339 . S
C442 H471 0.949 . S
C443 C442 1.339 . S
C443 C444 1.439 . S
C443 H472 0.950 . S
C444 N440 1.383 . S
C444 C443 1.439 . S
C444 C462 1.392 . S
N445 Co429 2.282 . S
N445 C448 1.332 . S
N445 C450 1.332 . S
C446 C447 1.386 . S
C446 C449 1.388 . S
C447 C446 1.386 . S
C447 C448 1.382 . S
C447 H473 0.950 . S
C448 N445 1.332 . S
C448 C447 1.382 . S
C448 H459 0.952 . S
C449 C446 1.388 . S
C449 C450 1.382 . S
C449 H474 0.950 . S
C450 N445 1.332 . S
C450 C449 1.382 . S
C450 H460 0.948 . S
N451 Co429 2.282 . S
N451 C455 1.332 . S
N451 C456 1.332 . S
C452 C453 1.388 . S
C452 C456 1.382 . S
C452 H475 0.950 . S
C453 C452 1.388 . S
C453 C454 1.386 . S
C454 C453 1.386 . S
C454 C455 1.382 . S
C454 H476 0.950 . S
C455 N451 1.332 . S
C455 C454 1.382 . S
C455 H457 0.952 . S
C456 N451 1.332 . S
C456 C452 1.382 . S
C456 H458 0.948 . S
H457 C455 0.952 . S
H458 C456 0.948 . S
H459 C448 0.952 . S
H460 C450 0.948 . S
C461 C427 1.395 . S
C461 C431 1.391 . S
C462 C424 1.389 . S
C462 C444 1.392 . S
C463 C434 1.392 . S
C463 C436 1.389 . S
C464 C439 1.395 . S
C464 C441 1.391 . S
H465 C425 0.951 . S
H466 C426 0.950 . S
H467 C432 0.949 . S
H468 C433 0.950 . S
H469 C437 0.951 . S
H470 C438 0.950 . S
H471 C442 0.949 . S
H472 C443 0.950 . S
H473 C447 0.950 . S
H474 C449 0.950 . S
H475 C452 0.950 . S
H476 C454 0.950 . S
C477 C478 1.443 . S
C477 N481 1.376 . S
C477 C515 1.389 . S
C478 C477 1.443 . S
C478 C479 1.340 . S
C478 H518 0.951 . S
C479 C478 1.340 . S
C479 C480 1.439 . S
C479 H519 0.950 . S
C480 C479 1.439 . S
C480 N481 1.374 . S
C480 C514 1.395 . S
N481 C477 1.376 . S
N481 C480 1.374 . S
N481 Co482 2.008 . S
Co482 N481 2.008 . S
Co482 N483 1.995 . S
Co482 N488 2.008 . S
Co482 N493 1.995 . S
Co482 N498 2.282 . S
Co482 N504 2.282 . S
N483 Co482 1.995 . S
N483 C484 1.376 . S
N483 C487 1.383 . S
C484 N483 1.376 . S
C484 C485 1.446 . S
C484 C514 1.391 . S
C485 C484 1.446 . S
C485 C486 1.339 . S
C485 H520 0.949 . S
C486 C485 1.339 . S
C486 C487 1.439 . S
C486 H521 0.950 . S
C487 N483 1.383 . S
C487 C486 1.439 . S
C487 C516 1.392 . S
N488 Co482 2.008 . S
N488 C489 1.376 . S
N488 C492 1.374 . S
C489 N488 1.376 . S
C489 C490 1.443 . S
C489 C516 1.389 . S
C490 C489 1.443 . S
C490 C491 1.340 . S
C490 H522 0.951 . S
C491 C490 1.340 . S
C491 C492 1.439 . S
C491 H523 0.950 . S
C492 N488 1.374 . S
C492 C491 1.439 . S
C492 C517 1.395 . S
N493 Co482 1.995 . S
N493 C494 1.376 . S
N493 C497 1.383 . S
C494 N493 1.376 . S
C494 C495 1.446 . S
C494 C517 1.391 . S
C495 C494 1.446 . S
C495 C496 1.339 . S
C495 H524 0.949 . S
C496 C495 1.339 . S
C496 C497 1.439 . S
C496 H525 0.950 . S
C497 N493 1.383 . S
C497 C496 1.439 . S
C497 C515 1.392 . S
N498 Co482 2.282 . S
N498 C501 1.332 . S
N498 C503 1.332 . S
C499 C500 1.386 . S
C499 C502 1.388 . S
C500 C499 1.386 . S
C500 C501 1.382 . S
C500 H526 0.950 . S
C501 N498 1.332 . S
C501 C500 1.382 . S
C501 H512 0.952 . S
C502 C499 1.388 . S
C502 C503 1.382 . S
C502 H527 0.950 . S
C503 N498 1.332 . S
C503 C502 1.382 . S
C503 H513 0.948 . S
N504 Co482 2.282 . S
N504 C508 1.332 . S
N504 C509 1.332 . S
C505 C506 1.388 . S
C505 C509 1.382 . S
C505 H528 0.950 . S
C506 C505 1.388 . S
C506 C507 1.386 . S
C507 C506 1.386 . S
C507 C508 1.382 . S
C507 H529 0.950 . S
C508 N504 1.332 . S
C508 C507 1.382 . S
C508 H510 0.952 . S
C509 N504 1.332 . S
C509 C505 1.382 . S
C509 H511 0.948 . S
H510 C508 0.952 . S
H511 C509 0.948 . S
H512 C501 0.952 . S
H513 C503 0.948 . S
C514 C480 1.395 . S
C514 C484 1.391 . S
C515 C477 1.389 . S
C515 C497 1.392 . S
C516 C487 1.392 . S
C516 C489 1.389 . S
C517 C492 1.395 . S
C517 C494 1.391 . S
H518 C478 0.951 . S
H519 C479 0.950 . S
H520 C485 0.949 . S
H521 C486 0.950 . S
H522 C490 0.951 . S
H523 C491 0.950 . S
H524 C495 0.949 . S
H525 C496 0.950 . S
H526 C500 0.950 . S
H527 C502 0.950 . S
H528 C505 0.950 . S
H529 C507 0.950 . S
C530 C531 1.443 . S
C530 N534 1.376 . S
C530 C568 1.389 . S
C531 C530 1.443 . S
C531 C532 1.340 . S
C531 H571 0.951 . S
C532 C531 1.340 . S
C532 C533 1.439 . S
C532 H572 0.950 . S
C533 C532 1.439 . S
C533 N534 1.374 . S
C533 C567 1.395 . S
N534 C530 1.376 . S
N534 C533 1.374 . S
N534 Co535 2.008 . S
Co535 N534 2.008 . S
Co535 N536 1.995 . S
Co535 N541 2.008 . S
Co535 N546 1.995 . S
Co535 N551 2.282 . S
Co535 N557 2.282 . S
N536 Co535 1.995 . S
N536 C537 1.376 . S
N536 C540 1.383 . S
C537 N536 1.376 . S
C537 C538 1.446 . S
C537 C567 1.391 . S
C538 C537 1.446 . S
C538 C539 1.339 . S
C538 H573 0.949 . S
C539 C538 1.339 . S
C539 C540 1.439 . S
C539 H574 0.950 . S
C540 N536 1.383 . S
C540 C539 1.439 . S
C540 C569 1.392 . S
N541 Co535 2.008 . S
N541 C542 1.376 . S
N541 C545 1.374 . S
C542 N541 1.376 . S
C542 C543 1.443 . S
C542 C569 1.389 . S
C543 C542 1.443 . S
C543 C544 1.340 . S
C543 H575 0.951 . S
C544 C543 1.340 . S
C544 C545 1.439 . S
C544 H576 0.950 . S
C545 N541 1.374 . S
C545 C544 1.439 . S
C545 C570 1.395 . S
N546 Co535 1.995 . S
N546 C547 1.376 . S
N546 C550 1.383 . S
C547 N546 1.376 . S
C547 C548 1.446 . S
C547 C570 1.391 . S
C548 C547 1.446 . S
C548 C549 1.339 . S
C548 H577 0.949 . S
C549 C548 1.339 . S
C549 C550 1.439 . S
C549 H578 0.950 . S
C550 N546 1.383 . S
C550 C549 1.439 . S
C550 C568 1.392 . S
N551 Co535 2.282 . S
N551 C554 1.332 . S
N551 C556 1.332 . S
C552 C553 1.386 . S
C552 C555 1.388 . S
C553 C552 1.386 . S
C553 C554 1.382 . S
C553 H579 0.950 . S
C554 N551 1.332 . S
C554 C553 1.382 . S
C554 H565 0.952 . S
C555 C552 1.388 . S
C555 C556 1.382 . S
C555 H580 0.950 . S
C556 N551 1.332 . S
C556 C555 1.382 . S
C556 H566 0.948 . S
N557 Co535 2.282 . S
N557 C561 1.332 . S
N557 C562 1.332 . S
C558 C559 1.388 . S
C558 C562 1.382 . S
C558 H581 0.950 . S
C559 C558 1.388 . S
C559 C560 1.386 . S
C560 C559 1.386 . S
C560 C561 1.382 . S
C560 H582 0.950 . S
C561 N557 1.332 . S
C561 C560 1.382 . S
C561 H563 0.952 . S
C562 N557 1.332 . S
C562 C558 1.382 . S
C562 H564 0.948 . S
H563 C561 0.952 . S
H564 C562 0.948 . S
H565 C554 0.952 . S
H566 C556 0.948 . S
C567 C533 1.395 . S
C567 C537 1.391 . S
C568 C530 1.389 . S
C568 C550 1.392 . S
C569 C540 1.392 . S
C569 C542 1.389 . S
C570 C545 1.395 . S
C570 C547 1.391 . S
H571 C531 0.951 . S
H572 C532 0.950 . S
H573 C538 0.949 . S
H574 C539 0.950 . S
H575 C543 0.951 . S
H576 C544 0.950 . S
H577 C548 0.949 . S
H578 C549 0.950 . S
H579 C553 0.950 . S
H580 C555 0.950 . S
H581 C558 0.950 . S
H582 C560 0.950 . S
C583 C584 1.443 . S
C583 N587 1.376 . S
C583 C621 1.389 . S
C584 C583 1.443 . S
C584 C585 1.340 . S
C584 H624 0.951 . S
C585 C584 1.340 . S
C585 C586 1.439 . S
C585 H625 0.950 . S
C586 C585 1.439 . S
C586 N587 1.374 . S
C586 C620 1.395 . S
N587 C583 1.376 . S
N587 C586 1.374 . S
N587 Co588 2.008 . S
Co588 N587 2.008 . S
Co588 N589 1.995 . S
Co588 N594 2.008 . S
Co588 N599 1.995 . S
Co588 N604 2.282 . S
Co588 N610 2.282 . S
N589 Co588 1.995 . S
N589 C590 1.376 . S
N589 C593 1.383 . S
C590 N589 1.376 . S
C590 C591 1.446 . S
C590 C620 1.391 . S
C591 C590 1.446 . S
C591 C592 1.339 . S
C591 H626 0.949 . S
C592 C591 1.339 . S
C592 C593 1.439 . S
C592 H627 0.950 . S
C593 N589 1.383 . S
C593 C592 1.439 . S
C593 C622 1.392 . S
N594 Co588 2.008 . S
N594 C595 1.376 . S
N594 C598 1.374 . S
C595 N594 1.376 . S
C595 C596 1.443 . S
C595 C622 1.389 . S
C596 C595 1.443 . S
C596 C597 1.340 . S
C596 H628 0.951 . S
C597 C596 1.340 . S
C597 C598 1.439 . S
C597 H629 0.950 . S
C598 N594 1.374 . S
C598 C597 1.439 . S
C598 C623 1.395 . S
N599 Co588 1.995 . S
N599 C600 1.376 . S
N599 C603 1.383 . S
C600 N599 1.376 . S
C600 C601 1.446 . S
C600 C623 1.391 . S
C601 C600 1.446 . S
C601 C602 1.339 . S
C601 H630 0.949 . S
C602 C601 1.339 . S
C602 C603 1.439 . S
C602 H631 0.950 . S
C603 N599 1.383 . S
C603 C602 1.439 . S
C603 C621 1.392 . S
N604 Co588 2.282 . S
N604 C607 1.332 . S
N604 C609 1.332 . S
C605 C606 1.386 . S
C605 C608 1.388 . S
C606 C605 1.386 . S
C606 C607 1.382 . S
C606 H632 0.950 . S
C607 N604 1.332 . S
C607 C606 1.382 . S
C607 H618 0.952 . S
C608 C605 1.388 . S
C608 C609 1.382 . S
C608 H633 0.950 . S
C609 N604 1.332 . S
C609 C608 1.382 . S
C609 H619 0.948 . S
N610 Co588 2.282 . S
N610 C614 1.332 . S
N610 C615 1.332 . S
C611 C612 1.388 . S
C611 C615 1.382 . S
C611 H634 0.950 . S
C612 C611 1.388 . S
C612 C613 1.386 . S
C613 C612 1.386 . S
C613 C614 1.382 . S
C613 H635 0.950 . S
C614 N610 1.332 . S
C614 C613 1.382 . S
C614 H616 0.952 . S
C615 N610 1.332 . S
C615 C611 1.382 . S
C615 H617 0.948 . S
H616 C614 0.952 . S
H617 C615 0.948 . S
H618 C607 0.952 . S
H619 C609 0.948 . S
C620 C586 1.395 . S
C620 C590 1.391 . S
C621 C583 1.389 . S
C621 C603 1.392 . S
C622 C593 1.392 . S
C622 C595 1.389 . S
C623 C598 1.395 . S
C623 C600 1.391 . S
H624 C584 0.951 . S
H625 C585 0.950 . S
H626 C591 0.949 . S
H627 C592 0.950 . S
H628 C596 0.951 . S
H629 C597 0.950 . S
H630 C601 0.949 . S
H631 C602 0.950 . S
H632 C606 0.950 . S
H633 C608 0.950 . S
H634 C611 0.950 . S
H635 C613 0.950 . S
C636 C637 1.443 . S
C636 N640 1.376 . S
C636 C674 1.389 . S
C637 C636 1.443 . S
C637 C638 1.340 . S
C637 H677 0.951 . S
C638 C637 1.340 . S
C638 C639 1.439 . S
C638 H678 0.950 . S
C639 C638 1.439 . S
C639 N640 1.374 . S
C639 C673 1.395 . S
N640 C636 1.376 . S
N640 C639 1.374 . S
N640 Co641 2.008 . S
Co641 N640 2.008 . S
Co641 N642 1.995 . S
Co641 N647 2.008 . S
Co641 N652 1.995 . S
Co641 N657 2.282 . S
Co641 N663 2.282 . S
N642 Co641 1.995 . S
N642 C643 1.376 . S
N642 C646 1.383 . S
C643 N642 1.376 . S
C643 C644 1.446 . S
C643 C673 1.391 . S
C644 C643 1.446 . S
C644 C645 1.339 . S
C644 H679 0.949 . S
C645 C644 1.339 . S
C645 C646 1.439 . S
C645 H680 0.950 . S
C646 N642 1.383 . S
C646 C645 1.439 . S
C646 C675 1.392 . S
N647 Co641 2.008 . S
N647 C648 1.376 . S
N647 C651 1.374 . S
C648 N647 1.376 . S
C648 C649 1.443 . S
C648 C675 1.389 . S
C649 C648 1.443 . S
C649 C650 1.340 . S
C649 H681 0.951 . S
C650 C649 1.340 . S
C650 C651 1.439 . S
C650 H682 0.950 . S
C651 N647 1.374 . S
C651 C650 1.439 . S
C651 C676 1.395 . S
N652 Co641 1.995 . S
N652 C653 1.376 . S
N652 C656 1.383 . S
C653 N652 1.376 . S
C653 C654 1.446 . S
C653 C676 1.391 . S
C654 C653 1.446 . S
C654 C655 1.339 . S
C654 H683 0.949 . S
C655 C654 1.339 . S
C655 C656 1.439 . S
C655 H684 0.950 . S
C656 N652 1.383 . S
C656 C655 1.439 . S
C656 C674 1.392 . S
N657 Co641 2.282 . S
N657 C660 1.332 . S
N657 C662 1.332 . S
C658 C659 1.386 . S
C658 C661 1.388 . S
C659 C658 1.386 . S
C659 C660 1.382 . S
C659 H685 0.950 . S
C660 N657 1.332 . S
C660 C659 1.382 . S
C660 H671 0.952 . S
C661 C658 1.388 . S
C661 C662 1.382 . S
C661 H686 0.950 . S
C662 N657 1.332 . S
C662 C661 1.382 . S
C662 H672 0.948 . S
N663 Co641 2.282 . S
N663 C667 1.332 . S
N663 C668 1.332 . S
C664 C665 1.388 . S
C664 C668 1.382 . S
C664 H687 0.950 . S
C665 C664 1.388 . S
C665 C666 1.386 . S
C666 C665 1.386 . S
C666 C667 1.382 . S
C666 H688 0.950 . S
C667 N663 1.332 . S
C667 C666 1.382 . S
C667 H669 0.952 . S
C668 N663 1.332 . S
C668 C664 1.382 . S
C668 H670 0.948 . S
H669 C667 0.952 . S
H670 C668 0.948 . S
H671 C660 0.952 . S
H672 C662 0.948 . S
C673 C639 1.395 . S
C673 C643 1.391 . S
C674 C636 1.389 . S
C674 C656 1.392 . S
C675 C646 1.392 . S
C675 C648 1.389 . S
C676 C651 1.395 . S
C676 C653 1.391 . S
H677 C637 0.951 . S
H678 C638 0.950 . S
H679 C644 0.949 . S
H680 C645 0.950 . S
H681 C649 0.951 . S
H682 C650 0.950 . S
H683 C654 0.949 . S
H684 C655 0.950 . S
H685 C659 0.950 . S
H686 C661 0.950 . S
H687 C664 0.950 . S
H688 C666 0.950 . S
C689 C690 1.443 . S
C689 N693 1.376 . S
C689 C727 1.389 . S
C690 C689 1.443 . S
C690 C691 1.340 . S
C690 H730 0.951 . S
C691 C690 1.340 . S
C691 C692 1.439 . S
C691 H731 0.950 . S
C692 C691 1.439 . S
C692 N693 1.374 . S
C692 C726 1.395 . S
N693 C689 1.376 . S
N693 C692 1.374 . S
N693 Co694 2.008 . S
Co694 N693 2.008 . S
Co694 N695 1.995 . S
Co694 N700 2.008 . S
Co694 N705 1.995 . S
Co694 N710 2.282 . S
Co694 N716 2.282 . S
N695 Co694 1.995 . S
N695 C696 1.376 . S
N695 C699 1.383 . S
C696 N695 1.376 . S
C696 C697 1.446 . S
C696 C726 1.391 . S
C697 C696 1.446 . S
C697 C698 1.339 . S
C697 H732 0.949 . S
C698 C697 1.339 . S
C698 C699 1.439 . S
C698 H733 0.950 . S
C699 N695 1.383 . S
C699 C698 1.439 . S
C699 C728 1.392 . S
N700 Co694 2.008 . S
N700 C701 1.376 . S
N700 C704 1.374 . S
C701 N700 1.376 . S
C701 C702 1.443 . S
C701 C728 1.389 . S
C702 C701 1.443 . S
C702 C703 1.340 . S
C702 H734 0.951 . S
C703 C702 1.340 . S
C703 C704 1.439 . S
C703 H735 0.950 . S
C704 N700 1.374 . S
C704 C703 1.439 . S
C704 C729 1.395 . S
N705 Co694 1.995 . S
N705 C706 1.376 . S
N705 C709 1.383 . S
C706 N705 1.376 . S
C706 C707 1.446 . S
C706 C729 1.391 . S
C707 C706 1.446 . S
C707 C708 1.339 . S
C707 H736 0.949 . S
C708 C707 1.339 . S
C708 C709 1.439 . S
C708 H737 0.950 . S
C709 N705 1.383 . S
C709 C708 1.439 . S
C709 C727 1.392 . S
N710 Co694 2.282 . S
N710 C713 1.332 . S
N710 C715 1.332 . S
C711 C712 1.386 . S
C711 C714 1.388 . S
C712 C711 1.386 . S
C712 C713 1.382 . S
C712 H738 0.950 . S
C713 N710 1.332 . S
C713 C712 1.382 . S
C713 H724 0.952 . S
C714 C711 1.388 . S
C714 C715 1.382 . S
C714 H739 0.950 . S
C715 N710 1.332 . S
C715 C714 1.382 . S
C715 H725 0.948 . S
N716 Co694 2.282 . S
N716 C720 1.332 . S
N716 C721 1.332 . S
C717 C718 1.388 . S
C717 C721 1.382 . S
C717 H740 0.950 . S
C718 C717 1.388 . S
C718 C719 1.386 . S
C719 C718 1.386 . S
C719 C720 1.382 . S
C719 H741 0.950 . S
C720 N716 1.332 . S
C720 C719 1.382 . S
C720 H722 0.952 . S
C721 N716 1.332 . S
C721 C717 1.382 . S
C721 H723 0.948 . S
H722 C720 0.952 . S
H723 C721 0.948 . S
H724 C713 0.952 . S
H725 C715 0.948 . S
C726 C692 1.395 . S
C726 C696 1.391 . S
C727 C689 1.389 . S
C727 C709 1.392 . S
C728 C699 1.392 . S
C728 C701 1.389 . S
C729 C704 1.395 . S
C729 C706 1.391 . S
H730 C690 0.951 . S
H731 C691 0.950 . S
H732 C697 0.949 . S
H733 C698 0.950 . S
H734 C702 0.951 . S
H735 C703 0.950 . S
H736 C707 0.949 . S
H737 C708 0.950 . S
H738 C712 0.950 . S
H739 C714 0.950 . S
H740 C717 0.950 . S
H741 C719 0.950 . S
C742 C743 1.443 . S
C742 N746 1.376 . S
C742 C780 1.389 . S
C743 C742 1.443 . S
C743 C744 1.340 . S
C743 H783 0.951 . S
C744 C743 1.340 . S
C744 C745 1.439 . S
C744 H784 0.950 . S
C745 C744 1.439 . S
C745 N746 1.374 . S
C745 C779 1.395 . S
N746 C742 1.376 . S
N746 C745 1.374 . S
N746 Co747 2.008 . S
Co747 N746 2.008 . S
Co747 N748 1.995 . S
Co747 N753 2.008 . S
Co747 N758 1.995 . S
Co747 N763 2.282 . S
Co747 N769 2.282 . S
N748 Co747 1.995 . S
N748 C749 1.376 . S
N748 C752 1.383 . S
C749 N748 1.376 . S
C749 C750 1.446 . S
C749 C779 1.391 . S
C750 C749 1.446 . S
C750 C751 1.339 . S
C750 H785 0.949 . S
C751 C750 1.339 . S
C751 C752 1.439 . S
C751 H786 0.950 . S
C752 N748 1.383 . S
C752 C751 1.439 . S
C752 C781 1.392 . S
N753 Co747 2.008 . S
N753 C754 1.376 . S
N753 C757 1.374 . S
C754 N753 1.376 . S
C754 C755 1.443 . S
C754 C781 1.389 . S
C755 C754 1.443 . S
C755 C756 1.340 . S
C755 H787 0.951 . S
C756 C755 1.340 . S
C756 C757 1.439 . S
C756 H788 0.950 . S
C757 N753 1.374 . S
C757 C756 1.439 . S
C757 C782 1.395 . S
N758 Co747 1.995 . S
N758 C759 1.376 . S
N758 C762 1.383 . S
C759 N758 1.376 . S
C759 C760 1.446 . S
C759 C782 1.391 . S
C760 C759 1.446 . S
C760 C761 1.339 . S
C760 H789 0.949 . S
C761 C760 1.339 . S
C761 C762 1.439 . S
C761 H790 0.950 . S
C762 N758 1.383 . S
C762 C761 1.439 . S
C762 C780 1.392 . S
N763 Co747 2.282 . S
N763 C766 1.332 . S
N763 C768 1.332 . S
C764 C765 1.386 . S
C764 C767 1.388 . S
C765 C764 1.386 . S
C765 C766 1.382 . S
C765 H791 0.950 . S
C766 N763 1.332 . S
C766 C765 1.382 . S
C766 H777 0.952 . S
C767 C764 1.388 . S
C767 C768 1.382 . S
C767 H792 0.950 . S
C768 N763 1.332 . S
C768 C767 1.382 . S
C768 H778 0.948 . S
N769 Co747 2.282 . S
N769 C773 1.332 . S
N769 C774 1.332 . S
C770 C771 1.388 . S
C770 C774 1.382 . S
C770 H793 0.950 . S
C771 C770 1.388 . S
C771 C772 1.386 . S
C772 C771 1.386 . S
C772 C773 1.382 . S
C772 H794 0.950 . S
C773 N769 1.332 . S
C773 C772 1.382 . S
C773 H775 0.952 . S
C774 N769 1.332 . S
C774 C770 1.382 . S
C774 H776 0.948 . S
H775 C773 0.952 . S
H776 C774 0.948 . S
H777 C766 0.952 . S
H778 C768 0.948 . S
C779 C745 1.395 . S
C779 C749 1.391 . S
C780 C742 1.389 . S
C780 C762 1.392 . S
C781 C752 1.392 . S
C781 C754 1.389 . S
C782 C757 1.395 . S
C782 C759 1.391 . S
H783 C743 0.951 . S
H784 C744 0.950 . S
H785 C750 0.949 . S
H786 C751 0.950 . S
H787 C755 0.951 . S
H788 C756 0.950 . S
H789 C760 0.949 . S
H790 C761 0.950 . S
H791 C765 0.950 . S
H792 C767 0.950 . S
H793 C770 0.950 . S
H794 C772 0.950 . S
C795 C796 1.443 . S
C795 N799 1.376 . S
C795 C833 1.389 . S
C796 C795 1.443 . S
C796 C797 1.340 . S
C796 H836 0.951 . S
C797 C796 1.340 . S
C797 C798 1.439 . S
C797 H837 0.950 . S
C798 C797 1.439 . S
C798 N799 1.374 . S
C798 C832 1.395 . S
N799 C795 1.376 . S
N799 C798 1.374 . S
N799 Co800 2.008 . S
Co800 N799 2.008 . S
Co800 N801 1.995 . S
Co800 N806 2.008 . S
Co800 N811 1.995 . S
Co800 N816 2.282 . S
Co800 N822 2.282 . S
N801 Co800 1.995 . S
N801 C802 1.376 . S
N801 C805 1.383 . S
C802 N801 1.376 . S
C802 C803 1.446 . S
C802 C832 1.391 . S
C803 C802 1.446 . S
C803 C804 1.339 . S
C803 H838 0.949 . S
C804 C803 1.339 . S
C804 C805 1.439 . S
C804 H839 0.950 . S
C805 N801 1.383 . S
C805 C804 1.439 . S
C805 C834 1.392 . S
N806 Co800 2.008 . S
N806 C807 1.376 . S
N806 C810 1.374 . S
C807 N806 1.376 . S
C807 C808 1.443 . S
C807 C834 1.389 . S
C808 C807 1.443 . S
C808 C809 1.340 . S
C808 H840 0.951 . S
C809 C808 1.340 . S
C809 C810 1.439 . S
C809 H841 0.950 . S
C810 N806 1.374 . S
C810 C809 1.439 . S
C810 C835 1.395 . S
N811 Co800 1.995 . S
N811 C812 1.376 . S
N811 C815 1.383 . S
C812 N811 1.376 . S
C812 C813 1.446 . S
C812 C835 1.391 . S
C813 C812 1.446 . S
C813 C814 1.339 . S
C813 H842 0.949 . S
C814 C813 1.339 . S
C814 C815 1.439 . S
C814 H843 0.950 . S
C815 N811 1.383 . S
C815 C814 1.439 . S
C815 C833 1.392 . S
N816 Co800 2.282 . S
N816 C819 1.332 . S
N816 C821 1.332 . S
C817 C818 1.386 . S
C817 C820 1.388 . S
C818 C817 1.386 . S
C818 C819 1.382 . S
C818 H844 0.950 . S
C819 N816 1.332 . S
C819 C818 1.382 . S
C819 H830 0.952 . S
C820 C817 1.388 . S
C820 C821 1.382 . S
C820 H845 0.950 . S
C821 N816 1.332 . S
C821 C820 1.382 . S
C821 H831 0.948 . S
N822 Co800 2.282 . S
N822 C826 1.332 . S
N822 C827 1.332 . S
C823 C824 1.388 . S
C823 C827 1.382 . S
C823 H846 0.950 . S
C824 C823 1.388 . S
C824 C825 1.386 . S
C825 C824 1.386 . S
C825 C826 1.382 . S
C825 H847 0.950 . S
C826 N822 1.332 . S
C826 C825 1.382 . S
C826 H828 0.952 . S
C827 N822 1.332 . S
C827 C823 1.382 . S
C827 H829 0.948 . S
H828 C826 0.952 . S
H829 C827 0.948 . S
H830 C819 0.952 . S
H831 C821 0.948 . S
C832 C798 1.395 . S
C832 C802 1.391 . S
C833 C795 1.389 . S
C833 C815 1.392 . S
C834 C805 1.392 . S
C834 C807 1.389 . S
C835 C810 1.395 . S
C835 C812 1.391 . S
H836 C796 0.951 . S
H837 C797 0.950 . S
H838 C803 0.949 . S
H839 C804 0.950 . S
H840 C808 0.951 . S
H841 C809 0.950 . S
H842 C813 0.949 . S
H843 C814 0.950 . S
H844 C818 0.950 . S
H845 C820 0.950 . S
H846 C823 0.950 . S
H847 C825 0.950 . S
C848 C849 1.349 . S
C848 C850 1.327 . S
C848 H873 0.950 . S
C849 C848 1.349 . S
C849 C865 1.349 . S
C850 C848 1.327 . S
C850 C869 1.429 . S
C850 H874 0.950 . S
C851 C868 1.574 1_455 S
C851 C870 1.368 . S
C851 H875 0.949 . S
H852 C856 0.949 . S
C853 C854 1.349 . S
C853 C855 1.327 . S
C853 H876 0.950 . S
C854 C853 1.349 . S
C854 C866 1.349 . S
C855 C853 1.327 . S
C855 C871 1.429 . S
C855 H877 0.950 . S
C856 H852 0.949 . S
C856 C864 1.574 1_655 S
C856 C872 1.368 . S
H857 C865 0.950 . S
H858 C863 0.950 . S
H859 C864 0.949 . S
H860 C866 0.950 . S
H861 C867 0.950 . S
H862 C868 0.949 . S
C863 H858 0.950 . S
C863 C865 1.327 . S
C863 C869 1.429 . S
C864 C856 1.574 1_455 S
C864 H859 0.949 . S
C864 C870 1.368 . S
C865 C849 1.349 . S
C865 H857 0.950 . S
C865 C863 1.327 . S
C866 C854 1.349 . S
C866 H860 0.950 . S
C866 C867 1.327 . S
C867 H861 0.950 . S
C867 C866 1.327 . S
C867 C871 1.429 . S
C868 C851 1.574 1_655 S
C868 H862 0.949 . S
C868 C872 1.368 . S
C869 C850 1.429 . S
C869 C863 1.429 . S
C869 C870 1.523 . S
C870 C851 1.368 . S
C870 C864 1.368 . S
C870 C869 1.523 . S
C871 C855 1.429 . S
C871 C867 1.429 . S
C871 C872 1.523 . S
C872 C856 1.368 . S
C872 C868 1.368 . S
C872 C871 1.523 . S
H873 C848 0.950 . S
H874 C850 0.950 . S
H875 C851 0.949 . S
H876 C853 0.950 . S
H877 C855 0.950 . S
C878 C879 1.349 . S
C878 C880 1.327 . S
C878 H903 0.950 . S
C879 C878 1.349 . S
C879 C895 1.349 . S
C880 C878 1.327 . S
C880 C899 1.429 . S
C880 H904 0.950 . S
C881 C898 1.574 1_565 S
C881 C900 1.368 . S
C881 H905 0.949 . S
H882 C886 0.949 . S
C883 C884 1.349 . S
C883 C885 1.327 . S
C883 H906 0.950 . S
C884 C883 1.349 . S
C884 C896 1.349 . S
C885 C883 1.327 . S
C885 C901 1.429 . S
C885 H907 0.950 . S
C886 H882 0.949 . S
C886 C894 1.574 1_545 S
C886 C902 1.368 . S
H887 C895 0.950 . S
H888 C893 0.950 . S
H889 C894 0.949 . S
H890 C896 0.950 . S
H891 C897 0.950 . S
H892 C898 0.949 . S
C893 H888 0.950 . S
C893 C895 1.327 . S
C893 C899 1.429 . S
C894 C886 1.574 1_565 S
C894 H889 0.949 . S
C894 C900 1.368 . S
C895 C879 1.349 . S
C895 H887 0.950 . S
C895 C893 1.327 . S
C896 C884 1.349 . S
C896 H890 0.950 . S
C896 C897 1.327 . S
C897 H891 0.950 . S
C897 C896 1.327 . S
C897 C901 1.429 . S
C898 C881 1.574 1_545 S
C898 H892 0.949 . S
C898 C902 1.368 . S
C899 C880 1.429 . S
C899 C893 1.429 . S
C899 C900 1.523 . S
C900 C881 1.368 . S
C900 C894 1.368 . S
C900 C899 1.523 . S
C901 C885 1.429 . S
C901 C897 1.429 . S
C901 C902 1.523 . S
C902 C886 1.368 . S
C902 C898 1.368 . S
C902 C901 1.523 . S
H903 C878 0.950 . S
H904 C880 0.950 . S
H905 C881 0.949 . S
H906 C883 0.950 . S
H907 C885 0.950 . S
C908 C909 1.349 . S
C908 C910 1.327 . S
C908 H933 0.950 . S
C909 C908 1.349 . S
C909 C925 1.349 . S
C910 C908 1.327 . S
C910 C929 1.429 . S
C910 H934 0.950 . S
C911 C928 1.574 1_455 S
C911 C930 1.368 . S
C911 H935 0.949 . S
H912 C916 0.949 . S
C913 C914 1.349 . S
C913 C915 1.327 . S
C913 H936 0.950 . S
C914 C913 1.349 . S
C914 C926 1.349 . S
C915 C913 1.327 . S
C915 C931 1.429 . S
C915 H937 0.950 . S
C916 H912 0.949 . S
C916 C924 1.574 1_655 S
C916 C932 1.368 . S
H917 C925 0.950 . S
H918 C923 0.950 . S
H919 C924 0.949 . S
H920 C926 0.950 . S
H921 C927 0.950 . S
H922 C928 0.949 . S
C923 H918 0.950 . S
C923 C925 1.327 . S
C923 C929 1.429 . S
C924 C916 1.574 1_455 S
C924 H919 0.949 . S
C924 C930 1.368 . S
C925 C909 1.349 . S
C925 H917 0.950 . S
C925 C923 1.327 . S
C926 C914 1.349 . S
C926 H920 0.950 . S
C926 C927 1.327 . S
C927 H921 0.950 . S
C927 C926 1.327 . S
C927 C931 1.429 . S
C928 C911 1.574 1_655 S
C928 H922 0.949 . S
C928 C932 1.368 . S
C929 C910 1.429 . S
C929 C923 1.429 . S
C929 C930 1.523 . S
C930 C911 1.368 . S
C930 C924 1.368 . S
C930 C929 1.523 . S
C931 C915 1.429 . S
C931 C927 1.429 . S
C931 C932 1.523 . S
C932 C916 1.368 . S
C932 C928 1.368 . S
C932 C931 1.523 . S
H933 C908 0.950 . S
H934 C910 0.950 . S
H935 C911 0.949 . S
H936 C913 0.950 . S
H937 C915 0.950 . S
C938 C939 1.349 . S
C938 C940 1.327 . S
C938 H963 0.950 . S
C939 C938 1.349 . S
C939 C955 1.349 . S
C940 C938 1.327 . S
C940 C959 1.429 . S
C940 H964 0.950 . S
C941 C958 1.574 1_565 S
C941 C960 1.368 . S
C941 H965 0.949 . S
H942 C946 0.949 . S
C943 C944 1.349 . S
C943 C945 1.327 . S
C943 H966 0.950 . S
C944 C943 1.349 . S
C944 C956 1.349 . S
C945 C943 1.327 . S
C945 C961 1.429 . S
C945 H967 0.950 . S
C946 H942 0.949 . S
C946 C954 1.574 1_545 S
C946 C962 1.368 . S
H947 C955 0.950 . S
H948 C953 0.950 . S
H949 C954 0.949 . S
H950 C956 0.950 . S
H951 C957 0.950 . S
H952 C958 0.949 . S
C953 H948 0.950 . S
C953 C955 1.327 . S
C953 C959 1.429 . S
C954 C946 1.574 1_565 S
C954 H949 0.949 . S
C954 C960 1.368 . S
C955 C939 1.349 . S
C955 H947 0.950 . S
C955 C953 1.327 . S
C956 C944 1.349 . S
C956 H950 0.950 . S
C956 C957 1.327 . S
C957 H951 0.950 . S
C957 C956 1.327 . S
C957 C961 1.429 . S
C958 C941 1.574 1_545 S
C958 H952 0.949 . S
C958 C962 1.368 . S
C959 C940 1.429 . S
C959 C953 1.429 . S
C959 C960 1.523 . S
C960 C941 1.368 . S
C960 C954 1.368 . S
C960 C959 1.523 . S
C961 C945 1.429 . S
C961 C957 1.429 . S
C961 C962 1.523 . S
C962 C946 1.368 . S
C962 C958 1.368 . S
C962 C961 1.523 . S
H963 C938 0.950 . S
H964 C940 0.950 . S
H965 C941 0.949 . S
H966 C943 0.950 . S
H967 C945 0.950 . S
C968 C969 1.349 . S
C968 C970 1.327 . S
C968 H993 0.950 . S
C969 C968 1.349 . S
C969 C985 1.349 . S
C970 C968 1.327 . S
C970 C989 1.429 . S
C970 H994 0.950 . S
C971 C988 1.574 1_655 S
C971 C990 1.368 . S
C971 H995 0.949 . S
H972 C976 0.949 . S
C973 C974 1.349 . S
C973 C975 1.327 . S
C973 H996 0.950 . S
C974 C973 1.349 . S
C974 C986 1.349 . S
C975 C973 1.327 . S
C975 C991 1.429 . S
C975 H997 0.950 . S
C976 H972 0.949 . S
C976 C984 1.574 1_455 S
C976 C992 1.368 . S
H977 C985 0.950 . S
H978 C983 0.950 . S
H979 C984 0.949 . S
H980 C986 0.950 . S
H981 C987 0.950 . S
H982 C988 0.949 . S
C983 H978 0.950 . S
C983 C985 1.327 . S
C983 C989 1.429 . S
C984 C976 1.574 1_655 S
C984 H979 0.949 . S
C984 C990 1.368 . S
C985 C969 1.349 . S
C985 H977 0.950 . S
C985 C983 1.327 . S
C986 C974 1.349 . S
C986 H980 0.950 . S
C986 C987 1.327 . S
C987 H981 0.950 . S
C987 C986 1.327 . S
C987 C991 1.429 . S
C988 C971 1.574 1_455 S
C988 H982 0.949 . S
C988 C992 1.368 . S
C989 C970 1.429 . S
C989 C983 1.429 . S
C989 C990 1.523 . S
C990 C971 1.368 . S
C990 C984 1.368 . S
C990 C989 1.523 . S
C991 C975 1.429 . S
C991 C987 1.429 . S
C991 C992 1.523 . S
C992 C976 1.368 . S
C992 C988 1.368 . S
C992 C991 1.523 . S
H993 C968 0.950 . S
H994 C970 0.950 . S
H995 C971 0.949 . S
H996 C973 0.950 . S
H997 C975 0.950 . S
C998 C999 1.349 . S
C998 C1000 1.327 . S
C998 H1023 0.950 . S
C999 C998 1.349 . S
C999 C1015 1.349 . S
C1000 C998 1.327 . S
C1000 C1019 1.429 . S
C1000 H1024 0.950 . S
C1001 C1018 1.574 1_545 S
C1001 C1020 1.368 . S
C1001 H1025 0.949 . S
H1002 C1006 0.949 . S
C1003 C1004 1.349 . S
C1003 C1005 1.327 . S
C1003 H1026 0.950 . S
C1004 C1003 1.349 . S
C1004 C1016 1.349 . S
C1005 C1003 1.327 . S
C1005 C1021 1.429 . S
C1005 H1027 0.950 . S
C1006 H1002 0.949 . S
C1006 C1014 1.574 1_565 S
C1006 C1022 1.368 . S
H1007 C1015 0.950 . S
H1008 C1013 0.950 . S
H1009 C1014 0.949 . S
H1010 C1016 0.950 . S
H1011 C1017 0.950 . S
H1012 C1018 0.949 . S
C1013 H1008 0.950 . S
C1013 C1015 1.327 . S
C1013 C1019 1.429 . S
C1014 C1006 1.574 1_545 S
C1014 H1009 0.949 . S
C1014 C1020 1.368 . S
C1015 C999 1.349 . S
C1015 H1007 0.950 . S
C1015 C1013 1.327 . S
C1016 C1004 1.349 . S
C1016 H1010 0.950 . S
C1016 C1017 1.327 . S
C1017 H1011 0.950 . S
C1017 C1016 1.327 . S
C1017 C1021 1.429 . S
C1018 C1001 1.574 1_565 S
C1018 H1012 0.949 . S
C1018 C1022 1.368 . S
C1019 C1000 1.429 . S
C1019 C1013 1.429 . S
C1019 C1020 1.523 . S
C1020 C1001 1.368 . S
C1020 C1014 1.368 . S
C1020 C1019 1.523 . S
C1021 C1005 1.429 . S
C1021 C1017 1.429 . S
C1021 C1022 1.523 . S
C1022 C1006 1.368 . S
C1022 C1018 1.368 . S
C1022 C1021 1.523 . S
H1023 C998 0.950 . S
H1024 C1000 0.950 . S
H1025 C1001 0.949 . S
H1026 C1003 0.950 . S
H1027 C1005 0.950 . S
C1028 C1029 1.349 . S
C1028 C1030 1.327 . S
C1028 H1053 0.950 . S
C1029 C1028 1.349 . S
C1029 C1045 1.349 . S
C1030 C1028 1.327 . S
C1030 C1049 1.429 . S
C1030 H1054 0.950 . S
C1031 C1048 1.574 1_655 S
C1031 C1050 1.368 . S
C1031 H1055 0.949 . S
H1032 C1036 0.949 . S
C1033 C1034 1.349 . S
C1033 C1035 1.327 . S
C1033 H1056 0.950 . S
C1034 C1033 1.349 . S
C1034 C1046 1.349 . S
C1035 C1033 1.327 . S
C1035 C1051 1.429 . S
C1035 H1057 0.950 . S
C1036 H1032 0.949 . S
C1036 C1044 1.574 1_455 S
C1036 C1052 1.368 . S
H1037 C1045 0.950 . S
H1038 C1043 0.950 . S
H1039 C1044 0.949 . S
H1040 C1046 0.950 . S
H1041 C1047 0.950 . S
H1042 C1048 0.949 . S
C1043 H1038 0.950 . S
C1043 C1045 1.327 . S
C1043 C1049 1.429 . S
C1044 C1036 1.574 1_655 S
C1044 H1039 0.949 . S
C1044 C1050 1.368 . S
C1045 C1029 1.349 . S
C1045 H1037 0.950 . S
C1045 C1043 1.327 . S
C1046 C1034 1.349 . S
C1046 H1040 0.950 . S
C1046 C1047 1.327 . S
C1047 H1041 0.950 . S
C1047 C1046 1.327 . S
C1047 C1051 1.429 . S
C1048 C1031 1.574 1_455 S
C1048 H1042 0.949 . S
C1048 C1052 1.368 . S
C1049 C1030 1.429 . S
C1049 C1043 1.429 . S
C1049 C1050 1.523 . S
C1050 C1031 1.368 . S
C1050 C1044 1.368 . S
C1050 C1049 1.523 . S
C1051 C1035 1.429 . S
C1051 C1047 1.429 . S
C1051 C1052 1.523 . S
C1052 C1036 1.368 . S
C1052 C1048 1.368 . S
C1052 C1051 1.523 . S
H1053 C1028 0.950 . S
H1054 C1030 0.950 . S
H1055 C1031 0.949 . S
H1056 C1033 0.950 . S
H1057 C1035 0.950 . S
C1058 C1059 1.349 . S
C1058 C1060 1.327 . S
C1058 H1083 0.950 . S
C1059 C1058 1.349 . S
C1059 C1075 1.349 . S
C1060 C1058 1.327 . S
C1060 C1079 1.429 . S
C1060 H1084 0.950 . S
C1061 C1078 1.574 1_545 S
C1061 C1080 1.368 . S
C1061 H1085 0.949 . S
H1062 C1066 0.949 . S
C1063 C1064 1.349 . S
C1063 C1065 1.327 . S
C1063 H1086 0.950 . S
C1064 C1063 1.349 . S
C1064 C1076 1.349 . S
C1065 C1063 1.327 . S
C1065 C1081 1.429 . S
C1065 H1087 0.950 . S
C1066 H1062 0.949 . S
C1066 C1074 1.574 1_565 S
C1066 C1082 1.368 . S
H1067 C1075 0.950 . S
H1068 C1073 0.950 . S
H1069 C1074 0.949 . S
H1070 C1076 0.950 . S
H1071 C1077 0.950 . S
H1072 C1078 0.949 . S
C1073 H1068 0.950 . S
C1073 C1075 1.327 . S
C1073 C1079 1.429 . S
C1074 C1066 1.574 1_545 S
C1074 H1069 0.949 . S
C1074 C1080 1.368 . S
C1075 C1059 1.349 . S
C1075 H1067 0.950 . S
C1075 C1073 1.327 . S
C1076 C1064 1.349 . S
C1076 H1070 0.950 . S
C1076 C1077 1.327 . S
C1077 H1071 0.950 . S
C1077 C1076 1.327 . S
C1077 C1081 1.429 . S
C1078 C1061 1.574 1_565 S
C1078 H1072 0.949 . S
C1078 C1082 1.368 . S
C1079 C1060 1.429 . S
C1079 C1073 1.429 . S
C1079 C1080 1.523 . S
C1080 C1061 1.368 . S
C1080 C1074 1.368 . S
C1080 C1079 1.523 . S
C1081 C1065 1.429 . S
C1081 C1077 1.429 . S
C1081 C1082 1.523 . S
C1082 C1066 1.368 . S
C1082 C1078 1.368 . S
C1082 C1081 1.523 . S
H1083 C1058 0.950 . S
H1084 C1060 0.950 . S
H1085 C1061 0.949 . S
H1086 C1063 0.950 . S
H1087 C1065 0.950 . S
C1088 C1089 1.349 . S
C1088 C1090 1.327 . S
C1088 H1113 0.950 . S
C1089 C1088 1.349 . S
C1089 C1105 1.349 . S
C1090 C1088 1.327 . S
C1090 C1109 1.429 . S
C1090 H1114 0.950 . S
C1091 C1108 1.574 . S
C1091 C1110 1.368 . S
C1091 H1115 0.949 . S
H1092 C1096 0.949 . S
C1093 C1094 1.349 . S
C1093 C1095 1.327 . S
C1093 H1116 0.950 . S
C1094 C1093 1.349 . S
C1094 C1106 1.349 . S
C1095 C1093 1.327 . S
C1095 C1111 1.429 . S
C1095 H1117 0.950 . S
C1096 H1092 0.949 . S
C1096 C1104 1.574 . S
C1096 C1112 1.368 . S
H1097 C1105 0.950 . S
H1098 C1103 0.950 . S
H1099 C1104 0.949 . S
H1100 C1106 0.950 . S
H1101 C1107 0.950 . S
H1102 C1108 0.949 . S
C1103 H1098 0.950 . S
C1103 C1105 1.327 . S
C1103 C1109 1.429 . S
C1104 C1096 1.574 . S
C1104 H1099 0.949 . S
C1104 C1110 1.368 . S
C1105 C1089 1.349 . S
C1105 H1097 0.950 . S
C1105 C1103 1.327 . S
C1106 C1094 1.349 . S
C1106 H1100 0.950 . S
C1106 C1107 1.327 . S
C1107 H1101 0.950 . S
C1107 C1106 1.327 . S
C1107 C1111 1.429 . S
C1108 C1091 1.574 . S
C1108 H1102 0.949 . S
C1108 C1112 1.368 . S
C1109 C1090 1.429 . S
C1109 C1103 1.429 . S
C1109 C1110 1.523 . S
C1110 C1091 1.368 . S
C1110 C1104 1.368 . S
C1110 C1109 1.523 . S
C1111 C1095 1.429 . S
C1111 C1107 1.429 . S
C1111 C1112 1.523 . S
C1112 C1096 1.368 . S
C1112 C1108 1.368 . S
C1112 C1111 1.523 . S
H1113 C1088 0.950 . S
H1114 C1090 0.950 . S
H1115 C1091 0.949 . S
H1116 C1093 0.950 . S
H1117 C1095 0.950 . S
C1118 C1119 1.349 . S
C1118 C1120 1.327 . S
C1118 H1143 0.950 . S
C1119 C1118 1.349 . S
C1119 C1135 1.349 . S
C1120 C1118 1.327 . S
C1120 C1139 1.429 . S
C1120 H1144 0.950 . S
C1121 C1138 1.574 . S
C1121 C1140 1.368 . S
C1121 H1145 0.949 . S
H1122 C1126 0.949 . S
C1123 C1124 1.349 . S
C1123 C1125 1.327 . S
C1123 H1146 0.950 . S
C1124 C1123 1.349 . S
C1124 C1136 1.349 . S
C1125 C1123 1.327 . S
C1125 C1141 1.429 . S
C1125 H1147 0.950 . S
C1126 H1122 0.949 . S
C1126 C1134 1.574 . S
C1126 C1142 1.368 . S
H1127 C1135 0.950 . S
H1128 C1133 0.950 . S
H1129 C1134 0.949 . S
H1130 C1136 0.950 . S
H1131 C1137 0.950 . S
H1132 C1138 0.949 . S
C1133 H1128 0.950 . S
C1133 C1135 1.327 . S
C1133 C1139 1.429 . S
C1134 C1126 1.574 . S
C1134 H1129 0.949 . S
C1134 C1140 1.368 . S
C1135 C1119 1.349 . S
C1135 H1127 0.950 . S
C1135 C1133 1.327 . S
C1136 C1124 1.349 . S
C1136 H1130 0.950 . S
C1136 C1137 1.327 . S
C1137 H1131 0.950 . S
C1137 C1136 1.327 . S
C1137 C1141 1.429 . S
C1138 C1121 1.574 . S
C1138 H1132 0.949 . S
C1138 C1142 1.368 . S
C1139 C1120 1.429 . S
C1139 C1133 1.429 . S
C1139 C1140 1.523 . S
C1140 C1121 1.368 . S
C1140 C1134 1.368 . S
C1140 C1139 1.523 . S
C1141 C1125 1.429 . S
C1141 C1137 1.429 . S
C1141 C1142 1.523 . S
C1142 C1126 1.368 . S
C1142 C1138 1.368 . S
C1142 C1141 1.523 . S
H1143 C1118 0.950 . S
H1144 C1120 0.950 . S
H1145 C1121 0.949 . S
H1146 C1123 0.950 . S
H1147 C1125 0.950 . S
C1148 C1149 1.349 . S
C1148 C1150 1.327 . S
C1148 H1173 0.950 . S
C1149 C1148 1.349 . S
C1149 C1165 1.349 . S
C1150 C1148 1.327 . S
C1150 C1169 1.429 . S
C1150 H1174 0.950 . S
C1151 C1168 1.574 . S
C1151 C1170 1.368 . S
C1151 H1175 0.949 . S
H1152 C1156 0.949 . S
C1153 C1154 1.349 . S
C1153 C1155 1.327 . S
C1153 H1176 0.950 . S
C1154 C1153 1.349 . S
C1154 C1166 1.349 . S
C1155 C1153 1.327 . S
C1155 C1171 1.429 . S
C1155 H1177 0.950 . S
C1156 H1152 0.949 . S
C1156 C1164 1.574 . S
C1156 C1172 1.368 . S
H1157 C1165 0.950 . S
H1158 C1163 0.950 . S
H1159 C1164 0.949 . S
H1160 C1166 0.950 . S
H1161 C1167 0.950 . S
H1162 C1168 0.949 . S
C1163 H1158 0.950 . S
C1163 C1165 1.327 . S
C1163 C1169 1.429 . S
C1164 C1156 1.574 . S
C1164 H1159 0.949 . S
C1164 C1170 1.368 . S
C1165 C1149 1.349 . S
C1165 H1157 0.950 . S
C1165 C1163 1.327 . S
C1166 C1154 1.349 . S
C1166 H1160 0.950 . S
C1166 C1167 1.327 . S
C1167 H1161 0.950 . S
C1167 C1166 1.327 . S
C1167 C1171 1.429 . S
C1168 C1151 1.574 . S
C1168 H1162 0.949 . S
C1168 C1172 1.368 . S
C1169 C1150 1.429 . S
C1169 C1163 1.429 . S
C1169 C1170 1.523 . S
C1170 C1151 1.368 . S
C1170 C1164 1.368 . S
C1170 C1169 1.523 . S
C1171 C1155 1.429 . S
C1171 C1167 1.429 . S
C1171 C1172 1.523 . S
C1172 C1156 1.368 . S
C1172 C1168 1.368 . S
C1172 C1171 1.523 . S
H1173 C1148 0.950 . S
H1174 C1150 0.950 . S
H1175 C1151 0.949 . S
H1176 C1153 0.950 . S
H1177 C1155 0.950 . S
C1178 C1179 1.349 . S
C1178 C1180 1.327 . S
C1178 H1203 0.950 . S
C1179 C1178 1.349 . S
C1179 C1195 1.349 . S
C1180 C1178 1.327 . S
C1180 C1199 1.429 . S
C1180 H1204 0.950 . S
C1181 C1198 1.574 . S
C1181 C1200 1.368 . S
C1181 H1205 0.949 . S
H1182 C1186 0.949 . S
C1183 C1184 1.349 . S
C1183 C1185 1.327 . S
C1183 H1206 0.950 . S
C1184 C1183 1.349 . S
C1184 C1196 1.349 . S
C1185 C1183 1.327 . S
C1185 C1201 1.429 . S
C1185 H1207 0.950 . S
C1186 H1182 0.949 . S
C1186 C1194 1.574 . S
C1186 C1202 1.368 . S
H1187 C1195 0.950 . S
H1188 C1193 0.950 . S
H1189 C1194 0.949 . S
H1190 C1196 0.950 . S
H1191 C1197 0.950 . S
H1192 C1198 0.949 . S
C1193 H1188 0.950 . S
C1193 C1195 1.327 . S
C1193 C1199 1.429 . S
C1194 C1186 1.574 . S
C1194 H1189 0.949 . S
C1194 C1200 1.368 . S
C1195 C1179 1.349 . S
C1195 H1187 0.950 . S
C1195 C1193 1.327 . S
C1196 C1184 1.349 . S
C1196 H1190 0.950 . S
C1196 C1197 1.327 . S
C1197 H1191 0.950 . S
C1197 C1196 1.327 . S
C1197 C1201 1.429 . S
C1198 C1181 1.574 . S
C1198 H1192 0.949 . S
C1198 C1202 1.368 . S
C1199 C1180 1.429 . S
C1199 C1193 1.429 . S
C1199 C1200 1.523 . S
C1200 C1181 1.368 . S
C1200 C1194 1.368 . S
C1200 C1199 1.523 . S
C1201 C1185 1.429 . S
C1201 C1197 1.429 . S
C1201 C1202 1.523 . S
C1202 C1186 1.368 . S
C1202 C1198 1.368 . S
C1202 C1201 1.523 . S
H1203 C1178 0.950 . S
H1204 C1180 0.950 . S
H1205 C1181 0.949 . S
H1206 C1183 0.950 . S
H1207 C1185 0.950 . S
C1208 C1209 1.349 . S
C1208 C1210 1.327 . S
C1208 H1233 0.950 . S
C1209 C1208 1.349 . S
C1209 C1225 1.349 . S
C1210 C1208 1.327 . S
C1210 C1229 1.429 . S
C1210 H1234 0.950 . S
C1211 C1228 1.574 . S
C1211 C1230 1.368 . S
C1211 H1235 0.949 . S
H1212 C1216 0.949 . S
C1213 C1214 1.349 . S
C1213 C1215 1.327 . S
C1213 H1236 0.950 . S
C1214 C1213 1.349 . S
C1214 C1226 1.349 . S
C1215 C1213 1.327 . S
C1215 C1231 1.429 . S
C1215 H1237 0.950 . S
C1216 H1212 0.949 . S
C1216 C1224 1.574 . S
C1216 C1232 1.368 . S
H1217 C1225 0.950 . S
H1218 C1223 0.950 . S
H1219 C1224 0.949 . S
H1220 C1226 0.950 . S
H1221 C1227 0.950 . S
H1222 C1228 0.949 . S
C1223 H1218 0.950 . S
C1223 C1225 1.327 . S
C1223 C1229 1.429 . S
C1224 C1216 1.574 . S
C1224 H1219 0.949 . S
C1224 C1230 1.368 . S
C1225 C1209 1.349 . S
C1225 H1217 0.950 . S
C1225 C1223 1.327 . S
C1226 C1214 1.349 . S
C1226 H1220 0.950 . S
C1226 C1227 1.327 . S
C1227 H1221 0.950 . S
C1227 C1226 1.327 . S
C1227 C1231 1.429 . S
C1228 C1211 1.574 . S
C1228 H1222 0.949 . S
C1228 C1232 1.368 . S
C1229 C1210 1.429 . S
C1229 C1223 1.429 . S
C1229 C1230 1.523 . S
C1230 C1211 1.368 . S
C1230 C1224 1.368 . S
C1230 C1229 1.523 . S
C1231 C1215 1.429 . S
C1231 C1227 1.429 . S
C1231 C1232 1.523 . S
C1232 C1216 1.368 . S
C1232 C1228 1.368 . S
C1232 C1231 1.523 . S
H1233 C1208 0.950 . S
H1234 C1210 0.950 . S
H1235 C1211 0.949 . S
H1236 C1213 0.950 . S
H1237 C1215 0.950 . S
C1238 C1239 1.349 . S
C1238 C1240 1.327 . S
C1238 H1263 0.950 . S
C1239 C1238 1.349 . S
C1239 C1255 1.349 . S
C1240 C1238 1.327 . S
C1240 C1259 1.429 . S
C1240 H1264 0.950 . S
C1241 C1258 1.574 . S
C1241 C1260 1.368 . S
C1241 H1265 0.949 . S
H1242 C1246 0.949 . S
C1243 C1244 1.349 . S
C1243 C1245 1.327 . S
C1243 H1266 0.950 . S
C1244 C1243 1.349 . S
C1244 C1256 1.349 . S
C1245 C1243 1.327 . S
C1245 C1261 1.429 . S
C1245 H1267 0.950 . S
C1246 H1242 0.949 . S
C1246 C1254 1.574 . S
C1246 C1262 1.368 . S
H1247 C1255 0.950 . S
H1248 C1253 0.950 . S
H1249 C1254 0.949 . S
H1250 C1256 0.950 . S
H1251 C1257 0.950 . S
H1252 C1258 0.949 . S
C1253 H1248 0.950 . S
C1253 C1255 1.327 . S
C1253 C1259 1.429 . S
C1254 C1246 1.574 . S
C1254 H1249 0.949 . S
C1254 C1260 1.368 . S
C1255 C1239 1.349 . S
C1255 H1247 0.950 . S
C1255 C1253 1.327 . S
C1256 C1244 1.349 . S
C1256 H1250 0.950 . S
C1256 C1257 1.327 . S
C1257 H1251 0.950 . S
C1257 C1256 1.327 . S
C1257 C1261 1.429 . S
C1258 C1241 1.574 . S
C1258 H1252 0.949 . S
C1258 C1262 1.368 . S
C1259 C1240 1.429 . S
C1259 C1253 1.429 . S
C1259 C1260 1.523 . S
C1260 C1241 1.368 . S
C1260 C1254 1.368 . S
C1260 C1259 1.523 . S
C1261 C1245 1.429 . S
C1261 C1257 1.429 . S
C1261 C1262 1.523 . S
C1262 C1246 1.368 . S
C1262 C1258 1.368 . S
C1262 C1261 1.523 . S
H1263 C1238 0.950 . S
H1264 C1240 0.950 . S
H1265 C1241 0.949 . S
H1266 C1243 0.950 . S
H1267 C1245 0.950 . S
C1268 C1269 1.349 . S
C1268 C1270 1.327 . S
C1268 H1293 0.950 . S
C1269 C1268 1.349 . S
C1269 C1285 1.349 . S
C1270 C1268 1.327 . S
C1270 C1289 1.429 . S
C1270 H1294 0.950 . S
C1271 C1288 1.574 . S
C1271 C1290 1.368 . S
C1271 H1295 0.949 . S
H1272 C1276 0.949 . S
C1273 C1274 1.349 . S
C1273 C1275 1.327 . S
C1273 H1296 0.950 . S
C1274 C1273 1.349 . S
C1274 C1286 1.349 . S
C1275 C1273 1.327 . S
C1275 C1291 1.429 . S
C1275 H1297 0.950 . S
C1276 H1272 0.949 . S
C1276 C1284 1.574 . S
C1276 C1292 1.368 . S
H1277 C1285 0.950 . S
H1278 C1283 0.950 . S
H1279 C1284 0.949 . S
H1280 C1286 0.950 . S
H1281 C1287 0.950 . S
H1282 C1288 0.949 . S
C1283 H1278 0.950 . S
C1283 C1285 1.327 . S
C1283 C1289 1.429 . S
C1284 C1276 1.574 . S
C1284 H1279 0.949 . S
C1284 C1290 1.368 . S
C1285 C1269 1.349 . S
C1285 H1277 0.950 . S
C1285 C1283 1.327 . S
C1286 C1274 1.349 . S
C1286 H1280 0.950 . S
C1286 C1287 1.327 . S
C1287 H1281 0.950 . S
C1287 C1286 1.327 . S
C1287 C1291 1.429 . S
C1288 C1271 1.574 . S
C1288 H1282 0.949 . S
C1288 C1292 1.368 . S
C1289 C1270 1.429 . S
C1289 C1283 1.429 . S
C1289 C1290 1.523 . S
C1290 C1271 1.368 . S
C1290 C1284 1.368 . S
C1290 C1289 1.523 . S
C1291 C1275 1.429 . S
C1291 C1287 1.429 . S
C1291 C1292 1.523 . S
C1292 C1276 1.368 . S
C1292 C1288 1.368 . S
C1292 C1291 1.523 . S
H1293 C1268 0.950 . S
H1294 C1270 0.950 . S
H1295 C1271 0.949 . S
H1296 C1273 0.950 . S
H1297 C1275 0.950 . S
C1298 C1299 1.349 . S
C1298 C1300 1.327 . S
C1298 H1323 0.950 . S
C1299 C1298 1.349 . S
C1299 C1315 1.349 . S
C1300 C1298 1.327 . S
C1300 C1319 1.429 . S
C1300 H1324 0.950 . S
C1301 C1318 1.574 . S
C1301 C1320 1.368 . S
C1301 H1325 0.949 . S
H1302 C1306 0.949 . S
C1303 C1304 1.349 . S
C1303 C1305 1.327 . S
C1303 H1326 0.950 . S
C1304 C1303 1.349 . S
C1304 C1316 1.349 . S
C1305 C1303 1.327 . S
C1305 C1321 1.429 . S
C1305 H1327 0.950 . S
C1306 H1302 0.949 . S
C1306 C1314 1.574 . S
C1306 C1322 1.368 . S
H1307 C1315 0.950 . S
H1308 C1313 0.950 . S
H1309 C1314 0.949 . S
H1310 C1316 0.950 . S
H1311 C1317 0.950 . S
H1312 C1318 0.949 . S
C1313 H1308 0.950 . S
C1313 C1315 1.327 . S
C1313 C1319 1.429 . S
C1314 C1306 1.574 . S
C1314 H1309 0.949 . S
C1314 C1320 1.368 . S
C1315 C1299 1.349 . S
C1315 H1307 0.950 . S
C1315 C1313 1.327 . S
C1316 C1304 1.349 . S
C1316 H1310 0.950 . S
C1316 C1317 1.327 . S
C1317 H1311 0.950 . S
C1317 C1316 1.327 . S
C1317 C1321 1.429 . S
C1318 C1301 1.574 . S
C1318 H1312 0.949 . S
C1318 C1322 1.368 . S
C1319 C1300 1.429 . S
C1319 C1313 1.429 . S
C1319 C1320 1.523 . S
C1320 C1301 1.368 . S
C1320 C1314 1.368 . S
C1320 C1319 1.523 . S
C1321 C1305 1.429 . S
C1321 C1317 1.429 . S
C1321 C1322 1.523 . S
C1322 C1306 1.368 . S
C1322 C1318 1.368 . S
C1322 C1321 1.523 . S
H1323 C1298 0.950 . S
H1324 C1300 0.950 . S
H1325 C1301 0.949 . S
H1326 C1303 0.950 . S
H1327 C1305 0.950 . S
C1328 C1329 1.349 . S
C1328 C1330 1.327 . S
C1328 H1353 0.950 . S
C1329 C1328 1.349 . S
C1329 C1345 1.349 . S
C1330 C1328 1.327 . S
C1330 C1349 1.429 . S
C1330 H1354 0.950 . S
C1331 C1348 1.574 1_556 S
C1331 C1350 1.368 . S
C1331 H1355 0.949 . S
H1332 C1336 0.949 . S
C1333 C1334 1.349 . S
C1333 C1335 1.327 . S
C1333 H1356 0.950 . S
C1334 C1333 1.349 . S
C1334 C1346 1.349 . S
C1335 C1333 1.327 . S
C1335 C1351 1.429 . S
C1335 H1357 0.950 . S
C1336 H1332 0.949 . S
C1336 C1344 1.574 1_554 S
C1336 C1352 1.368 . S
H1337 C1345 0.950 . S
H1338 C1343 0.950 . S
H1339 C1344 0.949 . S
H1340 C1346 0.950 . S
H1341 C1347 0.950 . S
H1342 C1348 0.949 . S
C1343 H1338 0.950 . S
C1343 C1345 1.327 . S
C1343 C1349 1.429 . S
C1344 C1336 1.574 1_556 S
C1344 H1339 0.949 . S
C1344 C1350 1.368 . S
C1345 C1329 1.349 . S
C1345 H1337 0.950 . S
C1345 C1343 1.327 . S
C1346 C1334 1.349 . S
C1346 H1340 0.950 . S
C1346 C1347 1.327 . S
C1347 H1341 0.950 . S
C1347 C1346 1.327 . S
C1347 C1351 1.429 . S
C1348 C1331 1.574 1_554 S
C1348 H1342 0.949 . S
C1348 C1352 1.368 . S
C1349 C1330 1.429 . S
C1349 C1343 1.429 . S
C1349 C1350 1.523 . S
C1350 C1331 1.368 . S
C1350 C1344 1.368 . S
C1350 C1349 1.523 . S
C1351 C1335 1.429 . S
C1351 C1347 1.429 . S
C1351 C1352 1.523 . S
C1352 C1336 1.368 . S
C1352 C1348 1.368 . S
C1352 C1351 1.523 . S
H1353 C1328 0.950 . S
H1354 C1330 0.950 . S
H1355 C1331 0.949 . S
H1356 C1333 0.950 . S
H1357 C1335 0.950 . S
C1358 C1359 1.349 . S
C1358 C1360 1.327 . S
C1358 H1383 0.950 . S
C1359 C1358 1.349 . S
C1359 C1375 1.349 . S
C1360 C1358 1.327 . S
C1360 C1379 1.429 . S
C1360 H1384 0.950 . S
C1361 C1378 1.574 . S
C1361 C1380 1.368 . S
C1361 H1385 0.949 . S
H1362 C1366 0.949 . S
C1363 C1364 1.349 . S
C1363 C1365 1.327 . S
C1363 H1386 0.950 . S
C1364 C1363 1.349 . S
C1364 C1376 1.349 . S
C1365 C1363 1.327 . S
C1365 C1381 1.429 . S
C1365 H1387 0.950 . S
C1366 H1362 0.949 . S
C1366 C1374 1.574 . S
C1366 C1382 1.368 . S
H1367 C1375 0.950 . S
H1368 C1373 0.950 . S
H1369 C1374 0.949 . S
H1370 C1376 0.950 . S
H1371 C1377 0.950 . S
H1372 C1378 0.949 . S
C1373 H1368 0.950 . S
C1373 C1375 1.327 . S
C1373 C1379 1.429 . S
C1374 C1366 1.574 . S
C1374 H1369 0.949 . S
C1374 C1380 1.368 . S
C1375 C1359 1.349 . S
C1375 H1367 0.950 . S
C1375 C1373 1.327 . S
C1376 C1364 1.349 . S
C1376 H1370 0.950 . S
C1376 C1377 1.327 . S
C1377 H1371 0.950 . S
C1377 C1376 1.327 . S
C1377 C1381 1.429 . S
C1378 C1361 1.574 . S
C1378 H1372 0.949 . S
C1378 C1382 1.368 . S
C1379 C1360 1.429 . S
C1379 C1373 1.429 . S
C1379 C1380 1.523 . S
C1380 C1361 1.368 . S
C1380 C1374 1.368 . S
C1380 C1379 1.523 . S
C1381 C1365 1.429 . S
C1381 C1377 1.429 . S
C1381 C1382 1.523 . S
C1382 C1366 1.368 . S
C1382 C1378 1.368 . S
C1382 C1381 1.523 . S
H1383 C1358 0.950 . S
H1384 C1360 0.950 . S
H1385 C1361 0.949 . S
H1386 C1363 0.950 . S
H1387 C1365 0.950 . S
C1388 C1389 1.349 . S
C1388 C1390 1.327 . S
C1388 H1413 0.950 . S
C1389 C1388 1.349 . S
C1389 C1405 1.349 . S
C1390 C1388 1.327 . S
C1390 C1409 1.429 . S
C1390 H1414 0.950 . S
C1391 C1408 1.574 1_554 S
C1391 C1410 1.368 . S
C1391 H1415 0.949 . S
H1392 C1396 0.949 . S
C1393 C1394 1.349 . S
C1393 C1395 1.327 . S
C1393 H1416 0.950 . S
C1394 C1393 1.349 . S
C1394 C1406 1.349 . S
C1395 C1393 1.327 . S
C1395 C1411 1.429 . S
C1395 H1417 0.950 . S
C1396 H1392 0.949 . S
C1396 C1404 1.574 1_556 S
C1396 C1412 1.368 . S
H1397 C1405 0.950 . S
H1398 C1403 0.950 . S
H1399 C1404 0.949 . S
H1400 C1406 0.950 . S
H1401 C1407 0.950 . S
H1402 C1408 0.949 . S
C1403 H1398 0.950 . S
C1403 C1405 1.327 . S
C1403 C1409 1.429 . S
C1404 C1396 1.574 1_554 S
C1404 H1399 0.949 . S
C1404 C1410 1.368 . S
C1405 C1389 1.349 . S
C1405 H1397 0.950 . S
C1405 C1403 1.327 . S
C1406 C1394 1.349 . S
C1406 H1400 0.950 . S
C1406 C1407 1.327 . S
C1407 H1401 0.950 . S
C1407 C1406 1.327 . S
C1407 C1411 1.429 . S
C1408 C1391 1.574 1_556 S
C1408 H1402 0.949 . S
C1408 C1412 1.368 . S
C1409 C1390 1.429 . S
C1409 C1403 1.429 . S
C1409 C1410 1.523 . S
C1410 C1391 1.368 . S
C1410 C1404 1.368 . S
C1410 C1409 1.523 . S
C1411 C1395 1.429 . S
C1411 C1407 1.429 . S
C1411 C1412 1.523 . S
C1412 C1396 1.368 . S
C1412 C1408 1.368 . S
C1412 C1411 1.523 . S
H1413 C1388 0.950 . S
H1414 C1390 0.950 . S
H1415 C1391 0.949 . S
H1416 C1393 0.950 . S
H1417 C1395 0.950 . S
C1418 C1419 1.349 . S
C1418 C1420 1.327 . S
C1418 H1443 0.950 . S
C1419 C1418 1.349 . S
C1419 C1435 1.349 . S
C1420 C1418 1.327 . S
C1420 C1439 1.429 . S
C1420 H1444 0.950 . S
C1421 C1438 1.574 . S
C1421 C1440 1.368 . S
C1421 H1445 0.949 . S
H1422 C1426 0.949 . S
C1423 C1424 1.349 . S
C1423 C1425 1.327 . S
C1423 H1446 0.950 . S
C1424 C1423 1.349 . S
C1424 C1436 1.349 . S
C1425 C1423 1.327 . S
C1425 C1441 1.429 . S
C1425 H1447 0.950 . S
C1426 H1422 0.949 . S
C1426 C1434 1.574 . S
C1426 C1442 1.368 . S
H1427 C1435 0.950 . S
H1428 C1433 0.950 . S
H1429 C1434 0.949 . S
H1430 C1436 0.950 . S
H1431 C1437 0.950 . S
H1432 C1438 0.949 . S
C1433 H1428 0.950 . S
C1433 C1435 1.327 . S
C1433 C1439 1.429 . S
C1434 C1426 1.574 . S
C1434 H1429 0.949 . S
C1434 C1440 1.368 . S
C1435 C1419 1.349 . S
C1435 H1427 0.950 . S
C1435 C1433 1.327 . S
C1436 C1424 1.349 . S
C1436 H1430 0.950 . S
C1436 C1437 1.327 . S
C1437 H1431 0.950 . S
C1437 C1436 1.327 . S
C1437 C1441 1.429 . S
C1438 C1421 1.574 . S
C1438 H1432 0.949 . S
C1438 C1442 1.368 . S
C1439 C1420 1.429 . S
C1439 C1433 1.429 . S
C1439 C1440 1.523 . S
C1440 C1421 1.368 . S
C1440 C1434 1.368 . S
C1440 C1439 1.523 . S
C1441 C1425 1.429 . S
C1441 C1437 1.429 . S
C1441 C1442 1.523 . S
C1442 C1426 1.368 . S
C1442 C1438 1.368 . S
C1442 C1441 1.523 . S
H1443 C1418 0.950 . S
H1444 C1420 0.950 . S
H1445 C1421 0.949 . S
H1446 C1423 0.950 . S
H1447 C1425 0.950 . S
C1448 C1449 1.349 . S
C1448 C1450 1.327 . S
C1448 H1473 0.950 . S
C1449 C1448 1.349 . S
C1449 C1465 1.349 . S
C1450 C1448 1.327 . S
C1450 C1469 1.429 . S
C1450 H1474 0.950 . S
C1451 C1468 1.574 . S
C1451 C1470 1.368 . S
C1451 H1475 0.949 . S
H1452 C1456 0.949 . S
C1453 C1454 1.349 . S
C1453 C1455 1.327 . S
C1453 H1476 0.950 . S
C1454 C1453 1.349 . S
C1454 C1466 1.349 . S
C1455 C1453 1.327 . S
C1455 C1471 1.429 . S
C1455 H1477 0.950 . S
C1456 H1452 0.949 . S
C1456 C1464 1.574 . S
C1456 C1472 1.368 . S
H1457 C1465 0.950 . S
H1458 C1463 0.950 . S
H1459 C1464 0.949 . S
H1460 C1466 0.950 . S
H1461 C1467 0.950 . S
H1462 C1468 0.949 . S
C1463 H1458 0.950 . S
C1463 C1465 1.327 . S
C1463 C1469 1.429 . S
C1464 C1456 1.574 . S
C1464 H1459 0.949 . S
C1464 C1470 1.368 . S
C1465 C1449 1.349 . S
C1465 H1457 0.950 . S
C1465 C1463 1.327 . S
C1466 C1454 1.349 . S
C1466 H1460 0.950 . S
C1466 C1467 1.327 . S
C1467 H1461 0.950 . S
C1467 C1466 1.327 . S
C1467 C1471 1.429 . S
C1468 C1451 1.574 . S
C1468 H1462 0.949 . S
C1468 C1472 1.368 . S
C1469 C1450 1.429 . S
C1469 C1463 1.429 . S
C1469 C1470 1.523 . S
C1470 C1451 1.368 . S
C1470 C1464 1.368 . S
C1470 C1469 1.523 . S
C1471 C1455 1.429 . S
C1471 C1467 1.429 . S
C1471 C1472 1.523 . S
C1472 C1456 1.368 . S
C1472 C1468 1.368 . S
C1472 C1471 1.523 . S
H1473 C1448 0.950 . S
H1474 C1450 0.950 . S
H1475 C1451 0.949 . S
H1476 C1453 0.950 . S
H1477 C1455 0.950 . S
C1478 C1479 1.349 . S
C1478 C1480 1.327 . S
C1478 H1503 0.950 . S
C1479 C1478 1.349 . S
C1479 C1495 1.349 . S
C1480 C1478 1.327 . S
C1480 C1499 1.429 . S
C1480 H1504 0.950 . S
C1481 C1498 1.574 1_556 S
C1481 C1500 1.368 . S
C1481 H1505 0.949 . S
H1482 C1486 0.949 . S
C1483 C1484 1.349 . S
C1483 C1485 1.327 . S
C1483 H1506 0.950 . S
C1484 C1483 1.349 . S
C1484 C1496 1.349 . S
C1485 C1483 1.327 . S
C1485 C1501 1.429 . S
C1485 H1507 0.950 . S
C1486 H1482 0.949 . S
C1486 C1494 1.574 1_554 S
C1486 C1502 1.368 . S
H1487 C1495 0.950 . S
H1488 C1493 0.950 . S
H1489 C1494 0.949 . S
H1490 C1496 0.950 . S
H1491 C1497 0.950 . S
H1492 C1498 0.949 . S
C1493 H1488 0.950 . S
C1493 C1495 1.327 . S
C1493 C1499 1.429 . S
C1494 C1486 1.574 1_556 S
C1494 H1489 0.949 . S
C1494 C1500 1.368 . S
C1495 C1479 1.349 . S
C1495 H1487 0.950 . S
C1495 C1493 1.327 . S
C1496 C1484 1.349 . S
C1496 H1490 0.950 . S
C1496 C1497 1.327 . S
C1497 H1491 0.950 . S
C1497 C1496 1.327 . S
C1497 C1501 1.429 . S
C1498 C1481 1.574 1_554 S
C1498 H1492 0.949 . S
C1498 C1502 1.368 . S
C1499 C1480 1.429 . S
C1499 C1493 1.429 . S
C1499 C1500 1.523 . S
C1500 C1481 1.368 . S
C1500 C1494 1.368 . S
C1500 C1499 1.523 . S
C1501 C1485 1.429 . S
C1501 C1497 1.429 . S
C1501 C1502 1.523 . S
C1502 C1486 1.368 . S
C1502 C1498 1.368 . S
C1502 C1501 1.523 . S
H1503 C1478 0.950 . S
H1504 C1480 0.950 . S
H1505 C1481 0.949 . S
H1506 C1483 0.950 . S
H1507 C1485 0.950 . S
C1508 C1509 1.349 . S
C1508 C1510 1.327 . S
C1508 H1533 0.950 . S
C1509 C1508 1.349 . S
C1509 C1525 1.349 . S
C1510 C1508 1.327 . S
C1510 C1529 1.429 . S
C1510 H1534 0.950 . S
C1511 C1528 1.574 . S
C1511 C1530 1.368 . S
C1511 H1535 0.949 . S
H1512 C1516 0.949 . S
C1513 C1514 1.349 . S
C1513 C1515 1.327 . S
C1513 H1536 0.950 . S
C1514 C1513 1.349 . S
C1514 C1526 1.349 . S
C1515 C1513 1.327 . S
C1515 C1531 1.429 . S
C1515 H1537 0.950 . S
C1516 H1512 0.949 . S
C1516 C1524 1.574 . S
C1516 C1532 1.368 . S
H1517 C1525 0.950 . S
H1518 C1523 0.950 . S
H1519 C1524 0.949 . S
H1520 C1526 0.950 . S
H1521 C1527 0.950 . S
H1522 C1528 0.949 . S
C1523 H1518 0.950 . S
C1523 C1525 1.327 . S
C1523 C1529 1.429 . S
C1524 C1516 1.574 . S
C1524 H1519 0.949 . S
C1524 C1530 1.368 . S
C1525 C1509 1.349 . S
C1525 H1517 0.950 . S
C1525 C1523 1.327 . S
C1526 C1514 1.349 . S
C1526 H1520 0.950 . S
C1526 C1527 1.327 . S
C1527 H1521 0.950 . S
C1527 C1526 1.327 . S
C1527 C1531 1.429 . S
C1528 C1511 1.574 . S
C1528 H1522 0.949 . S
C1528 C1532 1.368 . S
C1529 C1510 1.429 . S
C1529 C1523 1.429 . S
C1529 C1530 1.523 . S
C1530 C1511 1.368 . S
C1530 C1524 1.368 . S
C1530 C1529 1.523 . S
C1531 C1515 1.429 . S
C1531 C1527 1.429 . S
C1531 C1532 1.523 . S
C1532 C1516 1.368 . S
C1532 C1528 1.368 . S
C1532 C1531 1.523 . S
H1533 C1508 0.950 . S
H1534 C1510 0.950 . S
H1535 C1511 0.949 . S
H1536 C1513 0.950 . S
H1537 C1515 0.950 . S
C1538 C1539 1.349 . S
C1538 C1540 1.327 . S
C1538 H1563 0.950 . S
C1539 C1538 1.349 . S
C1539 C1555 1.349 . S
C1540 C1538 1.327 . S
C1540 C1559 1.429 . S
C1540 H1564 0.950 . S
C1541 C1558 1.574 1_554 S
C1541 C1560 1.368 . S
C1541 H1565 0.949 . S
H1542 C1546 0.949 . S
C1543 C1544 1.349 . S
C1543 C1545 1.327 . S
C1543 H1566 0.950 . S
C1544 C1543 1.349 . S
C1544 C1556 1.349 . S
C1545 C1543 1.327 . S
C1545 C1561 1.429 . S
C1545 H1567 0.950 . S
C1546 H1542 0.949 . S
C1546 C1554 1.574 1_556 S
C1546 C1562 1.368 . S
H1547 C1555 0.950 . S
H1548 C1553 0.950 . S
H1549 C1554 0.949 . S
H1550 C1556 0.950 . S
H1551 C1557 0.950 . S
H1552 C1558 0.949 . S
C1553 H1548 0.950 . S
C1553 C1555 1.327 . S
C1553 C1559 1.429 . S
C1554 C1546 1.574 1_554 S
C1554 H1549 0.949 . S
C1554 C1560 1.368 . S
C1555 C1539 1.349 . S
C1555 H1547 0.950 . S
C1555 C1553 1.327 . S
C1556 C1544 1.349 . S
C1556 H1550 0.950 . S
C1556 C1557 1.327 . S
C1557 H1551 0.950 . S
C1557 C1556 1.327 . S
C1557 C1561 1.429 . S
C1558 C1541 1.574 1_556 S
C1558 H1552 0.949 . S
C1558 C1562 1.368 . S
C1559 C1540 1.429 . S
C1559 C1553 1.429 . S
C1559 C1560 1.523 . S
C1560 C1541 1.368 . S
C1560 C1554 1.368 . S
C1560 C1559 1.523 . S
C1561 C1545 1.429 . S
C1561 C1557 1.429 . S
C1561 C1562 1.523 . S
C1562 C1546 1.368 . S
C1562 C1558 1.368 . S
C1562 C1561 1.523 . S
H1563 C1538 0.950 . S
H1564 C1540 0.950 . S
H1565 C1541 0.949 . S
H1566 C1543 0.950 . S
H1567 C1545 0.950 . S
C1568 C1569 1.349 . S
C1568 C1570 1.327 . S
C1568 H1593 0.950 . S
C1569 C1568 1.349 . S
C1569 C1585 1.349 . S
C1570 C1568 1.327 . S
C1570 C1589 1.429 . S
C1570 H1594 0.950 . S
C1571 C1588 1.574 . S
C1571 C1590 1.368 . S
C1571 H1595 0.949 . S
H1572 C1576 0.949 . S
C1573 C1574 1.349 . S
C1573 C1575 1.327 . S
C1573 H1596 0.950 . S
C1574 C1573 1.349 . S
C1574 C1586 1.349 . S
C1575 C1573 1.327 . S
C1575 C1591 1.429 . S
C1575 H1597 0.950 . S
C1576 H1572 0.949 . S
C1576 C1584 1.574 . S
C1576 C1592 1.368 . S
H1577 C1585 0.950 . S
H1578 C1583 0.950 . S
H1579 C1584 0.949 . S
H1580 C1586 0.950 . S
H1581 C1587 0.950 . S
H1582 C1588 0.949 . S
C1583 H1578 0.950 . S
C1583 C1585 1.327 . S
C1583 C1589 1.429 . S
C1584 C1576 1.574 . S
C1584 H1579 0.949 . S
C1584 C1590 1.368 . S
C1585 C1569 1.349 . S
C1585 H1577 0.950 . S
C1585 C1583 1.327 . S
C1586 C1574 1.349 . S
C1586 H1580 0.950 . S
C1586 C1587 1.327 . S
C1587 H1581 0.950 . S
C1587 C1586 1.327 . S
C1587 C1591 1.429 . S
C1588 C1571 1.574 . S
C1588 H1582 0.949 . S
C1588 C1592 1.368 . S
C1589 C1570 1.429 . S
C1589 C1583 1.429 . S
C1589 C1590 1.523 . S
C1590 C1571 1.368 . S
C1590 C1584 1.368 . S
C1590 C1589 1.523 . S
C1591 C1575 1.429 . S
C1591 C1587 1.429 . S
C1591 C1592 1.523 . S
C1592 C1576 1.368 . S
C1592 C1588 1.368 . S
C1592 C1591 1.523 . S
H1593 C1568 0.950 . S
H1594 C1570 0.950 . S
H1595 C1571 0.949 . S
H1596 C1573 0.950 . S
H1597 C1575 0.950 . S
C1598 C1599 1.349 . S
C1598 C1600 1.327 . S
C1598 H1623 0.950 . S
C1599 C1598 1.349 . S
C1599 C1615 1.349 . S
C1600 C1598 1.327 . S
C1600 C1619 1.429 . S
C1600 H1624 0.950 . S
C1601 C1618 1.574 . S
C1601 C1620 1.368 . S
C1601 H1625 0.949 . S
H1602 C1606 0.949 . S
C1603 C1604 1.349 . S
C1603 C1605 1.327 . S
C1603 H1626 0.950 . S
C1604 C1603 1.349 . S
C1604 C1616 1.349 . S
C1605 C1603 1.327 . S
C1605 C1621 1.429 . S
C1605 H1627 0.950 . S
C1606 H1602 0.949 . S
C1606 C1614 1.574 . S
C1606 C1622 1.368 . S
H1607 C1615 0.950 . S
H1608 C1613 0.950 . S
H1609 C1614 0.949 . S
H1610 C1616 0.950 . S
H1611 C1617 0.950 . S
H1612 C1618 0.949 . S
C1613 H1608 0.950 . S
C1613 C1615 1.327 . S
C1613 C1619 1.429 . S
C1614 C1606 1.574 . S
C1614 H1609 0.949 . S
C1614 C1620 1.368 . S
C1615 C1599 1.349 . S
C1615 H1607 0.950 . S
C1615 C1613 1.327 . S
C1616 C1604 1.349 . S
C1616 H1610 0.950 . S
C1616 C1617 1.327 . S
C1617 H1611 0.950 . S
C1617 C1616 1.327 . S
C1617 C1621 1.429 . S
C1618 C1601 1.574 . S
C1618 H1612 0.949 . S
C1618 C1622 1.368 . S
C1619 C1600 1.429 . S
C1619 C1613 1.429 . S
C1619 C1620 1.523 . S
C1620 C1601 1.368 . S
C1620 C1614 1.368 . S
C1620 C1619 1.523 . S
C1621 C1605 1.429 . S
C1621 C1617 1.429 . S
C1621 C1622 1.523 . S
C1622 C1606 1.368 . S
C1622 C1618 1.368 . S
C1622 C1621 1.523 . S
H1623 C1598 0.950 . S
H1624 C1600 0.950 . S
H1625 C1601 0.949 . S
H1626 C1603 0.950 . S
H1627 C1605 0.950 . S
C1628 C1629 1.349 . S
C1628 C1630 1.327 . S
C1628 H1653 0.950 . S
C1629 C1628 1.349 . S
C1629 C1645 1.349 . S
C1630 C1628 1.327 . S
C1630 C1649 1.429 . S
C1630 H1654 0.950 . S
C1631 C1648 1.574 . S
C1631 C1650 1.368 . S
C1631 H1655 0.949 . S
H1632 C1636 0.949 . S
C1633 C1634 1.349 . S
C1633 C1635 1.327 . S
C1633 H1656 0.950 . S
C1634 C1633 1.349 . S
C1634 C1646 1.349 . S
C1635 C1633 1.327 . S
C1635 C1651 1.429 . S
C1635 H1657 0.950 . S
C1636 H1632 0.949 . S
C1636 C1644 1.574 . S
C1636 C1652 1.368 . S
H1637 C1645 0.950 . S
H1638 C1643 0.950 . S
H1639 C1644 0.949 . S
H1640 C1646 0.950 . S
H1641 C1647 0.950 . S
H1642 C1648 0.949 . S
C1643 H1638 0.950 . S
C1643 C1645 1.327 . S
C1643 C1649 1.429 . S
C1644 C1636 1.574 . S
C1644 H1639 0.949 . S
C1644 C1650 1.368 . S
C1645 C1629 1.349 . S
C1645 H1637 0.950 . S
C1645 C1643 1.327 . S
C1646 C1634 1.349 . S
C1646 H1640 0.950 . S
C1646 C1647 1.327 . S
C1647 H1641 0.950 . S
C1647 C1646 1.327 . S
C1647 C1651 1.429 . S
C1648 C1631 1.574 . S
C1648 H1642 0.949 . S
C1648 C1652 1.368 . S
C1649 C1630 1.429 . S
C1649 C1643 1.429 . S
C1649 C1650 1.523 . S
C1650 C1631 1.368 . S
C1650 C1644 1.368 . S
C1650 C1649 1.523 . S
C1651 C1635 1.429 . S
C1651 C1647 1.429 . S
C1651 C1652 1.523 . S
C1652 C1636 1.368 . S
C1652 C1648 1.368 . S
C1652 C1651 1.523 . S
H1653 C1628 0.950 . S
H1654 C1630 0.950 . S
H1655 C1631 0.949 . S
H1656 C1633 0.950 . S
H1657 C1635 0.950 . S
C1658 C1659 1.349 . S
C1658 C1660 1.327 . S
C1658 H1683 0.950 . S
C1659 C1658 1.349 . S
C1659 C1675 1.349 . S
C1660 C1658 1.327 . S
C1660 C1679 1.429 . S
C1660 H1684 0.950 . S
C1661 C1678 1.574 . S
C1661 C1680 1.368 . S
C1661 H1685 0.949 . S
H1662 C1666 0.949 . S
C1663 C1664 1.349 . S
C1663 C1665 1.327 . S
C1663 H1686 0.950 . S
C1664 C1663 1.349 . S
C1664 C1676 1.349 . S
C1665 C1663 1.327 . S
C1665 C1681 1.429 . S
C1665 H1687 0.950 . S
C1666 H1662 0.949 . S
C1666 C1674 1.574 . S
C1666 C1682 1.368 . S
H1667 C1675 0.950 . S
H1668 C1673 0.950 . S
H1669 C1674 0.949 . S
H1670 C1676 0.950 . S
H1671 C1677 0.950 . S
H1672 C1678 0.949 . S
C1673 H1668 0.950 . S
C1673 C1675 1.327 . S
C1673 C1679 1.429 . S
C1674 C1666 1.574 . S
C1674 H1669 0.949 . S
C1674 C1680 1.368 . S
C1675 C1659 1.349 . S
C1675 H1667 0.950 . S
C1675 C1673 1.327 . S
C1676 C1664 1.349 . S
C1676 H1670 0.950 . S
C1676 C1677 1.327 . S
C1677 H1671 0.950 . S
C1677 C1676 1.327 . S
C1677 C1681 1.429 . S
C1678 C1661 1.574 . S
C1678 H1672 0.949 . S
C1678 C1682 1.368 . S
C1679 C1660 1.429 . S
C1679 C1673 1.429 . S
C1679 C1680 1.523 . S
C1680 C1661 1.368 . S
C1680 C1674 1.368 . S
C1680 C1679 1.523 . S
C1681 C1665 1.429 . S
C1681 C1677 1.429 . S
C1681 C1682 1.523 . S
C1682 C1666 1.368 . S
C1682 C1678 1.368 . S
C1682 C1681 1.523 . S
H1683 C1658 0.950 . S
H1684 C1660 0.950 . S
H1685 C1661 0.949 . S
H1686 C1663 0.950 . S
H1687 C1665 0.950 . S
C1688 C1689 1.349 . S
C1688 C1690 1.327 . S
C1688 H1713 0.950 . S
C1689 C1688 1.349 . S
C1689 C1705 1.349 . S
C1690 C1688 1.327 . S
C1690 C1709 1.429 . S
C1690 H1714 0.950 . S
C1691 C1708 1.574 . S
C1691 C1710 1.368 . S
C1691 H1715 0.949 . S
H1692 C1696 0.949 . S
C1693 C1694 1.349 . S
C1693 C1695 1.327 . S
C1693 H1716 0.950 . S
C1694 C1693 1.349 . S
C1694 C1706 1.349 . S
C1695 C1693 1.327 . S
C1695 C1711 1.429 . S
C1695 H1717 0.950 . S
C1696 H1692 0.949 . S
C1696 C1704 1.574 . S
C1696 C1712 1.368 . S
H1697 C1705 0.950 . S
H1698 C1703 0.950 . S
H1699 C1704 0.949 . S
H1700 C1706 0.950 . S
H1701 C1707 0.950 . S
H1702 C1708 0.949 . S
C1703 H1698 0.950 . S
C1703 C1705 1.327 . S
C1703 C1709 1.429 . S
C1704 C1696 1.574 . S
C1704 H1699 0.949 . S
C1704 C1710 1.368 . S
C1705 C1689 1.349 . S
C1705 H1697 0.950 . S
C1705 C1703 1.327 . S
C1706 C1694 1.349 . S
C1706 H1700 0.950 . S
C1706 C1707 1.327 . S
C1707 H1701 0.950 . S
C1707 C1706 1.327 . S
C1707 C1711 1.429 . S
C1708 C1691 1.574 . S
C1708 H1702 0.949 . S
C1708 C1712 1.368 . S
C1709 C1690 1.429 . S
C1709 C1703 1.429 . S
C1709 C1710 1.523 . S
C1710 C1691 1.368 . S
C1710 C1704 1.368 . S
C1710 C1709 1.523 . S
C1711 C1695 1.429 . S
C1711 C1707 1.429 . S
C1711 C1712 1.523 . S
C1712 C1696 1.368 . S
C1712 C1708 1.368 . S
C1712 C1711 1.523 . S
H1713 C1688 0.950 . S
H1714 C1690 0.950 . S
H1715 C1691 0.949 . S
H1716 C1693 0.950 . S
H1717 C1695 0.950 . S
C1718 C1719 1.349 . S
C1718 C1720 1.327 . S
C1718 H1743 0.950 . S
C1719 C1718 1.349 . S
C1719 C1735 1.349 . S
C1720 C1718 1.327 . S
C1720 C1739 1.429 . S
C1720 H1744 0.950 . S
C1721 C1738 1.574 . S
C1721 C1740 1.368 . S
C1721 H1745 0.949 . S
H1722 C1726 0.949 . S
C1723 C1724 1.349 . S
C1723 C1725 1.327 . S
C1723 H1746 0.950 . S
C1724 C1723 1.349 . S
C1724 C1736 1.349 . S
C1725 C1723 1.327 . S
C1725 C1741 1.429 . S
C1725 H1747 0.950 . S
C1726 H1722 0.949 . S
C1726 C1734 1.574 . S
C1726 C1742 1.368 . S
H1727 C1735 0.950 . S
H1728 C1733 0.950 . S
H1729 C1734 0.949 . S
H1730 C1736 0.950 . S
H1731 C1737 0.950 . S
H1732 C1738 0.949 . S
C1733 H1728 0.950 . S
C1733 C1735 1.327 . S
C1733 C1739 1.429 . S
C1734 C1726 1.574 . S
C1734 H1729 0.949 . S
C1734 C1740 1.368 . S
C1735 C1719 1.349 . S
C1735 H1727 0.950 . S
C1735 C1733 1.327 . S
C1736 C1724 1.349 . S
C1736 H1730 0.950 . S
C1736 C1737 1.327 . S
C1737 H1731 0.950 . S
C1737 C1736 1.327 . S
C1737 C1741 1.429 . S
C1738 C1721 1.574 . S
C1738 H1732 0.949 . S
C1738 C1742 1.368 . S
C1739 C1720 1.429 . S
C1739 C1733 1.429 . S
C1739 C1740 1.523 . S
C1740 C1721 1.368 . S
C1740 C1734 1.368 . S
C1740 C1739 1.523 . S
C1741 C1725 1.429 . S
C1741 C1737 1.429 . S
C1741 C1742 1.523 . S
C1742 C1726 1.368 . S
C1742 C1738 1.368 . S
C1742 C1741 1.523 . S
H1743 C1718 0.950 . S
H1744 C1720 0.950 . S
H1745 C1721 0.949 . S
H1746 C1723 0.950 . S
H1747 C1725 0.950 . S
C1748 C1749 1.349 . S
C1748 C1750 1.327 . S
C1748 H1773 0.950 . S
C1749 C1748 1.349 . S
C1749 C1765 1.349 . S
C1750 C1748 1.327 . S
C1750 C1769 1.429 . S
C1750 H1774 0.950 . S
C1751 C1768 1.574 . S
C1751 C1770 1.368 . S
C1751 H1775 0.949 . S
H1752 C1756 0.949 . S
C1753 C1754 1.349 . S
C1753 C1755 1.327 . S
C1753 H1776 0.950 . S
C1754 C1753 1.349 . S
C1754 C1766 1.349 . S
C1755 C1753 1.327 . S
C1755 C1771 1.429 . S
C1755 H1777 0.950 . S
C1756 H1752 0.949 . S
C1756 C1764 1.574 . S
C1756 C1772 1.368 . S
H1757 C1765 0.950 . S
H1758 C1763 0.950 . S
H1759 C1764 0.949 . S
H1760 C1766 0.950 . S
H1761 C1767 0.950 . S
H1762 C1768 0.949 . S
C1763 H1758 0.950 . S
C1763 C1765 1.327 . S
C1763 C1769 1.429 . S
C1764 C1756 1.574 . S
C1764 H1759 0.949 . S
C1764 C1770 1.368 . S
C1765 C1749 1.349 . S
C1765 H1757 0.950 . S
C1765 C1763 1.327 . S
C1766 C1754 1.349 . S
C1766 H1760 0.950 . S
C1766 C1767 1.327 . S
C1767 H1761 0.950 . S
C1767 C1766 1.327 . S
C1767 C1771 1.429 . S
C1768 C1751 1.574 . S
C1768 H1762 0.949 . S
C1768 C1772 1.368 . S
C1769 C1750 1.429 . S
C1769 C1763 1.429 . S
C1769 C1770 1.523 . S
C1770 C1751 1.368 . S
C1770 C1764 1.368 . S
C1770 C1769 1.523 . S
C1771 C1755 1.429 . S
C1771 C1767 1.429 . S
C1771 C1772 1.523 . S
C1772 C1756 1.368 . S
C1772 C1768 1.368 . S
C1772 C1771 1.523 . S
H1773 C1748 0.950 . S
H1774 C1750 0.950 . S
H1775 C1751 0.949 . S
H1776 C1753 0.950 . S
H1777 C1755 0.950 . S
C1778 C1779 1.349 . S
C1778 C1780 1.327 . S
C1778 H1803 0.950 . S
C1779 C1778 1.349 . S
C1779 C1795 1.349 . S
C1780 C1778 1.327 . S
C1780 C1799 1.429 . S
C1780 H1804 0.950 . S
C1781 C1798 1.574 . S
C1781 C1800 1.368 . S
C1781 H1805 0.949 . S
H1782 C1786 0.949 . S
C1783 C1784 1.349 . S
C1783 C1785 1.327 . S
C1783 H1806 0.950 . S
C1784 C1783 1.349 . S
C1784 C1796 1.349 . S
C1785 C1783 1.327 . S
C1785 C1801 1.429 . S
C1785 H1807 0.950 . S
C1786 H1782 0.949 . S
C1786 C1794 1.574 . S
C1786 C1802 1.368 . S
H1787 C1795 0.950 . S
H1788 C1793 0.950 . S
H1789 C1794 0.949 . S
H1790 C1796 0.950 . S
H1791 C1797 0.950 . S
H1792 C1798 0.949 . S
C1793 H1788 0.950 . S
C1793 C1795 1.327 . S
C1793 C1799 1.429 . S
C1794 C1786 1.574 . S
C1794 H1789 0.949 . S
C1794 C1800 1.368 . S
C1795 C1779 1.349 . S
C1795 H1787 0.950 . S
C1795 C1793 1.327 . S
C1796 C1784 1.349 . S
C1796 H1790 0.950 . S
C1796 C1797 1.327 . S
C1797 H1791 0.950 . S
C1797 C1796 1.327 . S
C1797 C1801 1.429 . S
C1798 C1781 1.574 . S
C1798 H1792 0.949 . S
C1798 C1802 1.368 . S
C1799 C1780 1.429 . S
C1799 C1793 1.429 . S
C1799 C1800 1.523 . S
C1800 C1781 1.368 . S
C1800 C1794 1.368 . S
C1800 C1799 1.523 . S
C1801 C1785 1.429 . S
C1801 C1797 1.429 . S
C1801 C1802 1.523 . S
C1802 C1786 1.368 . S
C1802 C1798 1.368 . S
C1802 C1801 1.523 . S
H1803 C1778 0.950 . S
H1804 C1780 0.950 . S
H1805 C1781 0.949 . S
H1806 C1783 0.950 . S
H1807 C1785 0.950 . S
C849 C29 1.758 . S
C854 C135 1.758 . S
C879 C188 1.758 . S
C884 C82 1.758 . S
C909 C241 1.758 . S
C914 C347 1.758 . S
C939 C400 1.758 . S
C944 C294 1.758 . S
C969 C453 1.753 . S
C974 C559 1.753 . S
C999 C612 1.753 . S
C1004 C506 1.753 . S
C1029 C665 1.753 . S
C1034 C771 1.753 . S
C1059 C824 1.753 . S
C1064 C718 1.753 . S
C1089 C250 1.911 . S
C1094 C38 1.911 . S
C1119 C91 1.911 . S
C1124 C303 1.911 . S
C1149 C144 1.911 . S
C1154 C356 1.911 . S
C1179 C409 1.911 . S
C1184 C197 1.911 . S
C1209 C462 1.904 . S
C1214 C674 1.904 . S
C1239 C515 1.904 . S
C1244 C727 1.904 . S
C1269 C568 1.904 . S
C1274 C780 1.904 . S
C1299 C621 1.904 . S
C1304 C833 1.904 . S
C1329 C569 1.870 . S
C1334 C39 1.866 . S
C1359 C622 1.870 . S
C1364 C92 1.866 . S
C1389 C145 1.866 . S
C1394 C463 1.870 . S
C1419 C198 1.866 . S
C1424 C516 1.870 . S
C1449 C251 1.866 . S
C1454 C781 1.870 . S
C1479 C304 1.866 . S
C1484 C834 1.870 . S
C1509 C357 1.866 . S
C1514 C675 1.870 . S
C1539 C728 1.870 . S
C1544 C410 1.866 . S
C1569 C22 1.658 . S
C1574 C817 1.661 . S
C1599 C658 1.661 . S
C1604 C75 1.658 . S
C1629 C128 1.658 . S
C1634 C711 1.661 . S
C1659 C764 1.661 . S
C1664 C181 1.658 . S
C1689 C499 1.661 . S
C1694 C234 1.658 . S
C1719 C287 1.658 . S
C1724 C552 1.661 . S
C1749 C605 1.661 . S
C1754 C340 1.658 . S
C1779 C446 1.661 . S
C1784 C393 1.658 . S
