# Generated by pormake.
# Topology mer, (4)-cn, num edge types: 1
# Building blocks:
#     Node 0, Type 0, BuildingBlock: QUQFOY_clean_sbu_3, # of connection points: 4
#     Node 1, Type 0, BuildingBlock: QUQFOY_clean_sbu_3, # of connection points: 4
#     Node 2, Type 0, BuildingBlock: QUQFOY_clean_sbu_3, # of connection points: 4
#     Node 3, Type 0, BuildingBlock: QUQFOY_clean_sbu_3, # of connection points: 4
#     Node 4, Type 0, BuildingBlock: QUQFOY_clean_sbu_3, # of connection points: 4
#     Node 5, Type 0, BuildingBlock: QUQFOY_clean_sbu_3, # of connection points: 4
#     Node 6, Type 0, BuildingBlock: QUQFOY_clean_sbu_3, # of connection points: 4
#     Node 7, Type 0, BuildingBlock: QUQFOY_clean_sbu_3, # of connection points: 4
#     Node 8, Type 0, BuildingBlock: QUQFOY_clean_sbu_3, # of connection points: 4
#     Node 9, Type 0, BuildingBlock: QUQFOY_clean_sbu_3, # of connection points: 4
#     Node 10, Type 0, BuildingBlock: QUQFOY_clean_sbu_3, # of connection points: 4
#     Node 11, Type 0, BuildingBlock: QUQFOY_clean_sbu_3, # of connection points: 4
#     Node 12, Type 0, BuildingBlock: QUQFOY_clean_sbu_3, # of connection points: 4
#     Node 13, Type 0, BuildingBlock: QUQFOY_clean_sbu_3, # of connection points: 4
#     Node 14, Type 0, BuildingBlock: QUQFOY_clean_sbu_3, # of connection points: 4
#     Node 15, Type 0, BuildingBlock: QUQFOY_clean_sbu_3, # of connection points: 4
#     Node 16, Type 0, BuildingBlock: QUQFOY_clean_sbu_3, # of connection points: 4
#     Node 17, Type 0, BuildingBlock: QUQFOY_clean_sbu_3, # of connection points: 4
#     Node 18, Type 0, BuildingBlock: QUQFOY_clean_sbu_3, # of connection points: 4
#     Node 19, Type 0, BuildingBlock: QUQFOY_clean_sbu_3, # of connection points: 4
#     Node 20, Type 0, BuildingBlock: QUQFOY_clean_sbu_3, # of connection points: 4
#     Node 21, Type 0, BuildingBlock: QUQFOY_clean_sbu_3, # of connection points: 4
#     Node 22, Type 0, BuildingBlock: QUQFOY_clean_sbu_3, # of connection points: 4
#     Node 23, Type 0, BuildingBlock: QUQFOY_clean_sbu_3, # of connection points: 4
#     Node 24, Type 0, BuildingBlock: QUQFOY_clean_sbu_3, # of connection points: 4
#     Node 25, Type 0, BuildingBlock: QUQFOY_clean_sbu_3, # of connection points: 4
#     Node 26, Type 0, BuildingBlock: QUQFOY_clean_sbu_3, # of connection points: 4
#     Node 27, Type 0, BuildingBlock: QUQFOY_clean_sbu_3, # of connection points: 4
#     Node 28, Type 0, BuildingBlock: QUQFOY_clean_sbu_3, # of connection points: 4
#     Node 29, Type 0, BuildingBlock: QUQFOY_clean_sbu_3, # of connection points: 4
#     Node 30, Type 0, BuildingBlock: QUQFOY_clean_sbu_3, # of connection points: 4
#     Node 31, Type 0, BuildingBlock: QUQFOY_clean_sbu_3, # of connection points: 4
#     Edge 32, Type (0, 0), BuildingBlock: KIFKEQ_clean_linker_1, # of connection points: 2
#     Edge 33, Type (0, 0), BuildingBlock: KIFKEQ_clean_linker_1, # of connection points: 2
#     Edge 34, Type (0, 0), BuildingBlock: KIFKEQ_clean_linker_1, # of connection points: 2
#     Edge 35, Type (0, 0), BuildingBlock: KIFKEQ_clean_linker_1, # of connection points: 2
#     Edge 36, Type (0, 0), BuildingBlock: KIFKEQ_clean_linker_1, # of connection points: 2
#     Edge 37, Type (0, 0), BuildingBlock: KIFKEQ_clean_linker_1, # of connection points: 2
#     Edge 38, Type (0, 0), BuildingBlock: KIFKEQ_clean_linker_1, # of connection points: 2
#     Edge 39, Type (0, 0), BuildingBlock: KIFKEQ_clean_linker_1, # of connection points: 2
#     Edge 40, Type (0, 0), BuildingBlock: KIFKEQ_clean_linker_1, # of connection points: 2
#     Edge 41, Type (0, 0), BuildingBlock: KIFKEQ_clean_linker_1, # of connection points: 2
#     Edge 42, Type (0, 0), BuildingBlock: KIFKEQ_clean_linker_1, # of connection points: 2
#     Edge 43, Type (0, 0), BuildingBlock: KIFKEQ_clean_linker_1, # of connection points: 2
#     Edge 44, Type (0, 0), BuildingBlock: KIFKEQ_clean_linker_1, # of connection points: 2
#     Edge 45, Type (0, 0), BuildingBlock: KIFKEQ_clean_linker_1, # of connection points: 2
#     Edge 46, Type (0, 0), BuildingBlock: KIFKEQ_clean_linker_1, # of connection points: 2
#     Edge 47, Type (0, 0), BuildingBlock: KIFKEQ_clean_linker_1, # of connection points: 2
#     Edge 48, Type (0, 0), BuildingBlock: KIFKEQ_clean_linker_1, # of connection points: 2
#     Edge 49, Type (0, 0), BuildingBlock: KIFKEQ_clean_linker_1, # of connection points: 2
#     Edge 50, Type (0, 0), BuildingBlock: KIFKEQ_clean_linker_1, # of connection points: 2
#     Edge 51, Type (0, 0), BuildingBlock: KIFKEQ_clean_linker_1, # of connection points: 2
#     Edge 52, Type (0, 0), BuildingBlock: KIFKEQ_clean_linker_1, # of connection points: 2
#     Edge 53, Type (0, 0), BuildingBlock: KIFKEQ_clean_linker_1, # of connection points: 2
#     Edge 54, Type (0, 0), BuildingBlock: KIFKEQ_clean_linker_1, # of connection points: 2
#     Edge 55, Type (0, 0), BuildingBlock: KIFKEQ_clean_linker_1, # of connection points: 2
#     Edge 56, Type (0, 0), BuildingBlock: KIFKEQ_clean_linker_1, # of connection points: 2
#     Edge 57, Type (0, 0), BuildingBlock: KIFKEQ_clean_linker_1, # of connection points: 2
#     Edge 58, Type (0, 0), BuildingBlock: KIFKEQ_clean_linker_1, # of connection points: 2
#     Edge 59, Type (0, 0), BuildingBlock: KIFKEQ_clean_linker_1, # of connection points: 2
#     Edge 60, Type (0, 0), BuildingBlock: KIFKEQ_clean_linker_1, # of connection points: 2
#     Edge 61, Type (0, 0), BuildingBlock: KIFKEQ_clean_linker_1, # of connection points: 2
#     Edge 62, Type (0, 0), BuildingBlock: KIFKEQ_clean_linker_1, # of connection points: 2
#     Edge 63, Type (0, 0), BuildingBlock: KIFKEQ_clean_linker_1, # of connection points: 2
#     Edge 64, Type (0, 0), BuildingBlock: KIFKEQ_clean_linker_1, # of connection points: 2
#     Edge 65, Type (0, 0), BuildingBlock: KIFKEQ_clean_linker_1, # of connection points: 2
#     Edge 66, Type (0, 0), BuildingBlock: KIFKEQ_clean_linker_1, # of connection points: 2
#     Edge 67, Type (0, 0), BuildingBlock: KIFKEQ_clean_linker_1, # of connection points: 2
#     Edge 68, Type (0, 0), BuildingBlock: KIFKEQ_clean_linker_1, # of connection points: 2
#     Edge 69, Type (0, 0), BuildingBlock: KIFKEQ_clean_linker_1, # of connection points: 2
#     Edge 70, Type (0, 0), BuildingBlock: KIFKEQ_clean_linker_1, # of connection points: 2
#     Edge 71, Type (0, 0), BuildingBlock: KIFKEQ_clean_linker_1, # of connection points: 2
#     Edge 72, Type (0, 0), BuildingBlock: KIFKEQ_clean_linker_1, # of connection points: 2
#     Edge 73, Type (0, 0), BuildingBlock: KIFKEQ_clean_linker_1, # of connection points: 2
#     Edge 74, Type (0, 0), BuildingBlock: KIFKEQ_clean_linker_1, # of connection points: 2
#     Edge 75, Type (0, 0), BuildingBlock: KIFKEQ_clean_linker_1, # of connection points: 2
#     Edge 76, Type (0, 0), BuildingBlock: KIFKEQ_clean_linker_1, # of connection points: 2
#     Edge 77, Type (0, 0), BuildingBlock: KIFKEQ_clean_linker_1, # of connection points: 2
#     Edge 78, Type (0, 0), BuildingBlock: KIFKEQ_clean_linker_1, # of connection points: 2
#     Edge 79, Type (0, 0), BuildingBlock: KIFKEQ_clean_linker_1, # of connection points: 2
#     Edge 80, Type (0, 0), BuildingBlock: KIFKEQ_clean_linker_1, # of connection points: 2
#     Edge 81, Type (0, 0), BuildingBlock: KIFKEQ_clean_linker_1, # of connection points: 2
#     Edge 82, Type (0, 0), BuildingBlock: KIFKEQ_clean_linker_1, # of connection points: 2
#     Edge 83, Type (0, 0), BuildingBlock: KIFKEQ_clean_linker_1, # of connection points: 2
#     Edge 84, Type (0, 0), BuildingBlock: KIFKEQ_clean_linker_1, # of connection points: 2
#     Edge 85, Type (0, 0), BuildingBlock: KIFKEQ_clean_linker_1, # of connection points: 2
#     Edge 86, Type (0, 0), BuildingBlock: KIFKEQ_clean_linker_1, # of connection points: 2
#     Edge 87, Type (0, 0), BuildingBlock: KIFKEQ_clean_linker_1, # of connection points: 2
#     Edge 88, Type (0, 0), BuildingBlock: KIFKEQ_clean_linker_1, # of connection points: 2
#     Edge 89, Type (0, 0), BuildingBlock: KIFKEQ_clean_linker_1, # of connection points: 2
#     Edge 90, Type (0, 0), BuildingBlock: KIFKEQ_clean_linker_1, # of connection points: 2
#     Edge 91, Type (0, 0), BuildingBlock: KIFKEQ_clean_linker_1, # of connection points: 2
#     Edge 92, Type (0, 0), BuildingBlock: KIFKEQ_clean_linker_1, # of connection points: 2
#     Edge 93, Type (0, 0), BuildingBlock: KIFKEQ_clean_linker_1, # of connection points: 2
#     Edge 94, Type (0, 0), BuildingBlock: KIFKEQ_clean_linker_1, # of connection points: 2
#     Edge 95, Type (0, 0), BuildingBlock: KIFKEQ_clean_linker_1, # of connection points: 2
# Relax obj value: 0.063
# Max RMSD: 0.126
# Mean RMSD: 0.119
data_MOF--net-mer--node1-QUQFOY_clean_sbu_3--edge1-KIFKEQ_clean_linker_1
_symmetry_space_group_name_H-M    P1
_symmetry_Int_Tables_number       1
_symmetry_cell_setting            triclinic
loop_
_symmetry_equiv_pos_as_xyz
'x, y, z'
_cell_length_a     66.517937
_cell_length_b     67.428414
_cell_length_c     58.005819
_cell_angle_alpha  90.089955
_cell_angle_beta   89.901955
_cell_angle_gamma 89.980849
loop_
_atom_site_label
_atom_site_type_symbol
_atom_site_fract_x
_atom_site_fract_y
_atom_site_fract_z
_atom_type_partial_charge
C0 C 0.12383 0.31128 0.31303 0.0
O1 O 0.13497 0.31689 0.32953 0.0
Cd2 Cd 0.13575 0.29804 0.36494 0.0
O3 O 0.1122 0.29651 0.31567 0.0
Cd4 Cd 0.10252 0.2729 0.34608 0.0
C5 C 0.14805 0.25206 0.34403 0.0
O6 O 0.10359 0.29206 0.38306 0.0
O7 O 0.10423 0.26002 0.38445 0.0
O8 O 0.06814 0.27997 0.33462 0.0
C9 C 0.10264 0.27634 0.39515 0.0
O10 O 0.15303 0.26708 0.35608 0.0
C11 C 0.06276 0.262 0.33265 0.0
O12 O 0.13034 0.25063 0.33585 0.0
O13 O 0.07602 0.24887 0.33654 0.0
C14 C 0.65285 0.11915 0.30106 0.0
O15 O 0.64728 0.13089 0.31695 0.0
Cd16 Cd 0.66505 0.1322 0.35296 0.0
O17 O 0.66669 0.10655 0.30485 0.0
Cd18 Cd 0.68799 0.09511 0.3373 0.0
C19 C 0.7137 0.13764 0.33337 0.0
O20 O 0.66746 0.10076 0.37241 0.0
O21 O 0.69963 0.0977 0.37653 0.0
O22 O 0.67636 0.06165 0.33087 0.0
C23 C 0.68243 0.09905 0.38587 0.0
O24 O 0.69819 0.14507 0.34299 0.0
C25 C 0.69349 0.05395 0.32728 0.0
O26 O 0.71427 0.11931 0.32801 0.0
O27 O 0.70854 0.06557 0.32796 0.0
C28 C 0.84221 0.65628 0.31049 0.0
O29 O 0.83044 0.65059 0.32639 0.0
Cd30 Cd 0.8269 0.66978 0.36122 0.0
O31 O 0.85361 0.67117 0.31371 0.0
Cd32 Cd 0.86238 0.69474 0.34481 0.0
C33 C 0.81712 0.71609 0.33899 0.0
O34 O 0.85791 0.67597 0.38148 0.0
O35 O 0.85943 0.70802 0.38288 0.0
O36 O 0.89747 0.68638 0.33949 0.0
C37 C 0.85899 0.69168 0.39363 0.0
O38 O 0.81092 0.70054 0.3492 0.0
C39 C 0.90341 0.70382 0.33493 0.0
O40 O 0.83566 0.71817 0.33395 0.0
O41 O 0.89005 0.71731 0.33439 0.0
C42 C 0.30712 0.8475 0.30062 0.0
O43 O 0.31397 0.83736 0.31725 0.0
Cd44 Cd 0.29547 0.8367 0.3531 0.0
O45 O 0.29245 0.85927 0.30393 0.0
Cd46 Cd 0.27176 0.87208 0.33616 0.0
C47 C 0.24703 0.82925 0.33363 0.0
O48 O 0.29199 0.86832 0.37187 0.0
O49 O 0.25964 0.87021 0.37529 0.0
O50 O 0.28338 0.90512 0.32761 0.0
C51 C 0.27671 0.86988 0.38499 0.0
O52 O 0.26247 0.82269 0.34413 0.0
C53 C 0.2662 0.91275 0.32421 0.0
O54 O 0.24632 0.84721 0.32685 0.0
O55 O 0.25111 0.90127 0.32599 0.0
C56 C 0.11815 0.65654 0.63897 0.0
O57 O 0.1284 0.64926 0.62255 0.0
Cd58 Cd 0.13245 0.66845 0.5878 0.0
O59 O 0.10778 0.67213 0.63574 0.0
Cd60 Cd 0.0979 0.69418 0.60365 0.0
C61 C 0.14307 0.71524 0.6087 0.0
O62 O 0.10186 0.67501 0.56703 0.0
O63 O 0.10124 0.70709 0.56551 0.0
O64 O 0.06286 0.68583 0.60947 0.0
C65 C 0.10127 0.69069 0.55481 0.0
O66 O 0.14904 0.69928 0.59908 0.0
C67 C 0.05695 0.70333 0.61384 0.0
O68 O 0.12456 0.71772 0.61364 0.0
O69 O 0.07029 0.71684 0.61398 0.0
C70 C 0.30462 0.11919 0.63991 0.0
O71 O 0.31071 0.12976 0.6232 0.0
Cd72 Cd 0.2934 0.12885 0.5865 0.0
O73 O 0.29076 0.10649 0.63681 0.0
Cd74 Cd 0.27008 0.09245 0.6056 0.0
C75 C 0.24442 0.13538 0.60438 0.0
O76 O 0.29142 0.09598 0.57069 0.0
O77 O 0.25979 0.0896 0.56597 0.0
O78 O 0.28153 0.06003 0.61731 0.0
C79 C 0.27705 0.09184 0.55705 0.0
O80 O 0.25977 0.14202 0.59374 0.0
C81 C 0.26424 0.05267 0.62084 0.0
O82 O 0.24423 0.11774 0.61225 0.0
O83 O 0.24924 0.06405 0.6177 0.0
C84 C 0.83782 0.3071 0.64155 0.0
O85 O 0.82861 0.31477 0.62464 0.0
Cd86 Cd 0.82657 0.29576 0.58933 0.0
O87 O 0.84783 0.29123 0.63866 0.0
Cd88 Cd 0.85823 0.26913 0.60684 0.0
C89 C 0.8126 0.24946 0.60854 0.0
O90 O 0.85797 0.28874 0.57013 0.0
O91 O 0.85538 0.2568 0.56829 0.0
O92 O 0.89251 0.27602 0.61864 0.0
C93 C 0.8579 0.27308 0.55781 0.0
O94 O 0.80808 0.26521 0.59759 0.0
C95 C 0.89803 0.25804 0.61978 0.0
O96 O 0.83035 0.24694 0.6162 0.0
O97 O 0.88486 0.24494 0.6153 0.0
C98 C 0.6507 0.84672 0.64692 0.0
O99 O 0.64564 0.83537 0.63044 0.0
Cd100 Cd 0.66411 0.83557 0.5947 0.0
O101 O 0.66445 0.85959 0.64399 0.0
Cd102 Cd 0.68677 0.87257 0.61322 0.0
C103 C 0.71204 0.82953 0.61606 0.0
O104 O 0.66605 0.86819 0.57784 0.0
O105 O 0.69765 0.87494 0.57374 0.0
O106 O 0.67556 0.90466 0.62708 0.0
C107 C 0.68062 0.87238 0.56446 0.0
O108 O 0.69682 0.82238 0.60568 0.0
C109 C 0.69288 0.91251 0.62792 0.0
O110 O 0.7126 0.84775 0.62185 0.0
O111 O 0.70771 0.90164 0.62227 0.0
C112 C 0.90799 0.72924 0.61756 0.0
O113 O 0.90087 0.7454 0.6099 0.0
Cd114 Cd 0.86566 0.74953 0.60171 0.0
O115 O 0.89636 0.71479 0.6222 0.0
Cd116 Cd 0.86016 0.7064 0.62257 0.0
C117 C 0.85843 0.70936 0.56509 0.0
O118 O 0.8456 0.73881 0.63334 0.0
O119 O 0.82561 0.71701 0.61863 0.0
O120 O 0.86758 0.69366 0.66063 0.0
C121 C 0.82781 0.73395 0.62778 0.0
O122 O 0.85858 0.72796 0.56906 0.0
C123 C 0.85728 0.67791 0.65886 0.0
O124 O 0.86085 0.69689 0.58138 0.0
O125 O 0.84869 0.67479 0.63962 0.0
C126 C 0.30816 0.84237 0.63793 0.0
O127 O 0.31456 0.83361 0.61998 0.0
Cd128 Cd 0.29588 0.83409 0.58446 0.0
O129 O 0.29275 0.85354 0.63689 0.0
Cd130 Cd 0.26965 0.86731 0.60739 0.0
C131 C 0.24805 0.8225 0.60419 0.0
O132 O 0.29096 0.8675 0.57216 0.0
O133 O 0.25897 0.87164 0.56788 0.0
O134 O 0.27874 0.89871 0.62469 0.0
C135 C 0.27629 0.87115 0.5588 0.0
O136 O 0.26378 0.81798 0.59277 0.0
C137 C 0.26106 0.90575 0.62546 0.0
O138 O 0.24616 0.83967 0.61319 0.0
O139 O 0.24692 0.8946 0.61845 0.0
C140 C 0.04684 0.23422 0.62137 0.0
O141 O 0.0534 0.21752 0.61458 0.0
Cd142 Cd 0.0869 0.21467 0.59973 0.0
O143 O 0.05875 0.2489 0.6237 0.0
Cd144 Cd 0.09514 0.25731 0.6226 0.0
C145 C 0.08907 0.25725 0.5653 0.0
O146 O 0.11006 0.22451 0.62877 0.0
O147 O 0.12978 0.24744 0.61583 0.0
O148 O 0.0916 0.26544 0.66287 0.0
C149 C 0.12764 0.22973 0.62275 0.0
O150 O 0.08731 0.2386 0.56823 0.0
C151 C 0.0991 0.28271 0.66185 0.0
O152 O 0.09205 0.26886 0.58235 0.0
O153 O 0.10443 0.28883 0.642 0.0
C154 C 0.64472 0.12432 0.64001 0.0
O155 O 0.63819 0.13322 0.62228 0.0
Cd156 Cd 0.65821 0.13449 0.58784 0.0
O157 O 0.66031 0.11342 0.63866 0.0
Cd158 Cd 0.68324 0.09987 0.60868 0.0
C159 C 0.70548 0.1443 0.61041 0.0
O160 O 0.66369 0.10202 0.57248 0.0
O161 O 0.69586 0.09779 0.56972 0.0
O162 O 0.67166 0.06738 0.61952 0.0
C163 C 0.67896 0.09896 0.55974 0.0
O164 O 0.68967 0.14992 0.59991 0.0
C165 C 0.6888 0.06008 0.62396 0.0
O166 O 0.70767 0.12629 0.61657 0.0
O167 O 0.70386 0.07158 0.62192 0.0
C168 C 0.91437 0.23573 0.32915 0.0
O169 O 0.90811 0.21853 0.3343 0.0
Cd170 Cd 0.87479 0.21506 0.34935 0.0
O171 O 0.90218 0.25029 0.32833 0.0
Cd172 Cd 0.86547 0.25717 0.3301 0.0
C173 C 0.87202 0.25558 0.38693 0.0
O174 O 0.85039 0.22468 0.32142 0.0
O175 O 0.83168 0.24606 0.33914 0.0
O176 O 0.86812 0.26651 0.2902 0.0
C177 C 0.83318 0.22933 0.32925 0.0
O178 O 0.874 0.2371 0.38282 0.0
C179 C 0.85988 0.2834 0.29194 0.0
O180 O 0.86889 0.26782 0.37058 0.0
O181 O 0.85453 0.28881 0.31208 0.0
C182 C 0.65113 0.84202 0.30929 0.0
O183 O 0.64412 0.83356 0.32708 0.0
Cd184 Cd 0.66314 0.83331 0.36224 0.0
O185 O 0.66681 0.85277 0.31078 0.0
Cd186 Cd 0.68888 0.86629 0.3417 0.0
C187 C 0.71108 0.82214 0.34231 0.0
O188 O 0.66803 0.86592 0.37739 0.0
O189 O 0.7003 0.86657 0.38129 0.0
O190 O 0.67893 0.89837 0.32706 0.0
C191 C 0.68311 0.86752 0.39069 0.0
O192 O 0.69529 0.81731 0.35344 0.0
C193 C 0.69642 0.90584 0.32639 0.0
O194 O 0.71296 0.83955 0.33404 0.0
O195 O 0.71093 0.89469 0.33235 0.0
C196 C 0.05254 0.72883 0.33277 0.0
O197 O 0.05977 0.74469 0.34122 0.0
Cd198 Cd 0.09517 0.7491 0.3485 0.0
O199 O 0.06408 0.71455 0.32713 0.0
Cd200 Cd 0.1001 0.70563 0.32583 0.0
C201 C 0.10345 0.70832 0.38367 0.0
O202 O 0.11344 0.73847 0.31547 0.0
O203 O 0.13498 0.71613 0.32537 0.0
O204 O 0.09107 0.69263 0.28826 0.0
C205 C 0.1317 0.73359 0.31828 0.0
O206 O 0.1031 0.72698 0.38027 0.0
C207 C 0.10148 0.67691 0.2896 0.0
O208 O 0.10081 0.69613 0.36709 0.0
O209 O 0.11076 0.67392 0.30843 0.0
C210 C 0.31205 0.12238 0.30208 0.0
O211 O 0.31967 0.13019 0.31994 0.0
Cd212 Cd 0.29992 0.13193 0.35444 0.0
O213 O 0.29568 0.11268 0.30354 0.0
Cd214 Cd 0.27312 0.09991 0.33455 0.0
C215 C 0.25275 0.14476 0.33366 0.0
O216 O 0.29351 0.09985 0.3705 0.0
O217 O 0.26117 0.10048 0.37386 0.0
O218 O 0.28227 0.06749 0.32015 0.0
C219 C 0.27816 0.0989 0.38354 0.0
O220 O 0.26896 0.1494 0.34403 0.0
C221 C 0.26459 0.06048 0.31949 0.0
O222 O 0.24971 0.12703 0.3269 0.0
O223 O 0.25036 0.07204 0.32536 0.0
C224 C 0.61784 0.80837 0.8095 0.0
O225 O 0.62897 0.81431 0.82585 0.0
Cd226 Cd 0.63113 0.79554 0.86108 0.0
O227 O 0.60635 0.7935 0.81244 0.0
Cd228 Cd 0.59645 0.77034 0.84359 0.0
C229 C 0.64188 0.74915 0.83954 0.0
O230 O 0.59936 0.78995 0.8802 0.0
O231 O 0.59728 0.75797 0.88212 0.0
O232 O 0.56202 0.77813 0.83285 0.0
C233 C 0.59746 0.77447 0.89257 0.0
O234 O 0.64763 0.76474 0.85004 0.0
C235 C 0.55618 0.76026 0.8314 0.0
O236 O 0.62355 0.747 0.83371 0.0
O237 O 0.56924 0.74688 0.83505 0.0
C238 C 0.153 0.61628 0.80046 0.0
O239 O 0.14583 0.62618 0.81718 0.0
Cd240 Cd 0.16391 0.62711 0.8532 0.0
O241 O 0.16797 0.60487 0.80363 0.0
Cd242 Cd 0.18901 0.59216 0.83542 0.0
C243 C 0.21235 0.63576 0.83379 0.0
O244 O 0.16802 0.59517 0.87076 0.0
O245 O 0.20029 0.5936 0.87477 0.0
O246 O 0.17847 0.55973 0.82238 0.0
C247 C 0.18308 0.59384 0.88417 0.0
O248 O 0.19674 0.64173 0.84455 0.0
C249 C 0.19582 0.55193 0.82216 0.0
O250 O 0.21354 0.61797 0.82644 0.0
O251 O 0.21051 0.56298 0.82782 0.0
C252 C 0.33891 0.15958 0.80206 0.0
O253 O 0.3299 0.15122 0.81869 0.0
Cd254 Cd 0.3265 0.16974 0.85413 0.0
O255 O 0.34847 0.17564 0.80547 0.0
Cd256 Cd 0.35868 0.19688 0.83818 0.0
C257 C 0.31279 0.2163 0.83557 0.0
O258 O 0.35749 0.17643 0.87433 0.0
O259 O 0.35692 0.20847 0.87694 0.0
O260 O 0.39306 0.19003 0.8266 0.0
C261 C 0.35833 0.19187 0.887 0.0
O262 O 0.30782 0.19996 0.84497 0.0
C263 C 0.39854 0.20803 0.82564 0.0
O264 O 0.33099 0.21957 0.82989 0.0
O265 O 0.3853 0.22109 0.83007 0.0
C266 C 0.80535 0.34887 0.80382 0.0
O267 O 0.81309 0.33912 0.82025 0.0
Cd268 Cd 0.79485 0.3376 0.85608 0.0
O269 O 0.79032 0.36009 0.80762 0.0
Cd270 Cd 0.77048 0.37293 0.84071 0.0
C271 C 0.74619 0.33002 0.83715 0.0
O272 O 0.7918 0.369 0.87569 0.0
O273 O 0.75958 0.37095 0.88022 0.0
O274 O 0.78141 0.40543 0.82824 0.0
C275 C 0.77687 0.37043 0.88935 0.0
O276 O 0.76209 0.32316 0.84642 0.0
C277 C 0.76411 0.41338 0.82819 0.0
O278 O 0.74485 0.34831 0.83195 0.0
O279 O 0.74936 0.40244 0.83389 0.0
C280 C 0.62184 0.15502 0.13759 0.0
O281 O 0.6332 0.14941 0.12126 0.0
Cd282 Cd 0.63477 0.16818 0.08586 0.0
O283 O 0.61021 0.16978 0.13477 0.0
Cd284 Cd 0.60107 0.19318 0.10384 0.0
C285 C 0.64623 0.21458 0.10642 0.0
O286 O 0.60336 0.17464 0.06663 0.0
O287 O 0.60475 0.2067 0.06596 0.0
O288 O 0.56597 0.18533 0.10985 0.0
C289 C 0.60317 0.19057 0.05486 0.0
O290 O 0.65146 0.19931 0.09493 0.0
C291 C 0.56026 0.20286 0.11434 0.0
O292 O 0.62837 0.21616 0.11422 0.0
O293 O 0.57377 0.2162 0.11464 0.0
C294 C 0.81239 0.61833 0.14761 0.0
O295 O 0.81727 0.62997 0.13136 0.0
Cd296 Cd 0.79887 0.6304 0.09562 0.0
O297 O 0.79864 0.60547 0.14458 0.0
Cd298 Cd 0.77603 0.593 0.11404 0.0
C299 C 0.75083 0.63628 0.11693 0.0
O300 O 0.79606 0.598 0.07847 0.0
O301 O 0.76436 0.59134 0.0749 0.0
O302 O 0.78769 0.56002 0.12309 0.0
C303 C 0.78126 0.59415 0.06532 0.0
O304 O 0.76613 0.64343 0.10667 0.0
C305 C 0.77054 0.55266 0.12741 0.0
O306 O 0.75023 0.61804 0.12266 0.0
O307 O 0.75554 0.56428 0.126 0.0
C308 C 0.34224 0.80615 0.13883 0.0
O309 O 0.33261 0.81361 0.12209 0.0
Cd310 Cd 0.33064 0.79577 0.08594 0.0
O311 O 0.35286 0.79068 0.13574 0.0
Cd312 Cd 0.36388 0.76901 0.10373 0.0
C313 C 0.31815 0.74864 0.10413 0.0
O314 O 0.36251 0.78958 0.06778 0.0
O315 O 0.36329 0.7576 0.06473 0.0
O316 O 0.39802 0.77626 0.11592 0.0
C317 C 0.36388 0.77434 0.05487 0.0
O318 O 0.31335 0.76455 0.09365 0.0
C319 C 0.40376 0.75833 0.11683 0.0
O320 O 0.33593 0.74624 0.11179 0.0
O321 O 0.39074 0.74511 0.11222 0.0
C322 C 0.15495 0.34891 0.14979 0.0
O323 O 0.14923 0.3376 0.13356 0.0
Cd324 Cd 0.1661 0.3376 0.09679 0.0
O325 O 0.16868 0.36169 0.14624 0.0
Cd326 Cd 0.18994 0.37461 0.11456 0.0
C327 C 0.21492 0.33126 0.11537 0.0
O328 O 0.16783 0.37034 0.0804 0.0
O329 O 0.19919 0.37725 0.07459 0.0
O330 O 0.17919 0.40659 0.1291 0.0
C331 C 0.18183 0.37451 0.06623 0.0
O332 O 0.19923 0.32433 0.10576 0.0
C333 C 0.1965 0.41448 0.12921 0.0
O334 O 0.21585 0.34941 0.12145 0.0
O335 O 0.21116 0.40367 0.12286 0.0
C336 C 0.41158 0.22978 0.11207 0.0
O337 O 0.40485 0.24587 0.10379 0.0
Cd338 Cd 0.3699 0.25025 0.09445 0.0
O339 O 0.39967 0.21554 0.11663 0.0
Cd340 Cd 0.36333 0.20769 0.11592 0.0
C341 C 0.36235 0.20988 0.05825 0.0
O342 O 0.34897 0.24032 0.12571 0.0
O343 O 0.32892 0.21869 0.11073 0.0
O344 O 0.3676 0.19729 0.15533 0.0
C345 C 0.33121 0.23562 0.11989 0.0
O346 O 0.36296 0.2285 0.06197 0.0
C347 C 0.35932 0.18044 0.1534 0.0
O348 O 0.36417 0.19754 0.07479 0.0
O349 O 0.35327 0.17557 0.13337 0.0
C350 C 0.8116 0.34129 0.14321 0.0
O351 O 0.81841 0.33287 0.12524 0.0
Cd352 Cd 0.79884 0.33244 0.09055 0.0
O353 O 0.79592 0.3521 0.14205 0.0
Cd354 Cd 0.77328 0.36615 0.11199 0.0
C355 C 0.7513 0.32166 0.11198 0.0
O356 O 0.79412 0.3654 0.0763 0.0
O357 O 0.76205 0.36955 0.07262 0.0
O358 O 0.7836 0.39767 0.12804 0.0
C359 C 0.77924 0.36889 0.06319 0.0
O360 O 0.76729 0.31642 0.10148 0.0
C361 C 0.76614 0.40519 0.12917 0.0
O362 O 0.7489 0.33949 0.11874 0.0
O363 O 0.75155 0.39431 0.12286 0.0
C364 C 0.55303 0.73539 0.11856 0.0
O365 O 0.56004 0.71859 0.11281 0.0
Cd366 Cd 0.59464 0.71488 0.10163 0.0
O367 O 0.56471 0.75019 0.12114 0.0
Cd368 Cd 0.60112 0.75806 0.12139 0.0
C369 C 0.60024 0.75488 0.06396 0.0
O370 O 0.61626 0.72593 0.13154 0.0
O371 O 0.63557 0.74748 0.11514 0.0
O372 O 0.59639 0.76807 0.16087 0.0
C373 C 0.63378 0.73074 0.12487 0.0
O374 O 0.59955 0.73636 0.06828 0.0
C375 C 0.60463 0.78496 0.15934 0.0
O376 O 0.59949 0.76762 0.08026 0.0
O377 O 0.61081 0.79013 0.13944 0.0
C378 C 0.14706 0.62703 0.13681 0.0
O379 O 0.14239 0.63734 0.11932 0.0
Cd380 Cd 0.16199 0.63661 0.08455 0.0
O381 O 0.16146 0.61462 0.13563 0.0
Cd382 Cd 0.18549 0.6012 0.10674 0.0
C383 C 0.20928 0.64523 0.10706 0.0
O384 O 0.16578 0.60329 0.07063 0.0
O385 O 0.19764 0.59733 0.06775 0.0
O386 O 0.17414 0.5688 0.11853 0.0
C387 C 0.18073 0.59899 0.0579 0.0
O388 O 0.19392 0.65116 0.09595 0.0
C389 C 0.19134 0.56175 0.12317 0.0
O390 O 0.21055 0.62737 0.11409 0.0
O391 O 0.20628 0.57336 0.1208 0.0
C392 C 0.40675 0.73776 0.83051 0.0
O393 O 0.39971 0.72112 0.8368 0.0
Cd394 Cd 0.36487 0.71697 0.84699 0.0
O395 O 0.3951 0.75245 0.82704 0.0
Cd396 Cd 0.35885 0.76073 0.82581 0.0
C397 C 0.35831 0.7577 0.88355 0.0
O398 O 0.34473 0.7282 0.81604 0.0
O399 O 0.32394 0.75039 0.82855 0.0
O400 O 0.36499 0.77066 0.78658 0.0
C401 C 0.32672 0.73307 0.82061 0.0
O402 O 0.35912 0.73912 0.87957 0.0
C403 C 0.35662 0.78753 0.7878 0.0
O404 O 0.3594 0.77024 0.86712 0.0
O405 O 0.34987 0.79274 0.80746 0.0
C406 C 0.14414 0.34015 0.81236 0.0
O407 O 0.13765 0.33147 0.83027 0.0
Cd408 Cd 0.15719 0.33154 0.86514 0.0
O409 O 0.1596 0.35121 0.81355 0.0
Cd410 Cd 0.18225 0.36469 0.84374 0.0
C411 C 0.20465 0.3205 0.84412 0.0
O412 O 0.16273 0.36408 0.88027 0.0
O413 O 0.19515 0.36482 0.88266 0.0
O414 O 0.17178 0.39758 0.83289 0.0
C415 C 0.17829 0.36574 0.89284 0.0
O416 O 0.18917 0.31557 0.85575 0.0
C417 C 0.18918 0.40443 0.82878 0.0
O418 O 0.20618 0.33788 0.83568 0.0
O419 O 0.20387 0.39249 0.83101 0.0
C420 C 0.54722 0.23238 0.8272 0.0
O421 O 0.55386 0.24934 0.83285 0.0
Cd422 Cd 0.58732 0.25196 0.84769 0.0
O423 O 0.55907 0.21757 0.82598 0.0
Cd424 Cd 0.59541 0.20938 0.8277 0.0
C425 C 0.58914 0.21099 0.88458 0.0
O426 O 0.61123 0.24148 0.81949 0.0
O427 O 0.62961 0.21942 0.83637 0.0
O428 O 0.59224 0.20026 0.78782 0.0
C429 C 0.62837 0.23638 0.82707 0.0
O430 O 0.58772 0.22956 0.88076 0.0
C431 C 0.59969 0.18301 0.78943 0.0
O432 O 0.59174 0.19878 0.86803 0.0
O433 O 0.60496 0.17737 0.80948 0.0
C434 C 0.81119 0.62734 0.81138 0.0
O435 O 0.81615 0.6375 0.8289 0.0
Cd436 Cd 0.79778 0.63626 0.86452 0.0
O437 O 0.79695 0.61479 0.81278 0.0
Cd438 Cd 0.77393 0.60154 0.84281 0.0
C439 C 0.7497 0.64499 0.84426 0.0
O440 O 0.79399 0.60324 0.87868 0.0
O441 O 0.76173 0.60087 0.88212 0.0
O442 O 0.78523 0.56879 0.83241 0.0
C443 C 0.77883 0.60087 0.89174 0.0
O444 O 0.76498 0.65036 0.85593 0.0
C445 C 0.76802 0.56139 0.82864 0.0
O446 O 0.74894 0.62774 0.83525 0.0
O447 O 0.75302 0.57298 0.83068 0.0
H448 H 0.25832 0.1846 0.33206 0.0
H449 H 0.21208 0.13978 0.3283 0.0
H450 H 0.23285 0.21039 0.33138 0.0
H451 H 0.18632 0.16571 0.32858 0.0
H452 H 0.14525 0.21956 0.31538 0.0
H453 H 0.17044 0.19355 0.30944 0.0
H454 H 0.20941 0.2224 0.3587 0.0
H455 H 0.1848 0.24843 0.36402 0.0
C456 C 0.24266 0.18027 0.33104 0.0
C457 C 0.23718 0.16017 0.33053 0.0
C458 C 0.22803 0.19506 0.33079 0.0
C459 C 0.20749 0.19015 0.33044 0.0
C460 C 0.202 0.17003 0.32878 0.0
C461 C 0.21673 0.15517 0.3287 0.0
C462 C 0.15926 0.22035 0.32482 0.0
C463 C 0.16305 0.23615 0.34007 0.0
C464 C 0.17365 0.2054 0.32149 0.0
C465 C 0.19206 0.20596 0.3334 0.0
C466 C 0.19566 0.22171 0.34876 0.0
C467 C 0.18143 0.23662 0.35195 0.0
H468 H 0.71394 0.17778 0.32965 0.0
H469 H 0.75316 0.12674 0.32791 0.0
H470 H 0.74282 0.1996 0.32634 0.0
H471 H 0.78234 0.14868 0.32557 0.0
H472 H 0.83004 0.19456 0.30494 0.0
H473 H 0.80116 0.17218 0.3033 0.0
H474 H 0.76897 0.21039 0.35058 0.0
H475 H 0.79735 0.23295 0.35145 0.0
C476 C 0.72878 0.17122 0.32858 0.0
C477 C 0.73129 0.15055 0.32926 0.0
C478 C 0.74538 0.18375 0.32684 0.0
C479 C 0.76498 0.17595 0.32612 0.0
C480 C 0.76747 0.15521 0.32595 0.0
C481 C 0.75076 0.14263 0.32737 0.0
C482 C 0.81673 0.19816 0.31489 0.0
C483 C 0.81592 0.21556 0.32823 0.0
C484 C 0.80022 0.18529 0.31404 0.0
C485 C 0.78264 0.18952 0.32666 0.0
C486 C 0.78203 0.20685 0.34017 0.0
C487 C 0.79839 0.21975 0.34083 0.0
H488 H 0.82407 0.75609 0.33495 0.0
H489 H 0.77702 0.71205 0.33231 0.0
H490 H 0.79872 0.78242 0.3333 0.0
H491 H 0.7519 0.7381 0.32977 0.0
H492 H 0.71297 0.7855 0.36164 0.0
H493 H 0.73903 0.76075 0.3576 0.0
H494 H 0.77204 0.79954 0.31198 0.0
H495 H 0.74589 0.82487 0.31656 0.0
C496 C 0.80836 0.75205 0.33347 0.0
C497 C 0.80248 0.73204 0.33416 0.0
C498 C 0.79384 0.76712 0.33247 0.0
C499 C 0.77324 0.76238 0.3319 0.0
C500 C 0.76758 0.7423 0.33091 0.0
C501 C 0.78199 0.72735 0.33223 0.0
C502 C 0.7257 0.78884 0.35065 0.0
C503 C 0.72724 0.80719 0.33934 0.0
C504 C 0.74064 0.77452 0.34818 0.0
C505 C 0.75753 0.778 0.33417 0.0
C506 C 0.75925 0.79641 0.32294 0.0
C507 C 0.74423 0.81088 0.3255 0.0
H508 H 0.17163 0.72571 0.31534 0.0
H509 H 0.12917 0.77414 0.31762 0.0
H510 H 0.19934 0.74918 0.31647 0.0
H511 H 0.157 0.79777 0.31964 0.0
H512 H 0.21344 0.83564 0.30706 0.0
H513 H 0.18549 0.81278 0.30043 0.0
H514 H 0.2137 0.76984 0.34518 0.0
H515 H 0.24168 0.79222 0.35117 0.0
C516 C 0.16823 0.74141 0.31602 0.0
C517 C 0.14825 0.74809 0.31661 0.0
C518 C 0.18412 0.75488 0.31683 0.0
C519 C 0.18042 0.77537 0.31857 0.0
C520 C 0.1604 0.78211 0.31818 0.0
C521 C 0.14445 0.76859 0.31711 0.0
C522 C 0.21366 0.82128 0.3154 0.0
C523 C 0.22985 0.81573 0.32955 0.0
C524 C 0.1976 0.80822 0.31167 0.0
C525 C 0.19741 0.78939 0.3221 0.0
C526 C 0.21354 0.78401 0.3364 0.0
C527 C 0.22957 0.79694 0.33999 0.0
H528 H 0.136 0.75512 0.61396 0.0
H529 H 0.18358 0.71153 0.61252 0.0
H530 H 0.16108 0.78166 0.61494 0.0
H531 H 0.20849 0.73781 0.61431 0.0
H532 H 0.24576 0.78662 0.58291 0.0
H533 H 0.22008 0.76147 0.58688 0.0
H534 H 0.18823 0.79841 0.63572 0.0
H535 H 0.21396 0.82413 0.63125 0.0
C536 C 0.15179 0.7512 0.61435 0.0
C537 C 0.15783 0.73126 0.61279 0.0
C538 C 0.16616 0.7664 0.61497 0.0
C539 C 0.18681 0.76188 0.61424 0.0
C540 C 0.19273 0.74186 0.61421 0.0
C541 C 0.17844 0.72676 0.61332 0.0
C542 C 0.23335 0.78946 0.59457 0.0
C543 C 0.23201 0.8074 0.60685 0.0
C544 C 0.21864 0.77491 0.59698 0.0
C545 C 0.20221 0.77775 0.61189 0.0
C546 C 0.20067 0.79578 0.62404 0.0
C547 C 0.21544 0.81048 0.62153 0.0
H548 H 0.23677 0.17022 0.58245 0.0
H549 H 0.21221 0.13032 0.63346 0.0
H550 H 0.20838 0.19234 0.58777 0.0
H551 H 0.18397 0.15296 0.63946 0.0
H552 H 0.12618 0.18925 0.62599 0.0
H553 H 0.1541 0.16595 0.622 0.0
H554 H 0.1953 0.21515 0.61482 0.0
H555 H 0.16737 0.23826 0.61789 0.0
C556 C 0.22536 0.16623 0.59496 0.0
C557 C 0.22681 0.14853 0.6076 0.0
C558 C 0.20911 0.17902 0.59814 0.0
C559 C 0.19396 0.17459 0.61426 0.0
C560 C 0.19527 0.15676 0.62676 0.0
C561 C 0.21149 0.14382 0.6234 0.0
C562 C 0.14124 0.19504 0.62366 0.0
C563 C 0.14458 0.21556 0.62205 0.0
C564 C 0.15726 0.18169 0.62148 0.0
C565 C 0.17696 0.18863 0.61785 0.0
C566 C 0.18029 0.20923 0.61702 0.0
C567 C 0.16429 0.22251 0.61894 0.0
H568 H 0.7008 0.18396 0.61569 0.0
H569 H 0.74608 0.13807 0.61497 0.0
H570 H 0.72679 0.20909 0.61862 0.0
H571 H 0.7724 0.16341 0.61689 0.0
H572 H 0.81477 0.21526 0.63432 0.0
H573 H 0.78902 0.18955 0.63825 0.0
H574 H 0.75024 0.22251 0.59246 0.0
H575 H 0.7754 0.24823 0.58921 0.0
C576 C 0.71637 0.17925 0.61618 0.0
C577 C 0.72144 0.15907 0.61479 0.0
C578 C 0.7313 0.19368 0.61773 0.0
C579 C 0.75174 0.18834 0.61746 0.0
C580 C 0.75682 0.16806 0.61721 0.0
C581 C 0.74177 0.15354 0.61603 0.0
C582 C 0.80066 0.21703 0.62525 0.0
C583 C 0.79712 0.23387 0.61156 0.0
C584 C 0.78596 0.20225 0.62741 0.0
C585 C 0.76746 0.204 0.61585 0.0
C586 C 0.76406 0.22084 0.60211 0.0
C587 C 0.77861 0.23559 0.6001 0.0
H588 H 0.79139 0.73 0.60734 0.0
H589 H 0.82615 0.77014 0.64952 0.0
H590 H 0.76399 0.75357 0.60649 0.0
H591 H 0.79809 0.79365 0.64963 0.0
H592 H 0.75185 0.8392 0.62103 0.0
H593 H 0.78008 0.81632 0.62579 0.0
H594 H 0.73842 0.76716 0.62897 0.0
H595 H 0.71057 0.78983 0.62301 0.0
C596 C 0.79306 0.74379 0.61676 0.0
C597 C 0.81093 0.74819 0.62854 0.0
C598 C 0.77723 0.7573 0.61643 0.0
C599 C 0.77866 0.7755 0.6282 0.0
C600 C 0.79652 0.77987 0.64018 0.0
C601 C 0.81254 0.76637 0.64026 0.0
C602 C 0.74882 0.8235 0.6229 0.0
C603 C 0.72908 0.81624 0.62128 0.0
C604 C 0.76496 0.81038 0.62575 0.0
C605 C 0.7616 0.78981 0.6274 0.0
C606 C 0.74169 0.7828 0.62703 0.0
C607 C 0.72567 0.79582 0.62375 0.0
H608 H 0.63536 0.70913 0.8343 0.0
H609 H 0.68214 0.75351 0.83483 0.0
H610 H 0.66099 0.68298 0.83305 0.0
H611 H 0.70751 0.72768 0.83279 0.0
H612 H 0.7454 0.68052 0.86573 0.0
H613 H 0.71884 0.70463 0.86142 0.0
H614 H 0.68919 0.66666 0.81199 0.0
H615 H 0.71595 0.64191 0.81674 0.0
C616 C 0.65107 0.71329 0.83363 0.0
C617 C 0.65678 0.73333 0.8351 0.0
C618 C 0.66574 0.69833 0.83286 0.0
C619 C 0.6863 0.70324 0.83334 0.0
C620 C 0.69183 0.72336 0.8331 0.0
C621 C 0.67728 0.73819 0.83416 0.0
C622 C 0.73331 0.6772 0.85385 0.0
C623 C 0.73294 0.6593 0.84143 0.0
C624 C 0.71809 0.69116 0.85126 0.0
C625 C 0.70206 0.68777 0.83603 0.0
C626 C 0.70136 0.66971 0.82385 0.0
C627 C 0.7167 0.65558 0.82652 0.0
H628 H 0.21761 0.67179 0.8541 0.0
H629 H 0.24531 0.6314 0.80561 0.0
H630 H 0.24522 0.6948 0.8491 0.0
H631 H 0.2728 0.65493 0.79991 0.0
H632 H 0.32914 0.69267 0.81701 0.0
H633 H 0.3015 0.6689 0.81881 0.0
H634 H 0.25903 0.71738 0.82242 0.0
H635 H 0.28666 0.74098 0.82159 0.0
C636 C 0.22951 0.6679 0.84215 0.0
C637 C 0.22921 0.64975 0.83022 0.0
C638 C 0.24532 0.6812 0.83914 0.0
C639 C 0.2612 0.67685 0.82392 0.0
C640 C 0.26093 0.65869 0.81193 0.0
C641 C 0.24513 0.64524 0.81512 0.0
C642 C 0.31387 0.6982 0.81802 0.0
C643 C 0.31005 0.71866 0.81941 0.0
C644 C 0.29801 0.68459 0.81893 0.0
C645 C 0.27802 0.69119 0.82103 0.0
C646 C 0.27425 0.71172 0.8214 0.0
C647 C 0.29008 0.72528 0.82078 0.0
H648 H 0.31822 0.25639 0.83039 0.0
H649 H 0.2723 0.2112 0.83379 0.0
H650 H 0.29221 0.28204 0.83042 0.0
H651 H 0.24642 0.23662 0.83293 0.0
H652 H 0.2081 0.28454 0.86486 0.0
H653 H 0.23436 0.26005 0.86012 0.0
H654 H 0.26429 0.29786 0.81073 0.0
H655 H 0.23803 0.32293 0.81605 0.0
C656 C 0.30257 0.25193 0.83068 0.0
C657 C 0.2973 0.2318 0.83244 0.0
C658 C 0.28767 0.26662 0.83061 0.0
C659 C 0.26722 0.26142 0.83209 0.0
C660 C 0.26202 0.2412 0.83245 0.0
C661 C 0.27686 0.2266 0.8328 0.0
C662 C 0.22021 0.2877 0.8529 0.0
C663 C 0.22088 0.3057 0.84076 0.0
C664 C 0.23525 0.27353 0.85005 0.0
C665 C 0.25134 0.27682 0.8348 0.0
C666 C 0.25215 0.29488 0.8227 0.0
C667 C 0.23707 0.30921 0.82568 0.0
H668 H 0.63224 0.27133 0.80353 0.0
H669 H 0.66357 0.23242 0.8504 0.0
H670 H 0.66095 0.29392 0.80366 0.0
H671 H 0.69175 0.25524 0.8514 0.0
H672 H 0.74704 0.28973 0.83425 0.0
H673 H 0.71883 0.26721 0.82959 0.0
H674 H 0.67816 0.31721 0.82713 0.0
H675 H 0.70664 0.33979 0.83073 0.0
C676 C 0.64523 0.26766 0.81393 0.0
C677 C 0.64569 0.25009 0.82689 0.0
C678 C 0.66164 0.28065 0.81413 0.0
C679 C 0.67875 0.27642 0.82748 0.0
C680 C 0.67907 0.25883 0.84049 0.0
C681 C 0.66282 0.24577 0.84006 0.0
C682 C 0.73209 0.29592 0.83256 0.0
C683 C 0.72904 0.31653 0.83301 0.0
C684 C 0.71586 0.283 0.83004 0.0
C685 C 0.69612 0.29033 0.82829 0.0
C686 C 0.69314 0.31101 0.82818 0.0
C687 C 0.70946 0.32397 0.83037 0.0
H688 H 0.68329 0.21743 0.08701 0.0
H689 H 0.64291 0.24831 0.13322 0.0
H690 H 0.70773 0.24363 0.09117 0.0
H691 H 0.66802 0.2746 0.13803 0.0
H692 H 0.71056 0.32735 0.11637 0.0
H693 H 0.68452 0.30165 0.11746 0.0
H694 H 0.73068 0.25652 0.11832 0.0
H695 H 0.75639 0.28199 0.11621 0.0
C696 C 0.67969 0.22972 0.09833 0.0
C697 C 0.66113 0.23067 0.10988 0.0
C698 C 0.69384 0.24476 0.10085 0.0
C699 C 0.69002 0.26115 0.11521 0.0
C700 C 0.67142 0.26222 0.12676 0.0
C701 C 0.65708 0.24712 0.1241 0.0
C702 C 0.71505 0.31192 0.11704 0.0
C703 C 0.73546 0.30664 0.11578 0.0
C704 C 0.70016 0.2972 0.11776 0.0
C705 C 0.70549 0.27699 0.11751 0.0
C706 C 0.72599 0.2719 0.1178 0.0
C707 C 0.74076 0.28651 0.11671 0.0
H708 H 0.71113 0.6263 0.12237 0.0
H709 H 0.75177 0.67622 0.12228 0.0
H710 H 0.68259 0.64898 0.12596 0.0
H711 H 0.72358 0.69874 0.12695 0.0
H712 H 0.66999 0.73433 0.10355 0.0
H713 H 0.69777 0.71108 0.10361 0.0
H714 H 0.66442 0.67232 0.14905 0.0
H715 H 0.63607 0.69543 0.14812 0.0
C716 C 0.71396 0.64209 0.12355 0.0
C717 C 0.73362 0.64952 0.12171 0.0
C718 C 0.69764 0.6551 0.12571 0.0
C719 C 0.70073 0.67576 0.12639 0.0
C720 C 0.72054 0.683 0.12578 0.0
C721 C 0.73675 0.67007 0.12325 0.0
C722 C 0.66857 0.72089 0.11363 0.0
C723 C 0.65085 0.71673 0.12586 0.0
C724 C 0.6846 0.70757 0.11382 0.0
C725 C 0.68348 0.68985 0.12653 0.0
C726 C 0.66575 0.68572 0.1389 0.0
C727 C 0.64955 0.699 0.13849 0.0
H728 H 0.20577 0.68497 0.1119 0.0
H729 H 0.24973 0.63786 0.11172 0.0
H730 H 0.23245 0.70942 0.11432 0.0
H731 H 0.27678 0.66254 0.11314 0.0
H732 H 0.32017 0.71441 0.13001 0.0
H733 H 0.29418 0.68887 0.13406 0.0
H734 H 0.25604 0.72155 0.08733 0.0
H735 H 0.28138 0.74704 0.08391 0.0
C736 C 0.2212 0.67985 0.11241 0.0
C737 C 0.22569 0.65954 0.11129 0.0
C738 C 0.23653 0.69387 0.11366 0.0
C739 C 0.25681 0.688 0.11334 0.0
C740 C 0.26133 0.66758 0.11344 0.0
C741 C 0.24587 0.65345 0.11256 0.0
C742 C 0.30617 0.71612 0.12072 0.0
C743 C 0.3028 0.73287 0.10681 0.0
C744 C 0.29133 0.70145 0.12296 0.0
C745 C 0.27289 0.70326 0.11127 0.0
C746 C 0.26978 0.71988 0.09712 0.0
C747 C 0.28445 0.7345 0.09503 0.0
H748 H 0.25483 0.34089 0.11942 0.0
H749 H 0.21381 0.29127 0.12007 0.0
H750 H 0.28325 0.31798 0.12194 0.0
H751 H 0.2419 0.26853 0.12373 0.0
H752 H 0.29472 0.23236 0.09933 0.0
H753 H 0.26722 0.25591 0.0999 0.0
H754 H 0.30165 0.29457 0.14439 0.0
H755 H 0.32972 0.27115 0.14291 0.0
C756 C 0.2519 0.32512 0.1205 0.0
C757 C 0.23215 0.31784 0.11922 0.0
C758 C 0.26816 0.31198 0.12206 0.0
C759 C 0.26493 0.29134 0.12269 0.0
C760 C 0.24504 0.28425 0.12257 0.0
C761 C 0.2289 0.29731 0.12062 0.0
C762 C 0.29643 0.24584 0.10931 0.0
C763 C 0.31437 0.24988 0.12112 0.0
C764 C 0.28057 0.25934 0.10979 0.0
C765 C 0.28206 0.27712 0.1224 0.0
C766 C 0.30003 0.28113 0.13432 0.0
C767 C 0.31607 0.26768 0.1336 0.0
H768 H 0.94346 0.20829 0.31911 0.0
H769 H 0.93441 0.27089 0.33112 0.0
H770 H 0.97956 0.21383 0.31566 0.0
H771 H 0.97039 0.27634 0.32896 0.0
H772 H 0.04327 0.22744 0.34246 0.0
H773 H 0.00748 0.22066 0.33866 0.0
H774 H -0.00088 0.27787 0.30636 0.0
H775 H 0.0347 0.28498 0.31148 0.0
C776 C 0.9492 0.22324 0.321 0.0
C777 C 0.9361 0.23915 0.32543 0.0
C778 C 0.96992 0.22641 0.31919 0.0
C779 C 0.97805 0.24553 0.32215 0.0
C780 C 0.96479 0.26146 0.32611 0.0
C781 C 0.94409 0.25833 0.32752 0.0
C782 C 0.03377 0.23844 0.33432 0.0
C783 C 0.04169 0.2568 0.32749 0.0
C784 C 0.01323 0.23454 0.33201 0.0
C785 C 0.00022 0.24879 0.32241 0.0
C786 C 0.00848 0.26673 0.31441 0.0
C787 C 0.02893 0.27077 0.31716 0.0
H788 H 0.66367 0.0265 0.32752 0.0
H789 H 0.72786 0.0325 0.31844 0.0
H790 H 0.66654 -0.0091 0.32358 0.0
H791 H 0.73073 -0.00351 0.31369 0.0
H792 H 0.72722 0.93033 0.33936 0.0
H793 H 0.72807 0.96648 0.33626 0.0
H794 H 0.67287 0.96504 0.29706 0.0
H795 H 0.67163 0.92916 0.3011 0.0
C796 C 0.67841 0.02023 0.32434 0.0
C797 C 0.69554 0.03236 0.32333 0.0
C798 C 0.68005 -0.00026 0.32186 0.0
C799 C 0.69886 -0.00924 0.31809 0.0
C800 C 0.71603 0.0029 0.31673 0.0
C801 C 0.71439 0.02353 0.31933 0.0
C802 C 0.7155 0.93777 0.32973 0.0
C803 C 0.69919 0.92701 0.32078 0.0
C804 C 0.716 0.95848 0.32788 0.0
C805 C 0.70031 0.96874 0.31681 0.0
C806 C 0.68488 0.9577 0.3063 0.0
C807 C 0.68423 0.93712 0.30846 0.0
H808 H 0.02275 0.75319 0.34915 0.0
H809 H 0.03248 0.69928 0.31029 0.0
H810 H -0.01347 0.74783 0.34728 0.0
H811 H -0.00366 0.69425 0.30787 0.0
H812 H 0.93453 0.6777 0.33666 0.0
H813 H 0.97023 0.68474 0.33403 0.0
H814 H 0.95713 0.74674 0.3226 0.0
H815 H 0.92116 0.7397 0.32586 0.0
C816 C 0.01716 0.74035 0.33994 0.0
C817 C 0.03052 0.72656 0.33009 0.0
C818 C -0.00362 0.73734 0.33874 0.0
C819 C -0.01148 0.72052 0.32757 0.0
C820 C 0.00189 0.70714 0.317 0.0
C821 C 0.02263 0.71008 0.31831 0.0
C822 C 0.93921 0.69282 0.33341 0.0
C823 C 0.925 0.70815 0.33153 0.0
C824 C 0.95972 0.69685 0.33175 0.0
C825 C 0.96658 0.71631 0.32806 0.0
C826 C 0.95235 0.73162 0.32571 0.0
C827 C 0.93176 0.72758 0.32743 0.0
H828 H 0.29617 0.93995 0.3219 0.0
H829 H 0.23172 0.93411 0.31582 0.0
H830 H 0.2934 0.9754 0.31672 0.0
H831 H 0.22892 0.96997 0.3098 0.0
H832 H 0.23374 0.03664 0.33377 0.0
H833 H 0.23238 0.00047 0.3313 0.0
H834 H 0.28649 0.0007 0.28989 0.0
H835 H 0.28829 0.03661 0.29337 0.0
C836 C 0.28138 0.94622 0.31909 0.0
C837 C 0.26416 0.93419 0.31933 0.0
C838 C 0.27979 0.96662 0.31589 0.0
C839 C 0.26094 0.97562 0.31263 0.0
C840 C 0.24366 0.96355 0.31243 0.0
C841 C 0.24526 0.94301 0.31576 0.0
C842 C 0.24508 0.02893 0.32378 0.0
C843 C 0.26129 0.03934 0.31408 0.0
C844 C 0.24429 0.0082 0.32229 0.0
C845 C 0.25958 -0.00239 0.31081 0.0
C846 C 0.27481 0.00831 0.29947 0.0
C847 C 0.27578 0.02891 0.30131 0.0
H848 H 0.02568 0.6774 0.61175 0.0
H849 H 0.03943 0.73915 0.62395 0.0
H850 H -0.00997 0.68459 0.61492 0.0
H851 H 0.00355 0.74631 0.62782 0.0
H852 H 0.93791 0.75383 0.60221 0.0
H853 H 0.97407 0.74817 0.60375 0.0
H854 H 0.96399 0.6937 0.6412 0.0
H855 H 0.92787 0.69904 0.63903 0.0
C856 C 0.02109 0.69249 0.61543 0.0
C857 C 0.03539 0.70772 0.61753 0.0
C858 C 0.00061 0.69661 0.61741 0.0
C859 C -0.00612 0.71604 0.62167 0.0
C860 C 0.00821 0.73123 0.62426 0.0
C861 C 0.02877 0.72711 0.62218 0.0
C862 C 0.94342 0.74073 0.61093 0.0
C863 C 0.92999 0.72679 0.62027 0.0
C864 C 0.96417 0.73754 0.61194 0.0
C865 C 0.97196 0.72039 0.62244 0.0
C866 C 0.95851 0.70686 0.63256 0.0
C867 C 0.93779 0.70997 0.63141 0.0
H868 H 0.28431 0.92864 0.65324 0.0
H869 H 0.23057 0.9301 0.61171 0.0
H870 H 0.28275 0.9645 0.65783 0.0
H871 H 0.2295 0.96615 0.61521 0.0
H872 H 0.2294 0.03202 0.62943 0.0
H873 H 0.22603 -0.00361 0.63646 0.0
H874 H 0.29063 -0.00988 0.63201 0.0
H875 H 0.29394 0.02542 0.62591 0.0
C876 C 0.272 0.93665 0.64534 0.0
C877 C 0.25771 0.92667 0.63188 0.0
C878 C 0.27118 0.95722 0.6478 0.0
C879 C 0.2563 0.96833 0.6364 0.0
C880 C 0.24113 0.95813 0.62432 0.0
C881 C 0.24176 0.93745 0.62223 0.0
C882 C 0.24285 0.023 0.63033 0.0
C883 C 0.26192 0.03152 0.62703 0.0
C884 C 0.24093 0.00258 0.63423 0.0
C885 C 0.25805 -0.00969 0.63484 0.0
C886 C 0.2771 -0.00095 0.63217 0.0
C887 C 0.27901 0.01937 0.62843 0.0
H888 H 0.02611 0.26902 0.62218 0.0
H889 H 0.01831 0.20573 0.62912 0.0
H890 H -0.00996 0.27367 0.62474 0.0
H891 H -0.01789 0.21038 0.63301 0.0
H892 H 0.91805 0.22432 0.60754 0.0
H893 H 0.95396 0.21794 0.61081 0.0
H894 H 0.96135 0.27346 0.64734 0.0
H895 H 0.92565 0.28025 0.64272 0.0
C896 C 0.01668 0.25611 0.62476 0.0
C897 C 0.02505 0.237 0.62532 0.0
C898 C -0.00408 0.25877 0.62641 0.0
C899 C -0.01701 0.24241 0.62909 0.0
C900 C -0.00851 0.22332 0.6305 0.0
C901 C 0.01227 0.22064 0.62843 0.0
C902 C 0.92736 0.23502 0.61649 0.0
C903 C 0.91914 0.25286 0.62465 0.0
C904 C 0.94798 0.23134 0.6185 0.0
C905 C 0.96075 0.24528 0.62912 0.0
C906 C 0.95217 0.26262 0.63846 0.0
C907 C 0.93166 0.26646 0.63601 0.0
H908 H 0.65896 0.03278 0.62671 0.0
H909 H 0.72327 0.03922 0.63394 0.0
H910 H 0.66198 -0.00262 0.63198 0.0
H911 H 0.72629 0.00343 0.6402 0.0
H912 H 0.72332 0.93735 0.61503 0.0
H913 H 0.72383 0.97343 0.61836 0.0
H914 H 0.66854 0.97143 0.65762 0.0
H915 H 0.66757 0.93555 0.65316 0.0
C916 C 0.67376 0.02666 0.62988 0.0
C917 C 0.69089 0.03882 0.62978 0.0
C918 C 0.67549 0.00628 0.63313 0.0
C919 C 0.69439 -0.00256 0.63663 0.0
C920 C 0.71153 0.0097 0.6373 0.0
C921 C 0.70979 0.0302 0.63386 0.0
C922 C 0.71148 0.94465 0.62469 0.0
C923 C 0.69523 0.93374 0.6335 0.0
C924 C 0.71181 0.96534 0.62671 0.0
C925 C 0.69602 0.97544 0.63789 0.0
C926 C 0.68063 0.96424 0.64829 0.0
C927 C 0.68012 0.94365 0.64587 0.0
H928 H 0.53612 0.72661 0.84353 0.0
H929 H 0.52814 0.78324 0.81021 0.0
H930 H 0.50008 0.72063 0.84139 0.0
H931 H 0.49227 0.77686 0.80665 0.0
H932 H 0.4278 0.77232 0.8318 0.0
H933 H 0.46393 0.77677 0.82971 0.0
H934 H 0.47152 0.71358 0.81983 0.0
H935 H 0.43526 0.70912 0.82332 0.0
C936 C 0.52667 0.73756 0.83524 0.0
C937 C 0.53486 0.75546 0.82723 0.0
C938 C 0.50598 0.73412 0.83388 0.0
C939 C 0.49307 0.74835 0.82406 0.0
C940 C 0.50156 0.76579 0.81493 0.0
C941 C 0.52217 0.7694 0.81676 0.0
C942 C 0.43719 0.75939 0.82907 0.0
C943 C 0.4287 0.74037 0.82781 0.0
C944 C 0.45797 0.76194 0.82767 0.0
C945 C 0.47082 0.74556 0.8245 0.0
C946 C 0.46221 0.72653 0.82269 0.0
C947 C 0.4414 0.72396 0.82455 0.0
H948 H 0.22443 0.42453 0.82017 0.0
H949 H 0.16008 0.43236 0.82473 0.0
H950 H 0.22842 0.46021 0.81365 0.0
H951 H 0.16401 0.46764 0.8191 0.0
H952 H 0.17146 0.52874 0.79614 0.0
H953 H 0.17209 0.49279 0.79273 0.0
H954 H 0.22563 0.49081 0.83483 0.0
H955 H 0.22549 0.52701 0.83718 0.0
C956 C 0.21115 0.43382 0.81961 0.0
C957 C 0.19194 0.42562 0.82299 0.0
C958 C 0.21344 0.45427 0.81602 0.0
C959 C 0.19655 0.46686 0.81576 0.0
C960 C 0.17736 0.45846 0.81865 0.0
C961 C 0.1751 0.43815 0.8221 0.0
C962 C 0.18358 0.52063 0.80428 0.0
C963 C 0.19828 0.5306 0.81717 0.0
C964 C 0.18389 0.5 0.80247 0.0
C965 C 0.19862 0.48881 0.81398 0.0
C966 C 0.21409 0.49891 0.82567 0.0
C967 C 0.21399 0.51966 0.82711 0.0
H968 H 0.42679 0.18572 0.8037 0.0
H969 H 0.41807 0.24203 0.83778 0.0
H970 H 0.46255 0.19264 0.79996 0.0
H971 H 0.45401 0.24856 0.83533 0.0
H972 H 0.51878 0.26069 0.81813 0.0
H973 H 0.48267 0.25589 0.81349 0.0
H974 H 0.49053 0.19283 0.82385 0.0
H975 H 0.52651 0.19758 0.82723 0.0
C976 C 0.43256 0.19962 0.81034 0.0
C977 C 0.41971 0.21328 0.82116 0.0
C978 C 0.4531 0.20354 0.80839 0.0
C979 C 0.46135 0.22102 0.81769 0.0
C980 C 0.44827 0.23504 0.82772 0.0
C981 C 0.42764 0.23128 0.82924 0.0
C982 C 0.51275 0.2458 0.81915 0.0
C983 C 0.52548 0.22953 0.82308 0.0
C984 C 0.49203 0.24304 0.81664 0.0
C985 C 0.48355 0.22397 0.81835 0.0
C986 C 0.49643 0.2077 0.82191 0.0
C987 C 0.51713 0.21043 0.82404 0.0
H988 H 0.73421 0.43847 0.84242 0.0
H989 H 0.78878 0.43624 0.80214 0.0
H990 H 0.73357 0.47456 0.83866 0.0
H991 H 0.78765 0.47204 0.79727 0.0
H992 H 0.79786 0.53408 0.82574 0.0
H993 H 0.79484 0.49853 0.82198 0.0
H994 H 0.73029 0.50415 0.81611 0.0
H995 H 0.73334 0.54013 0.82084 0.0
C996 C 0.74577 0.44568 0.83227 0.0
C997 C 0.76173 0.43465 0.82291 0.0
C998 C 0.74537 0.46636 0.83 0.0
C999 C 0.76078 0.47631 0.81801 0.0
C1000 C 0.77587 0.46498 0.80722 0.0
C1001 C 0.77647 0.44444 0.80987 0.0
C1002 C 0.783 0.52783 0.82341 0.0
C1003 C 0.76583 0.53996 0.82369 0.0
C1004 C 0.78126 0.50735 0.82103 0.0
C1005 C 0.76231 0.49836 0.81862 0.0
C1006 C 0.74511 0.51054 0.81818 0.0
C1007 C 0.74685 0.53116 0.82072 0.0
H1008 H 0.43051 0.19994 0.13528 0.0
H1009 H 0.44218 0.25382 0.09729 0.0
H1010 H 0.46649 0.19448 0.13931 0.0
H1011 H 0.47822 0.24801 0.10068 0.0
H1012 H 0.54286 0.23899 0.12334 0.0
H1013 H 0.50695 0.24649 0.12596 0.0
H1014 H 0.49324 0.1846 0.1145 0.0
H1015 H 0.52886 0.17709 0.11258 0.0
C1016 C 0.44075 0.21064 0.12779 0.0
C1017 C 0.43346 0.22723 0.11578 0.0
C1018 C 0.4614 0.20746 0.13003 0.0
C1019 C 0.47528 0.22069 0.12012 0.0
C1020 C 0.46798 0.23762 0.10874 0.0
C1021 C 0.4473 0.24089 0.10666 0.0
C1022 C 0.53214 0.22699 0.12167 0.0
C1023 C 0.5387 0.20746 0.11771 0.0
C1024 C 0.51157 0.23129 0.12302 0.0
C1025 C 0.49718 0.21616 0.1204 0.0
C1026 C 0.50385 0.19659 0.11698 0.0
C1027 C 0.52433 0.1923 0.11572 0.0
H1028 H 0.8002 0.52505 0.12912 0.0
H1029 H 0.73599 0.53191 0.13719 0.0
H1030 H 0.79693 0.48959 0.13405 0.0
H1031 H 0.73271 0.49609 0.14299 0.0
H1032 H 0.73554 0.43007 0.11688 0.0
H1033 H 0.73505 0.46614 0.12064 0.0
H1034 H 0.7901 0.4637 0.16008 0.0
H1035 H 0.79102 0.42785 0.15529 0.0
C1036 C 0.78537 0.519 0.13235 0.0
C1037 C 0.76834 0.5313 0.13265 0.0
C1038 C 0.7835 0.4986 0.13541 0.0
C1039 C 0.76455 0.4899 0.13906 0.0
C1040 C 0.74751 0.50227 0.14 0.0
C1041 C 0.74939 0.52279 0.1368 0.0
C1042 C 0.74729 0.43726 0.12673 0.0
C1043 C 0.76349 0.42624 0.13547 0.0
C1044 C 0.747 0.45794 0.12897 0.0
C1045 C 0.76277 0.46791 0.14026 0.0
C1046 C 0.77803 0.4566 0.15067 0.0
C1047 C 0.7785 0.43603 0.14809 0.0
H1048 H 0.42386 0.72463 0.10462 0.0
H1049 H 0.43159 0.78093 0.13899 0.0
H1050 H 0.45986 0.71851 0.10728 0.0
H1051 H 0.4674 0.77441 0.14297 0.0
H1052 H 0.53198 0.77002 0.11769 0.0
H1053 H 0.49585 0.77449 0.11984 0.0
H1054 H 0.48825 0.7113 0.12932 0.0
H1055 H 0.52451 0.7068 0.12588 0.0
C1056 C 0.43322 0.73547 0.11326 0.0
C1057 C 0.42499 0.75333 0.1214 0.0
C1058 C 0.45389 0.73194 0.1149 0.0
C1059 C 0.46672 0.74606 0.12511 0.0
C1060 C 0.45816 0.76343 0.1344 0.0
C1061 C 0.43759 0.76712 0.13233 0.0
C1062 C 0.52261 0.75709 0.12038 0.0
C1063 C 0.5311 0.73805 0.12151 0.0
C1064 C 0.50182 0.75965 0.1218 0.0
C1065 C 0.48897 0.74327 0.12483 0.0
C1066 C 0.49757 0.72424 0.12658 0.0
C1067 C 0.51838 0.72165 0.12475 0.0
H1068 H 0.17178 0.43749 0.15525 0.0
H1069 H 0.22653 0.4394 0.11526 0.0
H1070 H 0.1726 0.4734 0.15934 0.0
H1071 H 0.22688 0.4755 0.11828 0.0
H1072 H 0.22612 0.54137 0.13293 0.0
H1073 H 0.22958 0.50572 0.13983 0.0
H1074 H 0.16518 0.49901 0.13336 0.0
H1075 H 0.16176 0.53431 0.1274 0.0
C1076 C 0.1841 0.44562 0.1475 0.0
C1077 C 0.19894 0.43572 0.13468 0.0
C1078 C 0.18452 0.46622 0.1497 0.0
C1079 C 0.19954 0.47745 0.13869 0.0
C1080 C 0.21513 0.46738 0.1271 0.0
C1081 C 0.2149 0.44668 0.12526 0.0
C1082 C 0.21273 0.53225 0.13339 0.0
C1083 C 0.19368 0.54065 0.12954 0.0
C1084 C 0.21471 0.51182 0.13719 0.0
C1085 C 0.19768 0.49942 0.13717 0.0
C1086 C 0.17863 0.50804 0.13399 0.0
C1087 C 0.17666 0.52836 0.13035 0.0
H1088 H 0.09879 0.30838 0.42476 0.0
H1089 H 0.10083 0.24432 0.42307 0.0
H1090 H 0.09353 0.30722 0.4668 0.0
H1091 H 0.0959 0.24325 0.46431 0.0
H1092 H 0.06589 0.24284 0.53109 0.0
H1093 H 0.06762 0.25064 0.49028 0.0
H1094 H 0.11165 0.29613 0.50423 0.0
H1095 H 0.10946 0.28858 0.54567 0.0
C1096 C 0.09816 0.29412 0.43331 0.0
C1097 C 0.10005 0.27645 0.42054 0.0
C1098 C 0.09522 0.29347 0.45732 0.0
C1099 C 0.09395 0.27513 0.46878 0.0
C1100 C 0.0963 0.25761 0.45596 0.0
C1101 C 0.09926 0.25825 0.43224 0.0
C1102 C 0.07569 0.25475 0.52554 0.0
C1103 C 0.0878 0.26487 0.54147 0.0
C1104 C 0.07672 0.25919 0.50215 0.0
C1105 C 0.09014 0.27365 0.49398 0.0
C1106 C 0.10121 0.28488 0.51004 0.0
C1107 C 0.09998 0.28055 0.5337 0.0
H1108 H 0.7064 0.08296 0.53057 0.0
H1109 H 0.64846 0.11183 0.53162 0.0
H1110 H 0.70574 0.08232 0.48877 0.0
H1111 H 0.64813 0.11202 0.4894 0.0
H1112 H 0.64835 0.09391 0.41213 0.0
H1113 H 0.64614 0.0929 0.4543 0.0
H1114 H 0.70981 0.10518 0.45867 0.0
H1115 H 0.71208 0.10534 0.417 0.0
C1116 C 0.69352 0.08926 0.52181 0.0
C1117 C 0.67757 0.09761 0.53436 0.0
C1118 C 0.69319 0.08903 0.49779 0.0
C1119 C 0.67706 0.09748 0.4856 0.0
C1120 C 0.66075 0.1053 0.49818 0.0
C1121 C 0.66096 0.10527 0.52236 0.0
C1122 C 0.66182 0.09639 0.4222 0.0
C1123 C 0.68042 0.09948 0.41127 0.0
C1124 C 0.66055 0.0959 0.44635 0.0
C1125 C 0.67785 0.09866 0.45995 0.0
C1126 C 0.69627 0.10239 0.44884 0.0
C1127 C 0.69756 0.10263 0.42487 0.0
H1128 H 0.85305 0.66013 0.4233 0.0
H1129 H 0.86546 0.72303 0.42174 0.0
H1130 H 0.85136 0.6615 0.46569 0.0
H1131 H 0.86407 0.72426 0.46337 0.0
H1132 H 0.83718 0.72818 0.53219 0.0
H1133 H 0.83633 0.72113 0.49119 0.0
H1134 H 0.87297 0.66907 0.50181 0.0
H1135 H 0.87341 0.67595 0.54351 0.0
C1136 C 0.85554 0.67415 0.43196 0.0
C1137 C 0.85912 0.69152 0.41916 0.0
C1138 C 0.85463 0.67492 0.45616 0.0
C1139 C 0.85719 0.69306 0.4678 0.0
C1140 C 0.86149 0.71015 0.45491 0.0
C1141 C 0.86238 0.70941 0.43098 0.0
C1142 C 0.84487 0.71507 0.52589 0.0
C1143 C 0.85568 0.70282 0.54097 0.0
C1144 C 0.84442 0.71106 0.50237 0.0
C1145 C 0.85501 0.69484 0.49321 0.0
C1146 C 0.86473 0.68172 0.50841 0.0
C1147 C 0.865 0.68566 0.53221 0.0
H1148 H 0.25043 0.88867 0.52914 0.0
H1149 H 0.30743 0.85813 0.53151 0.0
H1150 H 0.25219 0.88959 0.48735 0.0
H1151 H 0.30887 0.85824 0.48929 0.0
H1152 H 0.31043 0.87528 0.41178 0.0
H1153 H 0.31197 0.87715 0.45397 0.0
H1154 H 0.24798 0.86635 0.45746 0.0
H1155 H 0.24639 0.86526 0.4158 0.0
C1156 C 0.26337 0.88213 0.52067 0.0
C1157 C 0.27869 0.87315 0.53357 0.0
C1158 C 0.26433 0.88252 0.49666 0.0
C1159 C 0.28046 0.8736 0.48484 0.0
C1160 C 0.29625 0.86531 0.49779 0.0
C1161 C 0.29542 0.86517 0.52197 0.0
C1162 C 0.29674 0.87334 0.42166 0.0
C1163 C 0.27827 0.87031 0.41046 0.0
C1164 C 0.29762 0.87433 0.44582 0.0
C1165 C 0.28006 0.87219 0.45918 0.0
C1166 C 0.26174 0.86866 0.44782 0.0
C1167 C 0.26084 0.86788 0.42384 0.0
H1168 H 0.12589 0.72595 0.41647 0.0
H1169 H 0.08757 0.67526 0.40487 0.0
H1170 H 0.12652 0.71876 0.45745 0.0
H1171 H 0.08777 0.66826 0.44652 0.0
H1172 H 0.10636 0.65879 0.52529 0.0
H1173 H 0.10874 0.65991 0.48293 0.0
H1174 H 0.09862 0.72316 0.48493 0.0
H1175 H 0.09651 0.72215 0.52652 0.0
C1176 C 0.11776 0.7131 0.4227 0.0
C1177 C 0.1064 0.70136 0.40757 0.0
C1178 C 0.11806 0.70902 0.4462 0.0
C1179 C 0.10677 0.69325 0.45528 0.0
C1180 C 0.09656 0.68055 0.43999 0.0
C1181 C 0.09643 0.68455 0.41622 0.0
C1182 C 0.10458 0.67287 0.51657 0.0
C1183 C 0.1015 0.69041 0.52928 0.0
C1184 C 0.1059 0.67349 0.49238 0.0
C1185 C 0.10427 0.69168 0.48067 0.0
C1186 C 0.10049 0.70899 0.49345 0.0
C1187 C 0.09917 0.70838 0.51736 0.0
H1188 H 0.31185 0.0925 0.4101 0.0
H1189 H 0.24769 0.10182 0.41448 0.0
H1190 H 0.31334 0.08927 0.45219 0.0
H1191 H 0.24924 0.09924 0.45604 0.0
H1192 H 0.25206 0.07427 0.52642 0.0
H1193 H 0.25407 0.0746 0.48465 0.0
H1194 H 0.30954 0.1078 0.48834 0.0
H1195 H 0.30784 0.10679 0.53056 0.0
C1196 C 0.29812 0.09393 0.42003 0.0
C1197 C 0.27964 0.09725 0.40894 0.0
C1198 C 0.29898 0.09217 0.44412 0.0
C1199 C 0.28137 0.09374 0.45752 0.0
C1200 C 0.26303 0.09742 0.44631 0.0
C1201 C 0.26216 0.09905 0.4224 0.0
C1202 C 0.26479 0.08151 0.51836 0.0
C1203 C 0.27967 0.09071 0.53176 0.0
C1204 C 0.26589 0.0818 0.49437 0.0
C1205 C 0.28175 0.09159 0.48307 0.0
C1206 C 0.29715 0.10009 0.49647 0.0
C1207 C 0.29615 0.09958 0.52063 0.0
H1208 H 0.89243 0.23802 0.42158 0.0
H1209 H 0.85386 0.28802 0.40724 0.0
H1210 H 0.89037 0.24508 0.46255 0.0
H1211 H 0.85138 0.29489 0.44883 0.0
H1212 H 0.8648 0.30493 0.52875 0.0
H1213 H 0.87004 0.3037 0.4867 0.0
H1214 H 0.86121 0.24027 0.48801 0.0
H1215 H 0.8563 0.24138 0.52927 0.0
C1216 C 0.88362 0.25066 0.4272 0.0
C1217 C 0.873 0.26224 0.41123 0.0
C1218 C 0.8824 0.25468 0.4507 0.0
C1219 C 0.87033 0.27025 0.45896 0.0
C1220 C 0.86077 0.28276 0.44295 0.0
C1221 C 0.86215 0.27881 0.4192 0.0
C1222 C 0.86398 0.29078 0.51994 0.0
C1223 C 0.86034 0.27324 0.5324 0.0
C1224 C 0.86691 0.29009 0.49593 0.0
C1225 C 0.86638 0.27184 0.48413 0.0
C1226 C 0.86221 0.2545 0.49662 0.0
C1227 C 0.85928 0.25518 0.52035 0.0
H1228 H 0.65082 0.85678 0.53697 0.0
H1229 H 0.70568 0.89093 0.5347 0.0
H1230 H 0.65002 0.8562 0.49468 0.0
H1231 H 0.70453 0.89104 0.49292 0.0
H1232 H 0.71311 0.86538 0.42221 0.0
H1233 H 0.7107 0.86723 0.46379 0.0
H1234 H 0.64634 0.87488 0.45883 0.0
H1235 H 0.64874 0.87234 0.41671 0.0
C1236 C 0.6625 0.86442 0.52745 0.0
C1237 C 0.67847 0.87365 0.53912 0.0
C1238 C 0.66201 0.86416 0.50325 0.0
C1239 C 0.67742 0.87326 0.49035 0.0
C1240 C 0.69274 0.88336 0.50221 0.0
C1241 C 0.69334 0.88341 0.52622 0.0
C1242 C 0.69841 0.8675 0.42989 0.0
C1243 C 0.68113 0.86884 0.4161 0.0
C1244 C 0.69703 0.8687 0.45382 0.0
C1245 C 0.67836 0.87151 0.46474 0.0
C1246 C 0.66096 0.87264 0.451 0.0
C1247 C 0.66234 0.87129 0.42689 0.0
H1248 H 0.58948 0.79063 0.04405 0.0
H1249 H 0.61441 0.73296 0.02846 0.0
H1250 H 0.58828 0.79812 0.00251 0.0
H1251 H 0.61353 0.74049 -0.01232 0.0
H1252 H 0.58331 0.74543 0.92008 0.0
H1253 H 0.58428 0.74353 0.96174 0.0
H1254 H 0.60982 0.80233 0.96504 0.0
H1255 H 0.6085 0.80443 0.92264 0.0
C1256 C 0.59497 0.77972 0.03184 0.0
C1257 C 0.60165 0.76105 0.03949 0.0
C1258 C 0.59432 0.78402 0.00812 0.0
C1259 C 0.60038 0.7697 -0.00815 0.0
C1260 C 0.60822 0.75162 -0.00026 0.0
C1261 C 0.60876 0.74732 0.02317 0.0
C1262 C 0.58902 0.75807 0.92959 0.0
C1263 C 0.59614 0.77495 0.91804 0.0
C1264 C 0.58963 0.75694 0.95351 0.0
C1265 C 0.59757 0.77258 0.96665 0.0
C1266 C 0.6037 0.79001 0.95531 0.0
C1267 C 0.60298 0.7912 0.93111 0.0
H1268 H 0.21305 0.59906 0.91514 0.0
H1269 H 0.14893 0.58974 0.91071 0.0
H1270 H 0.21089 0.59975 0.95675 0.0
H1271 H 0.1468 0.58967 0.95294 0.0
H1272 H 0.20701 0.58034 0.02947 0.0
H1273 H 0.2059 0.57785 -0.01223 0.0
H1274 H 0.14981 0.61024 -0.01284 0.0
H1275 H 0.15056 0.61197 0.02935 0.0
C1276 C 0.19846 0.59695 0.92309 0.0
C1277 C 0.18117 0.5942 0.9096 0.0
C1278 C 0.19723 0.59721 0.94705 0.0
C1279 C 0.17872 0.59444 0.95831 0.0
C1280 C 0.1613 0.59193 0.94484 0.0
C1281 C 0.16251 0.59186 0.92067 0.0
C1282 C 0.19436 0.58683 0.02048 0.0
C1283 C 0.17899 0.59654 0.03265 0.0
C1284 C 0.19377 0.58551 -0.00349 0.0
C1285 C 0.17796 0.59419 -0.01601 0.0
C1286 C 0.16217 0.60333 -0.00377 0.0
C1287 C 0.16263 0.6044 0.02038 0.0
H1288 H 0.37603 0.17561 0.03714 0.0
H1289 H 0.34215 0.22921 0.02493 0.0
H1290 H 0.3753 0.16828 -0.00452 0.0
H1291 H 0.34109 0.22179 -0.01595 0.0
H1292 H 0.36943 0.22205 0.91474 0.0
H1293 H 0.36976 0.22316 0.95643 0.0
H1294 H 0.35211 0.1616 0.95921 0.0
H1295 H 0.35204 0.16034 0.9167 0.0
C1296 C 0.3681 0.18555 0.02567 0.0
C1297 C 0.35951 0.20319 0.03417 0.0
C1298 C 0.36767 0.18136 0.0019 0.0
C1299 C 0.35855 0.19472 -0.01351 0.0
C1300 C 0.34871 0.21149 -0.0046 0.0
C1301 C 0.34929 0.21572 0.01886 0.0
C1302 C 0.3657 0.20865 0.92411 0.0
C1303 C 0.36038 0.19119 0.9124 0.0
C1304 C 0.36584 0.20932 0.94805 0.0
C1305 C 0.3605 0.1926 0.96109 0.0
C1306 C 0.35619 0.17473 0.94955 0.0
C1307 C 0.35612 0.17402 0.9253 0.0
H1308 H 0.75299 0.38676 0.03427 0.0
H1309 H 0.81001 0.35618 0.03508 0.0
H1310 H 0.75422 0.38831 -0.00748 0.0
H1311 H 0.8109 0.35693 -0.00718 0.0
H1312 H 0.81115 0.37538 0.91545 0.0
H1313 H 0.81346 0.37644 0.95768 0.0
H1314 H 0.74958 0.36539 0.96238 0.0
H1315 H 0.74723 0.36509 0.92079 0.0
C1316 C 0.76582 0.38033 0.02547 0.0
C1317 C 0.78129 0.37115 0.03793 0.0
C1318 C 0.76647 0.38109 0.00147 0.0
C1319 C 0.78244 0.37235 -0.01082 0.0
C1320 C 0.79839 0.36385 0.00169 0.0
C1321 C 0.79787 0.36335 0.02588 0.0
C1322 C 0.79766 0.37322 0.92562 0.0
C1323 C 0.77898 0.37037 0.91478 0.0
C1324 C 0.79897 0.37374 0.94978 0.0
C1325 C 0.78165 0.37132 0.9635 0.0
C1326 C 0.76315 0.36792 0.95248 0.0
C1327 C 0.76182 0.3676 0.92853 0.0
H1328 H 0.59549 0.15948 0.02499 0.0
H1329 H 0.60688 0.22256 0.02714 0.0
H1330 H 0.59042 0.16161 -0.01698 0.0
H1331 H 0.60216 0.22455 -0.0141 0.0
H1332 H 0.57019 0.22913 0.92007 0.0
H1333 H 0.5726 0.22149 0.96083 0.0
H1334 H 0.60896 0.17013 0.94517 0.0
H1335 H 0.60613 0.1776 0.90381 0.0
C1336 C 0.59704 0.17371 0.01654 0.0
C1337 C 0.60134 0.19089 0.02943 0.0
C1338 C 0.59419 0.17491 -0.00743 0.0
C1339 C 0.59551 0.19332 -0.01874 0.0
C1340 C 0.60051 0.21024 -0.00584 0.0
C1341 C 0.60333 0.20906 0.01786 0.0
C1342 C 0.5785 0.21604 0.92523 0.0
C1343 C 0.58828 0.20416 0.90878 0.0
C1344 C 0.57993 0.2117 0.94861 0.0
C1345 C 0.59138 0.19549 0.95623 0.0
C1346 C 0.60008 0.18275 0.93977 0.0
C1347 C 0.59849 0.18704 0.91615 0.0
H1348 H 0.8109 0.61013 0.03799 0.0
H1349 H 0.75565 0.57661 0.03535 0.0
H1350 H 0.81151 0.61148 -0.00424 0.0
H1351 H 0.75663 0.57722 -0.00644 0.0
H1352 H 0.74859 0.60311 0.92308 0.0
H1353 H 0.75075 0.60109 0.96468 0.0
H1354 H 0.81513 0.59331 0.95984 0.0
H1355 H 0.81298 0.5961 0.9178 0.0
C1356 C 0.79908 0.6028 0.02838 0.0
C1357 C 0.78309 0.5935 0.03993 0.0
C1358 C 0.79946 0.60351 0.00421 0.0
C1359 C 0.78393 0.59475 -0.00877 0.0
C1360 C 0.76851 0.58464 0.00295 0.0
C1361 C 0.76801 0.58417 0.02695 0.0
C1362 C 0.76323 0.60096 0.93082 0.0
C1363 C 0.7806 0.59965 0.91712 0.0
C1364 C 0.76447 0.59966 0.95474 0.0
C1365 C 0.78309 0.59674 0.96568 0.0
C1366 C 0.80057 0.59567 0.952 0.0
C1367 C 0.79933 0.59716 0.92793 0.0
H1368 H 0.3411 0.73733 0.91837 0.0
H1369 H 0.37169 0.79241 0.90383 0.0
H1370 H 0.34253 0.7444 0.95932 0.0
H1371 H 0.37341 0.79942 0.9455 0.0
H1372 H 0.3545 0.80576 0.02618 0.0
H1373 H 0.35212 0.80479 -0.01622 0.0
H1374 H 0.37318 0.74422 -0.01572 0.0
H1375 H 0.37531 0.74506 0.02594 0.0
C1376 C 0.34801 0.75107 0.92394 0.0
C1377 C 0.35662 0.76414 0.9079 0.0
C1378 C 0.34886 0.7551 0.94744 0.0
C1379 C 0.35852 0.77222 0.95564 0.0
C1380 C 0.36596 0.78606 0.93962 0.0
C1381 C 0.36498 0.78206 0.91584 0.0
C1382 C 0.35885 0.79238 0.0171 0.0
C1383 C 0.36476 0.77537 0.0294 0.0
C1384 C 0.3575 0.79184 -0.0071 0.0
C1385 C 0.36204 0.77428 -0.01919 0.0
C1386 C 0.36907 0.7578 -0.00685 0.0
C1387 C 0.37035 0.75831 0.01706 0.0
H1388 H 0.14484 0.3711 0.9202 0.0
H1389 H 0.20934 0.36399 0.92303 0.0
H1390 H 0.14388 0.37459 0.96229 0.0
H1391 H 0.20834 0.36682 0.96464 0.0
H1392 H 0.20568 0.39254 0.03479 0.0
H1393 H 0.20308 0.39159 -0.0069 0.0
H1394 H 0.14884 0.35662 -0.00147 0.0
H1395 H 0.15112 0.35823 0.04071 0.0
C1396 C 0.15877 0.3702 0.92979 0.0
C1397 C 0.17718 0.36745 0.91827 0.0
C1398 C 0.15821 0.3721 0.95389 0.0
C1399 C 0.17606 0.37124 0.96686 0.0
C1400 C 0.19435 0.36808 0.95523 0.0
C1401 C 0.19491 0.36632 0.9313 0.0
C1402 C 0.19309 0.38478 0.02713 0.0
C1403 C 0.17873 0.37526 0.04101 0.0
C1404 C 0.19165 0.38412 0.00319 0.0
C1405 C 0.17599 0.37366 -0.0076 0.0
C1406 C 0.16108 0.36483 0.00627 0.0
C1407 C 0.16241 0.3657 0.03041 0.0
H1408 H 0.15954 0.37351 0.18697 0.0
H1409 H 0.13234 0.31814 0.16619 0.0
H1410 H 0.14931 0.36743 0.22669 0.0
H1411 H 0.1228 0.31167 0.20592 0.0
H1412 H 0.09768 0.30819 0.27698 0.0
H1413 H 0.10234 0.32008 0.23773 0.0
H1414 H 0.15898 0.34651 0.25746 0.0
H1415 H 0.15387 0.33529 0.2969 0.0
C1416 C 0.15128 0.36008 0.19085 0.0
C1417 C 0.14686 0.34625 0.17341 0.0
C1418 C 0.14552 0.35653 0.21368 0.0
C1419 C 0.13537 0.33897 0.21965 0.0
C1420 C 0.13034 0.32549 0.20201 0.0
C1421 C 0.13592 0.32914 0.17917 0.0
C1422 C 0.11099 0.3168 0.273 0.0
C1423 C 0.12549 0.32067 0.29003 0.0
C1424 C 0.11373 0.32351 0.25043 0.0
C1425 C 0.13117 0.33404 0.24425 0.0
C1426 C 0.14525 0.33864 0.26156 0.0
C1427 C 0.14238 0.33213 0.28422 0.0
H1428 H 0.59536 0.15813 0.17346 0.0
H1429 H 0.65177 0.13108 0.15399 0.0
H1430 H 0.59978 0.14639 0.21281 0.0
H1431 H 0.65665 0.12004 0.19349 0.0
H1432 H 0.65756 0.09399 0.26433 0.0
H1433 H 0.64716 0.09943 0.22456 0.0
H1434 H 0.61995 0.15512 0.24454 0.0
H1435 H 0.62963 0.14928 0.28429 0.0
C1436 C 0.60866 0.14955 0.17756 0.0
C1437 C 0.62329 0.14568 0.16063 0.0
C1438 C 0.61127 0.14293 0.20018 0.0
C1439 C 0.62871 0.13249 0.20652 0.0
C1440 C 0.64291 0.12784 0.18929 0.0
C1441 C 0.64017 0.13426 0.16659 0.0
C1442 C 0.64909 0.10725 0.26026 0.0
C1443 C 0.64454 0.12126 0.27748 0.0
C1444 C 0.64323 0.11044 0.23741 0.0
C1445 C 0.63286 0.12781 0.23118 0.0
C1446 C 0.62766 0.14143 0.24863 0.0
C1447 C 0.63332 0.13814 0.27149 0.0
H1448 H 0.81017 0.59285 0.18415 0.0
H1449 H 0.83432 0.64967 0.1638 0.0
H1450 H 0.8208 0.59893 0.22369 0.0
H1451 H 0.84423 0.65612 0.20342 0.0
H1452 H 0.86862 0.66083 0.27469 0.0
H1453 H 0.86501 0.64873 0.23531 0.0
H1454 H 0.80978 0.61921 0.25447 0.0
H1455 H 0.81384 0.63065 0.29393 0.0
C1456 C 0.81789 0.60658 0.18808 0.0
C1457 C 0.82125 0.62085 0.17085 0.0
C1458 C 0.82387 0.61013 0.21081 0.0
C1459 C 0.83315 0.62813 0.21691 0.0
C1460 C 0.83734 0.64198 0.19941 0.0
C1461 C 0.83156 0.63833 0.17664 0.0
C1462 C 0.85588 0.65148 0.27056 0.0
C1463 C 0.84143 0.64684 0.28742 0.0
C1464 C 0.85373 0.64465 0.24792 0.0
C1465 C 0.83697 0.63317 0.24155 0.0
C1466 C 0.82302 0.6278 0.25871 0.0
C1467 C 0.82528 0.63446 0.28139 0.0
H1468 H 0.35212 0.78856 0.17954 0.0
H1469 H 0.32742 0.84258 0.15141 0.0
H1470 H 0.34564 0.80053 0.21828 0.0
H1471 H 0.32186 0.85514 0.19035 0.0
H1472 H 0.28956 0.85852 0.2602 0.0
H1473 H 0.3001 0.85031 0.22131 0.0
H1474 H 0.35351 0.82211 0.24828 0.0
H1475 H 0.34229 0.82948 0.28741 0.0
C1476 C 0.34567 0.8032 0.18164 0.0
C1477 C 0.34014 0.81454 0.16235 0.0
C1478 C 0.34207 0.81017 0.20396 0.0
C1479 C 0.33312 0.82883 0.20765 0.0
C1480 C 0.32836 0.84052 0.18829 0.0
C1481 C 0.33168 0.83339 0.16591 0.0
C1482 C 0.30367 0.85075 0.25785 0.0
C1483 C 0.315 0.84451 0.27694 0.0
C1484 C 0.30982 0.84613 0.23543 0.0
C1485 C 0.32765 0.8354 0.23146 0.0
C1486 C 0.33946 0.82998 0.2506 0.0
C1487 C 0.33312 0.83433 0.27307 0.0
H1488 H 0.11738 0.63345 0.78752 0.0
H1489 H 0.17068 0.60548 0.75995 0.0
H1490 H 0.10581 0.64028 0.74845 0.0
H1491 H 0.15977 0.61314 0.72113 0.0
H1492 H 0.13267 0.62005 0.65151 0.0
H1493 H 0.13793 0.60756 0.69046 0.0
H1494 H 0.11322 0.66191 0.71832 0.0
H1495 H 0.10705 0.67381 0.67955 0.0
C1496 C 0.1266 0.62872 0.77312 0.0
C1497 C 0.14499 0.61901 0.77686 0.0
C1498 C 0.12005 0.63275 0.75068 0.0
C1499 C 0.1319 0.62745 0.73148 0.0
C1500 C 0.15001 0.61719 0.73533 0.0
C1501 C 0.15638 0.6129 0.75769 0.0
C1502 C 0.1281 0.62917 0.66599 0.0
C1503 C 0.11956 0.64797 0.66242 0.0
C1504 C 0.13125 0.62208 0.68836 0.0
C1505 C 0.12624 0.63378 0.7077 0.0
C1506 C 0.11703 0.65229 0.704 0.0
C1507 C 0.1136 0.65921 0.68167 0.0
H1508 H 0.28832 0.1066 0.68042 0.0
H1509 H 0.33861 0.13943 0.6528 0.0
H1510 H 0.29887 0.11473 0.71926 0.0
H1511 H 0.34991 0.14677 0.69188 0.0
H1512 H 0.34724 0.17863 0.76177 0.0
H1513 H 0.34114 0.16713 0.72279 0.0
H1514 H 0.32145 0.11048 0.74943 0.0
H1515 H 0.32659 0.12251 0.78864 0.0
C1516 C 0.30191 0.11523 0.68266 0.0
C1517 C 0.31253 0.1225 0.66348 0.0
C1518 C 0.30808 0.1198 0.70504 0.0
C1519 C 0.32526 0.13151 0.7089 0.0
C1520 C 0.33637 0.13808 0.68966 0.0
C1521 C 0.32999 0.13376 0.66722 0.0
C1522 C 0.34178 0.16365 0.75933 0.0
C1523 C 0.33723 0.15155 0.77834 0.0
C1524 C 0.33841 0.15696 0.73687 0.0
C1525 C 0.33067 0.13785 0.73277 0.0
C1526 C 0.32698 0.12543 0.75184 0.0
C1527 C 0.33006 0.13226 0.77436 0.0
H1528 H 0.84869 0.2901 0.68225 0.0
H1529 H 0.82259 0.34345 0.65401 0.0
H1530 H 0.84278 0.30237 0.72095 0.0
H1531 H 0.81749 0.35628 0.69295 0.0
H1532 H 0.78647 0.35922 0.7639 0.0
H1533 H 0.79635 0.3511 0.7247 0.0
H1534 H 0.8512 0.32465 0.7502 0.0
H1535 H 0.84073 0.33195 0.7896 0.0
C1536 C 0.84202 0.30466 0.6843 0.0
C1537 C 0.83597 0.31573 0.665 0.0
C1538 C 0.83876 0.3118 0.7066 0.0
C1539 C 0.82959 0.33035 0.71025 0.0
C1540 C 0.82424 0.34177 0.69088 0.0
C1541 C 0.82727 0.33448 0.66852 0.0
C1542 C 0.80075 0.35186 0.76114 0.0
C1543 C 0.81272 0.34606 0.77991 0.0
C1544 C 0.80651 0.3473 0.73857 0.0
C1545 C 0.82454 0.33705 0.73413 0.0
C1546 C 0.83699 0.33213 0.7529 0.0
C1547 C 0.83107 0.33644 0.77552 0.0
H1548 H 0.62863 0.81527 0.66255 0.0
H1549 H 0.65321 0.8716 0.6841 0.0
H1550 H 0.61839 0.80845 0.70198 0.0
H1551 H 0.64222 0.86518 0.72347 0.0
H1552 H 0.64698 0.83353 0.7937 0.0
H1553 H 0.65219 0.84479 0.75437 0.0
H1554 H 0.59724 0.81565 0.73354 0.0
H1555 H 0.59251 0.80369 0.77278 0.0
C1556 C 0.63144 0.82641 0.67562 0.0
C1557 C 0.64192 0.84389 0.67019 0.0
C1558 C 0.62546 0.82255 0.69829 0.0
C1559 C 0.6296 0.83618 0.71608 0.0
C1560 C 0.63917 0.85413 0.71037 0.0
C1561 C 0.64535 0.85789 0.68774 0.0
C1562 C 0.63586 0.82974 0.7808 0.0
C1563 C 0.61944 0.81755 0.78636 0.0
C1564 C 0.63879 0.83631 0.75819 0.0
C1565 C 0.62523 0.83102 0.7406 0.0
C1566 C 0.60824 0.81966 0.74647 0.0
C1567 C 0.60544 0.81291 0.76903 0.0
H1568 H 0.88106 0.67441 0.6967 0.0
H1569 H 0.82558 0.65316 0.66716 0.0
H1570 H 0.87275 0.65835 0.73304 0.0
H1571 H 0.81666 0.63791 0.70386 0.0
H1572 H 0.80747 0.60613 0.77119 0.0
H1573 H 0.82148 0.61424 0.73345 0.0
H1574 H 0.85031 0.66584 0.76291 0.0
H1575 H 0.83705 0.6573 0.80052 0.0
C1576 C 0.86716 0.66609 0.69794 0.0
C1577 C 0.85387 0.66519 0.6792 0.0
C1578 C 0.86229 0.65703 0.71883 0.0
C1579 C 0.8438 0.64719 0.72165 0.0
C1580 C 0.83108 0.64523 0.70238 0.0
C1581 C 0.83615 0.65403 0.68131 0.0
C1582 C 0.81704 0.61904 0.76962 0.0
C1583 C 0.82107 0.63111 0.78887 0.0
C1584 C 0.82499 0.62377 0.74794 0.0
C1585 C 0.83701 0.64075 0.74499 0.0
C1586 C 0.84146 0.65244 0.76446 0.0
C1587 C 0.8337 0.64762 0.7861 0.0
H1588 H 0.36686 0.77747 0.744 0.0
H1589 H 0.33853 0.82407 0.7836 0.0
H1590 H 0.35724 0.79372 0.70863 0.0
H1591 H 0.3296 0.84108 0.74783 0.0
H1592 H 0.29208 0.84748 0.68087 0.0
H1593 H 0.30637 0.83735 0.71758 0.0
H1594 H 0.36105 0.81962 0.68272 0.0
H1595 H 0.34621 0.82876 0.64588 0.0
C1596 C 0.35896 0.79149 0.74517 0.0
C1597 C 0.35331 0.79938 0.76666 0.0
C1598 C 0.35355 0.80096 0.72476 0.0
C1599 C 0.34254 0.81876 0.72519 0.0
C1600 C 0.33776 0.82721 0.74677 0.0
C1601 C 0.34302 0.81757 0.7673 0.0
C1602 C 0.30724 0.84161 0.6811 0.0
C1603 C 0.3179 0.83863 0.66044 0.0
C1604 C 0.31553 0.83592 0.70222 0.0
C1605 C 0.33484 0.8274 0.70323 0.0
C1606 C 0.34594 0.8256 0.68263 0.0
C1607 C 0.3375 0.83094 0.66148 0.0
H1608 H 0.09119 0.27123 0.70578 0.0
H1609 H 0.11503 0.3202 0.66635 0.0
H1610 H 0.09991 0.28801 0.74124 0.0
H1611 H 0.12314 0.33759 0.70222 0.0
H1612 H 0.16008 0.34654 0.76955 0.0
H1613 H 0.14684 0.33538 0.73268 0.0
H1614 H 0.09328 0.31402 0.7669 0.0
H1615 H 0.10702 0.32436 0.8039 0.0
C1616 C 0.09797 0.28581 0.70467 0.0
C1617 C 0.10253 0.29431 0.6832 0.0
C1618 C 0.10284 0.29556 0.72512 0.0
C1619 C 0.11224 0.31423 0.72474 0.0
C1620 C 0.11616 0.32311 0.70321 0.0
C1621 C 0.1114 0.31322 0.68264 0.0
C1622 C 0.14536 0.33969 0.76916 0.0
C1623 C 0.13473 0.33607 0.7897 0.0
C1624 C 0.13768 0.33338 0.74794 0.0
C1625 C 0.11907 0.32352 0.74674 0.0
C1626 C 0.1079 0.32108 0.76718 0.0
C1627 C 0.11571 0.32712 0.78842 0.0
H1628 H 0.60703 0.13865 0.64868 0.0
H1629 H 0.66102 0.11855 0.68266 0.0
H1630 H 0.59314 0.14886 0.68571 0.0
H1631 H 0.64762 0.12963 0.71956 0.0
H1632 H 0.59095 0.19315 0.74535 0.0
H1633 H 0.59952 0.17563 0.71034 0.0
H1634 H 0.62422 0.1275 0.75052 0.0
H1635 H 0.61624 0.14567 0.78597 0.0
C1636 C 0.61588 0.1363 0.6641 0.0
C1637 C 0.63521 0.12803 0.66271 0.0
C1638 C 0.60798 0.14226 0.68534 0.0
C1639 C 0.6194 0.14046 0.70566 0.0
C1640 C 0.6383 0.13114 0.70438 0.0
C1641 C 0.64606 0.12488 0.68316 0.0
C1642 C 0.59803 0.17873 0.74682 0.0
C1643 C 0.60305 0.17088 0.76848 0.0
C1644 C 0.60279 0.16854 0.72664 0.0
C1645 C 0.61256 0.15006 0.72747 0.0
C1646 C 0.61693 0.14181 0.7492 0.0
C1647 C 0.61225 0.15214 0.76952 0.0
H1648 H 0.84955 0.32764 0.15147 0.0
H1649 H 0.79504 0.34585 0.18607 0.0
H1650 H 0.86378 0.31745 0.18822 0.0
H1651 H 0.80883 0.33476 0.22273 0.0
H1652 H 0.84155 0.31995 0.28878 0.0
H1653 H 0.8323 0.33763 0.2535 0.0
H1654 H 0.85863 0.29049 0.21281 0.0
H1655 H 0.86844 0.27349 0.24765 0.0
C1656 C 0.84064 0.32954 0.16697 0.0
C1657 C 0.82109 0.33733 0.16582 0.0
C1658 C 0.84874 0.32358 0.18806 0.0
C1659 C 0.83734 0.3249 0.20849 0.0
C1660 C 0.81815 0.33364 0.20746 0.0
C1661 C 0.81017 0.3399 0.18638 0.0
C1662 C 0.84561 0.3136 0.27225 0.0
C1663 C 0.85568 0.2953 0.27104 0.0
C1664 C 0.84019 0.32364 0.25202 0.0
C1665 C 0.84467 0.31553 0.2302 0.0
C1666 C 0.85524 0.29748 0.22918 0.0
C1667 C 0.86073 0.28759 0.24927 0.0
H1668 H 0.59436 0.77557 0.20328 0.0
H1669 H 0.62322 0.82134 0.16307 0.0
H1670 H 0.60369 0.79243 0.23843 0.0
H1671 H 0.63195 0.83893 0.19863 0.0
H1672 H 0.66827 0.84636 0.26673 0.0
H1673 H 0.65473 0.83565 0.22977 0.0
H1674 H 0.59907 0.8192 0.26328 0.0
H1675 H 0.61307 0.82897 0.30035 0.0
C1676 C 0.60237 0.78951 0.20192 0.0
C1677 C 0.60817 0.79703 0.18033 0.0
C1678 C 0.6076 0.79934 0.22219 0.0
C1679 C 0.61862 0.81712 0.22154 0.0
C1680 C 0.62372 0.82512 0.19986 0.0
C1681 C 0.61859 0.81514 0.17945 0.0
C1682 C 0.65305 0.84067 0.26613 0.0
C1683 C 0.64185 0.83821 0.28651 0.0
C1684 C 0.6452 0.83464 0.24488 0.0
C1685 C 0.62586 0.82626 0.24347 0.0
C1686 C 0.61422 0.82505 0.26372 0.0
C1687 C 0.62219 0.83076 0.285 0.0
H1688 H 0.13251 0.65147 0.28083 0.0
H1689 H 0.07732 0.67404 0.25193 0.0
H1690 H 0.14091 0.63624 0.24395 0.0
H1691 H 0.08513 0.65803 0.21533 0.0
H1692 H 0.12121 0.65705 0.1478 0.0
H1693 H 0.10767 0.66528 0.18543 0.0
H1694 H 0.13552 0.61291 0.21415 0.0
H1695 H 0.14981 0.60512 0.17645 0.0
C1696 C 0.12187 0.65263 0.26678 0.0
C1697 C 0.10441 0.66416 0.26914 0.0
C1698 C 0.12663 0.64384 0.24559 0.0
C1699 C 0.11388 0.64618 0.22643 0.0
C1700 C 0.0956 0.65639 0.22947 0.0
C1701 C 0.09102 0.66543 0.25051 0.0
C1702 C 0.12426 0.64712 0.16205 0.0
C1703 C 0.13676 0.63052 0.15913 0.0
C1704 C 0.11634 0.65177 0.1837 0.0
C1705 C 0.1205 0.63981 0.20298 0.0
C1706 C 0.13227 0.62267 0.19981 0.0
C1707 C 0.14038 0.61812 0.17816 0.0
H1708 H 0.35063 0.13382 0.29301 0.0
H1709 H 0.29461 0.1191 0.2596 0.0
H1710 H 0.3648 0.14368 0.25604 0.0
H1711 H 0.30839 0.12985 0.22277 0.0
H1712 H 0.34008 0.14437 0.15621 0.0
H1713 H 0.33114 0.12626 0.19131 0.0
H1714 H 0.36055 0.17135 0.23222 0.0
H1715 H 0.37001 0.18878 0.19749 0.0
C1716 C 0.34138 0.13259 0.27773 0.0
C1717 C 0.32143 0.12592 0.27928 0.0
C1718 C 0.34945 0.13835 0.25652 0.0
C1719 C 0.33765 0.13795 0.23639 0.0
C1720 C 0.31802 0.13025 0.23779 0.0
C1721 C 0.31005 0.12418 0.25898 0.0
C1722 C 0.34491 0.15015 0.17272 0.0
C1723 C 0.35566 0.16805 0.17405 0.0
C1724 C 0.33967 0.13987 0.19285 0.0
C1725 C 0.34504 0.14733 0.2147 0.0
C1726 C 0.35642 0.16487 0.21581 0.0
C1727 C 0.36173 0.17502 0.19579 0.0
loop_
_geom_bond_atom_site_label_1
_geom_bond_atom_site_label_2
_geom_bond_distance
_geom_bond_site_symmetry_2
_ccdc_geom_bond_type
C0 O1 1.306 . S
C0 O3 1.160 . S
O1 C0 1.306 . S
O1 Cd2 2.228 . S
Cd2 O1 2.228 . S
Cd2 O6 2.273 . S
Cd2 O10 2.277 . S
O3 C0 1.160 . S
O3 Cd4 2.203 . S
Cd4 O3 2.203 . S
Cd4 O6 2.411 . S
Cd4 O7 2.333 . S
Cd4 O8 2.352 . S
Cd4 O12 2.277 . S
Cd4 O13 2.356 . S
C5 O10 1.209 . S
C5 O12 1.226 . S
O6 Cd2 2.273 . S
O6 Cd4 2.411 . S
O6 C9 1.320 . S
O7 Cd4 2.333 . S
O7 C9 1.214 . S
O8 Cd4 2.352 . S
O8 C11 1.258 . S
C9 O6 1.320 . S
C9 O7 1.214 . S
O10 Cd2 2.277 . S
O10 C5 1.209 . S
C11 O8 1.258 . S
C11 O13 1.282 . S
O12 Cd4 2.277 . S
O12 C5 1.226 . S
O13 Cd4 2.356 . S
O13 C11 1.282 . S
C14 O15 1.306 . S
C14 O17 1.160 . S
O15 C14 1.306 . S
O15 Cd16 2.228 . S
Cd16 O15 2.228 . S
Cd16 O20 2.273 . S
Cd16 O24 2.277 . S
O17 C14 1.160 . S
O17 Cd18 2.203 . S
Cd18 O17 2.203 . S
Cd18 O20 2.411 . S
Cd18 O21 2.333 . S
Cd18 O22 2.352 . S
Cd18 O26 2.277 . S
Cd18 O27 2.356 . S
C19 O24 1.209 . S
C19 O26 1.226 . S
O20 Cd16 2.273 . S
O20 Cd18 2.411 . S
O20 C23 1.320 . S
O21 Cd18 2.333 . S
O21 C23 1.214 . S
O22 Cd18 2.352 . S
O22 C25 1.258 . S
C23 O20 1.320 . S
C23 O21 1.214 . S
O24 Cd16 2.277 . S
O24 C19 1.209 . S
C25 O22 1.258 . S
C25 O27 1.282 . S
O26 Cd18 2.277 . S
O26 C19 1.226 . S
O27 Cd18 2.356 . S
O27 C25 1.282 . S
C28 O29 1.306 . S
C28 O31 1.160 . S
O29 C28 1.306 . S
O29 Cd30 2.228 . S
Cd30 O29 2.228 . S
Cd30 O34 2.273 . S
Cd30 O38 2.277 . S
O31 C28 1.160 . S
O31 Cd32 2.203 . S
Cd32 O31 2.203 . S
Cd32 O34 2.411 . S
Cd32 O35 2.333 . S
Cd32 O36 2.352 . S
Cd32 O40 2.277 . S
Cd32 O41 2.356 . S
C33 O38 1.209 . S
C33 O40 1.226 . S
O34 Cd30 2.273 . S
O34 Cd32 2.411 . S
O34 C37 1.320 . S
O35 Cd32 2.333 . S
O35 C37 1.214 . S
O36 Cd32 2.352 . S
O36 C39 1.258 . S
C37 O34 1.320 . S
C37 O35 1.214 . S
O38 Cd30 2.277 . S
O38 C33 1.209 . S
C39 O36 1.258 . S
C39 O41 1.282 . S
O40 Cd32 2.277 . S
O40 C33 1.226 . S
O41 Cd32 2.356 . S
O41 C39 1.282 . S
C42 O43 1.306 . S
C42 O45 1.160 . S
O43 C42 1.306 . S
O43 Cd44 2.228 . S
Cd44 O43 2.228 . S
Cd44 O48 2.273 . S
Cd44 O52 2.277 . S
O45 C42 1.160 . S
O45 Cd46 2.203 . S
Cd46 O45 2.203 . S
Cd46 O48 2.411 . S
Cd46 O49 2.333 . S
Cd46 O50 2.352 . S
Cd46 O54 2.277 . S
Cd46 O55 2.356 . S
C47 O52 1.209 . S
C47 O54 1.226 . S
O48 Cd44 2.273 . S
O48 Cd46 2.411 . S
O48 C51 1.320 . S
O49 Cd46 2.333 . S
O49 C51 1.214 . S
O50 Cd46 2.352 . S
O50 C53 1.258 . S
C51 O48 1.320 . S
C51 O49 1.214 . S
O52 Cd44 2.277 . S
O52 C47 1.209 . S
C53 O50 1.258 . S
C53 O55 1.282 . S
O54 Cd46 2.277 . S
O54 C47 1.226 . S
O55 Cd46 2.356 . S
O55 C53 1.282 . S
C56 O57 1.306 . S
C56 O59 1.160 . S
O57 C56 1.306 . S
O57 Cd58 2.228 . S
Cd58 O57 2.228 . S
Cd58 O62 2.273 . S
Cd58 O66 2.277 . S
O59 C56 1.160 . S
O59 Cd60 2.203 . S
Cd60 O59 2.203 . S
Cd60 O62 2.411 . S
Cd60 O63 2.333 . S
Cd60 O64 2.352 . S
Cd60 O68 2.277 . S
Cd60 O69 2.356 . S
C61 O66 1.209 . S
C61 O68 1.226 . S
O62 Cd58 2.273 . S
O62 Cd60 2.411 . S
O62 C65 1.320 . S
O63 Cd60 2.333 . S
O63 C65 1.214 . S
O64 Cd60 2.352 . S
O64 C67 1.258 . S
C65 O62 1.320 . S
C65 O63 1.214 . S
O66 Cd58 2.277 . S
O66 C61 1.209 . S
C67 O64 1.258 . S
C67 O69 1.282 . S
O68 Cd60 2.277 . S
O68 C61 1.226 . S
O69 Cd60 2.356 . S
O69 C67 1.282 . S
C70 O71 1.306 . S
C70 O73 1.160 . S
O71 C70 1.306 . S
O71 Cd72 2.228 . S
Cd72 O71 2.228 . S
Cd72 O76 2.273 . S
Cd72 O80 2.277 . S
O73 C70 1.160 . S
O73 Cd74 2.203 . S
Cd74 O73 2.203 . S
Cd74 O76 2.411 . S
Cd74 O77 2.333 . S
Cd74 O78 2.352 . S
Cd74 O82 2.277 . S
Cd74 O83 2.356 . S
C75 O80 1.209 . S
C75 O82 1.226 . S
O76 Cd72 2.273 . S
O76 Cd74 2.411 . S
O76 C79 1.320 . S
O77 Cd74 2.333 . S
O77 C79 1.214 . S
O78 Cd74 2.352 . S
O78 C81 1.258 . S
C79 O76 1.320 . S
C79 O77 1.214 . S
O80 Cd72 2.277 . S
O80 C75 1.209 . S
C81 O78 1.258 . S
C81 O83 1.282 . S
O82 Cd74 2.277 . S
O82 C75 1.226 . S
O83 Cd74 2.356 . S
O83 C81 1.282 . S
C84 O85 1.306 . S
C84 O87 1.160 . S
O85 C84 1.306 . S
O85 Cd86 2.228 . S
Cd86 O85 2.228 . S
Cd86 O90 2.273 . S
Cd86 O94 2.277 . S
O87 C84 1.160 . S
O87 Cd88 2.203 . S
Cd88 O87 2.203 . S
Cd88 O90 2.411 . S
Cd88 O91 2.333 . S
Cd88 O92 2.352 . S
Cd88 O96 2.277 . S
Cd88 O97 2.356 . S
C89 O94 1.209 . S
C89 O96 1.226 . S
O90 Cd86 2.273 . S
O90 Cd88 2.411 . S
O90 C93 1.320 . S
O91 Cd88 2.333 . S
O91 C93 1.214 . S
O92 Cd88 2.352 . S
O92 C95 1.258 . S
C93 O90 1.320 . S
C93 O91 1.214 . S
O94 Cd86 2.277 . S
O94 C89 1.209 . S
C95 O92 1.258 . S
C95 O97 1.282 . S
O96 Cd88 2.277 . S
O96 C89 1.226 . S
O97 Cd88 2.356 . S
O97 C95 1.282 . S
C98 O99 1.306 . S
C98 O101 1.160 . S
O99 C98 1.306 . S
O99 Cd100 2.228 . S
Cd100 O99 2.228 . S
Cd100 O104 2.273 . S
Cd100 O108 2.277 . S
O101 C98 1.160 . S
O101 Cd102 2.203 . S
Cd102 O101 2.203 . S
Cd102 O104 2.411 . S
Cd102 O105 2.333 . S
Cd102 O106 2.352 . S
Cd102 O110 2.277 . S
Cd102 O111 2.356 . S
C103 O108 1.209 . S
C103 O110 1.226 . S
O104 Cd100 2.273 . S
O104 Cd102 2.411 . S
O104 C107 1.320 . S
O105 Cd102 2.333 . S
O105 C107 1.214 . S
O106 Cd102 2.352 . S
O106 C109 1.258 . S
C107 O104 1.320 . S
C107 O105 1.214 . S
O108 Cd100 2.277 . S
O108 C103 1.209 . S
C109 O106 1.258 . S
C109 O111 1.282 . S
O110 Cd102 2.277 . S
O110 C103 1.226 . S
O111 Cd102 2.356 . S
O111 C109 1.282 . S
C112 O113 1.306 . S
C112 O115 1.160 . S
O113 C112 1.306 . S
O113 Cd114 2.228 . S
Cd114 O113 2.228 . S
Cd114 O118 2.273 . S
Cd114 O122 2.277 . S
O115 C112 1.160 . S
O115 Cd116 2.203 . S
Cd116 O115 2.203 . S
Cd116 O118 2.411 . S
Cd116 O119 2.333 . S
Cd116 O120 2.352 . S
Cd116 O124 2.277 . S
Cd116 O125 2.356 . S
C117 O122 1.209 . S
C117 O124 1.226 . S
O118 Cd114 2.273 . S
O118 Cd116 2.411 . S
O118 C121 1.320 . S
O119 Cd116 2.333 . S
O119 C121 1.214 . S
O120 Cd116 2.352 . S
O120 C123 1.258 . S
C121 O118 1.320 . S
C121 O119 1.214 . S
O122 Cd114 2.277 . S
O122 C117 1.209 . S
C123 O120 1.258 . S
C123 O125 1.282 . S
O124 Cd116 2.277 . S
O124 C117 1.226 . S
O125 Cd116 2.356 . S
O125 C123 1.282 . S
C126 O127 1.306 . S
C126 O129 1.160 . S
O127 C126 1.306 . S
O127 Cd128 2.228 . S
Cd128 O127 2.228 . S
Cd128 O132 2.273 . S
Cd128 O136 2.277 . S
O129 C126 1.160 . S
O129 Cd130 2.203 . S
Cd130 O129 2.203 . S
Cd130 O132 2.411 . S
Cd130 O133 2.333 . S
Cd130 O134 2.352 . S
Cd130 O138 2.277 . S
Cd130 O139 2.356 . S
C131 O136 1.209 . S
C131 O138 1.226 . S
O132 Cd128 2.273 . S
O132 Cd130 2.411 . S
O132 C135 1.320 . S
O133 Cd130 2.333 . S
O133 C135 1.214 . S
O134 Cd130 2.352 . S
O134 C137 1.258 . S
C135 O132 1.320 . S
C135 O133 1.214 . S
O136 Cd128 2.277 . S
O136 C131 1.209 . S
C137 O134 1.258 . S
C137 O139 1.282 . S
O138 Cd130 2.277 . S
O138 C131 1.226 . S
O139 Cd130 2.356 . S
O139 C137 1.282 . S
C140 O141 1.306 . S
C140 O143 1.160 . S
O141 C140 1.306 . S
O141 Cd142 2.228 . S
Cd142 O141 2.228 . S
Cd142 O146 2.273 . S
Cd142 O150 2.277 . S
O143 C140 1.160 . S
O143 Cd144 2.203 . S
Cd144 O143 2.203 . S
Cd144 O146 2.411 . S
Cd144 O147 2.333 . S
Cd144 O148 2.352 . S
Cd144 O152 2.277 . S
Cd144 O153 2.356 . S
C145 O150 1.209 . S
C145 O152 1.226 . S
O146 Cd142 2.273 . S
O146 Cd144 2.411 . S
O146 C149 1.320 . S
O147 Cd144 2.333 . S
O147 C149 1.214 . S
O148 Cd144 2.352 . S
O148 C151 1.258 . S
C149 O146 1.320 . S
C149 O147 1.214 . S
O150 Cd142 2.277 . S
O150 C145 1.209 . S
C151 O148 1.258 . S
C151 O153 1.282 . S
O152 Cd144 2.277 . S
O152 C145 1.226 . S
O153 Cd144 2.356 . S
O153 C151 1.282 . S
C154 O155 1.306 . S
C154 O157 1.160 . S
O155 C154 1.306 . S
O155 Cd156 2.228 . S
Cd156 O155 2.228 . S
Cd156 O160 2.273 . S
Cd156 O164 2.277 . S
O157 C154 1.160 . S
O157 Cd158 2.203 . S
Cd158 O157 2.203 . S
Cd158 O160 2.411 . S
Cd158 O161 2.333 . S
Cd158 O162 2.352 . S
Cd158 O166 2.277 . S
Cd158 O167 2.356 . S
C159 O164 1.209 . S
C159 O166 1.226 . S
O160 Cd156 2.273 . S
O160 Cd158 2.411 . S
O160 C163 1.320 . S
O161 Cd158 2.333 . S
O161 C163 1.214 . S
O162 Cd158 2.352 . S
O162 C165 1.258 . S
C163 O160 1.320 . S
C163 O161 1.214 . S
O164 Cd156 2.277 . S
O164 C159 1.209 . S
C165 O162 1.258 . S
C165 O167 1.282 . S
O166 Cd158 2.277 . S
O166 C159 1.226 . S
O167 Cd158 2.356 . S
O167 C165 1.282 . S
C168 O169 1.306 . S
C168 O171 1.160 . S
O169 C168 1.306 . S
O169 Cd170 2.228 . S
Cd170 O169 2.228 . S
Cd170 O174 2.273 . S
Cd170 O178 2.277 . S
O171 C168 1.160 . S
O171 Cd172 2.203 . S
Cd172 O171 2.203 . S
Cd172 O174 2.411 . S
Cd172 O175 2.333 . S
Cd172 O176 2.352 . S
Cd172 O180 2.277 . S
Cd172 O181 2.356 . S
C173 O178 1.209 . S
C173 O180 1.226 . S
O174 Cd170 2.273 . S
O174 Cd172 2.411 . S
O174 C177 1.320 . S
O175 Cd172 2.333 . S
O175 C177 1.214 . S
O176 Cd172 2.352 . S
O176 C179 1.258 . S
C177 O174 1.320 . S
C177 O175 1.214 . S
O178 Cd170 2.277 . S
O178 C173 1.209 . S
C179 O176 1.258 . S
C179 O181 1.282 . S
O180 Cd172 2.277 . S
O180 C173 1.226 . S
O181 Cd172 2.356 . S
O181 C179 1.282 . S
C182 O183 1.306 . S
C182 O185 1.160 . S
O183 C182 1.306 . S
O183 Cd184 2.228 . S
Cd184 O183 2.228 . S
Cd184 O188 2.273 . S
Cd184 O192 2.277 . S
O185 C182 1.160 . S
O185 Cd186 2.203 . S
Cd186 O185 2.203 . S
Cd186 O188 2.411 . S
Cd186 O189 2.333 . S
Cd186 O190 2.352 . S
Cd186 O194 2.277 . S
Cd186 O195 2.356 . S
C187 O192 1.209 . S
C187 O194 1.226 . S
O188 Cd184 2.273 . S
O188 Cd186 2.411 . S
O188 C191 1.320 . S
O189 Cd186 2.333 . S
O189 C191 1.214 . S
O190 Cd186 2.352 . S
O190 C193 1.258 . S
C191 O188 1.320 . S
C191 O189 1.214 . S
O192 Cd184 2.277 . S
O192 C187 1.209 . S
C193 O190 1.258 . S
C193 O195 1.282 . S
O194 Cd186 2.277 . S
O194 C187 1.226 . S
O195 Cd186 2.356 . S
O195 C193 1.282 . S
C196 O197 1.306 . S
C196 O199 1.160 . S
O197 C196 1.306 . S
O197 Cd198 2.228 . S
Cd198 O197 2.228 . S
Cd198 O202 2.273 . S
Cd198 O206 2.277 . S
O199 C196 1.160 . S
O199 Cd200 2.203 . S
Cd200 O199 2.203 . S
Cd200 O202 2.411 . S
Cd200 O203 2.333 . S
Cd200 O204 2.352 . S
Cd200 O208 2.277 . S
Cd200 O209 2.356 . S
C201 O206 1.209 . S
C201 O208 1.226 . S
O202 Cd198 2.273 . S
O202 Cd200 2.411 . S
O202 C205 1.320 . S
O203 Cd200 2.333 . S
O203 C205 1.214 . S
O204 Cd200 2.352 . S
O204 C207 1.258 . S
C205 O202 1.320 . S
C205 O203 1.214 . S
O206 Cd198 2.277 . S
O206 C201 1.209 . S
C207 O204 1.258 . S
C207 O209 1.282 . S
O208 Cd200 2.277 . S
O208 C201 1.226 . S
O209 Cd200 2.356 . S
O209 C207 1.282 . S
C210 O211 1.306 . S
C210 O213 1.160 . S
O211 C210 1.306 . S
O211 Cd212 2.228 . S
Cd212 O211 2.228 . S
Cd212 O216 2.273 . S
Cd212 O220 2.277 . S
O213 C210 1.160 . S
O213 Cd214 2.203 . S
Cd214 O213 2.203 . S
Cd214 O216 2.411 . S
Cd214 O217 2.333 . S
Cd214 O218 2.352 . S
Cd214 O222 2.277 . S
Cd214 O223 2.356 . S
C215 O220 1.209 . S
C215 O222 1.226 . S
O216 Cd212 2.273 . S
O216 Cd214 2.411 . S
O216 C219 1.320 . S
O217 Cd214 2.333 . S
O217 C219 1.214 . S
O218 Cd214 2.352 . S
O218 C221 1.258 . S
C219 O216 1.320 . S
C219 O217 1.214 . S
O220 Cd212 2.277 . S
O220 C215 1.209 . S
C221 O218 1.258 . S
C221 O223 1.282 . S
O222 Cd214 2.277 . S
O222 C215 1.226 . S
O223 Cd214 2.356 . S
O223 C221 1.282 . S
C224 O225 1.306 . S
C224 O227 1.160 . S
O225 C224 1.306 . S
O225 Cd226 2.228 . S
Cd226 O225 2.228 . S
Cd226 O230 2.273 . S
Cd226 O234 2.277 . S
O227 C224 1.160 . S
O227 Cd228 2.203 . S
Cd228 O227 2.203 . S
Cd228 O230 2.411 . S
Cd228 O231 2.333 . S
Cd228 O232 2.352 . S
Cd228 O236 2.277 . S
Cd228 O237 2.356 . S
C229 O234 1.209 . S
C229 O236 1.226 . S
O230 Cd226 2.273 . S
O230 Cd228 2.411 . S
O230 C233 1.320 . S
O231 Cd228 2.333 . S
O231 C233 1.214 . S
O232 Cd228 2.352 . S
O232 C235 1.258 . S
C233 O230 1.320 . S
C233 O231 1.214 . S
O234 Cd226 2.277 . S
O234 C229 1.209 . S
C235 O232 1.258 . S
C235 O237 1.282 . S
O236 Cd228 2.277 . S
O236 C229 1.226 . S
O237 Cd228 2.356 . S
O237 C235 1.282 . S
C238 O239 1.306 . S
C238 O241 1.160 . S
O239 C238 1.306 . S
O239 Cd240 2.228 . S
Cd240 O239 2.228 . S
Cd240 O244 2.273 . S
Cd240 O248 2.277 . S
O241 C238 1.160 . S
O241 Cd242 2.203 . S
Cd242 O241 2.203 . S
Cd242 O244 2.411 . S
Cd242 O245 2.333 . S
Cd242 O246 2.352 . S
Cd242 O250 2.277 . S
Cd242 O251 2.356 . S
C243 O248 1.209 . S
C243 O250 1.226 . S
O244 Cd240 2.273 . S
O244 Cd242 2.411 . S
O244 C247 1.320 . S
O245 Cd242 2.333 . S
O245 C247 1.214 . S
O246 Cd242 2.352 . S
O246 C249 1.258 . S
C247 O244 1.320 . S
C247 O245 1.214 . S
O248 Cd240 2.277 . S
O248 C243 1.209 . S
C249 O246 1.258 . S
C249 O251 1.282 . S
O250 Cd242 2.277 . S
O250 C243 1.226 . S
O251 Cd242 2.356 . S
O251 C249 1.282 . S
C252 O253 1.306 . S
C252 O255 1.160 . S
O253 C252 1.306 . S
O253 Cd254 2.228 . S
Cd254 O253 2.228 . S
Cd254 O258 2.273 . S
Cd254 O262 2.277 . S
O255 C252 1.160 . S
O255 Cd256 2.203 . S
Cd256 O255 2.203 . S
Cd256 O258 2.411 . S
Cd256 O259 2.333 . S
Cd256 O260 2.352 . S
Cd256 O264 2.277 . S
Cd256 O265 2.356 . S
C257 O262 1.209 . S
C257 O264 1.226 . S
O258 Cd254 2.273 . S
O258 Cd256 2.411 . S
O258 C261 1.320 . S
O259 Cd256 2.333 . S
O259 C261 1.214 . S
O260 Cd256 2.352 . S
O260 C263 1.258 . S
C261 O258 1.320 . S
C261 O259 1.214 . S
O262 Cd254 2.277 . S
O262 C257 1.209 . S
C263 O260 1.258 . S
C263 O265 1.282 . S
O264 Cd256 2.277 . S
O264 C257 1.226 . S
O265 Cd256 2.356 . S
O265 C263 1.282 . S
C266 O267 1.306 . S
C266 O269 1.160 . S
O267 C266 1.306 . S
O267 Cd268 2.228 . S
Cd268 O267 2.228 . S
Cd268 O272 2.273 . S
Cd268 O276 2.277 . S
O269 C266 1.160 . S
O269 Cd270 2.203 . S
Cd270 O269 2.203 . S
Cd270 O272 2.411 . S
Cd270 O273 2.333 . S
Cd270 O274 2.352 . S
Cd270 O278 2.277 . S
Cd270 O279 2.356 . S
C271 O276 1.209 . S
C271 O278 1.226 . S
O272 Cd268 2.273 . S
O272 Cd270 2.411 . S
O272 C275 1.320 . S
O273 Cd270 2.333 . S
O273 C275 1.214 . S
O274 Cd270 2.352 . S
O274 C277 1.258 . S
C275 O272 1.320 . S
C275 O273 1.214 . S
O276 Cd268 2.277 . S
O276 C271 1.209 . S
C277 O274 1.258 . S
C277 O279 1.282 . S
O278 Cd270 2.277 . S
O278 C271 1.226 . S
O279 Cd270 2.356 . S
O279 C277 1.282 . S
C280 O281 1.306 . S
C280 O283 1.160 . S
O281 C280 1.306 . S
O281 Cd282 2.228 . S
Cd282 O281 2.228 . S
Cd282 O286 2.273 . S
Cd282 O290 2.277 . S
O283 C280 1.160 . S
O283 Cd284 2.203 . S
Cd284 O283 2.203 . S
Cd284 O286 2.411 . S
Cd284 O287 2.333 . S
Cd284 O288 2.352 . S
Cd284 O292 2.277 . S
Cd284 O293 2.356 . S
C285 O290 1.209 . S
C285 O292 1.226 . S
O286 Cd282 2.273 . S
O286 Cd284 2.411 . S
O286 C289 1.320 . S
O287 Cd284 2.333 . S
O287 C289 1.214 . S
O288 Cd284 2.352 . S
O288 C291 1.258 . S
C289 O286 1.320 . S
C289 O287 1.214 . S
O290 Cd282 2.277 . S
O290 C285 1.209 . S
C291 O288 1.258 . S
C291 O293 1.282 . S
O292 Cd284 2.277 . S
O292 C285 1.226 . S
O293 Cd284 2.356 . S
O293 C291 1.282 . S
C294 O295 1.306 . S
C294 O297 1.160 . S
O295 C294 1.306 . S
O295 Cd296 2.228 . S
Cd296 O295 2.228 . S
Cd296 O300 2.273 . S
Cd296 O304 2.277 . S
O297 C294 1.160 . S
O297 Cd298 2.203 . S
Cd298 O297 2.203 . S
Cd298 O300 2.411 . S
Cd298 O301 2.333 . S
Cd298 O302 2.352 . S
Cd298 O306 2.277 . S
Cd298 O307 2.356 . S
C299 O304 1.209 . S
C299 O306 1.226 . S
O300 Cd296 2.273 . S
O300 Cd298 2.411 . S
O300 C303 1.320 . S
O301 Cd298 2.333 . S
O301 C303 1.214 . S
O302 Cd298 2.352 . S
O302 C305 1.258 . S
C303 O300 1.320 . S
C303 O301 1.214 . S
O304 Cd296 2.277 . S
O304 C299 1.209 . S
C305 O302 1.258 . S
C305 O307 1.282 . S
O306 Cd298 2.277 . S
O306 C299 1.226 . S
O307 Cd298 2.356 . S
O307 C305 1.282 . S
C308 O309 1.306 . S
C308 O311 1.160 . S
O309 C308 1.306 . S
O309 Cd310 2.228 . S
Cd310 O309 2.228 . S
Cd310 O314 2.273 . S
Cd310 O318 2.277 . S
O311 C308 1.160 . S
O311 Cd312 2.203 . S
Cd312 O311 2.203 . S
Cd312 O314 2.411 . S
Cd312 O315 2.333 . S
Cd312 O316 2.352 . S
Cd312 O320 2.277 . S
Cd312 O321 2.356 . S
C313 O318 1.209 . S
C313 O320 1.226 . S
O314 Cd310 2.273 . S
O314 Cd312 2.411 . S
O314 C317 1.320 . S
O315 Cd312 2.333 . S
O315 C317 1.214 . S
O316 Cd312 2.352 . S
O316 C319 1.258 . S
C317 O314 1.320 . S
C317 O315 1.214 . S
O318 Cd310 2.277 . S
O318 C313 1.209 . S
C319 O316 1.258 . S
C319 O321 1.282 . S
O320 Cd312 2.277 . S
O320 C313 1.226 . S
O321 Cd312 2.356 . S
O321 C319 1.282 . S
C322 O323 1.306 . S
C322 O325 1.160 . S
O323 C322 1.306 . S
O323 Cd324 2.228 . S
Cd324 O323 2.228 . S
Cd324 O328 2.273 . S
Cd324 O332 2.277 . S
O325 C322 1.160 . S
O325 Cd326 2.203 . S
Cd326 O325 2.203 . S
Cd326 O328 2.411 . S
Cd326 O329 2.333 . S
Cd326 O330 2.352 . S
Cd326 O334 2.277 . S
Cd326 O335 2.356 . S
C327 O332 1.209 . S
C327 O334 1.226 . S
O328 Cd324 2.273 . S
O328 Cd326 2.411 . S
O328 C331 1.320 . S
O329 Cd326 2.333 . S
O329 C331 1.214 . S
O330 Cd326 2.352 . S
O330 C333 1.258 . S
C331 O328 1.320 . S
C331 O329 1.214 . S
O332 Cd324 2.277 . S
O332 C327 1.209 . S
C333 O330 1.258 . S
C333 O335 1.282 . S
O334 Cd326 2.277 . S
O334 C327 1.226 . S
O335 Cd326 2.356 . S
O335 C333 1.282 . S
C336 O337 1.306 . S
C336 O339 1.160 . S
O337 C336 1.306 . S
O337 Cd338 2.228 . S
Cd338 O337 2.228 . S
Cd338 O342 2.273 . S
Cd338 O346 2.277 . S
O339 C336 1.160 . S
O339 Cd340 2.203 . S
Cd340 O339 2.203 . S
Cd340 O342 2.411 . S
Cd340 O343 2.333 . S
Cd340 O344 2.352 . S
Cd340 O348 2.277 . S
Cd340 O349 2.356 . S
C341 O346 1.209 . S
C341 O348 1.226 . S
O342 Cd338 2.273 . S
O342 Cd340 2.411 . S
O342 C345 1.320 . S
O343 Cd340 2.333 . S
O343 C345 1.214 . S
O344 Cd340 2.352 . S
O344 C347 1.258 . S
C345 O342 1.320 . S
C345 O343 1.214 . S
O346 Cd338 2.277 . S
O346 C341 1.209 . S
C347 O344 1.258 . S
C347 O349 1.282 . S
O348 Cd340 2.277 . S
O348 C341 1.226 . S
O349 Cd340 2.356 . S
O349 C347 1.282 . S
C350 O351 1.306 . S
C350 O353 1.160 . S
O351 C350 1.306 . S
O351 Cd352 2.228 . S
Cd352 O351 2.228 . S
Cd352 O356 2.273 . S
Cd352 O360 2.277 . S
O353 C350 1.160 . S
O353 Cd354 2.203 . S
Cd354 O353 2.203 . S
Cd354 O356 2.411 . S
Cd354 O357 2.333 . S
Cd354 O358 2.352 . S
Cd354 O362 2.277 . S
Cd354 O363 2.356 . S
C355 O360 1.209 . S
C355 O362 1.226 . S
O356 Cd352 2.273 . S
O356 Cd354 2.411 . S
O356 C359 1.320 . S
O357 Cd354 2.333 . S
O357 C359 1.214 . S
O358 Cd354 2.352 . S
O358 C361 1.258 . S
C359 O356 1.320 . S
C359 O357 1.214 . S
O360 Cd352 2.277 . S
O360 C355 1.209 . S
C361 O358 1.258 . S
C361 O363 1.282 . S
O362 Cd354 2.277 . S
O362 C355 1.226 . S
O363 Cd354 2.356 . S
O363 C361 1.282 . S
C364 O365 1.306 . S
C364 O367 1.160 . S
O365 C364 1.306 . S
O365 Cd366 2.228 . S
Cd366 O365 2.228 . S
Cd366 O370 2.273 . S
Cd366 O374 2.277 . S
O367 C364 1.160 . S
O367 Cd368 2.203 . S
Cd368 O367 2.203 . S
Cd368 O370 2.411 . S
Cd368 O371 2.333 . S
Cd368 O372 2.352 . S
Cd368 O376 2.277 . S
Cd368 O377 2.356 . S
C369 O374 1.209 . S
C369 O376 1.226 . S
O370 Cd366 2.273 . S
O370 Cd368 2.411 . S
O370 C373 1.320 . S
O371 Cd368 2.333 . S
O371 C373 1.214 . S
O372 Cd368 2.352 . S
O372 C375 1.258 . S
C373 O370 1.320 . S
C373 O371 1.214 . S
O374 Cd366 2.277 . S
O374 C369 1.209 . S
C375 O372 1.258 . S
C375 O377 1.282 . S
O376 Cd368 2.277 . S
O376 C369 1.226 . S
O377 Cd368 2.356 . S
O377 C375 1.282 . S
C378 O379 1.306 . S
C378 O381 1.160 . S
O379 C378 1.306 . S
O379 Cd380 2.228 . S
Cd380 O379 2.228 . S
Cd380 O384 2.273 . S
Cd380 O388 2.277 . S
O381 C378 1.160 . S
O381 Cd382 2.203 . S
Cd382 O381 2.203 . S
Cd382 O384 2.411 . S
Cd382 O385 2.333 . S
Cd382 O386 2.352 . S
Cd382 O390 2.277 . S
Cd382 O391 2.356 . S
C383 O388 1.209 . S
C383 O390 1.226 . S
O384 Cd380 2.273 . S
O384 Cd382 2.411 . S
O384 C387 1.320 . S
O385 Cd382 2.333 . S
O385 C387 1.214 . S
O386 Cd382 2.352 . S
O386 C389 1.258 . S
C387 O384 1.320 . S
C387 O385 1.214 . S
O388 Cd380 2.277 . S
O388 C383 1.209 . S
C389 O386 1.258 . S
C389 O391 1.282 . S
O390 Cd382 2.277 . S
O390 C383 1.226 . S
O391 Cd382 2.356 . S
O391 C389 1.282 . S
C392 O393 1.306 . S
C392 O395 1.160 . S
O393 C392 1.306 . S
O393 Cd394 2.228 . S
Cd394 O393 2.228 . S
Cd394 O398 2.273 . S
Cd394 O402 2.277 . S
O395 C392 1.160 . S
O395 Cd396 2.203 . S
Cd396 O395 2.203 . S
Cd396 O398 2.411 . S
Cd396 O399 2.333 . S
Cd396 O400 2.352 . S
Cd396 O404 2.277 . S
Cd396 O405 2.356 . S
C397 O402 1.209 . S
C397 O404 1.226 . S
O398 Cd394 2.273 . S
O398 Cd396 2.411 . S
O398 C401 1.320 . S
O399 Cd396 2.333 . S
O399 C401 1.214 . S
O400 Cd396 2.352 . S
O400 C403 1.258 . S
C401 O398 1.320 . S
C401 O399 1.214 . S
O402 Cd394 2.277 . S
O402 C397 1.209 . S
C403 O400 1.258 . S
C403 O405 1.282 . S
O404 Cd396 2.277 . S
O404 C397 1.226 . S
O405 Cd396 2.356 . S
O405 C403 1.282 . S
C406 O407 1.306 . S
C406 O409 1.160 . S
O407 C406 1.306 . S
O407 Cd408 2.228 . S
Cd408 O407 2.228 . S
Cd408 O412 2.273 . S
Cd408 O416 2.277 . S
O409 C406 1.160 . S
O409 Cd410 2.203 . S
Cd410 O409 2.203 . S
Cd410 O412 2.411 . S
Cd410 O413 2.333 . S
Cd410 O414 2.352 . S
Cd410 O418 2.277 . S
Cd410 O419 2.356 . S
C411 O416 1.209 . S
C411 O418 1.226 . S
O412 Cd408 2.273 . S
O412 Cd410 2.411 . S
O412 C415 1.320 . S
O413 Cd410 2.333 . S
O413 C415 1.214 . S
O414 Cd410 2.352 . S
O414 C417 1.258 . S
C415 O412 1.320 . S
C415 O413 1.214 . S
O416 Cd408 2.277 . S
O416 C411 1.209 . S
C417 O414 1.258 . S
C417 O419 1.282 . S
O418 Cd410 2.277 . S
O418 C411 1.226 . S
O419 Cd410 2.356 . S
O419 C417 1.282 . S
C420 O421 1.306 . S
C420 O423 1.160 . S
O421 C420 1.306 . S
O421 Cd422 2.228 . S
Cd422 O421 2.228 . S
Cd422 O426 2.273 . S
Cd422 O430 2.277 . S
O423 C420 1.160 . S
O423 Cd424 2.203 . S
Cd424 O423 2.203 . S
Cd424 O426 2.411 . S
Cd424 O427 2.333 . S
Cd424 O428 2.352 . S
Cd424 O432 2.277 . S
Cd424 O433 2.356 . S
C425 O430 1.209 . S
C425 O432 1.226 . S
O426 Cd422 2.273 . S
O426 Cd424 2.411 . S
O426 C429 1.320 . S
O427 Cd424 2.333 . S
O427 C429 1.214 . S
O428 Cd424 2.352 . S
O428 C431 1.258 . S
C429 O426 1.320 . S
C429 O427 1.214 . S
O430 Cd422 2.277 . S
O430 C425 1.209 . S
C431 O428 1.258 . S
C431 O433 1.282 . S
O432 Cd424 2.277 . S
O432 C425 1.226 . S
O433 Cd424 2.356 . S
O433 C431 1.282 . S
C434 O435 1.306 . S
C434 O437 1.160 . S
O435 C434 1.306 . S
O435 Cd436 2.228 . S
Cd436 O435 2.228 . S
Cd436 O440 2.273 . S
Cd436 O444 2.277 . S
O437 C434 1.160 . S
O437 Cd438 2.203 . S
Cd438 O437 2.203 . S
Cd438 O440 2.411 . S
Cd438 O441 2.333 . S
Cd438 O442 2.352 . S
Cd438 O446 2.277 . S
Cd438 O447 2.356 . S
C439 O444 1.209 . S
C439 O446 1.226 . S
O440 Cd436 2.273 . S
O440 Cd438 2.411 . S
O440 C443 1.320 . S
O441 Cd438 2.333 . S
O441 C443 1.214 . S
O442 Cd438 2.352 . S
O442 C445 1.258 . S
C443 O440 1.320 . S
C443 O441 1.214 . S
O444 Cd436 2.277 . S
O444 C439 1.209 . S
C445 O442 1.258 . S
C445 O447 1.282 . S
O446 Cd438 2.277 . S
O446 C439 1.226 . S
O447 Cd438 2.356 . S
O447 C445 1.282 . S
H448 C456 0.950 . S
H449 C461 0.950 . S
H450 C458 0.950 . S
H451 C460 0.950 . S
H452 C462 0.950 . S
H453 C464 0.950 . S
H454 C466 0.950 . S
H455 C467 0.950 . S
C456 H448 0.950 . S
C456 C457 1.386 . S
C456 C458 1.391 . S
C457 C456 1.386 . S
C457 C461 1.393 . S
C458 H450 0.950 . S
C458 C456 1.391 . S
C458 C459 1.400 . S
C459 C458 1.400 . S
C459 C460 1.398 . S
C459 C465 1.491 . S
C460 H451 0.950 . S
C460 C459 1.398 . S
C460 C461 1.391 . S
C461 H449 0.950 . S
C461 C457 1.393 . S
C461 C460 1.391 . S
C462 H452 0.950 . S
C462 C463 1.386 . S
C462 C464 1.391 . S
C463 C462 1.386 . S
C463 C467 1.393 . S
C464 H453 0.950 . S
C464 C462 1.391 . S
C464 C465 1.400 . S
C465 C459 1.491 . S
C465 C464 1.400 . S
C465 C466 1.398 . S
C466 H454 0.950 . S
C466 C465 1.398 . S
C466 C467 1.391 . S
C467 H455 0.950 . S
C467 C463 1.393 . S
C467 C466 1.391 . S
H468 C476 0.950 . S
H469 C481 0.950 . S
H470 C478 0.950 . S
H471 C480 0.950 . S
H472 C482 0.950 . S
H473 C484 0.950 . S
H474 C486 0.950 . S
H475 C487 0.950 . S
C476 H468 0.950 . S
C476 C477 1.386 . S
C476 C478 1.391 . S
C477 C476 1.386 . S
C477 C481 1.393 . S
C478 H470 0.950 . S
C478 C476 1.391 . S
C478 C479 1.400 . S
C479 C478 1.400 . S
C479 C480 1.398 . S
C479 C485 1.491 . S
C480 H471 0.950 . S
C480 C479 1.398 . S
C480 C481 1.391 . S
C481 H469 0.950 . S
C481 C477 1.393 . S
C481 C480 1.391 . S
C482 H472 0.950 . S
C482 C483 1.386 . S
C482 C484 1.391 . S
C483 C482 1.386 . S
C483 C487 1.393 . S
C484 H473 0.950 . S
C484 C482 1.391 . S
C484 C485 1.400 . S
C485 C479 1.491 . S
C485 C484 1.400 . S
C485 C486 1.398 . S
C486 H474 0.950 . S
C486 C485 1.398 . S
C486 C487 1.391 . S
C487 H475 0.950 . S
C487 C483 1.393 . S
C487 C486 1.391 . S
H488 C496 0.950 . S
H489 C501 0.950 . S
H490 C498 0.950 . S
H491 C500 0.950 . S
H492 C502 0.950 . S
H493 C504 0.950 . S
H494 C506 0.950 . S
H495 C507 0.950 . S
C496 H488 0.950 . S
C496 C497 1.386 . S
C496 C498 1.391 . S
C497 C496 1.386 . S
C497 C501 1.393 . S
C498 H490 0.950 . S
C498 C496 1.391 . S
C498 C499 1.400 . S
C499 C498 1.400 . S
C499 C500 1.398 . S
C499 C505 1.491 . S
C500 H491 0.950 . S
C500 C499 1.398 . S
C500 C501 1.391 . S
C501 H489 0.950 . S
C501 C497 1.393 . S
C501 C500 1.391 . S
C502 H492 0.950 . S
C502 C503 1.386 . S
C502 C504 1.391 . S
C503 C502 1.386 . S
C503 C507 1.393 . S
C504 H493 0.950 . S
C504 C502 1.391 . S
C504 C505 1.400 . S
C505 C499 1.491 . S
C505 C504 1.400 . S
C505 C506 1.398 . S
C506 H494 0.950 . S
C506 C505 1.398 . S
C506 C507 1.391 . S
C507 H495 0.950 . S
C507 C503 1.393 . S
C507 C506 1.391 . S
H508 C516 0.950 . S
H509 C521 0.950 . S
H510 C518 0.950 . S
H511 C520 0.950 . S
H512 C522 0.950 . S
H513 C524 0.950 . S
H514 C526 0.950 . S
H515 C527 0.950 . S
C516 H508 0.950 . S
C516 C517 1.386 . S
C516 C518 1.391 . S
C517 C516 1.386 . S
C517 C521 1.393 . S
C518 H510 0.950 . S
C518 C516 1.391 . S
C518 C519 1.400 . S
C519 C518 1.400 . S
C519 C520 1.398 . S
C519 C525 1.491 . S
C520 H511 0.950 . S
C520 C519 1.398 . S
C520 C521 1.391 . S
C521 H509 0.950 . S
C521 C517 1.393 . S
C521 C520 1.391 . S
C522 H512 0.950 . S
C522 C523 1.386 . S
C522 C524 1.391 . S
C523 C522 1.386 . S
C523 C527 1.393 . S
C524 H513 0.950 . S
C524 C522 1.391 . S
C524 C525 1.400 . S
C525 C519 1.491 . S
C525 C524 1.400 . S
C525 C526 1.398 . S
C526 H514 0.950 . S
C526 C525 1.398 . S
C526 C527 1.391 . S
C527 H515 0.950 . S
C527 C523 1.393 . S
C527 C526 1.391 . S
H528 C536 0.950 . S
H529 C541 0.950 . S
H530 C538 0.950 . S
H531 C540 0.950 . S
H532 C542 0.950 . S
H533 C544 0.950 . S
H534 C546 0.950 . S
H535 C547 0.950 . S
C536 H528 0.950 . S
C536 C537 1.386 . S
C536 C538 1.391 . S
C537 C536 1.386 . S
C537 C541 1.393 . S
C538 H530 0.950 . S
C538 C536 1.391 . S
C538 C539 1.400 . S
C539 C538 1.400 . S
C539 C540 1.398 . S
C539 C545 1.491 . S
C540 H531 0.950 . S
C540 C539 1.398 . S
C540 C541 1.391 . S
C541 H529 0.950 . S
C541 C537 1.393 . S
C541 C540 1.391 . S
C542 H532 0.950 . S
C542 C543 1.386 . S
C542 C544 1.391 . S
C543 C542 1.386 . S
C543 C547 1.393 . S
C544 H533 0.950 . S
C544 C542 1.391 . S
C544 C545 1.400 . S
C545 C539 1.491 . S
C545 C544 1.400 . S
C545 C546 1.398 . S
C546 H534 0.950 . S
C546 C545 1.398 . S
C546 C547 1.391 . S
C547 H535 0.950 . S
C547 C543 1.393 . S
C547 C546 1.391 . S
H548 C556 0.950 . S
H549 C561 0.950 . S
H550 C558 0.950 . S
H551 C560 0.950 . S
H552 C562 0.950 . S
H553 C564 0.950 . S
H554 C566 0.950 . S
H555 C567 0.950 . S
C556 H548 0.950 . S
C556 C557 1.386 . S
C556 C558 1.391 . S
C557 C556 1.386 . S
C557 C561 1.393 . S
C558 H550 0.950 . S
C558 C556 1.391 . S
C558 C559 1.400 . S
C559 C558 1.400 . S
C559 C560 1.398 . S
C559 C565 1.491 . S
C560 H551 0.950 . S
C560 C559 1.398 . S
C560 C561 1.391 . S
C561 H549 0.950 . S
C561 C557 1.393 . S
C561 C560 1.391 . S
C562 H552 0.950 . S
C562 C563 1.386 . S
C562 C564 1.391 . S
C563 C562 1.386 . S
C563 C567 1.393 . S
C564 H553 0.950 . S
C564 C562 1.391 . S
C564 C565 1.400 . S
C565 C559 1.491 . S
C565 C564 1.400 . S
C565 C566 1.398 . S
C566 H554 0.950 . S
C566 C565 1.398 . S
C566 C567 1.391 . S
C567 H555 0.950 . S
C567 C563 1.393 . S
C567 C566 1.391 . S
H568 C576 0.950 . S
H569 C581 0.950 . S
H570 C578 0.950 . S
H571 C580 0.950 . S
H572 C582 0.950 . S
H573 C584 0.950 . S
H574 C586 0.950 . S
H575 C587 0.950 . S
C576 H568 0.950 . S
C576 C577 1.386 . S
C576 C578 1.391 . S
C577 C576 1.386 . S
C577 C581 1.393 . S
C578 H570 0.950 . S
C578 C576 1.391 . S
C578 C579 1.400 . S
C579 C578 1.400 . S
C579 C580 1.398 . S
C579 C585 1.491 . S
C580 H571 0.950 . S
C580 C579 1.398 . S
C580 C581 1.391 . S
C581 H569 0.950 . S
C581 C577 1.393 . S
C581 C580 1.391 . S
C582 H572 0.950 . S
C582 C583 1.386 . S
C582 C584 1.391 . S
C583 C582 1.386 . S
C583 C587 1.393 . S
C584 H573 0.950 . S
C584 C582 1.391 . S
C584 C585 1.400 . S
C585 C579 1.491 . S
C585 C584 1.400 . S
C585 C586 1.398 . S
C586 H574 0.950 . S
C586 C585 1.398 . S
C586 C587 1.391 . S
C587 H575 0.950 . S
C587 C583 1.393 . S
C587 C586 1.391 . S
H588 C596 0.950 . S
H589 C601 0.950 . S
H590 C598 0.950 . S
H591 C600 0.950 . S
H592 C602 0.950 . S
H593 C604 0.950 . S
H594 C606 0.950 . S
H595 C607 0.950 . S
C596 H588 0.950 . S
C596 C597 1.386 . S
C596 C598 1.391 . S
C597 C596 1.386 . S
C597 C601 1.393 . S
C598 H590 0.950 . S
C598 C596 1.391 . S
C598 C599 1.400 . S
C599 C598 1.400 . S
C599 C600 1.398 . S
C599 C605 1.491 . S
C600 H591 0.950 . S
C600 C599 1.398 . S
C600 C601 1.391 . S
C601 H589 0.950 . S
C601 C597 1.393 . S
C601 C600 1.391 . S
C602 H592 0.950 . S
C602 C603 1.386 . S
C602 C604 1.391 . S
C603 C602 1.386 . S
C603 C607 1.393 . S
C604 H593 0.950 . S
C604 C602 1.391 . S
C604 C605 1.400 . S
C605 C599 1.491 . S
C605 C604 1.400 . S
C605 C606 1.398 . S
C606 H594 0.950 . S
C606 C605 1.398 . S
C606 C607 1.391 . S
C607 H595 0.950 . S
C607 C603 1.393 . S
C607 C606 1.391 . S
H608 C616 0.950 . S
H609 C621 0.950 . S
H610 C618 0.950 . S
H611 C620 0.950 . S
H612 C622 0.950 . S
H613 C624 0.950 . S
H614 C626 0.950 . S
H615 C627 0.950 . S
C616 H608 0.950 . S
C616 C617 1.386 . S
C616 C618 1.391 . S
C617 C616 1.386 . S
C617 C621 1.393 . S
C618 H610 0.950 . S
C618 C616 1.391 . S
C618 C619 1.400 . S
C619 C618 1.400 . S
C619 C620 1.398 . S
C619 C625 1.491 . S
C620 H611 0.950 . S
C620 C619 1.398 . S
C620 C621 1.391 . S
C621 H609 0.950 . S
C621 C617 1.393 . S
C621 C620 1.391 . S
C622 H612 0.950 . S
C622 C623 1.386 . S
C622 C624 1.391 . S
C623 C622 1.386 . S
C623 C627 1.393 . S
C624 H613 0.950 . S
C624 C622 1.391 . S
C624 C625 1.400 . S
C625 C619 1.491 . S
C625 C624 1.400 . S
C625 C626 1.398 . S
C626 H614 0.950 . S
C626 C625 1.398 . S
C626 C627 1.391 . S
C627 H615 0.950 . S
C627 C623 1.393 . S
C627 C626 1.391 . S
H628 C636 0.950 . S
H629 C641 0.950 . S
H630 C638 0.950 . S
H631 C640 0.950 . S
H632 C642 0.950 . S
H633 C644 0.950 . S
H634 C646 0.950 . S
H635 C647 0.950 . S
C636 H628 0.950 . S
C636 C637 1.386 . S
C636 C638 1.391 . S
C637 C636 1.386 . S
C637 C641 1.393 . S
C638 H630 0.950 . S
C638 C636 1.391 . S
C638 C639 1.400 . S
C639 C638 1.400 . S
C639 C640 1.398 . S
C639 C645 1.491 . S
C640 H631 0.950 . S
C640 C639 1.398 . S
C640 C641 1.391 . S
C641 H629 0.950 . S
C641 C637 1.393 . S
C641 C640 1.391 . S
C642 H632 0.950 . S
C642 C643 1.386 . S
C642 C644 1.391 . S
C643 C642 1.386 . S
C643 C647 1.393 . S
C644 H633 0.950 . S
C644 C642 1.391 . S
C644 C645 1.400 . S
C645 C639 1.491 . S
C645 C644 1.400 . S
C645 C646 1.398 . S
C646 H634 0.950 . S
C646 C645 1.398 . S
C646 C647 1.391 . S
C647 H635 0.950 . S
C647 C643 1.393 . S
C647 C646 1.391 . S
H648 C656 0.950 . S
H649 C661 0.950 . S
H650 C658 0.950 . S
H651 C660 0.950 . S
H652 C662 0.950 . S
H653 C664 0.950 . S
H654 C666 0.950 . S
H655 C667 0.950 . S
C656 H648 0.950 . S
C656 C657 1.386 . S
C656 C658 1.391 . S
C657 C656 1.386 . S
C657 C661 1.393 . S
C658 H650 0.950 . S
C658 C656 1.391 . S
C658 C659 1.400 . S
C659 C658 1.400 . S
C659 C660 1.398 . S
C659 C665 1.491 . S
C660 H651 0.950 . S
C660 C659 1.398 . S
C660 C661 1.391 . S
C661 H649 0.950 . S
C661 C657 1.393 . S
C661 C660 1.391 . S
C662 H652 0.950 . S
C662 C663 1.386 . S
C662 C664 1.391 . S
C663 C662 1.386 . S
C663 C667 1.393 . S
C664 H653 0.950 . S
C664 C662 1.391 . S
C664 C665 1.400 . S
C665 C659 1.491 . S
C665 C664 1.400 . S
C665 C666 1.398 . S
C666 H654 0.950 . S
C666 C665 1.398 . S
C666 C667 1.391 . S
C667 H655 0.950 . S
C667 C663 1.393 . S
C667 C666 1.391 . S
H668 C676 0.950 . S
H669 C681 0.950 . S
H670 C678 0.950 . S
H671 C680 0.950 . S
H672 C682 0.950 . S
H673 C684 0.950 . S
H674 C686 0.950 . S
H675 C687 0.950 . S
C676 H668 0.950 . S
C676 C677 1.386 . S
C676 C678 1.391 . S
C677 C676 1.386 . S
C677 C681 1.393 . S
C678 H670 0.950 . S
C678 C676 1.391 . S
C678 C679 1.400 . S
C679 C678 1.400 . S
C679 C680 1.398 . S
C679 C685 1.491 . S
C680 H671 0.950 . S
C680 C679 1.398 . S
C680 C681 1.391 . S
C681 H669 0.950 . S
C681 C677 1.393 . S
C681 C680 1.391 . S
C682 H672 0.950 . S
C682 C683 1.386 . S
C682 C684 1.391 . S
C683 C682 1.386 . S
C683 C687 1.393 . S
C684 H673 0.950 . S
C684 C682 1.391 . S
C684 C685 1.400 . S
C685 C679 1.491 . S
C685 C684 1.400 . S
C685 C686 1.398 . S
C686 H674 0.950 . S
C686 C685 1.398 . S
C686 C687 1.391 . S
C687 H675 0.950 . S
C687 C683 1.393 . S
C687 C686 1.391 . S
H688 C696 0.950 . S
H689 C701 0.950 . S
H690 C698 0.950 . S
H691 C700 0.950 . S
H692 C702 0.950 . S
H693 C704 0.950 . S
H694 C706 0.950 . S
H695 C707 0.950 . S
C696 H688 0.950 . S
C696 C697 1.386 . S
C696 C698 1.391 . S
C697 C696 1.386 . S
C697 C701 1.393 . S
C698 H690 0.950 . S
C698 C696 1.391 . S
C698 C699 1.400 . S
C699 C698 1.400 . S
C699 C700 1.398 . S
C699 C705 1.491 . S
C700 H691 0.950 . S
C700 C699 1.398 . S
C700 C701 1.391 . S
C701 H689 0.950 . S
C701 C697 1.393 . S
C701 C700 1.391 . S
C702 H692 0.950 . S
C702 C703 1.386 . S
C702 C704 1.391 . S
C703 C702 1.386 . S
C703 C707 1.393 . S
C704 H693 0.950 . S
C704 C702 1.391 . S
C704 C705 1.400 . S
C705 C699 1.491 . S
C705 C704 1.400 . S
C705 C706 1.398 . S
C706 H694 0.950 . S
C706 C705 1.398 . S
C706 C707 1.391 . S
C707 H695 0.950 . S
C707 C703 1.393 . S
C707 C706 1.391 . S
H708 C716 0.950 . S
H709 C721 0.950 . S
H710 C718 0.950 . S
H711 C720 0.950 . S
H712 C722 0.950 . S
H713 C724 0.950 . S
H714 C726 0.950 . S
H715 C727 0.950 . S
C716 H708 0.950 . S
C716 C717 1.386 . S
C716 C718 1.391 . S
C717 C716 1.386 . S
C717 C721 1.393 . S
C718 H710 0.950 . S
C718 C716 1.391 . S
C718 C719 1.400 . S
C719 C718 1.400 . S
C719 C720 1.398 . S
C719 C725 1.491 . S
C720 H711 0.950 . S
C720 C719 1.398 . S
C720 C721 1.391 . S
C721 H709 0.950 . S
C721 C717 1.393 . S
C721 C720 1.391 . S
C722 H712 0.950 . S
C722 C723 1.386 . S
C722 C724 1.391 . S
C723 C722 1.386 . S
C723 C727 1.393 . S
C724 H713 0.950 . S
C724 C722 1.391 . S
C724 C725 1.400 . S
C725 C719 1.491 . S
C725 C724 1.400 . S
C725 C726 1.398 . S
C726 H714 0.950 . S
C726 C725 1.398 . S
C726 C727 1.391 . S
C727 H715 0.950 . S
C727 C723 1.393 . S
C727 C726 1.391 . S
H728 C736 0.950 . S
H729 C741 0.950 . S
H730 C738 0.950 . S
H731 C740 0.950 . S
H732 C742 0.950 . S
H733 C744 0.950 . S
H734 C746 0.950 . S
H735 C747 0.950 . S
C736 H728 0.950 . S
C736 C737 1.386 . S
C736 C738 1.391 . S
C737 C736 1.386 . S
C737 C741 1.393 . S
C738 H730 0.950 . S
C738 C736 1.391 . S
C738 C739 1.400 . S
C739 C738 1.400 . S
C739 C740 1.398 . S
C739 C745 1.491 . S
C740 H731 0.950 . S
C740 C739 1.398 . S
C740 C741 1.391 . S
C741 H729 0.950 . S
C741 C737 1.393 . S
C741 C740 1.391 . S
C742 H732 0.950 . S
C742 C743 1.386 . S
C742 C744 1.391 . S
C743 C742 1.386 . S
C743 C747 1.393 . S
C744 H733 0.950 . S
C744 C742 1.391 . S
C744 C745 1.400 . S
C745 C739 1.491 . S
C745 C744 1.400 . S
C745 C746 1.398 . S
C746 H734 0.950 . S
C746 C745 1.398 . S
C746 C747 1.391 . S
C747 H735 0.950 . S
C747 C743 1.393 . S
C747 C746 1.391 . S
H748 C756 0.950 . S
H749 C761 0.950 . S
H750 C758 0.950 . S
H751 C760 0.950 . S
H752 C762 0.950 . S
H753 C764 0.950 . S
H754 C766 0.950 . S
H755 C767 0.950 . S
C756 H748 0.950 . S
C756 C757 1.386 . S
C756 C758 1.391 . S
C757 C756 1.386 . S
C757 C761 1.393 . S
C758 H750 0.950 . S
C758 C756 1.391 . S
C758 C759 1.400 . S
C759 C758 1.400 . S
C759 C760 1.398 . S
C759 C765 1.491 . S
C760 H751 0.950 . S
C760 C759 1.398 . S
C760 C761 1.391 . S
C761 H749 0.950 . S
C761 C757 1.393 . S
C761 C760 1.391 . S
C762 H752 0.950 . S
C762 C763 1.386 . S
C762 C764 1.391 . S
C763 C762 1.386 . S
C763 C767 1.393 . S
C764 H753 0.950 . S
C764 C762 1.391 . S
C764 C765 1.400 . S
C765 C759 1.491 . S
C765 C764 1.400 . S
C765 C766 1.398 . S
C766 H754 0.950 . S
C766 C765 1.398 . S
C766 C767 1.391 . S
C767 H755 0.950 . S
C767 C763 1.393 . S
C767 C766 1.391 . S
H768 C776 0.950 . S
H769 C781 0.950 . S
H770 C778 0.950 . S
H771 C780 0.950 . S
H772 C782 0.950 . S
H773 C784 0.950 . S
H774 C786 0.950 . S
H775 C787 0.950 . S
C776 H768 0.950 . S
C776 C777 1.386 . S
C776 C778 1.391 . S
C777 C776 1.386 . S
C777 C781 1.393 . S
C778 H770 0.950 . S
C778 C776 1.391 . S
C778 C779 1.400 . S
C779 C778 1.400 . S
C779 C780 1.398 . S
C779 C785 1.491 1_655 S
C780 H771 0.950 . S
C780 C779 1.398 . S
C780 C781 1.391 . S
C781 H769 0.950 . S
C781 C777 1.393 . S
C781 C780 1.391 . S
C782 H772 0.950 . S
C782 C783 1.386 . S
C782 C784 1.391 . S
C783 C782 1.386 . S
C783 C787 1.393 . S
C784 H773 0.950 . S
C784 C782 1.391 . S
C784 C785 1.400 . S
C785 C779 1.491 1_455 S
C785 C784 1.400 . S
C785 C786 1.398 . S
C786 H774 0.950 . S
C786 C785 1.398 . S
C786 C787 1.391 . S
C787 H775 0.950 . S
C787 C783 1.393 . S
C787 C786 1.391 . S
H788 C796 0.950 . S
H789 C801 0.950 . S
H790 C798 0.950 . S
H791 C800 0.950 . S
H792 C802 0.950 . S
H793 C804 0.950 . S
H794 C806 0.950 . S
H795 C807 0.950 . S
C796 H788 0.950 . S
C796 C797 1.386 . S
C796 C798 1.391 . S
C797 C796 1.386 . S
C797 C801 1.393 . S
C798 H790 0.950 . S
C798 C796 1.391 . S
C798 C799 1.400 . S
C799 C798 1.400 . S
C799 C800 1.398 . S
C799 C805 1.491 1_545 S
C800 H791 0.950 . S
C800 C799 1.398 . S
C800 C801 1.391 . S
C801 H789 0.950 . S
C801 C797 1.393 . S
C801 C800 1.391 . S
C802 H792 0.950 . S
C802 C803 1.386 . S
C802 C804 1.391 . S
C803 C802 1.386 . S
C803 C807 1.393 . S
C804 H793 0.950 . S
C804 C802 1.391 . S
C804 C805 1.400 . S
C805 C799 1.491 1_565 S
C805 C804 1.400 . S
C805 C806 1.398 . S
C806 H794 0.950 . S
C806 C805 1.398 . S
C806 C807 1.391 . S
C807 H795 0.950 . S
C807 C803 1.393 . S
C807 C806 1.391 . S
H808 C816 0.950 . S
H809 C821 0.950 . S
H810 C818 0.950 . S
H811 C820 0.950 . S
H812 C822 0.950 . S
H813 C824 0.950 . S
H814 C826 0.950 . S
H815 C827 0.950 . S
C816 H808 0.950 . S
C816 C817 1.386 . S
C816 C818 1.391 . S
C817 C816 1.386 . S
C817 C821 1.393 . S
C818 H810 0.950 . S
C818 C816 1.391 . S
C818 C819 1.400 . S
C819 C818 1.400 . S
C819 C820 1.398 . S
C819 C825 1.491 1_455 S
C820 H811 0.950 . S
C820 C819 1.398 . S
C820 C821 1.391 . S
C821 H809 0.950 . S
C821 C817 1.393 . S
C821 C820 1.391 . S
C822 H812 0.950 . S
C822 C823 1.386 . S
C822 C824 1.391 . S
C823 C822 1.386 . S
C823 C827 1.393 . S
C824 H813 0.950 . S
C824 C822 1.391 . S
C824 C825 1.400 . S
C825 C819 1.491 1_655 S
C825 C824 1.400 . S
C825 C826 1.398 . S
C826 H814 0.950 . S
C826 C825 1.398 . S
C826 C827 1.391 . S
C827 H815 0.950 . S
C827 C823 1.393 . S
C827 C826 1.391 . S
H828 C836 0.950 . S
H829 C841 0.950 . S
H830 C838 0.950 . S
H831 C840 0.950 . S
H832 C842 0.950 . S
H833 C844 0.950 . S
H834 C846 0.950 . S
H835 C847 0.950 . S
C836 H828 0.950 . S
C836 C837 1.386 . S
C836 C838 1.391 . S
C837 C836 1.386 . S
C837 C841 1.393 . S
C838 H830 0.950 . S
C838 C836 1.391 . S
C838 C839 1.400 . S
C839 C838 1.400 . S
C839 C840 1.398 . S
C839 C845 1.491 1_565 S
C840 H831 0.950 . S
C840 C839 1.398 . S
C840 C841 1.391 . S
C841 H829 0.950 . S
C841 C837 1.393 . S
C841 C840 1.391 . S
C842 H832 0.950 . S
C842 C843 1.386 . S
C842 C844 1.391 . S
C843 C842 1.386 . S
C843 C847 1.393 . S
C844 H833 0.950 . S
C844 C842 1.391 . S
C844 C845 1.400 . S
C845 C839 1.491 1_545 S
C845 C844 1.400 . S
C845 C846 1.398 . S
C846 H834 0.950 . S
C846 C845 1.398 . S
C846 C847 1.391 . S
C847 H835 0.950 . S
C847 C843 1.393 . S
C847 C846 1.391 . S
H848 C856 0.950 . S
H849 C861 0.950 . S
H850 C858 0.950 . S
H851 C860 0.950 . S
H852 C862 0.950 . S
H853 C864 0.950 . S
H854 C866 0.950 . S
H855 C867 0.950 . S
C856 H848 0.950 . S
C856 C857 1.386 . S
C856 C858 1.391 . S
C857 C856 1.386 . S
C857 C861 1.393 . S
C858 H850 0.950 . S
C858 C856 1.391 . S
C858 C859 1.400 . S
C859 C858 1.400 . S
C859 C860 1.398 . S
C859 C865 1.491 1_455 S
C860 H851 0.950 . S
C860 C859 1.398 . S
C860 C861 1.391 . S
C861 H849 0.950 . S
C861 C857 1.393 . S
C861 C860 1.391 . S
C862 H852 0.950 . S
C862 C863 1.386 . S
C862 C864 1.391 . S
C863 C862 1.386 . S
C863 C867 1.393 . S
C864 H853 0.950 . S
C864 C862 1.391 . S
C864 C865 1.400 . S
C865 C859 1.491 1_655 S
C865 C864 1.400 . S
C865 C866 1.398 . S
C866 H854 0.950 . S
C866 C865 1.398 . S
C866 C867 1.391 . S
C867 H855 0.950 . S
C867 C863 1.393 . S
C867 C866 1.391 . S
H868 C876 0.950 . S
H869 C881 0.950 . S
H870 C878 0.950 . S
H871 C880 0.950 . S
H872 C882 0.950 . S
H873 C884 0.950 . S
H874 C886 0.950 . S
H875 C887 0.950 . S
C876 H868 0.950 . S
C876 C877 1.386 . S
C876 C878 1.391 . S
C877 C876 1.386 . S
C877 C881 1.393 . S
C878 H870 0.950 . S
C878 C876 1.391 . S
C878 C879 1.400 . S
C879 C878 1.400 . S
C879 C880 1.398 . S
C879 C885 1.491 1_565 S
C880 H871 0.950 . S
C880 C879 1.398 . S
C880 C881 1.391 . S
C881 H869 0.950 . S
C881 C877 1.393 . S
C881 C880 1.391 . S
C882 H872 0.950 . S
C882 C883 1.386 . S
C882 C884 1.391 . S
C883 C882 1.386 . S
C883 C887 1.393 . S
C884 H873 0.950 . S
C884 C882 1.391 . S
C884 C885 1.400 . S
C885 C879 1.491 1_545 S
C885 C884 1.400 . S
C885 C886 1.398 . S
C886 H874 0.950 . S
C886 C885 1.398 . S
C886 C887 1.391 . S
C887 H875 0.950 . S
C887 C883 1.393 . S
C887 C886 1.391 . S
H888 C896 0.950 . S
H889 C901 0.950 . S
H890 C898 0.950 . S
H891 C900 0.950 . S
H892 C902 0.950 . S
H893 C904 0.950 . S
H894 C906 0.950 . S
H895 C907 0.950 . S
C896 H888 0.950 . S
C896 C897 1.386 . S
C896 C898 1.391 . S
C897 C896 1.386 . S
C897 C901 1.393 . S
C898 H890 0.950 . S
C898 C896 1.391 . S
C898 C899 1.400 . S
C899 C898 1.400 . S
C899 C900 1.398 . S
C899 C905 1.491 1_455 S
C900 H891 0.950 . S
C900 C899 1.398 . S
C900 C901 1.391 . S
C901 H889 0.950 . S
C901 C897 1.393 . S
C901 C900 1.391 . S
C902 H892 0.950 . S
C902 C903 1.386 . S
C902 C904 1.391 . S
C903 C902 1.386 . S
C903 C907 1.393 . S
C904 H893 0.950 . S
C904 C902 1.391 . S
C904 C905 1.400 . S
C905 C899 1.491 1_655 S
C905 C904 1.400 . S
C905 C906 1.398 . S
C906 H894 0.950 . S
C906 C905 1.398 . S
C906 C907 1.391 . S
C907 H895 0.950 . S
C907 C903 1.393 . S
C907 C906 1.391 . S
H908 C916 0.950 . S
H909 C921 0.950 . S
H910 C918 0.950 . S
H911 C920 0.950 . S
H912 C922 0.950 . S
H913 C924 0.950 . S
H914 C926 0.950 . S
H915 C927 0.950 . S
C916 H908 0.950 . S
C916 C917 1.386 . S
C916 C918 1.391 . S
C917 C916 1.386 . S
C917 C921 1.393 . S
C918 H910 0.950 . S
C918 C916 1.391 . S
C918 C919 1.400 . S
C919 C918 1.400 . S
C919 C920 1.398 . S
C919 C925 1.491 1_545 S
C920 H911 0.950 . S
C920 C919 1.398 . S
C920 C921 1.391 . S
C921 H909 0.950 . S
C921 C917 1.393 . S
C921 C920 1.391 . S
C922 H912 0.950 . S
C922 C923 1.386 . S
C922 C924 1.391 . S
C923 C922 1.386 . S
C923 C927 1.393 . S
C924 H913 0.950 . S
C924 C922 1.391 . S
C924 C925 1.400 . S
C925 C919 1.491 1_565 S
C925 C924 1.400 . S
C925 C926 1.398 . S
C926 H914 0.950 . S
C926 C925 1.398 . S
C926 C927 1.391 . S
C927 H915 0.950 . S
C927 C923 1.393 . S
C927 C926 1.391 . S
H928 C936 0.950 . S
H929 C941 0.950 . S
H930 C938 0.950 . S
H931 C940 0.950 . S
H932 C942 0.950 . S
H933 C944 0.950 . S
H934 C946 0.950 . S
H935 C947 0.950 . S
C936 H928 0.950 . S
C936 C937 1.386 . S
C936 C938 1.391 . S
C937 C936 1.386 . S
C937 C941 1.393 . S
C938 H930 0.950 . S
C938 C936 1.391 . S
C938 C939 1.400 . S
C939 C938 1.400 . S
C939 C940 1.398 . S
C939 C945 1.491 . S
C940 H931 0.950 . S
C940 C939 1.398 . S
C940 C941 1.391 . S
C941 H929 0.950 . S
C941 C937 1.393 . S
C941 C940 1.391 . S
C942 H932 0.950 . S
C942 C943 1.386 . S
C942 C944 1.391 . S
C943 C942 1.386 . S
C943 C947 1.393 . S
C944 H933 0.950 . S
C944 C942 1.391 . S
C944 C945 1.400 . S
C945 C939 1.491 . S
C945 C944 1.400 . S
C945 C946 1.398 . S
C946 H934 0.950 . S
C946 C945 1.398 . S
C946 C947 1.391 . S
C947 H935 0.950 . S
C947 C943 1.393 . S
C947 C946 1.391 . S
H948 C956 0.950 . S
H949 C961 0.950 . S
H950 C958 0.950 . S
H951 C960 0.950 . S
H952 C962 0.950 . S
H953 C964 0.950 . S
H954 C966 0.950 . S
H955 C967 0.950 . S
C956 H948 0.950 . S
C956 C957 1.386 . S
C956 C958 1.391 . S
C957 C956 1.386 . S
C957 C961 1.393 . S
C958 H950 0.950 . S
C958 C956 1.391 . S
C958 C959 1.400 . S
C959 C958 1.400 . S
C959 C960 1.398 . S
C959 C965 1.491 . S
C960 H951 0.950 . S
C960 C959 1.398 . S
C960 C961 1.391 . S
C961 H949 0.950 . S
C961 C957 1.393 . S
C961 C960 1.391 . S
C962 H952 0.950 . S
C962 C963 1.386 . S
C962 C964 1.391 . S
C963 C962 1.386 . S
C963 C967 1.393 . S
C964 H953 0.950 . S
C964 C962 1.391 . S
C964 C965 1.400 . S
C965 C959 1.491 . S
C965 C964 1.400 . S
C965 C966 1.398 . S
C966 H954 0.950 . S
C966 C965 1.398 . S
C966 C967 1.391 . S
C967 H955 0.950 . S
C967 C963 1.393 . S
C967 C966 1.391 . S
H968 C976 0.950 . S
H969 C981 0.950 . S
H970 C978 0.950 . S
H971 C980 0.950 . S
H972 C982 0.950 . S
H973 C984 0.950 . S
H974 C986 0.950 . S
H975 C987 0.950 . S
C976 H968 0.950 . S
C976 C977 1.386 . S
C976 C978 1.391 . S
C977 C976 1.386 . S
C977 C981 1.393 . S
C978 H970 0.950 . S
C978 C976 1.391 . S
C978 C979 1.400 . S
C979 C978 1.400 . S
C979 C980 1.398 . S
C979 C985 1.491 . S
C980 H971 0.950 . S
C980 C979 1.398 . S
C980 C981 1.391 . S
C981 H969 0.950 . S
C981 C977 1.393 . S
C981 C980 1.391 . S
C982 H972 0.950 . S
C982 C983 1.386 . S
C982 C984 1.391 . S
C983 C982 1.386 . S
C983 C987 1.393 . S
C984 H973 0.950 . S
C984 C982 1.391 . S
C984 C985 1.400 . S
C985 C979 1.491 . S
C985 C984 1.400 . S
C985 C986 1.398 . S
C986 H974 0.950 . S
C986 C985 1.398 . S
C986 C987 1.391 . S
C987 H975 0.950 . S
C987 C983 1.393 . S
C987 C986 1.391 . S
H988 C996 0.950 . S
H989 C1001 0.950 . S
H990 C998 0.950 . S
H991 C1000 0.950 . S
H992 C1002 0.950 . S
H993 C1004 0.950 . S
H994 C1006 0.950 . S
H995 C1007 0.950 . S
C996 H988 0.950 . S
C996 C997 1.386 . S
C996 C998 1.391 . S
C997 C996 1.386 . S
C997 C1001 1.393 . S
C998 H990 0.950 . S
C998 C996 1.391 . S
C998 C999 1.400 . S
C999 C998 1.400 . S
C999 C1000 1.398 . S
C999 C1005 1.491 . S
C1000 H991 0.950 . S
C1000 C999 1.398 . S
C1000 C1001 1.391 . S
C1001 H989 0.950 . S
C1001 C997 1.393 . S
C1001 C1000 1.391 . S
C1002 H992 0.950 . S
C1002 C1003 1.386 . S
C1002 C1004 1.391 . S
C1003 C1002 1.386 . S
C1003 C1007 1.393 . S
C1004 H993 0.950 . S
C1004 C1002 1.391 . S
C1004 C1005 1.400 . S
C1005 C999 1.491 . S
C1005 C1004 1.400 . S
C1005 C1006 1.398 . S
C1006 H994 0.950 . S
C1006 C1005 1.398 . S
C1006 C1007 1.391 . S
C1007 H995 0.950 . S
C1007 C1003 1.393 . S
C1007 C1006 1.391 . S
H1008 C1016 0.950 . S
H1009 C1021 0.950 . S
H1010 C1018 0.950 . S
H1011 C1020 0.950 . S
H1012 C1022 0.950 . S
H1013 C1024 0.950 . S
H1014 C1026 0.950 . S
H1015 C1027 0.950 . S
C1016 H1008 0.950 . S
C1016 C1017 1.386 . S
C1016 C1018 1.391 . S
C1017 C1016 1.386 . S
C1017 C1021 1.393 . S
C1018 H1010 0.950 . S
C1018 C1016 1.391 . S
C1018 C1019 1.400 . S
C1019 C1018 1.400 . S
C1019 C1020 1.398 . S
C1019 C1025 1.491 . S
C1020 H1011 0.950 . S
C1020 C1019 1.398 . S
C1020 C1021 1.391 . S
C1021 H1009 0.950 . S
C1021 C1017 1.393 . S
C1021 C1020 1.391 . S
C1022 H1012 0.950 . S
C1022 C1023 1.386 . S
C1022 C1024 1.391 . S
C1023 C1022 1.386 . S
C1023 C1027 1.393 . S
C1024 H1013 0.950 . S
C1024 C1022 1.391 . S
C1024 C1025 1.400 . S
C1025 C1019 1.491 . S
C1025 C1024 1.400 . S
C1025 C1026 1.398 . S
C1026 H1014 0.950 . S
C1026 C1025 1.398 . S
C1026 C1027 1.391 . S
C1027 H1015 0.950 . S
C1027 C1023 1.393 . S
C1027 C1026 1.391 . S
H1028 C1036 0.950 . S
H1029 C1041 0.950 . S
H1030 C1038 0.950 . S
H1031 C1040 0.950 . S
H1032 C1042 0.950 . S
H1033 C1044 0.950 . S
H1034 C1046 0.950 . S
H1035 C1047 0.950 . S
C1036 H1028 0.950 . S
C1036 C1037 1.386 . S
C1036 C1038 1.391 . S
C1037 C1036 1.386 . S
C1037 C1041 1.393 . S
C1038 H1030 0.950 . S
C1038 C1036 1.391 . S
C1038 C1039 1.400 . S
C1039 C1038 1.400 . S
C1039 C1040 1.398 . S
C1039 C1045 1.491 . S
C1040 H1031 0.950 . S
C1040 C1039 1.398 . S
C1040 C1041 1.391 . S
C1041 H1029 0.950 . S
C1041 C1037 1.393 . S
C1041 C1040 1.391 . S
C1042 H1032 0.950 . S
C1042 C1043 1.386 . S
C1042 C1044 1.391 . S
C1043 C1042 1.386 . S
C1043 C1047 1.393 . S
C1044 H1033 0.950 . S
C1044 C1042 1.391 . S
C1044 C1045 1.400 . S
C1045 C1039 1.491 . S
C1045 C1044 1.400 . S
C1045 C1046 1.398 . S
C1046 H1034 0.950 . S
C1046 C1045 1.398 . S
C1046 C1047 1.391 . S
C1047 H1035 0.950 . S
C1047 C1043 1.393 . S
C1047 C1046 1.391 . S
H1048 C1056 0.950 . S
H1049 C1061 0.950 . S
H1050 C1058 0.950 . S
H1051 C1060 0.950 . S
H1052 C1062 0.950 . S
H1053 C1064 0.950 . S
H1054 C1066 0.950 . S
H1055 C1067 0.950 . S
C1056 H1048 0.950 . S
C1056 C1057 1.386 . S
C1056 C1058 1.391 . S
C1057 C1056 1.386 . S
C1057 C1061 1.393 . S
C1058 H1050 0.950 . S
C1058 C1056 1.391 . S
C1058 C1059 1.400 . S
C1059 C1058 1.400 . S
C1059 C1060 1.398 . S
C1059 C1065 1.491 . S
C1060 H1051 0.950 . S
C1060 C1059 1.398 . S
C1060 C1061 1.391 . S
C1061 H1049 0.950 . S
C1061 C1057 1.393 . S
C1061 C1060 1.391 . S
C1062 H1052 0.950 . S
C1062 C1063 1.386 . S
C1062 C1064 1.391 . S
C1063 C1062 1.386 . S
C1063 C1067 1.393 . S
C1064 H1053 0.950 . S
C1064 C1062 1.391 . S
C1064 C1065 1.400 . S
C1065 C1059 1.491 . S
C1065 C1064 1.400 . S
C1065 C1066 1.398 . S
C1066 H1054 0.950 . S
C1066 C1065 1.398 . S
C1066 C1067 1.391 . S
C1067 H1055 0.950 . S
C1067 C1063 1.393 . S
C1067 C1066 1.391 . S
H1068 C1076 0.950 . S
H1069 C1081 0.950 . S
H1070 C1078 0.950 . S
H1071 C1080 0.950 . S
H1072 C1082 0.950 . S
H1073 C1084 0.950 . S
H1074 C1086 0.950 . S
H1075 C1087 0.950 . S
C1076 H1068 0.950 . S
C1076 C1077 1.386 . S
C1076 C1078 1.391 . S
C1077 C1076 1.386 . S
C1077 C1081 1.393 . S
C1078 H1070 0.950 . S
C1078 C1076 1.391 . S
C1078 C1079 1.400 . S
C1079 C1078 1.400 . S
C1079 C1080 1.398 . S
C1079 C1085 1.491 . S
C1080 H1071 0.950 . S
C1080 C1079 1.398 . S
C1080 C1081 1.391 . S
C1081 H1069 0.950 . S
C1081 C1077 1.393 . S
C1081 C1080 1.391 . S
C1082 H1072 0.950 . S
C1082 C1083 1.386 . S
C1082 C1084 1.391 . S
C1083 C1082 1.386 . S
C1083 C1087 1.393 . S
C1084 H1073 0.950 . S
C1084 C1082 1.391 . S
C1084 C1085 1.400 . S
C1085 C1079 1.491 . S
C1085 C1084 1.400 . S
C1085 C1086 1.398 . S
C1086 H1074 0.950 . S
C1086 C1085 1.398 . S
C1086 C1087 1.391 . S
C1087 H1075 0.950 . S
C1087 C1083 1.393 . S
C1087 C1086 1.391 . S
H1088 C1096 0.950 . S
H1089 C1101 0.950 . S
H1090 C1098 0.950 . S
H1091 C1100 0.950 . S
H1092 C1102 0.950 . S
H1093 C1104 0.950 . S
H1094 C1106 0.950 . S
H1095 C1107 0.950 . S
C1096 H1088 0.950 . S
C1096 C1097 1.386 . S
C1096 C1098 1.391 . S
C1097 C1096 1.386 . S
C1097 C1101 1.393 . S
C1098 H1090 0.950 . S
C1098 C1096 1.391 . S
C1098 C1099 1.400 . S
C1099 C1098 1.400 . S
C1099 C1100 1.398 . S
C1099 C1105 1.491 . S
C1100 H1091 0.950 . S
C1100 C1099 1.398 . S
C1100 C1101 1.391 . S
C1101 H1089 0.950 . S
C1101 C1097 1.393 . S
C1101 C1100 1.391 . S
C1102 H1092 0.950 . S
C1102 C1103 1.386 . S
C1102 C1104 1.391 . S
C1103 C1102 1.386 . S
C1103 C1107 1.393 . S
C1104 H1093 0.950 . S
C1104 C1102 1.391 . S
C1104 C1105 1.400 . S
C1105 C1099 1.491 . S
C1105 C1104 1.400 . S
C1105 C1106 1.398 . S
C1106 H1094 0.950 . S
C1106 C1105 1.398 . S
C1106 C1107 1.391 . S
C1107 H1095 0.950 . S
C1107 C1103 1.393 . S
C1107 C1106 1.391 . S
H1108 C1116 0.950 . S
H1109 C1121 0.950 . S
H1110 C1118 0.950 . S
H1111 C1120 0.950 . S
H1112 C1122 0.950 . S
H1113 C1124 0.950 . S
H1114 C1126 0.950 . S
H1115 C1127 0.950 . S
C1116 H1108 0.950 . S
C1116 C1117 1.386 . S
C1116 C1118 1.391 . S
C1117 C1116 1.386 . S
C1117 C1121 1.393 . S
C1118 H1110 0.950 . S
C1118 C1116 1.391 . S
C1118 C1119 1.400 . S
C1119 C1118 1.400 . S
C1119 C1120 1.398 . S
C1119 C1125 1.491 . S
C1120 H1111 0.950 . S
C1120 C1119 1.398 . S
C1120 C1121 1.391 . S
C1121 H1109 0.950 . S
C1121 C1117 1.393 . S
C1121 C1120 1.391 . S
C1122 H1112 0.950 . S
C1122 C1123 1.386 . S
C1122 C1124 1.391 . S
C1123 C1122 1.386 . S
C1123 C1127 1.393 . S
C1124 H1113 0.950 . S
C1124 C1122 1.391 . S
C1124 C1125 1.400 . S
C1125 C1119 1.491 . S
C1125 C1124 1.400 . S
C1125 C1126 1.398 . S
C1126 H1114 0.950 . S
C1126 C1125 1.398 . S
C1126 C1127 1.391 . S
C1127 H1115 0.950 . S
C1127 C1123 1.393 . S
C1127 C1126 1.391 . S
H1128 C1136 0.950 . S
H1129 C1141 0.950 . S
H1130 C1138 0.950 . S
H1131 C1140 0.950 . S
H1132 C1142 0.950 . S
H1133 C1144 0.950 . S
H1134 C1146 0.950 . S
H1135 C1147 0.950 . S
C1136 H1128 0.950 . S
C1136 C1137 1.386 . S
C1136 C1138 1.391 . S
C1137 C1136 1.386 . S
C1137 C1141 1.393 . S
C1138 H1130 0.950 . S
C1138 C1136 1.391 . S
C1138 C1139 1.400 . S
C1139 C1138 1.400 . S
C1139 C1140 1.398 . S
C1139 C1145 1.491 . S
C1140 H1131 0.950 . S
C1140 C1139 1.398 . S
C1140 C1141 1.391 . S
C1141 H1129 0.950 . S
C1141 C1137 1.393 . S
C1141 C1140 1.391 . S
C1142 H1132 0.950 . S
C1142 C1143 1.386 . S
C1142 C1144 1.391 . S
C1143 C1142 1.386 . S
C1143 C1147 1.393 . S
C1144 H1133 0.950 . S
C1144 C1142 1.391 . S
C1144 C1145 1.400 . S
C1145 C1139 1.491 . S
C1145 C1144 1.400 . S
C1145 C1146 1.398 . S
C1146 H1134 0.950 . S
C1146 C1145 1.398 . S
C1146 C1147 1.391 . S
C1147 H1135 0.950 . S
C1147 C1143 1.393 . S
C1147 C1146 1.391 . S
H1148 C1156 0.950 . S
H1149 C1161 0.950 . S
H1150 C1158 0.950 . S
H1151 C1160 0.950 . S
H1152 C1162 0.950 . S
H1153 C1164 0.950 . S
H1154 C1166 0.950 . S
H1155 C1167 0.950 . S
C1156 H1148 0.950 . S
C1156 C1157 1.386 . S
C1156 C1158 1.391 . S
C1157 C1156 1.386 . S
C1157 C1161 1.393 . S
C1158 H1150 0.950 . S
C1158 C1156 1.391 . S
C1158 C1159 1.400 . S
C1159 C1158 1.400 . S
C1159 C1160 1.398 . S
C1159 C1165 1.491 . S
C1160 H1151 0.950 . S
C1160 C1159 1.398 . S
C1160 C1161 1.391 . S
C1161 H1149 0.950 . S
C1161 C1157 1.393 . S
C1161 C1160 1.391 . S
C1162 H1152 0.950 . S
C1162 C1163 1.386 . S
C1162 C1164 1.391 . S
C1163 C1162 1.386 . S
C1163 C1167 1.393 . S
C1164 H1153 0.950 . S
C1164 C1162 1.391 . S
C1164 C1165 1.400 . S
C1165 C1159 1.491 . S
C1165 C1164 1.400 . S
C1165 C1166 1.398 . S
C1166 H1154 0.950 . S
C1166 C1165 1.398 . S
C1166 C1167 1.391 . S
C1167 H1155 0.950 . S
C1167 C1163 1.393 . S
C1167 C1166 1.391 . S
H1168 C1176 0.950 . S
H1169 C1181 0.950 . S
H1170 C1178 0.950 . S
H1171 C1180 0.950 . S
H1172 C1182 0.950 . S
H1173 C1184 0.950 . S
H1174 C1186 0.950 . S
H1175 C1187 0.950 . S
C1176 H1168 0.950 . S
C1176 C1177 1.386 . S
C1176 C1178 1.391 . S
C1177 C1176 1.386 . S
C1177 C1181 1.393 . S
C1178 H1170 0.950 . S
C1178 C1176 1.391 . S
C1178 C1179 1.400 . S
C1179 C1178 1.400 . S
C1179 C1180 1.398 . S
C1179 C1185 1.491 . S
C1180 H1171 0.950 . S
C1180 C1179 1.398 . S
C1180 C1181 1.391 . S
C1181 H1169 0.950 . S
C1181 C1177 1.393 . S
C1181 C1180 1.391 . S
C1182 H1172 0.950 . S
C1182 C1183 1.386 . S
C1182 C1184 1.391 . S
C1183 C1182 1.386 . S
C1183 C1187 1.393 . S
C1184 H1173 0.950 . S
C1184 C1182 1.391 . S
C1184 C1185 1.400 . S
C1185 C1179 1.491 . S
C1185 C1184 1.400 . S
C1185 C1186 1.398 . S
C1186 H1174 0.950 . S
C1186 C1185 1.398 . S
C1186 C1187 1.391 . S
C1187 H1175 0.950 . S
C1187 C1183 1.393 . S
C1187 C1186 1.391 . S
H1188 C1196 0.950 . S
H1189 C1201 0.950 . S
H1190 C1198 0.950 . S
H1191 C1200 0.950 . S
H1192 C1202 0.950 . S
H1193 C1204 0.950 . S
H1194 C1206 0.950 . S
H1195 C1207 0.950 . S
C1196 H1188 0.950 . S
C1196 C1197 1.386 . S
C1196 C1198 1.391 . S
C1197 C1196 1.386 . S
C1197 C1201 1.393 . S
C1198 H1190 0.950 . S
C1198 C1196 1.391 . S
C1198 C1199 1.400 . S
C1199 C1198 1.400 . S
C1199 C1200 1.398 . S
C1199 C1205 1.491 . S
C1200 H1191 0.950 . S
C1200 C1199 1.398 . S
C1200 C1201 1.391 . S
C1201 H1189 0.950 . S
C1201 C1197 1.393 . S
C1201 C1200 1.391 . S
C1202 H1192 0.950 . S
C1202 C1203 1.386 . S
C1202 C1204 1.391 . S
C1203 C1202 1.386 . S
C1203 C1207 1.393 . S
C1204 H1193 0.950 . S
C1204 C1202 1.391 . S
C1204 C1205 1.400 . S
C1205 C1199 1.491 . S
C1205 C1204 1.400 . S
C1205 C1206 1.398 . S
C1206 H1194 0.950 . S
C1206 C1205 1.398 . S
C1206 C1207 1.391 . S
C1207 H1195 0.950 . S
C1207 C1203 1.393 . S
C1207 C1206 1.391 . S
H1208 C1216 0.950 . S
H1209 C1221 0.950 . S
H1210 C1218 0.950 . S
H1211 C1220 0.950 . S
H1212 C1222 0.950 . S
H1213 C1224 0.950 . S
H1214 C1226 0.950 . S
H1215 C1227 0.950 . S
C1216 H1208 0.950 . S
C1216 C1217 1.386 . S
C1216 C1218 1.391 . S
C1217 C1216 1.386 . S
C1217 C1221 1.393 . S
C1218 H1210 0.950 . S
C1218 C1216 1.391 . S
C1218 C1219 1.400 . S
C1219 C1218 1.400 . S
C1219 C1220 1.398 . S
C1219 C1225 1.491 . S
C1220 H1211 0.950 . S
C1220 C1219 1.398 . S
C1220 C1221 1.391 . S
C1221 H1209 0.950 . S
C1221 C1217 1.393 . S
C1221 C1220 1.391 . S
C1222 H1212 0.950 . S
C1222 C1223 1.386 . S
C1222 C1224 1.391 . S
C1223 C1222 1.386 . S
C1223 C1227 1.393 . S
C1224 H1213 0.950 . S
C1224 C1222 1.391 . S
C1224 C1225 1.400 . S
C1225 C1219 1.491 . S
C1225 C1224 1.400 . S
C1225 C1226 1.398 . S
C1226 H1214 0.950 . S
C1226 C1225 1.398 . S
C1226 C1227 1.391 . S
C1227 H1215 0.950 . S
C1227 C1223 1.393 . S
C1227 C1226 1.391 . S
H1228 C1236 0.950 . S
H1229 C1241 0.950 . S
H1230 C1238 0.950 . S
H1231 C1240 0.950 . S
H1232 C1242 0.950 . S
H1233 C1244 0.950 . S
H1234 C1246 0.950 . S
H1235 C1247 0.950 . S
C1236 H1228 0.950 . S
C1236 C1237 1.386 . S
C1236 C1238 1.391 . S
C1237 C1236 1.386 . S
C1237 C1241 1.393 . S
C1238 H1230 0.950 . S
C1238 C1236 1.391 . S
C1238 C1239 1.400 . S
C1239 C1238 1.400 . S
C1239 C1240 1.398 . S
C1239 C1245 1.491 . S
C1240 H1231 0.950 . S
C1240 C1239 1.398 . S
C1240 C1241 1.391 . S
C1241 H1229 0.950 . S
C1241 C1237 1.393 . S
C1241 C1240 1.391 . S
C1242 H1232 0.950 . S
C1242 C1243 1.386 . S
C1242 C1244 1.391 . S
C1243 C1242 1.386 . S
C1243 C1247 1.393 . S
C1244 H1233 0.950 . S
C1244 C1242 1.391 . S
C1244 C1245 1.400 . S
C1245 C1239 1.491 . S
C1245 C1244 1.400 . S
C1245 C1246 1.398 . S
C1246 H1234 0.950 . S
C1246 C1245 1.398 . S
C1246 C1247 1.391 . S
C1247 H1235 0.950 . S
C1247 C1243 1.393 . S
C1247 C1246 1.391 . S
H1248 C1256 0.950 . S
H1249 C1261 0.950 . S
H1250 C1258 0.950 . S
H1251 C1260 0.950 . S
H1252 C1262 0.950 . S
H1253 C1264 0.950 . S
H1254 C1266 0.950 . S
H1255 C1267 0.950 . S
C1256 H1248 0.950 . S
C1256 C1257 1.386 . S
C1256 C1258 1.391 . S
C1257 C1256 1.386 . S
C1257 C1261 1.393 . S
C1258 H1250 0.950 . S
C1258 C1256 1.391 . S
C1258 C1259 1.400 . S
C1259 C1258 1.400 . S
C1259 C1260 1.398 . S
C1259 C1265 1.491 1_554 S
C1260 H1251 0.950 . S
C1260 C1259 1.398 . S
C1260 C1261 1.391 . S
C1261 H1249 0.950 . S
C1261 C1257 1.393 . S
C1261 C1260 1.391 . S
C1262 H1252 0.950 . S
C1262 C1263 1.386 . S
C1262 C1264 1.391 . S
C1263 C1262 1.386 . S
C1263 C1267 1.393 . S
C1264 H1253 0.950 . S
C1264 C1262 1.391 . S
C1264 C1265 1.400 . S
C1265 C1259 1.491 1_556 S
C1265 C1264 1.400 . S
C1265 C1266 1.398 . S
C1266 H1254 0.950 . S
C1266 C1265 1.398 . S
C1266 C1267 1.391 . S
C1267 H1255 0.950 . S
C1267 C1263 1.393 . S
C1267 C1266 1.391 . S
H1268 C1276 0.950 . S
H1269 C1281 0.950 . S
H1270 C1278 0.950 . S
H1271 C1280 0.950 . S
H1272 C1282 0.950 . S
H1273 C1284 0.950 . S
H1274 C1286 0.950 . S
H1275 C1287 0.950 . S
C1276 H1268 0.950 . S
C1276 C1277 1.386 . S
C1276 C1278 1.391 . S
C1277 C1276 1.386 . S
C1277 C1281 1.393 . S
C1278 H1270 0.950 . S
C1278 C1276 1.391 . S
C1278 C1279 1.400 . S
C1279 C1278 1.400 . S
C1279 C1280 1.398 . S
C1279 C1285 1.491 1_556 S
C1280 H1271 0.950 . S
C1280 C1279 1.398 . S
C1280 C1281 1.391 . S
C1281 H1269 0.950 . S
C1281 C1277 1.393 . S
C1281 C1280 1.391 . S
C1282 H1272 0.950 . S
C1282 C1283 1.386 . S
C1282 C1284 1.391 . S
C1283 C1282 1.386 . S
C1283 C1287 1.393 . S
C1284 H1273 0.950 . S
C1284 C1282 1.391 . S
C1284 C1285 1.400 . S
C1285 C1279 1.491 1_554 S
C1285 C1284 1.400 . S
C1285 C1286 1.398 . S
C1286 H1274 0.950 . S
C1286 C1285 1.398 . S
C1286 C1287 1.391 . S
C1287 H1275 0.950 . S
C1287 C1283 1.393 . S
C1287 C1286 1.391 . S
H1288 C1296 0.950 . S
H1289 C1301 0.950 . S
H1290 C1298 0.950 . S
H1291 C1300 0.950 . S
H1292 C1302 0.950 . S
H1293 C1304 0.950 . S
H1294 C1306 0.950 . S
H1295 C1307 0.950 . S
C1296 H1288 0.950 . S
C1296 C1297 1.386 . S
C1296 C1298 1.391 . S
C1297 C1296 1.386 . S
C1297 C1301 1.393 . S
C1298 H1290 0.950 . S
C1298 C1296 1.391 . S
C1298 C1299 1.400 . S
C1299 C1298 1.400 . S
C1299 C1300 1.398 . S
C1299 C1305 1.491 1_554 S
C1300 H1291 0.950 . S
C1300 C1299 1.398 . S
C1300 C1301 1.391 . S
C1301 H1289 0.950 . S
C1301 C1297 1.393 . S
C1301 C1300 1.391 . S
C1302 H1292 0.950 . S
C1302 C1303 1.386 . S
C1302 C1304 1.391 . S
C1303 C1302 1.386 . S
C1303 C1307 1.393 . S
C1304 H1293 0.950 . S
C1304 C1302 1.391 . S
C1304 C1305 1.400 . S
C1305 C1299 1.491 1_556 S
C1305 C1304 1.400 . S
C1305 C1306 1.398 . S
C1306 H1294 0.950 . S
C1306 C1305 1.398 . S
C1306 C1307 1.391 . S
C1307 H1295 0.950 . S
C1307 C1303 1.393 . S
C1307 C1306 1.391 . S
H1308 C1316 0.950 . S
H1309 C1321 0.950 . S
H1310 C1318 0.950 . S
H1311 C1320 0.950 . S
H1312 C1322 0.950 . S
H1313 C1324 0.950 . S
H1314 C1326 0.950 . S
H1315 C1327 0.950 . S
C1316 H1308 0.950 . S
C1316 C1317 1.386 . S
C1316 C1318 1.391 . S
C1317 C1316 1.386 . S
C1317 C1321 1.393 . S
C1318 H1310 0.950 . S
C1318 C1316 1.391 . S
C1318 C1319 1.400 . S
C1319 C1318 1.400 . S
C1319 C1320 1.398 . S
C1319 C1325 1.491 1_554 S
C1320 H1311 0.950 . S
C1320 C1319 1.398 . S
C1320 C1321 1.391 . S
C1321 H1309 0.950 . S
C1321 C1317 1.393 . S
C1321 C1320 1.391 . S
C1322 H1312 0.950 . S
C1322 C1323 1.386 . S
C1322 C1324 1.391 . S
C1323 C1322 1.386 . S
C1323 C1327 1.393 . S
C1324 H1313 0.950 . S
C1324 C1322 1.391 . S
C1324 C1325 1.400 . S
C1325 C1319 1.491 1_556 S
C1325 C1324 1.400 . S
C1325 C1326 1.398 . S
C1326 H1314 0.950 . S
C1326 C1325 1.398 . S
C1326 C1327 1.391 . S
C1327 H1315 0.950 . S
C1327 C1323 1.393 . S
C1327 C1326 1.391 . S
H1328 C1336 0.950 . S
H1329 C1341 0.950 . S
H1330 C1338 0.950 . S
H1331 C1340 0.950 . S
H1332 C1342 0.950 . S
H1333 C1344 0.950 . S
H1334 C1346 0.950 . S
H1335 C1347 0.950 . S
C1336 H1328 0.950 . S
C1336 C1337 1.386 . S
C1336 C1338 1.391 . S
C1337 C1336 1.386 . S
C1337 C1341 1.393 . S
C1338 H1330 0.950 . S
C1338 C1336 1.391 . S
C1338 C1339 1.400 . S
C1339 C1338 1.400 . S
C1339 C1340 1.398 . S
C1339 C1345 1.491 1_554 S
C1340 H1331 0.950 . S
C1340 C1339 1.398 . S
C1340 C1341 1.391 . S
C1341 H1329 0.950 . S
C1341 C1337 1.393 . S
C1341 C1340 1.391 . S
C1342 H1332 0.950 . S
C1342 C1343 1.386 . S
C1342 C1344 1.391 . S
C1343 C1342 1.386 . S
C1343 C1347 1.393 . S
C1344 H1333 0.950 . S
C1344 C1342 1.391 . S
C1344 C1345 1.400 . S
C1345 C1339 1.491 1_556 S
C1345 C1344 1.400 . S
C1345 C1346 1.398 . S
C1346 H1334 0.950 . S
C1346 C1345 1.398 . S
C1346 C1347 1.391 . S
C1347 H1335 0.950 . S
C1347 C1343 1.393 . S
C1347 C1346 1.391 . S
H1348 C1356 0.950 . S
H1349 C1361 0.950 . S
H1350 C1358 0.950 . S
H1351 C1360 0.950 . S
H1352 C1362 0.950 . S
H1353 C1364 0.950 . S
H1354 C1366 0.950 . S
H1355 C1367 0.950 . S
C1356 H1348 0.950 . S
C1356 C1357 1.386 . S
C1356 C1358 1.391 . S
C1357 C1356 1.386 . S
C1357 C1361 1.393 . S
C1358 H1350 0.950 . S
C1358 C1356 1.391 . S
C1358 C1359 1.400 . S
C1359 C1358 1.400 . S
C1359 C1360 1.398 . S
C1359 C1365 1.491 1_554 S
C1360 H1351 0.950 . S
C1360 C1359 1.398 . S
C1360 C1361 1.391 . S
C1361 H1349 0.950 . S
C1361 C1357 1.393 . S
C1361 C1360 1.391 . S
C1362 H1352 0.950 . S
C1362 C1363 1.386 . S
C1362 C1364 1.391 . S
C1363 C1362 1.386 . S
C1363 C1367 1.393 . S
C1364 H1353 0.950 . S
C1364 C1362 1.391 . S
C1364 C1365 1.400 . S
C1365 C1359 1.491 1_556 S
C1365 C1364 1.400 . S
C1365 C1366 1.398 . S
C1366 H1354 0.950 . S
C1366 C1365 1.398 . S
C1366 C1367 1.391 . S
C1367 H1355 0.950 . S
C1367 C1363 1.393 . S
C1367 C1366 1.391 . S
H1368 C1376 0.950 . S
H1369 C1381 0.950 . S
H1370 C1378 0.950 . S
H1371 C1380 0.950 . S
H1372 C1382 0.950 . S
H1373 C1384 0.950 . S
H1374 C1386 0.950 . S
H1375 C1387 0.950 . S
C1376 H1368 0.950 . S
C1376 C1377 1.386 . S
C1376 C1378 1.391 . S
C1377 C1376 1.386 . S
C1377 C1381 1.393 . S
C1378 H1370 0.950 . S
C1378 C1376 1.391 . S
C1378 C1379 1.400 . S
C1379 C1378 1.400 . S
C1379 C1380 1.398 . S
C1379 C1385 1.491 1_556 S
C1380 H1371 0.950 . S
C1380 C1379 1.398 . S
C1380 C1381 1.391 . S
C1381 H1369 0.950 . S
C1381 C1377 1.393 . S
C1381 C1380 1.391 . S
C1382 H1372 0.950 . S
C1382 C1383 1.386 . S
C1382 C1384 1.391 . S
C1383 C1382 1.386 . S
C1383 C1387 1.393 . S
C1384 H1373 0.950 . S
C1384 C1382 1.391 . S
C1384 C1385 1.400 . S
C1385 C1379 1.491 1_554 S
C1385 C1384 1.400 . S
C1385 C1386 1.398 . S
C1386 H1374 0.950 . S
C1386 C1385 1.398 . S
C1386 C1387 1.391 . S
C1387 H1375 0.950 . S
C1387 C1383 1.393 . S
C1387 C1386 1.391 . S
H1388 C1396 0.950 . S
H1389 C1401 0.950 . S
H1390 C1398 0.950 . S
H1391 C1400 0.950 . S
H1392 C1402 0.950 . S
H1393 C1404 0.950 . S
H1394 C1406 0.950 . S
H1395 C1407 0.950 . S
C1396 H1388 0.950 . S
C1396 C1397 1.386 . S
C1396 C1398 1.391 . S
C1397 C1396 1.386 . S
C1397 C1401 1.393 . S
C1398 H1390 0.950 . S
C1398 C1396 1.391 . S
C1398 C1399 1.400 . S
C1399 C1398 1.400 . S
C1399 C1400 1.398 . S
C1399 C1405 1.491 1_556 S
C1400 H1391 0.950 . S
C1400 C1399 1.398 . S
C1400 C1401 1.391 . S
C1401 H1389 0.950 . S
C1401 C1397 1.393 . S
C1401 C1400 1.391 . S
C1402 H1392 0.950 . S
C1402 C1403 1.386 . S
C1402 C1404 1.391 . S
C1403 C1402 1.386 . S
C1403 C1407 1.393 . S
C1404 H1393 0.950 . S
C1404 C1402 1.391 . S
C1404 C1405 1.400 . S
C1405 C1399 1.491 1_554 S
C1405 C1404 1.400 . S
C1405 C1406 1.398 . S
C1406 H1394 0.950 . S
C1406 C1405 1.398 . S
C1406 C1407 1.391 . S
C1407 H1395 0.950 . S
C1407 C1403 1.393 . S
C1407 C1406 1.391 . S
H1408 C1416 0.950 . S
H1409 C1421 0.950 . S
H1410 C1418 0.950 . S
H1411 C1420 0.950 . S
H1412 C1422 0.950 . S
H1413 C1424 0.950 . S
H1414 C1426 0.950 . S
H1415 C1427 0.950 . S
C1416 H1408 0.950 . S
C1416 C1417 1.386 . S
C1416 C1418 1.391 . S
C1417 C1416 1.386 . S
C1417 C1421 1.393 . S
C1418 H1410 0.950 . S
C1418 C1416 1.391 . S
C1418 C1419 1.400 . S
C1419 C1418 1.400 . S
C1419 C1420 1.398 . S
C1419 C1425 1.491 . S
C1420 H1411 0.950 . S
C1420 C1419 1.398 . S
C1420 C1421 1.391 . S
C1421 H1409 0.950 . S
C1421 C1417 1.393 . S
C1421 C1420 1.391 . S
C1422 H1412 0.950 . S
C1422 C1423 1.386 . S
C1422 C1424 1.391 . S
C1423 C1422 1.386 . S
C1423 C1427 1.393 . S
C1424 H1413 0.950 . S
C1424 C1422 1.391 . S
C1424 C1425 1.400 . S
C1425 C1419 1.491 . S
C1425 C1424 1.400 . S
C1425 C1426 1.398 . S
C1426 H1414 0.950 . S
C1426 C1425 1.398 . S
C1426 C1427 1.391 . S
C1427 H1415 0.950 . S
C1427 C1423 1.393 . S
C1427 C1426 1.391 . S
H1428 C1436 0.950 . S
H1429 C1441 0.950 . S
H1430 C1438 0.950 . S
H1431 C1440 0.950 . S
H1432 C1442 0.950 . S
H1433 C1444 0.950 . S
H1434 C1446 0.950 . S
H1435 C1447 0.950 . S
C1436 H1428 0.950 . S
C1436 C1437 1.386 . S
C1436 C1438 1.391 . S
C1437 C1436 1.386 . S
C1437 C1441 1.393 . S
C1438 H1430 0.950 . S
C1438 C1436 1.391 . S
C1438 C1439 1.400 . S
C1439 C1438 1.400 . S
C1439 C1440 1.398 . S
C1439 C1445 1.491 . S
C1440 H1431 0.950 . S
C1440 C1439 1.398 . S
C1440 C1441 1.391 . S
C1441 H1429 0.950 . S
C1441 C1437 1.393 . S
C1441 C1440 1.391 . S
C1442 H1432 0.950 . S
C1442 C1443 1.386 . S
C1442 C1444 1.391 . S
C1443 C1442 1.386 . S
C1443 C1447 1.393 . S
C1444 H1433 0.950 . S
C1444 C1442 1.391 . S
C1444 C1445 1.400 . S
C1445 C1439 1.491 . S
C1445 C1444 1.400 . S
C1445 C1446 1.398 . S
C1446 H1434 0.950 . S
C1446 C1445 1.398 . S
C1446 C1447 1.391 . S
C1447 H1435 0.950 . S
C1447 C1443 1.393 . S
C1447 C1446 1.391 . S
H1448 C1456 0.950 . S
H1449 C1461 0.950 . S
H1450 C1458 0.950 . S
H1451 C1460 0.950 . S
H1452 C1462 0.950 . S
H1453 C1464 0.950 . S
H1454 C1466 0.950 . S
H1455 C1467 0.950 . S
C1456 H1448 0.950 . S
C1456 C1457 1.386 . S
C1456 C1458 1.391 . S
C1457 C1456 1.386 . S
C1457 C1461 1.393 . S
C1458 H1450 0.950 . S
C1458 C1456 1.391 . S
C1458 C1459 1.400 . S
C1459 C1458 1.400 . S
C1459 C1460 1.398 . S
C1459 C1465 1.491 . S
C1460 H1451 0.950 . S
C1460 C1459 1.398 . S
C1460 C1461 1.391 . S
C1461 H1449 0.950 . S
C1461 C1457 1.393 . S
C1461 C1460 1.391 . S
C1462 H1452 0.950 . S
C1462 C1463 1.386 . S
C1462 C1464 1.391 . S
C1463 C1462 1.386 . S
C1463 C1467 1.393 . S
C1464 H1453 0.950 . S
C1464 C1462 1.391 . S
C1464 C1465 1.400 . S
C1465 C1459 1.491 . S
C1465 C1464 1.400 . S
C1465 C1466 1.398 . S
C1466 H1454 0.950 . S
C1466 C1465 1.398 . S
C1466 C1467 1.391 . S
C1467 H1455 0.950 . S
C1467 C1463 1.393 . S
C1467 C1466 1.391 . S
H1468 C1476 0.950 . S
H1469 C1481 0.950 . S
H1470 C1478 0.950 . S
H1471 C1480 0.950 . S
H1472 C1482 0.950 . S
H1473 C1484 0.950 . S
H1474 C1486 0.950 . S
H1475 C1487 0.950 . S
C1476 H1468 0.950 . S
C1476 C1477 1.386 . S
C1476 C1478 1.391 . S
C1477 C1476 1.386 . S
C1477 C1481 1.393 . S
C1478 H1470 0.950 . S
C1478 C1476 1.391 . S
C1478 C1479 1.400 . S
C1479 C1478 1.400 . S
C1479 C1480 1.398 . S
C1479 C1485 1.491 . S
C1480 H1471 0.950 . S
C1480 C1479 1.398 . S
C1480 C1481 1.391 . S
C1481 H1469 0.950 . S
C1481 C1477 1.393 . S
C1481 C1480 1.391 . S
C1482 H1472 0.950 . S
C1482 C1483 1.386 . S
C1482 C1484 1.391 . S
C1483 C1482 1.386 . S
C1483 C1487 1.393 . S
C1484 H1473 0.950 . S
C1484 C1482 1.391 . S
C1484 C1485 1.400 . S
C1485 C1479 1.491 . S
C1485 C1484 1.400 . S
C1485 C1486 1.398 . S
C1486 H1474 0.950 . S
C1486 C1485 1.398 . S
C1486 C1487 1.391 . S
C1487 H1475 0.950 . S
C1487 C1483 1.393 . S
C1487 C1486 1.391 . S
H1488 C1496 0.950 . S
H1489 C1501 0.950 . S
H1490 C1498 0.950 . S
H1491 C1500 0.950 . S
H1492 C1502 0.950 . S
H1493 C1504 0.950 . S
H1494 C1506 0.950 . S
H1495 C1507 0.950 . S
C1496 H1488 0.950 . S
C1496 C1497 1.386 . S
C1496 C1498 1.391 . S
C1497 C1496 1.386 . S
C1497 C1501 1.393 . S
C1498 H1490 0.950 . S
C1498 C1496 1.391 . S
C1498 C1499 1.400 . S
C1499 C1498 1.400 . S
C1499 C1500 1.398 . S
C1499 C1505 1.491 . S
C1500 H1491 0.950 . S
C1500 C1499 1.398 . S
C1500 C1501 1.391 . S
C1501 H1489 0.950 . S
C1501 C1497 1.393 . S
C1501 C1500 1.391 . S
C1502 H1492 0.950 . S
C1502 C1503 1.386 . S
C1502 C1504 1.391 . S
C1503 C1502 1.386 . S
C1503 C1507 1.393 . S
C1504 H1493 0.950 . S
C1504 C1502 1.391 . S
C1504 C1505 1.400 . S
C1505 C1499 1.491 . S
C1505 C1504 1.400 . S
C1505 C1506 1.398 . S
C1506 H1494 0.950 . S
C1506 C1505 1.398 . S
C1506 C1507 1.391 . S
C1507 H1495 0.950 . S
C1507 C1503 1.393 . S
C1507 C1506 1.391 . S
H1508 C1516 0.950 . S
H1509 C1521 0.950 . S
H1510 C1518 0.950 . S
H1511 C1520 0.950 . S
H1512 C1522 0.950 . S
H1513 C1524 0.950 . S
H1514 C1526 0.950 . S
H1515 C1527 0.950 . S
C1516 H1508 0.950 . S
C1516 C1517 1.386 . S
C1516 C1518 1.391 . S
C1517 C1516 1.386 . S
C1517 C1521 1.393 . S
C1518 H1510 0.950 . S
C1518 C1516 1.391 . S
C1518 C1519 1.400 . S
C1519 C1518 1.400 . S
C1519 C1520 1.398 . S
C1519 C1525 1.491 . S
C1520 H1511 0.950 . S
C1520 C1519 1.398 . S
C1520 C1521 1.391 . S
C1521 H1509 0.950 . S
C1521 C1517 1.393 . S
C1521 C1520 1.391 . S
C1522 H1512 0.950 . S
C1522 C1523 1.386 . S
C1522 C1524 1.391 . S
C1523 C1522 1.386 . S
C1523 C1527 1.393 . S
C1524 H1513 0.950 . S
C1524 C1522 1.391 . S
C1524 C1525 1.400 . S
C1525 C1519 1.491 . S
C1525 C1524 1.400 . S
C1525 C1526 1.398 . S
C1526 H1514 0.950 . S
C1526 C1525 1.398 . S
C1526 C1527 1.391 . S
C1527 H1515 0.950 . S
C1527 C1523 1.393 . S
C1527 C1526 1.391 . S
H1528 C1536 0.950 . S
H1529 C1541 0.950 . S
H1530 C1538 0.950 . S
H1531 C1540 0.950 . S
H1532 C1542 0.950 . S
H1533 C1544 0.950 . S
H1534 C1546 0.950 . S
H1535 C1547 0.950 . S
C1536 H1528 0.950 . S
C1536 C1537 1.386 . S
C1536 C1538 1.391 . S
C1537 C1536 1.386 . S
C1537 C1541 1.393 . S
C1538 H1530 0.950 . S
C1538 C1536 1.391 . S
C1538 C1539 1.400 . S
C1539 C1538 1.400 . S
C1539 C1540 1.398 . S
C1539 C1545 1.491 . S
C1540 H1531 0.950 . S
C1540 C1539 1.398 . S
C1540 C1541 1.391 . S
C1541 H1529 0.950 . S
C1541 C1537 1.393 . S
C1541 C1540 1.391 . S
C1542 H1532 0.950 . S
C1542 C1543 1.386 . S
C1542 C1544 1.391 . S
C1543 C1542 1.386 . S
C1543 C1547 1.393 . S
C1544 H1533 0.950 . S
C1544 C1542 1.391 . S
C1544 C1545 1.400 . S
C1545 C1539 1.491 . S
C1545 C1544 1.400 . S
C1545 C1546 1.398 . S
C1546 H1534 0.950 . S
C1546 C1545 1.398 . S
C1546 C1547 1.391 . S
C1547 H1535 0.950 . S
C1547 C1543 1.393 . S
C1547 C1546 1.391 . S
H1548 C1556 0.950 . S
H1549 C1561 0.950 . S
H1550 C1558 0.950 . S
H1551 C1560 0.950 . S
H1552 C1562 0.950 . S
H1553 C1564 0.950 . S
H1554 C1566 0.950 . S
H1555 C1567 0.950 . S
C1556 H1548 0.950 . S
C1556 C1557 1.386 . S
C1556 C1558 1.391 . S
C1557 C1556 1.386 . S
C1557 C1561 1.393 . S
C1558 H1550 0.950 . S
C1558 C1556 1.391 . S
C1558 C1559 1.400 . S
C1559 C1558 1.400 . S
C1559 C1560 1.398 . S
C1559 C1565 1.491 . S
C1560 H1551 0.950 . S
C1560 C1559 1.398 . S
C1560 C1561 1.391 . S
C1561 H1549 0.950 . S
C1561 C1557 1.393 . S
C1561 C1560 1.391 . S
C1562 H1552 0.950 . S
C1562 C1563 1.386 . S
C1562 C1564 1.391 . S
C1563 C1562 1.386 . S
C1563 C1567 1.393 . S
C1564 H1553 0.950 . S
C1564 C1562 1.391 . S
C1564 C1565 1.400 . S
C1565 C1559 1.491 . S
C1565 C1564 1.400 . S
C1565 C1566 1.398 . S
C1566 H1554 0.950 . S
C1566 C1565 1.398 . S
C1566 C1567 1.391 . S
C1567 H1555 0.950 . S
C1567 C1563 1.393 . S
C1567 C1566 1.391 . S
H1568 C1576 0.950 . S
H1569 C1581 0.950 . S
H1570 C1578 0.950 . S
H1571 C1580 0.950 . S
H1572 C1582 0.950 . S
H1573 C1584 0.950 . S
H1574 C1586 0.950 . S
H1575 C1587 0.950 . S
C1576 H1568 0.950 . S
C1576 C1577 1.386 . S
C1576 C1578 1.391 . S
C1577 C1576 1.386 . S
C1577 C1581 1.393 . S
C1578 H1570 0.950 . S
C1578 C1576 1.391 . S
C1578 C1579 1.400 . S
C1579 C1578 1.400 . S
C1579 C1580 1.398 . S
C1579 C1585 1.491 . S
C1580 H1571 0.950 . S
C1580 C1579 1.398 . S
C1580 C1581 1.391 . S
C1581 H1569 0.950 . S
C1581 C1577 1.393 . S
C1581 C1580 1.391 . S
C1582 H1572 0.950 . S
C1582 C1583 1.386 . S
C1582 C1584 1.391 . S
C1583 C1582 1.386 . S
C1583 C1587 1.393 . S
C1584 H1573 0.950 . S
C1584 C1582 1.391 . S
C1584 C1585 1.400 . S
C1585 C1579 1.491 . S
C1585 C1584 1.400 . S
C1585 C1586 1.398 . S
C1586 H1574 0.950 . S
C1586 C1585 1.398 . S
C1586 C1587 1.391 . S
C1587 H1575 0.950 . S
C1587 C1583 1.393 . S
C1587 C1586 1.391 . S
H1588 C1596 0.950 . S
H1589 C1601 0.950 . S
H1590 C1598 0.950 . S
H1591 C1600 0.950 . S
H1592 C1602 0.950 . S
H1593 C1604 0.950 . S
H1594 C1606 0.950 . S
H1595 C1607 0.950 . S
C1596 H1588 0.950 . S
C1596 C1597 1.386 . S
C1596 C1598 1.391 . S
C1597 C1596 1.386 . S
C1597 C1601 1.393 . S
C1598 H1590 0.950 . S
C1598 C1596 1.391 . S
C1598 C1599 1.400 . S
C1599 C1598 1.400 . S
C1599 C1600 1.398 . S
C1599 C1605 1.491 . S
C1600 H1591 0.950 . S
C1600 C1599 1.398 . S
C1600 C1601 1.391 . S
C1601 H1589 0.950 . S
C1601 C1597 1.393 . S
C1601 C1600 1.391 . S
C1602 H1592 0.950 . S
C1602 C1603 1.386 . S
C1602 C1604 1.391 . S
C1603 C1602 1.386 . S
C1603 C1607 1.393 . S
C1604 H1593 0.950 . S
C1604 C1602 1.391 . S
C1604 C1605 1.400 . S
C1605 C1599 1.491 . S
C1605 C1604 1.400 . S
C1605 C1606 1.398 . S
C1606 H1594 0.950 . S
C1606 C1605 1.398 . S
C1606 C1607 1.391 . S
C1607 H1595 0.950 . S
C1607 C1603 1.393 . S
C1607 C1606 1.391 . S
H1608 C1616 0.950 . S
H1609 C1621 0.950 . S
H1610 C1618 0.950 . S
H1611 C1620 0.950 . S
H1612 C1622 0.950 . S
H1613 C1624 0.950 . S
H1614 C1626 0.950 . S
H1615 C1627 0.950 . S
C1616 H1608 0.950 . S
C1616 C1617 1.386 . S
C1616 C1618 1.391 . S
C1617 C1616 1.386 . S
C1617 C1621 1.393 . S
C1618 H1610 0.950 . S
C1618 C1616 1.391 . S
C1618 C1619 1.400 . S
C1619 C1618 1.400 . S
C1619 C1620 1.398 . S
C1619 C1625 1.491 . S
C1620 H1611 0.950 . S
C1620 C1619 1.398 . S
C1620 C1621 1.391 . S
C1621 H1609 0.950 . S
C1621 C1617 1.393 . S
C1621 C1620 1.391 . S
C1622 H1612 0.950 . S
C1622 C1623 1.386 . S
C1622 C1624 1.391 . S
C1623 C1622 1.386 . S
C1623 C1627 1.393 . S
C1624 H1613 0.950 . S
C1624 C1622 1.391 . S
C1624 C1625 1.400 . S
C1625 C1619 1.491 . S
C1625 C1624 1.400 . S
C1625 C1626 1.398 . S
C1626 H1614 0.950 . S
C1626 C1625 1.398 . S
C1626 C1627 1.391 . S
C1627 H1615 0.950 . S
C1627 C1623 1.393 . S
C1627 C1626 1.391 . S
H1628 C1636 0.950 . S
H1629 C1641 0.950 . S
H1630 C1638 0.950 . S
H1631 C1640 0.950 . S
H1632 C1642 0.950 . S
H1633 C1644 0.950 . S
H1634 C1646 0.950 . S
H1635 C1647 0.950 . S
C1636 H1628 0.950 . S
C1636 C1637 1.386 . S
C1636 C1638 1.391 . S
C1637 C1636 1.386 . S
C1637 C1641 1.393 . S
C1638 H1630 0.950 . S
C1638 C1636 1.391 . S
C1638 C1639 1.400 . S
C1639 C1638 1.400 . S
C1639 C1640 1.398 . S
C1639 C1645 1.491 . S
C1640 H1631 0.950 . S
C1640 C1639 1.398 . S
C1640 C1641 1.391 . S
C1641 H1629 0.950 . S
C1641 C1637 1.393 . S
C1641 C1640 1.391 . S
C1642 H1632 0.950 . S
C1642 C1643 1.386 . S
C1642 C1644 1.391 . S
C1643 C1642 1.386 . S
C1643 C1647 1.393 . S
C1644 H1633 0.950 . S
C1644 C1642 1.391 . S
C1644 C1645 1.400 . S
C1645 C1639 1.491 . S
C1645 C1644 1.400 . S
C1645 C1646 1.398 . S
C1646 H1634 0.950 . S
C1646 C1645 1.398 . S
C1646 C1647 1.391 . S
C1647 H1635 0.950 . S
C1647 C1643 1.393 . S
C1647 C1646 1.391 . S
H1648 C1656 0.950 . S
H1649 C1661 0.950 . S
H1650 C1658 0.950 . S
H1651 C1660 0.950 . S
H1652 C1662 0.950 . S
H1653 C1664 0.950 . S
H1654 C1666 0.950 . S
H1655 C1667 0.950 . S
C1656 H1648 0.950 . S
C1656 C1657 1.386 . S
C1656 C1658 1.391 . S
C1657 C1656 1.386 . S
C1657 C1661 1.393 . S
C1658 H1650 0.950 . S
C1658 C1656 1.391 . S
C1658 C1659 1.400 . S
C1659 C1658 1.400 . S
C1659 C1660 1.398 . S
C1659 C1665 1.491 . S
C1660 H1651 0.950 . S
C1660 C1659 1.398 . S
C1660 C1661 1.391 . S
C1661 H1649 0.950 . S
C1661 C1657 1.393 . S
C1661 C1660 1.391 . S
C1662 H1652 0.950 . S
C1662 C1663 1.386 . S
C1662 C1664 1.391 . S
C1663 C1662 1.386 . S
C1663 C1667 1.393 . S
C1664 H1653 0.950 . S
C1664 C1662 1.391 . S
C1664 C1665 1.400 . S
C1665 C1659 1.491 . S
C1665 C1664 1.400 . S
C1665 C1666 1.398 . S
C1666 H1654 0.950 . S
C1666 C1665 1.398 . S
C1666 C1667 1.391 . S
C1667 H1655 0.950 . S
C1667 C1663 1.393 . S
C1667 C1666 1.391 . S
H1668 C1676 0.950 . S
H1669 C1681 0.950 . S
H1670 C1678 0.950 . S
H1671 C1680 0.950 . S
H1672 C1682 0.950 . S
H1673 C1684 0.950 . S
H1674 C1686 0.950 . S
H1675 C1687 0.950 . S
C1676 H1668 0.950 . S
C1676 C1677 1.386 . S
C1676 C1678 1.391 . S
C1677 C1676 1.386 . S
C1677 C1681 1.393 . S
C1678 H1670 0.950 . S
C1678 C1676 1.391 . S
C1678 C1679 1.400 . S
C1679 C1678 1.400 . S
C1679 C1680 1.398 . S
C1679 C1685 1.491 . S
C1680 H1671 0.950 . S
C1680 C1679 1.398 . S
C1680 C1681 1.391 . S
C1681 H1669 0.950 . S
C1681 C1677 1.393 . S
C1681 C1680 1.391 . S
C1682 H1672 0.950 . S
C1682 C1683 1.386 . S
C1682 C1684 1.391 . S
C1683 C1682 1.386 . S
C1683 C1687 1.393 . S
C1684 H1673 0.950 . S
C1684 C1682 1.391 . S
C1684 C1685 1.400 . S
C1685 C1679 1.491 . S
C1685 C1684 1.400 . S
C1685 C1686 1.398 . S
C1686 H1674 0.950 . S
C1686 C1685 1.398 . S
C1686 C1687 1.391 . S
C1687 H1675 0.950 . S
C1687 C1683 1.393 . S
C1687 C1686 1.391 . S
H1688 C1696 0.950 . S
H1689 C1701 0.950 . S
H1690 C1698 0.950 . S
H1691 C1700 0.950 . S
H1692 C1702 0.950 . S
H1693 C1704 0.950 . S
H1694 C1706 0.950 . S
H1695 C1707 0.950 . S
C1696 H1688 0.950 . S
C1696 C1697 1.386 . S
C1696 C1698 1.391 . S
C1697 C1696 1.386 . S
C1697 C1701 1.393 . S
C1698 H1690 0.950 . S
C1698 C1696 1.391 . S
C1698 C1699 1.400 . S
C1699 C1698 1.400 . S
C1699 C1700 1.398 . S
C1699 C1705 1.491 . S
C1700 H1691 0.950 . S
C1700 C1699 1.398 . S
C1700 C1701 1.391 . S
C1701 H1689 0.950 . S
C1701 C1697 1.393 . S
C1701 C1700 1.391 . S
C1702 H1692 0.950 . S
C1702 C1703 1.386 . S
C1702 C1704 1.391 . S
C1703 C1702 1.386 . S
C1703 C1707 1.393 . S
C1704 H1693 0.950 . S
C1704 C1702 1.391 . S
C1704 C1705 1.400 . S
C1705 C1699 1.491 . S
C1705 C1704 1.400 . S
C1705 C1706 1.398 . S
C1706 H1694 0.950 . S
C1706 C1705 1.398 . S
C1706 C1707 1.391 . S
C1707 H1695 0.950 . S
C1707 C1703 1.393 . S
C1707 C1706 1.391 . S
H1708 C1716 0.950 . S
H1709 C1721 0.950 . S
H1710 C1718 0.950 . S
H1711 C1720 0.950 . S
H1712 C1722 0.950 . S
H1713 C1724 0.950 . S
H1714 C1726 0.950 . S
H1715 C1727 0.950 . S
C1716 H1708 0.950 . S
C1716 C1717 1.386 . S
C1716 C1718 1.391 . S
C1717 C1716 1.386 . S
C1717 C1721 1.393 . S
C1718 H1710 0.950 . S
C1718 C1716 1.391 . S
C1718 C1719 1.400 . S
C1719 C1718 1.400 . S
C1719 C1720 1.398 . S
C1719 C1725 1.491 . S
C1720 H1711 0.950 . S
C1720 C1719 1.398 . S
C1720 C1721 1.391 . S
C1721 H1709 0.950 . S
C1721 C1717 1.393 . S
C1721 C1720 1.391 . S
C1722 H1712 0.950 . S
C1722 C1723 1.386 . S
C1722 C1724 1.391 . S
C1723 C1722 1.386 . S
C1723 C1727 1.393 . S
C1724 H1713 0.950 . S
C1724 C1722 1.391 . S
C1724 C1725 1.400 . S
C1725 C1719 1.491 . S
C1725 C1724 1.400 . S
C1725 C1726 1.398 . S
C1726 H1714 0.950 . S
C1726 C1725 1.398 . S
C1726 C1727 1.391 . S
C1727 H1715 0.950 . S
C1727 C1723 1.393 . S
C1727 C1726 1.391 . S
C457 C215 1.455 . S
C463 C5 1.457 . S
C477 C19 1.460 . S
C483 C177 1.453 . S
C497 C33 1.457 . S
C503 C187 1.457 . S
C517 C205 1.451 . S
C523 C47 1.464 . S
C537 C61 1.457 . S
C543 C131 1.457 . S
C557 C75 1.463 . S
C563 C149 1.451 . S
C577 C159 1.458 . S
C583 C89 1.453 . S
C597 C121 1.455 . S
C603 C103 1.459 . S
C617 C229 1.453 . S
C623 C439 1.459 . S
C637 C243 1.461 . S
C643 C401 1.453 . S
C657 C257 1.457 . S
C663 C411 1.457 . S
C677 C429 1.458 . S
C683 C271 1.463 . S
C697 C285 1.456 . S
C703 C355 1.456 . S
C717 C299 1.460 . S
C723 C373 1.461 . S
C737 C383 1.459 . S
C743 C313 1.453 . S
C757 C327 1.462 . S
C763 C345 1.459 . S
C777 C168 1.382 . S
C783 C11 1.379 . S
C797 C25 1.391 . S
C803 C193 1.387 . S
C817 C196 1.381 . S
C823 C39 1.380 . S
C837 C53 1.385 . S
C843 C221 1.392 . S
C857 C67 1.385 . S
C863 C112 1.375 . S
C877 C137 1.385 . S
C883 C81 1.393 . S
C897 C140 1.374 . S
C903 C95 1.386 . S
C917 C165 1.385 . S
C923 C109 1.392 . S
C937 C235 1.377 . S
C943 C392 1.385 . S
C957 C417 1.391 . S
C963 C249 1.386 . S
C977 C263 1.387 . S
C983 C420 1.373 . S
C997 C277 1.382 . S
C1003 C445 1.394 . S
C1017 C336 1.381 . S
C1023 C291 1.380 . S
C1037 C305 1.387 . S
C1043 C361 1.391 . S
C1057 C319 1.377 . S
C1063 C364 1.385 . S
C1077 C333 1.392 . S
C1083 C389 1.385 . S
C1097 C9 1.311 . S
C1103 C145 1.307 . S
C1117 C163 1.289 . S
C1123 C23 1.305 . S
C1137 C37 1.297 . S
C1143 C117 1.318 . S
C1157 C135 1.289 . S
C1163 C51 1.305 . S
C1177 C201 1.306 . S
C1183 C65 1.314 . S
C1197 C219 1.290 . S
C1203 C79 1.304 . S
C1217 C173 1.314 . S
C1223 C93 1.307 . S
C1237 C107 1.302 . S
C1243 C191 1.292 . S
C1257 C369 1.312 . S
C1263 C233 1.303 . S
C1277 C247 1.305 . S
C1283 C387 1.290 . S
C1297 C341 1.319 . S
C1303 C261 1.297 . S
C1317 C359 1.297 . S
C1323 C275 1.298 . S
C1337 C289 1.302 . S
C1343 C425 1.313 . S
C1357 C303 1.301 . S
C1363 C443 1.293 . S
C1377 C397 1.306 . S
C1383 C317 1.315 . S
C1397 C415 1.303 . S
C1403 C331 1.291 . S
C1417 C322 1.285 . S
C1423 C0 1.283 . S
C1437 C280 1.285 . S
C1443 C14 1.278 . S
C1457 C294 1.288 . S
C1463 C28 1.279 . S
C1477 C308 1.291 . S
C1483 C42 1.275 . S
C1497 C238 1.275 . S
C1503 C56 1.291 . S
C1517 C70 1.290 . S
C1523 C252 1.276 . S
C1537 C84 1.291 . S
C1543 C266 1.275 . S
C1557 C98 1.278 . S
C1563 C224 1.285 . S
C1577 C123 1.159 . S
C1583 C434 1.163 . S
C1597 C403 1.161 . S
C1603 C126 1.169 . S
C1617 C151 1.161 . S
C1623 C406 1.169 . S
C1637 C154 1.156 . S
C1643 C431 1.163 . S
C1657 C350 1.169 . S
C1663 C179 1.159 . S
C1677 C375 1.158 . S
C1683 C182 1.169 . S
C1697 C207 1.171 . S
C1703 C378 1.155 . S
C1717 C210 1.168 . S
C1723 C347 1.158 . S
