# Generated by pormake.
# Topology snk, (6)-cn, num edge types: 1
# Building blocks:
#     Node 0, Type 0, BuildingBlock: BETGAK_clean_sbu_0, # of connection points: 6
#     Node 1, Type 0, BuildingBlock: BETGAK_clean_sbu_0, # of connection points: 6
#     Node 2, Type 0, BuildingBlock: BETGAK_clean_sbu_0, # of connection points: 6
#     Node 3, Type 0, BuildingBlock: BETGAK_clean_sbu_0, # of connection points: 6
#     Node 4, Type 0, BuildingBlock: BETGAK_clean_sbu_0, # of connection points: 6
#     Node 5, Type 0, BuildingBlock: BETGAK_clean_sbu_0, # of connection points: 6
#     Node 6, Type 0, BuildingBlock: BETGAK_clean_sbu_0, # of connection points: 6
#     Node 7, Type 0, BuildingBlock: BETGAK_clean_sbu_0, # of connection points: 6
#     Edge 8, Type (0, 0), BuildingBlock: TEMPAE_clean_linker_10, # of connection points: 2
#     Edge 9, Type (0, 0), BuildingBlock: TEMPAE_clean_linker_10, # of connection points: 2
#     Edge 10, Type (0, 0), BuildingBlock: TEMPAE_clean_linker_10, # of connection points: 2
#     Edge 11, Type (0, 0), BuildingBlock: TEMPAE_clean_linker_10, # of connection points: 2
#     Edge 12, Type (0, 0), BuildingBlock: TEMPAE_clean_linker_10, # of connection points: 2
#     Edge 13, Type (0, 0), BuildingBlock: TEMPAE_clean_linker_10, # of connection points: 2
#     Edge 14, Type (0, 0), BuildingBlock: TEMPAE_clean_linker_10, # of connection points: 2
#     Edge 15, Type (0, 0), BuildingBlock: TEMPAE_clean_linker_10, # of connection points: 2
#     Edge 16, Type (0, 0), BuildingBlock: TEMPAE_clean_linker_10, # of connection points: 2
#     Edge 17, Type (0, 0), BuildingBlock: TEMPAE_clean_linker_10, # of connection points: 2
#     Edge 18, Type (0, 0), BuildingBlock: TEMPAE_clean_linker_10, # of connection points: 2
#     Edge 19, Type (0, 0), BuildingBlock: TEMPAE_clean_linker_10, # of connection points: 2
#     Edge 20, Type (0, 0), BuildingBlock: TEMPAE_clean_linker_10, # of connection points: 2
#     Edge 21, Type (0, 0), BuildingBlock: TEMPAE_clean_linker_10, # of connection points: 2
#     Edge 22, Type (0, 0), BuildingBlock: TEMPAE_clean_linker_10, # of connection points: 2
#     Edge 23, Type (0, 0), BuildingBlock: TEMPAE_clean_linker_10, # of connection points: 2
#     Edge 24, Type (0, 0), BuildingBlock: TEMPAE_clean_linker_10, # of connection points: 2
#     Edge 25, Type (0, 0), BuildingBlock: TEMPAE_clean_linker_10, # of connection points: 2
#     Edge 26, Type (0, 0), BuildingBlock: TEMPAE_clean_linker_10, # of connection points: 2
#     Edge 27, Type (0, 0), BuildingBlock: TEMPAE_clean_linker_10, # of connection points: 2
#     Edge 28, Type (0, 0), BuildingBlock: TEMPAE_clean_linker_10, # of connection points: 2
#     Edge 29, Type (0, 0), BuildingBlock: TEMPAE_clean_linker_10, # of connection points: 2
#     Edge 30, Type (0, 0), BuildingBlock: TEMPAE_clean_linker_10, # of connection points: 2
#     Edge 31, Type (0, 0), BuildingBlock: TEMPAE_clean_linker_10, # of connection points: 2
# Relax obj value: 0.091
# Max RMSD: 0.154
# Mean RMSD: 0.124
data_MOF--net-snk--node1-BETGAK_clean_sbu_0--edge1-TEMPAE_clean_linker_10
_symmetry_space_group_name_H-M    P1
_symmetry_Int_Tables_number       1
_symmetry_cell_setting            triclinic
loop_
_symmetry_equiv_pos_as_xyz
'x, y, z'
_cell_length_a     38.12316
_cell_length_b     38.113131
_cell_length_c     25.579073
_cell_angle_alpha  83.851261
_cell_angle_beta   96.100882
_cell_angle_gamma 89.236855
loop_
_atom_site_label
_atom_site_type_symbol
_atom_site_fract_x
_atom_site_fract_y
_atom_site_fract_z
_atom_type_partial_charge
La0 La 0.99663 0.99665 0.46662 0.0
La1 La 0.02531 0.02039 0.57341 0.0
C2 C 0.96788 0.99436 0.37367 0.0
C3 C 0.97761 0.99632 0.31929 0.0
C4 C 0.96503 0.9708 0.28686 0.0
C5 C 0.97252 0.97272 0.2344 0.0
C6 C 0.99265 1.00034 0.21331 0.0
C7 C 1.00553 0.02575 0.24603 0.0
C8 C 0.99809 0.02375 0.29858 0.0
C9 C 0.05232 0.96074 0.51529 0.0
C10 C 0.05514 0.05638 0.47154 0.0
C11 C 0.05465 0.02249 0.66606 0.0
C12 C 0.04561 0.02095 0.72075 0.0
C13 C 0.06032 0.04547 0.75329 0.0
C14 C 0.05375 0.04374 0.80613 0.0
C15 C 0.03241 0.01728 0.82754 0.0
C16 C 0.01722 0.993 0.79458 0.0
C17 C 0.02377 0.99481 0.74162 0.0
C18 C 0.96973 0.05649 0.52495 0.0
C19 C 0.96647 0.96084 0.56814 0.0
O20 O 0.9791 0.96632 0.40542 0.0
O21 O 0.97066 0.02325 0.3971 0.0
O22 O 0.02889 0.94772 0.48287 0.0
O23 O 0.04584 0.99306 0.51495 0.0
O24 O 0.02966 0.04132 0.44291 0.0
O25 O 0.0616 0.04789 0.52338 0.0
O26 O 0.04361 0.05061 0.63436 0.0
O27 O 0.05109 0.99354 0.6429 0.0
O28 O 0.99306 0.06929 0.55778 0.0
O29 O 0.97616 0.02416 0.52505 0.0
O30 O 0.99195 0.97584 0.59694 0.0
O31 O 0.96013 0.96937 0.51631 0.0
H32 H 0.94899 0.94957 0.30198 0.0
H33 H 0.96187 0.95302 0.20999 0.0
H34 H 0.02141 0.04712 0.23101 0.0
H35 H 1.00806 0.04384 0.32274 0.0
H36 H 0.07723 0.06584 0.7379 0.0
H37 H 0.06538 0.06316 0.83024 0.0
H38 H 1.00094 0.9721 0.81 0.0
H39 H 1.01222 0.97547 0.71734 0.0
La40 La 0.25307 0.74775 0.81683 0.0
La41 La 0.27268 0.77858 0.70776 0.0
C42 C 0.25509 0.71728 0.90975 0.0
C43 C 0.25721 0.72595 0.96454 0.0
C44 C 0.24791 0.75969 0.97651 0.0
C45 C 0.24906 0.76673 0.02929 0.0
C46 C 0.2596 0.74015 0.07084 0.0
C47 C 0.2696 0.70665 0.0583 0.0
C48 C 0.26838 0.69965 1.00566 0.0
C49 C 0.21554 0.80373 0.77252 0.0
C50 C 0.31162 0.80736 0.80875 0.0
C51 C 0.26998 0.8092 0.61488 0.0
C52 C 0.26739 0.80017 0.56021 0.0
C53 C 0.27864 0.76701 0.54836 0.0
C54 C 0.27682 0.75956 0.49573 0.0
C55 C 0.26346 0.78508 0.45422 0.0
C56 C 0.25166 0.81801 0.46657 0.0
C57 C 0.25365 0.82547 0.51909 0.0
C58 C 0.31057 0.72288 0.75159 0.0
C59 C 0.21451 0.71834 0.71652 0.0
O60 O 0.22584 0.72662 0.87952 0.0
O61 O 0.2831 0.72369 0.88522 0.0
O62 O 0.20395 0.77999 0.80611 0.0
O63 O 0.24751 0.79735 0.76973 0.0
O64 O 0.29795 0.78107 0.83774 0.0
O65 O 0.30146 0.81454 0.75735 0.0
O66 O 0.29943 0.8 0.64472 0.0
O67 O 0.24219 0.80288 0.63997 0.0
O68 O 0.32171 0.7465 0.71738 0.0
O69 O 0.27857 0.72903 0.75492 0.0
O70 O 0.22799 0.74463 0.68714 0.0
O71 O 0.2249 0.71137 0.76781 0.0
H72 H 0.2394 0.78039 0.94514 0.0
H73 H 0.24098 0.79274 0.03756 0.0
H74 H 0.27851 0.6858 0.08922 0.0
H75 H 0.27597 0.67355 0.99704 0.0
H76 H 0.28902 0.74701 0.57971 0.0
H77 H 0.28568 0.7338 0.4875 0.0
H78 H 0.24155 0.83832 0.43554 0.0
H79 H 0.24477 0.85118 0.5276 0.0
La80 La 0.52556 0.99183 0.07462 0.0
La81 La 0.49915 0.02819 0.96663 0.0
C82 C 0.54758 0.97729 0.17138 0.0
C83 C 0.5399 0.98641 0.22417 0.0
C84 C 0.51496 0.96736 0.25174 0.0
C85 C 0.51008 0.9733 0.30351 0.0
C86 C 0.53018 0.99826 0.32942 0.0
C87 C 0.55457 0.01795 0.30148 0.0
C88 C 0.55948 0.01198 0.24954 0.0
C89 C 0.48071 0.95623 1.01652 0.0
C90 C 0.46189 0.04945 0.06125 0.0
C91 C 0.4756 0.041 0.87019 0.0
C92 C 0.48476 0.0339 0.81725 0.0
C93 C 0.51328 0.0503 0.79468 0.0
C94 C 0.51957 0.0456 0.74287 0.0
C95 C 0.49748 0.02447 0.7123 0.0
C96 C 0.46947 1.00746 0.73545 0.0
C97 C 0.46315 0.01221 0.78718 0.0
C98 C 0.54401 0.064 0.02423 0.0
C99 C 0.56385 0.97092 0.98051 0.0
O100 O 0.5239 0.95921 0.14557 0.0
O101 O 0.56129 1.00155 0.13989 0.0
O102 O 0.50673 0.94188 0.04872 0.0
O103 O 0.47926 0.98891 1.02009 0.0
O104 O 0.48855 0.03292 0.09217 0.0
O105 O 0.45747 0.04704 1.00969 0.0
O106 O 0.49559 0.06243 0.89618 0.0
O107 O 0.46621 0.014 0.9013 0.0
O108 O 0.51806 0.0783 0.99166 0.0
O109 O 0.54547 0.03124 1.02104 0.0
O110 O 0.53947 0.99029 0.94861 0.0
O111 O 0.566 0.97013 0.03261 0.0
H112 H 0.49958 0.94725 0.23374 0.0
H113 H 0.49067 0.95807 0.32344 0.0
H114 H 0.57072 0.03717 0.32033 0.0
H115 H 0.57923 0.02682 0.22975 0.0
H116 H 0.53037 0.06738 0.81656 0.0
H117 H 0.54116 0.0594 0.72625 0.0
H118 H 0.45226 0.99053 0.71349 0.0
H119 H 0.44091 0.99932 0.80341 0.0
La120 La 0.24143 0.2727 0.21296 0.0
La121 La 0.27685 0.24504 0.32155 0.0
C122 C 0.22791 0.29584 0.11641 0.0
C123 C 0.23905 0.29028 0.0641 0.0
C124 C 0.245 0.25629 0.04972 0.0
C125 C 0.25151 0.25165 0.99791 0.0
C126 C 0.25234 0.28089 0.95935 0.0
C127 C 0.24782 0.31492 0.97472 0.0
C128 C 0.24116 0.31951 0.02639 0.0
C129 C 0.20529 0.22725 0.26904 0.0
C130 C 0.29924 0.20927 0.22639 0.0
C131 C 0.28877 0.22064 0.41785 0.0
C132 C 0.28382 0.23055 0.47126 0.0
C133 C 0.31354 0.23313 0.50799 0.0
C134 C 0.30977 0.24016 0.55975 0.0
C135 C 0.2761 0.24456 0.57631 0.0
C136 C 0.2463 0.24231 0.53933 0.0
C137 C 0.25008 0.23543 0.48738 0.0
C138 C 0.31293 0.29099 0.26607 0.0
C139 C 0.21983 0.30998 0.30806 0.0
O140 O 0.21112 0.27013 0.14026 0.0
O141 O 0.25045 0.31038 0.1494 0.0
O142 O 0.19121 0.25345 0.23687 0.0
O143 O 0.2381 0.22588 0.26644 0.0
O144 O 0.28352 0.23663 0.19601 0.0
O145 O 0.29564 0.20382 0.27757 0.0
O146 O 0.31161 0.23859 0.39176 0.0
O147 O 0.2606 0.2138 0.38696 0.0
O148 O 0.32718 0.26506 0.29874 0.0
O149 O 0.28008 0.29186 0.26828 0.0
O150 O 0.23953 0.28573 0.33973 0.0
O151 O 0.21866 0.3122 0.25584 0.0
H152 H 0.24365 0.23323 0.07808 0.0
H153 H 0.25466 0.22503 0.98767 0.0
H154 H 0.24905 0.33812 0.94663 0.0
H155 H 0.23682 0.34598 0.03659 0.0
H156 H 0.33982 0.2291 0.49689 0.0
H157 H 0.33329 0.24123 0.58724 0.0
H158 H 0.21999 0.24593 0.55052 0.0
H159 H 0.22658 0.23356 0.46014 0.0
La160 La 0.75137 0.24382 0.32665 0.0
La161 La 0.77513 0.27399 0.22031 0.0
C162 C 0.74934 0.21485 0.4198 0.0
C163 C 0.75218 0.22383 0.47458 0.0
C164 C 0.74484 0.25812 0.48641 0.0
C165 C 0.74627 0.26535 0.53917 0.0
C166 C 0.75512 0.23841 0.5809 0.0
C167 C 0.76329 0.20436 0.5685 0.0
C168 C 0.7618 0.19718 0.5159 0.0
C169 C 0.71436 0.29804 0.2766 0.0
C170 C 0.81047 0.30357 0.32255 0.0
C171 C 0.77534 0.30415 0.12763 0.0
C172 C 0.76916 0.29533 0.07275 0.0
C173 C 0.77777 0.26171 0.05944 0.0
C174 C 0.77423 0.25485 1.00647 0.0
C175 C 0.7618 0.2814 0.96592 0.0
C176 C 0.75211 0.31466 0.97973 0.0
C177 C 0.75583 0.32155 0.03264 0.0
C178 C 0.81193 0.21879 0.26864 0.0
C179 C 0.7168 0.21353 0.22473 0.0
O180 O 0.72146 0.22716 0.38857 0.0
O181 O 0.77813 0.21743 0.39618 0.0
O182 O 0.70116 0.27339 0.30689 0.0
O183 O 0.74704 0.2932 0.27897 0.0
O184 O 0.79478 0.27831 0.35085 0.0
O185 O 0.8031 0.30972 0.2705 0.0
O186 O 0.80339 0.28965 0.15625 0.0
O187 O 0.74782 0.30406 0.15424 0.0
O188 O 0.82477 0.2428 0.23671 0.0
O189 O 0.77947 0.22459 0.26799 0.0
O190 O 0.73146 0.23955 0.19636 0.0
O191 O 0.7253 0.20685 0.27657 0.0
H192 H 0.73756 0.27911 0.45494 0.0
H193 H 0.73965 0.29181 0.54727 0.0
H194 H 0.77091 0.18318 0.59952 0.0
H195 H 0.76788 0.17064 0.50745 0.0
H196 H 0.78777 0.24095 0.08986 0.0
H197 H 0.78138 0.2288 0.99721 0.0
H198 H 0.74267 0.33574 0.9495 0.0
H199 H 0.74896 0.34763 0.04216 0.0
La200 La 0.7434 0.77064 0.72005 0.0
La201 La 0.78077 0.74508 0.82792 0.0
C202 C 0.72719 0.79206 0.6234 0.0
C203 C 0.73568 0.78542 0.57002 0.0
C204 C 0.70814 0.77709 0.53283 0.0
C205 C 0.71439 0.7725 0.48112 0.0
C206 C 0.74839 0.77637 0.46493 0.0
C207 C 0.77621 0.78413 0.50252 0.0
C208 C 0.76992 0.78866 0.55455 0.0
C209 C 0.70873 0.72576 0.77971 0.0
C210 C 0.80175 0.70783 0.73307 0.0
C211 C 0.79494 0.72229 0.92456 0.0
C212 C 0.78852 0.73159 0.97781 0.0
C213 C 0.81604 0.74505 1.01034 0.0
C214 C 0.81149 0.75139 0.06214 0.0
C215 C 0.77934 0.74417 0.08302 0.0
C216 C 0.75164 0.73103 0.05027 0.0
C217 C 0.75617 0.72477 0.99835 0.0
C218 C 0.81597 0.78946 0.7687 0.0
C219 C 0.72308 0.80943 0.81401 0.0
O220 O 0.71085 0.76699 0.6494 0.0
O221 O 0.75098 0.80682 0.65428 0.0
O222 O 0.69394 0.7515 0.74739 0.0
O223 O 0.74132 0.72458 0.77549 0.0
O224 O 0.78489 0.73432 0.70222 0.0
O225 O 0.79962 0.70341 0.78474 0.0
O226 O 0.81555 0.74283 0.89782 0.0
O227 O 0.76804 0.71206 0.89409 0.0
O228 O 0.83051 0.76382 0.80163 0.0
O229 O 0.78326 0.791 0.77241 0.0
O230 O 0.74283 0.78536 0.84596 0.0
O231 O 0.72174 0.81116 0.76189 0.0
H232 H 0.68151 0.77445 0.54369 0.0
H233 H 0.69245 0.76584 0.45376 0.0
H234 H 0.80268 0.78754 0.49143 0.0
H235 H 0.79173 0.79513 0.58231 0.0
H236 H 0.84146 0.75004 0.99607 0.0
H237 H 0.83356 0.76102 0.08635 0.0
H238 H 0.7264 0.72552 0.0648 0.0
H239 H 0.73444 0.7141 0.97464 0.0
La240 La 0.50134 0.4953 0.97127 0.0
La241 La 0.51906 0.52683 0.07636 0.0
C242 C 0.47413 0.47879 0.88332 0.0
C243 C 0.4832 0.47688 0.82906 0.0
C244 C 0.51634 0.46454 0.81848 0.0
C245 C 0.52416 0.4646 0.76607 0.0
C246 C 0.49911 0.47736 0.72357 0.0
C247 C 0.46594 0.48937 0.73461 0.0
C248 C 0.4581 0.48909 0.78673 0.0
C249 C 0.55877 0.46941 0.02994 0.0
C250 C 0.55898 0.5534 0.9793 0.0
C251 C 0.53494 0.53863 0.17092 0.0
C252 C 0.53243 0.52209 0.22559 0.0
C253 C 0.50049 0.52331 0.24835 0.0
C254 C 0.49922 0.512 0.3019 0.0
C255 C 0.52982 0.49905 0.33425 0.0
C256 C 0.5615 0.4966 0.31097 0.0
C257 C 0.56282 0.50819 0.25736 0.0
C258 C 0.47572 0.56484 1.00465 0.0
C259 C 0.46212 0.46639 0.07019 0.0
O260 O 0.48912 0.45576 0.92123 0.0
O261 O 0.47275 0.51064 0.89779 0.0
O262 O 0.55477 0.47172 0.97869 0.0
O263 O 0.53047 0.4789 0.04572 0.0
O264 O 0.53357 0.54002 0.9485 0.0
O265 O 0.5617 0.54695 0.03161 0.0
O266 O 0.50528 0.54924 0.14259 0.0
O267 O 0.55714 0.52444 0.14283 0.0
O268 O 0.49843 0.57811 0.03783 0.0
O269 O 0.47679 0.53182 1.01412 0.0
O270 O 0.48222 0.48625 0.10005 0.0
O271 O 0.46397 0.46692 1.0186 0.0
H272 H 0.53626 0.45529 0.85058 0.0
H273 H 0.55002 0.45542 0.75882 0.0
H274 H 0.4459 0.49892 0.70284 0.0
H275 H 0.43241 0.4988 0.79405 0.0
H276 H 0.47657 0.53417 0.22533 0.0
H277 H 0.47445 0.51487 0.31837 0.0
H278 H 0.58548 0.4863 0.33439 0.0
H279 H 0.58787 0.50713 0.2411 0.0
La280 La 0.02719 0.4914 0.57856 0.0
La281 La 0.99812 0.52551 0.47002 0.0
C282 C 0.05098 0.47971 0.67507 0.0
C283 C 0.04374 0.49023 0.72724 0.0
C284 C 1.01112 0.4838 0.74707 0.0
C285 C 1.00614 0.49029 0.7987 0.0
C286 C 0.0336 0.50348 0.83186 0.0
C287 C 0.06581 0.51105 0.81119 0.0
C288 C 0.07082 0.50441 0.7596 0.0
C289 C 0.98153 0.45416 0.5246 0.0
C290 C 0.96242 0.54778 0.56532 0.0
C291 C 0.97288 0.53573 0.37399 0.0
C292 C 0.98261 0.52982 0.3209 0.0
C293 C 0.01393 0.54276 0.30238 0.0
C294 C 0.02107 0.53906 0.25055 0.0
C295 C 0.99718 0.52222 0.21612 0.0
C296 C 0.96629 0.50856 0.23528 0.0
C297 C 0.95909 0.5124 0.28697 0.0
C298 C 0.04347 0.56309 0.52378 0.0
C299 C 0.06399 0.46955 0.48341 0.0
O300 O 0.02757 0.4603 0.65129 0.0
O301 O 0.06354 0.50366 0.64181 0.0
O302 O 1.00818 0.4406 0.55632 0.0
O303 O 0.97994 0.48703 0.52651 0.0
O304 O 0.99001 0.53246 0.59559 0.0
O305 O 0.95686 0.54399 0.51423 0.0
O306 O 0.99039 0.55929 0.39915 0.0
O307 O 0.96684 0.50766 0.40567 0.0
O308 O 0.01697 0.5765 0.49148 0.0
O309 O 0.04524 0.53017 0.52213 0.0
O310 O 0.03915 0.48853 0.45189 0.0
O311 O 0.06683 0.4691 0.53555 0.0
H312 H 0.98964 0.47285 0.72325 0.0
H313 H 0.9811 0.48379 0.81319 0.0
H314 H 0.08736 0.52183 0.83506 0.0
H315 H 0.09621 0.50966 0.74536 0.0
H316 H 0.03272 0.55615 0.32764 0.0
H317 H 0.04535 0.54943 0.23741 0.0
H318 H 0.94712 0.49574 0.20984 0.0
H319 H 0.93471 0.50229 0.30017 0.0
C320 C 0.10071 0.1034 0.47233 0.0
C321 C 0.07871 0.08113 0.44402 0.0
C322 C 0.1227 0.12727 0.44636 0.0
C323 C 0.12303 0.12859 0.39084 0.0
C324 C 0.10128 0.10577 0.36223 0.0
C325 C 0.07929 0.08252 0.38909 0.0
C326 C 0.14513 0.1515 0.47817 0.0
C327 C 0.10107 0.10602 0.30311 0.0
C328 C 0.15074 0.21151 0.31081 0.0
C329 C 0.18529 0.20251 0.30241 0.0
C330 C 0.13059 0.1881 0.34078 0.0
C331 C 0.14516 0.15459 0.3622 0.0
C332 C 0.18029 0.14556 0.3544 0.0
C333 C 0.20005 0.16977 0.32484 0.0
C334 C 0.09349 0.19904 0.34883 0.0
C335 C 0.19667 0.11001 0.37613 0.0
H336 H 0.10037 0.1026 0.51476 0.0
H337 H 0.06274 0.06516 0.36692 0.0
H338 H 0.1733 0.14801 0.47219 0.0
H339 H 0.13743 0.1794 0.46431 0.0
H340 H 0.14247 0.14668 0.52116 0.0
H341 H 0.08355 0.08578 0.28698 0.0
H342 H 0.09204 0.13234 0.28306 0.0
H343 H 0.1282 0.10117 0.29311 0.0
H344 H 0.13938 0.23697 0.29384 0.0
H345 H 0.22676 0.16276 0.31825 0.0
H346 H 0.09016 0.19627 0.39163 0.0
H347 H 0.07433 0.18146 0.32966 0.0
H348 H 0.08681 0.22674 0.33217 0.0
H349 H 0.19553 0.10555 0.41948 0.0
H350 H 0.22461 0.10749 0.36807 0.0
H351 H 0.18147 0.08884 0.35824 0.0
C352 C 0.08505 0.90427 0.54726 0.0
C353 C 0.08057 0.94052 0.54975 0.0
C354 C 0.10976 0.8842 0.58323 0.0
C355 C 0.12884 0.90057 0.62421 0.0
C356 C 0.12499 0.93737 0.62595 0.0
C357 C 0.10203 0.95714 0.58704 0.0
C358 C 0.11489 0.84542 0.57803 0.0
C359 C 0.14347 0.95554 0.67044 0.0
C360 C 0.15816 0.83576 0.74407 0.0
C361 C 0.19415 0.83172 0.73926 0.0
C362 C 0.13695 0.85992 0.70869 0.0
C363 C 0.15189 0.87884 0.66606 0.0
C364 C 0.18849 0.8756 0.66219 0.0
C365 C 0.20944 0.85323 0.70045 0.0
C366 C 0.09843 0.86445 0.71607 0.0
C367 C 0.20516 0.89382 0.61591 0.0
H368 H 0.06907 0.89154 0.51748 0.0
H369 H 0.0998 0.98548 0.5872 0.0
H370 H 0.14344 0.83845 0.58056 0.0
H371 H 0.1039 0.8294 0.61096 0.0
H372 H 0.1017 0.83795 0.5401 0.0
H373 H 0.13778 0.98445 0.66556 0.0
H374 H 0.13478 0.94418 0.7086 0.0
H375 H 0.17241 0.95104 0.67312 0.0
H376 H 0.14648 0.81976 0.77502 0.0
H377 H 0.23762 0.8513 0.6984 0.0
H378 H 0.08192 0.85227 0.68487 0.0
H379 H 0.09083 0.8929 0.71229 0.0
H380 H 0.0923 0.85196 0.75521 0.0
H381 H 0.19357 0.8838 0.57885 0.0
H382 H 0.23421 0.88923 0.61973 0.0
H383 H 0.19957 0.92264 0.61175 0.0
C384 C 0.3387 0.83049 0.89135 0.0
C385 C 0.33637 0.83103 0.83612 0.0
C386 C 0.36178 0.85252 0.91835 0.0
C387 C 0.38367 0.87538 0.88967 0.0
C388 C 0.38147 0.87616 0.83388 0.0
C389 C 0.35764 0.85418 0.80771 0.0
C390 C 0.36285 0.85117 0.97774 0.0
C391 C 0.40474 0.89975 0.80196 0.0
C392 C 0.42362 0.95138 0.9596 0.0
C393 C 0.45655 0.93677 0.98143 0.0
C394 C 0.39987 0.93204 0.92861 0.0
C395 C 0.40954 0.89752 0.91863 0.0
C396 C 0.44333 0.88323 0.93918 0.0
C397 C 0.46625 0.9029 0.97072 0.0
C398 C 0.364 0.9481 0.90801 0.0
C399 C 0.45501 0.84684 0.92879 0.0
H400 H 0.32218 0.81298 0.91372 0.0
H401 H 0.35611 0.8547 0.76508 0.0
H402 H 0.38941 0.84206 0.99666 0.0
H403 H 0.358 0.87797 0.98907 0.0
H404 H 0.34298 0.83318 0.9939 0.0
H405 H 0.39928 0.89793 0.75882 0.0
H406 H 0.40094 0.92762 0.80936 0.0
H407 H 0.43287 0.89238 0.8145 0.0
H408 H 0.41606 0.97756 0.96793 0.0
H409 H 0.49186 0.89168 0.98715 0.0
H410 H 0.34324 0.93224 0.92592 0.0
H411 H 0.3592 0.9476 0.86456 0.0
H412 H 0.36114 0.97578 0.91709 0.0
H413 H 0.48304 0.8407 0.94407 0.0
H414 H 0.45159 0.84444 0.88571 0.0
H415 H 0.43832 0.82672 0.94793 0.0
C416 C 0.40176 0.07704 0.06423 0.0
C417 C 0.43718 0.07198 0.08537 0.0
C418 C 0.37834 0.09817 0.08736 0.0
C419 C 0.39083 0.11571 0.13169 0.0
C420 C 0.42675 0.11103 0.15264 0.0
C421 C 0.44926 0.08886 0.12981 0.0
C422 C 0.34012 0.10156 0.06455 0.0
C423 C 0.44163 0.12996 0.19867 0.0
C424 C 0.33918 0.19755 0.15802 0.0
C425 C 0.32216 0.18498 0.20213 0.0
C426 C 0.3617 0.17545 0.13508 0.0
C427 C 0.36662 0.13945 0.15558 0.0
C428 C 0.34891 0.12644 0.19951 0.0
C429 C 0.32739 0.14945 0.22275 0.0
C430 C 0.38075 0.19087 0.08945 0.0
C431 C 0.35253 0.08811 0.22179 0.0
H432 H 0.39219 0.06392 0.03011 0.0
H433 H 0.47668 0.0854 0.14607 0.0
H434 H 0.32285 0.09388 0.09596 0.0
H435 H 0.33336 0.12943 0.04928 0.0
H436 H 0.33412 0.08486 0.03186 0.0
H437 H 0.47029 0.12424 0.20949 0.0
H438 H 0.43748 0.15889 0.18875 0.0
H439 H 0.42759 0.12212 0.23375 0.0
H440 H 0.33556 0.22504 0.14209 0.0
H441 H 0.31415 0.13947 0.25657 0.0
H442 H 0.37325 0.17702 0.05409 0.0
H443 H 0.40967 0.18695 0.09961 0.0
H444 H 0.37479 0.21953 0.07896 0.0
H445 H 0.34527 0.07102 0.19001 0.0
H446 H 0.33565 0.08167 0.25416 0.0
H447 H 0.38038 0.08153 0.23735 0.0
C448 C 0.94204 0.93429 0.6502 0.0
C449 C 0.94277 0.93604 0.59526 0.0
C450 C 0.91982 0.91099 0.67652 0.0
C451 C 0.89802 0.88848 0.64736 0.0
C452 C 0.89851 0.89016 0.59185 0.0
C453 C 0.92071 0.91407 0.56643 0.0
C454 C 0.91986 0.91032 0.73567 0.0
C455 C 0.87607 0.86625 0.55946 0.0
C456 C 0.87016 0.80515 0.7261 0.0
C457 C 0.83566 0.81413 0.73478 0.0
C458 C 0.89031 0.82868 0.69635 0.0
C459 C 0.87579 0.8623 0.67543 0.0
C460 C 0.84063 0.87124 0.68323 0.0
C461 C 0.82085 0.84689 0.71253 0.0
C462 C 0.92739 0.81779 0.68816 0.0
C463 C 0.82429 0.90689 0.66194 0.0
H464 H 0.95866 0.95138 0.67276 0.0
H465 H 0.92117 0.91514 0.524 0.0
H466 H 0.89268 0.91503 0.74558 0.0
H467 H 0.92888 0.88391 0.75537 0.0
H468 H 0.93731 0.93046 0.75223 0.0
H469 H 0.87877 0.87144 0.51652 0.0
H470 H 0.88372 0.83827 0.57281 0.0
H471 H 0.84789 0.86968 0.56544 0.0
H472 H 0.88153 0.77965 0.74285 0.0
H473 H 0.79417 0.85387 0.71929 0.0
H474 H 0.94658 0.83509 0.7079 0.0
H475 H 0.93081 0.82101 0.64539 0.0
H476 H 0.93396 0.78994 0.70418 0.0
H477 H 0.83934 0.92789 0.68051 0.0
H478 H 0.79627 0.90926 0.66966 0.0
H479 H 0.82571 0.91174 0.61869 0.0
C480 C 0.92024 0.06104 0.45268 0.0
C481 C 0.94154 0.07702 0.49088 0.0
C482 C 0.89773 0.08143 0.41387 0.0
C483 C 0.89411 0.11815 0.4167 0.0
C484 C 0.91277 0.13375 0.45882 0.0
C485 C 0.9371 0.11313 0.49461 0.0
C486 C 0.87974 0.06407 0.36817 0.0
C487 C 0.90779 0.17238 0.46527 0.0
C488 C 0.86832 0.18541 0.29865 0.0
C489 C 0.83217 0.18997 0.30179 0.0
C490 C 0.88838 0.16017 0.33372 0.0
C491 C 0.87215 0.14071 0.37456 0.0
C492 C 0.8354 0.14452 0.37671 0.0
C493 C 0.8156 0.16795 0.33854 0.0
C494 C 0.9271 0.15509 0.32802 0.0
C495 C 0.81737 0.12582 0.42124 0.0
H496 H 0.92232 0.03276 0.45172 0.0
H497 H 0.9529 0.12536 0.52516 0.0
H498 H 0.85093 0.06973 0.36348 0.0
H499 H 0.88998 0.07511 0.33097 0.0
H500 H 0.88433 0.035 0.37306 0.0
H501 H 0.92009 0.17902 0.50422 0.0
H502 H 0.91987 0.18876 0.43378 0.0
H503 H 0.87927 0.17971 0.46126 0.0
H504 H 0.88099 0.20178 0.26918 0.0
H505 H 0.7873 0.17019 0.33904 0.0
H506 H 0.93425 0.12655 0.33125 0.0
H507 H 0.94323 0.16661 0.36029 0.0
H508 H 0.9342 0.16792 0.28962 0.0
H509 H 0.82292 0.097 0.42504 0.0
H510 H 0.78832 0.13052 0.41567 0.0
H511 H 0.82792 0.13541 0.45915 0.0
C512 C 0.67019 0.16758 0.2256 0.0
C513 C 0.69212 0.18994 0.19712 0.0
C514 C 0.64613 0.14574 0.19975 0.0
C515 C 0.64429 0.14584 0.14412 0.0
C516 C 0.66682 0.16789 0.1153 0.0
C517 C 0.69021 0.18985 0.14204 0.0
C518 C 0.62218 0.12309 0.23183 0.0
C519 C 0.66607 0.16847 0.05607 0.0
C520 C 0.60202 0.06902 0.07876 0.0
C521 C 0.56915 0.08389 0.05716 0.0
C522 C 0.62668 0.08873 0.10759 0.0
C523 C 0.61797 0.12389 0.11569 0.0
C524 C 0.58433 0.13855 0.09521 0.0
C525 C 0.56048 0.11848 0.06582 0.0
C526 C 0.66235 0.07223 0.12828 0.0
C527 C 0.57365 0.17563 0.10378 0.0
H528 H 0.67133 0.16759 0.26812 0.0
H529 H 0.70718 0.20683 0.11968 0.0
H530 H 0.59423 0.13091 0.21868 0.0
H531 H 0.62549 0.09498 0.22531 0.0
H532 H 0.62741 0.12539 0.27487 0.0
H533 H 0.68643 0.18579 0.03981 0.0
H534 H 0.67039 0.14136 0.04554 0.0
H535 H 0.63977 0.17797 0.03659 0.0
H536 H 0.60879 0.04228 0.072 0.0
H537 H 0.53494 0.12993 0.04954 0.0
H538 H 0.66723 0.07301 0.17166 0.0
H539 H 0.68333 0.0876 0.11011 0.0
H540 H 0.66475 0.0444 0.11966 0.0
H541 H 0.57685 0.17878 0.14664 0.0
H542 H 0.54586 0.18242 0.08778 0.0
H543 H 0.59109 0.19483 0.08432 0.0
C544 C 0.71459 0.85137 0.88118 0.0
C545 C 0.70091 0.83455 0.83759 0.0
C546 C 0.69352 0.87496 0.90405 0.0
C547 C 0.65742 0.88065 0.88444 0.0
C548 C 0.64341 0.86313 0.84091 0.0
C549 C 0.6655 0.84093 0.81736 0.0
C550 C 0.70997 0.89398 0.949 0.0
C551 C 0.60485 0.8671 0.82001 0.0
C552 C 0.59566 0.91334 0.97833 0.0
C553 C 0.58875 0.94848 0.95695 0.0
C554 C 0.61751 0.89092 0.95478 0.0
C555 C 0.63413 0.90432 0.90997 0.0
C556 C 0.6279 0.94016 0.88914 0.0
C557 C 0.60467 0.96155 0.91212 0.0
C558 C 0.62206 0.85262 0.97706 0.0
C559 C 0.64595 0.95599 0.84273 0.0
H560 H 0.742 0.84654 0.89679 0.0
H561 H 0.65474 0.82756 0.78411 0.0
H562 H 0.70516 0.92287 0.93967 0.0
H563 H 0.69759 0.8857 0.98552 0.0
H564 H 0.73887 0.88866 0.95713 0.0
H565 H 0.59778 0.85068 0.78728 0.0
H566 H 0.58831 0.8594 0.85237 0.0
H567 H 0.59814 0.89508 0.80543 0.0
H568 H 0.58296 0.90303 1.01253 0.0
H569 H 0.5994 0.98874 0.89558 0.0
H570 H 0.65023 0.84627 0.99067 0.0
H571 H 0.61387 0.83545 0.94573 0.0
H572 H 0.60634 0.84601 1.01079 0.0
H573 H 0.67493 0.95149 0.85101 0.0
H574 H 0.64033 0.98481 0.83365 0.0
H575 H 0.63713 0.94292 0.80709 0.0
C576 C 0.60561 0.5995 0.98313 0.0
C577 C 0.58438 0.57712 0.95384 0.0
C578 C 0.62802 0.62354 0.95831 0.0
C579 C 0.62951 0.62496 0.90299 0.0
C580 C 0.60892 0.60169 0.87358 0.0
C581 C 0.58654 0.57825 0.89924 0.0
C582 C 0.64931 0.64814 0.99097 0.0
C583 C 0.60997 0.60201 0.81466 0.0
C584 C 0.65484 0.70874 0.82257 0.0
C585 C 0.68962 0.70074 0.81407 0.0
C586 C 0.63547 0.68483 0.85306 0.0
C587 C 0.65111 0.65188 0.87507 0.0
C588 C 0.68654 0.64399 0.86751 0.0
C589 C 0.70545 0.66861 0.83723 0.0
C590 C 0.59795 0.69454 0.86064 0.0
C591 C 0.70411 0.6091 0.88998 0.0
H592 H 0.60407 0.59891 0.02528 0.0
H593 H 0.57051 0.56088 0.87625 0.0
H594 H 0.6776 0.64619 0.98478 0.0
H595 H 0.64032 0.67582 0.97806 0.0
H596 H 0.64681 0.64239 0.0339 0.0
H597 H 0.59393 0.58087 0.79807 0.0
H598 H 0.59984 0.62787 0.79421 0.0
H599 H 0.63757 0.59863 0.80567 0.0
H600 H 0.64264 0.73371 0.80504 0.0
H601 H 0.73233 0.66235 0.83058 0.0
H602 H 0.5943 0.69142 0.90333 0.0
H603 H 0.57955 0.67646 0.84102 0.0
H604 H 0.59052 0.7221 0.84408 0.0
H605 H 0.70213 0.6044 0.9331 0.0
H606 H 0.73239 0.60785 0.88324 0.0
H607 H 0.69034 0.58736 0.87139 0.0
C608 C 0.70878 0.35648 0.22324 0.0
C609 C 0.69398 0.32414 0.23882 0.0
C610 C 0.68952 0.38181 0.18731 0.0
C611 C 0.65524 0.37391 0.16547 0.0
C612 C 0.64077 0.34066 0.17982 0.0
C613 C 0.66016 0.31634 0.21717 0.0
C614 C 0.70537 0.41732 0.17398 0.0
C615 C 0.60465 0.33093 0.15621 0.0
C616 C 0.58569 0.44501 0.11906 0.0
C617 C 0.58629 0.44796 0.06414 0.0
C618 C 0.60935 0.42233 0.15262 0.0
C619 C 0.63335 0.40113 0.13048 0.0
C620 C 0.63455 0.40435 0.07502 0.0
C621 C 0.61119 0.42817 0.0424 0.0
C622 C 0.60784 0.42024 0.21167 0.0
C623 C 0.6592 0.38139 0.05006 0.0
H624 H 0.73512 0.36223 0.24012 0.0
H625 H 0.64912 0.29096 0.22878 0.0
H626 H 0.70546 0.42305 0.13057 0.0
H627 H 0.68902 0.43831 0.18716 0.0
H628 H 0.73282 0.41878 0.19304 0.0
H629 H 0.59868 0.30292 0.16793 0.0
H630 H 0.58419 0.34796 0.1693 0.0
H631 H 0.60267 0.3355 0.1124 0.0
H632 H 0.56598 0.45965 0.13589 0.0
H633 H 0.61142 0.43021 0.99984 0.0
H634 H 0.59985 0.39353 0.22692 0.0
H635 H 0.58888 0.43989 0.22252 0.0
H636 H 0.63436 0.42469 0.23193 0.0
H637 H 0.68667 0.38303 0.06869 0.0
H638 H 0.65866 0.38888 1.00679 0.0
H639 H 0.65154 0.35341 0.0568 0.0
C640 C 0.92363 0.44824 0.47026 0.0
C641 C 0.95653 0.43369 0.49233 0.0
C642 C 0.89933 0.42828 0.44124 0.0
C643 C 0.9084 0.39313 0.43355 0.0
C644 C 0.94199 0.37869 0.45482 0.0
C645 C 0.9655 0.39904 0.4843 0.0
C646 C 0.86371 0.44455 0.41969 0.0
C647 C 0.953 0.3416 0.44684 0.0
C648 C 0.83645 0.32717 0.40564 0.0
C649 C 0.83512 0.32699 0.35061 0.0
C650 C 0.85964 0.34906 0.43287 0.0
C651 C 0.88251 0.37102 0.40461 0.0
C652 C 0.88129 0.37103 0.34905 0.0
C653 C 0.85746 0.34921 0.3227 0.0
C654 C 0.85974 0.34856 0.492 0.0
C655 C 0.90557 0.39366 0.31755 0.0
H656 H 0.91662 0.47501 0.47656 0.0
H657 H 0.99106 0.38782 0.501 0.0
H658 H 0.85944 0.44388 0.37624 0.0
H659 H 0.84259 0.42897 0.4371 0.0
H660 H 0.86094 0.47234 0.42837 0.0
H661 H 0.98062 0.33489 0.46379 0.0
H662 H 0.9353 0.3224 0.46571 0.0
H663 H 0.95048 0.33836 0.40402 0.0
H664 H 0.81916 0.31032 0.42761 0.0
H665 H 0.85675 0.34917 0.28023 0.0
H666 H 0.85509 0.37566 0.5023 0.0
H667 H 0.88595 0.33923 0.51209 0.0
H668 H 0.83931 0.33114 0.50782 0.0
H669 H 0.90195 0.4218 0.32368 0.0
H670 H 0.90093 0.39115 0.27451 0.0
H671 H 0.93345 0.38601 0.33157 0.0
C672 C 0.83069 0.64827 0.73038 0.0
C673 C 0.82444 0.68346 0.70864 0.0
C674 C 0.85193 0.62518 0.7068 0.0
C675 C 0.86827 0.63782 0.66132 0.0
C676 C 0.86234 0.6735 0.63971 0.0
C677 C 0.84016 0.69565 0.6631 0.0
C678 C 0.85672 0.58718 0.73039 0.0
C679 C 0.87996 0.68854 0.59237 0.0
C680 C 0.95074 0.58828 0.63279 0.0
C681 C 0.93798 0.57039 0.58973 0.0
C682 C 0.92849 0.61043 0.65606 0.0
C683 C 0.89218 0.61407 0.637 0.0
C684 C 0.87901 0.59553 0.59406 0.0
C685 C 0.90216 0.57441 0.57041 0.0
C686 C 0.94403 0.63043 0.70052 0.0
C687 C 0.84039 0.59784 0.57332 0.0
H688 H 0.81847 0.6386 0.76533 0.0
H689 H 0.83577 0.7229 0.64633 0.0
H690 H 0.84903 0.56939 0.69971 0.0
H691 H 0.8849 0.58133 0.74463 0.0
H692 H 0.8408 0.58097 0.764 0.0
H693 H 0.87316 0.71695 0.58092 0.0
H694 H 0.90904 0.68544 0.60116 0.0
H695 H 0.87205 0.67383 0.55805 0.0
H696 H 0.97847 0.58562 0.64763 0.0
H697 H 0.89207 0.56049 0.53739 0.0
H698 H 0.9311 0.62279 0.73674 0.0
H699 H 0.93907 0.65919 0.68978 0.0
H700 H 0.97292 0.62547 0.70985 0.0
H701 H 0.8241 0.59029 0.60603 0.0
H702 H 0.83395 0.58049 0.54158 0.0
H703 H 0.83278 0.62542 0.55741 0.0
C704 C 0.31663 0.34826 0.20918 0.0
C705 C 0.33276 0.31668 0.23395 0.0
C706 C 0.33584 0.37326 0.18014 0.0
C707 C 0.37199 0.3664 0.17579 0.0
C708 C 0.38815 0.33419 0.20002 0.0
C709 C 0.36836 0.30979 0.22894 0.0
C710 C 0.31767 0.40729 0.15502 0.0
C711 C 0.42653 0.3257 0.19606 0.0
C712 C 0.41852 0.41743 0.06793 0.0
C713 C 0.43754 0.44193 0.09621 0.0
C714 C 0.39655 0.39312 0.09303 0.0
C715 C 0.3934 0.39335 0.14768 0.0
C716 C 0.41193 0.41848 0.17616 0.0
C717 C 0.43377 0.44237 0.15017 0.0
C718 C 0.37731 0.36666 0.06134 0.0
C719 C 0.40922 0.41975 0.23442 0.0
H720 H 0.28915 0.35375 0.21334 0.0
H721 H 0.38085 0.28528 0.24784 0.0
H722 H 0.33028 0.42993 0.1728 0.0
H723 H 0.3206 0.411 0.11211 0.0
H724 H 0.28911 0.40797 0.1602 0.0
H725 H 0.43474 0.29892 0.21535 0.0
H726 H 0.43156 0.32742 0.15394 0.0
H727 H 0.44338 0.34533 0.21499 0.0
H728 H 0.4212 0.41681 0.02628 0.0
H729 H 0.44816 0.46122 0.17248 0.0
H730 H 0.34861 0.36822 0.06502 0.0
H731 H 0.3867 0.33953 0.0772 0.0
H732 H 0.3813 0.3709 1.01876 0.0
H733 H 0.38118 0.42272 0.2415 0.0
H734 H 0.42416 0.44182 0.25035 0.0
H735 H 0.41958 0.39459 0.25695 0.0
C736 C 0.44724 0.62221 0.96622 0.0
C737 C 0.44941 0.58547 0.96701 0.0
C738 C 0.42245 0.64229 0.93046 0.0
C739 C 0.40103 0.62535 0.89251 0.0
C740 C 0.40333 0.58824 0.89298 0.0
C741 C 0.42626 0.56863 0.93212 0.0
C742 C 0.41917 0.68156 0.93343 0.0
C743 C 0.38233 0.56931 0.85157 0.0
C744 C 0.31855 0.67356 0.82394 0.0
C745 C 0.33231 0.69438 0.78293 0.0
C746 C 0.34063 0.651 0.86042 0.0
C747 C 0.3765 0.6467 0.85226 0.0
C748 C 0.38948 0.66465 0.80716 0.0
C749 C 0.36745 0.6892 0.77384 0.0
C750 C 0.32614 0.63401 0.90949 0.0
C751 C 0.42687 0.65872 0.79496 0.0
H752 H 0.46453 0.63523 0.99414 0.0
H753 H 0.42627 0.54014 0.93494 0.0
H754 H 0.42879 0.69617 0.8981 0.0
H755 H 0.39108 0.68953 0.93372 0.0
H756 H 0.43457 0.68979 0.96924 0.0
H757 H 0.39094 0.5412 0.85329 0.0
H758 H 0.35393 0.57023 0.85718 0.0
H759 H 0.38513 0.58252 0.81144 0.0
H760 H 0.29084 0.67614 0.82899 0.0
H761 H 0.37785 0.70457 0.74104 0.0
H762 H 0.33967 0.64471 0.94478 0.0
H763 H 0.33135 0.60513 0.91455 0.0
H764 H 0.2973 0.639 0.90864 0.0
H765 H 0.44549 0.67136 0.82311 0.0
H766 H 0.43085 0.66995 0.75417 0.0
H767 H 0.43372 0.63007 0.79958 0.0
C768 C 0.18633 0.69428 0.63512 0.0
C769 C 0.1895 0.6944 0.69027 0.0
C770 C 0.16311 0.67158 0.60966 0.0
C771 C 0.14198 0.64878 0.63987 0.0
C772 C 0.14495 0.64884 0.69555 0.0
C773 C 0.16886 0.67142 0.7201 0.0
C774 C 0.16114 0.67204 0.5503 0.0
C775 C 0.12246 0.62543 0.7291 0.0
C776 C 0.05839 0.61813 0.56482 0.0
C777 C 0.06819 0.58389 0.55593 0.0
C778 C 0.08176 0.63908 0.59346 0.0
C779 C 0.11608 0.62572 0.61283 0.0
C780 C 0.12593 0.59089 0.60456 0.0
C781 C 0.10171 0.57024 0.57658 0.0
C782 C 0.06985 0.67571 0.60234 0.0
C783 C 0.16235 0.57578 0.62401 0.0
H784 H 0.20233 0.71172 0.6117 0.0
H785 H 0.171 0.67144 0.76269 0.0
H786 H 0.16629 0.64509 0.53978 0.0
H787 H 0.13423 0.68042 0.53204 0.0
H788 H 0.18039 0.69019 0.5328 0.0
H789 H 0.1282 0.62825 0.77192 0.0
H790 H 0.09412 0.63201 0.71688 0.0
H791 H 0.12679 0.59738 0.72305 0.0
H792 H 0.03232 0.6286 0.54933 0.0
H793 H 0.10934 0.54377 0.56964 0.0
H794 H 0.08602 0.69564 0.58174 0.0
H795 H 0.07378 0.67906 0.64511 0.0
H796 H 0.04162 0.6813 0.58771 0.0
H797 H 0.18239 0.59188 0.60473 0.0
H798 H 0.16558 0.54798 0.61564 0.0
H799 H 0.16787 0.57689 0.66724 0.0
C800 C 0.1626 0.34178 0.31326 0.0
C801 C 0.19815 0.33511 0.33241 0.0
C802 C 0.141 0.36365 0.33822 0.0
C803 C 0.15564 0.3805 0.3821 0.0
C804 C 0.19189 0.37456 0.40053 0.0
C805 C 0.21246 0.35132 0.37626 0.0
C806 C 0.10226 0.36792 0.31851 0.0
C807 C 0.20903 0.39289 0.44577 0.0
C808 C 0.10412 0.461 0.41393 0.0
C809 C 0.08877 0.44746 0.45907 0.0
C810 C 0.12676 0.43988 0.38951 0.0
C811 C 0.13293 0.40382 0.40915 0.0
C812 C 0.11696 0.38997 0.45435 0.0
C813 C 0.09571 0.41213 0.47937 0.0
C814 C 0.14421 0.45621 0.34279 0.0
C815 C 0.12149 0.35145 0.47545 0.0
H816 H 0.15135 0.32884 0.27984 0.0
H817 H 0.23997 0.34623 0.39109 0.0
H818 H 0.08617 0.35975 0.35122 0.0
H819 H 0.09551 0.39605 0.30502 0.0
H820 H 0.09469 0.35205 0.28529 0.0
H821 H 0.23796 0.38753 0.45281 0.0
H822 H 0.20418 0.42184 0.43753 0.0
H823 H 0.19722 0.38404 0.48258 0.0
H824 H 0.09878 0.48833 0.39817 0.0
H825 H 0.08339 0.40146 0.51376 0.0
H826 H 0.13473 0.44368 0.3069 0.0
H827 H 0.17319 0.45147 0.35002 0.0
H828 H 0.13874 0.4851 0.33472 0.0
H829 H 0.11266 0.33477 0.44377 0.0
H830 H 0.10629 0.34449 0.50967 0.0
H831 H 0.14974 0.34481 0.48797 0.0
C832 C 0.99311 1.00764 0.90018 0.0
C833 C 0.02664 0.0147 0.88432 0.0
C834 C 0.98743 1.00522 0.95375 0.0
C835 C 0.01597 0.01002 0.9923 0.0
C836 C 0.04987 0.01709 0.97657 0.0
C837 C 0.05481 0.01928 0.92279 0.0
C838 C 0.95089 0.99767 0.9691 0.0
C839 C 0.08095 0.02226 1.01658 0.0
C840 C 0.99561 0.03552 0.1255 0.0
C841 C 0.99946 1.00296 0.157 0.0
C842 C 1.00092 0.03821 0.0718 0.0
C843 C 1.01038 1.00761 0.04916 0.0
C844 C 0.01458 0.97471 0.08084 0.0
C845 C 1.00903 0.97279 0.13439 0.0
C846 C 0.99612 0.07373 0.03919 0.0
C847 C 0.02487 0.94156 0.05812 0.0
H848 H 0.97117 1.00446 0.8706 0.0
H849 H 0.08091 0.02418 0.91089 0.0
H850 H 0.9516 0.97324 0.99704 0.0
H851 H 0.9414 0.01951 0.98978 0.0
H852 H 0.9316 0.99441 0.93433 0.0
H853 H 0.10556 0.02774 0.99779 0.0
H854 H 0.07527 0.04455 0.0392 0.0
H855 H 0.08552 0.99832 0.0454 0.0
H856 H 0.98776 0.05883 0.14264 0.0
H857 H 1.01244 0.94764 0.15876 0.0
H858 H 0.97512 0.07247 1.00596 0.0
H859 H 0.02081 0.08088 0.02168 0.0
H860 H 0.98894 0.095 0.06289 0.0
H861 H 1.00498 0.93635 0.02512 0.0
H862 H 0.02716 0.91808 0.08814 0.0
H863 H 0.05051 0.94505 0.04163 0.0
C864 C 0.29141 0.76149 0.38024 0.0
C865 C 0.26238 0.77774 0.39814 0.0
C866 C 0.29119 0.75541 0.32701 0.0
C867 C 0.26117 0.7657 0.29083 0.0
C868 C 0.23167 0.78186 0.30873 0.0
C869 C 0.23266 0.78773 0.36213 0.0
C870 C 0.3232 0.73821 0.30941 0.0
C871 C 0.19907 0.79296 0.27147 0.0
C872 C 0.27216 0.77888 0.14394 0.0
C873 C 0.25974 0.74701 0.12709 0.0
C874 C 0.27268 0.78537 0.19706 0.0
C875 C 0.26054 0.75936 0.23428 0.0
C876 C 0.24785 0.72722 0.2175 0.0
C877 C 0.24754 0.72147 0.16417 0.0
C878 C 0.28643 0.81997 0.21345 0.0
C879 C 0.23457 0.69888 0.25592 0.0
H880 H 0.31463 0.75413 0.40771 0.0
H881 H 0.20999 0.79992 0.37586 0.0
H882 H 0.31565 0.71357 0.29204 0.0
H883 H 0.33395 0.75603 0.27811 0.0
H884 H 0.34439 0.7317 0.34248 0.0
H885 H 0.17837 0.80516 0.29166 0.0
H886 H 0.20605 0.81219 0.23872 0.0
H887 H 0.18791 0.76976 0.25347 0.0
H888 H 0.282 0.79857 0.1157 0.0
H889 H 0.23735 0.69702 0.15137 0.0
H890 H 0.3094 0.81499 0.24398 0.0
H891 H 0.26581 0.83396 0.2314 0.0
H892 H 0.29462 0.83756 0.17963 0.0
H893 H 0.25577 0.6904 0.28814 0.0
H894 H 0.22559 0.67535 0.23655 0.0
H895 H 0.21227 0.70951 0.27451 0.0
C896 C 0.474 0.02148 0.61717 0.0
C897 C 0.50298 0.02099 0.65607 0.0
C898 C 0.47864 0.01844 0.56403 0.0
C899 C 0.51313 0.01492 0.54909 0.0
C900 C 0.54253 0.01459 0.58802 0.0
C901 C 0.53711 0.01759 0.64095 0.0
C902 C 0.44656 0.01891 0.52384 0.0
C903 C 0.57973 0.0108 0.57382 0.0
C904 C 0.52295 0.97315 0.42251 0.0
C905 C 0.52637 1.00277 0.38586 0.0
C906 C 0.5189 0.97674 0.47566 0.0
C907 C 0.51832 0.0108 0.49294 0.0
C908 C 0.5221 0.04082 0.45635 0.0
C909 C 0.52611 0.03645 0.40333 0.0
C910 C 0.51508 0.94402 0.51331 0.0
C911 C 0.52157 0.07759 0.47313 0.0
H912 H 0.44755 0.02471 0.62813 0.0
H913 H 0.55967 0.01678 0.67069 0.0
H914 H 0.44817 0.0408 0.49196 0.0
H915 H 0.44569 0.99396 0.50509 0.0
H916 H 0.42156 0.02215 0.5417 0.0
H917 H 0.59978 0.01181 0.60843 0.0
H918 H 0.58308 0.98535 0.55736 0.0
H919 H 0.58487 0.03214 0.54273 0.0
H920 H 0.52377 0.94698 0.40972 0.0
H921 H 0.52843 0.05951 0.37529 0.0
H922 H 0.48945 0.94517 0.53002 0.0
H923 H 0.53618 0.94267 0.54691 0.0
H924 H 0.51647 0.91943 0.49381 0.0
H925 H 0.49593 0.08307 0.48785 0.0
H926 H 0.5256 0.09813 0.44024 0.0
H927 H 0.54249 0.07974 0.50619 0.0
C928 C 0.23703 0.29724 0.86136 0.0
C929 C 0.25654 0.27595 0.903 0.0
C930 C 0.24012 0.29268 0.80818 0.0
C931 C 0.2631 0.26598 0.79589 0.0
C932 C 0.28288 0.24436 0.83759 0.0
C933 C 0.27944 0.24964 0.8905 0.0
C934 C 0.21855 0.31635 0.76506 0.0
C935 C 0.30768 0.21557 0.82632 0.0
C936 C 0.2467 0.23284 0.65994 0.0
C937 C 0.27226 0.25063 0.63224 0.0
C938 C 0.24352 0.23748 0.71312 0.0
C939 C 0.26631 0.26063 0.73942 0.0
C940 C 0.29197 0.27887 0.71158 0.0
C941 C 0.29468 0.27361 0.65851 0.0
C942 C 0.21593 0.21735 0.74131 0.0
C943 C 0.31656 0.30404 0.73785 0.0
H944 H 0.21874 0.3172 0.8703 0.0
H945 H 0.29499 0.2333 0.92213 0.0
H946 H 0.23618 0.33026 0.7383 0.0
H947 H 0.20064 0.30025 0.74078 0.0
H948 H 0.20243 0.33635 0.78108 0.0
H949 H 0.32101 0.20087 0.86307 0.0
H950 H 0.29294 0.19661 0.80283 0.0
H951 H 0.32812 0.2271 0.8023 0.0
H952 H 0.22958 0.21467 0.64031 0.0
H953 H 0.31421 0.28781 0.63734 0.0
H954 H 0.19766 0.23604 0.75591 0.0
H955 H 0.22875 0.20045 0.77632 0.0
H956 H 0.20024 0.20039 0.71536 0.0
H957 H 0.30106 0.32541 0.75169 0.0
H958 H 0.3351 0.31618 0.71086 0.0
H959 H 0.33214 0.28996 0.77318 0.0
C960 C 0.73084 0.28687 0.8735 0.0
C961 C 0.76005 0.27486 0.90934 0.0
C962 C 0.72933 0.28156 0.81977 0.0
C963 C 0.75777 0.26396 0.80132 0.0
C964 C 0.78732 0.25178 0.8373 0.0
C965 C 0.78807 0.2573 0.89083 0.0
C966 C 0.69724 0.29471 0.78276 0.0
C967 C 0.81826 0.23303 0.81919 0.0
C968 C 0.74161 0.22073 0.67391 0.0
C969 C 0.75532 0.24545 0.63716 0.0
C970 C 0.74208 0.22651 0.72727 0.0
C971 C 0.75649 0.25787 0.7445 0.0
C972 C 0.77007 0.28312 0.7076 0.0
C973 C 0.76932 0.27662 0.65441 0.0
C974 C 0.72725 0.19897 0.76528 0.0
C975 C 0.78571 0.31687 0.72443 0.0
H976 H 0.70895 0.30015 0.88761 0.0
H977 H 0.81096 0.24842 0.9181 0.0
H978 H 0.7052 0.31356 0.75025 0.0
H979 H 0.68457 0.27232 0.76439 0.0
H980 H 0.67743 0.30803 0.80326 0.0
H981 H 0.8393 0.22534 0.85207 0.0
H982 H 0.80929 0.20892 0.8015 0.0
H983 H 0.82975 0.25034 0.78804 0.0
H984 H 0.73017 0.19686 0.66083 0.0
H985 H 0.78031 0.29569 0.62648 0.0
H986 H 0.70577 0.21084 0.7842 0.0
H987 H 0.74808 0.18909 0.7973 0.0
H988 H 0.71668 0.17616 0.74551 0.0
H989 H 0.76599 0.33179 0.74282 0.0
H990 H 0.79456 0.33411 0.69075 0.0
H991 H 0.80862 0.31062 0.75472 0.0
C992 C 0.7845 0.7551 0.39671 0.0
C993 C 0.75433 0.77277 0.40883 0.0
C994 C 0.78957 0.75067 0.34403 0.0
C995 C 0.76387 0.76418 0.30231 0.0
C996 C 0.73363 0.78242 0.31423 0.0
C997 C 0.7293 0.78657 0.36713 0.0
C998 C 0.82222 0.73112 0.33306 0.0
C999 C 0.70562 0.79736 0.27108 0.0
C1000 C 0.78892 0.77926 0.16124 0.0
C1001 C 0.77514 0.7495 0.13912 0.0
C1002 C 0.78569 0.78425 0.21427 0.0
C1003 C 0.76826 0.75888 0.24621 0.0
C1004 C 0.75431 0.72877 0.22417 0.0
C1005 C 0.75789 0.72447 0.17103 0.0
C1006 C 0.80077 0.81681 0.23603 0.0
C1007 C 0.73558 0.70105 0.25678 0.0
H1008 H 0.80385 0.74404 0.42852 0.0
H1009 H 0.70623 0.80087 0.37581 0.0
H1010 H 0.81461 0.70718 0.31385 0.0
H1011 H 0.83693 0.74797 0.3052 0.0
H1012 H 0.84014 0.72302 0.36964 0.0
H1013 H 0.68384 0.81118 0.28682 0.0
H1014 H 0.71748 0.81621 0.24224 0.0
H1015 H 0.69432 0.77582 0.24914 0.0
H1016 H 0.80192 0.79897 0.13685 0.0
H1017 H 0.74763 0.70112 0.15467 0.0
H1018 H 0.82006 0.80912 0.27114 0.0
H1019 H 0.77941 0.83265 0.24924 0.0
H1020 H 0.81411 0.83372 0.20641 0.0
H1021 H 0.75342 0.69007 0.292 0.0
H1022 H 0.72651 0.67902 0.23399 0.0
H1023 H 0.71235 0.71315 0.27132 0.0
C1024 C 0.49772 0.5088 0.63218 0.0
C1025 C 0.50731 0.47874 0.66776 0.0
C1026 C 0.50348 0.51012 0.57874 0.0
C1027 C 0.51923 0.48065 0.56014 0.0
C1028 C 0.52966 0.45047 0.59603 0.0
C1029 C 0.52366 0.4499 0.64947 0.0
C1030 C 0.49221 0.54295 0.54198 0.0
C1031 C 0.54653 0.41854 0.57774 0.0
C1032 C 0.49919 0.47492 0.41249 0.0
C1033 C 0.5289 0.49049 0.39248 0.0
C1034 C 0.49624 0.47045 0.46708 0.0
C1035 C 0.52384 0.48141 0.50282 0.0
C1036 C 0.55463 0.49554 0.48318 0.0
C1037 C 0.55672 0.50009 0.42833 0.0
C1038 C 0.46294 0.45528 0.48634 0.0
C1039 C 0.58477 0.5073 0.51994 0.0
H1040 H 0.48563 0.53141 0.64623 0.0
H1041 H 0.53091 0.42652 0.67667 0.0
H1042 H 0.51506 0.55372 0.52258 0.0
H1043 H 0.47203 0.53631 0.51026 0.0
H1044 H 0.48106 0.56388 0.56291 0.0
H1045 H 0.55451 0.39779 0.61094 0.0
H1046 H 0.52777 0.40712 0.54834 0.0
H1047 H 0.57014 0.42632 0.55781 0.0
H1048 H 0.47785 0.46675 0.38534 0.0
H1049 H 0.57963 0.51251 0.41352 0.0
H1050 H 0.44867 0.47569 0.50433 0.0
H1051 H 0.46949 0.43291 0.51747 0.0
H1052 H 0.44494 0.44593 0.45393 0.0
H1053 H 0.5762 0.53068 0.53812 0.0
H1054 H 0.60823 0.51436 0.49909 0.0
H1055 H 0.5926 0.48617 0.55256 0.0
C1056 C 0.99683 0.52025 0.90229 0.0
C1057 C 0.02908 0.50795 0.88825 0.0
C1058 C 0.99183 0.52309 0.95544 0.0
C1059 C 0.01976 0.51357 0.99583 0.0
C1060 C 0.05251 0.50162 0.98194 0.0
C1061 C 0.05674 0.49887 0.92853 0.0
C1062 C 0.9565 0.53601 0.96841 0.0
C1063 C 0.08301 0.49124 0.02365 0.0
C1064 C 0.01677 0.5486 0.12969 0.0
C1065 C 1.00388 0.51966 0.16007 0.0
C1066 C 0.02214 0.54697 0.07639 0.0
C1067 C 0.01455 0.51562 0.05265 0.0
C1068 C 1.00184 0.48621 0.0832 0.0
C1069 C 0.99663 0.4886 0.13637 0.0
C1070 C 0.03562 0.57896 0.0453 0.0
C1071 C 0.99362 0.4522 0.05964 0.0
H1072 H 0.97542 0.52784 0.87162 0.0
H1073 H 0.08158 0.4888 0.91847 0.0
H1074 H 0.94483 0.51541 0.99485 0.0
H1075 H 0.95991 0.5597 0.98997 0.0
H1076 H 0.9376 0.54278 0.93248 0.0
H1077 H 0.10707 0.48341 1.00632 0.0
H1078 H 0.08944 0.51353 0.04727 0.0
H1079 H 0.07555 0.46883 0.05131 0.0
H1080 H 0.022 0.57288 0.14731 0.0
H1081 H 0.98709 0.46595 0.1596 0.0
H1082 H 0.01612 0.58805 1.01102 0.0
H1083 H 0.06044 0.572 0.02933 0.0
H1084 H 0.04071 0.60118 0.06964 0.0
H1085 H 0.97309 0.4572 0.02538 0.0
H1086 H 0.98416 0.43168 0.08869 0.0
H1087 H 0.01751 0.44174 0.04473 0.0
loop_
_geom_bond_atom_site_label_1
_geom_bond_atom_site_label_2
_geom_bond_distance
_geom_bond_site_symmetry_2
_ccdc_geom_bond_type
La0 C2 2.928 1_655 S
La0 O20 2.521 1_655 S
La0 O21 2.628 1_565 S
La0 O22 2.554 1_655 S
La0 O23 2.757 1_655 S
La0 O24 2.470 1_665 S
La0 O29 2.482 1_565 S
La0 O31 2.503 . S
La1 C11 2.928 1_455 S
La1 O23 2.482 1_545 S
La1 O25 2.503 . S
La1 O26 2.521 1_455 S
La1 O27 2.628 1_545 S
La1 O28 2.554 1_455 S
La1 O29 2.757 1_455 S
La1 O30 2.470 1_445 S
C2 La0 2.928 1_455 S
C2 C3 1.503 . S
C2 O20 1.261 . S
C2 O21 1.243 1_465 S
C3 C2 1.503 . S
C3 C4 1.394 . S
C3 C8 1.373 1_565 S
C4 C3 1.394 . S
C4 C5 1.380 . S
C4 H32 0.930 . S
C5 C4 1.380 . S
C5 C6 1.399 . S
C5 H33 0.930 . S
C6 C5 1.399 . S
C6 C7 1.346 1_565 S
C7 C6 1.346 1_545 S
C7 C8 1.396 . S
C7 H34 0.929 . S
C8 C3 1.373 1_545 S
C8 C7 1.396 . S
C8 H35 0.929 1_455 S
C9 O22 1.240 . S
C9 O23 1.289 . S
C10 O24 1.258 . S
C10 O25 1.256 . S
C11 La1 2.928 1_655 S
C11 C12 1.503 . S
C11 O26 1.261 . S
C11 O27 1.243 1_645 S
C12 C11 1.503 . S
C12 C13 1.394 . S
C12 C17 1.373 1_545 S
C13 C12 1.394 . S
C13 C14 1.380 . S
C13 H36 0.930 . S
C14 C13 1.380 . S
C14 C15 1.376 . S
C14 H37 0.930 . S
C15 C14 1.376 . S
C15 C16 1.370 1_545 S
C16 C15 1.370 1_565 S
C16 C17 1.396 . S
C16 H38 0.929 . S
C17 C12 1.373 1_565 S
C17 C16 1.396 . S
C17 H39 0.929 1_655 S
C18 O28 1.240 . S
C18 O29 1.289 . S
C19 O30 1.258 . S
C19 O31 1.256 . S
O20 La0 2.521 1_455 S
O20 C2 1.261 . S
O21 La0 2.628 1_545 S
O21 C2 1.243 1_645 S
O22 La0 2.554 1_455 S
O22 C9 1.240 . S
O23 La0 2.757 1_455 S
O23 La1 2.482 1_565 S
O23 C9 1.289 . S
O24 La0 2.470 1_445 S
O24 C10 1.258 . S
O25 La1 2.503 . S
O25 C10 1.256 . S
O26 La1 2.521 1_655 S
O26 C11 1.261 . S
O27 La1 2.628 1_565 S
O27 C11 1.243 1_465 S
O28 La1 2.554 1_655 S
O28 C18 1.240 . S
O29 La0 2.482 1_545 S
O29 La1 2.757 1_655 S
O29 C18 1.289 . S
O30 La1 2.470 1_665 S
O30 C19 1.258 . S
O31 La0 2.503 . S
O31 C19 1.256 . S
H32 C4 0.930 . S
H33 C5 0.930 . S
H34 C7 0.929 . S
H35 C8 0.929 1_655 S
H36 C13 0.930 . S
H37 C14 0.930 . S
H38 C16 0.929 . S
H39 C17 0.929 1_455 S
La40 C42 2.928 . S
La40 O60 2.521 . S
La40 O61 2.628 . S
La40 O62 2.554 . S
La40 O63 2.757 . S
La40 O64 2.470 . S
La40 O69 2.482 . S
La40 O71 2.503 . S
La41 C51 2.928 . S
La41 O63 2.482 . S
La41 O65 2.503 . S
La41 O66 2.521 . S
La41 O67 2.628 . S
La41 O68 2.554 . S
La41 O69 2.757 . S
La41 O70 2.470 . S
C42 La40 2.928 . S
C42 C43 1.503 . S
C42 O60 1.261 . S
C42 O61 1.243 . S
C43 C42 1.503 . S
C43 C44 1.394 . S
C43 C48 1.373 1_556 S
C44 C43 1.394 . S
C44 C45 1.380 1_556 S
C44 H72 0.930 . S
C45 C44 1.380 1_554 S
C45 C46 1.376 . S
C45 H73 0.930 . S
C46 C45 1.376 . S
C46 C47 1.370 . S
C47 C46 1.370 . S
C47 C48 1.396 . S
C47 H74 0.929 . S
C48 C43 1.373 1_554 S
C48 C47 1.396 . S
C48 H75 0.929 1_554 S
C49 O62 1.240 . S
C49 O63 1.289 . S
C50 O64 1.258 . S
C50 O65 1.256 . S
C51 La41 2.928 . S
C51 C52 1.503 . S
C51 O66 1.261 . S
C51 O67 1.243 . S
C52 C51 1.503 . S
C52 C53 1.394 . S
C52 C57 1.373 . S
C53 C52 1.394 . S
C53 C54 1.380 . S
C53 H76 0.930 . S
C54 C53 1.380 . S
C54 C55 1.376 . S
C54 H77 0.930 . S
C55 C54 1.376 . S
C55 C56 1.370 . S
C56 C55 1.370 . S
C56 C57 1.396 . S
C56 H78 0.929 . S
C57 C52 1.373 . S
C57 C56 1.396 . S
C57 H79 0.929 . S
C58 O68 1.240 . S
C58 O69 1.289 . S
C59 O70 1.258 . S
C59 O71 1.256 . S
O60 La40 2.521 . S
O60 C42 1.261 . S
O61 La40 2.628 . S
O61 C42 1.243 . S
O62 La40 2.554 . S
O62 C49 1.240 . S
O63 La40 2.757 . S
O63 La41 2.482 . S
O63 C49 1.289 . S
O64 La40 2.470 . S
O64 C50 1.258 . S
O65 La41 2.503 . S
O65 C50 1.256 . S
O66 La41 2.521 . S
O66 C51 1.261 . S
O67 La41 2.628 . S
O67 C51 1.243 . S
O68 La41 2.554 . S
O68 C58 1.240 . S
O69 La40 2.482 . S
O69 La41 2.757 . S
O69 C58 1.289 . S
O70 La41 2.470 . S
O70 C59 1.258 . S
O71 La40 2.503 . S
O71 C59 1.256 . S
H72 C44 0.930 . S
H73 C45 0.930 . S
H74 C47 0.929 . S
H75 C48 0.929 1_556 S
H76 C53 0.930 . S
H77 C54 0.930 . S
H78 C56 0.929 . S
H79 C57 0.929 . S
La80 C82 2.928 . S
La80 O100 2.521 . S
La80 O101 2.628 . S
La80 O102 2.554 . S
La80 O103 2.757 1_554 S
La80 O104 2.470 1_565 S
La80 O109 2.482 1_565 S
La80 O111 2.503 . S
La81 C91 2.928 . S
La81 O103 2.482 1_545 S
La81 O105 2.503 . S
La81 O106 2.521 . S
La81 O107 2.628 . S
La81 O108 2.554 . S
La81 O109 2.757 1_556 S
La81 O110 2.470 1_545 S
C82 La80 2.928 . S
C82 C83 1.503 . S
C82 O100 1.261 . S
C82 O101 1.243 . S
C83 C82 1.503 . S
C83 C84 1.394 . S
C83 C88 1.371 1_565 S
C84 C83 1.394 . S
C84 C85 1.380 . S
C84 H112 0.930 . S
C85 C84 1.380 . S
C85 C86 1.376 . S
C85 H113 0.930 . S
C86 C85 1.376 . S
C86 C87 1.361 1_565 S
C87 C86 1.361 1_545 S
C87 C88 1.394 . S
C87 H114 0.940 . S
C88 C83 1.371 1_545 S
C88 C87 1.394 . S
C88 H115 0.931 . S
C89 O102 1.240 1_556 S
C89 O103 1.289 . S
C90 O104 1.258 . S
C90 O105 1.256 1_554 S
C91 La81 2.928 . S
C91 C92 1.503 . S
C91 O106 1.261 . S
C91 O107 1.243 . S
C92 C91 1.503 . S
C92 C93 1.394 . S
C92 C97 1.371 . S
C93 C92 1.394 . S
C93 C94 1.380 . S
C93 H116 0.930 . S
C94 C93 1.380 . S
C94 C95 1.376 . S
C94 H117 0.930 . S
C95 C94 1.376 . S
C95 C96 1.367 1_545 S
C96 C95 1.367 1_565 S
C96 C97 1.395 1_565 S
C96 H118 0.933 . S
C97 C92 1.371 . S
C97 C96 1.395 1_545 S
C97 H119 0.931 1_545 S
C98 O108 1.240 1_554 S
C98 O109 1.289 . S
C99 O110 1.258 . S
C99 O111 1.256 1_556 S
O100 La80 2.521 . S
O100 C82 1.261 . S
O101 La80 2.628 . S
O101 C82 1.243 . S
O102 La80 2.554 . S
O102 C89 1.240 1_554 S
O103 La80 2.757 1_556 S
O103 La81 2.482 1_565 S
O103 C89 1.289 . S
O104 La80 2.470 1_545 S
O104 C90 1.258 . S
O105 La81 2.503 . S
O105 C90 1.256 1_556 S
O106 La81 2.521 . S
O106 C91 1.261 . S
O107 La81 2.628 . S
O107 C91 1.243 . S
O108 La81 2.554 . S
O108 C98 1.240 1_556 S
O109 La80 2.482 1_545 S
O109 La81 2.757 1_554 S
O109 C98 1.289 . S
O110 La81 2.470 1_565 S
O110 C99 1.258 . S
O111 La80 2.503 . S
O111 C99 1.256 1_554 S
H112 C84 0.930 . S
H113 C85 0.930 . S
H114 C87 0.940 . S
H115 C88 0.931 . S
H116 C93 0.930 . S
H117 C94 0.930 . S
H118 C96 0.933 . S
H119 C97 0.931 1_565 S
La120 C122 2.928 . S
La120 O140 2.521 . S
La120 O141 2.628 . S
La120 O142 2.554 . S
La120 O143 2.757 . S
La120 O144 2.470 . S
La120 O149 2.482 . S
La120 O151 2.503 . S
La121 C131 2.928 . S
La121 O143 2.482 . S
La121 O145 2.503 . S
La121 O146 2.521 . S
La121 O147 2.628 . S
La121 O148 2.554 . S
La121 O149 2.757 . S
La121 O150 2.470 . S
C122 La120 2.928 . S
C122 C123 1.503 . S
C122 O140 1.261 . S
C122 O141 1.243 . S
C123 C122 1.503 . S
C123 C124 1.394 . S
C123 C128 1.373 . S
C124 C123 1.394 . S
C124 C125 1.380 1_554 S
C124 H152 0.930 . S
C125 C124 1.380 1_556 S
C125 C126 1.376 . S
C125 H153 0.930 . S
C126 C125 1.376 . S
C126 C127 1.370 . S
C127 C126 1.370 . S
C127 C128 1.396 1_556 S
C127 H154 0.929 . S
C128 C123 1.373 . S
C128 C127 1.396 1_554 S
C128 H155 0.929 . S
C129 O142 1.240 . S
C129 O143 1.289 . S
C130 O144 1.258 . S
C130 O145 1.256 . S
C131 La121 2.928 . S
C131 C132 1.503 . S
C131 O146 1.261 . S
C131 O147 1.243 . S
C132 C131 1.503 . S
C132 C133 1.394 . S
C132 C137 1.373 . S
C133 C132 1.394 . S
C133 C134 1.380 . S
C133 H156 0.930 . S
C134 C133 1.380 . S
C134 C135 1.376 . S
C134 H157 0.930 . S
C135 C134 1.376 . S
C135 C136 1.370 . S
C136 C135 1.370 . S
C136 C137 1.396 . S
C136 H158 0.929 . S
C137 C132 1.373 . S
C137 C136 1.396 . S
C137 H159 0.929 . S
C138 O148 1.240 . S
C138 O149 1.289 . S
C139 O150 1.258 . S
C139 O151 1.256 . S
O140 La120 2.521 . S
O140 C122 1.261 . S
O141 La120 2.628 . S
O141 C122 1.243 . S
O142 La120 2.554 . S
O142 C129 1.240 . S
O143 La120 2.757 . S
O143 La121 2.482 . S
O143 C129 1.289 . S
O144 La120 2.470 . S
O144 C130 1.258 . S
O145 La121 2.503 . S
O145 C130 1.256 . S
O146 La121 2.521 . S
O146 C131 1.261 . S
O147 La121 2.628 . S
O147 C131 1.243 . S
O148 La121 2.554 . S
O148 C138 1.240 . S
O149 La120 2.482 . S
O149 La121 2.757 . S
O149 C138 1.289 . S
O150 La121 2.470 . S
O150 C139 1.258 . S
O151 La120 2.503 . S
O151 C139 1.256 . S
H152 C124 0.930 . S
H153 C125 0.930 . S
H154 C127 0.929 . S
H155 C128 0.929 . S
H156 C133 0.930 . S
H157 C134 0.930 . S
H158 C136 0.929 . S
H159 C137 0.929 . S
La160 C162 2.928 . S
La160 O180 2.521 . S
La160 O181 2.628 . S
La160 O182 2.554 . S
La160 O183 2.757 . S
La160 O184 2.470 . S
La160 O189 2.482 . S
La160 O191 2.503 . S
La161 C171 2.928 . S
La161 O183 2.482 . S
La161 O185 2.503 . S
La161 O186 2.521 . S
La161 O187 2.628 . S
La161 O188 2.554 . S
La161 O189 2.757 . S
La161 O190 2.470 . S
C162 La160 2.928 . S
C162 C163 1.503 . S
C162 O180 1.261 . S
C162 O181 1.243 . S
C163 C162 1.503 . S
C163 C164 1.394 . S
C163 C168 1.373 . S
C164 C163 1.394 . S
C164 C165 1.380 . S
C164 H192 0.930 . S
C165 C164 1.380 . S
C165 C166 1.376 . S
C165 H193 0.930 . S
C166 C165 1.376 . S
C166 C167 1.370 . S
C167 C166 1.370 . S
C167 C168 1.396 . S
C167 H194 0.929 . S
C168 C163 1.373 . S
C168 C167 1.396 . S
C168 H195 0.929 . S
C169 O182 1.240 . S
C169 O183 1.289 . S
C170 O184 1.258 . S
C170 O185 1.256 . S
C171 La161 2.928 . S
C171 C172 1.503 . S
C171 O186 1.261 . S
C171 O187 1.243 . S
C172 C171 1.503 . S
C172 C173 1.394 . S
C172 C177 1.373 1_554 S
C173 C172 1.394 . S
C173 C174 1.380 1_554 S
C173 H196 0.930 . S
C174 C173 1.380 1_556 S
C174 C175 1.376 . S
C174 H197 0.930 . S
C175 C174 1.376 . S
C175 C176 1.370 . S
C176 C175 1.370 . S
C176 C177 1.396 . S
C176 H198 0.929 . S
C177 C172 1.373 1_556 S
C177 C176 1.396 . S
C177 H199 0.929 1_556 S
C178 O188 1.240 . S
C178 O189 1.289 . S
C179 O190 1.258 . S
C179 O191 1.256 . S
O180 La160 2.521 . S
O180 C162 1.261 . S
O181 La160 2.628 . S
O181 C162 1.243 . S
O182 La160 2.554 . S
O182 C169 1.240 . S
O183 La160 2.757 . S
O183 La161 2.482 . S
O183 C169 1.289 . S
O184 La160 2.470 . S
O184 C170 1.258 . S
O185 La161 2.503 . S
O185 C170 1.256 . S
O186 La161 2.521 . S
O186 C171 1.261 . S
O187 La161 2.628 . S
O187 C171 1.243 . S
O188 La161 2.554 . S
O188 C178 1.240 . S
O189 La160 2.482 . S
O189 La161 2.757 . S
O189 C178 1.289 . S
O190 La161 2.470 . S
O190 C179 1.258 . S
O191 La160 2.503 . S
O191 C179 1.256 . S
H192 C164 0.930 . S
H193 C165 0.930 . S
H194 C167 0.929 . S
H195 C168 0.929 . S
H196 C173 0.930 . S
H197 C174 0.930 . S
H198 C176 0.929 . S
H199 C177 0.929 1_554 S
La200 C202 2.928 . S
La200 O220 2.521 . S
La200 O221 2.628 . S
La200 O222 2.554 . S
La200 O223 2.757 . S
La200 O224 2.470 . S
La200 O229 2.482 . S
La200 O231 2.503 . S
La201 C211 2.928 . S
La201 O223 2.482 . S
La201 O225 2.503 . S
La201 O226 2.521 . S
La201 O227 2.628 . S
La201 O228 2.554 . S
La201 O229 2.757 . S
La201 O230 2.470 . S
C202 La200 2.928 . S
C202 C203 1.503 . S
C202 O220 1.261 . S
C202 O221 1.243 . S
C203 C202 1.503 . S
C203 C204 1.394 . S
C203 C208 1.373 . S
C204 C203 1.394 . S
C204 C205 1.380 . S
C204 H232 0.930 . S
C205 C204 1.380 . S
C205 C206 1.376 . S
C205 H233 0.930 . S
C206 C205 1.376 . S
C206 C207 1.370 . S
C207 C206 1.370 . S
C207 C208 1.396 . S
C207 H234 0.929 . S
C208 C203 1.373 . S
C208 C207 1.396 . S
C208 H235 0.929 . S
C209 O222 1.240 . S
C209 O223 1.289 . S
C210 O224 1.258 . S
C210 O225 1.256 . S
C211 La201 2.928 . S
C211 C212 1.503 . S
C211 O226 1.261 . S
C211 O227 1.243 . S
C212 C211 1.503 . S
C212 C213 1.394 . S
C212 C217 1.373 . S
C213 C212 1.394 . S
C213 C214 1.380 1_556 S
C213 H236 0.930 . S
C214 C213 1.380 1_554 S
C214 C215 1.376 . S
C214 H237 0.930 . S
C215 C214 1.376 . S
C215 C216 1.370 . S
C216 C215 1.370 . S
C216 C217 1.396 1_554 S
C216 H238 0.929 . S
C217 C212 1.373 . S
C217 C216 1.396 1_556 S
C217 H239 0.929 . S
C218 O228 1.240 . S
C218 O229 1.289 . S
C219 O230 1.258 . S
C219 O231 1.256 . S
O220 La200 2.521 . S
O220 C202 1.261 . S
O221 La200 2.628 . S
O221 C202 1.243 . S
O222 La200 2.554 . S
O222 C209 1.240 . S
O223 La200 2.757 . S
O223 La201 2.482 . S
O223 C209 1.289 . S
O224 La200 2.470 . S
O224 C210 1.258 . S
O225 La201 2.503 . S
O225 C210 1.256 . S
O226 La201 2.521 . S
O226 C211 1.261 . S
O227 La201 2.628 . S
O227 C211 1.243 . S
O228 La201 2.554 . S
O228 C218 1.240 . S
O229 La200 2.482 . S
O229 La201 2.757 . S
O229 C218 1.289 . S
O230 La201 2.470 . S
O230 C219 1.258 . S
O231 La200 2.503 . S
O231 C219 1.256 . S
H232 C204 0.930 . S
H233 C205 0.930 . S
H234 C207 0.929 . S
H235 C208 0.929 . S
H236 C213 0.930 . S
H237 C214 0.930 . S
H238 C216 0.929 . S
H239 C217 0.929 . S
La240 C242 2.928 . S
La240 O260 2.521 . S
La240 O261 2.628 . S
La240 O262 2.554 . S
La240 O263 2.757 1_556 S
La240 O264 2.470 . S
La240 O269 2.482 . S
La240 O271 2.503 1_556 S
La241 C251 2.928 . S
La241 O263 2.482 . S
La241 O265 2.503 1_554 S
La241 O266 2.521 . S
La241 O267 2.628 . S
La241 O268 2.554 . S
La241 O269 2.757 1_554 S
La241 O270 2.470 . S
C242 La240 2.928 . S
C242 C243 1.503 . S
C242 O260 1.261 . S
C242 O261 1.243 . S
C243 C242 1.503 . S
C243 C244 1.394 . S
C243 C248 1.373 . S
C244 C243 1.394 . S
C244 C245 1.380 . S
C244 H272 0.930 . S
C245 C244 1.380 . S
C245 C246 1.376 . S
C245 H273 0.930 . S
C246 C245 1.376 . S
C246 C247 1.370 . S
C247 C246 1.370 . S
C247 C248 1.396 . S
C247 H274 0.929 . S
C248 C243 1.373 . S
C248 C247 1.396 . S
C248 H275 0.929 . S
C249 O262 1.240 1_554 S
C249 O263 1.289 . S
C250 O264 1.258 . S
C250 O265 1.256 . S
C251 La241 2.928 . S
C251 C252 1.503 . S
C251 O266 1.261 . S
C251 O267 1.243 . S
C252 C251 1.503 . S
C252 C253 1.394 . S
C252 C257 1.373 . S
C253 C252 1.394 . S
C253 C254 1.380 . S
C253 H276 0.930 . S
C254 C253 1.380 . S
C254 C255 1.376 . S
C254 H277 0.930 . S
C255 C254 1.376 . S
C255 C256 1.370 . S
C256 C255 1.370 . S
C256 C257 1.396 . S
C256 H278 0.929 . S
C257 C252 1.373 . S
C257 C256 1.396 . S
C257 H279 0.929 . S
C258 O268 1.240 1_556 S
C258 O269 1.289 . S
C259 O270 1.258 . S
C259 O271 1.256 . S
O260 La240 2.521 . S
O260 C242 1.261 . S
O261 La240 2.628 . S
O261 C242 1.243 . S
O262 La240 2.554 . S
O262 C249 1.240 1_556 S
O263 La240 2.757 1_554 S
O263 La241 2.482 . S
O263 C249 1.289 . S
O264 La240 2.470 . S
O264 C250 1.258 . S
O265 La241 2.503 1_556 S
O265 C250 1.256 . S
O266 La241 2.521 . S
O266 C251 1.261 . S
O267 La241 2.628 . S
O267 C251 1.243 . S
O268 La241 2.554 . S
O268 C258 1.240 1_554 S
O269 La240 2.482 . S
O269 La241 2.757 1_556 S
O269 C258 1.289 . S
O270 La241 2.470 . S
O270 C259 1.258 . S
O271 La240 2.503 1_554 S
O271 C259 1.256 . S
H272 C244 0.930 . S
H273 C245 0.930 . S
H274 C247 0.929 . S
H275 C248 0.929 . S
H276 C253 0.930 . S
H277 C254 0.930 . S
H278 C256 0.929 . S
H279 C257 0.929 . S
La280 C282 2.928 1_455 S
La280 O300 2.521 1_455 S
La280 O301 2.628 . S
La280 O302 2.554 1_455 S
La280 O303 2.757 1_455 S
La280 O304 2.470 1_455 S
La280 O309 2.482 . S
La280 O311 2.503 . S
La281 C291 2.928 1_655 S
La281 O303 2.482 . S
La281 O305 2.503 . S
La281 O306 2.521 1_655 S
La281 O307 2.628 . S
La281 O308 2.554 1_655 S
La281 O309 2.757 1_655 S
La281 O310 2.470 1_655 S
C282 La280 2.928 1_655 S
C282 C283 1.503 . S
C282 O300 1.261 . S
C282 O301 1.243 1_655 S
C283 C282 1.503 . S
C283 C284 1.394 . S
C283 C288 1.373 . S
C284 C283 1.394 . S
C284 C285 1.380 . S
C284 H312 0.930 . S
C285 C284 1.380 . S
C285 C286 1.376 . S
C285 H313 0.930 . S
C286 C285 1.376 . S
C286 C287 1.370 . S
C287 C286 1.370 . S
C287 C288 1.396 . S
C287 H314 0.929 . S
C288 C283 1.373 . S
C288 C287 1.396 . S
C288 H315 0.929 1_655 S
C289 O302 1.240 . S
C289 O303 1.289 . S
C290 O304 1.258 . S
C290 O305 1.256 . S
C291 La281 2.928 1_455 S
C291 C292 1.503 . S
C291 O306 1.261 . S
C291 O307 1.243 1_455 S
C292 C291 1.503 . S
C292 C293 1.394 . S
C292 C297 1.373 . S
C293 C292 1.394 . S
C293 C294 1.380 . S
C293 H316 0.930 . S
C294 C293 1.380 . S
C294 C295 1.376 . S
C294 H317 0.930 . S
C295 C294 1.376 . S
C295 C296 1.370 . S
C296 C295 1.370 . S
C296 C297 1.396 . S
C296 H318 0.929 . S
C297 C292 1.373 . S
C297 C296 1.396 . S
C297 H319 0.929 1_455 S
C298 O308 1.240 . S
C298 O309 1.289 . S
C299 O310 1.258 . S
C299 O311 1.256 . S
O300 La280 2.521 1_655 S
O300 C282 1.261 . S
O301 La280 2.628 . S
O301 C282 1.243 1_455 S
O302 La280 2.554 1_655 S
O302 C289 1.240 . S
O303 La280 2.757 1_655 S
O303 La281 2.482 . S
O303 C289 1.289 . S
O304 La280 2.470 1_655 S
O304 C290 1.258 . S
O305 La281 2.503 . S
O305 C290 1.256 . S
O306 La281 2.521 1_455 S
O306 C291 1.261 . S
O307 La281 2.628 . S
O307 C291 1.243 1_655 S
O308 La281 2.554 1_455 S
O308 C298 1.240 . S
O309 La280 2.482 . S
O309 La281 2.757 1_455 S
O309 C298 1.289 . S
O310 La281 2.470 1_455 S
O310 C299 1.258 . S
O311 La280 2.503 . S
O311 C299 1.256 . S
H312 C284 0.930 . S
H313 C285 0.930 . S
H314 C287 0.929 . S
H315 C288 0.929 1_455 S
H316 C293 0.930 . S
H317 C294 0.930 . S
H318 C296 0.929 . S
H319 C297 0.929 1_655 S
C320 C321 1.391 . S
C320 C322 1.394 . S
C320 H336 0.931 . S
C321 C320 1.391 . S
C321 C325 1.376 . S
C322 C320 1.394 . S
C322 C323 1.369 . S
C322 C326 1.531 . S
C323 C322 1.369 . S
C323 C324 1.410 . S
C323 C331 1.503 . S
C324 C323 1.410 . S
C324 C325 1.392 . S
C324 C327 1.511 . S
C325 C321 1.376 . S
C325 C324 1.392 . S
C325 H337 0.929 . S
C326 C322 1.531 . S
C326 H338 0.960 . S
C326 H339 0.962 . S
C326 H340 0.960 . S
C327 C324 1.511 . S
C327 H341 0.961 . S
C327 H342 0.961 . S
C327 H343 0.961 . S
C328 C329 1.370 . S
C328 C330 1.363 . S
C328 H344 0.931 . S
C329 C328 1.370 . S
C329 C333 1.408 . S
C330 C328 1.363 . S
C330 C331 1.370 . S
C330 C334 1.524 . S
C331 C323 1.503 . S
C331 C330 1.370 . S
C331 C332 1.403 . S
C332 C331 1.403 . S
C332 C333 1.404 . S
C332 C335 1.539 . S
C333 C329 1.408 . S
C333 C332 1.404 . S
C333 H345 0.930 . S
C334 C330 1.524 . S
C334 H346 0.956 . S
C334 H347 0.961 . S
C334 H348 0.961 . S
C335 C332 1.539 . S
C335 H349 0.958 . S
C335 H350 0.961 . S
C335 H351 0.960 . S
H336 C320 0.931 . S
H337 C325 0.929 . S
H338 C326 0.960 . S
H339 C326 0.962 . S
H340 C326 0.960 . S
H341 C327 0.961 . S
H342 C327 0.961 . S
H343 C327 0.961 . S
H344 C328 0.931 . S
H345 C333 0.930 . S
H346 C334 0.956 . S
H347 C334 0.961 . S
H348 C334 0.961 . S
H349 C335 0.958 . S
H350 C335 0.961 . S
H351 C335 0.960 . S
C352 C353 1.391 . S
C352 C354 1.394 . S
C352 H368 0.931 . S
C353 C352 1.391 . S
C353 C357 1.376 . S
C354 C352 1.394 . S
C354 C355 1.369 . S
C354 C358 1.531 . S
C355 C354 1.369 . S
C355 C356 1.410 . S
C355 C363 1.503 . S
C356 C355 1.410 . S
C356 C357 1.392 . S
C356 C359 1.511 . S
C357 C353 1.376 . S
C357 C356 1.392 . S
C357 H369 0.929 . S
C358 C354 1.531 . S
C358 H370 0.960 . S
C358 H371 0.962 . S
C358 H372 0.960 . S
C359 C356 1.511 . S
C359 H373 0.961 . S
C359 H374 0.961 . S
C359 H375 0.961 . S
C360 C361 1.370 . S
C360 C362 1.363 . S
C360 H376 0.931 . S
C361 C360 1.370 . S
C361 C365 1.408 . S
C362 C360 1.363 . S
C362 C363 1.370 . S
C362 C366 1.524 . S
C363 C355 1.503 . S
C363 C362 1.370 . S
C363 C364 1.403 . S
C364 C363 1.403 . S
C364 C365 1.404 . S
C364 C367 1.539 . S
C365 C361 1.408 . S
C365 C364 1.404 . S
C365 H377 0.930 . S
C366 C362 1.524 . S
C366 H378 0.956 . S
C366 H379 0.961 . S
C366 H380 0.961 . S
C367 C364 1.539 . S
C367 H381 0.958 . S
C367 H382 0.961 . S
C367 H383 0.960 . S
H368 C352 0.931 . S
H369 C357 0.929 . S
H370 C358 0.960 . S
H371 C358 0.962 . S
H372 C358 0.960 . S
H373 C359 0.961 . S
H374 C359 0.961 . S
H375 C359 0.961 . S
H376 C360 0.931 . S
H377 C365 0.930 . S
H378 C366 0.956 . S
H379 C366 0.961 . S
H380 C366 0.961 . S
H381 C367 0.958 . S
H382 C367 0.961 . S
H383 C367 0.960 . S
C384 C385 1.391 . S
C384 C386 1.394 . S
C384 H400 0.931 . S
C385 C384 1.391 . S
C385 C389 1.376 . S
C386 C384 1.394 . S
C386 C387 1.369 . S
C386 C390 1.531 . S
C387 C386 1.369 . S
C387 C388 1.410 . S
C387 C395 1.503 . S
C388 C387 1.410 . S
C388 C389 1.392 . S
C388 C391 1.511 . S
C389 C385 1.376 . S
C389 C388 1.392 . S
C389 H401 0.929 . S
C390 C386 1.531 . S
C390 H402 0.960 . S
C390 H403 0.962 . S
C390 H404 0.960 . S
C391 C388 1.511 . S
C391 H405 0.961 . S
C391 H406 0.961 . S
C391 H407 0.961 . S
C392 C393 1.370 . S
C392 C394 1.363 . S
C392 H408 0.931 1_556 S
C393 C392 1.370 . S
C393 C397 1.408 . S
C394 C392 1.363 . S
C394 C395 1.370 . S
C394 C398 1.524 . S
C395 C387 1.503 . S
C395 C394 1.370 . S
C395 C396 1.403 . S
C396 C395 1.403 . S
C396 C397 1.404 . S
C396 C399 1.539 . S
C397 C393 1.408 . S
C397 C396 1.404 . S
C397 H409 0.930 . S
C398 C394 1.524 . S
C398 H410 0.956 . S
C398 H411 0.961 . S
C398 H412 0.961 1_556 S
C399 C396 1.539 . S
C399 H413 0.958 . S
C399 H414 0.961 . S
C399 H415 0.960 . S
H400 C384 0.931 . S
H401 C389 0.929 . S
H402 C390 0.960 . S
H403 C390 0.962 . S
H404 C390 0.960 . S
H405 C391 0.961 . S
H406 C391 0.961 . S
H407 C391 0.961 . S
H408 C392 0.931 1_554 S
H409 C397 0.930 . S
H410 C398 0.956 . S
H411 C398 0.961 . S
H412 C398 0.961 1_554 S
H413 C399 0.958 . S
H414 C399 0.961 . S
H415 C399 0.960 . S
C416 C417 1.391 . S
C416 C418 1.394 . S
C416 H432 0.931 . S
C417 C416 1.391 . S
C417 C421 1.376 . S
C418 C416 1.394 . S
C418 C419 1.369 . S
C418 C422 1.531 . S
C419 C418 1.369 . S
C419 C420 1.410 . S
C419 C427 1.503 . S
C420 C419 1.410 . S
C420 C421 1.392 . S
C420 C423 1.511 . S
C421 C417 1.376 . S
C421 C420 1.392 . S
C421 H433 0.929 . S
C422 C418 1.531 . S
C422 H434 0.960 . S
C422 H435 0.962 . S
C422 H436 0.960 . S
C423 C420 1.511 . S
C423 H437 0.961 . S
C423 H438 0.961 . S
C423 H439 0.961 . S
C424 C425 1.370 . S
C424 C426 1.363 . S
C424 H440 0.931 . S
C425 C424 1.370 . S
C425 C429 1.408 . S
C426 C424 1.363 . S
C426 C427 1.370 . S
C426 C430 1.524 . S
C427 C419 1.503 . S
C427 C426 1.370 . S
C427 C428 1.403 . S
C428 C427 1.403 . S
C428 C429 1.404 . S
C428 C431 1.539 . S
C429 C425 1.408 . S
C429 C428 1.404 . S
C429 H441 0.930 . S
C430 C426 1.524 . S
C430 H442 0.956 . S
C430 H443 0.961 . S
C430 H444 0.961 . S
C431 C428 1.539 . S
C431 H445 0.958 . S
C431 H446 0.961 . S
C431 H447 0.960 . S
H432 C416 0.931 . S
H433 C421 0.929 . S
H434 C422 0.960 . S
H435 C422 0.962 . S
H436 C422 0.960 . S
H437 C423 0.961 . S
H438 C423 0.961 . S
H439 C423 0.961 . S
H440 C424 0.931 . S
H441 C429 0.930 . S
H442 C430 0.956 . S
H443 C430 0.961 . S
H444 C430 0.961 . S
H445 C431 0.958 . S
H446 C431 0.961 . S
H447 C431 0.960 . S
C448 C449 1.391 . S
C448 C450 1.394 . S
C448 H464 0.931 . S
C449 C448 1.391 . S
C449 C453 1.376 . S
C450 C448 1.394 . S
C450 C451 1.369 . S
C450 C454 1.531 . S
C451 C450 1.369 . S
C451 C452 1.410 . S
C451 C459 1.503 . S
C452 C451 1.410 . S
C452 C453 1.392 . S
C452 C455 1.511 . S
C453 C449 1.376 . S
C453 C452 1.392 . S
C453 H465 0.929 . S
C454 C450 1.531 . S
C454 H466 0.960 . S
C454 H467 0.962 . S
C454 H468 0.960 . S
C455 C452 1.511 . S
C455 H469 0.961 . S
C455 H470 0.961 . S
C455 H471 0.961 . S
C456 C457 1.370 . S
C456 C458 1.363 . S
C456 H472 0.931 . S
C457 C456 1.370 . S
C457 C461 1.408 . S
C458 C456 1.363 . S
C458 C459 1.370 . S
C458 C462 1.524 . S
C459 C451 1.503 . S
C459 C458 1.370 . S
C459 C460 1.403 . S
C460 C459 1.403 . S
C460 C461 1.404 . S
C460 C463 1.539 . S
C461 C457 1.408 . S
C461 C460 1.404 . S
C461 H473 0.930 . S
C462 C458 1.524 . S
C462 H474 0.956 . S
C462 H475 0.961 . S
C462 H476 0.961 . S
C463 C460 1.539 . S
C463 H477 0.958 . S
C463 H478 0.961 . S
C463 H479 0.960 . S
H464 C448 0.931 . S
H465 C453 0.929 . S
H466 C454 0.960 . S
H467 C454 0.962 . S
H468 C454 0.960 . S
H469 C455 0.961 . S
H470 C455 0.961 . S
H471 C455 0.961 . S
H472 C456 0.931 . S
H473 C461 0.930 . S
H474 C462 0.956 . S
H475 C462 0.961 . S
H476 C462 0.961 . S
H477 C463 0.958 . S
H478 C463 0.961 . S
H479 C463 0.960 . S
C480 C481 1.391 . S
C480 C482 1.394 . S
C480 H496 0.931 . S
C481 C480 1.391 . S
C481 C485 1.376 . S
C482 C480 1.394 . S
C482 C483 1.369 . S
C482 C486 1.531 . S
C483 C482 1.369 . S
C483 C484 1.410 . S
C483 C491 1.503 . S
C484 C483 1.410 . S
C484 C485 1.392 . S
C484 C487 1.511 . S
C485 C481 1.376 . S
C485 C484 1.392 . S
C485 H497 0.929 . S
C486 C482 1.531 . S
C486 H498 0.960 . S
C486 H499 0.962 . S
C486 H500 0.960 . S
C487 C484 1.511 . S
C487 H501 0.961 . S
C487 H502 0.961 . S
C487 H503 0.961 . S
C488 C489 1.370 . S
C488 C490 1.363 . S
C488 H504 0.931 . S
C489 C488 1.370 . S
C489 C493 1.408 . S
C490 C488 1.363 . S
C490 C491 1.370 . S
C490 C494 1.524 . S
C491 C483 1.503 . S
C491 C490 1.370 . S
C491 C492 1.403 . S
C492 C491 1.403 . S
C492 C493 1.404 . S
C492 C495 1.539 . S
C493 C489 1.408 . S
C493 C492 1.404 . S
C493 H505 0.930 . S
C494 C490 1.524 . S
C494 H506 0.956 . S
C494 H507 0.961 . S
C494 H508 0.961 . S
C495 C492 1.539 . S
C495 H509 0.958 . S
C495 H510 0.961 . S
C495 H511 0.960 . S
H496 C480 0.931 . S
H497 C485 0.929 . S
H498 C486 0.960 . S
H499 C486 0.962 . S
H500 C486 0.960 . S
H501 C487 0.961 . S
H502 C487 0.961 . S
H503 C487 0.961 . S
H504 C488 0.931 . S
H505 C493 0.930 . S
H506 C494 0.956 . S
H507 C494 0.961 . S
H508 C494 0.961 . S
H509 C495 0.958 . S
H510 C495 0.961 . S
H511 C495 0.960 . S
C512 C513 1.391 . S
C512 C514 1.394 . S
C512 H528 0.931 . S
C513 C512 1.391 . S
C513 C517 1.376 . S
C514 C512 1.394 . S
C514 C515 1.369 . S
C514 C518 1.531 . S
C515 C514 1.369 . S
C515 C516 1.410 . S
C515 C523 1.503 . S
C516 C515 1.410 . S
C516 C517 1.392 . S
C516 C519 1.511 . S
C517 C513 1.376 . S
C517 C516 1.392 . S
C517 H529 0.929 . S
C518 C514 1.531 . S
C518 H530 0.960 . S
C518 H531 0.962 . S
C518 H532 0.960 . S
C519 C516 1.511 . S
C519 H533 0.961 . S
C519 H534 0.961 . S
C519 H535 0.961 . S
C520 C521 1.370 . S
C520 C522 1.363 . S
C520 H536 0.931 . S
C521 C520 1.370 . S
C521 C525 1.408 . S
C522 C520 1.363 . S
C522 C523 1.370 . S
C522 C526 1.524 . S
C523 C515 1.503 . S
C523 C522 1.370 . S
C523 C524 1.403 . S
C524 C523 1.403 . S
C524 C525 1.404 . S
C524 C527 1.539 . S
C525 C521 1.408 . S
C525 C524 1.404 . S
C525 H537 0.930 . S
C526 C522 1.524 . S
C526 H538 0.956 . S
C526 H539 0.961 . S
C526 H540 0.961 . S
C527 C524 1.539 . S
C527 H541 0.958 . S
C527 H542 0.961 . S
C527 H543 0.960 . S
H528 C512 0.931 . S
H529 C517 0.929 . S
H530 C518 0.960 . S
H531 C518 0.962 . S
H532 C518 0.960 . S
H533 C519 0.961 . S
H534 C519 0.961 . S
H535 C519 0.961 . S
H536 C520 0.931 . S
H537 C525 0.930 . S
H538 C526 0.956 . S
H539 C526 0.961 . S
H540 C526 0.961 . S
H541 C527 0.958 . S
H542 C527 0.961 . S
H543 C527 0.960 . S
C544 C545 1.391 . S
C544 C546 1.394 . S
C544 H560 0.931 . S
C545 C544 1.391 . S
C545 C549 1.376 . S
C546 C544 1.394 . S
C546 C547 1.369 . S
C546 C550 1.531 . S
C547 C546 1.369 . S
C547 C548 1.410 . S
C547 C555 1.503 . S
C548 C547 1.410 . S
C548 C549 1.392 . S
C548 C551 1.511 . S
C549 C545 1.376 . S
C549 C548 1.392 . S
C549 H561 0.929 . S
C550 C546 1.531 . S
C550 H562 0.960 . S
C550 H563 0.962 . S
C550 H564 0.960 . S
C551 C548 1.511 . S
C551 H565 0.961 . S
C551 H566 0.961 . S
C551 H567 0.961 . S
C552 C553 1.370 . S
C552 C554 1.363 . S
C552 H568 0.931 . S
C553 C552 1.370 . S
C553 C557 1.408 . S
C554 C552 1.363 . S
C554 C555 1.370 . S
C554 C558 1.524 . S
C555 C547 1.503 . S
C555 C554 1.370 . S
C555 C556 1.403 . S
C556 C555 1.403 . S
C556 C557 1.404 . S
C556 C559 1.539 . S
C557 C553 1.408 . S
C557 C556 1.404 . S
C557 H569 0.930 . S
C558 C554 1.524 . S
C558 H570 0.956 . S
C558 H571 0.961 . S
C558 H572 0.961 . S
C559 C556 1.539 . S
C559 H573 0.958 . S
C559 H574 0.961 . S
C559 H575 0.960 . S
H560 C544 0.931 . S
H561 C549 0.929 . S
H562 C550 0.960 . S
H563 C550 0.962 . S
H564 C550 0.960 . S
H565 C551 0.961 . S
H566 C551 0.961 . S
H567 C551 0.961 . S
H568 C552 0.931 . S
H569 C557 0.930 . S
H570 C558 0.956 . S
H571 C558 0.961 . S
H572 C558 0.961 . S
H573 C559 0.958 . S
H574 C559 0.961 . S
H575 C559 0.960 . S
C576 C577 1.391 . S
C576 C578 1.394 . S
C576 H592 0.931 . S
C577 C576 1.391 . S
C577 C581 1.376 . S
C578 C576 1.394 . S
C578 C579 1.369 . S
C578 C582 1.531 . S
C579 C578 1.369 . S
C579 C580 1.410 . S
C579 C587 1.503 . S
C580 C579 1.410 . S
C580 C581 1.392 . S
C580 C583 1.511 . S
C581 C577 1.376 . S
C581 C580 1.392 . S
C581 H593 0.929 . S
C582 C578 1.531 . S
C582 H594 0.960 . S
C582 H595 0.962 . S
C582 H596 0.960 . S
C583 C580 1.511 . S
C583 H597 0.961 . S
C583 H598 0.961 . S
C583 H599 0.961 . S
C584 C585 1.370 . S
C584 C586 1.363 . S
C584 H600 0.931 . S
C585 C584 1.370 . S
C585 C589 1.408 . S
C586 C584 1.363 . S
C586 C587 1.370 . S
C586 C590 1.524 . S
C587 C579 1.503 . S
C587 C586 1.370 . S
C587 C588 1.403 . S
C588 C587 1.403 . S
C588 C589 1.404 . S
C588 C591 1.539 . S
C589 C585 1.408 . S
C589 C588 1.404 . S
C589 H601 0.930 . S
C590 C586 1.524 . S
C590 H602 0.956 . S
C590 H603 0.961 . S
C590 H604 0.961 . S
C591 C588 1.539 . S
C591 H605 0.958 . S
C591 H606 0.961 . S
C591 H607 0.960 . S
H592 C576 0.931 . S
H593 C581 0.929 . S
H594 C582 0.960 . S
H595 C582 0.962 . S
H596 C582 0.960 . S
H597 C583 0.961 . S
H598 C583 0.961 . S
H599 C583 0.961 . S
H600 C584 0.931 . S
H601 C589 0.930 . S
H602 C590 0.956 . S
H603 C590 0.961 . S
H604 C590 0.961 . S
H605 C591 0.958 . S
H606 C591 0.961 . S
H607 C591 0.960 . S
C608 C609 1.391 . S
C608 C610 1.394 . S
C608 H624 0.931 . S
C609 C608 1.391 . S
C609 C613 1.376 . S
C610 C608 1.394 . S
C610 C611 1.369 . S
C610 C614 1.531 . S
C611 C610 1.369 . S
C611 C612 1.410 . S
C611 C619 1.503 . S
C612 C611 1.410 . S
C612 C613 1.392 . S
C612 C615 1.511 . S
C613 C609 1.376 . S
C613 C612 1.392 . S
C613 H625 0.929 . S
C614 C610 1.531 . S
C614 H626 0.960 . S
C614 H627 0.962 . S
C614 H628 0.960 . S
C615 C612 1.511 . S
C615 H629 0.961 . S
C615 H630 0.961 . S
C615 H631 0.961 . S
C616 C617 1.370 . S
C616 C618 1.363 . S
C616 H632 0.931 . S
C617 C616 1.370 . S
C617 C621 1.408 . S
C618 C616 1.363 . S
C618 C619 1.370 . S
C618 C622 1.524 . S
C619 C611 1.503 . S
C619 C618 1.370 . S
C619 C620 1.403 . S
C620 C619 1.403 . S
C620 C621 1.404 . S
C620 C623 1.539 . S
C621 C617 1.408 . S
C621 C620 1.404 . S
C621 H633 0.930 . S
C622 C618 1.524 . S
C622 H634 0.956 . S
C622 H635 0.961 . S
C622 H636 0.961 . S
C623 C620 1.539 . S
C623 H637 0.958 . S
C623 H638 0.961 . S
C623 H639 0.960 . S
H624 C608 0.931 . S
H625 C613 0.929 . S
H626 C614 0.960 . S
H627 C614 0.962 . S
H628 C614 0.960 . S
H629 C615 0.961 . S
H630 C615 0.961 . S
H631 C615 0.961 . S
H632 C616 0.931 . S
H633 C621 0.930 . S
H634 C622 0.956 . S
H635 C622 0.961 . S
H636 C622 0.961 . S
H637 C623 0.958 . S
H638 C623 0.961 . S
H639 C623 0.960 . S
C640 C641 1.391 . S
C640 C642 1.394 . S
C640 H656 0.931 . S
C641 C640 1.391 . S
C641 C645 1.376 . S
C642 C640 1.394 . S
C642 C643 1.369 . S
C642 C646 1.531 . S
C643 C642 1.369 . S
C643 C644 1.410 . S
C643 C651 1.503 . S
C644 C643 1.410 . S
C644 C645 1.392 . S
C644 C647 1.511 . S
C645 C641 1.376 . S
C645 C644 1.392 . S
C645 H657 0.929 . S
C646 C642 1.531 . S
C646 H658 0.960 . S
C646 H659 0.962 . S
C646 H660 0.960 . S
C647 C644 1.511 . S
C647 H661 0.961 . S
C647 H662 0.961 . S
C647 H663 0.961 . S
C648 C649 1.370 . S
C648 C650 1.363 . S
C648 H664 0.931 . S
C649 C648 1.370 . S
C649 C653 1.408 . S
C650 C648 1.363 . S
C650 C651 1.370 . S
C650 C654 1.524 . S
C651 C643 1.503 . S
C651 C650 1.370 . S
C651 C652 1.403 . S
C652 C651 1.403 . S
C652 C653 1.404 . S
C652 C655 1.539 . S
C653 C649 1.408 . S
C653 C652 1.404 . S
C653 H665 0.930 . S
C654 C650 1.524 . S
C654 H666 0.956 . S
C654 H667 0.961 . S
C654 H668 0.961 . S
C655 C652 1.539 . S
C655 H669 0.958 . S
C655 H670 0.961 . S
C655 H671 0.960 . S
H656 C640 0.931 . S
H657 C645 0.929 . S
H658 C646 0.960 . S
H659 C646 0.962 . S
H660 C646 0.960 . S
H661 C647 0.961 . S
H662 C647 0.961 . S
H663 C647 0.961 . S
H664 C648 0.931 . S
H665 C653 0.930 . S
H666 C654 0.956 . S
H667 C654 0.961 . S
H668 C654 0.961 . S
H669 C655 0.958 . S
H670 C655 0.961 . S
H671 C655 0.960 . S
C672 C673 1.391 . S
C672 C674 1.394 . S
C672 H688 0.931 . S
C673 C672 1.391 . S
C673 C677 1.376 . S
C674 C672 1.394 . S
C674 C675 1.369 . S
C674 C678 1.531 . S
C675 C674 1.369 . S
C675 C676 1.410 . S
C675 C683 1.503 . S
C676 C675 1.410 . S
C676 C677 1.392 . S
C676 C679 1.511 . S
C677 C673 1.376 . S
C677 C676 1.392 . S
C677 H689 0.929 . S
C678 C674 1.531 . S
C678 H690 0.960 . S
C678 H691 0.962 . S
C678 H692 0.960 . S
C679 C676 1.511 . S
C679 H693 0.961 . S
C679 H694 0.961 . S
C679 H695 0.961 . S
C680 C681 1.370 . S
C680 C682 1.363 . S
C680 H696 0.931 . S
C681 C680 1.370 . S
C681 C685 1.408 . S
C682 C680 1.363 . S
C682 C683 1.370 . S
C682 C686 1.524 . S
C683 C675 1.503 . S
C683 C682 1.370 . S
C683 C684 1.403 . S
C684 C683 1.403 . S
C684 C685 1.404 . S
C684 C687 1.539 . S
C685 C681 1.408 . S
C685 C684 1.404 . S
C685 H697 0.930 . S
C686 C682 1.524 . S
C686 H698 0.956 . S
C686 H699 0.961 . S
C686 H700 0.961 . S
C687 C684 1.539 . S
C687 H701 0.958 . S
C687 H702 0.961 . S
C687 H703 0.960 . S
H688 C672 0.931 . S
H689 C677 0.929 . S
H690 C678 0.960 . S
H691 C678 0.962 . S
H692 C678 0.960 . S
H693 C679 0.961 . S
H694 C679 0.961 . S
H695 C679 0.961 . S
H696 C680 0.931 . S
H697 C685 0.930 . S
H698 C686 0.956 . S
H699 C686 0.961 . S
H700 C686 0.961 . S
H701 C687 0.958 . S
H702 C687 0.961 . S
H703 C687 0.960 . S
C704 C705 1.391 . S
C704 C706 1.394 . S
C704 H720 0.931 . S
C705 C704 1.391 . S
C705 C709 1.376 . S
C706 C704 1.394 . S
C706 C707 1.369 . S
C706 C710 1.531 . S
C707 C706 1.369 . S
C707 C708 1.410 . S
C707 C715 1.503 . S
C708 C707 1.410 . S
C708 C709 1.392 . S
C708 C711 1.511 . S
C709 C705 1.376 . S
C709 C708 1.392 . S
C709 H721 0.929 . S
C710 C706 1.531 . S
C710 H722 0.960 . S
C710 H723 0.962 . S
C710 H724 0.960 . S
C711 C708 1.511 . S
C711 H725 0.961 . S
C711 H726 0.961 . S
C711 H727 0.961 . S
C712 C713 1.370 . S
C712 C714 1.363 . S
C712 H728 0.931 . S
C713 C712 1.370 . S
C713 C717 1.408 . S
C714 C712 1.363 . S
C714 C715 1.370 . S
C714 C718 1.524 . S
C715 C707 1.503 . S
C715 C714 1.370 . S
C715 C716 1.403 . S
C716 C715 1.403 . S
C716 C717 1.404 . S
C716 C719 1.539 . S
C717 C713 1.408 . S
C717 C716 1.404 . S
C717 H729 0.930 . S
C718 C714 1.524 . S
C718 H730 0.956 . S
C718 H731 0.961 . S
C718 H732 0.961 . S
C719 C716 1.539 . S
C719 H733 0.958 . S
C719 H734 0.961 . S
C719 H735 0.960 . S
H720 C704 0.931 . S
H721 C709 0.929 . S
H722 C710 0.960 . S
H723 C710 0.962 . S
H724 C710 0.960 . S
H725 C711 0.961 . S
H726 C711 0.961 . S
H727 C711 0.961 . S
H728 C712 0.931 . S
H729 C717 0.930 . S
H730 C718 0.956 . S
H731 C718 0.961 . S
H732 C718 0.961 . S
H733 C719 0.958 . S
H734 C719 0.961 . S
H735 C719 0.960 . S
C736 C737 1.391 . S
C736 C738 1.394 . S
C736 H752 0.931 . S
C737 C736 1.391 . S
C737 C741 1.376 . S
C738 C736 1.394 . S
C738 C739 1.369 . S
C738 C742 1.531 . S
C739 C738 1.369 . S
C739 C740 1.410 . S
C739 C747 1.503 . S
C740 C739 1.410 . S
C740 C741 1.392 . S
C740 C743 1.511 . S
C741 C737 1.376 . S
C741 C740 1.392 . S
C741 H753 0.929 . S
C742 C738 1.531 . S
C742 H754 0.960 . S
C742 H755 0.962 . S
C742 H756 0.960 . S
C743 C740 1.511 . S
C743 H757 0.961 . S
C743 H758 0.961 . S
C743 H759 0.961 . S
C744 C745 1.370 . S
C744 C746 1.363 . S
C744 H760 0.931 . S
C745 C744 1.370 . S
C745 C749 1.408 . S
C746 C744 1.363 . S
C746 C747 1.370 . S
C746 C750 1.524 . S
C747 C739 1.503 . S
C747 C746 1.370 . S
C747 C748 1.403 . S
C748 C747 1.403 . S
C748 C749 1.404 . S
C748 C751 1.539 . S
C749 C745 1.408 . S
C749 C748 1.404 . S
C749 H761 0.930 . S
C750 C746 1.524 . S
C750 H762 0.956 . S
C750 H763 0.961 . S
C750 H764 0.961 . S
C751 C748 1.539 . S
C751 H765 0.958 . S
C751 H766 0.961 . S
C751 H767 0.960 . S
H752 C736 0.931 . S
H753 C741 0.929 . S
H754 C742 0.960 . S
H755 C742 0.962 . S
H756 C742 0.960 . S
H757 C743 0.961 . S
H758 C743 0.961 . S
H759 C743 0.961 . S
H760 C744 0.931 . S
H761 C749 0.930 . S
H762 C750 0.956 . S
H763 C750 0.961 . S
H764 C750 0.961 . S
H765 C751 0.958 . S
H766 C751 0.961 . S
H767 C751 0.960 . S
C768 C769 1.391 . S
C768 C770 1.394 . S
C768 H784 0.931 . S
C769 C768 1.391 . S
C769 C773 1.376 . S
C770 C768 1.394 . S
C770 C771 1.369 . S
C770 C774 1.531 . S
C771 C770 1.369 . S
C771 C772 1.410 . S
C771 C779 1.503 . S
C772 C771 1.410 . S
C772 C773 1.392 . S
C772 C775 1.511 . S
C773 C769 1.376 . S
C773 C772 1.392 . S
C773 H785 0.929 . S
C774 C770 1.531 . S
C774 H786 0.960 . S
C774 H787 0.962 . S
C774 H788 0.960 . S
C775 C772 1.511 . S
C775 H789 0.961 . S
C775 H790 0.961 . S
C775 H791 0.961 . S
C776 C777 1.370 . S
C776 C778 1.363 . S
C776 H792 0.931 . S
C777 C776 1.370 . S
C777 C781 1.408 . S
C778 C776 1.363 . S
C778 C779 1.370 . S
C778 C782 1.524 . S
C779 C771 1.503 . S
C779 C778 1.370 . S
C779 C780 1.403 . S
C780 C779 1.403 . S
C780 C781 1.404 . S
C780 C783 1.539 . S
C781 C777 1.408 . S
C781 C780 1.404 . S
C781 H793 0.930 . S
C782 C778 1.524 . S
C782 H794 0.956 . S
C782 H795 0.961 . S
C782 H796 0.961 . S
C783 C780 1.539 . S
C783 H797 0.958 . S
C783 H798 0.961 . S
C783 H799 0.960 . S
H784 C768 0.931 . S
H785 C773 0.929 . S
H786 C774 0.960 . S
H787 C774 0.962 . S
H788 C774 0.960 . S
H789 C775 0.961 . S
H790 C775 0.961 . S
H791 C775 0.961 . S
H792 C776 0.931 . S
H793 C781 0.930 . S
H794 C782 0.956 . S
H795 C782 0.961 . S
H796 C782 0.961 . S
H797 C783 0.958 . S
H798 C783 0.961 . S
H799 C783 0.960 . S
C800 C801 1.391 . S
C800 C802 1.394 . S
C800 H816 0.931 . S
C801 C800 1.391 . S
C801 C805 1.376 . S
C802 C800 1.394 . S
C802 C803 1.369 . S
C802 C806 1.531 . S
C803 C802 1.369 . S
C803 C804 1.410 . S
C803 C811 1.503 . S
C804 C803 1.410 . S
C804 C805 1.392 . S
C804 C807 1.511 . S
C805 C801 1.376 . S
C805 C804 1.392 . S
C805 H817 0.929 . S
C806 C802 1.531 . S
C806 H818 0.960 . S
C806 H819 0.962 . S
C806 H820 0.960 . S
C807 C804 1.511 . S
C807 H821 0.961 . S
C807 H822 0.961 . S
C807 H823 0.961 . S
C808 C809 1.370 . S
C808 C810 1.363 . S
C808 H824 0.931 . S
C809 C808 1.370 . S
C809 C813 1.408 . S
C810 C808 1.363 . S
C810 C811 1.370 . S
C810 C814 1.524 . S
C811 C803 1.503 . S
C811 C810 1.370 . S
C811 C812 1.403 . S
C812 C811 1.403 . S
C812 C813 1.404 . S
C812 C815 1.539 . S
C813 C809 1.408 . S
C813 C812 1.404 . S
C813 H825 0.930 . S
C814 C810 1.524 . S
C814 H826 0.956 . S
C814 H827 0.961 . S
C814 H828 0.961 . S
C815 C812 1.539 . S
C815 H829 0.958 . S
C815 H830 0.961 . S
C815 H831 0.960 . S
H816 C800 0.931 . S
H817 C805 0.929 . S
H818 C806 0.960 . S
H819 C806 0.962 . S
H820 C806 0.960 . S
H821 C807 0.961 . S
H822 C807 0.961 . S
H823 C807 0.961 . S
H824 C808 0.931 . S
H825 C813 0.930 . S
H826 C814 0.956 . S
H827 C814 0.961 . S
H828 C814 0.961 . S
H829 C815 0.958 . S
H830 C815 0.961 . S
H831 C815 0.960 . S
C832 C833 1.391 . S
C832 C834 1.394 . S
C832 H848 0.931 . S
C833 C832 1.391 . S
C833 C837 1.376 1_665 S
C834 C832 1.394 . S
C834 C835 1.369 . S
C834 C838 1.531 . S
C835 C834 1.369 . S
C835 C836 1.410 1_665 S
C835 C843 1.503 1_656 S
C836 C835 1.410 1_445 S
C836 C837 1.392 . S
C836 C839 1.511 . S
C837 C833 1.376 1_445 S
C837 C836 1.392 . S
C837 H849 0.929 . S
C838 C834 1.531 . S
C838 H850 0.960 1_556 S
C838 H851 0.962 . S
C838 H852 0.960 . S
C839 C836 1.511 . S
C839 H853 0.961 . S
C839 H854 0.961 . S
C839 H855 0.961 1_545 S
C840 C841 1.370 1_545 S
C840 C842 1.363 1_455 S
C840 H856 0.932 . S
C841 C840 1.370 1_565 S
C841 C845 1.408 . S
C842 C840 1.363 1_655 S
C842 C843 1.370 1_645 S
C842 C846 1.524 . S
C843 C835 1.503 1_454 S
C843 C842 1.370 1_465 S
C843 C844 1.403 . S
C844 C843 1.403 . S
C844 C845 1.404 . S
C844 C847 1.539 . S
C845 C841 1.408 . S
C845 C844 1.404 . S
C845 H857 0.930 . S
C846 C842 1.524 . S
C846 H858 0.956 1_554 S
C846 H859 0.961 1_554 S
C846 H860 0.961 . S
C847 C844 1.539 . S
C847 H861 0.958 . S
C847 H862 0.961 . S
C847 H863 0.960 . S
H848 C832 0.931 . S
H849 C837 0.929 . S
H850 C838 0.960 1_554 S
H851 C838 0.962 . S
H852 C838 0.960 . S
H853 C839 0.961 . S
H854 C839 0.961 . S
H855 C839 0.961 1_565 S
H856 C840 0.932 . S
H857 C845 0.930 . S
H858 C846 0.956 1_556 S
H859 C846 0.961 1_556 S
H860 C846 0.961 . S
H861 C847 0.958 . S
H862 C847 0.961 . S
H863 C847 0.960 . S
C864 C865 1.391 . S
C864 C866 1.394 . S
C864 H880 0.931 . S
C865 C864 1.391 . S
C865 C869 1.376 . S
C866 C864 1.394 . S
C866 C867 1.369 . S
C866 C870 1.531 . S
C867 C866 1.369 . S
C867 C868 1.410 . S
C867 C875 1.503 . S
C868 C867 1.410 . S
C868 C869 1.392 . S
C868 C871 1.511 . S
C869 C865 1.376 . S
C869 C868 1.392 . S
C869 H881 0.929 . S
C870 C866 1.531 . S
C870 H882 0.960 . S
C870 H883 0.962 . S
C870 H884 0.960 . S
C871 C868 1.511 . S
C871 H885 0.961 . S
C871 H886 0.961 . S
C871 H887 0.961 . S
C872 C873 1.370 . S
C872 C874 1.363 . S
C872 H888 0.931 . S
C873 C872 1.370 . S
C873 C877 1.408 . S
C874 C872 1.363 . S
C874 C875 1.370 . S
C874 C878 1.524 . S
C875 C867 1.503 . S
C875 C874 1.370 . S
C875 C876 1.403 . S
C876 C875 1.403 . S
C876 C877 1.404 . S
C876 C879 1.539 . S
C877 C873 1.408 . S
C877 C876 1.404 . S
C877 H889 0.930 . S
C878 C874 1.524 . S
C878 H890 0.956 . S
C878 H891 0.961 . S
C878 H892 0.961 . S
C879 C876 1.539 . S
C879 H893 0.958 . S
C879 H894 0.961 . S
C879 H895 0.960 . S
H880 C864 0.931 . S
H881 C869 0.929 . S
H882 C870 0.960 . S
H883 C870 0.962 . S
H884 C870 0.960 . S
H885 C871 0.961 . S
H886 C871 0.961 . S
H887 C871 0.961 . S
H888 C872 0.931 . S
H889 C877 0.930 . S
H890 C878 0.956 . S
H891 C878 0.961 . S
H892 C878 0.961 . S
H893 C879 0.958 . S
H894 C879 0.961 . S
H895 C879 0.960 . S
C896 C897 1.391 . S
C896 C898 1.394 . S
C896 H912 0.931 . S
C897 C896 1.391 . S
C897 C901 1.376 . S
C898 C896 1.394 . S
C898 C899 1.369 . S
C898 C902 1.531 . S
C899 C898 1.369 . S
C899 C900 1.410 . S
C899 C907 1.519 . S
C900 C899 1.410 . S
C900 C901 1.392 . S
C900 C903 1.511 . S
C901 C897 1.376 . S
C901 C900 1.392 . S
C901 H913 0.929 . S
C902 C898 1.531 . S
C902 H914 0.960 . S
C902 H915 0.962 1_545 S
C902 H916 0.960 . S
C903 C900 1.511 . S
C903 H917 0.961 . S
C903 H918 0.948 1_545 S
C903 H919 0.961 . S
C904 C905 1.370 . S
C904 C906 1.363 . S
C904 H920 0.931 . S
C905 C904 1.370 . S
C905 C909 1.408 1_565 S
C906 C904 1.363 . S
C906 C907 1.337 1_565 S
C906 C910 1.524 . S
C907 C899 1.519 . S
C907 C906 1.337 1_545 S
C907 C908 1.421 . S
C908 C907 1.421 . S
C908 C909 1.404 . S
C908 C911 1.539 . S
C909 C905 1.408 1_545 S
C909 C908 1.404 . S
C909 H921 0.930 . S
C910 C906 1.524 . S
C910 H922 0.956 . S
C910 H923 0.961 . S
C910 H924 0.961 . S
C911 C908 1.539 . S
C911 H925 0.958 . S
C911 H926 0.961 . S
C911 H927 0.960 . S
H912 C896 0.931 . S
H913 C901 0.929 . S
H914 C902 0.960 . S
H915 C902 0.962 1_565 S
H916 C902 0.960 . S
H917 C903 0.961 . S
H918 C903 0.948 1_565 S
H919 C903 0.961 . S
H920 C904 0.931 . S
H921 C909 0.930 . S
H922 C910 0.956 . S
H923 C910 0.961 . S
H924 C910 0.961 . S
H925 C911 0.958 . S
H926 C911 0.961 . S
H927 C911 0.960 . S
C928 C929 1.391 . S
C928 C930 1.394 . S
C928 H944 0.931 . S
C929 C928 1.391 . S
C929 C933 1.376 . S
C930 C928 1.394 . S
C930 C931 1.369 . S
C930 C934 1.531 . S
C931 C930 1.369 . S
C931 C932 1.410 . S
C931 C939 1.503 . S
C932 C931 1.410 . S
C932 C933 1.392 . S
C932 C935 1.511 . S
C933 C929 1.376 . S
C933 C932 1.392 . S
C933 H945 0.929 . S
C934 C930 1.531 . S
C934 H946 0.960 . S
C934 H947 0.962 . S
C934 H948 0.960 . S
C935 C932 1.511 . S
C935 H949 0.961 . S
C935 H950 0.961 . S
C935 H951 0.961 . S
C936 C937 1.370 . S
C936 C938 1.363 . S
C936 H952 0.931 . S
C937 C936 1.370 . S
C937 C941 1.408 . S
C938 C936 1.363 . S
C938 C939 1.370 . S
C938 C942 1.524 . S
C939 C931 1.503 . S
C939 C938 1.370 . S
C939 C940 1.403 . S
C940 C939 1.403 . S
C940 C941 1.404 . S
C940 C943 1.539 . S
C941 C937 1.408 . S
C941 C940 1.404 . S
C941 H953 0.930 . S
C942 C938 1.524 . S
C942 H954 0.956 . S
C942 H955 0.961 . S
C942 H956 0.961 . S
C943 C940 1.539 . S
C943 H957 0.958 . S
C943 H958 0.961 . S
C943 H959 0.960 . S
H944 C928 0.931 . S
H945 C933 0.929 . S
H946 C934 0.960 . S
H947 C934 0.962 . S
H948 C934 0.960 . S
H949 C935 0.961 . S
H950 C935 0.961 . S
H951 C935 0.961 . S
H952 C936 0.931 . S
H953 C941 0.930 . S
H954 C942 0.956 . S
H955 C942 0.961 . S
H956 C942 0.961 . S
H957 C943 0.958 . S
H958 C943 0.961 . S
H959 C943 0.960 . S
C960 C961 1.391 . S
C960 C962 1.394 . S
C960 H976 0.931 . S
C961 C960 1.391 . S
C961 C965 1.376 . S
C962 C960 1.394 . S
C962 C963 1.369 . S
C962 C966 1.531 . S
C963 C962 1.369 . S
C963 C964 1.410 . S
C963 C971 1.503 . S
C964 C963 1.410 . S
C964 C965 1.392 . S
C964 C967 1.511 . S
C965 C961 1.376 . S
C965 C964 1.392 . S
C965 H977 0.929 . S
C966 C962 1.531 . S
C966 H978 0.960 . S
C966 H979 0.962 . S
C966 H980 0.960 . S
C967 C964 1.511 . S
C967 H981 0.961 . S
C967 H982 0.961 . S
C967 H983 0.961 . S
C968 C969 1.370 . S
C968 C970 1.363 . S
C968 H984 0.931 . S
C969 C968 1.370 . S
C969 C973 1.408 . S
C970 C968 1.363 . S
C970 C971 1.370 . S
C970 C974 1.524 . S
C971 C963 1.503 . S
C971 C970 1.370 . S
C971 C972 1.403 . S
C972 C971 1.403 . S
C972 C973 1.404 . S
C972 C975 1.539 . S
C973 C969 1.408 . S
C973 C972 1.404 . S
C973 H985 0.930 . S
C974 C970 1.524 . S
C974 H986 0.956 . S
C974 H987 0.961 . S
C974 H988 0.961 . S
C975 C972 1.539 . S
C975 H989 0.958 . S
C975 H990 0.961 . S
C975 H991 0.960 . S
H976 C960 0.931 . S
H977 C965 0.929 . S
H978 C966 0.960 . S
H979 C966 0.962 . S
H980 C966 0.960 . S
H981 C967 0.961 . S
H982 C967 0.961 . S
H983 C967 0.961 . S
H984 C968 0.931 . S
H985 C973 0.930 . S
H986 C974 0.956 . S
H987 C974 0.961 . S
H988 C974 0.961 . S
H989 C975 0.958 . S
H990 C975 0.961 . S
H991 C975 0.960 . S
C992 C993 1.391 . S
C992 C994 1.394 . S
C992 H1008 0.931 . S
C993 C992 1.391 . S
C993 C997 1.376 . S
C994 C992 1.394 . S
C994 C995 1.369 . S
C994 C998 1.531 . S
C995 C994 1.369 . S
C995 C996 1.410 . S
C995 C1003 1.503 . S
C996 C995 1.410 . S
C996 C997 1.392 . S
C996 C999 1.511 . S
C997 C993 1.376 . S
C997 C996 1.392 . S
C997 H1009 0.929 . S
C998 C994 1.531 . S
C998 H1010 0.960 . S
C998 H1011 0.962 . S
C998 H1012 0.960 . S
C999 C996 1.511 . S
C999 H1013 0.961 . S
C999 H1014 0.961 . S
C999 H1015 0.961 . S
C1000 C1001 1.370 . S
C1000 C1002 1.363 . S
C1000 H1016 0.931 . S
C1001 C1000 1.370 . S
C1001 C1005 1.408 . S
C1002 C1000 1.363 . S
C1002 C1003 1.370 . S
C1002 C1006 1.524 . S
C1003 C995 1.503 . S
C1003 C1002 1.370 . S
C1003 C1004 1.403 . S
C1004 C1003 1.403 . S
C1004 C1005 1.404 . S
C1004 C1007 1.539 . S
C1005 C1001 1.408 . S
C1005 C1004 1.404 . S
C1005 H1017 0.930 . S
C1006 C1002 1.524 . S
C1006 H1018 0.956 . S
C1006 H1019 0.961 . S
C1006 H1020 0.961 . S
C1007 C1004 1.539 . S
C1007 H1021 0.958 . S
C1007 H1022 0.961 . S
C1007 H1023 0.960 . S
H1008 C992 0.931 . S
H1009 C997 0.929 . S
H1010 C998 0.960 . S
H1011 C998 0.962 . S
H1012 C998 0.960 . S
H1013 C999 0.961 . S
H1014 C999 0.961 . S
H1015 C999 0.961 . S
H1016 C1000 0.931 . S
H1017 C1005 0.930 . S
H1018 C1006 0.956 . S
H1019 C1006 0.961 . S
H1020 C1006 0.961 . S
H1021 C1007 0.958 . S
H1022 C1007 0.961 . S
H1023 C1007 0.960 . S
C1024 C1025 1.391 . S
C1024 C1026 1.394 . S
C1024 H1040 0.931 . S
C1025 C1024 1.391 . S
C1025 C1029 1.376 . S
C1026 C1024 1.394 . S
C1026 C1027 1.369 . S
C1026 C1030 1.531 . S
C1027 C1026 1.369 . S
C1027 C1028 1.410 . S
C1027 C1035 1.503 . S
C1028 C1027 1.410 . S
C1028 C1029 1.392 . S
C1028 C1031 1.511 . S
C1029 C1025 1.376 . S
C1029 C1028 1.392 . S
C1029 H1041 0.929 . S
C1030 C1026 1.531 . S
C1030 H1042 0.960 . S
C1030 H1043 0.962 . S
C1030 H1044 0.960 . S
C1031 C1028 1.511 . S
C1031 H1045 0.961 . S
C1031 H1046 0.961 . S
C1031 H1047 0.961 . S
C1032 C1033 1.370 . S
C1032 C1034 1.363 . S
C1032 H1048 0.931 . S
C1033 C1032 1.370 . S
C1033 C1037 1.408 . S
C1034 C1032 1.363 . S
C1034 C1035 1.370 . S
C1034 C1038 1.524 . S
C1035 C1027 1.503 . S
C1035 C1034 1.370 . S
C1035 C1036 1.403 . S
C1036 C1035 1.403 . S
C1036 C1037 1.404 . S
C1036 C1039 1.539 . S
C1037 C1033 1.408 . S
C1037 C1036 1.404 . S
C1037 H1049 0.930 . S
C1038 C1034 1.524 . S
C1038 H1050 0.956 . S
C1038 H1051 0.961 . S
C1038 H1052 0.961 . S
C1039 C1036 1.539 . S
C1039 H1053 0.958 . S
C1039 H1054 0.961 . S
C1039 H1055 0.960 . S
H1040 C1024 0.931 . S
H1041 C1029 0.929 . S
H1042 C1030 0.960 . S
H1043 C1030 0.962 . S
H1044 C1030 0.960 . S
H1045 C1031 0.961 . S
H1046 C1031 0.961 . S
H1047 C1031 0.961 . S
H1048 C1032 0.931 . S
H1049 C1037 0.930 . S
H1050 C1038 0.956 . S
H1051 C1038 0.961 . S
H1052 C1038 0.961 . S
H1053 C1039 0.958 . S
H1054 C1039 0.961 . S
H1055 C1039 0.960 . S
C1056 C1057 1.391 . S
C1056 C1058 1.394 . S
C1056 H1072 0.931 . S
C1057 C1056 1.391 . S
C1057 C1061 1.376 1_655 S
C1058 C1056 1.394 . S
C1058 C1059 1.369 . S
C1058 C1062 1.531 . S
C1059 C1058 1.369 . S
C1059 C1060 1.410 1_655 S
C1059 C1067 1.503 1_656 S
C1060 C1059 1.410 1_455 S
C1060 C1061 1.392 . S
C1060 C1063 1.511 . S
C1061 C1057 1.376 1_455 S
C1061 C1060 1.392 . S
C1061 H1073 0.929 . S
C1062 C1058 1.531 . S
C1062 H1074 0.960 1_556 S
C1062 H1075 0.962 . S
C1062 H1076 0.960 . S
C1063 C1060 1.511 . S
C1063 H1077 0.961 . S
C1063 H1078 0.961 . S
C1063 H1079 0.961 . S
C1064 C1065 1.370 . S
C1064 C1066 1.363 . S
C1064 H1080 0.931 . S
C1065 C1064 1.370 . S
C1065 C1069 1.408 . S
C1066 C1064 1.363 . S
C1066 C1067 1.370 . S
C1066 C1070 1.524 1_554 S
C1067 C1059 1.503 1_454 S
C1067 C1066 1.370 . S
C1067 C1068 1.403 . S
C1068 C1067 1.403 . S
C1068 C1069 1.404 . S
C1068 C1071 1.539 . S
C1069 C1065 1.408 . S
C1069 C1068 1.404 . S
C1069 H1081 0.930 . S
C1070 C1066 1.524 1_556 S
C1070 H1082 0.956 1_455 S
C1070 H1083 0.961 . S
C1070 H1084 0.961 . S
C1071 C1068 1.539 . S
C1071 H1085 0.958 1_455 S
C1071 H1086 0.961 . S
C1071 H1087 0.960 . S
H1072 C1056 0.931 . S
H1073 C1061 0.929 . S
H1074 C1062 0.960 1_554 S
H1075 C1062 0.962 . S
H1076 C1062 0.960 . S
H1077 C1063 0.961 . S
H1078 C1063 0.961 . S
H1079 C1063 0.961 . S
H1080 C1064 0.931 . S
H1081 C1069 0.930 . S
H1082 C1070 0.956 1_655 S
H1083 C1070 0.961 . S
H1084 C1070 0.961 . S
H1085 C1071 0.958 1_655 S
H1086 C1071 0.961 . S
H1087 C1071 0.960 . S
C321 C10 1.521 . S
C329 C129 1.508 . S
C353 C9 0.861 . S
C361 C49 0.905 . S
C385 C50 1.508 . S
C393 C89 1.522 . S
C417 C90 2.045 . S
C425 C130 2.046 . S
C449 C19 1.506 . S
C457 C218 1.525 . S
C481 C18 0.883 . S
C489 C178 0.904 . S
C513 C179 1.536 . S
C521 C98 1.501 . S
C545 C219 2.039 . S
C553 C99 2.057 . S
C577 C250 1.508 . S
C585 C209 1.520 . S
C609 C169 0.894 . S
C617 C249 0.873 . S
C641 C289 1.517 . S
C649 C170 1.523 . S
C673 C210 2.043 . S
C681 C290 2.051 . S
C705 C138 1.520 . S
C713 C259 1.522 . S
C737 C258 0.909 . S
C745 C58 0.878 . S
C769 C59 1.503 . S
C777 C298 1.520 . S
C801 C139 2.058 . S
C809 C299 2.051 . S
C833 C15 1.400 1_565 S
C841 C6 1.420 . S
C865 C55 1.431 . S
C873 C46 1.400 . S
C897 C95 1.612 . S
C905 C86 1.592 . S
C929 C126 1.571 . S
C937 C135 1.610 . S
C961 C175 1.381 . S
C969 C166 1.420 . S
C993 C206 1.623 . S
C1001 C215 1.589 . S
C1025 C246 1.428 . S
C1033 C255 1.402 . S
C1057 C286 1.615 . S
C1065 C295 1.594 . S
