# Generated by pormake.
# Topology vmf, (6)-cn, num edge types: 1
# Building blocks:
#     Node 0, Type 0, BuildingBlock: OJICUG_clean_sbu_0, # of connection points: 6
#     Node 1, Type 0, BuildingBlock: OJICUG_clean_sbu_0, # of connection points: 6
#     Node 2, Type 0, BuildingBlock: OJICUG_clean_sbu_0, # of connection points: 6
#     Node 3, Type 0, BuildingBlock: OJICUG_clean_sbu_0, # of connection points: 6
#     Node 4, Type 0, BuildingBlock: OJICUG_clean_sbu_0, # of connection points: 6
#     Node 5, Type 0, BuildingBlock: OJICUG_clean_sbu_0, # of connection points: 6
#     Node 6, Type 0, BuildingBlock: OJICUG_clean_sbu_0, # of connection points: 6
#     Node 7, Type 0, BuildingBlock: OJICUG_clean_sbu_0, # of connection points: 6
#     Edge 8, Type (0, 0), BuildingBlock: CIFDUS_clean_linker_0, # of connection points: 2
#     Edge 9, Type (0, 0), BuildingBlock: CIFDUS_clean_linker_0, # of connection points: 2
#     Edge 10, Type (0, 0), BuildingBlock: CIFDUS_clean_linker_0, # of connection points: 2
#     Edge 11, Type (0, 0), BuildingBlock: CIFDUS_clean_linker_0, # of connection points: 2
#     Edge 12, Type (0, 0), BuildingBlock: CIFDUS_clean_linker_0, # of connection points: 2
#     Edge 13, Type (0, 0), BuildingBlock: CIFDUS_clean_linker_0, # of connection points: 2
#     Edge 14, Type (0, 0), BuildingBlock: CIFDUS_clean_linker_0, # of connection points: 2
#     Edge 15, Type (0, 0), BuildingBlock: CIFDUS_clean_linker_0, # of connection points: 2
#     Edge 16, Type (0, 0), BuildingBlock: CIFDUS_clean_linker_0, # of connection points: 2
#     Edge 17, Type (0, 0), BuildingBlock: CIFDUS_clean_linker_0, # of connection points: 2
#     Edge 18, Type (0, 0), BuildingBlock: CIFDUS_clean_linker_0, # of connection points: 2
#     Edge 19, Type (0, 0), BuildingBlock: CIFDUS_clean_linker_0, # of connection points: 2
#     Edge 20, Type (0, 0), BuildingBlock: CIFDUS_clean_linker_0, # of connection points: 2
#     Edge 21, Type (0, 0), BuildingBlock: CIFDUS_clean_linker_0, # of connection points: 2
#     Edge 22, Type (0, 0), BuildingBlock: CIFDUS_clean_linker_0, # of connection points: 2
#     Edge 23, Type (0, 0), BuildingBlock: CIFDUS_clean_linker_0, # of connection points: 2
#     Edge 24, Type (0, 0), BuildingBlock: CIFDUS_clean_linker_0, # of connection points: 2
#     Edge 25, Type (0, 0), BuildingBlock: CIFDUS_clean_linker_0, # of connection points: 2
#     Edge 26, Type (0, 0), BuildingBlock: CIFDUS_clean_linker_0, # of connection points: 2
#     Edge 27, Type (0, 0), BuildingBlock: CIFDUS_clean_linker_0, # of connection points: 2
#     Edge 28, Type (0, 0), BuildingBlock: CIFDUS_clean_linker_0, # of connection points: 2
#     Edge 29, Type (0, 0), BuildingBlock: CIFDUS_clean_linker_0, # of connection points: 2
#     Edge 30, Type (0, 0), BuildingBlock: CIFDUS_clean_linker_0, # of connection points: 2
#     Edge 31, Type (0, 0), BuildingBlock: CIFDUS_clean_linker_0, # of connection points: 2
# Relax obj value: 0.306
# Max RMSD: 0.281
# Mean RMSD: 0.281
data_MOF--net-vmf--node1-OJICUG_clean_sbu_0--edge1-CIFDUS_clean_linker_0
_symmetry_space_group_name_H-M    P1
_symmetry_Int_Tables_number       1
_symmetry_cell_setting            triclinic
loop_
_symmetry_equiv_pos_as_xyz
'x, y, z'
_cell_length_a     26.303445
_cell_length_b     39.114564
_cell_length_c     25.634676
_cell_angle_alpha  89.93017
_cell_angle_beta   101.94322
_cell_angle_gamma 90.190277
loop_
_atom_site_label
_atom_site_type_symbol
_atom_site_fract_x
_atom_site_fract_y
_atom_site_fract_z
_atom_type_partial_charge
Sc0 Sc 0.1968 0.33859 0.18759 0.0
Sc1 Sc 0.17041 0.25916 0.23717 0.0
Sc2 Sc 0.10783 0.33225 0.27043 0.0
O3 O 0.15829 0.31014 0.23244 0.0
C4 C 0.18918 0.39339 0.27619 0.0
C5 C 0.28267 0.28799 0.22633 0.0
C6 C 0.18213 0.28332 0.35654 0.0
C7 C 0.16459 0.2704 0.1189 0.0
C8 C 0.07838 0.36057 0.14915 0.0
C9 C 0.05515 0.25961 0.25699 0.0
O10 O 0.20984 0.38221 0.2392 0.0
O11 O 0.24911 0.26443 0.22572 0.0
O12 O 0.14994 0.30844 0.34541 0.0
O13 O 0.18876 0.29857 0.12987 0.0
O14 O 0.06493 0.35345 0.19348 0.0
O15 O 0.09474 0.24362 0.24941 0.0
O16 O 0.12513 0.35842 0.14343 0.0
O17 O 0.14549 0.2536 0.1528 0.0
O18 O 0.05346 0.29175 0.2592 0.0
O19 O 0.27105 0.31937 0.22679 0.0
O20 O 0.15234 0.37788 0.29094 0.0
O21 O 0.1954 0.26436 0.3212 0.0
Sc22 Sc 0.87459 0.32904 0.7327 0.0
Sc23 Sc 0.79393 0.2638 0.76158 0.0
Sc24 Sc 0.78262 0.34732 0.8096 0.0
O25 O 0.81663 0.31337 0.76779 0.0
C26 C 0.90492 0.3586 0.85184 0.0
C27 C 0.91056 0.252 0.76025 0.0
C28 C 0.78896 0.28043 0.88081 0.0
C29 C 0.80299 0.28456 0.64275 0.0
C30 C 0.80714 0.3972 0.72176 0.0
C31 C 0.68608 0.30382 0.75072 0.0
O32 O 0.91881 0.34498 0.8114 0.0
O33 O 0.87111 0.24239 0.77758 0.0
O34 O 0.78409 0.31234 0.87329 0.0
O35 O 0.83073 0.31159 0.655 0.0
O36 O 0.77664 0.38715 0.75099 0.0
O37 O 0.71376 0.27823 0.74433 0.0
O38 O 0.84577 0.37975 0.71535 0.0
O39 O 0.79132 0.26444 0.67757 0.0
O40 O 0.70466 0.33141 0.77322 0.0
O41 O 0.9145 0.28156 0.74155 0.0
O42 O 0.85756 0.36473 0.85288 0.0
O43 O 0.79354 0.25926 0.8446 0.0
Sc44 Sc 0.87907 0.6575 0.73641 0.0
Sc45 Sc 0.80528 0.72589 0.76447 0.0
Sc46 Sc 0.79663 0.64676 0.82449 0.0
O47 O 0.82665 0.67681 0.77473 0.0
C48 C 0.79982 0.59496 0.73464 0.0
C49 C 0.81055 0.70201 0.64632 0.0
C50 C 0.69921 0.69045 0.76807 0.0
C51 C 0.92081 0.73424 0.75962 0.0
C52 C 0.91542 0.6296 0.85454 0.0
C53 C 0.81095 0.71416 0.88857 0.0
O54 O 0.84289 0.60714 0.72753 0.0
O55 O 0.80517 0.72421 0.68096 0.0
O56 O 0.72035 0.66865 0.80242 0.0
O57 O 0.92106 0.70487 0.73853 0.0
O58 O 0.86887 0.62096 0.85461 0.0
O59 O 0.80132 0.73251 0.84673 0.0
O60 O 0.92776 0.64452 0.81439 0.0
O61 O 0.88429 0.74429 0.78141 0.0
O62 O 0.81835 0.6822 0.8879 0.0
O63 O 0.83199 0.67291 0.65905 0.0
O64 O 0.77296 0.60968 0.76364 0.0
O65 O 0.72498 0.71117 0.74534 0.0
Sc66 Sc 0.20146 0.64732 0.18238 0.0
Sc67 Sc 0.1799 0.72363 0.24608 0.0
Sc68 Sc 0.12222 0.64767 0.2743 0.0
O69 O 0.1685 0.67306 0.23462 0.0
C70 C 0.08473 0.62422 0.15394 0.0
C71 C 0.1692 0.71644 0.12116 0.0
C72 C 0.06714 0.72061 0.26256 0.0
C73 C 0.2915 0.69744 0.23692 0.0
C74 C 0.20689 0.59043 0.26638 0.0
C75 C 0.19116 0.69297 0.36358 0.0
O76 O 0.1318 0.61868 0.15168 0.0
O77 O 0.17268 0.7345 0.16288 0.0
O78 O 0.07387 0.69052 0.28084 0.0
O79 O 0.27459 0.67276 0.20617 0.0
O80 O 0.16367 0.59985 0.27629 0.0
O81 O 0.18939 0.71734 0.33035 0.0
O82 O 0.23128 0.60832 0.23847 0.0
O83 O 0.26231 0.71726 0.25671 0.0
O84 O 0.17233 0.66311 0.35021 0.0
O85 O 0.17504 0.68425 0.1223 0.0
O86 O 0.07202 0.63555 0.19642 0.0
O87 O 0.0987 0.73502 0.23819 0.0
Sc88 Sc 0.69478 0.84976 0.19158 0.0
Sc89 Sc 0.69203 0.76729 0.24317 0.0
Sc90 Sc 0.61225 0.83023 0.27657 0.0
O91 O 0.66694 0.81571 0.23748 0.0
C92 C 0.68441 0.8963 0.28641 0.0
C93 C 0.79556 0.80724 0.2444 0.0
C94 C 0.68312 0.78493 0.36301 0.0
C95 C 0.68926 0.78532 0.12112 0.0
C96 C 0.57396 0.8605 0.16035 0.0
C97 C 0.57716 0.75384 0.24411 0.0
O98 O 0.71309 0.88495 0.2563 0.0
O99 O 0.77091 0.78443 0.26461 0.0
O100 O 0.66005 0.8137 0.35234 0.0
O101 O 0.67908 0.81676 0.12439 0.0
O102 O 0.56315 0.8438 0.19961 0.0
O103 O 0.61454 0.74652 0.22182 0.0
O104 O 0.61938 0.87211 0.16125 0.0
O105 O 0.69822 0.76532 0.16108 0.0
O106 O 0.57528 0.78145 0.26945 0.0
O107 O 0.77306 0.83063 0.21371 0.0
O108 O 0.64229 0.88164 0.2908 0.0
O109 O 0.69067 0.76445 0.32681 0.0
Sc110 Sc 0.38562 0.82159 0.73833 0.0
Sc111 Sc 0.29846 0.75758 0.75924 0.0
Sc112 Sc 0.28649 0.84065 0.80709 0.0
O113 O 0.3233 0.80671 0.76787 0.0
C114 C 0.40712 0.84969 0.86004 0.0
C115 C 0.41771 0.74486 0.77313 0.0
C116 C 0.27403 0.77214 0.87077 0.0
C117 C 0.32205 0.77503 0.6448 0.0
C118 C 0.3228 0.89119 0.7239 0.0
C119 C 0.19276 0.80179 0.73652 0.0
O120 O 0.42347 0.84036 0.81829 0.0
O121 O 0.37438 0.73468 0.78157 0.0
O122 O 0.26979 0.80408 0.86319 0.0
O123 O 0.35045 0.8016 0.65852 0.0
O124 O 0.29461 0.88318 0.75655 0.0
O125 O 0.21913 0.77456 0.73599 0.0
O126 O 0.3573 0.8715 0.71329 0.0
O127 O 0.30345 0.75731 0.67785 0.0
O128 O 0.21184 0.82968 0.75762 0.0
O129 O 0.42506 0.77455 0.7566 0.0
O130 O 0.35895 0.85187 0.86098 0.0
O131 O 0.29044 0.75213 0.83933 0.0
Sc132 Sc 0.37153 0.15518 0.73314 0.0
Sc133 Sc 0.29282 0.22319 0.75653 0.0
Sc134 Sc 0.27667 0.14219 0.80984 0.0
O135 O 0.31345 0.17346 0.76637 0.0
C136 C 0.29924 0.08884 0.72485 0.0
C137 C 0.30755 0.20109 0.64033 0.0
C138 C 0.1834 0.18408 0.7427 0.0
C139 C 0.4118 0.23172 0.76247 0.0
C140 C 0.3977 0.12839 0.85485 0.0
C141 C 0.27701 0.21165 0.87355 0.0
O142 O 0.33792 0.10502 0.71468 0.0
O143 O 0.29529 0.22132 0.6743 0.0
O144 O 0.2009 0.15721 0.76797 0.0
O145 O 0.41514 0.20192 0.74412 0.0
O146 O 0.34991 0.12617 0.85718 0.0
O147 O 0.28681 0.2309 0.83714 0.0
O148 O 0.41287 0.13839 0.81277 0.0
O149 O 0.37127 0.24258 0.77646 0.0
O150 O 0.27323 0.1795 0.86906 0.0
O151 O 0.3324 0.17318 0.65362 0.0
O152 O 0.27234 0.10016 0.7565 0.0
O153 O 0.21183 0.20936 0.73551 0.0
Sc154 Sc 0.68917 0.13326 0.19793 0.0
Sc155 Sc 0.68635 0.21882 0.24038 0.0
Sc156 Sc 0.59643 0.15912 0.27047 0.0
O157 O 0.65762 0.1704 0.23661 0.0
C158 C 0.56706 0.12508 0.15356 0.0
C159 C 0.69397 0.19764 0.12372 0.0
C160 C 0.5672 0.23485 0.22852 0.0
C161 C 0.78938 0.17236 0.2559 0.0
C162 C 0.65977 0.08989 0.29233 0.0
C163 C 0.66897 0.20604 0.35855 0.0
O164 O 0.61426 0.11964 0.15175 0.0
O165 O 0.68781 0.22013 0.15747 0.0
O166 O 0.55828 0.20581 0.24636 0.0
O167 O 0.76743 0.14474 0.23737 0.0
O168 O 0.62432 0.10986 0.30008 0.0
O169 O 0.68833 0.22174 0.32383 0.0
O170 O 0.68674 0.09559 0.25764 0.0
O171 O 0.76478 0.20009 0.25841 0.0
O172 O 0.636 0.18157 0.34669 0.0
O173 O 0.69656 0.1659 0.13353 0.0
O174 O 0.5535 0.13819 0.1944 0.0
O175 O 0.61174 0.24419 0.22228 0.0
H176 H 0.47673 0.21851 0.16756 0.0
H177 H 0.55664 0.30019 0.2636 0.0
H178 H 0.47292 0.32676 0.2678 0.0
H179 H 0.37685 0.32056 0.25653 0.0
H180 H 0.301 0.23399 0.16825 0.0
H181 H 0.38302 0.21519 0.14928 0.0
C182 C 0.47568 0.24278 0.18791 0.0
C183 C 0.52214 0.25749 0.21525 0.0
C184 C 0.42803 0.25628 0.1931 0.0
C185 C 0.521 0.28876 0.24172 0.0
C186 C 0.47319 0.3035 0.24495 0.0
C187 C 0.37855 0.29771 0.23304 0.0
C188 C 0.33333 0.27813 0.21521 0.0
C189 C 0.42644 0.28648 0.22305 0.0
C190 C 0.33561 0.24886 0.18401 0.0
C191 C 0.38235 0.23827 0.17253 0.0
H192 H 0.61536 0.32085 0.80962 0.0
H193 H 0.63158 0.27354 0.66205 0.0
H194 H 0.54393 0.25003 0.6501 0.0
H195 H 0.46947 0.23551 0.68844 0.0
H196 H 0.45262 0.27997 0.83763 0.0
H197 H 0.5338 0.31229 0.84235 0.0
C198 C 0.59881 0.3064 0.77402 0.0
C199 C 0.62956 0.29876 0.73674 0.0
C200 C 0.54906 0.29182 0.76852 0.0
C201 C 0.60836 0.27961 0.69114 0.0
C202 C 0.55854 0.26596 0.68456 0.0
C203 C 0.48339 0.25254 0.72179 0.0
C204 C 0.45618 0.25486 0.7633 0.0
C205 C 0.52969 0.2706 0.72419 0.0
C206 C 0.4735 0.27761 0.80556 0.0
C207 C 0.51982 0.29598 0.80823 0.0
H208 H 0.46766 0.73324 0.69575 0.0
H209 H 0.46527 0.70526 0.85775 0.0
H210 H 0.55251 0.68027 0.86782 0.0
H211 H 0.63419 0.67642 0.83478 0.0
H212 H 0.63733 0.71097 0.6754 0.0
H213 H 0.54464 0.72349 0.65964 0.0
C214 C 0.48588 0.72082 0.7328 0.0
C215 C 0.46105 0.72117 0.77617 0.0
C216 C 0.53632 0.70843 0.73884 0.0
C217 C 0.48408 0.70499 0.82395 0.0
C218 C 0.53402 0.69119 0.82976 0.0
C219 C 0.61421 0.68604 0.79629 0.0
C220 C 0.64236 0.6933 0.75648 0.0
C221 C 0.56135 0.69429 0.78822 0.0
C222 C 0.6164 0.70579 0.70681 0.0
C223 C 0.56353 0.71282 0.69776 0.0
H224 H 0.36122 0.6832 0.17562 0.0
H225 H 0.34722 0.72469 0.32808 0.0
H226 H 0.43949 0.73895 0.34793 0.0
H227 H 0.51994 0.74618 0.31755 0.0
H228 H 0.53328 0.71134 0.16142 0.0
H229 H 0.44572 0.68634 0.14801 0.0
C230 C 0.37868 0.69496 0.21342 0.0
C231 C 0.34768 0.70345 0.25008 0.0
C232 C 0.43136 0.704 0.22384 0.0
C233 C 0.37037 0.7186 0.29895 0.0
C234 C 0.42302 0.72654 0.31041 0.0
C235 C 0.50395 0.73266 0.28082 0.0
C236 C 0.53212 0.7311 0.24002 0.0
C237 C 0.45327 0.72033 0.27247 0.0
C238 C 0.51193 0.71286 0.19321 0.0
C239 C 0.46178 0.69901 0.18538 0.0
H240 H 0.01866 0.77576 0.20841 0.0
H241 H 0.01331 0.7071 0.33935 0.0
H242 H 0.93255 0.73256 0.35125 0.0
H243 H 0.85846 0.76879 0.31785 0.0
H244 H 0.85946 0.83571 0.18406 0.0
H245 H 0.94752 0.81734 0.18117 0.0
C246 C 4e-05 0.76674 0.23988 0.0
C247 C 0.02119 0.73906 0.27198 0.0
C248 C 0.95287 0.78118 0.24614 0.0
C249 C -0.00292 0.72781 0.3131 0.0
C250 C 0.95102 0.74246 0.32024 0.0
C251 C 0.8782 0.77981 0.28857 0.0
C252 C 0.85214 0.80298 0.25063 0.0
C253 C 0.92777 0.76832 0.28592 0.0
C254 C 0.87861 0.8176 0.21362 0.0
C255 C 0.92879 0.80688 0.21159 0.0
H256 H 0.97578 0.73479 0.68251 0.0
H257 H 0.96258 0.78582 0.82816 0.0
H258 H 0.04252 0.81806 0.8268 0.0
H259 H 0.1227 0.82411 0.79169 0.0
H260 H 0.1375 0.76897 0.65005 0.0
H261 H 0.0493 0.74661 0.64117 0.0
C262 C 0.99017 0.75319 0.7138 0.0
C263 C 0.96436 0.75733 0.75619 0.0
C264 C 0.03611 0.77099 0.71307 0.0
C265 C 0.98234 0.78194 0.79554 0.0
C266 C 0.02797 0.80029 0.79474 0.0
C267 C 0.10569 0.80829 0.75777 0.0
C268 C 0.13612 0.79813 0.72143 0.0
C269 C 0.05609 0.79409 0.75467 0.0
C270 C 0.11442 0.77711 0.67822 0.0
C271 C 0.06435 0.76407 0.67354 0.0
H272 H 0.9651 0.24931 0.68363 0.0
H273 H 0.95087 0.20137 0.83151 0.0
H274 H 0.0318 0.16974 0.83306 0.0
H275 H 0.11291 0.16387 0.79954 0.0
H276 H 0.12856 0.21656 0.65567 0.0
H277 H 0.0398 0.23784 0.64449 0.0
C278 C 0.97945 0.23163 0.71598 0.0
C279 C 0.95319 0.22819 0.75816 0.0
C280 C 0.02606 0.21452 0.7171 0.0
C281 C 0.971 0.20457 0.79898 0.0
C282 C 0.01724 0.18669 0.79989 0.0
C283 C 0.09614 0.17908 0.76486 0.0
C284 C 0.12694 0.18889 0.72851 0.0
C285 C 0.04604 0.19253 0.76018 0.0
C286 C 0.10537 0.20892 0.6841 0.0
C287 C 0.05489 0.22122 0.67795 0.0
H288 H 0.01297 0.19763 0.21989 0.0
H289 H 0.00032 0.27997 0.32851 0.0
H290 H 0.92176 0.25495 0.34765 0.0
H291 H 0.8497 0.2156 0.32295 0.0
H292 H 0.85643 0.13505 0.21002 0.0
H293 H 0.94474 0.15241 0.20483 0.0
C294 C -0.00679 0.20966 0.24818 0.0
C295 C 0.01127 0.2411 0.27135 0.0
C296 C 0.94702 0.19544 0.25842 0.0
C297 C 0.98604 0.2563 0.30873 0.0
C298 C 0.94134 0.24192 0.32012 0.0
C299 C 0.87105 0.20129 0.29827 0.0
C300 C 0.84645 0.17466 0.26619 0.0
C301 C 0.92039 0.21235 0.29359 0.0
C302 C 0.87466 0.15582 0.23507 0.0
C303 C 0.92487 0.16604 0.23149 0.0
H304 H 0.88674 0.36638 0.95254 0.0
H305 H 0.01144 0.36245 0.86645 0.0
H306 H 0.07502 0.36645 0.95069 0.0
H307 H 0.09525 0.36718 0.04809 0.0
H308 H 0.97136 0.36676 0.13553 0.0
H309 H 0.90737 0.36891 0.05105 0.0
C310 C 0.92782 0.36695 0.9519 0.0
C311 C 0.94406 0.36435 0.90259 0.0
C312 C 0.9643 0.3684 1.00079 0.0
C313 C -0.0024 0.36451 0.90328 0.0
C314 C 0.03401 0.36676 0.9516 0.0
C315 C 0.05431 0.36807 0.04926 0.0
C316 C 0.03854 0.36695 0.09894 0.0
C317 C 0.01781 0.3682 1.00055 0.0
C318 C 0.98501 0.36782 0.09849 0.0
C319 C 0.94834 0.36884 0.05001 0.0
H320 H 0.10364 0.62281 0.05363 0.0
H321 H 0.97757 0.61974 0.13793 0.0
H322 H 0.9149 0.6188 0.05243 0.0
H323 H 0.89613 0.62142 0.95423 0.0
H324 H 0.02242 0.62891 0.8707 0.0
H325 H 0.08502 0.62544 0.95589 0.0
C326 C 0.06247 0.62135 0.05367 0.0
C327 C 0.04555 0.62078 0.10271 0.0
C328 C 0.02678 0.62177 0.00443 0.0
C329 C -0.00812 0.61986 0.10124 0.0
C330 C 0.95605 0.61941 0.05224 0.0
C331 C 0.93737 0.62175 0.95433 0.0
C332 C 0.95441 0.62491 0.90555 0.0
C333 C 0.97307 0.62065 0.00363 0.0
C334 C 0.00807 0.6262 0.90716 0.0
C335 C 0.04386 0.62428 0.95599 0.0
H336 H 0.59302 0.86807 0.06044 0.0
H337 H 0.4673 0.85625 0.14377 0.0
H338 H 0.40498 0.85404 0.05831 0.0
H339 H 0.38671 0.85238 0.96026 0.0
H340 H 0.51312 0.85999 0.87689 0.0
H341 H 0.57462 0.86686 0.96216 0.0
C342 C 0.55187 0.86565 0.06012 0.0
C343 C 0.53494 0.86287 0.10893 0.0
C344 C 0.51642 0.86329 0.01071 0.0
C345 C 0.48152 0.85878 0.1072 0.0
C346 C 0.44588 0.85738 0.05822 0.0
C347 C 0.42763 0.85595 0.96039 0.0
C348 C 0.44495 0.85591 0.9116 0.0
C349 C 0.46294 0.85917 0.00973 0.0
C350 C 0.4984 0.86 0.91335 0.0
C351 C 0.53365 0.86393 0.96225 0.0
H352 H 0.58576 0.11718 0.05349 0.0
H353 H 0.46012 0.12379 0.13803 0.0
H354 H 0.39721 0.12255 0.05299 0.0
H355 H 0.37828 0.12349 0.95513 0.0
H356 H 0.50417 0.12111 0.87048 0.0
H357 H 0.56669 0.11667 0.95553 0.0
C358 C 0.54459 0.11775 0.05369 0.0
C359 C 0.5279 0.12024 0.1027 0.0
C360 C 0.50872 0.11806 0.00454 0.0
C361 C 0.47428 0.12163 0.10139 0.0
C362 C 0.43828 0.12106 0.05264 0.0
C363 C 0.41933 0.12151 0.95487 0.0
C364 C 0.43624 0.12245 0.90585 0.0
C365 C 0.45511 0.11982 0.00399 0.0
C366 C 0.48981 0.12036 0.90713 0.0
C367 C 0.52561 0.11788 0.95588 0.0
H368 H 0.17169 0.5463 0.33282 0.0
H369 H 0.28246 0.55514 0.23041 0.0
H370 H 0.29491 0.49347 0.23356 0.0
H371 H 0.26078 0.43707 0.24997 0.0
H372 H 0.14729 0.42834 0.34944 0.0
H373 H 0.15057 0.48984 0.36373 0.0
C374 C 0.19941 0.53483 0.31211 0.0
C375 C 0.22474 0.55516 0.28004 0.0
C376 C 0.20549 0.49927 0.31297 0.0
C377 C 0.26163 0.54004 0.25466 0.0
C378 C 0.26865 0.5047 0.25619 0.0
C379 C 0.23766 0.44846 0.27583 0.0
C380 C 0.2025 0.42824 0.29698 0.0
C381 C 0.23863 0.48399 0.28281 0.0
C382 C 0.17385 0.44335 0.33153 0.0
C383 C 0.1755 0.4786 0.33963 0.0
H384 H 0.85305 0.5501 0.6849 0.0
H385 H 0.71046 0.56116 0.7419 0.0
H386 H 0.69481 0.49996 0.73282 0.0
H387 H 0.73026 0.44285 0.72592 0.0
H388 H 0.87433 0.43157 0.67185 0.0
H389 H 0.87978 0.49321 0.66133 0.0
C390 C 0.81793 0.53929 0.69417 0.0
C391 C 0.78401 0.56004 0.71581 0.0
C392 C 0.80961 0.50389 0.69001 0.0
C393 C 0.73805 0.54567 0.72644 0.0
C394 C 0.729 0.5106 0.72136 0.0
C395 C 0.76227 0.45376 0.71069 0.0
C396 C 0.80264 0.43269 0.70147 0.0
C397 C 0.76595 0.48932 0.70596 0.0
C398 C 0.84314 0.44722 0.68039 0.0
C399 C 0.8465 0.48255 0.67455 0.0
H400 H 0.62073 0.93765 0.32899 0.0
H401 H 0.77527 0.93195 0.29662 0.0
H402 H 0.78607 -0.00663 0.30984 0.0
H403 H 0.74382 0.04888 0.3085 0.0
H404 H 0.58688 0.05502 0.33358 0.0
H405 H 0.58547 -0.00672 0.34713 0.0
C406 C 0.65733 0.94966 0.3263 0.0
C407 C 0.69634 0.93055 0.30979 0.0
C408 C 0.6626 0.98517 0.33202 0.0
C409 C 0.744 0.94633 0.3077 0.0
C410 C 0.75023 0.98146 0.3152 0.0
C411 C 0.70983 0.03678 0.31838 0.0
C412 C 0.66494 0.05611 0.31818 0.0
C413 C 0.70853 0.00127 0.32384 0.0
C414 C 0.62169 0.0405 0.33266 0.0
C415 C 0.62068 0.00516 0.33993 0.0
H416 H 0.24161 0.93474 0.71455 0.0
H417 H 0.39761 0.92705 0.68716 0.0
H418 H 0.40051 0.98882 0.67443 0.0
H419 H 0.36492 0.04537 0.68848 0.0
H420 H 0.20985 0.0525 0.71889 0.0
H421 H 0.20012 0.99069 0.7119 0.0
C422 C 0.27584 0.94651 0.70469 0.0
C423 C 0.31973 0.92652 0.70315 0.0
C424 C 0.27766 0.98203 0.69849 0.0
C425 C 0.36341 0.94194 0.68912 0.0
C426 C 0.36525 0.97732 0.68215 0.0
C427 C 0.32846 0.0335 0.69201 0.0
C428 C 0.28875 0.0534 0.70564 0.0
C429 C 0.32353 -0.00225 0.68932 0.0
C430 C 0.24151 0.03766 0.70956 0.0
C431 C 0.2359 0.00228 0.70573 0.0
H432 H 0.24967 0.25668 0.60363 0.0
H433 H 0.32525 0.16976 0.54885 0.0
H434 H 0.29432 0.18866 0.45639 0.0
H435 H 0.24495 0.22916 0.39218 0.0
H436 H 0.16848 0.31527 0.44822 0.0
H437 H 0.20157 0.29711 0.54026 0.0
C438 C 0.25982 0.24163 0.5718 0.0
C439 C 0.29002 0.21162 0.58357 0.0
C440 C 0.24186 0.25255 0.51921 0.0
C441 C 0.30218 0.1928 0.54123 0.0
C442 C 0.28451 0.20367 0.4884 0.0
C443 C 0.23551 0.24423 0.42433 0.0
C444 C 0.20402 0.27374 0.41293 0.0
C445 C 0.25421 0.23344 0.47706 0.0
C446 C 0.19247 0.29261 0.45551 0.0
C447 C 0.21133 0.28217 0.50815 0.0
H448 H 0.7327 0.23456 0.60605 0.0
H449 H 0.8246 0.31355 0.55153 0.0
H450 H 0.79005 0.29633 0.45907 0.0
H451 H 0.73553 0.25836 0.3947 0.0
H452 H 0.64414 0.17918 0.44958 0.0
H453 H 0.67718 0.19729 0.54176 0.0
C454 C 0.74553 0.24814 0.57417 0.0
C455 C 0.78174 0.27531 0.58607 0.0
C456 C 0.72563 0.23808 0.52137 0.0
C457 C 0.79703 0.29261 0.54379 0.0
C458 C 0.77729 0.28271 0.49093 0.0
C459 C 0.72255 0.24491 0.42661 0.0
C460 C 0.68728 0.2172 0.41487 0.0
C461 C 0.74181 0.25538 0.47938 0.0
C462 C 0.67111 0.20045 0.45715 0.0
C463 C 0.69008 0.21081 0.50989 0.0
H464 H 0.73472 0.72607 0.39793 0.0
H465 H 0.67678 0.81909 0.45515 0.0
H466 H 0.71099 0.80106 0.54702 0.0
H467 H 0.75734 0.75965 0.61031 0.0
H468 H 0.81587 0.66648 0.55429 0.0
H469 H 0.78096 0.68409 0.46196 0.0
C470 C 0.72935 0.74254 0.43033 0.0
C471 C 0.70302 0.77409 0.41928 0.0
C472 C 0.74923 0.73202 0.48307 0.0
C473 C 0.69672 0.79481 0.46216 0.0
C474 C 0.71634 0.78449 0.51474 0.0
C475 C 0.7628 0.74297 0.57818 0.0
C476 C 0.78963 0.71165 0.58963 0.0
C477 C 0.74272 0.75324 0.52554 0.0
C478 C 0.79562 0.69063 0.54695 0.0
C479 C 0.77564 0.70074 0.49415 0.0
H480 H 0.27917 0.71399 0.6097 0.0
H481 H 0.33112 0.80933 0.55273 0.0
H482 H 0.29728 0.79085 0.46061 0.0
H483 H 0.24853 0.74955 0.39777 0.0
H484 H 0.19378 0.65519 0.45518 0.0
H485 H 0.23361 0.67174 0.54678 0.0
C486 C 0.28336 0.73095 0.57734 0.0
C487 C 0.30724 0.7634 0.5884 0.0
C488 C 0.26305 0.72043 0.52492 0.0
C489 C 0.31294 0.78441 0.5456 0.0
C490 C 0.29334 0.77387 0.49299 0.0
C491 C 0.245 0.73241 0.43011 0.0
C492 C 0.21729 0.70119 0.4194 0.0
C493 C 0.2675 0.74224 0.4824 0.0
C494 C 0.2144 0.67931 0.46207 0.0
C495 C 0.23714 0.68883 0.5144 0.0
H496 H 0.19086 0.30197 0.03558 0.0
H497 H 0.15101 0.20282 0.09024 0.0
H498 H 0.18478 0.17547 0.01867 0.0
H499 H 0.23352 0.17988 0.94748 0.0
H500 H 0.27993 0.27933 0.89925 0.0
H501 H 0.2383 0.30648 0.96474 0.0
C502 C 0.18904 0.27434 0.03167 0.0
C503 C 0.16948 0.25435 0.06862 0.0
C504 C 0.21157 0.25889 0.99334 0.0
C505 C 0.16602 0.21873 0.06223 0.0
C506 C 0.18616 0.2031 0.02203 0.0
C507 C 0.23519 0.20748 0.95165 0.0
C508 C 0.26002 0.22757 0.91873 0.0
C509 C 0.21082 0.22293 0.98885 0.0
C510 C 0.26137 0.26328 0.92437 0.0
C511 C 0.23707 0.27885 0.96127 0.0
H512 H 0.74202 0.25577 0.10646 0.0
H513 H 0.67396 0.16357 0.02924 0.0
H514 H 0.70281 0.17964 0.94779 0.0
H515 H 0.74626 0.22026 0.89898 0.0
H516 H 0.81395 0.31248 0.97653 0.0
H517 H 0.78752 0.29545 0.05868 0.0
C518 C 0.73283 0.23949 0.07149 0.0
C519 C 0.7055 0.20888 0.07316 0.0
C520 C 0.75042 0.24845 0.02567 0.0
C521 C 0.69479 0.18745 0.02831 0.0
C522 C 0.71152 0.19646 0.98208 0.0
C523 C 0.75613 0.23622 0.93425 0.0
C524 C 0.78189 0.26743 0.93217 0.0
C525 C 0.73965 0.22678 0.98054 0.0
C526 C 0.79395 0.28829 0.9776 0.0
C527 C 0.77857 0.27875 0.02426 0.0
H528 H 0.74325 0.76376 0.89742 0.0
H529 H 0.85491 0.69484 0.98969 0.0
H530 H 0.82339 0.70929 0.07014 0.0
H531 H 0.76143 0.73899 0.11228 0.0
H532 H 0.64917 0.80764 0.02029 0.0
H533 H 0.68264 0.79474 0.94025 0.0
C534 C 0.76158 0.7526 0.93542 0.0
C535 C 0.80145 0.72853 0.93812 0.0
C536 C 0.74201 0.75996 0.98066 0.0
C537 C 0.8243 0.71364 0.98716 0.0
C538 C 0.80592 0.72153 0.0328 0.0
C539 C 0.74356 0.75058 0.07446 0.0
C540 C 0.70242 0.77367 0.07155 0.0
C541 C 0.76393 0.74393 0.02955 0.0
C542 C 0.68052 0.78939 0.02289 0.0
C543 C 0.69997 0.78236 0.97751 0.0
H544 H 0.17369 0.68608 0.0281 0.0
H545 H 0.16763 0.78541 0.10024 0.0
H546 H 0.19868 0.81201 0.02636 0.0
H547 H 0.24013 0.80562 0.94964 0.0
H548 H 0.2552 0.70479 0.88537 0.0
H549 H 0.21042 0.67997 0.95016 0.0
C550 C 0.17839 0.71365 0.02756 0.0
C551 C 0.17003 0.73362 0.0704 0.0
C552 C 0.19992 0.7283 0.98769 0.0
C553 C 0.17466 0.76938 0.06805 0.0
C554 C 0.19313 0.78454 0.02631 0.0
C555 C 0.23387 0.7782 0.94998 0.0
C556 C 0.25171 0.75705 0.91335 0.0
C557 C 0.20845 0.76397 0.98757 0.0
C558 C 0.24281 0.72161 0.91386 0.0
C559 C 0.21658 0.7074 0.95037 0.0
loop_
_geom_bond_atom_site_label_1
_geom_bond_atom_site_label_2
_geom_bond_distance
_geom_bond_site_symmetry_2
_ccdc_geom_bond_type
Sc0 O3 2.025 . S
Sc0 O10 2.105 . S
Sc0 O13 2.105 . S
Sc0 O16 2.105 . S
Sc0 O19 2.105 . S
Sc1 O3 2.025 . S
Sc1 O11 2.105 . S
Sc1 O15 2.105 . S
Sc1 O17 2.105 . S
Sc1 O21 2.105 . S
Sc2 O3 2.025 . S
Sc2 O12 2.105 . S
Sc2 O14 2.105 . S
Sc2 O18 2.105 . S
Sc2 O20 2.105 . S
O3 Sc0 2.025 . S
O3 Sc1 2.025 . S
O3 Sc2 2.025 . S
C4 O10 1.268 . S
C4 O20 1.268 . S
C5 O11 1.268 . S
C5 O19 1.268 . S
C6 O12 1.268 . S
C6 O21 1.268 . S
C7 O13 1.268 . S
C7 O17 1.268 . S
C8 O14 1.268 . S
C8 O16 1.268 . S
C9 O15 1.268 . S
C9 O18 1.268 . S
O10 Sc0 2.105 . S
O10 C4 1.268 . S
O11 Sc1 2.105 . S
O11 C5 1.268 . S
O12 Sc2 2.105 . S
O12 C6 1.268 . S
O13 Sc0 2.105 . S
O13 C7 1.268 . S
O14 Sc2 2.105 . S
O14 C8 1.268 . S
O15 Sc1 2.105 . S
O15 C9 1.268 . S
O16 Sc0 2.105 . S
O16 C8 1.268 . S
O17 Sc1 2.105 . S
O17 C7 1.268 . S
O18 Sc2 2.105 . S
O18 C9 1.268 . S
O19 Sc0 2.105 . S
O19 C5 1.268 . S
O20 Sc2 2.105 . S
O20 C4 1.268 . S
O21 Sc1 2.105 . S
O21 C6 1.268 . S
Sc22 O25 2.025 . S
Sc22 O32 2.105 . S
Sc22 O35 2.105 . S
Sc22 O38 2.105 . S
Sc22 O41 2.105 . S
Sc23 O25 2.025 . S
Sc23 O33 2.105 . S
Sc23 O37 2.105 . S
Sc23 O39 2.105 . S
Sc23 O43 2.105 . S
Sc24 O25 2.025 . S
Sc24 O34 2.105 . S
Sc24 O36 2.105 . S
Sc24 O40 2.105 . S
Sc24 O42 2.105 . S
O25 Sc22 2.025 . S
O25 Sc23 2.025 . S
O25 Sc24 2.025 . S
C26 O32 1.268 . S
C26 O42 1.268 . S
C27 O33 1.268 . S
C27 O41 1.268 . S
C28 O34 1.268 . S
C28 O43 1.268 . S
C29 O35 1.268 . S
C29 O39 1.268 . S
C30 O36 1.268 . S
C30 O38 1.268 . S
C31 O37 1.268 . S
C31 O40 1.268 . S
O32 Sc22 2.105 . S
O32 C26 1.268 . S
O33 Sc23 2.105 . S
O33 C27 1.268 . S
O34 Sc24 2.105 . S
O34 C28 1.268 . S
O35 Sc22 2.105 . S
O35 C29 1.268 . S
O36 Sc24 2.105 . S
O36 C30 1.268 . S
O37 Sc23 2.105 . S
O37 C31 1.268 . S
O38 Sc22 2.105 . S
O38 C30 1.268 . S
O39 Sc23 2.105 . S
O39 C29 1.268 . S
O40 Sc24 2.105 . S
O40 C31 1.268 . S
O41 Sc22 2.105 . S
O41 C27 1.268 . S
O42 Sc24 2.105 . S
O42 C26 1.268 . S
O43 Sc23 2.105 . S
O43 C28 1.268 . S
Sc44 O47 2.025 . S
Sc44 O54 2.105 . S
Sc44 O57 2.105 . S
Sc44 O60 2.105 . S
Sc44 O63 2.105 . S
Sc45 O47 2.025 . S
Sc45 O55 2.105 . S
Sc45 O59 2.105 . S
Sc45 O61 2.105 . S
Sc45 O65 2.105 . S
Sc46 O47 2.025 . S
Sc46 O56 2.105 . S
Sc46 O58 2.105 . S
Sc46 O62 2.105 . S
Sc46 O64 2.105 . S
O47 Sc44 2.025 . S
O47 Sc45 2.025 . S
O47 Sc46 2.025 . S
C48 O54 1.268 . S
C48 O64 1.268 . S
C49 O55 1.268 . S
C49 O63 1.268 . S
C50 O56 1.268 . S
C50 O65 1.268 . S
C51 O57 1.268 . S
C51 O61 1.268 . S
C52 O58 1.268 . S
C52 O60 1.268 . S
C53 O59 1.268 . S
C53 O62 1.268 . S
O54 Sc44 2.105 . S
O54 C48 1.268 . S
O55 Sc45 2.105 . S
O55 C49 1.268 . S
O56 Sc46 2.105 . S
O56 C50 1.268 . S
O57 Sc44 2.105 . S
O57 C51 1.268 . S
O58 Sc46 2.105 . S
O58 C52 1.268 . S
O59 Sc45 2.105 . S
O59 C53 1.268 . S
O60 Sc44 2.105 . S
O60 C52 1.268 . S
O61 Sc45 2.105 . S
O61 C51 1.268 . S
O62 Sc46 2.105 . S
O62 C53 1.268 . S
O63 Sc44 2.105 . S
O63 C49 1.268 . S
O64 Sc46 2.105 . S
O64 C48 1.268 . S
O65 Sc45 2.105 . S
O65 C50 1.268 . S
Sc66 O69 2.025 . S
Sc66 O76 2.105 . S
Sc66 O79 2.105 . S
Sc66 O82 2.105 . S
Sc66 O85 2.105 . S
Sc67 O69 2.025 . S
Sc67 O77 2.105 . S
Sc67 O81 2.105 . S
Sc67 O83 2.105 . S
Sc67 O87 2.105 . S
Sc68 O69 2.025 . S
Sc68 O78 2.105 . S
Sc68 O80 2.105 . S
Sc68 O84 2.105 . S
Sc68 O86 2.105 . S
O69 Sc66 2.025 . S
O69 Sc67 2.025 . S
O69 Sc68 2.025 . S
C70 O76 1.268 . S
C70 O86 1.268 . S
C71 O77 1.268 . S
C71 O85 1.268 . S
C72 O78 1.268 . S
C72 O87 1.268 . S
C73 O79 1.268 . S
C73 O83 1.268 . S
C74 O80 1.268 . S
C74 O82 1.268 . S
C75 O81 1.268 . S
C75 O84 1.268 . S
O76 Sc66 2.105 . S
O76 C70 1.268 . S
O77 Sc67 2.105 . S
O77 C71 1.268 . S
O78 Sc68 2.105 . S
O78 C72 1.268 . S
O79 Sc66 2.105 . S
O79 C73 1.268 . S
O80 Sc68 2.105 . S
O80 C74 1.268 . S
O81 Sc67 2.105 . S
O81 C75 1.268 . S
O82 Sc66 2.105 . S
O82 C74 1.268 . S
O83 Sc67 2.105 . S
O83 C73 1.268 . S
O84 Sc68 2.105 . S
O84 C75 1.268 . S
O85 Sc66 2.105 . S
O85 C71 1.268 . S
O86 Sc68 2.105 . S
O86 C70 1.268 . S
O87 Sc67 2.105 . S
O87 C72 1.268 . S
Sc88 O91 2.025 . S
Sc88 O98 2.105 . S
Sc88 O101 2.105 . S
Sc88 O104 2.105 . S
Sc88 O107 2.105 . S
Sc89 O91 2.025 . S
Sc89 O99 2.105 . S
Sc89 O103 2.105 . S
Sc89 O105 2.105 . S
Sc89 O109 2.105 . S
Sc90 O91 2.025 . S
Sc90 O100 2.105 . S
Sc90 O102 2.105 . S
Sc90 O106 2.105 . S
Sc90 O108 2.105 . S
O91 Sc88 2.025 . S
O91 Sc89 2.025 . S
O91 Sc90 2.025 . S
C92 O98 1.268 . S
C92 O108 1.268 . S
C93 O99 1.268 . S
C93 O107 1.268 . S
C94 O100 1.268 . S
C94 O109 1.268 . S
C95 O101 1.268 . S
C95 O105 1.268 . S
C96 O102 1.268 . S
C96 O104 1.268 . S
C97 O103 1.268 . S
C97 O106 1.268 . S
O98 Sc88 2.105 . S
O98 C92 1.268 . S
O99 Sc89 2.105 . S
O99 C93 1.268 . S
O100 Sc90 2.105 . S
O100 C94 1.268 . S
O101 Sc88 2.105 . S
O101 C95 1.268 . S
O102 Sc90 2.105 . S
O102 C96 1.268 . S
O103 Sc89 2.105 . S
O103 C97 1.268 . S
O104 Sc88 2.105 . S
O104 C96 1.268 . S
O105 Sc89 2.105 . S
O105 C95 1.268 . S
O106 Sc90 2.105 . S
O106 C97 1.268 . S
O107 Sc88 2.105 . S
O107 C93 1.268 . S
O108 Sc90 2.105 . S
O108 C92 1.268 . S
O109 Sc89 2.105 . S
O109 C94 1.268 . S
Sc110 O113 2.025 . S
Sc110 O120 2.105 . S
Sc110 O123 2.105 . S
Sc110 O126 2.105 . S
Sc110 O129 2.105 . S
Sc111 O113 2.025 . S
Sc111 O121 2.105 . S
Sc111 O125 2.105 . S
Sc111 O127 2.105 . S
Sc111 O131 2.105 . S
Sc112 O113 2.025 . S
Sc112 O122 2.105 . S
Sc112 O124 2.105 . S
Sc112 O128 2.105 . S
Sc112 O130 2.105 . S
O113 Sc110 2.025 . S
O113 Sc111 2.025 . S
O113 Sc112 2.025 . S
C114 O120 1.268 . S
C114 O130 1.268 . S
C115 O121 1.268 . S
C115 O129 1.268 . S
C116 O122 1.268 . S
C116 O131 1.268 . S
C117 O123 1.268 . S
C117 O127 1.268 . S
C118 O124 1.268 . S
C118 O126 1.268 . S
C119 O125 1.268 . S
C119 O128 1.268 . S
O120 Sc110 2.105 . S
O120 C114 1.268 . S
O121 Sc111 2.105 . S
O121 C115 1.268 . S
O122 Sc112 2.105 . S
O122 C116 1.268 . S
O123 Sc110 2.105 . S
O123 C117 1.268 . S
O124 Sc112 2.105 . S
O124 C118 1.268 . S
O125 Sc111 2.105 . S
O125 C119 1.268 . S
O126 Sc110 2.105 . S
O126 C118 1.268 . S
O127 Sc111 2.105 . S
O127 C117 1.268 . S
O128 Sc112 2.105 . S
O128 C119 1.268 . S
O129 Sc110 2.105 . S
O129 C115 1.268 . S
O130 Sc112 2.105 . S
O130 C114 1.268 . S
O131 Sc111 2.105 . S
O131 C116 1.268 . S
Sc132 O135 2.025 . S
Sc132 O142 2.105 . S
Sc132 O145 2.105 . S
Sc132 O148 2.105 . S
Sc132 O151 2.105 . S
Sc133 O135 2.025 . S
Sc133 O143 2.105 . S
Sc133 O147 2.105 . S
Sc133 O149 2.105 . S
Sc133 O153 2.105 . S
Sc134 O135 2.025 . S
Sc134 O144 2.105 . S
Sc134 O146 2.105 . S
Sc134 O150 2.105 . S
Sc134 O152 2.105 . S
O135 Sc132 2.025 . S
O135 Sc133 2.025 . S
O135 Sc134 2.025 . S
C136 O142 1.268 . S
C136 O152 1.268 . S
C137 O143 1.268 . S
C137 O151 1.268 . S
C138 O144 1.268 . S
C138 O153 1.268 . S
C139 O145 1.268 . S
C139 O149 1.268 . S
C140 O146 1.268 . S
C140 O148 1.268 . S
C141 O147 1.268 . S
C141 O150 1.268 . S
O142 Sc132 2.105 . S
O142 C136 1.268 . S
O143 Sc133 2.105 . S
O143 C137 1.268 . S
O144 Sc134 2.105 . S
O144 C138 1.268 . S
O145 Sc132 2.105 . S
O145 C139 1.268 . S
O146 Sc134 2.105 . S
O146 C140 1.268 . S
O147 Sc133 2.105 . S
O147 C141 1.268 . S
O148 Sc132 2.105 . S
O148 C140 1.268 . S
O149 Sc133 2.105 . S
O149 C139 1.268 . S
O150 Sc134 2.105 . S
O150 C141 1.268 . S
O151 Sc132 2.105 . S
O151 C137 1.268 . S
O152 Sc134 2.105 . S
O152 C136 1.268 . S
O153 Sc133 2.105 . S
O153 C138 1.268 . S
Sc154 O157 2.025 . S
Sc154 O164 2.105 . S
Sc154 O167 2.105 . S
Sc154 O170 2.105 . S
Sc154 O173 2.105 . S
Sc155 O157 2.025 . S
Sc155 O165 2.105 . S
Sc155 O169 2.105 . S
Sc155 O171 2.105 . S
Sc155 O175 2.105 . S
Sc156 O157 2.025 . S
Sc156 O166 2.105 . S
Sc156 O168 2.105 . S
Sc156 O172 2.105 . S
Sc156 O174 2.105 . S
O157 Sc154 2.025 . S
O157 Sc155 2.025 . S
O157 Sc156 2.025 . S
C158 O164 1.268 . S
C158 O174 1.268 . S
C159 O165 1.268 . S
C159 O173 1.268 . S
C160 O166 1.268 . S
C160 O175 1.268 . S
C161 O167 1.268 . S
C161 O171 1.268 . S
C162 O168 1.268 . S
C162 O170 1.268 . S
C163 O169 1.268 . S
C163 O172 1.268 . S
O164 Sc154 2.105 . S
O164 C158 1.268 . S
O165 Sc155 2.105 . S
O165 C159 1.268 . S
O166 Sc156 2.105 . S
O166 C160 1.268 . S
O167 Sc154 2.105 . S
O167 C161 1.268 . S
O168 Sc156 2.105 . S
O168 C162 1.268 . S
O169 Sc155 2.105 . S
O169 C163 1.268 . S
O170 Sc154 2.105 . S
O170 C162 1.268 . S
O171 Sc155 2.105 . S
O171 C161 1.268 . S
O172 Sc156 2.105 . S
O172 C163 1.268 . S
O173 Sc154 2.105 . S
O173 C159 1.268 . S
O174 Sc156 2.105 . S
O174 C158 1.268 . S
O175 Sc155 2.105 . S
O175 C160 1.268 . S
H176 C182 0.930 . S
H177 C185 0.930 . S
H178 C186 0.930 . S
H179 C187 0.930 . S
H180 C190 0.930 . S
H181 C191 0.930 . S
C182 H176 0.930 . S
C182 C183 1.355 . S
C182 C184 1.415 . S
C183 C182 1.355 . S
C183 C185 1.419 . S
C184 C182 1.415 . S
C184 C189 1.425 . S
C184 C191 1.409 . S
C185 H177 0.930 . S
C185 C183 1.419 . S
C185 C186 1.362 . S
C186 H178 0.930 . S
C186 C185 1.362 . S
C186 C189 1.409 . S
C187 H179 0.930 . S
C187 C188 1.355 . S
C187 C189 1.415 . S
C188 C187 1.355 . S
C188 C190 1.419 . S
C189 C184 1.425 . S
C189 C186 1.409 . S
C189 C187 1.415 . S
C190 H180 0.930 . S
C190 C188 1.419 . S
C190 C191 1.362 . S
C191 H181 0.930 . S
C191 C184 1.409 . S
C191 C190 1.362 . S
H192 C198 0.930 . S
H193 C201 0.930 . S
H194 C202 0.930 . S
H195 C203 0.930 . S
H196 C206 0.930 . S
H197 C207 0.930 . S
C198 H192 0.930 . S
C198 C199 1.355 . S
C198 C200 1.415 . S
C199 C198 1.355 . S
C199 C201 1.419 . S
C200 C198 1.415 . S
C200 C205 1.425 . S
C200 C207 1.409 . S
C201 H193 0.930 . S
C201 C199 1.419 . S
C201 C202 1.362 . S
C202 H194 0.930 . S
C202 C201 1.362 . S
C202 C205 1.409 . S
C203 H195 0.930 . S
C203 C204 1.355 . S
C203 C205 1.415 . S
C204 C203 1.355 . S
C204 C206 1.419 . S
C205 C200 1.425 . S
C205 C202 1.409 . S
C205 C203 1.415 . S
C206 H196 0.930 . S
C206 C204 1.419 . S
C206 C207 1.362 . S
C207 H197 0.930 . S
C207 C200 1.409 . S
C207 C206 1.362 . S
H208 C214 0.930 . S
H209 C217 0.930 . S
H210 C218 0.930 . S
H211 C219 0.930 . S
H212 C222 0.930 . S
H213 C223 0.930 . S
C214 H208 0.930 . S
C214 C215 1.355 . S
C214 C216 1.415 . S
C215 C214 1.355 . S
C215 C217 1.419 . S
C216 C214 1.415 . S
C216 C221 1.425 . S
C216 C223 1.409 . S
C217 H209 0.930 . S
C217 C215 1.419 . S
C217 C218 1.362 . S
C218 H210 0.930 . S
C218 C217 1.362 . S
C218 C221 1.409 . S
C219 H211 0.930 . S
C219 C220 1.355 . S
C219 C221 1.415 . S
C220 C219 1.355 . S
C220 C222 1.419 . S
C221 C216 1.425 . S
C221 C218 1.409 . S
C221 C219 1.415 . S
C222 H212 0.930 . S
C222 C220 1.419 . S
C222 C223 1.362 . S
C223 H213 0.930 . S
C223 C216 1.409 . S
C223 C222 1.362 . S
H224 C230 0.930 . S
H225 C233 0.930 . S
H226 C234 0.930 . S
H227 C235 0.930 . S
H228 C238 0.930 . S
H229 C239 0.930 . S
C230 H224 0.930 . S
C230 C231 1.355 . S
C230 C232 1.415 . S
C231 C230 1.355 . S
C231 C233 1.419 . S
C232 C230 1.415 . S
C232 C237 1.425 . S
C232 C239 1.409 . S
C233 H225 0.930 . S
C233 C231 1.419 . S
C233 C234 1.362 . S
C234 H226 0.930 . S
C234 C233 1.362 . S
C234 C237 1.409 . S
C235 H227 0.930 . S
C235 C236 1.355 . S
C235 C237 1.415 . S
C236 C235 1.355 . S
C236 C238 1.419 . S
C237 C232 1.425 . S
C237 C234 1.409 . S
C237 C235 1.415 . S
C238 H228 0.930 . S
C238 C236 1.419 . S
C238 C239 1.362 . S
C239 H229 0.930 . S
C239 C232 1.409 . S
C239 C238 1.362 . S
H240 C246 0.930 . S
H241 C249 0.930 . S
H242 C250 0.930 . S
H243 C251 0.930 . S
H244 C254 0.930 . S
H245 C255 0.930 . S
C246 H240 0.930 . S
C246 C247 1.355 . S
C246 C248 1.415 1_455 S
C247 C246 1.355 . S
C247 C249 1.419 . S
C248 C246 1.415 1_655 S
C248 C253 1.425 . S
C248 C255 1.409 . S
C249 H241 0.930 . S
C249 C247 1.419 . S
C249 C250 1.362 . S
C250 H242 0.930 . S
C250 C249 1.362 . S
C250 C253 1.409 1_455 S
C251 H243 0.930 . S
C251 C252 1.355 . S
C251 C253 1.415 . S
C252 C251 1.355 . S
C252 C254 1.419 . S
C253 C248 1.425 . S
C253 C250 1.409 1_655 S
C253 C251 1.415 . S
C254 H244 0.930 . S
C254 C252 1.419 . S
C254 C255 1.362 . S
C255 H245 0.930 . S
C255 C248 1.409 . S
C255 C254 1.362 . S
H256 C262 0.930 . S
H257 C265 0.930 . S
H258 C266 0.930 . S
H259 C267 0.930 . S
H260 C270 0.930 . S
H261 C271 0.930 . S
C262 H256 0.930 . S
C262 C263 1.355 . S
C262 C264 1.415 1_655 S
C263 C262 1.355 . S
C263 C265 1.419 . S
C264 C262 1.415 1_455 S
C264 C269 1.425 . S
C264 C271 1.409 . S
C265 H257 0.930 . S
C265 C263 1.419 . S
C265 C266 1.362 . S
C266 H258 0.930 . S
C266 C265 1.362 . S
C266 C269 1.409 1_655 S
C267 H259 0.930 . S
C267 C268 1.355 . S
C267 C269 1.415 . S
C268 C267 1.355 . S
C268 C270 1.419 . S
C269 C264 1.425 . S
C269 C266 1.409 1_455 S
C269 C267 1.415 . S
C270 H260 0.930 . S
C270 C268 1.419 . S
C270 C271 1.362 . S
C271 H261 0.930 . S
C271 C264 1.409 . S
C271 C270 1.362 . S
H272 C278 0.930 . S
H273 C281 0.930 . S
H274 C282 0.930 . S
H275 C283 0.930 . S
H276 C286 0.930 . S
H277 C287 0.930 . S
C278 H272 0.930 . S
C278 C279 1.355 . S
C278 C280 1.415 1_655 S
C279 C278 1.355 . S
C279 C281 1.419 . S
C280 C278 1.415 1_455 S
C280 C285 1.425 . S
C280 C287 1.409 . S
C281 H273 0.930 . S
C281 C279 1.419 . S
C281 C282 1.362 1_655 S
C282 H274 0.930 . S
C282 C281 1.362 1_455 S
C282 C285 1.409 . S
C283 H275 0.930 . S
C283 C284 1.355 . S
C283 C285 1.415 . S
C284 C283 1.355 . S
C284 C286 1.419 . S
C285 C280 1.425 . S
C285 C282 1.409 . S
C285 C283 1.415 . S
C286 H276 0.930 . S
C286 C284 1.419 . S
C286 C287 1.362 . S
C287 H277 0.930 . S
C287 C280 1.409 . S
C287 C286 1.362 . S
H288 C294 0.930 . S
H289 C297 0.930 . S
H290 C298 0.930 . S
H291 C299 0.930 . S
H292 C302 0.930 . S
H293 C303 0.930 . S
C294 H288 0.930 . S
C294 C295 1.355 . S
C294 C296 1.415 1_455 S
C295 C294 1.355 . S
C295 C297 1.419 . S
C296 C294 1.415 1_655 S
C296 C301 1.425 . S
C296 C303 1.409 . S
C297 H289 0.930 . S
C297 C295 1.419 . S
C297 C298 1.362 1_455 S
C298 H290 0.930 . S
C298 C297 1.362 1_655 S
C298 C301 1.409 . S
C299 H291 0.930 . S
C299 C300 1.355 . S
C299 C301 1.415 . S
C300 C299 1.355 . S
C300 C302 1.419 . S
C301 C296 1.425 . S
C301 C298 1.409 . S
C301 C299 1.415 . S
C302 H292 0.930 . S
C302 C300 1.419 . S
C302 C303 1.362 . S
C303 H293 0.930 . S
C303 C296 1.409 . S
C303 C302 1.362 . S
H304 C310 0.930 . S
H305 C313 0.930 . S
H306 C314 0.930 . S
H307 C315 0.930 . S
H308 C318 0.930 . S
H309 C319 0.930 . S
C310 H304 0.930 . S
C310 C311 1.355 . S
C310 C312 1.415 1_655 S
C311 C310 1.355 . S
C311 C313 1.419 . S
C312 C310 1.415 1_455 S
C312 C317 1.425 1_456 S
C312 C319 1.409 . S
C313 H305 0.930 . S
C313 C311 1.419 . S
C313 C314 1.362 1_556 S
C314 H306 0.930 . S
C314 C313 1.362 1_554 S
C314 C317 1.409 . S
C315 H307 0.930 . S
C315 C316 1.355 . S
C315 C317 1.415 1_455 S
C316 C315 1.355 . S
C316 C318 1.419 . S
C317 C312 1.425 1_654 S
C317 C314 1.409 . S
C317 C315 1.415 1_655 S
C318 H308 0.930 . S
C318 C316 1.419 . S
C318 C319 1.362 1_554 S
C319 H309 0.930 . S
C319 C312 1.409 . S
C319 C318 1.362 1_556 S
H320 C326 0.930 . S
H321 C329 0.930 . S
H322 C330 0.930 . S
H323 C331 0.930 . S
H324 C334 0.930 . S
H325 C335 0.930 . S
C326 H320 0.930 . S
C326 C327 1.355 . S
C326 C328 1.415 1_554 S
C327 C326 1.355 . S
C327 C329 1.419 . S
C328 C326 1.415 1_556 S
C328 C333 1.425 1_456 S
C328 C335 1.409 . S
C329 H321 0.930 . S
C329 C327 1.419 . S
C329 C330 1.362 1_455 S
C330 H322 0.930 . S
C330 C329 1.362 1_655 S
C330 C333 1.409 . S
C331 H323 0.930 . S
C331 C332 1.355 . S
C331 C333 1.415 1_556 S
C332 C331 1.355 . S
C332 C334 1.419 . S
C333 C328 1.425 1_654 S
C333 C330 1.409 . S
C333 C331 1.415 1_554 S
C334 H324 0.930 . S
C334 C332 1.419 . S
C334 C335 1.362 1_655 S
C335 H325 0.930 . S
C335 C328 1.409 . S
C335 C334 1.362 1_455 S
H336 C342 0.930 . S
H337 C345 0.930 . S
H338 C346 0.930 . S
H339 C347 0.930 . S
H340 C350 0.930 . S
H341 C351 0.930 . S
C342 H336 0.930 . S
C342 C343 1.355 . S
C342 C344 1.415 1_554 S
C343 C342 1.355 . S
C343 C345 1.419 . S
C344 C342 1.415 1_556 S
C344 C349 1.425 1_556 S
C344 C351 1.409 . S
C345 H337 0.930 . S
C345 C343 1.419 . S
C345 C346 1.362 . S
C346 H338 0.930 . S
C346 C345 1.362 . S
C346 C349 1.409 . S
C347 H339 0.930 . S
C347 C348 1.355 . S
C347 C349 1.415 1_556 S
C348 C347 1.355 . S
C348 C350 1.419 . S
C349 C344 1.425 1_554 S
C349 C346 1.409 . S
C349 C347 1.415 1_554 S
C350 H340 0.930 . S
C350 C348 1.419 . S
C350 C351 1.362 . S
C351 H341 0.930 . S
C351 C344 1.409 . S
C351 C350 1.362 . S
H352 C358 0.930 . S
H353 C361 0.930 . S
H354 C362 0.930 . S
H355 C363 0.930 . S
H356 C366 0.930 . S
H357 C367 0.930 . S
C358 H352 0.930 . S
C358 C359 1.355 . S
C358 C360 1.415 . S
C359 C358 1.355 . S
C359 C361 1.419 . S
C360 C358 1.415 . S
C360 C365 1.425 1_554 S
C360 C367 1.409 . S
C361 H353 0.930 . S
C361 C359 1.419 . S
C361 C362 1.362 1_554 S
C362 H354 0.930 . S
C362 C361 1.362 1_556 S
C362 C365 1.409 . S
C363 H355 0.930 . S
C363 C364 1.355 . S
C363 C365 1.415 . S
C364 C363 1.355 . S
C364 C366 1.419 . S
C365 C360 1.425 1_556 S
C365 C362 1.409 . S
C365 C363 1.415 . S
C366 H356 0.930 . S
C366 C364 1.419 . S
C366 C367 1.362 1_556 S
C367 H357 0.930 . S
C367 C360 1.409 . S
C367 C366 1.362 1_554 S
H368 C374 0.930 . S
H369 C377 0.930 . S
H370 C378 0.930 . S
H371 C379 0.930 . S
H372 C382 0.930 . S
H373 C383 0.930 . S
C374 H368 0.930 . S
C374 C375 1.355 . S
C374 C376 1.415 . S
C375 C374 1.355 . S
C375 C377 1.419 . S
C376 C374 1.415 . S
C376 C381 1.425 . S
C376 C383 1.409 . S
C377 H369 0.930 . S
C377 C375 1.419 . S
C377 C378 1.362 . S
C378 H370 0.930 . S
C378 C377 1.362 . S
C378 C381 1.409 . S
C379 H371 0.930 . S
C379 C380 1.355 . S
C379 C381 1.415 . S
C380 C379 1.355 . S
C380 C382 1.419 . S
C381 C376 1.425 . S
C381 C378 1.409 . S
C381 C379 1.415 . S
C382 H372 0.930 . S
C382 C380 1.419 . S
C382 C383 1.362 . S
C383 H373 0.930 . S
C383 C376 1.409 . S
C383 C382 1.362 . S
H384 C390 0.930 . S
H385 C393 0.930 . S
H386 C394 0.930 . S
H387 C395 0.930 . S
H388 C398 0.930 . S
H389 C399 0.930 . S
C390 H384 0.930 . S
C390 C391 1.355 . S
C390 C392 1.415 . S
C391 C390 1.355 . S
C391 C393 1.419 . S
C392 C390 1.415 . S
C392 C397 1.425 . S
C392 C399 1.409 . S
C393 H385 0.930 . S
C393 C391 1.419 . S
C393 C394 1.362 . S
C394 H386 0.930 . S
C394 C393 1.362 . S
C394 C397 1.409 . S
C395 H387 0.930 . S
C395 C396 1.355 . S
C395 C397 1.415 . S
C396 C395 1.355 . S
C396 C398 1.419 . S
C397 C392 1.425 . S
C397 C394 1.409 . S
C397 C395 1.415 . S
C398 H388 0.930 . S
C398 C396 1.419 . S
C398 C399 1.362 . S
C399 H389 0.930 . S
C399 C392 1.409 . S
C399 C398 1.362 . S
H400 C406 0.930 . S
H401 C409 0.930 . S
H402 C410 0.930 . S
H403 C411 0.930 . S
H404 C414 0.930 . S
H405 C415 0.930 . S
C406 H400 0.930 . S
C406 C407 1.355 . S
C406 C408 1.415 . S
C407 C406 1.355 . S
C407 C409 1.419 . S
C408 C406 1.415 . S
C408 C413 1.425 1_565 S
C408 C415 1.409 1_565 S
C409 H401 0.930 . S
C409 C407 1.419 . S
C409 C410 1.362 . S
C410 H402 0.930 . S
C410 C409 1.362 . S
C410 C413 1.409 1_565 S
C411 H403 0.930 . S
C411 C412 1.355 . S
C411 C413 1.415 . S
C412 C411 1.355 . S
C412 C414 1.419 . S
C413 C408 1.425 1_545 S
C413 C410 1.409 1_545 S
C413 C411 1.415 . S
C414 H404 0.930 . S
C414 C412 1.419 . S
C414 C415 1.362 . S
C415 H405 0.930 . S
C415 C408 1.409 1_545 S
C415 C414 1.362 . S
H416 C422 0.930 . S
H417 C425 0.930 . S
H418 C426 0.930 . S
H419 C427 0.930 . S
H420 C430 0.930 . S
H421 C431 0.930 . S
C422 H416 0.930 . S
C422 C423 1.355 . S
C422 C424 1.415 . S
C423 C422 1.355 . S
C423 C425 1.419 . S
C424 C422 1.415 . S
C424 C429 1.425 1_565 S
C424 C431 1.409 1_565 S
C425 H417 0.930 . S
C425 C423 1.419 . S
C425 C426 1.362 . S
C426 H418 0.930 . S
C426 C425 1.362 . S
C426 C429 1.409 1_565 S
C427 H419 0.930 . S
C427 C428 1.355 . S
C427 C429 1.415 . S
C428 C427 1.355 . S
C428 C430 1.419 . S
C429 C424 1.425 1_545 S
C429 C426 1.409 1_545 S
C429 C427 1.415 . S
C430 H420 0.930 . S
C430 C428 1.419 . S
C430 C431 1.362 . S
C431 H421 0.930 . S
C431 C424 1.409 1_545 S
C431 C430 1.362 . S
H432 C438 0.930 . S
H433 C441 0.930 . S
H434 C442 0.930 . S
H435 C443 0.930 . S
H436 C446 0.930 . S
H437 C447 0.930 . S
C438 H432 0.930 . S
C438 C439 1.355 . S
C438 C440 1.415 . S
C439 C438 1.355 . S
C439 C441 1.419 . S
C440 C438 1.415 . S
C440 C445 1.425 . S
C440 C447 1.409 . S
C441 H433 0.930 . S
C441 C439 1.419 . S
C441 C442 1.362 . S
C442 H434 0.930 . S
C442 C441 1.362 . S
C442 C445 1.409 . S
C443 H435 0.930 . S
C443 C444 1.355 . S
C443 C445 1.415 . S
C444 C443 1.355 . S
C444 C446 1.419 . S
C445 C440 1.425 . S
C445 C442 1.409 . S
C445 C443 1.415 . S
C446 H436 0.930 . S
C446 C444 1.419 . S
C446 C447 1.362 . S
C447 H437 0.930 . S
C447 C440 1.409 . S
C447 C446 1.362 . S
H448 C454 0.930 . S
H449 C457 0.930 . S
H450 C458 0.930 . S
H451 C459 0.930 . S
H452 C462 0.930 . S
H453 C463 0.930 . S
C454 H448 0.930 . S
C454 C455 1.355 . S
C454 C456 1.415 . S
C455 C454 1.355 . S
C455 C457 1.419 . S
C456 C454 1.415 . S
C456 C461 1.425 . S
C456 C463 1.409 . S
C457 H449 0.930 . S
C457 C455 1.419 . S
C457 C458 1.362 . S
C458 H450 0.930 . S
C458 C457 1.362 . S
C458 C461 1.409 . S
C459 H451 0.930 . S
C459 C460 1.355 . S
C459 C461 1.415 . S
C460 C459 1.355 . S
C460 C462 1.419 . S
C461 C456 1.425 . S
C461 C458 1.409 . S
C461 C459 1.415 . S
C462 H452 0.930 . S
C462 C460 1.419 . S
C462 C463 1.362 . S
C463 H453 0.930 . S
C463 C456 1.409 . S
C463 C462 1.362 . S
H464 C470 0.930 . S
H465 C473 0.930 . S
H466 C474 0.930 . S
H467 C475 0.930 . S
H468 C478 0.930 . S
H469 C479 0.930 . S
C470 H464 0.930 . S
C470 C471 1.355 . S
C470 C472 1.415 . S
C471 C470 1.355 . S
C471 C473 1.419 . S
C472 C470 1.415 . S
C472 C477 1.425 . S
C472 C479 1.409 . S
C473 H465 0.930 . S
C473 C471 1.419 . S
C473 C474 1.362 . S
C474 H466 0.930 . S
C474 C473 1.362 . S
C474 C477 1.409 . S
C475 H467 0.930 . S
C475 C476 1.355 . S
C475 C477 1.415 . S
C476 C475 1.355 . S
C476 C478 1.419 . S
C477 C472 1.425 . S
C477 C474 1.409 . S
C477 C475 1.415 . S
C478 H468 0.930 . S
C478 C476 1.419 . S
C478 C479 1.362 . S
C479 H469 0.930 . S
C479 C472 1.409 . S
C479 C478 1.362 . S
H480 C486 0.930 . S
H481 C489 0.930 . S
H482 C490 0.930 . S
H483 C491 0.930 . S
H484 C494 0.930 . S
H485 C495 0.930 . S
C486 H480 0.930 . S
C486 C487 1.355 . S
C486 C488 1.415 . S
C487 C486 1.355 . S
C487 C489 1.419 . S
C488 C486 1.415 . S
C488 C493 1.425 . S
C488 C495 1.409 . S
C489 H481 0.930 . S
C489 C487 1.419 . S
C489 C490 1.362 . S
C490 H482 0.930 . S
C490 C489 1.362 . S
C490 C493 1.409 . S
C491 H483 0.930 . S
C491 C492 1.355 . S
C491 C493 1.415 . S
C492 C491 1.355 . S
C492 C494 1.419 . S
C493 C488 1.425 . S
C493 C490 1.409 . S
C493 C491 1.415 . S
C494 H484 0.930 . S
C494 C492 1.419 . S
C494 C495 1.362 . S
C495 H485 0.930 . S
C495 C488 1.409 . S
C495 C494 1.362 . S
H496 C502 0.930 . S
H497 C505 0.930 . S
H498 C506 0.930 . S
H499 C507 0.930 . S
H500 C510 0.930 . S
H501 C511 0.930 . S
C502 H496 0.930 . S
C502 C503 1.355 . S
C502 C504 1.415 1_554 S
C503 C502 1.355 . S
C503 C505 1.419 . S
C504 C502 1.415 1_556 S
C504 C509 1.425 1_556 S
C504 C511 1.409 . S
C505 H497 0.930 . S
C505 C503 1.419 . S
C505 C506 1.362 . S
C506 H498 0.930 . S
C506 C505 1.362 . S
C506 C509 1.409 . S
C507 H499 0.930 . S
C507 C508 1.355 . S
C507 C509 1.415 1_556 S
C508 C507 1.355 . S
C508 C510 1.419 . S
C509 C504 1.425 1_554 S
C509 C506 1.409 . S
C509 C507 1.415 1_554 S
C510 H500 0.930 . S
C510 C508 1.419 . S
C510 C511 1.362 . S
C511 H501 0.930 . S
C511 C504 1.409 . S
C511 C510 1.362 . S
H512 C518 0.930 . S
H513 C521 0.930 . S
H514 C522 0.930 . S
H515 C523 0.930 . S
H516 C526 0.930 . S
H517 C527 0.930 . S
C518 H512 0.930 . S
C518 C519 1.355 . S
C518 C520 1.415 . S
C519 C518 1.355 . S
C519 C521 1.419 . S
C520 C518 1.415 . S
C520 C525 1.425 1_554 S
C520 C527 1.409 1_554 S
C521 H513 0.930 . S
C521 C519 1.419 . S
C521 C522 1.362 . S
C522 H514 0.930 . S
C522 C521 1.362 . S
C522 C525 1.409 1_554 S
C523 H515 0.930 . S
C523 C524 1.355 . S
C523 C525 1.415 . S
C524 C523 1.355 . S
C524 C526 1.419 . S
C525 C520 1.425 1_556 S
C525 C522 1.409 1_556 S
C525 C523 1.415 . S
C526 H516 0.930 . S
C526 C524 1.419 . S
C526 C527 1.362 . S
C527 H517 0.930 . S
C527 C520 1.409 1_556 S
C527 C526 1.362 . S
H528 C534 0.930 . S
H529 C537 0.930 . S
H530 C538 0.930 1_554 S
H531 C539 0.930 . S
H532 C542 0.930 . S
H533 C543 0.930 1_556 S
C534 H528 0.930 . S
C534 C535 1.355 . S
C534 C536 1.415 . S
C535 C534 1.355 . S
C535 C537 1.419 . S
C536 C534 1.415 . S
C536 C541 1.425 1_556 S
C536 C543 1.409 1_556 S
C537 H529 0.930 . S
C537 C535 1.419 . S
C537 C538 1.362 . S
C538 H530 0.930 1_556 S
C538 C537 1.362 . S
C538 C541 1.409 1_556 S
C539 H531 0.930 . S
C539 C540 1.355 . S
C539 C541 1.415 . S
C540 C539 1.355 . S
C540 C542 1.419 . S
C541 C536 1.425 1_554 S
C541 C538 1.409 1_554 S
C541 C539 1.415 . S
C542 H532 0.930 . S
C542 C540 1.419 . S
C542 C543 1.362 . S
C543 H533 0.930 1_554 S
C543 C536 1.409 1_554 S
C543 C542 1.362 . S
H544 C550 0.930 . S
H545 C553 0.930 . S
H546 C554 0.930 . S
H547 C555 0.930 . S
H548 C558 0.930 . S
H549 C559 0.930 . S
C550 H544 0.930 . S
C550 C551 1.355 . S
C550 C552 1.415 . S
C551 C550 1.355 . S
C551 C553 1.419 . S
C552 C550 1.415 . S
C552 C557 1.425 1_554 S
C552 C559 1.409 1_554 S
C553 H545 0.930 . S
C553 C551 1.419 . S
C553 C554 1.362 . S
C554 H546 0.930 . S
C554 C553 1.362 . S
C554 C557 1.409 1_554 S
C555 H547 0.930 . S
C555 C556 1.355 . S
C555 C557 1.415 . S
C556 C555 1.355 . S
C556 C558 1.419 . S
C557 C552 1.425 1_556 S
C557 C554 1.409 1_556 S
C557 C555 1.415 . S
C558 H548 0.930 . S
C558 C556 1.419 . S
C558 C559 1.362 . S
C559 H549 0.930 . S
C559 C552 1.409 1_556 S
C559 C558 1.362 . S
C183 C160 1.336 . S
C188 C5 1.230 . S
C199 C31 1.249 . S
C204 C139 1.348 . S
C215 C115 1.316 . S
C220 C50 1.321 . S
C231 C73 1.273 . S
C236 C97 1.353 . S
C247 C72 1.303 . S
C252 C93 1.231 . S
C263 C51 1.352 . S
C268 C119 1.266 . S
C279 C27 1.343 . S
C284 C138 1.313 . S
C295 C9 1.295 . S
C300 C161 1.294 . S
C311 C26 1.842 . S
C316 C8 1.846 . S
C327 C70 1.850 . S
C332 C52 1.845 . S
C343 C96 1.849 . S
C348 C114 1.846 . S
C359 C158 1.848 . S
C364 C140 1.841 . S
C375 C74 1.430 . S
C380 C4 1.495 . S
C391 C48 1.485 . S
C396 C30 1.441 . S
C407 C92 1.461 . S
C412 C162 1.465 . S
C423 C118 1.453 . S
C428 C136 1.472 . S
C439 C137 1.806 . S
C444 C6 1.806 . S
C455 C29 1.802 . S
C460 C163 1.802 . S
C471 C94 1.772 . S
C476 C49 1.772 . S
C487 C117 1.807 . S
C492 C75 1.807 . S
C503 C7 0.922 . S
C508 C141 0.922 . S
C519 C159 0.846 . S
C524 C28 0.846 . S
C535 C53 0.958 . S
C540 C95 0.958 . S
C551 C71 0.861 . S
C556 C116 0.861 . S
