# Generated by pormake.
# Topology whw, (6)-cn, num edge types: 1
# Building blocks:
#     Node 0, Type 0, BuildingBlock: BETFEN_clean_sbu_0, # of connection points: 6
#     Node 1, Type 0, BuildingBlock: BETFEN_clean_sbu_0, # of connection points: 6
#     Node 2, Type 0, BuildingBlock: BETFEN_clean_sbu_0, # of connection points: 6
#     Node 3, Type 0, BuildingBlock: BETFEN_clean_sbu_0, # of connection points: 6
#     Node 4, Type 0, BuildingBlock: BETFEN_clean_sbu_0, # of connection points: 6
#     Node 5, Type 0, BuildingBlock: BETFEN_clean_sbu_0, # of connection points: 6
#     Node 6, Type 0, BuildingBlock: BETFEN_clean_sbu_0, # of connection points: 6
#     Node 7, Type 0, BuildingBlock: BETFEN_clean_sbu_0, # of connection points: 6
#     Node 8, Type 0, BuildingBlock: BETFEN_clean_sbu_0, # of connection points: 6
#     Node 9, Type 0, BuildingBlock: BETFEN_clean_sbu_0, # of connection points: 6
#     Node 10, Type 0, BuildingBlock: BETFEN_clean_sbu_0, # of connection points: 6
#     Node 11, Type 0, BuildingBlock: BETFEN_clean_sbu_0, # of connection points: 6
#     Node 12, Type 0, BuildingBlock: BETFEN_clean_sbu_0, # of connection points: 6
#     Node 13, Type 0, BuildingBlock: BETFEN_clean_sbu_0, # of connection points: 6
#     Node 14, Type 0, BuildingBlock: BETFEN_clean_sbu_0, # of connection points: 6
#     Node 15, Type 0, BuildingBlock: BETFEN_clean_sbu_0, # of connection points: 6
#     Edge 16, Type (0, 0), BuildingBlock: AJUNOK_clean_linker_0, # of connection points: 2
#     Edge 17, Type (0, 0), BuildingBlock: AJUNOK_clean_linker_0, # of connection points: 2
#     Edge 18, Type (0, 0), BuildingBlock: AJUNOK_clean_linker_0, # of connection points: 2
#     Edge 19, Type (0, 0), BuildingBlock: AJUNOK_clean_linker_0, # of connection points: 2
#     Edge 20, Type (0, 0), BuildingBlock: AJUNOK_clean_linker_0, # of connection points: 2
#     Edge 21, Type (0, 0), BuildingBlock: AJUNOK_clean_linker_0, # of connection points: 2
#     Edge 22, Type (0, 0), BuildingBlock: AJUNOK_clean_linker_0, # of connection points: 2
#     Edge 23, Type (0, 0), BuildingBlock: AJUNOK_clean_linker_0, # of connection points: 2
#     Edge 24, Type (0, 0), BuildingBlock: AJUNOK_clean_linker_0, # of connection points: 2
#     Edge 25, Type (0, 0), BuildingBlock: AJUNOK_clean_linker_0, # of connection points: 2
#     Edge 26, Type (0, 0), BuildingBlock: AJUNOK_clean_linker_0, # of connection points: 2
#     Edge 27, Type (0, 0), BuildingBlock: AJUNOK_clean_linker_0, # of connection points: 2
#     Edge 28, Type (0, 0), BuildingBlock: AJUNOK_clean_linker_0, # of connection points: 2
#     Edge 29, Type (0, 0), BuildingBlock: AJUNOK_clean_linker_0, # of connection points: 2
#     Edge 30, Type (0, 0), BuildingBlock: AJUNOK_clean_linker_0, # of connection points: 2
#     Edge 31, Type (0, 0), BuildingBlock: AJUNOK_clean_linker_0, # of connection points: 2
#     Edge 32, Type (0, 0), BuildingBlock: AJUNOK_clean_linker_0, # of connection points: 2
#     Edge 33, Type (0, 0), BuildingBlock: AJUNOK_clean_linker_0, # of connection points: 2
#     Edge 34, Type (0, 0), BuildingBlock: AJUNOK_clean_linker_0, # of connection points: 2
#     Edge 35, Type (0, 0), BuildingBlock: AJUNOK_clean_linker_0, # of connection points: 2
#     Edge 36, Type (0, 0), BuildingBlock: AJUNOK_clean_linker_0, # of connection points: 2
#     Edge 37, Type (0, 0), BuildingBlock: AJUNOK_clean_linker_0, # of connection points: 2
#     Edge 38, Type (0, 0), BuildingBlock: AJUNOK_clean_linker_0, # of connection points: 2
#     Edge 39, Type (0, 0), BuildingBlock: AJUNOK_clean_linker_0, # of connection points: 2
#     Edge 40, Type (0, 0), BuildingBlock: AJUNOK_clean_linker_0, # of connection points: 2
#     Edge 41, Type (0, 0), BuildingBlock: AJUNOK_clean_linker_0, # of connection points: 2
#     Edge 42, Type (0, 0), BuildingBlock: AJUNOK_clean_linker_0, # of connection points: 2
#     Edge 43, Type (0, 0), BuildingBlock: AJUNOK_clean_linker_0, # of connection points: 2
#     Edge 44, Type (0, 0), BuildingBlock: AJUNOK_clean_linker_0, # of connection points: 2
#     Edge 45, Type (0, 0), BuildingBlock: AJUNOK_clean_linker_0, # of connection points: 2
#     Edge 46, Type (0, 0), BuildingBlock: AJUNOK_clean_linker_0, # of connection points: 2
#     Edge 47, Type (0, 0), BuildingBlock: AJUNOK_clean_linker_0, # of connection points: 2
#     Edge 48, Type (0, 0), BuildingBlock: AJUNOK_clean_linker_0, # of connection points: 2
#     Edge 49, Type (0, 0), BuildingBlock: AJUNOK_clean_linker_0, # of connection points: 2
#     Edge 50, Type (0, 0), BuildingBlock: AJUNOK_clean_linker_0, # of connection points: 2
#     Edge 51, Type (0, 0), BuildingBlock: AJUNOK_clean_linker_0, # of connection points: 2
#     Edge 52, Type (0, 0), BuildingBlock: AJUNOK_clean_linker_0, # of connection points: 2
#     Edge 53, Type (0, 0), BuildingBlock: AJUNOK_clean_linker_0, # of connection points: 2
#     Edge 54, Type (0, 0), BuildingBlock: AJUNOK_clean_linker_0, # of connection points: 2
#     Edge 55, Type (0, 0), BuildingBlock: AJUNOK_clean_linker_0, # of connection points: 2
#     Edge 56, Type (0, 0), BuildingBlock: AJUNOK_clean_linker_0, # of connection points: 2
#     Edge 57, Type (0, 0), BuildingBlock: AJUNOK_clean_linker_0, # of connection points: 2
#     Edge 58, Type (0, 0), BuildingBlock: AJUNOK_clean_linker_0, # of connection points: 2
#     Edge 59, Type (0, 0), BuildingBlock: AJUNOK_clean_linker_0, # of connection points: 2
#     Edge 60, Type (0, 0), BuildingBlock: AJUNOK_clean_linker_0, # of connection points: 2
#     Edge 61, Type (0, 0), BuildingBlock: AJUNOK_clean_linker_0, # of connection points: 2
#     Edge 62, Type (0, 0), BuildingBlock: AJUNOK_clean_linker_0, # of connection points: 2
#     Edge 63, Type (0, 0), BuildingBlock: AJUNOK_clean_linker_0, # of connection points: 2
# Relax obj value: 0.410
# Max RMSD: 0.272
# Mean RMSD: 0.228
data_MOF--net-whw--node1-BETFEN_clean_sbu_0--edge1-AJUNOK_clean_linker_0
_symmetry_space_group_name_H-M    P1
_symmetry_Int_Tables_number       1
_symmetry_cell_setting            triclinic
loop_
_symmetry_equiv_pos_as_xyz
'x, y, z'
_cell_length_a     34.423141
_cell_length_b     34.165013
_cell_length_c     27.68027
_cell_angle_alpha  90.489154
_cell_angle_beta   81.407048
_cell_angle_gamma 94.662948
loop_
_atom_site_label
_atom_site_type_symbol
_atom_site_fract_x
_atom_site_fract_y
_atom_site_fract_z
_atom_type_partial_charge
Pr0 Pr 0.04617 0.08329 0.21805 0.0
Pr1 Pr 0.0171 0.11954 0.11084 0.0
C2 C 0.06957 0.09226 0.30904 0.0
C3 C 0.0736 0.10578 0.36166 0.0
C4 C 0.09227 0.08307 0.39248 0.0
C5 C 0.10013 0.09648 0.4393 0.0
C6 C 0.08916 0.13332 0.45884 0.0
C7 C 0.07034 0.15607 0.42771 0.0
C8 C 0.06302 0.14281 0.38041 0.0
C9 C 0.03021 0.03143 0.14276 0.0
C10 C 0.95125 0.09979 0.21256 0.0
C11 C -0.01242 0.1374 1.02728 0.0
C12 C 0.98033 0.15214 0.97731 0.0
C13 C -0.00766 0.19069 0.95984 0.0
C14 C -0.01644 0.20414 0.91429 0.0
C15 C 0.96204 0.17993 0.88384 0.0
C16 C 0.94951 0.14156 0.90222 0.0
C17 C 0.95875 0.128 0.94731 0.0
C18 C 0.05307 0.16673 0.17656 0.0
C19 C 0.10952 0.09765 0.1149 0.0
O20 O 0.07951 0.11716 0.27256 0.0
O21 O 0.04682 0.06148 0.29781 0.0
O22 O 0.01404 0.06247 0.15444 0.0
O23 O 0.05297 0.02256 0.17473 0.0
O24 O 0.95771 0.11156 0.16605 0.0
O25 O 0.97873 0.08913 0.23777 0.0
O26 O -2e-05 0.10276 1.03471 0.0
O27 O -0.00922 0.16192 0.0636 0.0
O28 O 0.02898 0.13798 0.18602 0.0
O29 O 0.05679 0.17578 0.13015 0.0
O30 O 0.10503 0.09593 0.16337 0.0
O31 O 0.08056 0.10014 0.0884 0.0
H32 H 0.10206 0.05495 0.37968 0.0
H33 H 0.11611 0.07797 0.45943 0.0
H34 H 0.06097 0.18446 0.43989 0.0
H35 H 0.04917 0.16189 0.35825 0.0
H36 H 0.00845 0.21073 0.98162 0.0
H37 H -0.00615 0.23382 0.90289 0.0
H38 H 0.93135 0.1218 0.88262 0.0
H39 H 0.94803 0.09847 0.95932 0.0
Pr40 Pr 0.16534 0.80967 0.41046 0.0
Pr41 Pr 0.16461 0.731 0.36238 0.0
C42 C 0.16081 0.87111 0.47253 0.0
C43 C 0.1433 0.88069 0.52323 0.0
C44 C 0.16341 0.87495 0.56297 0.0
C45 C 0.14674 0.88422 0.61057 0.0
C46 C 0.10974 0.89973 0.61954 0.0
C47 C 0.08988 0.9059 0.57977 0.0
C48 C 0.10653 0.8967 0.5322 0.0
C49 C 0.23221 0.80077 0.34029 0.0
C50 C 0.16848 0.7286 0.47649 0.0
C51 C 0.1718 0.67326 0.29562 0.0
C52 C 0.15606 0.66715 0.24891 0.0
C53 C 0.12683 0.63656 0.24518 0.0
C54 C 0.1082 0.63302 0.20365 0.0
C55 C 0.11861 0.65983 0.1648 0.0
C56 C 0.1488 0.68961 0.1676 0.0
C57 C 0.16723 0.69341 0.20938 0.0
C58 C 0.09103 0.74373 0.41576 0.0
C59 C 0.14159 0.80978 0.30312 0.0
O60 O 0.13648 0.86362 0.44091 0.0
O61 O 0.19036 0.84877 0.46682 0.0
O62 O 0.21691 0.77492 0.37193 0.0
O63 O 0.21522 0.83311 0.3481 0.0
O64 O 0.18363 0.71139 0.43592 0.0
O65 O 0.15495 0.7635 0.47467 0.0
O66 O 0.19911 0.70194 0.29746 0.0
O67 O 0.14561 0.67088 0.33499 0.0
O68 O 0.11307 0.76952 0.38985 0.0
O69 O 0.10641 0.71023 0.41317 0.0
O70 O 0.13812 0.82972 0.34421 0.0
O71 O 0.153 0.77374 0.301 0.0
H72 H 0.19193 0.863 0.55742 0.0
H73 H 0.16245 0.87839 0.64051 0.0
H74 H 0.06139 0.91792 0.58548 0.0
H75 H 0.09049 0.90207 0.50242 0.0
H76 H 0.11771 0.6159 0.27498 0.0
H77 H 0.08552 0.60934 0.20191 0.0
H78 H 0.15741 0.71055 0.138 0.0
H79 H 0.18949 0.71748 0.2111 0.0
Pr80 Pr 0.45821 0.82638 0.66286 0.0
Pr81 Pr 0.53488 0.86581 0.67146 0.0
C82 C 0.38744 0.80717 0.63561 0.0
C83 C 0.37059 0.81549 0.59105 0.0
C84 C 0.38379 0.79739 0.5465 0.0
C85 C 0.37315 0.81047 0.50311 0.0
C86 C 0.34925 0.84193 0.50336 0.0
C87 C 0.33391 0.85832 0.54809 0.0
C88 C 0.34435 0.84506 0.59165 0.0
C89 C 0.51025 0.7811 0.70126 0.0
C90 C 0.52976 0.81862 0.56492 0.0
C91 C 0.60017 0.90111 0.69997 0.0
C92 C 0.61603 0.8976 0.74583 0.0
C93 C 0.63599 0.93004 0.76522 0.0
C94 C 0.64676 0.92772 0.81183 0.0
C95 C 0.63784 0.89285 0.83922 0.0
C96 C 0.6184 0.8603 0.8192 0.0
C97 C 0.60753 0.86267 0.77299 0.0
C98 C 0.49666 0.90732 0.61003 0.0
C99 C 0.46815 0.84201 0.77838 0.0
O100 O 0.39457 0.83776 0.6627 0.0
O101 O 0.41548 0.78307 0.63135 0.0
O102 O 0.51775 0.80284 0.66498 0.0
O103 O 0.47262 0.77743 0.71696 0.0
O104 O 0.55455 0.83491 0.59364 0.0
O105 O 0.49137 0.81432 0.58179 0.0
O106 O 0.60052 0.8697 0.67266 0.0
O107 O 0.56692 0.91777 0.70387 0.0
O108 O 0.47936 0.89343 0.65131 0.0
O109 O 0.53304 0.89959 0.6018 0.0
O110 O 0.44175 0.83411 0.74878 0.0
O111 O 0.50522 0.85306 0.75791 0.0
H112 H 0.40386 0.7744 0.54465 0.0
H113 H 0.38546 0.7974 0.46899 0.0
H114 H 0.31496 0.88222 0.54918 0.0
H115 H 0.3334 0.85924 0.62556 0.0
H116 H 0.64217 0.95739 0.74496 0.0
H117 H 0.66144 0.95326 0.82682 0.0
H118 H 0.61011 0.83348 0.84014 0.0
H119 H 0.59127 0.83757 0.75919 0.0
Pr120 Pr 0.34261 0.18302 0.97424 0.0
Pr121 Pr 0.34338 0.25941 0.92143 0.0
C122 C 0.34615 0.11998 1.03083 0.0
C123 C 0.35889 0.10894 0.0769 0.0
C124 C 0.33768 0.07808 0.10506 0.0
C125 C 0.34915 0.06708 0.14909 0.0
C126 C 0.3821 0.08679 0.1655 0.0
C127 C 0.40314 0.11787 0.1373 0.0
C128 C 0.39153 0.129 0.09348 0.0
C129 C 0.27165 0.19595 0.94033 0.0
C130 C 0.34602 0.26507 1.04005 0.0
C131 C 0.33448 0.32446 0.87209 0.0
C132 C 0.34745 0.33417 0.81996 0.0
C133 C 0.36841 0.37034 0.80645 0.0
C134 C 0.38532 0.37759 0.75778 0.0
C135 C 0.38137 0.34884 0.72177 0.0
C136 C 0.35977 0.31294 0.73525 0.0
C137 C 0.34306 0.30564 0.7838 0.0
C138 C 0.41825 0.23222 0.91251 0.0
C139 C 0.35011 0.1785 0.85666 0.0
O140 O 0.37369 0.13102 0.99438 0.0
O141 O 0.31557 0.14078 1.03479 0.0
O142 O 0.29216 0.2208 0.96186 0.0
O143 O 0.28712 0.1626 0.93741 0.0
O144 O 0.34312 0.28501 1.00031 0.0
O145 O 0.34657 0.22654 1.03943 0.0
O146 O 0.30634 0.29617 0.8817 0.0
O147 O 0.36285 0.32231 0.89836 0.0
O148 O 0.39438 0.23106 0.9523 0.0
O149 O 0.40258 0.24567 0.877 0.0
O150 O 0.36221 0.16252 0.8944 0.0
O151 O 0.33597 0.21333 0.85962 0.0
H152 H 0.31231 0.06237 0.09284 0.0
H153 H 0.33272 0.04279 0.16986 0.0
H154 H 0.42851 0.13371 0.14936 0.0
H155 H 0.40806 0.15317 0.07257 0.0
H156 H 0.37265 0.39253 0.83379 0.0
H157 H 0.40188 0.4055 0.74834 0.0
H158 H 0.35696 0.28993 0.70853 0.0
H159 H 0.32778 0.27712 0.7932 0.0
Pr160 Pr 0.03943 0.89441 0.93399 0.0
Pr161 Pr 0.95687 0.89806 0.90821 0.0
C162 C 0.10722 0.89802 0.97189 0.0
C163 C 0.11855 0.8955 1.02055 0.0
C164 C 0.14992 0.87334 1.02687 0.0
C165 C 0.15678 0.86442 0.07376 0.0
C166 C 0.13263 0.87803 0.11483 0.0
C167 C 0.10318 0.90268 0.10834 0.0
C168 C 0.09562 0.91076 0.06148 0.0
C169 C 0.01294 0.82723 0.88594 0.0
C170 C 0.96065 0.87024 1.0189 0.0
C171 C 0.89176 0.89255 0.86428 0.0
C172 C 0.8801 0.8758 0.81829 0.0
C173 C 0.89249 0.89464 0.77288 0.0
C174 C 0.88298 0.87725 0.72964 0.0
C175 C 0.86112 0.84061 0.73086 0.0
C176 C 0.84752 0.82253 0.77633 0.0
C177 C 0.85678 0.83997 0.81952 0.0
C178 C 0.98001 0.96004 0.96774 0.0
C179 C 0.03537 0.91442 0.8219 0.0
O180 O 0.09035 0.92928 0.96176 0.0
O181 O 0.09053 0.86554 0.95658 0.0
O182 O -0.00783 0.84531 0.91902 0.0
O183 O 0.04852 0.84386 0.87714 0.0
O184 O 0.9385 0.86711 0.98378 0.0
O185 O -0.00156 0.88289 1.0097 0.0
O186 O 0.89811 0.86738 0.89708 0.0
O187 O 0.91685 0.92374 0.86086 0.0
O188 O 0.00186 0.94604 0.93188 0.0
O189 O 0.94384 0.94599 0.96792 0.0
O190 O 0.05682 0.92282 0.85676 0.0
O191 O -0.00145 0.89955 0.83267 0.0
H192 H 0.16775 0.86119 0.99561 0.0
H193 H 0.17988 0.84556 0.07801 0.0
H194 H 0.08469 0.91385 0.13954 0.0
H195 H 0.07113 0.92774 0.05733 0.0
H196 H 0.9102 0.92243 0.77054 0.0
H197 H 0.89386 0.89179 0.69507 0.0
H198 H 0.8301 0.79456 0.77841 0.0
H199 H 0.84623 0.82501 0.8539 0.0
Pr200 Pr 0.41488 0.81059 0.11576 0.0
Pr201 Pr 0.38662 0.73134 0.08644 0.0
C202 C 0.41816 0.88081 0.15999 0.0
C203 C 0.39922 0.8938 0.20806 0.0
C204 C 0.4228 0.90708 0.24296 0.0
C205 C 0.40646 0.90893 0.29212 0.0
C206 C 0.36628 0.89761 0.30693 0.0
C207 C 0.342 0.88828 0.27141 0.0
C208 C 0.35833 0.88652 0.22228 0.0
C209 C 0.47816 0.7654 0.08463 0.0
C210 C 0.4158 0.73733 0.19799 0.0
C211 C 0.36492 0.66324 1.04502 0.0
C212 C 0.3606 0.65081 0.99484 0.0
C213 C 0.33734 0.67069 0.96685 0.0
C214 C 0.33726 0.6616 0.91756 0.0
C215 C 0.3608 0.63288 0.8953 0.0
C216 C 0.38219 0.61155 0.92413 0.0
C217 C 0.38198 0.62037 0.97345 0.0
C218 C 0.33148 0.76281 0.15667 0.0
C219 C 0.41913 0.80029 0.99456 0.0
O220 O 0.39496 0.87187 0.12737 0.0
O221 O 0.4446 0.85558 0.16148 0.0
O222 O 0.44494 0.75354 0.10662 0.0
O223 O 0.47791 0.80223 0.07286 0.0
O224 O 0.41078 0.71323 0.16052 0.0
O225 O 0.41443 0.77583 0.19155 0.0
O226 O 0.40099 0.67212 0.05382 0.0
O227 O 0.33981 0.68739 0.06544 0.0
O228 O 0.35062 0.78275 0.12026 0.0
O229 O 0.33853 0.72627 0.15355 0.0
O230 O 0.42454 0.8256 1.03 0.0
O231 O 0.4038 0.764 1.00692 0.0
H232 H 0.45437 0.91291 0.23283 0.0
H233 H 0.42595 0.91578 0.31888 0.0
H234 H 0.31093 0.87977 0.28209 0.0
H235 H 0.33938 0.8768 0.19601 0.0
H236 H 0.32029 0.69423 0.98243 0.0
H237 H 0.32007 0.67809 0.89643 0.0
H238 H 0.40103 0.58953 0.90794 0.0
H239 H 0.39995 0.60457 0.99433 0.0
Pr240 Pr 0.45034 0.07158 0.46151 0.0
Pr241 Pr 0.52862 0.08335 0.39221 0.0
C242 C 0.38795 0.04891 0.52826 0.0
C243 C 0.37933 0.06273 0.57886 0.0
C244 C 0.34075 0.06076 0.6042 0.0
C245 C 0.33327 0.07746 0.65084 0.0
C246 C 0.3643 0.09657 0.67202 0.0
C247 C 0.40282 0.09774 0.64688 0.0
C248 C 0.41023 0.08092 0.60086 0.0
C249 C 0.47193 0.15008 0.44036 0.0
C250 C 0.53166 0.10804 0.50424 0.0
C251 C 0.58944 0.09626 0.31821 0.0
C252 C 0.59887 0.10936 0.26639 0.0
C253 C 0.63304 0.09777 0.23731 0.0
C254 C 0.64378 0.11142 0.18904 0.0
C255 C 0.62067 0.1372 0.16875 0.0
C256 C 0.58607 0.14827 0.19777 0.0
C257 C 0.57513 0.13426 0.24588 0.0
C258 C 0.5173 0.01547 0.45262 0.0
C259 C 0.44609 0.06304 0.34377 0.0
O260 O 0.41905 0.02884 0.51906 0.0
O261 O 0.3864 0.07525 0.49463 0.0
O262 O 0.47645 0.12314 0.40857 0.0
O263 O 0.45593 0.13653 0.48292 0.0
O264 O 0.54659 0.11829 0.45903 0.0
O265 O 0.49837 0.08521 0.51367 0.0
O266 O 0.57867 0.12271 0.35104 0.0
O267 O 0.5699 0.06196 0.32712 0.0
O268 O 0.4927 0.02815 0.42854 0.0
O269 O 0.55031 0.03715 0.4434 0.0
O270 O 0.42544 0.05904 0.38792 0.0
O271 O 0.48433 0.07253 0.3371 0.0
H272 H 0.31649 0.04711 0.5876 0.0
H273 H 0.30328 0.07649 0.66972 0.0
H274 H 0.42717 0.11217 0.66265 0.0
H275 H 0.44012 0.08291 0.58193 0.0
H276 H 0.65187 0.0786 0.25226 0.0
H277 H 0.67084 0.10273 0.16808 0.0
H278 H 0.56747 0.16791 0.18323 0.0
H279 H 0.54837 0.14323 0.26723 0.0
Pr280 Pr 0.09939 0.18394 0.78308 0.0
Pr281 Pr 0.11829 0.26808 0.74554 0.0
C282 C 0.1037 0.11322 0.8229 0.0
C283 C 0.1246 0.09748 0.86028 0.0
C284 C 0.1029 0.07805 0.90115 0.0
C285 C 0.12146 0.06901 0.94058 0.0
C286 C 0.16193 0.07958 0.93988 0.0
C287 C 0.18429 0.09581 0.89742 0.0
C288 C 0.16582 0.10422 0.85753 0.0
C289 C 0.04058 0.21207 0.73657 0.0
C290 C 0.08021 0.25919 0.86422 0.0
C291 C 0.13723 0.33622 0.69631 0.0
C292 C 0.14054 0.34705 0.64467 0.0
C293 C 0.16421 0.38055 0.62641 0.0
C294 C 0.17101 0.38827 0.57614 0.0
C295 C 0.15409 0.36255 0.54367 0.0
C296 C 0.13017 0.32923 0.56236 0.0
C297 C 0.12377 0.32143 0.61231 0.0
C298 C 0.17187 0.24297 0.80211 0.0
C299 C 0.11648 0.19313 0.66059 0.0
O300 O 0.12583 0.12595 0.78266 0.0
O301 O 0.07534 0.13586 0.83829 0.0
O302 O 0.06036 0.23127 0.76483 0.0
O303 O 0.04609 0.17505 0.73911 0.0
O304 O 0.08395 0.28281 0.82522 0.0
O305 O 0.08798 0.22157 0.85797 0.0
O306 O 0.1017 0.32636 0.71933 0.0
O307 O 0.16328 0.31268 0.70563 0.0
O308 O 0.15805 0.22203 0.76938 0.0
O309 O 0.15983 0.27784 0.80349 0.0
O310 O 0.11401 0.16848 0.69798 0.0
O311 O 0.11803 0.23159 0.66952 0.0
H312 H 0.07124 0.07205 0.90384 0.0
H313 H 0.10345 0.05715 0.97346 0.0
H314 H 0.21542 0.10413 0.89639 0.0
H315 H 0.18351 0.11787 0.82565 0.0
H316 H 0.17818 0.40014 0.65084 0.0
H317 H 0.19011 0.41382 0.56261 0.0
H318 H 0.11651 0.30903 0.53829 0.0
H319 H 0.10644 0.2949 0.62554 0.0
Pr320 Pr 0.91522 0.31719 0.61466 0.0
Pr321 Pr 0.89628 0.23514 0.5807 0.0
C322 C 0.90864 0.386 0.66196 0.0
C323 C 0.89031 0.39489 0.71154 0.0
C324 C 0.87889 0.36387 0.74454 0.0
C325 C 0.86396 0.37127 0.79277 0.0
C326 C 0.85863 0.4099 0.80889 0.0
C327 C 0.86885 0.44106 0.77521 0.0
C328 C 0.88472 0.43357 0.72668 0.0
C329 C -0.01664 0.2794 0.58179 0.0
C330 C 0.92296 0.24081 0.69269 0.0
C331 C 0.87784 0.16785 0.53574 0.0
C332 C 0.87807 0.15603 0.4848 0.0
C333 C 0.84916 0.12786 0.47273 0.0
C334 C 0.84662 0.11923 0.42379 0.0
C335 C 0.87272 0.13907 0.38642 0.0
C336 C 0.90155 0.16739 0.39888 0.0
C337 C 0.90406 0.17595 0.44762 0.0
C338 C 0.8379 0.25912 0.65319 0.0
C339 C 0.92501 0.30726 0.49231 0.0
O340 O 0.88413 0.3725 0.63279 0.0
O341 O 0.93986 0.3662 0.65934 0.0
O342 O 0.95099 0.2646 0.603 0.0
O343 O 0.98083 0.31681 0.57496 0.0
O344 O 0.92095 0.21739 0.65391 0.0
O345 O 0.91822 0.27911 0.6881 0.0
O346 O 0.91216 0.17571 0.55058 0.0
O347 O 0.85227 0.19332 0.55051 0.0
O348 O 0.85483 0.28157 0.61781 0.0
O349 O 0.84803 0.22373 0.64665 0.0
O350 O 0.91981 0.33298 0.52867 0.0
O351 O 0.9197 0.26917 0.50345 0.0
H352 H 0.88266 0.33384 0.73342 0.0
H353 H 0.85833 0.34658 0.81778 0.0
H354 H 0.86545 0.47111 0.78665 0.0
H355 H 0.89322 0.45786 0.70138 0.0
H356 H 0.8284 0.11277 0.50116 0.0
H357 H 0.82459 0.09686 0.41511 0.0
H358 H 0.92306 0.18213 0.37095 0.0
H359 H 0.92627 0.19815 0.45622 0.0
Pr360 Pr 0.60669 0.68652 0.28267 0.0
Pr361 Pr 0.627 0.776 0.24357 0.0
C362 C 0.62444 0.61801 0.31503 0.0
C363 C 0.64336 0.6125 0.35827 0.0
C364 C 0.63758 0.6393 0.39667 0.0
C365 C 0.6544 0.63487 0.43854 0.0
C366 C 0.67781 0.60355 0.44317 0.0
C367 C 0.68668 0.57887 0.40261 0.0
C368 C 0.6693 0.5832 0.36043 0.0
C369 C 0.54682 0.72008 0.24425 0.0
C370 C 0.58331 0.76205 0.36079 0.0
C371 C 0.64167 0.84367 0.19389 0.0
C372 C 0.63937 0.85529 0.14378 0.0
C373 C 0.65754 0.89136 0.12519 0.0
C374 C 0.65918 0.90033 0.07568 0.0
C375 C 0.6431 0.87298 1.04446 0.0
C376 C 0.62371 0.83752 0.06366 0.0
C377 C 0.62191 0.82874 0.11298 0.0
C378 C 0.67697 0.74883 0.30442 0.0
C379 C 0.62057 0.69793 0.15895 0.0
O380 O 0.6471 0.63742 0.27946 0.0
O381 O 0.58853 0.62961 0.32383 0.0
O382 O 0.58302 0.7272 0.23643 0.0
O383 O 0.53904 0.68812 0.27096 0.0
O384 O 0.58816 0.78612 0.32194 0.0
O385 O 0.59153 0.72451 0.35573 0.0
O386 O 0.60779 0.83403 0.22165 0.0
O387 O 0.66903 0.81969 0.19789 0.0
O388 O 0.66275 0.72901 0.27145 0.0
O389 O 0.66866 0.78501 0.30289 0.0
O390 O 0.61506 0.67277 0.19655 0.0
O391 O 0.626 0.73679 0.16774 0.0
H392 H 0.61894 0.66315 0.39505 0.0
H393 H 0.64646 0.6546 0.46857 0.0
H394 H 0.70554 0.55522 0.40425 0.0
H395 H 0.67543 0.56328 0.33009 0.0
H396 H 0.67131 0.91205 0.14861 0.0
H397 H 0.67407 0.92792 0.06146 0.0
H398 H 0.61047 0.81635 1.04032 0.0
H399 H 0.60778 0.80079 0.12683 0.0
Pr400 Pr 0.66379 0.29069 0.90697 0.0
Pr401 Pr 0.66538 0.21416 0.85444 0.0
C402 C 0.65741 0.35147 0.96974 0.0
C403 C 0.64159 0.35937 1.0215 0.0
C404 C 0.66671 0.36185 0.05736 0.0
C405 C 0.65184 0.36875 0.10633 0.0
C406 C 0.61156 0.37343 0.12049 0.0
C407 C 0.58674 0.37225 0.08441 0.0
C408 C 0.60153 0.36524 1.03554 0.0
C409 C 0.73172 0.28549 0.83629 0.0
C410 C 0.66389 0.20916 0.97372 0.0
C411 C 0.67557 0.15152 0.79645 0.0
C412 C 0.66006 0.14327 0.74983 0.0
C413 C 0.63325 0.11051 0.74606 0.0
C414 C 0.61375 0.10577 0.70515 0.0
C415 C 0.62088 0.13352 0.66694 0.0
C416 C 0.64862 0.16562 0.67005 0.0
C417 C 0.66784 0.17056 0.71104 0.0
C418 C 0.58904 0.23623 0.87951 0.0
C419 C 0.64518 0.29263 0.79751 0.0
O420 O 0.63199 0.34238 0.93971 0.0
O421 O 0.68844 0.33125 0.96185 0.0
O422 O 0.71678 0.25852 0.86652 0.0
O423 O 0.7128 0.31663 0.84435 0.0
O424 O 0.66844 0.18872 0.93277 0.0
O425 O 0.66185 0.24746 0.97261 0.0
O426 O 0.70269 0.18079 0.79626 0.0
O427 O 0.64906 0.15077 0.83566 0.0
O428 O 0.61467 0.23958 0.90811 0.0
O429 O 0.60291 0.22207 0.83756 0.0
O430 O 0.63516 0.30851 0.84059 0.0
O431 O 0.66279 0.25965 0.79253 0.0
H432 H 0.69786 0.35812 0.04764 0.0
H433 H 0.6717 0.36963 0.13328 0.0
H434 H 0.55576 0.37678 0.09399 0.0
H435 H 0.58146 0.36432 1.00885 0.0
H436 H 0.6264 0.08924 0.77552 0.0
H437 H 0.59277 0.08054 0.70359 0.0
H438 H 0.65446 0.18776 0.64155 0.0
H439 H 0.68779 0.19654 0.71294 0.0
Pr440 Pr 0.84871 0.6851 0.47235 0.0
Pr441 Pr 0.84601 0.76529 0.43015 0.0
C442 C 0.85491 0.62027 0.52483 0.0
C443 C 0.8697 0.60911 0.56944 0.0
C444 C 0.85394 0.57444 0.59429 0.0
C445 C 0.86792 0.56336 0.63671 0.0
C446 C 0.89786 0.58691 0.6548 0.0
C447 C 0.91347 0.62169 0.62976 0.0
C448 C 0.89945 0.63276 0.58753 0.0
C449 C 0.77755 0.69771 0.43926 0.0
C450 C 0.84125 0.76255 0.5461 0.0
C451 C 0.83442 0.82352 0.37031 0.0
C452 C 0.85155 0.83061 0.31879 0.0
C453 C 0.8873 0.81509 0.3002 0.0
C454 C 0.90362 0.82069 0.25127 0.0
C455 C 0.88438 0.84163 0.21979 0.0
C456 C 0.848 0.85621 0.23792 0.0
C457 C 0.83172 0.8508 0.28724 0.0
C458 C 0.92122 0.75302 0.45074 0.0
C459 C 0.86669 0.68885 0.35558 0.0
O460 O 0.88134 0.63306 0.48823 0.0
O461 O 0.82368 0.64016 0.53091 0.0
O462 O 0.79626 0.72159 0.46435 0.0
O463 O 0.79484 0.66539 0.43258 0.0
O464 O 0.82627 0.78072 0.51208 0.0
O465 O 0.85725 0.72904 0.53625 0.0
O466 O 0.81016 0.79207 0.37837 0.0
O467 O 0.85911 0.8277 0.40194 0.0
O468 O 0.89899 0.72744 0.43234 0.0
O469 O 0.905 0.78598 0.45746 0.0
O470 O 0.87229 0.66782 0.3931 0.0
O471 O 0.85424 0.72433 0.36134 0.0
H472 H 0.83095 0.55584 0.58071 0.0
H473 H 0.85576 0.53617 0.6549 0.0
H474 H 0.93637 0.64054 0.64314 0.0
H475 H 0.91184 0.65975 0.56899 0.0
H476 H 0.90269 0.79861 0.32362 0.0
H477 H 0.93143 0.80874 0.23797 0.0
H478 H 0.83267 0.87244 0.21422 0.0
H479 H 0.80377 0.86238 0.30073 0.0
Pr480 Pr 0.54174 0.58535 0.72219 0.0
Pr481 Pr 0.51569 0.62145 0.61439 0.0
C482 C 0.56689 0.59094 0.81259 0.0
C483 C 0.57139 0.60673 0.86412 0.0
C484 C 0.59077 0.58526 0.89543 0.0
C485 C 0.59891 0.59999 0.94148 0.0
C486 C 0.58763 0.63703 0.95978 0.0
C487 C 0.56835 0.65876 0.92808 0.0
C488 C 0.56058 0.64408 0.88147 0.0
C489 C 0.51574 0.53271 0.65179 0.0
C490 C 0.45056 0.61285 0.71868 0.0
C491 C 0.4855 0.64163 0.53222 0.0
C492 C 0.47861 0.65638 0.48214 0.0
C493 C 0.45458 0.68761 0.47855 0.0
C494 C 0.4455 0.70015 0.43295 0.0
C495 C 0.45959 0.68186 0.38834 0.0
C496 C 0.48423 0.65096 0.39192 0.0
C497 C 0.49335 0.63843 0.43763 0.0
C498 C 0.56279 0.66598 0.67182 0.0
C499 C 0.60331 0.5872 0.61746 0.0
O500 O 0.58296 0.61154 0.77389 0.0
O501 O 0.53736 0.56619 0.80356 0.0
O502 O 0.50452 0.5662 0.66227 0.0
O503 O 0.53971 0.52284 0.6818 0.0
O504 O 0.45675 0.62039 0.67091 0.0
O505 O 0.47749 0.60205 0.74437 0.0
O506 O 0.50096 0.60815 0.53732 0.0
O507 O 0.4863 0.66474 0.57036 0.0
O508 O 0.53424 0.64214 0.68594 0.0
O509 O 0.56533 0.67207 0.62485 0.0
O510 O 0.60014 0.59036 0.6657 0.0
O511 O 0.57392 0.59045 0.59175 0.0
H512 H 0.60073 0.55697 0.88366 0.0
H513 H 0.61529 0.58227 0.96214 0.0
H514 H 0.55891 0.68732 0.93937 0.0
H515 H 0.54618 0.66226 0.85891 0.0
H516 H 0.44219 0.70229 0.51144 0.0
H517 H 0.4265 0.7239 0.43294 0.0
H518 H 0.49696 0.63641 0.35916 0.0
H519 H 0.51193 0.61437 0.43802 0.0
Pr520 Pr 0.96271 0.34746 0.16291 0.0
Pr521 Pr 0.04694 0.37095 0.17148 0.0
C522 C 0.89077 0.34883 0.13744 0.0
C523 C 0.87898 0.36723 0.09502 0.0
C524 C 0.90815 0.38036 0.05649 0.0
C525 C 0.89789 0.39774 1.0155 0.0
C526 C 0.85819 0.40252 1.01238 0.0
C527 C 0.82916 0.39146 0.05238 0.0
C528 C 0.83954 0.37373 0.09351 0.0
C529 C 0.00149 0.29021 0.20199 0.0
C530 C 0.03286 0.32491 0.06691 0.0
C531 C 0.11577 0.39687 0.2002 0.0
C532 C 0.13306 0.38892 0.24397 0.0
C533 C 0.16159 0.41587 0.25933 0.0
C534 C 0.17312 0.41165 0.30524 0.0
C535 C 0.15603 0.38052 0.33624 0.0
C536 C 0.12901 0.35249 0.3195 0.0
C537 C 0.1175 0.35675 0.27382 0.0
C538 C 0.01625 0.42055 0.11052 0.0
C539 C 0.97883 0.35511 0.27845 0.0
O540 O 0.90431 0.37384 0.16813 0.0
O541 O 0.91224 0.31889 0.12802 0.0
O542 O 0.01482 0.31218 0.16679 0.0
O543 O 0.9638 0.29263 0.21489 0.0
O544 O 0.05913 0.33258 0.09759 0.0
O545 O -0.00471 0.33226 0.08138 0.0
O546 O 0.11265 0.36761 0.16996 0.0
O547 O 0.08409 0.41613 0.20828 0.0
O548 O -0.00241 0.40848 0.1518 0.0
O549 O 0.05125 0.40882 0.10235 0.0
O550 O 0.95135 0.35712 0.24982 0.0
O551 O 0.01659 0.35697 0.25716 0.0
H552 H 0.93887 0.37636 0.05768 0.0
H553 H 0.92092 0.40561 0.98521 0.0
H554 H 0.79842 0.39542 0.0512 0.0
H555 H 0.81685 0.36466 0.12368 0.0
H556 H 0.17367 0.44099 0.23674 0.0
H557 H 0.19432 0.43338 0.31722 0.0
H558 H 0.11511 0.32845 0.34286 0.0
H559 H 0.09502 0.33594 0.26284 0.0
Pr560 Pr 0.54478 0.38816 0.44299 0.0
Pr561 Pr 0.46543 0.3934 0.40807 0.0
C562 C 0.61575 0.39398 0.47292 0.0
C563 C 0.62403 0.39074 0.52293 0.0
C564 C 0.66122 0.38175 0.53219 0.0
C565 C 0.66631 0.37138 0.57951 0.0
C566 C 0.63418 0.37 0.61738 0.0
C567 C 0.59772 0.38115 0.60855 0.0
C568 C 0.59267 0.3913 0.56159 0.0
C569 C 0.50569 0.31598 0.43097 0.0
C570 C 0.46375 0.37164 0.5226 0.0
C571 C 0.40201 0.38628 0.36123 0.0
C572 C 0.39273 0.37137 0.31353 0.0
C573 C 0.35571 0.3518 0.31057 0.0
C574 C 0.34687 0.33642 0.26601 0.0
C575 C 0.37486 0.34043 0.22339 0.0
C576 C 0.41194 0.36011 0.22647 0.0
C577 C 0.42077 0.37545 0.27103 0.0
C578 C 0.48534 0.45689 0.46822 0.0
C579 C 0.54545 0.39655 0.32401 0.0
O580 O 0.59781 0.42465 0.46353 0.0
O581 O 0.60037 0.36154 0.45591 0.0
O582 O 0.50796 0.34395 0.4007 0.0
O583 O 0.52325 0.32499 0.46832 0.0
O584 O 0.44562 0.3635 0.48441 0.0
O585 O 0.50081 0.38679 0.51686 0.0
O586 O 0.40912 0.35991 0.39223 0.0
O587 O 0.42549 0.41858 0.36057 0.0
O588 O 0.50934 0.44115 0.43582 0.0
O589 O 0.44963 0.44291 0.46532 0.0
O590 O 0.56724 0.39379 0.35886 0.0
O591 O 0.50711 0.39849 0.33355 0.0
H592 H 0.68556 0.38072 0.5026 0.0
H593 H 0.6945 0.36223 0.58595 0.0
H594 H 0.57258 0.37965 0.63736 0.0
H595 H 0.5636 0.39725 0.55508 0.0
H596 H 0.33367 0.3482 0.34287 0.0
H597 H 0.31806 0.32143 0.26484 0.0
H598 H 0.43445 0.36297 0.19461 0.0
H599 H 0.44965 0.39018 0.2723 0.0
Pr600 Pr 0.96195 0.59062 0.94418 0.0
Pr601 Pr 0.04355 0.59186 0.88627 0.0
C602 C 0.89929 0.57958 1.01445 0.0
C603 C 0.89047 0.59557 0.06387 0.0
C604 C 0.89803 0.63584 0.07248 0.0
C605 C 0.89329 0.65024 0.12003 0.0
C606 C 0.88159 0.62457 0.15977 0.0
C607 C 0.87336 0.58439 0.15114 0.0
C608 C 0.87779 0.56999 0.10344 0.0
C609 C 0.98208 0.65943 0.88936 0.0
C610 C 0.04095 0.6292 0.99412 0.0
C611 C 0.10592 0.59961 0.8137 0.0
C612 C 0.11502 0.61737 0.7638 0.0
C613 C 0.13246 0.59564 0.72412 0.0
C614 C 0.14137 0.61225 0.677 0.0
C615 C 0.13295 0.65102 0.66839 0.0
C616 C 0.1161 0.67287 0.70845 0.0
C617 C 0.107 0.65625 0.75532 0.0
C618 C 0.02327 0.52843 0.95214 0.0
C619 C 0.96494 0.56932 0.8319 0.0
O620 O 0.9277 0.55606 1.00826 0.0
O621 O 0.90072 0.60416 0.97816 0.0
O622 O 0.00516 0.64236 0.91212 0.0
O623 O 0.94706 0.6412 0.89558 0.0
O624 O 0.06334 0.62707 0.95135 0.0
O625 O 0.00309 0.61659 1.00022 0.0
O626 O 0.10068 0.62377 0.85063 0.0
O627 O 0.08144 0.56803 0.81947 0.0
O628 O 0.00129 0.5408 0.92389 0.0
O629 O 0.05824 0.54654 0.94363 0.0
O630 O 0.945 0.55895 0.87475 0.0
O631 O 5e-05 0.58836 0.82873 0.0
H632 H 0.90855 0.65613 1.04263 0.0
H633 H 0.90001 0.68131 0.12585 0.0
H634 H 0.86366 0.56415 0.18125 0.0
H635 H 0.87216 0.53879 0.09746 0.0
H636 H 0.13914 0.56569 0.72954 0.0
H637 H 0.15428 0.59452 0.64715 0.0
H638 H 0.11014 0.70313 0.70369 0.0
H639 H 0.09375 0.674 0.78494 0.0
C640 C 0.16327 0.12713 0.05658 0.0
C641 C 0.14845 0.09466 0.08646 0.0
C642 C 0.17746 0.12168 1.00712 0.0
C643 C 0.17648 0.08368 0.98716 0.0
H644 H 0.1571 0.15652 0.06882 0.0
H645 H 0.18195 0.1472 0.98331 0.0
S646 S 0.15949 0.99039 0.05623 0.0
N647 N 0.14829 0.02438 0.09765 0.0
N648 N 0.17392 0.01392 1.00393 0.0
C649 C 0.17125 0.05159 1.01926 0.0
C650 C 0.15749 0.05724 0.06969 0.0
C651 C 0.13334 0.80474 0.21567 0.0
C652 C 0.13602 0.82846 0.25702 0.0
C653 C 0.13266 0.82124 0.16995 0.0
C654 C 0.13457 0.86212 0.16369 0.0
H655 H 0.13215 0.77305 0.21837 0.0
H656 H 0.13033 0.80175 0.13923 0.0
S657 S 0.14197 0.93748 0.25962 0.0
N658 N 0.1405 0.89522 0.28864 0.0
N659 N 0.1391 0.92618 0.20207 0.0
C660 C 0.13658 0.88633 0.20461 0.0
C661 C 0.1373 0.86951 0.25144 0.0
C662 C 0.33681 0.84899 0.37082 0.0
C663 C 0.3522 0.88768 0.35875 0.0
C664 C 0.33294 0.83511 0.41881 0.0
C665 C 0.34407 0.85953 0.45635 0.0
H666 H 0.33064 0.82838 0.34244 0.0
H667 H 0.32339 0.80444 0.42608 0.0
S668 S 0.37982 0.96494 0.44467 0.0
N669 N 0.37379 0.95152 0.38866 0.0
N670 N 0.36686 0.92547 0.47924 0.0
C671 C 0.3562 0.89922 0.44548 0.0
C672 C 0.36026 0.91328 0.3965 0.0
C673 C 0.36493 0.1774 0.76608 0.0
C674 C 0.35187 0.15712 0.81017 0.0
C675 C 0.36802 0.15758 0.72138 0.0
C676 C 0.35714 0.11709 0.71926 0.0
H677 H 0.37379 0.20857 0.76624 0.0
H678 H 0.37935 0.17394 0.68819 0.0
S679 S 0.31772 0.05156 0.82409 0.0
N680 N 0.32599 0.09497 0.84907 0.0
N681 N 0.33088 0.05784 0.76458 0.0
C682 C 0.34258 0.09681 0.7629 0.0
C683 C 0.34023 0.11682 0.80855 0.0
C684 C 0.88472 0.83723 0.12895 0.0
C685 C 0.90353 0.84958 0.16878 0.0
C686 C 0.90361 0.84345 0.08063 0.0
C687 C 0.94198 0.86229 0.07041 0.0
H688 H 0.85544 0.82224 0.13521 0.0
H689 H 0.88797 0.83332 0.05112 0.0
S690 S 0.00167 0.90362 0.16296 0.0
N691 N 0.96098 0.88366 0.19543 0.0
N692 N -0.00319 0.89526 0.10526 0.0
C693 C 0.96066 0.8753 0.11034 0.0
C694 C 0.94134 0.86901 0.1593 0.0
C695 C 0.93628 0.24908 0.78207 0.0
C696 C 0.93243 0.22453 0.7412 0.0
C697 C 0.94575 0.23479 0.82695 0.0
C698 C 0.95217 0.19483 0.83439 0.0
H699 H 0.93189 0.27998 0.77958 0.0
H700 H 0.9475 0.25555 0.85643 0.0
S701 S 0.94772 0.11786 0.73846 0.0
N702 N 0.9363 0.15758 0.71201 0.0
N703 N 0.95567 0.1315 0.79371 0.0
C704 C 0.9488 0.17007 0.79341 0.0
C705 C 0.93865 0.18458 0.74796 0.0
C706 C 0.55729 0.12184 0.63275 0.0
C707 C 0.59855 0.12954 0.62472 0.0
C708 C 0.53572 0.11654 0.5936 0.0
C709 C 0.55451 0.11871 0.54476 0.0
H710 H 0.54152 0.11959 0.66966 0.0
H711 H 0.50415 0.1099 0.60181 0.0
S712 S 0.66215 0.13842 0.50406 0.0
N713 N 0.65738 0.13934 0.56428 0.0
N714 N 0.61707 0.12975 0.49077 0.0
C715 C 0.5957 0.12745 0.53624 0.0
C716 C 0.61764 0.13272 0.57615 0.0
C717 C 0.5316 0.76726 0.49606 0.0
C718 C 0.54457 0.80463 0.51299 0.0
C719 C 0.54438 0.75383 0.44773 0.0
C720 C 0.56948 0.77755 0.41237 0.0
H721 H 0.51178 0.74776 0.5208 0.0
H722 H 0.53405 0.72457 0.43771 0.0
S723 S 0.61188 0.87817 0.43677 0.0
N724 N 0.58499 0.86486 0.48948 0.0
N725 N 0.60686 0.84091 0.39913 0.0
C726 C 0.58223 0.8152 0.42866 0.0
C727 C 0.5704 0.82831 0.47845 0.0
C728 C 0.68705 0.62286 0.52787 0.0
C729 C 0.68388 0.59258 0.4933 0.0
C730 C 0.66521 0.61902 0.57482 0.0
C731 C 0.64218 0.58403 0.58869 0.0
H732 H 0.69994 0.65182 0.51595 0.0
H733 H 0.6617 0.64509 0.59713 0.0
S734 S 0.64381 0.49015 0.52224 0.0
N735 N 0.66944 0.52222 0.48327 0.0
N736 N 0.63069 0.51477 0.57276 0.0
C737 C 0.64807 0.55092 0.55949 0.0
C738 C 0.66916 0.55503 0.5113 0.0
C739 C 0.6541 0.35242 0.74559 0.0
C740 C 0.63943 0.31302 0.75339 0.0
C741 C 0.65286 0.371 0.70097 0.0
C742 C 0.63637 0.35066 0.66373 0.0
H743 H 0.66771 0.36846 0.77347 0.0
H744 H 0.66479 0.40124 0.6955 0.0
S745 S 0.59141 0.24828 0.66796 0.0
N746 N 0.60673 0.25488 0.72145 0.0
N747 N 0.60339 0.29018 0.638 0.0
C748 C 0.62067 0.31169 0.67171 0.0
C749 C 0.62249 0.29269 0.71659 0.0
C750 C 0.87044 0.44313 0.93608 0.0
C751 C 0.84766 0.41314 0.96451 0.0
C752 C 0.87052 0.44499 0.88552 0.0
C753 C 0.84758 0.41704 0.86197 0.0
H754 H 0.89092 0.46309 0.95229 0.0
H755 H 0.89154 0.46595 0.86444 0.0
S756 S 0.77712 0.33796 0.92147 0.0
N757 N 0.79784 0.35836 0.96645 0.0
N758 N 0.79582 0.36368 0.87211 0.0
C759 C 0.82067 0.39055 0.89106 0.0
C760 C 0.82125 0.38809 0.94225 0.0
C761 C 0.85393 0.68865 0.26948 0.0
C762 C 0.87201 0.67205 0.30594 0.0
C763 C 0.85701 0.67291 0.22247 0.0
C764 C 0.87831 0.64001 0.21007 0.0
H765 H 0.83669 0.71372 0.27736 0.0
H766 H 0.84227 0.68638 0.1957 0.0
S767 S 0.93377 0.58739 0.29061 0.0
N768 N 0.91355 0.62189 0.32567 0.0
N769 N 0.91961 0.59254 0.23675 0.0
C770 C 0.89706 0.6234 0.24576 0.0
C771 C 0.89387 0.63938 0.29382 0.0
C772 C 0.46161 0.37264 0.6136 0.0
C773 C 0.44194 0.3652 0.57289 0.0
C774 C 0.4417 0.36786 0.6615 0.0
C775 C 0.40133 0.35538 0.67071 0.0
H776 H 0.49272 0.38223 0.60864 0.0
H777 H 0.45822 0.37339 0.69158 0.0
S778 S 0.33532 0.33423 0.57778 0.0
N779 N 0.379 0.34601 0.54558 0.0
N780 N 0.34186 0.33735 0.63559 0.0
C781 C 0.38112 0.34829 0.6306 0.0
C782 C 0.40132 0.35314 0.58176 0.0
C783 C 0.44597 0.73529 0.32858 0.0
C784 C 0.44848 0.69509 0.33912 0.0
C785 C 0.43536 0.74829 0.28383 0.0
C786 C 0.42621 0.72205 0.24638 0.0
H787 H 0.45282 0.75732 0.35505 0.0
H788 H 0.43457 0.77957 0.27857 0.0
S789 S 0.42603 0.61339 0.255 0.0
N790 N 0.43921 0.629 0.30726 0.0
N791 N 0.41958 0.65312 0.22456 0.0
C792 C 0.4282 0.68175 0.2565 0.0
C793 C 0.43923 0.66848 0.30204 0.0
C794 C 0.12007 0.65279 0.07451 0.0
C795 C 0.09822 0.65624 0.1212 0.0
C796 C 0.10124 0.64587 1.03334 0.0
C797 C 0.05977 0.64234 1.03718 0.0
H798 H 0.15196 0.65399 0.07003 0.0
H799 H 0.11949 0.64183 0.99853 0.0
S800 S -0.01047 0.65536 0.15078 0.0
N801 N 0.03334 0.65975 0.16862 0.0
N802 N -0.0023 0.64741 0.09132 0.0
C803 C 0.03767 0.6481 0.08346 0.0
C804 C 0.05694 0.65479 0.12543 0.0
C805 C 0.04266 0.30595 0.92557 0.0
C806 C 0.06828 0.27538 0.91632 0.0
C807 C 0.03079 0.32079 0.97359 0.0
C808 C 0.0453 0.30764 1.01552 0.0
H809 H 0.03075 0.31805 0.8954 0.0
H810 H 0.01016 0.34324 0.97761 0.0
S811 S 0.11158 0.22664 1.01339 0.0
N812 N 0.10565 0.2309 0.95556 0.0
N813 N 0.08599 0.26038 1.04357 0.0
C814 C 0.07101 0.27714 1.00681 0.0
C815 C 0.08177 0.26083 0.95824 0.0
C816 C 0.00924 0.23257 0.25247 0.0
C817 C 0.02631 0.26364 0.22176 0.0
C818 C 0.0284 0.19799 0.25161 0.0
C819 C 0.06124 0.19396 0.21526 0.0
H820 H 0.97946 0.23295 0.27168 0.0
H821 H 0.0119 0.17223 0.2691 0.0
S822 S 0.12827 0.27287 0.15387 0.0
N823 N 0.08754 0.29342 0.17581 0.0
N824 N 0.12088 0.2268 0.17255 0.0
C825 C 0.08452 0.22755 0.19943 0.0
C826 C 0.06628 0.26308 0.20089 0.0
C827 C 0.98091 0.71464 0.43894 0.0
C828 C 0.96449 0.75088 0.44744 0.0
C829 C 0.02194 0.7124 0.43088 0.0
C830 C 0.0481 0.74642 0.43008 0.0
H831 H 0.96196 0.68787 0.4375 0.0
H832 H 0.03315 0.68392 0.42334 0.0
S833 S 0.0205 0.848 0.45473 0.0
N834 N 0.97795 0.8213 0.45851 0.0
N835 N 0.05484 0.8169 0.44189 0.0
C836 C 0.03217 0.78258 0.44029 0.0
C837 C -0.00957 0.78486 0.4494 0.0
C838 C 0.55288 0.69712 0.74989 0.0
C839 C 0.57968 0.69245 0.70673 0.0
C840 C 0.53043 0.72962 0.75266 0.0
C841 C 0.54072 0.75936 0.7175 0.0
H842 H 0.54062 0.67174 0.77181 0.0
H843 H 0.50282 0.72882 0.77737 0.0
S844 S 0.63422 0.77179 0.63054 0.0
N845 N 0.63251 0.72667 0.65211 0.0
N846 N 0.59455 0.79082 0.65919 0.0
C847 C 0.57856 0.76066 0.68915 0.0
C848 C 0.59935 0.7265 0.68562 0.0
C849 C 0.52491 0.24568 0.85474 0.0
C850 C 0.54613 0.23866 0.89283 0.0
C851 C 0.48388 0.24288 0.86206 0.0
C852 C 0.46184 0.23313 0.90801 0.0
H853 H 0.5402 0.25272 0.81833 0.0
H854 H 0.46942 0.24835 0.83088 0.0
S855 S 0.50328 0.21184 1.02036 0.0
N856 N 0.54249 0.22143 0.97856 0.0
N857 N 0.46449 0.21663 0.99275 0.0
C858 C 0.48257 0.22654 0.94699 0.0
C859 C 0.52492 0.22937 0.93937 0.0
C860 C 0.03537 0.76022 0.86916 0.0
C861 C 0.00436 0.78506 0.87644 0.0
C862 C 0.02777 0.71931 0.87028 0.0
C863 C -0.01105 0.70182 0.87773 0.0
H864 H 0.06574 0.77231 0.86576 0.0
H865 H 0.05249 0.70127 0.86762 0.0
S866 S 0.89761 0.75423 0.88992 0.0
N867 N 0.93367 0.78956 0.88553 0.0
N868 N 0.91916 0.71262 0.88617 0.0
C869 C 0.95774 0.72637 0.8806 0.0
C870 C 0.96552 0.76806 0.88039 0.0
C871 C 0.52997 0.77006 0.19034 0.0
C872 C 0.52638 0.73036 0.20421 0.0
C873 C 0.5218 0.78157 0.14488 0.0
C874 C 0.50868 0.75374 0.11192 0.0
H875 H 0.53959 0.79246 0.21486 0.0
H876 H 0.52219 0.81274 0.13768 0.0
S877 S 0.50017 0.64561 0.1278 0.0
N878 N 0.51427 0.66276 0.17897 0.0
N879 N 0.49695 0.68446 0.09394 0.0
C880 C 0.5081 0.7137 0.1238 0.0
C881 C 0.51656 0.702 0.17018 0.0
C882 C 0.45782 0.21723 0.46705 0.0
C883 C 0.47555 0.19271 0.43048 0.0
C884 C 0.46488 0.25789 0.46409 0.0
C885 C 0.48952 0.27573 0.42424 0.0
H886 H 0.43971 0.20499 0.49965 0.0
H887 H 0.45281 0.27542 0.49472 0.0
S888 S 0.53968 0.22571 0.3161 0.0
N889 N 0.51612 0.18954 0.35088 0.0
N890 N 0.52934 0.26684 0.34537 0.0
C891 C 0.50514 0.25215 0.38549 0.0
C892 C 0.49812 0.21031 0.38859 0.0
C893 C 0.03228 0.27066 0.68741 0.0
C894 C 0.03082 0.22965 0.6917 0.0
C895 C 0.02565 0.28855 0.6444 0.0
C896 C 0.01547 0.2659 0.60477 0.0
H897 H 0.03677 0.28903 0.7184 0.0
H898 H 0.02353 0.32003 0.64477 0.0
S899 S 0.00723 0.15742 0.59729 0.0
N900 N 0.01954 0.16683 0.65186 0.0
N901 N 0.00641 0.2006 0.57139 0.0
C902 C 0.01681 0.22498 0.60723 0.0
C903 C 0.02335 0.20674 0.65111 0.0
C904 C 0.04596 0.00742 0.05624 0.0
C905 C 0.02004 0.0077 0.10069 0.0
C906 C 0.03307 -0.00775 1.01312 0.0
C907 C -0.00624 0.97702 1.01293 0.0
H908 H 0.07586 0.02042 0.05431 0.0
H909 H 0.05374 -0.00665 0.97952 0.0
S910 S 0.91455 0.97145 0.12071 0.0
N911 N 0.95363 0.99189 0.14199 0.0
N912 N 0.92927 0.9632 0.06227 0.0
C913 C 0.9678 0.97714 0.05759 0.0
C914 C 0.98096 -0.00749 0.10104 0.0
C915 C 0.28422 0.76312 0.29045 0.0
C916 C 0.25889 0.79346 0.29354 0.0
C917 C 0.30859 0.75528 0.24648 0.0
C918 C 0.30867 0.77704 0.20308 0.0
H919 H 0.28519 0.74516 0.32224 0.0
H920 H 0.32722 0.7312 0.24641 0.0
S921 S 0.24628 0.85858 0.19066 0.0
N922 N 0.23505 0.84545 0.24871 0.0
N923 N 0.27992 0.8295 0.16607 0.0
C924 C 0.28358 0.80754 0.20555 0.0
C925 C 0.25896 0.81595 0.25065 0.0
C926 C 0.47619 0.96003 0.50076 0.0
C927 C 0.5059 0.99125 0.498 0.0
C928 C 0.46755 0.93511 0.54218 0.0
C929 C 0.48713 0.9416 0.58309 0.0
H930 H 0.46151 0.95318 0.46942 0.0
H931 H 0.44811 0.90873 0.54032 0.0
S932 S 0.56471 0.02099 0.59633 0.0
N933 N 0.55397 0.02743 0.54096 0.0
N934 N 0.53459 0.98372 0.61986 0.0
C935 C 0.5138 0.97511 0.58247 0.0
C936 C 0.52435 -0.00117 0.53956 0.0
C937 C 0.24071 0.18503 0.86421 0.0
C938 C 0.24405 0.20668 0.90726 0.0
C939 C 0.21705 0.19648 0.83036 0.0
C940 C 0.19578 0.22983 0.83846 0.0
H941 H 0.25744 0.15971 0.85578 0.0
H942 H 0.2162 0.1797 0.7971 0.0
S943 S 0.19398 0.29606 0.94615 0.0
N944 N 0.22375 0.26256 0.95636 0.0
N945 N 0.17926 0.28417 0.89347 0.0
C946 C 0.19865 0.25148 0.88171 0.0
C947 C 0.22274 0.23985 0.91593 0.0
C948 C 0.76534 0.30742 0.75157 0.0
C949 C 0.7614 0.28075 0.79137 0.0
C950 C 0.79108 0.30189 0.70736 0.0
C951 C 0.81398 0.26942 0.7012 0.0
H952 H 0.7475 0.33225 0.754 0.0
H953 H 0.792 0.32235 0.67747 0.0
S954 S 0.81881 0.19431 0.79697 0.0
N955 N 0.78561 0.22315 0.82297 0.0
N956 N 0.83362 0.21249 0.74167 0.0
C957 C 0.8116 0.24381 0.74196 0.0
C958 C 0.78547 0.24946 0.78644 0.0
C959 C 0.74177 0.68639 0.36707 0.0
C960 C 0.74829 0.70888 0.40852 0.0
C961 C 0.71777 0.69864 0.33406 0.0
C962 C 0.69934 0.73389 0.34142 0.0
H963 H 0.75641 0.65956 0.359 0.0
H964 H 0.71469 0.68115 0.30201 0.0
S965 S 0.70246 0.80066 0.44775 0.0
N966 N 0.73124 0.76603 0.45735 0.0
N967 N 0.68616 0.78914 0.39589 0.0
C968 C 0.70403 0.75557 0.38403 0.0
C969 C 0.72842 0.74308 0.4175 0.0
C970 C 0.53402 0.48733 0.58055 0.0
C971 C 0.50756 0.51223 0.60595 0.0
C972 C 0.5282 0.4718 0.53447 0.0
C973 C 0.49493 0.4788 0.51279 0.0
H974 H 0.55953 0.48007 0.59611 0.0
H975 H 0.54908 0.45293 0.51671 0.0
S976 S 0.41548 0.54062 0.56558 0.0
N977 N 0.44627 0.54297 0.60606 0.0
N978 N 0.43462 0.51205 0.52139 0.0
C979 C 0.46787 0.5031 0.53844 0.0
C980 C 0.47428 0.51996 0.58448 0.0
C981 C 0.01251 0.45983 0.98522 0.0
C982 C 0.01049 0.50022 0.99348 0.0
C983 C 0.00933 0.43325 1.02445 0.0
C984 C 0.00312 0.44565 0.07356 0.0
H985 H 0.01943 0.449 0.94829 0.0
H986 H 0.01483 0.40305 1.0163 0.0
S987 S -0.00824 0.54766 0.11527 0.0
N988 N -0.00055 0.55097 0.05504 0.0
N989 N -0.00794 0.5006 0.12813 0.0
C990 C -0.00203 0.48541 0.08236 0.0
C991 C 0.00214 0.51278 1.04246 0.0
C992 C 0.10591 0.18841 0.52071 0.0
C993 C 0.09763 0.14794 0.51035 0.0
C994 C 0.11317 0.20244 0.56782 0.0
C995 C 0.11275 0.17718 0.60845 0.0
H996 H 0.10693 0.20991 0.49197 0.0
H997 H 0.11853 0.23378 0.57249 0.0
S998 S 0.09041 0.06872 0.6041 0.0
N999 N 0.08789 0.0831 0.54798 0.0
N1000 N 0.10221 0.10886 0.63402 0.0
C1001 C 0.10481 0.13667 0.59865 0.0
C1002 C 0.09718 0.12237 0.55081 0.0
C1003 C 0.05156 0.8925 0.68585 0.0
C1004 C 0.09074 0.90723 0.67042 0.0
C1005 C 0.03359 0.89652 0.7343 0.0
C1006 C 0.05402 0.91538 0.76968 0.0
H1007 H 0.03495 0.87653 0.66062 0.0
H1008 H 0.00374 0.88348 0.74427 0.0
S1009 S 0.15576 0.96355 0.74641 0.0
N1010 N 0.14833 0.9447 0.69309 0.0
N1011 N 0.11478 0.95197 0.78445 0.0
C1012 C 0.09275 0.93176 0.75423 0.0
C1013 C 0.11105 0.92769 0.70465 0.0
C1014 C 0.40893 0.80024 0.90297 0.0
C1015 C 0.43179 0.81234 0.93985 0.0
C1016 C 0.42028 0.811 0.8525 0.0
C1017 C 0.4562 0.83334 0.8343 0.0
H1018 H 0.38141 0.78255 0.91323 0.0
H1019 H 0.40052 0.80106 0.8272 0.0
S1020 S 0.5287 0.87122 0.91426 0.0
N1021 N 0.49307 0.84836 0.95306 0.0
N1022 N 0.515 0.86626 0.85965 0.0
C1023 C 0.47971 0.84508 0.87074 0.0
C1024 C 0.46749 0.83524 0.92251 0.0
C1025 C 0.4504 0.06092 0.25319 0.0
C1026 C 0.42659 0.06145 0.2993 0.0
C1027 C 0.43527 0.06762 0.21016 0.0
C1028 C 0.39559 0.07473 0.21119 0.0
H1029 H 0.48157 0.05696 0.2502 0.0
H1030 H 0.45512 0.06834 0.17583 0.0
S1031 S 0.31947 0.07478 0.3212 0.0
N1032 N 0.36026 0.06632 0.34272 0.0
N1033 N 0.33176 0.0787 0.26132 0.0
C1034 C 0.37067 0.07267 0.25643 0.0
C1035 C 0.38617 0.066 0.3006 0.0
C1036 C 0.8326 0.81959 0.6044 0.0
C1037 C 0.84419 0.78132 0.59455 0.0
C1038 C 0.83793 0.83866 0.64854 0.0
C1039 C 0.85466 0.82005 0.68473 0.0
H1040 H 0.8199 0.83528 0.57755 0.0
H1041 H 0.82887 0.86817 0.65443 0.0
S1042 S 0.8908 0.72056 0.6775 0.0
N1043 N 0.87357 0.72579 0.62563 0.0
N1044 N 0.88358 0.76183 0.70762 0.0
C1045 C 0.86613 0.78187 0.67563 0.0
C1046 C 0.86088 0.76247 0.63087 0.0
C1047 C 0.87998 0.08677 0.32396 0.0
C1048 C 0.87469 0.12639 0.33498 0.0
C1049 C 0.89897 0.07616 0.2781 0.0
C1050 C 0.9132 0.10492 0.24241 0.0
H1051 H 0.87434 0.06468 0.35254 0.0
H1052 H 0.90762 0.04641 0.27314 0.0
S1053 S 0.89423 0.21004 0.24811 0.0
N1054 N 0.87516 0.19242 0.30268 0.0
N1055 N 0.91171 0.17242 0.21647 0.0
C1056 C 0.90143 0.14309 0.24992 0.0
C1057 C 0.88207 0.15395 0.2966 0.0
C1058 C 0.64626 0.21223 0.06516 0.0
C1059 C 0.65632 0.18941 1.02296 0.0
C1060 C 0.63494 0.19509 0.1116 0.0
C1061 C 0.63348 0.15426 0.11857 0.0
H1062 H 0.64625 0.24384 0.06248 0.0
H1063 H 0.62729 0.21413 0.14248 0.0
S1064 S 0.65731 0.08074 1.02131 0.0
N1065 N 0.6643 0.12323 0.99198 0.0
N1066 N 0.64345 0.0912 0.0794 0.0
C1067 C 0.6442 0.13096 0.07716 0.0
C1068 C 0.65545 0.14843 1.02949 0.0
C1069 C 0.63101 0.91893 0.92431 0.0
C1070 C 0.64547 0.89087 0.8902 0.0
C1071 C 0.63185 0.91393 0.97434 0.0
C1072 C 0.64703 0.88066 0.99157 0.0
H1073 H 0.61709 0.94379 0.91257 0.0
H1074 H 0.6189 0.93518 0.99982 0.0
S1075 S 0.69381 0.802 0.91657 0.0
N1076 N 0.67947 0.8312 0.87657 0.0
N1077 N 0.68069 0.82163 0.97068 0.0
C1078 C 0.66367 0.85369 0.95762 0.0
C1079 C 0.663 0.85885 0.90685 0.0
C1080 C 0.60595 0.69295 1.02006 0.0
C1081 C 0.5962 0.65253 1.0108 0.0
C1082 C 0.61455 0.70725 0.06661 0.0
C1083 C 0.61414 0.68224 0.10749 0.0
H1084 H 0.60737 0.71406 0.99079 0.0
H1085 H 0.62132 0.73851 0.07053 0.0
S1086 S 0.58697 0.57432 0.106 0.0
N1087 N 0.584 0.5884 0.04992 0.0
N1088 N 0.60101 0.61435 0.13463 0.0
C1089 C 0.60403 0.64188 0.09884 0.0
C1090 C 0.59497 0.62742 0.05176 0.0
C1091 C 0.5977 0.41204 0.25143 0.0
C1092 C 0.56281 0.39066 0.27261 0.0
C1093 C 0.61351 0.40632 0.20218 0.0
C1094 C 0.59516 0.37871 0.17285 0.0
H1095 H 0.6124 0.43372 0.27273 0.0
H1096 H 0.63993 0.424 0.18678 0.0
S1097 S 0.50679 0.31097 0.21407 0.0
N1098 N 0.51265 0.33828 0.26233 0.0
N1099 N 0.54263 0.32695 0.17061 0.0
C1100 C 0.56115 0.35612 0.19451 0.0
C1101 C 0.54494 0.36223 0.24419 0.0
C1102 C 0.9818 0.31386 0.35683 0.0
C1103 C 0.96635 0.34503 0.33393 0.0
C1104 C 0.96809 0.30177 0.4066 0.0
C1105 C 0.93888 0.32081 0.43811 0.0
H1106 H 0.00416 0.29767 0.33558 0.0
H1107 H 0.98106 0.27726 0.42075 0.0
S1108 S 0.88845 0.40456 0.39804 0.0
N1109 N 0.91881 0.39407 0.3484 0.0
N1110 N 0.89547 0.3735 0.44078 0.0
C1111 C 0.92378 0.35251 0.41595 0.0
C1112 C 0.93668 0.36387 0.36473 0.0
C1113 C 0.97062 0.57198 0.74135 0.0
C1114 C 0.94646 0.56572 0.78682 0.0
C1115 C 0.95449 0.57689 0.69859 0.0
C1116 C 0.91352 0.57562 0.69938 0.0
H1117 H 0.00243 0.57477 0.73891 0.0
H1118 H 0.97434 0.58302 0.66481 0.0
S1119 S 0.83706 0.5561 0.80777 0.0
N1120 N 0.87923 0.55522 0.82928 0.0
N1121 N 0.84888 0.56467 0.74854 0.0
C1122 C 0.88886 0.56678 0.74386 0.0
C1123 C 0.90534 0.56173 0.78767 0.0
C1124 C 0.35009 0.28351 0.17522 0.0
C1125 C 0.36586 0.32277 0.17637 0.0
C1126 C 0.34307 0.2655 0.13121 0.0
C1127 C 0.35099 0.28609 0.08645 0.0
H1128 H 0.34405 0.26618 0.20849 0.0
H1129 H 0.33162 0.23498 0.13233 0.0
S1130 S 0.39102 0.39018 0.06987 0.0
N1131 N 0.38803 0.38214 0.1291 0.0
N1132 N 0.37484 0.34844 1.04644 0.0
C1133 C 0.36593 0.3257 0.08725 0.0
C1134 C 0.37344 0.34393 0.13209 0.0
C1135 C 0.37137 0.59094 0.82106 0.0
C1136 C 0.36837 0.62864 0.8414 0.0
C1137 C 0.39324 0.58582 0.77495 0.0
C1138 C 0.4123 0.61823 0.74776 0.0
H1139 H 0.3605 0.56514 0.84302 0.0
H1140 H 0.39934 0.55628 0.76331 0.0
S1141 S 0.405 0.72292 0.77882 0.0
N1142 N 0.37984 0.69908 0.82657 0.0
N1143 N 0.42043 0.68898 0.73938 0.0
C1144 C 0.40429 0.65599 0.76411 0.0
C1145 C 0.38236 0.66136 0.8113 0.0
C1146 C 0.18615 0.68346 0.54098 0.0
C1147 C 0.15908 0.70663 0.52375 0.0
C1148 C 0.17744 0.66503 0.58735 0.0
C1149 C 0.14118 0.66874 0.61798 0.0
H1150 H 0.21462 0.68051 0.51918 0.0
H1151 H 0.19967 0.64855 0.59979 0.0
S1152 S 0.05779 0.72072 0.58587 0.0
N1153 N 0.09304 0.72886 0.53885 0.0
N1154 N 0.07642 0.69361 0.6244 0.0
C1155 C 0.11324 0.6902 0.59977 0.0
C1156 C 0.12224 0.70924 0.55316 0.0
C1157 C 0.17098 0.34333 0.40755 0.0
C1158 C 0.16271 0.37892 0.38774 0.0
C1159 C 0.17015 0.33895 0.45791 0.0
C1160 C 0.16081 0.36995 0.4903 0.0
H1161 H 0.17673 0.31826 0.38409 0.0
H1162 H 0.17559 0.31066 0.47179 0.0
S1163 S 0.13837 0.46955 0.45652 0.0
N1164 N 0.14647 0.44619 0.40397 0.0
N1165 N 0.14469 0.43787 0.49881 0.0
C1166 C 0.15438 0.40627 0.47074 0.0
C1167 C 0.15536 0.41077 0.41938 0.0
loop_
_geom_bond_atom_site_label_1
_geom_bond_atom_site_label_2
_geom_bond_distance
_geom_bond_site_symmetry_2
_ccdc_geom_bond_type
Pr0 C2 2.880 . S
Pr0 O20 2.562 . S
Pr0 O21 2.490 . S
Pr0 O22 2.695 . S
Pr0 O23 2.512 . S
Pr0 O25 2.437 . S
Pr0 O28 2.436 . S
Pr0 O30 2.438 . S
Pr1 C11 2.880 1_554 S
Pr1 O22 2.436 1_655 S
Pr1 O24 2.438 . S
Pr1 O26 2.562 . S
Pr1 O27 2.490 . S
Pr1 O28 2.695 1_655 S
Pr1 O29 2.512 . S
Pr1 O31 2.437 1_655 S
C2 Pr0 2.880 . S
C2 C3 1.491 . S
C2 O20 1.254 . S
C2 O21 1.225 . S
C3 C2 1.491 . S
C3 C4 1.392 . S
C3 C8 1.356 . S
C4 C3 1.392 . S
C4 C5 1.368 . S
C4 H32 0.929 . S
C5 C4 1.368 . S
C5 C6 1.386 . S
C5 H33 0.929 . S
C6 C5 1.386 . S
C6 C7 1.373 . S
C7 C6 1.373 . S
C7 C8 1.409 . S
C7 H34 0.931 . S
C8 C3 1.356 . S
C8 C7 1.409 . S
C8 H35 0.930 . S
C9 O22 1.270 . S
C9 O23 1.248 . S
C10 O24 1.267 . S
C10 O25 1.278 1_655 S
C11 Pr1 2.880 1_556 S
C11 C12 1.491 . S
C11 O26 1.254 1_556 S
C11 O27 1.225 1_556 S
C12 C11 1.491 . S
C12 C13 1.392 . S
C12 C17 1.356 . S
C13 C12 1.392 . S
C13 C14 1.368 . S
C13 H36 0.929 . S
C14 C13 1.368 . S
C14 C15 1.386 . S
C14 H37 0.929 . S
C15 C14 1.386 . S
C15 C16 1.373 . S
C16 C15 1.373 . S
C16 C17 1.409 . S
C16 H38 0.931 . S
C17 C12 1.356 . S
C17 C16 1.409 . S
C17 H39 0.930 . S
C18 O28 1.270 . S
C18 O29 1.248 1_455 S
C19 O30 1.267 . S
C19 O31 1.278 . S
O20 Pr0 2.562 . S
O20 C2 1.254 . S
O21 Pr0 2.490 . S
O21 C2 1.225 . S
O22 Pr0 2.695 . S
O22 Pr1 2.436 1_455 S
O22 C9 1.270 . S
O23 Pr0 2.512 . S
O23 C9 1.248 . S
O24 Pr1 2.438 . S
O24 C10 1.267 . S
O25 Pr0 2.437 . S
O25 C10 1.278 1_455 S
O26 Pr1 2.562 . S
O26 C11 1.254 1_554 S
O27 Pr1 2.490 . S
O27 C11 1.225 1_554 S
O28 Pr0 2.436 . S
O28 Pr1 2.695 1_455 S
O28 C18 1.270 . S
O29 Pr1 2.512 . S
O29 C18 1.248 1_655 S
O30 Pr0 2.438 . S
O30 C19 1.267 . S
O31 Pr1 2.437 1_455 S
O31 C19 1.278 . S
H32 C4 0.929 . S
H33 C5 0.929 . S
H34 C7 0.931 . S
H35 C8 0.930 . S
H36 C13 0.929 . S
H37 C14 0.929 . S
H38 C16 0.931 . S
H39 C17 0.930 . S
Pr40 C42 2.880 . S
Pr40 O60 2.562 . S
Pr40 O61 2.490 . S
Pr40 O62 2.695 . S
Pr40 O63 2.512 . S
Pr40 O65 2.437 . S
Pr40 O68 2.436 . S
Pr40 O70 2.438 . S
Pr41 C51 2.880 . S
Pr41 O62 2.436 . S
Pr41 O64 2.438 . S
Pr41 O66 2.562 . S
Pr41 O67 2.490 . S
Pr41 O68 2.695 . S
Pr41 O69 2.512 . S
Pr41 O71 2.437 . S
C42 Pr40 2.880 . S
C42 C43 1.491 . S
C42 O60 1.254 . S
C42 O61 1.225 . S
C43 C42 1.491 . S
C43 C44 1.392 . S
C43 C48 1.356 . S
C44 C43 1.392 . S
C44 C45 1.368 . S
C44 H72 0.929 . S
C45 C44 1.368 . S
C45 C46 1.386 . S
C45 H73 0.929 . S
C46 C45 1.386 . S
C46 C47 1.373 . S
C47 C46 1.373 . S
C47 C48 1.409 . S
C47 H74 0.931 . S
C48 C43 1.356 . S
C48 C47 1.409 . S
C48 H75 0.930 . S
C49 O62 1.270 . S
C49 O63 1.248 . S
C50 O64 1.267 . S
C50 O65 1.278 . S
C51 Pr41 2.880 . S
C51 C52 1.491 . S
C51 O66 1.254 . S
C51 O67 1.225 . S
C52 C51 1.491 . S
C52 C53 1.392 . S
C52 C57 1.356 . S
C53 C52 1.392 . S
C53 C54 1.368 . S
C53 H76 0.929 . S
C54 C53 1.368 . S
C54 C55 1.386 . S
C54 H77 0.929 . S
C55 C54 1.386 . S
C55 C56 1.373 . S
C56 C55 1.373 . S
C56 C57 1.409 . S
C56 H78 0.931 . S
C57 C52 1.356 . S
C57 C56 1.409 . S
C57 H79 0.930 . S
C58 O68 1.270 . S
C58 O69 1.248 . S
C59 O70 1.267 . S
C59 O71 1.278 . S
O60 Pr40 2.562 . S
O60 C42 1.254 . S
O61 Pr40 2.490 . S
O61 C42 1.225 . S
O62 Pr40 2.695 . S
O62 Pr41 2.436 . S
O62 C49 1.270 . S
O63 Pr40 2.512 . S
O63 C49 1.248 . S
O64 Pr41 2.438 . S
O64 C50 1.267 . S
O65 Pr40 2.437 . S
O65 C50 1.278 . S
O66 Pr41 2.562 . S
O66 C51 1.254 . S
O67 Pr41 2.490 . S
O67 C51 1.225 . S
O68 Pr40 2.436 . S
O68 Pr41 2.695 . S
O68 C58 1.270 . S
O69 Pr41 2.512 . S
O69 C58 1.248 . S
O70 Pr40 2.438 . S
O70 C59 1.267 . S
O71 Pr41 2.437 . S
O71 C59 1.278 . S
H72 C44 0.929 . S
H73 C45 0.929 . S
H74 C47 0.931 . S
H75 C48 0.930 . S
H76 C53 0.929 . S
H77 C54 0.929 . S
H78 C56 0.931 . S
H79 C57 0.930 . S
Pr80 C82 2.880 . S
Pr80 O100 2.562 . S
Pr80 O101 2.490 . S
Pr80 O102 2.695 . S
Pr80 O103 2.512 . S
Pr80 O105 2.437 . S
Pr80 O108 2.436 . S
Pr80 O110 2.438 . S
Pr81 C91 2.880 . S
Pr81 O102 2.436 . S
Pr81 O104 2.438 . S
Pr81 O106 2.562 . S
Pr81 O107 2.490 . S
Pr81 O108 2.695 . S
Pr81 O109 2.512 . S
Pr81 O111 2.437 . S
C82 Pr80 2.880 . S
C82 C83 1.491 . S
C82 O100 1.254 . S
C82 O101 1.225 . S
C83 C82 1.491 . S
C83 C84 1.392 . S
C83 C88 1.356 . S
C84 C83 1.392 . S
C84 C85 1.368 . S
C84 H112 0.929 . S
C85 C84 1.368 . S
C85 C86 1.386 . S
C85 H113 0.929 . S
C86 C85 1.386 . S
C86 C87 1.373 . S
C87 C86 1.373 . S
C87 C88 1.409 . S
C87 H114 0.931 . S
C88 C83 1.356 . S
C88 C87 1.409 . S
C88 H115 0.930 . S
C89 O102 1.270 . S
C89 O103 1.248 . S
C90 O104 1.267 . S
C90 O105 1.278 . S
C91 Pr81 2.880 . S
C91 C92 1.491 . S
C91 O106 1.254 . S
C91 O107 1.225 . S
C92 C91 1.491 . S
C92 C93 1.392 . S
C92 C97 1.356 . S
C93 C92 1.392 . S
C93 C94 1.368 . S
C93 H116 0.929 . S
C94 C93 1.368 . S
C94 C95 1.386 . S
C94 H117 0.929 . S
C95 C94 1.386 . S
C95 C96 1.373 . S
C96 C95 1.373 . S
C96 C97 1.409 . S
C96 H118 0.931 . S
C97 C92 1.356 . S
C97 C96 1.409 . S
C97 H119 0.930 . S
C98 O108 1.270 . S
C98 O109 1.248 . S
C99 O110 1.267 . S
C99 O111 1.278 . S
O100 Pr80 2.562 . S
O100 C82 1.254 . S
O101 Pr80 2.490 . S
O101 C82 1.225 . S
O102 Pr80 2.695 . S
O102 Pr81 2.436 . S
O102 C89 1.270 . S
O103 Pr80 2.512 . S
O103 C89 1.248 . S
O104 Pr81 2.438 . S
O104 C90 1.267 . S
O105 Pr80 2.437 . S
O105 C90 1.278 . S
O106 Pr81 2.562 . S
O106 C91 1.254 . S
O107 Pr81 2.490 . S
O107 C91 1.225 . S
O108 Pr80 2.436 . S
O108 Pr81 2.695 . S
O108 C98 1.270 . S
O109 Pr81 2.512 . S
O109 C98 1.248 . S
O110 Pr80 2.438 . S
O110 C99 1.267 . S
O111 Pr81 2.437 . S
O111 C99 1.278 . S
H112 C84 0.929 . S
H113 C85 0.929 . S
H114 C87 0.931 . S
H115 C88 0.930 . S
H116 C93 0.929 . S
H117 C94 0.929 . S
H118 C96 0.931 . S
H119 C97 0.930 . S
Pr120 C122 2.880 1_556 S
Pr120 O140 2.562 . S
Pr120 O141 2.490 . S
Pr120 O142 2.695 . S
Pr120 O143 2.512 . S
Pr120 O145 2.437 . S
Pr120 O148 2.436 . S
Pr120 O150 2.438 . S
Pr121 C131 2.880 . S
Pr121 O142 2.436 . S
Pr121 O144 2.438 . S
Pr121 O146 2.562 . S
Pr121 O147 2.490 . S
Pr121 O148 2.695 . S
Pr121 O149 2.512 . S
Pr121 O151 2.437 . S
C122 Pr120 2.880 1_554 S
C122 C123 1.491 . S
C122 O140 1.254 1_554 S
C122 O141 1.225 1_554 S
C123 C122 1.491 . S
C123 C124 1.392 . S
C123 C128 1.356 . S
C124 C123 1.392 . S
C124 C125 1.368 . S
C124 H152 0.929 . S
C125 C124 1.368 . S
C125 C126 1.386 . S
C125 H153 0.929 . S
C126 C125 1.386 . S
C126 C127 1.373 . S
C127 C126 1.373 . S
C127 C128 1.409 . S
C127 H154 0.931 . S
C128 C123 1.356 . S
C128 C127 1.409 . S
C128 H155 0.930 . S
C129 O142 1.270 . S
C129 O143 1.248 . S
C130 O144 1.267 . S
C130 O145 1.278 . S
C131 Pr121 2.880 . S
C131 C132 1.491 . S
C131 O146 1.254 . S
C131 O147 1.225 . S
C132 C131 1.491 . S
C132 C133 1.392 . S
C132 C137 1.356 . S
C133 C132 1.392 . S
C133 C134 1.368 . S
C133 H156 0.929 . S
C134 C133 1.368 . S
C134 C135 1.386 . S
C134 H157 0.929 . S
C135 C134 1.386 . S
C135 C136 1.373 . S
C136 C135 1.373 . S
C136 C137 1.409 . S
C136 H158 0.931 . S
C137 C132 1.356 . S
C137 C136 1.409 . S
C137 H159 0.930 . S
C138 O148 1.270 . S
C138 O149 1.248 . S
C139 O150 1.267 . S
C139 O151 1.278 . S
O140 Pr120 2.562 . S
O140 C122 1.254 1_556 S
O141 Pr120 2.490 . S
O141 C122 1.225 1_556 S
O142 Pr120 2.695 . S
O142 Pr121 2.436 . S
O142 C129 1.270 . S
O143 Pr120 2.512 . S
O143 C129 1.248 . S
O144 Pr121 2.438 . S
O144 C130 1.267 . S
O145 Pr120 2.437 . S
O145 C130 1.278 . S
O146 Pr121 2.562 . S
O146 C131 1.254 . S
O147 Pr121 2.490 . S
O147 C131 1.225 . S
O148 Pr120 2.436 . S
O148 Pr121 2.695 . S
O148 C138 1.270 . S
O149 Pr121 2.512 . S
O149 C138 1.248 . S
O150 Pr120 2.438 . S
O150 C139 1.267 . S
O151 Pr121 2.437 . S
O151 C139 1.278 . S
H152 C124 0.929 . S
H153 C125 0.929 . S
H154 C127 0.931 . S
H155 C128 0.930 . S
H156 C133 0.929 . S
H157 C134 0.929 . S
H158 C136 0.931 . S
H159 C137 0.930 . S
Pr160 C162 2.880 . S
Pr160 O180 2.562 . S
Pr160 O181 2.490 . S
Pr160 O182 2.695 . S
Pr160 O183 2.512 . S
Pr160 O185 2.437 . S
Pr160 O188 2.436 . S
Pr160 O190 2.438 . S
Pr161 C171 2.880 . S
Pr161 O182 2.436 1_655 S
Pr161 O184 2.438 . S
Pr161 O186 2.562 . S
Pr161 O187 2.490 . S
Pr161 O188 2.695 1_655 S
Pr161 O189 2.512 . S
Pr161 O191 2.437 1_655 S
C162 Pr160 2.880 . S
C162 C163 1.491 1_556 S
C162 O180 1.254 . S
C162 O181 1.225 . S
C163 C162 1.491 1_554 S
C163 C164 1.392 . S
C163 C168 1.356 . S
C164 C163 1.392 . S
C164 C165 1.368 . S
C164 H192 0.929 . S
C165 C164 1.368 . S
C165 C166 1.386 . S
C165 H193 0.929 . S
C166 C165 1.386 . S
C166 C167 1.373 . S
C167 C166 1.373 . S
C167 C168 1.409 . S
C167 H194 0.931 . S
C168 C163 1.356 . S
C168 C167 1.409 . S
C168 H195 0.930 . S
C169 O182 1.270 . S
C169 O183 1.248 . S
C170 O184 1.267 . S
C170 O185 1.278 1_655 S
C171 Pr161 2.880 . S
C171 C172 1.491 . S
C171 O186 1.254 . S
C171 O187 1.225 . S
C172 C171 1.491 . S
C172 C173 1.392 . S
C172 C177 1.356 . S
C173 C172 1.392 . S
C173 C174 1.368 . S
C173 H196 0.929 . S
C174 C173 1.368 . S
C174 C175 1.386 . S
C174 H197 0.929 . S
C175 C174 1.386 . S
C175 C176 1.373 . S
C176 C175 1.373 . S
C176 C177 1.409 . S
C176 H198 0.931 . S
C177 C172 1.356 . S
C177 C176 1.409 . S
C177 H199 0.930 . S
C178 O188 1.270 1_655 S
C178 O189 1.248 . S
C179 O190 1.267 . S
C179 O191 1.278 . S
O180 Pr160 2.562 . S
O180 C162 1.254 . S
O181 Pr160 2.490 . S
O181 C162 1.225 . S
O182 Pr160 2.695 . S
O182 Pr161 2.436 1_455 S
O182 C169 1.270 . S
O183 Pr160 2.512 . S
O183 C169 1.248 . S
O184 Pr161 2.438 . S
O184 C170 1.267 . S
O185 Pr160 2.437 . S
O185 C170 1.278 1_455 S
O186 Pr161 2.562 . S
O186 C171 1.254 . S
O187 Pr161 2.490 . S
O187 C171 1.225 . S
O188 Pr160 2.436 . S
O188 Pr161 2.695 1_455 S
O188 C178 1.270 1_455 S
O189 Pr161 2.512 . S
O189 C178 1.248 . S
O190 Pr160 2.438 . S
O190 C179 1.267 . S
O191 Pr161 2.437 1_455 S
O191 C179 1.278 . S
H192 C164 0.929 . S
H193 C165 0.929 . S
H194 C167 0.931 . S
H195 C168 0.930 . S
H196 C173 0.929 . S
H197 C174 0.929 . S
H198 C176 0.931 . S
H199 C177 0.930 . S
Pr200 C202 2.880 . S
Pr200 O220 2.562 . S
Pr200 O221 2.490 . S
Pr200 O222 2.695 . S
Pr200 O223 2.512 . S
Pr200 O225 2.437 . S
Pr200 O228 2.436 . S
Pr200 O230 2.438 . S
Pr201 C211 2.880 1_554 S
Pr201 O222 2.436 . S
Pr201 O224 2.438 . S
Pr201 O226 2.562 1_554 S
Pr201 O227 2.490 1_554 S
Pr201 O228 2.695 . S
Pr201 O229 2.512 . S
Pr201 O231 2.437 . S
C202 Pr200 2.880 . S
C202 C203 1.491 . S
C202 O220 1.254 . S
C202 O221 1.225 . S
C203 C202 1.491 . S
C203 C204 1.392 . S
C203 C208 1.356 . S
C204 C203 1.392 . S
C204 C205 1.368 . S
C204 H232 0.929 . S
C205 C204 1.368 . S
C205 C206 1.386 . S
C205 H233 0.929 . S
C206 C205 1.386 . S
C206 C207 1.373 . S
C207 C206 1.373 . S
C207 C208 1.409 . S
C207 H234 0.931 . S
C208 C203 1.356 . S
C208 C207 1.409 . S
C208 H235 0.930 . S
C209 O222 1.270 . S
C209 O223 1.248 . S
C210 O224 1.267 . S
C210 O225 1.278 . S
C211 Pr201 2.880 1_556 S
C211 C212 1.491 . S
C211 O226 1.254 . S
C211 O227 1.225 . S
C212 C211 1.491 . S
C212 C213 1.392 . S
C212 C217 1.356 . S
C213 C212 1.392 . S
C213 C214 1.368 . S
C213 H236 0.929 . S
C214 C213 1.368 . S
C214 C215 1.386 . S
C214 H237 0.929 . S
C215 C214 1.386 . S
C215 C216 1.373 . S
C216 C215 1.373 . S
C216 C217 1.409 . S
C216 H238 0.931 . S
C217 C212 1.356 . S
C217 C216 1.409 . S
C217 H239 0.930 . S
C218 O228 1.270 . S
C218 O229 1.248 . S
C219 O230 1.267 . S
C219 O231 1.278 . S
O220 Pr200 2.562 . S
O220 C202 1.254 . S
O221 Pr200 2.490 . S
O221 C202 1.225 . S
O222 Pr200 2.695 . S
O222 Pr201 2.436 . S
O222 C209 1.270 . S
O223 Pr200 2.512 . S
O223 C209 1.248 . S
O224 Pr201 2.438 . S
O224 C210 1.267 . S
O225 Pr200 2.437 . S
O225 C210 1.278 . S
O226 Pr201 2.562 1_556 S
O226 C211 1.254 . S
O227 Pr201 2.490 1_556 S
O227 C211 1.225 . S
O228 Pr200 2.436 . S
O228 Pr201 2.695 . S
O228 C218 1.270 . S
O229 Pr201 2.512 . S
O229 C218 1.248 . S
O230 Pr200 2.438 . S
O230 C219 1.267 . S
O231 Pr201 2.437 . S
O231 C219 1.278 . S
H232 C204 0.929 . S
H233 C205 0.929 . S
H234 C207 0.931 . S
H235 C208 0.930 . S
H236 C213 0.929 . S
H237 C214 0.929 . S
H238 C216 0.931 . S
H239 C217 0.930 . S
Pr240 C242 2.880 . S
Pr240 O260 2.562 . S
Pr240 O261 2.490 . S
Pr240 O262 2.695 . S
Pr240 O263 2.512 . S
Pr240 O265 2.437 . S
Pr240 O268 2.436 . S
Pr240 O270 2.438 . S
Pr241 C251 2.880 . S
Pr241 O262 2.436 . S
Pr241 O264 2.438 . S
Pr241 O266 2.562 . S
Pr241 O267 2.490 . S
Pr241 O268 2.695 . S
Pr241 O269 2.512 . S
Pr241 O271 2.437 . S
C242 Pr240 2.880 . S
C242 C243 1.491 . S
C242 O260 1.254 . S
C242 O261 1.225 . S
C243 C242 1.491 . S
C243 C244 1.392 . S
C243 C248 1.356 . S
C244 C243 1.392 . S
C244 C245 1.368 . S
C244 H272 0.929 . S
C245 C244 1.368 . S
C245 C246 1.386 . S
C245 H273 0.929 . S
C246 C245 1.386 . S
C246 C247 1.373 . S
C247 C246 1.373 . S
C247 C248 1.409 . S
C247 H274 0.931 . S
C248 C243 1.356 . S
C248 C247 1.409 . S
C248 H275 0.930 . S
C249 O262 1.270 . S
C249 O263 1.248 . S
C250 O264 1.267 . S
C250 O265 1.278 . S
C251 Pr241 2.880 . S
C251 C252 1.491 . S
C251 O266 1.254 . S
C251 O267 1.225 . S
C252 C251 1.491 . S
C252 C253 1.392 . S
C252 C257 1.356 . S
C253 C252 1.392 . S
C253 C254 1.368 . S
C253 H276 0.929 . S
C254 C253 1.368 . S
C254 C255 1.386 . S
C254 H277 0.929 . S
C255 C254 1.386 . S
C255 C256 1.373 . S
C256 C255 1.373 . S
C256 C257 1.409 . S
C256 H278 0.931 . S
C257 C252 1.356 . S
C257 C256 1.409 . S
C257 H279 0.930 . S
C258 O268 1.270 . S
C258 O269 1.248 . S
C259 O270 1.267 . S
C259 O271 1.278 . S
O260 Pr240 2.562 . S
O260 C242 1.254 . S
O261 Pr240 2.490 . S
O261 C242 1.225 . S
O262 Pr240 2.695 . S
O262 Pr241 2.436 . S
O262 C249 1.270 . S
O263 Pr240 2.512 . S
O263 C249 1.248 . S
O264 Pr241 2.438 . S
O264 C250 1.267 . S
O265 Pr240 2.437 . S
O265 C250 1.278 . S
O266 Pr241 2.562 . S
O266 C251 1.254 . S
O267 Pr241 2.490 . S
O267 C251 1.225 . S
O268 Pr240 2.436 . S
O268 Pr241 2.695 . S
O268 C258 1.270 . S
O269 Pr241 2.512 . S
O269 C258 1.248 . S
O270 Pr240 2.438 . S
O270 C259 1.267 . S
O271 Pr241 2.437 . S
O271 C259 1.278 . S
H272 C244 0.929 . S
H273 C245 0.929 . S
H274 C247 0.931 . S
H275 C248 0.930 . S
H276 C253 0.929 . S
H277 C254 0.929 . S
H278 C256 0.931 . S
H279 C257 0.930 . S
Pr280 C282 2.880 . S
Pr280 O300 2.562 . S
Pr280 O301 2.490 . S
Pr280 O302 2.695 . S
Pr280 O303 2.512 . S
Pr280 O305 2.437 . S
Pr280 O308 2.436 . S
Pr280 O310 2.438 . S
Pr281 C291 2.880 . S
Pr281 O302 2.436 . S
Pr281 O304 2.438 . S
Pr281 O306 2.562 . S
Pr281 O307 2.490 . S
Pr281 O308 2.695 . S
Pr281 O309 2.512 . S
Pr281 O311 2.437 . S
C282 Pr280 2.880 . S
C282 C283 1.491 . S
C282 O300 1.254 . S
C282 O301 1.225 . S
C283 C282 1.491 . S
C283 C284 1.392 . S
C283 C288 1.356 . S
C284 C283 1.392 . S
C284 C285 1.368 . S
C284 H312 0.929 . S
C285 C284 1.368 . S
C285 C286 1.386 . S
C285 H313 0.929 . S
C286 C285 1.386 . S
C286 C287 1.373 . S
C287 C286 1.373 . S
C287 C288 1.409 . S
C287 H314 0.931 . S
C288 C283 1.356 . S
C288 C287 1.409 . S
C288 H315 0.930 . S
C289 O302 1.270 . S
C289 O303 1.248 . S
C290 O304 1.267 . S
C290 O305 1.278 . S
C291 Pr281 2.880 . S
C291 C292 1.491 . S
C291 O306 1.254 . S
C291 O307 1.225 . S
C292 C291 1.491 . S
C292 C293 1.392 . S
C292 C297 1.356 . S
C293 C292 1.392 . S
C293 C294 1.368 . S
C293 H316 0.929 . S
C294 C293 1.368 . S
C294 C295 1.386 . S
C294 H317 0.929 . S
C295 C294 1.386 . S
C295 C296 1.373 . S
C296 C295 1.373 . S
C296 C297 1.409 . S
C296 H318 0.931 . S
C297 C292 1.356 . S
C297 C296 1.409 . S
C297 H319 0.930 . S
C298 O308 1.270 . S
C298 O309 1.248 . S
C299 O310 1.267 . S
C299 O311 1.278 . S
O300 Pr280 2.562 . S
O300 C282 1.254 . S
O301 Pr280 2.490 . S
O301 C282 1.225 . S
O302 Pr280 2.695 . S
O302 Pr281 2.436 . S
O302 C289 1.270 . S
O303 Pr280 2.512 . S
O303 C289 1.248 . S
O304 Pr281 2.438 . S
O304 C290 1.267 . S
O305 Pr280 2.437 . S
O305 C290 1.278 . S
O306 Pr281 2.562 . S
O306 C291 1.254 . S
O307 Pr281 2.490 . S
O307 C291 1.225 . S
O308 Pr280 2.436 . S
O308 Pr281 2.695 . S
O308 C298 1.270 . S
O309 Pr281 2.512 . S
O309 C298 1.248 . S
O310 Pr280 2.438 . S
O310 C299 1.267 . S
O311 Pr281 2.437 . S
O311 C299 1.278 . S
H312 C284 0.929 . S
H313 C285 0.929 . S
H314 C287 0.931 . S
H315 C288 0.930 . S
H316 C293 0.929 . S
H317 C294 0.929 . S
H318 C296 0.931 . S
H319 C297 0.930 . S
Pr320 C322 2.880 . S
Pr320 O340 2.562 . S
Pr320 O341 2.490 . S
Pr320 O342 2.695 . S
Pr320 O343 2.512 . S
Pr320 O345 2.437 . S
Pr320 O348 2.436 . S
Pr320 O350 2.438 . S
Pr321 C331 2.880 . S
Pr321 O342 2.436 . S
Pr321 O344 2.438 . S
Pr321 O346 2.562 . S
Pr321 O347 2.490 . S
Pr321 O348 2.695 . S
Pr321 O349 2.512 . S
Pr321 O351 2.437 . S
C322 Pr320 2.880 . S
C322 C323 1.491 . S
C322 O340 1.254 . S
C322 O341 1.225 . S
C323 C322 1.491 . S
C323 C324 1.392 . S
C323 C328 1.356 . S
C324 C323 1.392 . S
C324 C325 1.368 . S
C324 H352 0.929 . S
C325 C324 1.368 . S
C325 C326 1.386 . S
C325 H353 0.929 . S
C326 C325 1.386 . S
C326 C327 1.373 . S
C327 C326 1.373 . S
C327 C328 1.409 . S
C327 H354 0.931 . S
C328 C323 1.356 . S
C328 C327 1.409 . S
C328 H355 0.930 . S
C329 O342 1.270 . S
C329 O343 1.248 . S
C330 O344 1.267 . S
C330 O345 1.278 . S
C331 Pr321 2.880 . S
C331 C332 1.491 . S
C331 O346 1.254 . S
C331 O347 1.225 . S
C332 C331 1.491 . S
C332 C333 1.392 . S
C332 C337 1.356 . S
C333 C332 1.392 . S
C333 C334 1.368 . S
C333 H356 0.929 . S
C334 C333 1.368 . S
C334 C335 1.386 . S
C334 H357 0.929 . S
C335 C334 1.386 . S
C335 C336 1.373 . S
C336 C335 1.373 . S
C336 C337 1.409 . S
C336 H358 0.931 . S
C337 C332 1.356 . S
C337 C336 1.409 . S
C337 H359 0.930 . S
C338 O348 1.270 . S
C338 O349 1.248 . S
C339 O350 1.267 . S
C339 O351 1.278 . S
O340 Pr320 2.562 . S
O340 C322 1.254 . S
O341 Pr320 2.490 . S
O341 C322 1.225 . S
O342 Pr320 2.695 . S
O342 Pr321 2.436 . S
O342 C329 1.270 . S
O343 Pr320 2.512 . S
O343 C329 1.248 . S
O344 Pr321 2.438 . S
O344 C330 1.267 . S
O345 Pr320 2.437 . S
O345 C330 1.278 . S
O346 Pr321 2.562 . S
O346 C331 1.254 . S
O347 Pr321 2.490 . S
O347 C331 1.225 . S
O348 Pr320 2.436 . S
O348 Pr321 2.695 . S
O348 C338 1.270 . S
O349 Pr321 2.512 . S
O349 C338 1.248 . S
O350 Pr320 2.438 . S
O350 C339 1.267 . S
O351 Pr321 2.437 . S
O351 C339 1.278 . S
H352 C324 0.929 . S
H353 C325 0.929 . S
H354 C327 0.931 . S
H355 C328 0.930 . S
H356 C333 0.929 . S
H357 C334 0.929 . S
H358 C336 0.931 . S
H359 C337 0.930 . S
Pr360 C362 2.880 . S
Pr360 O380 2.562 . S
Pr360 O381 2.490 . S
Pr360 O382 2.695 . S
Pr360 O383 2.512 . S
Pr360 O385 2.437 . S
Pr360 O388 2.436 . S
Pr360 O390 2.438 . S
Pr361 C371 2.880 . S
Pr361 O382 2.436 . S
Pr361 O384 2.438 . S
Pr361 O386 2.562 . S
Pr361 O387 2.490 . S
Pr361 O388 2.695 . S
Pr361 O389 2.512 . S
Pr361 O391 2.437 . S
C362 Pr360 2.880 . S
C362 C363 1.491 . S
C362 O380 1.254 . S
C362 O381 1.225 . S
C363 C362 1.491 . S
C363 C364 1.392 . S
C363 C368 1.356 . S
C364 C363 1.392 . S
C364 C365 1.368 . S
C364 H392 0.929 . S
C365 C364 1.368 . S
C365 C366 1.386 . S
C365 H393 0.929 . S
C366 C365 1.386 . S
C366 C367 1.373 . S
C367 C366 1.373 . S
C367 C368 1.409 . S
C367 H394 0.931 . S
C368 C363 1.356 . S
C368 C367 1.409 . S
C368 H395 0.930 . S
C369 O382 1.270 . S
C369 O383 1.248 . S
C370 O384 1.267 . S
C370 O385 1.278 . S
C371 Pr361 2.880 . S
C371 C372 1.491 . S
C371 O386 1.254 . S
C371 O387 1.225 . S
C372 C371 1.491 . S
C372 C373 1.392 . S
C372 C377 1.356 1_554 S
C373 C372 1.392 . S
C373 C374 1.368 1_554 S
C373 H396 0.929 . S
C374 C373 1.368 1_556 S
C374 C375 1.386 . S
C374 H397 0.929 . S
C375 C374 1.386 . S
C375 C376 1.373 . S
C376 C375 1.373 . S
C376 C377 1.409 . S
C376 H398 0.931 . S
C377 C372 1.356 1_556 S
C377 C376 1.409 . S
C377 H399 0.930 1_556 S
C378 O388 1.270 . S
C378 O389 1.248 . S
C379 O390 1.267 . S
C379 O391 1.278 . S
O380 Pr360 2.562 . S
O380 C362 1.254 . S
O381 Pr360 2.490 . S
O381 C362 1.225 . S
O382 Pr360 2.695 . S
O382 Pr361 2.436 . S
O382 C369 1.270 . S
O383 Pr360 2.512 . S
O383 C369 1.248 . S
O384 Pr361 2.438 . S
O384 C370 1.267 . S
O385 Pr360 2.437 . S
O385 C370 1.278 . S
O386 Pr361 2.562 . S
O386 C371 1.254 . S
O387 Pr361 2.490 . S
O387 C371 1.225 . S
O388 Pr360 2.436 . S
O388 Pr361 2.695 . S
O388 C378 1.270 . S
O389 Pr361 2.512 . S
O389 C378 1.248 . S
O390 Pr360 2.438 . S
O390 C379 1.267 . S
O391 Pr361 2.437 . S
O391 C379 1.278 . S
H392 C364 0.929 . S
H393 C365 0.929 . S
H394 C367 0.931 . S
H395 C368 0.930 . S
H396 C373 0.929 . S
H397 C374 0.929 . S
H398 C376 0.931 . S
H399 C377 0.930 1_554 S
Pr400 C402 2.880 . S
Pr400 O420 2.562 . S
Pr400 O421 2.490 . S
Pr400 O422 2.695 . S
Pr400 O423 2.512 . S
Pr400 O425 2.437 . S
Pr400 O428 2.436 . S
Pr400 O430 2.438 . S
Pr401 C411 2.880 . S
Pr401 O422 2.436 . S
Pr401 O424 2.438 . S
Pr401 O426 2.562 . S
Pr401 O427 2.490 . S
Pr401 O428 2.695 . S
Pr401 O429 2.512 . S
Pr401 O431 2.437 . S
C402 Pr400 2.880 . S
C402 C403 1.491 1_556 S
C402 O420 1.254 . S
C402 O421 1.225 . S
C403 C402 1.491 1_554 S
C403 C404 1.392 . S
C403 C408 1.356 . S
C404 C403 1.392 . S
C404 C405 1.368 . S
C404 H432 0.929 1_554 S
C405 C404 1.368 . S
C405 C406 1.386 . S
C405 H433 0.929 . S
C406 C405 1.386 . S
C406 C407 1.373 . S
C407 C406 1.373 . S
C407 C408 1.409 . S
C407 H434 0.931 . S
C408 C403 1.356 . S
C408 C407 1.409 . S
C408 H435 0.930 . S
C409 O422 1.270 . S
C409 O423 1.248 . S
C410 O424 1.267 . S
C410 O425 1.278 . S
C411 Pr401 2.880 . S
C411 C412 1.491 . S
C411 O426 1.254 . S
C411 O427 1.225 . S
C412 C411 1.491 . S
C412 C413 1.392 . S
C412 C417 1.356 . S
C413 C412 1.392 . S
C413 C414 1.368 . S
C413 H436 0.929 . S
C414 C413 1.368 . S
C414 C415 1.386 . S
C414 H437 0.929 . S
C415 C414 1.386 . S
C415 C416 1.373 . S
C416 C415 1.373 . S
C416 C417 1.409 . S
C416 H438 0.931 . S
C417 C412 1.356 . S
C417 C416 1.409 . S
C417 H439 0.930 . S
C418 O428 1.270 . S
C418 O429 1.248 . S
C419 O430 1.267 . S
C419 O431 1.278 . S
O420 Pr400 2.562 . S
O420 C402 1.254 . S
O421 Pr400 2.490 . S
O421 C402 1.225 . S
O422 Pr400 2.695 . S
O422 Pr401 2.436 . S
O422 C409 1.270 . S
O423 Pr400 2.512 . S
O423 C409 1.248 . S
O424 Pr401 2.438 . S
O424 C410 1.267 . S
O425 Pr400 2.437 . S
O425 C410 1.278 . S
O426 Pr401 2.562 . S
O426 C411 1.254 . S
O427 Pr401 2.490 . S
O427 C411 1.225 . S
O428 Pr400 2.436 . S
O428 Pr401 2.695 . S
O428 C418 1.270 . S
O429 Pr401 2.512 . S
O429 C418 1.248 . S
O430 Pr400 2.438 . S
O430 C419 1.267 . S
O431 Pr401 2.437 . S
O431 C419 1.278 . S
H432 C404 0.929 1_556 S
H433 C405 0.929 . S
H434 C407 0.931 . S
H435 C408 0.930 . S
H436 C413 0.929 . S
H437 C414 0.929 . S
H438 C416 0.931 . S
H439 C417 0.930 . S
Pr440 C442 2.880 . S
Pr440 O460 2.562 . S
Pr440 O461 2.490 . S
Pr440 O462 2.695 . S
Pr440 O463 2.512 . S
Pr440 O465 2.437 . S
Pr440 O468 2.436 . S
Pr440 O470 2.438 . S
Pr441 C451 2.880 . S
Pr441 O462 2.436 . S
Pr441 O464 2.438 . S
Pr441 O466 2.562 . S
Pr441 O467 2.490 . S
Pr441 O468 2.695 . S
Pr441 O469 2.512 . S
Pr441 O471 2.437 . S
C442 Pr440 2.880 . S
C442 C443 1.491 . S
C442 O460 1.254 . S
C442 O461 1.225 . S
C443 C442 1.491 . S
C443 C444 1.392 . S
C443 C448 1.356 . S
C444 C443 1.392 . S
C444 C445 1.368 . S
C444 H472 0.929 . S
C445 C444 1.368 . S
C445 C446 1.386 . S
C445 H473 0.929 . S
C446 C445 1.386 . S
C446 C447 1.373 . S
C447 C446 1.373 . S
C447 C448 1.409 . S
C447 H474 0.931 . S
C448 C443 1.356 . S
C448 C447 1.409 . S
C448 H475 0.930 . S
C449 O462 1.270 . S
C449 O463 1.248 . S
C450 O464 1.267 . S
C450 O465 1.278 . S
C451 Pr441 2.880 . S
C451 C452 1.491 . S
C451 O466 1.254 . S
C451 O467 1.225 . S
C452 C451 1.491 . S
C452 C453 1.392 . S
C452 C457 1.356 . S
C453 C452 1.392 . S
C453 C454 1.368 . S
C453 H476 0.929 . S
C454 C453 1.368 . S
C454 C455 1.386 . S
C454 H477 0.929 . S
C455 C454 1.386 . S
C455 C456 1.373 . S
C456 C455 1.373 . S
C456 C457 1.409 . S
C456 H478 0.931 . S
C457 C452 1.356 . S
C457 C456 1.409 . S
C457 H479 0.930 . S
C458 O468 1.270 . S
C458 O469 1.248 . S
C459 O470 1.267 . S
C459 O471 1.278 . S
O460 Pr440 2.562 . S
O460 C442 1.254 . S
O461 Pr440 2.490 . S
O461 C442 1.225 . S
O462 Pr440 2.695 . S
O462 Pr441 2.436 . S
O462 C449 1.270 . S
O463 Pr440 2.512 . S
O463 C449 1.248 . S
O464 Pr441 2.438 . S
O464 C450 1.267 . S
O465 Pr440 2.437 . S
O465 C450 1.278 . S
O466 Pr441 2.562 . S
O466 C451 1.254 . S
O467 Pr441 2.490 . S
O467 C451 1.225 . S
O468 Pr440 2.436 . S
O468 Pr441 2.695 . S
O468 C458 1.270 . S
O469 Pr441 2.512 . S
O469 C458 1.248 . S
O470 Pr440 2.438 . S
O470 C459 1.267 . S
O471 Pr441 2.437 . S
O471 C459 1.278 . S
H472 C444 0.929 . S
H473 C445 0.929 . S
H474 C447 0.931 . S
H475 C448 0.930 . S
H476 C453 0.929 . S
H477 C454 0.929 . S
H478 C456 0.931 . S
H479 C457 0.930 . S
Pr480 C482 2.880 . S
Pr480 O500 2.562 . S
Pr480 O501 2.490 . S
Pr480 O502 2.695 . S
Pr480 O503 2.512 . S
Pr480 O505 2.437 . S
Pr480 O508 2.436 . S
Pr480 O510 2.438 . S
Pr481 C491 2.880 . S
Pr481 O502 2.436 . S
Pr481 O504 2.438 . S
Pr481 O506 2.562 . S
Pr481 O507 2.490 . S
Pr481 O508 2.695 . S
Pr481 O509 2.512 . S
Pr481 O511 2.437 . S
C482 Pr480 2.880 . S
C482 C483 1.491 . S
C482 O500 1.254 . S
C482 O501 1.225 . S
C483 C482 1.491 . S
C483 C484 1.392 . S
C483 C488 1.356 . S
C484 C483 1.392 . S
C484 C485 1.368 . S
C484 H512 0.929 . S
C485 C484 1.368 . S
C485 C486 1.386 . S
C485 H513 0.929 . S
C486 C485 1.386 . S
C486 C487 1.373 . S
C487 C486 1.373 . S
C487 C488 1.409 . S
C487 H514 0.931 . S
C488 C483 1.356 . S
C488 C487 1.409 . S
C488 H515 0.930 . S
C489 O502 1.270 . S
C489 O503 1.248 . S
C490 O504 1.267 . S
C490 O505 1.278 . S
C491 Pr481 2.880 . S
C491 C492 1.491 . S
C491 O506 1.254 . S
C491 O507 1.225 . S
C492 C491 1.491 . S
C492 C493 1.392 . S
C492 C497 1.356 . S
C493 C492 1.392 . S
C493 C494 1.368 . S
C493 H516 0.929 . S
C494 C493 1.368 . S
C494 C495 1.386 . S
C494 H517 0.929 . S
C495 C494 1.386 . S
C495 C496 1.373 . S
C496 C495 1.373 . S
C496 C497 1.409 . S
C496 H518 0.931 . S
C497 C492 1.356 . S
C497 C496 1.409 . S
C497 H519 0.930 . S
C498 O508 1.270 . S
C498 O509 1.248 . S
C499 O510 1.267 . S
C499 O511 1.278 . S
O500 Pr480 2.562 . S
O500 C482 1.254 . S
O501 Pr480 2.490 . S
O501 C482 1.225 . S
O502 Pr480 2.695 . S
O502 Pr481 2.436 . S
O502 C489 1.270 . S
O503 Pr480 2.512 . S
O503 C489 1.248 . S
O504 Pr481 2.438 . S
O504 C490 1.267 . S
O505 Pr480 2.437 . S
O505 C490 1.278 . S
O506 Pr481 2.562 . S
O506 C491 1.254 . S
O507 Pr481 2.490 . S
O507 C491 1.225 . S
O508 Pr480 2.436 . S
O508 Pr481 2.695 . S
O508 C498 1.270 . S
O509 Pr481 2.512 . S
O509 C498 1.248 . S
O510 Pr480 2.438 . S
O510 C499 1.267 . S
O511 Pr481 2.437 . S
O511 C499 1.278 . S
H512 C484 0.929 . S
H513 C485 0.929 . S
H514 C487 0.931 . S
H515 C488 0.930 . S
H516 C493 0.929 . S
H517 C494 0.929 . S
H518 C496 0.931 . S
H519 C497 0.930 . S
Pr520 C522 2.880 1_554 S
Pr520 O540 2.562 . S
Pr520 O541 2.490 . S
Pr520 O542 2.695 1_655 S
Pr520 O543 2.512 1_655 S
Pr520 O545 2.437 1_655 S
Pr520 O548 2.436 1_655 S
Pr520 O550 2.438 . S
Pr521 C531 2.880 . S
Pr521 O542 2.436 . S
Pr521 O544 2.438 . S
Pr521 O546 2.562 . S
Pr521 O547 2.490 . S
Pr521 O548 2.695 . S
Pr521 O549 2.512 . S
Pr521 O551 2.437 . S
C522 Pr520 2.880 1_556 S
C522 C523 1.491 . S
C522 O540 1.254 1_556 S
C522 O541 1.225 1_556 S
C523 C522 1.491 . S
C523 C524 1.392 . S
C523 C528 1.356 . S
C524 C523 1.392 . S
C524 C525 1.368 . S
C524 H552 0.929 . S
C525 C524 1.368 . S
C525 C526 1.386 . S
C525 H553 0.929 . S
C526 C525 1.386 . S
C526 C527 1.373 . S
C527 C526 1.373 . S
C527 C528 1.409 . S
C527 H554 0.931 . S
C528 C523 1.356 . S
C528 C527 1.409 . S
C528 H555 0.930 . S
C529 O542 1.270 . S
C529 O543 1.248 . S
C530 O544 1.267 . S
C530 O545 1.278 . S
C531 Pr521 2.880 . S
C531 C532 1.491 . S
C531 O546 1.254 . S
C531 O547 1.225 . S
C532 C531 1.491 . S
C532 C533 1.392 . S
C532 C537 1.356 . S
C533 C532 1.392 . S
C533 C534 1.368 . S
C533 H556 0.929 . S
C534 C533 1.368 . S
C534 C535 1.386 . S
C534 H557 0.929 . S
C535 C534 1.386 . S
C535 C536 1.373 . S
C536 C535 1.373 . S
C536 C537 1.409 . S
C536 H558 0.931 . S
C537 C532 1.356 . S
C537 C536 1.409 . S
C537 H559 0.930 . S
C538 O548 1.270 . S
C538 O549 1.248 . S
C539 O550 1.265 . S
C539 O551 1.280 1_655 S
O540 Pr520 2.562 . S
O540 C522 1.254 1_554 S
O541 Pr520 2.490 . S
O541 C522 1.225 1_554 S
O542 Pr520 2.695 1_455 S
O542 Pr521 2.436 . S
O542 C529 1.270 . S
O543 Pr520 2.512 1_455 S
O543 C529 1.248 . S
O544 Pr521 2.438 . S
O544 C530 1.267 . S
O545 Pr520 2.437 1_455 S
O545 C530 1.278 . S
O546 Pr521 2.562 . S
O546 C531 1.254 . S
O547 Pr521 2.490 . S
O547 C531 1.225 . S
O548 Pr520 2.436 1_455 S
O548 Pr521 2.695 . S
O548 C538 1.270 . S
O549 Pr521 2.512 . S
O549 C538 1.248 . S
O550 Pr520 2.438 . S
O550 C539 1.265 . S
O551 Pr521 2.437 . S
O551 C539 1.280 1_455 S
H552 C524 0.929 . S
H553 C525 0.929 . S
H554 C527 0.931 . S
H555 C528 0.930 . S
H556 C533 0.929 . S
H557 C534 0.929 . S
H558 C536 0.931 . S
H559 C537 0.930 . S
Pr560 C562 2.880 . S
Pr560 O580 2.562 . S
Pr560 O581 2.490 . S
Pr560 O582 2.695 . S
Pr560 O583 2.512 . S
Pr560 O585 2.437 . S
Pr560 O588 2.436 . S
Pr560 O590 2.438 . S
Pr561 C571 2.880 . S
Pr561 O582 2.436 . S
Pr561 O584 2.438 . S
Pr561 O586 2.562 . S
Pr561 O587 2.490 . S
Pr561 O588 2.695 . S
Pr561 O589 2.512 . S
Pr561 O591 2.437 . S
C562 Pr560 2.880 . S
C562 C563 1.491 . S
C562 O580 1.254 . S
C562 O581 1.225 . S
C563 C562 1.491 . S
C563 C564 1.392 . S
C563 C568 1.356 . S
C564 C563 1.392 . S
C564 C565 1.368 . S
C564 H592 0.929 . S
C565 C564 1.368 . S
C565 C566 1.386 . S
C565 H593 0.929 . S
C566 C565 1.386 . S
C566 C567 1.373 . S
C567 C566 1.373 . S
C567 C568 1.409 . S
C567 H594 0.931 . S
C568 C563 1.356 . S
C568 C567 1.409 . S
C568 H595 0.930 . S
C569 O582 1.270 . S
C569 O583 1.248 . S
C570 O584 1.267 . S
C570 O585 1.278 . S
C571 Pr561 2.880 . S
C571 C572 1.491 . S
C571 O586 1.254 . S
C571 O587 1.225 . S
C572 C571 1.491 . S
C572 C573 1.392 . S
C572 C577 1.356 . S
C573 C572 1.392 . S
C573 C574 1.368 . S
C573 H596 0.929 . S
C574 C573 1.368 . S
C574 C575 1.386 . S
C574 H597 0.929 . S
C575 C574 1.386 . S
C575 C576 1.373 . S
C576 C575 1.373 . S
C576 C577 1.409 . S
C576 H598 0.931 . S
C577 C572 1.356 . S
C577 C576 1.409 . S
C577 H599 0.930 . S
C578 O588 1.270 . S
C578 O589 1.248 . S
C579 O590 1.267 . S
C579 O591 1.278 . S
O580 Pr560 2.562 . S
O580 C562 1.254 . S
O581 Pr560 2.490 . S
O581 C562 1.225 . S
O582 Pr560 2.695 . S
O582 Pr561 2.436 . S
O582 C569 1.270 . S
O583 Pr560 2.512 . S
O583 C569 1.248 . S
O584 Pr561 2.438 . S
O584 C570 1.267 . S
O585 Pr560 2.437 . S
O585 C570 1.278 . S
O586 Pr561 2.562 . S
O586 C571 1.254 . S
O587 Pr561 2.490 . S
O587 C571 1.225 . S
O588 Pr560 2.436 . S
O588 Pr561 2.695 . S
O588 C578 1.270 . S
O589 Pr561 2.512 . S
O589 C578 1.248 . S
O590 Pr560 2.438 . S
O590 C579 1.267 . S
O591 Pr561 2.437 . S
O591 C579 1.278 . S
H592 C564 0.929 . S
H593 C565 0.929 . S
H594 C567 0.931 . S
H595 C568 0.930 . S
H596 C573 0.929 . S
H597 C574 0.929 . S
H598 C576 0.931 . S
H599 C577 0.930 . S
Pr600 C602 2.880 1_556 S
Pr600 O620 2.562 1_556 S
Pr600 O621 2.490 . S
Pr600 O622 2.695 1_655 S
Pr600 O623 2.512 . S
Pr600 O625 2.437 1_655 S
Pr600 O628 2.436 1_655 S
Pr600 O630 2.438 . S
Pr601 C611 2.880 . S
Pr601 O622 2.436 . S
Pr601 O624 2.438 . S
Pr601 O626 2.562 . S
Pr601 O627 2.490 . S
Pr601 O628 2.695 . S
Pr601 O629 2.512 . S
Pr601 O631 2.437 . S
C602 Pr600 2.880 1_554 S
C602 C603 1.491 . S
C602 O620 1.254 . S
C602 O621 1.225 1_554 S
C603 C602 1.491 . S
C603 C604 1.392 . S
C603 C608 1.356 . S
C604 C603 1.392 . S
C604 C605 1.368 . S
C604 H632 0.929 . S
C605 C604 1.368 . S
C605 C606 1.386 . S
C605 H633 0.929 . S
C606 C605 1.386 . S
C606 C607 1.373 . S
C607 C606 1.373 . S
C607 C608 1.409 . S
C607 H634 0.931 . S
C608 C603 1.356 . S
C608 C607 1.409 . S
C608 H635 0.930 . S
C609 O622 1.270 . S
C609 O623 1.248 1_455 S
C610 O624 1.267 . S
C610 O625 1.278 . S
C611 Pr601 2.880 . S
C611 C612 1.491 . S
C611 O626 1.254 . S
C611 O627 1.225 . S
C612 C611 1.491 . S
C612 C613 1.392 . S
C612 C617 1.356 . S
C613 C612 1.392 . S
C613 C614 1.368 . S
C613 H636 0.929 . S
C614 C613 1.368 . S
C614 C615 1.386 . S
C614 H637 0.929 . S
C615 C614 1.386 . S
C615 C616 1.373 . S
C616 C615 1.373 . S
C616 C617 1.409 . S
C616 H638 0.931 . S
C617 C612 1.356 . S
C617 C616 1.409 . S
C617 H639 0.930 . S
C618 O628 1.270 . S
C618 O629 1.248 . S
C619 O630 1.267 . S
C619 O631 1.278 1_655 S
O620 Pr600 2.562 1_554 S
O620 C602 1.254 . S
O621 Pr600 2.490 . S
O621 C602 1.225 1_556 S
O622 Pr600 2.695 1_455 S
O622 Pr601 2.436 . S
O622 C609 1.270 . S
O623 Pr600 2.512 . S
O623 C609 1.248 1_655 S
O624 Pr601 2.438 . S
O624 C610 1.267 . S
O625 Pr600 2.437 1_455 S
O625 C610 1.278 . S
O626 Pr601 2.562 . S
O626 C611 1.254 . S
O627 Pr601 2.490 . S
O627 C611 1.225 . S
O628 Pr600 2.436 1_455 S
O628 Pr601 2.695 . S
O628 C618 1.270 . S
O629 Pr601 2.512 . S
O629 C618 1.248 . S
O630 Pr600 2.438 . S
O630 C619 1.267 . S
O631 Pr601 2.437 . S
O631 C619 1.278 1_455 S
H632 C604 0.929 . S
H633 C605 0.929 . S
H634 C607 0.931 . S
H635 C608 0.930 . S
H636 C613 0.929 . S
H637 C614 0.929 . S
H638 C616 0.931 . S
H639 C617 0.930 . S
C640 C641 1.369 1_556 S
C640 C642 1.419 . S
C640 H644 0.930 1_556 S
C641 C640 1.369 1_554 S
C641 C650 1.429 . S
C642 C640 1.419 . S
C642 C643 1.363 . S
C642 H645 0.929 . S
C643 C642 1.363 . S
C643 C649 1.428 . S
H644 C640 0.930 1_554 S
H645 C642 0.929 . S
S646 N647 1.613 . S
S646 N648 1.610 1_554 S
N647 S646 1.613 . S
N647 C650 1.350 . S
N648 S646 1.610 1_556 S
N648 C649 1.351 . S
C649 C643 1.428 . S
C649 N648 1.351 . S
C649 C650 1.434 1_556 S
C650 C641 1.429 . S
C650 N647 1.350 . S
C650 C649 1.434 1_554 S
C651 C652 1.369 . S
C651 C653 1.419 . S
C651 H655 0.930 . S
C652 C651 1.369 . S
C652 C661 1.429 . S
C653 C651 1.419 . S
C653 C654 1.363 . S
C653 H656 0.929 . S
C654 C653 1.363 . S
C654 C660 1.428 . S
H655 C651 0.930 . S
H656 C653 0.929 . S
S657 N658 1.613 . S
S657 N659 1.610 . S
N658 S657 1.613 . S
N658 C661 1.350 . S
N659 S657 1.610 . S
N659 C660 1.351 . S
C660 C654 1.428 . S
C660 N659 1.351 . S
C660 C661 1.434 . S
C661 C652 1.429 . S
C661 N658 1.350 . S
C661 C660 1.434 . S
C662 C663 1.369 . S
C662 C664 1.419 . S
C662 H666 0.930 . S
C663 C662 1.369 . S
C663 C672 1.429 . S
C664 C662 1.419 . S
C664 C665 1.363 . S
C664 H667 0.929 . S
C665 C664 1.363 . S
C665 C671 1.428 . S
H666 C662 0.930 . S
H667 C664 0.929 . S
S668 N669 1.613 . S
S668 N670 1.610 . S
N669 S668 1.613 . S
N669 C672 1.350 . S
N670 S668 1.610 . S
N670 C671 1.351 . S
C671 C665 1.428 . S
C671 N670 1.351 . S
C671 C672 1.434 . S
C672 C663 1.429 . S
C672 N669 1.350 . S
C672 C671 1.434 . S
C673 C674 1.369 . S
C673 C675 1.419 . S
C673 H677 0.930 . S
C674 C673 1.369 . S
C674 C683 1.429 . S
C675 C673 1.419 . S
C675 C676 1.363 . S
C675 H678 0.929 . S
C676 C675 1.363 . S
C676 C682 1.428 . S
H677 C673 0.930 . S
H678 C675 0.929 . S
S679 N680 1.613 . S
S679 N681 1.610 . S
N680 S679 1.613 . S
N680 C683 1.350 . S
N681 S679 1.610 . S
N681 C682 1.351 . S
C682 C676 1.428 . S
C682 N681 1.351 . S
C682 C683 1.434 . S
C683 C674 1.429 . S
C683 N680 1.350 . S
C683 C682 1.434 . S
C684 C685 1.369 . S
C684 C686 1.419 . S
C684 H688 0.930 . S
C685 C684 1.369 . S
C685 C694 1.429 . S
C686 C684 1.419 . S
C686 C687 1.363 . S
C686 H689 0.929 1_554 S
C687 C686 1.363 . S
C687 C693 1.428 . S
H688 C684 0.930 . S
H689 C686 0.929 1_556 S
S690 N691 1.613 . S
S690 N692 1.610 . S
N691 S690 1.613 . S
N691 C694 1.350 . S
N692 S690 1.610 . S
N692 C693 1.351 . S
C693 C687 1.428 . S
C693 N692 1.351 . S
C693 C694 1.434 . S
C694 C685 1.429 . S
C694 N691 1.350 . S
C694 C693 1.434 . S
C695 C696 1.369 . S
C695 C697 1.419 . S
C695 H699 0.930 . S
C696 C695 1.369 . S
C696 C705 1.429 . S
C697 C695 1.419 . S
C697 C698 1.363 . S
C697 H700 0.929 . S
C698 C697 1.363 . S
C698 C704 1.428 . S
H699 C695 0.930 . S
H700 C697 0.929 . S
S701 N702 1.613 . S
S701 N703 1.610 . S
N702 S701 1.613 . S
N702 C705 1.350 . S
N703 S701 1.610 . S
N703 C704 1.351 . S
C704 C698 1.428 . S
C704 N703 1.351 . S
C704 C705 1.434 . S
C705 C696 1.429 . S
C705 N702 1.350 . S
C705 C704 1.434 . S
C706 C707 1.369 . S
C706 C708 1.419 . S
C706 H710 0.930 . S
C707 C706 1.369 . S
C707 C716 1.429 . S
C708 C706 1.419 . S
C708 C709 1.363 . S
C708 H711 0.929 . S
C709 C708 1.363 . S
C709 C715 1.428 . S
H710 C706 0.930 . S
H711 C708 0.929 . S
S712 N713 1.613 . S
S712 N714 1.610 . S
N713 S712 1.613 . S
N713 C716 1.350 . S
N714 S712 1.610 . S
N714 C715 1.351 . S
C715 C709 1.428 . S
C715 N714 1.351 . S
C715 C716 1.434 . S
C716 C707 1.429 . S
C716 N713 1.350 . S
C716 C715 1.434 . S
C717 C718 1.369 . S
C717 C719 1.419 . S
C717 H721 0.930 . S
C718 C717 1.369 . S
C718 C727 1.429 . S
C719 C717 1.419 . S
C719 C720 1.363 . S
C719 H722 0.929 . S
C720 C719 1.363 . S
C720 C726 1.428 . S
H721 C717 0.930 . S
H722 C719 0.929 . S
S723 N724 1.613 . S
S723 N725 1.610 . S
N724 S723 1.613 . S
N724 C727 1.350 . S
N725 S723 1.610 . S
N725 C726 1.351 . S
C726 C720 1.428 . S
C726 N725 1.351 . S
C726 C727 1.434 . S
C727 C718 1.429 . S
C727 N724 1.350 . S
C727 C726 1.434 . S
C728 C729 1.369 . S
C728 C730 1.419 . S
C728 H732 0.930 . S
C729 C728 1.369 . S
C729 C738 1.429 . S
C730 C728 1.419 . S
C730 C731 1.363 . S
C730 H733 0.929 . S
C731 C730 1.363 . S
C731 C737 1.428 . S
H732 C728 0.930 . S
H733 C730 0.929 . S
S734 N735 1.613 . S
S734 N736 1.610 . S
N735 S734 1.613 . S
N735 C738 1.350 . S
N736 S734 1.610 . S
N736 C737 1.351 . S
C737 C731 1.428 . S
C737 N736 1.351 . S
C737 C738 1.434 . S
C738 C729 1.429 . S
C738 N735 1.350 . S
C738 C737 1.434 . S
C739 C740 1.369 . S
C739 C741 1.419 . S
C739 H743 0.930 . S
C740 C739 1.369 . S
C740 C749 1.429 . S
C741 C739 1.419 . S
C741 C742 1.363 . S
C741 H744 0.929 . S
C742 C741 1.363 . S
C742 C748 1.428 . S
H743 C739 0.930 . S
H744 C741 0.929 . S
S745 N746 1.613 . S
S745 N747 1.610 . S
N746 S745 1.613 . S
N746 C749 1.350 . S
N747 S745 1.610 . S
N747 C748 1.351 . S
C748 C742 1.428 . S
C748 N747 1.351 . S
C748 C749 1.434 . S
C749 C740 1.429 . S
C749 N746 1.350 . S
C749 C748 1.434 . S
C750 C751 1.369 . S
C750 C752 1.419 . S
C750 H754 0.930 . S
C751 C750 1.369 . S
C751 C760 1.429 . S
C752 C750 1.419 . S
C752 C753 1.363 . S
C752 H755 0.929 . S
C753 C752 1.363 . S
C753 C759 1.428 . S
H754 C750 0.930 . S
H755 C752 0.929 . S
S756 N757 1.613 . S
S756 N758 1.610 . S
N757 S756 1.613 . S
N757 C760 1.350 . S
N758 S756 1.610 . S
N758 C759 1.351 . S
C759 C753 1.428 . S
C759 N758 1.351 . S
C759 C760 1.434 . S
C760 C751 1.429 . S
C760 N757 1.350 . S
C760 C759 1.434 . S
C761 C762 1.369 . S
C761 C763 1.419 . S
C761 H765 0.930 . S
C762 C761 1.369 . S
C762 C771 1.429 . S
C763 C761 1.419 . S
C763 C764 1.363 . S
C763 H766 0.929 . S
C764 C763 1.363 . S
C764 C770 1.428 . S
H765 C761 0.930 . S
H766 C763 0.929 . S
S767 N768 1.613 . S
S767 N769 1.610 . S
N768 S767 1.613 . S
N768 C771 1.350 . S
N769 S767 1.610 . S
N769 C770 1.351 . S
C770 C764 1.428 . S
C770 N769 1.351 . S
C770 C771 1.434 . S
C771 C762 1.429 . S
C771 N768 1.350 . S
C771 C770 1.434 . S
C772 C773 1.369 . S
C772 C774 1.419 . S
C772 H776 0.930 . S
C773 C772 1.369 . S
C773 C782 1.429 . S
C774 C772 1.419 . S
C774 C775 1.363 . S
C774 H777 0.929 . S
C775 C774 1.363 . S
C775 C781 1.428 . S
H776 C772 0.930 . S
H777 C774 0.929 . S
S778 N779 1.613 . S
S778 N780 1.610 . S
N779 S778 1.613 . S
N779 C782 1.350 . S
N780 S778 1.610 . S
N780 C781 1.351 . S
C781 C775 1.428 . S
C781 N780 1.351 . S
C781 C782 1.434 . S
C782 C773 1.429 . S
C782 N779 1.350 . S
C782 C781 1.434 . S
C783 C784 1.369 . S
C783 C785 1.419 . S
C783 H787 0.930 . S
C784 C783 1.369 . S
C784 C793 1.429 . S
C785 C783 1.419 . S
C785 C786 1.363 . S
C785 H788 0.929 . S
C786 C785 1.363 . S
C786 C792 1.428 . S
H787 C783 0.930 . S
H788 C785 0.929 . S
S789 N790 1.613 . S
S789 N791 1.610 . S
N790 S789 1.613 . S
N790 C793 1.350 . S
N791 S789 1.610 . S
N791 C792 1.351 . S
C792 C786 1.428 . S
C792 N791 1.351 . S
C792 C793 1.434 . S
C793 C784 1.429 . S
C793 N790 1.350 . S
C793 C792 1.434 . S
C794 C795 1.369 . S
C794 C796 1.419 1_554 S
C794 H798 0.930 . S
C795 C794 1.369 . S
C795 C804 1.429 . S
C796 C794 1.419 1_556 S
C796 C797 1.363 . S
C796 H799 0.929 . S
C797 C796 1.363 . S
C797 C803 1.428 1_556 S
H798 C794 0.930 . S
H799 C796 0.929 . S
S800 N801 1.613 . S
S800 N802 1.610 . S
N801 S800 1.613 . S
N801 C804 1.350 . S
N802 S800 1.610 . S
N802 C803 1.351 . S
C803 C797 1.428 1_554 S
C803 N802 1.351 . S
C803 C804 1.434 . S
C804 C795 1.429 . S
C804 N801 1.350 . S
C804 C803 1.434 . S
C805 C806 1.369 . S
C805 C807 1.419 . S
C805 H809 0.930 . S
C806 C805 1.369 . S
C806 C815 1.429 . S
C807 C805 1.419 . S
C807 C808 1.363 . S
C807 H810 0.929 . S
C808 C807 1.363 . S
C808 C814 1.428 . S
H809 C805 0.930 . S
H810 C807 0.929 . S
S811 N812 1.613 . S
S811 N813 1.610 . S
N812 S811 1.613 . S
N812 C815 1.350 . S
N813 S811 1.610 . S
N813 C814 1.351 . S
C814 C808 1.428 . S
C814 N813 1.351 . S
C814 C815 1.434 . S
C815 C806 1.429 . S
C815 N812 1.350 . S
C815 C814 1.434 . S
C816 C817 1.369 . S
C816 C818 1.419 . S
C816 H820 0.930 1_455 S
C817 C816 1.369 . S
C817 C826 1.429 . S
C818 C816 1.419 . S
C818 C819 1.363 . S
C818 H821 0.929 1_455 S
C819 C818 1.363 . S
C819 C825 1.428 . S
H820 C816 0.930 1_655 S
H821 C818 0.929 1_655 S
S822 N823 1.613 . S
S822 N824 1.610 . S
N823 S822 1.613 . S
N823 C826 1.350 . S
N824 S822 1.610 . S
N824 C825 1.351 . S
C825 C819 1.428 . S
C825 N824 1.351 . S
C825 C826 1.434 . S
C826 C817 1.429 . S
C826 N823 1.350 . S
C826 C825 1.434 . S
C827 C828 1.354 1_455 S
C827 C829 1.442 . S
C827 H831 0.922 1_455 S
C828 C827 1.354 1_655 S
C828 C837 1.429 . S
C829 C827 1.442 . S
C829 C830 1.363 . S
C829 H832 0.929 . S
C830 C829 1.363 . S
C830 C836 1.428 . S
H831 C827 0.922 1_655 S
H832 C829 0.929 . S
S833 N834 1.613 . S
S833 N835 1.610 1_655 S
N834 S833 1.613 . S
N834 C837 1.350 . S
N835 S833 1.610 1_455 S
N835 C836 1.351 . S
C836 C830 1.428 . S
C836 N835 1.351 . S
C836 C837 1.434 1_455 S
C837 C828 1.429 . S
C837 N834 1.350 . S
C837 C836 1.434 1_655 S
C838 C839 1.369 . S
C838 C840 1.419 . S
C838 H842 0.930 . S
C839 C838 1.369 . S
C839 C848 1.429 . S
C840 C838 1.419 . S
C840 C841 1.363 . S
C840 H843 0.929 . S
C841 C840 1.363 . S
C841 C847 1.428 . S
H842 C838 0.930 . S
H843 C840 0.929 . S
S844 N845 1.613 . S
S844 N846 1.610 . S
N845 S844 1.613 . S
N845 C848 1.350 . S
N846 S844 1.610 . S
N846 C847 1.351 . S
C847 C841 1.428 . S
C847 N846 1.351 . S
C847 C848 1.434 . S
C848 C839 1.429 . S
C848 N845 1.350 . S
C848 C847 1.434 . S
C849 C850 1.369 . S
C849 C851 1.419 . S
C849 H853 0.930 . S
C850 C849 1.369 . S
C850 C859 1.429 . S
C851 C849 1.419 . S
C851 C852 1.363 . S
C851 H854 0.929 . S
C852 C851 1.363 . S
C852 C858 1.428 . S
H853 C849 0.930 . S
H854 C851 0.929 . S
S855 N856 1.613 . S
S855 N857 1.610 . S
N856 S855 1.613 . S
N856 C859 1.350 . S
N857 S855 1.610 . S
N857 C858 1.351 . S
C858 C852 1.428 . S
C858 N857 1.351 . S
C858 C859 1.434 . S
C859 C850 1.429 . S
C859 N856 1.350 . S
C859 C858 1.434 . S
C860 C861 1.369 . S
C860 C862 1.419 . S
C860 H864 0.930 . S
C861 C860 1.369 . S
C861 C870 1.429 1_455 S
C862 C860 1.419 . S
C862 C863 1.363 . S
C862 H865 0.929 . S
C863 C862 1.363 . S
C863 C869 1.428 1_455 S
H864 C860 0.930 . S
H865 C862 0.929 . S
S866 N867 1.613 . S
S866 N868 1.610 . S
N867 S866 1.613 . S
N867 C870 1.350 . S
N868 S866 1.610 . S
N868 C869 1.351 . S
C869 C863 1.428 1_655 S
C869 N868 1.351 . S
C869 C870 1.434 . S
C870 C861 1.429 1_655 S
C870 N867 1.350 . S
C870 C869 1.434 . S
C871 C872 1.369 . S
C871 C873 1.419 . S
C871 H875 0.930 . S
C872 C871 1.369 . S
C872 C881 1.429 . S
C873 C871 1.419 . S
C873 C874 1.363 . S
C873 H876 0.929 . S
C874 C873 1.363 . S
C874 C880 1.428 . S
H875 C871 0.930 . S
H876 C873 0.929 . S
S877 N878 1.613 . S
S877 N879 1.610 . S
N878 S877 1.613 . S
N878 C881 1.350 . S
N879 S877 1.610 . S
N879 C880 1.351 . S
C880 C874 1.428 . S
C880 N879 1.351 . S
C880 C881 1.434 . S
C881 C872 1.429 . S
C881 N878 1.350 . S
C881 C880 1.434 . S
C882 C883 1.369 . S
C882 C884 1.419 . S
C882 H886 0.930 . S
C883 C882 1.369 . S
C883 C892 1.429 . S
C884 C882 1.419 . S
C884 C885 1.363 . S
C884 H887 0.929 . S
C885 C884 1.363 . S
C885 C891 1.428 . S
H886 C882 0.930 . S
H887 C884 0.929 . S
S888 N889 1.613 . S
S888 N890 1.610 . S
N889 S888 1.613 . S
N889 C892 1.350 . S
N890 S888 1.610 . S
N890 C891 1.351 . S
C891 C885 1.428 . S
C891 N890 1.351 . S
C891 C892 1.434 . S
C892 C883 1.429 . S
C892 N889 1.350 . S
C892 C891 1.434 . S
C893 C894 1.369 . S
C893 C895 1.419 1_455 S
C893 H897 0.921 1_455 S
C894 C893 1.369 . S
C894 C903 1.429 . S
C895 C893 1.419 1_655 S
C895 C896 1.363 1_655 S
C895 H898 0.929 . S
C896 C895 1.363 1_455 S
C896 C902 1.428 . S
H897 C893 0.921 1_655 S
H898 C895 0.929 . S
S899 N900 1.613 . S
S899 N901 1.610 . S
N900 S899 1.613 . S
N900 C903 1.350 . S
N901 S899 1.610 . S
N901 C902 1.351 . S
C902 C896 1.428 . S
C902 N901 1.351 . S
C902 C903 1.434 . S
C903 C894 1.429 . S
C903 N900 1.350 . S
C903 C902 1.434 . S
C904 C905 1.369 . S
C904 C906 1.419 1_554 S
C904 H908 0.930 . S
C905 C904 1.369 . S
C905 C914 1.429 1_445 S
C906 C904 1.419 1_556 S
C906 C907 1.363 1_545 S
C906 H909 0.929 . S
C907 C906 1.363 1_565 S
C907 C913 1.428 1_455 S
H908 C904 0.930 . S
H909 C906 0.929 . S
S910 N911 1.613 . S
S910 N912 1.610 1_554 S
N911 S910 1.613 . S
N911 C914 1.350 . S
N912 S910 1.610 1_556 S
N912 C913 1.351 . S
C913 C907 1.428 1_655 S
C913 N912 1.351 . S
C913 C914 1.434 1_556 S
C914 C905 1.429 1_665 S
C914 N911 1.350 . S
C914 C913 1.434 1_554 S
C915 C916 1.369 . S
C915 C917 1.419 . S
C915 H919 0.930 . S
C916 C915 1.369 . S
C916 C925 1.429 . S
C917 C915 1.419 . S
C917 C918 1.363 . S
C917 H920 0.929 . S
C918 C917 1.363 . S
C918 C924 1.428 . S
H919 C915 0.930 . S
H920 C917 0.929 . S
S921 N922 1.613 . S
S921 N923 1.610 . S
N922 S921 1.613 . S
N922 C925 1.350 . S
N923 S921 1.610 . S
N923 C924 1.351 . S
C924 C918 1.428 . S
C924 N923 1.351 . S
C924 C925 1.434 . S
C925 C916 1.429 . S
C925 N922 1.350 . S
C925 C924 1.434 . S
C926 C927 1.369 1_565 S
C926 C928 1.419 . S
C926 H930 0.930 . S
C927 C926 1.369 1_545 S
C927 C936 1.429 . S
C928 C926 1.419 . S
C928 C929 1.363 1_565 S
C928 H931 0.929 . S
C929 C928 1.363 1_545 S
C929 C935 1.428 . S
H930 C926 0.930 . S
H931 C928 0.929 . S
S932 N933 1.613 . S
S932 N934 1.610 . S
N933 S932 1.613 . S
N933 C936 1.350 . S
N934 S932 1.610 . S
N934 C935 1.351 . S
C935 C929 1.428 . S
C935 N934 1.351 . S
C935 C936 1.434 . S
C936 C927 1.429 . S
C936 N933 1.350 . S
C936 C935 1.434 . S
C937 C938 1.369 . S
C937 C939 1.419 . S
C937 H941 0.930 . S
C938 C937 1.369 . S
C938 C947 1.429 . S
C939 C937 1.419 . S
C939 C940 1.363 . S
C939 H942 0.929 . S
C940 C939 1.363 . S
C940 C946 1.428 . S
H941 C937 0.930 . S
H942 C939 0.929 . S
S943 N944 1.613 . S
S943 N945 1.610 . S
N944 S943 1.613 . S
N944 C947 1.350 . S
N945 S943 1.610 . S
N945 C946 1.351 . S
C946 C940 1.428 . S
C946 N945 1.351 . S
C946 C947 1.434 . S
C947 C938 1.429 . S
C947 N944 1.350 . S
C947 C946 1.434 . S
C948 C949 1.369 . S
C948 C950 1.419 . S
C948 H952 0.930 . S
C949 C948 1.369 . S
C949 C958 1.429 . S
C950 C948 1.419 . S
C950 C951 1.363 . S
C950 H953 0.929 . S
C951 C950 1.363 . S
C951 C957 1.428 . S
H952 C948 0.930 . S
H953 C950 0.929 . S
S954 N955 1.613 . S
S954 N956 1.610 . S
N955 S954 1.613 . S
N955 C958 1.350 . S
N956 S954 1.610 . S
N956 C957 1.351 . S
C957 C951 1.428 . S
C957 N956 1.351 . S
C957 C958 1.434 . S
C958 C949 1.429 . S
C958 N955 1.350 . S
C958 C957 1.434 . S
C959 C960 1.369 . S
C959 C961 1.419 . S
C959 H963 0.930 . S
C960 C959 1.369 . S
C960 C969 1.429 . S
C961 C959 1.419 . S
C961 C962 1.363 . S
C961 H964 0.929 . S
C962 C961 1.363 . S
C962 C968 1.428 . S
H963 C959 0.930 . S
H964 C961 0.929 . S
S965 N966 1.613 . S
S965 N967 1.610 . S
N966 S965 1.613 . S
N966 C969 1.350 . S
N967 S965 1.610 . S
N967 C968 1.351 . S
C968 C962 1.428 . S
C968 N967 1.351 . S
C968 C969 1.434 . S
C969 C960 1.429 . S
C969 N966 1.350 . S
C969 C968 1.434 . S
C970 C971 1.369 . S
C970 C972 1.419 . S
C970 H974 0.930 . S
C971 C970 1.369 . S
C971 C980 1.429 . S
C972 C970 1.419 . S
C972 C973 1.363 . S
C972 H975 0.929 . S
C973 C972 1.363 . S
C973 C979 1.428 . S
H974 C970 0.930 . S
H975 C972 0.929 . S
S976 N977 1.613 . S
S976 N978 1.610 . S
N977 S976 1.613 . S
N977 C980 1.350 . S
N978 S976 1.610 . S
N978 C979 1.351 . S
C979 C973 1.428 . S
C979 N978 1.351 . S
C979 C980 1.434 . S
C980 C971 1.429 . S
C980 N977 1.350 . S
C980 C979 1.434 . S
C981 C982 1.369 . S
C981 C983 1.419 1_556 S
C981 H985 0.930 . S
C982 C981 1.369 . S
C982 C991 1.429 . S
C983 C981 1.419 1_554 S
C983 C984 1.363 . S
C983 H986 0.929 . S
C984 C983 1.363 . S
C984 C990 1.428 . S
H985 C981 0.930 . S
H986 C983 0.929 . S
S987 N988 1.613 1_654 S
S987 N989 1.610 1_655 S
N988 S987 1.613 1_456 S
N988 C991 1.350 . S
N989 S987 1.610 1_455 S
N989 C990 1.351 . S
C990 C984 1.428 . S
C990 N989 1.351 . S
C990 C991 1.434 1_554 S
C991 C982 1.429 . S
C991 N988 1.350 . S
C991 C990 1.434 1_556 S
C992 C993 1.369 . S
C992 C994 1.419 . S
C992 H996 0.930 . S
C993 C992 1.369 . S
C993 C1002 1.429 . S
C994 C992 1.419 . S
C994 C995 1.363 . S
C994 H997 0.929 . S
C995 C994 1.363 . S
C995 C1001 1.428 . S
H996 C992 0.930 . S
H997 C994 0.929 . S
S998 N999 1.613 . S
S998 N1000 1.610 . S
N999 S998 1.613 . S
N999 C1002 1.350 . S
N1000 S998 1.610 . S
N1000 C1001 1.351 . S
C1001 C995 1.428 . S
C1001 N1000 1.351 . S
C1001 C1002 1.434 . S
C1002 C993 1.429 . S
C1002 N999 1.350 . S
C1002 C1001 1.434 . S
C1003 C1004 1.369 . S
C1003 C1005 1.419 . S
C1003 H1007 0.930 . S
C1004 C1003 1.369 . S
C1004 C1013 1.429 . S
C1005 C1003 1.419 . S
C1005 C1006 1.363 . S
C1005 H1008 0.929 . S
C1006 C1005 1.363 . S
C1006 C1012 1.428 . S
H1007 C1003 0.930 . S
H1008 C1005 0.929 . S
S1009 N1010 1.613 . S
S1009 N1011 1.610 . S
N1010 S1009 1.613 . S
N1010 C1013 1.350 . S
N1011 S1009 1.610 . S
N1011 C1012 1.351 . S
C1012 C1006 1.428 . S
C1012 N1011 1.351 . S
C1012 C1013 1.434 . S
C1013 C1004 1.429 . S
C1013 N1010 1.350 . S
C1013 C1012 1.434 . S
C1014 C1015 1.369 . S
C1014 C1016 1.419 . S
C1014 H1018 0.930 . S
C1015 C1014 1.369 . S
C1015 C1024 1.429 . S
C1016 C1014 1.419 . S
C1016 C1017 1.363 . S
C1016 H1019 0.929 . S
C1017 C1016 1.363 . S
C1017 C1023 1.428 . S
H1018 C1014 0.930 . S
H1019 C1016 0.929 . S
S1020 N1021 1.613 . S
S1020 N1022 1.610 . S
N1021 S1020 1.613 . S
N1021 C1024 1.350 . S
N1022 S1020 1.610 . S
N1022 C1023 1.351 . S
C1023 C1017 1.428 . S
C1023 N1022 1.351 . S
C1023 C1024 1.434 . S
C1024 C1015 1.429 . S
C1024 N1021 1.350 . S
C1024 C1023 1.434 . S
C1025 C1026 1.369 . S
C1025 C1027 1.419 . S
C1025 H1029 0.930 . S
C1026 C1025 1.369 . S
C1026 C1035 1.429 . S
C1027 C1025 1.419 . S
C1027 C1028 1.363 . S
C1027 H1030 0.929 . S
C1028 C1027 1.363 . S
C1028 C1034 1.428 . S
H1029 C1025 0.930 . S
H1030 C1027 0.929 . S
S1031 N1032 1.613 . S
S1031 N1033 1.610 . S
N1032 S1031 1.613 . S
N1032 C1035 1.350 . S
N1033 S1031 1.610 . S
N1033 C1034 1.351 . S
C1034 C1028 1.428 . S
C1034 N1033 1.351 . S
C1034 C1035 1.434 . S
C1035 C1026 1.429 . S
C1035 N1032 1.350 . S
C1035 C1034 1.434 . S
C1036 C1037 1.369 . S
C1036 C1038 1.419 . S
C1036 H1040 0.930 . S
C1037 C1036 1.369 . S
C1037 C1046 1.429 . S
C1038 C1036 1.419 . S
C1038 C1039 1.363 . S
C1038 H1041 0.929 . S
C1039 C1038 1.363 . S
C1039 C1045 1.428 . S
H1040 C1036 0.930 . S
H1041 C1038 0.929 . S
S1042 N1043 1.613 . S
S1042 N1044 1.610 . S
N1043 S1042 1.613 . S
N1043 C1046 1.350 . S
N1044 S1042 1.610 . S
N1044 C1045 1.351 . S
C1045 C1039 1.428 . S
C1045 N1044 1.351 . S
C1045 C1046 1.434 . S
C1046 C1037 1.429 . S
C1046 N1043 1.350 . S
C1046 C1045 1.434 . S
C1047 C1048 1.369 . S
C1047 C1049 1.419 . S
C1047 H1051 0.930 . S
C1048 C1047 1.369 . S
C1048 C1057 1.429 . S
C1049 C1047 1.419 . S
C1049 C1050 1.363 . S
C1049 H1052 0.929 . S
C1050 C1049 1.363 . S
C1050 C1056 1.428 . S
H1051 C1047 0.930 . S
H1052 C1049 0.929 . S
S1053 N1054 1.613 . S
S1053 N1055 1.610 . S
N1054 S1053 1.613 . S
N1054 C1057 1.350 . S
N1055 S1053 1.610 . S
N1055 C1056 1.351 . S
C1056 C1050 1.428 . S
C1056 N1055 1.351 . S
C1056 C1057 1.434 . S
C1057 C1048 1.429 . S
C1057 N1054 1.350 . S
C1057 C1056 1.434 . S
C1058 C1059 1.369 1_554 S
C1058 C1060 1.419 . S
C1058 H1062 0.930 . S
C1059 C1058 1.369 1_556 S
C1059 C1068 1.429 . S
C1060 C1058 1.419 . S
C1060 C1061 1.363 . S
C1060 H1063 0.929 . S
C1061 C1060 1.363 . S
C1061 C1067 1.428 . S
H1062 C1058 0.930 . S
H1063 C1060 0.929 . S
S1064 N1065 1.613 . S
S1064 N1066 1.610 . S
N1065 S1064 1.613 . S
N1065 C1068 1.350 . S
N1066 S1064 1.610 . S
N1066 C1067 1.351 1_556 S
C1067 C1061 1.428 . S
C1067 N1066 1.351 1_554 S
C1067 C1068 1.434 1_554 S
C1068 C1059 1.429 . S
C1068 N1065 1.350 . S
C1068 C1067 1.434 1_556 S
C1069 C1070 1.369 . S
C1069 C1071 1.419 . S
C1069 H1073 0.930 . S
C1070 C1069 1.369 . S
C1070 C1079 1.429 . S
C1071 C1069 1.419 . S
C1071 C1072 1.363 . S
C1071 H1074 0.929 . S
C1072 C1071 1.363 . S
C1072 C1078 1.428 . S
H1073 C1069 0.930 . S
H1074 C1071 0.929 . S
S1075 N1076 1.613 . S
S1075 N1077 1.610 . S
N1076 S1075 1.613 . S
N1076 C1079 1.350 . S
N1077 S1075 1.610 . S
N1077 C1078 1.351 . S
C1078 C1072 1.428 . S
C1078 N1077 1.351 . S
C1078 C1079 1.434 . S
C1079 C1070 1.429 . S
C1079 N1076 1.350 . S
C1079 C1078 1.434 . S
C1080 C1081 1.369 . S
C1080 C1082 1.419 . S
C1080 H1084 0.930 . S
C1081 C1080 1.369 . S
C1081 C1090 1.429 . S
C1082 C1080 1.419 . S
C1082 C1083 1.363 1_556 S
C1082 H1085 0.929 1_556 S
C1083 C1082 1.363 1_554 S
C1083 C1089 1.428 . S
H1084 C1080 0.930 . S
H1085 C1082 0.929 1_554 S
S1086 N1087 1.613 1_554 S
S1086 N1088 1.610 . S
N1087 S1086 1.613 1_556 S
N1087 C1090 1.350 . S
N1088 S1086 1.610 . S
N1088 C1089 1.351 . S
C1089 C1083 1.428 . S
C1089 N1088 1.351 . S
C1089 C1090 1.434 1_554 S
C1090 C1081 1.429 . S
C1090 N1087 1.350 . S
C1090 C1089 1.434 1_556 S
C1091 C1092 1.369 . S
C1091 C1093 1.419 . S
C1091 H1095 0.930 . S
C1092 C1091 1.369 . S
C1092 C1101 1.429 . S
C1093 C1091 1.419 . S
C1093 C1094 1.363 . S
C1093 H1096 0.929 . S
C1094 C1093 1.363 . S
C1094 C1100 1.428 . S
H1095 C1091 0.930 . S
H1096 C1093 0.929 . S
S1097 N1098 1.613 . S
S1097 N1099 1.610 . S
N1098 S1097 1.613 . S
N1098 C1101 1.350 . S
N1099 S1097 1.610 . S
N1099 C1100 1.351 . S
C1100 C1094 1.428 . S
C1100 N1099 1.351 . S
C1100 C1101 1.434 . S
C1101 C1092 1.429 . S
C1101 N1098 1.350 . S
C1101 C1100 1.434 . S
C1102 C1103 1.369 . S
C1102 C1104 1.419 . S
C1102 H1106 0.930 . S
C1103 C1102 1.369 . S
C1103 C1112 1.429 . S
C1104 C1102 1.419 . S
C1104 C1105 1.363 . S
C1104 H1107 0.929 . S
C1105 C1104 1.363 . S
C1105 C1111 1.428 . S
H1106 C1102 0.930 . S
H1107 C1104 0.929 . S
S1108 N1109 1.613 . S
S1108 N1110 1.610 . S
N1109 S1108 1.613 . S
N1109 C1112 1.350 . S
N1110 S1108 1.610 . S
N1110 C1111 1.351 . S
C1111 C1105 1.428 . S
C1111 N1110 1.351 . S
C1111 C1112 1.434 . S
C1112 C1103 1.429 . S
C1112 N1109 1.350 . S
C1112 C1111 1.434 . S
C1113 C1114 1.369 . S
C1113 C1115 1.419 . S
C1113 H1117 0.930 . S
C1114 C1113 1.369 . S
C1114 C1123 1.429 . S
C1115 C1113 1.419 . S
C1115 C1116 1.363 . S
C1115 H1118 0.929 . S
C1116 C1115 1.363 . S
C1116 C1122 1.428 . S
H1117 C1113 0.930 . S
H1118 C1115 0.929 . S
S1119 N1120 1.613 . S
S1119 N1121 1.610 . S
N1120 S1119 1.613 . S
N1120 C1123 1.350 . S
N1121 S1119 1.610 . S
N1121 C1122 1.351 . S
C1122 C1116 1.428 . S
C1122 N1121 1.351 . S
C1122 C1123 1.434 . S
C1123 C1114 1.429 . S
C1123 N1120 1.350 . S
C1123 C1122 1.434 . S
C1124 C1125 1.369 . S
C1124 C1126 1.419 . S
C1124 H1128 0.930 . S
C1125 C1124 1.369 . S
C1125 C1134 1.429 . S
C1126 C1124 1.419 . S
C1126 C1127 1.363 . S
C1126 H1129 0.929 . S
C1127 C1126 1.363 . S
C1127 C1133 1.428 . S
H1128 C1124 0.930 . S
H1129 C1126 0.929 . S
S1130 N1131 1.613 . S
S1130 N1132 1.610 . S
N1131 S1130 1.613 . S
N1131 C1134 1.350 . S
N1132 S1130 1.610 . S
N1132 C1133 1.351 . S
C1133 C1127 1.428 . S
C1133 N1132 1.351 . S
C1133 C1134 1.434 . S
C1134 C1125 1.429 . S
C1134 N1131 1.350 . S
C1134 C1133 1.434 . S
C1135 C1136 1.369 . S
C1135 C1137 1.419 . S
C1135 H1139 0.930 . S
C1136 C1135 1.369 . S
C1136 C1145 1.429 . S
C1137 C1135 1.419 . S
C1137 C1138 1.363 . S
C1137 H1140 0.929 . S
C1138 C1137 1.363 . S
C1138 C1144 1.428 . S
H1139 C1135 0.930 . S
H1140 C1137 0.929 . S
S1141 N1142 1.613 . S
S1141 N1143 1.610 . S
N1142 S1141 1.613 . S
N1142 C1145 1.350 . S
N1143 S1141 1.610 . S
N1143 C1144 1.351 . S
C1144 C1138 1.428 . S
C1144 N1143 1.351 . S
C1144 C1145 1.434 . S
C1145 C1136 1.429 . S
C1145 N1142 1.350 . S
C1145 C1144 1.434 . S
C1146 C1147 1.369 . S
C1146 C1148 1.419 . S
C1146 H1150 0.930 . S
C1147 C1146 1.369 . S
C1147 C1156 1.429 . S
C1148 C1146 1.419 . S
C1148 C1149 1.363 . S
C1148 H1151 0.929 . S
C1149 C1148 1.363 . S
C1149 C1155 1.428 . S
H1150 C1146 0.930 . S
H1151 C1148 0.929 . S
S1152 N1153 1.613 . S
S1152 N1154 1.610 . S
N1153 S1152 1.613 . S
N1153 C1156 1.350 . S
N1154 S1152 1.610 . S
N1154 C1155 1.351 . S
C1155 C1149 1.428 . S
C1155 N1154 1.351 . S
C1155 C1156 1.434 . S
C1156 C1147 1.429 . S
C1156 N1153 1.350 . S
C1156 C1155 1.434 . S
C1157 C1158 1.369 . S
C1157 C1159 1.419 . S
C1157 H1161 0.930 . S
C1158 C1157 1.369 . S
C1158 C1167 1.429 . S
C1159 C1157 1.419 . S
C1159 C1160 1.363 . S
C1159 H1162 0.929 . S
C1160 C1159 1.363 . S
C1160 C1166 1.428 . S
H1161 C1157 0.930 . S
H1162 C1159 0.929 . S
S1163 N1164 1.613 . S
S1163 N1165 1.610 . S
N1164 S1163 1.613 . S
N1164 C1167 1.350 . S
N1165 S1163 1.610 . S
N1165 C1166 1.351 . S
C1166 C1160 1.428 . S
C1166 N1165 1.351 . S
C1166 C1167 1.434 . S
C1167 C1158 1.429 . S
C1167 N1164 1.350 . S
C1167 C1166 1.434 . S
C641 C19 0.438 . S
C643 C286 0.806 . S
C652 C59 1.057 . S
C654 C166 1.028 . S
C663 C206 1.341 . S
C665 C86 1.177 . S
C674 C139 1.158 . S
C676 C246 1.111 . S
C685 C455 1.081 . S
C687 C170 1.128 1_554 S
C696 C330 2.019 . S
C698 C15 2.035 . S
C707 C415 1.025 . S
C709 C250 1.049 . S
C718 C90 2.797 . S
C720 C370 2.882 . S
C729 C366 0.789 . S
C731 C499 0.458 . S
C740 C419 1.061 . S
C742 C566 1.017 . S
C751 C526 1.158 . S
C753 C326 1.354 . S
C762 C459 1.155 . S
C764 C606 1.105 . S
C773 C570 1.126 . S
C775 C135 1.084 . S
C784 C495 2.036 . S
C786 C210 2.021 . S
C795 C55 1.015 . S
C797 C610 1.054 . S
C806 C290 2.883 . S
C808 C530 2.792 1_556 S
C817 C529 0.935 . S
C819 C18 0.938 . S
C828 C458 0.771 . S
C830 C58 0.787 . S
C839 C498 0.941 . S
C841 C89 0.938 . S
C850 C418 0.765 . S
C852 C138 0.782 . S
C861 C169 0.774 . S
C863 C609 0.762 . S
C872 C369 1.631 . S
C874 C209 1.351 . S
C883 C249 0.769 . S
C885 C569 0.756 . S
C894 C289 1.631 . S
C896 C329 1.356 1_455 S
C905 C9 1.980 . S
C907 C178 1.963 1_455 S
C916 C49 2.194 . S
C918 C218 2.154 . S
C927 C258 1.900 . S
C929 C98 1.944 1_545 S
C938 C129 1.771 . S
C940 C298 1.804 . S
C949 C409 2.195 . S
C951 C338 2.153 . S
C960 C449 1.770 . S
C962 C378 1.806 . S
C971 C489 1.980 . S
C973 C578 1.963 . S
C982 C618 1.901 . S
C984 C538 1.947 . S
C993 C6 2.883 . S
C995 C299 2.969 . S
C1004 C46 2.051 . S
C1006 C179 2.183 . S
C1015 C219 3.712 1_556 S
C1017 C99 3.689 . S
C1026 C259 2.210 . S
C1028 C126 2.086 . S
C1037 C450 2.174 . S
C1039 C175 2.043 . S
C1048 C335 1.069 . S
C1050 C10 1.154 . S
C1059 C410 2.161 . S
C1061 C255 2.040 . S
C1070 C95 0.800 . S
C1072 C375 0.823 . S
C1081 C486 2.884 . S
C1083 C379 2.969 . S
C1092 C579 2.185 . S
C1094 C406 2.043 . S
C1103 C539 3.688 . S
C1105 C339 3.713 . S
C1114 C619 2.210 . S
C1116 C446 2.086 . S
C1125 C575 2.046 . S
C1127 C130 2.172 1_554 S
C1136 C215 1.063 . S
C1138 C490 1.158 . S
C1147 C50 2.165 . S
C1149 C615 2.034 . S
C1158 C535 0.818 . S
C1160 C295 0.820 . S
