# Generated by pormake.
# Topology hbo, (4)-cn, num edge types: 1
# Building blocks:
#     Node 0, Type 0, BuildingBlock: KOZSID_clean_sbu_0, # of connection points: 4
#     Node 1, Type 0, BuildingBlock: KOZSID_clean_sbu_0, # of connection points: 4
#     Node 2, Type 0, BuildingBlock: KOZSID_clean_sbu_0, # of connection points: 4
#     Node 3, Type 0, BuildingBlock: KOZSID_clean_sbu_0, # of connection points: 4
#     Node 4, Type 0, BuildingBlock: KOZSID_clean_sbu_0, # of connection points: 4
#     Node 5, Type 0, BuildingBlock: KOZSID_clean_sbu_0, # of connection points: 4
#     Node 6, Type 0, BuildingBlock: KOZSID_clean_sbu_0, # of connection points: 4
#     Node 7, Type 0, BuildingBlock: KOZSID_clean_sbu_0, # of connection points: 4
#     Node 8, Type 0, BuildingBlock: KOZSID_clean_sbu_0, # of connection points: 4
#     Node 9, Type 0, BuildingBlock: KOZSID_clean_sbu_0, # of connection points: 4
#     Node 10, Type 0, BuildingBlock: KOZSID_clean_sbu_0, # of connection points: 4
#     Node 11, Type 0, BuildingBlock: KOZSID_clean_sbu_0, # of connection points: 4
#     Node 12, Type 0, BuildingBlock: KOZSID_clean_sbu_0, # of connection points: 4
#     Node 13, Type 0, BuildingBlock: KOZSID_clean_sbu_0, # of connection points: 4
#     Node 14, Type 0, BuildingBlock: KOZSID_clean_sbu_0, # of connection points: 4
#     Node 15, Type 0, BuildingBlock: KOZSID_clean_sbu_0, # of connection points: 4
#     Node 16, Type 0, BuildingBlock: KOZSID_clean_sbu_0, # of connection points: 4
#     Node 17, Type 0, BuildingBlock: KOZSID_clean_sbu_0, # of connection points: 4
#     Node 18, Type 0, BuildingBlock: KOZSID_clean_sbu_0, # of connection points: 4
#     Node 19, Type 0, BuildingBlock: KOZSID_clean_sbu_0, # of connection points: 4
#     Node 20, Type 0, BuildingBlock: KOZSID_clean_sbu_0, # of connection points: 4
#     Node 21, Type 0, BuildingBlock: KOZSID_clean_sbu_0, # of connection points: 4
#     Node 22, Type 0, BuildingBlock: KOZSID_clean_sbu_0, # of connection points: 4
#     Node 23, Type 0, BuildingBlock: KOZSID_clean_sbu_0, # of connection points: 4
#     Edge 24, Type (0, 0), BuildingBlock: XIVTED_clean_linker_0, # of connection points: 2
#     Edge 25, Type (0, 0), BuildingBlock: XIVTED_clean_linker_0, # of connection points: 2
#     Edge 26, Type (0, 0), BuildingBlock: XIVTED_clean_linker_0, # of connection points: 2
#     Edge 27, Type (0, 0), BuildingBlock: XIVTED_clean_linker_0, # of connection points: 2
#     Edge 28, Type (0, 0), BuildingBlock: XIVTED_clean_linker_0, # of connection points: 2
#     Edge 29, Type (0, 0), BuildingBlock: XIVTED_clean_linker_0, # of connection points: 2
#     Edge 30, Type (0, 0), BuildingBlock: XIVTED_clean_linker_0, # of connection points: 2
#     Edge 31, Type (0, 0), BuildingBlock: XIVTED_clean_linker_0, # of connection points: 2
#     Edge 32, Type (0, 0), BuildingBlock: XIVTED_clean_linker_0, # of connection points: 2
#     Edge 33, Type (0, 0), BuildingBlock: XIVTED_clean_linker_0, # of connection points: 2
#     Edge 34, Type (0, 0), BuildingBlock: XIVTED_clean_linker_0, # of connection points: 2
#     Edge 35, Type (0, 0), BuildingBlock: XIVTED_clean_linker_0, # of connection points: 2
#     Edge 36, Type (0, 0), BuildingBlock: XIVTED_clean_linker_0, # of connection points: 2
#     Edge 37, Type (0, 0), BuildingBlock: XIVTED_clean_linker_0, # of connection points: 2
#     Edge 38, Type (0, 0), BuildingBlock: XIVTED_clean_linker_0, # of connection points: 2
#     Edge 39, Type (0, 0), BuildingBlock: XIVTED_clean_linker_0, # of connection points: 2
#     Edge 40, Type (0, 0), BuildingBlock: XIVTED_clean_linker_0, # of connection points: 2
#     Edge 41, Type (0, 0), BuildingBlock: XIVTED_clean_linker_0, # of connection points: 2
#     Edge 42, Type (0, 0), BuildingBlock: XIVTED_clean_linker_0, # of connection points: 2
#     Edge 43, Type (0, 0), BuildingBlock: XIVTED_clean_linker_0, # of connection points: 2
#     Edge 44, Type (0, 0), BuildingBlock: XIVTED_clean_linker_0, # of connection points: 2
#     Edge 45, Type (0, 0), BuildingBlock: XIVTED_clean_linker_0, # of connection points: 2
#     Edge 46, Type (0, 0), BuildingBlock: XIVTED_clean_linker_0, # of connection points: 2
#     Edge 47, Type (0, 0), BuildingBlock: XIVTED_clean_linker_0, # of connection points: 2
#     Edge 48, Type (0, 0), BuildingBlock: XIVTED_clean_linker_0, # of connection points: 2
#     Edge 49, Type (0, 0), BuildingBlock: XIVTED_clean_linker_0, # of connection points: 2
#     Edge 50, Type (0, 0), BuildingBlock: XIVTED_clean_linker_0, # of connection points: 2
#     Edge 51, Type (0, 0), BuildingBlock: XIVTED_clean_linker_0, # of connection points: 2
#     Edge 52, Type (0, 0), BuildingBlock: XIVTED_clean_linker_0, # of connection points: 2
#     Edge 53, Type (0, 0), BuildingBlock: XIVTED_clean_linker_0, # of connection points: 2
#     Edge 54, Type (0, 0), BuildingBlock: XIVTED_clean_linker_0, # of connection points: 2
#     Edge 55, Type (0, 0), BuildingBlock: XIVTED_clean_linker_0, # of connection points: 2
#     Edge 56, Type (0, 0), BuildingBlock: XIVTED_clean_linker_0, # of connection points: 2
#     Edge 57, Type (0, 0), BuildingBlock: XIVTED_clean_linker_0, # of connection points: 2
#     Edge 58, Type (0, 0), BuildingBlock: XIVTED_clean_linker_0, # of connection points: 2
#     Edge 59, Type (0, 0), BuildingBlock: XIVTED_clean_linker_0, # of connection points: 2
#     Edge 60, Type (0, 0), BuildingBlock: XIVTED_clean_linker_0, # of connection points: 2
#     Edge 61, Type (0, 0), BuildingBlock: XIVTED_clean_linker_0, # of connection points: 2
#     Edge 62, Type (0, 0), BuildingBlock: XIVTED_clean_linker_0, # of connection points: 2
#     Edge 63, Type (0, 0), BuildingBlock: XIVTED_clean_linker_0, # of connection points: 2
#     Edge 64, Type (0, 0), BuildingBlock: XIVTED_clean_linker_0, # of connection points: 2
#     Edge 65, Type (0, 0), BuildingBlock: XIVTED_clean_linker_0, # of connection points: 2
#     Edge 66, Type (0, 0), BuildingBlock: XIVTED_clean_linker_0, # of connection points: 2
#     Edge 67, Type (0, 0), BuildingBlock: XIVTED_clean_linker_0, # of connection points: 2
#     Edge 68, Type (0, 0), BuildingBlock: XIVTED_clean_linker_0, # of connection points: 2
#     Edge 69, Type (0, 0), BuildingBlock: XIVTED_clean_linker_0, # of connection points: 2
#     Edge 70, Type (0, 0), BuildingBlock: XIVTED_clean_linker_0, # of connection points: 2
#     Edge 71, Type (0, 0), BuildingBlock: XIVTED_clean_linker_0, # of connection points: 2
# Relax obj value: 0.075
# Max RMSD: 0.317
# Mean RMSD: 0.297
data_MOF--net-hbo--node1-KOZSID_clean_sbu_0--edge1-XIVTED_clean_linker_0
_symmetry_space_group_name_H-M    P1
_symmetry_Int_Tables_number       1
_symmetry_cell_setting            triclinic
loop_
_symmetry_equiv_pos_as_xyz
'x, y, z'
_cell_length_a     69.219032
_cell_length_b     63.381619
_cell_length_c     63.31961
_cell_angle_alpha  90.042258
_cell_angle_beta   90.330484
_cell_angle_gamma 88.583748
loop_
_atom_site_label
_atom_site_type_symbol
_atom_site_fract_x
_atom_site_fract_y
_atom_site_fract_z
_atom_type_partial_charge
C0 C 0.17991 0.34269 0.31142 0.0
C1 C 0.18586 0.33834 0.33198 0.0
C2 C 0.18432 0.35694 0.34294 0.0
C3 C 0.1776 0.37156 0.32853 0.0
N4 N 0.17477 0.36334 0.3092 0.0
Co5 Co 0.1655 0.37913 0.28385 0.0
N6 N 0.17276 0.4067 0.29633 0.0
C7 C 0.17647 0.41013 0.31695 0.0
C8 C 0.18032 0.43075 0.32148 0.0
C9 C 0.17869 0.44112 0.30261 0.0
C10 C 0.17389 0.42618 0.28748 0.0
N11 N 0.15559 0.3952 0.25883 0.0
C12 C 0.15765 0.4158 0.25324 0.0
C13 C 0.14728 0.42036 0.23492 0.0
C14 C 0.13814 0.40222 0.22918 0.0
C15 C 0.14341 0.38751 0.2442 0.0
N16 N 0.15879 0.35141 0.27157 0.0
C17 C 0.14661 0.34843 0.25533 0.0
C18 C 0.14537 0.32748 0.24989 0.0
C19 C 0.15758 0.31671 0.26361 0.0
C20 C 0.16564 0.33172 0.27668 0.0
N21 N 0.13935 0.38189 0.29626 0.0
C22 C 0.09909 0.38311 0.30415 0.0
C23 C 0.11038 0.36467 0.30764 0.0
C24 C 0.13037 0.36442 0.30375 0.0
C25 C 0.10887 0.40133 0.29822 0.0
C26 C 0.12887 0.40043 0.29454 0.0
N27 N 0.19114 0.37555 0.27053 0.0
C28 C 0.20854 0.36433 0.23936 0.0
C29 C 0.22533 0.36036 0.25115 0.0
C30 C 0.225 0.36523 0.27281 0.0
C31 C 0.20785 0.37328 0.28211 0.0
C32 C 0.19174 0.37162 0.24926 0.0
H33 H 0.20791 0.3767 0.29881 0.0
H34 H 0.17896 0.37271 0.23962 0.0
H35 H 0.13837 0.34973 0.30581 0.0
H36 H 0.13556 0.41457 0.28911 0.0
C37 C 0.17783 0.39339 0.33125 0.0
C38 C 0.17878 0.32686 0.29459 0.0
C39 C 0.16794 0.43177 0.26578 0.0
C40 C 0.13947 0.36582 0.24362 0.0
H41 H 0.19104 0.3234 0.33836 0.0
H42 H 0.18869 0.35968 0.35914 0.0
H43 H 0.18394 0.43745 0.33668 0.0
H44 H 0.18014 0.45794 0.30047 0.0
H45 H 0.1462 0.43532 0.22672 0.0
H46 H 0.12907 0.39993 0.21543 0.0
H47 H 0.13724 0.32087 0.23693 0.0
H48 H 0.16028 0.29982 0.26397 0.0
H49 H 0.10381 0.35028 0.31289 0.0
H50 H 0.10106 0.41606 0.29531 0.0
H51 H 0.20803 0.36069 0.22264 0.0
H52 H 0.23779 0.36263 0.28249 0.0
C53 C 0.15963 0.67336 0.73096 0.0
C54 C 0.16168 0.67776 0.70963 0.0
C55 C 0.15767 0.65951 0.69898 0.0
C56 C 0.15331 0.64515 0.71437 0.0
N57 N 0.15421 0.65328 0.73394 0.0
Co58 Co 0.14809 0.63845 0.76045 0.0
N59 N 0.15281 0.61038 0.74713 0.0
C60 C 0.1534 0.60667 0.72617 0.0
C61 C 0.15634 0.58577 0.72128 0.0
C62 C 0.15736 0.57557 0.7403 0.0
C63 C 0.15488 0.59088 0.75586 0.0
N64 N 0.1409 0.62322 0.78659 0.0
C65 C 0.14304 0.60244 0.79186 0.0
C66 C 0.13471 0.59865 0.81132 0.0
C67 C 0.12694 0.6176 0.81824 0.0
C68 C 0.13088 0.63197 0.80269 0.0
N69 N 0.14422 0.6667 0.77342 0.0
C70 C 0.13481 0.67084 0.79147 0.0
C71 C 0.13656 0.69155 0.79763 0.0
C72 C 0.14784 0.70081 0.7825 0.0
C73 C 0.15231 0.68526 0.7678 0.0
N74 N 0.1204 0.63818 0.75185 0.0
C75 C 0.07938 0.63994 0.74799 0.0
C76 C 0.0906 0.65782 0.74441 0.0
C77 C 0.1109 0.65658 0.74622 0.0
C78 C 0.08955 0.62087 0.75221 0.0
C79 C 0.10983 0.62033 0.75408 0.0
N80 N 0.17539 0.63982 0.7702 0.0
C81 C 0.19601 0.65071 0.79904 0.0
C82 C 0.2108 0.65579 0.78518 0.0
C83 C 0.20813 0.65093 0.76368 0.0
C84 C 0.19045 0.64258 0.75656 0.0
C85 C 0.17866 0.64292 0.79136 0.0
H86 H 0.18861 0.63966 0.73988 0.0
H87 H 0.16744 0.64123 0.80277 0.0
H88 H 0.11885 0.67083 0.74396 0.0
H89 H 0.11682 0.60552 0.7582 0.0
C90 C 0.15268 0.62331 0.71163 0.0
C91 C 0.16335 0.68827 0.74806 0.0
C92 C 0.15172 0.5858 0.77825 0.0
C93 C 0.1283 0.65409 0.804 0.0
H94 H 0.16608 0.69243 0.7026 0.0
H95 H 0.15899 0.65672 0.68218 0.0
H96 H 0.15763 0.57876 0.70574 0.0
H97 H 0.15895 0.55867 0.74241 0.0
H98 H 0.13417 0.58372 0.81955 0.0
H99 H 0.11979 0.62063 0.83313 0.0
H100 H 0.1313 0.69877 0.81205 0.0
H101 H 0.15241 0.717 0.78252 0.0
H102 H 0.0838 0.67302 0.74109 0.0
H103 H 0.08195 0.60633 0.75443 0.0
H104 H 0.19724 0.65409 0.81576 0.0
H105 H 0.21938 0.65409 0.75238 0.0
C106 C 0.87176 0.6769 0.29789 0.0
C107 C 0.86618 0.68021 0.31868 0.0
C108 C 0.86906 0.66133 0.32894 0.0
C109 C 0.87623 0.64768 0.31388 0.0
N110 N 0.87809 0.65684 0.29489 0.0
Co111 Co 0.8879 0.6431 0.26887 0.0
N112 N 0.88193 0.61465 0.27982 0.0
C113 C 0.8788 0.60987 0.30024 0.0
C114 C 0.87579 0.58885 0.30352 0.0
C115 C 0.8774 0.5797 0.28402 0.0
C116 C 0.88136 0.59574 0.26981 0.0
N117 N 0.89848 0.62904 0.2432 0.0
C118 C 0.89712 0.60874 0.23642 0.0
C119 C 0.90771 0.6056 0.2181 0.0
C120 C 0.91622 0.62443 0.21357 0.0
C121 C 0.91038 0.63809 0.22929 0.0
N122 N 0.89327 0.67171 0.25818 0.0
C123 C 0.90524 0.67635 0.24235 0.0
C124 C 0.9048 0.69759 0.23773 0.0
C125 C 0.89167 0.70668 0.25154 0.0
C126 C 0.88483 0.69045 0.26382 0.0
N127 N 0.91411 0.6411 0.28155 0.0
C128 C 0.95409 0.64139 0.29122 0.0
C129 C 0.94203 0.65917 0.29492 0.0
C130 C 0.9222 0.65866 0.29016 0.0
C131 C 0.94525 0.62301 0.28392 0.0
C132 C 0.92537 0.62317 0.27929 0.0
N133 N 0.86211 0.64609 0.25535 0.0
C134 C 0.84451 0.65911 0.22477 0.0
C135 C 0.8277 0.66223 0.23658 0.0
C136 C 0.82809 0.65571 0.25782 0.0
C137 C 0.84536 0.64728 0.2668 0.0
C138 C 0.86137 0.65124 0.23435 0.0
H139 H 0.84539 0.64284 0.28326 0.0
H140 H 0.87412 0.65093 0.2248 0.0
H141 H 0.91357 0.67286 0.29257 0.0
H142 H 0.91938 0.60901 0.27286 0.0
C143 C 0.87707 0.62571 0.31556 0.0
C144 C 0.87104 0.69299 0.28137 0.0
C145 C 0.88719 0.59182 0.2478 0.0
C146 C 0.91331 0.66003 0.22987 0.0
H147 H 0.86033 0.69461 0.32558 0.0
H148 H 0.86523 0.6577 0.34506 0.0
H149 H 0.87272 0.58108 0.3183 0.0
H150 H 0.87652 0.56297 0.28085 0.0
H151 H 0.90931 0.59115 0.2091 0.0
H152 H 0.92517 0.62787 0.20011 0.0
H153 H 0.91231 0.70541 0.22512 0.0
H154 H 0.88751 0.72323 0.25236 0.0
H155 H 0.94791 0.67361 0.3011 0.0
H156 H 0.95375 0.6088 0.28079 0.0
H157 H 0.84505 0.66396 0.20839 0.0
H158 H 0.81532 0.65752 0.26751 0.0
C159 C 0.87407 0.34513 0.72689 0.0
C160 C 0.87033 0.34296 0.70545 0.0
C161 C 0.87335 0.36231 0.69651 0.0
C162 C 0.87885 0.37505 0.71293 0.0
N163 N 0.87959 0.36486 0.73152 0.0
Co164 Co 0.8874 0.3769 0.75897 0.0
N165 N 0.88095 0.40603 0.74926 0.0
C166 C 0.87885 0.41199 0.72892 0.0
C167 C 0.87541 0.43323 0.72656 0.0
C168 C 0.87567 0.44127 0.74661 0.0
C169 C 0.87928 0.42439 0.76024 0.0
N170 N 0.89615 0.38925 0.78614 0.0
C171 C 0.89384 0.40916 0.79395 0.0
C172 C 0.90326 0.41092 0.81326 0.0
C173 C 0.91206 0.39165 0.81732 0.0
C174 C 0.90754 0.3791 0.80038 0.0
N175 N 0.89303 0.34753 0.76827 0.0
C176 C 0.90405 0.3417 0.78487 0.0
C177 C 0.90316 0.32038 0.78881 0.0
C178 C 0.89072 0.31252 0.7738 0.0
C179 C 0.88475 0.32948 0.76137 0.0
N180 N 0.91426 0.37945 0.74855 0.0
C181 C 0.95476 0.38068 0.74218 0.0
C182 C 0.94422 0.36271 0.73681 0.0
C183 C 0.92407 0.36243 0.74007 0.0
C184 C 0.94418 0.39842 0.74937 0.0
C185 C 0.92416 0.39753 0.75232 0.0
N186 N 0.86103 0.37353 0.77039 0.0
C187 C 0.84231 0.36011 0.79934 0.0
C188 C 0.82606 0.35809 0.78644 0.0
C189 C 0.8273 0.36517 0.76544 0.0
C190 C 0.84484 0.37322 0.75782 0.0
C191 C 0.85944 0.36759 0.79111 0.0
H192 H 0.84553 0.37817 0.74153 0.0
H193 H 0.87171 0.36708 0.80151 0.0
H194 H 0.91657 0.34808 0.7366 0.0
H195 H 0.91693 0.41133 0.75866 0.0
C196 C 0.87887 0.39708 0.71258 0.0
C197 C 0.87192 0.32845 0.74259 0.0
C198 C 0.88413 0.42701 0.78278 0.0
C199 C 0.91099 0.35713 0.79881 0.0
H200 H 0.86545 0.32903 0.6973 0.0
H201 H 0.87059 0.36685 0.68027 0.0
H202 H 0.87309 0.44189 0.712 0.0
H203 H 0.87428 0.45784 0.75053 0.0
H204 H 0.90389 0.42473 0.82327 0.0
H205 H 0.92029 0.38718 0.83127 0.0
H206 H 0.90968 0.31179 0.80189 0.0
H207 H 0.88634 0.29632 0.77251 0.0
H208 H 0.95157 0.34858 0.73107 0.0
H209 H 0.95139 0.41292 0.75318 0.0
H210 H 0.84219 0.35476 0.81559 0.0
H211 H 0.81497 0.36417 0.75491 0.0
C212 C 0.22639 0.17229 0.33914 0.0
C213 C 0.20906 0.17558 0.32828 0.0
C214 C 0.20086 0.15631 0.32617 0.0
C215 C 0.2136 0.14236 0.33568 0.0
N216 N 0.22938 0.15154 0.34367 0.0
Co217 Co 0.25151 0.13668 0.35812 0.0
N218 N 0.24372 0.10858 0.347 0.0
C219 C 0.2265 0.10445 0.33804 0.0
C220 C 0.22446 0.08373 0.33255 0.0
C221 C 0.24131 0.07391 0.33869 0.0
C222 C 0.25282 0.08927 0.34766 0.0
N223 N 0.27329 0.12149 0.37304 0.0
C224 C 0.27966 0.10094 0.37202 0.0
C225 C 0.29444 0.09711 0.38652 0.0
C226 C 0.29703 0.1156 0.39734 0.0
C227 C 0.2838 0.12975 0.38888 0.0
N228 N 0.25914 0.16489 0.36881 0.0
C229 C 0.27139 0.16824 0.38495 0.0
C230 C 0.274 0.18933 0.38881 0.0
C231 C 0.26261 0.19989 0.3742 0.0
C232 C 0.25367 0.18463 0.36218 0.0
N233 N 0.23562 0.1329 0.38367 0.0
C234 C 0.22496 0.1327 0.42665 0.0
C235 C 0.22089 0.15029 0.41371 0.0
C236 C 0.22617 0.15001 0.39234 0.0
C237 C 0.23229 0.11436 0.41676 0.0
C238 C 0.23724 0.11471 0.39529 0.0
N239 N 0.26815 0.14147 0.33336 0.0
C240 C 0.29817 0.15577 0.32124 0.0
C241 C 0.29085 0.15845 0.30075 0.0
C242 C 0.27205 0.1513 0.29669 0.0
C243 C 0.26104 0.14264 0.31315 0.0
C244 C 0.28677 0.14735 0.33706 0.0
H245 H 0.24653 0.13777 0.30969 0.0
H246 H 0.29285 0.14698 0.35267 0.0
H247 H 0.22392 0.16429 0.38332 0.0
H248 H 0.2438 0.10067 0.38866 0.0
C249 C 0.21301 0.12055 0.33385 0.0
C250 C 0.23902 0.18937 0.3457 0.0
C251 C 0.27087 0.08414 0.35918 0.0
C252 C 0.28198 0.1513 0.39394 0.0
H253 H 0.20299 0.19032 0.32233 0.0
H254 H 0.18767 0.15277 0.31776 0.0
H255 H 0.21213 0.07658 0.32508 0.0
H256 H 0.24433 0.05714 0.33747 0.0
H257 H 0.30219 0.08234 0.38936 0.0
H258 H 0.30741 0.11839 0.40982 0.0
H259 H 0.28348 0.19624 0.40043 0.0
H260 H 0.26095 0.21684 0.37265 0.0
H261 H 0.21444 0.16459 0.4202 0.0
H262 H 0.23547 0.10017 0.42576 0.0
H263 H 0.31236 0.16122 0.32551 0.0
H264 H 0.26577 0.15267 0.28104 0.0
C265 C 0.36095 0.80001 0.8413 0.0
C266 C 0.35469 0.82081 0.83837 0.0
C267 C 0.35665 0.83073 0.85745 0.0
C268 C 0.36384 0.81549 0.87093 0.0
N269 N 0.36661 0.79663 0.86152 0.0
Co270 Co 0.37629 0.77034 0.8754 0.0
N271 N 0.36913 0.78122 0.90388 0.0
C272 C 0.36523 0.8016 0.90866 0.0
C273 C 0.36144 0.80493 0.92961 0.0
C274 C 0.36337 0.7855 0.9388 0.0
C275 C 0.36831 0.77128 0.92285 0.0
N276 N 0.38678 0.74446 0.88964 0.0
C277 C 0.38526 0.73784 0.91004 0.0
C278 C 0.39616 0.71944 0.91325 0.0
C279 C 0.40504 0.71469 0.8944 0.0
C280 C 0.39911 0.73036 0.88067 0.0
N281 N 0.3827 0.75973 0.84677 0.0
C282 C 0.39494 0.74361 0.84231 0.0
C283 C 0.39545 0.73917 0.82102 0.0
C284 C 0.38266 0.7534 0.81167 0.0
C285 C 0.37501 0.76573 0.82779 0.0
N286 N 0.40244 0.78242 0.87812 0.0
C287 C 0.44279 0.78983 0.87923 0.0
C288 C 0.43163 0.79379 0.86093 0.0
C289 C 0.4116 0.79019 0.86076 0.0
C290 C 0.43281 0.7835 0.89734 0.0
C291 C 0.41284 0.78003 0.8965 0.0
N292 N 0.35073 0.75717 0.87174 0.0
C293 C 0.33396 0.72628 0.85972 0.0
C294 C 0.31681 0.73794 0.85655 0.0
C295 C 0.31673 0.75947 0.86207 0.0
C296 C 0.33374 0.76868 0.87005 0.0
C297 C 0.35054 0.73606 0.86702 0.0
H298 H 0.3333 0.78526 0.87396 0.0
H299 H 0.36348 0.72644 0.86748 0.0
H300 H 0.4037 0.79278 0.8462 0.0
H301 H 0.4061 0.77425 0.91056 0.0
C302 C 0.36373 0.81692 0.89288 0.0
C303 C 0.36142 0.78386 0.82473 0.0
C304 C 0.37496 0.74943 0.92704 0.0
C305 C 0.40262 0.73095 0.85875 0.0
H306 H 0.34888 0.82804 0.82416 0.0
H307 H 0.3521 0.84672 0.86132 0.0
H308 H 0.35772 0.81972 0.93732 0.0
H309 H 0.36211 0.78242 0.95553 0.0
H310 H 0.39777 0.71058 0.92778 0.0
H311 H 0.41438 0.70117 0.89104 0.0
H312 H 0.40344 0.72649 0.8133 0.0
H313 H 0.37929 0.75455 0.79499 0.0
H314 H 0.43833 0.7993 0.84662 0.0
H315 H 0.44048 0.78017 0.91196 0.0
H316 H 0.33491 0.7097 0.85553 0.0
H317 H 0.30372 0.76912 0.86013 0.0
C318 C 0.72408 0.85282 0.3354 0.0
C319 C 0.70536 0.84566 0.33326 0.0
C320 C 0.69785 0.8448 0.35318 0.0
C321 C 0.71226 0.85169 0.36626 0.0
N322 N 0.72828 0.85703 0.35583 0.0
Co323 Co 0.75186 0.86897 0.3686 0.0
N324 N 0.74519 0.85812 0.39713 0.0
C325 C 0.728 0.85034 0.40271 0.0
C326 C 0.72748 0.84358 0.42324 0.0
C327 C 0.7453 0.84778 0.43136 0.0
C328 C 0.75569 0.85717 0.41533 0.0
N329 N 0.77502 0.88187 0.38179 0.0
C330 C 0.78209 0.88064 0.40191 0.0
C331 C 0.79727 0.89429 0.40468 0.0
C332 C 0.79951 0.90467 0.38587 0.0
C333 C 0.7856 0.89689 0.37264 0.0
N334 N 0.7585 0.87873 0.33972 0.0
C335 C 0.77148 0.89342 0.33507 0.0
C336 C 0.77435 0.89528 0.31368 0.0
C337 C 0.76243 0.88084 0.30439 0.0
C338 C 0.75275 0.87102 0.32063 0.0
N339 N 0.73768 0.89597 0.37412 0.0
C340 C 0.73003 0.93967 0.37911 0.0
C341 C 0.72609 0.92946 0.3599 0.0
C342 C 0.72978 0.90757 0.35782 0.0
C343 C 0.73554 0.92694 0.39632 0.0
C344 C 0.73915 0.90531 0.39355 0.0
N345 N 0.76691 0.84282 0.36244 0.0
C346 C 0.79627 0.82779 0.34778 0.0
C347 C 0.78841 0.80772 0.34684 0.0
C348 C 0.76947 0.80547 0.35442 0.0
C349 C 0.75902 0.8232 0.36236 0.0
C350 C 0.78546 0.84485 0.35552 0.0
H351 H 0.74445 0.82115 0.36785 0.0
H352 H 0.79207 0.85994 0.35484 0.0
H353 H 0.72754 0.9004 0.34256 0.0
H354 H 0.74456 0.89665 0.40694 0.0
C355 C 0.71295 0.8488 0.38807 0.0
C356 C 0.7375 0.85523 0.31781 0.0
C357 C 0.77356 0.86867 0.41937 0.0
C358 C 0.78312 0.9018 0.35111 0.0
H359 H 0.69807 0.84106 0.31887 0.0
H360 H 0.68402 0.83863 0.35766 0.0
H361 H 0.71549 0.83667 0.43142 0.0
H362 H 0.74975 0.84534 0.44761 0.0
H363 H 0.80549 0.89688 0.419 0.0
H364 H 0.81005 0.91647 0.38229 0.0
H365 H 0.78467 0.90508 0.30581 0.0
H366 H 0.7613 0.87777 0.28764 0.0
H367 H 0.72141 0.93843 0.34617 0.0
H368 H 0.73799 0.93378 0.41176 0.0
H369 H 0.81057 0.83067 0.34173 0.0
H370 H 0.76275 0.79023 0.35417 0.0
C371 C 0.67298 0.22135 0.8433 0.0
C372 C 0.67849 0.20041 0.83982 0.0
C373 C 0.67645 0.19011 0.85864 0.0
C374 C 0.66997 0.20526 0.87255 0.0
N375 N 0.66773 0.22445 0.86367 0.0
Co376 Co 0.65928 0.25076 0.87843 0.0
N377 N 0.66614 0.23868 0.90663 0.0
C378 C 0.66938 0.21803 0.91074 0.0
C379 C 0.67326 0.2139 0.93159 0.0
C380 C 0.6721 0.23308 0.94141 0.0
C381 C 0.66749 0.24796 0.92594 0.0
N382 N 0.65006 0.27669 0.89353 0.0
C383 C 0.65198 0.28258 0.91416 0.0
C384 C 0.64187 0.30136 0.91794 0.0
C385 C 0.63311 0.30717 0.89921 0.0
C386 C 0.6383 0.29168 0.88498 0.0
N387 N 0.65311 0.26256 0.85011 0.0
C388 C 0.64156 0.27945 0.84621 0.0
C389 C 0.6409 0.28451 0.82508 0.0
C390 C 0.65284 0.26988 0.8152 0.0
C391 C 0.66018 0.25667 0.83088 0.0
N392 N 0.63264 0.24002 0.88063 0.0
C393 C 0.59188 0.23551 0.88066 0.0
C394 C 0.60304 0.23063 0.86269 0.0
C395 C 0.62324 0.2329 0.86301 0.0
C396 C 0.60205 0.24102 0.89908 0.0
C397 C 0.62224 0.24292 0.89879 0.0
N398 N 0.68538 0.26262 0.87528 0.0
C399 C 0.70332 0.29284 0.86398 0.0
C400 C 0.71974 0.28028 0.85999 0.0
C401 C 0.71896 0.25866 0.86488 0.0
C402 C 0.70176 0.25023 0.87296 0.0
C403 C 0.68648 0.28382 0.87131 0.0
H404 H 0.70151 0.23356 0.87637 0.0
H405 H 0.67404 0.29415 0.87232 0.0
H406 H 0.63113 0.22991 0.84861 0.0
H407 H 0.6292 0.24804 0.91308 0.0
C408 C 0.67025 0.20321 0.89445 0.0
C409 C 0.67276 0.23786 0.82705 0.0
C410 C 0.66182 0.26994 0.93085 0.0
C411 C 0.63461 0.29195 0.86305 0.0
H412 H 0.68387 0.1933 0.82542 0.0
H413 H 0.68048 0.17386 0.86207 0.0
H414 H 0.67658 0.19875 0.9388 0.0
H415 H 0.67372 0.23564 0.95822 0.0
H416 H 0.64068 0.30977 0.93277 0.0
H417 H 0.62431 0.32122 0.89626 0.0
H418 H 0.63335 0.2978 0.81779 0.0
H419 H 0.65582 0.269 0.79846 0.0
H420 H 0.59625 0.22552 0.84818 0.0
H421 H 0.59449 0.24496 0.91351 0.0
H422 H 0.70308 0.30954 0.86033 0.0
H423 H 0.73143 0.24835 0.86231 0.0
C424 C 0.30104 0.84509 0.68477 0.0
C425 C 0.31983 0.83695 0.68636 0.0
C426 C 0.32734 0.83714 0.66646 0.0
C427 C 0.31279 0.84524 0.65388 0.0
N428 N 0.29656 0.85025 0.66455 0.0
Co429 Co 0.27215 0.86219 0.65217 0.0
N430 N 0.27959 0.85284 0.62314 0.0
C431 C 0.29752 0.84656 0.61723 0.0
C432 C 0.29904 0.84197 0.59619 0.0
C433 C 0.28103 0.84593 0.58805 0.0
C434 C 0.2694 0.85277 0.6047 0.0
N435 N 0.2482 0.87502 0.63933 0.0
C436 C 0.24083 0.87375 0.61933 0.0
C437 C 0.2244 0.88658 0.61723 0.0
C438 C 0.22171 0.89659 0.63627 0.0
C439 C 0.23655 0.88934 0.64902 0.0
N440 N 0.26493 0.87082 0.68132 0.0
C441 C 0.25112 0.88513 0.68642 0.0
C442 C 0.24894 0.88723 0.70792 0.0
C443 C 0.26224 0.87332 0.71681 0.0
C444 C 0.2718 0.86345 0.70022 0.0
N445 N 0.28466 0.88969 0.64785 0.0
C446 C 0.29145 0.93363 0.64661 0.0
C447 C 0.2971 0.92119 0.66412 0.0
C448 C 0.29366 0.8994 0.66439 0.0
C449 C 0.28417 0.92289 0.62894 0.0
C450 C 0.2812 0.90107 0.62977 0.0
N451 N 0.25868 0.83538 0.65765 0.0
C452 C 0.23027 0.82002 0.67287 0.0
C453 C 0.24038 0.80129 0.67789 0.0
C454 C 0.25957 0.7993 0.6706 0.0
C455 C 0.26834 0.81638 0.66027 0.0
C456 C 0.23957 0.83667 0.66317 0.0
H457 H 0.28322 0.81452 0.65548 0.0
H458 H 0.23123 0.85103 0.6616 0.0
H459 H 0.29722 0.89068 0.67858 0.0
H460 H 0.27477 0.89383 0.61617 0.0
C461 C 0.31241 0.84412 0.63197 0.0
C462 C 0.28807 0.84811 0.70277 0.0
C463 C 0.24991 0.86216 0.60152 0.0
C464 C 0.23879 0.89359 0.6707 0.0
H465 H 0.32728 0.83116 0.70034 0.0
H466 H 0.34132 0.83092 0.66158 0.0
H467 H 0.31178 0.83662 0.5877 0.0
H468 H 0.27732 0.84487 0.57149 0.0
H469 H 0.21551 0.88881 0.60326 0.0
H470 H 0.21015 0.90761 0.64038 0.0
H471 H 0.23846 0.89709 0.71617 0.0
H472 H 0.26465 0.87071 0.73352 0.0
H473 H 0.30359 0.92825 0.67792 0.0
H474 H 0.27963 0.93133 0.61485 0.0
H475 H 0.21522 0.8223 0.67705 0.0
H476 H 0.26809 0.78506 0.67363 0.0
C477 C 0.67236 0.80488 0.17661 0.0
C478 C 0.67542 0.82613 0.18037 0.0
C479 C 0.67283 0.83628 0.16142 0.0
C480 C 0.66818 0.82075 0.14729 0.0
N481 N 0.66758 0.80153 0.15619 0.0
Co482 Co 0.66022 0.77517 0.14175 0.0
N483 N 0.66662 0.78689 0.11356 0.0
C484 C 0.66874 0.80752 0.10924 0.0
C485 C 0.67234 0.8114 0.08836 0.0
C486 C 0.67217 0.79207 0.07878 0.0
C487 C 0.6684 0.77733 0.0944 0.0
N488 N 0.65183 0.74922 0.12692 0.0
C489 C 0.65401 0.74303 0.10644 0.0
C490 C 0.64476 0.72417 0.10285 0.0
C491 C 0.63622 0.71869 0.12154 0.0
C492 C 0.6407 0.7344 0.13556 0.0
N493 N 0.65467 0.76372 0.17019 0.0
C494 C 0.64407 0.74675 0.17423 0.0
C495 C 0.64464 0.74127 0.19525 0.0
C496 C 0.65637 0.75571 0.2049 0.0
C497 C 0.66222 0.76941 0.18926 0.0
N498 N 0.63326 0.78622 0.13914 0.0
C499 C 0.59261 0.79256 0.13749 0.0
C500 C 0.60313 0.7963 0.15614 0.0
C501 C 0.62336 0.79319 0.15659 0.0
C502 C 0.60325 0.78721 0.11935 0.0
C503 C 0.62336 0.78419 0.12048 0.0
N504 N 0.68674 0.7631 0.1452 0.0
C505 C 0.70591 0.73268 0.15639 0.0
C506 C 0.72179 0.74513 0.16071 0.0
C507 C 0.72015 0.76679 0.15601 0.0
C508 C 0.70262 0.77539 0.14779 0.0
C509 C 0.6887 0.74185 0.14896 0.0
H510 H 0.70168 0.7921 0.14453 0.0
H511 H 0.6767 0.73158 0.14775 0.0
H512 H 0.63085 0.79541 0.17139 0.0
H513 H 0.63068 0.77914 0.10635 0.0
C514 C 0.66844 0.82265 0.12534 0.0
C515 C 0.67414 0.78827 0.19264 0.0
C516 C 0.66348 0.75531 0.08973 0.0
C517 C 0.63739 0.73422 0.15749 0.0
H518 H 0.67945 0.83345 0.19515 0.0
H519 H 0.67515 0.85278 0.15814 0.0
H520 H 0.67469 0.8265 0.08095 0.0
H521 H 0.6737 0.78936 0.062 0.0
H522 H 0.64408 0.71539 0.08821 0.0
H523 H 0.62816 0.70462 0.12464 0.0
H524 H 0.63829 0.72766 0.20251 0.0
H525 H 0.66033 0.7558 0.22143 0.0
H526 H 0.59578 0.80061 0.17061 0.0
H527 H 0.59607 0.78482 0.10434 0.0
H528 H 0.70635 0.71594 0.15992 0.0
H529 H 0.73219 0.77702 0.15889 0.0
C530 C 0.72451 0.18167 0.68065 0.0
C531 C 0.70615 0.19062 0.68333 0.0
C532 C 0.69765 0.19137 0.66381 0.0
C533 C 0.71123 0.18297 0.65034 0.0
N534 N 0.72778 0.1769 0.66008 0.0
Co535 Co 0.75105 0.16417 0.64614 0.0
N536 N 0.74229 0.17426 0.61769 0.0
C537 C 0.72439 0.18168 0.61287 0.0
C538 C 0.72206 0.18715 0.59208 0.0
C539 C 0.73948 0.1826 0.58296 0.0
C540 C 0.75153 0.17445 0.59877 0.0
N541 N 0.77376 0.15059 0.63171 0.0
C542 C 0.77996 0.15185 0.61131 0.0
C543 C 0.79559 0.13818 0.60796 0.0
C544 C 0.79908 0.12779 0.62668 0.0
C545 C 0.78542 0.13561 0.64047 0.0
N546 N 0.75968 0.15482 0.67473 0.0
C547 C 0.77335 0.13994 0.67877 0.0
C548 C 0.7766 0.13719 0.70006 0.0
C549 C 0.76416 0.15125 0.70997 0.0
C550 C 0.75398 0.16185 0.69415 0.0
N551 N 0.73737 0.13728 0.64228 0.0
C552 C 0.73 0.09348 0.64172 0.0
C553 C 0.72539 0.10611 0.65937 0.0
C554 C 0.72907 0.12783 0.6593 0.0
C555 C 0.73632 0.104 0.62356 0.0
C556 C 0.73958 0.12579 0.62407 0.0
N557 N 0.76575 0.1903 0.65116 0.0
C558 C 0.79563 0.2042 0.66468 0.0
C559 C 0.78644 0.22305 0.67101 0.0
C560 C 0.76685 0.22593 0.66514 0.0
C561 C 0.75688 0.20952 0.65494 0.0
C562 C 0.78517 0.18819 0.65524 0.0
H563 H 0.74178 0.21207 0.65123 0.0
H564 H 0.79296 0.17363 0.65269 0.0
H565 H 0.72641 0.13665 0.67361 0.0
H566 H 0.74534 0.13291 0.61011 0.0
C567 C 0.71048 0.1846 0.62846 0.0
C568 C 0.73815 0.17746 0.69801 0.0
C569 C 0.77042 0.16434 0.59432 0.0
C570 C 0.78437 0.13121 0.66221 0.0
H571 H 0.69962 0.19631 0.69781 0.0
H572 H 0.68368 0.19834 0.65978 0.0
H573 H 0.7092 0.19363 0.58443 0.0
H574 H 0.74263 0.18428 0.56634 0.0
H575 H 0.80341 0.13569 0.59338 0.0
H576 H 0.81039 0.11613 0.62991 0.0
H577 H 0.78717 0.12672 0.70751 0.0
H578 H 0.76267 0.15341 0.72684 0.0
H579 H 0.71961 0.09921 0.67356 0.0
H580 H 0.73993 0.09537 0.60931 0.0
H581 H 0.81088 0.2013 0.66766 0.0
H582 H 0.75897 0.24031 0.66919 0.0
C583 C 0.37491 0.21881 0.17793 0.0
C584 C 0.3689 0.19808 0.17814 0.0
C585 C 0.37087 0.19067 0.1579 0.0
C586 C 0.37799 0.20722 0.14658 0.0
N587 N 0.38077 0.22446 0.15848 0.0
Co588 Co 0.39073 0.25178 0.14868 0.0
N589 N 0.38356 0.24552 0.11891 0.0
C590 C 0.37905 0.22639 0.11126 0.0
C591 C 0.37482 0.22657 0.0901 0.0
C592 C 0.37716 0.24698 0.08387 0.0
C593 C 0.38287 0.2582 0.10164 0.0
N594 N 0.40156 0.27873 0.13861 0.0
C595 C 0.40056 0.28811 0.11929 0.0
C596 C 0.41182 0.30592 0.11887 0.0
C597 C 0.42037 0.30748 0.13842 0.0
C598 C 0.41394 0.29058 0.14973 0.0
N599 N 0.39705 0.25782 0.17864 0.0
C600 C 0.40939 0.27229 0.18564 0.0
C601 C 0.4095 0.27378 0.20734 0.0
C602 C 0.39632 0.25939 0.21426 0.0
C603 C 0.3889 0.24989 0.19636 0.0
N604 N 0.41666 0.23852 0.14458 0.0
C605 C 0.45686 0.22956 0.14276 0.0
C606 C 0.44592 0.2239 0.16044 0.0
C607 C 0.42589 0.22825 0.16092 0.0
C608 C 0.4468 0.2382 0.12539 0.0
C609 C 0.42687 0.24246 0.12658 0.0
N610 N 0.36534 0.26582 0.1536 0.0
C611 C 0.34833 0.29543 0.16959 0.0
C612 C 0.33113 0.28442 0.16994 0.0
C613 C 0.33111 0.26414 0.16092 0.0
C614 C 0.34831 0.25529 0.15243 0.0
C615 C 0.36511 0.2859 0.16164 0.0
H616 H 0.34799 0.2396 0.1458 0.0
H617 H 0.37813 0.29459 0.1633 0.0
H618 H 0.41807 0.2243 0.17502 0.0
H619 H 0.42006 0.25017 0.11328 0.0
C620 C 0.37757 0.20897 0.12463 0.0
C621 C 0.37481 0.2328 0.19628 0.0
C622 C 0.39072 0.27954 0.10053 0.0
C623 C 0.41732 0.28666 0.17137 0.0
H624 H 0.36324 0.18944 0.19138 0.0
H625 H 0.36634 0.17557 0.1519 0.0
H626 H 0.37058 0.21342 0.08034 0.0
H627 H 0.37572 0.2527 0.06782 0.0
H628 H 0.41393 0.31641 0.10565 0.0
H629 H 0.42994 0.31964 0.14379 0.0
H630 H 0.41739 0.2848 0.21695 0.0
H631 H 0.39248 0.25639 0.2305 0.0
H632 H 0.45284 0.21663 0.17408 0.0
H633 H 0.45441 0.24285 0.11131 0.0
H634 H 0.34914 0.31102 0.17652 0.0
H635 H 0.31803 0.25513 0.16066 0.0
C636 C 0.84153 0.65848 0.77491 0.0
C637 C 0.82714 0.65073 0.76193 0.0
C638 C 0.83606 0.63696 0.74803 0.0
C639 C 0.85539 0.63715 0.7531 0.0
N640 N 0.85914 0.65013 0.7693 0.0
Co641 Co 0.88529 0.65698 0.78008 0.0
N642 N 0.89875 0.64492 0.75482 0.0
C643 C 0.89066 0.63165 0.74087 0.0
C644 C 0.90343 0.62446 0.72582 0.0
C645 C 0.92073 0.63342 0.73082 0.0
C646 C 0.91759 0.6457 0.74868 0.0
N647 N 0.91129 0.66467 0.79103 0.0
C648 C 0.92884 0.66482 0.78144 0.0
C649 C 0.94313 0.67111 0.79544 0.0
C650 C 0.93443 0.67428 0.81453 0.0
C651 C 0.91535 0.66998 0.81116 0.0
N652 N 0.87224 0.66797 0.80587 0.0
C653 C 0.88073 0.67113 0.82473 0.0
C654 C 0.86802 0.67793 0.83999 0.0
C655 C 0.85041 0.67927 0.83007 0.0
C656 C 0.85345 0.67338 0.80919 0.0
N657 N 0.88778 0.62873 0.79332 0.0
C658 C 0.88801 0.58478 0.80144 0.0
C659 C 0.90479 0.59496 0.79492 0.0
C660 C 0.90443 0.6168 0.79125 0.0
C661 C 0.87163 0.59766 0.80562 0.0
C662 C 0.87182 0.61945 0.80154 0.0
N663 N 0.88178 0.68472 0.76584 0.0
C664 C 0.869 0.72066 0.76718 0.0
C665 C 0.86371 0.7199 0.74566 0.0
C666 C 0.86971 0.70205 0.73424 0.0
C667 C 0.87842 0.68482 0.74448 0.0
C668 C 0.87832 0.70305 0.77686 0.0
H669 H 0.88094 0.67109 0.73493 0.0
H670 H 0.88155 0.70388 0.79353 0.0
H671 H 0.9174 0.62369 0.78543 0.0
H672 H 0.85866 0.62857 0.80397 0.0
C673 C 0.87061 0.62853 0.74101 0.0
C674 C 0.83821 0.67292 0.79304 0.0
C675 C 0.93322 0.65612 0.7604 0.0
C676 C 0.90079 0.67178 0.82625 0.0
H677 H 0.81187 0.65471 0.76224 0.0
H678 H 0.82932 0.62867 0.7351 0.0
H679 H 0.90048 0.61418 0.7126 0.0
H680 H 0.93423 0.6309 0.72253 0.0
H681 H 0.95843 0.67238 0.79242 0.0
H682 H 0.94124 0.67903 0.82915 0.0
H683 H 0.87131 0.68246 0.85607 0.0
H684 H 0.83695 0.68431 0.83732 0.0
H685 H 0.91794 0.58607 0.7915 0.0
H686 H 0.85846 0.59095 0.81145 0.0
H687 H 0.86514 0.73425 0.77677 0.0
H688 H 0.86699 0.70088 0.71743 0.0
C689 C 0.88499 0.33833 0.27538 0.0
C690 C 0.8928 0.32098 0.26488 0.0
C691 C 0.90624 0.32864 0.25102 0.0
C692 C 0.90589 0.3502 0.25382 0.0
N693 N 0.89313 0.3564 0.26859 0.0
Co694 Co 0.88664 0.38597 0.27657 0.0
N695 N 0.89804 0.39763 0.25044 0.0
C696 C 0.91078 0.38717 0.23798 0.0
C697 C 0.91712 0.39938 0.22161 0.0
C698 C 0.90807 0.41876 0.22417 0.0
C699 C 0.89666 0.41738 0.24204 0.0
N700 N 0.87947 0.41538 0.28481 0.0
C701 C 0.87894 0.43344 0.2733 0.0
C702 C 0.87384 0.45066 0.28591 0.0
C703 C 0.87147 0.44317 0.30594 0.0
C704 C 0.87518 0.42189 0.30455 0.0
N705 N 0.87598 0.37464 0.30309 0.0
C706 C 0.87299 0.38543 0.32111 0.0
C707 C 0.86557 0.37325 0.3369 0.0
C708 C 0.86374 0.35359 0.3282 0.0
C709 C 0.87015 0.35498 0.30753 0.0
N710 N 0.91226 0.3885 0.29033 0.0
C711 C 0.95214 0.38827 0.30052 0.0
C712 C 0.94275 0.4063 0.2921 0.0
C713 C 0.92295 0.40613 0.28724 0.0
C714 C 0.94064 0.37092 0.30519 0.0
C715 C 0.9208 0.37142 0.3002 0.0
N716 N 0.86157 0.38253 0.26191 0.0
C717 C 0.82723 0.37598 0.26238 0.0
C718 C 0.82789 0.36805 0.24159 0.0
C719 C 0.84558 0.36853 0.23111 0.0
C720 C 0.86201 0.37562 0.24141 0.0
C721 C 0.84418 0.38345 0.27215 0.0
H722 H 0.87531 0.37409 0.23291 0.0
H723 H 0.84337 0.38909 0.28822 0.0
H724 H 0.91662 0.41994 0.27982 0.0
H725 H 0.91259 0.35753 0.30336 0.0
C726 C 0.91416 0.36527 0.24051 0.0
C727 C 0.87068 0.33746 0.29253 0.0
C728 C 0.88594 0.43547 0.2515 0.0
C729 C 0.87315 0.40743 0.32099 0.0
H730 H 0.88911 0.30463 0.26698 0.0
H731 H 0.91453 0.31963 0.23954 0.0
H732 H 0.9268 0.39464 0.20902 0.0
H733 H 0.90987 0.43243 0.21421 0.0
H734 H 0.87272 0.46711 0.28139 0.0
H735 H 0.86747 0.45218 0.31984 0.0
H736 H 0.86093 0.37833 0.35243 0.0
H737 H 0.85803 0.33993 0.33603 0.0
H738 H 0.9508 0.42018 0.28818 0.0
H739 H 0.94697 0.35679 0.31226 0.0
H740 H 0.81383 0.37611 0.27113 0.0
H741 H 0.84709 0.3623 0.21525 0.0
C742 C 0.16888 0.3275 0.75894 0.0
C743 C 0.16848 0.31106 0.77337 0.0
C744 C 0.16818 0.32003 0.79305 0.0
C745 C 0.16833 0.34139 0.7896 0.0
N746 N 0.16823 0.34657 0.76895 0.0
Co747 Co 0.17076 0.37583 0.7577 0.0
N748 N 0.16612 0.38925 0.78594 0.0
C749 C 0.16641 0.37909 0.8046 0.0
C750 C 0.16287 0.39226 0.82146 0.0
C751 C 0.16029 0.41204 0.81293 0.0
C752 C 0.16241 0.40984 0.79128 0.0
N753 N 0.17397 0.40502 0.74648 0.0
C754 C 0.16991 0.42419 0.75525 0.0
C755 C 0.17465 0.44048 0.74171 0.0
C756 C 0.18193 0.43128 0.72387 0.0
C757 C 0.18122 0.41001 0.72748 0.0
N758 N 0.17483 0.36287 0.72911 0.0
C759 C 0.18089 0.37306 0.71177 0.0
C760 C 0.18247 0.36052 0.69425 0.0
C761 C 0.17752 0.34095 0.70088 0.0
C762 C 0.1732 0.34261 0.72227 0.0
N763 N 0.1425 0.37769 0.75221 0.0
C764 C 0.1018 0.3802 0.74651 0.0
C765 C 0.11443 0.38644 0.73043 0.0
C766 C 0.13469 0.38522 0.73366 0.0
C767 C 0.11015 0.3724 0.76521 0.0
C768 C 0.13023 0.37117 0.76765 0.0
N769 N 0.19895 0.37317 0.76423 0.0
C770 C 0.2269 0.3495 0.76675 0.0
C771 C 0.23424 0.3604 0.78426 0.0
C772 C 0.22452 0.37946 0.78967 0.0
C773 C 0.20732 0.38578 0.77913 0.0
C774 C 0.20943 0.35594 0.75722 0.0
H775 H 0.20027 0.40029 0.78407 0.0
H776 H 0.20409 0.346 0.74496 0.0
H777 H 0.14397 0.39048 0.7212 0.0
H778 H 0.13573 0.36495 0.78231 0.0
C779 C 0.16792 0.35704 0.80527 0.0
C780 C 0.17166 0.3241 0.73609 0.0
C781 C 0.16229 0.42781 0.77652 0.0
C782 C 0.18426 0.39456 0.71224 0.0
H783 H 0.16896 0.29431 0.77 0.0
H784 H 0.16808 0.31191 0.80808 0.0
H785 H 0.16188 0.38796 0.83794 0.0
H786 H 0.15743 0.42647 0.82162 0.0
H787 H 0.17295 0.45729 0.74436 0.0
H788 H 0.18644 0.43916 0.70963 0.0
H789 H 0.18699 0.365 0.67858 0.0
H790 H 0.17813 0.32692 0.69119 0.0
H791 H 0.10873 0.39264 0.71567 0.0
H792 H 0.10118 0.36702 0.77799 0.0
H793 H 0.23417 0.33552 0.76062 0.0
H794 H 0.22947 0.38911 0.80259 0.0
C795 C 0.16935 0.69093 0.27177 0.0
C796 C 0.16307 0.70589 0.25713 0.0
C797 C 0.15101 0.69574 0.24326 0.0
C798 C 0.15067 0.67512 0.24998 0.0
N799 N 0.1617 0.67179 0.26721 0.0
Co800 Co 0.16784 0.64387 0.28018 0.0
N801 N 0.15857 0.62779 0.25521 0.0
C802 C 0.14691 0.63591 0.23998 0.0
C803 C 0.14185 0.62115 0.22518 0.0
C804 C 0.15057 0.60253 0.23171 0.0
C805 C 0.16052 0.60691 0.25022 0.0
N806 N 0.1749 0.61621 0.29339 0.0
C807 C 0.17639 0.59649 0.28495 0.0
C808 C 0.18091 0.58165 0.30049 0.0
C809 C 0.18184 0.59231 0.31923 0.0
C810 C 0.17792 0.61301 0.31421 0.0
N811 N 0.17594 0.65957 0.30569 0.0
C812 C 0.17731 0.6517 0.32536 0.0
C813 C 0.1822 0.66656 0.34012 0.0
C814 C 0.18413 0.6849 0.32897 0.0
C815 C 0.18048 0.68007 0.30795 0.0
N816 N 0.14129 0.64253 0.29161 0.0
C817 C 0.10087 0.64247 0.29841 0.0
C818 C 0.11133 0.62378 0.29377 0.0
C819 C 0.13136 0.62412 0.29059 0.0
C820 C 0.1115 0.66094 0.30102 0.0
C821 C 0.1316 0.6606 0.29771 0.0
N822 N 0.19393 0.64614 0.2676 0.0
C823 C 0.22651 0.65925 0.27002 0.0
C824 C 0.22706 0.66228 0.24804 0.0
C825 C 0.21133 0.65562 0.23614 0.0
C826 C 0.19509 0.64788 0.24606 0.0
C827 C 0.20999 0.65063 0.27944 0.0
H828 H 0.18303 0.64498 0.23592 0.0
H829 H 0.20988 0.64877 0.29638 0.0
H830 H 0.13853 0.60956 0.28614 0.0
H831 H 0.13914 0.67524 0.29917 0.0
C832 C 0.14365 0.65789 0.23849 0.0
C833 C 0.18172 0.69511 0.29048 0.0
C834 C 0.17052 0.59066 0.26334 0.0
C835 C 0.17799 0.6299 0.32842 0.0
H836 H 0.16696 0.72227 0.25625 0.0
H837 H 0.14426 0.70238 0.22922 0.0
H838 H 0.1333 0.62369 0.21101 0.0
H839 H 0.14957 0.58744 0.22385 0.0
H840 H 0.18244 0.56472 0.29873 0.0
H841 H 0.18485 0.58572 0.3347 0.0
H842 H 0.1851 0.66411 0.35677 0.0
H843 H 0.18817 0.69997 0.33547 0.0
H844 H 0.10403 0.60903 0.29152 0.0
H845 H 0.10435 0.67572 0.3052 0.0
H846 H 0.23855 0.66384 0.27986 0.0
H847 H 0.21098 0.65766 0.21914 0.0
C848 C 0.76948 0.83504 0.65737 0.0
C849 C 0.75667 0.81862 0.65877 0.0
C850 C 0.73862 0.82714 0.65517 0.0
C851 C 0.74133 0.84825 0.65191 0.0
N852 N 0.76007 0.85366 0.65255 0.0
Co853 Co 0.76952 0.88336 0.65343 0.0
N854 N 0.74313 0.89609 0.64767 0.0
C855 C 0.72653 0.88545 0.64666 0.0
C856 C 0.7106 0.89815 0.64255 0.0
C857 C 0.71748 0.91816 0.64101 0.0
C858 C 0.73728 0.91656 0.64431 0.0
N859 N 0.77905 0.91291 0.65565 0.0
C860 C 0.76985 0.93187 0.65251 0.0
C861 C 0.78224 0.9485 0.65574 0.0
C862 C 0.79974 0.93983 0.66124 0.0
C863 C 0.79714 0.91849 0.66098 0.0
N864 N 0.79622 0.87096 0.65768 0.0
C865 C 0.8126 0.88169 0.66056 0.0
C866 C 0.82895 0.86911 0.66169 0.0
C867 C 0.82255 0.84899 0.66006 0.0
C868 C 0.80256 0.85052 0.65834 0.0
N869 N 0.77398 0.88314 0.62235 0.0
C870 C 0.77829 0.88333 0.5778 0.0
C871 C 0.79258 0.89147 0.59113 0.0
C872 C 0.79006 0.89144 0.61325 0.0
C873 C 0.76207 0.87479 0.58732 0.0
C874 C 0.76032 0.87466 0.60932 0.0
N875 N 0.76409 0.88269 0.68445 0.0
C876 C 0.76573 0.85913 0.71452 0.0
C877 C 0.74652 0.86413 0.71985 0.0
C878 C 0.73765 0.88128 0.70927 0.0
C879 C 0.74693 0.89075 0.69214 0.0
C880 C 0.77435 0.86902 0.69728 0.0
H881 H 0.73946 0.90375 0.68454 0.0
H882 H 0.78894 0.86446 0.69386 0.0
H883 H 0.80112 0.89833 0.62278 0.0
H884 H 0.74763 0.86775 0.61557 0.0
C885 C 0.72662 0.86357 0.64934 0.0
C886 C 0.79019 0.83267 0.66251 0.0
C887 C 0.74957 0.93505 0.64632 0.0
C888 C 0.81199 0.90346 0.66286 0.0
H889 H 0.75989 0.80234 0.66281 0.0
H890 H 0.72504 0.81906 0.65578 0.0
H891 H 0.69573 0.89345 0.64103 0.0
H892 H 0.70886 0.93241 0.63839 0.0
H893 H 0.77911 0.96521 0.65391 0.0
H894 H 0.813 0.94808 0.66422 0.0
H895 H 0.84368 0.87394 0.66424 0.0
H896 H 0.8314 0.83474 0.66162 0.0
H897 H 0.80538 0.89832 0.5845 0.0
H898 H 0.75073 0.86806 0.57779 0.0
H899 H 0.77381 0.84679 0.72273 0.0
H900 H 0.72338 0.887 0.71374 0.0
C901 C 0.67081 0.25571 0.19119 0.0
C902 C 0.67076 0.27119 0.20671 0.0
C903 C 0.66823 0.29015 0.19667 0.0
C904 C 0.66702 0.28532 0.17561 0.0
N905 N 0.6681 0.2644 0.1716 0.0
Co906 Co 0.6712 0.25162 0.14277 0.0
N907 N 0.66559 0.2791 0.12791 0.0
C908 C 0.66389 0.29814 0.13724 0.0
C909 C 0.65992 0.31425 0.12327 0.0
C910 C 0.65914 0.30485 0.10379 0.0
C911 C 0.66273 0.28347 0.10698 0.0
N912 N 0.6755 0.23891 0.11411 0.0
C913 C 0.67268 0.24706 0.09443 0.0
C914 C 0.67795 0.23256 0.07891 0.0
C915 C 0.6842 0.2147 0.08909 0.0
C916 C 0.68244 0.21923 0.11016 0.0
N917 N 0.6755 0.22371 0.15714 0.0
C918 C 0.68014 0.20523 0.14771 0.0
C919 C 0.68057 0.18832 0.16118 0.0
C920 C 0.67646 0.19663 0.18058 0.0
C921 C 0.67413 0.21829 0.17784 0.0
N922 N 0.64315 0.24583 0.14121 0.0
C923 C 0.60293 0.2383 0.14132 0.0
C924 C 0.61617 0.22354 0.13267 0.0
C925 C 0.63615 0.22754 0.13287 0.0
C926 C 0.61034 0.25704 0.14936 0.0
C927 C 0.63021 0.26049 0.14906 0.0
N928 N 0.69917 0.2584 0.14528 0.0
C929 C 0.72543 0.2607 0.17053 0.0
C930 C 0.73059 0.28042 0.16265 0.0
C931 C 0.72168 0.28705 0.14369 0.0
C932 C 0.70643 0.2755 0.13499 0.0
C933 C 0.71005 0.2499 0.16149 0.0
H934 H 0.6998 0.28144 0.1207 0.0
H935 H 0.70648 0.23533 0.16878 0.0
H936 H 0.64581 0.21571 0.12639 0.0
H937 H 0.63496 0.27519 0.15534 0.0
C938 C 0.66526 0.29999 0.15918 0.0
C939 C 0.67525 0.23323 0.1955 0.0
C940 C 0.66497 0.26823 0.08956 0.0
C941 C 0.68407 0.20437 0.12624 0.0
H942 H 0.67307 0.26924 0.22349 0.0
H943 H 0.66795 0.30566 0.20383 0.0
H944 H 0.65778 0.33085 0.12681 0.0
H945 H 0.65664 0.31283 0.08889 0.0
H946 H 0.67701 0.23452 0.06195 0.0
H947 H 0.68862 0.19984 0.08195 0.0
H948 H 0.68398 0.17198 0.15746 0.0
H949 H 0.67656 0.18798 0.19531 0.0
H950 H 0.61122 0.20879 0.12622 0.0
H951 H 0.6008 0.26921 0.15576 0.0
H952 H 0.73272 0.2539 0.18418 0.0
H953 H 0.72557 0.30166 0.1362 0.0
C954 C 0.24916 0.1916 0.65835 0.0
C955 C 0.26129 0.20857 0.65634 0.0
C956 C 0.27947 0.20034 0.653 0.0
C957 C 0.27745 0.17887 0.65307 0.0
N958 N 0.25903 0.1729 0.65568 0.0
Co959 Co 0.25075 0.1431 0.65964 0.0
N960 N 0.27659 0.13089 0.65111 0.0
C961 C 0.29279 0.14188 0.64839 0.0
C962 C 0.30846 0.12947 0.64272 0.0
C963 C 0.30181 0.1093 0.64195 0.0
C964 C 0.28241 0.11052 0.64723 0.0
N965 N 0.24264 0.11341 0.66469 0.0
C966 C 0.25155 0.09461 0.66019 0.0
C967 C 0.24036 0.07778 0.6663 0.0
C968 C 0.22404 0.08621 0.67519 0.0
C969 C 0.22607 0.1076 0.6739 0.0
N970 N 0.22448 0.15497 0.66712 0.0
C971 C 0.20966 0.14394 0.67476 0.0
C972 C 0.19327 0.15587 0.67836 0.0
C973 C 0.19799 0.17593 0.67313 0.0
C974 C 0.21715 0.17512 0.6666 0.0
N975 N 0.24259 0.14143 0.62964 0.0
C976 C 0.23297 0.13905 0.58619 0.0
C977 C 0.22126 0.1299 0.60162 0.0
C978 C 0.22624 0.13141 0.62323 0.0
C979 C 0.24955 0.14922 0.59314 0.0
C980 C 0.25406 0.15017 0.61462 0.0
N981 N 0.25982 0.1455 0.68939 0.0
C982 C 0.26421 0.17024 0.71793 0.0
C983 C 0.28311 0.16251 0.7216 0.0
C984 C 0.28853 0.1436 0.71132 0.0
C985 C 0.27634 0.13497 0.6959 0.0
C986 C 0.25293 0.16164 0.70186 0.0
H987 H 0.28122 0.12072 0.68811 0.0
H988 H 0.23928 0.16936 0.69882 0.0
H989 H 0.21687 0.1244 0.63463 0.0
H990 H 0.26711 0.15788 0.61886 0.0
C991 C 0.29236 0.16387 0.65009 0.0
C992 C 0.22874 0.1941 0.66441 0.0
C993 C 0.27067 0.09179 0.65062 0.0
C994 C 0.21152 0.12238 0.67821 0.0
H995 H 0.25746 0.22517 0.65776 0.0
H996 H 0.29263 0.20898 0.65103 0.0
H997 H 0.32297 0.13449 0.63946 0.0
H998 H 0.31037 0.09521 0.63846 0.0
H999 H 0.24351 0.06109 0.66433 0.0
H1000 H 0.21179 0.07775 0.68106 0.0
H1001 H 0.17963 0.15068 0.68455 0.0
H1002 H 0.18862 0.18965 0.67512 0.0
H1003 H 0.20823 0.1219 0.59709 0.0
H1004 H 0.25934 0.15616 0.58197 0.0
H1005 H 0.25836 0.18364 0.72658 0.0
H1006 H 0.30252 0.13609 0.71402 0.0
C1007 C 0.3767 0.76731 0.1843 0.0
C1008 C 0.38328 0.75391 0.20021 0.0
C1009 C 0.39613 0.73976 0.19099 0.0
C1010 C 0.39664 0.74514 0.16995 0.0
N1011 N 0.38497 0.7618 0.16553 0.0
Co1012 Co 0.37901 0.77303 0.13693 0.0
N1013 N 0.38921 0.74724 0.12244 0.0
C1014 C 0.40123 0.73274 0.13141 0.0
C1015 C 0.40682 0.71708 0.11756 0.0
C1016 C 0.39805 0.72226 0.09867 0.0
C1017 C 0.38754 0.74088 0.10196 0.0
N1018 N 0.37221 0.7845 0.10855 0.0
C1019 C 0.37118 0.77482 0.08942 0.0
C1020 C 0.3667 0.78939 0.07361 0.0
C1021 C 0.36529 0.80877 0.08307 0.0
C1022 C 0.36891 0.80507 0.10406 0.0
N1023 N 0.36982 0.79926 0.15104 0.0
C1024 C 0.36805 0.81842 0.14208 0.0
C1025 C 0.36194 0.83378 0.15601 0.0
C1026 C 0.35963 0.82353 0.17486 0.0
C1027 C 0.36435 0.80243 0.17125 0.0
N1028 N 0.40526 0.78468 0.13503 0.0
C1029 C 0.44547 0.79202 0.13493 0.0
C1030 C 0.43564 0.78609 0.11645 0.0
C1031 C 0.41571 0.78259 0.11681 0.0
C1032 C 0.43426 0.79577 0.15306 0.0
C1033 C 0.41427 0.79215 0.15275 0.0
N1034 N 0.35325 0.76037 0.13988 0.0
C1035 C 0.32028 0.76373 0.15237 0.0
C1036 C 0.32038 0.74228 0.15809 0.0
C1037 C 0.33661 0.72993 0.15279 0.0
C1038 C 0.35269 0.73914 0.1439 0.0
C1039 C 0.33672 0.77237 0.14283 0.0
H1040 H 0.36517 0.72899 0.14212 0.0
H1041 H 0.33644 0.789 0.13914 0.0
H1042 H 0.40901 0.77717 0.10248 0.0
H1043 H 0.4063 0.79438 0.16722 0.0
C1044 C 0.40433 0.73271 0.15344 0.0
C1045 C 0.36334 0.78572 0.18711 0.0
C1046 C 0.37728 0.75282 0.08505 0.0
C1047 C 0.368 0.82026 0.12011 0.0
H1048 H 0.37909 0.75405 0.21663 0.0
H1049 H 0.40331 0.72637 0.19853 0.0
H1050 H 0.41576 0.70322 0.12091 0.0
H1051 H 0.39938 0.71343 0.08409 0.0
H1052 H 0.36545 0.78654 0.05682 0.0
H1053 H 0.36207 0.82377 0.07552 0.0
H1054 H 0.35843 0.85016 0.1526 0.0
H1055 H 0.35464 0.83064 0.18945 0.0
H1056 H 0.44334 0.78365 0.10179 0.0
H1057 H 0.44095 0.80047 0.16777 0.0
H1058 H 0.30784 0.77384 0.15574 0.0
H1059 H 0.33751 0.71333 0.15687 0.0
C1060 C 0.75571 0.16923 0.33436 0.0
C1061 C 0.76948 0.1679 0.31853 0.0
C1062 C 0.78712 0.16602 0.32831 0.0
C1063 C 0.78326 0.16641 0.34952 0.0
N1064 N 0.76421 0.16787 0.35387 0.0
Co1065 Co 0.75325 0.17282 0.38273 0.0
N1066 N 0.77854 0.16654 0.39732 0.0
C1067 C 0.79584 0.16486 0.38781 0.0
C1068 C 0.81077 0.16054 0.40165 0.0
C1069 C 0.8024 0.15954 0.4212 0.0
C1070 C 0.78277 0.16336 0.4182 0.0
N1071 N 0.74233 0.17862 0.41143 0.0
C1072 C 0.74983 0.175 0.43103 0.0
C1073 C 0.73721 0.18197 0.44667 0.0
C1074 C 0.72119 0.19006 0.43662 0.0
C1075 C 0.72491 0.18766 0.41551 0.0
N1076 N 0.7276 0.17827 0.3687 0.0
C1077 C 0.71129 0.18529 0.37818 0.0
C1078 C 0.69541 0.18567 0.36516 0.0
C1079 C 0.70214 0.179 0.34601 0.0
C1080 C 0.72191 0.17535 0.34835 0.0
N1081 N 0.74711 0.14255 0.38506 0.0
C1082 C 0.73954 0.09889 0.38634 0.0
C1083 C 0.72543 0.11402 0.39239 0.0
C1084 C 0.72956 0.13572 0.39184 0.0
C1085 C 0.7574 0.10622 0.37968 0.0
C1086 C 0.76081 0.12783 0.37906 0.0
N1087 N 0.76034 0.20291 0.37949 0.0
C1088 C 0.76545 0.23013 0.35349 0.0
C1089 C 0.7822 0.23657 0.36393 0.0
C1090 C 0.78614 0.22768 0.38388 0.0
C1091 C 0.77473 0.2113 0.39161 0.0
C1092 C 0.75468 0.21365 0.36164 0.0
H1093 H 0.77854 0.20452 0.40671 0.0
H1094 H 0.74274 0.20872 0.35227 0.0
H1095 H 0.71854 0.14688 0.39685 0.0
H1096 H 0.77468 0.13249 0.37353 0.0
C1097 C 0.79708 0.16547 0.36577 0.0
C1098 C 0.73505 0.17413 0.33023 0.0
C1099 C 0.76887 0.16543 0.43567 0.0
C1100 C 0.71119 0.19028 0.39955 0.0
H1101 H 0.76719 0.16902 0.30167 0.0
H1102 H 0.80113 0.16507 0.32082 0.0
H1103 H 0.82591 0.15805 0.39795 0.0
H1104 H 0.80988 0.15666 0.43601 0.0
H1105 H 0.73924 0.18108 0.46361 0.0
H1106 H 0.70804 0.19606 0.44387 0.0
H1107 H 0.68074 0.19042 0.36907 0.0
H1108 H 0.69371 0.17828 0.33158 0.0
H1109 H 0.71142 0.10914 0.3978 0.0
H1110 H 0.76871 0.09529 0.37457 0.0
H1111 H 0.76132 0.23665 0.33828 0.0
H1112 H 0.79833 0.23281 0.39318 0.0
C1113 C 0.35376 0.27755 0.87061 0.0
C1114 C 0.33902 0.26319 0.87207 0.0
C1115 C 0.34766 0.24375 0.87481 0.0
C1116 C 0.36713 0.2473 0.87501 0.0
N1117 N 0.37145 0.26787 0.87317 0.0
Co1118 Co 0.39809 0.27899 0.86973 0.0
N1119 N 0.41095 0.25083 0.87596 0.0
C1120 C 0.40186 0.23238 0.87798 0.0
C1121 C 0.41418 0.21557 0.88209 0.0
C1122 C 0.43228 0.2238 0.88256 0.0
C1123 C 0.43 0.24525 0.87869 0.0
N1124 N 0.42469 0.28998 0.86522 0.0
C1125 C 0.44249 0.28082 0.86824 0.0
C1126 C 0.45708 0.29464 0.86333 0.0
C1127 C 0.44827 0.31294 0.85674 0.0
C1128 C 0.42889 0.30938 0.85811 0.0
N1129 N 0.38556 0.30756 0.86477 0.0
C1130 C 0.39474 0.32517 0.85904 0.0
C1131 C 0.38282 0.34251 0.85656 0.0
C1132 C 0.36475 0.33549 0.8604 0.0
C1133 C 0.36664 0.31408 0.86506 0.0
N1134 N 0.39965 0.28548 0.90035 0.0
C1135 C 0.40187 0.29278 0.9443 0.0
C1136 C 0.40768 0.30813 0.92987 0.0
C1137 C 0.40662 0.30409 0.90797 0.0
C1138 C 0.3948 0.27396 0.93632 0.0
C1139 C 0.39361 0.27075 0.91454 0.0
N1140 N 0.39572 0.27153 0.83916 0.0
C1141 C 0.37274 0.27096 0.81029 0.0
C1142 C 0.37736 0.2497 0.80607 0.0
C1143 C 0.39401 0.24122 0.81603 0.0
C1144 C 0.40342 0.25279 0.83181 0.0
C1145 C 0.38204 0.28153 0.82671 0.0
H1146 H 0.41606 0.24559 0.83897 0.0
H1147 H 0.37705 0.29735 0.82974 0.0
H1148 H 0.41154 0.31602 0.89736 0.0
H1149 H 0.38785 0.25611 0.9094 0.0
C1150 C 0.38172 0.23173 0.87683 0.0
C1151 C 0.35016 0.2999 0.86523 0.0
C1152 C 0.44642 0.2592 0.87556 0.0
C1153 C 0.4145 0.32478 0.85556 0.0
H1154 H 0.32364 0.26638 0.87059 0.0
H1155 H 0.3406 0.22876 0.87605 0.0
H1156 H 0.41045 0.19926 0.88447 0.0
H1157 H 0.44569 0.21495 0.88493 0.0
H1158 H 0.47253 0.29195 0.86467 0.0
H1159 H 0.45517 0.3274 0.85227 0.0
H1160 H 0.38672 0.35822 0.85176 0.0
H1161 H 0.3517 0.34501 0.8586 0.0
H1162 H 0.4133 0.32293 0.93545 0.0
H1163 H 0.39007 0.26172 0.94692 0.0
H1164 H 0.36133 0.27928 0.80172 0.0
H1165 H 0.39924 0.22536 0.81276 0.0
C1166 C 0.26191 0.82542 0.36603 0.0
C1167 C 0.27521 0.80996 0.3724 0.0
C1168 C 0.2883 0.81968 0.38543 0.0
C1169 C 0.28246 0.84057 0.3862 0.0
N1170 N 0.26654 0.84448 0.3745 0.0
Co1171 Co 0.25486 0.87285 0.36877 0.0
N1172 N 0.27793 0.88808 0.37914 0.0
C1173 C 0.29196 0.87942 0.3914 0.0
C1174 C 0.30573 0.89367 0.39706 0.0
C1175 C 0.29983 0.9125 0.38804 0.0
C1176 C 0.28274 0.90874 0.37728 0.0
N1177 N 0.24293 0.90104 0.36223 0.0
C1178 C 0.25086 0.92042 0.36095 0.0
C1179 C 0.23676 0.93587 0.35671 0.0
C1180 C 0.21947 0.92594 0.35578 0.0
C1181 C 0.22388 0.90505 0.35939 0.0
N1182 N 0.23127 0.85814 0.35958 0.0
C1183 C 0.21335 0.86678 0.35852 0.0
C1184 C 0.19956 0.85254 0.35308 0.0
C1185 C 0.20946 0.83375 0.35048 0.0
C1186 C 0.22882 0.8377 0.35429 0.0
N1187 N 0.24462 0.87416 0.39801 0.0
C1188 C 0.2383 0.87275 0.44235 0.0
C1189 C 0.2439 0.89139 0.43221 0.0
C1190 C 0.24669 0.89184 0.41021 0.0
C1191 C 0.2346 0.85533 0.42923 0.0
C1192 C 0.2379 0.85632 0.40735 0.0
N1193 N 0.26618 0.87034 0.33996 0.0
C1194 C 0.26383 0.85608 0.30442 0.0
C1195 C 0.28395 0.85207 0.30377 0.0
C1196 C 0.29489 0.85974 0.3206 0.0
C1197 C 0.28591 0.86843 0.33834 0.0
C1198 C 0.2553 0.86556 0.32248 0.0
H1199 H 0.29537 0.87202 0.35119 0.0
H1200 H 0.23979 0.86774 0.32269 0.0
H1201 H 0.25152 0.9063 0.4033 0.0
H1202 H 0.23578 0.84223 0.39814 0.0
C1203 C 0.29322 0.85738 0.39421 0.0
C1204 C 0.24447 0.82176 0.35286 0.0
C1205 C 0.2709 0.92535 0.36661 0.0
C1206 C 0.21074 0.88867 0.35875 0.0
H1207 H 0.27566 0.79349 0.36796 0.0
H1208 H 0.30113 0.81254 0.39252 0.0
H1209 H 0.31882 0.89062 0.4061 0.0
H1210 H 0.30718 0.92732 0.38931 0.0
H1211 H 0.23863 0.95271 0.35529 0.0
H1212 H 0.20536 0.93311 0.35283 0.0
H1213 H 0.18431 0.85563 0.35034 0.0
H1214 H 0.20317 0.81891 0.34605 0.0
H1215 H 0.24701 0.90545 0.44117 0.0
H1216 H 0.22953 0.84071 0.43573 0.0
H1217 H 0.2546 0.85102 0.29163 0.0
H1218 H 0.31051 0.85825 0.32065 0.0
C1219 C 0.66051 0.76632 0.83197 0.0
C1220 C 0.65454 0.75289 0.8161 0.0
C1221 C 0.6434 0.73792 0.82564 0.0
C1222 C 0.64319 0.74302 0.84679 0.0
N1223 N 0.65343 0.76025 0.85098 0.0
Co1224 Co 0.65853 0.77213 0.87939 0.0
N1225 N 0.6508 0.74598 0.8942 0.0
C1226 C 0.64019 0.73068 0.88545 0.0
C1227 C 0.6361 0.71494 0.89953 0.0
C1228 C 0.64438 0.72089 0.91834 0.0
C1229 C 0.65311 0.74002 0.91476 0.0
N1230 N 0.66426 0.78433 0.90763 0.0
C1231 C 0.66614 0.77499 0.92687 0.0
C1232 C 0.66931 0.78996 0.94251 0.0
C1233 C 0.66903 0.80923 0.93284 0.0
C1234 C 0.66576 0.80507 0.9119 0.0
N1235 N 0.66534 0.79867 0.865 0.0
C1236 C 0.66568 0.81796 0.87381 0.0
C1237 C 0.67056 0.83342 0.85978 0.0
C1238 C 0.67354 0.82316 0.84098 0.0
C1239 C 0.67032 0.80195 0.84471 0.0
N1240 N 0.6312 0.78239 0.88119 0.0
C1241 C 0.59039 0.78884 0.8809 0.0
C1242 C 0.60043 0.78265 0.89935 0.0
C1243 C 0.62066 0.77963 0.8992 0.0
C1244 C 0.60161 0.79297 0.86297 0.0
C1245 C 0.62181 0.78979 0.86347 0.0
N1246 N 0.68551 0.76085 0.87646 0.0
C1247 C 0.71854 0.76576 0.86502 0.0
C1248 C 0.72068 0.74427 0.85937 0.0
C1249 C 0.70539 0.7312 0.86463 0.0
C1250 C 0.68816 0.73967 0.87273 0.0
C1251 C 0.701 0.77364 0.87378 0.0
H1252 H 0.67662 0.72886 0.87451 0.0
H1253 H 0.69967 0.79031 0.87718 0.0
H1254 H 0.62759 0.77412 0.9135 0.0
H1255 H 0.62975 0.79253 0.84916 0.0
C1256 C 0.63687 0.73028 0.86346 0.0
C1257 C 0.67204 0.78534 0.82879 0.0
C1258 C 0.66221 0.75276 0.93149 0.0
C1259 C 0.66552 0.82005 0.89572 0.0
H1260 H 0.65797 0.75378 0.79947 0.0
H1261 H 0.63704 0.72436 0.81818 0.0
H1262 H 0.62844 0.70058 0.8964 0.0
H1263 H 0.64387 0.71226 0.93306 0.0
H1264 H 0.67086 0.78739 0.95934 0.0
H1265 H 0.67097 0.82445 0.94021 0.0
H1266 H 0.67281 0.84994 0.86307 0.0
H1267 H 0.67788 0.83038 0.82632 0.0
H1268 H 0.5927 0.7792 0.9137 0.0
H1269 H 0.59486 0.79838 0.84843 0.0
H1270 H 0.72989 0.77672 0.86179 0.0
H1271 H 0.7063 0.71435 0.86187 0.0
H1272 H 0.20077 0.56313 0.255 0.0
H1273 H 0.13657 0.45913 0.26257 0.0
H1274 H 0.13887 0.56526 0.261 0.0
H1275 H 0.1985 0.45711 0.25685 0.0
H1276 H 0.13672 0.4977 0.25849 0.0
H1277 H 0.19998 0.52447 0.25215 0.0
C1278 C 0.18697 0.55546 0.25521 0.0
C1279 C 0.16985 0.56751 0.25788 0.0
C1280 C 0.15028 0.48886 0.25778 0.0
C1281 C 0.16878 0.52299 0.25516 0.0
C1282 C 0.15016 0.46678 0.25991 0.0
C1283 C 0.16752 0.45479 0.25967 0.0
C1284 C 0.16793 0.49923 0.25558 0.0
C1285 C 0.18477 0.46567 0.2568 0.0
C1286 C 0.18651 0.53334 0.25375 0.0
C1287 C 0.15238 0.55665 0.25857 0.0
N1288 N 0.18455 0.48716 0.25499 0.0
N1289 N 0.15231 0.53511 0.25735 0.0
H1290 H 0.95721 0.68071 0.73664 0.0
H1291 H 0.0538 0.61632 0.77123 0.0
H1292 H 0.95707 0.62321 0.77267 0.0
H1293 H 0.05413 0.66679 0.72547 0.0
H1294 H 1.01863 0.61896 0.77196 0.0
H1295 H 0.99247 0.6763 0.73222 0.0
C1296 C 0.96458 0.66694 0.74326 0.0
C1297 C 0.95415 0.65214 0.75476 0.0
C1298 C 0.02636 0.62942 0.76166 0.0
C1299 C 0.99467 0.64722 0.75034 0.0
C1300 C 0.04663 0.62783 0.76108 0.0
C1301 C 0.05743 0.64124 0.74816 0.0
C1302 C 1.01641 0.6447 0.7494 0.0
C1303 C 0.0468 0.6562 0.73595 0.0
C1304 C 0.98473 0.66448 0.74087 0.0
C1305 C 0.9645 0.63483 0.76343 0.0
N1306 N 0.02705 0.65754 0.73693 0.0
N1307 N 0.98409 0.63293 0.76117 0.0
H1308 H 0.85667 0.46098 0.23605 0.0
H1309 H 0.91921 0.56567 0.24499 0.0
H1310 H 0.91779 0.46023 0.24899 0.0
H1311 H 0.85754 0.56646 0.23589 0.0
H1312 H 0.91988 0.52714 0.24063 0.0
H1313 H 0.85755 0.49923 0.23001 0.0
C1314 C 0.87039 0.46881 0.23694 0.0
C1315 C 0.88723 0.45737 0.24268 0.0
C1316 C 0.90622 0.53572 0.23915 0.0
C1317 C 0.88832 0.50135 0.23646 0.0
C1318 C 0.90589 0.55776 0.24141 0.0
C1319 C 0.88833 0.5693 0.24044 0.0
C1320 C 0.88884 0.52503 0.23609 0.0
C1321 C 0.8714 0.55818 0.23642 0.0
C1322 C 0.87087 0.49069 0.23372 0.0
C1323 C 0.90455 0.46839 0.2442 0.0
N1324 N 0.87205 0.53671 0.23456 0.0
N1325 N 0.90461 0.48973 0.24131 0.0
H1326 H 0.0758 0.39507 0.77575 0.0
H1327 H 0.97982 0.36274 0.71255 0.0
H1328 H 0.0781 0.3691 0.71286 0.0
H1329 H 0.97981 0.39872 0.77039 0.0
H1330 H 1.01538 0.36341 0.71241 0.0
H1331 H 0.04057 0.39537 0.77397 0.0
C1332 C 0.0689 0.38942 0.7615 0.0
C1333 C 0.08011 0.38193 0.74448 0.0
C1334 C 1.00756 0.37123 0.72506 0.0
C1335 C 0.03924 0.38215 0.74233 0.0
C1336 C 0.98721 0.37076 0.72523 0.0
C1337 C 0.97656 0.38082 0.74143 0.0
C1338 C 1.0175 0.3816 0.74136 0.0
C1339 C 0.98715 0.39104 0.75733 0.0
C1340 C 0.04868 0.38965 0.76047 0.0
C1341 C 0.07015 0.37511 0.72634 0.0
N1342 N 1.00685 0.39108 0.75691 0.0
N1343 N 0.05035 0.37521 0.72581 0.0
H1344 H 0.1883 0.45409 0.79511 0.0
H1345 H 0.12125 0.55899 0.78018 0.0
H1346 H 0.1297 0.45308 0.77225 0.0
H1347 H 0.18292 0.56016 0.78866 0.0
H1348 H 0.12267 0.52029 0.78364 0.0
H1349 H 0.18519 0.49264 0.79935 0.0
C1350 C 0.17458 0.46194 0.7916 0.0
C1351 C 0.15911 0.45029 0.7837 0.0
C1352 C 0.13588 0.52899 0.78512 0.0
C1353 C 0.15552 0.49462 0.78801 0.0
C1354 C 0.13502 0.55112 0.78336 0.0
C1355 C 0.15195 0.56287 0.78452 0.0
C1356 C 0.15381 0.51839 0.78807 0.0
C1357 C 0.1695 0.55177 0.78804 0.0
C1358 C 0.17286 0.48399 0.79378 0.0
C1359 C 0.14184 0.46138 0.77877 0.0
N1360 N 0.16998 0.53024 0.78964 0.0
N1361 N 0.14053 0.48284 0.78093 0.0
H1362 H 0.97808 0.67443 0.28267 0.0
H1363 H 0.07669 0.61159 0.31322 0.0
H1364 H 0.97983 0.61035 0.3057 0.0
H1365 H 0.07488 0.67391 0.28572 0.0
H1366 H 0.04136 0.61154 0.31238 0.0
H1367 H 1.01326 0.67525 0.2858 0.0
C1368 C 0.98576 0.66057 0.28862 0.0
C1369 C 0.97571 0.64229 0.29395 0.0
C1370 C 0.04868 0.62526 0.30659 0.0
C1371 C 1.01647 0.64308 0.29732 0.0
C1372 C 0.06896 0.62529 0.30697 0.0
C1373 C 0.07908 0.64276 0.29945 0.0
C1374 C 0.03817 0.64283 0.29866 0.0
C1375 C 0.06795 0.66015 0.29197 0.0
C1376 C 1.00597 0.66102 0.29025 0.0
C1377 C 0.98678 0.62475 0.30115 0.0
N1378 N 0.04824 0.65969 0.2917 0.0
N1379 N 1.00645 0.62559 0.30261 0.0
H1380 H 0.91743 0.55572 0.81145 0.0
H1381 H 0.85328 0.45348 0.79121 0.0
H1382 H 0.85705 0.55891 0.79382 0.0
H1383 H 0.91548 0.45123 0.79219 0.0
H1384 H 0.85384 0.49157 0.79843 0.0
H1385 H 0.91643 0.5172 0.81007 0.0
C1386 C 0.90393 0.54849 0.80729 0.0
C1387 C 0.88733 0.561 0.8026 0.0
C1388 C 0.86738 0.48272 0.79743 0.0
C1389 C 0.88607 0.5164 0.80145 0.0
C1390 C 0.86704 0.46094 0.79353 0.0
C1391 C 0.88434 0.4491 0.79144 0.0
C1392 C 0.88517 0.49286 0.79929 0.0
C1393 C 0.90181 0.45966 0.7941 0.0
C1394 C 0.90338 0.52636 0.80664 0.0
C1395 C 0.87022 0.55027 0.79787 0.0
N1396 N 0.90179 0.48089 0.7978 0.0
N1397 N 0.87007 0.52875 0.79737 0.0
H1398 H 0.97669 0.41981 0.31325 0.0
H1399 H 0.07422 0.35111 0.29403 0.0
H1400 H 0.97741 0.35454 0.2938 0.0
H1401 H 0.07378 0.4152 0.31717 0.0
H1402 H 0.03894 0.35188 0.29475 0.0
H1403 H 1.01203 0.41833 0.31527 0.0
C1404 C 0.9842 0.40513 0.3094 0.0
C1405 C 0.9738 0.38728 0.30329 0.0
C1406 C 0.04654 0.36576 0.29976 0.0
C1407 C 1.01466 0.38547 0.30568 0.0
C1408 C 0.06682 0.3653 0.29953 0.0
C1409 C 0.07732 0.38311 0.30558 0.0
C1410 C 0.03639 0.3842 0.30602 0.0
C1411 C 0.06655 0.40113 0.31206 0.0
C1412 C 1.00447 0.40429 0.31066 0.0
C1413 C 0.98459 0.36867 0.29884 0.0
N1414 N 0.04681 0.40121 0.31205 0.0
N1415 N 1.00429 0.36831 0.30001 0.0
H1416 H 0.21964 0.10559 0.56241 0.0
H1417 H 0.23151 0.16688 0.45231 0.0
H1418 H 0.2361 0.17051 0.55677 0.0
H1419 H 0.21506 0.1017 0.45554 0.0
H1420 H 0.23094 0.16866 0.49066 0.0
H1421 H 0.21559 0.10405 0.52379 0.0
C1422 C 0.22218 0.11959 0.55314 0.0
C1423 C 0.22843 0.13815 0.56298 0.0
C1424 C 0.22733 0.15397 0.48305 0.0
C1425 C 0.22396 0.13645 0.51864 0.0
C1426 C 0.22745 0.15297 0.46097 0.0
C1427 C 0.22323 0.13411 0.45033 0.0
C1428 C 0.22304 0.13598 0.49495 0.0
C1429 C 0.21863 0.11655 0.46285 0.0
C1430 C 0.21999 0.11866 0.53105 0.0
C1431 C 0.23162 0.15572 0.54999 0.0
N1432 N 0.21872 0.11789 0.4844 0.0
N1433 N 0.22945 0.1544 0.52865 0.0
H1434 H 0.34554 0.73779 0.95302 0.0
H1435 H 0.40894 0.74883 0.05922 0.0
H1436 H 0.40686 0.74736 0.9531 0.0
H1437 H 0.34719 0.74251 0.05886 0.0
H1438 H 0.40919 0.74354 0.02075 0.0
H1439 H 0.3465 0.73451 0.99169 0.0
C1440 C 0.35931 0.73855 0.96116 0.0
C1441 C 0.37619 0.74247 0.94976 0.0
C1442 C 0.39559 0.74294 0.02907 0.0
C1443 C 0.37739 0.7394 0.99427 0.0
C1444 C 0.39549 0.74576 0.05109 0.0
C1445 C 0.37805 0.74575 0.06234 0.0
C1446 C 0.37809 0.74024 0.01804 0.0
C1447 C 0.36097 0.74232 0.05086 0.0
C1448 C 0.35984 0.73692 0.98328 0.0
C1449 C 0.39357 0.74393 0.96121 0.0
N1450 N 0.3614 0.73983 0.02943 0.0
N1451 N 0.3937 0.74256 0.98275 0.0
H1452 H 0.80187 0.85181 0.4458 0.0
H1453 H 0.75094 0.89758 0.54961 0.0
H1454 H 0.75463 0.89724 0.44451 0.0
H1455 H 0.80851 0.87023 0.55202 0.0
H1456 H 0.7519 0.89627 0.51104 0.0
H1457 H 0.80492 0.85723 0.48431 0.0
C1458 C 0.79243 0.86324 0.45357 0.0
C1459 C 0.77807 0.87421 0.44194 0.0
C1460 C 0.76443 0.89067 0.51992 0.0
C1461 C 0.78105 0.88006 0.486 0.0
C1462 C 0.76385 0.89136 0.542 0.0
C1463 C 0.77965 0.88398 0.55416 0.0
C1464 C 0.7808 0.88217 0.50963 0.0
C1465 C 0.79604 0.8762 0.54331 0.0
C1466 C 0.79409 0.86625 0.47554 0.0
C1467 C 0.76598 0.88858 0.45283 0.0
N1468 N 0.79611 0.87526 0.52171 0.0
N1469 N 0.76759 0.89089 0.47416 0.0
H1470 H 0.63281 0.2658 0.06414 0.0
H1471 H 0.69176 0.28181 0.95649 0.0
H1472 H 0.6924 0.28338 0.06272 0.0
H1473 H 0.63075 0.27057 0.95776 0.0
H1474 H 0.69175 0.28511 0.99519 0.0
H1475 H 0.63103 0.27002 0.02552 0.0
C1476 C 0.64538 0.27106 0.05572 0.0
C1477 C 0.66268 0.27459 0.06672 0.0
C1478 C 0.67826 0.28231 0.98705 0.0
C1479 C 0.661 0.27887 0.02225 0.0
C1480 C 0.67825 0.28062 0.9649 0.0
C1481 C 0.66117 0.27635 0.9538 0.0
C1482 C 0.66108 0.27936 0.99841 0.0
C1483 C 0.64417 0.27431 0.96562 0.0
C1484 C 0.64443 0.27332 0.03362 0.0
C1485 C 0.6787 0.28084 0.05491 0.0
N1486 N 0.64458 0.27565 0.98718 0.0
N1487 N 0.67752 0.28261 0.03342 0.0
H1488 H 0.24351 0.83744 0.46801 0.0
H1489 H 0.24709 0.89859 0.57789 0.0
H1490 H 0.23087 0.90442 0.47223 0.0
H1491 H 0.23819 0.83176 0.5736 0.0
H1492 H 0.24199 0.90155 0.53949 0.0
H1493 H 0.24274 0.83533 0.50638 0.0
C1494 C 0.24029 0.85175 0.47677 0.0
C1495 C 0.23718 0.87118 0.46626 0.0
C1496 C 0.2408 0.88628 0.54697 0.0
C1497 C 0.23693 0.86878 0.51107 0.0
C1498 C 0.24351 0.88463 0.56895 0.0
C1499 C 0.24278 0.86493 0.57908 0.0
C1500 C 0.23775 0.86803 0.53483 0.0
C1501 C 0.23864 0.84728 0.56652 0.0
C1502 C 0.24001 0.85048 0.4989 0.0
C1503 C 0.23372 0.88908 0.47917 0.0
N1504 N 0.23656 0.84918 0.54513 0.0
N1505 N 0.23385 0.88746 0.50072 0.0
H1506 H 0.63166 0.75069 0.06416 0.0
H1507 H 0.69346 0.74415 0.95709 0.0
H1508 H 0.69378 0.74632 0.06308 0.0
H1509 H 0.63134 0.74814 0.95807 0.0
H1510 H 0.69378 0.74079 0.99576 0.0
H1511 H 0.63102 0.74575 0.02566 0.0
C1512 C 0.64515 0.74814 0.05585 0.0
C1513 C 0.66279 0.74856 0.06692 0.0
C1514 C 0.68003 0.742 0.98756 0.0
C1515 C 0.66226 0.7435 0.02257 0.0
C1516 C 0.67987 0.7437 0.96544 0.0
C1517 C 0.66235 0.74603 0.95429 0.0
C1518 C 0.66253 0.74287 0.99879 0.0
C1519 C 0.64515 0.74595 0.96598 0.0
C1520 C 0.64481 0.74551 0.03382 0.0
C1521 C 0.67987 0.74578 0.05523 0.0
N1522 N 0.64567 0.74458 0.98752 0.0
N1523 N 0.67919 0.74352 0.03378 0.0
H1524 H 0.78765 0.19318 0.56856 0.0
H1525 H 0.75978 0.13252 0.46154 0.0
H1526 H 0.76453 0.13081 0.5677 0.0
H1527 H 0.78922 0.19149 0.46207 0.0
H1528 H 0.7635 0.1304 0.50014 0.0
H1529 H 0.79062 0.19185 0.52986 0.0
C1530 C 0.78372 0.17896 0.56025 0.0
C1531 C 0.7762 0.16192 0.57147 0.0
C1532 C 0.76948 0.14365 0.49186 0.0
C1533 C 0.77889 0.16049 0.52687 0.0
C1534 C 0.76749 0.14475 0.46976 0.0
C1535 C 0.77455 0.16198 0.45848 0.0
C1536 C 0.77833 0.16011 0.503 0.0
C1537 C 0.78391 0.17772 0.47007 0.0
C1538 C 0.78523 0.17826 0.5381 0.0
C1539 C 0.77076 0.14413 0.55976 0.0
N1540 N 0.78538 0.1765 0.4916 0.0
N1541 N 0.77204 0.14395 0.53821 0.0
H1542 H 0.36693 0.30357 0.0747 0.0
H1543 H 0.42617 0.27208 0.9716 0.0
H1544 H 0.42312 0.27303 0.07697 0.0
H1545 H 0.3801 0.31894 0.96996 0.0
H1546 H 0.42546 0.27283 1.0103 0.0
H1547 H 0.37145 0.31046 0.03678 0.0
C1548 C 0.38044 0.29887 0.0673 0.0
C1549 C 0.3948 0.28802 0.07899 0.0
C1550 C 0.41568 0.28322 1.00156 0.0
C1551 C 0.39983 0.29508 0.03552 0.0
C1552 C 0.41614 0.28282 0.97947 0.0
C1553 C 0.40333 0.29563 0.9676 0.0
C1554 C 0.40199 0.29618 1.01201 0.0
C1555 C 0.39038 0.30902 0.97856 0.0
C1556 C 0.38297 0.30265 0.04565 0.0
C1557 C 0.41184 0.28173 0.06856 0.0
N1558 N 0.38986 0.30877 1.00013 0.0
N1559 N 0.41377 0.28511 0.04743 0.0
H1560 H 0.57791 0.24704 0.17387 0.0
H1561 H 0.48149 0.21839 0.11005 0.0
H1562 H 0.57901 0.22098 0.11095 0.0
H1563 H 0.48214 0.23729 0.1755 0.0
H1564 H 0.5169 0.2188 0.10991 0.0
H1565 H 0.54291 0.24318 0.17458 0.0
C1566 C 0.57082 0.24051 0.16015 0.0
C1567 C 0.58158 0.23451 0.14224 0.0
C1568 C 0.50931 0.22271 0.12434 0.0
C1569 C 0.54108 0.22994 0.14299 0.0
C1570 C 0.48902 0.22256 0.12443 0.0
C1571 C 0.4786 0.22785 0.14282 0.0
C1572 C 0.51945 0.22837 0.14272 0.0
C1573 C 0.48937 0.23285 0.161 0.0
C1574 C 0.55075 0.2382 0.16062 0.0
C1575 C 0.57143 0.22576 0.12514 0.0
N1576 N 0.50907 0.23313 0.16043 0.0
N1577 N 0.5518 0.22391 0.12587 0.0
H1578 H 0.56578 0.7795 0.84769 0.0
H1579 H 0.46719 0.80241 0.91164 0.0
H1580 H 0.56449 0.80101 0.91235 0.0
H1581 H 0.46872 0.78055 0.8471 0.0
H1582 H 0.50254 0.80274 0.91196 0.0
H1583 H 0.53046 0.78088 0.84693 0.0
C1584 C 0.55819 0.78473 0.86172 0.0
C1585 C 0.5685 0.79019 0.88012 0.0
C1586 C 0.49516 0.79793 0.89769 0.0
C1587 C 0.52745 0.79149 0.87938 0.0
C1588 C 0.47485 0.79763 0.8975 0.0
C1589 C 0.4646 0.79138 0.87931 0.0
C1590 C 0.50563 0.79191 0.87958 0.0
C1591 C 0.47569 0.78577 0.86145 0.0
C1592 C 0.53788 0.78536 0.86129 0.0
C1593 C 0.55745 0.79638 0.89784 0.0
N1594 N 0.49544 0.7861 0.86208 0.0
N1595 N 0.53769 0.79685 0.89701 0.0
H1596 H 0.75592 0.96365 0.4007 0.0
H1597 H 0.70775 0.07694 0.37241 0.0
H1598 H 0.70487 0.96999 0.36158 0.0
H1599 H 0.76381 0.06754 0.40138 0.0
H1600 H 0.70429 0.03833 0.371 0.0
H1601 H 0.75687 1.00185 0.40368 0.0
C1602 C 0.74471 0.97303 0.39291 0.0
C1603 C 0.73015 0.96333 0.38103 0.0
C1604 C 0.7173 0.04476 0.37772 0.0
C1605 C 0.73138 1.00774 0.38417 0.0
C1606 C 0.71922 0.06681 0.37868 0.0
C1607 C 0.73616 0.0756 0.38692 0.0
C1608 C 0.73232 0.03136 0.38529 0.0
C1609 C 0.7506 0.0616 0.39464 0.0
C1610 C 0.74538 0.99499 0.39448 0.0
C1611 C 0.7164 0.97664 0.37086 0.0
N1612 N 0.74835 0.04034 0.39363 0.0
N1613 N 0.71731 0.99811 0.37271 0.0
H1614 H 0.47058 0.25117 0.84225 0.0
H1615 H 0.56574 0.22774 0.91296 0.0
H1616 H 0.46945 0.24953 0.91016 0.0
H1617 H 0.56724 0.24445 0.84688 0.0
H1618 H 0.53047 0.23112 0.91188 0.0
H1619 H 0.50552 0.24348 0.84327 0.0
C1620 C 0.47767 0.24879 0.85738 0.0
C1621 C 0.46706 0.25097 0.87615 0.0
C1622 C 0.53853 0.23394 0.8976 0.0
C1623 C 0.5073 0.24232 0.87752 0.0
C1624 C 0.55883 0.23214 0.89818 0.0
C1625 C 0.56995 0.2359 0.88 0.0
C1626 C 0.52896 0.23936 0.87865 0.0
C1627 C 0.55965 0.24104 0.86132 0.0
C1628 C 0.49767 0.24456 0.85799 0.0
C1629 C 0.47704 0.24788 0.89533 0.0
N1630 N 0.53993 0.24262 0.86117 0.0
N1631 N 0.49656 0.24381 0.89554 0.0
H1632 H 0.28126 0.94974 0.33293 0.0
H1633 H 0.26722 0.05972 0.39483 0.0
H1634 H 0.2716 0.95333 0.39989 0.0
H1635 H 0.28554 0.05572 0.3301 0.0
H1636 H 0.27054 0.02109 0.39766 0.0
H1637 H 0.2846 0.98828 0.33196 0.0
C1638 C 0.28033 0.95862 0.34752 0.0
C1639 C 0.27655 0.94821 0.36658 0.0
C1640 C 0.27416 0.02862 0.38291 0.0
C1641 C 0.2797 0.99267 0.36557 0.0
C1642 C 0.27243 0.05075 0.38137 0.0
C1643 C 0.27637 0.06108 0.36228 0.0
C1644 C 0.27962 0.01651 0.36515 0.0
C1645 C 0.28259 0.04849 0.34519 0.0
C1646 C 0.28209 0.98068 0.34697 0.0
C1647 C 0.27491 0.96064 0.38494 0.0
N1648 N 0.28383 0.02699 0.34695 0.0
N1649 N 0.27634 0.98211 0.38395 0.0
H1650 H 0.5683 0.76697 0.11502 0.0
H1651 H 0.4688 0.81933 0.15745 0.0
H1652 H 0.56671 0.81894 0.15911 0.0
H1653 H 0.47225 0.76709 0.11378 0.0
H1654 H 0.50424 0.8199 0.15839 0.0
H1655 H 0.53312 0.76756 0.11423 0.0
C1656 C 0.56063 0.77871 0.12441 0.0
C1657 C 0.5708 0.79308 0.137 0.0
C1658 C 0.49721 0.80836 0.14855 0.0
C1659 C 0.52988 0.79354 0.13644 0.0
C1660 C 0.4769 0.80795 0.14807 0.0
C1661 C 0.46723 0.7932 0.13541 0.0
C1662 C 0.50813 0.79389 0.13636 0.0
C1663 C 0.47879 0.77906 0.12347 0.0
C1664 C 0.5404 0.7789 0.12407 0.0
C1665 C 0.5597 0.80744 0.14923 0.0
N1666 N 0.49845 0.77975 0.12427 0.0
N1667 N 0.53994 0.80733 0.14861 0.0
H1668 H 0.74032 0.95884 0.61115 0.0
H1669 H 0.7363 0.06732 0.6762 0.0
H1670 H 0.74168 0.96208 0.67902 0.0
H1671 H 0.72315 0.06444 0.60951 0.0
H1672 H 0.73757 0.02892 0.67731 0.0
H1673 H 0.73313 0.99711 0.60986 0.0
C1674 C 0.73864 0.96755 0.62577 0.0
C1675 C 0.74143 0.95726 0.64522 0.0
C1676 C 0.73426 0.03666 0.66244 0.0
C1677 C 0.73377 1.00119 0.64394 0.0
C1678 C 0.73336 0.05878 0.66178 0.0
C1679 C 0.72954 0.06962 0.64272 0.0
C1680 C 0.73156 0.02488 0.64388 0.0
C1681 C 0.72645 0.05713 0.62457 0.0
C1682 C 0.73469 0.98943 0.62506 0.0
C1683 C 0.73945 0.96938 0.66371 0.0
N1684 N 0.72765 0.03559 0.62559 0.0
N1685 N 0.73597 0.99063 0.66261 0.0
H1686 H 0.27514 0.06723 0.61503 0.0
H1687 H 0.28773 0.96038 0.68111 0.0
H1688 H 0.28396 0.06589 0.68234 0.0
H1689 H 0.2958 0.96221 0.61353 0.0
H1690 H 0.28629 0.9988 0.68162 0.0
H1691 H 0.28276 0.02904 0.61364 0.0
C1692 C 0.27915 0.05896 0.62943 0.0
C1693 C 0.27907 0.06975 0.6488 0.0
C1694 C 0.28852 0.99081 0.66667 0.0
C1695 C 0.2872 0.02592 0.64751 0.0
C1696 C 0.28951 0.96868 0.66634 0.0
C1697 C 0.29191 0.95752 0.64722 0.0
C1698 C 0.28965 1.00227 0.64774 0.0
C1699 C 0.29356 0.96973 0.62868 0.0
C1700 C 0.28335 0.03714 0.62869 0.0
C1701 C 0.28402 0.05819 0.66707 0.0
N1702 N 0.29224 0.99127 0.62939 0.0
N1703 N 0.28762 0.03696 0.66602 0.0
H1704 H 0.16218 0.29487 0.31643 0.0
H1705 H 0.25298 0.21386 0.31364 0.0
H1706 H 0.21448 0.31026 0.28408 0.0
H1707 H 0.21053 0.2144 0.36302 0.0
H1708 H 0.23842 0.247 0.29968 0.0
H1709 H 0.17808 0.26235 0.32968 0.0
C1710 C 0.17687 0.29107 0.31166 0.0
C1711 C 0.18692 0.30509 0.29886 0.0
C1712 C 0.23246 0.24003 0.31375 0.0
C1713 C 0.20546 0.26804 0.31433 0.0
C1714 C 0.2409 0.22126 0.32184 0.0
C1715 C 0.23315 0.21158 0.33973 0.0
C1716 C 0.21583 0.24892 0.3233 0.0
C1717 C 0.21714 0.22154 0.34941 0.0
C1718 C 0.18605 0.27267 0.31947 0.0
C1719 C 0.20613 0.29968 0.29362 0.0
N1720 N 0.2089 0.23943 0.34096 0.0
N1721 N 0.21476 0.2816 0.30131 0.0
H1722 H 0.30161 0.70027 0.86805 0.0
H1723 H 0.22796 0.69155 0.76966 0.0
H1724 H 0.29355 0.75049 0.82278 0.0
H1725 H 0.23248 0.64651 0.82052 0.0
H1726 H 0.25302 0.71255 0.78703 0.0
H1727 H 0.2769 0.68022 0.84981 0.0
C1728 C 0.29449 0.70719 0.85434 0.0
C1729 C 0.29973 0.72718 0.84703 0.0
C1730 C 0.24861 0.698 0.79431 0.0
C1731 C 0.27131 0.70393 0.8256 0.0
C1732 C 0.23445 0.68586 0.78425 0.0
C1733 C 0.22805 0.66714 0.79358 0.0
C1734 C 0.25657 0.69134 0.81379 0.0
C1735 C 0.23681 0.66083 0.81273 0.0
C1736 C 0.28037 0.69567 0.84384 0.0
C1737 C 0.28988 0.73527 0.82914 0.0
N1738 N 0.25048 0.67283 0.82212 0.0
N1739 N 0.27628 0.72358 0.81897 0.0
H1740 H 0.83203 0.69683 0.27796 0.0
H1741 H 0.82732 0.79925 0.35127 0.0
H1742 H 0.88207 0.73168 0.29583 0.0
H1743 H 0.77655 0.77559 0.32032 0.0
H1744 H 0.84715 0.77335 0.33228 0.0
H1745 H 0.81116 0.72477 0.29314 0.0
C1746 C 0.83855 0.71079 0.2844 0.0
C1747 C 0.85875 0.71227 0.28509 0.0
C1748 C 0.83168 0.77378 0.32957 0.0
C1749 C 0.83507 0.74379 0.3036 0.0
C1750 C 0.82027 0.78861 0.34046 0.0
C1751 C 0.80013 0.78992 0.33728 0.0
C1752 C 0.82304 0.75976 0.31542 0.0
C1753 C 0.79194 0.77519 0.32343 0.0
C1754 C 0.82667 0.72659 0.29334 0.0
C1755 C 0.86656 0.73023 0.29445 0.0
N1756 N 0.80341 0.76078 0.31301 0.0
N1757 N 0.85474 0.74515 0.30353 0.0
H1758 H 0.80545 0.325 0.77 0.0
H1759 H 0.73767 0.31619 0.87232 0.0
H1760 H 0.80757 0.36684 0.82358 0.0
H1761 H 0.74041 0.26768 0.82465 0.0
H1762 H 0.76244 0.3354 0.85358 0.0
H1763 H 0.78022 0.30494 0.78792 0.0
C1764 C 0.80035 0.33022 0.78533 0.0
C1765 C 0.80863 0.34771 0.79525 0.0
C1766 C 0.7578 0.32049 0.8472 0.0
C1767 C 0.78 0.32462 0.81604 0.0
C1768 C 0.74366 0.30945 0.85799 0.0
C1769 C 0.73694 0.29022 0.85014 0.0
C1770 C 0.76532 0.3125 0.82814 0.0
C1771 C 0.74529 0.28232 0.83142 0.0
C1772 C 0.78612 0.3186 0.79567 0.0
C1773 C 0.80168 0.35347 0.81532 0.0
N1774 N 0.7589 0.29355 0.82098 0.0
N1775 N 0.78789 0.34201 0.82497 0.0
H1776 H 0.2135 0.80711 0.70962 0.0
H1777 H 0.20065 0.68465 0.73525 0.0
H1778 H 0.24537 0.75744 0.67735 0.0
H1779 H 0.1564 0.73173 0.74818 0.0
H1780 H 0.2208 0.71192 0.7202 0.0
H1781 H 0.19607 0.78058 0.72911 0.0
C1782 C 0.21682 0.79066 0.70637 0.0
C1783 C 0.23078 0.78475 0.69114 0.0
C1784 C 0.20687 0.71641 0.72672 0.0
C1785 C 0.211 0.75398 0.71447 0.0
C1786 C 0.19544 0.70087 0.73566 0.0
C1787 C 0.17696 0.70587 0.74367 0.0
C1788 C 0.19989 0.73735 0.72568 0.0
C1789 C 0.17074 0.72714 0.74296 0.0
C1790 C 0.20687 0.77548 0.71777 0.0
C1791 C 0.23481 0.76299 0.68873 0.0
N1792 N 0.18214 0.74205 0.73409 0.0
N1793 N 0.22497 0.74847 0.70017 0.0
H1794 H 0.74113 0.75738 0.19676 0.0
H1795 H 0.81139 0.65437 0.198 0.0
H1796 H 0.74149 0.70926 0.14865 0.0
H1797 H 0.80548 0.69577 0.25172 0.0
H1798 H 0.78676 0.67545 0.1793 0.0
H1799 H 0.7663 0.737 0.21618 0.0
C1800 C 0.74678 0.74277 0.19008 0.0
C1801 C 0.73922 0.73507 0.17099 0.0
C1802 C 0.79071 0.67993 0.19522 0.0
C1803 C 0.76775 0.71146 0.19329 0.0
C1804 C 0.80477 0.66781 0.20596 0.0
C1805 C 0.81059 0.67324 0.22652 0.0
C1806 C 0.78235 0.69789 0.2049 0.0
C1807 C 0.80138 0.69086 0.23599 0.0
C1808 C 0.76096 0.731 0.2013 0.0
C1809 C 0.74684 0.71581 0.1633 0.0
N1810 N 0.78786 0.70264 0.22507 0.0
N1811 N 0.76058 0.70474 0.17443 0.0
H1812 H 0.78228 0.26692 0.67257 0.0
H1813 H 0.87909 0.28539 0.73785 0.0
H1814 H 0.81562 0.21534 0.70019 0.0
H1815 H 0.8336 0.33281 0.73358 0.0
H1816 H 0.85703 0.25953 0.72278 0.0
H1817 H 0.80166 0.29166 0.69308 0.0
C1818 C 0.79353 0.26068 0.68291 0.0
C1819 C 0.79738 0.23879 0.6841 0.0
C1820 C 0.85174 0.2755 0.72558 0.0
C1821 C 0.81997 0.2673 0.70749 0.0
C1822 C 0.86427 0.2902 0.73456 0.0
C1823 C 0.85805 0.31122 0.73769 0.0
C1824 C 0.833 0.28196 0.71908 0.0
C1825 C 0.83891 0.31671 0.73187 0.0
C1826 C 0.80467 0.27489 0.69461 0.0
C1827 C 0.81237 0.23196 0.69792 0.0
N1828 N 0.8272 0.30234 0.72266 0.0
N1829 N 0.82316 0.24607 0.70878 0.0
H1830 H 0.24301 0.37305 0.21505 0.0
H1831 H 0.30837 0.26761 0.20097 0.0
H1832 H 0.24587 0.32424 0.26237 0.0
H1833 H 0.31534 0.32394 0.164 0.0
H1834 H 0.28324 0.28624 0.22175 0.0
H1835 H 0.2679 0.35399 0.19485 0.0
C1836 C 0.24908 0.35841 0.22131 0.0
C1837 C 0.24244 0.35032 0.24052 0.0
C1838 C 0.2902 0.29446 0.209 0.0
C1839 C 0.27075 0.32801 0.21713 0.0
C1840 C 0.30436 0.28375 0.19697 0.0
C1841 C 0.31393 0.2942 0.18065 0.0
C1842 C 0.2854 0.31571 0.20452 0.0
C1843 C 0.30838 0.31526 0.17643 0.0
C1844 C 0.26325 0.34747 0.20973 0.0
C1845 C 0.25075 0.33119 0.24779 0.0
N1846 N 0.29455 0.32526 0.18822 0.0
N1847 N 0.26434 0.32058 0.23601 0.0
H1848 H 0.38659 0.21386 0.2333 0.0
H1849 H 0.27869 0.18678 0.26981 0.0
H1850 H 0.3357 0.23603 0.19995 0.0
H1851 H 0.33028 0.15602 0.29467 0.0
H1852 H 0.29889 0.20724 0.24599 0.0
H1853 H 0.3659 0.19617 0.25889 0.0
C1854 C 0.37103 0.2156 0.23182 0.0
C1855 C 0.36282 0.22685 0.21481 0.0
C1856 C 0.30576 0.19599 0.25667 0.0
C1857 C 0.33896 0.20595 0.24352 0.0
C1858 C 0.29419 0.1841 0.27016 0.0
C1859 C 0.30266 0.1696 0.28449 0.0
C1860 C 0.32603 0.19351 0.25749 0.0
C1861 C 0.32297 0.16722 0.28428 0.0
C1862 C 0.3592 0.20522 0.24621 0.0
C1863 C 0.34256 0.2279 0.21313 0.0
N1864 N 0.33386 0.17904 0.27116 0.0
N1865 N 0.33135 0.21755 0.22721 0.0
H1866 H 0.32569 0.77116 0.81177 0.0
H1867 H 0.31275 0.86643 0.73069 0.0
H1868 H 0.37308 0.80925 0.79253 0.0
H1869 H 0.28057 0.80996 0.72109 0.0
H1870 H 0.331 0.84867 0.75928 0.0
H1871 H 0.30578 0.78676 0.78299 0.0
C1872 C 0.33207 0.78233 0.80108 0.0
C1873 C 0.35117 0.78866 0.80429 0.0
C1874 C 0.3197 0.84027 0.75119 0.0
C1875 C 0.32819 0.80746 0.77222 0.0
C1876 C 0.30904 0.85055 0.73517 0.0
C1877 C 0.29486 0.8398 0.72379 0.0
C1878 C 0.31602 0.81913 0.75619 0.0
C1879 C 0.2911 0.81893 0.72977 0.0
C1880 C 0.32064 0.79142 0.78486 0.0
C1881 C 0.35855 0.80367 0.79036 0.0
N1882 N 0.30157 0.80928 0.74557 0.0
N1883 N 0.34699 0.8128 0.77524 0.0
H1884 H 0.72903 0.87158 0.27798 0.0
H1885 H 0.66262 0.79012 0.23466 0.0
H1886 H 0.73375 0.81289 0.31216 0.0
H1887 H 0.71188 0.79935 0.19468 0.0
H1888 H 0.68104 0.80436 0.26463 0.0
H1889 H 0.71594 0.85234 0.24748 0.0
C1890 C 0.72804 0.85459 0.27885 0.0
C1891 C 0.73315 0.84378 0.29752 0.0
C1892 C 0.68787 0.80282 0.24934 0.0
C1893 C 0.71678 0.82201 0.26321 0.0
C1894 C 0.6775 0.79433 0.2323 0.0
C1895 C 0.68589 0.79282 0.21216 0.0
C1896 C 0.70645 0.81063 0.24609 0.0
C1897 C 0.70494 0.79988 0.20997 0.0
C1898 C 0.72023 0.8437 0.26156 0.0
C1899 C 0.73033 0.82182 0.29799 0.0
N1900 N 0.71442 0.80882 0.22654 0.0
N1901 N 0.72202 0.81174 0.28132 0.0
H1902 H 0.714 0.15851 0.72579 0.0
H1903 H 0.70784 0.25042 0.8121 0.0
H1904 H 0.74748 0.21428 0.71824 0.0
H1905 H 0.65928 0.21264 0.79532 0.0
H1906 H 0.72569 0.23562 0.78158 0.0
H1907 H 0.69778 0.17499 0.7563 0.0
C1908 C 0.71841 0.17394 0.73104 0.0
C1909 C 0.73239 0.18486 0.7197 0.0
C1910 C 0.71103 0.23081 0.78442 0.0
C1911 C 0.71353 0.20412 0.7544 0.0
C1912 C 0.70077 0.23943 0.80167 0.0
C1913 C 0.68195 0.23297 0.80609 0.0
C1914 C 0.70261 0.21514 0.77184 0.0
C1915 C 0.67365 0.21827 0.79233 0.0
C1916 C 0.70891 0.18351 0.74822 0.0
C1917 C 0.73708 0.20515 0.7268 0.0
N1918 N 0.6841 0.20963 0.77612 0.0
N1919 N 0.72773 0.21412 0.74369 0.0
H1920 H 0.79312 0.7899 0.65364 0.0
H1921 H 0.8626 0.76329 0.75246 0.0
H1922 H 0.80668 0.83518 0.70196 0.0
H1923 H 0.83611 0.71514 0.71457 0.0
H1924 H 0.84308 0.79006 0.73348 0.0
H1925 H 0.8096 0.76227 0.67486 0.0
C1926 C 0.79916 0.79397 0.66888 0.0
C1927 C 0.79812 0.81491 0.67611 0.0
C1928 C 0.84157 0.7736 0.72935 0.0
C1929 C 0.81766 0.78352 0.70022 0.0
C1930 C 0.85269 0.75825 0.74028 0.0
C1931 C 0.85142 0.73677 0.73501 0.0
C1932 C 0.82907 0.76755 0.71289 0.0
C1933 C 0.83822 0.73144 0.71888 0.0
C1934 C 0.80872 0.77824 0.68093 0.0
C1935 C 0.80679 0.81931 0.69577 0.0
N1936 N 0.82777 0.74664 0.70837 0.0
N1937 N 0.81626 0.80389 0.70698 0.0
H1938 H 0.73546 0.28373 0.2058 0.0
H1939 H 0.81609 0.37234 0.20028 0.0
H1940 H 0.75705 0.30897 0.14742 0.0
H1941 H 0.80145 0.34047 0.25795 0.0
H1942 H 0.79214 0.3518 0.18135 0.0
H1943 H 0.75748 0.30608 0.22537 0.0
C1944 C 0.74494 0.29375 0.19697 0.0
C1945 C 0.74437 0.29407 0.1747 0.0
C1946 C 0.79403 0.34934 0.19816 0.0
C1947 C 0.76951 0.32043 0.19743 0.0
C1948 C 0.80773 0.36113 0.20905 0.0
C1949 C 0.81101 0.35808 0.23081 0.0
C1950 C 0.78332 0.33429 0.20898 0.0
C1951 C 0.79941 0.34351 0.24126 0.0
C1952 C 0.75743 0.30672 0.20829 0.0
C1953 C 0.75671 0.30809 0.16447 0.0
N1954 N 0.78622 0.33208 0.23025 0.0
N1955 N 0.76871 0.32061 0.17587 0.0
H1956 H 0.20586 0.30348 0.74591 0.0
H1957 H 0.19932 0.22063 0.65035 0.0
H1958 H 0.15508 0.29767 0.70696 0.0
H1959 H 0.24089 0.21343 0.70082 0.0
H1960 H 0.18477 0.2512 0.66883 0.0
H1961 H 0.22026 0.27222 0.7285 0.0
C1962 C 0.1976 0.29537 0.73395 0.0
C1963 C 0.17918 0.30313 0.72796 0.0
C1964 C 0.19713 0.24302 0.67585 0.0
C1965 C 0.19585 0.26767 0.70741 0.0
C1966 C 0.20552 0.22568 0.6652 0.0
C1967 C 0.22131 0.21445 0.67406 0.0
C1968 C 0.20473 0.24946 0.69542 0.0
C1969 C 0.22877 0.22167 0.69339 0.0
C1970 C 0.20589 0.27762 0.72388 0.0
C1971 C 0.16926 0.29215 0.71212 0.0
N1972 N 0.22045 0.23866 0.70339 0.0
N1973 N 0.17777 0.27519 0.70226 0.0
H1974 H 0.24662 0.64903 0.21298 0.0
H1975 H 0.30222 0.75737 0.19404 0.0
H1976 H 0.24314 0.70077 0.25709 0.0
H1977 H 0.30329 0.70436 0.15134 0.0
H1978 H 0.28047 0.73794 0.21733 0.0
H1979 H 0.26828 0.66931 0.19106 0.0
C1980 C 0.25066 0.6646 0.21821 0.0
C1981 C 0.24305 0.67315 0.23696 0.0
C1982 C 0.28537 0.73065 0.20278 0.0
C1983 C 0.26776 0.69689 0.21153 0.0
C1984 C 0.2976 0.74184 0.18935 0.0
C1985 C 0.30464 0.73252 0.17065 0.0
C1986 C 0.28011 0.70998 0.19748 0.0
C1987 C 0.29839 0.71217 0.16562 0.0
C1988 C 0.26296 0.67628 0.20559 0.0
C1989 C 0.24883 0.69346 0.2429 0.0
N1990 N 0.28664 0.70165 0.17892 0.0
N1991 N 0.26071 0.70471 0.23015 0.0
H1992 H 0.8322 0.33397 0.28567 0.0
H1993 H 0.8221 0.23568 0.36471 0.0
H1994 H 0.88124 0.30031 0.31234 0.0
H1995 H 0.77362 0.27088 0.33824 0.0
H1996 H 0.84402 0.25791 0.34478 0.0
H1997 H 0.81068 0.30892 0.30242 0.0
C1998 C 0.83844 0.32081 0.29447 0.0
C1999 C 0.85853 0.3189 0.29719 0.0
C2000 C 0.82858 0.26077 0.34334 0.0
C2001 C 0.83394 0.29058 0.31737 0.0
C2002 C 0.81601 0.24821 0.35494 0.0
C2003 C 0.79584 0.25129 0.3533 0.0
C2004 C 0.82105 0.27665 0.32991 0.0
C2005 C 0.78896 0.26761 0.33994 0.0
C2006 C 0.82615 0.30667 0.30433 0.0
C2007 C 0.86585 0.30199 0.3094 0.0
N2008 N 0.80148 0.27957 0.32884 0.0
N2009 N 0.85358 0.28861 0.31918 0.0
H2010 H 0.26026 0.38108 0.8108 0.0
H2011 H 0.33352 0.2847 0.82901 0.0
H2012 H 0.24749 0.31866 0.7877 0.0
H2013 H 0.32408 0.33123 0.8777 0.0
H2014 H 0.30498 0.29891 0.80999 0.0
H2015 H 0.28674 0.36556 0.83179 0.0
C2016 C 0.26278 0.3642 0.80998 0.0
C2017 C 0.25125 0.35145 0.79695 0.0
C2018 C 0.30912 0.30597 0.82488 0.0
C2019 C 0.28237 0.33362 0.82084 0.0
C2020 C 0.32536 0.29781 0.83578 0.0
C2021 C 0.33139 0.30695 0.85486 0.0
C2022 C 0.29898 0.32373 0.83283 0.0
C2023 C 0.32015 0.32392 0.86288 0.0
C2024 C 0.27808 0.35537 0.82202 0.0
C2025 C 0.25598 0.32959 0.7967 0.0
N2026 N 0.30475 0.332 0.85168 0.0
N2027 N 0.27117 0.32152 0.80819 0.0
H2028 H 0.23343 0.81904 0.3116 0.0
H2029 H 0.21969 0.69598 0.30185 0.0
H2030 H 0.24445 0.77979 0.36609 0.0
H2031 H 0.17104 0.73788 0.28919 0.0
H2032 H 0.23772 0.72605 0.31554 0.0
H2033 H 0.21938 0.7887 0.29338 0.0
C2034 C 0.23354 0.80387 0.31948 0.0
C2035 C 0.24058 0.802 0.34034 0.0
C2036 C 0.22328 0.72868 0.30924 0.0
C2037 C 0.2246 0.76711 0.31936 0.0
C2038 C 0.21301 0.71161 0.30123 0.0
C2039 C 0.19387 0.71432 0.29383 0.0
C2040 C 0.21464 0.74891 0.30941 0.0
C2041 C 0.18591 0.73497 0.29389 0.0
C2042 C 0.22534 0.78666 0.30912 0.0
C2043 C 0.23993 0.78196 0.34985 0.0
N2044 N 0.19633 0.75145 0.30147 0.0
N2045 N 0.23216 0.76532 0.33927 0.0
H2046 H 0.80186 0.65648 0.79875 0.0
H2047 H 0.75903 0.75732 0.85934 0.0
H2048 H 0.8321 0.71504 0.80038 0.0
H2049 H 0.72232 0.71062 0.83135 0.0
H2050 H 0.78661 0.74127 0.84051 0.0
H2051 H 0.7731 0.67488 0.81293 0.0
C2052 C 0.80227 0.67334 0.80138 0.0
C2053 C 0.81932 0.68431 0.79772 0.0
C2054 C 0.77246 0.73458 0.83856 0.0
C2055 C 0.78668 0.70532 0.81533 0.0
C2056 C 0.75659 0.74381 0.8493 0.0
C2057 C 0.73803 0.73527 0.84753 0.0
C2058 C 0.76998 0.71645 0.82606 0.0
C2059 C 0.73623 0.71753 0.83415 0.0
C2060 C 0.78591 0.68381 0.80983 0.0
C2061 C 0.81918 0.70602 0.80259 0.0
N2062 N 0.75189 0.70869 0.82424 0.0
N2063 N 0.80329 0.71571 0.81135 0.0
H2064 H 0.76021 0.84454 0.7563 0.0
H2065 H 0.65818 0.797 0.78958 0.0
H2066 H 0.70811 0.85344 0.71926 0.0
H2067 H 0.71097 0.78711 0.82479 0.0
H2068 H 0.67647 0.81503 0.76198 0.0
H2069 H 0.7427 0.82181 0.78029 0.0
C2070 C 0.74511 0.84174 0.7531 0.0
C2071 C 0.73573 0.85114 0.73558 0.0
C2072 C 0.68415 0.80851 0.77551 0.0
C2073 C 0.71537 0.8249 0.76336 0.0
C2074 C 0.67374 0.79789 0.79108 0.0
C2075 C 0.68315 0.7901 0.80926 0.0
C2076 C 0.7041 0.81158 0.77827 0.0
C2077 C 0.70323 0.79247 0.81082 0.0
C2078 C 0.73506 0.82871 0.76691 0.0
C2079 C 0.71598 0.84696 0.73267 0.0
N2080 N 0.71297 0.8031 0.7957 0.0
N2081 N 0.70652 0.83422 0.74634 0.0
H2082 H 0.7192 0.21379 0.32392 0.0
H2083 H 0.71094 0.21364 0.19981 0.0
H2084 H 0.73502 0.15717 0.28973 0.0
H2085 H 0.66255 0.23578 0.23698 0.0
H2086 H 0.72624 0.19923 0.2319 0.0
H2087 H 0.70481 0.22861 0.29157 0.0
C2088 C 0.71987 0.20453 0.30956 0.0
C2089 C 0.72835 0.18408 0.30968 0.0
C2090 C 0.71235 0.20739 0.23301 0.0
C2091 C 0.71223 0.20138 0.27233 0.0
C2092 C 0.70359 0.21571 0.21473 0.0
C2093 C 0.68538 0.22612 0.21559 0.0
C2094 C 0.70322 0.21 0.25256 0.0
C2095 C 0.67669 0.22827 0.23552 0.0
C2096 C 0.71157 0.21302 0.29114 0.0
C2097 C 0.72884 0.17301 0.29042 0.0
N2098 N 0.68575 0.22048 0.25321 0.0
N2099 N 0.72103 0.18184 0.2725 0.0
H2100 H 0.28308 0.20553 0.72876 0.0
H2101 H 0.38593 0.21303 0.78287 0.0
H2102 H 0.31613 0.14864 0.74387 0.0
H2103 H 0.33817 0.25532 0.79875 0.0
H2104 H 0.36336 0.19105 0.76333 0.0
H2105 H 0.30585 0.2258 0.74909 0.0
C2106 C 0.29484 0.19705 0.73656 0.0
C2107 C 0.29714 0.17495 0.73469 0.0
C2108 C 0.35797 0.20523 0.77109 0.0
C2109 C 0.32419 0.19883 0.75738 0.0
C2110 C 0.37085 0.21787 0.78237 0.0
C2111 C 0.36427 0.23647 0.7926 0.0
C2112 C 0.33839 0.21135 0.76958 0.0
C2113 C 0.34439 0.24171 0.79079 0.0
C2114 C 0.30805 0.20885 0.74802 0.0
C2115 C 0.31354 0.16551 0.74455 0.0
N2116 N 0.33231 0.22938 0.77945 0.0
N2117 N 0.32646 0.17749 0.75533 0.0
H2118 H 0.27496 0.84954 0.26083 0.0
H2119 H 0.37329 0.78906 0.22945 0.0
H2120 H 0.31558 0.82495 0.30718 0.0
H2121 H 0.32455 0.79386 0.18703 0.0
H2122 H 0.35273 0.80267 0.25809 0.0
H2123 H 0.29296 0.83013 0.23333 0.0
C2124 C 0.28754 0.84006 0.26534 0.0
C2125 C 0.29384 0.83944 0.28651 0.0
C2126 C 0.34639 0.80031 0.24262 0.0
C2127 C 0.31478 0.81727 0.25487 0.0
C2128 C 0.3581 0.79217 0.22632 0.0
C2129 C 0.35053 0.78961 0.20589 0.0
C2130 C 0.32705 0.80651 0.2384 0.0
C2131 C 0.3309 0.79512 0.20262 0.0
C2132 C 0.29788 0.829 0.24957 0.0
C2133 C 0.31039 0.82673 0.29112 0.0
N2134 N 0.31995 0.80349 0.21854 0.0
N2135 N 0.32029 0.81644 0.27552 0.0
loop_
_geom_bond_atom_site_label_1
_geom_bond_atom_site_label_2
_geom_bond_distance
_geom_bond_site_symmetry_2
_ccdc_geom_bond_type
C0 C1 1.443 . S
C0 N4 1.376 . S
C0 C38 1.389 . S
C1 C0 1.443 . S
C1 C2 1.340 . S
C1 H41 0.951 . S
C2 C1 1.340 . S
C2 C3 1.439 . S
C2 H42 0.950 . S
C3 C2 1.439 . S
C3 N4 1.374 . S
C3 C37 1.395 . S
N4 C0 1.376 . S
N4 C3 1.374 . S
N4 Co5 2.008 . S
Co5 N4 2.008 . S
Co5 N6 1.995 . S
Co5 N11 2.008 . S
Co5 N16 1.995 . S
Co5 N21 2.282 . S
Co5 N27 2.282 . S
N6 Co5 1.995 . S
N6 C7 1.376 . S
N6 C10 1.383 . S
C7 N6 1.376 . S
C7 C8 1.446 . S
C7 C37 1.391 . S
C8 C7 1.446 . S
C8 C9 1.339 . S
C8 H43 0.949 . S
C9 C8 1.339 . S
C9 C10 1.439 . S
C9 H44 0.950 . S
C10 N6 1.383 . S
C10 C9 1.439 . S
C10 C39 1.392 . S
N11 Co5 2.008 . S
N11 C12 1.376 . S
N11 C15 1.374 . S
C12 N11 1.376 . S
C12 C13 1.443 . S
C12 C39 1.389 . S
C13 C12 1.443 . S
C13 C14 1.340 . S
C13 H45 0.951 . S
C14 C13 1.340 . S
C14 C15 1.439 . S
C14 H46 0.950 . S
C15 N11 1.374 . S
C15 C14 1.439 . S
C15 C40 1.395 . S
N16 Co5 1.995 . S
N16 C17 1.376 . S
N16 C20 1.383 . S
C17 N16 1.376 . S
C17 C18 1.446 . S
C17 C40 1.391 . S
C18 C17 1.446 . S
C18 C19 1.339 . S
C18 H47 0.949 . S
C19 C18 1.339 . S
C19 C20 1.439 . S
C19 H48 0.950 . S
C20 N16 1.383 . S
C20 C19 1.439 . S
C20 C38 1.392 . S
N21 Co5 2.282 . S
N21 C24 1.332 . S
N21 C26 1.332 . S
C22 C23 1.386 . S
C22 C25 1.388 . S
C23 C22 1.386 . S
C23 C24 1.382 . S
C23 H49 0.950 . S
C24 N21 1.332 . S
C24 C23 1.382 . S
C24 H35 0.952 . S
C25 C22 1.388 . S
C25 C26 1.382 . S
C25 H50 0.950 . S
C26 N21 1.332 . S
C26 C25 1.382 . S
C26 H36 0.948 . S
N27 Co5 2.282 . S
N27 C31 1.332 . S
N27 C32 1.332 . S
C28 C29 1.388 . S
C28 C32 1.382 . S
C28 H51 0.950 . S
C29 C28 1.388 . S
C29 C30 1.386 . S
C30 C29 1.386 . S
C30 C31 1.382 . S
C30 H52 0.950 . S
C31 N27 1.332 . S
C31 C30 1.382 . S
C31 H33 0.952 . S
C32 N27 1.332 . S
C32 C28 1.382 . S
C32 H34 0.948 . S
H33 C31 0.952 . S
H34 C32 0.948 . S
H35 C24 0.952 . S
H36 C26 0.948 . S
C37 C3 1.395 . S
C37 C7 1.391 . S
C38 C0 1.389 . S
C38 C20 1.392 . S
C39 C10 1.392 . S
C39 C12 1.389 . S
C40 C15 1.395 . S
C40 C17 1.391 . S
H41 C1 0.951 . S
H42 C2 0.950 . S
H43 C8 0.949 . S
H44 C9 0.950 . S
H45 C13 0.951 . S
H46 C14 0.950 . S
H47 C18 0.949 . S
H48 C19 0.950 . S
H49 C23 0.950 . S
H50 C25 0.950 . S
H51 C28 0.950 . S
H52 C30 0.950 . S
C53 C54 1.443 . S
C53 N57 1.376 . S
C53 C91 1.389 . S
C54 C53 1.443 . S
C54 C55 1.340 . S
C54 H94 0.951 . S
C55 C54 1.340 . S
C55 C56 1.439 . S
C55 H95 0.950 . S
C56 C55 1.439 . S
C56 N57 1.374 . S
C56 C90 1.395 . S
N57 C53 1.376 . S
N57 C56 1.374 . S
N57 Co58 2.008 . S
Co58 N57 2.008 . S
Co58 N59 1.995 . S
Co58 N64 2.008 . S
Co58 N69 1.995 . S
Co58 N74 2.282 . S
Co58 N80 2.282 . S
N59 Co58 1.995 . S
N59 C60 1.376 . S
N59 C63 1.383 . S
C60 N59 1.376 . S
C60 C61 1.446 . S
C60 C90 1.391 . S
C61 C60 1.446 . S
C61 C62 1.339 . S
C61 H96 0.949 . S
C62 C61 1.339 . S
C62 C63 1.439 . S
C62 H97 0.950 . S
C63 N59 1.383 . S
C63 C62 1.439 . S
C63 C92 1.392 . S
N64 Co58 2.008 . S
N64 C65 1.376 . S
N64 C68 1.374 . S
C65 N64 1.376 . S
C65 C66 1.443 . S
C65 C92 1.389 . S
C66 C65 1.443 . S
C66 C67 1.340 . S
C66 H98 0.951 . S
C67 C66 1.340 . S
C67 C68 1.439 . S
C67 H99 0.950 . S
C68 N64 1.374 . S
C68 C67 1.439 . S
C68 C93 1.395 . S
N69 Co58 1.995 . S
N69 C70 1.376 . S
N69 C73 1.383 . S
C70 N69 1.376 . S
C70 C71 1.446 . S
C70 C93 1.391 . S
C71 C70 1.446 . S
C71 C72 1.339 . S
C71 H100 0.949 . S
C72 C71 1.339 . S
C72 C73 1.439 . S
C72 H101 0.950 . S
C73 N69 1.383 . S
C73 C72 1.439 . S
C73 C91 1.392 . S
N74 Co58 2.282 . S
N74 C77 1.332 . S
N74 C79 1.332 . S
C75 C76 1.386 . S
C75 C78 1.388 . S
C76 C75 1.386 . S
C76 C77 1.382 . S
C76 H102 0.950 . S
C77 N74 1.332 . S
C77 C76 1.382 . S
C77 H88 0.952 . S
C78 C75 1.388 . S
C78 C79 1.382 . S
C78 H103 0.950 . S
C79 N74 1.332 . S
C79 C78 1.382 . S
C79 H89 0.948 . S
N80 Co58 2.282 . S
N80 C84 1.332 . S
N80 C85 1.332 . S
C81 C82 1.388 . S
C81 C85 1.382 . S
C81 H104 0.950 . S
C82 C81 1.388 . S
C82 C83 1.386 . S
C83 C82 1.386 . S
C83 C84 1.382 . S
C83 H105 0.950 . S
C84 N80 1.332 . S
C84 C83 1.382 . S
C84 H86 0.952 . S
C85 N80 1.332 . S
C85 C81 1.382 . S
C85 H87 0.948 . S
H86 C84 0.952 . S
H87 C85 0.948 . S
H88 C77 0.952 . S
H89 C79 0.948 . S
C90 C56 1.395 . S
C90 C60 1.391 . S
C91 C53 1.389 . S
C91 C73 1.392 . S
C92 C63 1.392 . S
C92 C65 1.389 . S
C93 C68 1.395 . S
C93 C70 1.391 . S
H94 C54 0.951 . S
H95 C55 0.950 . S
H96 C61 0.949 . S
H97 C62 0.950 . S
H98 C66 0.951 . S
H99 C67 0.950 . S
H100 C71 0.949 . S
H101 C72 0.950 . S
H102 C76 0.950 . S
H103 C78 0.950 . S
H104 C81 0.950 . S
H105 C83 0.950 . S
C106 C107 1.443 . S
C106 N110 1.376 . S
C106 C144 1.389 . S
C107 C106 1.443 . S
C107 C108 1.340 . S
C107 H147 0.951 . S
C108 C107 1.340 . S
C108 C109 1.439 . S
C108 H148 0.950 . S
C109 C108 1.439 . S
C109 N110 1.374 . S
C109 C143 1.395 . S
N110 C106 1.376 . S
N110 C109 1.374 . S
N110 Co111 2.008 . S
Co111 N110 2.008 . S
Co111 N112 1.995 . S
Co111 N117 2.008 . S
Co111 N122 1.995 . S
Co111 N127 2.282 . S
Co111 N133 2.282 . S
N112 Co111 1.995 . S
N112 C113 1.376 . S
N112 C116 1.383 . S
C113 N112 1.376 . S
C113 C114 1.446 . S
C113 C143 1.391 . S
C114 C113 1.446 . S
C114 C115 1.339 . S
C114 H149 0.949 . S
C115 C114 1.339 . S
C115 C116 1.439 . S
C115 H150 0.950 . S
C116 N112 1.383 . S
C116 C115 1.439 . S
C116 C145 1.392 . S
N117 Co111 2.008 . S
N117 C118 1.376 . S
N117 C121 1.374 . S
C118 N117 1.376 . S
C118 C119 1.443 . S
C118 C145 1.389 . S
C119 C118 1.443 . S
C119 C120 1.340 . S
C119 H151 0.951 . S
C120 C119 1.340 . S
C120 C121 1.439 . S
C120 H152 0.950 . S
C121 N117 1.374 . S
C121 C120 1.439 . S
C121 C146 1.395 . S
N122 Co111 1.995 . S
N122 C123 1.376 . S
N122 C126 1.383 . S
C123 N122 1.376 . S
C123 C124 1.446 . S
C123 C146 1.391 . S
C124 C123 1.446 . S
C124 C125 1.339 . S
C124 H153 0.949 . S
C125 C124 1.339 . S
C125 C126 1.439 . S
C125 H154 0.950 . S
C126 N122 1.383 . S
C126 C125 1.439 . S
C126 C144 1.392 . S
N127 Co111 2.282 . S
N127 C130 1.332 . S
N127 C132 1.332 . S
C128 C129 1.386 . S
C128 C131 1.388 . S
C129 C128 1.386 . S
C129 C130 1.382 . S
C129 H155 0.950 . S
C130 N127 1.332 . S
C130 C129 1.382 . S
C130 H141 0.952 . S
C131 C128 1.388 . S
C131 C132 1.382 . S
C131 H156 0.950 . S
C132 N127 1.332 . S
C132 C131 1.382 . S
C132 H142 0.948 . S
N133 Co111 2.282 . S
N133 C137 1.332 . S
N133 C138 1.332 . S
C134 C135 1.388 . S
C134 C138 1.382 . S
C134 H157 0.950 . S
C135 C134 1.388 . S
C135 C136 1.386 . S
C136 C135 1.386 . S
C136 C137 1.382 . S
C136 H158 0.950 . S
C137 N133 1.332 . S
C137 C136 1.382 . S
C137 H139 0.952 . S
C138 N133 1.332 . S
C138 C134 1.382 . S
C138 H140 0.948 . S
H139 C137 0.952 . S
H140 C138 0.948 . S
H141 C130 0.952 . S
H142 C132 0.948 . S
C143 C109 1.395 . S
C143 C113 1.391 . S
C144 C106 1.389 . S
C144 C126 1.392 . S
C145 C116 1.392 . S
C145 C118 1.389 . S
C146 C121 1.395 . S
C146 C123 1.391 . S
H147 C107 0.951 . S
H148 C108 0.950 . S
H149 C114 0.949 . S
H150 C115 0.950 . S
H151 C119 0.951 . S
H152 C120 0.950 . S
H153 C124 0.949 . S
H154 C125 0.950 . S
H155 C129 0.950 . S
H156 C131 0.950 . S
H157 C134 0.950 . S
H158 C136 0.950 . S
C159 C160 1.443 . S
C159 N163 1.376 . S
C159 C197 1.389 . S
C160 C159 1.443 . S
C160 C161 1.340 . S
C160 H200 0.951 . S
C161 C160 1.340 . S
C161 C162 1.439 . S
C161 H201 0.950 . S
C162 C161 1.439 . S
C162 N163 1.374 . S
C162 C196 1.395 . S
N163 C159 1.376 . S
N163 C162 1.374 . S
N163 Co164 2.008 . S
Co164 N163 2.008 . S
Co164 N165 1.995 . S
Co164 N170 2.008 . S
Co164 N175 1.995 . S
Co164 N180 2.282 . S
Co164 N186 2.282 . S
N165 Co164 1.995 . S
N165 C166 1.376 . S
N165 C169 1.383 . S
C166 N165 1.376 . S
C166 C167 1.446 . S
C166 C196 1.391 . S
C167 C166 1.446 . S
C167 C168 1.339 . S
C167 H202 0.949 . S
C168 C167 1.339 . S
C168 C169 1.439 . S
C168 H203 0.950 . S
C169 N165 1.383 . S
C169 C168 1.439 . S
C169 C198 1.392 . S
N170 Co164 2.008 . S
N170 C171 1.376 . S
N170 C174 1.374 . S
C171 N170 1.376 . S
C171 C172 1.443 . S
C171 C198 1.389 . S
C172 C171 1.443 . S
C172 C173 1.340 . S
C172 H204 0.951 . S
C173 C172 1.340 . S
C173 C174 1.439 . S
C173 H205 0.950 . S
C174 N170 1.374 . S
C174 C173 1.439 . S
C174 C199 1.395 . S
N175 Co164 1.995 . S
N175 C176 1.376 . S
N175 C179 1.383 . S
C176 N175 1.376 . S
C176 C177 1.446 . S
C176 C199 1.391 . S
C177 C176 1.446 . S
C177 C178 1.339 . S
C177 H206 0.949 . S
C178 C177 1.339 . S
C178 C179 1.439 . S
C178 H207 0.950 . S
C179 N175 1.383 . S
C179 C178 1.439 . S
C179 C197 1.392 . S
N180 Co164 2.282 . S
N180 C183 1.332 . S
N180 C185 1.332 . S
C181 C182 1.386 . S
C181 C184 1.388 . S
C182 C181 1.386 . S
C182 C183 1.382 . S
C182 H208 0.950 . S
C183 N180 1.332 . S
C183 C182 1.382 . S
C183 H194 0.952 . S
C184 C181 1.388 . S
C184 C185 1.382 . S
C184 H209 0.950 . S
C185 N180 1.332 . S
C185 C184 1.382 . S
C185 H195 0.948 . S
N186 Co164 2.282 . S
N186 C190 1.332 . S
N186 C191 1.332 . S
C187 C188 1.388 . S
C187 C191 1.382 . S
C187 H210 0.950 . S
C188 C187 1.388 . S
C188 C189 1.386 . S
C189 C188 1.386 . S
C189 C190 1.382 . S
C189 H211 0.950 . S
C190 N186 1.332 . S
C190 C189 1.382 . S
C190 H192 0.952 . S
C191 N186 1.332 . S
C191 C187 1.382 . S
C191 H193 0.948 . S
H192 C190 0.952 . S
H193 C191 0.948 . S
H194 C183 0.952 . S
H195 C185 0.948 . S
C196 C162 1.395 . S
C196 C166 1.391 . S
C197 C159 1.389 . S
C197 C179 1.392 . S
C198 C169 1.392 . S
C198 C171 1.389 . S
C199 C174 1.395 . S
C199 C176 1.391 . S
H200 C160 0.951 . S
H201 C161 0.950 . S
H202 C167 0.949 . S
H203 C168 0.950 . S
H204 C172 0.951 . S
H205 C173 0.950 . S
H206 C177 0.949 . S
H207 C178 0.950 . S
H208 C182 0.950 . S
H209 C184 0.950 . S
H210 C187 0.950 . S
H211 C189 0.950 . S
C212 C213 1.443 . S
C212 N216 1.376 . S
C212 C250 1.389 . S
C213 C212 1.443 . S
C213 C214 1.340 . S
C213 H253 0.951 . S
C214 C213 1.340 . S
C214 C215 1.439 . S
C214 H254 0.950 . S
C215 C214 1.439 . S
C215 N216 1.374 . S
C215 C249 1.395 . S
N216 C212 1.376 . S
N216 C215 1.374 . S
N216 Co217 2.008 . S
Co217 N216 2.008 . S
Co217 N218 1.995 . S
Co217 N223 2.008 . S
Co217 N228 1.995 . S
Co217 N233 2.282 . S
Co217 N239 2.282 . S
N218 Co217 1.995 . S
N218 C219 1.376 . S
N218 C222 1.383 . S
C219 N218 1.376 . S
C219 C220 1.446 . S
C219 C249 1.391 . S
C220 C219 1.446 . S
C220 C221 1.339 . S
C220 H255 0.949 . S
C221 C220 1.339 . S
C221 C222 1.439 . S
C221 H256 0.950 . S
C222 N218 1.383 . S
C222 C221 1.439 . S
C222 C251 1.392 . S
N223 Co217 2.008 . S
N223 C224 1.376 . S
N223 C227 1.374 . S
C224 N223 1.376 . S
C224 C225 1.443 . S
C224 C251 1.389 . S
C225 C224 1.443 . S
C225 C226 1.340 . S
C225 H257 0.951 . S
C226 C225 1.340 . S
C226 C227 1.439 . S
C226 H258 0.950 . S
C227 N223 1.374 . S
C227 C226 1.439 . S
C227 C252 1.395 . S
N228 Co217 1.995 . S
N228 C229 1.376 . S
N228 C232 1.383 . S
C229 N228 1.376 . S
C229 C230 1.446 . S
C229 C252 1.391 . S
C230 C229 1.446 . S
C230 C231 1.339 . S
C230 H259 0.949 . S
C231 C230 1.339 . S
C231 C232 1.439 . S
C231 H260 0.950 . S
C232 N228 1.383 . S
C232 C231 1.439 . S
C232 C250 1.392 . S
N233 Co217 2.282 . S
N233 C236 1.332 . S
N233 C238 1.332 . S
C234 C235 1.386 . S
C234 C237 1.388 . S
C235 C234 1.386 . S
C235 C236 1.382 . S
C235 H261 0.950 . S
C236 N233 1.332 . S
C236 C235 1.382 . S
C236 H247 0.952 . S
C237 C234 1.388 . S
C237 C238 1.382 . S
C237 H262 0.950 . S
C238 N233 1.332 . S
C238 C237 1.382 . S
C238 H248 0.948 . S
N239 Co217 2.282 . S
N239 C243 1.332 . S
N239 C244 1.332 . S
C240 C241 1.388 . S
C240 C244 1.382 . S
C240 H263 0.950 . S
C241 C240 1.388 . S
C241 C242 1.386 . S
C242 C241 1.386 . S
C242 C243 1.382 . S
C242 H264 0.950 . S
C243 N239 1.332 . S
C243 C242 1.382 . S
C243 H245 0.952 . S
C244 N239 1.332 . S
C244 C240 1.382 . S
C244 H246 0.948 . S
H245 C243 0.952 . S
H246 C244 0.948 . S
H247 C236 0.952 . S
H248 C238 0.948 . S
C249 C215 1.395 . S
C249 C219 1.391 . S
C250 C212 1.389 . S
C250 C232 1.392 . S
C251 C222 1.392 . S
C251 C224 1.389 . S
C252 C227 1.395 . S
C252 C229 1.391 . S
H253 C213 0.951 . S
H254 C214 0.950 . S
H255 C220 0.949 . S
H256 C221 0.950 . S
H257 C225 0.951 . S
H258 C226 0.950 . S
H259 C230 0.949 . S
H260 C231 0.950 . S
H261 C235 0.950 . S
H262 C237 0.950 . S
H263 C240 0.950 . S
H264 C242 0.950 . S
C265 C266 1.443 . S
C265 N269 1.376 . S
C265 C303 1.389 . S
C266 C265 1.443 . S
C266 C267 1.340 . S
C266 H306 0.951 . S
C267 C266 1.340 . S
C267 C268 1.439 . S
C267 H307 0.950 . S
C268 C267 1.439 . S
C268 N269 1.374 . S
C268 C302 1.395 . S
N269 C265 1.376 . S
N269 C268 1.374 . S
N269 Co270 2.008 . S
Co270 N269 2.008 . S
Co270 N271 1.995 . S
Co270 N276 2.008 . S
Co270 N281 1.995 . S
Co270 N286 2.282 . S
Co270 N292 2.282 . S
N271 Co270 1.995 . S
N271 C272 1.376 . S
N271 C275 1.383 . S
C272 N271 1.376 . S
C272 C273 1.446 . S
C272 C302 1.391 . S
C273 C272 1.446 . S
C273 C274 1.339 . S
C273 H308 0.949 . S
C274 C273 1.339 . S
C274 C275 1.439 . S
C274 H309 0.950 . S
C275 N271 1.383 . S
C275 C274 1.439 . S
C275 C304 1.392 . S
N276 Co270 2.008 . S
N276 C277 1.376 . S
N276 C280 1.374 . S
C277 N276 1.376 . S
C277 C278 1.443 . S
C277 C304 1.389 . S
C278 C277 1.443 . S
C278 C279 1.340 . S
C278 H310 0.951 . S
C279 C278 1.340 . S
C279 C280 1.439 . S
C279 H311 0.950 . S
C280 N276 1.374 . S
C280 C279 1.439 . S
C280 C305 1.395 . S
N281 Co270 1.995 . S
N281 C282 1.376 . S
N281 C285 1.383 . S
C282 N281 1.376 . S
C282 C283 1.446 . S
C282 C305 1.391 . S
C283 C282 1.446 . S
C283 C284 1.339 . S
C283 H312 0.949 . S
C284 C283 1.339 . S
C284 C285 1.439 . S
C284 H313 0.950 . S
C285 N281 1.383 . S
C285 C284 1.439 . S
C285 C303 1.392 . S
N286 Co270 2.282 . S
N286 C289 1.332 . S
N286 C291 1.332 . S
C287 C288 1.386 . S
C287 C290 1.388 . S
C288 C287 1.386 . S
C288 C289 1.382 . S
C288 H314 0.950 . S
C289 N286 1.332 . S
C289 C288 1.382 . S
C289 H300 0.952 . S
C290 C287 1.388 . S
C290 C291 1.382 . S
C290 H315 0.950 . S
C291 N286 1.332 . S
C291 C290 1.382 . S
C291 H301 0.948 . S
N292 Co270 2.282 . S
N292 C296 1.332 . S
N292 C297 1.332 . S
C293 C294 1.388 . S
C293 C297 1.382 . S
C293 H316 0.950 . S
C294 C293 1.388 . S
C294 C295 1.386 . S
C295 C294 1.386 . S
C295 C296 1.382 . S
C295 H317 0.950 . S
C296 N292 1.332 . S
C296 C295 1.382 . S
C296 H298 0.952 . S
C297 N292 1.332 . S
C297 C293 1.382 . S
C297 H299 0.948 . S
H298 C296 0.952 . S
H299 C297 0.948 . S
H300 C289 0.952 . S
H301 C291 0.948 . S
C302 C268 1.395 . S
C302 C272 1.391 . S
C303 C265 1.389 . S
C303 C285 1.392 . S
C304 C275 1.392 . S
C304 C277 1.389 . S
C305 C280 1.395 . S
C305 C282 1.391 . S
H306 C266 0.951 . S
H307 C267 0.950 . S
H308 C273 0.949 . S
H309 C274 0.950 . S
H310 C278 0.951 . S
H311 C279 0.950 . S
H312 C283 0.949 . S
H313 C284 0.950 . S
H314 C288 0.950 . S
H315 C290 0.950 . S
H316 C293 0.950 . S
H317 C295 0.950 . S
C318 C319 1.443 . S
C318 N322 1.376 . S
C318 C356 1.389 . S
C319 C318 1.443 . S
C319 C320 1.340 . S
C319 H359 0.951 . S
C320 C319 1.340 . S
C320 C321 1.439 . S
C320 H360 0.950 . S
C321 C320 1.439 . S
C321 N322 1.374 . S
C321 C355 1.395 . S
N322 C318 1.376 . S
N322 C321 1.374 . S
N322 Co323 2.008 . S
Co323 N322 2.008 . S
Co323 N324 1.995 . S
Co323 N329 2.008 . S
Co323 N334 1.995 . S
Co323 N339 2.282 . S
Co323 N345 2.282 . S
N324 Co323 1.995 . S
N324 C325 1.376 . S
N324 C328 1.383 . S
C325 N324 1.376 . S
C325 C326 1.446 . S
C325 C355 1.391 . S
C326 C325 1.446 . S
C326 C327 1.339 . S
C326 H361 0.949 . S
C327 C326 1.339 . S
C327 C328 1.439 . S
C327 H362 0.950 . S
C328 N324 1.383 . S
C328 C327 1.439 . S
C328 C357 1.392 . S
N329 Co323 2.008 . S
N329 C330 1.376 . S
N329 C333 1.374 . S
C330 N329 1.376 . S
C330 C331 1.443 . S
C330 C357 1.389 . S
C331 C330 1.443 . S
C331 C332 1.340 . S
C331 H363 0.951 . S
C332 C331 1.340 . S
C332 C333 1.439 . S
C332 H364 0.950 . S
C333 N329 1.374 . S
C333 C332 1.439 . S
C333 C358 1.395 . S
N334 Co323 1.995 . S
N334 C335 1.376 . S
N334 C338 1.383 . S
C335 N334 1.376 . S
C335 C336 1.446 . S
C335 C358 1.391 . S
C336 C335 1.446 . S
C336 C337 1.339 . S
C336 H365 0.949 . S
C337 C336 1.339 . S
C337 C338 1.439 . S
C337 H366 0.950 . S
C338 N334 1.383 . S
C338 C337 1.439 . S
C338 C356 1.392 . S
N339 Co323 2.282 . S
N339 C342 1.332 . S
N339 C344 1.332 . S
C340 C341 1.386 . S
C340 C343 1.388 . S
C341 C340 1.386 . S
C341 C342 1.382 . S
C341 H367 0.950 . S
C342 N339 1.332 . S
C342 C341 1.382 . S
C342 H353 0.952 . S
C343 C340 1.388 . S
C343 C344 1.382 . S
C343 H368 0.950 . S
C344 N339 1.332 . S
C344 C343 1.382 . S
C344 H354 0.948 . S
N345 Co323 2.282 . S
N345 C349 1.332 . S
N345 C350 1.332 . S
C346 C347 1.388 . S
C346 C350 1.382 . S
C346 H369 0.950 . S
C347 C346 1.388 . S
C347 C348 1.386 . S
C348 C347 1.386 . S
C348 C349 1.382 . S
C348 H370 0.950 . S
C349 N345 1.332 . S
C349 C348 1.382 . S
C349 H351 0.952 . S
C350 N345 1.332 . S
C350 C346 1.382 . S
C350 H352 0.948 . S
H351 C349 0.952 . S
H352 C350 0.948 . S
H353 C342 0.952 . S
H354 C344 0.948 . S
C355 C321 1.395 . S
C355 C325 1.391 . S
C356 C318 1.389 . S
C356 C338 1.392 . S
C357 C328 1.392 . S
C357 C330 1.389 . S
C358 C333 1.395 . S
C358 C335 1.391 . S
H359 C319 0.951 . S
H360 C320 0.950 . S
H361 C326 0.949 . S
H362 C327 0.950 . S
H363 C331 0.951 . S
H364 C332 0.950 . S
H365 C336 0.949 . S
H366 C337 0.950 . S
H367 C341 0.950 . S
H368 C343 0.950 . S
H369 C346 0.950 . S
H370 C348 0.950 . S
C371 C372 1.443 . S
C371 N375 1.376 . S
C371 C409 1.389 . S
C372 C371 1.443 . S
C372 C373 1.340 . S
C372 H412 0.951 . S
C373 C372 1.340 . S
C373 C374 1.439 . S
C373 H413 0.950 . S
C374 C373 1.439 . S
C374 N375 1.374 . S
C374 C408 1.395 . S
N375 C371 1.376 . S
N375 C374 1.374 . S
N375 Co376 2.008 . S
Co376 N375 2.008 . S
Co376 N377 1.995 . S
Co376 N382 2.008 . S
Co376 N387 1.995 . S
Co376 N392 2.282 . S
Co376 N398 2.282 . S
N377 Co376 1.995 . S
N377 C378 1.376 . S
N377 C381 1.383 . S
C378 N377 1.376 . S
C378 C379 1.446 . S
C378 C408 1.391 . S
C379 C378 1.446 . S
C379 C380 1.339 . S
C379 H414 0.949 . S
C380 C379 1.339 . S
C380 C381 1.439 . S
C380 H415 0.950 . S
C381 N377 1.383 . S
C381 C380 1.439 . S
C381 C410 1.392 . S
N382 Co376 2.008 . S
N382 C383 1.376 . S
N382 C386 1.374 . S
C383 N382 1.376 . S
C383 C384 1.443 . S
C383 C410 1.389 . S
C384 C383 1.443 . S
C384 C385 1.340 . S
C384 H416 0.951 . S
C385 C384 1.340 . S
C385 C386 1.439 . S
C385 H417 0.950 . S
C386 N382 1.374 . S
C386 C385 1.439 . S
C386 C411 1.395 . S
N387 Co376 1.995 . S
N387 C388 1.376 . S
N387 C391 1.383 . S
C388 N387 1.376 . S
C388 C389 1.446 . S
C388 C411 1.391 . S
C389 C388 1.446 . S
C389 C390 1.339 . S
C389 H418 0.949 . S
C390 C389 1.339 . S
C390 C391 1.439 . S
C390 H419 0.950 . S
C391 N387 1.383 . S
C391 C390 1.439 . S
C391 C409 1.392 . S
N392 Co376 2.282 . S
N392 C395 1.332 . S
N392 C397 1.332 . S
C393 C394 1.386 . S
C393 C396 1.388 . S
C394 C393 1.386 . S
C394 C395 1.382 . S
C394 H420 0.950 . S
C395 N392 1.332 . S
C395 C394 1.382 . S
C395 H406 0.952 . S
C396 C393 1.388 . S
C396 C397 1.382 . S
C396 H421 0.950 . S
C397 N392 1.332 . S
C397 C396 1.382 . S
C397 H407 0.948 . S
N398 Co376 2.282 . S
N398 C402 1.332 . S
N398 C403 1.332 . S
C399 C400 1.388 . S
C399 C403 1.382 . S
C399 H422 0.950 . S
C400 C399 1.388 . S
C400 C401 1.386 . S
C401 C400 1.386 . S
C401 C402 1.382 . S
C401 H423 0.950 . S
C402 N398 1.332 . S
C402 C401 1.382 . S
C402 H404 0.952 . S
C403 N398 1.332 . S
C403 C399 1.382 . S
C403 H405 0.948 . S
H404 C402 0.952 . S
H405 C403 0.948 . S
H406 C395 0.952 . S
H407 C397 0.948 . S
C408 C374 1.395 . S
C408 C378 1.391 . S
C409 C371 1.389 . S
C409 C391 1.392 . S
C410 C381 1.392 . S
C410 C383 1.389 . S
C411 C386 1.395 . S
C411 C388 1.391 . S
H412 C372 0.951 . S
H413 C373 0.950 . S
H414 C379 0.949 . S
H415 C380 0.950 . S
H416 C384 0.951 . S
H417 C385 0.950 . S
H418 C389 0.949 . S
H419 C390 0.950 . S
H420 C394 0.950 . S
H421 C396 0.950 . S
H422 C399 0.950 . S
H423 C401 0.950 . S
C424 C425 1.443 . S
C424 N428 1.376 . S
C424 C462 1.389 . S
C425 C424 1.443 . S
C425 C426 1.340 . S
C425 H465 0.951 . S
C426 C425 1.340 . S
C426 C427 1.439 . S
C426 H466 0.950 . S
C427 C426 1.439 . S
C427 N428 1.374 . S
C427 C461 1.395 . S
N428 C424 1.376 . S
N428 C427 1.374 . S
N428 Co429 2.008 . S
Co429 N428 2.008 . S
Co429 N430 1.995 . S
Co429 N435 2.008 . S
Co429 N440 1.995 . S
Co429 N445 2.282 . S
Co429 N451 2.282 . S
N430 Co429 1.995 . S
N430 C431 1.376 . S
N430 C434 1.383 . S
C431 N430 1.376 . S
C431 C432 1.446 . S
C431 C461 1.391 . S
C432 C431 1.446 . S
C432 C433 1.339 . S
C432 H467 0.949 . S
C433 C432 1.339 . S
C433 C434 1.439 . S
C433 H468 0.950 . S
C434 N430 1.383 . S
C434 C433 1.439 . S
C434 C463 1.392 . S
N435 Co429 2.008 . S
N435 C436 1.376 . S
N435 C439 1.374 . S
C436 N435 1.376 . S
C436 C437 1.443 . S
C436 C463 1.389 . S
C437 C436 1.443 . S
C437 C438 1.340 . S
C437 H469 0.951 . S
C438 C437 1.340 . S
C438 C439 1.439 . S
C438 H470 0.950 . S
C439 N435 1.374 . S
C439 C438 1.439 . S
C439 C464 1.395 . S
N440 Co429 1.995 . S
N440 C441 1.376 . S
N440 C444 1.383 . S
C441 N440 1.376 . S
C441 C442 1.446 . S
C441 C464 1.391 . S
C442 C441 1.446 . S
C442 C443 1.339 . S
C442 H471 0.949 . S
C443 C442 1.339 . S
C443 C444 1.439 . S
C443 H472 0.950 . S
C444 N440 1.383 . S
C444 C443 1.439 . S
C444 C462 1.392 . S
N445 Co429 2.282 . S
N445 C448 1.332 . S
N445 C450 1.332 . S
C446 C447 1.386 . S
C446 C449 1.388 . S
C447 C446 1.386 . S
C447 C448 1.382 . S
C447 H473 0.950 . S
C448 N445 1.332 . S
C448 C447 1.382 . S
C448 H459 0.952 . S
C449 C446 1.388 . S
C449 C450 1.382 . S
C449 H474 0.950 . S
C450 N445 1.332 . S
C450 C449 1.382 . S
C450 H460 0.948 . S
N451 Co429 2.282 . S
N451 C455 1.332 . S
N451 C456 1.332 . S
C452 C453 1.388 . S
C452 C456 1.382 . S
C452 H475 0.950 . S
C453 C452 1.388 . S
C453 C454 1.386 . S
C454 C453 1.386 . S
C454 C455 1.382 . S
C454 H476 0.950 . S
C455 N451 1.332 . S
C455 C454 1.382 . S
C455 H457 0.952 . S
C456 N451 1.332 . S
C456 C452 1.382 . S
C456 H458 0.948 . S
H457 C455 0.952 . S
H458 C456 0.948 . S
H459 C448 0.952 . S
H460 C450 0.948 . S
C461 C427 1.395 . S
C461 C431 1.391 . S
C462 C424 1.389 . S
C462 C444 1.392 . S
C463 C434 1.392 . S
C463 C436 1.389 . S
C464 C439 1.395 . S
C464 C441 1.391 . S
H465 C425 0.951 . S
H466 C426 0.950 . S
H467 C432 0.949 . S
H468 C433 0.950 . S
H469 C437 0.951 . S
H470 C438 0.950 . S
H471 C442 0.949 . S
H472 C443 0.950 . S
H473 C447 0.950 . S
H474 C449 0.950 . S
H475 C452 0.950 . S
H476 C454 0.950 . S
C477 C478 1.443 . S
C477 N481 1.376 . S
C477 C515 1.389 . S
C478 C477 1.443 . S
C478 C479 1.340 . S
C478 H518 0.951 . S
C479 C478 1.340 . S
C479 C480 1.439 . S
C479 H519 0.950 . S
C480 C479 1.439 . S
C480 N481 1.374 . S
C480 C514 1.395 . S
N481 C477 1.376 . S
N481 C480 1.374 . S
N481 Co482 2.008 . S
Co482 N481 2.008 . S
Co482 N483 1.995 . S
Co482 N488 2.008 . S
Co482 N493 1.995 . S
Co482 N498 2.282 . S
Co482 N504 2.282 . S
N483 Co482 1.995 . S
N483 C484 1.376 . S
N483 C487 1.383 . S
C484 N483 1.376 . S
C484 C485 1.446 . S
C484 C514 1.391 . S
C485 C484 1.446 . S
C485 C486 1.339 . S
C485 H520 0.949 . S
C486 C485 1.339 . S
C486 C487 1.439 . S
C486 H521 0.950 . S
C487 N483 1.383 . S
C487 C486 1.439 . S
C487 C516 1.392 . S
N488 Co482 2.008 . S
N488 C489 1.376 . S
N488 C492 1.374 . S
C489 N488 1.376 . S
C489 C490 1.443 . S
C489 C516 1.389 . S
C490 C489 1.443 . S
C490 C491 1.340 . S
C490 H522 0.951 . S
C491 C490 1.340 . S
C491 C492 1.439 . S
C491 H523 0.950 . S
C492 N488 1.374 . S
C492 C491 1.439 . S
C492 C517 1.395 . S
N493 Co482 1.995 . S
N493 C494 1.376 . S
N493 C497 1.383 . S
C494 N493 1.376 . S
C494 C495 1.446 . S
C494 C517 1.391 . S
C495 C494 1.446 . S
C495 C496 1.339 . S
C495 H524 0.949 . S
C496 C495 1.339 . S
C496 C497 1.439 . S
C496 H525 0.950 . S
C497 N493 1.383 . S
C497 C496 1.439 . S
C497 C515 1.392 . S
N498 Co482 2.282 . S
N498 C501 1.332 . S
N498 C503 1.332 . S
C499 C500 1.386 . S
C499 C502 1.388 . S
C500 C499 1.386 . S
C500 C501 1.382 . S
C500 H526 0.950 . S
C501 N498 1.332 . S
C501 C500 1.382 . S
C501 H512 0.952 . S
C502 C499 1.388 . S
C502 C503 1.382 . S
C502 H527 0.950 . S
C503 N498 1.332 . S
C503 C502 1.382 . S
C503 H513 0.948 . S
N504 Co482 2.282 . S
N504 C508 1.332 . S
N504 C509 1.332 . S
C505 C506 1.388 . S
C505 C509 1.382 . S
C505 H528 0.950 . S
C506 C505 1.388 . S
C506 C507 1.386 . S
C507 C506 1.386 . S
C507 C508 1.382 . S
C507 H529 0.950 . S
C508 N504 1.332 . S
C508 C507 1.382 . S
C508 H510 0.952 . S
C509 N504 1.332 . S
C509 C505 1.382 . S
C509 H511 0.948 . S
H510 C508 0.952 . S
H511 C509 0.948 . S
H512 C501 0.952 . S
H513 C503 0.948 . S
C514 C480 1.395 . S
C514 C484 1.391 . S
C515 C477 1.389 . S
C515 C497 1.392 . S
C516 C487 1.392 . S
C516 C489 1.389 . S
C517 C492 1.395 . S
C517 C494 1.391 . S
H518 C478 0.951 . S
H519 C479 0.950 . S
H520 C485 0.949 . S
H521 C486 0.950 . S
H522 C490 0.951 . S
H523 C491 0.950 . S
H524 C495 0.949 . S
H525 C496 0.950 . S
H526 C500 0.950 . S
H527 C502 0.950 . S
H528 C505 0.950 . S
H529 C507 0.950 . S
C530 C531 1.443 . S
C530 N534 1.376 . S
C530 C568 1.389 . S
C531 C530 1.443 . S
C531 C532 1.340 . S
C531 H571 0.951 . S
C532 C531 1.340 . S
C532 C533 1.439 . S
C532 H572 0.950 . S
C533 C532 1.439 . S
C533 N534 1.374 . S
C533 C567 1.395 . S
N534 C530 1.376 . S
N534 C533 1.374 . S
N534 Co535 2.008 . S
Co535 N534 2.008 . S
Co535 N536 1.995 . S
Co535 N541 2.008 . S
Co535 N546 1.995 . S
Co535 N551 2.282 . S
Co535 N557 2.282 . S
N536 Co535 1.995 . S
N536 C537 1.376 . S
N536 C540 1.383 . S
C537 N536 1.376 . S
C537 C538 1.446 . S
C537 C567 1.391 . S
C538 C537 1.446 . S
C538 C539 1.339 . S
C538 H573 0.949 . S
C539 C538 1.339 . S
C539 C540 1.439 . S
C539 H574 0.950 . S
C540 N536 1.383 . S
C540 C539 1.439 . S
C540 C569 1.392 . S
N541 Co535 2.008 . S
N541 C542 1.376 . S
N541 C545 1.374 . S
C542 N541 1.376 . S
C542 C543 1.443 . S
C542 C569 1.389 . S
C543 C542 1.443 . S
C543 C544 1.340 . S
C543 H575 0.951 . S
C544 C543 1.340 . S
C544 C545 1.439 . S
C544 H576 0.950 . S
C545 N541 1.374 . S
C545 C544 1.439 . S
C545 C570 1.395 . S
N546 Co535 1.995 . S
N546 C547 1.376 . S
N546 C550 1.383 . S
C547 N546 1.376 . S
C547 C548 1.446 . S
C547 C570 1.391 . S
C548 C547 1.446 . S
C548 C549 1.339 . S
C548 H577 0.949 . S
C549 C548 1.339 . S
C549 C550 1.439 . S
C549 H578 0.950 . S
C550 N546 1.383 . S
C550 C549 1.439 . S
C550 C568 1.392 . S
N551 Co535 2.282 . S
N551 C554 1.332 . S
N551 C556 1.332 . S
C552 C553 1.386 . S
C552 C555 1.388 . S
C553 C552 1.386 . S
C553 C554 1.382 . S
C553 H579 0.950 . S
C554 N551 1.332 . S
C554 C553 1.382 . S
C554 H565 0.952 . S
C555 C552 1.388 . S
C555 C556 1.382 . S
C555 H580 0.950 . S
C556 N551 1.332 . S
C556 C555 1.382 . S
C556 H566 0.948 . S
N557 Co535 2.282 . S
N557 C561 1.332 . S
N557 C562 1.332 . S
C558 C559 1.388 . S
C558 C562 1.382 . S
C558 H581 0.950 . S
C559 C558 1.388 . S
C559 C560 1.386 . S
C560 C559 1.386 . S
C560 C561 1.382 . S
C560 H582 0.950 . S
C561 N557 1.332 . S
C561 C560 1.382 . S
C561 H563 0.952 . S
C562 N557 1.332 . S
C562 C558 1.382 . S
C562 H564 0.948 . S
H563 C561 0.952 . S
H564 C562 0.948 . S
H565 C554 0.952 . S
H566 C556 0.948 . S
C567 C533 1.395 . S
C567 C537 1.391 . S
C568 C530 1.389 . S
C568 C550 1.392 . S
C569 C540 1.392 . S
C569 C542 1.389 . S
C570 C545 1.395 . S
C570 C547 1.391 . S
H571 C531 0.951 . S
H572 C532 0.950 . S
H573 C538 0.949 . S
H574 C539 0.950 . S
H575 C543 0.951 . S
H576 C544 0.950 . S
H577 C548 0.949 . S
H578 C549 0.950 . S
H579 C553 0.950 . S
H580 C555 0.950 . S
H581 C558 0.950 . S
H582 C560 0.950 . S
C583 C584 1.443 . S
C583 N587 1.376 . S
C583 C621 1.389 . S
C584 C583 1.443 . S
C584 C585 1.340 . S
C584 H624 0.951 . S
C585 C584 1.340 . S
C585 C586 1.439 . S
C585 H625 0.950 . S
C586 C585 1.439 . S
C586 N587 1.374 . S
C586 C620 1.395 . S
N587 C583 1.376 . S
N587 C586 1.374 . S
N587 Co588 2.008 . S
Co588 N587 2.008 . S
Co588 N589 1.995 . S
Co588 N594 2.008 . S
Co588 N599 1.995 . S
Co588 N604 2.282 . S
Co588 N610 2.282 . S
N589 Co588 1.995 . S
N589 C590 1.376 . S
N589 C593 1.383 . S
C590 N589 1.376 . S
C590 C591 1.446 . S
C590 C620 1.391 . S
C591 C590 1.446 . S
C591 C592 1.339 . S
C591 H626 0.949 . S
C592 C591 1.339 . S
C592 C593 1.439 . S
C592 H627 0.950 . S
C593 N589 1.383 . S
C593 C592 1.439 . S
C593 C622 1.392 . S
N594 Co588 2.008 . S
N594 C595 1.376 . S
N594 C598 1.374 . S
C595 N594 1.376 . S
C595 C596 1.443 . S
C595 C622 1.389 . S
C596 C595 1.443 . S
C596 C597 1.340 . S
C596 H628 0.951 . S
C597 C596 1.340 . S
C597 C598 1.439 . S
C597 H629 0.950 . S
C598 N594 1.374 . S
C598 C597 1.439 . S
C598 C623 1.395 . S
N599 Co588 1.995 . S
N599 C600 1.376 . S
N599 C603 1.383 . S
C600 N599 1.376 . S
C600 C601 1.446 . S
C600 C623 1.391 . S
C601 C600 1.446 . S
C601 C602 1.339 . S
C601 H630 0.949 . S
C602 C601 1.339 . S
C602 C603 1.439 . S
C602 H631 0.950 . S
C603 N599 1.383 . S
C603 C602 1.439 . S
C603 C621 1.392 . S
N604 Co588 2.282 . S
N604 C607 1.332 . S
N604 C609 1.332 . S
C605 C606 1.386 . S
C605 C608 1.388 . S
C606 C605 1.386 . S
C606 C607 1.382 . S
C606 H632 0.950 . S
C607 N604 1.332 . S
C607 C606 1.382 . S
C607 H618 0.952 . S
C608 C605 1.388 . S
C608 C609 1.382 . S
C608 H633 0.950 . S
C609 N604 1.332 . S
C609 C608 1.382 . S
C609 H619 0.948 . S
N610 Co588 2.282 . S
N610 C614 1.332 . S
N610 C615 1.332 . S
C611 C612 1.388 . S
C611 C615 1.382 . S
C611 H634 0.950 . S
C612 C611 1.388 . S
C612 C613 1.386 . S
C613 C612 1.386 . S
C613 C614 1.382 . S
C613 H635 0.950 . S
C614 N610 1.332 . S
C614 C613 1.382 . S
C614 H616 0.952 . S
C615 N610 1.332 . S
C615 C611 1.382 . S
C615 H617 0.948 . S
H616 C614 0.952 . S
H617 C615 0.948 . S
H618 C607 0.952 . S
H619 C609 0.948 . S
C620 C586 1.395 . S
C620 C590 1.391 . S
C621 C583 1.389 . S
C621 C603 1.392 . S
C622 C593 1.392 . S
C622 C595 1.389 . S
C623 C598 1.395 . S
C623 C600 1.391 . S
H624 C584 0.951 . S
H625 C585 0.950 . S
H626 C591 0.949 . S
H627 C592 0.950 . S
H628 C596 0.951 . S
H629 C597 0.950 . S
H630 C601 0.949 . S
H631 C602 0.950 . S
H632 C606 0.950 . S
H633 C608 0.950 . S
H634 C611 0.950 . S
H635 C613 0.950 . S
C636 C637 1.443 . S
C636 N640 1.376 . S
C636 C674 1.389 . S
C637 C636 1.443 . S
C637 C638 1.340 . S
C637 H677 0.951 . S
C638 C637 1.340 . S
C638 C639 1.439 . S
C638 H678 0.950 . S
C639 C638 1.439 . S
C639 N640 1.374 . S
C639 C673 1.395 . S
N640 C636 1.376 . S
N640 C639 1.374 . S
N640 Co641 2.008 . S
Co641 N640 2.008 . S
Co641 N642 1.995 . S
Co641 N647 2.008 . S
Co641 N652 1.995 . S
Co641 N657 2.282 . S
Co641 N663 2.282 . S
N642 Co641 1.995 . S
N642 C643 1.376 . S
N642 C646 1.383 . S
C643 N642 1.376 . S
C643 C644 1.446 . S
C643 C673 1.391 . S
C644 C643 1.446 . S
C644 C645 1.339 . S
C644 H679 0.949 . S
C645 C644 1.339 . S
C645 C646 1.439 . S
C645 H680 0.950 . S
C646 N642 1.383 . S
C646 C645 1.439 . S
C646 C675 1.392 . S
N647 Co641 2.008 . S
N647 C648 1.376 . S
N647 C651 1.374 . S
C648 N647 1.376 . S
C648 C649 1.443 . S
C648 C675 1.389 . S
C649 C648 1.443 . S
C649 C650 1.340 . S
C649 H681 0.951 . S
C650 C649 1.340 . S
C650 C651 1.439 . S
C650 H682 0.950 . S
C651 N647 1.374 . S
C651 C650 1.439 . S
C651 C676 1.395 . S
N652 Co641 1.995 . S
N652 C653 1.376 . S
N652 C656 1.383 . S
C653 N652 1.376 . S
C653 C654 1.446 . S
C653 C676 1.391 . S
C654 C653 1.446 . S
C654 C655 1.339 . S
C654 H683 0.949 . S
C655 C654 1.339 . S
C655 C656 1.439 . S
C655 H684 0.950 . S
C656 N652 1.383 . S
C656 C655 1.439 . S
C656 C674 1.392 . S
N657 Co641 2.282 . S
N657 C660 1.332 . S
N657 C662 1.332 . S
C658 C659 1.386 . S
C658 C661 1.388 . S
C659 C658 1.386 . S
C659 C660 1.382 . S
C659 H685 0.950 . S
C660 N657 1.332 . S
C660 C659 1.382 . S
C660 H671 0.952 . S
C661 C658 1.388 . S
C661 C662 1.382 . S
C661 H686 0.950 . S
C662 N657 1.332 . S
C662 C661 1.382 . S
C662 H672 0.948 . S
N663 Co641 2.282 . S
N663 C667 1.332 . S
N663 C668 1.332 . S
C664 C665 1.388 . S
C664 C668 1.382 . S
C664 H687 0.950 . S
C665 C664 1.388 . S
C665 C666 1.386 . S
C666 C665 1.386 . S
C666 C667 1.382 . S
C666 H688 0.950 . S
C667 N663 1.332 . S
C667 C666 1.382 . S
C667 H669 0.952 . S
C668 N663 1.332 . S
C668 C664 1.382 . S
C668 H670 0.948 . S
H669 C667 0.952 . S
H670 C668 0.948 . S
H671 C660 0.952 . S
H672 C662 0.948 . S
C673 C639 1.395 . S
C673 C643 1.391 . S
C674 C636 1.389 . S
C674 C656 1.392 . S
C675 C646 1.392 . S
C675 C648 1.389 . S
C676 C651 1.395 . S
C676 C653 1.391 . S
H677 C637 0.951 . S
H678 C638 0.950 . S
H679 C644 0.949 . S
H680 C645 0.950 . S
H681 C649 0.951 . S
H682 C650 0.950 . S
H683 C654 0.949 . S
H684 C655 0.950 . S
H685 C659 0.950 . S
H686 C661 0.950 . S
H687 C664 0.950 . S
H688 C666 0.950 . S
C689 C690 1.443 . S
C689 N693 1.376 . S
C689 C727 1.389 . S
C690 C689 1.443 . S
C690 C691 1.340 . S
C690 H730 0.951 . S
C691 C690 1.340 . S
C691 C692 1.439 . S
C691 H731 0.950 . S
C692 C691 1.439 . S
C692 N693 1.374 . S
C692 C726 1.395 . S
N693 C689 1.376 . S
N693 C692 1.374 . S
N693 Co694 2.008 . S
Co694 N693 2.008 . S
Co694 N695 1.995 . S
Co694 N700 2.008 . S
Co694 N705 1.995 . S
Co694 N710 2.282 . S
Co694 N716 2.282 . S
N695 Co694 1.995 . S
N695 C696 1.376 . S
N695 C699 1.383 . S
C696 N695 1.376 . S
C696 C697 1.446 . S
C696 C726 1.391 . S
C697 C696 1.446 . S
C697 C698 1.339 . S
C697 H732 0.949 . S
C698 C697 1.339 . S
C698 C699 1.439 . S
C698 H733 0.950 . S
C699 N695 1.383 . S
C699 C698 1.439 . S
C699 C728 1.392 . S
N700 Co694 2.008 . S
N700 C701 1.376 . S
N700 C704 1.374 . S
C701 N700 1.376 . S
C701 C702 1.443 . S
C701 C728 1.389 . S
C702 C701 1.443 . S
C702 C703 1.340 . S
C702 H734 0.951 . S
C703 C702 1.340 . S
C703 C704 1.439 . S
C703 H735 0.950 . S
C704 N700 1.374 . S
C704 C703 1.439 . S
C704 C729 1.395 . S
N705 Co694 1.995 . S
N705 C706 1.376 . S
N705 C709 1.383 . S
C706 N705 1.376 . S
C706 C707 1.446 . S
C706 C729 1.391 . S
C707 C706 1.446 . S
C707 C708 1.339 . S
C707 H736 0.949 . S
C708 C707 1.339 . S
C708 C709 1.439 . S
C708 H737 0.950 . S
C709 N705 1.383 . S
C709 C708 1.439 . S
C709 C727 1.392 . S
N710 Co694 2.282 . S
N710 C713 1.332 . S
N710 C715 1.332 . S
C711 C712 1.386 . S
C711 C714 1.388 . S
C712 C711 1.386 . S
C712 C713 1.382 . S
C712 H738 0.950 . S
C713 N710 1.332 . S
C713 C712 1.382 . S
C713 H724 0.952 . S
C714 C711 1.388 . S
C714 C715 1.382 . S
C714 H739 0.950 . S
C715 N710 1.332 . S
C715 C714 1.382 . S
C715 H725 0.948 . S
N716 Co694 2.282 . S
N716 C720 1.332 . S
N716 C721 1.332 . S
C717 C718 1.388 . S
C717 C721 1.382 . S
C717 H740 0.950 . S
C718 C717 1.388 . S
C718 C719 1.386 . S
C719 C718 1.386 . S
C719 C720 1.382 . S
C719 H741 0.950 . S
C720 N716 1.332 . S
C720 C719 1.382 . S
C720 H722 0.952 . S
C721 N716 1.332 . S
C721 C717 1.382 . S
C721 H723 0.948 . S
H722 C720 0.952 . S
H723 C721 0.948 . S
H724 C713 0.952 . S
H725 C715 0.948 . S
C726 C692 1.395 . S
C726 C696 1.391 . S
C727 C689 1.389 . S
C727 C709 1.392 . S
C728 C699 1.392 . S
C728 C701 1.389 . S
C729 C704 1.395 . S
C729 C706 1.391 . S
H730 C690 0.951 . S
H731 C691 0.950 . S
H732 C697 0.949 . S
H733 C698 0.950 . S
H734 C702 0.951 . S
H735 C703 0.950 . S
H736 C707 0.949 . S
H737 C708 0.950 . S
H738 C712 0.950 . S
H739 C714 0.950 . S
H740 C717 0.950 . S
H741 C719 0.950 . S
C742 C743 1.443 . S
C742 N746 1.376 . S
C742 C780 1.389 . S
C743 C742 1.443 . S
C743 C744 1.340 . S
C743 H783 0.951 . S
C744 C743 1.340 . S
C744 C745 1.439 . S
C744 H784 0.950 . S
C745 C744 1.439 . S
C745 N746 1.374 . S
C745 C779 1.395 . S
N746 C742 1.376 . S
N746 C745 1.374 . S
N746 Co747 2.008 . S
Co747 N746 2.008 . S
Co747 N748 1.995 . S
Co747 N753 2.008 . S
Co747 N758 1.995 . S
Co747 N763 2.282 . S
Co747 N769 2.282 . S
N748 Co747 1.995 . S
N748 C749 1.376 . S
N748 C752 1.383 . S
C749 N748 1.376 . S
C749 C750 1.446 . S
C749 C779 1.391 . S
C750 C749 1.446 . S
C750 C751 1.339 . S
C750 H785 0.949 . S
C751 C750 1.339 . S
C751 C752 1.439 . S
C751 H786 0.950 . S
C752 N748 1.383 . S
C752 C751 1.439 . S
C752 C781 1.392 . S
N753 Co747 2.008 . S
N753 C754 1.376 . S
N753 C757 1.374 . S
C754 N753 1.376 . S
C754 C755 1.443 . S
C754 C781 1.389 . S
C755 C754 1.443 . S
C755 C756 1.340 . S
C755 H787 0.951 . S
C756 C755 1.340 . S
C756 C757 1.439 . S
C756 H788 0.950 . S
C757 N753 1.374 . S
C757 C756 1.439 . S
C757 C782 1.395 . S
N758 Co747 1.995 . S
N758 C759 1.376 . S
N758 C762 1.383 . S
C759 N758 1.376 . S
C759 C760 1.446 . S
C759 C782 1.391 . S
C760 C759 1.446 . S
C760 C761 1.339 . S
C760 H789 0.949 . S
C761 C760 1.339 . S
C761 C762 1.439 . S
C761 H790 0.950 . S
C762 N758 1.383 . S
C762 C761 1.439 . S
C762 C780 1.392 . S
N763 Co747 2.282 . S
N763 C766 1.332 . S
N763 C768 1.332 . S
C764 C765 1.386 . S
C764 C767 1.388 . S
C765 C764 1.386 . S
C765 C766 1.382 . S
C765 H791 0.950 . S
C766 N763 1.332 . S
C766 C765 1.382 . S
C766 H777 0.952 . S
C767 C764 1.388 . S
C767 C768 1.382 . S
C767 H792 0.950 . S
C768 N763 1.332 . S
C768 C767 1.382 . S
C768 H778 0.948 . S
N769 Co747 2.282 . S
N769 C773 1.332 . S
N769 C774 1.332 . S
C770 C771 1.388 . S
C770 C774 1.382 . S
C770 H793 0.950 . S
C771 C770 1.388 . S
C771 C772 1.386 . S
C772 C771 1.386 . S
C772 C773 1.382 . S
C772 H794 0.950 . S
C773 N769 1.332 . S
C773 C772 1.382 . S
C773 H775 0.952 . S
C774 N769 1.332 . S
C774 C770 1.382 . S
C774 H776 0.948 . S
H775 C773 0.952 . S
H776 C774 0.948 . S
H777 C766 0.952 . S
H778 C768 0.948 . S
C779 C745 1.395 . S
C779 C749 1.391 . S
C780 C742 1.389 . S
C780 C762 1.392 . S
C781 C752 1.392 . S
C781 C754 1.389 . S
C782 C757 1.395 . S
C782 C759 1.391 . S
H783 C743 0.951 . S
H784 C744 0.950 . S
H785 C750 0.949 . S
H786 C751 0.950 . S
H787 C755 0.951 . S
H788 C756 0.950 . S
H789 C760 0.949 . S
H790 C761 0.950 . S
H791 C765 0.950 . S
H792 C767 0.950 . S
H793 C770 0.950 . S
H794 C772 0.950 . S
C795 C796 1.443 . S
C795 N799 1.376 . S
C795 C833 1.389 . S
C796 C795 1.443 . S
C796 C797 1.340 . S
C796 H836 0.951 . S
C797 C796 1.340 . S
C797 C798 1.439 . S
C797 H837 0.950 . S
C798 C797 1.439 . S
C798 N799 1.374 . S
C798 C832 1.395 . S
N799 C795 1.376 . S
N799 C798 1.374 . S
N799 Co800 2.008 . S
Co800 N799 2.008 . S
Co800 N801 1.995 . S
Co800 N806 2.008 . S
Co800 N811 1.995 . S
Co800 N816 2.282 . S
Co800 N822 2.282 . S
N801 Co800 1.995 . S
N801 C802 1.376 . S
N801 C805 1.383 . S
C802 N801 1.376 . S
C802 C803 1.446 . S
C802 C832 1.391 . S
C803 C802 1.446 . S
C803 C804 1.339 . S
C803 H838 0.949 . S
C804 C803 1.339 . S
C804 C805 1.439 . S
C804 H839 0.950 . S
C805 N801 1.383 . S
C805 C804 1.439 . S
C805 C834 1.392 . S
N806 Co800 2.008 . S
N806 C807 1.376 . S
N806 C810 1.374 . S
C807 N806 1.376 . S
C807 C808 1.443 . S
C807 C834 1.389 . S
C808 C807 1.443 . S
C808 C809 1.340 . S
C808 H840 0.951 . S
C809 C808 1.340 . S
C809 C810 1.439 . S
C809 H841 0.950 . S
C810 N806 1.374 . S
C810 C809 1.439 . S
C810 C835 1.395 . S
N811 Co800 1.995 . S
N811 C812 1.376 . S
N811 C815 1.383 . S
C812 N811 1.376 . S
C812 C813 1.446 . S
C812 C835 1.391 . S
C813 C812 1.446 . S
C813 C814 1.339 . S
C813 H842 0.949 . S
C814 C813 1.339 . S
C814 C815 1.439 . S
C814 H843 0.950 . S
C815 N811 1.383 . S
C815 C814 1.439 . S
C815 C833 1.392 . S
N816 Co800 2.282 . S
N816 C819 1.332 . S
N816 C821 1.332 . S
C817 C818 1.386 . S
C817 C820 1.388 . S
C818 C817 1.386 . S
C818 C819 1.382 . S
C818 H844 0.950 . S
C819 N816 1.332 . S
C819 C818 1.382 . S
C819 H830 0.952 . S
C820 C817 1.388 . S
C820 C821 1.382 . S
C820 H845 0.950 . S
C821 N816 1.332 . S
C821 C820 1.382 . S
C821 H831 0.948 . S
N822 Co800 2.282 . S
N822 C826 1.332 . S
N822 C827 1.332 . S
C823 C824 1.388 . S
C823 C827 1.382 . S
C823 H846 0.950 . S
C824 C823 1.388 . S
C824 C825 1.386 . S
C825 C824 1.386 . S
C825 C826 1.382 . S
C825 H847 0.950 . S
C826 N822 1.332 . S
C826 C825 1.382 . S
C826 H828 0.952 . S
C827 N822 1.332 . S
C827 C823 1.382 . S
C827 H829 0.948 . S
H828 C826 0.952 . S
H829 C827 0.948 . S
H830 C819 0.952 . S
H831 C821 0.948 . S
C832 C798 1.395 . S
C832 C802 1.391 . S
C833 C795 1.389 . S
C833 C815 1.392 . S
C834 C805 1.392 . S
C834 C807 1.389 . S
C835 C810 1.395 . S
C835 C812 1.391 . S
H836 C796 0.951 . S
H837 C797 0.950 . S
H838 C803 0.949 . S
H839 C804 0.950 . S
H840 C808 0.951 . S
H841 C809 0.950 . S
H842 C813 0.949 . S
H843 C814 0.950 . S
H844 C818 0.950 . S
H845 C820 0.950 . S
H846 C823 0.950 . S
H847 C825 0.950 . S
C848 C849 1.443 . S
C848 N852 1.376 . S
C848 C886 1.389 . S
C849 C848 1.443 . S
C849 C850 1.340 . S
C849 H889 0.951 . S
C850 C849 1.340 . S
C850 C851 1.439 . S
C850 H890 0.950 . S
C851 C850 1.439 . S
C851 N852 1.374 . S
C851 C885 1.395 . S
N852 C848 1.376 . S
N852 C851 1.374 . S
N852 Co853 2.008 . S
Co853 N852 2.008 . S
Co853 N854 1.995 . S
Co853 N859 2.008 . S
Co853 N864 1.995 . S
Co853 N869 2.282 . S
Co853 N875 2.282 . S
N854 Co853 1.995 . S
N854 C855 1.376 . S
N854 C858 1.383 . S
C855 N854 1.376 . S
C855 C856 1.446 . S
C855 C885 1.391 . S
C856 C855 1.446 . S
C856 C857 1.339 . S
C856 H891 0.949 . S
C857 C856 1.339 . S
C857 C858 1.439 . S
C857 H892 0.950 . S
C858 N854 1.383 . S
C858 C857 1.439 . S
C858 C887 1.392 . S
N859 Co853 2.008 . S
N859 C860 1.376 . S
N859 C863 1.374 . S
C860 N859 1.376 . S
C860 C861 1.443 . S
C860 C887 1.389 . S
C861 C860 1.443 . S
C861 C862 1.340 . S
C861 H893 0.951 . S
C862 C861 1.340 . S
C862 C863 1.439 . S
C862 H894 0.950 . S
C863 N859 1.374 . S
C863 C862 1.439 . S
C863 C888 1.395 . S
N864 Co853 1.995 . S
N864 C865 1.376 . S
N864 C868 1.383 . S
C865 N864 1.376 . S
C865 C866 1.446 . S
C865 C888 1.391 . S
C866 C865 1.446 . S
C866 C867 1.339 . S
C866 H895 0.949 . S
C867 C866 1.339 . S
C867 C868 1.439 . S
C867 H896 0.950 . S
C868 N864 1.383 . S
C868 C867 1.439 . S
C868 C886 1.392 . S
N869 Co853 2.282 . S
N869 C872 1.332 . S
N869 C874 1.332 . S
C870 C871 1.386 . S
C870 C873 1.388 . S
C871 C870 1.386 . S
C871 C872 1.382 . S
C871 H897 0.950 . S
C872 N869 1.332 . S
C872 C871 1.382 . S
C872 H883 0.952 . S
C873 C870 1.388 . S
C873 C874 1.382 . S
C873 H898 0.950 . S
C874 N869 1.332 . S
C874 C873 1.382 . S
C874 H884 0.948 . S
N875 Co853 2.282 . S
N875 C879 1.332 . S
N875 C880 1.332 . S
C876 C877 1.388 . S
C876 C880 1.382 . S
C876 H899 0.950 . S
C877 C876 1.388 . S
C877 C878 1.386 . S
C878 C877 1.386 . S
C878 C879 1.382 . S
C878 H900 0.950 . S
C879 N875 1.332 . S
C879 C878 1.382 . S
C879 H881 0.952 . S
C880 N875 1.332 . S
C880 C876 1.382 . S
C880 H882 0.948 . S
H881 C879 0.952 . S
H882 C880 0.948 . S
H883 C872 0.952 . S
H884 C874 0.948 . S
C885 C851 1.395 . S
C885 C855 1.391 . S
C886 C848 1.389 . S
C886 C868 1.392 . S
C887 C858 1.392 . S
C887 C860 1.389 . S
C888 C863 1.395 . S
C888 C865 1.391 . S
H889 C849 0.951 . S
H890 C850 0.950 . S
H891 C856 0.949 . S
H892 C857 0.950 . S
H893 C861 0.951 . S
H894 C862 0.950 . S
H895 C866 0.949 . S
H896 C867 0.950 . S
H897 C871 0.950 . S
H898 C873 0.950 . S
H899 C876 0.950 . S
H900 C878 0.950 . S
C901 C902 1.443 . S
C901 N905 1.376 . S
C901 C939 1.389 . S
C902 C901 1.443 . S
C902 C903 1.340 . S
C902 H942 0.951 . S
C903 C902 1.340 . S
C903 C904 1.439 . S
C903 H943 0.950 . S
C904 C903 1.439 . S
C904 N905 1.374 . S
C904 C938 1.395 . S
N905 C901 1.376 . S
N905 C904 1.374 . S
N905 Co906 2.008 . S
Co906 N905 2.008 . S
Co906 N907 1.995 . S
Co906 N912 2.008 . S
Co906 N917 1.995 . S
Co906 N922 2.282 . S
Co906 N928 2.282 . S
N907 Co906 1.995 . S
N907 C908 1.376 . S
N907 C911 1.383 . S
C908 N907 1.376 . S
C908 C909 1.446 . S
C908 C938 1.391 . S
C909 C908 1.446 . S
C909 C910 1.339 . S
C909 H944 0.949 . S
C910 C909 1.339 . S
C910 C911 1.439 . S
C910 H945 0.950 . S
C911 N907 1.383 . S
C911 C910 1.439 . S
C911 C940 1.392 . S
N912 Co906 2.008 . S
N912 C913 1.376 . S
N912 C916 1.374 . S
C913 N912 1.376 . S
C913 C914 1.443 . S
C913 C940 1.389 . S
C914 C913 1.443 . S
C914 C915 1.340 . S
C914 H946 0.951 . S
C915 C914 1.340 . S
C915 C916 1.439 . S
C915 H947 0.950 . S
C916 N912 1.374 . S
C916 C915 1.439 . S
C916 C941 1.395 . S
N917 Co906 1.995 . S
N917 C918 1.376 . S
N917 C921 1.383 . S
C918 N917 1.376 . S
C918 C919 1.446 . S
C918 C941 1.391 . S
C919 C918 1.446 . S
C919 C920 1.339 . S
C919 H948 0.949 . S
C920 C919 1.339 . S
C920 C921 1.439 . S
C920 H949 0.950 . S
C921 N917 1.383 . S
C921 C920 1.439 . S
C921 C939 1.392 . S
N922 Co906 2.282 . S
N922 C925 1.332 . S
N922 C927 1.332 . S
C923 C924 1.386 . S
C923 C926 1.388 . S
C924 C923 1.386 . S
C924 C925 1.382 . S
C924 H950 0.950 . S
C925 N922 1.332 . S
C925 C924 1.382 . S
C925 H936 0.952 . S
C926 C923 1.388 . S
C926 C927 1.382 . S
C926 H951 0.950 . S
C927 N922 1.332 . S
C927 C926 1.382 . S
C927 H937 0.948 . S
N928 Co906 2.282 . S
N928 C932 1.332 . S
N928 C933 1.332 . S
C929 C930 1.388 . S
C929 C933 1.382 . S
C929 H952 0.950 . S
C930 C929 1.388 . S
C930 C931 1.386 . S
C931 C930 1.386 . S
C931 C932 1.382 . S
C931 H953 0.950 . S
C932 N928 1.332 . S
C932 C931 1.382 . S
C932 H934 0.952 . S
C933 N928 1.332 . S
C933 C929 1.382 . S
C933 H935 0.948 . S
H934 C932 0.952 . S
H935 C933 0.948 . S
H936 C925 0.952 . S
H937 C927 0.948 . S
C938 C904 1.395 . S
C938 C908 1.391 . S
C939 C901 1.389 . S
C939 C921 1.392 . S
C940 C911 1.392 . S
C940 C913 1.389 . S
C941 C916 1.395 . S
C941 C918 1.391 . S
H942 C902 0.951 . S
H943 C903 0.950 . S
H944 C909 0.949 . S
H945 C910 0.950 . S
H946 C914 0.951 . S
H947 C915 0.950 . S
H948 C919 0.949 . S
H949 C920 0.950 . S
H950 C924 0.950 . S
H951 C926 0.950 . S
H952 C929 0.950 . S
H953 C931 0.950 . S
C954 C955 1.443 . S
C954 N958 1.376 . S
C954 C992 1.389 . S
C955 C954 1.443 . S
C955 C956 1.340 . S
C955 H995 0.951 . S
C956 C955 1.340 . S
C956 C957 1.439 . S
C956 H996 0.950 . S
C957 C956 1.439 . S
C957 N958 1.374 . S
C957 C991 1.395 . S
N958 C954 1.376 . S
N958 C957 1.374 . S
N958 Co959 2.008 . S
Co959 N958 2.008 . S
Co959 N960 1.995 . S
Co959 N965 2.008 . S
Co959 N970 1.995 . S
Co959 N975 2.282 . S
Co959 N981 2.282 . S
N960 Co959 1.995 . S
N960 C961 1.376 . S
N960 C964 1.383 . S
C961 N960 1.376 . S
C961 C962 1.446 . S
C961 C991 1.391 . S
C962 C961 1.446 . S
C962 C963 1.339 . S
C962 H997 0.949 . S
C963 C962 1.339 . S
C963 C964 1.439 . S
C963 H998 0.950 . S
C964 N960 1.383 . S
C964 C963 1.439 . S
C964 C993 1.392 . S
N965 Co959 2.008 . S
N965 C966 1.376 . S
N965 C969 1.374 . S
C966 N965 1.376 . S
C966 C967 1.443 . S
C966 C993 1.389 . S
C967 C966 1.443 . S
C967 C968 1.340 . S
C967 H999 0.951 . S
C968 C967 1.340 . S
C968 C969 1.439 . S
C968 H1000 0.950 . S
C969 N965 1.374 . S
C969 C968 1.439 . S
C969 C994 1.395 . S
N970 Co959 1.995 . S
N970 C971 1.376 . S
N970 C974 1.383 . S
C971 N970 1.376 . S
C971 C972 1.446 . S
C971 C994 1.391 . S
C972 C971 1.446 . S
C972 C973 1.339 . S
C972 H1001 0.949 . S
C973 C972 1.339 . S
C973 C974 1.439 . S
C973 H1002 0.950 . S
C974 N970 1.383 . S
C974 C973 1.439 . S
C974 C992 1.392 . S
N975 Co959 2.282 . S
N975 C978 1.332 . S
N975 C980 1.332 . S
C976 C977 1.386 . S
C976 C979 1.388 . S
C977 C976 1.386 . S
C977 C978 1.382 . S
C977 H1003 0.950 . S
C978 N975 1.332 . S
C978 C977 1.382 . S
C978 H989 0.952 . S
C979 C976 1.388 . S
C979 C980 1.382 . S
C979 H1004 0.950 . S
C980 N975 1.332 . S
C980 C979 1.382 . S
C980 H990 0.948 . S
N981 Co959 2.282 . S
N981 C985 1.332 . S
N981 C986 1.332 . S
C982 C983 1.388 . S
C982 C986 1.382 . S
C982 H1005 0.950 . S
C983 C982 1.388 . S
C983 C984 1.386 . S
C984 C983 1.386 . S
C984 C985 1.382 . S
C984 H1006 0.950 . S
C985 N981 1.332 . S
C985 C984 1.382 . S
C985 H987 0.952 . S
C986 N981 1.332 . S
C986 C982 1.382 . S
C986 H988 0.948 . S
H987 C985 0.952 . S
H988 C986 0.948 . S
H989 C978 0.952 . S
H990 C980 0.948 . S
C991 C957 1.395 . S
C991 C961 1.391 . S
C992 C954 1.389 . S
C992 C974 1.392 . S
C993 C964 1.392 . S
C993 C966 1.389 . S
C994 C969 1.395 . S
C994 C971 1.391 . S
H995 C955 0.951 . S
H996 C956 0.950 . S
H997 C962 0.949 . S
H998 C963 0.950 . S
H999 C967 0.951 . S
H1000 C968 0.950 . S
H1001 C972 0.949 . S
H1002 C973 0.950 . S
H1003 C977 0.950 . S
H1004 C979 0.950 . S
H1005 C982 0.950 . S
H1006 C984 0.950 . S
C1007 C1008 1.443 . S
C1007 N1011 1.376 . S
C1007 C1045 1.389 . S
C1008 C1007 1.443 . S
C1008 C1009 1.340 . S
C1008 H1048 0.951 . S
C1009 C1008 1.340 . S
C1009 C1010 1.439 . S
C1009 H1049 0.950 . S
C1010 C1009 1.439 . S
C1010 N1011 1.374 . S
C1010 C1044 1.395 . S
N1011 C1007 1.376 . S
N1011 C1010 1.374 . S
N1011 Co1012 2.008 . S
Co1012 N1011 2.008 . S
Co1012 N1013 1.995 . S
Co1012 N1018 2.008 . S
Co1012 N1023 1.995 . S
Co1012 N1028 2.282 . S
Co1012 N1034 2.282 . S
N1013 Co1012 1.995 . S
N1013 C1014 1.376 . S
N1013 C1017 1.383 . S
C1014 N1013 1.376 . S
C1014 C1015 1.446 . S
C1014 C1044 1.391 . S
C1015 C1014 1.446 . S
C1015 C1016 1.339 . S
C1015 H1050 0.949 . S
C1016 C1015 1.339 . S
C1016 C1017 1.439 . S
C1016 H1051 0.950 . S
C1017 N1013 1.383 . S
C1017 C1016 1.439 . S
C1017 C1046 1.392 . S
N1018 Co1012 2.008 . S
N1018 C1019 1.376 . S
N1018 C1022 1.374 . S
C1019 N1018 1.376 . S
C1019 C1020 1.443 . S
C1019 C1046 1.389 . S
C1020 C1019 1.443 . S
C1020 C1021 1.340 . S
C1020 H1052 0.951 . S
C1021 C1020 1.340 . S
C1021 C1022 1.439 . S
C1021 H1053 0.950 . S
C1022 N1018 1.374 . S
C1022 C1021 1.439 . S
C1022 C1047 1.395 . S
N1023 Co1012 1.995 . S
N1023 C1024 1.376 . S
N1023 C1027 1.383 . S
C1024 N1023 1.376 . S
C1024 C1025 1.446 . S
C1024 C1047 1.391 . S
C1025 C1024 1.446 . S
C1025 C1026 1.339 . S
C1025 H1054 0.949 . S
C1026 C1025 1.339 . S
C1026 C1027 1.439 . S
C1026 H1055 0.950 . S
C1027 N1023 1.383 . S
C1027 C1026 1.439 . S
C1027 C1045 1.392 . S
N1028 Co1012 2.282 . S
N1028 C1031 1.332 . S
N1028 C1033 1.332 . S
C1029 C1030 1.386 . S
C1029 C1032 1.388 . S
C1030 C1029 1.386 . S
C1030 C1031 1.382 . S
C1030 H1056 0.950 . S
C1031 N1028 1.332 . S
C1031 C1030 1.382 . S
C1031 H1042 0.952 . S
C1032 C1029 1.388 . S
C1032 C1033 1.382 . S
C1032 H1057 0.950 . S
C1033 N1028 1.332 . S
C1033 C1032 1.382 . S
C1033 H1043 0.948 . S
N1034 Co1012 2.282 . S
N1034 C1038 1.332 . S
N1034 C1039 1.332 . S
C1035 C1036 1.388 . S
C1035 C1039 1.382 . S
C1035 H1058 0.950 . S
C1036 C1035 1.388 . S
C1036 C1037 1.386 . S
C1037 C1036 1.386 . S
C1037 C1038 1.382 . S
C1037 H1059 0.950 . S
C1038 N1034 1.332 . S
C1038 C1037 1.382 . S
C1038 H1040 0.952 . S
C1039 N1034 1.332 . S
C1039 C1035 1.382 . S
C1039 H1041 0.948 . S
H1040 C1038 0.952 . S
H1041 C1039 0.948 . S
H1042 C1031 0.952 . S
H1043 C1033 0.948 . S
C1044 C1010 1.395 . S
C1044 C1014 1.391 . S
C1045 C1007 1.389 . S
C1045 C1027 1.392 . S
C1046 C1017 1.392 . S
C1046 C1019 1.389 . S
C1047 C1022 1.395 . S
C1047 C1024 1.391 . S
H1048 C1008 0.951 . S
H1049 C1009 0.950 . S
H1050 C1015 0.949 . S
H1051 C1016 0.950 . S
H1052 C1020 0.951 . S
H1053 C1021 0.950 . S
H1054 C1025 0.949 . S
H1055 C1026 0.950 . S
H1056 C1030 0.950 . S
H1057 C1032 0.950 . S
H1058 C1035 0.950 . S
H1059 C1037 0.950 . S
C1060 C1061 1.443 . S
C1060 N1064 1.376 . S
C1060 C1098 1.389 . S
C1061 C1060 1.443 . S
C1061 C1062 1.340 . S
C1061 H1101 0.951 . S
C1062 C1061 1.340 . S
C1062 C1063 1.439 . S
C1062 H1102 0.950 . S
C1063 C1062 1.439 . S
C1063 N1064 1.374 . S
C1063 C1097 1.395 . S
N1064 C1060 1.376 . S
N1064 C1063 1.374 . S
N1064 Co1065 2.008 . S
Co1065 N1064 2.008 . S
Co1065 N1066 1.995 . S
Co1065 N1071 2.008 . S
Co1065 N1076 1.995 . S
Co1065 N1081 2.282 . S
Co1065 N1087 2.282 . S
N1066 Co1065 1.995 . S
N1066 C1067 1.376 . S
N1066 C1070 1.383 . S
C1067 N1066 1.376 . S
C1067 C1068 1.446 . S
C1067 C1097 1.391 . S
C1068 C1067 1.446 . S
C1068 C1069 1.339 . S
C1068 H1103 0.949 . S
C1069 C1068 1.339 . S
C1069 C1070 1.439 . S
C1069 H1104 0.950 . S
C1070 N1066 1.383 . S
C1070 C1069 1.439 . S
C1070 C1099 1.392 . S
N1071 Co1065 2.008 . S
N1071 C1072 1.376 . S
N1071 C1075 1.374 . S
C1072 N1071 1.376 . S
C1072 C1073 1.443 . S
C1072 C1099 1.389 . S
C1073 C1072 1.443 . S
C1073 C1074 1.340 . S
C1073 H1105 0.951 . S
C1074 C1073 1.340 . S
C1074 C1075 1.439 . S
C1074 H1106 0.950 . S
C1075 N1071 1.374 . S
C1075 C1074 1.439 . S
C1075 C1100 1.395 . S
N1076 Co1065 1.995 . S
N1076 C1077 1.376 . S
N1076 C1080 1.383 . S
C1077 N1076 1.376 . S
C1077 C1078 1.446 . S
C1077 C1100 1.391 . S
C1078 C1077 1.446 . S
C1078 C1079 1.339 . S
C1078 H1107 0.949 . S
C1079 C1078 1.339 . S
C1079 C1080 1.439 . S
C1079 H1108 0.950 . S
C1080 N1076 1.383 . S
C1080 C1079 1.439 . S
C1080 C1098 1.392 . S
N1081 Co1065 2.282 . S
N1081 C1084 1.332 . S
N1081 C1086 1.332 . S
C1082 C1083 1.386 . S
C1082 C1085 1.388 . S
C1083 C1082 1.386 . S
C1083 C1084 1.382 . S
C1083 H1109 0.950 . S
C1084 N1081 1.332 . S
C1084 C1083 1.382 . S
C1084 H1095 0.952 . S
C1085 C1082 1.388 . S
C1085 C1086 1.382 . S
C1085 H1110 0.950 . S
C1086 N1081 1.332 . S
C1086 C1085 1.382 . S
C1086 H1096 0.948 . S
N1087 Co1065 2.282 . S
N1087 C1091 1.332 . S
N1087 C1092 1.332 . S
C1088 C1089 1.388 . S
C1088 C1092 1.382 . S
C1088 H1111 0.950 . S
C1089 C1088 1.388 . S
C1089 C1090 1.386 . S
C1090 C1089 1.386 . S
C1090 C1091 1.382 . S
C1090 H1112 0.950 . S
C1091 N1087 1.332 . S
C1091 C1090 1.382 . S
C1091 H1093 0.952 . S
C1092 N1087 1.332 . S
C1092 C1088 1.382 . S
C1092 H1094 0.948 . S
H1093 C1091 0.952 . S
H1094 C1092 0.948 . S
H1095 C1084 0.952 . S
H1096 C1086 0.948 . S
C1097 C1063 1.395 . S
C1097 C1067 1.391 . S
C1098 C1060 1.389 . S
C1098 C1080 1.392 . S
C1099 C1070 1.392 . S
C1099 C1072 1.389 . S
C1100 C1075 1.395 . S
C1100 C1077 1.391 . S
H1101 C1061 0.951 . S
H1102 C1062 0.950 . S
H1103 C1068 0.949 . S
H1104 C1069 0.950 . S
H1105 C1073 0.951 . S
H1106 C1074 0.950 . S
H1107 C1078 0.949 . S
H1108 C1079 0.950 . S
H1109 C1083 0.950 . S
H1110 C1085 0.950 . S
H1111 C1088 0.950 . S
H1112 C1090 0.950 . S
C1113 C1114 1.443 . S
C1113 N1117 1.376 . S
C1113 C1151 1.389 . S
C1114 C1113 1.443 . S
C1114 C1115 1.340 . S
C1114 H1154 0.951 . S
C1115 C1114 1.340 . S
C1115 C1116 1.439 . S
C1115 H1155 0.950 . S
C1116 C1115 1.439 . S
C1116 N1117 1.374 . S
C1116 C1150 1.395 . S
N1117 C1113 1.376 . S
N1117 C1116 1.374 . S
N1117 Co1118 2.008 . S
Co1118 N1117 2.008 . S
Co1118 N1119 1.995 . S
Co1118 N1124 2.008 . S
Co1118 N1129 1.995 . S
Co1118 N1134 2.282 . S
Co1118 N1140 2.282 . S
N1119 Co1118 1.995 . S
N1119 C1120 1.376 . S
N1119 C1123 1.383 . S
C1120 N1119 1.376 . S
C1120 C1121 1.446 . S
C1120 C1150 1.391 . S
C1121 C1120 1.446 . S
C1121 C1122 1.339 . S
C1121 H1156 0.949 . S
C1122 C1121 1.339 . S
C1122 C1123 1.439 . S
C1122 H1157 0.950 . S
C1123 N1119 1.383 . S
C1123 C1122 1.439 . S
C1123 C1152 1.392 . S
N1124 Co1118 2.008 . S
N1124 C1125 1.376 . S
N1124 C1128 1.374 . S
C1125 N1124 1.376 . S
C1125 C1126 1.443 . S
C1125 C1152 1.389 . S
C1126 C1125 1.443 . S
C1126 C1127 1.340 . S
C1126 H1158 0.951 . S
C1127 C1126 1.340 . S
C1127 C1128 1.439 . S
C1127 H1159 0.950 . S
C1128 N1124 1.374 . S
C1128 C1127 1.439 . S
C1128 C1153 1.395 . S
N1129 Co1118 1.995 . S
N1129 C1130 1.376 . S
N1129 C1133 1.383 . S
C1130 N1129 1.376 . S
C1130 C1131 1.446 . S
C1130 C1153 1.391 . S
C1131 C1130 1.446 . S
C1131 C1132 1.339 . S
C1131 H1160 0.949 . S
C1132 C1131 1.339 . S
C1132 C1133 1.439 . S
C1132 H1161 0.950 . S
C1133 N1129 1.383 . S
C1133 C1132 1.439 . S
C1133 C1151 1.392 . S
N1134 Co1118 2.282 . S
N1134 C1137 1.332 . S
N1134 C1139 1.332 . S
C1135 C1136 1.386 . S
C1135 C1138 1.388 . S
C1136 C1135 1.386 . S
C1136 C1137 1.382 . S
C1136 H1162 0.950 . S
C1137 N1134 1.332 . S
C1137 C1136 1.382 . S
C1137 H1148 0.952 . S
C1138 C1135 1.388 . S
C1138 C1139 1.382 . S
C1138 H1163 0.950 . S
C1139 N1134 1.332 . S
C1139 C1138 1.382 . S
C1139 H1149 0.948 . S
N1140 Co1118 2.282 . S
N1140 C1144 1.332 . S
N1140 C1145 1.332 . S
C1141 C1142 1.388 . S
C1141 C1145 1.382 . S
C1141 H1164 0.950 . S
C1142 C1141 1.388 . S
C1142 C1143 1.386 . S
C1143 C1142 1.386 . S
C1143 C1144 1.382 . S
C1143 H1165 0.950 . S
C1144 N1140 1.332 . S
C1144 C1143 1.382 . S
C1144 H1146 0.952 . S
C1145 N1140 1.332 . S
C1145 C1141 1.382 . S
C1145 H1147 0.948 . S
H1146 C1144 0.952 . S
H1147 C1145 0.948 . S
H1148 C1137 0.952 . S
H1149 C1139 0.948 . S
C1150 C1116 1.395 . S
C1150 C1120 1.391 . S
C1151 C1113 1.389 . S
C1151 C1133 1.392 . S
C1152 C1123 1.392 . S
C1152 C1125 1.389 . S
C1153 C1128 1.395 . S
C1153 C1130 1.391 . S
H1154 C1114 0.951 . S
H1155 C1115 0.950 . S
H1156 C1121 0.949 . S
H1157 C1122 0.950 . S
H1158 C1126 0.951 . S
H1159 C1127 0.950 . S
H1160 C1131 0.949 . S
H1161 C1132 0.950 . S
H1162 C1136 0.950 . S
H1163 C1138 0.950 . S
H1164 C1141 0.950 . S
H1165 C1143 0.950 . S
C1166 C1167 1.443 . S
C1166 N1170 1.376 . S
C1166 C1204 1.389 . S
C1167 C1166 1.443 . S
C1167 C1168 1.340 . S
C1167 H1207 0.951 . S
C1168 C1167 1.340 . S
C1168 C1169 1.439 . S
C1168 H1208 0.950 . S
C1169 C1168 1.439 . S
C1169 N1170 1.374 . S
C1169 C1203 1.395 . S
N1170 C1166 1.376 . S
N1170 C1169 1.374 . S
N1170 Co1171 2.008 . S
Co1171 N1170 2.008 . S
Co1171 N1172 1.995 . S
Co1171 N1177 2.008 . S
Co1171 N1182 1.995 . S
Co1171 N1187 2.282 . S
Co1171 N1193 2.282 . S
N1172 Co1171 1.995 . S
N1172 C1173 1.376 . S
N1172 C1176 1.383 . S
C1173 N1172 1.376 . S
C1173 C1174 1.446 . S
C1173 C1203 1.391 . S
C1174 C1173 1.446 . S
C1174 C1175 1.339 . S
C1174 H1209 0.949 . S
C1175 C1174 1.339 . S
C1175 C1176 1.439 . S
C1175 H1210 0.950 . S
C1176 N1172 1.383 . S
C1176 C1175 1.439 . S
C1176 C1205 1.392 . S
N1177 Co1171 2.008 . S
N1177 C1178 1.376 . S
N1177 C1181 1.374 . S
C1178 N1177 1.376 . S
C1178 C1179 1.443 . S
C1178 C1205 1.389 . S
C1179 C1178 1.443 . S
C1179 C1180 1.340 . S
C1179 H1211 0.951 . S
C1180 C1179 1.340 . S
C1180 C1181 1.439 . S
C1180 H1212 0.950 . S
C1181 N1177 1.374 . S
C1181 C1180 1.439 . S
C1181 C1206 1.395 . S
N1182 Co1171 1.995 . S
N1182 C1183 1.376 . S
N1182 C1186 1.383 . S
C1183 N1182 1.376 . S
C1183 C1184 1.446 . S
C1183 C1206 1.391 . S
C1184 C1183 1.446 . S
C1184 C1185 1.339 . S
C1184 H1213 0.949 . S
C1185 C1184 1.339 . S
C1185 C1186 1.439 . S
C1185 H1214 0.950 . S
C1186 N1182 1.383 . S
C1186 C1185 1.439 . S
C1186 C1204 1.392 . S
N1187 Co1171 2.282 . S
N1187 C1190 1.332 . S
N1187 C1192 1.332 . S
C1188 C1189 1.386 . S
C1188 C1191 1.388 . S
C1189 C1188 1.386 . S
C1189 C1190 1.382 . S
C1189 H1215 0.950 . S
C1190 N1187 1.332 . S
C1190 C1189 1.382 . S
C1190 H1201 0.952 . S
C1191 C1188 1.388 . S
C1191 C1192 1.382 . S
C1191 H1216 0.950 . S
C1192 N1187 1.332 . S
C1192 C1191 1.382 . S
C1192 H1202 0.948 . S
N1193 Co1171 2.282 . S
N1193 C1197 1.332 . S
N1193 C1198 1.332 . S
C1194 C1195 1.388 . S
C1194 C1198 1.382 . S
C1194 H1217 0.950 . S
C1195 C1194 1.388 . S
C1195 C1196 1.386 . S
C1196 C1195 1.386 . S
C1196 C1197 1.382 . S
C1196 H1218 0.950 . S
C1197 N1193 1.332 . S
C1197 C1196 1.382 . S
C1197 H1199 0.952 . S
C1198 N1193 1.332 . S
C1198 C1194 1.382 . S
C1198 H1200 0.948 . S
H1199 C1197 0.952 . S
H1200 C1198 0.948 . S
H1201 C1190 0.952 . S
H1202 C1192 0.948 . S
C1203 C1169 1.395 . S
C1203 C1173 1.391 . S
C1204 C1166 1.389 . S
C1204 C1186 1.392 . S
C1205 C1176 1.392 . S
C1205 C1178 1.389 . S
C1206 C1181 1.395 . S
C1206 C1183 1.391 . S
H1207 C1167 0.951 . S
H1208 C1168 0.950 . S
H1209 C1174 0.949 . S
H1210 C1175 0.950 . S
H1211 C1179 0.951 . S
H1212 C1180 0.950 . S
H1213 C1184 0.949 . S
H1214 C1185 0.950 . S
H1215 C1189 0.950 . S
H1216 C1191 0.950 . S
H1217 C1194 0.950 . S
H1218 C1196 0.950 . S
C1219 C1220 1.443 . S
C1219 N1223 1.376 . S
C1219 C1257 1.389 . S
C1220 C1219 1.443 . S
C1220 C1221 1.340 . S
C1220 H1260 0.951 . S
C1221 C1220 1.340 . S
C1221 C1222 1.439 . S
C1221 H1261 0.950 . S
C1222 C1221 1.439 . S
C1222 N1223 1.374 . S
C1222 C1256 1.395 . S
N1223 C1219 1.376 . S
N1223 C1222 1.374 . S
N1223 Co1224 2.008 . S
Co1224 N1223 2.008 . S
Co1224 N1225 1.995 . S
Co1224 N1230 2.008 . S
Co1224 N1235 1.995 . S
Co1224 N1240 2.282 . S
Co1224 N1246 2.282 . S
N1225 Co1224 1.995 . S
N1225 C1226 1.376 . S
N1225 C1229 1.383 . S
C1226 N1225 1.376 . S
C1226 C1227 1.446 . S
C1226 C1256 1.391 . S
C1227 C1226 1.446 . S
C1227 C1228 1.339 . S
C1227 H1262 0.949 . S
C1228 C1227 1.339 . S
C1228 C1229 1.439 . S
C1228 H1263 0.950 . S
C1229 N1225 1.383 . S
C1229 C1228 1.439 . S
C1229 C1258 1.392 . S
N1230 Co1224 2.008 . S
N1230 C1231 1.376 . S
N1230 C1234 1.374 . S
C1231 N1230 1.376 . S
C1231 C1232 1.443 . S
C1231 C1258 1.389 . S
C1232 C1231 1.443 . S
C1232 C1233 1.340 . S
C1232 H1264 0.951 . S
C1233 C1232 1.340 . S
C1233 C1234 1.439 . S
C1233 H1265 0.950 . S
C1234 N1230 1.374 . S
C1234 C1233 1.439 . S
C1234 C1259 1.395 . S
N1235 Co1224 1.995 . S
N1235 C1236 1.376 . S
N1235 C1239 1.383 . S
C1236 N1235 1.376 . S
C1236 C1237 1.446 . S
C1236 C1259 1.391 . S
C1237 C1236 1.446 . S
C1237 C1238 1.339 . S
C1237 H1266 0.949 . S
C1238 C1237 1.339 . S
C1238 C1239 1.439 . S
C1238 H1267 0.950 . S
C1239 N1235 1.383 . S
C1239 C1238 1.439 . S
C1239 C1257 1.392 . S
N1240 Co1224 2.282 . S
N1240 C1243 1.332 . S
N1240 C1245 1.332 . S
C1241 C1242 1.386 . S
C1241 C1244 1.388 . S
C1242 C1241 1.386 . S
C1242 C1243 1.382 . S
C1242 H1268 0.950 . S
C1243 N1240 1.332 . S
C1243 C1242 1.382 . S
C1243 H1254 0.952 . S
C1244 C1241 1.388 . S
C1244 C1245 1.382 . S
C1244 H1269 0.950 . S
C1245 N1240 1.332 . S
C1245 C1244 1.382 . S
C1245 H1255 0.948 . S
N1246 Co1224 2.282 . S
N1246 C1250 1.332 . S
N1246 C1251 1.332 . S
C1247 C1248 1.388 . S
C1247 C1251 1.382 . S
C1247 H1270 0.950 . S
C1248 C1247 1.388 . S
C1248 C1249 1.386 . S
C1249 C1248 1.386 . S
C1249 C1250 1.382 . S
C1249 H1271 0.950 . S
C1250 N1246 1.332 . S
C1250 C1249 1.382 . S
C1250 H1252 0.952 . S
C1251 N1246 1.332 . S
C1251 C1247 1.382 . S
C1251 H1253 0.948 . S
H1252 C1250 0.952 . S
H1253 C1251 0.948 . S
H1254 C1243 0.952 . S
H1255 C1245 0.948 . S
C1256 C1222 1.395 . S
C1256 C1226 1.391 . S
C1257 C1219 1.389 . S
C1257 C1239 1.392 . S
C1258 C1229 1.392 . S
C1258 C1231 1.389 . S
C1259 C1234 1.395 . S
C1259 C1236 1.391 . S
H1260 C1220 0.951 . S
H1261 C1221 0.950 . S
H1262 C1227 0.949 . S
H1263 C1228 0.950 . S
H1264 C1232 0.951 . S
H1265 C1233 0.950 . S
H1266 C1237 0.949 . S
H1267 C1238 0.950 . S
H1268 C1242 0.950 . S
H1269 C1244 0.950 . S
H1270 C1247 0.950 . S
H1271 C1249 0.950 . S
H1272 C1278 0.930 . S
H1273 C1282 0.930 . S
H1274 C1287 0.929 . S
H1275 C1285 0.929 . S
H1276 C1280 0.929 . S
H1277 C1286 0.929 . S
C1278 H1272 0.930 . S
C1278 C1279 1.367 . S
C1278 C1286 1.378 . S
C1279 C1278 1.367 . S
C1279 C1287 1.433 . S
C1280 H1276 0.929 . S
C1280 C1282 1.378 . S
C1280 C1284 1.350 . S
C1281 C1284 1.463 . S
C1281 C1286 1.350 . S
C1281 N1289 1.427 . S
C1282 H1273 0.930 . S
C1282 C1280 1.378 . S
C1282 C1283 1.367 . S
C1283 C1282 1.367 . S
C1283 C1285 1.433 . S
C1284 C1280 1.350 . S
C1284 C1281 1.463 . S
C1284 N1288 1.427 . S
C1285 H1275 0.929 . S
C1285 C1283 1.433 . S
C1285 N1288 1.384 . S
C1286 H1277 0.929 . S
C1286 C1278 1.378 . S
C1286 C1281 1.350 . S
C1287 H1274 0.929 . S
C1287 C1279 1.433 . S
C1287 N1289 1.384 . S
N1288 C1284 1.427 . S
N1288 C1285 1.384 . S
N1289 C1281 1.427 . S
N1289 C1287 1.384 . S
H1290 C1296 0.930 . S
H1291 C1300 0.930 . S
H1292 C1305 0.929 . S
H1293 C1303 0.929 . S
H1294 C1298 0.953 . S
H1295 C1304 0.929 . S
C1296 H1290 0.930 . S
C1296 C1297 1.367 . S
C1296 C1304 1.378 . S
C1297 C1296 1.367 . S
C1297 C1305 1.433 . S
C1298 H1294 0.953 . S
C1298 C1300 1.378 . S
C1298 C1302 1.350 1_455 S
C1299 C1302 1.463 . S
C1299 C1304 1.350 . S
C1299 N1307 1.427 . S
C1300 H1291 0.930 . S
C1300 C1298 1.378 . S
C1300 C1301 1.367 . S
C1301 C1300 1.367 . S
C1301 C1303 1.433 . S
C1302 C1298 1.350 1_655 S
C1302 C1299 1.463 . S
C1302 N1306 1.427 1_655 S
C1303 H1293 0.929 . S
C1303 C1301 1.433 . S
C1303 N1306 1.384 . S
C1304 H1295 0.929 . S
C1304 C1296 1.378 . S
C1304 C1299 1.350 . S
C1305 H1292 0.929 . S
C1305 C1297 1.433 . S
C1305 N1307 1.384 . S
N1306 C1302 1.427 1_455 S
N1306 C1303 1.384 . S
N1307 C1299 1.427 . S
N1307 C1305 1.384 . S
H1308 C1314 0.930 . S
H1309 C1318 0.930 . S
H1310 C1323 0.929 . S
H1311 C1321 0.929 . S
H1312 C1316 0.929 . S
H1313 C1322 0.929 . S
C1314 H1308 0.930 . S
C1314 C1315 1.367 . S
C1314 C1322 1.378 . S
C1315 C1314 1.367 . S
C1315 C1323 1.433 . S
C1316 H1312 0.929 . S
C1316 C1318 1.378 . S
C1316 C1320 1.350 . S
C1317 C1320 1.463 . S
C1317 C1322 1.350 . S
C1317 N1325 1.427 . S
C1318 H1309 0.930 . S
C1318 C1316 1.378 . S
C1318 C1319 1.367 . S
C1319 C1318 1.367 . S
C1319 C1321 1.433 . S
C1320 C1316 1.350 . S
C1320 C1317 1.463 . S
C1320 N1324 1.427 . S
C1321 H1311 0.929 . S
C1321 C1319 1.433 . S
C1321 N1324 1.384 . S
C1322 H1313 0.929 . S
C1322 C1314 1.378 . S
C1322 C1317 1.350 . S
C1323 H1310 0.929 . S
C1323 C1315 1.433 . S
C1323 N1325 1.384 . S
N1324 C1320 1.427 . S
N1324 C1321 1.384 . S
N1325 C1317 1.427 . S
N1325 C1323 1.384 . S
H1326 C1332 0.930 . S
H1327 C1336 0.930 . S
H1328 C1341 0.929 . S
H1329 C1339 0.929 . S
H1330 C1334 0.929 . S
H1331 C1340 0.929 . S
C1332 H1326 0.930 . S
C1332 C1333 1.367 . S
C1332 C1340 1.378 . S
C1333 C1332 1.367 . S
C1333 C1341 1.433 . S
C1334 H1330 0.929 . S
C1334 C1336 1.378 . S
C1334 C1338 1.350 . S
C1335 C1338 1.463 1_455 S
C1335 C1340 1.350 . S
C1335 N1343 1.427 . S
C1336 H1327 0.930 . S
C1336 C1334 1.378 . S
C1336 C1337 1.367 . S
C1337 C1336 1.367 . S
C1337 C1339 1.433 . S
C1338 C1334 1.350 . S
C1338 C1335 1.463 1_655 S
C1338 N1342 1.427 . S
C1339 H1329 0.929 . S
C1339 C1337 1.433 . S
C1339 N1342 1.384 . S
C1340 H1331 0.929 . S
C1340 C1332 1.378 . S
C1340 C1335 1.350 . S
C1341 H1328 0.929 . S
C1341 C1333 1.433 . S
C1341 N1343 1.384 . S
N1342 C1338 1.427 . S
N1342 C1339 1.384 . S
N1343 C1335 1.427 . S
N1343 C1341 1.384 . S
H1344 C1350 0.930 . S
H1345 C1354 0.930 . S
H1346 C1359 0.929 . S
H1347 C1357 0.929 . S
H1348 C1352 0.929 . S
H1349 C1358 0.929 . S
C1350 H1344 0.930 . S
C1350 C1351 1.367 . S
C1350 C1358 1.378 . S
C1351 C1350 1.367 . S
C1351 C1359 1.433 . S
C1352 H1348 0.929 . S
C1352 C1354 1.378 . S
C1352 C1356 1.350 . S
C1353 C1356 1.463 . S
C1353 C1358 1.350 . S
C1353 N1361 1.427 . S
C1354 H1345 0.930 . S
C1354 C1352 1.378 . S
C1354 C1355 1.367 . S
C1355 C1354 1.367 . S
C1355 C1357 1.433 . S
C1356 C1352 1.350 . S
C1356 C1353 1.463 . S
C1356 N1360 1.427 . S
C1357 H1347 0.929 . S
C1357 C1355 1.433 . S
C1357 N1360 1.384 . S
C1358 H1349 0.929 . S
C1358 C1350 1.378 . S
C1358 C1353 1.350 . S
C1359 H1346 0.929 . S
C1359 C1351 1.433 . S
C1359 N1361 1.384 . S
N1360 C1356 1.427 . S
N1360 C1357 1.384 . S
N1361 C1353 1.427 . S
N1361 C1359 1.384 . S
H1362 C1368 0.930 . S
H1363 C1372 0.930 . S
H1364 C1377 0.929 . S
H1365 C1375 0.929 . S
H1366 C1370 0.929 . S
H1367 C1376 0.929 . S
C1368 H1362 0.930 . S
C1368 C1369 1.367 . S
C1368 C1376 1.378 . S
C1369 C1368 1.367 . S
C1369 C1377 1.433 . S
C1370 H1366 0.929 . S
C1370 C1372 1.378 . S
C1370 C1374 1.350 . S
C1371 C1374 1.463 1_655 S
C1371 C1376 1.350 . S
C1371 N1379 1.427 . S
C1372 H1363 0.930 . S
C1372 C1370 1.378 . S
C1372 C1373 1.367 . S
C1373 C1372 1.367 . S
C1373 C1375 1.433 . S
C1374 C1370 1.350 . S
C1374 C1371 1.463 1_455 S
C1374 N1378 1.427 . S
C1375 H1365 0.929 . S
C1375 C1373 1.433 . S
C1375 N1378 1.384 . S
C1376 H1367 0.929 . S
C1376 C1368 1.378 . S
C1376 C1371 1.350 . S
C1377 H1364 0.929 . S
C1377 C1369 1.433 . S
C1377 N1379 1.384 . S
N1378 C1374 1.427 . S
N1378 C1375 1.384 . S
N1379 C1371 1.427 . S
N1379 C1377 1.384 . S
H1380 C1386 0.930 . S
H1381 C1390 0.930 . S
H1382 C1395 0.929 . S
H1383 C1393 0.929 . S
H1384 C1388 0.929 . S
H1385 C1394 0.929 . S
C1386 H1380 0.930 . S
C1386 C1387 1.367 . S
C1386 C1394 1.378 . S
C1387 C1386 1.367 . S
C1387 C1395 1.433 . S
C1388 H1384 0.929 . S
C1388 C1390 1.378 . S
C1388 C1392 1.350 . S
C1389 C1392 1.463 . S
C1389 C1394 1.350 . S
C1389 N1397 1.427 . S
C1390 H1381 0.930 . S
C1390 C1388 1.378 . S
C1390 C1391 1.367 . S
C1391 C1390 1.367 . S
C1391 C1393 1.433 . S
C1392 C1388 1.350 . S
C1392 C1389 1.463 . S
C1392 N1396 1.427 . S
C1393 H1383 0.929 . S
C1393 C1391 1.433 . S
C1393 N1396 1.384 . S
C1394 H1385 0.929 . S
C1394 C1386 1.378 . S
C1394 C1389 1.350 . S
C1395 H1382 0.929 . S
C1395 C1387 1.433 . S
C1395 N1397 1.384 . S
N1396 C1392 1.427 . S
N1396 C1393 1.384 . S
N1397 C1389 1.427 . S
N1397 C1395 1.384 . S
H1398 C1404 0.930 . S
H1399 C1408 0.930 . S
H1400 C1413 0.929 . S
H1401 C1411 0.929 . S
H1402 C1406 0.929 . S
H1403 C1412 0.929 . S
C1404 H1398 0.930 . S
C1404 C1405 1.367 . S
C1404 C1412 1.378 . S
C1405 C1404 1.367 . S
C1405 C1413 1.433 . S
C1406 H1402 0.929 . S
C1406 C1408 1.378 . S
C1406 C1410 1.350 . S
C1407 C1410 1.463 1_655 S
C1407 C1412 1.350 . S
C1407 N1415 1.427 . S
C1408 H1399 0.930 . S
C1408 C1406 1.378 . S
C1408 C1409 1.367 . S
C1409 C1408 1.367 . S
C1409 C1411 1.433 . S
C1410 C1406 1.350 . S
C1410 C1407 1.463 1_455 S
C1410 N1414 1.427 . S
C1411 H1401 0.929 . S
C1411 C1409 1.433 . S
C1411 N1414 1.384 . S
C1412 H1403 0.929 . S
C1412 C1404 1.378 . S
C1412 C1407 1.350 . S
C1413 H1400 0.929 . S
C1413 C1405 1.433 . S
C1413 N1415 1.384 . S
N1414 C1410 1.427 . S
N1414 C1411 1.384 . S
N1415 C1407 1.427 . S
N1415 C1413 1.384 . S
H1416 C1422 0.930 . S
H1417 C1426 0.930 . S
H1418 C1431 0.929 . S
H1419 C1429 0.929 . S
H1420 C1424 0.929 . S
H1421 C1430 0.929 . S
C1422 H1416 0.930 . S
C1422 C1423 1.367 . S
C1422 C1430 1.378 . S
C1423 C1422 1.367 . S
C1423 C1431 1.433 . S
C1424 H1420 0.929 . S
C1424 C1426 1.378 . S
C1424 C1428 1.350 . S
C1425 C1428 1.463 . S
C1425 C1430 1.350 . S
C1425 N1433 1.427 . S
C1426 H1417 0.930 . S
C1426 C1424 1.378 . S
C1426 C1427 1.367 . S
C1427 C1426 1.367 . S
C1427 C1429 1.433 . S
C1428 C1424 1.350 . S
C1428 C1425 1.463 . S
C1428 N1432 1.427 . S
C1429 H1419 0.929 . S
C1429 C1427 1.433 . S
C1429 N1432 1.384 . S
C1430 H1421 0.929 . S
C1430 C1422 1.378 . S
C1430 C1425 1.350 . S
C1431 H1418 0.929 . S
C1431 C1423 1.433 . S
C1431 N1433 1.384 . S
N1432 C1428 1.427 . S
N1432 C1429 1.384 . S
N1433 C1425 1.427 . S
N1433 C1431 1.384 . S
H1434 C1440 0.930 . S
H1435 C1444 0.930 . S
H1436 C1449 0.929 . S
H1437 C1447 0.929 . S
H1438 C1442 0.929 . S
H1439 C1448 0.929 . S
C1440 H1434 0.930 . S
C1440 C1441 1.367 . S
C1440 C1448 1.378 . S
C1441 C1440 1.367 . S
C1441 C1449 1.433 . S
C1442 H1438 0.929 . S
C1442 C1444 1.378 . S
C1442 C1446 1.350 . S
C1443 C1446 1.463 1_556 S
C1443 C1448 1.350 . S
C1443 N1451 1.427 . S
C1444 H1435 0.930 . S
C1444 C1442 1.378 . S
C1444 C1445 1.367 . S
C1445 C1444 1.367 . S
C1445 C1447 1.433 . S
C1446 C1442 1.350 . S
C1446 C1443 1.463 1_554 S
C1446 N1450 1.427 . S
C1447 H1437 0.929 . S
C1447 C1445 1.433 . S
C1447 N1450 1.384 . S
C1448 H1439 0.929 . S
C1448 C1440 1.378 . S
C1448 C1443 1.350 . S
C1449 H1436 0.929 . S
C1449 C1441 1.433 . S
C1449 N1451 1.384 . S
N1450 C1446 1.427 . S
N1450 C1447 1.384 . S
N1451 C1443 1.427 . S
N1451 C1449 1.384 . S
H1452 C1458 0.930 . S
H1453 C1462 0.930 . S
H1454 C1467 0.929 . S
H1455 C1465 0.929 . S
H1456 C1460 0.929 . S
H1457 C1466 0.929 . S
C1458 H1452 0.930 . S
C1458 C1459 1.367 . S
C1458 C1466 1.378 . S
C1459 C1458 1.367 . S
C1459 C1467 1.433 . S
C1460 H1456 0.929 . S
C1460 C1462 1.378 . S
C1460 C1464 1.350 . S
C1461 C1464 1.463 . S
C1461 C1466 1.350 . S
C1461 N1469 1.427 . S
C1462 H1453 0.930 . S
C1462 C1460 1.378 . S
C1462 C1463 1.367 . S
C1463 C1462 1.367 . S
C1463 C1465 1.433 . S
C1464 C1460 1.350 . S
C1464 C1461 1.463 . S
C1464 N1468 1.427 . S
C1465 H1455 0.929 . S
C1465 C1463 1.433 . S
C1465 N1468 1.384 . S
C1466 H1457 0.929 . S
C1466 C1458 1.378 . S
C1466 C1461 1.350 . S
C1467 H1454 0.929 . S
C1467 C1459 1.433 . S
C1467 N1469 1.384 . S
N1468 C1464 1.427 . S
N1468 C1465 1.384 . S
N1469 C1461 1.427 . S
N1469 C1467 1.384 . S
H1470 C1476 0.930 . S
H1471 C1480 0.930 . S
H1472 C1485 0.929 . S
H1473 C1483 0.929 . S
H1474 C1478 0.929 . S
H1475 C1484 0.929 . S
C1476 H1470 0.930 . S
C1476 C1477 1.367 . S
C1476 C1484 1.378 . S
C1477 C1476 1.367 . S
C1477 C1485 1.433 . S
C1478 H1474 0.929 . S
C1478 C1480 1.378 . S
C1478 C1482 1.350 . S
C1479 C1482 1.463 1_554 S
C1479 C1484 1.350 . S
C1479 N1487 1.427 . S
C1480 H1471 0.930 . S
C1480 C1478 1.378 . S
C1480 C1481 1.367 . S
C1481 C1480 1.367 . S
C1481 C1483 1.433 . S
C1482 C1478 1.350 . S
C1482 C1479 1.463 1_556 S
C1482 N1486 1.427 . S
C1483 H1473 0.929 . S
C1483 C1481 1.433 . S
C1483 N1486 1.384 . S
C1484 H1475 0.929 . S
C1484 C1476 1.378 . S
C1484 C1479 1.350 . S
C1485 H1472 0.929 . S
C1485 C1477 1.433 . S
C1485 N1487 1.384 . S
N1486 C1482 1.427 . S
N1486 C1483 1.384 . S
N1487 C1479 1.427 . S
N1487 C1485 1.384 . S
H1488 C1494 0.930 . S
H1489 C1498 0.930 . S
H1490 C1503 0.929 . S
H1491 C1501 0.929 . S
H1492 C1496 0.929 . S
H1493 C1502 0.929 . S
C1494 H1488 0.930 . S
C1494 C1495 1.367 . S
C1494 C1502 1.378 . S
C1495 C1494 1.367 . S
C1495 C1503 1.433 . S
C1496 H1492 0.929 . S
C1496 C1498 1.378 . S
C1496 C1500 1.350 . S
C1497 C1500 1.463 . S
C1497 C1502 1.350 . S
C1497 N1505 1.427 . S
C1498 H1489 0.930 . S
C1498 C1496 1.378 . S
C1498 C1499 1.367 . S
C1499 C1498 1.367 . S
C1499 C1501 1.433 . S
C1500 C1496 1.350 . S
C1500 C1497 1.463 . S
C1500 N1504 1.427 . S
C1501 H1491 0.929 . S
C1501 C1499 1.433 . S
C1501 N1504 1.384 . S
C1502 H1493 0.929 . S
C1502 C1494 1.378 . S
C1502 C1497 1.350 . S
C1503 H1490 0.929 . S
C1503 C1495 1.433 . S
C1503 N1505 1.384 . S
N1504 C1500 1.427 . S
N1504 C1501 1.384 . S
N1505 C1497 1.427 . S
N1505 C1503 1.384 . S
H1506 C1512 0.930 . S
H1507 C1516 0.930 . S
H1508 C1521 0.929 . S
H1509 C1519 0.929 . S
H1510 C1514 0.929 . S
H1511 C1520 0.929 . S
C1512 H1506 0.930 . S
C1512 C1513 1.367 . S
C1512 C1520 1.378 . S
C1513 C1512 1.367 . S
C1513 C1521 1.433 . S
C1514 H1510 0.929 . S
C1514 C1516 1.378 . S
C1514 C1518 1.350 . S
C1515 C1518 1.463 1_554 S
C1515 C1520 1.350 . S
C1515 N1523 1.427 . S
C1516 H1507 0.930 . S
C1516 C1514 1.378 . S
C1516 C1517 1.367 . S
C1517 C1516 1.367 . S
C1517 C1519 1.433 . S
C1518 C1514 1.350 . S
C1518 C1515 1.463 1_556 S
C1518 N1522 1.427 . S
C1519 H1509 0.929 . S
C1519 C1517 1.433 . S
C1519 N1522 1.384 . S
C1520 H1511 0.929 . S
C1520 C1512 1.378 . S
C1520 C1515 1.350 . S
C1521 H1508 0.929 . S
C1521 C1513 1.433 . S
C1521 N1523 1.384 . S
N1522 C1518 1.427 . S
N1522 C1519 1.384 . S
N1523 C1515 1.427 . S
N1523 C1521 1.384 . S
H1524 C1530 0.930 . S
H1525 C1534 0.930 . S
H1526 C1539 0.929 . S
H1527 C1537 0.929 . S
H1528 C1532 0.929 . S
H1529 C1538 0.929 . S
C1530 H1524 0.930 . S
C1530 C1531 1.367 . S
C1530 C1538 1.378 . S
C1531 C1530 1.367 . S
C1531 C1539 1.433 . S
C1532 H1528 0.929 . S
C1532 C1534 1.378 . S
C1532 C1536 1.350 . S
C1533 C1536 1.463 . S
C1533 C1538 1.350 . S
C1533 N1541 1.427 . S
C1534 H1525 0.930 . S
C1534 C1532 1.378 . S
C1534 C1535 1.367 . S
C1535 C1534 1.367 . S
C1535 C1537 1.433 . S
C1536 C1532 1.350 . S
C1536 C1533 1.463 . S
C1536 N1540 1.427 . S
C1537 H1527 0.929 . S
C1537 C1535 1.433 . S
C1537 N1540 1.384 . S
C1538 H1529 0.929 . S
C1538 C1530 1.378 . S
C1538 C1533 1.350 . S
C1539 H1526 0.929 . S
C1539 C1531 1.433 . S
C1539 N1541 1.384 . S
N1540 C1536 1.427 . S
N1540 C1537 1.384 . S
N1541 C1533 1.427 . S
N1541 C1539 1.384 . S
H1542 C1548 0.930 . S
H1543 C1552 0.930 . S
H1544 C1557 0.929 . S
H1545 C1555 0.929 . S
H1546 C1550 0.929 . S
H1547 C1556 0.929 . S
C1548 H1542 0.930 . S
C1548 C1549 1.367 . S
C1548 C1556 1.378 . S
C1549 C1548 1.367 . S
C1549 C1557 1.433 . S
C1550 H1546 0.929 . S
C1550 C1552 1.378 . S
C1550 C1554 1.350 1_556 S
C1551 C1554 1.463 . S
C1551 C1556 1.350 . S
C1551 N1559 1.427 . S
C1552 H1543 0.930 . S
C1552 C1550 1.378 . S
C1552 C1553 1.367 . S
C1553 C1552 1.367 . S
C1553 C1555 1.433 . S
C1554 C1550 1.350 1_554 S
C1554 C1551 1.463 . S
C1554 N1558 1.427 1_554 S
C1555 H1545 0.929 . S
C1555 C1553 1.433 . S
C1555 N1558 1.384 . S
C1556 H1547 0.929 . S
C1556 C1548 1.378 . S
C1556 C1551 1.350 . S
C1557 H1544 0.929 . S
C1557 C1549 1.433 . S
C1557 N1559 1.384 . S
N1558 C1554 1.427 1_556 S
N1558 C1555 1.384 . S
N1559 C1551 1.427 . S
N1559 C1557 1.384 . S
H1560 C1566 0.930 . S
H1561 C1570 0.930 . S
H1562 C1575 0.929 . S
H1563 C1573 0.929 . S
H1564 C1568 0.929 . S
H1565 C1574 0.929 . S
C1566 H1560 0.930 . S
C1566 C1567 1.367 . S
C1566 C1574 1.378 . S
C1567 C1566 1.367 . S
C1567 C1575 1.433 . S
C1568 H1564 0.929 . S
C1568 C1570 1.378 . S
C1568 C1572 1.350 . S
C1569 C1572 1.463 . S
C1569 C1574 1.350 . S
C1569 N1577 1.427 . S
C1570 H1561 0.930 . S
C1570 C1568 1.378 . S
C1570 C1571 1.367 . S
C1571 C1570 1.367 . S
C1571 C1573 1.433 . S
C1572 C1568 1.350 . S
C1572 C1569 1.463 . S
C1572 N1576 1.427 . S
C1573 H1563 0.929 . S
C1573 C1571 1.433 . S
C1573 N1576 1.384 . S
C1574 H1565 0.929 . S
C1574 C1566 1.378 . S
C1574 C1569 1.350 . S
C1575 H1562 0.929 . S
C1575 C1567 1.433 . S
C1575 N1577 1.384 . S
N1576 C1572 1.427 . S
N1576 C1573 1.384 . S
N1577 C1569 1.427 . S
N1577 C1575 1.384 . S
H1578 C1584 0.930 . S
H1579 C1588 0.930 . S
H1580 C1593 0.929 . S
H1581 C1591 0.929 . S
H1582 C1586 0.929 . S
H1583 C1592 0.929 . S
C1584 H1578 0.930 . S
C1584 C1585 1.367 . S
C1584 C1592 1.378 . S
C1585 C1584 1.367 . S
C1585 C1593 1.433 . S
C1586 H1582 0.929 . S
C1586 C1588 1.378 . S
C1586 C1590 1.350 . S
C1587 C1590 1.463 . S
C1587 C1592 1.350 . S
C1587 N1595 1.427 . S
C1588 H1579 0.930 . S
C1588 C1586 1.378 . S
C1588 C1589 1.367 . S
C1589 C1588 1.367 . S
C1589 C1591 1.433 . S
C1590 C1586 1.350 . S
C1590 C1587 1.463 . S
C1590 N1594 1.427 . S
C1591 H1581 0.929 . S
C1591 C1589 1.433 . S
C1591 N1594 1.384 . S
C1592 H1583 0.929 . S
C1592 C1584 1.378 . S
C1592 C1587 1.350 . S
C1593 H1580 0.929 . S
C1593 C1585 1.433 . S
C1593 N1595 1.384 . S
N1594 C1590 1.427 . S
N1594 C1591 1.384 . S
N1595 C1587 1.427 . S
N1595 C1593 1.384 . S
H1596 C1602 0.930 . S
H1597 C1606 0.930 . S
H1598 C1611 0.929 . S
H1599 C1609 0.929 . S
H1600 C1604 0.929 . S
H1601 C1610 0.929 . S
C1602 H1596 0.930 . S
C1602 C1603 1.367 . S
C1602 C1610 1.378 . S
C1603 C1602 1.367 . S
C1603 C1611 1.433 . S
C1604 H1600 0.929 . S
C1604 C1606 1.378 . S
C1604 C1608 1.350 . S
C1605 C1608 1.463 1_565 S
C1605 C1610 1.350 . S
C1605 N1613 1.427 . S
C1606 H1597 0.930 . S
C1606 C1604 1.378 . S
C1606 C1607 1.367 . S
C1607 C1606 1.367 . S
C1607 C1609 1.433 . S
C1608 C1604 1.350 . S
C1608 C1605 1.463 1_545 S
C1608 N1612 1.427 . S
C1609 H1599 0.929 . S
C1609 C1607 1.433 . S
C1609 N1612 1.384 . S
C1610 H1601 0.929 . S
C1610 C1602 1.378 . S
C1610 C1605 1.350 . S
C1611 H1598 0.929 . S
C1611 C1603 1.433 . S
C1611 N1613 1.384 . S
N1612 C1608 1.427 . S
N1612 C1609 1.384 . S
N1613 C1605 1.427 . S
N1613 C1611 1.384 . S
H1614 C1620 0.930 . S
H1615 C1624 0.930 . S
H1616 C1629 0.929 . S
H1617 C1627 0.929 . S
H1618 C1622 0.929 . S
H1619 C1628 0.929 . S
C1620 H1614 0.930 . S
C1620 C1621 1.367 . S
C1620 C1628 1.378 . S
C1621 C1620 1.367 . S
C1621 C1629 1.433 . S
C1622 H1618 0.929 . S
C1622 C1624 1.378 . S
C1622 C1626 1.350 . S
C1623 C1626 1.463 . S
C1623 C1628 1.350 . S
C1623 N1631 1.427 . S
C1624 H1615 0.930 . S
C1624 C1622 1.378 . S
C1624 C1625 1.367 . S
C1625 C1624 1.367 . S
C1625 C1627 1.433 . S
C1626 C1622 1.350 . S
C1626 C1623 1.463 . S
C1626 N1630 1.427 . S
C1627 H1617 0.929 . S
C1627 C1625 1.433 . S
C1627 N1630 1.384 . S
C1628 H1619 0.929 . S
C1628 C1620 1.378 . S
C1628 C1623 1.350 . S
C1629 H1616 0.929 . S
C1629 C1621 1.433 . S
C1629 N1631 1.384 . S
N1630 C1626 1.427 . S
N1630 C1627 1.384 . S
N1631 C1623 1.427 . S
N1631 C1629 1.384 . S
H1632 C1638 0.930 . S
H1633 C1642 0.930 . S
H1634 C1647 0.929 . S
H1635 C1645 0.929 . S
H1636 C1640 0.929 . S
H1637 C1646 0.929 . S
C1638 H1632 0.930 . S
C1638 C1639 1.367 . S
C1638 C1646 1.378 . S
C1639 C1638 1.367 . S
C1639 C1647 1.433 . S
C1640 H1636 0.929 . S
C1640 C1642 1.378 . S
C1640 C1644 1.350 . S
C1641 C1644 1.463 1_565 S
C1641 C1646 1.350 . S
C1641 N1649 1.427 . S
C1642 H1633 0.930 . S
C1642 C1640 1.378 . S
C1642 C1643 1.367 . S
C1643 C1642 1.367 . S
C1643 C1645 1.433 . S
C1644 C1640 1.350 . S
C1644 C1641 1.463 1_545 S
C1644 N1648 1.427 . S
C1645 H1635 0.929 . S
C1645 C1643 1.433 . S
C1645 N1648 1.384 . S
C1646 H1637 0.929 . S
C1646 C1638 1.378 . S
C1646 C1641 1.350 . S
C1647 H1634 0.929 . S
C1647 C1639 1.433 . S
C1647 N1649 1.384 . S
N1648 C1644 1.427 . S
N1648 C1645 1.384 . S
N1649 C1641 1.427 . S
N1649 C1647 1.384 . S
H1650 C1656 0.930 . S
H1651 C1660 0.930 . S
H1652 C1665 0.929 . S
H1653 C1663 0.929 . S
H1654 C1658 0.929 . S
H1655 C1664 0.929 . S
C1656 H1650 0.930 . S
C1656 C1657 1.367 . S
C1656 C1664 1.378 . S
C1657 C1656 1.367 . S
C1657 C1665 1.433 . S
C1658 H1654 0.929 . S
C1658 C1660 1.378 . S
C1658 C1662 1.350 . S
C1659 C1662 1.463 . S
C1659 C1664 1.350 . S
C1659 N1667 1.427 . S
C1660 H1651 0.930 . S
C1660 C1658 1.378 . S
C1660 C1661 1.367 . S
C1661 C1660 1.367 . S
C1661 C1663 1.433 . S
C1662 C1658 1.350 . S
C1662 C1659 1.463 . S
C1662 N1666 1.427 . S
C1663 H1653 0.929 . S
C1663 C1661 1.433 . S
C1663 N1666 1.384 . S
C1664 H1655 0.929 . S
C1664 C1656 1.378 . S
C1664 C1659 1.350 . S
C1665 H1652 0.929 . S
C1665 C1657 1.433 . S
C1665 N1667 1.384 . S
N1666 C1662 1.427 . S
N1666 C1663 1.384 . S
N1667 C1659 1.427 . S
N1667 C1665 1.384 . S
H1668 C1674 0.930 . S
H1669 C1678 0.930 . S
H1670 C1683 0.929 . S
H1671 C1681 0.929 . S
H1672 C1676 0.929 . S
H1673 C1682 0.929 . S
C1674 H1668 0.930 . S
C1674 C1675 1.367 . S
C1674 C1682 1.378 . S
C1675 C1674 1.367 . S
C1675 C1683 1.433 . S
C1676 H1672 0.929 . S
C1676 C1678 1.378 . S
C1676 C1680 1.350 . S
C1677 C1680 1.463 1_565 S
C1677 C1682 1.350 . S
C1677 N1685 1.427 . S
C1678 H1669 0.930 . S
C1678 C1676 1.378 . S
C1678 C1679 1.367 . S
C1679 C1678 1.367 . S
C1679 C1681 1.433 . S
C1680 C1676 1.350 . S
C1680 C1677 1.463 1_545 S
C1680 N1684 1.427 . S
C1681 H1671 0.929 . S
C1681 C1679 1.433 . S
C1681 N1684 1.384 . S
C1682 H1673 0.929 . S
C1682 C1674 1.378 . S
C1682 C1677 1.350 . S
C1683 H1670 0.929 . S
C1683 C1675 1.433 . S
C1683 N1685 1.384 . S
N1684 C1680 1.427 . S
N1684 C1681 1.384 . S
N1685 C1677 1.427 . S
N1685 C1683 1.384 . S
H1686 C1692 0.930 . S
H1687 C1696 0.930 . S
H1688 C1701 0.929 . S
H1689 C1699 0.929 . S
H1690 C1694 0.929 . S
H1691 C1700 0.929 . S
C1692 H1686 0.930 . S
C1692 C1693 1.367 . S
C1692 C1700 1.378 . S
C1693 C1692 1.367 . S
C1693 C1701 1.433 . S
C1694 H1690 0.929 . S
C1694 C1696 1.378 . S
C1694 C1698 1.350 . S
C1695 C1698 1.463 1_545 S
C1695 C1700 1.350 . S
C1695 N1703 1.427 . S
C1696 H1687 0.930 . S
C1696 C1694 1.378 . S
C1696 C1697 1.367 . S
C1697 C1696 1.367 . S
C1697 C1699 1.433 . S
C1698 C1694 1.350 . S
C1698 C1695 1.463 1_565 S
C1698 N1702 1.427 . S
C1699 H1689 0.929 . S
C1699 C1697 1.433 . S
C1699 N1702 1.384 . S
C1700 H1691 0.929 . S
C1700 C1692 1.378 . S
C1700 C1695 1.350 . S
C1701 H1688 0.929 . S
C1701 C1693 1.433 . S
C1701 N1703 1.384 . S
N1702 C1698 1.427 . S
N1702 C1699 1.384 . S
N1703 C1695 1.427 . S
N1703 C1701 1.384 . S
H1704 C1710 0.930 . S
H1705 C1714 0.930 . S
H1706 C1719 0.929 . S
H1707 C1717 0.929 . S
H1708 C1712 0.929 . S
H1709 C1718 0.929 . S
C1710 H1704 0.930 . S
C1710 C1711 1.367 . S
C1710 C1718 1.378 . S
C1711 C1710 1.367 . S
C1711 C1719 1.433 . S
C1712 H1708 0.929 . S
C1712 C1714 1.378 . S
C1712 C1716 1.350 . S
C1713 C1716 1.463 . S
C1713 C1718 1.350 . S
C1713 N1721 1.427 . S
C1714 H1705 0.930 . S
C1714 C1712 1.378 . S
C1714 C1715 1.367 . S
C1715 C1714 1.367 . S
C1715 C1717 1.433 . S
C1716 C1712 1.350 . S
C1716 C1713 1.463 . S
C1716 N1720 1.427 . S
C1717 H1707 0.929 . S
C1717 C1715 1.433 . S
C1717 N1720 1.384 . S
C1718 H1709 0.929 . S
C1718 C1710 1.378 . S
C1718 C1713 1.350 . S
C1719 H1706 0.929 . S
C1719 C1711 1.433 . S
C1719 N1721 1.384 . S
N1720 C1716 1.427 . S
N1720 C1717 1.384 . S
N1721 C1713 1.427 . S
N1721 C1719 1.384 . S
H1722 C1728 0.930 . S
H1723 C1732 0.930 . S
H1724 C1737 0.929 . S
H1725 C1735 0.929 . S
H1726 C1730 0.929 . S
H1727 C1736 0.929 . S
C1728 H1722 0.930 . S
C1728 C1729 1.367 . S
C1728 C1736 1.378 . S
C1729 C1728 1.367 . S
C1729 C1737 1.433 . S
C1730 H1726 0.929 . S
C1730 C1732 1.378 . S
C1730 C1734 1.350 . S
C1731 C1734 1.463 . S
C1731 C1736 1.350 . S
C1731 N1739 1.427 . S
C1732 H1723 0.930 . S
C1732 C1730 1.378 . S
C1732 C1733 1.367 . S
C1733 C1732 1.367 . S
C1733 C1735 1.433 . S
C1734 C1730 1.350 . S
C1734 C1731 1.463 . S
C1734 N1738 1.427 . S
C1735 H1725 0.929 . S
C1735 C1733 1.433 . S
C1735 N1738 1.384 . S
C1736 H1727 0.929 . S
C1736 C1728 1.378 . S
C1736 C1731 1.350 . S
C1737 H1724 0.929 . S
C1737 C1729 1.433 . S
C1737 N1739 1.384 . S
N1738 C1734 1.427 . S
N1738 C1735 1.384 . S
N1739 C1731 1.427 . S
N1739 C1737 1.384 . S
H1740 C1746 0.930 . S
H1741 C1750 0.930 . S
H1742 C1755 0.929 . S
H1743 C1753 0.929 . S
H1744 C1748 0.929 . S
H1745 C1754 0.929 . S
C1746 H1740 0.930 . S
C1746 C1747 1.367 . S
C1746 C1754 1.378 . S
C1747 C1746 1.367 . S
C1747 C1755 1.433 . S
C1748 H1744 0.929 . S
C1748 C1750 1.378 . S
C1748 C1752 1.350 . S
C1749 C1752 1.463 . S
C1749 C1754 1.350 . S
C1749 N1757 1.427 . S
C1750 H1741 0.930 . S
C1750 C1748 1.378 . S
C1750 C1751 1.367 . S
C1751 C1750 1.367 . S
C1751 C1753 1.433 . S
C1752 C1748 1.350 . S
C1752 C1749 1.463 . S
C1752 N1756 1.427 . S
C1753 H1743 0.929 . S
C1753 C1751 1.433 . S
C1753 N1756 1.384 . S
C1754 H1745 0.929 . S
C1754 C1746 1.378 . S
C1754 C1749 1.350 . S
C1755 H1742 0.929 . S
C1755 C1747 1.433 . S
C1755 N1757 1.384 . S
N1756 C1752 1.427 . S
N1756 C1753 1.384 . S
N1757 C1749 1.427 . S
N1757 C1755 1.384 . S
H1758 C1764 0.930 . S
H1759 C1768 0.930 . S
H1760 C1773 0.929 . S
H1761 C1771 0.929 . S
H1762 C1766 0.929 . S
H1763 C1772 0.929 . S
C1764 H1758 0.930 . S
C1764 C1765 1.367 . S
C1764 C1772 1.378 . S
C1765 C1764 1.367 . S
C1765 C1773 1.433 . S
C1766 H1762 0.929 . S
C1766 C1768 1.378 . S
C1766 C1770 1.350 . S
C1767 C1770 1.463 . S
C1767 C1772 1.350 . S
C1767 N1775 1.427 . S
C1768 H1759 0.930 . S
C1768 C1766 1.378 . S
C1768 C1769 1.367 . S
C1769 C1768 1.367 . S
C1769 C1771 1.433 . S
C1770 C1766 1.350 . S
C1770 C1767 1.463 . S
C1770 N1774 1.427 . S
C1771 H1761 0.929 . S
C1771 C1769 1.433 . S
C1771 N1774 1.384 . S
C1772 H1763 0.929 . S
C1772 C1764 1.378 . S
C1772 C1767 1.350 . S
C1773 H1760 0.929 . S
C1773 C1765 1.433 . S
C1773 N1775 1.384 . S
N1774 C1770 1.427 . S
N1774 C1771 1.384 . S
N1775 C1767 1.427 . S
N1775 C1773 1.384 . S
H1776 C1782 0.930 . S
H1777 C1786 0.930 . S
H1778 C1791 0.929 . S
H1779 C1789 0.929 . S
H1780 C1784 0.929 . S
H1781 C1790 0.929 . S
C1782 H1776 0.930 . S
C1782 C1783 1.367 . S
C1782 C1790 1.378 . S
C1783 C1782 1.367 . S
C1783 C1791 1.433 . S
C1784 H1780 0.929 . S
C1784 C1786 1.378 . S
C1784 C1788 1.350 . S
C1785 C1788 1.463 . S
C1785 C1790 1.350 . S
C1785 N1793 1.427 . S
C1786 H1777 0.930 . S
C1786 C1784 1.378 . S
C1786 C1787 1.367 . S
C1787 C1786 1.367 . S
C1787 C1789 1.433 . S
C1788 C1784 1.350 . S
C1788 C1785 1.463 . S
C1788 N1792 1.427 . S
C1789 H1779 0.929 . S
C1789 C1787 1.433 . S
C1789 N1792 1.384 . S
C1790 H1781 0.929 . S
C1790 C1782 1.378 . S
C1790 C1785 1.350 . S
C1791 H1778 0.929 . S
C1791 C1783 1.433 . S
C1791 N1793 1.384 . S
N1792 C1788 1.427 . S
N1792 C1789 1.384 . S
N1793 C1785 1.427 . S
N1793 C1791 1.384 . S
H1794 C1800 0.930 . S
H1795 C1804 0.930 . S
H1796 C1809 0.929 . S
H1797 C1807 0.929 . S
H1798 C1802 0.929 . S
H1799 C1808 0.929 . S
C1800 H1794 0.930 . S
C1800 C1801 1.367 . S
C1800 C1808 1.378 . S
C1801 C1800 1.367 . S
C1801 C1809 1.433 . S
C1802 H1798 0.929 . S
C1802 C1804 1.378 . S
C1802 C1806 1.350 . S
C1803 C1806 1.463 . S
C1803 C1808 1.350 . S
C1803 N1811 1.427 . S
C1804 H1795 0.930 . S
C1804 C1802 1.378 . S
C1804 C1805 1.367 . S
C1805 C1804 1.367 . S
C1805 C1807 1.433 . S
C1806 C1802 1.350 . S
C1806 C1803 1.463 . S
C1806 N1810 1.427 . S
C1807 H1797 0.929 . S
C1807 C1805 1.433 . S
C1807 N1810 1.384 . S
C1808 H1799 0.929 . S
C1808 C1800 1.378 . S
C1808 C1803 1.350 . S
C1809 H1796 0.929 . S
C1809 C1801 1.433 . S
C1809 N1811 1.384 . S
N1810 C1806 1.427 . S
N1810 C1807 1.384 . S
N1811 C1803 1.427 . S
N1811 C1809 1.384 . S
H1812 C1818 0.930 . S
H1813 C1822 0.930 . S
H1814 C1827 0.929 . S
H1815 C1825 0.929 . S
H1816 C1820 0.929 . S
H1817 C1826 0.929 . S
C1818 H1812 0.930 . S
C1818 C1819 1.367 . S
C1818 C1826 1.378 . S
C1819 C1818 1.367 . S
C1819 C1827 1.433 . S
C1820 H1816 0.929 . S
C1820 C1822 1.378 . S
C1820 C1824 1.350 . S
C1821 C1824 1.463 . S
C1821 C1826 1.350 . S
C1821 N1829 1.427 . S
C1822 H1813 0.930 . S
C1822 C1820 1.378 . S
C1822 C1823 1.367 . S
C1823 C1822 1.367 . S
C1823 C1825 1.433 . S
C1824 C1820 1.350 . S
C1824 C1821 1.463 . S
C1824 N1828 1.427 . S
C1825 H1815 0.929 . S
C1825 C1823 1.433 . S
C1825 N1828 1.384 . S
C1826 H1817 0.929 . S
C1826 C1818 1.378 . S
C1826 C1821 1.350 . S
C1827 H1814 0.929 . S
C1827 C1819 1.433 . S
C1827 N1829 1.384 . S
N1828 C1824 1.427 . S
N1828 C1825 1.384 . S
N1829 C1821 1.427 . S
N1829 C1827 1.384 . S
H1830 C1836 0.930 . S
H1831 C1840 0.930 . S
H1832 C1845 0.929 . S
H1833 C1843 0.929 . S
H1834 C1838 0.929 . S
H1835 C1844 0.929 . S
C1836 H1830 0.930 . S
C1836 C1837 1.367 . S
C1836 C1844 1.378 . S
C1837 C1836 1.367 . S
C1837 C1845 1.433 . S
C1838 H1834 0.929 . S
C1838 C1840 1.378 . S
C1838 C1842 1.350 . S
C1839 C1842 1.463 . S
C1839 C1844 1.350 . S
C1839 N1847 1.427 . S
C1840 H1831 0.930 . S
C1840 C1838 1.378 . S
C1840 C1841 1.367 . S
C1841 C1840 1.367 . S
C1841 C1843 1.433 . S
C1842 C1838 1.350 . S
C1842 C1839 1.463 . S
C1842 N1846 1.427 . S
C1843 H1833 0.929 . S
C1843 C1841 1.433 . S
C1843 N1846 1.384 . S
C1844 H1835 0.929 . S
C1844 C1836 1.378 . S
C1844 C1839 1.350 . S
C1845 H1832 0.929 . S
C1845 C1837 1.433 . S
C1845 N1847 1.384 . S
N1846 C1842 1.427 . S
N1846 C1843 1.384 . S
N1847 C1839 1.427 . S
N1847 C1845 1.384 . S
H1848 C1854 0.930 . S
H1849 C1858 0.930 . S
H1850 C1863 0.929 . S
H1851 C1861 0.929 . S
H1852 C1856 0.929 . S
H1853 C1862 0.929 . S
C1854 H1848 0.930 . S
C1854 C1855 1.367 . S
C1854 C1862 1.378 . S
C1855 C1854 1.367 . S
C1855 C1863 1.433 . S
C1856 H1852 0.929 . S
C1856 C1858 1.378 . S
C1856 C1860 1.350 . S
C1857 C1860 1.463 . S
C1857 C1862 1.350 . S
C1857 N1865 1.427 . S
C1858 H1849 0.930 . S
C1858 C1856 1.378 . S
C1858 C1859 1.367 . S
C1859 C1858 1.367 . S
C1859 C1861 1.433 . S
C1860 C1856 1.350 . S
C1860 C1857 1.463 . S
C1860 N1864 1.427 . S
C1861 H1851 0.929 . S
C1861 C1859 1.433 . S
C1861 N1864 1.384 . S
C1862 H1853 0.929 . S
C1862 C1854 1.378 . S
C1862 C1857 1.350 . S
C1863 H1850 0.929 . S
C1863 C1855 1.433 . S
C1863 N1865 1.384 . S
N1864 C1860 1.427 . S
N1864 C1861 1.384 . S
N1865 C1857 1.427 . S
N1865 C1863 1.384 . S
H1866 C1872 0.930 . S
H1867 C1876 0.930 . S
H1868 C1881 0.929 . S
H1869 C1879 0.929 . S
H1870 C1874 0.929 . S
H1871 C1880 0.929 . S
C1872 H1866 0.930 . S
C1872 C1873 1.367 . S
C1872 C1880 1.378 . S
C1873 C1872 1.367 . S
C1873 C1881 1.433 . S
C1874 H1870 0.929 . S
C1874 C1876 1.378 . S
C1874 C1878 1.350 . S
C1875 C1878 1.463 . S
C1875 C1880 1.350 . S
C1875 N1883 1.427 . S
C1876 H1867 0.930 . S
C1876 C1874 1.378 . S
C1876 C1877 1.367 . S
C1877 C1876 1.367 . S
C1877 C1879 1.433 . S
C1878 C1874 1.350 . S
C1878 C1875 1.463 . S
C1878 N1882 1.427 . S
C1879 H1869 0.929 . S
C1879 C1877 1.433 . S
C1879 N1882 1.384 . S
C1880 H1871 0.929 . S
C1880 C1872 1.378 . S
C1880 C1875 1.350 . S
C1881 H1868 0.929 . S
C1881 C1873 1.433 . S
C1881 N1883 1.384 . S
N1882 C1878 1.427 . S
N1882 C1879 1.384 . S
N1883 C1875 1.427 . S
N1883 C1881 1.384 . S
H1884 C1890 0.930 . S
H1885 C1894 0.930 . S
H1886 C1899 0.929 . S
H1887 C1897 0.929 . S
H1888 C1892 0.929 . S
H1889 C1898 0.929 . S
C1890 H1884 0.930 . S
C1890 C1891 1.367 . S
C1890 C1898 1.378 . S
C1891 C1890 1.367 . S
C1891 C1899 1.433 . S
C1892 H1888 0.929 . S
C1892 C1894 1.378 . S
C1892 C1896 1.350 . S
C1893 C1896 1.463 . S
C1893 C1898 1.350 . S
C1893 N1901 1.427 . S
C1894 H1885 0.930 . S
C1894 C1892 1.378 . S
C1894 C1895 1.367 . S
C1895 C1894 1.367 . S
C1895 C1897 1.433 . S
C1896 C1892 1.350 . S
C1896 C1893 1.463 . S
C1896 N1900 1.427 . S
C1897 H1887 0.929 . S
C1897 C1895 1.433 . S
C1897 N1900 1.384 . S
C1898 H1889 0.929 . S
C1898 C1890 1.378 . S
C1898 C1893 1.350 . S
C1899 H1886 0.929 . S
C1899 C1891 1.433 . S
C1899 N1901 1.384 . S
N1900 C1896 1.427 . S
N1900 C1897 1.384 . S
N1901 C1893 1.427 . S
N1901 C1899 1.384 . S
H1902 C1908 0.930 . S
H1903 C1912 0.930 . S
H1904 C1917 0.929 . S
H1905 C1915 0.929 . S
H1906 C1910 0.929 . S
H1907 C1916 0.929 . S
C1908 H1902 0.930 . S
C1908 C1909 1.367 . S
C1908 C1916 1.378 . S
C1909 C1908 1.367 . S
C1909 C1917 1.433 . S
C1910 H1906 0.929 . S
C1910 C1912 1.378 . S
C1910 C1914 1.350 . S
C1911 C1914 1.463 . S
C1911 C1916 1.350 . S
C1911 N1919 1.427 . S
C1912 H1903 0.930 . S
C1912 C1910 1.378 . S
C1912 C1913 1.367 . S
C1913 C1912 1.367 . S
C1913 C1915 1.433 . S
C1914 C1910 1.350 . S
C1914 C1911 1.463 . S
C1914 N1918 1.427 . S
C1915 H1905 0.929 . S
C1915 C1913 1.433 . S
C1915 N1918 1.384 . S
C1916 H1907 0.929 . S
C1916 C1908 1.378 . S
C1916 C1911 1.350 . S
C1917 H1904 0.929 . S
C1917 C1909 1.433 . S
C1917 N1919 1.384 . S
N1918 C1914 1.427 . S
N1918 C1915 1.384 . S
N1919 C1911 1.427 . S
N1919 C1917 1.384 . S
H1920 C1926 0.930 . S
H1921 C1930 0.930 . S
H1922 C1935 0.929 . S
H1923 C1933 0.929 . S
H1924 C1928 0.929 . S
H1925 C1934 0.929 . S
C1926 H1920 0.930 . S
C1926 C1927 1.367 . S
C1926 C1934 1.378 . S
C1927 C1926 1.367 . S
C1927 C1935 1.433 . S
C1928 H1924 0.929 . S
C1928 C1930 1.378 . S
C1928 C1932 1.350 . S
C1929 C1932 1.463 . S
C1929 C1934 1.350 . S
C1929 N1937 1.427 . S
C1930 H1921 0.930 . S
C1930 C1928 1.378 . S
C1930 C1931 1.367 . S
C1931 C1930 1.367 . S
C1931 C1933 1.433 . S
C1932 C1928 1.350 . S
C1932 C1929 1.463 . S
C1932 N1936 1.427 . S
C1933 H1923 0.929 . S
C1933 C1931 1.433 . S
C1933 N1936 1.384 . S
C1934 H1925 0.929 . S
C1934 C1926 1.378 . S
C1934 C1929 1.350 . S
C1935 H1922 0.929 . S
C1935 C1927 1.433 . S
C1935 N1937 1.384 . S
N1936 C1932 1.427 . S
N1936 C1933 1.384 . S
N1937 C1929 1.427 . S
N1937 C1935 1.384 . S
H1938 C1944 0.930 . S
H1939 C1948 0.930 . S
H1940 C1953 0.929 . S
H1941 C1951 0.929 . S
H1942 C1946 0.929 . S
H1943 C1952 0.929 . S
C1944 H1938 0.930 . S
C1944 C1945 1.367 . S
C1944 C1952 1.378 . S
C1945 C1944 1.367 . S
C1945 C1953 1.433 . S
C1946 H1942 0.929 . S
C1946 C1948 1.378 . S
C1946 C1950 1.350 . S
C1947 C1950 1.463 . S
C1947 C1952 1.350 . S
C1947 N1955 1.427 . S
C1948 H1939 0.930 . S
C1948 C1946 1.378 . S
C1948 C1949 1.367 . S
C1949 C1948 1.367 . S
C1949 C1951 1.433 . S
C1950 C1946 1.350 . S
C1950 C1947 1.463 . S
C1950 N1954 1.427 . S
C1951 H1941 0.929 . S
C1951 C1949 1.433 . S
C1951 N1954 1.384 . S
C1952 H1943 0.929 . S
C1952 C1944 1.378 . S
C1952 C1947 1.350 . S
C1953 H1940 0.929 . S
C1953 C1945 1.433 . S
C1953 N1955 1.384 . S
N1954 C1950 1.427 . S
N1954 C1951 1.384 . S
N1955 C1947 1.427 . S
N1955 C1953 1.384 . S
H1956 C1962 0.930 . S
H1957 C1966 0.930 . S
H1958 C1971 0.929 . S
H1959 C1969 0.929 . S
H1960 C1964 0.929 . S
H1961 C1970 0.929 . S
C1962 H1956 0.930 . S
C1962 C1963 1.367 . S
C1962 C1970 1.378 . S
C1963 C1962 1.367 . S
C1963 C1971 1.433 . S
C1964 H1960 0.929 . S
C1964 C1966 1.378 . S
C1964 C1968 1.350 . S
C1965 C1968 1.463 . S
C1965 C1970 1.350 . S
C1965 N1973 1.427 . S
C1966 H1957 0.930 . S
C1966 C1964 1.378 . S
C1966 C1967 1.367 . S
C1967 C1966 1.367 . S
C1967 C1969 1.433 . S
C1968 C1964 1.350 . S
C1968 C1965 1.463 . S
C1968 N1972 1.427 . S
C1969 H1959 0.929 . S
C1969 C1967 1.433 . S
C1969 N1972 1.384 . S
C1970 H1961 0.929 . S
C1970 C1962 1.378 . S
C1970 C1965 1.350 . S
C1971 H1958 0.929 . S
C1971 C1963 1.433 . S
C1971 N1973 1.384 . S
N1972 C1968 1.427 . S
N1972 C1969 1.384 . S
N1973 C1965 1.427 . S
N1973 C1971 1.384 . S
H1974 C1980 0.930 . S
H1975 C1984 0.930 . S
H1976 C1989 0.929 . S
H1977 C1987 0.929 . S
H1978 C1982 0.929 . S
H1979 C1988 0.929 . S
C1980 H1974 0.930 . S
C1980 C1981 1.367 . S
C1980 C1988 1.378 . S
C1981 C1980 1.367 . S
C1981 C1989 1.433 . S
C1982 H1978 0.929 . S
C1982 C1984 1.378 . S
C1982 C1986 1.350 . S
C1983 C1986 1.463 . S
C1983 C1988 1.350 . S
C1983 N1991 1.427 . S
C1984 H1975 0.930 . S
C1984 C1982 1.378 . S
C1984 C1985 1.367 . S
C1985 C1984 1.367 . S
C1985 C1987 1.433 . S
C1986 C1982 1.350 . S
C1986 C1983 1.463 . S
C1986 N1990 1.427 . S
C1987 H1977 0.929 . S
C1987 C1985 1.433 . S
C1987 N1990 1.384 . S
C1988 H1979 0.929 . S
C1988 C1980 1.378 . S
C1988 C1983 1.350 . S
C1989 H1976 0.929 . S
C1989 C1981 1.433 . S
C1989 N1991 1.384 . S
N1990 C1986 1.427 . S
N1990 C1987 1.384 . S
N1991 C1983 1.427 . S
N1991 C1989 1.384 . S
H1992 C1998 0.930 . S
H1993 C2002 0.930 . S
H1994 C2007 0.929 . S
H1995 C2005 0.929 . S
H1996 C2000 0.929 . S
H1997 C2006 0.929 . S
C1998 H1992 0.930 . S
C1998 C1999 1.367 . S
C1998 C2006 1.378 . S
C1999 C1998 1.367 . S
C1999 C2007 1.433 . S
C2000 H1996 0.929 . S
C2000 C2002 1.378 . S
C2000 C2004 1.350 . S
C2001 C2004 1.463 . S
C2001 C2006 1.350 . S
C2001 N2009 1.427 . S
C2002 H1993 0.930 . S
C2002 C2000 1.378 . S
C2002 C2003 1.367 . S
C2003 C2002 1.367 . S
C2003 C2005 1.433 . S
C2004 C2000 1.350 . S
C2004 C2001 1.463 . S
C2004 N2008 1.427 . S
C2005 H1995 0.929 . S
C2005 C2003 1.433 . S
C2005 N2008 1.384 . S
C2006 H1997 0.929 . S
C2006 C1998 1.378 . S
C2006 C2001 1.350 . S
C2007 H1994 0.929 . S
C2007 C1999 1.433 . S
C2007 N2009 1.384 . S
N2008 C2004 1.427 . S
N2008 C2005 1.384 . S
N2009 C2001 1.427 . S
N2009 C2007 1.384 . S
H2010 C2016 0.930 . S
H2011 C2020 0.930 . S
H2012 C2025 0.929 . S
H2013 C2023 0.929 . S
H2014 C2018 0.929 . S
H2015 C2024 0.929 . S
C2016 H2010 0.930 . S
C2016 C2017 1.367 . S
C2016 C2024 1.378 . S
C2017 C2016 1.367 . S
C2017 C2025 1.433 . S
C2018 H2014 0.929 . S
C2018 C2020 1.378 . S
C2018 C2022 1.350 . S
C2019 C2022 1.463 . S
C2019 C2024 1.350 . S
C2019 N2027 1.427 . S
C2020 H2011 0.930 . S
C2020 C2018 1.378 . S
C2020 C2021 1.367 . S
C2021 C2020 1.367 . S
C2021 C2023 1.433 . S
C2022 C2018 1.350 . S
C2022 C2019 1.463 . S
C2022 N2026 1.427 . S
C2023 H2013 0.929 . S
C2023 C2021 1.433 . S
C2023 N2026 1.384 . S
C2024 H2015 0.929 . S
C2024 C2016 1.378 . S
C2024 C2019 1.350 . S
C2025 H2012 0.929 . S
C2025 C2017 1.433 . S
C2025 N2027 1.384 . S
N2026 C2022 1.427 . S
N2026 C2023 1.384 . S
N2027 C2019 1.427 . S
N2027 C2025 1.384 . S
H2028 C2034 0.930 . S
H2029 C2038 0.930 . S
H2030 C2043 0.929 . S
H2031 C2041 0.929 . S
H2032 C2036 0.929 . S
H2033 C2042 0.929 . S
C2034 H2028 0.930 . S
C2034 C2035 1.367 . S
C2034 C2042 1.378 . S
C2035 C2034 1.367 . S
C2035 C2043 1.433 . S
C2036 H2032 0.929 . S
C2036 C2038 1.378 . S
C2036 C2040 1.350 . S
C2037 C2040 1.463 . S
C2037 C2042 1.350 . S
C2037 N2045 1.427 . S
C2038 H2029 0.930 . S
C2038 C2036 1.378 . S
C2038 C2039 1.367 . S
C2039 C2038 1.367 . S
C2039 C2041 1.433 . S
C2040 C2036 1.350 . S
C2040 C2037 1.463 . S
C2040 N2044 1.427 . S
C2041 H2031 0.929 . S
C2041 C2039 1.433 . S
C2041 N2044 1.384 . S
C2042 H2033 0.929 . S
C2042 C2034 1.378 . S
C2042 C2037 1.350 . S
C2043 H2030 0.929 . S
C2043 C2035 1.433 . S
C2043 N2045 1.384 . S
N2044 C2040 1.427 . S
N2044 C2041 1.384 . S
N2045 C2037 1.427 . S
N2045 C2043 1.384 . S
H2046 C2052 0.930 . S
H2047 C2056 0.930 . S
H2048 C2061 0.929 . S
H2049 C2059 0.929 . S
H2050 C2054 0.929 . S
H2051 C2060 0.929 . S
C2052 H2046 0.930 . S
C2052 C2053 1.367 . S
C2052 C2060 1.378 . S
C2053 C2052 1.367 . S
C2053 C2061 1.433 . S
C2054 H2050 0.929 . S
C2054 C2056 1.378 . S
C2054 C2058 1.350 . S
C2055 C2058 1.463 . S
C2055 C2060 1.350 . S
C2055 N2063 1.427 . S
C2056 H2047 0.930 . S
C2056 C2054 1.378 . S
C2056 C2057 1.367 . S
C2057 C2056 1.367 . S
C2057 C2059 1.433 . S
C2058 C2054 1.350 . S
C2058 C2055 1.463 . S
C2058 N2062 1.427 . S
C2059 H2049 0.929 . S
C2059 C2057 1.433 . S
C2059 N2062 1.384 . S
C2060 H2051 0.929 . S
C2060 C2052 1.378 . S
C2060 C2055 1.350 . S
C2061 H2048 0.929 . S
C2061 C2053 1.433 . S
C2061 N2063 1.384 . S
N2062 C2058 1.427 . S
N2062 C2059 1.384 . S
N2063 C2055 1.427 . S
N2063 C2061 1.384 . S
H2064 C2070 0.930 . S
H2065 C2074 0.930 . S
H2066 C2079 0.929 . S
H2067 C2077 0.929 . S
H2068 C2072 0.929 . S
H2069 C2078 0.929 . S
C2070 H2064 0.930 . S
C2070 C2071 1.367 . S
C2070 C2078 1.378 . S
C2071 C2070 1.367 . S
C2071 C2079 1.433 . S
C2072 H2068 0.929 . S
C2072 C2074 1.378 . S
C2072 C2076 1.350 . S
C2073 C2076 1.463 . S
C2073 C2078 1.350 . S
C2073 N2081 1.427 . S
C2074 H2065 0.930 . S
C2074 C2072 1.378 . S
C2074 C2075 1.367 . S
C2075 C2074 1.367 . S
C2075 C2077 1.433 . S
C2076 C2072 1.350 . S
C2076 C2073 1.463 . S
C2076 N2080 1.427 . S
C2077 H2067 0.929 . S
C2077 C2075 1.433 . S
C2077 N2080 1.384 . S
C2078 H2069 0.929 . S
C2078 C2070 1.378 . S
C2078 C2073 1.350 . S
C2079 H2066 0.929 . S
C2079 C2071 1.433 . S
C2079 N2081 1.384 . S
N2080 C2076 1.427 . S
N2080 C2077 1.384 . S
N2081 C2073 1.427 . S
N2081 C2079 1.384 . S
H2082 C2088 0.930 . S
H2083 C2092 0.930 . S
H2084 C2097 0.929 . S
H2085 C2095 0.929 . S
H2086 C2090 0.929 . S
H2087 C2096 0.929 . S
C2088 H2082 0.930 . S
C2088 C2089 1.367 . S
C2088 C2096 1.378 . S
C2089 C2088 1.367 . S
C2089 C2097 1.433 . S
C2090 H2086 0.929 . S
C2090 C2092 1.378 . S
C2090 C2094 1.350 . S
C2091 C2094 1.463 . S
C2091 C2096 1.350 . S
C2091 N2099 1.427 . S
C2092 H2083 0.930 . S
C2092 C2090 1.378 . S
C2092 C2093 1.367 . S
C2093 C2092 1.367 . S
C2093 C2095 1.433 . S
C2094 C2090 1.350 . S
C2094 C2091 1.463 . S
C2094 N2098 1.427 . S
C2095 H2085 0.929 . S
C2095 C2093 1.433 . S
C2095 N2098 1.384 . S
C2096 H2087 0.929 . S
C2096 C2088 1.378 . S
C2096 C2091 1.350 . S
C2097 H2084 0.929 . S
C2097 C2089 1.433 . S
C2097 N2099 1.384 . S
N2098 C2094 1.427 . S
N2098 C2095 1.384 . S
N2099 C2091 1.427 . S
N2099 C2097 1.384 . S
H2100 C2106 0.930 . S
H2101 C2110 0.930 . S
H2102 C2115 0.929 . S
H2103 C2113 0.929 . S
H2104 C2108 0.929 . S
H2105 C2114 0.929 . S
C2106 H2100 0.930 . S
C2106 C2107 1.367 . S
C2106 C2114 1.378 . S
C2107 C2106 1.367 . S
C2107 C2115 1.433 . S
C2108 H2104 0.929 . S
C2108 C2110 1.378 . S
C2108 C2112 1.350 . S
C2109 C2112 1.463 . S
C2109 C2114 1.350 . S
C2109 N2117 1.427 . S
C2110 H2101 0.930 . S
C2110 C2108 1.378 . S
C2110 C2111 1.367 . S
C2111 C2110 1.367 . S
C2111 C2113 1.433 . S
C2112 C2108 1.350 . S
C2112 C2109 1.463 . S
C2112 N2116 1.427 . S
C2113 H2103 0.929 . S
C2113 C2111 1.433 . S
C2113 N2116 1.384 . S
C2114 H2105 0.929 . S
C2114 C2106 1.378 . S
C2114 C2109 1.350 . S
C2115 H2102 0.929 . S
C2115 C2107 1.433 . S
C2115 N2117 1.384 . S
N2116 C2112 1.427 . S
N2116 C2113 1.384 . S
N2117 C2109 1.427 . S
N2117 C2115 1.384 . S
H2118 C2124 0.930 . S
H2119 C2128 0.930 . S
H2120 C2133 0.929 . S
H2121 C2131 0.929 . S
H2122 C2126 0.929 . S
H2123 C2132 0.929 . S
C2124 H2118 0.930 . S
C2124 C2125 1.367 . S
C2124 C2132 1.378 . S
C2125 C2124 1.367 . S
C2125 C2133 1.433 . S
C2126 H2122 0.929 . S
C2126 C2128 1.378 . S
C2126 C2130 1.350 . S
C2127 C2130 1.463 . S
C2127 C2132 1.350 . S
C2127 N2135 1.427 . S
C2128 H2119 0.930 . S
C2128 C2126 1.378 . S
C2128 C2129 1.367 . S
C2129 C2128 1.367 . S
C2129 C2131 1.433 . S
C2130 C2126 1.350 . S
C2130 C2127 1.463 . S
C2130 N2134 1.427 . S
C2131 H2121 0.929 . S
C2131 C2129 1.433 . S
C2131 N2134 1.384 . S
C2132 H2123 0.929 . S
C2132 C2124 1.378 . S
C2132 C2127 1.350 . S
C2133 H2120 0.929 . S
C2133 C2125 1.433 . S
C2133 N2135 1.384 . S
N2134 C2130 1.427 . S
N2134 C2131 1.384 . S
N2135 C2127 1.427 . S
N2135 C2133 1.384 . S
C1279 C834 2.030 . S
C1283 C39 2.043 . S
C1297 C675 2.107 . S
C1301 C75 2.075 . S
C1315 C728 1.672 . S
C1319 C145 1.670 . S
C1333 C764 1.888 . S
C1337 C181 1.897 . S
C1351 C781 2.036 . S
C1355 C92 2.025 . S
C1369 C128 1.857 . S
C1373 C817 1.851 . S
C1387 C658 1.833 . S
C1391 C198 1.856 . S
C1405 C711 1.807 . S
C1409 C22 1.808 . S
C1423 C976 1.711 . S
C1427 C234 1.692 . S
C1441 C304 1.978 . S
C1445 C1046 1.983 . S
C1459 C357 1.855 . S
C1463 C870 1.821 . S
C1477 C940 2.153 . S
C1481 C410 2.156 . S
C1495 C1188 2.105 . S
C1499 C463 2.144 . S
C1513 C516 1.903 . S
C1517 C1258 1.889 . S
C1531 C569 2.189 . S
C1535 C1099 2.187 . S
C1549 C622 1.662 . S
C1553 C1135 1.598 . S
C1567 C923 1.715 . S
C1571 C605 1.724 . S
C1585 C1241 2.011 . S
C1589 C287 2.030 . S
C1603 C340 1.830 . S
C1607 C1082 1.816 . S
C1621 C1152 2.054 . S
C1625 C393 2.026 . S
C1639 C1205 2.117 . S
C1643 C251 2.148 . S
C1657 C499 1.883 . S
C1661 C1029 1.876 . S
C1675 C887 2.020 . S
C1679 C552 1.980 . S
C1693 C993 1.889 . S
C1697 C446 1.864 . S
C1711 C38 1.976 . S
C1715 C250 1.981 . S
C1729 C294 1.804 . S
C1733 C82 1.793 . S
C1747 C144 1.817 . S
C1751 C347 1.814 . S
C1765 C188 1.742 . S
C1769 C400 1.736 . S
C1783 C453 1.959 . S
C1787 C91 1.958 . S
C1801 C506 1.738 . S
C1805 C135 1.740 . S
C1819 C559 2.011 . S
C1823 C197 2.014 . S
C1837 C29 1.663 . S
C1841 C612 1.658 . S
C1855 C621 1.942 . S
C1859 C241 1.924 . S
C1873 C303 2.145 . S
C1877 C462 2.148 . S
C1891 C356 1.988 . S
C1895 C515 1.986 . S
C1909 C568 2.212 . S
C1913 C409 2.211 . S
C1927 C886 1.980 . S
C1931 C665 1.967 . S
C1945 C930 1.771 . S
C1949 C718 1.766 . S
C1963 C780 1.983 . S
C1967 C992 1.977 . S
C1981 C824 1.864 . S
C1985 C1036 1.865 . S
C1999 C727 1.933 . S
C2003 C1089 1.923 . S
C2017 C771 1.895 . S
C2021 C1151 1.904 . S
C2035 C1204 2.148 . S
C2039 C833 2.149 . S
C2053 C674 1.961 . S
C2057 C1248 1.944 . S
C2071 C877 1.842 . S
C2075 C1257 1.851 . S
C2089 C1098 2.032 . S
C2093 C939 2.031 . S
C2107 C983 1.826 . S
C2111 C1142 1.808 . S
C2125 C1195 1.956 . S
C2129 C1045 1.961 . S
