# Generated by pormake.
# Topology wjf, (4)-cn, num edge types: 1
# Building blocks:
#     Node 0, Type 0, BuildingBlock: ESEHIV_clean_sbu_0, # of connection points: 4
#     Node 1, Type 0, BuildingBlock: ESEHIV_clean_sbu_0, # of connection points: 4
#     Node 2, Type 0, BuildingBlock: ESEHIV_clean_sbu_0, # of connection points: 4
#     Node 3, Type 0, BuildingBlock: ESEHIV_clean_sbu_0, # of connection points: 4
#     Node 4, Type 0, BuildingBlock: ESEHIV_clean_sbu_0, # of connection points: 4
#     Node 5, Type 0, BuildingBlock: ESEHIV_clean_sbu_0, # of connection points: 4
#     Node 6, Type 0, BuildingBlock: ESEHIV_clean_sbu_0, # of connection points: 4
#     Node 7, Type 0, BuildingBlock: ESEHIV_clean_sbu_0, # of connection points: 4
#     Node 8, Type 0, BuildingBlock: ESEHIV_clean_sbu_0, # of connection points: 4
#     Node 9, Type 0, BuildingBlock: ESEHIV_clean_sbu_0, # of connection points: 4
#     Node 10, Type 0, BuildingBlock: ESEHIV_clean_sbu_0, # of connection points: 4
#     Node 11, Type 0, BuildingBlock: ESEHIV_clean_sbu_0, # of connection points: 4
#     Edge 12, Type (0, 0), BuildingBlock: AJUNOK_clean_linker_0, # of connection points: 2
#     Edge 13, Type (0, 0), BuildingBlock: AJUNOK_clean_linker_0, # of connection points: 2
#     Edge 14, Type (0, 0), BuildingBlock: AJUNOK_clean_linker_0, # of connection points: 2
#     Edge 15, Type (0, 0), BuildingBlock: AJUNOK_clean_linker_0, # of connection points: 2
#     Edge 16, Type (0, 0), BuildingBlock: AJUNOK_clean_linker_0, # of connection points: 2
#     Edge 17, Type (0, 0), BuildingBlock: AJUNOK_clean_linker_0, # of connection points: 2
#     Edge 18, Type (0, 0), BuildingBlock: AJUNOK_clean_linker_0, # of connection points: 2
#     Edge 19, Type (0, 0), BuildingBlock: AJUNOK_clean_linker_0, # of connection points: 2
#     Edge 20, Type (0, 0), BuildingBlock: AJUNOK_clean_linker_0, # of connection points: 2
#     Edge 21, Type (0, 0), BuildingBlock: AJUNOK_clean_linker_0, # of connection points: 2
#     Edge 22, Type (0, 0), BuildingBlock: AJUNOK_clean_linker_0, # of connection points: 2
#     Edge 23, Type (0, 0), BuildingBlock: AJUNOK_clean_linker_0, # of connection points: 2
#     Edge 24, Type (0, 0), BuildingBlock: AJUNOK_clean_linker_0, # of connection points: 2
#     Edge 25, Type (0, 0), BuildingBlock: AJUNOK_clean_linker_0, # of connection points: 2
#     Edge 26, Type (0, 0), BuildingBlock: AJUNOK_clean_linker_0, # of connection points: 2
#     Edge 27, Type (0, 0), BuildingBlock: AJUNOK_clean_linker_0, # of connection points: 2
#     Edge 28, Type (0, 0), BuildingBlock: AJUNOK_clean_linker_0, # of connection points: 2
#     Edge 29, Type (0, 0), BuildingBlock: AJUNOK_clean_linker_0, # of connection points: 2
#     Edge 30, Type (0, 0), BuildingBlock: AJUNOK_clean_linker_0, # of connection points: 2
#     Edge 31, Type (0, 0), BuildingBlock: AJUNOK_clean_linker_0, # of connection points: 2
#     Edge 32, Type (0, 0), BuildingBlock: AJUNOK_clean_linker_0, # of connection points: 2
#     Edge 33, Type (0, 0), BuildingBlock: AJUNOK_clean_linker_0, # of connection points: 2
#     Edge 34, Type (0, 0), BuildingBlock: AJUNOK_clean_linker_0, # of connection points: 2
#     Edge 35, Type (0, 0), BuildingBlock: AJUNOK_clean_linker_0, # of connection points: 2
# Relax obj value: 0.112
# Max RMSD: 0.245
# Mean RMSD: 0.245
data_MOF--net-wjf--node1-ESEHIV_clean_sbu_0--edge1-AJUNOK_clean_linker_0
_symmetry_space_group_name_H-M    P1
_symmetry_Int_Tables_number       1
_symmetry_cell_setting            triclinic
loop_
_symmetry_equiv_pos_as_xyz
'x, y, z'
_cell_length_a     46.188615
_cell_length_b     46.064453
_cell_length_c     20.571696
_cell_angle_alpha  89.96913
_cell_angle_beta   89.752216
_cell_angle_gamma 119.96317
loop_
_atom_site_label
_atom_site_type_symbol
_atom_site_fract_x
_atom_site_fract_y
_atom_site_fract_z
_atom_type_partial_charge
Cu0 Cu 0.33427 0.39718 0.12701 0.0
N1 N 0.37406 0.437 0.11257 0.0
N2 N 0.42872 0.47373 0.10515 0.0
C3 C 0.40488 0.44478 0.13213 0.0
C4 C 0.41209 0.48439 0.06713 0.0
C5 C 0.37842 0.46174 0.07197 0.0
O6 O 0.33479 0.38127 0.21531 0.0
C7 C 0.35094 0.36667 1.02314 0.0
O8 O 0.37964 0.37847 0.05328 0.0
H9 H 0.40977 0.4288 0.16333 0.0
H10 H 0.35861 0.46225 0.04506 0.0
N11 N 0.29951 0.40665 0.12867 0.0
N12 N 0.25575 0.41191 0.09961 0.0
C13 C 0.28106 0.40734 0.07882 0.0
C14 C 0.28581 0.4113 0.18257 0.0
C15 C 0.25892 0.4146 0.16489 0.0
C16 C 0.3492 0.3666 0.24057 0.0
O17 O 0.3654 0.35634 0.20315 0.0
H18 H 0.2862 0.40448 1.02863 0.0
H19 H 0.29425 0.41133 0.23152 0.0
O20 O 0.32729 0.36879 0.05077 0.0
H21 H 0.42345 0.50581 1.03479 0.0
H22 H 0.24227 0.41758 0.19787 0.0
Cu23 Cu 0.94348 0.33661 0.44952 0.0
N24 N 0.94685 0.37823 0.43773 0.0
N25 N 0.96873 0.43378 0.43638 0.0
C26 C 0.96976 0.40761 0.46361 0.0
C27 C 0.94365 0.4201 0.39279 0.0
C28 C 0.93033 0.38585 0.39354 0.0
O29 O 0.95935 0.33476 0.53704 0.0
C30 C 0.9885 0.35161 0.34222 0.0
O31 O 1.00634 0.3806 0.37126 0.0
H32 H 0.98732 0.40966 0.50035 0.0
H33 H 0.9111 0.36788 0.36184 0.0
N34 N 0.89836 0.30411 0.45089 0.0
N35 N 0.849 0.26064 0.42393 0.0
C36 C 0.87951 0.28403 0.40233 0.0
C37 C 0.87904 0.29313 0.50456 0.0
C38 C 0.84861 0.26616 0.48814 0.0
C39 C 0.98824 0.35063 0.56254 0.0
O40 O 0.01437 0.3692 0.52561 0.0
H41 H 0.88846 0.28542 0.3531 0.0
H42 H 0.88703 0.30328 0.55274 0.0
O43 O 0.96328 0.3283 0.37202 0.0
H44 H 0.93666 0.43398 0.36016 0.0
H45 H 0.82802 0.25126 0.52094 0.0
Cu46 Cu 0.62417 0.94924 0.79028 0.0
N47 N 0.58441 0.94974 0.77956 0.0
N48 N 0.54998 0.97047 0.7701 0.0
C49 C 0.57914 0.97518 0.79447 0.0
C50 C 0.53623 0.94054 0.73967 0.0
C51 C 0.55761 0.92794 0.74527 0.0
O52 O 0.64658 0.97387 0.86946 0.0
C53 C 0.65468 0.99466 0.68409 0.0
O54 O 0.64936 0.01532 0.71938 0.0
H55 H 0.59682 0.99691 0.82162 0.0
H56 H 0.55466 0.9053 0.72322 0.0
N57 N 0.61533 0.90514 0.79825 0.0
N58 N 0.61387 0.85712 0.77384 0.0
C59 C 0.61975 0.88721 0.75157 0.0
C60 C 0.60601 0.88562 0.85172 0.0
C61 C 0.60493 0.85594 0.83672 0.0
C62 C 0.62888 0.96741 0.92105 0.0
O63 O 0.59672 0.94584 0.91738 0.0
H64 H 0.62725 0.89624 0.70236 0.0
H65 H 0.60118 0.89269 0.89883 0.0
O66 O 0.6486 0.96679 0.7087 0.0
H67 H 0.51312 0.9293 0.71257 0.0
H68 H 0.59909 0.83552 0.87005 0.0
Cu69 Cu 0.66632 0.59939 0.12416 0.0
N70 N 0.62592 0.56008 0.11177 0.0
N71 N 0.57072 0.52619 0.10469 0.0
C72 C 0.59564 0.55578 0.12661 0.0
C73 C 0.58609 0.51113 0.07592 0.0
C74 C 0.62018 0.5322 0.08007 0.0
O75 O 0.66156 0.61903 0.20445 0.0
C76 C 0.6759 0.61938 0.9933 0.0
O77 O 0.67962 0.59305 0.98701 0.0
H78 H 0.59218 0.57428 0.1524 0.0
H79 H 0.63939 0.52804 0.05948 0.0
N80 N 0.70088 0.58946 0.12844 0.0
N81 N 0.74895 0.59014 0.11014 0.0
C82 C 0.73094 0.60539 0.09868 0.0
C83 C 0.69999 0.56351 0.16028 0.0
C84 C 0.72964 0.56392 0.14935 0.0
C85 C 0.67912 0.62461 0.25541 0.0
O86 O 0.70453 0.6193 0.2543 0.0
H87 H 0.7391 0.62723 0.06798 0.0
H88 H 0.6791 0.54548 0.18927 0.0
O89 O 0.67153 0.62775 0.04991 0.0
H90 H 0.57359 0.4872 0.05135 0.0
H91 H 0.73655 0.5465 0.16934 0.0
Cu92 Cu 0.07817 0.67107 0.46435 0.0
N93 N 0.0777 0.63056 0.45672 0.0
N94 N 0.05901 0.57553 0.45299 0.0
C95 C 0.05203 0.59973 0.47 0.0
C96 C 0.09018 0.59193 0.42754 0.0
C97 C 0.10164 0.62581 0.43013 0.0
O98 O 0.06293 0.67343 0.55214 0.0
C99 C 0.064 0.67442 0.33387 0.0
O100 O 0.09267 0.67511 0.3283 0.0
H101 H 0.02842 0.59513 0.4901 0.0
H102 H 0.12521 0.64555 0.41124 0.0
N103 N 0.1224 0.7058 0.45783 0.0
N104 N 0.16833 0.75301 0.42805 0.0
C105 C 0.13496 0.73358 0.42063 0.0
C106 C 0.14857 0.70798 0.49055 0.0
C107 C 0.17695 0.73712 0.47238 0.0
C108 C 0.03304 0.659 0.57363 0.0
O109 O 1.00828 0.64197 0.53328 0.0
H110 H 0.11985 0.73961 0.38953 0.0
H111 H 0.14705 0.68952 0.52502 0.0
O112 O 0.05229 0.67325 0.39089 0.0
H113 H 0.10313 0.58034 0.40522 0.0
H114 H 0.20204 0.74578 0.48976 0.0
Cu115 Cu 0.41516 0.07163 0.78613 0.0
N116 N 0.45637 0.07434 0.77367 0.0
N117 N 0.49448 0.058 0.76777 0.0
C118 C 0.46361 0.05024 0.78846 0.0
C119 C 0.50697 0.08827 0.73863 0.0
C120 C 0.4835 0.09836 0.74281 0.0
O121 O 0.39564 0.04428 0.86344 0.0
C122 C 0.39898 0.06232 0.65329 0.0
O123 O 0.42757 0.09046 0.64821 0.0
H124 H 0.44618 0.02712 0.81274 0.0
H125 H 0.48552 0.12096 0.72245 0.0
N126 N 0.42141 0.11462 0.79796 0.0
N127 N 0.42229 0.16304 0.78069 0.0
C128 C 0.41425 0.13269 0.75629 0.0
C129 C 0.43429 0.13407 0.85069 0.0
C130 C 0.4346 0.16379 0.84051 0.0
C131 C 0.3782 0.04849 0.90646 0.0
O132 O 0.37042 0.07205 0.8983 0.0
H133 H 0.40355 0.12384 0.7088 0.0
H134 H 0.44243 0.12686 0.89393 0.0
O135 O 0.38825 0.05 0.70963 0.0
H136 H 0.53055 0.10152 0.71296 0.0
H137 H 0.44249 0.18388 0.87536 0.0
Cu138 Cu 0.6264 0.66661 0.62784 0.0
N139 N 0.58251 0.63141 0.63475 0.0
N140 N 0.53968 0.57891 0.63889 0.0
C141 C 0.57295 0.59871 0.63032 0.0
C142 C 0.52791 0.60009 0.64959 0.0
C143 C 0.55445 0.63252 0.6469 0.0
O144 O 0.64622 0.65923 0.55042 0.0
C145 C 0.63757 0.66341 0.76124 0.0
O146 O 0.60955 0.66407 0.76643 0.0
H147 H 0.59013 0.58966 0.62072 0.0
H148 H 0.55346 0.65526 0.65429 0.0
N149 N 0.62775 0.70774 0.61896 0.0
N150 N 0.62703 0.75506 0.63924 0.0
C151 C 0.62311 0.72618 0.66435 0.0
C152 C 0.63453 0.7255 0.56343 0.0
C153 C 0.63398 0.75457 0.57568 0.0
C154 C 0.63021 0.6519 0.4971 0.0
O155 O 0.60058 0.64938 0.4963 0.0
H156 H 0.61754 0.71897 0.71487 0.0
H157 H 0.63968 0.71794 0.5171 0.0
O158 O 0.65008 0.66551 0.70497 0.0
H159 H 0.5022 0.59274 0.66037 0.0
H160 H 0.63799 0.77366 0.54035 0.0
Cu161 Cu 0.9653 0.63051 0.96817 0.0
N162 N 0.95367 0.5855 0.97226 0.0
N163 N 0.96119 0.54117 0.97508 0.0
C164 C 0.976 0.57491 0.97455 0.0
C165 C 0.92804 0.53008 0.9737 0.0
C166 C 0.92349 0.55753 0.97168 0.0
O167 O 0.98295 0.64639 0.88051 0.0
C168 C 0.98424 0.64396 0.09804 0.0
O169 O 0.95259 0.62114 0.10471 0.0
H170 H 1.00275 0.59175 0.97446 0.0
H171 H 0.89987 0.55703 0.96942 0.0
N172 N 0.92807 0.63621 0.97622 0.0
N173 N 0.87905 0.63174 1.00332 0.0
C174 C 0.89943 0.61873 1.01047 0.0
C175 C 0.92562 0.66094 0.9467 0.0
C176 C 0.89555 0.65834 0.96338 0.0
C177 C 0.00942 0.6492 0.85513 0.0
O178 O 0.03014 0.64477 0.89174 0.0
H179 H 0.89399 0.59747 0.04104 0.0
H180 H 0.94457 0.67969 0.91524 0.0
O181 O 0.99594 0.65315 0.04057 0.0
H182 H 0.90842 0.5041 0.97473 0.0
H183 H 0.88636 0.67458 0.94695 0.0
Cu184 Cu 0.34304 0.96739 0.28725 0.0
N185 N 0.3763 0.95582 0.29105 0.0
N186 N 0.42796 0.96359 0.29607 0.0
C187 C 0.40877 0.97791 0.3013 0.0
C188 C 0.40668 0.93104 0.28248 0.0
C189 C 0.37472 0.92631 0.27935 0.0
O190 O 0.34944 0.99171 0.20634 0.0
C191 C 0.34532 0.98286 0.4192 0.0
O192 O 0.33542 0.95084 0.42494 0.0
H193 H 0.41827 1.00432 0.31006 0.0
H194 H 0.35212 0.90325 0.26779 0.0
N195 N 0.30024 0.92983 0.28689 0.0
N196 N 0.25563 0.87968 0.30699 0.0
C197 C 0.28842 0.90052 0.31896 0.0
C198 C 0.27408 0.92746 0.25386 0.0
C199 C 0.24652 0.89662 0.26625 0.0
C200 C 0.34927 0.97694 0.15391 0.0
O201 O 0.34384 0.94614 0.15745 0.0
H202 H 0.30346 0.8946 0.3505 0.0
H203 H 0.27494 0.94711 0.22367 0.0
O204 O 0.34896 0.99533 0.36244 0.0
H205 H 0.41369 0.9121 0.27506 0.0
H206 H 0.22149 0.88786 0.24844 0.0
Cu207 Cu 0.39056 0.34161 0.62915 0.0
N208 N 0.43188 0.3811 0.62657 0.0
N209 N 0.47106 0.43522 0.6294 0.0
C210 C 0.43851 0.41251 0.63938 0.0
C211 C 0.48556 0.41737 0.61087 0.0
C212 C 0.46131 0.38401 0.60894 0.0
O213 O 0.36514 0.33918 0.5508 0.0
C214 C 0.35897 0.35414 0.74196 0.0
O215 O 0.35508 0.3756 0.70632 0.0
H216 H 0.41985 0.4186 0.65553 0.0
H217 H 0.46474 0.36332 0.59467 0.0
N218 N 0.39823 0.30574 0.62116 0.0
N219 N 0.40563 0.2627 0.64525 0.0
C220 C 0.40446 0.28948 0.66863 0.0
C221 C 0.39551 0.28878 0.56616 0.0
C222 C 0.39991 0.26209 0.58094 0.0
C223 C 0.36603 0.36418 0.5222 0.0
O224 O 0.37982 0.39324 0.55183 0.0
H225 H 0.40674 0.29632 0.71947 0.0
H226 H 0.38984 0.29494 0.51891 0.0
O227 O 0.3708 0.33715 0.71589 0.0
H228 H 0.51164 0.42782 0.59788 0.0
H229 H 0.39863 0.24342 0.54729 0.0
Cu230 Cu 0.0537 0.39511 0.95127 0.0
N231 N 0.05321 0.43542 0.95172 0.0
N232 N 0.03652 0.47317 0.96031 0.0
C233 C 0.02734 0.44042 0.96418 0.0
C234 C 0.06941 0.48941 0.94588 0.0
C235 C 0.07961 0.46607 0.94042 0.0
O236 O 0.03167 0.36958 0.87241 0.0
C237 C 1.00926 0.35981 0.06091 0.0
O238 O 0.98429 0.35507 1.02356 0.0
H239 H 1.00243 0.42057 0.97657 0.0
H240 H 0.10456 0.47106 0.92893 0.0
N241 N 0.09796 0.40544 0.94128 0.0
N242 N 0.14818 0.41147 0.96014 0.0
C243 C 0.11907 0.40592 0.98678 0.0
C244 C 0.1144 0.41121 0.8843 0.0
C245 C 0.14543 0.41493 0.89577 0.0
C246 C 1.00693 0.36895 0.84381 0.0
O247 O 0.99044 0.38155 0.87327 0.0
H248 H 0.11283 0.40112 0.03793 0.0
H249 H 0.10417 0.41194 0.83752 0.0
O250 O 0.03874 0.37398 0.03717 0.0
H251 H 0.0848 0.5162 0.93868 0.0
H252 H 0.16441 0.41959 0.85969 0.0
Cu253 Cu 0.66498 0.05472 0.2923 0.0
N254 N 0.62551 0.05566 0.3044 0.0
N255 N 0.57111 0.03908 0.30948 0.0
C256 C 0.59417 0.02986 0.29742 0.0
C257 C 0.58876 0.07188 0.32516 0.0
C258 C 0.62231 0.08205 0.32181 0.0
O259 O 0.65754 0.02534 0.21792 0.0
C260 C 0.65685 0.01369 0.40391 0.0
O261 O 0.63102 0.99001 0.373 0.0
H262 H 0.58851 1.00476 0.2849 0.0
H263 H 0.64295 0.10692 0.33125 0.0
N264 N 0.69908 0.09825 0.27389 0.0
N265 N 0.74308 0.14948 0.28901 0.0
C266 C 0.72035 0.12034 0.31732 0.0
C267 C 0.70825 0.11392 0.21601 0.0
C268 C 0.7356 0.14534 0.225 0.0
C269 C 0.67931 0.02927 0.17514 0.0
O270 O 0.71082 0.05146 0.18527 0.0
H271 H 0.71902 0.11499 0.36882 0.0
H272 H 0.69635 0.10298 0.17027 0.0
O273 O 0.67541 0.04147 0.37521 0.0
H274 H 0.57816 0.08751 0.33735 0.0
H275 H 0.74943 0.16305 0.18672 0.0
C276 C 0.35752 0.34088 0.34229 0.0
C277 C 0.35017 0.36411 0.31305 0.0
C278 C 0.36071 0.33974 0.41025 0.0
C279 C 0.35737 0.36226 0.45183 0.0
H280 H 0.36127 0.32367 0.31241 0.0
H281 H 0.36726 0.32199 0.43002 0.0
S282 S 0.33695 0.4272 0.40067 0.0
N283 N 0.33836 0.40937 0.33208 0.0
N284 N 0.34504 0.40759 0.45879 0.0
C285 C 0.34928 0.38506 0.42342 0.0
C286 C 0.34549 0.38588 0.35446 0.0
C287 C 0.02267 0.361 0.664 0.0
C288 C 0.9916 0.35144 0.635 0.0
C289 C 0.02696 0.36472 0.73189 0.0
C290 C 1.00054 0.35974 0.77361 0.0
H291 H 0.04406 0.36621 0.63395 0.0
H292 H 0.05161 0.37303 0.75146 0.0
S293 S 0.91379 0.33315 0.7232 0.0
N294 N 0.9335 0.33566 0.65449 0.0
N295 N 0.94186 0.34338 0.78107 0.0
C296 C 0.96918 0.34936 0.7455 0.0
C297 C 0.96463 0.345 0.67661 0.0
C298 C 0.62212 0.97458 0.03985 0.0
C299 C 0.64338 0.98301 0.98518 0.0
C300 C 0.63418 0.98883 0.101 0.0
C301 C 0.66818 0.01224 0.1108 0.0
H302 H 0.59562 0.95696 1.03559 0.0
H303 H 0.61642 0.98172 0.14073 0.0
S304 S 0.73485 0.04224 0.98436 0.0
N305 N 0.70049 0.01578 0.94541 0.0
N306 N 0.72329 0.04263 0.06027 0.0
C307 C 0.68998 0.02047 0.0569 0.0
C308 C 0.67759 1.00591 0.99427 0.0
C309 C 0.6378 0.63295 0.32005 0.0
C310 C 0.66865 0.63376 0.31706 0.0
C311 C 0.62592 0.63909 0.3782 0.0
C312 C 0.64435 0.64644 0.43619 0.0
H313 H 0.62221 0.62691 0.27732 0.0
H314 H 0.60182 0.63771 0.37752 0.0
S315 S 0.72759 0.65346 0.45433 0.0
N316 N 0.71811 0.6438 0.3771 0.0
N317 N 0.69578 0.6554 0.48639 0.0
C318 C 0.67562 0.64808 0.43379 0.0
C319 C 0.68774 0.64174 0.37436 0.0
C320 C 0.04698 0.66358 0.75706 0.0
C321 C 0.0153 0.65423 0.7834 0.0
C322 C 0.05264 0.66607 0.68953 0.0
C323 C 0.02675 0.65881 0.64505 0.0
H324 H 0.06761 0.66868 0.78885 0.0
H325 H 0.0774 0.67285 0.67212 0.0
S326 S 0.93937 0.63448 0.68831 0.0
N327 N 0.95785 0.63889 0.75905 0.0
N328 N 0.96841 0.64306 0.63259 0.0
C329 C 0.99509 0.65007 0.67063 0.0
C330 C 0.98941 0.64796 0.73951 0.0
C331 C 0.35293 0.02305 0.08292 0.0
C332 C 0.35572 0.99415 0.08992 0.0
C333 C 0.35934 0.0399 1.02305 0.0
C334 C 0.36923 0.0288 0.96794 0.0
H335 H 0.34571 0.03278 0.124 0.0
H336 H 0.35716 0.06222 1.02045 0.0
S337 S 0.37998 0.95415 0.96017 0.0
N338 N 0.36869 0.95492 1.03608 0.0
N339 N 0.38093 0.98663 0.92416 0.0
C340 C 0.37185 0.99975 0.97415 0.0
C341 C 0.36504 0.98244 1.0349 0.0
C342 C 0.18812 0.43044 0.05072 0.0
C343 C 0.17577 0.41199 0.99327 0.0
C344 C 0.21473 0.43088 0.08414 0.0
C345 C 0.22967 0.41244 0.06193 0.0
H346 H 0.17727 0.44485 0.06954 0.0
H347 H 0.22368 0.44585 0.12776 0.0
S348 S 0.2042 0.35786 0.91596 0.0
N349 N 0.1793 0.37397 0.91635 0.0
N350 N 0.22852 0.37372 0.98001 0.0
C351 C 0.21718 0.39358 1.00457 0.0
C352 C 0.19039 0.39359 0.97011 0.0
C353 C 0.80903 0.20045 0.41272 0.0
C354 C 0.82332 0.23317 0.38806 0.0
C355 C 0.7833 0.17335 0.3796 0.0
C356 C 0.77034 0.17797 0.32101 0.0
H357 H 0.81811 0.19579 0.45776 0.0
H358 H 0.77371 0.14858 0.40011 0.0
S359 S 0.7984 0.25981 0.23895 0.0
N360 N 0.82284 0.26929 0.30307 0.0
N361 N 0.77334 0.21879 0.24169 0.0
C362 C 0.78443 0.2109 0.29623 0.0
C363 C 0.81116 0.23838 0.32956 0.0
C364 C 0.596 0.79766 0.75286 0.0
C365 C 0.61755 0.83188 0.73924 0.0
C366 C 0.59938 0.7727 0.72046 0.0
C367 C 0.62434 0.78101 0.67305 0.0
H368 H 0.57611 0.79012 0.78831 0.0
H369 H 0.58199 0.74667 0.73175 0.0
S370 S 0.68941 0.86681 0.62441 0.0
N371 N 0.66635 0.87269 0.67853 0.0
N372 N 0.67241 0.82581 0.61734 0.0
C373 C 0.64643 0.81509 0.6598 0.0
C374 C 0.6431 0.84051 0.69292 0.0
C375 C 0.80568 0.63401 0.07765 0.0
C376 C 0.7818 0.5999 0.08506 0.0
C377 C 0.83749 0.64414 0.05194 0.0
C378 C 0.84672 0.62057 1.03253 0.0
H379 H 0.79977 0.65305 0.09223 0.0
H380 H 0.8551 0.6707 0.0474 0.0
S381 S 0.79262 0.52815 0.03749 0.0
N382 N 0.76908 0.54246 0.06821 0.0
N383 N 0.82892 0.56157 1.01998 0.0
C384 C 0.8231 0.58636 0.03956 0.0
C385 C 0.79065 0.57601 0.06575 0.0
C386 C 0.21684 0.81035 0.43082 0.0
C387 C 0.19034 0.78439 0.3963 0.0
C388 C 0.23835 0.84123 0.40111 0.0
C389 C 0.23418 0.84727 0.33574 0.0
H390 H 0.22055 0.80697 0.48158 0.0
H391 H 0.25793 0.86079 0.42992 0.0
S392 S 0.1711 0.78612 0.22198 0.0
N393 N 0.16275 0.76581 0.2919 0.0
N394 N 0.20319 0.82381 0.236 0.0
C395 C 0.20833 0.8212 0.30019 0.0
C396 C 0.1864 0.78978 0.33047 0.0
C397 C 0.39253 0.17964 0.70271 0.0
C398 C 0.41805 0.18869 0.74893 0.0
C399 C 0.38857 0.20393 0.66933 0.0
C400 C 0.4096 0.23823 0.68148 0.0
H401 H 0.37531 0.15354 0.6923 0.0
H402 H 0.36869 0.19586 0.63406 0.0
S403 S 0.48117 0.27576 0.79469 0.0
N404 N 0.46571 0.23495 0.80254 0.0
N405 N 0.45721 0.28035 0.74117 0.0
C406 C 0.43498 0.2478 0.72769 0.0
C407 C 0.43945 0.22311 0.7611 0.0
C408 C 0.33329 0.36435 0.84172 0.0
C409 C 0.35361 0.35274 0.81401 0.0
C410 C 0.33073 0.36661 0.90962 0.0
C411 C 0.34895 0.35805 0.95273 0.0
H412 H 0.3198 0.37248 0.81068 0.0
H413 H 0.31569 0.3768 0.92826 0.0
S414 S 0.40412 0.32431 0.90601 0.0
N415 N 0.39068 0.33059 0.83607 0.0
N416 N 0.38654 0.33578 0.96286 0.0
C417 C 0.36843 0.34535 0.92586 0.0
C418 C 0.37055 0.34242 0.85686 0.0
C419 C 0.02574 0.37002 0.24345 0.0
C420 C 0.99411 0.34886 0.27138 0.0
C421 C 0.03072 0.372 0.17569 0.0
C422 C 1.00411 0.35346 0.13255 0.0
H423 H 0.04674 0.38597 0.27417 0.0
H424 H 0.05539 0.38944 0.15698 0.0
S425 S 0.91667 0.29268 0.1805 0.0
N426 N 0.93611 0.30737 0.25022 0.0
N427 N 0.94526 0.31168 0.12325 0.0
C428 C 0.97259 0.33128 0.15985 0.0
C429 C 0.96766 0.32879 0.22901 0.0
C430 C 0.64728 0.973 0.56987 0.0
C431 C 0.66053 1.00046 0.61279 0.0
C432 C 0.64731 0.97756 0.50227 0.0
C433 C 0.66125 0.00977 0.47457 0.0
H434 H 0.63519 0.94763 0.58873 0.0
H435 H 0.63552 0.95557 0.47159 0.0
S436 S 0.70213 0.09015 0.56528 0.0
N437 N 0.68984 0.0611 0.62238 0.0
N438 N 0.69078 0.06978 0.49561 0.0
C439 C 0.67632 0.03753 0.51674 0.0
C440 C 0.67569 0.03284 0.58568 0.0
C441 C 0.64162 0.66064 0.88212 0.0
C442 C 0.65194 0.65658 0.8199 0.0
C443 C 0.65117 0.65041 0.93837 0.0
C444 C 0.67105 0.63523 0.93464 0.0
H445 H 0.6252 0.67098 0.88746 0.0
H446 H 0.64148 0.65292 0.98478 0.0
S447 S 0.70763 0.62192 0.78438 0.0
N448 N 0.68559 0.63887 0.75859 0.0
N449 N 0.70312 0.61922 0.8642 0.0
C450 C 0.68294 0.63252 0.87312 0.0
C451 C 0.67354 0.64334 0.81582 0.0
C452 C 0.0095 0.65559 0.27657 0.0
C453 C 0.04453 0.67131 0.27404 0.0
C454 C 0.99049 0.64803 0.21946 0.0
C455 C 1.00564 0.65612 0.15727 0.0
H456 H 0.99651 0.64772 0.32281 0.0
H457 H 0.96353 0.63489 0.22427 0.0
S458 S 0.09692 0.70122 0.12447 0.0
N459 N 0.09387 0.69744 0.20438 0.0
N460 N 0.05818 0.68338 0.09746 0.0
C461 C 0.04076 0.67355 0.15429 0.0
C462 C 0.06014 0.68104 0.21248 0.0
C463 C 0.3479 0.98932 0.54024 0.0
C464 C 0.35563 1.00436 0.47815 0.0
C465 C 0.36061 0.00842 0.59689 0.0
C466 C 0.3819 0.04334 0.59378 0.0
H467 H 0.33259 0.96238 0.54525 0.0
H468 H 0.35484 0.99547 0.64322 0.0
S469 S 0.40705 0.09553 0.44402 0.0
N470 N 0.38377 0.05679 0.41759 0.0
N471 N 0.40783 0.0926 0.5239 0.0
C472 C 0.38852 0.05893 0.53233 0.0
C473 C 0.37533 0.0395 0.47461 0.0
C474 C 0.47805 0.46634 0.11375 0.0
C475 C 0.46445 0.48762 0.10865 0.0
C476 C 0.5127 0.47917 0.11312 0.0
C477 C 0.53519 0.51379 0.10761 0.0
H478 H 0.46181 0.43946 0.11655 0.0
H479 H 0.52198 0.46181 0.11688 0.0
S480 S 0.51236 0.58031 0.09434 0.0
N481 N 0.47621 0.54514 0.10046 0.0
N482 N 0.5412 0.56917 0.09656 0.0
C483 C 0.52193 0.53541 0.10321 0.0
C484 C 0.48663 0.52234 0.10426 0.0
C485 C 1.00208 0.52674 0.44306 0.0
C486 C 0.03643 0.53979 0.45402 0.0
C487 C 0.9801 0.49212 0.43891 0.0
C488 C 0.99151 0.46911 0.44576 0.0
H489 H 0.9922 0.54341 0.43559 0.0
H490 H 0.95395 0.48328 0.42961 0.0
S491 S 0.07899 0.49038 0.47828 0.0
N492 N 0.08053 0.52693 0.47547 0.0
N493 N 0.0396 0.46202 0.46496 0.0
C494 C 0.02572 0.4818 0.45822 0.0
C495 C 0.04806 0.51708 0.46286 0.0
C496 C 0.50211 0.98031 0.77134 0.0
C497 C 0.53686 0.99314 0.77181 0.0
C498 C 0.48857 1.00158 0.77063 0.0
C499 C 0.50917 0.03669 0.7706 0.0
H500 H 0.48513 0.95352 0.77151 0.0
H501 H 0.46167 0.99027 0.76879 0.0
S502 S 0.60198 0.08327 0.77264 0.0
N503 N 0.59173 0.04346 0.77111 0.0
N504 N 0.56628 0.08333 0.77357 0.0
C505 C 0.54402 0.04993 0.77212 0.0
C506 C 0.55785 0.02822 0.77199 0.0
C507 C 0.53618 0.52464 0.66214 0.0
C508 C 0.52129 0.54274 0.63844 0.0
C509 C 0.51944 0.48954 0.65985 0.0
C510 C 0.48707 0.47116 0.63414 0.0
H511 H 0.56099 0.53771 0.6828 0.0
H512 H 0.53186 0.47663 0.67846 0.0
S513 S 0.43777 0.5064 0.56184 0.0
N514 N 0.47274 0.53954 0.58581 0.0
N515 N 0.44121 0.47356 0.58208 0.0
C516 C 0.4718 0.48885 0.6104 0.0
C517 C 0.4889 0.52463 0.61245 0.0
C518 C 1.00929 0.53477 1.00618 0.0
C519 C 0.97814 0.52194 0.9752 0.0
C520 C 0.02783 0.5183 1.00229 0.0
C521 C 0.01581 0.48814 0.96796 0.0
H522 H 0.01964 0.55796 1.03319 0.0
H523 H 0.0519 0.52934 1.02598 0.0
S524 S 0.93628 0.4441 0.87698 0.0
N525 N 0.93646 0.47728 0.9079 0.0
N526 N 0.97113 0.44605 0.90202 0.0
C527 C 0.98444 0.47452 0.93799 0.0
C528 C 0.96563 0.49146 0.94131 0.0
C529 C 0.51515 0.02432 0.35092 0.0
C530 C 0.53518 0.01855 0.30704 0.0
C531 C 0.48019 1.00576 0.34785 0.0
C532 C 0.46385 0.98059 0.30099 0.0
H533 H 0.5266 0.04337 0.38799 0.0
H534 H 0.46576 0.01118 0.38234 0.0
S535 S 0.50458 0.9568 0.17246 0.0
N536 N 0.53596 0.98659 0.21363 0.0
N537 N 0.47023 0.95151 0.20843 0.0
C538 C 0.48348 0.97433 0.25708 0.0
C539 C 0.51914 0.99335 0.25997 0.0
loop_
_geom_bond_atom_site_label_1
_geom_bond_atom_site_label_2
_geom_bond_distance
_geom_bond_site_symmetry_2
_ccdc_geom_bond_type
Cu0 N1 1.999 . S
Cu0 O6 1.974 . S
Cu0 N11 1.985 . S
Cu0 O20 1.959 1_554 S
N1 Cu0 1.999 . S
N1 C3 1.263 . S
N1 C5 1.389 . S
N2 C3 1.358 . S
N2 C4 1.400 . S
C3 N1 1.263 . S
C3 N2 1.358 . S
C3 H9 0.930 . S
C4 N2 1.400 . S
C4 C5 1.351 . S
C4 H21 0.930 . S
C5 N1 1.389 . S
C5 C4 1.351 . S
C5 H10 0.930 . S
O6 Cu0 1.974 . S
O6 C16 1.282 . S
C7 O8 1.261 . S
C7 O20 1.251 . S
O8 C7 1.261 . S
H9 C3 0.930 . S
H10 C5 0.930 . S
N11 Cu0 1.985 . S
N11 C13 1.335 . S
N11 C14 1.390 . S
N12 C13 1.345 . S
N12 C15 1.336 . S
C13 N11 1.335 . S
C13 N12 1.345 . S
C13 H18 0.930 . S
C14 N11 1.390 . S
C14 C15 1.346 . S
C14 H19 0.930 . S
C15 N12 1.336 . S
C15 C14 1.346 . S
C15 H22 0.929 . S
C16 O6 1.282 . S
C16 O17 1.216 . S
O17 C16 1.216 . S
H18 C13 0.930 . S
H19 C14 0.930 . S
O20 Cu0 1.959 1_556 S
O20 C7 1.251 . S
H21 C4 0.930 . S
H22 C15 0.929 . S
Cu23 N24 1.999 . S
Cu23 O29 1.974 . S
Cu23 N34 1.985 . S
Cu23 O43 1.959 . S
N24 Cu23 1.999 . S
N24 C26 1.263 1_655 S
N24 C28 1.389 . S
N25 C26 1.358 . S
N25 C27 1.400 1_455 S
C26 N24 1.263 1_455 S
C26 N25 1.358 . S
C26 H32 0.930 . S
C27 N25 1.400 1_655 S
C27 C28 1.351 . S
C27 H44 0.928 . S
C28 N24 1.389 . S
C28 C27 1.351 . S
C28 H33 0.930 . S
O29 Cu23 1.974 . S
O29 C39 1.282 . S
C30 O31 1.261 1_655 S
C30 O43 1.251 . S
O31 C30 1.261 1_455 S
H32 C26 0.930 . S
H33 C28 0.930 . S
N34 Cu23 1.985 . S
N34 C36 1.335 . S
N34 C37 1.390 . S
N35 C36 1.345 . S
N35 C38 1.336 . S
C36 N34 1.335 . S
C36 N35 1.345 . S
C36 H41 0.930 . S
C37 N34 1.390 . S
C37 C38 1.346 . S
C37 H42 0.930 . S
C38 N35 1.336 . S
C38 C37 1.346 . S
C38 H45 0.929 . S
C39 O29 1.282 . S
C39 O40 1.216 1_655 S
O40 C39 1.216 1_455 S
H41 C36 0.930 . S
H42 C37 0.930 . S
O43 Cu23 1.959 . S
O43 C30 1.251 . S
H44 C27 0.928 . S
H45 C38 0.929 . S
Cu46 N47 1.999 . S
Cu46 O52 1.974 . S
Cu46 N57 1.985 . S
Cu46 O66 1.959 . S
N47 Cu46 1.999 . S
N47 C49 1.263 1_565 S
N47 C51 1.389 . S
N48 C49 1.358 . S
N48 C50 1.400 1_545 S
C49 N47 1.263 1_545 S
C49 N48 1.358 . S
C49 H55 0.930 . S
C50 N48 1.400 1_565 S
C50 C51 1.351 . S
C50 H67 0.933 . S
C51 N47 1.389 . S
C51 C50 1.351 . S
C51 H56 0.930 . S
O52 Cu46 1.974 . S
O52 C62 1.282 . S
C53 O54 1.261 1_565 S
C53 O66 1.251 . S
O54 C53 1.261 1_545 S
H55 C49 0.930 . S
H56 C51 0.930 . S
N57 Cu46 1.985 . S
N57 C59 1.335 . S
N57 C60 1.390 . S
N58 C59 1.345 . S
N58 C61 1.336 . S
C59 N57 1.335 . S
C59 N58 1.345 . S
C59 H64 0.930 . S
C60 N57 1.390 . S
C60 C61 1.346 . S
C60 H65 0.930 . S
C61 N58 1.336 . S
C61 C60 1.346 . S
C61 H68 0.929 . S
C62 O52 1.282 . S
C62 O63 1.216 1_565 S
O63 C62 1.216 1_545 S
H64 C59 0.930 . S
H65 C60 0.930 . S
O66 Cu46 1.959 . S
O66 C53 1.251 . S
H67 C50 0.933 . S
H68 C61 0.929 . S
Cu69 N70 1.999 . S
Cu69 O75 1.974 . S
Cu69 N80 1.985 . S
Cu69 O89 1.959 1_554 S
N70 Cu69 1.999 . S
N70 C72 1.263 . S
N70 C74 1.389 . S
N71 C72 1.358 . S
N71 C73 1.400 . S
C72 N70 1.263 . S
C72 N71 1.358 . S
C72 H78 0.930 . S
C73 N71 1.400 . S
C73 C74 1.351 . S
C73 H90 0.930 . S
C74 N70 1.389 . S
C74 C73 1.351 . S
C74 H79 0.930 . S
O75 Cu69 1.974 . S
O75 C85 1.282 . S
C76 O77 1.261 . S
C76 O89 1.251 . S
O77 C76 1.261 . S
H78 C72 0.930 . S
H79 C74 0.930 . S
N80 Cu69 1.985 . S
N80 C82 1.335 . S
N80 C83 1.390 . S
N81 C82 1.345 . S
N81 C84 1.336 . S
C82 N80 1.335 . S
C82 N81 1.345 . S
C82 H87 0.930 . S
C83 N80 1.390 . S
C83 C84 1.346 . S
C83 H88 0.930 . S
C84 N81 1.336 . S
C84 C83 1.346 . S
C84 H91 0.929 . S
C85 O75 1.282 . S
C85 O86 1.216 . S
O86 C85 1.216 . S
H87 C82 0.930 . S
H88 C83 0.930 . S
O89 Cu69 1.959 1_556 S
O89 C76 1.251 . S
H90 C73 0.930 . S
H91 C84 0.929 . S
Cu92 N93 1.999 . S
Cu92 O98 1.974 . S
Cu92 N103 1.985 . S
Cu92 O112 1.959 . S
N93 Cu92 1.999 . S
N93 C95 1.263 1_455 S
N93 C97 1.389 . S
N94 C95 1.358 . S
N94 C96 1.400 1_655 S
C95 N93 1.263 1_655 S
C95 N94 1.358 . S
C95 H101 0.930 . S
C96 N94 1.400 1_455 S
C96 C97 1.351 . S
C96 H113 0.928 . S
C97 N93 1.389 . S
C97 C96 1.351 . S
C97 H102 0.930 . S
O98 Cu92 1.974 . S
O98 C108 1.282 . S
C99 O100 1.261 1_455 S
C99 O112 1.251 . S
O100 C99 1.261 1_655 S
H101 C95 0.930 . S
H102 C97 0.930 . S
N103 Cu92 1.985 . S
N103 C105 1.335 . S
N103 C106 1.390 . S
N104 C105 1.345 . S
N104 C107 1.336 . S
C105 N103 1.335 . S
C105 N104 1.345 . S
C105 H110 0.930 . S
C106 N103 1.390 . S
C106 C107 1.346 . S
C106 H111 0.930 . S
C107 N104 1.336 . S
C107 C106 1.346 . S
C107 H114 0.929 . S
C108 O98 1.282 . S
C108 O109 1.216 1_455 S
O109 C108 1.216 1_655 S
H110 C105 0.930 . S
H111 C106 0.930 . S
O112 Cu92 1.959 . S
O112 C99 1.251 . S
H113 C96 0.928 . S
H114 C107 0.929 . S
Cu115 N116 1.999 . S
Cu115 O121 1.974 . S
Cu115 N126 1.985 . S
Cu115 O135 1.959 . S
N116 Cu115 1.999 . S
N116 C118 1.263 1_545 S
N116 C120 1.389 . S
N117 C118 1.358 . S
N117 C119 1.400 1_565 S
C118 N116 1.263 1_565 S
C118 N117 1.358 . S
C118 H124 0.930 . S
C119 N117 1.400 1_545 S
C119 C120 1.351 . S
C119 H136 0.933 . S
C120 N116 1.389 . S
C120 C119 1.351 . S
C120 H125 0.930 . S
O121 Cu115 1.974 . S
O121 C131 1.282 . S
C122 O123 1.261 1_545 S
C122 O135 1.251 . S
O123 C122 1.261 1_565 S
H124 C118 0.930 . S
H125 C120 0.930 . S
N126 Cu115 1.985 . S
N126 C128 1.335 . S
N126 C129 1.390 . S
N127 C128 1.345 . S
N127 C130 1.336 . S
C128 N126 1.335 . S
C128 N127 1.345 . S
C128 H133 0.930 . S
C129 N126 1.390 . S
C129 C130 1.346 . S
C129 H134 0.930 . S
C130 N127 1.336 . S
C130 C129 1.346 . S
C130 H137 0.929 . S
C131 O121 1.282 . S
C131 O132 1.216 1_545 S
O132 C131 1.216 1_565 S
H133 C128 0.930 . S
H134 C129 0.930 . S
O135 Cu115 1.959 . S
O135 C122 1.251 . S
H136 C119 0.933 . S
H137 C130 0.929 . S
Cu138 N139 1.999 . S
Cu138 O144 1.974 . S
Cu138 N149 1.985 . S
Cu138 O158 1.959 . S
N139 Cu138 1.999 . S
N139 C141 1.263 . S
N139 C143 1.389 . S
N140 C141 1.358 . S
N140 C142 1.400 . S
C141 N139 1.263 . S
C141 N140 1.358 . S
C141 H147 0.930 . S
C142 N140 1.400 . S
C142 C143 1.351 . S
C142 H159 0.930 . S
C143 N139 1.389 . S
C143 C142 1.351 . S
C143 H148 0.930 . S
O144 Cu138 1.974 . S
O144 C154 1.282 . S
C145 O146 1.261 . S
C145 O158 1.251 . S
O146 C145 1.261 . S
H147 C141 0.930 . S
H148 C143 0.930 . S
N149 Cu138 1.985 . S
N149 C151 1.335 . S
N149 C152 1.390 . S
N150 C151 1.345 . S
N150 C153 1.336 . S
C151 N149 1.335 . S
C151 N150 1.345 . S
C151 H156 0.930 . S
C152 N149 1.390 . S
C152 C153 1.346 . S
C152 H157 0.930 . S
C153 N150 1.336 . S
C153 C152 1.346 . S
C153 H160 0.929 . S
C154 O144 1.282 . S
C154 O155 1.216 . S
O155 C154 1.216 . S
H156 C151 0.930 . S
H157 C152 0.930 . S
O158 Cu138 1.959 . S
O158 C145 1.251 . S
H159 C142 0.930 . S
H160 C153 0.929 . S
Cu161 N162 1.999 . S
Cu161 O167 1.974 . S
Cu161 N172 1.985 . S
Cu161 O181 1.959 1_556 S
N162 Cu161 1.999 . S
N162 C164 1.263 1_655 S
N162 C166 1.389 . S
N163 C164 1.358 . S
N163 C165 1.400 1_455 S
C164 N162 1.263 1_455 S
C164 N163 1.358 . S
C164 H170 0.930 . S
C165 N163 1.400 1_655 S
C165 C166 1.351 . S
C165 H182 0.934 . S
C166 N162 1.389 . S
C166 C165 1.351 . S
C166 H171 0.930 . S
O167 Cu161 1.974 . S
O167 C177 1.282 . S
C168 O169 1.261 1_655 S
C168 O181 1.251 . S
O169 C168 1.261 1_455 S
H170 C164 0.930 . S
H171 C166 0.930 . S
N172 Cu161 1.985 . S
N172 C174 1.335 . S
N172 C175 1.390 . S
N173 C174 1.345 . S
N173 C176 1.336 . S
C174 N172 1.335 . S
C174 N173 1.345 . S
C174 H179 0.930 . S
C175 N172 1.390 . S
C175 C176 1.346 . S
C175 H180 0.930 . S
C176 N173 1.336 . S
C176 C175 1.346 . S
C176 H183 0.929 . S
C177 O167 1.282 . S
C177 O178 1.216 1_655 S
O178 C177 1.216 1_455 S
H179 C174 0.930 . S
H180 C175 0.930 . S
O181 Cu161 1.959 1_554 S
O181 C168 1.251 . S
H182 C165 0.934 . S
H183 C176 0.929 . S
Cu184 N185 1.999 . S
Cu184 O190 1.974 . S
Cu184 N195 1.985 . S
Cu184 O204 1.959 . S
N185 Cu184 1.999 . S
N185 C187 1.263 1_565 S
N185 C189 1.389 . S
N186 C187 1.358 . S
N186 C188 1.400 1_545 S
C187 N185 1.263 1_545 S
C187 N186 1.358 . S
C187 H193 0.930 . S
C188 N186 1.400 1_565 S
C188 C189 1.351 . S
C188 H205 0.928 . S
C189 N185 1.389 . S
C189 C188 1.351 . S
C189 H194 0.930 . S
O190 Cu184 1.974 . S
O190 C200 1.282 . S
C191 O192 1.261 1_565 S
C191 O204 1.251 . S
O192 C191 1.261 1_545 S
H193 C187 0.930 . S
H194 C189 0.930 . S
N195 Cu184 1.985 . S
N195 C197 1.335 . S
N195 C198 1.390 . S
N196 C197 1.345 . S
N196 C199 1.336 . S
C197 N195 1.335 . S
C197 N196 1.345 . S
C197 H202 0.930 . S
C198 N195 1.390 . S
C198 C199 1.346 . S
C198 H203 0.930 . S
C199 N196 1.336 . S
C199 C198 1.346 . S
C199 H206 0.929 . S
C200 O190 1.282 . S
C200 O201 1.216 1_565 S
O201 C200 1.216 1_545 S
H202 C197 0.930 . S
H203 C198 0.930 . S
O204 Cu184 1.959 . S
O204 C191 1.251 . S
H205 C188 0.928 . S
H206 C199 0.929 . S
Cu207 N208 1.999 . S
Cu207 O213 1.974 . S
Cu207 N218 1.985 . S
Cu207 O227 1.959 . S
N208 Cu207 1.999 . S
N208 C210 1.263 . S
N208 C212 1.389 . S
N209 C210 1.358 . S
N209 C211 1.400 . S
C210 N208 1.263 . S
C210 N209 1.358 . S
C210 H216 0.930 . S
C211 N209 1.400 . S
C211 C212 1.351 . S
C211 H228 0.930 . S
C212 N208 1.389 . S
C212 C211 1.351 . S
C212 H217 0.930 . S
O213 Cu207 1.974 . S
O213 C223 1.282 . S
C214 O215 1.261 . S
C214 O227 1.251 . S
O215 C214 1.261 . S
H216 C210 0.930 . S
H217 C212 0.930 . S
N218 Cu207 1.985 . S
N218 C220 1.335 . S
N218 C221 1.390 . S
N219 C220 1.345 . S
N219 C222 1.336 . S
C220 N218 1.335 . S
C220 N219 1.345 . S
C220 H225 0.930 . S
C221 N218 1.390 . S
C221 C222 1.346 . S
C221 H226 0.930 . S
C222 N219 1.336 . S
C222 C221 1.346 . S
C222 H229 0.929 . S
C223 O213 1.282 . S
C223 O224 1.216 . S
O224 C223 1.216 . S
H225 C220 0.930 . S
H226 C221 0.930 . S
O227 Cu207 1.959 . S
O227 C214 1.251 . S
H228 C211 0.930 . S
H229 C222 0.929 . S
Cu230 N231 1.999 . S
Cu230 O236 1.974 . S
Cu230 N241 1.985 . S
Cu230 O250 1.959 1_556 S
N231 Cu230 1.999 . S
N231 C233 1.263 1_455 S
N231 C235 1.389 . S
N232 C233 1.358 . S
N232 C234 1.400 1_655 S
C233 N231 1.263 1_655 S
C233 N232 1.358 . S
C233 H239 0.930 . S
C234 N232 1.400 1_455 S
C234 C235 1.351 . S
C234 H251 0.934 . S
C235 N231 1.389 . S
C235 C234 1.351 . S
C235 H240 0.930 . S
O236 Cu230 1.974 . S
O236 C246 1.282 . S
C237 O238 1.261 1_455 S
C237 O250 1.251 . S
O238 C237 1.261 1_655 S
H239 C233 0.930 . S
H240 C235 0.930 . S
N241 Cu230 1.985 . S
N241 C243 1.335 . S
N241 C244 1.390 . S
N242 C243 1.345 . S
N242 C245 1.336 . S
C243 N241 1.335 . S
C243 N242 1.345 . S
C243 H248 0.930 . S
C244 N241 1.390 . S
C244 C245 1.346 . S
C244 H249 0.930 . S
C245 N242 1.336 . S
C245 C244 1.346 . S
C245 H252 0.929 . S
C246 O236 1.282 . S
C246 O247 1.216 1_455 S
O247 C246 1.216 1_655 S
H248 C243 0.930 . S
H249 C244 0.930 . S
O250 Cu230 1.959 1_554 S
O250 C237 1.251 . S
H251 C234 0.934 . S
H252 C245 0.929 . S
Cu253 N254 1.999 . S
Cu253 O259 1.974 . S
Cu253 N264 1.985 . S
Cu253 O273 1.959 . S
N254 Cu253 1.999 . S
N254 C256 1.263 1_545 S
N254 C258 1.389 . S
N255 C256 1.358 . S
N255 C257 1.400 1_565 S
C256 N254 1.263 1_565 S
C256 N255 1.358 . S
C256 H262 0.930 . S
C257 N255 1.400 1_545 S
C257 C258 1.351 . S
C257 H274 0.928 . S
C258 N254 1.389 . S
C258 C257 1.351 . S
C258 H263 0.930 . S
O259 Cu253 1.974 . S
O259 C269 1.282 . S
C260 O261 1.261 1_545 S
C260 O273 1.251 . S
O261 C260 1.261 1_565 S
H262 C256 0.930 . S
H263 C258 0.930 . S
N264 Cu253 1.985 . S
N264 C266 1.335 . S
N264 C267 1.390 . S
N265 C266 1.345 . S
N265 C268 1.336 . S
C266 N264 1.335 . S
C266 N265 1.345 . S
C266 H271 0.930 . S
C267 N264 1.390 . S
C267 C268 1.346 . S
C267 H272 0.930 . S
C268 N265 1.336 . S
C268 C267 1.346 . S
C268 H275 0.929 . S
C269 O259 1.282 . S
C269 O270 1.216 1_545 S
O270 C269 1.216 1_565 S
H271 C266 0.930 . S
H272 C267 0.930 . S
O273 Cu253 1.959 . S
O273 C260 1.251 . S
H274 C257 0.928 . S
H275 C268 0.929 . S
C276 C277 1.369 . S
C276 C278 1.419 . S
C276 H280 0.930 . S
C277 C276 1.369 . S
C277 C286 1.429 . S
C278 C276 1.419 . S
C278 C279 1.363 . S
C278 H281 0.929 . S
C279 C278 1.363 . S
C279 C285 1.428 . S
H280 C276 0.930 . S
H281 C278 0.929 . S
S282 N283 1.613 . S
S282 N284 1.610 . S
N283 S282 1.613 . S
N283 C286 1.350 . S
N284 S282 1.610 . S
N284 C285 1.351 . S
C285 C279 1.428 . S
C285 N284 1.351 . S
C285 C286 1.434 . S
C286 C277 1.429 . S
C286 N283 1.350 . S
C286 C285 1.434 . S
C287 C288 1.369 1_455 S
C287 C289 1.419 . S
C287 H291 0.930 . S
C288 C287 1.369 1_655 S
C288 C297 1.429 . S
C289 C287 1.419 . S
C289 C290 1.363 . S
C289 H292 0.929 . S
C290 C289 1.363 . S
C290 C296 1.428 1_455 S
H291 C287 0.930 . S
H292 C289 0.929 . S
S293 N294 1.613 . S
S293 N295 1.610 . S
N294 S293 1.613 . S
N294 C297 1.350 . S
N295 S293 1.610 . S
N295 C296 1.351 . S
C296 C290 1.428 1_655 S
C296 N295 1.351 . S
C296 C297 1.434 . S
C297 C288 1.429 . S
C297 N294 1.350 . S
C297 C296 1.434 . S
C298 C299 1.369 1_545 S
C298 C300 1.419 1_556 S
C298 H302 0.930 . S
C299 C298 1.369 1_565 S
C299 C308 1.429 . S
C300 C298 1.419 1_554 S
C300 C301 1.363 . S
C300 H303 0.929 . S
C301 C300 1.363 . S
C301 C307 1.428 1_545 S
H302 C298 0.930 . S
H303 C300 0.929 . S
S304 N305 1.613 1_554 S
S304 N306 1.610 . S
N305 S304 1.613 1_556 S
N305 C308 1.350 . S
N306 S304 1.610 . S
N306 C307 1.351 . S
C307 C301 1.428 1_565 S
C307 N306 1.351 . S
C307 C308 1.434 1_554 S
C308 C299 1.429 . S
C308 N305 1.350 . S
C308 C307 1.434 1_556 S
C309 C310 1.369 . S
C309 C311 1.419 . S
C309 H313 0.930 . S
C310 C309 1.369 . S
C310 C319 1.429 . S
C311 C309 1.419 . S
C311 C312 1.363 . S
C311 H314 0.929 . S
C312 C311 1.363 . S
C312 C318 1.428 . S
H313 C309 0.930 . S
H314 C311 0.929 . S
S315 N316 1.613 . S
S315 N317 1.610 . S
N316 S315 1.613 . S
N316 C319 1.350 . S
N317 S315 1.610 . S
N317 C318 1.351 . S
C318 C312 1.428 . S
C318 N317 1.351 . S
C318 C319 1.434 . S
C319 C310 1.429 . S
C319 N316 1.350 . S
C319 C318 1.434 . S
C320 C321 1.369 1_455 S
C320 C322 1.419 . S
C320 H324 0.930 . S
C321 C320 1.369 1_655 S
C321 C330 1.429 . S
C322 C320 1.419 . S
C322 C323 1.363 . S
C322 H325 0.929 . S
C323 C322 1.363 . S
C323 C329 1.428 1_455 S
H324 C320 0.930 . S
H325 C322 0.929 . S
S326 N327 1.613 . S
S326 N328 1.610 . S
N327 S326 1.613 . S
N327 C330 1.350 . S
N328 S326 1.610 . S
N328 C329 1.351 . S
C329 C323 1.428 1_655 S
C329 N328 1.351 . S
C329 C330 1.434 . S
C330 C321 1.429 . S
C330 N327 1.350 . S
C330 C329 1.434 . S
C331 C332 1.369 . S
C331 C333 1.419 1_554 S
C331 H335 0.930 . S
C332 C331 1.369 . S
C332 C341 1.429 1_565 S
C333 C331 1.419 1_556 S
C333 C334 1.363 1_565 S
C333 H336 0.929 . S
C334 C333 1.363 1_545 S
C334 C340 1.428 . S
H335 C331 0.930 . S
H336 C333 0.929 . S
S337 N338 1.613 . S
S337 N339 1.610 1_554 S
N338 S337 1.613 . S
N338 C341 1.350 . S
N339 S337 1.610 1_556 S
N339 C340 1.351 . S
C340 C334 1.428 . S
C340 N339 1.351 . S
C340 C341 1.434 1_556 S
C341 C332 1.429 1_545 S
C341 N338 1.350 . S
C341 C340 1.434 1_554 S
C342 C343 1.369 1_554 S
C342 C344 1.419 . S
C342 H346 0.930 . S
C343 C342 1.369 1_556 S
C343 C352 1.429 . S
C344 C342 1.419 . S
C344 C345 1.363 . S
C344 H347 0.929 . S
C345 C344 1.363 . S
C345 C351 1.428 1_554 S
H346 C342 0.930 . S
H347 C344 0.929 . S
S348 N349 1.613 . S
S348 N350 1.610 . S
N349 S348 1.613 . S
N349 C352 1.350 . S
N350 S348 1.610 . S
N350 C351 1.351 . S
C351 C345 1.428 1_556 S
C351 N350 1.351 . S
C351 C352 1.434 . S
C352 C343 1.429 . S
C352 N349 1.350 . S
C352 C351 1.434 . S
C353 C354 1.369 . S
C353 C355 1.419 . S
C353 H357 0.930 . S
C354 C353 1.369 . S
C354 C363 1.429 . S
C355 C353 1.419 . S
C355 C356 1.363 . S
C355 H358 0.929 . S
C356 C355 1.363 . S
C356 C362 1.428 . S
H357 C353 0.930 . S
H358 C355 0.929 . S
S359 N360 1.613 . S
S359 N361 1.610 . S
N360 S359 1.613 . S
N360 C363 1.350 . S
N361 S359 1.610 . S
N361 C362 1.351 . S
C362 C356 1.428 . S
C362 N361 1.351 . S
C362 C363 1.434 . S
C363 C354 1.429 . S
C363 N360 1.350 . S
C363 C362 1.434 . S
C364 C365 1.369 . S
C364 C366 1.419 . S
C364 H368 0.930 . S
C365 C364 1.369 . S
C365 C374 1.429 . S
C366 C364 1.419 . S
C366 C367 1.363 . S
C366 H369 0.929 . S
C367 C366 1.363 . S
C367 C373 1.428 . S
H368 C364 0.930 . S
H369 C366 0.929 . S
S370 N371 1.613 . S
S370 N372 1.610 . S
N371 S370 1.613 . S
N371 C374 1.350 . S
N372 S370 1.610 . S
N372 C373 1.351 . S
C373 C367 1.428 . S
C373 N372 1.351 . S
C373 C374 1.434 . S
C374 C365 1.429 . S
C374 N371 1.350 . S
C374 C373 1.434 . S
C375 C376 1.369 1_556 S
C375 C377 1.419 . S
C375 H379 0.930 . S
C376 C375 1.369 1_554 S
C376 C385 1.429 . S
C377 C375 1.419 . S
C377 C378 1.363 . S
C377 H380 0.929 . S
C378 C377 1.363 . S
C378 C384 1.428 1_556 S
H379 C375 0.930 . S
H380 C377 0.929 . S
S381 N382 1.613 . S
S381 N383 1.610 . S
N382 S381 1.613 . S
N382 C385 1.350 . S
N383 S381 1.610 . S
N383 C384 1.351 . S
C384 C378 1.428 1_554 S
C384 N383 1.351 . S
C384 C385 1.434 . S
C385 C376 1.429 . S
C385 N382 1.350 . S
C385 C384 1.434 . S
C386 C387 1.369 . S
C386 C388 1.419 . S
C386 H390 0.930 . S
C387 C386 1.369 . S
C387 C396 1.429 . S
C388 C386 1.419 . S
C388 C389 1.363 . S
C388 H391 0.929 . S
C389 C388 1.363 . S
C389 C395 1.428 . S
H390 C386 0.930 . S
H391 C388 0.929 . S
S392 N393 1.613 . S
S392 N394 1.610 . S
N393 S392 1.613 . S
N393 C396 1.350 . S
N394 S392 1.610 . S
N394 C395 1.351 . S
C395 C389 1.428 . S
C395 N394 1.351 . S
C395 C396 1.434 . S
C396 C387 1.429 . S
C396 N393 1.350 . S
C396 C395 1.434 . S
C397 C398 1.369 . S
C397 C399 1.419 . S
C397 H401 0.930 . S
C398 C397 1.369 . S
C398 C407 1.429 . S
C399 C397 1.419 . S
C399 C400 1.363 . S
C399 H402 0.929 . S
C400 C399 1.363 . S
C400 C406 1.428 . S
H401 C397 0.930 . S
H402 C399 0.929 . S
S403 N404 1.613 . S
S403 N405 1.610 . S
N404 S403 1.613 . S
N404 C407 1.350 . S
N405 S403 1.610 . S
N405 C406 1.351 . S
C406 C400 1.428 . S
C406 N405 1.351 . S
C406 C407 1.434 . S
C407 C398 1.429 . S
C407 N404 1.350 . S
C407 C406 1.434 . S
C408 C409 1.369 . S
C408 C410 1.419 . S
C408 H412 0.930 . S
C409 C408 1.369 . S
C409 C418 1.429 . S
C410 C408 1.419 . S
C410 C411 1.363 . S
C410 H413 0.929 . S
C411 C410 1.363 . S
C411 C417 1.428 . S
H412 C408 0.930 . S
H413 C410 0.929 . S
S414 N415 1.613 . S
S414 N416 1.610 . S
N415 S414 1.613 . S
N415 C418 1.350 . S
N416 S414 1.610 . S
N416 C417 1.351 . S
C417 C411 1.428 . S
C417 N416 1.351 . S
C417 C418 1.434 . S
C418 C409 1.429 . S
C418 N415 1.350 . S
C418 C417 1.434 . S
C419 C420 1.369 1_455 S
C419 C421 1.419 . S
C419 H423 0.930 . S
C420 C419 1.369 1_655 S
C420 C429 1.429 . S
C421 C419 1.419 . S
C421 C422 1.363 . S
C421 H424 0.929 . S
C422 C421 1.363 . S
C422 C428 1.428 1_455 S
H423 C419 0.930 . S
H424 C421 0.929 . S
S425 N426 1.613 . S
S425 N427 1.610 . S
N426 S425 1.613 . S
N426 C429 1.350 . S
N427 S425 1.610 . S
N427 C428 1.351 . S
C428 C422 1.428 1_655 S
C428 N427 1.351 . S
C428 C429 1.434 . S
C429 C420 1.429 . S
C429 N426 1.350 . S
C429 C428 1.434 . S
C430 C431 1.369 . S
C430 C432 1.419 . S
C430 H434 0.930 . S
C431 C430 1.369 . S
C431 C440 1.429 1_565 S
C432 C430 1.419 . S
C432 C433 1.363 1_565 S
C432 H435 0.929 . S
C433 C432 1.363 1_545 S
C433 C439 1.428 . S
H434 C430 0.930 . S
H435 C432 0.929 . S
S436 N437 1.613 . S
S436 N438 1.610 . S
N437 S436 1.613 . S
N437 C440 1.350 . S
N438 S436 1.610 . S
N438 C439 1.351 . S
C439 C433 1.428 . S
C439 N438 1.351 . S
C439 C440 1.434 . S
C440 C431 1.429 1_545 S
C440 N437 1.350 . S
C440 C439 1.434 . S
C441 C442 1.369 . S
C441 C443 1.419 . S
C441 H445 0.930 . S
C442 C441 1.369 . S
C442 C451 1.429 . S
C443 C441 1.419 . S
C443 C444 1.363 . S
C443 H446 0.929 . S
C444 C443 1.363 . S
C444 C450 1.428 . S
H445 C441 0.930 . S
H446 C443 0.929 . S
S447 N448 1.613 . S
S447 N449 1.610 . S
N448 S447 1.613 . S
N448 C451 1.350 . S
N449 S447 1.610 . S
N449 C450 1.351 . S
C450 C444 1.428 . S
C450 N449 1.351 . S
C450 C451 1.434 . S
C451 C442 1.429 . S
C451 N448 1.350 . S
C451 C450 1.434 . S
C452 C453 1.369 . S
C452 C454 1.419 . S
C452 H456 0.930 . S
C453 C452 1.369 . S
C453 C462 1.429 1_455 S
C454 C452 1.419 . S
C454 C455 1.363 1_455 S
C454 H457 0.929 . S
C455 C454 1.363 1_655 S
C455 C461 1.428 . S
H456 C452 0.930 . S
H457 C454 0.929 . S
S458 N459 1.613 . S
S458 N460 1.610 . S
N459 S458 1.613 . S
N459 C462 1.350 . S
N460 S458 1.610 . S
N460 C461 1.351 . S
C461 C455 1.428 . S
C461 N460 1.351 . S
C461 C462 1.434 . S
C462 C453 1.429 1_655 S
C462 N459 1.350 . S
C462 C461 1.434 . S
C463 C464 1.369 1_545 S
C463 C465 1.419 . S
C463 H467 0.930 . S
C464 C463 1.369 1_565 S
C464 C473 1.429 . S
C465 C463 1.419 . S
C465 C466 1.363 . S
C465 H468 0.929 . S
C466 C465 1.363 . S
C466 C472 1.428 1_545 S
H467 C463 0.930 . S
H468 C465 0.929 . S
S469 N470 1.613 . S
S469 N471 1.610 . S
N470 S469 1.613 . S
N470 C473 1.350 . S
N471 S469 1.610 . S
N471 C472 1.351 . S
C472 C466 1.428 1_565 S
C472 N471 1.351 . S
C472 C473 1.434 . S
C473 C464 1.429 . S
C473 N470 1.350 . S
C473 C472 1.434 . S
C474 C475 1.369 . S
C474 C476 1.419 . S
C474 H478 0.930 . S
C475 C474 1.369 . S
C475 C484 1.429 . S
C476 C474 1.419 . S
C476 C477 1.363 . S
C476 H479 0.929 . S
C477 C476 1.363 . S
C477 C483 1.428 . S
H478 C474 0.930 . S
H479 C476 0.929 . S
S480 N481 1.613 . S
S480 N482 1.610 . S
N481 S480 1.613 . S
N481 C484 1.350 . S
N482 S480 1.610 . S
N482 C483 1.351 . S
C483 C477 1.428 . S
C483 N482 1.351 . S
C483 C484 1.434 . S
C484 C475 1.429 . S
C484 N481 1.350 . S
C484 C483 1.434 . S
C485 C486 1.369 . S
C485 C487 1.419 . S
C485 H489 0.930 . S
C486 C485 1.369 . S
C486 C495 1.429 1_655 S
C487 C485 1.419 . S
C487 C488 1.363 1_655 S
C487 H490 0.929 . S
C488 C487 1.363 1_455 S
C488 C494 1.428 . S
H489 C485 0.930 . S
H490 C487 0.929 . S
S491 N492 1.613 . S
S491 N493 1.610 . S
N492 S491 1.613 . S
N492 C495 1.350 . S
N493 S491 1.610 . S
N493 C494 1.351 . S
C494 C488 1.428 . S
C494 N493 1.351 . S
C494 C495 1.434 . S
C495 C486 1.429 1_455 S
C495 N492 1.350 . S
C495 C494 1.434 . S
C496 C497 1.369 1_565 S
C496 C498 1.419 . S
C496 H500 0.930 . S
C497 C496 1.369 1_545 S
C497 C506 1.429 . S
C498 C496 1.419 . S
C498 C499 1.363 . S
C498 H501 0.929 . S
C499 C498 1.363 . S
C499 C505 1.428 1_565 S
H500 C496 0.930 . S
H501 C498 0.929 . S
S502 N503 1.613 . S
S502 N504 1.610 . S
N503 S502 1.613 . S
N503 C506 1.350 . S
N504 S502 1.610 . S
N504 C505 1.351 . S
C505 C499 1.428 1_545 S
C505 N504 1.351 . S
C505 C506 1.434 . S
C506 C497 1.429 . S
C506 N503 1.350 . S
C506 C505 1.434 . S
C507 C508 1.369 . S
C507 C509 1.419 . S
C507 H511 0.930 . S
C508 C507 1.369 . S
C508 C517 1.429 . S
C509 C507 1.419 . S
C509 C510 1.363 . S
C509 H512 0.929 . S
C510 C509 1.363 . S
C510 C516 1.428 . S
H511 C507 0.930 . S
H512 C509 0.929 . S
S513 N514 1.613 . S
S513 N515 1.610 . S
N514 S513 1.613 . S
N514 C517 1.350 . S
N515 S513 1.610 . S
N515 C516 1.351 . S
C516 C510 1.428 . S
C516 N515 1.351 . S
C516 C517 1.434 . S
C517 C508 1.429 . S
C517 N514 1.350 . S
C517 C516 1.434 . S
C518 C519 1.369 . S
C518 C520 1.419 1_455 S
C518 H522 0.930 . S
C519 C518 1.369 . S
C519 C528 1.429 . S
C520 C518 1.419 1_655 S
C520 C521 1.363 . S
C520 H523 0.929 . S
C521 C520 1.363 . S
C521 C527 1.428 . S
H522 C518 0.930 . S
H523 C520 0.929 . S
S524 N525 1.613 1_655 S
S524 N526 1.610 . S
N525 S524 1.613 1_455 S
N525 C528 1.350 . S
N526 S524 1.610 . S
N526 C527 1.351 . S
C527 C521 1.428 . S
C527 N526 1.351 . S
C527 C528 1.434 1_655 S
C528 C519 1.429 . S
C528 N525 1.350 . S
C528 C527 1.434 1_455 S
C529 C530 1.369 . S
C529 C531 1.419 1_565 S
C529 H533 0.930 . S
C530 C529 1.369 . S
C530 C539 1.429 . S
C531 C529 1.419 1_545 S
C531 C532 1.363 . S
C531 H534 0.929 . S
C532 C531 1.363 . S
C532 C538 1.428 . S
H533 C529 0.930 . S
H534 C531 0.929 . S
S535 N536 1.613 1_545 S
S535 N537 1.610 . S
N536 S535 1.613 1_565 S
N536 C539 1.350 . S
N537 S535 1.610 . S
N537 C538 1.351 . S
C538 C532 1.428 . S
C538 N537 1.351 . S
C538 C539 1.434 1_545 S
C539 C530 1.429 . S
C539 N536 1.350 . S
C539 C538 1.434 1_565 S
C277 C16 1.506 . S
C279 C223 1.499 . S
C288 C39 1.506 . S
C290 C246 1.501 . S
C299 C62 1.504 . S
C301 C269 1.498 . S
C310 C85 1.498 . S
C312 C154 1.503 . S
C321 C177 1.506 . S
C323 C108 1.499 . S
C332 C200 1.499 . S
C334 C131 1.505 . S
C343 N242 2.104 . S
C345 N12 2.104 . S
C354 N35 2.101 . S
C356 N265 2.101 . S
C365 N58 2.105 . S
C367 N150 2.103 . S
C376 N81 2.102 . S
C378 N173 2.104 . S
C387 N104 2.102 . S
C389 N196 2.101 . S
C398 N127 2.100 . S
C400 N219 2.103 . S
C409 C214 1.628 . S
C411 C7 1.622 . S
C420 C30 1.628 . S
C422 C237 1.622 . S
C431 C53 1.622 . S
C433 C260 1.626 . S
C442 C145 1.627 . S
C444 C76 1.623 . S
C453 C99 1.622 . S
C455 C168 1.625 . S
C464 C191 1.627 . S
C466 C122 1.622 . S
C475 N2 2.104 . S
C477 N71 2.113 . S
C486 N94 2.104 . S
C488 N25 2.113 . S
C497 N48 2.115 . S
C499 N117 2.106 . S
C508 N140 2.110 . S
C510 N209 2.113 . S
C519 N163 2.110 . S
C521 N232 2.113 . S
C530 N255 2.110 . S
C532 N186 2.113 . S
