# Generated by pormake.
# Topology yfy, (5)-cn, num edge types: 1
# Building blocks:
#     Node 0, Type 0, BuildingBlock: BEQFEK_clean_sbu_0, # of connection points: 5
#     Node 1, Type 0, BuildingBlock: BEQFEK_clean_sbu_0, # of connection points: 5
#     Node 2, Type 0, BuildingBlock: BEQFEK_clean_sbu_0, # of connection points: 5
#     Node 3, Type 0, BuildingBlock: BEQFEK_clean_sbu_0, # of connection points: 5
#     Node 4, Type 0, BuildingBlock: BEQFEK_clean_sbu_0, # of connection points: 5
#     Node 5, Type 0, BuildingBlock: BEQFEK_clean_sbu_0, # of connection points: 5
#     Node 6, Type 0, BuildingBlock: BEQFEK_clean_sbu_0, # of connection points: 5
#     Node 7, Type 0, BuildingBlock: BEQFEK_clean_sbu_0, # of connection points: 5
#     Node 8, Type 0, BuildingBlock: BEQFEK_clean_sbu_0, # of connection points: 5
#     Node 9, Type 0, BuildingBlock: BEQFEK_clean_sbu_0, # of connection points: 5
#     Node 10, Type 0, BuildingBlock: BEQFEK_clean_sbu_0, # of connection points: 5
#     Node 11, Type 0, BuildingBlock: BEQFEK_clean_sbu_0, # of connection points: 5
#     Node 12, Type 0, BuildingBlock: BEQFEK_clean_sbu_0, # of connection points: 5
#     Node 13, Type 0, BuildingBlock: BEQFEK_clean_sbu_0, # of connection points: 5
#     Node 14, Type 0, BuildingBlock: BEQFEK_clean_sbu_0, # of connection points: 5
#     Node 15, Type 0, BuildingBlock: BEQFEK_clean_sbu_0, # of connection points: 5
#     Edge 16, Type (0, 0), BuildingBlock: EZIPEK_clean_linker_0, # of connection points: 2
#     Edge 17, Type (0, 0), BuildingBlock: EZIPEK_clean_linker_0, # of connection points: 2
#     Edge 18, Type (0, 0), BuildingBlock: EZIPEK_clean_linker_0, # of connection points: 2
#     Edge 19, Type (0, 0), BuildingBlock: EZIPEK_clean_linker_0, # of connection points: 2
#     Edge 20, Type (0, 0), BuildingBlock: EZIPEK_clean_linker_0, # of connection points: 2
#     Edge 21, Type (0, 0), BuildingBlock: EZIPEK_clean_linker_0, # of connection points: 2
#     Edge 22, Type (0, 0), BuildingBlock: EZIPEK_clean_linker_0, # of connection points: 2
#     Edge 23, Type (0, 0), BuildingBlock: EZIPEK_clean_linker_0, # of connection points: 2
#     Edge 24, Type (0, 0), BuildingBlock: EZIPEK_clean_linker_0, # of connection points: 2
#     Edge 25, Type (0, 0), BuildingBlock: EZIPEK_clean_linker_0, # of connection points: 2
#     Edge 26, Type (0, 0), BuildingBlock: EZIPEK_clean_linker_0, # of connection points: 2
#     Edge 27, Type (0, 0), BuildingBlock: EZIPEK_clean_linker_0, # of connection points: 2
#     Edge 28, Type (0, 0), BuildingBlock: EZIPEK_clean_linker_0, # of connection points: 2
#     Edge 29, Type (0, 0), BuildingBlock: EZIPEK_clean_linker_0, # of connection points: 2
#     Edge 30, Type (0, 0), BuildingBlock: EZIPEK_clean_linker_0, # of connection points: 2
#     Edge 31, Type (0, 0), BuildingBlock: EZIPEK_clean_linker_0, # of connection points: 2
#     Edge 32, Type (0, 0), BuildingBlock: EZIPEK_clean_linker_0, # of connection points: 2
#     Edge 33, Type (0, 0), BuildingBlock: EZIPEK_clean_linker_0, # of connection points: 2
#     Edge 34, Type (0, 0), BuildingBlock: EZIPEK_clean_linker_0, # of connection points: 2
#     Edge 35, Type (0, 0), BuildingBlock: EZIPEK_clean_linker_0, # of connection points: 2
#     Edge 36, Type (0, 0), BuildingBlock: EZIPEK_clean_linker_0, # of connection points: 2
#     Edge 37, Type (0, 0), BuildingBlock: EZIPEK_clean_linker_0, # of connection points: 2
#     Edge 38, Type (0, 0), BuildingBlock: EZIPEK_clean_linker_0, # of connection points: 2
#     Edge 39, Type (0, 0), BuildingBlock: EZIPEK_clean_linker_0, # of connection points: 2
#     Edge 40, Type (0, 0), BuildingBlock: EZIPEK_clean_linker_0, # of connection points: 2
#     Edge 41, Type (0, 0), BuildingBlock: EZIPEK_clean_linker_0, # of connection points: 2
#     Edge 42, Type (0, 0), BuildingBlock: EZIPEK_clean_linker_0, # of connection points: 2
#     Edge 43, Type (0, 0), BuildingBlock: EZIPEK_clean_linker_0, # of connection points: 2
#     Edge 44, Type (0, 0), BuildingBlock: EZIPEK_clean_linker_0, # of connection points: 2
#     Edge 45, Type (0, 0), BuildingBlock: EZIPEK_clean_linker_0, # of connection points: 2
#     Edge 46, Type (0, 0), BuildingBlock: EZIPEK_clean_linker_0, # of connection points: 2
#     Edge 47, Type (0, 0), BuildingBlock: EZIPEK_clean_linker_0, # of connection points: 2
#     Edge 48, Type (0, 0), BuildingBlock: EZIPEK_clean_linker_0, # of connection points: 2
#     Edge 49, Type (0, 0), BuildingBlock: EZIPEK_clean_linker_0, # of connection points: 2
#     Edge 50, Type (0, 0), BuildingBlock: EZIPEK_clean_linker_0, # of connection points: 2
#     Edge 51, Type (0, 0), BuildingBlock: EZIPEK_clean_linker_0, # of connection points: 2
#     Edge 52, Type (0, 0), BuildingBlock: EZIPEK_clean_linker_0, # of connection points: 2
#     Edge 53, Type (0, 0), BuildingBlock: EZIPEK_clean_linker_0, # of connection points: 2
#     Edge 54, Type (0, 0), BuildingBlock: EZIPEK_clean_linker_0, # of connection points: 2
#     Edge 55, Type (0, 0), BuildingBlock: EZIPEK_clean_linker_0, # of connection points: 2
# Relax obj value: 0.053
# Max RMSD: 0.070
# Mean RMSD: 0.070
data_MOF--net-yfy--node1-BEQFEK_clean_sbu_0--edge1-EZIPEK_clean_linker_0
_symmetry_space_group_name_H-M    P1
_symmetry_Int_Tables_number       1
_symmetry_cell_setting            triclinic
loop_
_symmetry_equiv_pos_as_xyz
'x, y, z'
_cell_length_a     36.59967
_cell_length_b     36.849672
_cell_length_c     32.838879
_cell_angle_alpha  89.941804
_cell_angle_beta   89.902508
_cell_angle_gamma 90.025489
loop_
_atom_site_label
_atom_site_type_symbol
_atom_site_fract_x
_atom_site_fract_y
_atom_site_fract_z
_atom_type_partial_charge
Co0 Co 0.16292 0.30145 0.34984 0.0
Co1 Co 0.11018 0.36751 0.33559 0.0
C2 C 0.08539 0.29393 0.31716 0.0
O3 O 0.11552 0.28098 0.32999 0.0
O4 O 0.08032 0.32792 0.31379 0.0
C5 C 0.20334 0.24138 0.31722 0.0
O6 O 0.18642 0.25084 0.28358 0.0
C7 C 0.05884 0.42083 0.30248 0.0
C8 C 0.07683 0.47101 0.33343 0.0
C9 C 0.05276 0.45789 0.30447 0.0
N10 N 0.08597 0.41255 0.32833 0.0
N11 N 0.09607 0.4425 0.34737 0.0
C12 C 0.03961 0.39371 0.27625 0.0
H13 H 0.02687 0.37271 0.29591 0.0
H14 H 0.05982 0.38001 0.25627 0.0
H15 H 0.01805 0.40652 0.2574 0.0
C16 C 0.21341 0.35164 0.30309 0.0
N17 N 0.18045 0.34247 0.31883 0.0
N18 N 0.15758 0.36937 0.31196 0.0
C19 C 0.17503 0.39569 0.29085 0.0
C20 C 0.21095 0.38552 0.28493 0.0
C21 C 0.24746 0.33002 0.30798 0.0
H22 H 0.25279 0.32651 0.34097 0.0
H23 H 0.24362 0.30311 0.29364 0.0
H24 H 0.27129 0.34363 0.29363 0.0
O25 O 0.15151 0.31519 0.40717 0.0
O26 O 0.11107 0.3589 0.39491 0.0
H27 H 0.17451 0.44366 0.25298 0.0
H28 H 0.13024 0.42591 0.26682 0.0
C29 C 0.15835 0.43077 0.27771 0.0
H30 H 0.15762 0.44966 0.30393 0.0
H31 H 0.11693 0.44362 0.36896 0.0
O32 O 0.19817 0.25994 0.34942 0.0
C33 C 0.1276 0.3379 0.41949 0.0
Co34 Co 0.89941 0.1578 0.35089 0.0
Co35 Co 0.83328 0.10529 0.33669 0.0
C36 C 0.90886 0.08177 0.31786 0.0
O37 O 0.92123 0.11296 0.32728 0.0
O38 O 0.87479 0.07502 0.31838 0.0
C39 C 0.957 0.20117 0.31824 0.0
O40 O 0.94469 0.18766 0.28388 0.0
C41 C 0.78142 0.05435 0.30011 0.0
C42 C 0.72997 0.07018 0.33075 0.0
C43 C 0.74424 0.04736 0.30127 0.0
N44 N 0.78866 0.08074 0.32708 0.0
N45 N 0.75795 0.08964 0.34579 0.0
C46 C 0.80967 0.03661 0.27383 0.0
H47 H 0.83014 0.02303 0.29351 0.0
H48 H 0.82416 0.05766 0.25578 0.0
H49 H 0.7975 0.01616 0.25314 0.0
C50 C 0.84802 0.2089 0.30707 0.0
N51 N 0.85785 0.17572 0.32107 0.0
N52 N 0.83146 0.15261 0.31273 0.0
C53 C 0.80489 0.17014 0.29196 0.0
C54 C 0.81426 0.20637 0.288 0.0
C55 C 0.86861 0.24307 0.31514 0.0
H56 H 0.87428 0.24487 0.34822 0.0
H57 H 0.89488 0.24243 0.29837 0.0
H58 H 0.85298 0.26736 0.30536 0.0
O59 O 0.88629 0.14328 0.40785 0.0
O60 O 0.83857 0.10723 0.39646 0.0
H61 H 0.75065 0.15164 0.30366 0.0
H62 H 0.75717 0.16977 0.25338 0.0
C63 C 0.77003 0.1533 0.27776 0.0
H64 H 0.77547 0.1257 0.26605 0.0
H65 H 0.75597 0.10972 0.36806 0.0
O66 O 0.94059 0.19332 0.35134 0.0
C67 C 0.86143 0.12173 0.42064 0.0
Co68 Co 0.04024 0.89422 0.34755 0.0
Co69 Co 0.09169 0.82678 0.33515 0.0
C70 C 0.11775 0.9001 0.31482 0.0
O71 O 0.08771 0.91373 0.327 0.0
O72 O 0.12241 0.86594 0.31273 0.0
C73 C 1.00378 0.95565 0.3126 0.0
O74 O 0.02587 0.94885 0.28199 0.0
C75 C 0.13556 0.77131 0.29487 0.0
C76 C 0.13848 0.72824 0.34166 0.0
C77 C 0.1499 0.73731 0.30273 0.0
N78 N 0.11643 0.78201 0.32761 0.0
N79 N 0.1183 0.7562 0.35554 0.0
C80 C 0.13974 0.79326 0.25683 0.0
H81 H 0.11601 0.81169 0.25296 0.0
H82 H 0.14256 0.7753 0.22988 0.0
H83 H 0.1648 0.81008 0.25925 0.0
C84 C 0.98868 0.84472 0.30392 0.0
N85 N 0.0222 0.85303 0.31836 0.0
N86 N 0.04399 0.8251 0.31257 0.0
C87 C 0.02517 0.79844 0.29375 0.0
C88 C 0.98957 0.81 0.28752 0.0
C89 C 0.95586 0.86851 0.30815 0.0
H90 H 0.95591 0.88187 0.33841 0.0
H91 H 0.957 0.8899 0.28449 0.0
H92 H 0.93022 0.85282 0.30418 0.0
O93 O 0.05152 0.8813 0.40546 0.0
O94 O 0.09064 0.83601 0.39445 0.0
H95 H 0.05064 0.749 0.31269 0.0
H96 H 0.01911 0.74362 0.27082 0.0
C97 C 0.04016 0.76161 0.28435 0.0
H98 H 0.06323 0.7643 0.26266 0.0
H99 H 0.10589 0.75774 0.38411 0.0
O100 O 1.00474 0.9354 0.34411 0.0
C101 C 0.07457 0.85794 0.41847 0.0
Co102 Co 0.30295 0.03716 0.35172 0.0
Co103 Co 0.36939 0.08835 0.3349 0.0
C104 C 0.29727 0.11405 0.31604 0.0
O105 O 0.28407 0.08552 0.33242 0.0
O106 O 0.33114 0.11677 0.30845 0.0
C107 C 0.2453 0.99419 0.31659 0.0
O108 O 0.2593 1.0061 0.28221 0.0
C109 C 0.42367 0.13883 0.30119 0.0
C110 C 0.47416 0.12091 0.33207 0.0
C111 C 0.46097 0.14487 0.3031 0.0
N112 N 0.41522 0.11194 0.32723 0.0
N113 N 0.44541 0.10179 0.34611 0.0
C114 C 0.39652 0.15807 0.27485 0.0
H115 H 0.37529 0.17067 0.29437 0.0
H116 H 0.38293 0.13813 0.25461 0.0
H117 H 0.40953 0.1796 0.25617 0.0
C118 C 0.35374 0.98479 0.30837 0.0
N119 N 0.34433 0.01824 0.32187 0.0
N120 N 0.37123 0.04074 0.31333 0.0
C121 C 0.39747 0.0228 0.29261 0.0
C122 C 0.38752 0.98677 0.28917 0.0
C123 C 0.33292 0.95089 0.31723 0.0
H124 H 0.32712 0.94968 0.35034 0.0
H125 H 0.30674 0.9513 0.3004 0.0
H126 H 0.34849 0.92636 0.30808 0.0
O127 O 0.31655 0.04742 0.4089 0.0
O128 O 0.35892 0.08907 0.395 0.0
H129 H 0.45226 0.04046 0.30247 0.0
H130 H 0.44419 0.02276 0.25237 0.0
C131 C 0.43219 0.03927 0.27727 0.0
H132 H 0.42688 0.06703 0.26591 0.0
H133 H 0.44653 0.08109 0.36776 0.0
O134 O 0.26021 1.00336 0.35006 0.0
C135 C 0.33877 0.07202 0.42038 0.0
Co136 Co 0.1641 0.89506 0.65513 0.0
Co137 Co 0.11002 0.83032 0.66863 0.0
C138 C 0.08583 0.90361 0.68757 0.0
O139 O 0.11637 0.91569 0.67459 0.0
O140 O 0.0798 0.86977 0.6907 0.0
C141 C 0.20156 0.95469 0.69138 0.0
O142 O 0.17936 0.94743 0.72179 0.0
C143 C 0.05912 0.77672 0.70267 0.0
C144 C 0.07617 0.72675 0.67066 0.0
C145 C 0.05285 0.73965 0.70059 0.0
N146 N 0.08555 0.78519 0.67584 0.0
N147 N 0.09516 0.75533 0.65629 0.0
C148 C 0.04082 0.80365 0.73002 0.0
H149 H 0.02724 0.82466 0.71116 0.0
H150 H 0.06174 0.8174 0.74898 0.0
H151 H 0.02007 0.79067 0.74992 0.0
C152 C 0.214 0.84491 0.69969 0.0
N153 N 0.18072 0.85425 0.68533 0.0
N154 N 0.15763 0.82763 0.69251 0.0
C155 C 0.17537 0.80107 0.71288 0.0
C156 C 0.2116 0.81099 0.71793 0.0
C157 C 0.24797 0.86673 0.69342 0.0
H158 H 0.24737 0.88006 0.66313 0.0
H159 H 0.24928 0.88812 0.71703 0.0
H160 H 0.27273 0.8495 0.69607 0.0
O161 O 0.15513 0.88127 0.59726 0.0
O162 O 0.11178 0.84027 0.60898 0.0
H163 H 0.1577 0.74731 0.69921 0.0
H164 H 0.17519 0.75267 0.74999 0.0
C165 C 0.15877 0.76585 0.72574 0.0
H166 H 0.13075 0.77061 0.73709 0.0
H167 H 0.11554 0.75429 0.63408 0.0
O168 O 0.20029 0.93529 0.6593 0.0
C169 C 0.12999 0.86015 0.58442 0.0
Co170 Co 0.3031 0.15724 0.65939 0.0
Co171 Co 0.37149 0.1069 0.66996 0.0
C172 C 0.29615 0.08097 0.6899 0.0
O173 O 0.28247 0.11199 0.68247 0.0
O174 O 0.33035 0.07533 0.68741 0.0
C175 C 0.24063 0.19349 0.69145 0.0
O176 O 0.24491 0.1697 0.72086 0.0
C177 C 0.42313 0.05644 0.70713 0.0
C178 C 0.4747 0.07111 0.676 0.0
C179 C 0.46015 0.04883 0.7059 0.0
N180 N 0.4162 0.08259 0.67974 0.0
N181 N 0.44699 0.09086 0.66078 0.0
C182 C 0.39465 0.03922 0.73362 0.0
H183 H 0.37471 0.02468 0.71414 0.0
H184 H 0.37963 0.06065 0.75046 0.0
H185 H 0.40665 0.01958 0.75541 0.0
C186 C 0.35219 0.20842 0.70405 0.0
N187 N 0.3443 0.17533 0.68862 0.0
N188 N 0.37236 0.15369 0.69457 0.0
C189 C 0.39871 0.17222 0.71447 0.0
C190 C 0.387 0.20753 0.72086 0.0
C191 C 0.32775 0.24076 0.70071 0.0
H192 H 0.31733 0.2431 0.6691 0.0
H193 H 0.304 0.23698 0.72121 0.0
H194 H 0.3422 0.26609 0.70935 0.0
O195 O 0.31557 0.14303 0.60182 0.0
O196 O 0.3662 0.1104 0.61053 0.0
H197 H 0.45255 0.15566 0.69795 0.0
H198 H 0.44939 0.17467 0.74821 0.0
C199 C 0.43529 0.15721 0.72565 0.0
H200 H 0.43204 0.12963 0.73851 0.0
H201 H 0.44919 0.11056 0.63807 0.0
O202 O 0.26278 0.19351 0.66143 0.0
C203 C 0.34146 0.12342 0.58759 0.0
Co204 Co 0.03876 0.30013 0.65708 0.0
Co205 Co 0.09331 0.36502 0.6677 0.0
C206 C 0.11712 0.29187 0.68821 0.0
O207 O 0.08643 0.27973 0.67598 0.0
O208 O 0.12346 0.32571 0.69039 0.0
C209 C 1.00125 0.24036 0.69445 0.0
O210 O 0.02335 0.24765 0.72483 0.0
C211 C 0.1387 0.42087 0.7049 0.0
C212 C 0.14193 0.46234 0.65631 0.0
C213 C 0.15333 0.45446 0.69552 0.0
N214 N 0.11934 0.40931 0.67279 0.0
N215 N 0.12147 0.43411 0.64374 0.0
C216 C 0.14255 0.40027 0.74392 0.0
H217 H 0.11911 0.38151 0.74815 0.0
H218 H 0.14453 0.4192 0.7701 0.0
H219 H 0.16799 0.38393 0.74272 0.0
C220 C 0.99009 0.3512 0.70174 0.0
N221 N 0.02307 0.34162 0.6868 0.0
N222 N 0.04602 0.36876 0.6918 0.0
C223 C 0.0284 0.39625 0.71063 0.0
C224 C 0.99247 0.38596 0.71769 0.0
C225 C 0.95629 0.3287 0.69798 0.0
H226 H 0.95581 0.31492 0.66797 0.0
H227 H 0.9565 0.30763 0.72204 0.0
H228 H 0.93132 0.34546 0.70172 0.0
O229 O 0.04708 0.31311 0.59869 0.0
O230 O 0.0905 0.35433 0.60873 0.0
H231 H 0.05541 0.44443 0.6901 0.0
H232 H 0.02424 0.4517 0.73206 0.0
C233 C 0.04464 0.43278 0.71885 0.0
H234 H 0.06767 0.42984 0.74045 0.0
H235 H 0.10885 0.43182 0.61541 0.0
O236 O 1.00252 0.25981 0.66234 0.0
C237 C 0.07189 0.33425 0.58498 0.0
Co238 Co 0.89858 0.0373 0.65965 0.0
Co239 Co 0.83145 0.08935 0.67174 0.0
C240 C 0.90687 0.1138 0.69109 0.0
O241 O 0.91973 0.08263 0.68252 0.0
O242 O 0.87272 0.12014 0.68996 0.0
C243 C 0.96056 1.00011 0.69182 0.0
O244 O 0.95584 0.02323 0.72179 0.0
C245 C 0.77883 0.13981 0.70805 0.0
C246 C 0.72781 0.12394 0.67675 0.0
C247 C 0.74161 0.1466 0.70664 0.0
N248 N 0.78654 0.11372 0.68084 0.0
N249 N 0.75608 0.10481 0.66174 0.0
C250 C 0.80671 0.15746 0.73482 0.0
H251 H 0.82739 0.17125 0.71551 0.0
H252 H 0.82103 0.13633 0.75284 0.0
H253 H 0.79424 0.17773 0.75554 0.0
C254 C 0.84796 0.98649 0.70303 0.0
N255 N 0.85699 0.01977 0.68884 0.0
N256 N 0.82974 0.04219 0.6959 0.0
C257 C 0.80301 0.024 0.71575 0.0
C258 C 0.81345 0.98813 0.72063 0.0
C259 C 0.87102 0.95337 0.69769 0.0
H260 H 0.88184 0.9524 0.66612 0.0
H261 H 0.89461 0.95492 0.71873 0.0
H262 H 0.85531 0.92828 0.70437 0.0
O263 O 0.88605 0.05098 0.60209 0.0
O264 O 0.83766 0.08658 0.61222 0.0
H265 H 0.74893 0.04106 0.70111 0.0
H266 H 0.75349 0.02288 0.75165 0.0
C267 C 0.76706 0.03979 0.72807 0.0
H268 H 0.77115 0.06749 0.74015 0.0
H269 H 0.75444 0.08491 0.63924 0.0
O270 O 0.93869 1.00063 0.66163 0.0
C271 C 0.86106 0.07205 0.58862 0.0
Co272 Co 0.66236 0.80017 0.85015 0.0
Co273 Co 0.60756 0.86394 0.83559 0.0
C274 C 0.58388 0.79009 0.81872 0.0
O275 O 0.61456 0.77867 0.8319 0.0
O276 O 0.57749 0.82379 0.81465 0.0
C277 C 0.70372 0.74133 0.81647 0.0
O278 O 0.68743 0.75161 0.78276 0.0
C279 C 0.55569 0.91684 0.80244 0.0
C280 C 0.57364 0.9672 0.83306 0.0
C281 C 0.54964 0.95395 0.80408 0.0
N282 N 0.58273 0.90871 0.82849 0.0
N283 N 0.5928 0.93876 0.84732 0.0
C284 C 0.5367 0.88955 0.7762 0.0
H285 H 0.52405 0.86848 0.79584 0.0
H286 H 0.55704 0.87594 0.75631 0.0
H287 H 0.5151 0.90221 0.75727 0.0
C288 C 0.71153 0.8507 0.80293 0.0
N289 N 0.6786 0.8407 0.81805 0.0
N290 N 0.655 0.86689 0.81086 0.0
C291 C 0.6721 0.89366 0.78997 0.0
C292 C 0.70845 0.88447 0.78458 0.0
C293 C 0.74614 0.83028 0.80937 0.0
H294 H 0.74981 0.82582 0.8425 0.0
H295 H 0.7442 0.80371 0.79379 0.0
H296 H 0.77012 0.84521 0.79716 0.0
O297 O 0.65382 0.81548 0.90745 0.0
O298 O 0.60976 0.85542 0.89529 0.0
H299 H 0.65436 0.94742 0.80347 0.0
H300 H 0.67064 0.94161 0.75223 0.0
C301 C 0.6549 0.92857 0.7772 0.0
H302 H 0.6267 0.92344 0.7668 0.0
H303 H 0.61368 0.94004 0.86886 0.0
O304 O 0.69797 0.75909 0.84911 0.0
C305 C 0.62854 0.83648 0.92006 0.0
Co306 Co 0.39687 0.65354 0.84462 0.0
Co307 Co 0.32628 0.60601 0.83746 0.0
C308 C 0.40172 0.57815 0.81511 0.0
O309 O 0.41682 0.60897 0.81939 0.0
O310 O 0.36761 0.57379 0.82124 0.0
C311 C 0.46099 0.69014 0.81485 0.0
O312 O 0.45811 0.66614 0.78549 0.0
C313 C 0.27281 0.56158 0.7947 0.0
C314 C 0.22824 0.55709 0.83996 0.0
C315 C 0.23883 0.54623 0.80136 0.0
N316 N 0.28204 0.5807 0.82785 0.0
N317 N 0.25534 0.5779 0.85486 0.0
C318 C 0.29619 0.55825 0.75752 0.0
H319 H 0.31477 0.58196 0.75493 0.0
H320 H 0.27898 0.5559 0.72983 0.0
H321 H 0.31309 0.53336 0.76005 0.0
C322 C 0.34756 0.70589 0.80079 0.0
N323 N 0.35511 0.67275 0.81637 0.0
N324 N 0.32616 0.65196 0.81195 0.0
C325 C 0.29949 0.67101 0.79335 0.0
C326 C 0.31213 0.7058 0.78552 0.0
C327 C 0.37296 0.7376 0.80262 0.0
H328 H 0.3838 0.74046 0.83399 0.0
H329 H 0.39638 0.73258 0.78199 0.0
H330 H 0.35913 0.76309 0.79332 0.0
O331 O 0.38503 0.63674 0.90212 0.0
O332 O 0.32999 0.61184 0.89662 0.0
H333 H 0.24983 0.6472 0.81512 0.0
H334 H 0.2436 0.67848 0.77322 0.0
C335 C 0.26163 0.65714 0.78605 0.0
H336 H 0.2628 0.63404 0.7645 0.0
H337 H 0.25573 0.59002 0.88354 0.0
O338 O 0.4376 0.69005 0.84374 0.0
C339 C 0.35746 0.6206 0.91805 0.0
Co340 Co 0.53923 0.39459 0.85246 0.0
Co341 Co 0.591 0.32801 0.83782 0.0
C342 C 0.61663 0.40148 0.81891 0.0
O343 O 0.58658 0.41464 0.83171 0.0
O344 O 0.62148 0.36743 0.81612 0.0
C345 C 0.49449 0.44997 0.81637 0.0
O346 O 0.505 0.43421 0.78244 0.0
C347 C 0.642 0.27489 0.80348 0.0
C348 C 0.62417 0.22431 0.83387 0.0
C349 C 0.64822 0.23783 0.805 0.0
N350 N 0.61488 0.28282 0.8296 0.0
N351 N 0.60482 0.25261 0.84824 0.0
C352 C 0.66126 0.30236 0.7776 0.0
H353 H 0.67439 0.32282 0.79757 0.0
H354 H 0.64103 0.31663 0.75822 0.0
H355 H 0.68257 0.28977 0.75816 0.0
C356 C 0.48705 0.3444 0.80877 0.0
N357 N 0.52066 0.3536 0.82256 0.0
N358 N 0.54332 0.32676 0.81461 0.0
C359 C 0.52518 0.30056 0.79418 0.0
C360 C 0.48896 0.31062 0.79014 0.0
C361 C 0.45291 0.36521 0.81741 0.0
H362 H 0.45129 0.38901 0.7969 0.0
H363 H 0.42821 0.3483 0.81252 0.0
H364 H 0.45352 0.37469 0.84939 0.0
O365 O 0.55072 0.38088 0.90988 0.0
O366 O 0.59002 0.33607 0.89755 0.0
H367 H 0.52498 0.25326 0.75537 0.0
H368 H 0.56959 0.27049 0.76861 0.0
C369 C 0.54156 0.26564 0.77998 0.0
H370 H 0.5425 0.24627 0.8058 0.0
H371 H 0.58402 0.25118 0.86995 0.0
O372 O 0.50491 0.43668 0.85027 0.0
C373 C 0.57388 0.35738 0.92221 0.0
Co374 Co 0.80422 0.53705 0.84943 0.0
Co375 Co 0.87055 0.58865 0.83177 0.0
C376 C 0.79752 0.61407 0.8148 0.0
O377 O 0.7846 0.58508 0.83041 0.0
O378 O 0.83145 0.61764 0.80784 0.0
C379 C 0.745 0.49463 0.81637 0.0
O380 O 0.75741 0.50725 0.78156 0.0
C381 C 0.92416 0.63936 0.79717 0.0
C382 C 0.97517 0.62123 0.82683 0.0
C383 C 0.96151 0.64535 0.79831 0.0
N384 N 0.91616 0.6123 0.82316 0.0
N385 N 0.94667 0.60205 0.84135 0.0
C386 C 0.8965 0.65884 0.77175 0.0
H387 H 0.87572 0.67134 0.79198 0.0
H388 H 0.88237 0.63905 0.75177 0.0
H389 H 0.90917 0.68044 0.75289 0.0
C390 C 0.85414 0.48535 0.80412 0.0
N391 N 0.84496 0.51866 0.8182 0.0
N392 N 0.87172 0.54126 0.8094 0.0
C393 C 0.8977 0.52348 0.7881 0.0
C394 C 0.88771 0.48748 0.78448 0.0
C395 C 0.83324 0.45144 0.81275 0.0
H396 H 0.82826 0.44957 0.84599 0.0
H397 H 0.80663 0.4525 0.79682 0.0
H398 H 0.84832 0.42698 0.80244 0.0
O399 O 0.81923 0.54738 0.9063 0.0
O400 O 0.86196 0.58856 0.89187 0.0
H401 H 0.9526 0.54092 0.79772 0.0
H402 H 0.9442 0.52371 0.74749 0.0
C403 C 0.93236 0.54 0.77267 0.0
H404 H 0.92705 0.56786 0.76161 0.0
H405 H 0.94814 0.58124 0.86285 0.0
O406 O 0.76155 0.50299 0.84916 0.0
C407 C 0.84212 0.5715 0.91744 0.0
Co408 Co 0.66321 0.39481 0.15811 0.0
Co409 Co 0.60881 0.33086 0.17371 0.0
C410 C 0.58489 0.40425 0.19117 0.0
O411 O 0.61542 0.41558 0.17735 0.0
O412 O 0.57855 0.37056 0.19551 0.0
C413 C 0.70766 0.45122 0.19335 0.0
O414 O 0.69651 0.43692 0.22788 0.0
C415 C 0.5581 0.277 0.20797 0.0
C416 C 0.57579 0.22709 0.17624 0.0
C417 C 0.55222 0.23985 0.20601 0.0
N418 N 0.58456 0.28564 0.18124 0.0
N419 N 0.59453 0.25582 0.16186 0.0
C420 C 0.53944 0.30385 0.2351 0.0
H421 H 0.52603 0.32486 0.21608 0.0
H422 H 0.56012 0.31764 0.25434 0.0
H423 H 0.51852 0.29078 0.25471 0.0
C424 C 0.71361 0.344 0.20288 0.0
N425 N 0.68028 0.35418 0.18915 0.0
N426 N 0.65664 0.3283 0.19756 0.0
C427 C 0.67398 0.30172 0.21838 0.0
C428 C 0.71062 0.31054 0.22215 0.0
C429 C 0.7483 0.36376 0.1938 0.0
H430 H 0.74857 0.37158 0.16121 0.0
H431 H 0.74971 0.38869 0.21254 0.0
H432 H 0.7726 0.34681 0.2006 0.0
O433 O 0.6541 0.38005 0.10077 0.0
O434 O 0.61022 0.33996 0.11366 0.0
H435 H 0.65515 0.2479 0.20711 0.0
H436 H 0.67263 0.25469 0.25761 0.0
C437 C 0.65657 0.26737 0.23275 0.0
H438 H 0.62868 0.2732 0.24384 0.0
H439 H 0.61502 0.2549 0.13976 0.0
O440 O 0.69801 0.43651 0.15995 0.0
C441 C 0.62862 0.3591 0.08855 0.0
Co442 Co 0.80371 0.6558 0.15483 0.0
Co443 Co 0.87358 0.60876 0.16841 0.0
C444 C 0.79821 0.58081 0.1876 0.0
O445 O 0.78323 0.61129 0.18042 0.0
O446 O 0.83255 0.57643 0.18397 0.0
C447 C 0.74396 0.69795 0.18441 0.0
O448 O 0.75569 0.68491 0.21928 0.0
C449 C 0.92529 0.55913 0.20722 0.0
C450 C 0.97731 0.57553 0.17812 0.0
C451 C 0.9625 0.55242 0.20704 0.0
N452 N 0.91847 0.58559 0.18017 0.0
N453 N 0.94955 0.5949 0.16243 0.0
C454 C 0.89653 0.54066 0.2322 0.0
H455 H 0.8802 0.56137 0.24867 0.0
H456 H 0.90847 0.52117 0.25421 0.0
H457 H 0.87778 0.52576 0.21163 0.0
C458 C 0.8519 0.70995 0.19985 0.0
N459 N 0.84413 0.67646 0.18512 0.0
N460 N 0.87181 0.65492 0.19358 0.0
C461 C 0.89706 0.67351 0.21502 0.0
C462 C 0.88555 0.70897 0.2194 0.0
C463 C 0.82985 0.74319 0.19171 0.0
H464 H 0.82605 0.74592 0.15838 0.0
H465 H 0.80277 0.74061 0.20645 0.0
H466 H 0.84353 0.76792 0.20352 0.0
O467 O 0.81813 0.63861 0.09868 0.0
O468 O 0.87229 0.61317 0.10873 0.0
H469 H 0.95211 0.6577 0.20307 0.0
H470 H 0.94504 0.67573 0.25325 0.0
C471 C 0.93284 0.65853 0.22911 0.0
H472 H 0.92893 0.63075 0.24115 0.0
H473 H 0.95186 0.61496 0.14015 0.0
O474 O 0.76125 0.68996 0.15191 0.0
C475 C 0.84631 0.62198 0.08512 0.0
Co476 Co 0.53901 0.80176 0.15503 0.0
Co477 Co 0.59234 0.8668 0.17076 0.0
C478 C 0.61682 0.79255 0.18657 0.0
O479 O 0.58634 0.78033 0.17388 0.0
O480 O 0.62237 0.8264 0.19073 0.0
C481 C 0.49666 0.74399 0.1887 0.0
O482 O 0.51155 0.75565 0.22265 0.0
C483 C 0.64436 0.91881 0.20504 0.0
C484 C 0.62691 0.96986 0.17544 0.0
C485 C 0.651 0.9558 0.20384 0.0
N486 N 0.61695 0.91144 0.17923 0.0
N487 N 0.60711 0.94192 0.16104 0.0
C488 C 0.66342 0.89088 0.23038 0.0
H489 H 0.67612 0.87042 0.21004 0.0
H490 H 0.64311 0.87668 0.24983 0.0
H491 H 0.685 0.90306 0.24971 0.0
C492 C 0.48875 0.85151 0.20213 0.0
N493 N 0.52185 0.84214 0.18696 0.0
N494 N 0.5451 0.86842 0.19507 0.0
C495 C 0.52782 0.89442 0.21677 0.0
C496 C 0.49156 0.88479 0.22159 0.0
C497 C 0.4542 0.83119 0.1946 0.0
H498 H 0.45118 0.8271 0.16134 0.0
H499 H 0.4556 0.80446 0.20992 0.0
H500 H 0.43002 0.84604 0.20634 0.0
O501 O 0.54988 0.81664 0.09805 0.0
O502 O 0.59069 0.8599 0.11101 0.0
H503 H 0.5458 0.94856 0.2054 0.0
H504 H 0.5289 0.94133 0.25614 0.0
C505 C 0.54491 0.92897 0.23101 0.0
H506 H 0.57302 0.92358 0.24168 0.0
H507 H 0.58615 0.94376 0.13965 0.0
O508 O 0.50367 0.76055 0.15555 0.0
C509 C 0.57372 0.83961 0.08606 0.0
Co510 Co 0.39875 0.53955 0.15864 0.0
Co511 Co 0.33009 0.59003 0.16841 0.0
C512 C 0.40255 0.61697 0.1904 0.0
O513 O 0.41716 0.58763 0.17792 0.0
O514 O 0.36809 0.62034 0.19332 0.0
C515 C 0.46255 0.50474 0.1926 0.0
O516 O 0.45914 0.52962 0.22095 0.0
C517 C 0.27322 0.63355 0.20666 0.0
C518 C 0.23122 0.63689 0.15852 0.0
C519 C 0.23936 0.64811 0.19771 0.0
N520 N 0.28474 0.61449 0.17432 0.0
N521 N 0.25956 0.61659 0.14557 0.0
C522 C 0.29433 0.6376 0.24534 0.0
H523 H 0.31213 0.6136 0.2502 0.0
H524 H 0.2756 0.64117 0.27165 0.0
H525 H 0.312 0.662 0.24303 0.0
C526 C 0.34853 0.48869 0.20252 0.0
N527 N 0.35675 0.52176 0.18725 0.0
N528 N 0.32803 0.54295 0.19122 0.0
C529 C 0.30084 0.52418 0.20935 0.0
C530 C 0.31291 0.48925 0.21721 0.0
C531 C 0.37353 0.45667 0.20092 0.0
H532 H 0.3848 0.4538 0.1697 0.0
H533 H 0.39675 0.46132 0.22191 0.0
H534 H 0.35922 0.43133 0.2099 0.0
O535 O 0.3869 0.5491 0.10023 0.0
O536 O 0.34142 0.58859 0.10932 0.0
H537 H 0.25158 0.54877 0.18777 0.0
H538 H 0.24482 0.51757 0.22965 0.0
C539 C 0.26321 0.53864 0.21679 0.0
H540 H 0.26472 0.56166 0.23839 0.0
H541 H 0.26183 0.60432 0.11706 0.0
O542 O 0.43977 0.50388 0.16328 0.0
C543 C 0.36371 0.57179 0.08626 0.0
C544 C 0.09993 0.30324 0.478 0.0
C545 C 0.11394 0.33634 0.4621 0.0
C546 C 0.09 0.36824 0.52189 0.0
C547 C 0.08192 0.33448 0.54091 0.0
N548 N 0.08577 0.26866 0.53828 0.0
N549 N 0.12678 0.39993 0.47185 0.0
C550 C 0.08854 0.3016 0.51934 0.0
C551 C 0.11021 0.36877 0.4849 0.0
N552 N 0.09556 0.27371 0.45328 0.0
N553 N 0.07717 0.39979 0.53841 0.0
H554 H 0.14257 0.40114 0.44539 0.0
H555 H 0.12788 0.42349 0.48933 0.0
H556 H 0.06047 0.40029 0.56419 0.0
H557 H 0.07953 0.42488 0.52398 0.0
H558 H 0.08174 0.25036 0.46253 0.0
H559 H 0.10192 0.27378 0.42234 0.0
H560 H 0.09472 0.24463 0.52485 0.0
H561 H 0.07785 0.26522 0.56844 0.0
C562 C 0.86052 0.05898 0.51322 0.0
C563 C 0.86196 0.08439 0.54548 0.0
C564 C 0.85997 0.13456 0.49599 0.0
C565 C 0.86182 0.10919 0.46371 0.0
N566 N 0.87257 0.04728 0.44203 0.0
N567 N 0.87189 0.14646 0.56709 0.0
C568 C 0.86452 0.07136 0.47241 0.0
C569 C 0.86416 0.12225 0.53676 0.0
N570 N 0.854 0.02317 0.52134 0.0
N571 N 0.85286 0.17026 0.48793 0.0
H572 H 0.87622 0.13885 0.59727 0.0
H573 H 0.87773 0.1737 0.56162 0.0
H574 H 0.84912 0.18025 0.4585 0.0
H575 H 0.84723 0.18924 0.51058 0.0
H576 H 0.84865 1.00409 0.49872 0.0
H577 H 0.85055 0.01312 0.55079 0.0
H578 H 0.87877 0.02012 0.44747 0.0
H579 H 0.87679 0.05496 0.41184 0.0
C580 C 0.10978 0.82664 0.52163 0.0
C581 C 0.11907 0.86011 0.54052 0.0
C582 C 0.10241 0.89188 0.47734 0.0
C583 C 0.08754 0.85924 0.46139 0.0
N584 N 0.07217 0.79624 0.47151 0.0
N585 N 0.11704 0.92606 0.53761 0.0
C586 C 0.08982 0.82679 0.48449 0.0
C587 C 0.11352 0.89318 0.51878 0.0
N588 N 0.12134 0.79463 0.53824 0.0
N589 N 0.10788 0.92128 0.45261 0.0
H590 H 0.12465 0.92938 0.56784 0.0
H591 H 0.10888 0.95031 0.52401 0.0
H592 H 0.10163 0.92149 0.42167 0.0
H593 H 0.12242 0.94416 0.46187 0.0
H594 H 0.11812 0.76965 0.52384 0.0
H595 H 0.13795 0.79346 0.564 0.0
H596 H 0.07 0.7728 0.48913 0.0
H597 H 0.05654 0.79557 0.44497 0.0
C598 C 0.34339 0.07245 0.53643 0.0
C599 C 0.33993 0.11034 0.54469 0.0
C600 C 0.3281 0.1208 0.47236 0.0
C601 C 0.33814 0.08443 0.46344 0.0
N602 N 0.36016 0.02652 0.48707 0.0
N603 N 0.33468 0.17141 0.51861 0.0
C604 C 0.34723 0.06047 0.49551 0.0
C605 C 0.33389 0.13482 0.5121 0.0
N606 N 0.34075 0.0476 0.56725 0.0
N607 N 0.31091 0.14129 0.44356 0.0
H608 H 0.33992 0.18281 0.54706 0.0
H609 H 0.33377 0.19029 0.49497 0.0
H610 H 0.30314 0.13058 0.41551 0.0
H611 H 0.30026 0.16698 0.44947 0.0
H612 H 0.33968 0.01971 0.56214 0.0
H613 H 0.33513 0.0546 0.59735 0.0
H614 H 0.3708 0.00937 0.50934 0.0
H615 H 0.36323 0.01679 0.45744 0.0
C616 C 0.60918 0.87074 0.9827 0.0
C617 C 0.61792 0.83704 0.96396 0.0
C618 C 0.6015 0.8057 0.02741 0.0
C619 C 0.58713 0.83855 0.04337 0.0
N620 N 0.57308 0.90188 0.03382 0.0
N621 N 0.61518 0.77114 0.96715 0.0
C622 C 0.58981 0.871 0.02032 0.0
C623 C 0.61224 0.80412 0.98591 0.0
N624 N 0.62065 0.90251 0.96538 0.0
N625 N 0.60673 0.7763 0.05219 0.0
H626 H 0.62235 0.76767 0.93677 0.0
H627 H 0.60688 0.74702 0.98097 0.0
H628 H 0.60067 0.77627 0.08321 0.0
H629 H 0.62094 0.75324 0.04288 0.0
H630 H 0.61789 0.92766 0.97952 0.0
H631 H 0.63663 0.90332 0.93905 0.0
H632 H 0.57105 0.92539 0.01632 0.0
H633 H 0.55816 0.90289 0.0609 0.0
C634 C 0.34623 0.57205 0.97201 0.0
C635 C 0.35893 0.60768 0.96133 0.0
C636 C 0.38172 0.615 0.03107 0.0
C637 C 0.36457 0.58208 0.04267 0.0
N638 N 0.32548 0.53186 0.02584 0.0
N639 N 0.38115 0.66588 0.98459 0.0
C640 C 0.34525 0.56142 0.01365 0.0
C641 C 0.3747 0.62994 0.99194 0.0
N642 N 0.33703 0.54729 0.94274 0.0
N643 N 0.40532 0.6317 0.05721 0.0
H644 H 0.37405 0.67864 0.95739 0.0
H645 H 0.38951 0.68392 0.00716 0.0
H646 H 0.41193 0.62079 0.0856 0.0
H647 H 0.42112 0.65408 0.04901 0.0
H648 H 0.33179 0.5201 0.94925 0.0
H649 H 0.33841 0.55207 0.9116 0.0
H650 H 0.30711 0.51844 0.00686 0.0
H651 H 0.32529 0.52247 0.05583 0.0
C652 C 0.58878 0.32568 0.98816 0.0
C653 C 0.587 0.35819 0.96509 0.0
C654 C 0.61231 0.39196 0.02291 0.0
C655 C 0.61742 0.35887 0.04474 0.0
N656 N 0.61893 0.29336 0.04284 0.0
N657 N 0.60783 0.42009 0.95667 0.0
C658 C 0.60806 0.32543 0.0258 0.0
C659 C 0.60185 0.39072 0.9813 0.0
N660 N 0.5713 0.29521 0.97469 0.0
N661 N 0.61558 0.42482 0.04185 0.0
H662 H 0.60208 0.42028 0.9256 0.0
H663 H 0.62233 0.4429 0.9662 0.0
H664 H 0.62234 0.42805 0.07236 0.0
H665 H 0.60782 0.44911 0.02806 0.0
H666 H 0.56866 0.27176 0.9922 0.0
H667 H 0.55633 0.29459 0.94769 0.0
H668 H 0.61572 0.26836 0.0285 0.0
H669 H 0.63494 0.29209 0.06906 0.0
C670 C 0.83336 0.63187 0.01044 0.0
C671 C 0.84728 0.60922 0.04181 0.0
C672 C 0.8612 0.5625 0.99021 0.0
C673 C 0.84289 0.58337 0.96053 0.0
N674 N 0.80369 0.63396 0.94475 0.0
N675 N 0.86751 0.54852 0.06146 0.0
C676 C 0.82665 0.61692 0.97133 0.0
C677 C 0.85954 0.57333 0.03176 0.0
N678 N 0.82802 0.66806 0.01727 0.0
N679 N 0.88056 0.53248 0.97876 0.0
H680 H 0.86581 0.55354 0.0925 0.0
H681 H 0.87223 0.52119 0.0553 0.0
H682 H 0.88149 0.5232 0.94876 0.0
H683 H 0.8981 0.51867 0.99836 0.0
H684 H 0.82094 0.68621 0.99425 0.0
H685 H 0.83492 0.68067 0.04461 0.0
H686 H 0.78854 0.6569 0.95248 0.0
H687 H 0.79674 0.62282 0.91661 0.0
C688 C 0.2145 0.17535 0.30125 0.0
C689 C 0.2275 0.20874 0.3175 0.0
C690 C 0.28594 0.17951 0.33403 0.0
C691 C 0.27426 0.14728 0.31388 0.0
N692 N 0.22981 0.11682 0.27206 0.0
N693 N 0.278 0.24365 0.34432 0.0
C694 C 0.23919 0.14589 0.29565 0.0
C695 C 0.26387 0.2111 0.33237 0.0
N696 N 0.1781 0.17103 0.29325 0.0
N697 N 0.31702 0.17974 0.35722 0.0
H698 H 0.26242 0.26685 0.34785 0.0
H699 H 0.30586 0.24815 0.34852 0.0
H700 H 0.33435 0.15767 0.36093 0.0
H701 H 0.32387 0.20092 0.37676 0.0
H702 H 0.16649 0.14623 0.2853 0.0
H703 H 0.15875 0.1912 0.2988 0.0
H704 H 0.20607 0.11587 0.25464 0.0
H705 H 0.24748 0.09512 0.26671 0.0
C706 C 0.99074 0.25749 0.34084 0.0
C707 C 0.99024 0.22462 0.31828 0.0
C708 C 0.05149 0.23887 0.29142 0.0
C709 C 0.05285 0.26995 0.31665 0.0
N710 N 0.0281 0.3019 0.37489 0.0
N711 N 0.02458 0.17966 0.28055 0.0
C712 C 0.02373 0.27732 0.34408 0.0
C713 C 0.02184 0.21407 0.29574 0.0
N714 N 0.95958 0.27078 0.35819 0.0
N715 N 0.07817 0.23327 0.26297 0.0
H716 H 1.00471 0.15982 0.28529 0.0
H717 H 0.04835 0.16952 0.26729 0.0
H718 H 0.1003 0.25083 0.25926 0.0
H719 H 0.07666 0.21304 0.24088 0.0
H720 H 0.95788 0.29673 0.37068 0.0
H721 H 0.93457 0.25763 0.35673 0.0
H722 H 1.00909 0.30518 0.39827 0.0
H723 H 0.05234 0.31598 0.38004 0.0
C724 C 0.95828 0.04281 0.34787 0.0
C725 C 0.93482 0.05087 0.31453 0.0
C726 C 0.95526 0.99524 0.28018 0.0
C727 C 0.98072 0.98892 0.31215 0.0
N728 N 0.01315 0.01245 0.37039 0.0
N729 N 0.91513 0.03814 0.24612 0.0
C730 C 0.9842 0.01441 0.34421 0.0
C731 C 0.93451 0.02802 0.27981 0.0
N732 N 0.95464 0.06083 0.38406 0.0
N733 N 0.94984 0.96938 0.25101 0.0
H734 H 0.8999 0.06204 0.24488 0.0
H735 H 0.91668 0.02465 0.21833 0.0
H736 H 0.96473 0.94533 0.24974 0.0
H737 H 0.92874 0.97046 0.22982 0.0
H738 H 0.96815 0.05293 0.41053 0.0
H739 H 0.93547 0.08121 0.38914 0.0
H740 H 0.01904 0.03263 0.3916 0.0
H741 H 0.03362 0.99288 0.36801 0.0
C742 C 0.18178 0.9792 0.29132 0.0
C743 C 0.21238 0.97021 0.31617 0.0
C744 C 0.17854 0.91795 0.343 0.0
C745 C 0.15049 0.92384 0.31389 0.0
N746 N 0.12716 0.95776 0.25696 0.0
N747 N 0.24182 0.92625 0.3602 0.0
C748 C 0.15264 0.9538 0.28698 0.0
C749 C 0.21132 0.93826 0.34046 0.0
N750 N 0.17938 0.0128 0.27386 0.0
N751 N 0.17327 0.89436 0.37469 0.0
H752 H 0.2666 0.93986 0.35965 0.0
H753 H 0.24339 0.90082 0.37401 0.0
H754 H 0.14925 0.87971 0.37909 0.0
H755 H 0.19119 0.89238 0.39923 0.0
H756 H 0.15616 0.02199 0.25873 0.0
H757 H 0.19882 0.03308 0.27833 0.0
H758 H 0.12936 0.97699 0.23381 0.0
H759 H 0.10546 0.9397 0.25319 0.0
C760 C 0.24829 0.04175 0.65806 0.0
C761 C 0.27122 0.04926 0.69194 0.0
C762 C 0.25028 0.99317 0.72495 0.0
C763 C 0.22497 0.98765 0.69265 0.0
N764 N 0.19337 0.01233 0.63434 0.0
N765 N 0.29062 0.03517 0.76012 0.0
C766 C 0.22208 0.01357 0.66091 0.0
C767 C 0.27126 0.0258 0.72616 0.0
N768 N 0.25265 0.06024 0.62223 0.0
N769 N 0.25532 0.96673 0.7536 0.0
H770 H 0.30622 0.05882 0.7618 0.0
H771 H 0.28884 0.02121 0.78763 0.0
H772 H 0.24037 0.94268 0.7541 0.0
H773 H 0.27621 0.96734 0.77507 0.0
H774 H 0.2394 0.05288 0.59541 0.0
H775 H 0.27224 0.08039 0.61787 0.0
H776 H 0.18802 0.03284 0.6133 0.0
H777 H 0.17254 0.99307 0.63625 0.0
C778 C 0.16848 0.26188 0.72684 0.0
C779 C 0.14845 0.26647 0.69034 0.0
C780 C 0.1858 0.22005 0.65699 0.0
C781 C 0.20857 0.21823 0.69179 0.0
N782 N 0.22487 0.24168 0.75811 0.0
N783 N 0.14493 0.25734 0.61756 0.0
C784 C 0.20077 0.24021 0.72642 0.0
C785 C 0.15902 0.24763 0.65452 0.0
N786 N 0.15627 0.27759 0.76198 0.0
N787 N 0.18853 0.19456 0.62691 0.0
H788 H 0.12686 0.27893 0.6139 0.0
H789 H 0.15448 0.24679 0.59009 0.0
H790 H 0.20652 0.17267 0.62828 0.0
H791 H 0.17003 0.19284 0.60289 0.0
H792 H 0.16745 0.27216 0.79049 0.0
H793 H 0.13296 0.29386 0.76306 0.0
H794 H 0.2226 0.26012 0.78199 0.0
H795 H 0.24895 0.22666 0.75898 0.0
C796 C 0.93156 0.16857 0.72807 0.0
C797 C 0.9325 0.145 0.69397 0.0
C798 C 0.98239 0.18088 0.66425 0.0
C799 C 0.97831 0.20703 0.69554 0.0
N800 N 0.94653 0.22777 0.75567 0.0
N801 N 0.95358 0.13362 0.62509 0.0
C802 C 0.95234 0.20135 0.72723 0.0
C803 C 0.95656 0.15239 0.66086 0.0
N804 N 0.91159 0.15912 0.76165 0.0
N805 N 1.01183 0.18232 0.63858 0.0
H806 H 0.9345 0.11314 0.62015 0.0
H807 H 0.96758 0.14098 0.59868 0.0
H808 H 0.03225 0.20196 0.64083 0.0
H809 H 0.01812 0.1617 0.61804 0.0
H810 H 0.91261 0.17321 0.7891 0.0
H811 H 0.89634 0.13523 0.76325 0.0
H812 H 0.9251 0.22712 0.77656 0.0
H813 H 0.96152 0.25178 0.75662 0.0
C814 C 0.0437 0.94819 0.65448 0.0
C815 C 0.05424 0.92882 0.68998 0.0
C816 C 1.00064 0.95303 0.72579 0.0
C817 C 0.99295 0.97574 0.69174 0.0
N818 N 0.01354 1.00132 0.62785 0.0
N819 N 0.04547 0.91602 0.76122 0.0
C820 C 0.01634 0.97521 0.65729 0.0
C821 C 0.03347 0.93216 0.72624 0.0
N822 N 0.05819 0.93938 0.61742 0.0
N823 N 0.97591 0.9501 0.75685 0.0
H824 H 0.06928 0.9005 0.7624 0.0
H825 H 0.03358 0.92051 0.78961 0.0
H826 H 0.95131 0.9643 0.75742 0.0
H827 H 0.97822 0.93115 0.78026 0.0
H828 H 0.04878 0.95041 0.59014 0.0
H829 H 0.07635 0.91792 0.61339 0.0
H830 H 0.03241 1.00394 0.60421 0.0
H831 H 0.99504 0.02278 0.62946 0.0
C832 C 0.71516 0.67569 0.79865 0.0
C833 C 0.72775 0.70863 0.81644 0.0
C834 C 0.7849 0.67837 0.83563 0.0
C835 C 0.77413 0.64697 0.81343 0.0
N836 N 0.73129 0.61773 0.76855 0.0
N837 N 0.77758 0.7425 0.84643 0.0
C838 C 0.73989 0.64622 0.79338 0.0
C839 C 0.76343 0.71029 0.83334 0.0
N840 N 0.67908 0.67173 0.78891 0.0
N841 N 0.81447 0.6774 0.8611 0.0
H842 H 0.7626 0.76627 0.84793 0.0
H843 H 0.80517 0.74619 0.85306 0.0
H844 H 0.83099 0.65475 0.86532 0.0
H845 H 0.82046 0.69798 0.88178 0.0
H846 H 0.66769 0.64718 0.77968 0.0
H847 H 0.6596 0.69181 0.7943 0.0
H848 H 0.70831 0.61738 0.74989 0.0
H849 H 0.74893 0.59591 0.76371 0.0
C850 C 0.53324 0.75889 0.77993 0.0
C851 C 0.55263 0.76437 0.81671 0.0
C852 C 0.51445 0.71869 0.85063 0.0
C853 C 0.49251 0.71577 0.81522 0.0
N854 N 0.4774 0.73802 0.748 0.0
N855 N 0.55451 0.75712 0.88981 0.0
C856 C 0.50095 0.73715 0.78023 0.0
C857 C 0.54123 0.74641 0.85286 0.0
N858 N 0.54609 0.7738 0.74458 0.0
N859 N 0.51096 0.6941 0.88159 0.0
H860 H 0.57242 0.7789 0.89312 0.0
H861 H 0.54443 0.74727 0.91739 0.0
H862 H 0.49289 0.67224 0.88063 0.0
H863 H 0.5289 0.69307 0.90619 0.0
H864 H 0.53544 0.76767 0.71601 0.0
H865 H 0.56944 0.79004 0.74349 0.0
H866 H 0.48009 0.75601 0.72371 0.0
H867 H 0.45323 0.7231 0.74711 0.0
C868 C 0.47665 0.5108 0.7857 0.0
C869 C 0.47055 0.48283 0.81509 0.0
C870 C 0.42405 0.52088 0.84715 0.0
C871 C 0.42549 0.54551 0.81401 0.0
N872 N 0.45076 0.56185 0.74882 0.0
N873 N 0.43097 0.45884 0.86805 0.0
C874 C 0.45102 0.53981 0.78225 0.0
C875 C 0.44203 0.48709 0.8441 0.0
N876 N 0.50799 0.51124 0.76303 0.0
N877 N 0.40759 0.53061 0.88284 0.0
H878 H 0.44177 0.43288 0.8658 0.0
H879 H 0.40802 0.46033 0.88685 0.0
H880 H 0.39737 0.5566 0.88781 0.0
H881 H 0.40867 0.51464 0.90905 0.0
H882 H 0.51506 0.53272 0.74392 0.0
H883 H 0.52904 0.49254 0.76688 0.0
H884 H 0.46642 0.55674 0.72292 0.0
H885 H 0.43251 0.58343 0.7457 0.0
C886 C 0.71142 0.4386 0.84071 0.0
C887 C 0.71177 0.47105 0.81726 0.0
C888 C 0.65046 0.45602 0.79124 0.0
C889 C 0.64922 0.42545 0.81737 0.0
N890 N 0.67437 0.39452 0.87605 0.0
N891 N 0.6773 0.51501 0.77827 0.0
C892 C 0.6785 0.41866 0.84468 0.0
C893 C 0.68011 0.48098 0.79459 0.0
N894 N 0.74267 0.42575 0.85818 0.0
N895 N 0.62369 0.46096 0.76285 0.0
H896 H 0.6972 0.53495 0.78215 0.0
H897 H 0.6535 0.52481 0.76484 0.0
H898 H 0.60157 0.44328 0.75984 0.0
H899 H 0.62507 0.48069 0.74016 0.0
H900 H 0.74452 0.40004 0.87129 0.0
H901 H 0.76763 0.43898 0.85626 0.0
H902 H 0.69345 0.39173 0.89936 0.0
H903 H 0.65027 0.3803 0.88164 0.0
C904 C 0.72308 0.51434 0.21927 0.0
C905 C 0.73114 0.48438 0.19322 0.0
C906 C 0.77857 0.52074 0.16022 0.0
C907 C 0.77473 0.54802 0.19034 0.0
N908 N 0.74595 0.56889 0.25198 0.0
N909 N 0.7735 0.4571 0.14542 0.0
C910 C 0.74779 0.54425 0.22103 0.0
C911 C 0.76096 0.48695 0.16565 0.0
N912 N 0.69084 0.51554 0.24028 0.0
N913 N 0.79712 0.52778 0.12497 0.0
H914 H 0.76277 0.43127 0.14973 0.0
H915 H 0.79732 0.4574 0.12796 0.0
H916 H 0.80734 0.55344 0.11798 0.0
H917 H 0.79795 0.50968 0.10059 0.0
H918 H 0.68231 0.53824 0.2566 0.0
H919 H 0.67065 0.49575 0.23767 0.0
H920 H 0.7292 0.56547 0.27739 0.0
H921 H 0.76352 0.59114 0.2539 0.0
C922 C 0.67911 0.71131 0.20627 0.0
C923 C 0.71071 0.72148 0.18348 0.0
C924 C 0.6779 0.77506 0.15856 0.0
C925 C 0.64895 0.76798 0.18634 0.0
N926 N 0.62342 0.73112 0.23984 0.0
N927 N 0.74161 0.76714 0.14285 0.0
C928 C 0.64994 0.73656 0.21115 0.0
C929 C 0.71051 0.75444 0.16093 0.0
N930 N 0.67596 0.67683 0.22129 0.0
N931 N 0.67371 0.80024 0.12826 0.0
H932 H 0.76624 0.75325 0.14304 0.0
H933 H 0.74375 0.79319 0.13067 0.0
H934 H 0.64986 0.81517 0.12398 0.0
H935 H 0.69237 0.80337 0.1045 0.0
H936 H 0.65217 0.66695 0.23478 0.0
H937 H 0.69548 0.65674 0.21615 0.0
H938 H 0.62473 0.71065 0.26169 0.0
H939 H 0.60164 0.74901 0.24399 0.0
C940 C 0.43794 0.71232 0.16919 0.0
C941 C 0.4723 0.71152 0.18927 0.0
C942 C 0.45786 0.65069 0.21579 0.0
C943 C 0.42546 0.65018 0.19227 0.0
N944 N 0.38961 0.67769 0.13829 0.0
N945 N 0.51847 0.67596 0.22367 0.0
C946 C 0.41674 0.68023 0.16681 0.0
C947 C 0.48323 0.67963 0.21055 0.0
N948 N 0.42469 0.74385 0.15313 0.0
N949 N 0.46408 0.62392 0.24374 0.0
H950 H 0.53861 0.6954 0.2183 0.0
H951 H 0.52875 0.65191 0.23578 0.0
H952 H 0.44571 0.60271 0.24875 0.0
H953 H 0.48549 0.62474 0.26458 0.0
H954 H 0.39774 0.74688 0.14349 0.0
H955 H 0.43937 0.76787 0.1524 0.0
H956 H 0.38548 0.69719 0.11576 0.0
H957 H 0.37372 0.65465 0.13372 0.0
C958 C 0.54264 0.44762 0.15634 0.0
C959 C 0.55362 0.42997 0.19278 0.0
C960 C 0.50204 0.45823 0.22862 0.0
C961 C 0.49419 0.47932 0.1933 0.0
N962 N 0.51352 0.5001 0.12681 0.0
N963 N 0.54641 0.42134 0.26499 0.0
C964 C 0.51637 0.47577 0.15809 0.0
C965 C 0.53405 0.43609 0.2294 0.0
N966 N 0.55574 0.43615 0.11955 0.0
N967 N 0.47814 0.45797 0.26064 0.0
H968 H 0.56949 0.40478 0.26637 0.0
H969 H 0.53559 0.42785 0.29341 0.0
H970 H 0.45408 0.47308 0.26098 0.0
H971 H 0.48045 0.44031 0.28527 0.0
H972 H 0.54588 0.44584 0.09183 0.0
H973 H 0.57312 0.41393 0.11656 0.0
H974 H 0.53164 0.50058 0.10229 0.0
H975 H 0.49585 0.52229 0.12747 0.0
C976 C 0.29007 0.45291 0.27675 0.0
C977 C 0.29085 0.45873 0.23407 0.0
C978 C 0.24483 0.4109 0.22468 0.0
C979 C 0.24078 0.40839 0.26755 0.0
N980 N 0.25731 0.42838 0.33493 0.0
N981 N 0.26828 0.44502 0.16695 0.0
C982 C 0.26306 0.42952 0.29379 0.0
C983 C 0.26823 0.43797 0.20784 0.0
N984 N 0.31538 0.46964 0.30089 0.0
N985 N 0.22658 0.38704 0.20018 0.0
H986 H 0.28617 0.46348 0.15336 0.0
H987 H 0.24938 0.43416 0.1467 0.0
H988 H 0.20903 0.36716 0.21163 0.0
H989 H 0.23091 0.38492 0.16895 0.0
H990 H 0.31882 0.46382 0.33166 0.0
H991 H 0.33512 0.48734 0.28939 0.0
H992 H 0.26949 0.44618 0.3554 0.0
H993 H 0.23842 0.41101 0.34862 0.0
C994 C 0.78904 0.2418 0.22869 0.0
C995 C 0.79076 0.23613 0.27139 0.0
C996 C 0.74501 0.28421 0.28166 0.0
C997 C 0.74025 0.28685 0.23887 0.0
N998 N 0.75494 0.26584 0.17132 0.0
N999 N 0.76823 0.24927 0.33877 0.0
C1000 C 0.76171 0.26518 0.21224 0.0
C1001 C 0.76831 0.2568 0.298 0.0
N1002 N 0.81393 0.22512 0.20391 0.0
N1003 N 0.72758 0.30831 0.30663 0.0
H1004 H 0.78547 0.23007 0.35199 0.0
H1005 H 0.74947 0.26021 0.3592 0.0
H1006 H 0.71011 0.32843 0.29566 0.0
H1007 H 0.73266 0.3104 0.33771 0.0
H1008 H 0.81673 0.23089 0.17303 0.0
H1009 H 0.83398 0.20757 0.21495 0.0
H1010 H 0.76653 0.2477 0.15075 0.0
H1011 H 0.73569 0.28302 0.15806 0.0
C1012 C 0.9087 0.74469 0.27912 0.0
C1013 C 0.90757 0.7395 0.23635 0.0
C1014 C 0.95437 0.78672 0.22735 0.0
C1015 C 0.95886 0.78836 0.27019 0.0
N1016 N 0.94215 0.76789 0.33738 0.0
N1017 N 0.93045 0.7536 0.16932 0.0
C1018 C 0.93626 0.76731 0.29628 0.0
C1019 C 0.93046 0.76027 0.21027 0.0
N1020 N 0.88316 0.7281 0.3032 0.0
N1021 N 0.97278 0.81073 0.20306 0.0
H1022 H 0.91257 0.73532 0.15557 0.0
H1023 H 0.94953 0.76449 0.14919 0.0
H1024 H 0.99076 0.83012 0.21464 0.0
H1025 H 0.96808 0.81353 0.17197 0.0
H1026 H 0.88011 0.7333 0.33416 0.0
H1027 H 0.86284 0.71124 0.29145 0.0
H1028 H 0.92973 0.75006 0.35774 0.0
H1029 H 0.96127 0.78492 0.35111 0.0
C1030 C 0.41113 0.95069 0.22989 0.0
C1031 C 0.4105 0.95685 0.27249 0.0
C1032 C 0.458 0.91049 0.28191 0.0
C1033 C 0.46178 0.90769 0.23902 0.0
N1034 N 0.44462 0.92743 0.17168 0.0
N1035 N 0.43488 0.94506 0.33933 0.0
C1036 C 0.43885 0.92821 0.21282 0.0
C1037 C 0.43419 0.9372 0.29866 0.0
N1038 N 0.38496 0.96617 0.20584 0.0
N1039 N 0.47687 0.88722 0.30656 0.0
H1040 H 0.41708 0.96357 0.35289 0.0
H1041 H 0.45449 0.93499 0.35928 0.0
H1042 H 0.49475 0.86761 0.29524 0.0
H1043 H 0.47266 0.88526 0.33784 0.0
H1044 H 0.38152 0.95994 0.17518 0.0
H1045 H 0.36454 0.98304 0.21742 0.0
H1046 H 0.43176 0.94487 0.15129 0.0
H1047 H 0.4643 0.91102 0.15795 0.0
C1048 C 0.28695 0.73936 0.72511 0.0
C1049 C 0.2907 0.73652 0.76798 0.0
C1050 C 0.24875 0.78804 0.77696 0.0
C1051 C 0.24156 0.78783 0.73453 0.0
N1052 N 0.25188 0.76241 0.66793 0.0
N1053 N 0.27389 0.75624 0.83538 0.0
C1054 C 0.26038 0.76343 0.70845 0.0
C1055 C 0.27151 0.7606 0.79412 0.0
N1056 N 0.30921 0.71929 0.70039 0.0
N1057 N 0.23397 0.81472 0.80073 0.0
H1058 H 0.29106 0.73721 0.84901 0.0
H1059 H 0.25735 0.76987 0.85613 0.0
H1060 H 0.21688 0.83486 0.78911 0.0
H1061 H 0.24086 0.81874 0.83112 0.0
H1062 H 0.31058 0.72256 0.66894 0.0
H1063 H 0.3287 0.70126 0.7117 0.0
H1064 H 0.26118 0.74242 0.64809 0.0
H1065 H 0.23368 0.78051 0.65437 0.0
C1066 C 0.42789 0.26219 0.71295 0.0
C1067 C 0.40881 0.2378 0.73891 0.0
C1068 C 0.43721 0.26607 0.79895 0.0
C1069 C 0.45882 0.28809 0.77277 0.0
N1070 N 0.47602 0.30729 0.70534 0.0
N1071 N 0.39491 0.21548 0.80608 0.0
C1072 C 0.45419 0.28646 0.72988 0.0
C1073 C 0.41309 0.23975 0.78184 0.0
N1074 N 0.42081 0.26206 0.67206 0.0
N1075 N 0.43981 0.27046 0.8402 0.0
H1076 H 0.37563 0.19724 0.79478 0.0
H1077 H 0.39978 0.21212 0.83704 0.0
H1078 H 0.45817 0.28837 0.85378 0.0
H1079 H 0.42245 0.25817 0.86118 0.0
H1080 H 0.4307 0.28139 0.65175 0.0
H1081 H 0.40296 0.24372 0.6584 0.0
H1082 H 0.47755 0.30459 0.67387 0.0
H1083 H 0.4942 0.32658 0.71671 0.0
C1084 C 0.95727 0.41036 0.77743 0.0
C1085 C 0.9625 0.4088 0.73467 0.0
C1086 C 0.9129 0.45283 0.72492 0.0
C1087 C 0.91079 0.45767 0.7677 0.0
N1088 N 0.93267 0.44356 0.83508 0.0
N1089 N 0.94757 0.42998 0.66728 0.0
C1090 C 0.93322 0.43687 0.79413 0.0
C1091 C 0.94074 0.43026 0.70823 0.0
N1092 N 0.97502 0.38616 0.802 0.0
N1093 N 0.88793 0.4696 0.70035 0.0
H1094 H 0.96695 0.41302 0.65385 0.0
H1095 H 0.93576 0.44808 0.64683 0.0
H1096 H 0.8674 0.48645 0.71169 0.0
H1097 H 0.88556 0.46456 0.66929 0.0
H1098 H 0.96959 0.38323 0.83295 0.0
H1099 H 0.99323 0.3668 0.79078 0.0
H1100 H 0.95138 0.43255 0.85547 0.0
H1101 H 0.91485 0.46208 0.84857 0.0
C1102 C 0.75962 0.92948 0.79527 0.0
C1103 C 0.73822 0.90821 0.76823 0.0
C1104 C 0.76802 0.93751 0.70963 0.0
C1105 C 0.79019 0.95796 0.73667 0.0
N1106 N 0.81223 0.9689 0.80452 0.0
N1107 N 0.72632 0.88684 0.70031 0.0
C1108 C 0.7876 0.95243 0.77932 0.0
C1109 C 0.74382 0.91064 0.72555 0.0
N1110 N 0.75222 0.9288 0.83609 0.0
N1111 N 0.76912 0.94475 0.6688 0.0
H1112 H 0.70808 0.86722 0.71096 0.0
H1113 H 0.73194 0.88452 0.66935 0.0
H1114 H 0.78726 0.96334 0.65588 0.0
H1115 H 0.75063 0.93408 0.64795 0.0
H1116 H 0.76378 0.94668 0.85693 0.0
H1117 H 0.7325 0.91188 0.84901 0.0
H1118 H 0.81435 0.96329 0.83549 0.0
H1119 H 0.83279 0.98607 0.79376 0.0
C1120 C 1.00174 0.69472 0.70672 0.0
C1121 C 0.02807 0.71709 0.72594 0.0
C1122 C 1.00607 0.69673 0.79257 0.0
C1123 C 0.98349 0.67073 0.77321 0.0
N1124 N 0.96669 0.63939 0.7113 0.0
N1125 N 0.06101 0.73256 0.78738 0.0
C1126 C 0.98317 0.66811 0.73008 0.0
C1127 C 0.03187 0.71629 0.76898 0.0
N1128 N 0.99366 0.69945 0.66646 0.0
N1129 N 1.00229 0.70354 0.83326 0.0
H1130 H 0.08148 0.74588 0.77122 0.0
H1131 H 0.06678 0.72955 0.81827 0.0
H1132 H 0.98288 0.69056 0.85144 0.0
H1133 H 0.01575 0.72476 0.84789 0.0
H1134 H 0.97216 0.68604 0.65211 0.0
H1135 H 1.00577 0.71953 0.64855 0.0
H1136 H 0.96889 0.63455 0.68013 0.0
H1137 H 0.95411 0.61838 0.72725 0.0
C1138 C 0.50212 0.99564 0.7122 0.0
C1139 C 0.48106 0.023 0.73131 0.0
C1140 C 0.49967 1.00001 0.79798 0.0
C1141 C 0.52489 0.97636 0.77874 0.0
N1142 N 0.55614 0.95861 0.71681 0.0
N1143 N 0.46655 0.05642 0.79263 0.0
C1144 C 0.52781 0.97597 0.7356 0.0
C1145 C 0.48162 0.02669 0.77433 0.0
N1146 N 0.49707 0.98776 0.67194 0.0
N1147 N 0.49218 0.99647 0.83857 0.0
H1148 H 0.45431 0.07742 0.77638 0.0
H1149 H 0.46952 0.06192 0.82358 0.0
H1150 H 0.50387 0.97634 0.85669 0.0
H1151 H 0.47147 0.01096 0.85308 0.0
H1152 H 0.50945 0.96567 0.65771 0.0
H1153 H 0.47757 1.00076 0.65398 0.0
H1154 H 0.56124 0.96073 0.68566 0.0
H1155 H 0.57673 0.94533 0.7327 0.0
C1156 C 0.21103 0.467 0.73408 0.0
C1157 C 0.17556 0.47815 0.72209 0.0
C1158 C 0.18386 0.53587 0.75768 0.0
C1159 C 0.21748 0.52299 0.77345 0.0
N1160 N 0.26003 0.47365 0.7829 0.0
N1161 N 0.12522 0.52009 0.72876 0.0
C1162 C 0.23032 0.4878 0.76336 0.0
C1163 C 0.1611 0.51177 0.73557 0.0
N1164 N 0.2268 0.43724 0.71653 0.0
N1165 N 0.17421 0.57144 0.76261 0.0
H1166 H 0.10734 0.50283 0.71343 0.0
H1167 H 0.1123 0.54249 0.74168 0.0
H1168 H 0.19049 0.59016 0.77799 0.0
H1169 H 0.15183 0.58316 0.74811 0.0
H1170 H 0.25403 0.43009 0.72103 0.0
H1171 H 0.21374 0.42158 0.69448 0.0
H1172 H 0.26823 0.44672 0.77983 0.0
H1173 H 0.27456 0.48778 0.80511 0.0
C1174 C 0.67066 0.21634 0.73666 0.0
C1175 C 0.67354 0.21593 0.77977 0.0
C1176 C 0.71906 0.16762 0.77523 0.0
C1177 C 0.71964 0.17152 0.7322 0.0
N1178 N 0.70197 0.20611 0.6729 0.0
N1179 N 0.70679 0.19695 0.83959 0.0
C1180 C 0.69727 0.1979 0.71316 0.0
C1181 C 0.69968 0.19332 0.79896 0.0
N1182 N 0.64166 0.23269 0.71805 0.0
N1183 N 0.73532 0.13849 0.79348 0.0
H1184 H 0.69399 0.21631 0.85784 0.0
H1185 H 0.72812 0.18338 0.85407 0.0
H1186 H 0.74848 0.11809 0.77721 0.0
H1187 H 0.73244 0.13272 0.82439 0.0
H1188 H 0.63667 0.23057 0.6869 0.0
H1189 H 0.62053 0.24507 0.7341 0.0
H1190 H 0.68854 0.22759 0.65869 0.0
H1191 H 0.72213 0.19412 0.65491 0.0
C1192 C 1.00205 0.50318 0.2988 0.0
C1193 C 0.02786 0.4803 0.27939 0.0
C1194 C 1.00511 0.49982 0.21295 0.0
C1195 C 0.98337 0.5265 0.2323 0.0
N1196 N 0.96733 0.55869 0.29396 0.0
N1197 N 0.05974 0.46362 0.2175 0.0
C1198 C 0.98343 0.52964 0.27538 0.0
C1199 C 0.03102 0.48037 0.23627 0.0
N1200 N 0.99455 0.49909 0.33932 0.0
N1201 N 1.00052 0.49238 0.17252 0.0
H1202 H 0.08044 0.45051 0.23339 0.0
H1203 H 0.06499 0.46608 0.18641 0.0
H1204 H 0.98091 0.50527 0.1546 0.0
H1205 H 0.01343 0.47073 0.15801 0.0
H1206 H 0.97343 0.51291 0.35394 0.0
H1207 H 1.00677 0.47917 0.3573 0.0
H1208 H 0.96992 0.56394 0.325 0.0
H1209 H 0.95448 0.57945 0.27792 0.0
C1210 C 0.67404 0.97685 0.27202 0.0
C1211 C 0.67672 0.97726 0.22888 0.0
C1212 C 0.72221 0.02564 0.23288 0.0
C1213 C 0.72273 0.02199 0.27593 0.0
N1214 N 0.70546 0.98752 0.33551 0.0
N1215 N 0.70986 0.99598 0.16876 0.0
C1216 C 0.70061 0.99551 0.29524 0.0
C1217 C 0.70285 0.99978 0.20942 0.0
N1218 N 0.64518 0.96039 0.29094 0.0
N1219 N 0.73845 0.05468 0.21437 0.0
H1220 H 0.69703 0.97651 0.15072 0.0
H1221 H 0.73115 0.00951 0.15406 0.0
H1222 H 0.75166 0.07517 0.23042 0.0
H1223 H 0.73557 0.06029 0.18342 0.0
H1224 H 0.64031 0.96257 0.32212 0.0
H1225 H 0.62408 0.94781 0.27514 0.0
H1226 H 0.69221 0.96599 0.34993 0.0
H1227 H 0.72556 0.99976 0.3533 0.0
C1228 C 0.20834 0.72635 0.26466 0.0
C1229 C 0.17268 0.71468 0.27548 0.0
C1230 C 0.18217 0.65785 0.23839 0.0
C1231 C 0.21625 0.67116 0.22416 0.0
N1232 N 0.25858 0.72103 0.21703 0.0
N1233 N 0.12274 0.6727 0.26622 0.0
C1234 C 0.22847 0.70629 0.23537 0.0
C1235 C 0.15872 0.68135 0.26054 0.0
N1236 N 0.22356 0.75578 0.28346 0.0
N1237 N 0.17276 0.62238 0.23215 0.0
H1238 H 0.10447 0.68951 0.28166 0.0
H1239 H 0.11021 0.65057 0.2523 0.0
H1240 H 0.18946 0.60406 0.21666 0.0
H1241 H 0.15003 0.61025 0.24561 0.0
H1242 H 0.25084 0.76318 0.27985 0.0
H1243 H 0.20994 0.77084 0.30565 0.0
H1244 H 0.2665 0.74795 0.22097 0.0
H1245 H 0.27372 0.70744 0.19485 0.0
C1246 C 0.48346 0.16734 0.23511 0.0
C1247 C 0.48328 0.17016 0.27822 0.0
C1248 C 0.53102 0.2164 0.27432 0.0
C1249 C 0.52755 0.21706 0.23123 0.0
N1250 N 0.49392 0.19865 0.17148 0.0
N1251 N 0.50112 0.20339 0.33835 0.0
C1252 C 0.50177 0.19417 0.21184 0.0
C1253 C 0.50532 0.19652 0.29773 0.0
N1254 N 0.46765 0.13826 0.2163 0.0
N1255 N 0.55978 0.23312 0.29294 0.0
H1256 H 0.48179 0.19017 0.35641 0.0
H1257 H 0.51415 0.22486 0.35302 0.0
H1258 H 0.58019 0.24665 0.27693 0.0
H1259 H 0.56535 0.23026 0.3239 0.0
H1260 H 0.47021 0.13334 0.18518 0.0
H1261 H 0.45533 0.1171 0.23224 0.0
H1262 H 0.47278 0.18481 0.15697 0.0
H1263 H 0.50577 0.21892 0.15363 0.0
loop_
_geom_bond_atom_site_label_1
_geom_bond_atom_site_label_2
_geom_bond_distance
_geom_bond_site_symmetry_2
_ccdc_geom_bond_type
Co0 O3 1.970 . S
Co0 N17 1.989 . S
Co0 O25 1.967 . S
Co0 O32 1.920 . S
Co1 O4 1.966 . S
Co1 N10 2.022 . S
Co1 N18 1.993 . S
Co1 O26 1.941 . S
C2 O3 1.258 . S
C2 O4 1.263 . S
O3 Co0 1.970 . S
O3 C2 1.258 . S
O4 Co1 1.966 . S
O4 C2 1.263 . S
C5 O6 1.235 . S
C5 O32 1.289 . S
O6 C5 1.235 . S
C7 C9 1.400 . S
C7 N10 1.351 . S
C7 C12 1.501 . S
C8 C9 1.387 . S
C8 N11 1.341 . S
C9 C7 1.400 . S
C9 C8 1.387 . S
N10 Co1 2.022 . S
N10 C7 1.351 . S
N10 N11 1.365 . S
N11 C8 1.341 . S
N11 N10 1.365 . S
N11 H31 0.862 . S
C12 C7 1.501 . S
C12 H13 0.961 . S
C12 H14 0.961 . S
C12 H15 0.960 1_455 S
H13 C12 0.961 . S
H14 C12 0.961 . S
H15 C12 0.960 1_655 S
C16 N17 1.342 . S
C16 C20 1.401 . S
C16 C21 1.499 . S
N17 Co0 1.989 . S
N17 C16 1.342 . S
N17 N18 1.388 . S
N18 Co1 1.993 . S
N18 N17 1.388 . S
N18 C19 1.346 . S
C19 N18 1.346 . S
C19 C20 1.396 . S
C19 C29 1.510 . S
C20 C16 1.401 . S
C20 C19 1.396 . S
C21 C16 1.499 . S
C21 H22 0.959 . S
C21 H23 0.960 . S
C21 H24 0.961 . S
H22 C21 0.959 . S
H23 C21 0.960 . S
H24 C21 0.961 . S
O25 Co0 1.967 . S
O25 C33 1.258 . S
O26 Co1 1.941 . S
O26 C33 1.266 . S
H27 C29 0.959 . S
H28 C29 0.961 . S
C29 C19 1.510 . S
C29 H27 0.959 . S
C29 H28 0.961 . S
C29 H30 0.960 . S
H30 C29 0.960 . S
H31 N11 0.862 . S
O32 Co0 1.920 . S
O32 C5 1.289 . S
C33 O25 1.258 . S
C33 O26 1.266 . S
Co34 O37 1.970 . S
Co34 N51 1.989 . S
Co34 O59 1.967 . S
Co34 O66 1.920 . S
Co35 O38 1.966 . S
Co35 N44 2.022 . S
Co35 N52 1.993 . S
Co35 O60 1.941 . S
C36 O37 1.258 . S
C36 O38 1.263 . S
O37 Co34 1.970 . S
O37 C36 1.258 . S
O38 Co35 1.966 . S
O38 C36 1.263 . S
C39 O40 1.235 . S
C39 O66 1.289 . S
O40 C39 1.235 . S
C41 C43 1.400 . S
C41 N44 1.351 . S
C41 C46 1.501 . S
C42 C43 1.387 . S
C42 N45 1.341 . S
C43 C41 1.400 . S
C43 C42 1.387 . S
N44 Co35 2.022 . S
N44 C41 1.351 . S
N44 N45 1.365 . S
N45 C42 1.341 . S
N45 N44 1.365 . S
N45 H65 0.862 . S
C46 C41 1.501 . S
C46 H47 0.961 . S
C46 H48 0.961 . S
C46 H49 0.960 1_545 S
H47 C46 0.961 . S
H48 C46 0.961 . S
H49 C46 0.960 1_565 S
C50 N51 1.342 . S
C50 C54 1.401 . S
C50 C55 1.499 . S
N51 Co34 1.989 . S
N51 C50 1.342 . S
N51 N52 1.388 . S
N52 Co35 1.993 . S
N52 N51 1.388 . S
N52 C53 1.346 . S
C53 N52 1.346 . S
C53 C54 1.396 . S
C53 C63 1.510 . S
C54 C50 1.401 . S
C54 C53 1.396 . S
C55 C50 1.499 . S
C55 H56 0.959 . S
C55 H57 0.960 . S
C55 H58 0.961 . S
H56 C55 0.959 . S
H57 C55 0.960 . S
H58 C55 0.961 . S
O59 Co34 1.967 . S
O59 C67 1.258 . S
O60 Co35 1.941 . S
O60 C67 1.266 . S
H61 C63 0.959 . S
H62 C63 0.961 . S
C63 C53 1.510 . S
C63 H61 0.959 . S
C63 H62 0.961 . S
C63 H64 0.960 . S
H64 C63 0.960 . S
H65 N45 0.862 . S
O66 Co34 1.920 . S
O66 C39 1.289 . S
C67 O59 1.258 . S
C67 O60 1.266 . S
Co68 O71 1.970 . S
Co68 N85 1.989 . S
Co68 O93 1.967 . S
Co68 O100 1.920 1_455 S
Co69 O72 1.966 . S
Co69 N78 2.022 . S
Co69 N86 1.993 . S
Co69 O94 1.941 . S
C70 O71 1.258 . S
C70 O72 1.263 . S
O71 Co68 1.970 . S
O71 C70 1.258 . S
O72 Co69 1.966 . S
O72 C70 1.263 . S
C73 O74 1.235 . S
C73 O100 1.289 . S
O74 C73 1.235 . S
C75 C77 1.400 . S
C75 N78 1.351 . S
C75 C80 1.501 . S
C76 C77 1.387 . S
C76 N79 1.341 . S
C77 C75 1.400 . S
C77 C76 1.387 . S
N78 Co69 2.022 . S
N78 C75 1.351 . S
N78 N79 1.365 . S
N79 C76 1.341 . S
N79 N78 1.365 . S
N79 H99 0.862 . S
C80 C75 1.501 . S
C80 H81 0.961 . S
C80 H82 0.961 . S
C80 H83 0.960 . S
H81 C80 0.961 . S
H82 C80 0.961 . S
H83 C80 0.960 . S
C84 N85 1.342 1_655 S
C84 C88 1.401 . S
C84 C89 1.499 . S
N85 Co68 1.989 . S
N85 C84 1.342 1_455 S
N85 N86 1.388 . S
N86 Co69 1.993 . S
N86 N85 1.388 . S
N86 C87 1.346 . S
C87 N86 1.346 . S
C87 C88 1.396 1_455 S
C87 C97 1.510 . S
C88 C84 1.401 . S
C88 C87 1.396 1_655 S
C89 C84 1.499 . S
C89 H90 0.959 . S
C89 H91 0.960 . S
C89 H92 0.961 . S
H90 C89 0.959 . S
H91 C89 0.960 . S
H92 C89 0.961 . S
O93 Co68 1.967 . S
O93 C101 1.258 . S
O94 Co69 1.941 . S
O94 C101 1.266 . S
H95 C97 0.959 . S
H96 C97 0.961 . S
C97 C87 1.510 . S
C97 H95 0.959 . S
C97 H96 0.961 . S
C97 H98 0.960 . S
H98 C97 0.960 . S
H99 N79 0.862 . S
O100 Co68 1.920 1_655 S
O100 C73 1.289 . S
C101 O93 1.258 . S
C101 O94 1.266 . S
Co102 O105 1.970 . S
Co102 N119 1.989 . S
Co102 O127 1.967 . S
Co102 O134 1.920 1_545 S
Co103 O106 1.966 . S
Co103 N112 2.022 . S
Co103 N120 1.993 . S
Co103 O128 1.941 . S
C104 O105 1.258 . S
C104 O106 1.263 . S
O105 Co102 1.970 . S
O105 C104 1.258 . S
O106 Co103 1.966 . S
O106 C104 1.263 . S
C107 O108 1.235 . S
C107 O134 1.289 . S
O108 C107 1.235 . S
C109 C111 1.400 . S
C109 N112 1.351 . S
C109 C114 1.501 . S
C110 C111 1.387 . S
C110 N113 1.341 . S
C111 C109 1.400 . S
C111 C110 1.387 . S
N112 Co103 2.022 . S
N112 C109 1.351 . S
N112 N113 1.365 . S
N113 C110 1.341 . S
N113 N112 1.365 . S
N113 H133 0.862 . S
C114 C109 1.501 . S
C114 H115 0.961 . S
C114 H116 0.961 . S
C114 H117 0.960 . S
H115 C114 0.961 . S
H116 C114 0.961 . S
H117 C114 0.960 . S
C118 N119 1.342 1_565 S
C118 C122 1.401 . S
C118 C123 1.499 . S
N119 Co102 1.989 . S
N119 C118 1.342 1_545 S
N119 N120 1.388 . S
N120 Co103 1.993 . S
N120 N119 1.388 . S
N120 C121 1.346 . S
C121 N120 1.346 . S
C121 C122 1.396 1_545 S
C121 C131 1.510 . S
C122 C118 1.401 . S
C122 C121 1.396 1_565 S
C123 C118 1.499 . S
C123 H124 0.959 . S
C123 H125 0.960 . S
C123 H126 0.961 . S
H124 C123 0.959 . S
H125 C123 0.960 . S
H126 C123 0.961 . S
O127 Co102 1.967 . S
O127 C135 1.258 . S
O128 Co103 1.941 . S
O128 C135 1.266 . S
H129 C131 0.959 . S
H130 C131 0.961 . S
C131 C121 1.510 . S
C131 H129 0.959 . S
C131 H130 0.961 . S
C131 H132 0.960 . S
H132 C131 0.960 . S
H133 N113 0.862 . S
O134 Co102 1.920 1_565 S
O134 C107 1.289 . S
C135 O127 1.258 . S
C135 O128 1.266 . S
Co136 O139 1.970 . S
Co136 N153 1.989 . S
Co136 O161 1.967 . S
Co136 O168 1.920 . S
Co137 O140 1.966 . S
Co137 N146 2.022 . S
Co137 N154 1.993 . S
Co137 O162 1.941 . S
C138 O139 1.258 . S
C138 O140 1.263 . S
O139 Co136 1.970 . S
O139 C138 1.258 . S
O140 Co137 1.966 . S
O140 C138 1.263 . S
C141 O142 1.235 . S
C141 O168 1.289 . S
O142 C141 1.235 . S
C143 C145 1.400 . S
C143 N146 1.351 . S
C143 C148 1.501 . S
C144 C145 1.387 . S
C144 N147 1.341 . S
C145 C143 1.400 . S
C145 C144 1.387 . S
N146 Co137 2.022 . S
N146 C143 1.351 . S
N146 N147 1.365 . S
N147 C144 1.341 . S
N147 N146 1.365 . S
N147 H167 0.862 . S
C148 C143 1.501 . S
C148 H149 0.961 . S
C148 H150 0.961 . S
C148 H151 0.960 1_455 S
H149 C148 0.961 . S
H150 C148 0.961 . S
H151 C148 0.960 1_655 S
C152 N153 1.342 . S
C152 C156 1.401 . S
C152 C157 1.499 . S
N153 Co136 1.989 . S
N153 C152 1.342 . S
N153 N154 1.388 . S
N154 Co137 1.993 . S
N154 N153 1.388 . S
N154 C155 1.346 . S
C155 N154 1.346 . S
C155 C156 1.396 . S
C155 C165 1.510 . S
C156 C152 1.401 . S
C156 C155 1.396 . S
C157 C152 1.499 . S
C157 H158 0.959 . S
C157 H159 0.960 . S
C157 H160 0.961 . S
H158 C157 0.959 . S
H159 C157 0.960 . S
H160 C157 0.961 . S
O161 Co136 1.967 . S
O161 C169 1.258 . S
O162 Co137 1.941 . S
O162 C169 1.266 . S
H163 C165 0.959 . S
H164 C165 0.961 . S
C165 C155 1.510 . S
C165 H163 0.959 . S
C165 H164 0.961 . S
C165 H166 0.960 . S
H166 C165 0.960 . S
H167 N147 0.862 . S
O168 Co136 1.920 . S
O168 C141 1.289 . S
C169 O161 1.258 . S
C169 O162 1.266 . S
Co170 O173 1.970 . S
Co170 N187 1.989 . S
Co170 O195 1.967 . S
Co170 O202 1.920 . S
Co171 O174 1.966 . S
Co171 N180 2.022 . S
Co171 N188 1.993 . S
Co171 O196 1.941 . S
C172 O173 1.258 . S
C172 O174 1.263 . S
O173 Co170 1.970 . S
O173 C172 1.258 . S
O174 Co171 1.966 . S
O174 C172 1.263 . S
C175 O176 1.235 . S
C175 O202 1.289 . S
O176 C175 1.235 . S
C177 C179 1.400 . S
C177 N180 1.351 . S
C177 C182 1.501 . S
C178 C179 1.387 . S
C178 N181 1.341 . S
C179 C177 1.400 . S
C179 C178 1.387 . S
N180 Co171 2.022 . S
N180 C177 1.351 . S
N180 N181 1.365 . S
N181 C178 1.341 . S
N181 N180 1.365 . S
N181 H201 0.862 . S
C182 C177 1.501 . S
C182 H183 0.961 . S
C182 H184 0.961 . S
C182 H185 0.960 1_545 S
H183 C182 0.961 . S
H184 C182 0.961 . S
H185 C182 0.960 1_565 S
C186 N187 1.342 . S
C186 C190 1.401 . S
C186 C191 1.499 . S
N187 Co170 1.989 . S
N187 C186 1.342 . S
N187 N188 1.388 . S
N188 Co171 1.993 . S
N188 N187 1.388 . S
N188 C189 1.346 . S
C189 N188 1.346 . S
C189 C190 1.396 . S
C189 C199 1.510 . S
C190 C186 1.401 . S
C190 C189 1.396 . S
C191 C186 1.499 . S
C191 H192 0.959 . S
C191 H193 0.960 . S
C191 H194 0.961 . S
H192 C191 0.959 . S
H193 C191 0.960 . S
H194 C191 0.961 . S
O195 Co170 1.967 . S
O195 C203 1.258 . S
O196 Co171 1.941 . S
O196 C203 1.266 . S
H197 C199 0.959 . S
H198 C199 0.961 . S
C199 C189 1.510 . S
C199 H197 0.959 . S
C199 H198 0.961 . S
C199 H200 0.960 . S
H200 C199 0.960 . S
H201 N181 0.862 . S
O202 Co170 1.920 . S
O202 C175 1.289 . S
C203 O195 1.258 . S
C203 O196 1.266 . S
Co204 O207 1.970 . S
Co204 N221 1.989 . S
Co204 O229 1.967 . S
Co204 O236 1.920 1_455 S
Co205 O208 1.966 . S
Co205 N214 2.022 . S
Co205 N222 1.993 . S
Co205 O230 1.941 . S
C206 O207 1.258 . S
C206 O208 1.263 . S
O207 Co204 1.970 . S
O207 C206 1.258 . S
O208 Co205 1.966 . S
O208 C206 1.263 . S
C209 O210 1.235 . S
C209 O236 1.289 . S
O210 C209 1.235 . S
C211 C213 1.400 . S
C211 N214 1.351 . S
C211 C216 1.501 . S
C212 C213 1.387 . S
C212 N215 1.341 . S
C213 C211 1.400 . S
C213 C212 1.387 . S
N214 Co205 2.022 . S
N214 C211 1.351 . S
N214 N215 1.365 . S
N215 C212 1.341 . S
N215 N214 1.365 . S
N215 H235 0.862 . S
C216 C211 1.501 . S
C216 H217 0.961 . S
C216 H218 0.961 . S
C216 H219 0.960 . S
H217 C216 0.961 . S
H218 C216 0.961 . S
H219 C216 0.960 . S
C220 N221 1.342 1_655 S
C220 C224 1.401 . S
C220 C225 1.499 . S
N221 Co204 1.989 . S
N221 C220 1.342 1_455 S
N221 N222 1.388 . S
N222 Co205 1.993 . S
N222 N221 1.388 . S
N222 C223 1.346 . S
C223 N222 1.346 . S
C223 C224 1.396 1_455 S
C223 C233 1.510 . S
C224 C220 1.401 . S
C224 C223 1.396 1_655 S
C225 C220 1.499 . S
C225 H226 0.959 . S
C225 H227 0.960 . S
C225 H228 0.961 . S
H226 C225 0.959 . S
H227 C225 0.960 . S
H228 C225 0.961 . S
O229 Co204 1.967 . S
O229 C237 1.258 . S
O230 Co205 1.941 . S
O230 C237 1.266 . S
H231 C233 0.959 . S
H232 C233 0.961 . S
C233 C223 1.510 . S
C233 H231 0.959 . S
C233 H232 0.961 . S
C233 H234 0.960 . S
H234 C233 0.960 . S
H235 N215 0.862 . S
O236 Co204 1.920 1_655 S
O236 C209 1.289 . S
C237 O229 1.258 . S
C237 O230 1.266 . S
Co238 O241 1.970 . S
Co238 N255 1.989 . S
Co238 O263 1.967 . S
Co238 O270 1.920 1_545 S
Co239 O242 1.966 . S
Co239 N248 2.022 . S
Co239 N256 1.993 . S
Co239 O264 1.941 . S
C240 O241 1.258 . S
C240 O242 1.263 . S
O241 Co238 1.970 . S
O241 C240 1.258 . S
O242 Co239 1.966 . S
O242 C240 1.263 . S
C243 O244 1.235 . S
C243 O270 1.289 . S
O244 C243 1.235 . S
C245 C247 1.400 . S
C245 N248 1.351 . S
C245 C250 1.501 . S
C246 C247 1.387 . S
C246 N249 1.341 . S
C247 C245 1.400 . S
C247 C246 1.387 . S
N248 Co239 2.022 . S
N248 C245 1.351 . S
N248 N249 1.365 . S
N249 C246 1.341 . S
N249 N248 1.365 . S
N249 H269 0.862 . S
C250 C245 1.501 . S
C250 H251 0.961 . S
C250 H252 0.961 . S
C250 H253 0.960 . S
H251 C250 0.961 . S
H252 C250 0.961 . S
H253 C250 0.960 . S
C254 N255 1.342 1_565 S
C254 C258 1.401 . S
C254 C259 1.499 . S
N255 Co238 1.989 . S
N255 C254 1.342 1_545 S
N255 N256 1.388 . S
N256 Co239 1.993 . S
N256 N255 1.388 . S
N256 C257 1.346 . S
C257 N256 1.346 . S
C257 C258 1.396 1_545 S
C257 C267 1.510 . S
C258 C254 1.401 . S
C258 C257 1.396 1_565 S
C259 C254 1.499 . S
C259 H260 0.959 . S
C259 H261 0.960 . S
C259 H262 0.961 . S
H260 C259 0.959 . S
H261 C259 0.960 . S
H262 C259 0.961 . S
O263 Co238 1.967 . S
O263 C271 1.258 . S
O264 Co239 1.941 . S
O264 C271 1.266 . S
H265 C267 0.959 . S
H266 C267 0.961 . S
C267 C257 1.510 . S
C267 H265 0.959 . S
C267 H266 0.961 . S
C267 H268 0.960 . S
H268 C267 0.960 . S
H269 N249 0.862 . S
O270 Co238 1.920 1_565 S
O270 C243 1.289 . S
C271 O263 1.258 . S
C271 O264 1.266 . S
Co272 O275 1.970 . S
Co272 N289 1.989 . S
Co272 O297 1.967 . S
Co272 O304 1.920 . S
Co273 O276 1.966 . S
Co273 N282 2.022 . S
Co273 N290 1.993 . S
Co273 O298 1.941 . S
C274 O275 1.258 . S
C274 O276 1.263 . S
O275 Co272 1.970 . S
O275 C274 1.258 . S
O276 Co273 1.966 . S
O276 C274 1.263 . S
C277 O278 1.235 . S
C277 O304 1.289 . S
O278 C277 1.235 . S
C279 C281 1.400 . S
C279 N282 1.351 . S
C279 C284 1.501 . S
C280 C281 1.387 . S
C280 N283 1.341 . S
C281 C279 1.400 . S
C281 C280 1.387 . S
N282 Co273 2.022 . S
N282 C279 1.351 . S
N282 N283 1.365 . S
N283 C280 1.341 . S
N283 N282 1.365 . S
N283 H303 0.862 . S
C284 C279 1.501 . S
C284 H285 0.961 . S
C284 H286 0.961 . S
C284 H287 0.960 . S
H285 C284 0.961 . S
H286 C284 0.961 . S
H287 C284 0.960 . S
C288 N289 1.342 . S
C288 C292 1.401 . S
C288 C293 1.499 . S
N289 Co272 1.989 . S
N289 C288 1.342 . S
N289 N290 1.388 . S
N290 Co273 1.993 . S
N290 N289 1.388 . S
N290 C291 1.346 . S
C291 N290 1.346 . S
C291 C292 1.396 . S
C291 C301 1.510 . S
C292 C288 1.401 . S
C292 C291 1.396 . S
C293 C288 1.499 . S
C293 H294 0.959 . S
C293 H295 0.960 . S
C293 H296 0.961 . S
H294 C293 0.959 . S
H295 C293 0.960 . S
H296 C293 0.961 . S
O297 Co272 1.967 . S
O297 C305 1.258 . S
O298 Co273 1.941 . S
O298 C305 1.266 . S
H299 C301 0.959 . S
H300 C301 0.961 . S
C301 C291 1.510 . S
C301 H299 0.959 . S
C301 H300 0.961 . S
C301 H302 0.960 . S
H302 C301 0.960 . S
H303 N283 0.862 . S
O304 Co272 1.920 . S
O304 C277 1.289 . S
C305 O297 1.258 . S
C305 O298 1.266 . S
Co306 O309 1.970 . S
Co306 N323 1.989 . S
Co306 O331 1.967 . S
Co306 O338 1.920 . S
Co307 O310 1.966 . S
Co307 N316 2.022 . S
Co307 N324 1.993 . S
Co307 O332 1.941 . S
C308 O309 1.258 . S
C308 O310 1.263 . S
O309 Co306 1.970 . S
O309 C308 1.258 . S
O310 Co307 1.966 . S
O310 C308 1.263 . S
C311 O312 1.235 . S
C311 O338 1.289 . S
O312 C311 1.235 . S
C313 C315 1.400 . S
C313 N316 1.351 . S
C313 C318 1.501 . S
C314 C315 1.387 . S
C314 N317 1.341 . S
C315 C313 1.400 . S
C315 C314 1.387 . S
N316 Co307 2.022 . S
N316 C313 1.351 . S
N316 N317 1.365 . S
N317 C314 1.341 . S
N317 N316 1.365 . S
N317 H337 0.862 . S
C318 C313 1.501 . S
C318 H319 0.961 . S
C318 H320 0.961 . S
C318 H321 0.960 . S
H319 C318 0.961 . S
H320 C318 0.961 . S
H321 C318 0.960 . S
C322 N323 1.342 . S
C322 C326 1.401 . S
C322 C327 1.499 . S
N323 Co306 1.989 . S
N323 C322 1.342 . S
N323 N324 1.388 . S
N324 Co307 1.993 . S
N324 N323 1.388 . S
N324 C325 1.346 . S
C325 N324 1.346 . S
C325 C326 1.396 . S
C325 C335 1.510 . S
C326 C322 1.401 . S
C326 C325 1.396 . S
C327 C322 1.499 . S
C327 H328 0.959 . S
C327 H329 0.960 . S
C327 H330 0.961 . S
H328 C327 0.959 . S
H329 C327 0.960 . S
H330 C327 0.961 . S
O331 Co306 1.967 . S
O331 C339 1.258 . S
O332 Co307 1.941 . S
O332 C339 1.266 . S
H333 C335 0.959 . S
H334 C335 0.961 . S
C335 C325 1.510 . S
C335 H333 0.959 . S
C335 H334 0.961 . S
C335 H336 0.960 . S
H336 C335 0.960 . S
H337 N317 0.862 . S
O338 Co306 1.920 . S
O338 C311 1.289 . S
C339 O331 1.258 . S
C339 O332 1.266 . S
Co340 O343 1.970 . S
Co340 N357 1.989 . S
Co340 O365 1.967 . S
Co340 O372 1.920 . S
Co341 O344 1.966 . S
Co341 N350 2.022 . S
Co341 N358 1.993 . S
Co341 O366 1.941 . S
C342 O343 1.258 . S
C342 O344 1.263 . S
O343 Co340 1.970 . S
O343 C342 1.258 . S
O344 Co341 1.966 . S
O344 C342 1.263 . S
C345 O346 1.235 . S
C345 O372 1.289 . S
O346 C345 1.235 . S
C347 C349 1.400 . S
C347 N350 1.351 . S
C347 C352 1.501 . S
C348 C349 1.387 . S
C348 N351 1.341 . S
C349 C347 1.400 . S
C349 C348 1.387 . S
N350 Co341 2.022 . S
N350 C347 1.351 . S
N350 N351 1.365 . S
N351 C348 1.341 . S
N351 N350 1.365 . S
N351 H371 0.862 . S
C352 C347 1.501 . S
C352 H353 0.961 . S
C352 H354 0.961 . S
C352 H355 0.960 . S
H353 C352 0.961 . S
H354 C352 0.961 . S
H355 C352 0.960 . S
C356 N357 1.342 . S
C356 C360 1.401 . S
C356 C361 1.499 . S
N357 Co340 1.989 . S
N357 C356 1.342 . S
N357 N358 1.388 . S
N358 Co341 1.993 . S
N358 N357 1.388 . S
N358 C359 1.346 . S
C359 N358 1.346 . S
C359 C360 1.396 . S
C359 C369 1.510 . S
C360 C356 1.401 . S
C360 C359 1.396 . S
C361 C356 1.499 . S
C361 H362 0.959 . S
C361 H363 0.960 . S
C361 H364 0.961 . S
H362 C361 0.959 . S
H363 C361 0.960 . S
H364 C361 0.961 . S
O365 Co340 1.967 . S
O365 C373 1.258 . S
O366 Co341 1.941 . S
O366 C373 1.266 . S
H367 C369 0.959 . S
H368 C369 0.961 . S
C369 C359 1.510 . S
C369 H367 0.959 . S
C369 H368 0.961 . S
C369 H370 0.960 . S
H370 C369 0.960 . S
H371 N351 0.862 . S
O372 Co340 1.920 . S
O372 C345 1.289 . S
C373 O365 1.258 . S
C373 O366 1.266 . S
Co374 O377 1.970 . S
Co374 N391 1.989 . S
Co374 O399 1.967 . S
Co374 O406 1.920 . S
Co375 O378 1.966 . S
Co375 N384 2.022 . S
Co375 N392 1.993 . S
Co375 O400 1.941 . S
C376 O377 1.258 . S
C376 O378 1.263 . S
O377 Co374 1.970 . S
O377 C376 1.258 . S
O378 Co375 1.966 . S
O378 C376 1.263 . S
C379 O380 1.235 . S
C379 O406 1.289 . S
O380 C379 1.235 . S
C381 C383 1.400 . S
C381 N384 1.351 . S
C381 C386 1.501 . S
C382 C383 1.387 . S
C382 N385 1.341 . S
C383 C381 1.400 . S
C383 C382 1.387 . S
N384 Co375 2.022 . S
N384 C381 1.351 . S
N384 N385 1.365 . S
N385 C382 1.341 . S
N385 N384 1.365 . S
N385 H405 0.862 . S
C386 C381 1.501 . S
C386 H387 0.961 . S
C386 H388 0.961 . S
C386 H389 0.960 . S
H387 C386 0.961 . S
H388 C386 0.961 . S
H389 C386 0.960 . S
C390 N391 1.342 . S
C390 C394 1.401 . S
C390 C395 1.499 . S
N391 Co374 1.989 . S
N391 C390 1.342 . S
N391 N392 1.388 . S
N392 Co375 1.993 . S
N392 N391 1.388 . S
N392 C393 1.346 . S
C393 N392 1.346 . S
C393 C394 1.396 . S
C393 C403 1.510 . S
C394 C390 1.401 . S
C394 C393 1.396 . S
C395 C390 1.499 . S
C395 H396 0.959 . S
C395 H397 0.960 . S
C395 H398 0.961 . S
H396 C395 0.959 . S
H397 C395 0.960 . S
H398 C395 0.961 . S
O399 Co374 1.967 . S
O399 C407 1.258 . S
O400 Co375 1.941 . S
O400 C407 1.266 . S
H401 C403 0.959 . S
H402 C403 0.961 . S
C403 C393 1.510 . S
C403 H401 0.959 . S
C403 H402 0.961 . S
C403 H404 0.960 . S
H404 C403 0.960 . S
H405 N385 0.862 . S
O406 Co374 1.920 . S
O406 C379 1.289 . S
C407 O399 1.258 . S
C407 O400 1.266 . S
Co408 O411 1.970 . S
Co408 N425 1.989 . S
Co408 O433 1.967 . S
Co408 O440 1.920 . S
Co409 O412 1.966 . S
Co409 N418 2.022 . S
Co409 N426 1.993 . S
Co409 O434 1.941 . S
C410 O411 1.258 . S
C410 O412 1.263 . S
O411 Co408 1.970 . S
O411 C410 1.258 . S
O412 Co409 1.966 . S
O412 C410 1.263 . S
C413 O414 1.235 . S
C413 O440 1.289 . S
O414 C413 1.235 . S
C415 C417 1.400 . S
C415 N418 1.351 . S
C415 C420 1.501 . S
C416 C417 1.387 . S
C416 N419 1.341 . S
C417 C415 1.400 . S
C417 C416 1.387 . S
N418 Co409 2.022 . S
N418 C415 1.351 . S
N418 N419 1.365 . S
N419 C416 1.341 . S
N419 N418 1.365 . S
N419 H439 0.862 . S
C420 C415 1.501 . S
C420 H421 0.961 . S
C420 H422 0.961 . S
C420 H423 0.960 . S
H421 C420 0.961 . S
H422 C420 0.961 . S
H423 C420 0.960 . S
C424 N425 1.342 . S
C424 C428 1.401 . S
C424 C429 1.499 . S
N425 Co408 1.989 . S
N425 C424 1.342 . S
N425 N426 1.388 . S
N426 Co409 1.993 . S
N426 N425 1.388 . S
N426 C427 1.346 . S
C427 N426 1.346 . S
C427 C428 1.396 . S
C427 C437 1.510 . S
C428 C424 1.401 . S
C428 C427 1.396 . S
C429 C424 1.499 . S
C429 H430 0.959 . S
C429 H431 0.960 . S
C429 H432 0.961 . S
H430 C429 0.959 . S
H431 C429 0.960 . S
H432 C429 0.961 . S
O433 Co408 1.967 . S
O433 C441 1.258 . S
O434 Co409 1.941 . S
O434 C441 1.266 . S
H435 C437 0.959 . S
H436 C437 0.961 . S
C437 C427 1.510 . S
C437 H435 0.959 . S
C437 H436 0.961 . S
C437 H438 0.960 . S
H438 C437 0.960 . S
H439 N419 0.862 . S
O440 Co408 1.920 . S
O440 C413 1.289 . S
C441 O433 1.258 . S
C441 O434 1.266 . S
Co442 O445 1.970 . S
Co442 N459 1.989 . S
Co442 O467 1.967 . S
Co442 O474 1.920 . S
Co443 O446 1.966 . S
Co443 N452 2.022 . S
Co443 N460 1.993 . S
Co443 O468 1.941 . S
C444 O445 1.258 . S
C444 O446 1.263 . S
O445 Co442 1.970 . S
O445 C444 1.258 . S
O446 Co443 1.966 . S
O446 C444 1.263 . S
C447 O448 1.235 . S
C447 O474 1.289 . S
O448 C447 1.235 . S
C449 C451 1.400 . S
C449 N452 1.351 . S
C449 C454 1.501 . S
C450 C451 1.387 . S
C450 N453 1.341 . S
C451 C449 1.400 . S
C451 C450 1.387 . S
N452 Co443 2.022 . S
N452 C449 1.351 . S
N452 N453 1.365 . S
N453 C450 1.341 . S
N453 N452 1.365 . S
N453 H473 0.862 . S
C454 C449 1.501 . S
C454 H455 0.961 . S
C454 H456 0.961 . S
C454 H457 0.960 . S
H455 C454 0.961 . S
H456 C454 0.961 . S
H457 C454 0.960 . S
C458 N459 1.342 . S
C458 C462 1.401 . S
C458 C463 1.499 . S
N459 Co442 1.989 . S
N459 C458 1.342 . S
N459 N460 1.388 . S
N460 Co443 1.993 . S
N460 N459 1.388 . S
N460 C461 1.346 . S
C461 N460 1.346 . S
C461 C462 1.396 . S
C461 C471 1.510 . S
C462 C458 1.401 . S
C462 C461 1.396 . S
C463 C458 1.499 . S
C463 H464 0.959 . S
C463 H465 0.960 . S
C463 H466 0.961 . S
H464 C463 0.959 . S
H465 C463 0.960 . S
H466 C463 0.961 . S
O467 Co442 1.967 . S
O467 C475 1.258 . S
O468 Co443 1.941 . S
O468 C475 1.266 . S
H469 C471 0.959 . S
H470 C471 0.961 . S
C471 C461 1.510 . S
C471 H469 0.959 . S
C471 H470 0.961 . S
C471 H472 0.960 . S
H472 C471 0.960 . S
H473 N453 0.862 . S
O474 Co442 1.920 . S
O474 C447 1.289 . S
C475 O467 1.258 . S
C475 O468 1.266 . S
Co476 O479 1.970 . S
Co476 N493 1.989 . S
Co476 O501 1.967 . S
Co476 O508 1.920 . S
Co477 O480 1.966 . S
Co477 N486 2.022 . S
Co477 N494 1.993 . S
Co477 O502 1.941 . S
C478 O479 1.258 . S
C478 O480 1.263 . S
O479 Co476 1.970 . S
O479 C478 1.258 . S
O480 Co477 1.966 . S
O480 C478 1.263 . S
C481 O482 1.235 . S
C481 O508 1.289 . S
O482 C481 1.235 . S
C483 C485 1.400 . S
C483 N486 1.351 . S
C483 C488 1.501 . S
C484 C485 1.387 . S
C484 N487 1.341 . S
C485 C483 1.400 . S
C485 C484 1.387 . S
N486 Co477 2.022 . S
N486 C483 1.351 . S
N486 N487 1.365 . S
N487 C484 1.341 . S
N487 N486 1.365 . S
N487 H507 0.862 . S
C488 C483 1.501 . S
C488 H489 0.961 . S
C488 H490 0.961 . S
C488 H491 0.960 . S
H489 C488 0.961 . S
H490 C488 0.961 . S
H491 C488 0.960 . S
C492 N493 1.342 . S
C492 C496 1.401 . S
C492 C497 1.499 . S
N493 Co476 1.989 . S
N493 C492 1.342 . S
N493 N494 1.388 . S
N494 Co477 1.993 . S
N494 N493 1.388 . S
N494 C495 1.346 . S
C495 N494 1.346 . S
C495 C496 1.396 . S
C495 C505 1.510 . S
C496 C492 1.401 . S
C496 C495 1.396 . S
C497 C492 1.499 . S
C497 H498 0.959 . S
C497 H499 0.960 . S
C497 H500 0.961 . S
H498 C497 0.959 . S
H499 C497 0.960 . S
H500 C497 0.961 . S
O501 Co476 1.967 . S
O501 C509 1.258 . S
O502 Co477 1.941 . S
O502 C509 1.266 . S
H503 C505 0.959 . S
H504 C505 0.961 . S
C505 C495 1.510 . S
C505 H503 0.959 . S
C505 H504 0.961 . S
C505 H506 0.960 . S
H506 C505 0.960 . S
H507 N487 0.862 . S
O508 Co476 1.920 . S
O508 C481 1.289 . S
C509 O501 1.258 . S
C509 O502 1.266 . S
Co510 O513 1.970 . S
Co510 N527 1.989 . S
Co510 O535 1.967 . S
Co510 O542 1.920 . S
Co511 O514 1.966 . S
Co511 N520 2.022 . S
Co511 N528 1.993 . S
Co511 O536 1.941 . S
C512 O513 1.258 . S
C512 O514 1.263 . S
O513 Co510 1.970 . S
O513 C512 1.258 . S
O514 Co511 1.966 . S
O514 C512 1.263 . S
C515 O516 1.235 . S
C515 O542 1.289 . S
O516 C515 1.235 . S
C517 C519 1.400 . S
C517 N520 1.351 . S
C517 C522 1.501 . S
C518 C519 1.387 . S
C518 N521 1.341 . S
C519 C517 1.400 . S
C519 C518 1.387 . S
N520 Co511 2.022 . S
N520 C517 1.351 . S
N520 N521 1.365 . S
N521 C518 1.341 . S
N521 N520 1.365 . S
N521 H541 0.862 . S
C522 C517 1.501 . S
C522 H523 0.961 . S
C522 H524 0.961 . S
C522 H525 0.960 . S
H523 C522 0.961 . S
H524 C522 0.961 . S
H525 C522 0.960 . S
C526 N527 1.342 . S
C526 C530 1.401 . S
C526 C531 1.499 . S
N527 Co510 1.989 . S
N527 C526 1.342 . S
N527 N528 1.388 . S
N528 Co511 1.993 . S
N528 N527 1.388 . S
N528 C529 1.346 . S
C529 N528 1.346 . S
C529 C530 1.396 . S
C529 C539 1.510 . S
C530 C526 1.401 . S
C530 C529 1.396 . S
C531 C526 1.499 . S
C531 H532 0.959 . S
C531 H533 0.960 . S
C531 H534 0.961 . S
H532 C531 0.959 . S
H533 C531 0.960 . S
H534 C531 0.961 . S
O535 Co510 1.967 . S
O535 C543 1.258 . S
O536 Co511 1.941 . S
O536 C543 1.266 . S
H537 C539 0.959 . S
H538 C539 0.961 . S
C539 C529 1.510 . S
C539 H537 0.959 . S
C539 H538 0.961 . S
C539 H540 0.960 . S
H540 C539 0.960 . S
H541 N521 0.862 . S
O542 Co510 1.920 . S
O542 C515 1.289 . S
C543 O535 1.258 . S
C543 O536 1.266 . S
C544 C545 1.363 . S
C544 C550 1.379 . S
C544 N552 1.356 . S
C545 C544 1.363 . S
C545 C551 1.363 . S
C546 C547 1.363 . S
C546 C551 1.379 . S
C546 N553 1.356 . S
C547 C546 1.363 . S
C547 C550 1.363 . S
N548 C550 1.356 . S
N548 H560 0.984 . S
N548 H561 0.985 . S
N549 C551 1.356 . S
N549 H554 0.984 . S
N549 H555 0.985 . S
C550 C544 1.379 . S
C550 C547 1.363 . S
C550 N548 1.356 . S
C551 C545 1.363 . S
C551 C546 1.379 . S
C551 N549 1.356 . S
N552 C544 1.356 . S
N552 H558 0.984 . S
N552 H559 0.984 . S
N553 C546 1.356 . S
N553 H556 0.984 . S
N553 H557 0.985 . S
H554 N549 0.984 . S
H555 N549 0.985 . S
H556 N553 0.984 . S
H557 N553 0.985 . S
H558 N552 0.984 . S
H559 N552 0.984 . S
H560 N548 0.984 . S
H561 N548 0.985 . S
C562 C563 1.363 . S
C562 C568 1.379 . S
C562 N570 1.356 . S
C563 C562 1.363 . S
C563 C569 1.363 . S
C564 C565 1.363 . S
C564 C569 1.379 . S
C564 N571 1.356 . S
C565 C564 1.363 . S
C565 C568 1.363 . S
N566 C568 1.356 . S
N566 H578 0.984 . S
N566 H579 0.985 . S
N567 C569 1.356 . S
N567 H572 0.984 . S
N567 H573 0.985 . S
C568 C562 1.379 . S
C568 C565 1.363 . S
C568 N566 1.356 . S
C569 C563 1.363 . S
C569 C564 1.379 . S
C569 N567 1.356 . S
N570 C562 1.356 . S
N570 H576 0.984 . S
N570 H577 0.984 . S
N571 C564 1.356 . S
N571 H574 0.984 . S
N571 H575 0.985 . S
H572 N567 0.984 . S
H573 N567 0.985 . S
H574 N571 0.984 . S
H575 N571 0.985 . S
H576 N570 0.984 . S
H577 N570 0.984 . S
H578 N566 0.984 . S
H579 N566 0.985 . S
C580 C581 1.363 . S
C580 C586 1.379 . S
C580 N588 1.356 . S
C581 C580 1.363 . S
C581 C587 1.363 . S
C582 C583 1.363 . S
C582 C587 1.379 . S
C582 N589 1.356 . S
C583 C582 1.363 . S
C583 C586 1.363 . S
N584 C586 1.356 . S
N584 H596 0.984 . S
N584 H597 0.985 . S
N585 C587 1.356 . S
N585 H590 0.984 . S
N585 H591 0.985 . S
C586 C580 1.379 . S
C586 C583 1.363 . S
C586 N584 1.356 . S
C587 C581 1.363 . S
C587 C582 1.379 . S
C587 N585 1.356 . S
N588 C580 1.356 . S
N588 H594 0.984 . S
N588 H595 0.984 . S
N589 C582 1.356 . S
N589 H592 0.984 . S
N589 H593 0.985 . S
H590 N585 0.984 . S
H591 N585 0.985 . S
H592 N589 0.984 . S
H593 N589 0.985 . S
H594 N588 0.984 . S
H595 N588 0.984 . S
H596 N584 0.984 . S
H597 N584 0.985 . S
C598 C599 1.363 . S
C598 C604 1.379 . S
C598 N606 1.356 . S
C599 C598 1.363 . S
C599 C605 1.363 . S
C600 C601 1.363 . S
C600 C605 1.379 . S
C600 N607 1.356 . S
C601 C600 1.363 . S
C601 C604 1.363 . S
N602 C604 1.356 . S
N602 H614 0.984 . S
N602 H615 0.985 . S
N603 C605 1.356 . S
N603 H608 0.984 . S
N603 H609 0.985 . S
C604 C598 1.379 . S
C604 C601 1.363 . S
C604 N602 1.356 . S
C605 C599 1.363 . S
C605 C600 1.379 . S
C605 N603 1.356 . S
N606 C598 1.356 . S
N606 H612 0.984 . S
N606 H613 0.984 . S
N607 C600 1.356 . S
N607 H610 0.984 . S
N607 H611 0.985 . S
H608 N603 0.984 . S
H609 N603 0.985 . S
H610 N607 0.984 . S
H611 N607 0.985 . S
H612 N606 0.984 . S
H613 N606 0.984 . S
H614 N602 0.984 . S
H615 N602 0.985 . S
C616 C617 1.363 . S
C616 C622 1.379 1_556 S
C616 N624 1.356 . S
C617 C616 1.363 . S
C617 C623 1.363 . S
C618 C619 1.363 . S
C618 C623 1.379 1_554 S
C618 N625 1.356 . S
C619 C618 1.363 . S
C619 C622 1.363 . S
N620 C622 1.356 . S
N620 H632 0.984 . S
N620 H633 0.985 . S
N621 C623 1.356 . S
N621 H626 0.984 . S
N621 H627 0.985 . S
C622 C616 1.379 1_554 S
C622 C619 1.363 . S
C622 N620 1.356 . S
C623 C617 1.363 . S
C623 C618 1.379 1_556 S
C623 N621 1.356 . S
N624 C616 1.356 . S
N624 H630 0.984 . S
N624 H631 0.984 . S
N625 C618 1.356 . S
N625 H628 0.984 . S
N625 H629 0.985 . S
H626 N621 0.984 . S
H627 N621 0.985 . S
H628 N625 0.984 . S
H629 N625 0.985 . S
H630 N624 0.984 . S
H631 N624 0.984 . S
H632 N620 0.984 . S
H633 N620 0.985 . S
C634 C635 1.363 . S
C634 C640 1.379 1_556 S
C634 N642 1.356 . S
C635 C634 1.363 . S
C635 C641 1.363 . S
C636 C637 1.363 . S
C636 C641 1.379 1_554 S
C636 N643 1.356 . S
C637 C636 1.363 . S
C637 C640 1.363 . S
N638 C640 1.356 . S
N638 H650 0.984 . S
N638 H651 0.985 . S
N639 C641 1.356 . S
N639 H644 0.984 . S
N639 H645 0.985 . S
C640 C634 1.379 1_554 S
C640 C637 1.363 . S
C640 N638 1.356 . S
C641 C635 1.363 . S
C641 C636 1.379 1_556 S
C641 N639 1.356 . S
N642 C634 1.356 . S
N642 H648 0.984 . S
N642 H649 0.984 . S
N643 C636 1.356 . S
N643 H646 0.984 . S
N643 H647 0.985 . S
H644 N639 0.984 . S
H645 N639 0.985 . S
H646 N643 0.984 . S
H647 N643 0.985 . S
H648 N642 0.984 . S
H649 N642 0.984 . S
H650 N638 0.984 . S
H651 N638 0.985 . S
C652 C653 1.363 . S
C652 C658 1.379 1_556 S
C652 N660 1.356 . S
C653 C652 1.363 . S
C653 C659 1.363 . S
C654 C655 1.363 . S
C654 C659 1.379 1_554 S
C654 N661 1.356 . S
C655 C654 1.363 . S
C655 C658 1.363 . S
N656 C658 1.356 . S
N656 H668 0.984 . S
N656 H669 0.985 . S
N657 C659 1.356 . S
N657 H662 0.984 . S
N657 H663 0.985 . S
C658 C652 1.379 1_554 S
C658 C655 1.363 . S
C658 N656 1.356 . S
C659 C653 1.363 . S
C659 C654 1.379 1_556 S
C659 N657 1.356 . S
N660 C652 1.356 . S
N660 H666 0.984 . S
N660 H667 0.984 . S
N661 C654 1.356 . S
N661 H664 0.984 . S
N661 H665 0.985 . S
H662 N657 0.984 . S
H663 N657 0.985 . S
H664 N661 0.984 . S
H665 N661 0.985 . S
H666 N660 0.984 . S
H667 N660 0.984 . S
H668 N656 0.984 . S
H669 N656 0.985 . S
C670 C671 1.363 . S
C670 C676 1.379 1_554 S
C670 N678 1.356 . S
C671 C670 1.363 . S
C671 C677 1.363 . S
C672 C673 1.363 . S
C672 C677 1.379 1_556 S
C672 N679 1.356 . S
C673 C672 1.363 . S
C673 C676 1.363 . S
N674 C676 1.356 . S
N674 H686 0.984 . S
N674 H687 0.985 . S
N675 C677 1.356 . S
N675 H680 0.984 . S
N675 H681 0.985 . S
C676 C670 1.379 1_556 S
C676 C673 1.363 . S
C676 N674 1.356 . S
C677 C671 1.363 . S
C677 C672 1.379 1_554 S
C677 N675 1.356 . S
N678 C670 1.356 . S
N678 H684 0.984 . S
N678 H685 0.984 . S
N679 C672 1.356 . S
N679 H682 0.984 . S
N679 H683 0.985 . S
H680 N675 0.984 . S
H681 N675 0.985 . S
H682 N679 0.984 . S
H683 N679 0.985 . S
H684 N678 0.984 . S
H685 N678 0.984 . S
H686 N674 0.984 . S
H687 N674 0.985 . S
C688 C689 1.363 . S
C688 C694 1.379 . S
C688 N696 1.356 . S
C689 C688 1.363 . S
C689 C695 1.363 . S
C690 C691 1.363 . S
C690 C695 1.379 . S
C690 N697 1.356 . S
C691 C690 1.363 . S
C691 C694 1.363 . S
N692 C694 1.356 . S
N692 H704 0.984 . S
N692 H705 0.985 . S
N693 C695 1.356 . S
N693 H698 0.984 . S
N693 H699 0.985 . S
C694 C688 1.379 . S
C694 C691 1.363 . S
C694 N692 1.356 . S
C695 C689 1.363 . S
C695 C690 1.379 . S
C695 N693 1.356 . S
N696 C688 1.356 . S
N696 H702 0.984 . S
N696 H703 0.984 . S
N697 C690 1.356 . S
N697 H700 0.984 . S
N697 H701 0.985 . S
H698 N693 0.984 . S
H699 N693 0.985 . S
H700 N697 0.984 . S
H701 N697 0.985 . S
H702 N696 0.984 . S
H703 N696 0.984 . S
H704 N692 0.984 . S
H705 N692 0.985 . S
C706 C707 1.363 . S
C706 C712 1.379 1_655 S
C706 N714 1.356 . S
C707 C706 1.363 . S
C707 C713 1.363 . S
C708 C709 1.363 . S
C708 C713 1.379 1_455 S
C708 N715 1.356 . S
C709 C708 1.363 . S
C709 C712 1.363 . S
N710 C712 1.356 . S
N710 H722 0.984 . S
N710 H723 0.985 . S
N711 C713 1.356 . S
N711 H716 0.984 . S
N711 H717 0.985 . S
C712 C706 1.379 1_455 S
C712 C709 1.363 . S
C712 N710 1.356 . S
C713 C707 1.363 . S
C713 C708 1.379 1_655 S
C713 N711 1.356 . S
N714 C706 1.356 . S
N714 H720 0.984 . S
N714 H721 0.984 . S
N715 C708 1.356 . S
N715 H718 0.984 . S
N715 H719 0.985 . S
H716 N711 0.984 . S
H717 N711 0.985 . S
H718 N715 0.984 . S
H719 N715 0.985 . S
H720 N714 0.984 . S
H721 N714 0.984 . S
H722 N710 0.984 . S
H723 N710 0.985 . S
C724 C725 1.363 . S
C724 C730 1.379 . S
C724 N732 1.356 . S
C725 C724 1.363 . S
C725 C731 1.363 . S
C726 C727 1.363 . S
C726 C731 1.379 1_565 S
C726 N733 1.356 . S
C727 C726 1.363 . S
C727 C730 1.363 1_565 S
N728 C730 1.356 1_565 S
N728 H740 0.984 1_665 S
N728 H741 0.985 1_655 S
N729 C731 1.356 . S
N729 H734 0.984 . S
N729 H735 0.990 . S
C730 C724 1.379 . S
C730 C727 1.363 1_545 S
C730 N728 1.356 1_545 S
C731 C725 1.363 . S
C731 C726 1.379 1_545 S
C731 N729 1.356 . S
N732 C724 1.356 . S
N732 H738 0.984 . S
N732 H739 0.984 . S
N733 C726 1.356 . S
N733 H736 0.984 . S
N733 H737 0.985 . S
H734 N729 0.984 . S
H735 N729 0.990 . S
H736 N733 0.984 . S
H737 N733 0.985 . S
H738 N732 0.984 . S
H739 N732 0.984 . S
H740 N728 0.984 1_445 S
H741 N728 0.985 1_455 S
C742 C743 1.363 . S
C742 C748 1.379 . S
C742 N750 1.356 1_565 S
C743 C742 1.363 . S
C743 C749 1.363 . S
C744 C745 1.363 . S
C744 C749 1.379 . S
C744 N751 1.356 . S
C745 C744 1.363 . S
C745 C748 1.363 . S
N746 C748 1.356 . S
N746 H758 0.984 . S
N746 H759 0.985 . S
N747 C749 1.356 . S
N747 H752 0.984 . S
N747 H753 0.985 . S
C748 C742 1.379 . S
C748 C745 1.363 . S
C748 N746 1.356 . S
C749 C743 1.363 . S
C749 C744 1.379 . S
C749 N747 1.356 . S
N750 C742 1.356 1_545 S
N750 H756 0.984 . S
N750 H757 0.984 . S
N751 C744 1.356 . S
N751 H754 0.984 . S
N751 H755 0.985 . S
H752 N747 0.984 . S
H753 N747 0.985 . S
H754 N751 0.984 . S
H755 N751 0.985 . S
H756 N750 0.984 . S
H757 N750 0.984 . S
H758 N746 0.984 . S
H759 N746 0.985 . S
C760 C761 1.363 . S
C760 C766 1.351 1_545 S
C760 N768 1.356 . S
C761 C760 1.363 . S
C761 C767 1.363 . S
C762 C763 1.363 . S
C762 C767 1.379 1_565 S
C762 N769 1.356 . S
C763 C762 1.363 . S
C763 C766 1.389 . S
N764 C766 1.369 . S
N764 H776 0.987 1_565 S
N764 H777 0.985 . S
N765 C767 1.356 . S
N765 H770 0.984 . S
N765 H771 0.985 . S
C766 C760 1.351 1_565 S
C766 C763 1.389 . S
C766 N764 1.369 . S
C767 C761 1.363 . S
C767 C762 1.379 1_545 S
C767 N765 1.356 . S
N768 C760 1.356 . S
N768 H774 0.984 . S
N768 H775 0.984 . S
N769 C762 1.356 . S
N769 H772 0.984 . S
N769 H773 0.985 . S
H770 N765 0.984 . S
H771 N765 0.985 . S
H772 N769 0.984 . S
H773 N769 0.985 . S
H774 N768 0.984 . S
H775 N768 0.984 . S
H776 N764 0.987 1_545 S
H777 N764 0.985 . S
C778 C779 1.363 . S
C778 C784 1.379 . S
C778 N786 1.356 . S
C779 C778 1.363 . S
C779 C785 1.363 . S
C780 C781 1.363 . S
C780 C785 1.379 . S
C780 N787 1.356 . S
C781 C780 1.363 . S
C781 C784 1.363 . S
N782 C784 1.356 . S
N782 H794 0.984 . S
N782 H795 0.985 . S
N783 C785 1.356 . S
N783 H788 0.984 . S
N783 H789 0.985 . S
C784 C778 1.379 . S
C784 C781 1.363 . S
C784 N782 1.356 . S
C785 C779 1.363 . S
C785 C780 1.379 . S
C785 N783 1.356 . S
N786 C778 1.356 . S
N786 H792 0.984 . S
N786 H793 0.984 . S
N787 C780 1.356 . S
N787 H790 0.984 . S
N787 H791 0.985 . S
H788 N783 0.984 . S
H789 N783 0.985 . S
H790 N787 0.984 . S
H791 N787 0.985 . S
H792 N786 0.984 . S
H793 N786 0.984 . S
H794 N782 0.984 . S
H795 N782 0.985 . S
C796 C797 1.363 . S
C796 C802 1.379 . S
C796 N804 1.356 . S
C797 C796 1.363 . S
C797 C803 1.363 . S
C798 C799 1.363 . S
C798 C803 1.379 . S
C798 N805 1.356 . S
C799 C798 1.363 . S
C799 C802 1.363 . S
N800 C802 1.356 . S
N800 H812 0.984 . S
N800 H813 0.985 . S
N801 C803 1.356 . S
N801 H806 0.984 . S
N801 H807 0.985 . S
C802 C796 1.379 . S
C802 C799 1.363 . S
C802 N800 1.356 . S
C803 C797 1.363 . S
C803 C798 1.379 . S
C803 N801 1.356 . S
N804 C796 1.356 . S
N804 H810 0.984 . S
N804 H811 0.984 . S
N805 C798 1.356 . S
N805 H808 0.976 1_655 S
N805 H809 0.986 . S
H806 N801 0.984 . S
H807 N801 0.985 . S
H808 N805 0.976 1_455 S
H809 N805 0.986 . S
H810 N804 0.984 . S
H811 N804 0.984 . S
H812 N800 0.984 . S
H813 N800 0.985 . S
C814 C815 1.363 . S
C814 C820 1.368 1_455 S
C814 N822 1.356 . S
C815 C814 1.363 . S
C815 C821 1.363 . S
C816 C817 1.363 . S
C816 C821 1.379 1_655 S
C816 N823 1.356 . S
C817 C816 1.363 . S
C817 C820 1.373 . S
N818 C820 1.361 . S
N818 H830 0.984 1_665 S
N818 H831 0.973 1_565 S
N819 C821 1.356 . S
N819 H824 0.984 . S
N819 H825 0.985 . S
C820 C814 1.368 1_655 S
C820 C817 1.373 . S
C820 N818 1.361 . S
C821 C815 1.363 . S
C821 C816 1.379 1_455 S
C821 N819 1.356 . S
N822 C814 1.356 . S
N822 H828 0.984 . S
N822 H829 0.984 . S
N823 C816 1.356 . S
N823 H826 0.984 . S
N823 H827 0.985 . S
H824 N819 0.984 . S
H825 N819 0.985 . S
H826 N823 0.984 . S
H827 N823 0.985 . S
H828 N822 0.984 . S
H829 N822 0.984 . S
H830 N818 0.984 1_445 S
H831 N818 0.973 1_545 S
C832 C833 1.363 . S
C832 C838 1.379 . S
C832 N840 1.356 . S
C833 C832 1.363 . S
C833 C839 1.363 . S
C834 C835 1.363 . S
C834 C839 1.379 . S
C834 N841 1.356 . S
C835 C834 1.363 . S
C835 C838 1.363 . S
N836 C838 1.356 . S
N836 H848 0.984 . S
N836 H849 0.985 . S
N837 C839 1.356 . S
N837 H842 0.984 . S
N837 H843 0.985 . S
C838 C832 1.379 . S
C838 C835 1.363 . S
C838 N836 1.356 . S
C839 C833 1.363 . S
C839 C834 1.379 . S
C839 N837 1.356 . S
N840 C832 1.356 . S
N840 H846 0.984 . S
N840 H847 0.984 . S
N841 C834 1.356 . S
N841 H844 0.984 . S
N841 H845 0.985 . S
H842 N837 0.984 . S
H843 N837 0.985 . S
H844 N841 0.984 . S
H845 N841 0.985 . S
H846 N840 0.984 . S
H847 N840 0.984 . S
H848 N836 0.984 . S
H849 N836 0.985 . S
C850 C851 1.363 . S
C850 C856 1.379 . S
C850 N858 1.356 . S
C851 C850 1.363 . S
C851 C857 1.363 . S
C852 C853 1.363 . S
C852 C857 1.379 . S
C852 N859 1.356 . S
C853 C852 1.363 . S
C853 C856 1.363 . S
N854 C856 1.356 . S
N854 H866 0.984 . S
N854 H867 0.985 . S
N855 C857 1.356 . S
N855 H860 0.984 . S
N855 H861 0.985 . S
C856 C850 1.379 . S
C856 C853 1.363 . S
C856 N854 1.356 . S
C857 C851 1.363 . S
C857 C852 1.379 . S
C857 N855 1.356 . S
N858 C850 1.356 . S
N858 H864 0.984 . S
N858 H865 0.984 . S
N859 C852 1.356 . S
N859 H862 0.984 . S
N859 H863 0.985 . S
H860 N855 0.984 . S
H861 N855 0.985 . S
H862 N859 0.984 . S
H863 N859 0.985 . S
H864 N858 0.984 . S
H865 N858 0.984 . S
H866 N854 0.984 . S
H867 N854 0.985 . S
C868 C869 1.363 . S
C868 C874 1.379 . S
C868 N876 1.356 . S
C869 C868 1.363 . S
C869 C875 1.363 . S
C870 C871 1.363 . S
C870 C875 1.379 . S
C870 N877 1.356 . S
C871 C870 1.363 . S
C871 C874 1.363 . S
N872 C874 1.356 . S
N872 H884 0.984 . S
N872 H885 0.985 . S
N873 C875 1.356 . S
N873 H878 0.984 . S
N873 H879 0.985 . S
C874 C868 1.379 . S
C874 C871 1.363 . S
C874 N872 1.356 . S
C875 C869 1.363 . S
C875 C870 1.379 . S
C875 N873 1.356 . S
N876 C868 1.356 . S
N876 H882 0.984 . S
N876 H883 0.984 . S
N877 C870 1.356 . S
N877 H880 0.984 . S
N877 H881 0.985 . S
H878 N873 0.984 . S
H879 N873 0.985 . S
H880 N877 0.984 . S
H881 N877 0.985 . S
H882 N876 0.984 . S
H883 N876 0.984 . S
H884 N872 0.984 . S
H885 N872 0.985 . S
C886 C887 1.363 . S
C886 C892 1.379 . S
C886 N894 1.356 . S
C887 C886 1.363 . S
C887 C893 1.363 . S
C888 C889 1.363 . S
C888 C893 1.379 . S
C888 N895 1.356 . S
C889 C888 1.363 . S
C889 C892 1.363 . S
N890 C892 1.356 . S
N890 H902 0.984 . S
N890 H903 0.985 . S
N891 C893 1.356 . S
N891 H896 0.984 . S
N891 H897 0.985 . S
C892 C886 1.379 . S
C892 C889 1.363 . S
C892 N890 1.356 . S
C893 C887 1.363 . S
C893 C888 1.379 . S
C893 N891 1.356 . S
N894 C886 1.356 . S
N894 H900 0.984 . S
N894 H901 0.984 . S
N895 C888 1.356 . S
N895 H898 0.984 . S
N895 H899 0.985 . S
H896 N891 0.984 . S
H897 N891 0.985 . S
H898 N895 0.984 . S
H899 N895 0.985 . S
H900 N894 0.984 . S
H901 N894 0.984 . S
H902 N890 0.984 . S
H903 N890 0.985 . S
C904 C905 1.363 . S
C904 C910 1.379 . S
C904 N912 1.356 . S
C905 C904 1.363 . S
C905 C911 1.363 . S
C906 C907 1.363 . S
C906 C911 1.379 . S
C906 N913 1.356 . S
C907 C906 1.363 . S
C907 C910 1.363 . S
N908 C910 1.356 . S
N908 H920 0.984 . S
N908 H921 0.985 . S
N909 C911 1.356 . S
N909 H914 0.984 . S
N909 H915 0.985 . S
C910 C904 1.379 . S
C910 C907 1.363 . S
C910 N908 1.356 . S
C911 C905 1.363 . S
C911 C906 1.379 . S
C911 N909 1.356 . S
N912 C904 1.356 . S
N912 H918 0.984 . S
N912 H919 0.984 . S
N913 C906 1.356 . S
N913 H916 0.984 . S
N913 H917 0.985 . S
H914 N909 0.984 . S
H915 N909 0.985 . S
H916 N913 0.984 . S
H917 N913 0.985 . S
H918 N912 0.984 . S
H919 N912 0.984 . S
H920 N908 0.984 . S
H921 N908 0.985 . S
C922 C923 1.363 . S
C922 C928 1.379 . S
C922 N930 1.356 . S
C923 C922 1.363 . S
C923 C929 1.363 . S
C924 C925 1.363 . S
C924 C929 1.379 . S
C924 N931 1.356 . S
C925 C924 1.363 . S
C925 C928 1.363 . S
N926 C928 1.356 . S
N926 H938 0.984 . S
N926 H939 0.985 . S
N927 C929 1.356 . S
N927 H932 0.984 . S
N927 H933 0.985 . S
C928 C922 1.379 . S
C928 C925 1.363 . S
C928 N926 1.356 . S
C929 C923 1.363 . S
C929 C924 1.379 . S
C929 N927 1.356 . S
N930 C922 1.356 . S
N930 H936 0.984 . S
N930 H937 0.984 . S
N931 C924 1.356 . S
N931 H934 0.984 . S
N931 H935 0.985 . S
H932 N927 0.984 . S
H933 N927 0.985 . S
H934 N931 0.984 . S
H935 N931 0.985 . S
H936 N930 0.984 . S
H937 N930 0.984 . S
H938 N926 0.984 . S
H939 N926 0.985 . S
C940 C941 1.363 . S
C940 C946 1.379 . S
C940 N948 1.356 . S
C941 C940 1.363 . S
C941 C947 1.363 . S
C942 C943 1.363 . S
C942 C947 1.379 . S
C942 N949 1.356 . S
C943 C942 1.363 . S
C943 C946 1.363 . S
N944 C946 1.356 . S
N944 H956 0.984 . S
N944 H957 0.985 . S
N945 C947 1.356 . S
N945 H950 0.984 . S
N945 H951 0.985 . S
C946 C940 1.379 . S
C946 C943 1.363 . S
C946 N944 1.356 . S
C947 C941 1.363 . S
C947 C942 1.379 . S
C947 N945 1.356 . S
N948 C940 1.356 . S
N948 H954 0.984 . S
N948 H955 0.984 . S
N949 C942 1.356 . S
N949 H952 0.984 . S
N949 H953 0.985 . S
H950 N945 0.984 . S
H951 N945 0.985 . S
H952 N949 0.984 . S
H953 N949 0.985 . S
H954 N948 0.984 . S
H955 N948 0.984 . S
H956 N944 0.984 . S
H957 N944 0.985 . S
C958 C959 1.363 . S
C958 C964 1.379 . S
C958 N966 1.356 . S
C959 C958 1.363 . S
C959 C965 1.363 . S
C960 C961 1.363 . S
C960 C965 1.379 . S
C960 N967 1.356 . S
C961 C960 1.363 . S
C961 C964 1.363 . S
N962 C964 1.356 . S
N962 H974 0.984 . S
N962 H975 0.985 . S
N963 C965 1.356 . S
N963 H968 0.984 . S
N963 H969 0.985 . S
C964 C958 1.379 . S
C964 C961 1.363 . S
C964 N962 1.356 . S
C965 C959 1.363 . S
C965 C960 1.379 . S
C965 N963 1.356 . S
N966 C958 1.356 . S
N966 H972 0.984 . S
N966 H973 0.984 . S
N967 C960 1.356 . S
N967 H970 0.984 . S
N967 H971 0.985 . S
H968 N963 0.984 . S
H969 N963 0.985 . S
H970 N967 0.984 . S
H971 N967 0.985 . S
H972 N966 0.984 . S
H973 N966 0.984 . S
H974 N962 0.984 . S
H975 N962 0.985 . S
C976 C977 1.363 . S
C976 C982 1.379 . S
C976 N984 1.356 . S
C977 C976 1.363 . S
C977 C983 1.363 . S
C978 C979 1.363 . S
C978 C983 1.379 . S
C978 N985 1.356 . S
C979 C978 1.363 . S
C979 C982 1.363 . S
N980 C982 1.356 . S
N980 H992 0.984 . S
N980 H993 0.985 . S
N981 C983 1.356 . S
N981 H986 0.984 . S
N981 H987 0.985 . S
C982 C976 1.379 . S
C982 C979 1.363 . S
C982 N980 1.356 . S
C983 C977 1.363 . S
C983 C978 1.379 . S
C983 N981 1.356 . S
N984 C976 1.356 . S
N984 H990 0.984 . S
N984 H991 0.984 . S
N985 C978 1.356 . S
N985 H988 0.984 . S
N985 H989 0.985 . S
H986 N981 0.984 . S
H987 N981 0.985 . S
H988 N985 0.984 . S
H989 N985 0.985 . S
H990 N984 0.984 . S
H991 N984 0.984 . S
H992 N980 0.984 . S
H993 N980 0.985 . S
C994 C995 1.363 . S
C994 C1000 1.379 . S
C994 N1002 1.356 . S
C995 C994 1.363 . S
C995 C1001 1.363 . S
C996 C997 1.363 . S
C996 C1001 1.379 . S
C996 N1003 1.356 . S
C997 C996 1.363 . S
C997 C1000 1.363 . S
N998 C1000 1.356 . S
N998 H1010 0.984 . S
N998 H1011 0.985 . S
N999 C1001 1.356 . S
N999 H1004 0.984 . S
N999 H1005 0.985 . S
C1000 C994 1.379 . S
C1000 C997 1.363 . S
C1000 N998 1.356 . S
C1001 C995 1.363 . S
C1001 C996 1.379 . S
C1001 N999 1.356 . S
N1002 C994 1.356 . S
N1002 H1008 0.984 . S
N1002 H1009 0.984 . S
N1003 C996 1.356 . S
N1003 H1006 0.984 . S
N1003 H1007 0.985 . S
H1004 N999 0.984 . S
H1005 N999 0.985 . S
H1006 N1003 0.984 . S
H1007 N1003 0.985 . S
H1008 N1002 0.984 . S
H1009 N1002 0.984 . S
H1010 N998 0.984 . S
H1011 N998 0.985 . S
C1012 C1013 1.363 . S
C1012 C1018 1.379 . S
C1012 N1020 1.356 . S
C1013 C1012 1.363 . S
C1013 C1019 1.363 . S
C1014 C1015 1.363 . S
C1014 C1019 1.379 . S
C1014 N1021 1.356 . S
C1015 C1014 1.363 . S
C1015 C1018 1.363 . S
N1016 C1018 1.356 . S
N1016 H1028 0.984 . S
N1016 H1029 0.985 . S
N1017 C1019 1.356 . S
N1017 H1022 0.984 . S
N1017 H1023 0.985 . S
C1018 C1012 1.379 . S
C1018 C1015 1.363 . S
C1018 N1016 1.356 . S
C1019 C1013 1.363 . S
C1019 C1014 1.379 . S
C1019 N1017 1.356 . S
N1020 C1012 1.356 . S
N1020 H1026 0.984 . S
N1020 H1027 0.984 . S
N1021 C1014 1.356 . S
N1021 H1024 0.984 . S
N1021 H1025 0.985 . S
H1022 N1017 0.984 . S
H1023 N1017 0.985 . S
H1024 N1021 0.984 . S
H1025 N1021 0.985 . S
H1026 N1020 0.984 . S
H1027 N1020 0.984 . S
H1028 N1016 0.984 . S
H1029 N1016 0.985 . S
C1030 C1031 1.363 . S
C1030 C1036 1.379 . S
C1030 N1038 1.356 . S
C1031 C1030 1.363 . S
C1031 C1037 1.363 . S
C1032 C1033 1.363 . S
C1032 C1037 1.379 . S
C1032 N1039 1.356 . S
C1033 C1032 1.363 . S
C1033 C1036 1.363 . S
N1034 C1036 1.356 . S
N1034 H1046 0.984 . S
N1034 H1047 0.985 . S
N1035 C1037 1.356 . S
N1035 H1040 0.984 . S
N1035 H1041 0.985 . S
C1036 C1030 1.379 . S
C1036 C1033 1.363 . S
C1036 N1034 1.356 . S
C1037 C1031 1.363 . S
C1037 C1032 1.379 . S
C1037 N1035 1.356 . S
N1038 C1030 1.356 . S
N1038 H1044 0.984 . S
N1038 H1045 0.984 . S
N1039 C1032 1.356 . S
N1039 H1042 0.984 . S
N1039 H1043 0.985 . S
H1040 N1035 0.984 . S
H1041 N1035 0.985 . S
H1042 N1039 0.984 . S
H1043 N1039 0.985 . S
H1044 N1038 0.984 . S
H1045 N1038 0.984 . S
H1046 N1034 0.984 . S
H1047 N1034 0.985 . S
C1048 C1049 1.363 . S
C1048 C1054 1.379 . S
C1048 N1056 1.356 . S
C1049 C1048 1.363 . S
C1049 C1055 1.363 . S
C1050 C1051 1.363 . S
C1050 C1055 1.379 . S
C1050 N1057 1.356 . S
C1051 C1050 1.363 . S
C1051 C1054 1.363 . S
N1052 C1054 1.356 . S
N1052 H1064 0.984 . S
N1052 H1065 0.985 . S
N1053 C1055 1.356 . S
N1053 H1058 0.984 . S
N1053 H1059 0.985 . S
C1054 C1048 1.379 . S
C1054 C1051 1.363 . S
C1054 N1052 1.356 . S
C1055 C1049 1.363 . S
C1055 C1050 1.379 . S
C1055 N1053 1.356 . S
N1056 C1048 1.356 . S
N1056 H1062 0.984 . S
N1056 H1063 0.984 . S
N1057 C1050 1.356 . S
N1057 H1060 0.984 . S
N1057 H1061 0.985 . S
H1058 N1053 0.984 . S
H1059 N1053 0.985 . S
H1060 N1057 0.984 . S
H1061 N1057 0.985 . S
H1062 N1056 0.984 . S
H1063 N1056 0.984 . S
H1064 N1052 0.984 . S
H1065 N1052 0.985 . S
C1066 C1067 1.363 . S
C1066 C1072 1.379 . S
C1066 N1074 1.356 . S
C1067 C1066 1.363 . S
C1067 C1073 1.363 . S
C1068 C1069 1.363 . S
C1068 C1073 1.379 . S
C1068 N1075 1.356 . S
C1069 C1068 1.363 . S
C1069 C1072 1.363 . S
N1070 C1072 1.356 . S
N1070 H1082 0.984 . S
N1070 H1083 0.985 . S
N1071 C1073 1.356 . S
N1071 H1076 0.984 . S
N1071 H1077 0.985 . S
C1072 C1066 1.379 . S
C1072 C1069 1.363 . S
C1072 N1070 1.356 . S
C1073 C1067 1.363 . S
C1073 C1068 1.379 . S
C1073 N1071 1.356 . S
N1074 C1066 1.356 . S
N1074 H1080 0.984 . S
N1074 H1081 0.984 . S
N1075 C1068 1.356 . S
N1075 H1078 0.984 . S
N1075 H1079 0.985 . S
H1076 N1071 0.984 . S
H1077 N1071 0.985 . S
H1078 N1075 0.984 . S
H1079 N1075 0.985 . S
H1080 N1074 0.984 . S
H1081 N1074 0.984 . S
H1082 N1070 0.984 . S
H1083 N1070 0.985 . S
C1084 C1085 1.363 . S
C1084 C1090 1.379 . S
C1084 N1092 1.356 . S
C1085 C1084 1.363 . S
C1085 C1091 1.363 . S
C1086 C1087 1.363 . S
C1086 C1091 1.379 . S
C1086 N1093 1.356 . S
C1087 C1086 1.363 . S
C1087 C1090 1.363 . S
N1088 C1090 1.356 . S
N1088 H1100 0.984 . S
N1088 H1101 0.985 . S
N1089 C1091 1.356 . S
N1089 H1094 0.984 1_655 S
N1089 H1095 0.985 . S
C1090 C1084 1.379 . S
C1090 C1087 1.363 . S
C1090 N1088 1.356 . S
C1091 C1085 1.363 . S
C1091 C1086 1.379 . S
C1091 N1089 1.356 . S
N1092 C1084 1.356 . S
N1092 H1098 0.984 . S
N1092 H1099 0.984 . S
N1093 C1086 1.356 . S
N1093 H1096 0.984 . S
N1093 H1097 0.985 . S
H1094 N1089 0.984 1_455 S
H1095 N1089 0.985 . S
H1096 N1093 0.984 . S
H1097 N1093 0.985 . S
H1098 N1092 0.984 . S
H1099 N1092 0.984 . S
H1100 N1088 0.984 . S
H1101 N1088 0.985 . S
C1102 C1103 1.363 . S
C1102 C1108 1.379 . S
C1102 N1110 1.356 . S
C1103 C1102 1.363 . S
C1103 C1109 1.363 . S
C1104 C1105 1.363 . S
C1104 C1109 1.379 . S
C1104 N1111 1.356 . S
C1105 C1104 1.363 . S
C1105 C1108 1.363 . S
N1106 C1108 1.356 . S
N1106 H1118 0.984 . S
N1106 H1119 0.985 . S
N1107 C1109 1.356 . S
N1107 H1112 0.984 . S
N1107 H1113 0.985 . S
C1108 C1102 1.379 . S
C1108 C1105 1.363 . S
C1108 N1106 1.356 . S
C1109 C1103 1.363 . S
C1109 C1104 1.379 . S
C1109 N1107 1.356 . S
N1110 C1102 1.356 . S
N1110 H1116 0.984 . S
N1110 H1117 0.984 . S
N1111 C1104 1.356 . S
N1111 H1114 0.984 . S
N1111 H1115 0.985 . S
H1112 N1107 0.984 . S
H1113 N1107 0.985 . S
H1114 N1111 0.984 . S
H1115 N1111 0.985 . S
H1116 N1110 0.984 . S
H1117 N1110 0.984 . S
H1118 N1106 0.984 . S
H1119 N1106 0.985 . S
C1120 C1121 1.363 . S
C1120 C1126 1.379 . S
C1120 N1128 1.356 . S
C1121 C1120 1.363 . S
C1121 C1127 1.363 1_655 S
C1122 C1123 1.363 . S
C1122 C1127 1.379 1_655 S
C1122 N1129 1.356 . S
C1123 C1122 1.363 . S
C1123 C1126 1.363 . S
N1124 C1126 1.356 . S
N1124 H1136 0.984 . S
N1124 H1137 0.985 . S
N1125 C1127 1.356 . S
N1125 H1130 0.984 . S
N1125 H1131 0.985 . S
C1126 C1120 1.379 . S
C1126 C1123 1.363 . S
C1126 N1124 1.356 . S
C1127 C1121 1.363 1_455 S
C1127 C1122 1.379 1_455 S
C1127 N1125 1.356 . S
N1128 C1120 1.356 . S
N1128 H1134 0.984 . S
N1128 H1135 0.984 . S
N1129 C1122 1.356 . S
N1129 H1132 0.984 . S
N1129 H1133 0.985 . S
H1130 N1125 0.984 . S
H1131 N1125 0.985 . S
H1132 N1129 0.984 . S
H1133 N1129 0.985 . S
H1134 N1128 0.984 . S
H1135 N1128 0.984 . S
H1136 N1124 0.984 . S
H1137 N1124 0.985 . S
C1138 C1139 1.363 . S
C1138 C1144 1.379 . S
C1138 N1146 1.356 . S
C1139 C1138 1.363 . S
C1139 C1145 1.363 1_565 S
C1140 C1141 1.363 . S
C1140 C1145 1.379 1_565 S
C1140 N1147 1.356 . S
C1141 C1140 1.363 . S
C1141 C1144 1.363 . S
N1142 C1144 1.356 . S
N1142 H1154 0.984 . S
N1142 H1155 0.985 . S
N1143 C1145 1.356 . S
N1143 H1148 0.984 . S
N1143 H1149 0.985 . S
C1144 C1138 1.379 . S
C1144 C1141 1.363 . S
C1144 N1142 1.356 . S
C1145 C1139 1.363 1_545 S
C1145 C1140 1.379 1_545 S
C1145 N1143 1.356 . S
N1146 C1138 1.356 . S
N1146 H1152 0.984 . S
N1146 H1153 0.984 . S
N1147 C1140 1.356 . S
N1147 H1150 0.984 . S
N1147 H1151 0.985 1_565 S
H1148 N1143 0.984 . S
H1149 N1143 0.985 . S
H1150 N1147 0.984 . S
H1151 N1147 0.985 1_545 S
H1152 N1146 0.984 . S
H1153 N1146 0.984 . S
H1154 N1142 0.984 . S
H1155 N1142 0.985 . S
C1156 C1157 1.363 . S
C1156 C1162 1.379 . S
C1156 N1164 1.356 . S
C1157 C1156 1.363 . S
C1157 C1163 1.363 . S
C1158 C1159 1.363 . S
C1158 C1163 1.379 . S
C1158 N1165 1.356 . S
C1159 C1158 1.363 . S
C1159 C1162 1.363 . S
N1160 C1162 1.356 . S
N1160 H1172 0.984 . S
N1160 H1173 0.985 . S
N1161 C1163 1.356 . S
N1161 H1166 0.984 . S
N1161 H1167 0.985 . S
C1162 C1156 1.379 . S
C1162 C1159 1.363 . S
C1162 N1160 1.356 . S
C1163 C1157 1.363 . S
C1163 C1158 1.379 . S
C1163 N1161 1.356 . S
N1164 C1156 1.356 . S
N1164 H1170 0.984 . S
N1164 H1171 0.984 . S
N1165 C1158 1.356 . S
N1165 H1168 0.984 . S
N1165 H1169 0.985 . S
H1166 N1161 0.984 . S
H1167 N1161 0.985 . S
H1168 N1165 0.984 . S
H1169 N1165 0.985 . S
H1170 N1164 0.984 . S
H1171 N1164 0.984 . S
H1172 N1160 0.984 . S
H1173 N1160 0.985 . S
C1174 C1175 1.363 . S
C1174 C1180 1.379 . S
C1174 N1182 1.356 . S
C1175 C1174 1.363 . S
C1175 C1181 1.363 . S
C1176 C1177 1.363 . S
C1176 C1181 1.379 . S
C1176 N1183 1.356 . S
C1177 C1176 1.363 . S
C1177 C1180 1.363 . S
N1178 C1180 1.356 . S
N1178 H1190 0.984 . S
N1178 H1191 0.985 . S
N1179 C1181 1.356 . S
N1179 H1184 0.984 . S
N1179 H1185 0.985 . S
C1180 C1174 1.379 . S
C1180 C1177 1.363 . S
C1180 N1178 1.356 . S
C1181 C1175 1.363 . S
C1181 C1176 1.379 . S
C1181 N1179 1.356 . S
N1182 C1174 1.356 . S
N1182 H1188 0.984 . S
N1182 H1189 0.984 . S
N1183 C1176 1.356 . S
N1183 H1186 0.984 . S
N1183 H1187 0.985 . S
H1184 N1179 0.984 . S
H1185 N1179 0.985 . S
H1186 N1183 0.984 . S
H1187 N1183 0.985 . S
H1188 N1182 0.984 . S
H1189 N1182 0.984 . S
H1190 N1178 0.984 . S
H1191 N1178 0.985 . S
C1192 C1193 1.363 1_455 S
C1192 C1198 1.379 1_455 S
C1192 N1200 1.356 . S
C1193 C1192 1.363 1_655 S
C1193 C1199 1.363 . S
C1194 C1195 1.363 . S
C1194 C1199 1.379 . S
C1194 N1201 1.356 . S
C1195 C1194 1.363 . S
C1195 C1198 1.363 . S
N1196 C1198 1.356 . S
N1196 H1208 0.984 . S
N1196 H1209 0.985 . S
N1197 C1199 1.356 . S
N1197 H1202 0.984 . S
N1197 H1203 0.985 . S
C1198 C1192 1.379 1_655 S
C1198 C1195 1.363 . S
C1198 N1196 1.356 . S
C1199 C1193 1.363 . S
C1199 C1194 1.379 . S
C1199 N1197 1.356 . S
N1200 C1192 1.356 . S
N1200 H1206 0.984 . S
N1200 H1207 0.984 . S
N1201 C1194 1.356 . S
N1201 H1204 0.984 . S
N1201 H1205 0.985 . S
H1202 N1197 0.984 . S
H1203 N1197 0.985 . S
H1204 N1201 0.984 . S
H1205 N1201 0.985 . S
H1206 N1200 0.984 . S
H1207 N1200 0.984 . S
H1208 N1196 0.984 . S
H1209 N1196 0.985 . S
C1210 C1211 1.363 . S
C1210 C1216 1.379 . S
C1210 N1218 1.356 . S
C1211 C1210 1.363 . S
C1211 C1217 1.363 . S
C1212 C1213 1.363 . S
C1212 C1217 1.379 . S
C1212 N1219 1.356 1_565 S
C1213 C1212 1.363 . S
C1213 C1216 1.363 . S
N1214 C1216 1.356 1_545 S
N1214 H1226 0.984 1_545 S
N1214 H1227 0.985 . S
N1215 C1217 1.356 . S
N1215 H1220 0.984 . S
N1215 H1221 0.985 . S
C1216 C1210 1.379 . S
C1216 C1213 1.363 . S
C1216 N1214 1.356 1_565 S
C1217 C1211 1.363 . S
C1217 C1212 1.379 . S
C1217 N1215 1.356 . S
N1218 C1210 1.356 . S
N1218 H1224 0.984 . S
N1218 H1225 0.984 . S
N1219 C1212 1.356 1_545 S
N1219 H1222 0.984 . S
N1219 H1223 0.988 . S
H1220 N1215 0.984 . S
H1221 N1215 0.985 . S
H1222 N1219 0.984 . S
H1223 N1219 0.988 . S
H1224 N1218 0.984 . S
H1225 N1218 0.984 . S
H1226 N1214 0.984 1_565 S
H1227 N1214 0.985 . S
C1228 C1229 1.363 . S
C1228 C1234 1.379 . S
C1228 N1236 1.356 . S
C1229 C1228 1.363 . S
C1229 C1235 1.363 . S
C1230 C1231 1.363 . S
C1230 C1235 1.379 . S
C1230 N1237 1.356 . S
C1231 C1230 1.363 . S
C1231 C1234 1.363 . S
N1232 C1234 1.356 . S
N1232 H1244 0.984 . S
N1232 H1245 0.985 . S
N1233 C1235 1.356 . S
N1233 H1238 0.984 . S
N1233 H1239 0.985 . S
C1234 C1228 1.379 . S
C1234 C1231 1.363 . S
C1234 N1232 1.356 . S
C1235 C1229 1.363 . S
C1235 C1230 1.379 . S
C1235 N1233 1.356 . S
N1236 C1228 1.356 . S
N1236 H1242 0.984 . S
N1236 H1243 0.984 . S
N1237 C1230 1.356 . S
N1237 H1240 0.984 . S
N1237 H1241 0.985 . S
H1238 N1233 0.984 . S
H1239 N1233 0.985 . S
H1240 N1237 0.984 . S
H1241 N1237 0.985 . S
H1242 N1236 0.984 . S
H1243 N1236 0.984 . S
H1244 N1232 0.984 . S
H1245 N1232 0.985 . S
C1246 C1247 1.363 . S
C1246 C1252 1.379 . S
C1246 N1254 1.356 . S
C1247 C1246 1.363 . S
C1247 C1253 1.363 . S
C1248 C1249 1.363 . S
C1248 C1253 1.379 . S
C1248 N1255 1.356 . S
C1249 C1248 1.363 . S
C1249 C1252 1.363 . S
N1250 C1252 1.356 . S
N1250 H1262 0.984 . S
N1250 H1263 0.985 . S
N1251 C1253 1.356 . S
N1251 H1256 0.984 . S
N1251 H1257 0.985 . S
C1252 C1246 1.379 . S
C1252 C1249 1.363 . S
C1252 N1250 1.356 . S
C1253 C1247 1.363 . S
C1253 C1248 1.379 . S
C1253 N1251 1.356 . S
N1254 C1246 1.356 . S
N1254 H1260 0.984 . S
N1254 H1261 0.984 . S
N1255 C1248 1.356 . S
N1255 H1258 0.984 . S
N1255 H1259 0.985 . S
H1256 N1251 0.984 . S
H1257 N1251 0.985 . S
H1258 N1255 0.984 . S
H1259 N1255 0.985 . S
H1260 N1254 0.984 . S
H1261 N1254 0.984 . S
H1262 N1250 0.984 . S
H1263 N1250 0.985 . S
C545 C33 1.584 . S
C547 C237 1.584 . S
C563 C271 1.584 . S
C565 C67 1.584 . S
C581 C169 1.584 . S
C583 C101 1.584 . S
C599 C203 1.584 . S
C601 C135 1.584 . S
C617 C305 1.583 . S
C619 C509 1.583 . S
C635 C339 1.583 . S
C637 C543 1.583 . S
C653 C373 1.583 . S
C655 C441 1.583 . S
C671 C475 1.583 . S
C673 C407 1.583 . S
C689 C5 1.473 . S
C691 C104 1.496 . S
C707 C39 1.473 . S
C709 C2 1.495 . S
C725 C36 1.496 . S
C727 C73 1.473 . S
C743 C107 1.473 . S
C745 C70 1.495 . S
C761 C172 1.495 . S
C763 C141 1.473 . S
C779 C206 1.496 . S
C781 C175 1.473 . S
C797 C240 1.495 . S
C799 C209 1.473 . S
C815 C138 1.496 . S
C817 C243 1.473 . S
C833 C277 1.473 . S
C835 C376 1.496 . S
C851 C274 1.495 . S
C853 C311 1.473 . S
C869 C345 1.473 . S
C871 C308 1.496 . S
C887 C379 1.473 . S
C889 C342 1.495 . S
C905 C413 1.473 . S
C907 C444 1.495 . S
C923 C447 1.473 . S
C925 C478 1.496 . S
C941 C481 1.473 . S
C943 C512 1.495 . S
C959 C410 1.496 . S
C961 C515 1.473 . S
C977 C530 1.864 . S
C979 C20 1.864 . S
C995 C54 1.864 . S
C997 C428 1.864 . S
C1013 C462 1.864 . S
C1015 C88 1.864 . S
C1031 C122 1.864 . S
C1033 C496 1.864 . S
C1049 C326 1.864 . S
C1051 C156 1.864 . S
C1067 C190 1.864 . S
C1069 C360 1.864 . S
C1085 C224 1.864 . S
C1087 C394 1.864 . S
C1103 C292 1.864 . S
C1105 C258 1.864 . S
C1121 C145 1.187 1_655 S
C1123 C383 1.187 . S
C1139 C179 1.187 1_565 S
C1141 C281 1.187 . S
C1157 C213 1.187 . S
C1159 C315 1.187 . S
C1175 C349 1.187 . S
C1177 C247 1.187 . S
C1193 C9 1.187 1_655 S
C1195 C451 1.187 . S
C1211 C485 1.187 . S
C1213 C43 1.187 1_565 S
C1229 C77 1.187 . S
C1231 C519 1.187 . S
C1247 C111 1.187 . S
C1249 C417 1.187 . S
