# Generated by pormake.
# Topology kfi, (4)-cn, num edge types: 1
# Building blocks:
#     Node 0, Type 0, BuildingBlock: QUQFOY_clean_sbu_3, # of connection points: 4
#     Node 1, Type 0, BuildingBlock: QUQFOY_clean_sbu_3, # of connection points: 4
#     Node 2, Type 0, BuildingBlock: QUQFOY_clean_sbu_3, # of connection points: 4
#     Node 3, Type 0, BuildingBlock: QUQFOY_clean_sbu_3, # of connection points: 4
#     Node 4, Type 0, BuildingBlock: QUQFOY_clean_sbu_3, # of connection points: 4
#     Node 5, Type 0, BuildingBlock: QUQFOY_clean_sbu_3, # of connection points: 4
#     Node 6, Type 0, BuildingBlock: QUQFOY_clean_sbu_3, # of connection points: 4
#     Node 7, Type 0, BuildingBlock: QUQFOY_clean_sbu_3, # of connection points: 4
#     Node 8, Type 0, BuildingBlock: QUQFOY_clean_sbu_3, # of connection points: 4
#     Node 9, Type 0, BuildingBlock: QUQFOY_clean_sbu_3, # of connection points: 4
#     Node 10, Type 0, BuildingBlock: QUQFOY_clean_sbu_3, # of connection points: 4
#     Node 11, Type 0, BuildingBlock: QUQFOY_clean_sbu_3, # of connection points: 4
#     Node 12, Type 0, BuildingBlock: QUQFOY_clean_sbu_3, # of connection points: 4
#     Node 13, Type 0, BuildingBlock: QUQFOY_clean_sbu_3, # of connection points: 4
#     Node 14, Type 0, BuildingBlock: QUQFOY_clean_sbu_3, # of connection points: 4
#     Node 15, Type 0, BuildingBlock: QUQFOY_clean_sbu_3, # of connection points: 4
#     Node 16, Type 0, BuildingBlock: QUQFOY_clean_sbu_3, # of connection points: 4
#     Node 17, Type 0, BuildingBlock: QUQFOY_clean_sbu_3, # of connection points: 4
#     Node 18, Type 0, BuildingBlock: QUQFOY_clean_sbu_3, # of connection points: 4
#     Node 19, Type 0, BuildingBlock: QUQFOY_clean_sbu_3, # of connection points: 4
#     Node 20, Type 0, BuildingBlock: QUQFOY_clean_sbu_3, # of connection points: 4
#     Node 21, Type 0, BuildingBlock: QUQFOY_clean_sbu_3, # of connection points: 4
#     Node 22, Type 0, BuildingBlock: QUQFOY_clean_sbu_3, # of connection points: 4
#     Node 23, Type 0, BuildingBlock: QUQFOY_clean_sbu_3, # of connection points: 4
#     Node 24, Type 0, BuildingBlock: QUQFOY_clean_sbu_3, # of connection points: 4
#     Node 25, Type 0, BuildingBlock: QUQFOY_clean_sbu_3, # of connection points: 4
#     Node 26, Type 0, BuildingBlock: QUQFOY_clean_sbu_3, # of connection points: 4
#     Node 27, Type 0, BuildingBlock: QUQFOY_clean_sbu_3, # of connection points: 4
#     Node 28, Type 0, BuildingBlock: QUQFOY_clean_sbu_3, # of connection points: 4
#     Node 29, Type 0, BuildingBlock: QUQFOY_clean_sbu_3, # of connection points: 4
#     Node 30, Type 0, BuildingBlock: QUQFOY_clean_sbu_3, # of connection points: 4
#     Node 31, Type 0, BuildingBlock: QUQFOY_clean_sbu_3, # of connection points: 4
#     Node 32, Type 0, BuildingBlock: QUQFOY_clean_sbu_3, # of connection points: 4
#     Node 33, Type 0, BuildingBlock: QUQFOY_clean_sbu_3, # of connection points: 4
#     Node 34, Type 0, BuildingBlock: QUQFOY_clean_sbu_3, # of connection points: 4
#     Node 35, Type 0, BuildingBlock: QUQFOY_clean_sbu_3, # of connection points: 4
#     Node 36, Type 0, BuildingBlock: QUQFOY_clean_sbu_3, # of connection points: 4
#     Node 37, Type 0, BuildingBlock: QUQFOY_clean_sbu_3, # of connection points: 4
#     Node 38, Type 0, BuildingBlock: QUQFOY_clean_sbu_3, # of connection points: 4
#     Node 39, Type 0, BuildingBlock: QUQFOY_clean_sbu_3, # of connection points: 4
#     Node 40, Type 0, BuildingBlock: QUQFOY_clean_sbu_3, # of connection points: 4
#     Node 41, Type 0, BuildingBlock: QUQFOY_clean_sbu_3, # of connection points: 4
#     Node 42, Type 0, BuildingBlock: QUQFOY_clean_sbu_3, # of connection points: 4
#     Node 43, Type 0, BuildingBlock: QUQFOY_clean_sbu_3, # of connection points: 4
#     Node 44, Type 0, BuildingBlock: QUQFOY_clean_sbu_3, # of connection points: 4
#     Node 45, Type 0, BuildingBlock: QUQFOY_clean_sbu_3, # of connection points: 4
#     Node 46, Type 0, BuildingBlock: QUQFOY_clean_sbu_3, # of connection points: 4
#     Node 47, Type 0, BuildingBlock: QUQFOY_clean_sbu_3, # of connection points: 4
#     Node 48, Type 0, BuildingBlock: QUQFOY_clean_sbu_3, # of connection points: 4
#     Node 49, Type 0, BuildingBlock: QUQFOY_clean_sbu_3, # of connection points: 4
#     Node 50, Type 0, BuildingBlock: QUQFOY_clean_sbu_3, # of connection points: 4
#     Node 51, Type 0, BuildingBlock: QUQFOY_clean_sbu_3, # of connection points: 4
#     Node 52, Type 0, BuildingBlock: QUQFOY_clean_sbu_3, # of connection points: 4
#     Node 53, Type 0, BuildingBlock: QUQFOY_clean_sbu_3, # of connection points: 4
#     Node 54, Type 0, BuildingBlock: QUQFOY_clean_sbu_3, # of connection points: 4
#     Node 55, Type 0, BuildingBlock: QUQFOY_clean_sbu_3, # of connection points: 4
#     Node 56, Type 0, BuildingBlock: QUQFOY_clean_sbu_3, # of connection points: 4
#     Node 57, Type 0, BuildingBlock: QUQFOY_clean_sbu_3, # of connection points: 4
#     Node 58, Type 0, BuildingBlock: QUQFOY_clean_sbu_3, # of connection points: 4
#     Node 59, Type 0, BuildingBlock: QUQFOY_clean_sbu_3, # of connection points: 4
#     Node 60, Type 0, BuildingBlock: QUQFOY_clean_sbu_3, # of connection points: 4
#     Node 61, Type 0, BuildingBlock: QUQFOY_clean_sbu_3, # of connection points: 4
#     Node 62, Type 0, BuildingBlock: QUQFOY_clean_sbu_3, # of connection points: 4
#     Node 63, Type 0, BuildingBlock: QUQFOY_clean_sbu_3, # of connection points: 4
#     Node 64, Type 0, BuildingBlock: QUQFOY_clean_sbu_3, # of connection points: 4
#     Node 65, Type 0, BuildingBlock: QUQFOY_clean_sbu_3, # of connection points: 4
#     Node 66, Type 0, BuildingBlock: QUQFOY_clean_sbu_3, # of connection points: 4
#     Node 67, Type 0, BuildingBlock: QUQFOY_clean_sbu_3, # of connection points: 4
#     Node 68, Type 0, BuildingBlock: QUQFOY_clean_sbu_3, # of connection points: 4
#     Node 69, Type 0, BuildingBlock: QUQFOY_clean_sbu_3, # of connection points: 4
#     Node 70, Type 0, BuildingBlock: QUQFOY_clean_sbu_3, # of connection points: 4
#     Node 71, Type 0, BuildingBlock: QUQFOY_clean_sbu_3, # of connection points: 4
#     Node 72, Type 0, BuildingBlock: QUQFOY_clean_sbu_3, # of connection points: 4
#     Node 73, Type 0, BuildingBlock: QUQFOY_clean_sbu_3, # of connection points: 4
#     Node 74, Type 0, BuildingBlock: QUQFOY_clean_sbu_3, # of connection points: 4
#     Node 75, Type 0, BuildingBlock: QUQFOY_clean_sbu_3, # of connection points: 4
#     Node 76, Type 0, BuildingBlock: QUQFOY_clean_sbu_3, # of connection points: 4
#     Node 77, Type 0, BuildingBlock: QUQFOY_clean_sbu_3, # of connection points: 4
#     Node 78, Type 0, BuildingBlock: QUQFOY_clean_sbu_3, # of connection points: 4
#     Node 79, Type 0, BuildingBlock: QUQFOY_clean_sbu_3, # of connection points: 4
#     Node 80, Type 0, BuildingBlock: QUQFOY_clean_sbu_3, # of connection points: 4
#     Node 81, Type 0, BuildingBlock: QUQFOY_clean_sbu_3, # of connection points: 4
#     Node 82, Type 0, BuildingBlock: QUQFOY_clean_sbu_3, # of connection points: 4
#     Node 83, Type 0, BuildingBlock: QUQFOY_clean_sbu_3, # of connection points: 4
#     Node 84, Type 0, BuildingBlock: QUQFOY_clean_sbu_3, # of connection points: 4
#     Node 85, Type 0, BuildingBlock: QUQFOY_clean_sbu_3, # of connection points: 4
#     Node 86, Type 0, BuildingBlock: QUQFOY_clean_sbu_3, # of connection points: 4
#     Node 87, Type 0, BuildingBlock: QUQFOY_clean_sbu_3, # of connection points: 4
#     Node 88, Type 0, BuildingBlock: QUQFOY_clean_sbu_3, # of connection points: 4
#     Node 89, Type 0, BuildingBlock: QUQFOY_clean_sbu_3, # of connection points: 4
#     Node 90, Type 0, BuildingBlock: QUQFOY_clean_sbu_3, # of connection points: 4
#     Node 91, Type 0, BuildingBlock: QUQFOY_clean_sbu_3, # of connection points: 4
#     Node 92, Type 0, BuildingBlock: QUQFOY_clean_sbu_3, # of connection points: 4
#     Node 93, Type 0, BuildingBlock: QUQFOY_clean_sbu_3, # of connection points: 4
#     Node 94, Type 0, BuildingBlock: QUQFOY_clean_sbu_3, # of connection points: 4
#     Node 95, Type 0, BuildingBlock: QUQFOY_clean_sbu_3, # of connection points: 4
#     Edge 96, Type (0, 0), BuildingBlock: XUDNAN_clean_linker_2, # of connection points: 2
#     Edge 97, Type (0, 0), BuildingBlock: XUDNAN_clean_linker_2, # of connection points: 2
#     Edge 98, Type (0, 0), BuildingBlock: XUDNAN_clean_linker_2, # of connection points: 2
#     Edge 99, Type (0, 0), BuildingBlock: XUDNAN_clean_linker_2, # of connection points: 2
#     Edge 100, Type (0, 0), BuildingBlock: XUDNAN_clean_linker_2, # of connection points: 2
#     Edge 101, Type (0, 0), BuildingBlock: XUDNAN_clean_linker_2, # of connection points: 2
#     Edge 102, Type (0, 0), BuildingBlock: XUDNAN_clean_linker_2, # of connection points: 2
#     Edge 103, Type (0, 0), BuildingBlock: XUDNAN_clean_linker_2, # of connection points: 2
#     Edge 104, Type (0, 0), BuildingBlock: XUDNAN_clean_linker_2, # of connection points: 2
#     Edge 105, Type (0, 0), BuildingBlock: XUDNAN_clean_linker_2, # of connection points: 2
#     Edge 106, Type (0, 0), BuildingBlock: XUDNAN_clean_linker_2, # of connection points: 2
#     Edge 107, Type (0, 0), BuildingBlock: XUDNAN_clean_linker_2, # of connection points: 2
#     Edge 108, Type (0, 0), BuildingBlock: XUDNAN_clean_linker_2, # of connection points: 2
#     Edge 109, Type (0, 0), BuildingBlock: XUDNAN_clean_linker_2, # of connection points: 2
#     Edge 110, Type (0, 0), BuildingBlock: XUDNAN_clean_linker_2, # of connection points: 2
#     Edge 111, Type (0, 0), BuildingBlock: XUDNAN_clean_linker_2, # of connection points: 2
#     Edge 112, Type (0, 0), BuildingBlock: XUDNAN_clean_linker_2, # of connection points: 2
#     Edge 113, Type (0, 0), BuildingBlock: XUDNAN_clean_linker_2, # of connection points: 2
#     Edge 114, Type (0, 0), BuildingBlock: XUDNAN_clean_linker_2, # of connection points: 2
#     Edge 115, Type (0, 0), BuildingBlock: XUDNAN_clean_linker_2, # of connection points: 2
#     Edge 116, Type (0, 0), BuildingBlock: XUDNAN_clean_linker_2, # of connection points: 2
#     Edge 117, Type (0, 0), BuildingBlock: XUDNAN_clean_linker_2, # of connection points: 2
#     Edge 118, Type (0, 0), BuildingBlock: XUDNAN_clean_linker_2, # of connection points: 2
#     Edge 119, Type (0, 0), BuildingBlock: XUDNAN_clean_linker_2, # of connection points: 2
#     Edge 120, Type (0, 0), BuildingBlock: XUDNAN_clean_linker_2, # of connection points: 2
#     Edge 121, Type (0, 0), BuildingBlock: XUDNAN_clean_linker_2, # of connection points: 2
#     Edge 122, Type (0, 0), BuildingBlock: XUDNAN_clean_linker_2, # of connection points: 2
#     Edge 123, Type (0, 0), BuildingBlock: XUDNAN_clean_linker_2, # of connection points: 2
#     Edge 124, Type (0, 0), BuildingBlock: XUDNAN_clean_linker_2, # of connection points: 2
#     Edge 125, Type (0, 0), BuildingBlock: XUDNAN_clean_linker_2, # of connection points: 2
#     Edge 126, Type (0, 0), BuildingBlock: XUDNAN_clean_linker_2, # of connection points: 2
#     Edge 127, Type (0, 0), BuildingBlock: XUDNAN_clean_linker_2, # of connection points: 2
#     Edge 128, Type (0, 0), BuildingBlock: XUDNAN_clean_linker_2, # of connection points: 2
#     Edge 129, Type (0, 0), BuildingBlock: XUDNAN_clean_linker_2, # of connection points: 2
#     Edge 130, Type (0, 0), BuildingBlock: XUDNAN_clean_linker_2, # of connection points: 2
#     Edge 131, Type (0, 0), BuildingBlock: XUDNAN_clean_linker_2, # of connection points: 2
#     Edge 132, Type (0, 0), BuildingBlock: XUDNAN_clean_linker_2, # of connection points: 2
#     Edge 133, Type (0, 0), BuildingBlock: XUDNAN_clean_linker_2, # of connection points: 2
#     Edge 134, Type (0, 0), BuildingBlock: XUDNAN_clean_linker_2, # of connection points: 2
#     Edge 135, Type (0, 0), BuildingBlock: XUDNAN_clean_linker_2, # of connection points: 2
#     Edge 136, Type (0, 0), BuildingBlock: XUDNAN_clean_linker_2, # of connection points: 2
#     Edge 137, Type (0, 0), BuildingBlock: XUDNAN_clean_linker_2, # of connection points: 2
#     Edge 138, Type (0, 0), BuildingBlock: XUDNAN_clean_linker_2, # of connection points: 2
#     Edge 139, Type (0, 0), BuildingBlock: XUDNAN_clean_linker_2, # of connection points: 2
#     Edge 140, Type (0, 0), BuildingBlock: XUDNAN_clean_linker_2, # of connection points: 2
#     Edge 141, Type (0, 0), BuildingBlock: XUDNAN_clean_linker_2, # of connection points: 2
#     Edge 142, Type (0, 0), BuildingBlock: XUDNAN_clean_linker_2, # of connection points: 2
#     Edge 143, Type (0, 0), BuildingBlock: XUDNAN_clean_linker_2, # of connection points: 2
#     Edge 144, Type (0, 0), BuildingBlock: XUDNAN_clean_linker_2, # of connection points: 2
#     Edge 145, Type (0, 0), BuildingBlock: XUDNAN_clean_linker_2, # of connection points: 2
#     Edge 146, Type (0, 0), BuildingBlock: XUDNAN_clean_linker_2, # of connection points: 2
#     Edge 147, Type (0, 0), BuildingBlock: XUDNAN_clean_linker_2, # of connection points: 2
#     Edge 148, Type (0, 0), BuildingBlock: XUDNAN_clean_linker_2, # of connection points: 2
#     Edge 149, Type (0, 0), BuildingBlock: XUDNAN_clean_linker_2, # of connection points: 2
#     Edge 150, Type (0, 0), BuildingBlock: XUDNAN_clean_linker_2, # of connection points: 2
#     Edge 151, Type (0, 0), BuildingBlock: XUDNAN_clean_linker_2, # of connection points: 2
#     Edge 152, Type (0, 0), BuildingBlock: XUDNAN_clean_linker_2, # of connection points: 2
#     Edge 153, Type (0, 0), BuildingBlock: XUDNAN_clean_linker_2, # of connection points: 2
#     Edge 154, Type (0, 0), BuildingBlock: XUDNAN_clean_linker_2, # of connection points: 2
#     Edge 155, Type (0, 0), BuildingBlock: XUDNAN_clean_linker_2, # of connection points: 2
#     Edge 156, Type (0, 0), BuildingBlock: XUDNAN_clean_linker_2, # of connection points: 2
#     Edge 157, Type (0, 0), BuildingBlock: XUDNAN_clean_linker_2, # of connection points: 2
#     Edge 158, Type (0, 0), BuildingBlock: XUDNAN_clean_linker_2, # of connection points: 2
#     Edge 159, Type (0, 0), BuildingBlock: XUDNAN_clean_linker_2, # of connection points: 2
#     Edge 160, Type (0, 0), BuildingBlock: XUDNAN_clean_linker_2, # of connection points: 2
#     Edge 161, Type (0, 0), BuildingBlock: XUDNAN_clean_linker_2, # of connection points: 2
#     Edge 162, Type (0, 0), BuildingBlock: XUDNAN_clean_linker_2, # of connection points: 2
#     Edge 163, Type (0, 0), BuildingBlock: XUDNAN_clean_linker_2, # of connection points: 2
#     Edge 164, Type (0, 0), BuildingBlock: XUDNAN_clean_linker_2, # of connection points: 2
#     Edge 165, Type (0, 0), BuildingBlock: XUDNAN_clean_linker_2, # of connection points: 2
#     Edge 166, Type (0, 0), BuildingBlock: XUDNAN_clean_linker_2, # of connection points: 2
#     Edge 167, Type (0, 0), BuildingBlock: XUDNAN_clean_linker_2, # of connection points: 2
#     Edge 168, Type (0, 0), BuildingBlock: XUDNAN_clean_linker_2, # of connection points: 2
#     Edge 169, Type (0, 0), BuildingBlock: XUDNAN_clean_linker_2, # of connection points: 2
#     Edge 170, Type (0, 0), BuildingBlock: XUDNAN_clean_linker_2, # of connection points: 2
#     Edge 171, Type (0, 0), BuildingBlock: XUDNAN_clean_linker_2, # of connection points: 2
#     Edge 172, Type (0, 0), BuildingBlock: XUDNAN_clean_linker_2, # of connection points: 2
#     Edge 173, Type (0, 0), BuildingBlock: XUDNAN_clean_linker_2, # of connection points: 2
#     Edge 174, Type (0, 0), BuildingBlock: XUDNAN_clean_linker_2, # of connection points: 2
#     Edge 175, Type (0, 0), BuildingBlock: XUDNAN_clean_linker_2, # of connection points: 2
#     Edge 176, Type (0, 0), BuildingBlock: XUDNAN_clean_linker_2, # of connection points: 2
#     Edge 177, Type (0, 0), BuildingBlock: XUDNAN_clean_linker_2, # of connection points: 2
#     Edge 178, Type (0, 0), BuildingBlock: XUDNAN_clean_linker_2, # of connection points: 2
#     Edge 179, Type (0, 0), BuildingBlock: XUDNAN_clean_linker_2, # of connection points: 2
#     Edge 180, Type (0, 0), BuildingBlock: XUDNAN_clean_linker_2, # of connection points: 2
#     Edge 181, Type (0, 0), BuildingBlock: XUDNAN_clean_linker_2, # of connection points: 2
#     Edge 182, Type (0, 0), BuildingBlock: XUDNAN_clean_linker_2, # of connection points: 2
#     Edge 183, Type (0, 0), BuildingBlock: XUDNAN_clean_linker_2, # of connection points: 2
#     Edge 184, Type (0, 0), BuildingBlock: XUDNAN_clean_linker_2, # of connection points: 2
#     Edge 185, Type (0, 0), BuildingBlock: XUDNAN_clean_linker_2, # of connection points: 2
#     Edge 186, Type (0, 0), BuildingBlock: XUDNAN_clean_linker_2, # of connection points: 2
#     Edge 187, Type (0, 0), BuildingBlock: XUDNAN_clean_linker_2, # of connection points: 2
#     Edge 188, Type (0, 0), BuildingBlock: XUDNAN_clean_linker_2, # of connection points: 2
#     Edge 189, Type (0, 0), BuildingBlock: XUDNAN_clean_linker_2, # of connection points: 2
#     Edge 190, Type (0, 0), BuildingBlock: XUDNAN_clean_linker_2, # of connection points: 2
#     Edge 191, Type (0, 0), BuildingBlock: XUDNAN_clean_linker_2, # of connection points: 2
#     Edge 192, Type (0, 0), BuildingBlock: XUDNAN_clean_linker_2, # of connection points: 2
#     Edge 193, Type (0, 0), BuildingBlock: XUDNAN_clean_linker_2, # of connection points: 2
#     Edge 194, Type (0, 0), BuildingBlock: XUDNAN_clean_linker_2, # of connection points: 2
#     Edge 195, Type (0, 0), BuildingBlock: XUDNAN_clean_linker_2, # of connection points: 2
#     Edge 196, Type (0, 0), BuildingBlock: XUDNAN_clean_linker_2, # of connection points: 2
#     Edge 197, Type (0, 0), BuildingBlock: XUDNAN_clean_linker_2, # of connection points: 2
#     Edge 198, Type (0, 0), BuildingBlock: XUDNAN_clean_linker_2, # of connection points: 2
#     Edge 199, Type (0, 0), BuildingBlock: XUDNAN_clean_linker_2, # of connection points: 2
#     Edge 200, Type (0, 0), BuildingBlock: XUDNAN_clean_linker_2, # of connection points: 2
#     Edge 201, Type (0, 0), BuildingBlock: XUDNAN_clean_linker_2, # of connection points: 2
#     Edge 202, Type (0, 0), BuildingBlock: XUDNAN_clean_linker_2, # of connection points: 2
#     Edge 203, Type (0, 0), BuildingBlock: XUDNAN_clean_linker_2, # of connection points: 2
#     Edge 204, Type (0, 0), BuildingBlock: XUDNAN_clean_linker_2, # of connection points: 2
#     Edge 205, Type (0, 0), BuildingBlock: XUDNAN_clean_linker_2, # of connection points: 2
#     Edge 206, Type (0, 0), BuildingBlock: XUDNAN_clean_linker_2, # of connection points: 2
#     Edge 207, Type (0, 0), BuildingBlock: XUDNAN_clean_linker_2, # of connection points: 2
#     Edge 208, Type (0, 0), BuildingBlock: XUDNAN_clean_linker_2, # of connection points: 2
#     Edge 209, Type (0, 0), BuildingBlock: XUDNAN_clean_linker_2, # of connection points: 2
#     Edge 210, Type (0, 0), BuildingBlock: XUDNAN_clean_linker_2, # of connection points: 2
#     Edge 211, Type (0, 0), BuildingBlock: XUDNAN_clean_linker_2, # of connection points: 2
#     Edge 212, Type (0, 0), BuildingBlock: XUDNAN_clean_linker_2, # of connection points: 2
#     Edge 213, Type (0, 0), BuildingBlock: XUDNAN_clean_linker_2, # of connection points: 2
#     Edge 214, Type (0, 0), BuildingBlock: XUDNAN_clean_linker_2, # of connection points: 2
#     Edge 215, Type (0, 0), BuildingBlock: XUDNAN_clean_linker_2, # of connection points: 2
#     Edge 216, Type (0, 0), BuildingBlock: XUDNAN_clean_linker_2, # of connection points: 2
#     Edge 217, Type (0, 0), BuildingBlock: XUDNAN_clean_linker_2, # of connection points: 2
#     Edge 218, Type (0, 0), BuildingBlock: XUDNAN_clean_linker_2, # of connection points: 2
#     Edge 219, Type (0, 0), BuildingBlock: XUDNAN_clean_linker_2, # of connection points: 2
#     Edge 220, Type (0, 0), BuildingBlock: XUDNAN_clean_linker_2, # of connection points: 2
#     Edge 221, Type (0, 0), BuildingBlock: XUDNAN_clean_linker_2, # of connection points: 2
#     Edge 222, Type (0, 0), BuildingBlock: XUDNAN_clean_linker_2, # of connection points: 2
#     Edge 223, Type (0, 0), BuildingBlock: XUDNAN_clean_linker_2, # of connection points: 2
#     Edge 224, Type (0, 0), BuildingBlock: XUDNAN_clean_linker_2, # of connection points: 2
#     Edge 225, Type (0, 0), BuildingBlock: XUDNAN_clean_linker_2, # of connection points: 2
#     Edge 226, Type (0, 0), BuildingBlock: XUDNAN_clean_linker_2, # of connection points: 2
#     Edge 227, Type (0, 0), BuildingBlock: XUDNAN_clean_linker_2, # of connection points: 2
#     Edge 228, Type (0, 0), BuildingBlock: XUDNAN_clean_linker_2, # of connection points: 2
#     Edge 229, Type (0, 0), BuildingBlock: XUDNAN_clean_linker_2, # of connection points: 2
#     Edge 230, Type (0, 0), BuildingBlock: XUDNAN_clean_linker_2, # of connection points: 2
#     Edge 231, Type (0, 0), BuildingBlock: XUDNAN_clean_linker_2, # of connection points: 2
#     Edge 232, Type (0, 0), BuildingBlock: XUDNAN_clean_linker_2, # of connection points: 2
#     Edge 233, Type (0, 0), BuildingBlock: XUDNAN_clean_linker_2, # of connection points: 2
#     Edge 234, Type (0, 0), BuildingBlock: XUDNAN_clean_linker_2, # of connection points: 2
#     Edge 235, Type (0, 0), BuildingBlock: XUDNAN_clean_linker_2, # of connection points: 2
#     Edge 236, Type (0, 0), BuildingBlock: XUDNAN_clean_linker_2, # of connection points: 2
#     Edge 237, Type (0, 0), BuildingBlock: XUDNAN_clean_linker_2, # of connection points: 2
#     Edge 238, Type (0, 0), BuildingBlock: XUDNAN_clean_linker_2, # of connection points: 2
#     Edge 239, Type (0, 0), BuildingBlock: XUDNAN_clean_linker_2, # of connection points: 2
#     Edge 240, Type (0, 0), BuildingBlock: XUDNAN_clean_linker_2, # of connection points: 2
#     Edge 241, Type (0, 0), BuildingBlock: XUDNAN_clean_linker_2, # of connection points: 2
#     Edge 242, Type (0, 0), BuildingBlock: XUDNAN_clean_linker_2, # of connection points: 2
#     Edge 243, Type (0, 0), BuildingBlock: XUDNAN_clean_linker_2, # of connection points: 2
#     Edge 244, Type (0, 0), BuildingBlock: XUDNAN_clean_linker_2, # of connection points: 2
#     Edge 245, Type (0, 0), BuildingBlock: XUDNAN_clean_linker_2, # of connection points: 2
#     Edge 246, Type (0, 0), BuildingBlock: XUDNAN_clean_linker_2, # of connection points: 2
#     Edge 247, Type (0, 0), BuildingBlock: XUDNAN_clean_linker_2, # of connection points: 2
#     Edge 248, Type (0, 0), BuildingBlock: XUDNAN_clean_linker_2, # of connection points: 2
#     Edge 249, Type (0, 0), BuildingBlock: XUDNAN_clean_linker_2, # of connection points: 2
#     Edge 250, Type (0, 0), BuildingBlock: XUDNAN_clean_linker_2, # of connection points: 2
#     Edge 251, Type (0, 0), BuildingBlock: XUDNAN_clean_linker_2, # of connection points: 2
#     Edge 252, Type (0, 0), BuildingBlock: XUDNAN_clean_linker_2, # of connection points: 2
#     Edge 253, Type (0, 0), BuildingBlock: XUDNAN_clean_linker_2, # of connection points: 2
#     Edge 254, Type (0, 0), BuildingBlock: XUDNAN_clean_linker_2, # of connection points: 2
#     Edge 255, Type (0, 0), BuildingBlock: XUDNAN_clean_linker_2, # of connection points: 2
#     Edge 256, Type (0, 0), BuildingBlock: XUDNAN_clean_linker_2, # of connection points: 2
#     Edge 257, Type (0, 0), BuildingBlock: XUDNAN_clean_linker_2, # of connection points: 2
#     Edge 258, Type (0, 0), BuildingBlock: XUDNAN_clean_linker_2, # of connection points: 2
#     Edge 259, Type (0, 0), BuildingBlock: XUDNAN_clean_linker_2, # of connection points: 2
#     Edge 260, Type (0, 0), BuildingBlock: XUDNAN_clean_linker_2, # of connection points: 2
#     Edge 261, Type (0, 0), BuildingBlock: XUDNAN_clean_linker_2, # of connection points: 2
#     Edge 262, Type (0, 0), BuildingBlock: XUDNAN_clean_linker_2, # of connection points: 2
#     Edge 263, Type (0, 0), BuildingBlock: XUDNAN_clean_linker_2, # of connection points: 2
#     Edge 264, Type (0, 0), BuildingBlock: XUDNAN_clean_linker_2, # of connection points: 2
#     Edge 265, Type (0, 0), BuildingBlock: XUDNAN_clean_linker_2, # of connection points: 2
#     Edge 266, Type (0, 0), BuildingBlock: XUDNAN_clean_linker_2, # of connection points: 2
#     Edge 267, Type (0, 0), BuildingBlock: XUDNAN_clean_linker_2, # of connection points: 2
#     Edge 268, Type (0, 0), BuildingBlock: XUDNAN_clean_linker_2, # of connection points: 2
#     Edge 269, Type (0, 0), BuildingBlock: XUDNAN_clean_linker_2, # of connection points: 2
#     Edge 270, Type (0, 0), BuildingBlock: XUDNAN_clean_linker_2, # of connection points: 2
#     Edge 271, Type (0, 0), BuildingBlock: XUDNAN_clean_linker_2, # of connection points: 2
#     Edge 272, Type (0, 0), BuildingBlock: XUDNAN_clean_linker_2, # of connection points: 2
#     Edge 273, Type (0, 0), BuildingBlock: XUDNAN_clean_linker_2, # of connection points: 2
#     Edge 274, Type (0, 0), BuildingBlock: XUDNAN_clean_linker_2, # of connection points: 2
#     Edge 275, Type (0, 0), BuildingBlock: XUDNAN_clean_linker_2, # of connection points: 2
#     Edge 276, Type (0, 0), BuildingBlock: XUDNAN_clean_linker_2, # of connection points: 2
#     Edge 277, Type (0, 0), BuildingBlock: XUDNAN_clean_linker_2, # of connection points: 2
#     Edge 278, Type (0, 0), BuildingBlock: XUDNAN_clean_linker_2, # of connection points: 2
#     Edge 279, Type (0, 0), BuildingBlock: XUDNAN_clean_linker_2, # of connection points: 2
#     Edge 280, Type (0, 0), BuildingBlock: XUDNAN_clean_linker_2, # of connection points: 2
#     Edge 281, Type (0, 0), BuildingBlock: XUDNAN_clean_linker_2, # of connection points: 2
#     Edge 282, Type (0, 0), BuildingBlock: XUDNAN_clean_linker_2, # of connection points: 2
#     Edge 283, Type (0, 0), BuildingBlock: XUDNAN_clean_linker_2, # of connection points: 2
#     Edge 284, Type (0, 0), BuildingBlock: XUDNAN_clean_linker_2, # of connection points: 2
#     Edge 285, Type (0, 0), BuildingBlock: XUDNAN_clean_linker_2, # of connection points: 2
#     Edge 286, Type (0, 0), BuildingBlock: XUDNAN_clean_linker_2, # of connection points: 2
#     Edge 287, Type (0, 0), BuildingBlock: XUDNAN_clean_linker_2, # of connection points: 2
# Relax obj value: 0.152
# Max RMSD: 0.095
# Mean RMSD: 0.095
data_MOF--net-kfi--node1-QUQFOY_clean_sbu_3--edge1-XUDNAN_clean_linker_2
_symmetry_space_group_name_H-M    P1
_symmetry_Int_Tables_number       1
_symmetry_cell_setting            triclinic
loop_
_symmetry_equiv_pos_as_xyz
'x, y, z'
_cell_length_a     91.342953
_cell_length_b     90.959373
_cell_length_c     90.962294
_cell_angle_alpha  90.014625
_cell_angle_beta   90.005636
_cell_angle_gamma 90.050627
loop_
_atom_site_label
_atom_site_type_symbol
_atom_site_fract_x
_atom_site_fract_y
_atom_site_fract_z
_atom_type_partial_charge
C0 C 0.09217 0.16349 0.30361 0.0
O1 O 0.0961 0.16949 0.29166 0.0
Cd2 Cd 0.09183 0.19468 0.28597 0.0
O3 O 0.0842 0.17029 0.31288 0.0
Cd4 Cd 0.07043 0.19401 0.31379 0.0
C5 C 0.10242 0.21143 0.31875 0.0
O6 O 0.06613 0.19762 0.28763 0.0
O7 O 0.06249 0.21664 0.30125 0.0
O8 O 0.04885 0.17951 0.3185 0.0
C9 C 0.06188 0.21084 0.28859 0.0
O10 O 0.10447 0.20862 0.30517 0.0
C11 C 0.04457 0.18666 0.32967 0.0
O12 O 0.09092 0.20698 0.32532 0.0
O13 O 0.05276 0.1971 0.33403 0.0
C14 C 0.8145 0.09293 0.29924 0.0
O15 O 0.80508 0.09777 0.2902 0.0
Cd16 Cd 0.77975 0.09123 0.29015 0.0
O17 O 0.81124 0.08301 0.30858 0.0
Cd18 Cd 0.78953 0.06712 0.31385 0.0
C19 C 0.77058 0.09637 0.32661 0.0
O20 O 0.77996 0.06508 0.28865 0.0
O21 O 0.76631 0.05641 0.3059 0.0
O22 O 0.80708 0.04705 0.31572 0.0
C23 C 0.76836 0.05834 0.29228 0.0
O24 O 0.76941 0.10041 0.31325 0.0
C25 C 0.80129 0.04124 0.327 0.0
O26 O 0.77785 0.08493 0.33003 0.0
O27 O 0.79039 0.04784 0.3326 0.0
C28 C 0.88711 0.81481 0.29753 0.0
O29 O 0.88253 0.80442 0.2894 0.0
Cd30 Cd 0.89139 0.7797 0.28984 0.0
O31 O 0.89781 0.81278 0.3063 0.0
Cd32 Cd 0.91486 0.79241 0.31257 0.0
C33 C 0.88704 0.77216 0.32659 0.0
O34 O 0.91747 0.78115 0.28827 0.0
O35 O 0.92617 0.76881 0.3065 0.0
O36 O 0.93581 0.80899 0.31282 0.0
C37 C 0.92446 0.76997 0.29273 0.0
O38 O 0.88302 0.76978 0.31339 0.0
C39 C 0.93975 0.80585 0.32584 0.0
O40 O 0.89791 0.78047 0.32938 0.0
O41 O 0.93173 0.79687 0.33288 0.0
C42 C 0.1704 0.89306 0.29867 0.0
O43 O 0.17781 0.8898 0.28732 0.0
Cd44 Cd 0.20243 0.89639 0.2828 0.0
O45 O 0.1757 0.90156 0.30852 0.0
Cd46 Cd 0.19893 0.91618 0.31187 0.0
C47 C 0.21692 0.8842 0.31588 0.0
O48 O 0.20333 0.92213 0.28636 0.0
O49 O 0.22213 0.92457 0.30026 0.0
O50 O 0.18486 0.93771 0.31909 0.0
C51 C 0.21654 0.92607 0.28759 0.0
O52 O 0.21556 0.88299 0.30198 0.0
C53 C 0.19243 0.9407 0.33041 0.0
O54 O 0.21138 0.89507 0.32273 0.0
O55 O 0.2027 0.93184 0.33355 0.0
C56 C 0.08959 0.80908 0.68597 0.0
O57 O 0.09448 0.79892 0.69418 0.0
Cd58 Cd 0.08661 0.77389 0.69403 0.0
O59 O 0.07899 0.80664 0.67718 0.0
Cd60 Cd 0.06254 0.78565 0.6709 0.0
C61 C 0.09149 0.76683 0.65713 0.0
O62 O 0.06057 0.77462 0.69531 0.0
O63 O 0.05205 0.76167 0.67743 0.0
O64 O 0.04147 0.80203 0.67047 0.0
C65 C 0.05403 0.76305 0.69115 0.0
O66 O 0.09544 0.76466 0.67039 0.0
C67 C 0.03727 0.79842 0.65765 0.0
O68 O 0.08023 0.77452 0.65418 0.0
O69 O 0.04514 0.78919 0.65078 0.0
C70 C 0.16728 0.09915 0.68168 0.0
O71 O 0.17683 0.10418 0.69049 0.0
Cd72 Cd 0.20058 0.09453 0.69467 0.0
O73 O 0.16975 0.0875 0.67426 0.0
Cd74 Cd 0.1903 0.06936 0.67271 0.0
C75 C 0.21373 0.09487 0.65928 0.0
O76 O 0.19629 0.06898 0.69864 0.0
O77 O 0.21225 0.05869 0.68465 0.0
O78 O 0.17336 0.04868 0.67208 0.0
C79 C 0.20788 0.06147 0.69758 0.0
O80 O 0.21429 0.10013 0.67224 0.0
C81 C 0.17824 0.04332 0.66017 0.0
O82 O 0.20543 0.08403 0.65629 0.0
O83 O 0.1884 0.0504 0.6538 0.0
C84 C 0.88996 0.17071 0.68905 0.0
O85 O 0.88744 0.17781 0.70078 0.0
Cd86 Cd 0.8932 0.20314 0.70293 0.0
O87 O 0.89713 0.17648 0.67849 0.0
Cd88 Cd 0.91191 0.19923 0.67387 0.0
C89 C 0.88032 0.21712 0.66957 0.0
O90 O 0.91891 0.2034 0.69922 0.0
O91 O 0.92266 0.22177 0.68488 0.0
O92 O 0.9296 0.1809 0.66673 0.0
C93 C 0.92411 0.21617 0.69756 0.0
O94 O 0.87919 0.21551 0.68344 0.0
C95 C 0.93508 0.1881 0.65614 0.0
O96 O 0.89127 0.21193 0.66264 0.0
O97 O 0.92943 0.20055 0.65332 0.0
C98 C 0.8149 0.88573 0.6967 0.0
O99 O 0.80437 0.88006 0.70382 0.0
Cd100 Cd 0.77904 0.88547 0.7007 0.0
O101 O 0.81275 0.89597 0.68738 0.0
Cd102 Cd 0.79111 0.91085 0.67951 0.0
C103 C 0.77481 0.88169 0.66324 0.0
O104 O 0.77779 0.91149 0.70277 0.0
O105 O 0.76571 0.91863 0.68378 0.0
O106 O 0.80451 0.93402 0.68105 0.0
C107 C 0.7661 0.91687 0.69759 0.0
O108 O 0.77176 0.87709 0.67611 0.0
C109 C 0.80184 0.93791 0.66791 0.0
O110 O 0.78245 0.89325 0.66141 0.0
O111 O 0.79477 0.92887 0.65999 0.0
C112 C 0.29237 0.1054 0.17304 0.0
O113 O 0.28388 0.11011 0.18302 0.0
Cd114 Cd 0.28135 0.09894 0.20655 0.0
O115 O 0.2998 0.0937 0.175 0.0
Cd116 Cd 0.30245 0.07455 0.19437 0.0
C117 C 0.31731 0.09894 0.2179 0.0
O118 O 0.27694 0.07339 0.20196 0.0
O119 O 0.2923 0.06293 0.21656 0.0
O120 O 0.3023 0.05631 0.17477 0.0
C121 C 0.27908 0.06541 0.21315 0.0
O122 O 0.3044 0.10405 0.21932 0.0
C123 C 0.31341 0.04935 0.1794 0.0
O124 O 0.31994 0.08851 0.20897 0.0
O125 O 0.31973 0.05443 0.19075 0.0
C126 C 0.88836 0.2952 0.16799 0.0
O127 O 0.88589 0.28359 0.17531 0.0
Cd128 Cd 0.89206 0.28144 0.2005 0.0
O129 O 0.89601 0.30565 0.17336 0.0
Cd130 Cd 0.91187 0.30964 0.19564 0.0
C131 C 0.88092 0.31573 0.21392 0.0
O132 O 0.9178 0.28417 0.20095 0.0
O133 O 0.92133 0.29911 0.21892 0.0
O134 O 0.93053 0.3146 0.17746 0.0
C135 C 0.92256 0.28618 0.21385 0.0
O136 O 0.87937 0.30186 0.21258 0.0
C137 C 0.93664 0.32506 0.18433 0.0
O138 O 0.89196 0.32227 0.2084 0.0
O139 O 0.93078 0.32902 0.19638 0.0
C140 C 0.67915 0.89067 0.16555 0.0
O141 O 0.69074 0.88791 0.17272 0.0
Cd142 Cd 0.69491 0.8959 0.19718 0.0
O143 O 0.66949 0.89934 0.17077 0.0
Cd144 Cd 0.66676 0.91609 0.19253 0.0
C145 C 0.66133 0.88589 0.21272 0.0
O146 O 0.69248 0.92177 0.19646 0.0
O147 O 0.67834 0.92652 0.21474 0.0
O148 O 0.66171 0.93427 0.17388 0.0
C149 C 0.69105 0.92725 0.20915 0.0
O150 O 0.67508 0.8843 0.21098 0.0
C151 C 0.65158 0.94083 0.18079 0.0
O152 O 0.65458 0.89661 0.20675 0.0
O153 O 0.64777 0.93536 0.19308 0.0
C154 C 0.09672 0.70035 0.16948 0.0
O155 O 0.09856 0.71062 0.17875 0.0
Cd156 Cd 0.0915 0.70902 0.20388 0.0
O157 O 0.08921 0.68897 0.17275 0.0
Cd158 Cd 0.07314 0.68049 0.19347 0.0
C159 C 0.10406 0.6737 0.21215 0.0
O160 O 0.06607 0.70435 0.20355 0.0
O161 O 0.06133 0.68561 0.21717 0.0
O162 O 0.05498 0.67786 0.17428 0.0
C163 C 0.06059 0.6994 0.21534 0.0
O164 O 0.10484 0.68767 0.21296 0.0
C165 C 0.04967 0.66581 0.17884 0.0
O166 O 0.09359 0.66743 0.20529 0.0
O167 O 0.05584 0.65996 0.18993 0.0
C168 C 0.29962 0.8905 0.8188 0.0
O169 O 0.28818 0.88672 0.81183 0.0
Cd170 Cd 0.28287 0.89304 0.78711 0.0
O171 O 0.30887 0.89929 0.81302 0.0
Cd172 Cd 0.31053 0.91403 0.78971 0.0
C173 C 0.31574 0.88252 0.77114 0.0
O174 O 0.28467 0.91896 0.78607 0.0
O175 O 0.29814 0.92249 0.76701 0.0
O176 O 0.31572 0.93555 0.80444 0.0
C177 C 0.28564 0.92353 0.77297 0.0
O178 O 0.30205 0.88066 0.7731 0.0
C179 C 0.32685 0.93969 0.79718 0.0
O180 O 0.32227 0.89369 0.7765 0.0
O181 O 0.33099 0.93136 0.78675 0.0
C182 C 0.10088 0.29209 0.8181 0.0
O183 O 0.10517 0.28366 0.80786 0.0
Cd184 Cd 0.09635 0.28381 0.78335 0.0
O185 O 0.09072 0.30148 0.81598 0.0
Cd186 Cd 0.07404 0.30733 0.79484 0.0
C187 C 0.10126 0.31961 0.77269 0.0
O188 O 0.07051 0.28204 0.78731 0.0
O189 O 0.06208 0.29799 0.77208 0.0
O190 O 0.05336 0.30971 0.81163 0.0
C191 C 0.06301 0.28464 0.77594 0.0
O192 O 0.10517 0.30626 0.7712 0.0
C193 C 0.04936 0.32225 0.80702 0.0
O194 O 0.0907 0.32301 0.78113 0.0
O195 O 0.05728 0.32816 0.79719 0.0
C196 C 0.66296 0.08929 0.81975 0.0
O197 O 0.67351 0.08037 0.81971 0.0
Cd198 Cd 0.66783 0.07194 0.79487 0.0
O199 O 0.65451 0.08894 0.80874 0.0
Cd200 Cd 0.66398 0.06787 0.79146 0.0
C201 C 0.6452 0.08643 0.77341 0.0
O202 O 0.6913 0.07148 0.78666 0.0
O203 O 0.67844 0.06629 0.76765 0.0
O204 O 0.66715 0.049 0.81088 0.0
C205 C 0.69102 0.06875 0.77307 0.0
O206 O 0.65608 0.0922 0.77987 0.0
C207 C 0.65949 0.0394 0.80429 0.0
O208 O 0.64316 0.07285 0.77548 0.0
O209 O 0.65398 0.04309 0.79203 0.0
C210 C 0.89046 0.69778 0.81499 0.0
O211 O 0.88875 0.70734 0.80497 0.0
Cd212 Cd 0.89504 0.70365 0.77993 0.0
O213 O 0.89745 0.6859 0.81245 0.0
Cd214 Cd 0.91241 0.67528 0.79185 0.0
C215 C 0.88068 0.66854 0.77454 0.0
O216 O 0.92025 0.69781 0.77993 0.0
O217 O 0.92283 0.6782 0.767 0.0
O218 O 0.93276 0.67306 0.80869 0.0
C219 C 0.92469 0.69197 0.76811 0.0
O220 O 0.88027 0.68242 0.7727 0.0
C221 C 0.93584 0.65982 0.80559 0.0
O222 O 0.89118 0.66247 0.7815 0.0
O223 O 0.92737 0.65329 0.79662 0.0
C224 C 0.16937 0.30541 0.09331 0.0
O225 O 0.17918 0.29649 0.0976 0.0
Cd226 Cd 0.20374 0.29488 0.08886 0.0
O227 O 0.1719 0.31431 0.08278 0.0
Cd228 Cd 0.19277 0.31938 0.06577 0.0
C229 C 0.21404 0.33089 0.09417 0.0
O230 O 0.20208 0.29432 0.06276 0.0
O231 O 0.21569 0.31171 0.05428 0.0
O232 O 0.17651 0.32081 0.04465 0.0
C233 C 0.21351 0.29805 0.05581 0.0
O234 O 0.21524 0.31741 0.09775 0.0
C235 C 0.18092 0.33334 0.04036 0.0
O236 O 0.20608 0.33478 0.08333 0.0
O237 O 0.19023 0.33983 0.04847 0.0
C238 C 0.16419 0.69454 0.88887 0.0
O239 O 0.17288 0.70487 0.88544 0.0
Cd240 Cd 0.19818 0.70465 0.89094 0.0
O241 O 0.16838 0.68391 0.89701 0.0
Cd242 Cd 0.1909 0.678 0.91199 0.0
C243 C 0.20772 0.66907 0.88054 0.0
O244 O 0.19865 0.70298 0.91697 0.0
O245 O 0.21526 0.68668 0.92077 0.0
O246 O 0.17514 0.67559 0.93328 0.0
C247 C 0.21126 0.69998 0.92185 0.0
O248 O 0.2077 0.68289 0.87824 0.0
C249 C 0.18006 0.66327 0.93752 0.0
O250 O 0.20205 0.66372 0.89216 0.0
O251 O 0.18975 0.6573 0.92947 0.0
C252 C 0.31216 0.16663 0.89517 0.0
O253 O 0.30623 0.1668 0.9077 0.0
Cd254 Cd 0.31465 0.19243 0.9121 0.0
O255 O 0.31956 0.17781 0.89163 0.0
Cd256 Cd 0.32062 0.19536 0.91432 0.0
C257 C 0.33295 0.21065 0.88908 0.0
O258 O 0.29481 0.20593 0.91938 0.0
O259 O 0.31311 0.22077 0.92064 0.0
O260 O 0.32028 0.17582 0.93326 0.0
C261 C 0.29941 0.21883 0.92194 0.0
O262 O 0.31993 0.20588 0.88861 0.0
C263 C 0.33103 0.18089 0.94048 0.0
O264 O 0.34018 0.20805 0.90066 0.0
O265 O 0.33726 0.19226 0.93532 0.0
C266 C 0.81498 0.29793 0.89203 0.0
O267 O 0.80748 0.28662 0.88884 0.0
Cd268 Cd 0.78324 0.28177 0.897 0.0
O269 O 0.81005 0.30751 0.90099 0.0
Cd270 Cd 0.78783 0.31053 0.91676 0.0
C271 C 0.76697 0.31458 0.88651 0.0
O272 O 0.78356 0.28487 0.92284 0.0
O273 O 0.7655 0.29931 0.92722 0.0
O274 O 0.80365 0.31628 0.93729 0.0
C275 C 0.77081 0.28647 0.92802 0.0
O276 O 0.76853 0.30073 0.88515 0.0
C277 C 0.79721 0.32807 0.94098 0.0
O278 O 0.77343 0.32155 0.8968 0.0
O279 O 0.78663 0.33221 0.9329 0.0
C280 C 0.68668 0.80838 0.89559 0.0
O281 O 0.69771 0.80028 0.89307 0.0
Cd282 Cd 0.69728 0.77446 0.89695 0.0
O283 O 0.67547 0.80338 0.90231 0.0
Cd284 Cd 0.66834 0.7805 0.91594 0.0
C285 C 0.66292 0.76582 0.88263 0.0
O286 O 0.6926 0.77162 0.9224 0.0
O287 O 0.67523 0.75579 0.92462 0.0
O288 O 0.66343 0.79569 0.93728 0.0
C289 C 0.68867 0.75885 0.92627 0.0
O290 O 0.67684 0.76597 0.88167 0.0
C291 C 0.65114 0.78994 0.94036 0.0
O292 O 0.65645 0.77066 0.89404 0.0
O293 O 0.64636 0.78022 0.93153 0.0
C294 C 0.81741 0.69375 0.09899 0.0
O295 O 0.80699 0.702 0.10309 0.0
Cd296 Cd 0.78286 0.70083 0.09361 0.0
O297 O 0.8157 0.68456 0.08853 0.0
Cd298 Cd 0.79559 0.67894 0.07042 0.0
C299 C 0.77444 0.66388 0.09653 0.0
O300 O 0.78644 0.70391 0.06782 0.0
O301 O 0.77205 0.68717 0.05947 0.0
O302 O 0.81474 0.67924 0.05182 0.0
C303 C 0.77499 0.70073 0.06068 0.0
O304 O 0.77236 0.67705 0.1008 0.0
C305 C 0.81036 0.66788 0.04503 0.0
O306 O 0.78309 0.66111 0.08592 0.0
O307 O 0.79933 0.66127 0.05036 0.0
C308 C 0.30629 0.80748 0.09822 0.0
O309 O 0.29409 0.80138 0.101 0.0
Cd310 Cd 0.29007 0.776 0.09476 0.0
O311 O 0.31571 0.80102 0.0902 0.0
Cd312 Cd 0.31857 0.77886 0.07485 0.0
C313 C 0.32319 0.76163 0.10702 0.0
O314 O 0.29317 0.77235 0.06899 0.0
O315 O 0.30968 0.75565 0.06547 0.0
O316 O 0.32229 0.79525 0.05446 0.0
C317 C 0.29641 0.75958 0.06435 0.0
O318 O 0.30943 0.7635 0.10835 0.0
C319 C 0.33413 0.78952 0.04997 0.0
O320 O 0.33004 0.76645 0.09579 0.0
O321 O 0.33934 0.77903 0.0576 0.0
C322 C 0.68637 0.17384 0.09733 0.0
O323 O 0.69473 0.18398 0.10203 0.0
Cd324 Cd 0.69647 0.20845 0.09249 0.0
O325 O 0.67829 0.17597 0.08608 0.0
Cd326 Cd 0.67375 0.19639 0.06829 0.0
C327 C 0.66026 0.21814 0.09536 0.0
O328 O 0.69877 0.20638 0.06641 0.0
O329 O 0.68154 0.21899 0.05635 0.0
O330 O 0.67157 0.17841 0.04837 0.0
C331 C 0.69508 0.21751 0.05888 0.0
O332 O 0.6734 0.21995 0.09968 0.0
C333 C 0.65994 0.18395 0.04309 0.0
O334 O 0.65728 0.2096 0.08468 0.0
O335 O 0.65446 0.1948 0.04992 0.0
C336 C 0.88991 0.81348 0.69651 0.0
O337 O 0.88777 0.80356 0.70607 0.0
Cd338 Cd 0.89321 0.77835 0.70232 0.0
O339 O 0.8968 0.81066 0.68462 0.0
Cd340 Cd 0.91103 0.78946 0.67422 0.0
C341 C 0.87897 0.77294 0.66721 0.0
O342 O 0.91858 0.7779 0.69705 0.0
O343 O 0.92107 0.76448 0.67777 0.0
O344 O 0.93163 0.80594 0.67169 0.0
C345 C 0.92299 0.76595 0.69149 0.0
O346 O 0.87833 0.77125 0.6811 0.0
C347 C 0.93477 0.80243 0.65856 0.0
O348 O 0.88973 0.77955 0.66123 0.0
O349 O 0.92621 0.7934 0.65223 0.0
C350 C 0.16481 0.88482 0.68799 0.0
O351 O 0.1748 0.87956 0.69614 0.0
Cd352 Cd 0.1989 0.88915 0.69865 0.0
O353 O 0.16712 0.8964 0.68042 0.0
Cd354 Cd 0.18811 0.91379 0.67724 0.0
C355 C 0.21031 0.8877 0.66288 0.0
O356 O 0.19549 0.91493 0.70286 0.0
O357 O 0.21106 0.92403 0.68762 0.0
O358 O 0.17212 0.9353 0.6761 0.0
C359 C 0.20718 0.92212 0.70085 0.0
O360 O 0.21178 0.88271 0.67587 0.0
C361 C 0.17676 0.93964 0.66367 0.0
O362 O 0.20178 0.89844 0.66032 0.0
O363 O 0.18631 0.93168 0.65742 0.0
C364 C 0.09044 0.17359 0.68282 0.0
O365 O 0.09465 0.18269 0.69253 0.0
Cd366 Cd 0.08436 0.20605 0.69746 0.0
O367 O 0.07933 0.17637 0.67478 0.0
Cd368 Cd 0.06102 0.19688 0.67322 0.0
C369 C 0.08728 0.22095 0.66298 0.0
O370 O 0.05877 0.201 0.69943 0.0
O371 O 0.0495 0.21799 0.68598 0.0
O372 O 0.04214 0.17861 0.66787 0.0
C373 C 0.05141 0.21273 0.69872 0.0
O374 O 0.09161 0.22107 0.67628 0.0
C375 C 0.03638 0.1859 0.65746 0.0
O376 O 0.07683 0.21265 0.6589 0.0
O377 O 0.04238 0.19804 0.65414 0.0
C378 C 0.81736 0.09741 0.68438 0.0
O379 O 0.80855 0.10493 0.69208 0.0
Cd380 Cd 0.78332 0.09966 0.69532 0.0
O381 O 0.81324 0.08578 0.67773 0.0
Cd382 Cd 0.78988 0.07161 0.67566 0.0
C383 C 0.77211 0.09991 0.65933 0.0
O384 O 0.7828 0.07409 0.70115 0.0
O385 O 0.76597 0.06526 0.68718 0.0
O386 O 0.80366 0.04877 0.67734 0.0
C387 C 0.77019 0.06844 0.70007 0.0
O388 O 0.77183 0.10595 0.67196 0.0
C389 C 0.79876 0.04328 0.66549 0.0
O390 O 0.77853 0.08765 0.65741 0.0
O391 O 0.7899 0.05112 0.65814 0.0
C392 C 0.88874 0.16572 0.30184 0.0
O393 O 0.88275 0.1752 0.29358 0.0
Cd394 Cd 0.88923 0.20039 0.29203 0.0
O395 O 0.89948 0.16908 0.31016 0.0
Cd396 Cd 0.91407 0.19223 0.31409 0.0
C397 C 0.88534 0.21138 0.32768 0.0
O398 O 0.91519 0.19908 0.28833 0.0
O399 O 0.92237 0.21597 0.3032 0.0
O400 O 0.93675 0.1782 0.31694 0.0
C401 C 0.92131 0.21142 0.29008 0.0
O402 O 0.88057 0.21247 0.31458 0.0
C403 C 0.9406 0.18451 0.32879 0.0
O404 O 0.89681 0.20399 0.33043 0.0
O405 O 0.93182 0.19394 0.33404 0.0
C406 C 0.81093 0.88927 0.29179 0.0
O407 O 0.80304 0.88627 0.2807 0.0
Cd408 Cd 0.77873 0.89505 0.2779 0.0
O409 O 0.80641 0.89822 0.30159 0.0
Cd410 Cd 0.78493 0.91464 0.30623 0.0
C411 C 0.76503 0.88417 0.31191 0.0
O412 O 0.78002 0.92099 0.28077 0.0
O413 O 0.76252 0.9258 0.29578 0.0
O414 O 0.80376 0.93249 0.31195 0.0
C415 C 0.76755 0.92665 0.28282 0.0
O416 O 0.76583 0.88285 0.29798 0.0
C417 C 0.79718 0.93836 0.32272 0.0
O418 O 0.77147 0.89472 0.31849 0.0
O419 O 0.78493 0.93281 0.32636 0.0
C420 C 0.09573 0.81735 0.30247 0.0
O421 O 0.1003 0.80786 0.29331 0.0
Cd422 Cd 0.09181 0.78301 0.29156 0.0
O423 O 0.08517 0.81435 0.31112 0.0
Cd424 Cd 0.06808 0.79342 0.31516 0.0
C425 C 0.0955 0.77169 0.32751 0.0
O426 O 0.06576 0.78392 0.29001 0.0
O427 O 0.05704 0.77031 0.30734 0.0
O428 O 0.04723 0.80992 0.3153 0.0
C429 C 0.05891 0.77235 0.29369 0.0
O430 O 0.09971 0.77089 0.31418 0.0
C431 C 0.04268 0.80625 0.32797 0.0
O432 O 0.08461 0.77964 0.33114 0.0
O433 O 0.05035 0.79699 0.33502 0.0
C434 C 0.16369 0.09017 0.30855 0.0
O435 O 0.16973 0.09366 0.29649 0.0
Cd436 Cd 0.1946 0.08955 0.29058 0.0
O437 O 0.17051 0.08282 0.31834 0.0
Cd438 Cd 0.1948 0.06984 0.31994 0.0
C439 C 0.21147 0.10271 0.32238 0.0
O440 O 0.19718 0.064 0.29411 0.0
O441 O 0.21703 0.06165 0.30648 0.0
O442 O 0.1811 0.04819 0.32687 0.0
C443 C 0.21044 0.0601 0.29431 0.0
O444 O 0.20841 0.10367 0.30875 0.0
C445 C 0.18944 0.04425 0.3373 0.0
O446 O 0.20743 0.09157 0.32987 0.0
O447 O 0.19997 0.05284 0.34045 0.0
C448 C 0.67839 0.88866 0.82623 0.0
O449 O 0.6868 0.89913 0.82283 0.0
Cd450 Cd 0.67437 0.90291 0.79936 0.0
O451 O 0.66792 0.886 0.81749 0.0
Cd452 Cd 0.66804 0.90595 0.7967 0.0
C453 C 0.65293 0.88026 0.78458 0.0
O454 O 0.69342 0.90784 0.7842 0.0
O455 O 0.67451 0.90987 0.77032 0.0
O456 O 0.67131 0.92662 0.81392 0.0
C457 C 0.68835 0.91012 0.77146 0.0
O458 O 0.66593 0.87879 0.78918 0.0
C459 C 0.66061 0.93399 0.80898 0.0
O460 O 0.64711 0.8928 0.78604 0.0
O461 O 0.65313 0.92815 0.79875 0.0
C462 C 0.09008 0.68731 0.81558 0.0
O463 O 0.09481 0.69505 0.80499 0.0
Cd464 Cd 0.08814 0.69229 0.77981 0.0
O465 O 0.08018 0.67761 0.81362 0.0
Cd466 Cd 0.06439 0.66966 0.79252 0.0
C467 C 0.09337 0.6551 0.77452 0.0
O468 O 0.06212 0.69344 0.78011 0.0
O469 O 0.05417 0.67474 0.76801 0.0
O470 O 0.04283 0.67004 0.8083 0.0
C471 C 0.05577 0.68856 0.76874 0.0
O472 O 0.09732 0.66827 0.77185 0.0
C473 C 0.03869 0.65706 0.80524 0.0
O474 O 0.0821 0.65245 0.78232 0.0
O475 O 0.04689 0.64968 0.79672 0.0
C476 C 0.30377 0.09869 0.81226 0.0
O477 O 0.29543 0.10498 0.80304 0.0
Cd478 Cd 0.28885 0.09595 0.7794 0.0
O479 O 0.31005 0.08654 0.8092 0.0
Cd480 Cd 0.31131 0.07037 0.78693 0.0
C481 C 0.32282 0.09772 0.76409 0.0
O482 O 0.2851 0.07007 0.78261 0.0
O483 O 0.29805 0.06048 0.76536 0.0
O484 O 0.31468 0.04838 0.80205 0.0
C485 C 0.28547 0.06297 0.77066 0.0
O486 O 0.30975 0.10256 0.76415 0.0
C487 C 0.32605 0.04398 0.79533 0.0
O488 O 0.32642 0.08675 0.77197 0.0
O489 O 0.33083 0.05216 0.7851 0.0
C490 C 0.89175 0.3013 0.81825 0.0
O491 O 0.88705 0.29231 0.80866 0.0
Cd492 Cd 0.89621 0.28972 0.7844 0.0
O493 O 0.90278 0.30947 0.81555 0.0
Cd494 Cd 0.92036 0.31224 0.7946 0.0
C495 C 0.89371 0.32551 0.77262 0.0
O496 O 0.922 0.2866 0.78744 0.0
O497 O 0.93016 0.30193 0.7714 0.0
O498 O 0.94135 0.31317 0.8111 0.0
C499 C 0.92873 0.28868 0.77547 0.0
O500 O 0.88903 0.31235 0.77164 0.0
C501 C 0.94629 0.32528 0.80626 0.0
O502 O 0.90461 0.32863 0.78075 0.0
O503 O 0.93882 0.33164 0.79635 0.0
C504 C 0.68437 0.0981 0.17371 0.0
O505 O 0.69256 0.1027 0.18403 0.0
Cd506 Cd 0.69419 0.09255 0.20825 0.0
O507 O 0.67632 0.08678 0.17554 0.0
Cd508 Cd 0.6716 0.06856 0.19558 0.0
C509 C 0.65803 0.09483 0.21831 0.0
O510 O 0.69674 0.06659 0.20509 0.0
O511 O 0.6799 0.05573 0.21757 0.0
O512 O 0.66935 0.04938 0.17681 0.0
C513 C 0.69337 0.05853 0.21595 0.0
O514 O 0.67114 0.09925 0.22012 0.0
C515 C 0.65778 0.0438 0.18221 0.0
O516 O 0.6551 0.08437 0.20949 0.0
O517 O 0.65239 0.0501 0.19342 0.0
C518 C 0.89359 0.69182 0.17162 0.0
O519 O 0.88934 0.69944 0.1825 0.0
Cd520 Cd 0.89759 0.69699 0.20708 0.0
O521 O 0.90388 0.68243 0.17293 0.0
Cd522 Cd 0.92138 0.67513 0.19305 0.0
C523 C 0.89385 0.65951 0.21224 0.0
O524 O 0.92337 0.69921 0.20471 0.0
O525 O 0.93272 0.68139 0.21697 0.0
O526 O 0.94061 0.67557 0.1744 0.0
C527 C 0.93042 0.69508 0.21593 0.0
O528 O 0.88972 0.67257 0.21514 0.0
C529 C 0.94691 0.66393 0.17877 0.0
O530 O 0.90481 0.65714 0.20393 0.0
O531 O 0.94096 0.65711 0.18939 0.0
C532 C 0.31395 0.89287 0.16281 0.0
O533 O 0.30215 0.89996 0.16389 0.0
Cd534 Cd 0.3104 0.91205 0.18621 0.0
O535 O 0.32389 0.8958 0.17208 0.0
Cd536 Cd 0.31561 0.91735 0.18942 0.0
C537 C 0.33353 0.8981 0.20788 0.0
O538 O 0.28826 0.9172 0.19601 0.0
O539 O 0.30305 0.92006 0.21409 0.0
O540 O 0.31285 0.9362 0.17014 0.0
C541 C 0.28991 0.91974 0.20954 0.0
O542 O 0.32199 0.89268 0.20234 0.0
C543 C 0.32135 0.94534 0.17637 0.0
O544 O 0.33644 0.91131 0.2047 0.0
O545 O 0.3273 0.94127 0.18829 0.0
C546 C 0.09569 0.30247 0.17064 0.0
O547 O 0.1012 0.29391 0.18017 0.0
Cd548 Cd 0.09225 0.29011 0.20432 0.0
O549 O 0.08403 0.30969 0.17346 0.0
Cd550 Cd 0.06658 0.31125 0.19477 0.0
C551 C 0.09284 0.32579 0.21658 0.0
O552 O 0.0668 0.28516 0.2005 0.0
O553 O 0.057 0.29881 0.21706 0.0
O554 O 0.04678 0.31368 0.17681 0.0
C555 C 0.05966 0.28598 0.21237 0.0
O556 O 0.09817 0.31289 0.21751 0.0
C557 C 0.04004 0.32369 0.1838 0.0
O558 O 0.08177 0.32833 0.2085 0.0
O559 O 0.04588 0.3282 0.19563 0.0
C560 C 0.81567 0.69414 0.88902 0.0
O561 O 0.80432 0.70123 0.88524 0.0
Cd562 Cd 0.78017 0.69611 0.89361 0.0
O563 O 0.81505 0.68415 0.89885 0.0
Cd564 Cd 0.79611 0.67467 0.9164 0.0
C565 C 0.77802 0.65838 0.88862 0.0
O566 O 0.78201 0.69727 0.91964 0.0
O567 O 0.77193 0.67751 0.9278 0.0
O568 O 0.81468 0.67713 0.93543 0.0
C569 C 0.77144 0.69136 0.92644 0.0
O570 O 0.77404 0.67131 0.885 0.0
C571 C 0.81192 0.66493 0.94161 0.0
O572 O 0.7867 0.65629 0.89937 0.0
O573 O 0.80225 0.65686 0.93563 0.0
C574 C 0.81296 0.30454 0.09623 0.0
O575 O 0.80318 0.29634 0.10179 0.0
Cd576 Cd 0.77796 0.29569 0.09493 0.0
O577 O 0.8101 0.31321 0.0856 0.0
Cd578 Cd 0.78803 0.3187 0.07034 0.0
C579 C 0.76822 0.33188 0.09903 0.0
O580 O 0.77851 0.29346 0.06879 0.0
O581 O 0.76485 0.31042 0.05962 0.0
O582 O 0.80334 0.32036 0.04844 0.0
C583 C 0.767 0.29685 0.06181 0.0
O584 O 0.76695 0.31865 0.10342 0.0
C585 C 0.79851 0.3328 0.04437 0.0
O586 O 0.77583 0.33499 0.08773 0.0
O587 O 0.78933 0.33901 0.0528 0.0
C588 C 0.68017 0.81485 0.09144 0.0
O589 O 0.69186 0.80807 0.09471 0.0
Cd590 Cd 0.69642 0.78318 0.08889 0.0
O591 O 0.6705 0.80879 0.08329 0.0
Cd592 Cd 0.66825 0.78523 0.06892 0.0
C593 C 0.66367 0.76827 0.10129 0.0
O594 O 0.69385 0.7818 0.063 0.0
O595 O 0.68079 0.76231 0.06072 0.0
O596 O 0.66183 0.79974 0.04754 0.0
C597 C 0.69306 0.76856 0.05887 0.0
O598 O 0.67741 0.77025 0.10271 0.0
C599 C 0.65085 0.79208 0.04376 0.0
O600 O 0.65693 0.77292 0.08996 0.0
O601 O 0.64739 0.78147 0.05218 0.0
C602 C 0.16965 0.69236 0.09374 0.0
O603 O 0.18077 0.69978 0.09764 0.0
Cd604 Cd 0.20525 0.69709 0.08918 0.0
O605 O 0.17056 0.68253 0.08377 0.0
Cd606 Cd 0.19058 0.67403 0.06678 0.0
C607 C 0.21176 0.66011 0.09404 0.0
O608 O 0.20288 0.69768 0.06323 0.0
O609 O 0.21431 0.67881 0.05492 0.0
O610 O 0.1745 0.674 0.04535 0.0
C611 C 0.21383 0.69264 0.05636 0.0
O612 O 0.21454 0.67336 0.09761 0.0
C613 C 0.17736 0.66088 0.04153 0.0
O614 O 0.2028 0.65717 0.08372 0.0
O615 O 0.1856 0.65355 0.05005 0.0
C616 C 0.29433 0.18002 0.09567 0.0
O617 O 0.28585 0.19033 0.09967 0.0
Cd618 Cd 0.2851 0.21429 0.08888 0.0
O619 O 0.30284 0.18168 0.08469 0.0
Cd620 Cd 0.30853 0.20064 0.0659 0.0
C621 C 0.32159 0.22322 0.09249 0.0
O622 O 0.28381 0.2104 0.06297 0.0
O623 O 0.30101 0.22239 0.05207 0.0
O624 O 0.30995 0.18067 0.04813 0.0
C625 C 0.28747 0.22104 0.05476 0.0
O626 O 0.30836 0.22524 0.09641 0.0
C627 C 0.32198 0.18486 0.04252 0.0
O628 O 0.32477 0.21445 0.08206 0.0
O629 O 0.32796 0.19617 0.04812 0.0
C630 C 0.17481 0.29109 0.89199 0.0
O631 O 0.18426 0.2812 0.88938 0.0
Cd632 Cd 0.20967 0.28377 0.89435 0.0
O633 O 0.17818 0.30263 0.89921 0.0
Cd634 Cd 0.19971 0.3119 0.91352 0.0
C635 C 0.21583 0.31918 0.88111 0.0
O636 O 0.21095 0.28848 0.91989 0.0
O637 O 0.22445 0.30753 0.92339 0.0
O638 O 0.18349 0.31457 0.9344 0.0
C639 C 0.223 0.2937 0.92435 0.0
O640 O 0.2171 0.30527 0.87999 0.0
C641 C 0.18705 0.32771 0.93745 0.0
O642 O 0.20963 0.325 0.89223 0.0
O643 O 0.19623 0.33387 0.92893 0.0
C644 C 0.67597 0.17022 0.8886 0.0
O645 O 0.68877 0.175 0.88604 0.0
Cd646 Cd 0.69559 0.19924 0.89345 0.0
O647 O 0.66741 0.17712 0.89723 0.0
Cd648 Cd 0.66788 0.19813 0.9147 0.0
C649 C 0.66314 0.21757 0.88409 0.0
O650 O 0.69406 0.20054 0.91942 0.0
O651 O 0.68088 0.21962 0.92421 0.0
O652 O 0.66301 0.17941 0.93274 0.0
C653 C 0.69333 0.21348 0.92457 0.0
O654 O 0.67657 0.21435 0.88206 0.0
C655 C 0.65337 0.18649 0.93984 0.0
O656 O 0.65628 0.21284 0.89535 0.0
O657 O 0.64975 0.19903 0.93481 0.0
C658 C 0.30497 0.81612 0.89382 0.0
O659 O 0.29584 0.80712 0.88836 0.0
Cd660 Cd 0.29244 0.78229 0.89537 0.0
O661 O 0.31316 0.81238 0.90456 0.0
Cd662 Cd 0.31527 0.78951 0.91999 0.0
C663 C 0.32739 0.76958 0.89112 0.0
O664 O 0.28937 0.78383 0.92145 0.0
O665 O 0.30345 0.76607 0.92791 0.0
O666 O 0.31883 0.8033 0.94284 0.0
C667 C 0.2906 0.77123 0.92715 0.0
O668 O 0.31423 0.76914 0.88652 0.0
C669 C 0.33058 0.79672 0.9464 0.0
O670 O 0.33069 0.77682 0.9026 0.0
O671 O 0.33539 0.78722 0.93741 0.0
C672 C 0.59697 0.66827 0.79639 0.0
O673 O 0.5996 0.67568 0.78485 0.0
Cd674 Cd 0.5893 0.69911 0.77945 0.0
O675 O 0.5874 0.67262 0.80561 0.0
Cd676 Cd 0.56936 0.6931 0.80797 0.0
C677 C 0.5979 0.71602 0.81264 0.0
O678 O 0.56359 0.69675 0.78206 0.0
O679 O 0.55732 0.71433 0.79659 0.0
O680 O 0.55181 0.67404 0.81383 0.0
C681 C 0.55725 0.70902 0.78371 0.0
O682 O 0.59954 0.7146 0.79879 0.0
C683 C 0.54573 0.68085 0.82435 0.0
O684 O 0.58799 0.70884 0.81945 0.0
O685 O 0.55117 0.69324 0.82788 0.0
C686 C 0.30937 0.59465 0.80475 0.0
O687 O 0.30197 0.59684 0.79315 0.0
Cd688 Cd 0.27878 0.58668 0.78755 0.0
O689 O 0.30485 0.58568 0.81456 0.0
Cd690 Cd 0.28338 0.56851 0.81761 0.0
C691 C 0.26079 0.59773 0.81939 0.0
O692 O 0.28151 0.56128 0.792 0.0
O693 O 0.26274 0.55595 0.80507 0.0
O694 O 0.30152 0.55105 0.82636 0.0
C695 C 0.26913 0.55513 0.79274 0.0
O696 O 0.26279 0.59829 0.80554 0.0
C697 C 0.29345 0.5452 0.83608 0.0
O698 O 0.26755 0.58828 0.82723 0.0
O699 O 0.28085 0.55083 0.83795 0.0
C700 C 0.39138 0.31972 0.80029 0.0
O701 O 0.38801 0.31172 0.78935 0.0
Cd702 Cd 0.39599 0.28709 0.78483 0.0
O703 O 0.40067 0.31529 0.80977 0.0
Cd704 Cd 0.41671 0.29337 0.8132 0.0
C705 C 0.38683 0.27193 0.81845 0.0
O706 O 0.4218 0.28686 0.78752 0.0
O707 O 0.42797 0.27091 0.80388 0.0
O708 O 0.43767 0.30898 0.81845 0.0
C709 C 0.42758 0.27454 0.79044 0.0
O710 O 0.38489 0.27291 0.80461 0.0
C711 C 0.44101 0.30282 0.83052 0.0
O712 O 0.39723 0.27885 0.82477 0.0
O713 O 0.43248 0.29273 0.83502 0.0
C714 C 0.67018 0.39104 0.7984 0.0
O715 O 0.6782 0.388 0.7874 0.0
Cd716 Cd 0.70362 0.39442 0.78635 0.0
O717 O 0.67502 0.39916 0.80872 0.0
Cd718 Cd 0.69685 0.41418 0.81501 0.0
C719 C 0.71384 0.38206 0.82115 0.0
O720 O 0.7057 0.4202 0.79022 0.0
O721 O 0.72028 0.42484 0.80833 0.0
O722 O 0.67865 0.43307 0.81876 0.0
C723 C 0.71785 0.42536 0.79463 0.0
O724 O 0.71363 0.3809 0.80719 0.0
C725 C 0.68415 0.43821 0.83049 0.0
O726 O 0.70816 0.39314 0.82757 0.0
O727 O 0.69542 0.43174 0.83555 0.0
C728 C 0.59515 0.31325 0.19174 0.0
O729 O 0.59995 0.30268 0.19948 0.0
Cd730 Cd 0.59065 0.27809 0.19874 0.0
O731 O 0.58421 0.3114 0.18324 0.0
Cd732 Cd 0.5669 0.29142 0.17653 0.0
C733 C 0.59423 0.27112 0.16174 0.0
O734 O 0.56459 0.2797 0.20056 0.0
O735 O 0.55534 0.26785 0.18224 0.0
O736 O 0.54638 0.30835 0.1776 0.0
C737 C 0.55738 0.26869 0.19599 0.0
O738 O 0.59841 0.26862 0.17486 0.0
C739 C 0.54195 0.3059 0.1646 0.0
O740 O 0.5834 0.27954 0.15914 0.0
O741 O 0.54952 0.29707 0.15689 0.0
C742 C 0.67304 0.60205 0.18703 0.0
O743 O 0.68294 0.60648 0.19577 0.0
Cd744 Cd 0.70717 0.59633 0.19642 0.0
O745 O 0.67529 0.59103 0.1787 0.0
Cd746 Cd 0.69454 0.5724 0.17407 0.0
C747 C 0.7164 0.59862 0.15964 0.0
O748 O 0.70486 0.57028 0.19897 0.0
O749 O 0.7167 0.55962 0.18143 0.0
O750 O 0.67462 0.55479 0.17514 0.0
C751 C 0.71554 0.56227 0.19505 0.0
O752 O 0.71805 0.60302 0.17284 0.0
C753 C 0.6782 0.54785 0.16358 0.0
O754 O 0.70791 0.5879 0.15663 0.0
O755 O 0.68919 0.55267 0.1565 0.0
C756 C 0.39509 0.66361 0.1961 0.0
O757 O 0.39337 0.67175 0.20729 0.0
Cd758 Cd 0.40107 0.69649 0.20907 0.0
O759 O 0.40271 0.66792 0.18513 0.0
Cd760 Cd 0.41899 0.68974 0.17967 0.0
C761 C 0.3885 0.70961 0.17538 0.0
O762 O 0.42651 0.6954 0.20461 0.0
O763 O 0.42956 0.71301 0.18928 0.0
O764 O 0.43789 0.67229 0.17253 0.0
C765 C 0.43132 0.70821 0.20224 0.0
O766 O 0.38779 0.70908 0.18936 0.0
C767 C 0.44247 0.67962 0.16158 0.0
O768 O 0.39865 0.70297 0.16845 0.0
O769 O 0.43556 0.69133 0.15847 0.0
C770 C 0.3113 0.38628 0.19639 0.0
O771 O 0.30041 0.38197 0.2039 0.0
Cd772 Cd 0.27662 0.39214 0.20264 0.0
O773 O 0.31024 0.39717 0.18761 0.0
Cd774 Cd 0.29045 0.41552 0.18167 0.0
C775 C 0.26879 0.39008 0.16575 0.0
O776 O 0.28165 0.41765 0.2067 0.0
O777 O 0.26753 0.42749 0.19061 0.0
O778 O 0.30982 0.43408 0.18098 0.0
C779 C 0.27064 0.42559 0.20404 0.0
O780 O 0.26612 0.38545 0.17869 0.0
C781 C 0.30512 0.44048 0.16951 0.0
O782 O 0.27781 0.40052 0.16365 0.0
O783 O 0.29386 0.43499 0.16346 0.0
C784 C 0.79836 0.59817 0.67278 0.0
O785 O 0.78689 0.60045 0.68031 0.0
Cd786 Cd 0.78252 0.59105 0.70427 0.0
O787 O 0.80828 0.58947 0.67744 0.0
Cd788 Cd 0.81177 0.57268 0.69892 0.0
C789 C 0.8148 0.6021 0.72112 0.0
O790 O 0.78647 0.56536 0.70265 0.0
O791 O 0.80088 0.56078 0.72073 0.0
O792 O 0.81782 0.55327 0.68186 0.0
C793 C 0.78823 0.55954 0.71515 0.0
O794 O 0.80097 0.60306 0.71952 0.0
C795 C 0.82948 0.54923 0.68825 0.0
O796 O 0.8221 0.59228 0.71432 0.0
O797 O 0.83353 0.55674 0.69933 0.0
C798 C 0.39102 0.80529 0.67077 0.0
O799 O 0.38712 0.79364 0.67738 0.0
Cd800 Cd 0.39494 0.7856 0.70088 0.0
O801 O 0.40054 0.81392 0.67632 0.0
Cd802 Cd 0.4156 0.81419 0.69935 0.0
C803 C 0.38414 0.81736 0.7187 0.0
O804 O 0.42074 0.78806 0.70149 0.0
O805 O 0.42483 0.80064 0.72104 0.0
O806 O 0.4366 0.82133 0.68474 0.0
C807 C 0.4255 0.78833 0.71454 0.0
O808 O 0.38271 0.80363 0.71633 0.0
C809 C 0.44048 0.832 0.69286 0.0
O810 O 0.39491 0.82449 0.71334 0.0
O811 O 0.43231 0.83492 0.70378 0.0
C812 C 0.192 0.38437 0.66888 0.0
O813 O 0.20073 0.37986 0.67874 0.0
Cd814 Cd 0.2008 0.3884 0.70338 0.0
O815 O 0.18284 0.39461 0.67151 0.0
Cd816 Cd 0.17786 0.41149 0.69273 0.0
C817 C 0.16489 0.38398 0.71392 0.0
O818 O 0.2033 0.41439 0.70008 0.0
O819 O 0.18761 0.4228 0.71555 0.0
O820 O 0.17552 0.43054 0.67406 0.0
C821 C 0.20087 0.42169 0.71164 0.0
O822 O 0.17814 0.37985 0.71523 0.0
C823 C 0.1645 0.43675 0.67984 0.0
O824 O 0.1616 0.39488 0.7058 0.0
O825 O 0.15931 0.43085 0.69136 0.0
C826 C 0.59747 0.18576 0.67329 0.0
O827 O 0.60243 0.19367 0.68366 0.0
Cd828 Cd 0.59109 0.19603 0.70705 0.0
O829 O 0.58541 0.17885 0.67479 0.0
Cd830 Cd 0.56616 0.17664 0.69408 0.0
C831 C 0.58985 0.15963 0.7168 0.0
O832 O 0.56613 0.20217 0.70175 0.0
O833 O 0.55519 0.18734 0.71657 0.0
O834 O 0.54853 0.17771 0.67405 0.0
C835 C 0.55798 0.20047 0.71286 0.0
O836 O 0.59518 0.17235 0.71922 0.0
C837 C 0.54057 0.16727 0.67873 0.0
O838 O 0.57958 0.1579 0.7075 0.0
O839 O 0.54481 0.1608 0.69034 0.0
C840 C 0.79782 0.38901 0.31582 0.0
O841 O 0.78666 0.38627 0.30795 0.0
Cd842 Cd 0.78316 0.3945 0.28322 0.0
O843 O 0.80781 0.39764 0.31119 0.0
Cd844 Cd 0.81263 0.41349 0.28944 0.0
C845 C 0.81649 0.38274 0.26899 0.0
O846 O 0.78752 0.42014 0.2829 0.0
O847 O 0.80425 0.42529 0.26694 0.0
O848 O 0.81717 0.43355 0.30622 0.0
C849 C 0.79089 0.42589 0.27066 0.0
O850 O 0.8026 0.38189 0.27005 0.0
C851 C 0.82938 0.43738 0.30077 0.0
O852 O 0.82357 0.39299 0.27545 0.0
O853 O 0.83442 0.42942 0.29044 0.0
C854 C 0.59102 0.80284 0.31631 0.0
O855 O 0.59345 0.79121 0.30901 0.0
Cd856 Cd 0.58507 0.78751 0.28464 0.0
O857 O 0.58252 0.81276 0.31128 0.0
Cd858 Cd 0.56575 0.81616 0.28977 0.0
C859 C 0.59577 0.82111 0.2694 0.0
O860 O 0.55935 0.79052 0.28581 0.0
O861 O 0.55472 0.80485 0.26762 0.0
O862 O 0.54806 0.82177 0.30869 0.0
C863 C 0.55375 0.79212 0.2732 0.0
O864 O 0.59706 0.80725 0.27098 0.0
C865 C 0.54166 0.83203 0.30181 0.0
O866 O 0.58528 0.82806 0.27549 0.0
O867 O 0.54701 0.83565 0.28941 0.0
C868 C 0.19534 0.59733 0.30844 0.0
O869 O 0.20533 0.59894 0.29887 0.0
Cd870 Cd 0.20406 0.59159 0.27383 0.0
O871 O 0.18363 0.59024 0.30548 0.0
Cd872 Cd 0.17404 0.57512 0.28446 0.0
C873 C 0.16996 0.60597 0.26432 0.0
O874 O 0.19741 0.5666 0.27518 0.0
O875 O 0.17913 0.56246 0.26094 0.0
O876 O 0.16934 0.55567 0.30197 0.0
C877 C 0.19273 0.56113 0.2633 0.0
O878 O 0.18389 0.60587 0.26358 0.0
C879 C 0.15647 0.55278 0.2976 0.0
O880 O 0.16306 0.59625 0.27169 0.0
O881 O 0.15126 0.56101 0.28759 0.0
C882 C 0.38688 0.19271 0.31375 0.0
O883 O 0.38363 0.20071 0.3028 0.0
Cd884 Cd 0.39251 0.19728 0.27855 0.0
O885 O 0.3964 0.1825 0.3127 0.0
Cd886 Cd 0.41412 0.17378 0.29349 0.0
C887 C 0.38631 0.16001 0.27346 0.0
O888 O 0.41827 0.19746 0.28189 0.0
O889 O 0.42685 0.17904 0.26996 0.0
O890 O 0.43212 0.17395 0.31318 0.0
C891 C 0.42543 0.19285 0.27093 0.0
O892 O 0.38322 0.17335 0.2705 0.0
C893 C 0.43806 0.16184 0.30969 0.0
O894 O 0.39684 0.15684 0.28206 0.0
O895 O 0.43244 0.15488 0.29897 0.0
C896 C 0.6678 0.80573 0.59419 0.0
O897 O 0.67637 0.79558 0.59837 0.0
Cd898 Cd 0.70009 0.79017 0.58926 0.0
O899 O 0.67133 0.81421 0.58357 0.0
Cd900 Cd 0.69283 0.81557 0.56634 0.0
C901 C 0.71655 0.82377 0.59381 0.0
O902 O 0.69696 0.7893 0.56326 0.0
O903 O 0.71438 0.80321 0.55561 0.0
O904 O 0.67762 0.82042 0.5448 0.0
C905 C 0.70907 0.79039 0.55661 0.0
O906 O 0.7158 0.81034 0.59767 0.0
C907 C 0.68441 0.832 0.54098 0.0
O908 O 0.70881 0.82865 0.58325 0.0
O909 O 0.6946 0.83634 0.54942 0.0
C910 C 0.66907 0.19302 0.38562 0.0
O911 O 0.67961 0.20104 0.38131 0.0
Cd912 Cd 0.70369 0.20089 0.39096 0.0
O913 O 0.67065 0.18399 0.39623 0.0
Cd914 Cd 0.69116 0.17829 0.41368 0.0
C915 C 0.7139 0.16486 0.38756 0.0
O916 O 0.69891 0.20355 0.41669 0.0
O917 O 0.71376 0.1877 0.42587 0.0
O918 O 0.67414 0.17652 0.43429 0.0
C919 C 0.71006 0.20105 0.4245 0.0
O920 O 0.71579 0.17804 0.38327 0.0
C921 C 0.67841 0.16391 0.43845 0.0
O922 O 0.70504 0.16194 0.39792 0.0
O923 O 0.68816 0.15774 0.43067 0.0
C924 C 0.80034 0.67 0.38848 0.0
O925 O 0.79117 0.6794 0.38385 0.0
Cd926 Cd 0.78694 0.7031 0.39386 0.0
O927 O 0.80804 0.67262 0.39991 0.0
Cd928 Cd 0.80975 0.6934 0.4181 0.0
C929 C 0.82199 0.7166 0.3919 0.0
O930 O 0.78373 0.69911 0.41962 0.0
O931 O 0.7981 0.71556 0.42852 0.0
O932 O 0.81321 0.67557 0.43797 0.0
C933 C 0.78513 0.71101 0.42667 0.0
O934 O 0.80883 0.71723 0.3873 0.0
C935 C 0.82366 0.68254 0.44401 0.0
O936 O 0.82547 0.70819 0.4025 0.0
O937 O 0.82797 0.69418 0.43766 0.0
C938 C 0.31092 0.79595 0.39046 0.0
O939 O 0.30283 0.78485 0.38797 0.0
Cd940 Cd 0.27821 0.7826 0.39659 0.0
O941 O 0.30664 0.80615 0.39906 0.0
Cd942 Cd 0.28564 0.81214 0.41539 0.0
C943 C 0.26611 0.81674 0.38434 0.0
O944 O 0.27835 0.78728 0.42223 0.0
O945 O 0.26307 0.80447 0.42763 0.0
O946 O 0.30456 0.81733 0.43324 0.0
C947 C 0.26625 0.79092 0.42801 0.0
O948 O 0.26642 0.80275 0.38359 0.0
C949 C 0.29864 0.82884 0.43841 0.0
O950 O 0.27264 0.82358 0.39469 0.0
O951 O 0.28686 0.83314 0.43233 0.0
C952 C 0.18008 0.31938 0.39127 0.0
O953 O 0.19184 0.31248 0.3885 0.0
Cd954 Cd 0.1967 0.28789 0.39596 0.0
O955 O 0.17033 0.31368 0.39953 0.0
Cd956 Cd 0.16749 0.2911 0.41487 0.0
C957 C 0.16456 0.27125 0.38392 0.0
O958 O 0.19289 0.28706 0.42172 0.0
O959 O 0.17854 0.26853 0.42486 0.0
O960 O 0.16192 0.30731 0.43499 0.0
C961 C 0.19115 0.27411 0.42652 0.0
O962 O 0.17834 0.27331 0.38299 0.0
C963 C 0.15036 0.3008 0.43915 0.0
O964 O 0.15716 0.27703 0.3943 0.0
O965 O 0.14614 0.28991 0.43145 0.0
C966 C 0.30763 0.19004 0.59161 0.0
O967 O 0.29698 0.19777 0.59618 0.0
Cd968 Cd 0.27256 0.19651 0.58705 0.0
O969 O 0.30597 0.18124 0.58081 0.0
Cd970 Cd 0.28615 0.17401 0.56326 0.0
C971 C 0.26687 0.1592 0.5913 0.0
O972 O 0.27453 0.19809 0.561 0.0
O973 O 0.26257 0.17988 0.55181 0.0
O974 O 0.30486 0.17403 0.54412 0.0
C975 C 0.26342 0.19361 0.55395 0.0
O976 O 0.26404 0.17236 0.59514 0.0
C977 C 0.30055 0.16222 0.53805 0.0
O978 O 0.27519 0.15652 0.58038 0.0
O979 O 0.28989 0.15556 0.54407 0.0
C980 C 0.79673 0.31873 0.59858 0.0
O981 O 0.78535 0.31116 0.60125 0.0
Cd982 Cd 0.78141 0.28697 0.59227 0.0
O983 O 0.80651 0.31394 0.58979 0.0
Cd984 Cd 0.81035 0.29223 0.57332 0.0
C985 C 0.81433 0.27144 0.60355 0.0
O986 O 0.78494 0.28833 0.56644 0.0
O987 O 0.79935 0.27025 0.56176 0.0
O988 O 0.81705 0.31067 0.55533 0.0
C989 C 0.78667 0.27578 0.56068 0.0
O990 O 0.80049 0.27282 0.60458 0.0
C991 C 0.82744 0.30346 0.54956 0.0
O992 O 0.8214 0.27787 0.59331 0.0
O993 O 0.83055 0.29115 0.5554 0.0
C994 C 0.18554 0.67159 0.59867 0.0
O995 O 0.19408 0.68137 0.60375 0.0
Cd996 Cd 0.19806 0.70505 0.59362 0.0
O997 O 0.17847 0.67378 0.58677 0.0
Cd998 Cd 0.17704 0.69408 0.56816 0.0
C999 C 0.16261 0.71744 0.59332 0.0
O1000 O 0.20281 0.70036 0.56825 0.0
O1001 O 0.18905 0.71618 0.55741 0.0
O1002 O 0.17671 0.67673 0.54767 0.0
C1003 C 0.20188 0.7119 0.56055 0.0
O1004 O 0.17538 0.71837 0.59885 0.0
C1005 C 0.1647 0.68128 0.54231 0.0
O1006 O 0.16011 0.70903 0.58243 0.0
O1007 O 0.15827 0.69156 0.54919 0.0
C1008 C 0.38701 0.31308 0.19516 0.0
O1009 O 0.38307 0.30188 0.20248 0.0
Cd1010 Cd 0.39175 0.2775 0.19909 0.0
O1011 O 0.39714 0.31225 0.18554 0.0
Cd1012 Cd 0.41457 0.29264 0.17722 0.0
C1013 C 0.38723 0.27298 0.16175 0.0
O1014 O 0.4176 0.28009 0.20064 0.0
O1015 O 0.42633 0.26862 0.18194 0.0
O1016 O 0.43519 0.30957 0.17823 0.0
C1017 C 0.4247 0.2692 0.19575 0.0
O1018 O 0.38329 0.26962 0.17476 0.0
C1019 C 0.43929 0.30738 0.16507 0.0
O1020 O 0.39797 0.28161 0.15952 0.0
O1021 O 0.43145 0.29882 0.15735 0.0
C1022 C 0.66876 0.39105 0.19385 0.0
O1023 O 0.67926 0.38662 0.20186 0.0
Cd1024 Cd 0.70329 0.39715 0.20248 0.0
O1025 O 0.67028 0.40233 0.18566 0.0
Cd1026 Cd 0.6894 0.42095 0.18005 0.0
C1027 C 0.71167 0.39486 0.16562 0.0
O1028 O 0.70007 0.4231 0.20466 0.0
O1029 O 0.71162 0.43398 0.18711 0.0
O1030 O 0.67031 0.43965 0.17996 0.0
C1031 C 0.71071 0.43114 0.20071 0.0
O1032 O 0.71397 0.39059 0.17876 0.0
C1033 C 0.67423 0.44543 0.16787 0.0
O1034 O 0.70271 0.40523 0.16289 0.0
O1035 O 0.68484 0.43939 0.16116 0.0
C1036 C 0.59395 0.67428 0.19087 0.0
O1037 O 0.59619 0.68237 0.20202 0.0
Cd1038 Cd 0.58589 0.7061 0.20492 0.0
O1039 O 0.58485 0.67817 0.18096 0.0
Cd1040 Cd 0.56721 0.69877 0.17627 0.0
C1041 C 0.59662 0.72024 0.17107 0.0
O1042 O 0.56025 0.70336 0.20163 0.0
O1043 O 0.55531 0.72088 0.18662 0.0
O1044 O 0.55005 0.67941 0.16983 0.0
C1045 C 0.55426 0.71571 0.19951 0.0
O1046 O 0.59766 0.7197 0.18503 0.0
C1047 C 0.54406 0.68623 0.15927 0.0
O1048 O 0.58662 0.71312 0.16436 0.0
O1049 O 0.54933 0.69875 0.15602 0.0
C1050 C 0.31471 0.59612 0.18718 0.0
O1051 O 0.30426 0.60032 0.19535 0.0
Cd1052 Cd 0.27949 0.59229 0.19307 0.0
O1053 O 0.31285 0.58612 0.17755 0.0
Cd1054 Cd 0.29266 0.56893 0.17036 0.0
C1055 C 0.27258 0.59632 0.15582 0.0
O1056 O 0.28093 0.56623 0.19443 0.0
O1057 O 0.26913 0.55734 0.17597 0.0
O1058 O 0.31146 0.5502 0.17198 0.0
C1059 C 0.26991 0.55917 0.18974 0.0
O1060 O 0.27038 0.60024 0.16909 0.0
C1061 C 0.3078 0.54342 0.16036 0.0
O1062 O 0.28095 0.58553 0.1528 0.0
O1063 O 0.29746 0.54896 0.15283 0.0
C1064 C 0.38709 0.66863 0.80273 0.0
O1065 O 0.38259 0.67792 0.79335 0.0
Cd1066 Cd 0.3927 0.70152 0.78885 0.0
O1067 O 0.39858 0.67118 0.81031 0.0
Cd1068 Cd 0.41727 0.69145 0.8113 0.0
C1069 C 0.39147 0.71463 0.82423 0.0
O1070 O 0.41822 0.69721 0.78514 0.0
O1071 O 0.42781 0.71344 0.79937 0.0
O1072 O 0.43651 0.67299 0.81418 0.0
C1073 C 0.42549 0.70899 0.78638 0.0
O1074 O 0.38664 0.7154 0.81112 0.0
C1075 C 0.44305 0.67967 0.82454 0.0
O1076 O 0.40213 0.70623 0.82743 0.0
O1077 O 0.43729 0.69154 0.82906 0.0
C1078 C 0.31526 0.39433 0.80114 0.0
O1079 O 0.308 0.39179 0.78952 0.0
Cd1080 Cd 0.28407 0.40038 0.78439 0.0
O1081 O 0.31021 0.40292 0.81103 0.0
Cd1082 Cd 0.28797 0.41903 0.81418 0.0
C1083 C 0.26705 0.38865 0.8165 0.0
O1084 O 0.28511 0.42601 0.7886 0.0
O1085 O 0.26627 0.43 0.80205 0.0
O1086 O 0.30486 0.43785 0.82286 0.0
C1087 C 0.27232 0.43119 0.78957 0.0
O1088 O 0.26891 0.38789 0.80263 0.0
C1089 C 0.29658 0.44275 0.83292 0.0
O1090 O 0.27335 0.39863 0.82405 0.0
O1091 O 0.2845 0.4361 0.83487 0.0
C1092 C 0.59216 0.31878 0.79817 0.0
O1093 O 0.59485 0.31085 0.78701 0.0
Cd1094 Cd 0.58658 0.28642 0.7837 0.0
O1095 O 0.58355 0.31423 0.80825 0.0
Cd1096 Cd 0.56761 0.29207 0.81261 0.0
C1097 C 0.59818 0.27203 0.81709 0.0
O1098 O 0.56093 0.28755 0.7873 0.0
O1099 O 0.5571 0.26928 0.80171 0.0
O1100 O 0.54744 0.30826 0.81886 0.0
C1101 C 0.55574 0.27478 0.78898 0.0
O1102 O 0.59929 0.27305 0.80316 0.0
C1103 C 0.54364 0.30148 0.83044 0.0
O1104 O 0.58777 0.27837 0.82393 0.0
O1105 O 0.55156 0.29067 0.83429 0.0
C1106 C 0.67514 0.5953 0.80414 0.0
O1107 O 0.68458 0.59931 0.79471 0.0
Cd1108 Cd 0.70788 0.58849 0.79105 0.0
O1109 O 0.67753 0.58427 0.81247 0.0
Cd1110 Cd 0.69753 0.5655 0.81518 0.0
C1111 C 0.72186 0.59124 0.8261 0.0
O1112 O 0.70248 0.56288 0.78909 0.0
O1113 O 0.71866 0.55331 0.80329 0.0
O1114 O 0.67838 0.54719 0.81911 0.0
C1115 C 0.71389 0.55513 0.79035 0.0
O1116 O 0.72224 0.59539 0.81273 0.0
C1117 C 0.6848 0.54076 0.82968 0.0
O1118 O 0.71331 0.58099 0.8302 0.0
O1119 O 0.69689 0.54622 0.83389 0.0
C1120 C 0.17676 0.39605 0.31788 0.0
O1121 O 0.18616 0.39106 0.3089 0.0
Cd1122 Cd 0.18984 0.39901 0.28443 0.0
O1123 O 0.16852 0.40682 0.31436 0.0
Cd1124 Cd 0.16651 0.42344 0.29233 0.0
C1125 C 0.1548 0.39514 0.27125 0.0
O1126 O 0.19243 0.42496 0.28717 0.0
O1127 O 0.17873 0.4326 0.26957 0.0
O1128 O 0.16379 0.44516 0.30786 0.0
C1129 C 0.1915 0.43132 0.27486 0.0
O1130 O 0.16801 0.39068 0.27108 0.0
C1131 C 0.15227 0.44982 0.3016 0.0
O1132 O 0.1512 0.40647 0.2786 0.0
O1133 O 0.14703 0.44187 0.29141 0.0
C1134 C 0.59216 0.19111 0.31385 0.0
O1135 O 0.59564 0.19893 0.30283 0.0
Cd1136 Cd 0.58645 0.19622 0.27862 0.0
O1137 O 0.58222 0.18127 0.31295 0.0
Cd1138 Cd 0.56408 0.17312 0.2939 0.0
C1139 C 0.59125 0.1588 0.27325 0.0
O1140 O 0.56083 0.19701 0.28259 0.0
O1141 O 0.55102 0.17917 0.27073 0.0
O1142 O 0.54611 0.17339 0.31365 0.0
C1143 C 0.55325 0.19288 0.27173 0.0
O1144 O 0.59478 0.17203 0.27031 0.0
C1145 C 0.53999 0.16139 0.31003 0.0
O1146 O 0.58073 0.15593 0.28198 0.0
O1147 O 0.5455 0.15446 0.29925 0.0
C1148 C 0.80374 0.59495 0.31158 0.0
O1149 O 0.79533 0.59975 0.30154 0.0
Cd1150 Cd 0.79258 0.59056 0.27711 0.0
O1151 O 0.81172 0.58365 0.30937 0.0
Cd1152 Cd 0.81566 0.56608 0.28855 0.0
C1153 C 0.82833 0.59299 0.26579 0.0
O1154 O 0.7903 0.56463 0.27986 0.0
O1155 O 0.80645 0.55405 0.26629 0.0
O1156 O 0.81753 0.54488 0.30495 0.0
C1157 C 0.7931 0.55697 0.26858 0.0
O1158 O 0.81519 0.59753 0.26461 0.0
C1159 C 0.82996 0.54077 0.30024 0.0
O1160 O 0.83151 0.58226 0.27419 0.0
O1161 O 0.836 0.54886 0.29061 0.0
C1162 C 0.38419 0.80139 0.31274 0.0
O1163 O 0.3791 0.79339 0.3025 0.0
Cd1164 Cd 0.38967 0.79096 0.27876 0.0
O1165 O 0.39587 0.80886 0.31079 0.0
Cd1166 Cd 0.41374 0.81192 0.29012 0.0
C1167 C 0.38831 0.82653 0.26731 0.0
O1168 O 0.415 0.78594 0.28411 0.0
O1169 O 0.42505 0.80021 0.26819 0.0
O1170 O 0.43289 0.81536 0.30873 0.0
C1171 C 0.42301 0.78725 0.27286 0.0
O1172 O 0.38351 0.81356 0.26523 0.0
C1173 C 0.43917 0.82585 0.30199 0.0
O1174 O 0.3986 0.82887 0.27641 0.0
O1175 O 0.43336 0.83007 0.29006 0.0
C1176 C 0.18337 0.59583 0.67486 0.0
O1177 O 0.1923 0.60024 0.68461 0.0
Cd1178 Cd 0.19565 0.58934 0.70806 0.0
O1179 O 0.17566 0.58432 0.67697 0.0
Cd1180 Cd 0.17346 0.56523 0.6967 0.0
C1181 C 0.16007 0.59027 0.72052 0.0
O1182 O 0.19933 0.56384 0.70294 0.0
O1183 O 0.18478 0.55347 0.71837 0.0
O1184 O 0.17193 0.54723 0.67694 0.0
C1185 C 0.1978 0.55589 0.71425 0.0
O1186 O 0.17314 0.59506 0.72148 0.0
C1187 C 0.16145 0.53997 0.68254 0.0
O1188 O 0.15689 0.57979 0.7118 0.0
O1189 O 0.15614 0.54482 0.6945 0.0
C1190 C 0.38315 0.19525 0.6672 0.0
O1191 O 0.37813 0.20311 0.67757 0.0
Cd1192 Cd 0.38776 0.20303 0.70209 0.0
O1193 O 0.39444 0.18729 0.66922 0.0
Cd1194 Cd 0.41214 0.18219 0.68928 0.0
C1195 C 0.38558 0.16604 0.70945 0.0
O1196 O 0.41372 0.20674 0.70073 0.0
O1197 O 0.42352 0.18869 0.71253 0.0
O1198 O 0.4315 0.18318 0.67087 0.0
C1199 C 0.42129 0.20239 0.71159 0.0
O1200 O 0.38096 0.179 0.712 0.0
C1201 C 0.43759 0.17128 0.67487 0.0
O1202 O 0.39645 0.1639 0.70095 0.0
O1203 O 0.43147 0.16418 0.6852 0.0
C1204 C 0.80194 0.39367 0.67458 0.0
O1205 O 0.79356 0.38865 0.68454 0.0
Cd1206 Cd 0.79243 0.39656 0.70955 0.0
O1207 O 0.81048 0.40446 0.67721 0.0
Cd1208 Cd 0.81559 0.42086 0.69858 0.0
C1209 C 0.82857 0.39229 0.71882 0.0
O1210 O 0.79066 0.42272 0.70843 0.0
O1211 O 0.80782 0.4317 0.72193 0.0
O1212 O 0.8177 0.44253 0.68285 0.0
C1213 C 0.79426 0.42959 0.71999 0.0
O1214 O 0.81538 0.38805 0.72053 0.0
C1215 C 0.83027 0.44625 0.68756 0.0
O1216 O 0.83157 0.40342 0.7109 0.0
O1217 O 0.83622 0.43777 0.69689 0.0
C1218 C 0.59299 0.80264 0.67017 0.0
O1219 O 0.59612 0.79106 0.67731 0.0
Cd1220 Cd 0.58701 0.78373 0.70067 0.0
O1221 O 0.58358 0.81174 0.67514 0.0
Cd1222 Cd 0.56726 0.81264 0.69732 0.0
C1223 C 0.59607 0.81466 0.72063 0.0
O1224 O 0.56126 0.78656 0.69909 0.0
O1225 O 0.556 0.79947 0.71811 0.0
O1226 O 0.54659 0.82063 0.68252 0.0
C1227 C 0.55546 0.78712 0.7117 0.0
O1228 O 0.59768 0.80095 0.71826 0.0
C1229 C 0.54326 0.83154 0.69056 0.0
O1230 O 0.58637 0.82201 0.71375 0.0
O1231 O 0.5517 0.83423 0.70133 0.0
C1232 C 0.3115 0.19888 0.3872 0.0
O1233 O 0.30234 0.20915 0.38517 0.0
Cd1234 Cd 0.27794 0.20861 0.39374 0.0
O1235 O 0.30832 0.18781 0.39522 0.0
Cd1236 Cd 0.2875 0.18057 0.41194 0.0
C1237 C 0.26689 0.17372 0.38233 0.0
O1238 O 0.28082 0.20528 0.41939 0.0
O1239 O 0.26443 0.18893 0.42378 0.0
O1240 O 0.30689 0.17606 0.42955 0.0
C1241 C 0.26871 0.2021 0.4253 0.0
O1242 O 0.26648 0.18768 0.38128 0.0
C1243 C 0.30117 0.16473 0.43529 0.0
O1244 O 0.2743 0.16752 0.39244 0.0
O1245 O 0.2893 0.16014 0.42962 0.0
C1246 C 0.31494 0.80964 0.59702 0.0
O1247 O 0.30602 0.80037 0.60239 0.0
Cd1248 Cd 0.28299 0.7932 0.59282 0.0
O1249 O 0.31212 0.81628 0.585 0.0
Cd1250 Cd 0.29087 0.81615 0.56748 0.0
C1251 C 0.26779 0.82758 0.59438 0.0
O1252 O 0.28704 0.7897 0.56717 0.0
O1253 O 0.26981 0.80236 0.55727 0.0
O1254 O 0.3087 0.81992 0.54788 0.0
C1255 C 0.27518 0.78981 0.55998 0.0
O1256 O 0.26792 0.81439 0.59906 0.0
C1257 C 0.30136 0.82974 0.54125 0.0
O1258 O 0.27566 0.83142 0.58347 0.0
O1259 O 0.28934 0.83359 0.54709 0.0
C1260 C 0.18573 0.31384 0.5918 0.0
O1261 O 0.19324 0.30303 0.59637 0.0
Cd1262 Cd 0.19037 0.27797 0.58963 0.0
O1263 O 0.17581 0.31219 0.58207 0.0
Cd1264 Cd 0.16714 0.29095 0.5668 0.0
C1265 C 0.15385 0.27306 0.59663 0.0
O1266 O 0.19088 0.27924 0.56346 0.0
O1267 O 0.17252 0.26654 0.55599 0.0
O1268 O 0.1646 0.30654 0.54508 0.0
C1269 C 0.18629 0.26781 0.55705 0.0
O1270 O 0.16697 0.26986 0.60011 0.0
C1271 C 0.15168 0.3023 0.54206 0.0
O1272 O 0.15114 0.28104 0.5855 0.0
O1273 O 0.14576 0.29337 0.55099 0.0
C1274 C 0.67241 0.18703 0.59648 0.0
O1275 O 0.68213 0.19602 0.60084 0.0
Cd1276 Cd 0.70542 0.19966 0.58988 0.0
O1277 O 0.6745 0.17921 0.58502 0.0
Cd1278 Cd 0.69435 0.17658 0.56632 0.0
C1279 C 0.71819 0.16422 0.59191 0.0
O1280 O 0.70032 0.20242 0.56428 0.0
O1281 O 0.71623 0.18784 0.55474 0.0
O1282 O 0.67663 0.1749 0.54638 0.0
C1283 C 0.71177 0.2009 0.55663 0.0
O1284 O 0.71917 0.17748 0.5963 0.0
C1285 C 0.68143 0.16282 0.54132 0.0
O1286 O 0.70948 0.16073 0.58157 0.0
O1287 O 0.69194 0.15687 0.54824 0.0
C1288 C 0.79601 0.67362 0.59702 0.0
O1289 O 0.78434 0.68077 0.59949 0.0
Cd1290 Cd 0.77957 0.70461 0.58998 0.0
O1291 O 0.80555 0.67852 0.58803 0.0
Cd1292 Cd 0.80832 0.69955 0.57055 0.0
C1293 C 0.81234 0.72158 0.59986 0.0
O1294 O 0.78267 0.70272 0.56422 0.0
O1295 O 0.79663 0.72087 0.55854 0.0
O1296 O 0.81459 0.68033 0.55333 0.0
C1297 C 0.78398 0.71516 0.55812 0.0
O1298 O 0.79857 0.71978 0.60119 0.0
C1299 C 0.82486 0.68725 0.54698 0.0
O1300 O 0.81945 0.71496 0.58977 0.0
O1301 O 0.82809 0.69985 0.5521 0.0
C1302 C 0.6676 0.80142 0.38952 0.0
O1303 O 0.6745 0.78975 0.38631 0.0
Cd1304 Cd 0.69914 0.78508 0.39292 0.0
O1305 O 0.67337 0.81111 0.39786 0.0
Cd1306 Cd 0.6963 0.81376 0.41279 0.0
C1307 C 0.71459 0.81795 0.38103 0.0
O1308 O 0.69978 0.78805 0.41877 0.0
O1309 O 0.71869 0.80161 0.4224 0.0
O1310 O 0.68072 0.81989 0.43338 0.0
C1311 C 0.71271 0.78908 0.42361 0.0
O1312 O 0.71263 0.80414 0.37971 0.0
C1313 C 0.68786 0.83113 0.43748 0.0
O1314 O 0.70943 0.82489 0.39204 0.0
O1315 O 0.69874 0.83486 0.42959 0.0
C1316 C 0.19308 0.66915 0.386 0.0
O1317 O 0.20062 0.68029 0.38234 0.0
Cd1318 Cd 0.1982 0.70461 0.39172 0.0
O1319 O 0.18351 0.66992 0.39618 0.0
Cd1320 Cd 0.17572 0.68941 0.41401 0.0
C1321 C 0.1613 0.71119 0.38753 0.0
O1322 O 0.19945 0.70137 0.41762 0.0
O1323 O 0.18084 0.71276 0.42657 0.0
O1324 O 0.17616 0.67257 0.43483 0.0
C1325 C 0.19461 0.71204 0.42511 0.0
O1326 O 0.17442 0.71414 0.38378 0.0
C1327 C 0.16311 0.67515 0.43888 0.0
O1328 O 0.15864 0.70201 0.39775 0.0
O1329 O 0.15562 0.68363 0.43074 0.0
C1330 C 0.80032 0.31411 0.39232 0.0
O1331 O 0.79095 0.30471 0.38805 0.0
Cd1332 Cd 0.78747 0.28099 0.39816 0.0
O1333 O 0.80861 0.31143 0.4033 0.0
Cd1334 Cd 0.81132 0.29081 0.42152 0.0
C1335 C 0.82253 0.26774 0.3947 0.0
O1336 O 0.78541 0.2857 0.42392 0.0
O1337 O 0.79946 0.26899 0.43278 0.0
O1338 O 0.81565 0.30944 0.44041 0.0
C1339 C 0.7866 0.27394 0.43121 0.0
O1340 O 0.80922 0.26711 0.39057 0.0
C1341 C 0.82596 0.30252 0.44669 0.0
O1342 O 0.82638 0.27603 0.40528 0.0
O1343 O 0.82982 0.29041 0.44094 0.0
H1344 H 0.10024 0.22455 0.34606 0.0
H1345 H 0.13016 0.21759 0.30958 0.0
H1346 H 0.14905 0.23194 0.32245 0.0
H1347 H 0.11109 0.26189 0.3534 0.0
H1348 H 0.10948 0.26024 0.37308 0.0
H1349 H 0.09823 0.24906 0.36126 0.0
H1350 H 0.10787 0.22555 0.37409 0.0
H1351 H 0.11913 0.23667 0.38597 0.0
H1352 H 0.12732 0.22233 0.37505 0.0
H1353 H 0.16471 0.24675 0.33892 0.0
H1354 H 0.17633 0.26185 0.35805 0.0
H1355 H 0.13638 0.26008 0.38395 0.0
C1356 C 0.11079 0.22599 0.34083 0.0
C1357 C 0.1137 0.21991 0.32681 0.0
C1358 C 0.12762 0.22215 0.32028 0.0
C1359 C 0.13846 0.23027 0.32751 0.0
C1360 C 0.13522 0.23616 0.34124 0.0
C1361 C 0.12175 0.2342 0.34785 0.0
C1362 C 0.12113 0.24201 0.36259 0.0
C1363 C 0.10928 0.25401 0.36257 0.0
C1364 C 0.11872 0.23098 0.37517 0.0
C1365 C 0.13636 0.24863 0.36317 0.0
C1366 C 0.14428 0.24503 0.35074 0.0
C1367 C 0.15864 0.24967 0.34871 0.0
C1368 C 0.16515 0.25824 0.35968 0.0
C1369 C 0.15728 0.26219 0.37253 0.0
C1370 C 0.14266 0.25731 0.37424 0.0
H1371 H 0.72723 0.1646 0.36051 0.0
H1372 H 0.71965 0.13785 0.3993 0.0
H1373 H 0.73414 0.11777 0.3883 0.0
H1374 H 0.72374 0.13507 0.33458 0.0
H1375 H 0.7377 0.14205 0.32243 0.0
H1376 H 0.72726 0.15455 0.33362 0.0
H1377 H 0.7513 0.16498 0.34464 0.0
H1378 H 0.76181 0.15246 0.33351 0.0
H1379 H 0.76418 0.15263 0.35318 0.0
H1380 H 0.74976 0.10077 0.3733 0.0
H1381 H 0.76373 0.0872 0.35443 0.0
H1382 H 0.76008 0.12455 0.32494 0.0
C1383 C 0.72869 0.15454 0.36671 0.0
C1384 C 0.72239 0.15281 0.38078 0.0
C1385 C 0.72436 0.13941 0.38848 0.0
C1386 C 0.73262 0.12796 0.38236 0.0
C1387 C 0.7387 0.13004 0.36848 0.0
C1388 C 0.73671 0.14292 0.36067 0.0
C1389 C 0.7439 0.14208 0.3457 0.0
C1390 C 0.73247 0.14352 0.33336 0.0
C1391 C 0.75602 0.15373 0.34417 0.0
C1392 C 0.75023 0.12672 0.34631 0.0
C1393 C 0.74726 0.12002 0.35961 0.0
C1394 C 0.75212 0.10587 0.36281 0.0
C1395 C 0.76008 0.09827 0.35205 0.0
C1396 C 0.76294 0.10479 0.3382 0.0
C1397 C 0.75799 0.11924 0.33538 0.0
H1398 H 0.82142 0.72832 0.3642 0.0
H1399 H 0.84836 0.72504 0.40338 0.0
H1400 H 0.86759 0.73984 0.39127 0.0
H1401 H 0.85067 0.7242 0.33869 0.0
H1402 H 0.84314 0.73684 0.32544 0.0
H1403 H 0.83114 0.72682 0.33753 0.0
H1404 H 0.81981 0.75132 0.3466 0.0
H1405 H 0.83178 0.76142 0.33453 0.0
H1406 H 0.83158 0.76545 0.35394 0.0
H1407 H 0.88384 0.75496 0.37486 0.0
H1408 H 0.89669 0.7679 0.35475 0.0
H1409 H 0.85956 0.76012 0.32596 0.0
C1410 C 0.8313 0.73084 0.37029 0.0
C1411 C 0.83338 0.72563 0.38476 0.0
C1412 C 0.84656 0.72893 0.39228 0.0
C1413 C 0.85751 0.73737 0.38552 0.0
C1414 C 0.85514 0.74228 0.37121 0.0
C1415 C 0.84242 0.73904 0.36364 0.0
C1416 C 0.8429 0.74499 0.34811 0.0
C1417 C 0.84191 0.73247 0.33678 0.0
C1418 C 0.8308 0.75648 0.34566 0.0
C1419 C 0.85791 0.75202 0.34811 0.0
C1420 C 0.86472 0.7505 0.36159 0.0
C1421 C 0.87863 0.7562 0.36425 0.0
C1422 C 0.88582 0.76355 0.35278 0.0
C1423 C 0.87915 0.76495 0.33879 0.0
C1424 C 0.86499 0.75914 0.3365 0.0
H1425 H 0.22754 0.885 0.34427 0.0
H1426 H 0.2234 0.8567 0.306 0.0
H1427 H 0.23537 0.83662 0.31953 0.0
H1428 H 0.26338 0.87185 0.35518 0.0
H1429 H 0.25959 0.87296 0.37459 0.0
H1430 H 0.25053 0.88525 0.362 0.0
H1431 H 0.22532 0.87658 0.37178 0.0
H1432 H 0.2343 0.86424 0.38437 0.0
H1433 H 0.22091 0.85725 0.37159 0.0
H1434 H 0.24682 0.81944 0.33706 0.0
H1435 H 0.25875 0.80625 0.35735 0.0
H1436 H 0.25671 0.84564 0.38431 0.0
C1437 C 0.22916 0.87458 0.33875 0.0
C1438 C 0.2245 0.87242 0.32407 0.0
C1439 C 0.22692 0.85865 0.3172 0.0
C1440 C 0.23366 0.84715 0.32481 0.0
C1441 C 0.23807 0.84961 0.33924 0.0
C1442 C 0.23607 0.86298 0.34614 0.0
C1443 C 0.24213 0.86268 0.36167 0.0
C1444 C 0.25465 0.87385 0.36346 0.0
C1445 C 0.22994 0.86534 0.37302 0.0
C1446 C 0.24774 0.84701 0.3624 0.0
C1447 C 0.24516 0.83969 0.34934 0.0
C1448 C 0.24898 0.82504 0.34733 0.0
C1449 C 0.25571 0.81764 0.35896 0.0
C1450 C 0.25869 0.82491 0.37243 0.0
C1451 C 0.25466 0.83982 0.37413 0.0
H1452 H 0.16127 0.72874 0.62112 0.0
H1453 H 0.13633 0.72463 0.58072 0.0
H1454 H 0.11562 0.73774 0.59233 0.0
H1455 H 0.1315 0.72178 0.64513 0.0
H1456 H 0.13753 0.73453 0.65905 0.0
H1457 H 0.15072 0.72583 0.64721 0.0
H1458 H 0.16057 0.75137 0.6393 0.0
H1459 H 0.14743 0.76016 0.65116 0.0
H1460 H 0.14808 0.76481 0.63191 0.0
H1461 H 0.09755 0.7511 0.60856 0.0
H1462 H 0.08308 0.76248 0.62851 0.0
H1463 H 0.1196 0.7566 0.65848 0.0
C1464 C 0.15153 0.73077 0.61464 0.0
C1465 C 0.15044 0.72579 0.59998 0.0
C1466 C 0.1374 0.72839 0.59196 0.0
C1467 C 0.12561 0.73585 0.59845 0.0
C1468 C 0.12701 0.7405 0.61298 0.0
C1469 C 0.13961 0.73799 0.62099 0.0
C1470 C 0.13808 0.74338 0.63665 0.0
C1471 C 0.13954 0.73062 0.64765 0.0
C1472 C 0.1492 0.75566 0.63994 0.0
C1473 C 0.12262 0.74927 0.63622 0.0
C1474 C 0.11645 0.74767 0.62244 0.0
C1475 C 0.10226 0.75239 0.6194 0.0
C1476 C 0.09414 0.75886 0.63079 0.0
C1477 C 0.10018 0.76035 0.64506 0.0
C1478 C 0.11462 0.7555 0.64772 0.0
H1479 H 0.25563 0.16013 0.6191 0.0
H1480 H 0.26313 0.13063 0.58235 0.0
H1481 H 0.25092 0.11055 0.59603 0.0
H1482 H 0.26203 0.13302 0.64776 0.0
H1483 H 0.24812 0.14053 0.65963 0.0
H1484 H 0.25776 0.15236 0.64703 0.0
H1485 H 0.23305 0.16079 0.63584 0.0
H1486 H 0.22334 0.14897 0.64836 0.0
H1487 H 0.22046 0.1472 0.62884 0.0
H1488 H 0.23631 0.09427 0.61315 0.0
H1489 H 0.22193 0.08259 0.63303 0.0
H1490 H 0.22527 0.12259 0.65885 0.0
C1491 C 0.25477 0.14943 0.61393 0.0
C1492 C 0.26026 0.14694 0.59963 0.0
C1493 C 0.25902 0.13276 0.59331 0.0
C1494 C 0.25209 0.12131 0.60098 0.0
C1495 C 0.24666 0.1242 0.61501 0.0
C1496 C 0.24809 0.13787 0.62148 0.0
C1497 C 0.24133 0.13818 0.63666 0.0
C1498 C 0.25301 0.1412 0.64846 0.0
C1499 C 0.2288 0.14945 0.63746 0.0
C1500 C 0.23563 0.12261 0.63763 0.0
C1501 C 0.23875 0.11472 0.62503 0.0
C1502 C 0.23396 0.10029 0.62314 0.0
C1503 C 0.22576 0.09377 0.63446 0.0
C1504 C 0.2226 0.10165 0.64751 0.0
C1505 C 0.2277 0.11621 0.64909 0.0
H1506 H 0.84293 0.26141 0.60325 0.0
H1507 H 0.8033 0.26193 0.62968 0.0
H1508 H 0.81592 0.24811 0.64911 0.0
H1509 H 0.85396 0.22441 0.61336 0.0
H1510 H 0.87322 0.22872 0.61375 0.0
H1511 H 0.86115 0.23874 0.60172 0.0
H1512 H 0.86974 0.26325 0.61342 0.0
H1513 H 0.88182 0.2533 0.62549 0.0
H1514 H 0.86839 0.26569 0.63304 0.0
H1515 H 0.83272 0.23519 0.66607 0.0
H1516 H 0.8526 0.22251 0.67921 0.0
H1517 H 0.88136 0.22921 0.64177 0.0
C1518 C 0.83692 0.2586 0.61312 0.0
C1519 C 0.82211 0.26279 0.61492 0.0
C1520 C 0.81461 0.25882 0.62798 0.0
C1521 C 0.82169 0.25099 0.63913 0.0
C1522 C 0.83626 0.24708 0.63705 0.0
C1523 C 0.84379 0.25061 0.62436 0.0
C1524 C 0.85937 0.24484 0.62496 0.0
C1525 C 0.86208 0.2335 0.61272 0.0
C1526 C 0.87048 0.25753 0.62418 0.0
C1527 C 0.85938 0.23766 0.64001 0.0
C1528 C 0.84594 0.23917 0.64678 0.0
C1529 C 0.84328 0.23383 0.66087 0.0
C1530 C 0.85467 0.22669 0.66826 0.0
C1531 C 0.86853 0.22482 0.66151 0.0
C1532 C 0.87086 0.23036 0.64716 0.0
H1533 H 0.76133 0.85471 0.66232 0.0
H1534 H 0.77372 0.89179 0.63492 0.0
H1535 H 0.76103 0.88044 0.61385 0.0
H1536 H 0.76511 0.82656 0.63349 0.0
H1537 H 0.74964 0.81618 0.64011 0.0
H1538 H 0.76055 0.82678 0.65277 0.0
H1539 H 0.73725 0.84051 0.66146 0.0
H1540 H 0.72629 0.83005 0.64876 0.0
H1541 H 0.726 0.84986 0.64813 0.0
H1542 H 0.74495 0.86637 0.59653 0.0
H1543 H 0.72829 0.8494 0.58348 0.0
H1544 H 0.72731 0.82095 0.62178 0.0
C1545 C 0.76156 0.86036 0.65184 0.0
C1546 C 0.76851 0.87416 0.65029 0.0
C1547 C 0.76853 0.88118 0.63638 0.0
C1548 C 0.76132 0.87484 0.62434 0.0
C1549 C 0.75432 0.86139 0.62634 0.0
C1550 C 0.75456 0.85411 0.63967 0.0
C1551 C 0.7459 0.83993 0.63898 0.0
C1552 C 0.7559 0.82657 0.64148 0.0
C1553 C 0.7331 0.84011 0.64998 0.0
C1554 C 0.74047 0.84054 0.62327 0.0
C1555 C 0.74542 0.85303 0.61618 0.0
C1556 C 0.74117 0.85644 0.60188 0.0
C1557 C 0.73165 0.84678 0.59459 0.0
C1558 C 0.72661 0.83382 0.60159 0.0
C1559 C 0.73117 0.83066 0.61608 0.0
H1560 H 0.31848 0.12636 0.23006 0.0
H1561 H 0.34334 0.08599 0.22538 0.0
H1562 H 0.36338 0.09679 0.24019 0.0
H1563 H 0.34898 0.15048 0.2261 0.0
H1564 H 0.34219 0.16378 0.23911 0.0
H1565 H 0.32955 0.15251 0.22892 0.0
H1566 H 0.31797 0.14346 0.25332 0.0
H1567 H 0.3306 0.15468 0.26359 0.0
H1568 H 0.32946 0.13522 0.26715 0.0
H1569 H 0.38059 0.11208 0.25578 0.0
H1570 H 0.39451 0.13137 0.26897 0.0
H1571 H 0.35873 0.16196 0.26206 0.0
C1572 C 0.32808 0.11974 0.23226 0.0
C1573 C 0.32933 0.10531 0.22669 0.0
C1574 C 0.34218 0.09708 0.22956 0.0
C1575 C 0.35357 0.10309 0.23801 0.0
C1576 C 0.35198 0.11737 0.24334 0.0
C1577 C 0.33962 0.12563 0.24044 0.0
C1578 C 0.34091 0.14096 0.24673 0.0
C1579 C 0.34038 0.15262 0.23448 0.0
C1580 C 0.32903 0.14374 0.25839 0.0
C1581 C 0.35594 0.14007 0.25362 0.0
C1582 C 0.36209 0.12632 0.25173 0.0
C1583 C 0.3759 0.1229 0.25729 0.0
C1584 C 0.38369 0.13389 0.2648 0.0
C1585 C 0.37772 0.14816 0.26646 0.0
C1586 C 0.36363 0.15119 0.26087 0.0
H1587 H 0.8827 0.34363 0.22593 0.0
H1588 H 0.8531 0.30675 0.21954 0.0
H1589 H 0.8337 0.32014 0.23261 0.0
H1590 H 0.8705 0.35237 0.2626 0.0
H1591 H 0.87212 0.37199 0.26029 0.0
H1592 H 0.88378 0.35981 0.24996 0.0
H1593 H 0.87496 0.37173 0.22568 0.0
H1594 H 0.86328 0.38396 0.23593 0.0
H1595 H 0.85563 0.37248 0.22171 0.0
H1596 H 0.81751 0.33707 0.24594 0.0
H1597 H 0.80527 0.35659 0.25992 0.0
H1598 H 0.84515 0.38269 0.25888 0.0
C1599 C 0.8721 0.33843 0.22723 0.0
C1600 C 0.86942 0.32414 0.22169 0.0
C1601 C 0.85546 0.31764 0.22373 0.0
C1602 C 0.84433 0.32517 0.2311 0.0
C1603 C 0.84734 0.33916 0.23649 0.0
C1604 C 0.86085 0.34575 0.23476 0.0
C1605 C 0.86115 0.36078 0.24204 0.0
C1606 C 0.87257 0.36126 0.25446 0.0
C1607 C 0.86392 0.37296 0.23066 0.0
C1608 C 0.84568 0.36154 0.24809 0.0
C1609 C 0.83794 0.34895 0.24463 0.0
C1610 C 0.82343 0.34699 0.24876 0.0
C1611 C 0.81657 0.35819 0.25669 0.0
C1612 C 0.82423 0.37121 0.26053 0.0
C1613 C 0.83902 0.37286 0.25618 0.0
H1614 H 0.63316 0.88719 0.22412 0.0
H1615 H 0.67138 0.85895 0.22071 0.0
H1616 H 0.65859 0.83973 0.2346 0.0
H1617 H 0.62369 0.87654 0.26136 0.0
H1618 H 0.60421 0.87706 0.25823 0.0
H1619 H 0.61618 0.88881 0.24775 0.0
H1620 H 0.60566 0.8781 0.22357 0.0
H1621 H 0.59367 0.86631 0.23397 0.0
H1622 H 0.606 0.85851 0.22062 0.0
H1623 H 0.64202 0.82335 0.2481 0.0
H1624 H 0.62261 0.81075 0.26184 0.0
H1625 H 0.59485 0.84934 0.25784 0.0
C1626 C 0.63881 0.87695 0.22629 0.0
C1627 C 0.6533 0.87461 0.22128 0.0
C1628 C 0.66033 0.86108 0.22445 0.0
C1629 C 0.65314 0.85004 0.23231 0.0
C1630 C 0.63893 0.85268 0.23708 0.0
C1631 C 0.63181 0.86578 0.23433 0.0
C1632 C 0.61658 0.86568 0.24104 0.0
C1633 C 0.61508 0.87774 0.2528 0.0
C1634 C 0.60478 0.86724 0.22908 0.0
C1635 C 0.61631 0.85045 0.24789 0.0
C1636 C 0.62933 0.84318 0.24534 0.0
C1637 C 0.63178 0.82892 0.25023 0.0
C1638 C 0.62063 0.82184 0.258 0.0
C1639 C 0.60718 0.82903 0.26095 0.0
C1640 C 0.60503 0.84358 0.25583 0.0
H1641 H 0.10269 0.64544 0.22334 0.0
H1642 H 0.13203 0.68245 0.21672 0.0
H1643 H 0.15181 0.66895 0.22912 0.0
H1644 H 0.11559 0.63658 0.25957 0.0
H1645 H 0.11402 0.61696 0.25729 0.0
H1646 H 0.10213 0.62907 0.24715 0.0
H1647 H 0.11062 0.61723 0.2227 0.0
H1648 H 0.12247 0.60502 0.23277 0.0
H1649 H 0.12989 0.61651 0.21845 0.0
H1650 H 0.16833 0.65199 0.24206 0.0
H1651 H 0.1809 0.63234 0.25562 0.0
H1652 H 0.14102 0.60627 0.25528 0.0
C1653 C 0.11333 0.65059 0.22438 0.0
C1654 C 0.11585 0.66498 0.21903 0.0
C1655 C 0.12985 0.67147 0.22078 0.0
C1656 C 0.14117 0.66388 0.22777 0.0
C1657 C 0.13832 0.64985 0.23311 0.0
C1658 C 0.12478 0.64323 0.23158 0.0
C1659 C 0.12464 0.6282 0.23887 0.0
C1660 C 0.11343 0.62768 0.25147 0.0
C1661 C 0.12174 0.61602 0.22752 0.0
C1662 C 0.14022 0.62749 0.24468 0.0
C1663 C 0.14787 0.64009 0.2411 0.0
C1664 C 0.16247 0.64206 0.24497 0.0
C1665 C 0.16952 0.63081 0.25266 0.0
C1666 C 0.16195 0.61777 0.25655 0.0
C1667 C 0.14705 0.61616 0.25257 0.0
H1668 H 0.34416 0.88384 0.76067 0.0
H1669 H 0.30609 0.85526 0.76336 0.0
H1670 H 0.31969 0.83574 0.75066 0.0
H1671 H 0.35539 0.87208 0.72426 0.0
H1672 H 0.37469 0.87305 0.72829 0.0
H1673 H 0.36207 0.88496 0.73776 0.0
H1674 H 0.3716 0.8753 0.76278 0.0
H1675 H 0.38421 0.86332 0.75338 0.0
H1676 H 0.37136 0.85582 0.76642 0.0
H1677 H 0.33717 0.81909 0.73853 0.0
H1678 H 0.35733 0.80646 0.72594 0.0
H1679 H 0.38427 0.84568 0.72994 0.0
C1680 C 0.3387 0.87348 0.75857 0.0
C1681 C 0.32405 0.8711 0.76307 0.0
C1682 C 0.31727 0.85741 0.76002 0.0
C1683 C 0.32491 0.8462 0.75284 0.0
C1684 C 0.33931 0.84886 0.74864 0.0
C1685 C 0.34614 0.86216 0.75124 0.0
C1686 C 0.36167 0.86208 0.74527 0.0
C1687 C 0.36356 0.87373 0.73317 0.0
C1688 C 0.37287 0.86426 0.75771 0.0
C1689 C 0.36245 0.84663 0.73901 0.0
C1690 C 0.34943 0.83922 0.7412 0.0
C1691 C 0.34742 0.82477 0.73668 0.0
C1692 C 0.359 0.81767 0.72958 0.0
C1693 C 0.37243 0.82505 0.72693 0.0
C1694 C 0.37415 0.83975 0.73176 0.0
H1695 H 0.16577 0.35632 0.72599 0.0
H1696 H 0.13768 0.39444 0.72071 0.0
H1697 H 0.11849 0.38218 0.73537 0.0
H1698 H 0.13684 0.3293 0.72276 0.0
H1699 H 0.14479 0.31706 0.73613 0.0
H1700 H 0.1564 0.3289 0.72536 0.0
H1701 H 0.16756 0.33966 0.74925 0.0
H1702 H 0.15595 0.32789 0.7601 0.0
H1703 H 0.15562 0.3475 0.76296 0.0
H1704 H 0.10282 0.36629 0.75145 0.0
H1705 H 0.09082 0.34697 0.76621 0.0
H1706 H 0.12853 0.31862 0.75995 0.0
C1707 C 0.15558 0.36209 0.72792 0.0
C1708 C 0.15324 0.37637 0.72226 0.0
C1709 C 0.1397 0.38349 0.7249 0.0
C1710 C 0.12876 0.37664 0.73326 0.0
C1711 C 0.13145 0.36261 0.73874 0.0
C1712 C 0.14445 0.35533 0.73605 0.0
C1713 C 0.14441 0.34015 0.74293 0.0
C1714 C 0.14568 0.32815 0.73109 0.0
C1715 C 0.15661 0.33873 0.7545 0.0
C1716 C 0.1294 0.3401 0.75001 0.0
C1717 C 0.12217 0.35321 0.74757 0.0
C1718 C 0.10832 0.35593 0.75335 0.0
C1719 C 0.10163 0.34491 0.76177 0.0
C1720 C 0.10871 0.33127 0.76418 0.0
C1721 C 0.12279 0.32888 0.75819 0.0
H1722 H 0.61341 0.1588 0.73555 0.0
H1723 H 0.58009 0.13116 0.71555 0.0
H1724 H 0.59062 0.10948 0.72793 0.0
H1725 H 0.64281 0.13307 0.73242 0.0
H1726 H 0.65097 0.13795 0.74979 0.0
H1727 H 0.64062 0.1514 0.73965 0.0
H1728 H 0.62386 0.15558 0.76226 0.0
H1729 H 0.63419 0.14218 0.77249 0.0
H1730 H 0.61466 0.14011 0.77053 0.0
H1731 H 0.60486 0.0908 0.74224 0.0
H1732 H 0.62181 0.07636 0.75762 0.0
H1733 H 0.64597 0.11614 0.76812 0.0
C1734 C 0.60826 0.14821 0.73382 0.0
C1735 C 0.5959 0.1467 0.72458 0.0
C1736 C 0.58956 0.13261 0.72257 0.0
C1737 C 0.59545 0.12023 0.72955 0.0
C1738 C 0.60769 0.1221 0.7385 0.0
C1739 C 0.61402 0.13573 0.74066 0.0
C1740 C 0.62722 0.13472 0.75069 0.0
C1741 C 0.64123 0.13957 0.74265 0.0
C1742 C 0.62483 0.14368 0.76483 0.0
C1743 C 0.62733 0.11838 0.7538 0.0
C1744 C 0.61596 0.11131 0.74668 0.0
C1745 C 0.6138 0.09621 0.74788 0.0
C1746 C 0.62349 0.0881 0.75664 0.0
C1747 C 0.63522 0.09512 0.76406 0.0
C1748 C 0.63713 0.11046 0.76256 0.0
H1749 H 0.88194 0.64056 0.76306 0.0
H1750 H 0.85226 0.67665 0.77216 0.0
H1751 H 0.832 0.66277 0.76082 0.0
H1752 H 0.86768 0.63269 0.7277 0.0
H1753 H 0.86984 0.61304 0.72901 0.0
H1754 H 0.8818 0.62502 0.73922 0.0
H1755 H 0.87458 0.61186 0.76341 0.0
H1756 H 0.86263 0.59978 0.75326 0.0
H1757 H 0.85553 0.61042 0.76838 0.0
H1758 H 0.8153 0.64577 0.74791 0.0
H1759 H 0.80303 0.62697 0.73292 0.0
H1760 H 0.84354 0.60203 0.73073 0.0
C1761 C 0.8711 0.64537 0.76289 0.0
C1762 C 0.86859 0.65961 0.76858 0.0
C1763 C 0.85437 0.66575 0.76786 0.0
C1764 C 0.8428 0.65794 0.7615 0.0
C1765 C 0.84565 0.64405 0.75577 0.0
C1766 C 0.85943 0.63781 0.7563 0.0
C1767 C 0.85966 0.62314 0.74833 0.0
C1768 C 0.87038 0.6235 0.73529 0.0
C1769 C 0.86332 0.61056 0.75898 0.0
C1770 C 0.8439 0.62225 0.74313 0.0
C1771 C 0.83602 0.63435 0.74775 0.0
C1772 C 0.82132 0.6362 0.74425 0.0
C1773 C 0.81445 0.62543 0.73572 0.0
C1774 C 0.82231 0.613 0.73061 0.0
C1775 C 0.83724 0.6114 0.73445 0.0
H1776 H 0.22436 0.3284 0.12226 0.0
H1777 H 0.22175 0.35869 0.08548 0.0
H1778 H 0.23581 0.37709 0.0997 0.0
H1779 H 0.21962 0.35575 0.15049 0.0
H1780 H 0.23201 0.3469 0.16311 0.0
H1781 H 0.22202 0.33609 0.1499 0.0
H1782 H 0.24639 0.32528 0.14011 0.0
H1783 H 0.25647 0.33609 0.15327 0.0
H1784 H 0.26063 0.33756 0.13395 0.0
H1785 H 0.25099 0.39174 0.11765 0.0
H1786 H 0.26442 0.40239 0.13869 0.0
H1787 H 0.25583 0.36295 0.16413 0.0
C1788 C 0.22677 0.3389 0.11717 0.0
C1789 C 0.22206 0.3421 0.10273 0.0
C1790 C 0.22525 0.35602 0.09654 0.0
C1791 C 0.23326 0.36651 0.10451 0.0
C1792 C 0.23781 0.36295 0.11869 0.0
C1793 C 0.23453 0.34955 0.12503 0.0
C1794 C 0.24033 0.34858 0.14059 0.0
C1795 C 0.22774 0.34672 0.15168 0.0
C1796 C 0.25163 0.33614 0.14206 0.0
C1797 C 0.24747 0.36352 0.14201 0.0
C1798 C 0.24603 0.37159 0.12921 0.0
C1799 C 0.2521 0.38557 0.12776 0.0
C1800 C 0.25975 0.3915 0.13974 0.0
C1801 C 0.26109 0.38353 0.15306 0.0
C1802 C 0.25486 0.36936 0.15414 0.0
H1803 H 0.22089 0.64206 0.8844 0.0
H1804 H 0.20893 0.67415 0.85119 0.0
H1805 H 0.21984 0.65847 0.83202 0.0
H1806 H 0.2558 0.63368 0.86899 0.0
H1807 H 0.25525 0.61439 0.87352 0.0
H1808 H 0.2454 0.62744 0.88464 0.0
H1809 H 0.22141 0.61282 0.88045 0.0
H1810 H 0.23119 0.59972 0.8693 0.0
H1811 H 0.2154 0.60905 0.86195 0.0
H1812 H 0.23226 0.64004 0.8166 0.0
H1813 H 0.24713 0.62049 0.80562 0.0
H1814 H 0.25252 0.60038 0.84864 0.0
C1815 C 0.22043 0.64565 0.87306 0.0
C1816 C 0.21399 0.65927 0.86924 0.0
C1817 C 0.21383 0.66377 0.85435 0.0
C1818 C 0.21992 0.65492 0.84337 0.0
C1819 C 0.22629 0.64165 0.84748 0.0
C1820 C 0.22673 0.63703 0.86194 0.0
C1821 C 0.23515 0.62271 0.86337 0.0
C1822 C 0.2487 0.62468 0.87321 0.0
C1823 C 0.22519 0.61034 0.8691 0.0
C1824 C 0.23944 0.62011 0.84746 0.0
C1825 C 0.23402 0.63111 0.83852 0.0
C1826 C 0.23657 0.63134 0.82346 0.0
C1827 C 0.24505 0.62013 0.81733 0.0
C1828 C 0.25107 0.60885 0.82624 0.0
C1829 C 0.24809 0.60881 0.84152 0.0
H1830 H 0.38979 0.26289 0.84723 0.0
H1831 H 0.36117 0.25965 0.8092 0.0
H1832 H 0.34453 0.2436 0.82317 0.0
H1833 H 0.38555 0.22538 0.85899 0.0
H1834 H 0.38575 0.22973 0.87832 0.0
H1835 H 0.39542 0.24128 0.86549 0.0
H1836 H 0.38098 0.26397 0.87478 0.0
H1837 H 0.37131 0.2525 0.88767 0.0
H1838 H 0.36125 0.26355 0.8747 0.0
H1839 H 0.33092 0.22813 0.84099 0.0
H1840 H 0.32114 0.21381 0.86178 0.0
H1841 H 0.35867 0.22642 0.88827 0.0
C1842 C 0.37999 0.25886 0.84187 0.0
C1843 C 0.3768 0.26256 0.82711 0.0
C1844 C 0.3639 0.25696 0.82047 0.0
C1845 C 0.35435 0.24784 0.82831 0.0
C1846 C 0.35786 0.24435 0.84277 0.0
C1847 C 0.37036 0.24964 0.84951 0.0
C1848 C 0.37159 0.24399 0.86515 0.0
C1849 C 0.3854 0.23453 0.86709 0.0
C1850 C 0.37126 0.25676 0.87623 0.0
C1851 C 0.35781 0.23475 0.8661 0.0
C1852 C 0.35006 0.23516 0.85307 0.0
C1853 C 0.33689 0.22768 0.85126 0.0
C1854 C 0.33142 0.21959 0.86314 0.0
C1855 C 0.33916 0.21898 0.87662 0.0
C1856 C 0.35257 0.22661 0.87807 0.0
H1857 H 0.72641 0.3832 0.84878 0.0
H1858 H 0.71617 0.35358 0.81276 0.0
H1859 H 0.72769 0.33316 0.82616 0.0
H1860 H 0.76177 0.36821 0.85614 0.0
H1861 H 0.76064 0.37029 0.87581 0.0
H1862 H 0.75064 0.38257 0.86397 0.0
H1863 H 0.72651 0.37572 0.87729 0.0
H1864 H 0.73645 0.36343 0.88919 0.0
H1865 H 0.72117 0.35667 0.87862 0.0
H1866 H 0.74054 0.31615 0.84274 0.0
H1867 H 0.7551 0.30332 0.86143 0.0
H1868 H 0.75824 0.34373 0.88678 0.0
C1869 C 0.72645 0.37237 0.84384 0.0
C1870 C 0.72035 0.36995 0.82975 0.0
C1871 C 0.72082 0.35569 0.82351 0.0
C1872 C 0.72728 0.344 0.83106 0.0
C1873 C 0.73335 0.34674 0.84481 0.0
C1874 C 0.73309 0.36054 0.85116 0.0
C1875 C 0.74113 0.36051 0.86577 0.0
C1876 C 0.75433 0.37102 0.86539 0.0
C1877 C 0.73069 0.36431 0.87847 0.0
C1878 C 0.746 0.34457 0.86651 0.0
C1879 C 0.74122 0.33686 0.85434 0.0
C1880 C 0.74434 0.32203 0.85236 0.0
C1881 C 0.75263 0.31485 0.86307 0.0
C1882 C 0.75786 0.3225 0.87561 0.0
C1883 C 0.75443 0.33758 0.87733 0.0
H1884 H 0.59765 0.72338 0.84215 0.0
H1885 H 0.62189 0.73003 0.80156 0.0
H1886 H 0.64032 0.7444 0.81498 0.0
H1887 H 0.60527 0.76005 0.85761 0.0
H1888 H 0.60697 0.75322 0.87613 0.0
H1889 H 0.59506 0.74405 0.86325 0.0
H1890 H 0.60873 0.71954 0.86793 0.0
H1891 H 0.6207 0.72864 0.88076 0.0
H1892 H 0.62829 0.71877 0.86536 0.0
H1893 H 0.65723 0.75604 0.83273 0.0
H1894 H 0.67098 0.76586 0.85388 0.0
H1895 H 0.63563 0.75298 0.88308 0.0
C1896 C 0.60674 0.728 0.83606 0.0
C1897 C 0.60829 0.72552 0.82078 0.0
C1898 C 0.62039 0.73175 0.81325 0.0
C1899 C 0.63096 0.73995 0.82077 0.0
C1900 C 0.62923 0.742 0.83581 0.0
C1901 C 0.61738 0.73637 0.84339 0.0
C1902 C 0.61842 0.73999 0.85965 0.0
C1903 C 0.60567 0.74992 0.86444 0.0
C1904 C 0.61908 0.7259 0.86897 0.0
C1905 C 0.63286 0.74822 0.86 0.0
C1906 C 0.63889 0.74921 0.8461 0.0
C1907 C 0.65255 0.75553 0.84365 0.0
C1908 C 0.6603 0.761 0.85574 0.0
C1909 C 0.65432 0.76025 0.87007 0.0
C1910 C 0.64035 0.75389 0.87219 0.0
H1911 H 0.76181 0.66412 0.12377 0.0
H1912 H 0.76885 0.63633 0.08563 0.0
H1913 H 0.75433 0.61658 0.09737 0.0
H1914 H 0.765 0.63517 0.15065 0.0
H1915 H 0.75122 0.64289 0.16254 0.0
H1916 H 0.76201 0.65476 0.15098 0.0
H1917 H 0.73826 0.66544 0.13961 0.0
H1918 H 0.7274 0.65354 0.15107 0.0
H1919 H 0.72509 0.65316 0.1314 0.0
H1920 H 0.73803 0.60027 0.11303 0.0
H1921 H 0.72324 0.58795 0.13224 0.0
H1922 H 0.72813 0.6262 0.16035 0.0
C1923 C 0.76031 0.65388 0.11787 0.0
C1924 C 0.76639 0.65178 0.10376 0.0
C1925 C 0.76432 0.63816 0.09648 0.0
C1926 C 0.75604 0.62691 0.10302 0.0
C1927 C 0.75009 0.62941 0.11691 0.0
C1928 C 0.75229 0.6425 0.12431 0.0
C1929 C 0.74507 0.64234 0.13926 0.0
C1930 C 0.75651 0.64387 0.15158 0.0
C1931 C 0.73325 0.65433 0.14039 0.0
C1932 C 0.73835 0.62714 0.1391 0.0
C1933 C 0.74123 0.61988 0.12607 0.0
C1934 C 0.7358 0.60581 0.12331 0.0
C1935 C 0.72737 0.59893 0.13425 0.0
C1936 C 0.72462 0.60608 0.1478 0.0
C1937 C 0.73017 0.62039 0.15016 0.0
H1938 H 0.3508 0.74926 0.1064 0.0
H1939 H 0.31354 0.7573 0.13497 0.0
H1940 H 0.32641 0.74519 0.15538 0.0
H1941 H 0.35908 0.71324 0.12072 0.0
H1942 H 0.37864 0.71546 0.1193 0.0
H1943 H 0.36673 0.72514 0.10684 0.0
H1944 H 0.37853 0.74987 0.1146 0.0
H1945 H 0.39047 0.74026 0.12709 0.0
H1946 H 0.37894 0.75488 0.13378 0.0
H1947 H 0.34308 0.73274 0.17276 0.0
H1948 H 0.36239 0.71939 0.18605 0.0
H1949 H 0.38879 0.71835 0.14633 0.0
C1950 C 0.34539 0.74851 0.11697 0.0
C1951 C 0.33117 0.75425 0.11908 0.0
C1952 C 0.3244 0.75294 0.13305 0.0
C1953 C 0.33163 0.74612 0.14474 0.0
C1954 C 0.34559 0.74056 0.1423 0.0
C1955 C 0.35241 0.74156 0.12878 0.0
C1956 C 0.36734 0.73427 0.12913 0.0
C1957 C 0.36798 0.72125 0.11836 0.0
C1958 C 0.37954 0.74549 0.12596 0.0
C1959 C 0.3678 0.72909 0.14497 0.0
C1960 C 0.35516 0.73294 0.15235 0.0
C1961 C 0.35302 0.7296 0.16712 0.0
C1962 C 0.36409 0.72204 0.17457 0.0
C1963 C 0.3771 0.71778 0.16724 0.0
C1964 C 0.37894 0.72137 0.15221 0.0
H1965 H 0.66056 0.22962 0.12311 0.0
H1966 H 0.63302 0.22456 0.08455 0.0
H1967 H 0.61324 0.23828 0.09705 0.0
H1968 H 0.63195 0.22424 0.14946 0.0
H1969 H 0.63928 0.23738 0.16234 0.0
H1970 H 0.65138 0.22769 0.15009 0.0
H1971 H 0.66149 0.25253 0.14045 0.0
H1972 H 0.64939 0.2623 0.15265 0.0
H1973 H 0.64898 0.26602 0.13319 0.0
H1974 H 0.59672 0.25309 0.11368 0.0
H1975 H 0.58397 0.26603 0.13389 0.0
H1976 H 0.62203 0.26008 0.16183 0.0
C1977 C 0.6504 0.23147 0.11726 0.0
C1978 C 0.64833 0.22613 0.10283 0.0
C1979 C 0.6348 0.22856 0.09562 0.0
C1980 C 0.62355 0.23638 0.1026 0.0
C1981 C 0.62596 0.24153 0.11683 0.0
C1982 C 0.639 0.23903 0.12412 0.0
C1983 C 0.63865 0.24519 0.13956 0.0
C1984 C 0.64041 0.23289 0.15104 0.0
C1985 C 0.65032 0.25722 0.14157 0.0
C1986 C 0.62337 0.25157 0.13983 0.0
C1987 C 0.61628 0.24951 0.12657 0.0
C1988 C 0.60213 0.25471 0.12414 0.0
C1989 C 0.59501 0.26207 0.13565 0.0
C1990 C 0.60198 0.26397 0.14943 0.0
C1991 C 0.61636 0.25868 0.15146 0.0
H1992 H 0.88024 0.76155 0.63918 0.0
H1993 H 0.85041 0.77113 0.67506 0.0
H1994 H 0.83001 0.76047 0.66086 0.0
H1995 H 0.85435 0.76788 0.60883 0.0
H1996 H 0.86112 0.75266 0.59811 0.0
H1997 H 0.87323 0.76234 0.61042 0.0
H1998 H 0.87958 0.73782 0.62341 0.0
H1999 H 0.86747 0.72808 0.61119 0.0
H2000 H 0.86503 0.72663 0.6308 0.0
H2001 H 0.81316 0.74825 0.64357 0.0
H2002 H 0.80067 0.73374 0.62459 0.0
H2003 H 0.84134 0.73058 0.59997 0.0
C2004 C 0.86935 0.76161 0.64389 0.0
C2005 C 0.86683 0.76726 0.65815 0.0
C2006 C 0.85254 0.76686 0.66414 0.0
C2007 C 0.84088 0.76089 0.65615 0.0
C2008 C 0.84373 0.75523 0.64223 0.0
C2009 C 0.85758 0.75542 0.63614 0.0
C2010 C 0.85774 0.74759 0.62139 0.0
C2011 C 0.86185 0.75826 0.60895 0.0
C2012 C 0.86806 0.73424 0.62173 0.0
C2013 C 0.84184 0.74286 0.62027 0.0
C2014 C 0.83397 0.74759 0.63235 0.0
C2015 C 0.81916 0.7445 0.63403 0.0
C2016 C 0.81218 0.73623 0.62314 0.0
C2017 C 0.82 0.73097 0.61075 0.0
C2018 C 0.83505 0.73443 0.60929 0.0
H2019 H 0.22418 0.86098 0.66246 0.0
H2020 H 0.21501 0.89928 0.63551 0.0
H2021 H 0.22877 0.88814 0.61498 0.0
H2022 H 0.26068 0.85436 0.64925 0.0
H2023 H 0.25878 0.83464 0.6496 0.0
H2024 H 0.24846 0.8458 0.66225 0.0
H2025 H 0.22437 0.83392 0.65295 0.0
H2026 H 0.23461 0.82274 0.64026 0.0
H2027 H 0.2201 0.8344 0.6336 0.0
H2028 H 0.24405 0.87301 0.59755 0.0
H2029 H 0.25875 0.85447 0.5842 0.0
H2030 H 0.25684 0.82575 0.62227 0.0
C2031 C 0.22511 0.86706 0.65227 0.0
C2032 C 0.21857 0.88102 0.65061 0.0
C2033 C 0.21992 0.88855 0.63703 0.0
C2034 C 0.22773 0.88233 0.62531 0.0
C2035 C 0.23402 0.86854 0.62731 0.0
C2036 C 0.23271 0.86095 0.64041 0.0
C2037 C 0.24022 0.84615 0.63962 0.0
C2038 C 0.25278 0.84519 0.65084 0.0
C2039 C 0.22916 0.83356 0.64173 0.0
C2040 C 0.24596 0.84661 0.62403 0.0
C2041 C 0.24238 0.85965 0.61714 0.0
C2042 C 0.24685 0.86271 0.6028 0.0
C2043 C 0.25519 0.85214 0.59532 0.0
C2044 C 0.25882 0.83863 0.60215 0.0
C2045 C 0.25408 0.83589 0.61668 0.0
H2046 H 0.11561 0.23081 0.66326 0.0
H2047 H 0.07545 0.23194 0.63779 0.0
H2048 H 0.08783 0.24679 0.61877 0.0
H2049 H 0.12878 0.26766 0.65396 0.0
H2050 H 0.14761 0.26188 0.65269 0.0
H2051 H 0.13525 0.25251 0.66497 0.0
H2052 H 0.14145 0.22772 0.65239 0.0
H2053 H 0.15379 0.237 0.64007 0.0
H2054 H 0.13913 0.22589 0.63279 0.0
H2055 H 0.10459 0.26083 0.60231 0.0
H2056 H 0.12507 0.2719 0.58859 0.0
H2057 H 0.15477 0.26052 0.62411 0.0
C2058 C 0.10938 0.2344 0.65379 0.0
C2059 C 0.09455 0.23037 0.65201 0.0
C2060 C 0.08682 0.23495 0.63933 0.0
C2061 C 0.09373 0.24343 0.62852 0.0
C2062 C 0.10841 0.24708 0.63051 0.0
C2063 C 0.11618 0.24265 0.64276 0.0
C2064 C 0.13211 0.24717 0.6417 0.0
C2065 C 0.13617 0.25795 0.65407 0.0
C2066 C 0.14221 0.23364 0.64174 0.0
C2067 C 0.13208 0.2547 0.62686 0.0
C2068 C 0.11825 0.25471 0.62071 0.0
C2069 C 0.11547 0.26093 0.60701 0.0
C2070 C 0.12718 0.2672 0.59932 0.0
C2071 C 0.14153 0.26704 0.60526 0.0
C2072 C 0.14394 0.26077 0.61926 0.0
H2073 H 0.76265 0.12839 0.65799 0.0
H2074 H 0.7651 0.08814 0.63244 0.0
H2075 H 0.7522 0.10043 0.61194 0.0
H2076 H 0.72714 0.13922 0.64671 0.0
H2077 H 0.73143 0.15855 0.64605 0.0
H2078 H 0.7412 0.14667 0.65846 0.0
H2079 H 0.76583 0.15505 0.64704 0.0
H2080 H 0.75614 0.16697 0.63459 0.0
H2081 H 0.7686 0.15335 0.62749 0.0
H2082 H 0.73778 0.11682 0.59482 0.0
H2083 H 0.72392 0.13633 0.58201 0.0
H2084 H 0.73191 0.16594 0.61859 0.0
C2085 C 0.76052 0.12215 0.64808 0.0
C2086 C 0.76483 0.10729 0.64683 0.0
C2087 C 0.76192 0.09955 0.63363 0.0
C2088 C 0.75459 0.10642 0.62194 0.0
C2089 C 0.75042 0.12107 0.62359 0.0
C2090 C 0.75339 0.12886 0.63629 0.0
C2091 C 0.74769 0.14444 0.63536 0.0
C2092 C 0.73618 0.14738 0.64735 0.0
C2093 C 0.76032 0.15561 0.63616 0.0
C2094 C 0.74085 0.14416 0.62023 0.0
C2095 C 0.7425 0.13058 0.61361 0.0
C2096 C 0.73654 0.12754 0.59984 0.0
C2097 C 0.72867 0.13867 0.59267 0.0
C2098 C 0.72692 0.15268 0.59926 0.0
C2099 C 0.73321 0.15542 0.61318 0.0
H2100 H 0.85768 0.22333 0.32772 0.0
H2101 H 0.89606 0.21687 0.35516 0.0
H2102 H 0.88399 0.23024 0.37535 0.0
H2103 H 0.84905 0.2596 0.33998 0.0
H2104 H 0.82952 0.25679 0.3397 0.0
H2105 H 0.84108 0.24654 0.32738 0.0
H2106 H 0.83041 0.22213 0.33744 0.0
H2107 H 0.81879 0.2323 0.34979 0.0
H2108 H 0.83104 0.21851 0.35692 0.0
H2109 H 0.86837 0.24527 0.39213 0.0
H2110 H 0.84952 0.25987 0.40496 0.0
H2111 H 0.82084 0.25566 0.36711 0.0
C2112 C 0.86353 0.22471 0.33798 0.0
C2113 C 0.87783 0.21908 0.33984 0.0
C2114 C 0.88508 0.22104 0.35348 0.0
C2115 C 0.87834 0.22865 0.36502 0.0
C2116 C 0.86428 0.2341 0.36281 0.0
C2117 C 0.85689 0.23213 0.34969 0.0
C2118 C 0.84181 0.23902 0.35026 0.0
C2119 C 0.84028 0.25121 0.33864 0.0
C2120 C 0.82981 0.22729 0.3485 0.0
C2121 C 0.84197 0.2453 0.36567 0.0
C2122 C 0.85507 0.2424 0.37269 0.0
C2123 C 0.85801 0.24752 0.38681 0.0
C2124 C 0.84726 0.25583 0.39398 0.0
C2125 C 0.83369 0.25882 0.38707 0.0
C2126 C 0.83104 0.2534 0.37275 0.0
H2127 H 0.75578 0.88494 0.34091 0.0
H2128 H 0.75656 0.85728 0.30196 0.0
H2129 H 0.74415 0.83761 0.31561 0.0
H2130 H 0.76197 0.85613 0.36739 0.0
H2131 H 0.74956 0.86351 0.38091 0.0
H2132 H 0.75868 0.87566 0.36822 0.0
H2133 H 0.73363 0.88594 0.35975 0.0
H2134 H 0.72443 0.87386 0.37245 0.0
H2135 H 0.71975 0.87344 0.3532 0.0
H2136 H 0.73249 0.82068 0.33318 0.0
H2137 H 0.72051 0.8077 0.35357 0.0
H2138 H 0.72598 0.84619 0.38137 0.0
C2139 C 0.75332 0.87475 0.33528 0.0
C2140 C 0.75718 0.87268 0.32035 0.0
C2141 C 0.75369 0.8592 0.31335 0.0
C2142 C 0.74667 0.8479 0.32102 0.0
C2143 C 0.74308 0.85025 0.33568 0.0
C2144 C 0.74612 0.86334 0.34276 0.0
C2145 C 0.74071 0.86296 0.35854 0.0
C2146 C 0.7535 0.86466 0.3694 0.0
C2147 C 0.72893 0.87475 0.36113 0.0
C2148 C 0.73424 0.84759 0.35917 0.0
C2149 C 0.73586 0.84048 0.34586 0.0
C2150 C 0.73107 0.82613 0.34366 0.0
C2151 C 0.72432 0.81884 0.35536 0.0
C2152 C 0.72226 0.82591 0.36909 0.0
C2153 C 0.72732 0.84051 0.37099 0.0
H2154 H 0.16154 0.7253 0.36095 0.0
H2155 H 0.13353 0.71511 0.39813 0.0
H2156 H 0.11365 0.72981 0.38702 0.0
H2157 H 0.14986 0.7622 0.35557 0.0
H2158 H 0.15047 0.76127 0.33578 0.0
H2159 H 0.16244 0.74985 0.34659 0.0
H2160 H 0.15241 0.72661 0.3335 0.0
H2161 H 0.1405 0.73797 0.32257 0.0
H2162 H 0.13297 0.72317 0.33338 0.0
H2163 H 0.09735 0.74682 0.37243 0.0
H2164 H 0.08495 0.76274 0.35425 0.0
H2165 H 0.1233 0.76064 0.32615 0.0
C2166 C 0.15121 0.72611 0.36673 0.0
C2167 C 0.14909 0.71912 0.38043 0.0
C2168 C 0.13537 0.72033 0.38759 0.0
C2169 C 0.12404 0.72871 0.38141 0.0
C2170 C 0.12657 0.73563 0.36798 0.0
C2171 C 0.13974 0.73423 0.36063 0.0
C2172 C 0.13957 0.74251 0.3462 0.0
C2173 C 0.15128 0.75468 0.34604 0.0
C2174 C 0.14147 0.73193 0.33314 0.0
C2175 C 0.1243 0.7489 0.34664 0.0
C2176 C 0.11701 0.74493 0.35935 0.0
C2177 C 0.1029 0.74989 0.36238 0.0
C2178 C 0.09598 0.75898 0.35203 0.0
C2179 C 0.10313 0.76285 0.33877 0.0
C2180 C 0.1175 0.75775 0.33613 0.0
H2181 H 0.22514 0.10324 0.34956 0.0
H2182 H 0.21612 0.13001 0.31105 0.0
H2183 H 0.22946 0.15065 0.32221 0.0
H2184 H 0.22159 0.13223 0.37638 0.0
H2185 H 0.23645 0.12582 0.38773 0.0
H2186 H 0.2261 0.11294 0.37684 0.0
H2187 H 0.25003 0.10392 0.36451 0.0
H2188 H 0.26045 0.11679 0.37535 0.0
H2189 H 0.26187 0.11704 0.35559 0.0
H2190 H 0.24302 0.16856 0.33737 0.0
H2191 H 0.25696 0.18277 0.35563 0.0
H2192 H 0.25829 0.14462 0.38433 0.0
C2193 C 0.22595 0.11345 0.34351 0.0
C2194 C 0.21955 0.11497 0.32942 0.0
C2195 C 0.22095 0.12851 0.32182 0.0
C2196 C 0.22849 0.14034 0.32807 0.0
C2197 C 0.2347 0.13849 0.3419 0.0
C2198 C 0.23361 0.12541 0.34954 0.0
C2199 C 0.24149 0.12643 0.36421 0.0
C2200 C 0.23077 0.12423 0.37705 0.0
C2201 C 0.25421 0.11539 0.36495 0.0
C2202 C 0.24707 0.14214 0.36359 0.0
C2203 C 0.24293 0.14886 0.35062 0.0
C2204 C 0.2464 0.16343 0.34755 0.0
C2205 C 0.25429 0.17142 0.35803 0.0
C2206 C 0.25876 0.16482 0.3714 0.0
C2207 C 0.25515 0.14993 0.37415 0.0
H2208 H 0.62799 0.88162 0.7678 0.0
H2209 H 0.66083 0.85134 0.7843 0.0
H2210 H 0.6492 0.83111 0.77049 0.0
H2211 H 0.5972 0.85577 0.76787 0.0
H2212 H 0.58966 0.86294 0.75102 0.0
H2213 H 0.5999 0.87482 0.76309 0.0
H2214 H 0.61729 0.88154 0.7416 0.0
H2215 H 0.60716 0.86962 0.72949 0.0
H2216 H 0.6266 0.86708 0.73179 0.0
H2217 H 0.63482 0.81449 0.75412 0.0
H2218 H 0.61862 0.80241 0.73617 0.0
H2219 H 0.59531 0.84355 0.72978 0.0
C2220 C 0.63258 0.87068 0.7687 0.0
C2221 C 0.64526 0.86802 0.77719 0.0
C2222 C 0.6511 0.85362 0.77788 0.0
C2223 C 0.64457 0.84205 0.7701 0.0
C2224 C 0.63223 0.84509 0.76164 0.0
C2225 C 0.62626 0.85903 0.76089 0.0
C2226 C 0.61337 0.85945 0.75042 0.0
C2227 C 0.59919 0.86348 0.75859 0.0
C2228 C 0.61629 0.87005 0.73756 0.0
C2229 C 0.61312 0.84361 0.74529 0.0
C2230 C 0.62404 0.83551 0.75198 0.0
C2231 C 0.62618 0.82069 0.74886 0.0
C2232 C 0.61691 0.81394 0.73861 0.0
C2233 C 0.60566 0.82201 0.73153 0.0
C2234 C 0.60378 0.83705 0.73499 0.0
H2235 H 0.16015 0.61787 0.73235 0.0
H2236 H 0.13367 0.57841 0.72854 0.0
H2237 H 0.11415 0.59026 0.74321 0.0
H2238 H 0.14948 0.628 0.76938 0.0
H2239 H 0.14914 0.6474 0.76535 0.0
H2240 H 0.16135 0.63545 0.75541 0.0
H2241 H 0.15022 0.64436 0.73075 0.0
H2242 H 0.138 0.65634 0.74061 0.0
H2243 H 0.13074 0.643 0.72789 0.0
H2244 H 0.09752 0.60656 0.75821 0.0
H2245 H 0.08422 0.62666 0.77068 0.0
H2246 H 0.12123 0.65575 0.76343 0.0
C2247 C 0.15031 0.61166 0.73474 0.0
C2248 C 0.14845 0.59718 0.72943 0.0
C2249 C 0.13531 0.58952 0.73253 0.0
C2250 C 0.1242 0.59612 0.74089 0.0
C2251 C 0.12638 0.61044 0.74593 0.0
C2252 C 0.13906 0.61815 0.74285 0.0
C2253 C 0.13835 0.63368 0.74878 0.0
C2254 C 0.15029 0.63628 0.76042 0.0
C2255 C 0.13938 0.64501 0.73626 0.0
C2256 C 0.12327 0.63353 0.75562 0.0
C2257 C 0.11661 0.61998 0.75404 0.0
C2258 C 0.10262 0.61722 0.7595 0.0
C2259 C 0.09517 0.62869 0.7666 0.0
C2260 C 0.10167 0.64278 0.76798 0.0
C2261 C 0.11594 0.64513 0.76249 0.0
H2262 H 0.32165 0.12563 0.75307 0.0
H2263 H 0.34936 0.08693 0.75504 0.0
H2264 H 0.36822 0.09988 0.74042 0.0
H2265 H 0.33112 0.13706 0.71619 0.0
H2266 H 0.33091 0.15635 0.72075 0.0
H2267 H 0.31935 0.14371 0.73064 0.0
H2268 H 0.33077 0.15239 0.75526 0.0
H2269 H 0.34237 0.16504 0.74545 0.0
H2270 H 0.35035 0.15163 0.75764 0.0
H2271 H 0.38405 0.11724 0.72556 0.0
H2272 H 0.39617 0.13805 0.71296 0.0
H2273 H 0.35836 0.16552 0.72192 0.0
C2274 C 0.33161 0.1198 0.7503 0.0
C2275 C 0.334 0.10524 0.75508 0.0
C2276 C 0.3473 0.0981 0.75146 0.0
C2277 C 0.35805 0.10534 0.74313 0.0
C2278 C 0.35536 0.11974 0.73865 0.0
C2279 C 0.3425 0.12692 0.7422 0.0
C2280 C 0.34255 0.1426 0.73668 0.0
C2281 C 0.33025 0.14507 0.7254 0.0
C2282 C 0.34145 0.15356 0.74953 0.0
C2283 C 0.35746 0.14316 0.7295 0.0
C2284 C 0.36463 0.12984 0.7306 0.0
C2285 C 0.37854 0.12773 0.72466 0.0
C2286 C 0.38532 0.13959 0.71751 0.0
C2287 C 0.37824 0.15341 0.71653 0.0
C2288 C 0.36411 0.15513 0.72258 0.0
H2289 H 0.86595 0.32534 0.7612 0.0
H2290 H 0.90488 0.35244 0.76536 0.0
H2291 H 0.89262 0.37229 0.75152 0.0
H2292 H 0.85567 0.33679 0.72465 0.0
H2293 H 0.83633 0.33676 0.7286 0.0
H2294 H 0.84836 0.32449 0.73836 0.0
H2295 H 0.83921 0.33506 0.76317 0.0
H2296 H 0.82715 0.34736 0.7535 0.0
H2297 H 0.84027 0.35458 0.76643 0.0
H2298 H 0.87627 0.38901 0.73698 0.0
H2299 H 0.85641 0.40208 0.72405 0.0
H2300 H 0.82778 0.36448 0.73043 0.0
C2301 C 0.87193 0.33541 0.75911 0.0
C2302 C 0.88639 0.33733 0.76427 0.0
C2303 C 0.89378 0.35075 0.76151 0.0
C2304 C 0.88694 0.36206 0.75362 0.0
C2305 C 0.87267 0.35981 0.74872 0.0
C2306 C 0.8652 0.34688 0.75144 0.0
C2307 C 0.84975 0.34748 0.74544 0.0
C2308 C 0.8474 0.33568 0.73356 0.0
C2309 C 0.83843 0.34604 0.75788 0.0
C2310 C 0.84971 0.36277 0.7389 0.0
C2311 C 0.86307 0.36965 0.74079 0.0
C2312 C 0.86574 0.38376 0.73548 0.0
C2313 C 0.8544 0.39108 0.72812 0.0
C2314 C 0.84053 0.38432 0.72629 0.0
C2315 C 0.83822 0.36997 0.73176 0.0
H2316 H 0.65787 0.12242 0.23018 0.0
H2317 H 0.63126 0.08318 0.22525 0.0
H2318 H 0.61152 0.0949 0.2397 0.0
H2319 H 0.64687 0.13177 0.26702 0.0
H2320 H 0.64663 0.15127 0.26351 0.0
H2321 H 0.65885 0.13954 0.25332 0.0
H2322 H 0.6479 0.14913 0.22884 0.0
H2323 H 0.63569 0.16091 0.23895 0.0
H2324 H 0.62842 0.14796 0.22584 0.0
H2325 H 0.59491 0.11085 0.25517 0.0
H2326 H 0.58181 0.1306 0.26846 0.0
H2327 H 0.6189 0.15972 0.26188 0.0
C2328 C 0.64792 0.11626 0.23221 0.0
C2329 C 0.64611 0.10187 0.2267 0.0
C2330 C 0.63285 0.09424 0.22937 0.0
C2331 C 0.62162 0.10077 0.23762 0.0
C2332 C 0.62378 0.11498 0.24293 0.0
C2333 C 0.63653 0.12269 0.24018 0.0
C2334 C 0.63588 0.13805 0.24652 0.0
C2335 C 0.64777 0.14028 0.25829 0.0
C2336 C 0.63704 0.1497 0.23431 0.0
C2337 C 0.62076 0.13779 0.25327 0.0
C2338 C 0.61401 0.12434 0.25126 0.0
C2339 C 0.60005 0.12145 0.25675 0.0
C2340 C 0.59273 0.13271 0.26432 0.0
C2341 C 0.59932 0.1467 0.26611 0.0
C2342 C 0.61354 0.14918 0.26056 0.0
H2343 H 0.86607 0.65949 0.22338 0.0
H2344 H 0.90381 0.63139 0.21635 0.0
H2345 H 0.89101 0.61101 0.22899 0.0
H2346 H 0.85681 0.6468 0.25893 0.0
H2347 H 0.83732 0.64766 0.25599 0.0
H2348 H 0.8493 0.65984 0.24606 0.0
H2349 H 0.83859 0.65049 0.22136 0.0
H2350 H 0.82652 0.63833 0.23123 0.0
H2351 H 0.83867 0.63107 0.21742 0.0
H2352 H 0.87465 0.59431 0.24396 0.0
H2353 H 0.8552 0.58193 0.2583 0.0
H2354 H 0.82788 0.62073 0.25426 0.0
C2355 C 0.87163 0.64903 0.22444 0.0
C2356 C 0.88595 0.64702 0.21896 0.0
C2357 C 0.89281 0.63314 0.22043 0.0
C2358 C 0.88565 0.62152 0.22763 0.0
C2359 C 0.87159 0.62394 0.23306 0.0
C2360 C 0.86459 0.6373 0.23137 0.0
C2361 C 0.84946 0.63707 0.23812 0.0
C2362 C 0.84816 0.64852 0.25051 0.0
C2363 C 0.83761 0.63937 0.22633 0.0
C2364 C 0.84912 0.62158 0.24412 0.0
C2365 C 0.862 0.61419 0.24117 0.0
C2366 C 0.86444 0.59992 0.24619 0.0
C2367 C 0.85338 0.59301 0.25437 0.0
C2368 C 0.84001 0.60033 0.25729 0.0
C2369 C 0.8379 0.61478 0.25204 0.0
H2370 H 0.3319 0.86864 0.21468 0.0
H2371 H 0.3573 0.90818 0.22293 0.0
H2372 H 0.37392 0.8941 0.23893 0.0
H2373 H 0.335 0.8534 0.2512 0.0
H2374 H 0.33666 0.83468 0.24491 0.0
H2375 H 0.32658 0.84786 0.23415 0.0
H2376 H 0.34295 0.84215 0.21159 0.0
H2377 H 0.3531 0.82898 0.22229 0.0
H2378 H 0.36256 0.84382 0.21322 0.0
H2379 H 0.3877 0.87605 0.25399 0.0
H2380 H 0.39812 0.8549 0.26718 0.0
H2381 H 0.36416 0.82672 0.24907 0.0
C2382 C 0.34093 0.87433 0.21989 0.0
C2383 C 0.34329 0.88951 0.21757 0.0
C2384 C 0.35528 0.89655 0.22453 0.0
C2385 C 0.36478 0.88866 0.23365 0.0
C2386 C 0.36219 0.87372 0.23567 0.0
C2387 C 0.35059 0.86658 0.22901 0.0
C2388 C 0.35041 0.85039 0.23296 0.0
C2389 C 0.33633 0.84635 0.2413 0.0
C2390 C 0.35238 0.84077 0.2192 0.0
C2391 C 0.36371 0.84958 0.2429 0.0
C2392 C 0.37029 0.86319 0.24432 0.0
C2393 C 0.38267 0.86532 0.25297 0.0
C2394 C 0.38849 0.85321 0.26044 0.0
C2395 C 0.38198 0.83911 0.25917 0.0
C2396 C 0.36943 0.83732 0.25024 0.0
H2397 H 0.15651 0.36711 0.26026 0.0
H2398 H 0.12739 0.40466 0.26374 0.0
H2399 H 0.10834 0.39098 0.25017 0.0
H2400 H 0.14591 0.35582 0.22393 0.0
H2401 H 0.14703 0.33646 0.228 0.0
H2402 H 0.15845 0.34931 0.23778 0.0
H2403 H 0.14826 0.33964 0.26256 0.0
H2404 H 0.13678 0.32678 0.25285 0.0
H2405 H 0.12876 0.33958 0.26565 0.0
H2406 H 0.09268 0.37342 0.2358 0.0
H2407 H 0.08113 0.35285 0.2224 0.0
H2408 H 0.12013 0.32644 0.22919 0.0
C2409 C 0.14616 0.37249 0.25811 0.0
C2410 C 0.14346 0.38698 0.263 0.0
C2411 C 0.1297 0.39356 0.26011 0.0
C2412 C 0.11882 0.38589 0.25239 0.0
C2413 C 0.12183 0.37161 0.24777 0.0
C2414 C 0.13512 0.36494 0.25058 0.0
C2415 C 0.13546 0.34938 0.24467 0.0
C2416 C 0.14742 0.34765 0.23289 0.0
C2417 C 0.13743 0.33818 0.25718 0.0
C2418 C 0.1203 0.34838 0.23801 0.0
C2419 C 0.11265 0.36135 0.23985 0.0
C2420 C 0.09854 0.36318 0.23434 0.0
C2421 C 0.09208 0.35145 0.22673 0.0
C2422 C 0.09969 0.33802 0.2248 0.0
C2423 C 0.11397 0.33651 0.23059 0.0
H2424 H 0.76573 0.65821 0.8612 0.0
H2425 H 0.77599 0.6299 0.89819 0.0
H2426 H 0.76344 0.60922 0.88581 0.0
H2427 H 0.73046 0.64465 0.85416 0.0
H2428 H 0.73189 0.64574 0.83443 0.0
H2429 H 0.7424 0.65805 0.84579 0.0
H2430 H 0.76632 0.64937 0.83317 0.0
H2431 H 0.75588 0.6371 0.82168 0.0
H2432 H 0.77065 0.63004 0.83275 0.0
H2433 H 0.74765 0.59241 0.87045 0.0
H2434 H 0.73182 0.58004 0.85216 0.0
H2435 H 0.73319 0.61902 0.82471 0.0
C2436 C 0.76548 0.64762 0.86663 0.0
C2437 C 0.77179 0.64566 0.88067 0.0
C2438 C 0.77129 0.63162 0.8874 0.0
C2439 C 0.76415 0.61983 0.88048 0.0
C2440 C 0.7578 0.62222 0.86675 0.0
C2441 C 0.75862 0.63571 0.8598 0.0
C2442 C 0.75078 0.63547 0.84515 0.0
C2443 C 0.73813 0.64664 0.84488 0.0
C2444 C 0.76155 0.63815 0.83244 0.0
C2445 C 0.74513 0.61983 0.84508 0.0
C2446 C 0.74923 0.61238 0.85766 0.0
C2447 C 0.74456 0.59806 0.86045 0.0
C2448 C 0.73553 0.59115 0.85005 0.0
C2449 C 0.73141 0.59853 0.83698 0.0
C2450 C 0.73636 0.61303 0.83449 0.0
H2451 H 0.75748 0.33115 0.12709 0.0
H2452 H 0.76104 0.35921 0.08866 0.0
H2453 H 0.74671 0.37842 0.1014 0.0
H2454 H 0.72101 0.34075 0.13708 0.0
H2455 H 0.72454 0.34047 0.15658 0.0
H2456 H 0.7351 0.32899 0.14445 0.0
H2457 H 0.75909 0.34058 0.15435 0.0
H2458 H 0.74861 0.35204 0.16658 0.0
H2459 H 0.76135 0.36027 0.15388 0.0
H2460 H 0.73092 0.39404 0.118 0.0
H2461 H 0.71673 0.40576 0.13799 0.0
H2462 H 0.72468 0.36782 0.1658 0.0
C2463 C 0.75528 0.34134 0.12136 0.0
C2464 C 0.76031 0.34367 0.10687 0.0
C2465 C 0.75732 0.35722 0.09979 0.0
C2466 C 0.74914 0.36816 0.1069 0.0
C2467 C 0.74422 0.36544 0.12114 0.0
C2468 C 0.74733 0.35244 0.12835 0.0
C2469 C 0.74103 0.35234 0.14373 0.0
C2470 C 0.72975 0.3399 0.14556 0.0
C2471 C 0.75325 0.35125 0.15532 0.0
C2472 C 0.73377 0.36727 0.14401 0.0
C2473 C 0.73561 0.37462 0.13085 0.0
C2474 C 0.7295 0.38844 0.1284 0.0
C2475 C 0.72142 0.39497 0.13978 0.0
C2476 C 0.71969 0.38773 0.15346 0.0
C2477 C 0.72594 0.37369 0.15552 0.0
H2478 H 0.63601 0.75592 0.1007 0.0
H2479 H 0.67283 0.76499 0.12956 0.0
H2480 H 0.65928 0.75438 0.15036 0.0
H2481 H 0.60739 0.76359 0.12691 0.0
H2482 H 0.59574 0.74874 0.12094 0.0
H2483 H 0.60813 0.7573 0.10812 0.0
H2484 H 0.61968 0.73196 0.10229 0.0
H2485 H 0.60727 0.72332 0.11503 0.0
H2486 H 0.62675 0.72087 0.1171 0.0
H2487 H 0.64191 0.74361 0.16811 0.0
H2488 H 0.62227 0.73118 0.18173 0.0
H2489 H 0.5967 0.72775 0.14157 0.0
C2490 C 0.64119 0.75567 0.1114 0.0
C2491 C 0.65548 0.76132 0.11349 0.0
C2492 C 0.66194 0.76068 0.12764 0.0
C2493 C 0.65431 0.75473 0.13957 0.0
C2494 C 0.64026 0.74933 0.13716 0.0
C2495 C 0.63378 0.74955 0.12344 0.0
C2496 C 0.6187 0.74254 0.12391 0.0
C2497 C 0.60679 0.75371 0.11972 0.0
C2498 C 0.61807 0.72886 0.11399 0.0
C2499 C 0.61776 0.73841 0.14004 0.0
C2500 C 0.63029 0.74259 0.14745 0.0
C2501 C 0.63205 0.74021 0.16244 0.0
C2502 C 0.62077 0.73317 0.17009 0.0
C2503 C 0.60791 0.72844 0.16274 0.0
C2504 C 0.6064 0.73118 0.1475 0.0
H2505 H 0.26102 0.62399 0.15656 0.0
H2506 H 0.26565 0.5857 0.12848 0.0
H2507 H 0.24998 0.59758 0.10974 0.0
H2508 H 0.2239 0.63187 0.14846 0.0
H2509 H 0.22626 0.65154 0.1485 0.0
H2510 H 0.23802 0.64015 0.15956 0.0
H2511 H 0.2609 0.65132 0.1469 0.0
H2512 H 0.24921 0.66289 0.13593 0.0
H2513 H 0.26227 0.65093 0.12713 0.0
H2514 H 0.23244 0.61315 0.09483 0.0
H2515 H 0.21698 0.63238 0.08352 0.0
H2516 H 0.22501 0.66081 0.12099 0.0
C2517 C 0.25883 0.61814 0.14642 0.0
C2518 C 0.2645 0.6039 0.14397 0.0
C2519 C 0.26148 0.59665 0.13053 0.0
C2520 C 0.25252 0.60327 0.11988 0.0
C2521 C 0.24686 0.6172 0.12278 0.0
C2522 C 0.25012 0.62465 0.13562 0.0
C2523 C 0.24295 0.63963 0.13598 0.0
C2524 C 0.23214 0.64086 0.14889 0.0
C2525 C 0.25452 0.65191 0.13651 0.0
C2526 C 0.23502 0.63942 0.12139 0.0
C2527 C 0.23726 0.62633 0.114 0.0
C2528 C 0.23071 0.62348 0.10046 0.0
C2529 C 0.22187 0.63443 0.09417 0.0
C2530 C 0.21985 0.6481 0.10136 0.0
C2531 C 0.22644 0.65051 0.11519 0.0
H2532 H 0.32099 0.23357 0.12064 0.0
H2533 H 0.34887 0.23023 0.08216 0.0
H2534 H 0.36855 0.2434 0.09545 0.0
H2535 H 0.3326 0.26943 0.13269 0.0
H2536 H 0.33204 0.26469 0.15192 0.0
H2537 H 0.31999 0.2556 0.13914 0.0
H2538 H 0.32995 0.23028 0.14755 0.0
H2539 H 0.34201 0.23929 0.16037 0.0
H2540 H 0.34937 0.22681 0.14687 0.0
H2541 H 0.38493 0.25741 0.11287 0.0
H2542 H 0.39758 0.26928 0.13377 0.0
H2543 H 0.35938 0.26196 0.16118 0.0
C2544 C 0.33119 0.23571 0.11497 0.0
C2545 C 0.33339 0.23102 0.10034 0.0
C2546 C 0.34699 0.23376 0.09337 0.0
C2547 C 0.35819 0.24127 0.10081 0.0
C2548 C 0.35565 0.24576 0.11523 0.0
C2549 C 0.34255 0.24293 0.12229 0.0
C2550 C 0.34282 0.24827 0.13804 0.0
C2551 C 0.33117 0.26021 0.14059 0.0
C2552 C 0.34093 0.23539 0.14884 0.0
C2553 C 0.35811 0.25459 0.13875 0.0
C2554 C 0.36528 0.2532 0.12544 0.0
C2555 C 0.37945 0.25849 0.12337 0.0
C2556 C 0.38652 0.26526 0.13527 0.0
C2557 C 0.37948 0.26646 0.1491 0.0
C2558 C 0.36508 0.26108 0.15078 0.0
H2559 H 0.25772 0.38766 0.84542 0.0
H2560 H 0.25566 0.36391 0.804 0.0
H2561 H 0.24132 0.34438 0.81588 0.0
H2562 H 0.2619 0.3565 0.86847 0.0
H2563 H 0.25049 0.3634 0.88309 0.0
H2564 H 0.26007 0.37604 0.87127 0.0
H2565 H 0.23556 0.38881 0.86479 0.0
H2566 H 0.2259 0.37621 0.87662 0.0
H2567 H 0.22062 0.37802 0.85761 0.0
H2568 H 0.22899 0.32658 0.83226 0.0
H2569 H 0.21819 0.31188 0.85228 0.0
H2570 H 0.22691 0.34727 0.88309 0.0
C2571 C 0.25416 0.37841 0.83883 0.0
C2572 C 0.25786 0.37735 0.82376 0.0
C2573 C 0.25297 0.36504 0.81554 0.0
C2574 C 0.2448 0.35386 0.82218 0.0
C2575 C 0.24144 0.35518 0.83703 0.0
C2576 C 0.24583 0.36716 0.84526 0.0
C2577 C 0.24091 0.36563 0.86113 0.0
C2578 C 0.25413 0.36538 0.8716 0.0
C2579 C 0.2301 0.3779 0.86528 0.0
C2580 C 0.23336 0.35078 0.86053 0.0
C2581 C 0.23383 0.34498 0.84649 0.0
C2582 C 0.22837 0.33106 0.84327 0.0
C2583 C 0.22231 0.32278 0.85471 0.0
C2584 C 0.22162 0.32849 0.86917 0.0
C2585 C 0.22707 0.34275 0.87207 0.0
H2586 H 0.63531 0.22972 0.88499 0.0
H2587 H 0.67363 0.2249 0.85706 0.0
H2588 H 0.66108 0.23824 0.83731 0.0
H2589 H 0.60843 0.22514 0.85662 0.0
H2590 H 0.59608 0.23885 0.86373 0.0
H2591 H 0.60802 0.22903 0.87605 0.0
H2592 H 0.61856 0.25369 0.88561 0.0
H2593 H 0.6066 0.26359 0.87337 0.0
H2594 H 0.62608 0.26671 0.87272 0.0
H2595 H 0.6445 0.25094 0.82021 0.0
H2596 H 0.625 0.26397 0.80693 0.0
H2597 H 0.59731 0.26177 0.84572 0.0
C2598 C 0.64107 0.23153 0.87474 0.0
C2599 C 0.65548 0.22622 0.87262 0.0
C2600 C 0.66263 0.22886 0.85904 0.0
C2601 C 0.65558 0.23641 0.84769 0.0
C2602 C 0.6414 0.24139 0.85008 0.0
C2603 C 0.63422 0.23922 0.86326 0.0
C2604 C 0.61899 0.24589 0.86283 0.0
C2605 C 0.60719 0.23401 0.86493 0.0
C2606 C 0.61748 0.2582 0.87431 0.0
C2607 C 0.61878 0.25201 0.8473 0.0
C2608 C 0.63182 0.24917 0.84018 0.0
C2609 C 0.63425 0.25333 0.82567 0.0
C2610 C 0.62306 0.26068 0.81821 0.0
C2611 C 0.60962 0.26393 0.82528 0.0
C2612 C 0.60749 0.25953 0.84005 0.0
H2613 H 0.32648 0.75847 0.86304 0.0
H2614 H 0.35471 0.76279 0.90122 0.0
H2615 H 0.3743 0.74955 0.8881 0.0
H2616 H 0.3379 0.72231 0.85245 0.0
H2617 H 0.3372 0.72607 0.83301 0.0
H2618 H 0.32535 0.73588 0.84542 0.0
H2619 H 0.33545 0.76065 0.83562 0.0
H2620 H 0.34736 0.75092 0.82321 0.0
H2621 H 0.3549 0.76403 0.836 0.0
H2622 H 0.3905 0.73519 0.87125 0.0
H2623 H 0.40261 0.72135 0.85132 0.0
H2624 H 0.36424 0.72725 0.82376 0.0
C2625 C 0.33676 0.7566 0.86865 0.0
C2626 C 0.33905 0.76162 0.88317 0.0
C2627 C 0.35272 0.75907 0.89009 0.0
C2628 C 0.36391 0.75155 0.88274 0.0
C2629 C 0.36131 0.74677 0.86844 0.0
C2630 C 0.34813 0.74926 0.86142 0.0
C2631 C 0.34824 0.7431 0.84596 0.0
C2632 C 0.33648 0.73113 0.84411 0.0
C2633 C 0.34638 0.75541 0.83453 0.0
C2634 C 0.3635 0.73665 0.84545 0.0
C2635 C 0.37084 0.73884 0.85855 0.0
C2636 C 0.38492 0.73348 0.86089 0.0
C2637 C 0.39169 0.72562 0.84953 0.0
C2638 C 0.3844 0.7233 0.83597 0.0
C2639 C 0.37016 0.72899 0.83393 0.0
H2640 H 0.05646 0.24048 0.28685 0.0
H2641 H 0.06061 0.20107 0.26024 0.0
H2642 H 0.05781 0.21596 0.23777 0.0
H2643 H 0.02974 0.25967 0.26267 0.0
H2644 H 0.03805 0.27736 0.26593 0.0
H2645 H 0.03858 0.26342 0.28 0.0
H2646 H 0.06685 0.26558 0.28108 0.0
H2647 H 0.06642 0.27946 0.26701 0.0
H2648 H 0.07736 0.26317 0.26447 0.0
H2649 H 0.05756 0.23518 0.2183 0.0
H2650 H 0.05933 0.25755 0.20305 0.0
H2651 H 0.05478 0.28457 0.24211 0.0
C2652 C 0.05647 0.23495 0.27631 0.0
C2653 C 0.05873 0.21961 0.27529 0.0
C2654 C 0.05887 0.2128 0.26129 0.0
C2655 C 0.05724 0.22115 0.24846 0.0
C2656 C 0.05536 0.23629 0.24982 0.0
C2657 C 0.05484 0.24313 0.26338 0.0
C2658 C 0.05374 0.25967 0.26174 0.0
C2659 C 0.03916 0.26536 0.26796 0.0
C2660 C 0.06688 0.26742 0.269 0.0
C2661 C 0.05421 0.26108 0.24516 0.0
C2662 C 0.05501 0.24744 0.2385 0.0
C2663 C 0.05667 0.24592 0.22336 0.0
C2664 C 0.05772 0.25867 0.2148 0.0
C2665 C 0.05707 0.27276 0.2214 0.0
C2666 C 0.05503 0.27394 0.23674 0.0
H2667 H 0.76558 0.06838 0.26398 0.0
H2668 H 0.74523 0.03983 0.29629 0.0
H2669 H 0.72502 0.03477 0.27901 0.0
H2670 H 0.73325 0.08483 0.25199 0.0
H2671 H 0.73847 0.08617 0.23293 0.0
H2672 H 0.75231 0.08606 0.247 0.0
H2673 H 0.76487 0.06379 0.23451 0.0
H2674 H 0.75106 0.06384 0.22035 0.0
H2675 H 0.75439 0.04738 0.23086 0.0
H2676 H 0.70605 0.03457 0.25937 0.0
H2677 H 0.68921 0.03961 0.2388 0.0
H2678 H 0.72159 0.06853 0.21917 0.0
C2679 C 0.75703 0.06081 0.26727 0.0
C2680 C 0.75699 0.05441 0.28143 0.0
C2681 C 0.74547 0.04482 0.28548 0.0
C2682 C 0.73398 0.04183 0.27572 0.0
C2683 C 0.73419 0.04852 0.26195 0.0
C2684 C 0.74541 0.0578 0.2577 0.0
C2685 C 0.74236 0.06452 0.24276 0.0
C2686 C 0.74155 0.08139 0.24374 0.0
C2687 C 0.75386 0.05958 0.23145 0.0
C2688 C 0.72751 0.05785 0.23946 0.0
C2689 C 0.7231 0.04852 0.25061 0.0
C2690 C 0.70945 0.0417 0.25048 0.0
C2691 C 0.69995 0.04467 0.23877 0.0
C2692 C 0.70411 0.05442 0.22737 0.0
C2693 C 0.71818 0.06088 0.22763 0.0
H2694 H 0.92176 0.72374 0.21856 0.0
H2695 H 0.94511 0.68911 0.24149 0.0
H2696 H 0.94785 0.70535 0.2631 0.0
H2697 H 0.94262 0.75491 0.23384 0.0
H2698 H 0.9266 0.76639 0.23507 0.0
H2699 H 0.92784 0.75257 0.22092 0.0
H2700 H 0.90329 0.7413 0.22973 0.0
H2701 H 0.902 0.75501 0.24393 0.0
H2702 H 0.90136 0.73578 0.24867 0.0
H2703 H 0.94618 0.72457 0.28289 0.0
H2704 H 0.94037 0.74538 0.29932 0.0
H2705 H 0.91807 0.76739 0.2634 0.0
C2706 C 0.9277 0.71966 0.22801 0.0
C2707 C 0.93328 0.70518 0.22833 0.0
C2708 C 0.94079 0.70018 0.241 0.0
C2709 C 0.94242 0.70933 0.25331 0.0
C2710 C 0.93653 0.72345 0.25274 0.0
C2711 C 0.92938 0.72862 0.24039 0.0
C2712 C 0.92326 0.74387 0.2429 0.0
C2713 C 0.93052 0.7551 0.23257 0.0
C2714 C 0.90649 0.74398 0.24121 0.0
C2715 C 0.92779 0.74637 0.2587 0.0
C2716 C 0.93554 0.73451 0.26414 0.0
C2717 C 0.94027 0.73399 0.2787 0.0
C2718 C 0.93689 0.74584 0.28795 0.0
C2719 C 0.92882 0.75802 0.28263 0.0
C2720 C 0.92438 0.75831 0.26776 0.0
H2721 H 0.2466 0.92591 0.28559 0.0
H2722 H 0.20699 0.93069 0.25965 0.0
H2723 H 0.22176 0.93105 0.23697 0.0
H2724 H 0.27046 0.94896 0.26185 0.0
H2725 H 0.28605 0.9371 0.26448 0.0
H2726 H 0.27253 0.9389 0.2788 0.0
H2727 H 0.26896 0.91064 0.27886 0.0
H2728 H 0.28232 0.90876 0.26444 0.0
H2729 H 0.26415 0.9014 0.262 0.0
H2730 H 0.24022 0.9283 0.21717 0.0
H2731 H 0.26162 0.92402 0.20125 0.0
H2732 H 0.28954 0.9212 0.23978 0.0
C2733 C 0.24108 0.9274 0.27516 0.0
C2734 C 0.22565 0.92832 0.27437 0.0
C2735 C 0.2188 0.93 0.2605 0.0
C2736 C 0.22709 0.93022 0.24756 0.0
C2737 C 0.24222 0.92883 0.24868 0.0
C2738 C 0.2492 0.92761 0.2621 0.0
C2739 C 0.26554 0.92541 0.26013 0.0
C2740 C 0.27415 0.93837 0.2667 0.0
C2741 C 0.27053 0.91068 0.26675 0.0
C2742 C 0.26657 0.92526 0.2435 0.0
C2743 C 0.25298 0.92731 0.23715 0.0
C2744 C 0.25096 0.92688 0.22199 0.0
C2745 C 0.26317 0.92436 0.21305 0.0
C2746 C 0.27724 0.92233 0.21928 0.0
C2747 C 0.27894 0.92285 0.23471 0.0
H2748 H 0.06248 0.71774 0.76553 0.0
H2749 H 0.04138 0.68113 0.7434 0.0
H2750 H 0.03695 0.69686 0.72171 0.0
H2751 H 0.0389 0.74687 0.75062 0.0
H2752 H 0.05387 0.75967 0.74887 0.0
H2753 H 0.0542 0.74591 0.76311 0.0
H2754 H 0.07932 0.73667 0.75361 0.0
H2755 H 0.07905 0.75037 0.73935 0.0
H2756 H 0.08115 0.73124 0.73464 0.0
H2757 H 0.0364 0.71604 0.70183 0.0
H2758 H 0.03992 0.73718 0.68516 0.0
H2759 H 0.06143 0.76122 0.7203 0.0
C2760 C 0.05672 0.71309 0.75621 0.0
C2761 C 0.05222 0.69822 0.75616 0.0
C2762 C 0.0449 0.6925 0.74369 0.0
C2763 C 0.0423 0.70136 0.73133 0.0
C2764 C 0.04706 0.71591 0.73166 0.0
C2765 C 0.05408 0.72176 0.74379 0.0
C2766 C 0.05884 0.73747 0.74104 0.0
C2767 C 0.05098 0.74811 0.75153 0.0
C2768 C 0.07558 0.73902 0.74223 0.0
C2769 C 0.05366 0.73946 0.72536 0.0
C2770 C 0.04679 0.72695 0.72019 0.0
C2771 C 0.04164 0.72595 0.7058 0.0
C2772 C 0.0437 0.738 0.69641 0.0
C2773 C 0.0509 0.75086 0.70144 0.0
C2774 C 0.05576 0.75161 0.71617 0.0
H2775 H 0.28281 0.05564 0.74149 0.0
H2776 H 0.25754 0.06389 0.78104 0.0
H2777 H 0.23468 0.06127 0.76685 0.0
H2778 H 0.26128 0.0766 0.71825 0.0
H2779 H 0.26274 0.06469 0.70248 0.0
H2780 H 0.27708 0.06494 0.71602 0.0
H2781 H 0.27435 0.03681 0.71961 0.0
H2782 H 0.25999 0.03646 0.70601 0.0
H2783 H 0.25669 0.02921 0.72416 0.0
H2784 H 0.21489 0.06075 0.74823 0.0
H2785 H 0.19929 0.06253 0.72618 0.0
H2786 H 0.23716 0.0546 0.69848 0.0
C2787 C 0.27246 0.05652 0.74722 0.0
C2788 C 0.27192 0.05989 0.76237 0.0
C2789 C 0.25818 0.06128 0.76944 0.0
C2790 C 0.24515 0.05974 0.76149 0.0
C2791 C 0.24603 0.05677 0.7465 0.0
C2792 C 0.25932 0.05511 0.73942 0.0
C2793 C 0.25722 0.05329 0.72298 0.0
C2794 C 0.26504 0.06562 0.71444 0.0
C2795 C 0.26237 0.03803 0.71789 0.0
C2796 C 0.24073 0.0547 0.7219 0.0
C2797 C 0.2345 0.05649 0.73564 0.0
C2798 C 0.21959 0.05911 0.73743 0.0
C2799 C 0.21083 0.06015 0.72485 0.0
C2800 C 0.21701 0.05862 0.71065 0.0
C2801 C 0.2321 0.05556 0.70921 0.0
H2802 H 0.93091 0.28887 0.74539 0.0
H2803 H 0.93342 0.26032 0.7835 0.0
H2804 H 0.9361 0.23879 0.76721 0.0
H2805 H 0.90848 0.26621 0.72509 0.0
H2806 H 0.91654 0.27007 0.70742 0.0
H2807 H 0.91757 0.28352 0.72188 0.0
H2808 H 0.94583 0.28412 0.71952 0.0
H2809 H 0.94489 0.27068 0.70497 0.0
H2810 H 0.95606 0.26725 0.72094 0.0
H2811 H 0.93533 0.22031 0.74726 0.0
H2812 H 0.9305 0.20585 0.72487 0.0
H2813 H 0.92797 0.24611 0.6994 0.0
C2814 C 0.93249 0.27813 0.75028 0.0
C2815 C 0.93212 0.27622 0.76568 0.0
C2816 C 0.93375 0.26198 0.77171 0.0
C2817 C 0.93536 0.24971 0.76256 0.0
C2818 C 0.93528 0.25188 0.7474 0.0
C2819 C 0.93392 0.26572 0.74127 0.0
C2820 C 0.93246 0.26481 0.72468 0.0
C2821 C 0.9179 0.27155 0.71947 0.0
C2822 C 0.9456 0.27215 0.71708 0.0
C2823 C 0.93268 0.24829 0.72252 0.0
C2824 C 0.93459 0.24107 0.73576 0.0
C2825 C 0.93408 0.22581 0.73679 0.0
C2826 C 0.93128 0.2177 0.72402 0.0
C2827 C 0.92892 0.22485 0.7104 0.0
C2828 C 0.92996 0.24034 0.70961 0.0
H2829 H 0.71823 0.90783 0.77018 0.0
H2830 H 0.68006 0.91845 0.74382 0.0
H2831 H 0.69601 0.92284 0.72234 0.0
H2832 H 0.74301 0.93442 0.75369 0.0
H2833 H 0.75853 0.92221 0.75441 0.0
H2834 H 0.74418 0.92067 0.76791 0.0
H2835 H 0.74068 0.89319 0.76118 0.0
H2836 H 0.75503 0.89464 0.7477 0.0
H2837 H 0.73716 0.88817 0.74233 0.0
H2838 H 0.71605 0.9254 0.70358 0.0
H2839 H 0.73861 0.92483 0.68861 0.0
H2840 H 0.76357 0.91215 0.7272 0.0
C2841 C 0.71323 0.91119 0.75992 0.0
C2842 C 0.69792 0.91285 0.75867 0.0
C2843 C 0.69178 0.91712 0.74502 0.0
C2844 C 0.70075 0.91968 0.73277 0.0
C2845 C 0.71581 0.91791 0.73437 0.0
C2846 C 0.72201 0.91371 0.74758 0.0
C2847 C 0.73843 0.91195 0.74621 0.0
C2848 C 0.74651 0.92297 0.75615 0.0
C2849 C 0.74309 0.89604 0.74955 0.0
C2850 C 0.74048 0.91566 0.73013 0.0
C2851 C 0.72732 0.9192 0.72352 0.0
C2852 C 0.72643 0.9227 0.70864 0.0
C2853 C 0.7393 0.92236 0.70024 0.0
C2854 C 0.75284 0.91844 0.70674 0.0
C2855 C 0.7534 0.91524 0.72192 0.0
H2856 H 0.24005 0.05648 0.29043 0.0
H2857 H 0.19873 0.05761 0.26687 0.0
H2858 H 0.21199 0.05609 0.24334 0.0
H2859 H 0.25899 0.07934 0.26712 0.0
H2860 H 0.27625 0.06979 0.26807 0.0
H2861 H 0.26358 0.06865 0.28316 0.0
H2862 H 0.26376 0.04021 0.28139 0.0
H2863 H 0.27654 0.04126 0.26632 0.0
H2864 H 0.25952 0.03146 0.26412 0.0
H2865 H 0.22949 0.05833 0.22258 0.0
H2866 H 0.2503 0.06285 0.20583 0.0
H2867 H 0.28036 0.05939 0.24259 0.0
C2868 C 0.23379 0.05601 0.28034 0.0
C2869 C 0.21837 0.05716 0.28047 0.0
C2870 C 0.21056 0.05672 0.26703 0.0
C2871 C 0.21798 0.05582 0.2536 0.0
C2872 C 0.2332 0.05518 0.2538 0.0
C2873 C 0.24104 0.05506 0.26681 0.0
C2874 C 0.25737 0.05547 0.26393 0.0
C2875 C 0.26445 0.06912 0.27098 0.0
C2876 C 0.26473 0.04125 0.26925 0.0
C2877 C 0.25744 0.05645 0.24731 0.0
C2878 C 0.24339 0.05613 0.24169 0.0
C2879 C 0.24057 0.05824 0.22678 0.0
C2880 C 0.25243 0.06088 0.21738 0.0
C2881 C 0.2669 0.0613 0.22292 0.0
C2882 C 0.26943 0.05879 0.23803 0.0
H2883 H 0.92475 0.28555 0.24399 0.0
H2884 H 0.92821 0.25815 0.20508 0.0
H2885 H 0.93128 0.23627 0.22076 0.0
H2886 H 0.95074 0.264 0.26749 0.0
H2887 H 0.93973 0.26672 0.2837 0.0
H2888 H 0.94009 0.28055 0.26951 0.0
H2889 H 0.91182 0.27923 0.26756 0.0
H2890 H 0.91137 0.26536 0.28164 0.0
H2891 H 0.90315 0.26177 0.26398 0.0
H2892 H 0.9305 0.21722 0.24014 0.0
H2893 H 0.92657 0.20206 0.26225 0.0
H2894 H 0.92395 0.24152 0.28893 0.0
C2895 C 0.92658 0.275 0.23879 0.0
C2896 C 0.92632 0.27354 0.22332 0.0
C2897 C 0.92841 0.25951 0.21691 0.0
C2898 C 0.93021 0.24703 0.22572 0.0
C2899 C 0.92998 0.24877 0.24092 0.0
C2900 C 0.92834 0.2624 0.24745 0.0
C2901 C 0.92717 0.26102 0.26402 0.0
C2902 C 0.94021 0.26851 0.27163 0.0
C2903 C 0.91251 0.26721 0.26962 0.0
C2904 C 0.92785 0.24446 0.26572 0.0
C2905 C 0.92964 0.23764 0.25226 0.0
C2906 C 0.92938 0.22241 0.25079 0.0
C2907 C 0.92708 0.2139 0.26339 0.0
C2908 C 0.92508 0.22063 0.27728 0.0
C2909 C 0.92574 0.23609 0.27849 0.0
H2910 H 0.73776 0.93037 0.28245 0.0
H2911 H 0.77636 0.93199 0.2547 0.0
H2912 H 0.76069 0.93587 0.23295 0.0
H2913 H 0.71692 0.90946 0.2591 0.0
H2914 H 0.69968 0.91834 0.26283 0.0
H2915 H 0.71387 0.9184 0.27653 0.0
H2916 H 0.71295 0.94685 0.27764 0.0
H2917 H 0.69866 0.94689 0.26396 0.0
H2918 H 0.71516 0.95736 0.26099 0.0
H2919 H 0.74104 0.93598 0.21404 0.0
H2920 H 0.71872 0.93236 0.19919 0.0
H2921 H 0.69271 0.93067 0.23908 0.0
C2922 C 0.74293 0.932 0.27186 0.0
C2923 C 0.75827 0.93098 0.27025 0.0
C2924 C 0.76462 0.93279 0.25617 0.0
C2925 C 0.75581 0.93506 0.24377 0.0
C2926 C 0.74068 0.93555 0.24564 0.0
C2927 C 0.73427 0.93417 0.25935 0.0
C2928 C 0.71774 0.93356 0.25816 0.0
C2929 C 0.71171 0.91908 0.26453 0.0
C2930 C 0.71071 0.94697 0.26563 0.0
C2931 C 0.71589 0.9342 0.24162 0.0
C2932 C 0.72926 0.93558 0.23463 0.0
C2933 C 0.73049 0.93518 0.21937 0.0
C2934 C 0.71776 0.93307 0.21104 0.0
C2935 C 0.70399 0.93132 0.21798 0.0
C2936 C 0.70305 0.93223 0.23346 0.0
H2937 H 0.06658 0.72874 0.21835 0.0
H2938 H 0.0451 0.69206 0.23992 0.0
H2939 H 0.03994 0.70779 0.26144 0.0
H2940 H 0.08468 0.74155 0.24929 0.0
H2941 H 0.08299 0.76081 0.24497 0.0
H2942 H 0.08308 0.74742 0.23043 0.0
H2943 H 0.05819 0.75729 0.22097 0.0
H2944 H 0.05805 0.77079 0.23548 0.0
H2945 H 0.04284 0.75833 0.23339 0.0
H2946 H 0.03936 0.72658 0.28145 0.0
H2947 H 0.04369 0.74701 0.29876 0.0
H2948 H 0.06594 0.77141 0.26436 0.0
C2949 C 0.06045 0.72413 0.22744 0.0
C2950 C 0.05612 0.70922 0.22745 0.0
C2951 C 0.04845 0.70348 0.23969 0.0
C2952 C 0.04543 0.71234 0.25193 0.0
C2953 C 0.05016 0.72691 0.25173 0.0
C2954 C 0.05747 0.73279 0.2398 0.0
C2955 C 0.06253 0.74835 0.24289 0.0
C2956 C 0.07931 0.74959 0.24184 0.0
C2957 C 0.05495 0.75934 0.23257 0.0
C2958 C 0.05729 0.75015 0.25858 0.0
C2959 C 0.05 0.73773 0.26339 0.0
C2960 C 0.04488 0.73645 0.27775 0.0
C2961 C 0.04742 0.74809 0.28751 0.0
C2962 C 0.05511 0.76081 0.2829 0.0
C2963 C 0.05989 0.76191 0.26817 0.0
H2964 H 0.23693 0.92637 0.70058 0.0
H2965 H 0.19908 0.92563 0.72938 0.0
H2966 H 0.2152 0.92923 0.75085 0.0
H2967 H 0.25909 0.90521 0.72297 0.0
H2968 H 0.27593 0.91478 0.71905 0.0
H2969 H 0.2614 0.91467 0.70571 0.0
H2970 H 0.26144 0.94316 0.7053 0.0
H2971 H 0.27604 0.94335 0.71864 0.0
H2972 H 0.2593 0.95318 0.72226 0.0
H2973 H 0.23522 0.93005 0.76923 0.0
H2974 H 0.25798 0.92732 0.78351 0.0
H2975 H 0.28313 0.92697 0.74302 0.0
C2976 C 0.23203 0.92739 0.71137 0.0
C2977 C 0.21677 0.92587 0.71335 0.0
C2978 C 0.21076 0.92683 0.72765 0.0
C2979 C 0.21981 0.92895 0.7399 0.0
C2980 C 0.23485 0.93005 0.73765 0.0
C2981 C 0.24095 0.92932 0.72375 0.0
C2982 C 0.25753 0.92924 0.72454 0.0
C2983 C 0.26385 0.91514 0.71766 0.0
C2984 C 0.26395 0.94306 0.71725 0.0
C2985 C 0.25977 0.92953 0.74105 0.0
C2986 C 0.24653 0.93026 0.74837 0.0
C2987 C 0.24567 0.9297 0.76364 0.0
C2988 C 0.25866 0.9281 0.77165 0.0
C2989 C 0.27233 0.92697 0.76439 0.0
C2990 C 0.27287 0.928 0.74889 0.0
H2991 H 0.04824 0.24262 0.70104 0.0
H2992 H 0.04907 0.20239 0.72662 0.0
H2993 H 0.04838 0.21692 0.74951 0.0
H2994 H 0.07257 0.26141 0.72235 0.0
H2995 H 0.06405 0.27923 0.72094 0.0
H2996 H 0.06148 0.2659 0.70658 0.0
H2997 H 0.03334 0.26784 0.70955 0.0
H2998 H 0.03582 0.28131 0.72388 0.0
H2999 H 0.02519 0.26497 0.72737 0.0
H3000 H 0.05162 0.23529 0.76919 0.0
H3001 H 0.05833 0.25649 0.78465 0.0
H3002 H 0.0556 0.28517 0.74664 0.0
C3003 C 0.04772 0.23689 0.71146 0.0
C3004 C 0.04855 0.22139 0.71211 0.0
C3005 C 0.04835 0.21426 0.72593 0.0
C3006 C 0.0479 0.22241 0.73897 0.0
C3007 C 0.04763 0.23769 0.738 0.0
C3008 C 0.04743 0.2449 0.72461 0.0
C3009 C 0.04892 0.26138 0.72665 0.0
C3010 C 0.06257 0.26732 0.71866 0.0
C3011 C 0.03499 0.26935 0.72156 0.0
C3012 C 0.05065 0.26223 0.7432 0.0
C3013 C 0.04962 0.24845 0.74952 0.0
C3014 C 0.05214 0.24618 0.76444 0.0
C3015 C 0.05603 0.25828 0.77311 0.0
C3016 C 0.05739 0.27246 0.76684 0.0
C3017 C 0.05436 0.2745 0.75175 0.0
H3018 H 0.69397 0.06398 0.74326 0.0
H3019 H 0.71878 0.07303 0.78299 0.0
H3020 H 0.74165 0.07279 0.76869 0.0
H3021 H 0.7207 0.0395 0.72651 0.0
H3022 H 0.71755 0.04621 0.70815 0.0
H3023 H 0.70299 0.04664 0.72151 0.0
H3024 H 0.69984 0.07463 0.71728 0.0
H3025 H 0.71435 0.07428 0.70388 0.0
H3026 H 0.71544 0.08662 0.71935 0.0
H3027 H 0.76165 0.07235 0.75035 0.0
H3028 H 0.77784 0.07211 0.72871 0.0
H3029 H 0.74047 0.06315 0.70057 0.0
C3030 C 0.70423 0.06585 0.74894 0.0
C3031 C 0.7046 0.06851 0.76425 0.0
C3032 C 0.71822 0.07097 0.77128 0.0
C3033 C 0.73129 0.07082 0.76326 0.0
C3034 C 0.73057 0.06817 0.74822 0.0
C3035 C 0.71743 0.06574 0.74108 0.0
C3036 C 0.7198 0.06352 0.72472 0.0
C3037 C 0.71497 0.04804 0.71995 0.0
C3038 C 0.71189 0.07548 0.71578 0.0
C3039 C 0.73629 0.06525 0.72381 0.0
C3040 C 0.74224 0.06786 0.73753 0.0
C3041 C 0.75715 0.07024 0.73955 0.0
C3042 C 0.76625 0.0701 0.72718 0.0
C3043 C 0.76042 0.06759 0.71297 0.0
C3044 C 0.74525 0.06497 0.71131 0.0
H3045 H 0.9248 0.72191 0.76631 0.0
H3046 H 0.93321 0.6825 0.74081 0.0
H3047 H 0.93683 0.69771 0.71859 0.0
H3048 H 0.90359 0.7392 0.74051 0.0
H3049 H 0.9101 0.75755 0.74419 0.0
H3050 H 0.9106 0.74389 0.75844 0.0
H3051 H 0.93846 0.74819 0.76178 0.0
H3052 H 0.93804 0.76197 0.74755 0.0
H3053 H 0.95047 0.74666 0.74613 0.0
H3054 H 0.93629 0.7169 0.69867 0.0
H3055 H 0.93173 0.73845 0.68276 0.0
H3056 H 0.92369 0.76515 0.72146 0.0
C3057 C 0.92779 0.7165 0.75615 0.0
C3058 C 0.92877 0.70103 0.75528 0.0
C3059 C 0.93246 0.69434 0.74172 0.0
C3060 C 0.93458 0.7029 0.72906 0.0
C3061 C 0.93309 0.71811 0.7302 0.0
C3062 C 0.92989 0.72485 0.74344 0.0
C3063 C 0.92753 0.74119 0.74153 0.0
C3064 C 0.91204 0.74571 0.74645 0.0
C3065 C 0.93933 0.75002 0.74973 0.0
C3066 C 0.92933 0.74252 0.72506 0.0
C3067 C 0.93275 0.72914 0.71872 0.0
C3068 C 0.93387 0.72748 0.70353 0.0
C3069 C 0.93123 0.73977 0.69458 0.0
C3070 C 0.92741 0.75348 0.70088 0.0
C3071 C 0.92676 0.75487 0.71632 0.0
H3072 H 0.21576 0.26935 0.06466 0.0
H3073 H 0.23691 0.3025 0.03769 0.0
H3074 H 0.25696 0.28515 0.03224 0.0
H3075 H 0.24754 0.25644 0.08115 0.0
H3076 H 0.24208 0.2374 0.0817 0.0
H3077 H 0.2284 0.25162 0.08183 0.0
H3078 H 0.21612 0.24007 0.05888 0.0
H3079 H 0.22976 0.22577 0.05869 0.0
H3080 H 0.22685 0.23689 0.04256 0.0
H3081 H 0.27578 0.26528 0.03171 0.0
H3082 H 0.29233 0.24439 0.03651 0.0
H3083 H 0.2591 0.22421 0.06403 0.0
C3084 C 0.22444 0.27283 0.05733 0.0
C3085 C 0.22476 0.28723 0.05151 0.0
C3086 C 0.23645 0.2915 0.04223 0.0
C3087 C 0.24785 0.28171 0.03902 0.0
C3088 C 0.24737 0.26769 0.04517 0.0
C3089 C 0.23596 0.26323 0.0541 0.0
C3090 C 0.2387 0.24804 0.06034 0.0
C3091 C 0.23921 0.24841 0.07725 0.0
C3092 C 0.22717 0.23704 0.05478 0.0
C3093 C 0.25362 0.24484 0.05385 0.0
C3094 C 0.25833 0.25623 0.04497 0.0
C3095 C 0.27214 0.25619 0.03847 0.0
C3096 C 0.28147 0.2443 0.04129 0.0
C3097 C 0.27698 0.23266 0.0506 0.0
C3098 C 0.26276 0.23285 0.05672 0.0
H3099 H 0.24135 0.69905 0.92395 0.0
H3100 H 0.20391 0.72791 0.92932 0.0
H3101 H 0.22047 0.74871 0.93423 0.0
H3102 H 0.26538 0.71728 0.95186 0.0
H3103 H 0.28156 0.71481 0.94079 0.0
H3104 H 0.26682 0.70165 0.93976 0.0
H3105 H 0.26533 0.70552 0.91158 0.0
H3106 H 0.28 0.7187 0.91253 0.0
H3107 H 0.26273 0.72382 0.90442 0.0
H3108 H 0.24058 0.76682 0.93545 0.0
H3109 H 0.26331 0.78128 0.93314 0.0
H3110 H 0.28814 0.74106 0.92731 0.0
C3111 C 0.23666 0.70967 0.92654 0.0
C3112 C 0.22135 0.71187 0.92633 0.0
C3113 C 0.21561 0.72599 0.92944 0.0
C3114 C 0.22492 0.73786 0.93231 0.0
C3115 C 0.23997 0.73545 0.93208 0.0
C3116 C 0.24585 0.72172 0.92936 0.0
C3117 C 0.26242 0.72246 0.9285 0.0
C3118 C 0.26946 0.71352 0.94097 0.0
C3119 C 0.26794 0.71732 0.91336 0.0
C3120 C 0.26486 0.73881 0.93068 0.0
C3121 C 0.25174 0.74604 0.93289 0.0
C3122 C 0.25096 0.76128 0.93401 0.0
C3123 C 0.26391 0.7694 0.93263 0.0
C3124 C 0.27746 0.76228 0.93019 0.0
C3125 C 0.27797 0.74676 0.92949 0.0
H3126 H 0.22468 0.26379 0.92116 0.0
H3127 H 0.24991 0.30196 0.93462 0.0
H3128 H 0.27175 0.28628 0.93767 0.0
H3129 H 0.2431 0.23678 0.9455 0.0
H3130 H 0.24239 0.22252 0.93175 0.0
H3131 H 0.22832 0.23639 0.93237 0.0
H3132 H 0.2335 0.24288 0.90512 0.0
H3133 H 0.24761 0.22911 0.90443 0.0
H3134 H 0.25181 0.24788 0.89966 0.0
H3135 H 0.29129 0.26718 0.93672 0.0
H3136 H 0.30726 0.24581 0.93226 0.0
H3137 H 0.26942 0.21987 0.91952 0.0
C3138 C 0.23471 0.2688 0.92507 0.0
C3139 C 0.2356 0.28409 0.92772 0.0
C3140 C 0.24898 0.29026 0.93257 0.0
C3141 C 0.26143 0.28144 0.93437 0.0
C3142 C 0.26028 0.26647 0.93133 0.0
C3143 C 0.24725 0.26016 0.92688 0.0
C3144 C 0.24922 0.244 0.92332 0.0
C3145 C 0.24023 0.23436 0.93387 0.0
C3146 C 0.24531 0.24079 0.90718 0.0
C3147 C 0.26548 0.24231 0.92607 0.0
C3148 C 0.27161 0.25538 0.93081 0.0
C3149 C 0.28659 0.25683 0.93322 0.0
C3150 C 0.29558 0.24464 0.93061 0.0
C3151 C 0.28956 0.23117 0.92562 0.0
C3152 C 0.27429 0.22996 0.92353 0.0
H3153 H 0.69569 0.24302 0.92981 0.0
H3154 H 0.72116 0.20283 0.92756 0.0
H3155 H 0.74381 0.21714 0.93154 0.0
H3156 H 0.7195 0.26432 0.90949 0.0
H3157 H 0.71686 0.28102 0.91982 0.0
H3158 H 0.70254 0.26747 0.91913 0.0
H3159 H 0.70218 0.26624 0.94759 0.0
H3160 H 0.71653 0.27985 0.94838 0.0
H3161 H 0.71888 0.26238 0.95742 0.0
H3162 H 0.76374 0.23595 0.93279 0.0
H3163 H 0.77953 0.25789 0.93075 0.0
H3164 H 0.74109 0.28586 0.9321 0.0
C3165 C 0.706 0.23718 0.93052 0.0
C3166 C 0.70668 0.2218 0.92846 0.0
C3167 C 0.7204 0.2146 0.92916 0.0
C3168 C 0.73331 0.22263 0.93148 0.0
C3169 C 0.73229 0.23782 0.93314 0.0
C3170 C 0.71898 0.24503 0.93275 0.0
C3171 C 0.72098 0.26154 0.93341 0.0
C3172 C 0.7146 0.26902 0.91964 0.0
C3173 C 0.71424 0.26787 0.94755 0.0
C3174 C 0.73751 0.26253 0.93372 0.0
C3175 C 0.74383 0.24872 0.93378 0.0
C3176 C 0.75894 0.24682 0.93298 0.0
C3177 C 0.76781 0.25934 0.9318 0.0
C3178 C 0.76154 0.27357 0.93133 0.0
C3179 C 0.74621 0.27514 0.93265 0.0
H3180 H 0.71834 0.76026 0.92277 0.0
H3181 H 0.68343 0.7315 0.93766 0.0
H3182 H 0.70146 0.71166 0.9418 0.0
H3183 H 0.73687 0.73383 0.90245 0.0
H3184 H 0.75498 0.74048 0.90669 0.0
H3185 H 0.73971 0.75295 0.90681 0.0
H3186 H 0.74582 0.76041 0.93363 0.0
H3187 H 0.76116 0.74797 0.93358 0.0
H3188 H 0.74727 0.7464 0.94757 0.0
H3189 H 0.72293 0.6944 0.9423 0.0
H3190 H 0.746 0.68081 0.93838 0.0
H3191 H 0.76666 0.72081 0.92261 0.0
C3192 C 0.71452 0.7499 0.92722 0.0
C3193 C 0.69952 0.74742 0.93001 0.0
C3194 C 0.69491 0.73362 0.93551 0.0
C3195 C 0.70506 0.72232 0.93795 0.0
C3196 C 0.71976 0.72503 0.93481 0.0
C3197 C 0.72448 0.73849 0.92958 0.0
C3198 C 0.74063 0.73821 0.92588 0.0
C3199 C 0.74319 0.74156 0.90949 0.0
C3200 C 0.74923 0.74888 0.93576 0.0
C3201 C 0.74419 0.72239 0.9295 0.0
C3202 C 0.73207 0.71502 0.93484 0.0
C3203 C 0.73253 0.7001 0.93828 0.0
C3204 C 0.74568 0.69247 0.936 0.0
C3205 C 0.75812 0.69976 0.9302 0.0
C3206 C 0.75737 0.71496 0.92715 0.0
H3207 H 0.74512 0.69853 0.05823 0.0
H3208 H 0.78133 0.72916 0.05429 0.0
H3209 H 0.76391 0.74942 0.04995 0.0
H3210 H 0.71995 0.7168 0.03132 0.0
H3211 H 0.70408 0.7132 0.04254 0.0
H3212 H 0.71935 0.70064 0.04278 0.0
H3213 H 0.72117 0.70342 0.07107 0.0
H3214 H 0.70599 0.71599 0.07092 0.0
H3215 H 0.72318 0.7215 0.07895 0.0
H3216 H 0.74298 0.76663 0.04897 0.0
H3217 H 0.71977 0.77999 0.05223 0.0
H3218 H 0.69677 0.73854 0.05747 0.0
C3219 C 0.74935 0.70943 0.056 0.0
C3220 C 0.76455 0.7123 0.0564 0.0
C3221 C 0.76972 0.72676 0.05392 0.0
C3222 C 0.75992 0.73831 0.05139 0.0
C3223 C 0.74498 0.73522 0.05142 0.0
C3224 C 0.73968 0.72115 0.05366 0.0
C3225 C 0.72311 0.72114 0.05482 0.0
C3226 C 0.71622 0.71243 0.0421 0.0
C3227 C 0.71808 0.71516 0.06983 0.0
C3228 C 0.71999 0.73745 0.05338 0.0
C3229 C 0.73276 0.74531 0.05116 0.0
C3230 C 0.73288 0.76059 0.05049 0.0
C3231 C 0.71964 0.76809 0.0524 0.0
C3232 C 0.70647 0.76031 0.05506 0.0
C3233 C 0.70663 0.74477 0.05524 0.0
H3234 H 0.21826 0.72141 0.06408 0.0
H3235 H 0.23863 0.6846 0.04166 0.0
H3236 H 0.26133 0.69906 0.03882 0.0
H3237 H 0.23683 0.75113 0.04275 0.0
H3238 H 0.23861 0.76264 0.05879 0.0
H3239 H 0.22331 0.75021 0.05717 0.0
H3240 H 0.23015 0.73848 0.0822 0.0
H3241 H 0.24549 0.75077 0.08387 0.0
H3242 H 0.24831 0.73119 0.08483 0.0
H3243 H 0.28257 0.71602 0.0413 0.0
H3244 H 0.30087 0.7347 0.04833 0.0
H3245 H 0.26674 0.76074 0.06886 0.0
C3246 C 0.22736 0.71653 0.05823 0.0
C3247 C 0.22668 0.70191 0.05303 0.0
C3248 C 0.23891 0.69581 0.04568 0.0
C3249 C 0.25183 0.70394 0.04398 0.0
C3250 C 0.25229 0.71819 0.0496 0.0
C3251 C 0.24035 0.7245 0.05646 0.0
C3252 C 0.24409 0.73953 0.06259 0.0
C3253 C 0.23518 0.75159 0.05486 0.0
C3254 C 0.24188 0.74001 0.07936 0.0
C3255 C 0.26015 0.74046 0.05855 0.0
C3256 C 0.2646 0.72809 0.05093 0.0
C3257 C 0.27917 0.72587 0.04701 0.0
C3258 C 0.28949 0.73651 0.05111 0.0
C3259 C 0.28519 0.74919 0.05904 0.0
C3260 C 0.27028 0.75128 0.06257 0.0
H3261 H 0.72298 0.2216 0.06948 0.0
H3262 H 0.69041 0.24055 0.04036 0.0
H3263 H 0.70643 0.26197 0.03623 0.0
H3264 H 0.73262 0.25425 0.08687 0.0
H3265 H 0.75187 0.25023 0.08848 0.0
H3266 H 0.7388 0.23545 0.08773 0.0
H3267 H 0.75242 0.22422 0.06541 0.0
H3268 H 0.76562 0.23894 0.06615 0.0
H3269 H 0.75573 0.23537 0.04938 0.0
H3270 H 0.72449 0.28244 0.03735 0.0
H3271 H 0.74389 0.30043 0.04318 0.0
H3272 H 0.765 0.2683 0.07136 0.0
C3273 C 0.7194 0.23009 0.06195 0.0
C3274 C 0.70548 0.22939 0.05519 0.0
C3275 C 0.70104 0.24085 0.04564 0.0
C3276 C 0.71008 0.25305 0.04319 0.0
C3277 C 0.72355 0.2536 0.05031 0.0
C3278 C 0.72828 0.24239 0.05941 0.0
C3279 C 0.74279 0.24623 0.06654 0.0
C3280 C 0.74143 0.24656 0.0834 0.0
C3281 C 0.75485 0.23555 0.06157 0.0
C3282 C 0.74526 0.26149 0.06033 0.0
C3283 C 0.73408 0.26547 0.0509 0.0
C3284 C 0.73343 0.27938 0.04453 0.0
C3285 C 0.74445 0.28954 0.04795 0.0
C3286 C 0.75597 0.28573 0.05764 0.0
C3287 C 0.75644 0.27145 0.06375 0.0
H3288 H 0.54958 0.78429 0.74107 0.0
H3289 H 0.55341 0.75926 0.70064 0.0
H3290 H 0.55067 0.7362 0.71468 0.0
H3291 H 0.57113 0.76187 0.76196 0.0
H3292 H 0.56079 0.76353 0.77876 0.0
H3293 H 0.56028 0.77807 0.76539 0.0
H3294 H 0.53199 0.77624 0.76427 0.0
H3295 H 0.53239 0.7617 0.77774 0.0
H3296 H 0.52348 0.75879 0.7603 0.0
H3297 H 0.5513 0.71601 0.73328 0.0
H3298 H 0.55503 0.70023 0.75504 0.0
H3299 H 0.55067 0.73837 0.78337 0.0
C3300 C 0.54939 0.77398 0.73511 0.0
C3301 C 0.55165 0.77355 0.71976 0.0
C3302 C 0.55164 0.75984 0.7124 0.0
C3303 C 0.55004 0.74668 0.72027 0.0
C3304 C 0.54833 0.74745 0.73547 0.0
C3305 C 0.54786 0.76076 0.74281 0.0
C3306 C 0.54747 0.75856 0.75931 0.0
C3307 C 0.56071 0.76594 0.76678 0.0
C3308 C 0.53297 0.76415 0.76578 0.0
C3309 C 0.54843 0.74197 0.76012 0.0
C3310 C 0.54868 0.73575 0.74625 0.0
C3311 C 0.5508 0.72072 0.74419 0.0
C3312 C 0.55297 0.71185 0.75661 0.0
C3313 C 0.55306 0.71806 0.77089 0.0
C3314 C 0.55041 0.73326 0.77262 0.0
H3315 H 0.1979 0.54919 0.7436 0.0
H3316 H 0.22638 0.55466 0.70584 0.0
H3317 H 0.24799 0.5511 0.72175 0.0
H3318 H 0.2186 0.56999 0.76725 0.0
H3319 H 0.21534 0.55904 0.78344 0.0
H3320 H 0.20211 0.55918 0.76882 0.0
H3321 H 0.20372 0.5308 0.76689 0.0
H3322 H 0.21698 0.53057 0.78157 0.0
H3323 H 0.22128 0.52219 0.76414 0.0
H3324 H 0.26634 0.55019 0.74189 0.0
H3325 H 0.2802 0.55304 0.76497 0.0
H3326 H 0.23991 0.54868 0.78989 0.0
C3327 C 0.20868 0.54918 0.73862 0.0
C3328 C 0.21051 0.55205 0.72348 0.0
C3329 C 0.22477 0.5524 0.71741 0.0
C3330 C 0.23709 0.55031 0.72635 0.0
C3331 C 0.23495 0.54788 0.74131 0.0
C3332 C 0.2211 0.54729 0.74743 0.0
C3333 C 0.22185 0.54629 0.76404 0.0
C3334 C 0.21402 0.55941 0.7713 0.0
C3335 C 0.21559 0.53158 0.76948 0.0
C3336 C 0.23826 0.54702 0.76633 0.0
C3337 C 0.24561 0.54762 0.75307 0.0
C3338 C 0.26073 0.54948 0.75235 0.0
C3339 C 0.26851 0.55112 0.76552 0.0
C3340 C 0.26114 0.55104 0.77922 0.0
C3341 C 0.24587 0.54857 0.7796 0.0
H3342 H 0.41335 0.23123 0.71591 0.0
H3343 H 0.43998 0.19615 0.73408 0.0
H3344 H 0.44671 0.21208 0.75493 0.0
H3345 H 0.4371 0.26221 0.72795 0.0
H3346 H 0.42165 0.27378 0.73218 0.0
H3347 H 0.4203 0.2603 0.71772 0.0
H3348 H 0.3975 0.24897 0.73036 0.0
H3349 H 0.39879 0.26239 0.74484 0.0
H3350 H 0.39875 0.24307 0.74924 0.0
H3351 H 0.44842 0.23051 0.775 0.0
H3352 H 0.44492 0.2504 0.79311 0.0
H3353 H 0.41753 0.27387 0.76202 0.0
C3354 C 0.42084 0.22703 0.72412 0.0
C3355 C 0.42619 0.21248 0.72335 0.0
C3356 C 0.43576 0.20727 0.73443 0.0
C3357 C 0.43971 0.21626 0.74629 0.0
C3358 C 0.43405 0.23045 0.74688 0.0
C3359 C 0.42487 0.23586 0.73608 0.0
C3360 C 0.41943 0.25112 0.73995 0.0
C3361 C 0.42495 0.26253 0.72879 0.0
C3362 C 0.40263 0.25139 0.74118 0.0
C3363 C 0.42663 0.25323 0.75482 0.0
C3364 C 0.43514 0.24123 0.75851 0.0
C3365 C 0.442 0.24009 0.77214 0.0
C3366 C 0.43993 0.25142 0.78236 0.0
C3367 C 0.43109 0.26371 0.7789 0.0
C3368 C 0.4246 0.26474 0.76483 0.0
H3369 H 0.72048 0.41868 0.76531 0.0
H3370 H 0.7416 0.44229 0.80094 0.0
H3371 H 0.76237 0.44822 0.78464 0.0
H3372 H 0.75204 0.40193 0.75218 0.0
H3373 H 0.74729 0.40297 0.73297 0.0
H3374 H 0.73309 0.40238 0.74666 0.0
H3375 H 0.72215 0.42657 0.73643 0.0
H3376 H 0.73631 0.42721 0.72264 0.0
H3377 H 0.73363 0.44262 0.73481 0.0
H3378 H 0.78182 0.44943 0.76556 0.0
H3379 H 0.79892 0.4456 0.74493 0.0
H3380 H 0.76549 0.42093 0.72161 0.0
C3381 C 0.7293 0.42543 0.76954 0.0
C3382 C 0.7294 0.43014 0.78434 0.0
C3383 C 0.7413 0.43862 0.78962 0.0
C3384 C 0.75311 0.44209 0.78043 0.0
C3385 C 0.75286 0.43699 0.766 0.0
C3386 C 0.74127 0.42888 0.76054 0.0
C3387 C 0.74434 0.42363 0.74502 0.0
C3388 C 0.74419 0.40673 0.74417 0.0
C3389 C 0.73346 0.43042 0.73408 0.0
C3390 C 0.75963 0.42972 0.7428 0.0
C3391 C 0.76425 0.43755 0.75496 0.0
C3392 C 0.77828 0.44349 0.75588 0.0
C3393 C 0.78792 0.44122 0.74413 0.0
C3394 C 0.78352 0.43302 0.73165 0.0
C3395 C 0.7691 0.42741 0.73092 0.0
H3396 H 0.56109 0.22175 0.26945 0.0
H3397 H 0.5383 0.18684 0.24628 0.0
H3398 H 0.53499 0.20331 0.2249 0.0
H3399 H 0.53949 0.25266 0.25471 0.0
H3400 H 0.55531 0.26445 0.25356 0.0
H3401 H 0.55437 0.25045 0.26755 0.0
H3402 H 0.57907 0.23975 0.25849 0.0
H3403 H 0.58006 0.25364 0.24446 0.0
H3404 H 0.58101 0.23448 0.23948 0.0
H3405 H 0.53621 0.22286 0.20531 0.0
H3406 H 0.54172 0.24395 0.1891 0.0
H3407 H 0.5638 0.26588 0.22524 0.0
C3408 C 0.55513 0.21764 0.26 0.0
C3409 C 0.5499 0.20303 0.25953 0.0
C3410 C 0.54235 0.19802 0.24688 0.0
C3411 C 0.5404 0.2073 0.23471 0.0
C3412 C 0.546 0.22155 0.23542 0.0
C3413 C 0.55314 0.22671 0.24778 0.0
C3414 C 0.559 0.2421 0.24545 0.0
C3415 C 0.55159 0.25306 0.25594 0.0
C3416 C 0.57577 0.24251 0.24706 0.0
C3417 C 0.55435 0.24468 0.22971 0.0
C3418 C 0.54675 0.23276 0.22415 0.0
C3419 C 0.542 0.23233 0.2096 0.0
C3420 C 0.5452 0.24434 0.20047 0.0
C3421 C 0.55314 0.25657 0.20593 0.0
C3422 C 0.55759 0.25676 0.22079 0.0
H3423 H 0.76544 0.56851 0.26653 0.0
H3424 H 0.79547 0.53834 0.24519 0.0
H3425 H 0.77758 0.53454 0.2252 0.0
H3426 H 0.73106 0.54952 0.25577 0.0
H3427 H 0.7215 0.5666 0.25286 0.0
H3428 H 0.73585 0.56553 0.26643 0.0
H3429 H 0.74928 0.58725 0.25386 0.0
H3430 H 0.73504 0.58836 0.24025 0.0
H3431 H 0.75381 0.58603 0.23461 0.0
H3432 H 0.75775 0.5359 0.20645 0.0
H3433 H 0.73724 0.54235 0.19005 0.0
H3434 H 0.71997 0.57174 0.2234 0.0
C3435 C 0.7681 0.56084 0.25783 0.0
C3436 C 0.7818 0.55364 0.25744 0.0
C3437 C 0.78502 0.54393 0.24571 0.0
C3438 C 0.77491 0.54167 0.23434 0.0
C3439 C 0.76164 0.54917 0.23488 0.0
C3440 C 0.75817 0.55853 0.24634 0.0
C3441 C 0.74364 0.56613 0.24368 0.0
C3442 C 0.73235 0.56168 0.25538 0.0
C3443 C 0.74557 0.58293 0.24306 0.0
C3444 C 0.73969 0.55989 0.22875 0.0
C3445 C 0.75015 0.55001 0.22396 0.0
C3446 C 0.74939 0.54346 0.21015 0.0
C3447 C 0.73772 0.54723 0.2009 0.0
C3448 C 0.72699 0.55749 0.20548 0.0
C3449 C 0.7279 0.56371 0.21969 0.0
H3450 H 0.43394 0.73829 0.20166 0.0
H3451 H 0.43561 0.70061 0.23088 0.0
H3452 H 0.437 0.71724 0.25223 0.0
H3453 H 0.4581 0.76312 0.22447 0.0
H3454 H 0.44717 0.779 0.22004 0.0
H3455 H 0.44899 0.76425 0.20693 0.0
H3456 H 0.42075 0.76189 0.2057 0.0
H3457 H 0.41883 0.77649 0.21888 0.0
H3458 H 0.41056 0.75884 0.2224 0.0
H3459 H 0.43385 0.73737 0.27028 0.0
H3460 H 0.42779 0.75998 0.28398 0.0
H3461 H 0.42885 0.78493 0.24337 0.0
C3462 C 0.43509 0.73355 0.21252 0.0
C3463 C 0.43471 0.71816 0.21462 0.0
C3464 C 0.43593 0.71237 0.22902 0.0
C3465 C 0.43676 0.72173 0.24121 0.0
C3466 C 0.43652 0.73685 0.23882 0.0
C3467 C 0.43593 0.74276 0.22484 0.0
C3468 C 0.4344 0.75935 0.22539 0.0
C3469 C 0.44798 0.76687 0.21882 0.0
C3470 C 0.4203 0.76443 0.21764 0.0
C3471 C 0.43355 0.76175 0.24185 0.0
C3472 C 0.43496 0.74862 0.24938 0.0
C3473 C 0.43309 0.74777 0.26456 0.0
C3474 C 0.42958 0.76064 0.27222 0.0
C3475 C 0.42803 0.77418 0.26473 0.0
C3476 C 0.43032 0.77477 0.24939 0.0
H3477 H 0.24099 0.43073 0.20294 0.0
H3478 H 0.27833 0.43034 0.2324 0.0
H3479 H 0.26202 0.43528 0.25341 0.0
H3480 H 0.21889 0.45902 0.22327 0.0
H3481 H 0.20197 0.44941 0.2198 0.0
H3482 H 0.21673 0.44839 0.20668 0.0
H3483 H 0.21609 0.41996 0.20818 0.0
H3484 H 0.20141 0.42088 0.22132 0.0
H3485 H 0.21798 0.41113 0.22583 0.0
H3486 H 0.24192 0.43695 0.27137 0.0
H3487 H 0.21899 0.43493 0.28548 0.0
H3488 H 0.19417 0.43402 0.24481 0.0
C3489 C 0.24573 0.43215 0.21376 0.0
C3490 C 0.26091 0.43032 0.21608 0.0
C3491 C 0.26673 0.43178 0.23042 0.0
C3492 C 0.25756 0.43465 0.2424 0.0
C3493 C 0.2426 0.43601 0.23986 0.0
C3494 C 0.23667 0.43485 0.22592 0.0
C3495 C 0.22007 0.43516 0.22649 0.0
C3496 C 0.21407 0.44881 0.21859 0.0
C3497 C 0.21351 0.42093 0.22008 0.0
C3498 C 0.21763 0.43614 0.24296 0.0
C3499 C 0.2308 0.43685 0.2504 0.0
C3500 C 0.23152 0.43666 0.26569 0.0
C3501 C 0.21845 0.43546 0.2736 0.0
C3502 C 0.20483 0.43442 0.26624 0.0
C3503 C 0.20441 0.43508 0.25072 0.0
H3504 H 0.74347 0.55054 0.78903 0.0
H3505 H 0.70424 0.55216 0.76222 0.0
H3506 H 0.71928 0.54945 0.73984 0.0
H3507 H 0.76397 0.57288 0.76699 0.0
H3508 H 0.78119 0.56355 0.76952 0.0
H3509 H 0.76736 0.56249 0.78352 0.0
H3510 H 0.76796 0.53404 0.78223 0.0
H3511 H 0.7819 0.535 0.76823 0.0
H3512 H 0.76521 0.52497 0.76483 0.0
H3513 H 0.73841 0.55024 0.7205 0.0
H3514 H 0.76034 0.55505 0.70545 0.0
H3515 H 0.78737 0.55344 0.74466 0.0
C3516 C 0.73804 0.5498 0.77847 0.0
C3517 C 0.72271 0.55138 0.77731 0.0
C3518 C 0.71598 0.55086 0.76331 0.0
C3519 C 0.72442 0.54926 0.75056 0.0
C3520 C 0.73957 0.5482 0.75201 0.0
C3521 C 0.74634 0.54839 0.76562 0.0
C3522 C 0.76284 0.54895 0.76406 0.0
C3523 C 0.7692 0.56279 0.77145 0.0
C3524 C 0.76989 0.5349 0.7702 0.0
C3525 C 0.76427 0.54966 0.74749 0.0
C3526 C 0.75072 0.54891 0.74075 0.0
C3527 C 0.7491 0.55057 0.72562 0.0
C3528 C 0.76162 0.55335 0.71717 0.0
C3529 C 0.77554 0.55457 0.72389 0.0
C3530 C 0.77689 0.55234 0.7392 0.0
H3531 H 0.43119 0.78509 0.744 0.0
H3532 H 0.4261 0.76041 0.70347 0.0
H3533 H 0.42823 0.73721 0.71734 0.0
H3534 H 0.45712 0.75924 0.76212 0.0
H3535 H 0.44891 0.76202 0.77992 0.0
H3536 H 0.44889 0.77668 0.76658 0.0
H3537 H 0.42066 0.77861 0.76878 0.0
H3538 H 0.42059 0.76395 0.78204 0.0
H3539 H 0.40959 0.76249 0.76565 0.0
H3540 H 0.42779 0.71687 0.73579 0.0
H3541 H 0.42548 0.70078 0.75754 0.0
H3542 H 0.43139 0.73855 0.78608 0.0
C3543 C 0.43087 0.77482 0.738 0.0
C3544 C 0.42852 0.77456 0.72265 0.0
C3545 C 0.42794 0.76088 0.71522 0.0
C3546 C 0.42917 0.74764 0.723 0.0
C3547 C 0.4311 0.74826 0.73818 0.0
C3548 C 0.43209 0.76149 0.7456 0.0
C3549 C 0.43311 0.75912 0.76205 0.0
C3550 C 0.44789 0.76459 0.76802 0.0
C3551 C 0.42022 0.76648 0.77009 0.0
C3552 C 0.43207 0.74251 0.76275 0.0
C3553 C 0.43104 0.73646 0.74885 0.0
C3554 C 0.42885 0.72145 0.74672 0.0
C3555 C 0.42751 0.7124 0.75913 0.0
C3556 C 0.42839 0.7184 0.77347 0.0
C3557 C 0.43095 0.73362 0.77525 0.0
H3558 H 0.24249 0.43375 0.78712 0.0
H3559 H 0.2827 0.435 0.76175 0.0
H3560 H 0.26832 0.43607 0.73884 0.0
H3561 H 0.22423 0.40984 0.76479 0.0
H3562 H 0.20637 0.41809 0.76648 0.0
H3563 H 0.21956 0.42026 0.78098 0.0
H3564 H 0.21728 0.44859 0.77916 0.0
H3565 H 0.20393 0.44652 0.7647 0.0
H3566 H 0.22008 0.45753 0.7617 0.0
H3567 H 0.25007 0.43285 0.7189 0.0
H3568 H 0.22899 0.42661 0.70314 0.0
H3569 H 0.20037 0.4278 0.74118 0.0
C3570 C 0.24826 0.43475 0.77677 0.0
C3571 C 0.26371 0.43436 0.7762 0.0
C3572 C 0.27087 0.43534 0.76243 0.0
C3573 C 0.26279 0.43599 0.74936 0.0
C3574 C 0.24757 0.43578 0.75025 0.0
C3575 C 0.24034 0.43536 0.7636 0.0
C3576 C 0.22396 0.43374 0.76146 0.0
C3577 C 0.2182 0.41964 0.76886 0.0
C3578 C 0.21583 0.44741 0.76709 0.0
C3579 C 0.22319 0.43266 0.74486 0.0
C3580 C 0.23692 0.43405 0.73862 0.0
C3581 C 0.23922 0.43208 0.72361 0.0
C3582 C 0.2272 0.42846 0.71476 0.0
C3583 C 0.21307 0.42686 0.72094 0.0
C3584 C 0.21101 0.42926 0.73614 0.0
H3585 H 0.55206 0.2448 0.78763 0.0
H3586 H 0.55107 0.28442 0.76106 0.0
H3587 H 0.54821 0.26938 0.73873 0.0
H3588 H 0.57369 0.22461 0.7645 0.0
H3589 H 0.56469 0.20718 0.7672 0.0
H3590 H 0.56404 0.22091 0.7814 0.0
H3591 H 0.53569 0.21997 0.78124 0.0
H3592 H 0.53625 0.2061 0.76709 0.0
H3593 H 0.52595 0.22275 0.76423 0.0
H3594 H 0.54968 0.25048 0.71926 0.0
H3595 H 0.55409 0.22861 0.70381 0.0
H3596 H 0.5533 0.20095 0.74263 0.0
C3597 C 0.55077 0.25031 0.77715 0.0
C3598 C 0.55175 0.26578 0.77607 0.0
C3599 C 0.55033 0.27258 0.76214 0.0
C3600 C 0.54865 0.26414 0.74939 0.0
C3601 C 0.54826 0.2489 0.75076 0.0
C3602 C 0.54909 0.24202 0.76428 0.0
C3603 C 0.54975 0.22545 0.76254 0.0
C3604 C 0.56388 0.21918 0.76931 0.0
C3605 C 0.53609 0.21814 0.76917 0.0
C3606 C 0.54983 0.22417 0.74593 0.0
C3607 C 0.5488 0.23784 0.73937 0.0
C3608 C 0.55012 0.23967 0.72423 0.0
C3609 C 0.5527 0.22723 0.71555 0.0
C3610 C 0.55384 0.21314 0.72204 0.0
C3611 C 0.5521 0.21157 0.73738 0.0
H3612 H 0.76176 0.41882 0.27026 0.0
H3613 H 0.79488 0.4441 0.24723 0.0
H3614 H 0.77672 0.4508 0.22827 0.0
H3615 H 0.74643 0.40331 0.23914 0.0
H3616 H 0.72777 0.40357 0.24557 0.0
H3617 H 0.74258 0.40273 0.25857 0.0
H3618 H 0.73279 0.42611 0.27155 0.0
H3619 H 0.71789 0.427 0.25859 0.0
H3620 H 0.72982 0.44261 0.261 0.0
H3621 H 0.75598 0.45258 0.21062 0.0
H3622 H 0.7343 0.44864 0.19496 0.0
H3623 H 0.71469 0.4217 0.22908 0.0
C3624 C 0.76506 0.42611 0.26144 0.0
C3625 C 0.77966 0.43108 0.26025 0.0
C3626 C 0.78371 0.44024 0.24835 0.0
C3627 C 0.77346 0.44415 0.23758 0.0
C3628 C 0.75923 0.4388 0.23888 0.0
C3629 C 0.755 0.42997 0.2505 0.0
C3630 C 0.73948 0.42442 0.2485 0.0
C3631 C 0.73905 0.40751 0.2479 0.0
C3632 C 0.7294 0.4304 0.26063 0.0
C3633 C 0.73582 0.43114 0.23372 0.0
C3634 C 0.74728 0.43959 0.22849 0.0
C3635 C 0.74686 0.44616 0.21467 0.0
C3636 C 0.73451 0.44382 0.20585 0.0
C3637 C 0.7228 0.4349 0.21082 0.0
C3638 C 0.72338 0.42873 0.22506 0.0
H3639 H 0.55004 0.79061 0.24334 0.0
H3640 H 0.54825 0.76439 0.28314 0.0
H3641 H 0.54433 0.74206 0.26824 0.0
H3642 H 0.52318 0.7682 0.22129 0.0
H3643 H 0.53372 0.77056 0.20471 0.0
H3644 H 0.53362 0.78479 0.21851 0.0
H3645 H 0.56195 0.78385 0.2197 0.0
H3646 H 0.56214 0.76961 0.20601 0.0
H3647 H 0.57088 0.76659 0.22352 0.0
H3648 H 0.54445 0.7224 0.24929 0.0
H3649 H 0.5486 0.70673 0.22754 0.0
H3650 H 0.55025 0.74557 0.1999 0.0
C3651 C 0.54835 0.78024 0.24892 0.0
C3652 C 0.54936 0.77922 0.26438 0.0
C3653 C 0.54747 0.76541 0.2713 0.0
C3654 C 0.54517 0.75268 0.26294 0.0
C3655 C 0.54471 0.75397 0.24768 0.0
C3656 C 0.54614 0.76741 0.24072 0.0
C3657 C 0.54688 0.76558 0.22418 0.0
C3658 C 0.53356 0.7727 0.21674 0.0
C3659 C 0.56132 0.77177 0.218 0.0
C3660 C 0.5463 0.74898 0.22298 0.0
C3661 C 0.54479 0.74251 0.23665 0.0
C3662 C 0.54532 0.72732 0.23849 0.0
C3663 C 0.54774 0.71851 0.22609 0.0
C3664 C 0.54965 0.72493 0.21204 0.0
C3665 C 0.54855 0.74034 0.21046 0.0
H3666 H 0.2674 0.5646 0.21924 0.0
H3667 H 0.24436 0.5454 0.18216 0.0
H3668 H 0.22272 0.54124 0.19789 0.0
H3669 H 0.25124 0.54053 0.24799 0.0
H3670 H 0.25033 0.55538 0.26109 0.0
H3671 H 0.2646 0.55512 0.2474 0.0
H3672 H 0.25678 0.58108 0.23867 0.0
H3673 H 0.2425 0.5814 0.25227 0.0
H3674 H 0.23808 0.5842 0.23317 0.0
H3675 H 0.20269 0.54197 0.21676 0.0
H3676 H 0.18599 0.54712 0.23753 0.0
H3677 H 0.22231 0.56533 0.26234 0.0
C3678 C 0.25792 0.55923 0.2145 0.0
C3679 C 0.25756 0.5553 0.19949 0.0
C3680 C 0.24488 0.54847 0.19366 0.0
C3681 C 0.23255 0.54603 0.20251 0.0
C3682 C 0.23314 0.55034 0.21719 0.0
C3683 C 0.24554 0.55669 0.22318 0.0
C3684 C 0.24301 0.5613 0.23896 0.0
C3685 C 0.25288 0.55256 0.24948 0.0
C3686 C 0.24522 0.57798 0.24087 0.0
C3687 C 0.22711 0.55702 0.24076 0.0
C3688 C 0.22163 0.55058 0.22813 0.0
C3689 C 0.20691 0.54675 0.2268 0.0
C3690 C 0.19751 0.54974 0.23862 0.0
C3691 C 0.20289 0.55651 0.25156 0.0
C3692 C 0.21793 0.55991 0.25269 0.0
H3693 H 0.42006 0.22228 0.26901 0.0
H3694 H 0.43912 0.18578 0.24501 0.0
H3695 H 0.4432 0.20208 0.22362 0.0
H3696 H 0.40039 0.2368 0.23983 0.0
H3697 H 0.40309 0.25578 0.24486 0.0
H3698 H 0.40339 0.24176 0.25878 0.0
H3699 H 0.42918 0.25035 0.26705 0.0
H3700 H 0.42894 0.26447 0.25316 0.0
H3701 H 0.44376 0.25142 0.25373 0.0
H3702 H 0.44294 0.22188 0.20406 0.0
H3703 H 0.43842 0.24344 0.18811 0.0
H3704 H 0.41949 0.26669 0.22519 0.0
C3705 C 0.42537 0.21776 0.25937 0.0
C3706 C 0.42932 0.20278 0.25867 0.0
C3707 C 0.43606 0.19725 0.24579 0.0
C3708 C 0.43844 0.20643 0.2336 0.0
C3709 C 0.4341 0.22109 0.23454 0.0
C3710 C 0.42779 0.22673 0.24715 0.0
C3711 C 0.42315 0.24255 0.24508 0.0
C3712 C 0.40652 0.24431 0.24726 0.0
C3713 C 0.43178 0.2528 0.25536 0.0
C3714 C 0.42747 0.24485 0.22921 0.0
C3715 C 0.43391 0.23242 0.22333 0.0
C3716 C 0.43808 0.23173 0.2086 0.0
C3717 C 0.43545 0.24402 0.19962 0.0
C3718 C 0.42865 0.25675 0.20542 0.0
C3719 C 0.42483 0.25717 0.22045 0.0
H3720 H 0.7826 0.74463 0.55205 0.0
H3721 H 0.75586 0.70533 0.55551 0.0
H3722 H 0.73361 0.72031 0.55207 0.0
H3723 H 0.76047 0.76675 0.57289 0.0
H3724 H 0.76314 0.78333 0.56238 0.0
H3725 H 0.77706 0.76938 0.56247 0.0
H3726 H 0.77609 0.76799 0.53403 0.0
H3727 H 0.76218 0.78204 0.53384 0.0
H3728 H 0.75884 0.76462 0.52499 0.0
H3729 H 0.71434 0.73966 0.55195 0.0
H3730 H 0.69939 0.76207 0.55478 0.0
H3731 H 0.73854 0.78888 0.55121 0.0
C3732 C 0.7721 0.73912 0.55164 0.0
C3733 C 0.77095 0.72381 0.55397 0.0
C3734 C 0.75698 0.71705 0.55369 0.0
C3735 C 0.74429 0.72545 0.55169 0.0
C3736 C 0.74576 0.74059 0.54989 0.0
C3737 C 0.75931 0.74737 0.54972 0.0
C3738 C 0.75781 0.76394 0.54907 0.0
C3739 C 0.76504 0.77127 0.5625 0.0
C3740 C 0.7641 0.77 0.53462 0.0
C3741 C 0.74131 0.76544 0.54951 0.0
C3742 C 0.73456 0.75183 0.54977 0.0
C3743 C 0.71947 0.75038 0.55145 0.0
C3744 C 0.71108 0.76316 0.5531 0.0
C3745 C 0.7178 0.77719 0.55311 0.0
C3746 C 0.73307 0.77831 0.55097 0.0
H3747 H 0.78483 0.24404 0.43477 0.0
H3748 H 0.75884 0.28393 0.43473 0.0
H3749 H 0.73631 0.26914 0.43692 0.0
H3750 H 0.76242 0.22452 0.41189 0.0
H3751 H 0.76455 0.20689 0.42068 0.0
H3752 H 0.77881 0.22044 0.42216 0.0
H3753 H 0.77752 0.21896 0.45057 0.0
H3754 H 0.76328 0.20529 0.44918 0.0
H3755 H 0.76025 0.22179 0.45974 0.0
H3756 H 0.7168 0.25053 0.4351 0.0
H3757 H 0.7013 0.22907 0.42948 0.0
H3758 H 0.73953 0.20083 0.43063 0.0
C3759 C 0.77442 0.24964 0.43575 0.0
C3760 C 0.77353 0.26511 0.43473 0.0
C3761 C 0.75972 0.27208 0.43557 0.0
C3762 C 0.74688 0.26378 0.43689 0.0
C3763 C 0.74805 0.24852 0.43737 0.0
C3764 C 0.76145 0.24148 0.43692 0.0
C3765 C 0.75953 0.22495 0.43584 0.0
C3766 C 0.76675 0.21885 0.42181 0.0
C3767 C 0.7655 0.2173 0.44966 0.0
C3768 C 0.74299 0.22388 0.4351 0.0
C3769 C 0.73661 0.23761 0.43625 0.0
C3770 C 0.72162 0.23968 0.4345 0.0
C3771 C 0.71292 0.22745 0.43124 0.0
C3772 C 0.71923 0.21332 0.42974 0.0
C3773 C 0.73441 0.21147 0.43203 0.0
H3774 H 0.78479 0.74084 0.43083 0.0
H3775 H 0.7566 0.70249 0.42865 0.0
H3776 H 0.73488 0.71848 0.43091 0.0
H3777 H 0.76157 0.76318 0.4562 0.0
H3778 H 0.76562 0.77997 0.44648 0.0
H3779 H 0.77899 0.76542 0.44715 0.0
H3780 H 0.78021 0.76523 0.41869 0.0
H3781 H 0.76684 0.7797 0.41792 0.0
H3782 H 0.76361 0.76269 0.40827 0.0
H3783 H 0.71636 0.7385 0.43059 0.0
H3784 H 0.70217 0.76124 0.42695 0.0
H3785 H 0.7423 0.78679 0.4287 0.0
C3786 C 0.77406 0.73579 0.43126 0.0
C3787 C 0.77234 0.72043 0.42972 0.0
C3788 C 0.75813 0.71424 0.4299 0.0
C3789 C 0.74574 0.72322 0.43124 0.0
C3790 C 0.74778 0.73836 0.43237 0.0
C3791 C 0.76157 0.74462 0.43241 0.0
C3792 C 0.76069 0.76126 0.43218 0.0
C3793 C 0.7671 0.76784 0.44635 0.0
C3794 C 0.76828 0.76758 0.41845 0.0
C3795 C 0.74425 0.76336 0.43151 0.0
C3796 C 0.73702 0.75001 0.43189 0.0
C3797 C 0.72187 0.74903 0.43049 0.0
C3798 C 0.71392 0.76201 0.42838 0.0
C3799 C 0.72113 0.77579 0.42757 0.0
C3800 C 0.73647 0.77645 0.42945 0.0
H3801 H 0.22377 0.71553 0.41917 0.0
H3802 H 0.18711 0.73617 0.4414 0.0
H3803 H 0.20266 0.75761 0.44726 0.0
H3804 H 0.253 0.72989 0.44379 0.0
H3805 H 0.26553 0.73245 0.4287 0.0
H3806 H 0.25212 0.71791 0.42803 0.0
H3807 H 0.24245 0.72802 0.40322 0.0
H3808 H 0.25577 0.74257 0.40383 0.0
H3809 H 0.2366 0.74691 0.40207 0.0
H3810 H 0.22114 0.77787 0.44805 0.0
H3811 H 0.24123 0.79553 0.44373 0.0
H3812 H 0.26596 0.7616 0.42123 0.0
C3813 C 0.2191 0.72441 0.42556 0.0
C3814 C 0.20425 0.72418 0.42987 0.0
C3815 C 0.19848 0.73611 0.43801 0.0
C3816 C 0.20724 0.7483 0.44144 0.0
C3817 C 0.22176 0.74833 0.43674 0.0
C3818 C 0.22768 0.73665 0.42905 0.0
C3819 C 0.2432 0.73992 0.4242 0.0
C3820 C 0.25411 0.72942 0.43163 0.0
C3821 C 0.24458 0.73932 0.40733 0.0
C3822 C 0.24491 0.75545 0.42992 0.0
C3823 C 0.23248 0.76003 0.43728 0.0
C3824 C 0.23103 0.77434 0.44255 0.0
C3825 C 0.24247 0.78429 0.44 0.0
C3826 C 0.25517 0.77989 0.43225 0.0
C3827 C 0.2565 0.76519 0.42744 0.0
H3828 H 0.23874 0.20144 0.42727 0.0
H3829 H 0.2765 0.22956 0.43411 0.0
H3830 H 0.26016 0.25058 0.43895 0.0
H3831 H 0.2191 0.22614 0.40712 0.0
H3832 H 0.20129 0.22148 0.41427 0.0
H3833 H 0.21565 0.20799 0.41431 0.0
H3834 H 0.21256 0.20448 0.44241 0.0
H3835 H 0.19806 0.21793 0.44245 0.0
H3836 H 0.21363 0.22022 0.45441 0.0
H3837 H 0.2403 0.26912 0.43906 0.0
H3838 H 0.21813 0.28396 0.43468 0.0
H3839 H 0.193 0.24405 0.42778 0.0
C3840 C 0.24353 0.2119 0.43031 0.0
C3841 C 0.25886 0.21388 0.43045 0.0
C3842 C 0.26477 0.22782 0.43402 0.0
C3843 C 0.25558 0.23981 0.43684 0.0
C3844 C 0.2405 0.23765 0.4361 0.0
C3845 C 0.23448 0.22403 0.43303 0.0
C3846 C 0.21802 0.22507 0.43121 0.0
C3847 C 0.21325 0.21987 0.41582 0.0
C3848 C 0.2101 0.21641 0.44334 0.0
C3849 C 0.21583 0.24147 0.43308 0.0
C3850 C 0.22891 0.24848 0.43614 0.0
C3851 C 0.22993 0.26374 0.43699 0.0
C3852 C 0.21731 0.27208 0.43442 0.0
C3853 C 0.20385 0.26514 0.43101 0.0
C3854 C 0.20307 0.24963 0.43066 0.0
H3855 H 0.21553 0.26588 0.56305 0.0
H3856 H 0.17963 0.24228 0.5425 0.0
H3857 H 0.19618 0.22137 0.53748 0.0
H3858 H 0.24476 0.25247 0.53874 0.0
H3859 H 0.25779 0.25121 0.55358 0.0
H3860 H 0.24348 0.26483 0.55419 0.0
H3861 H 0.23507 0.25483 0.5795 0.0
H3862 H 0.2493 0.24119 0.57896 0.0
H3863 H 0.23051 0.23563 0.58133 0.0
H3864 H 0.21619 0.20238 0.5364 0.0
H3865 H 0.23793 0.1866 0.53973 0.0
H3866 H 0.26058 0.22268 0.5612 0.0
C3867 C 0.21119 0.25642 0.55727 0.0
C3868 C 0.19631 0.25571 0.5531 0.0
C3869 C 0.19101 0.24305 0.54575 0.0
C3870 C 0.20034 0.23115 0.54282 0.0
C3871 C 0.21491 0.23213 0.54728 0.0
C3872 C 0.22031 0.24445 0.55432 0.0
C3873 C 0.23612 0.24239 0.55886 0.0
C3874 C 0.24613 0.25338 0.55086 0.0
C3875 C 0.23784 0.24357 0.57566 0.0
C3876 C 0.23869 0.22685 0.55355 0.0
C3877 C 0.22638 0.22117 0.54676 0.0
C3878 C 0.22594 0.20676 0.54156 0.0
C3879 C 0.23833 0.19789 0.54352 0.0
C3880 C 0.25095 0.20343 0.55069 0.0
C3881 C 0.25115 0.21817 0.55555 0.0
H3882 H 0.78568 0.24615 0.55521 0.0
H3883 H 0.75886 0.2855 0.55585 0.0
H3884 H 0.7369 0.27046 0.55107 0.0
H3885 H 0.76373 0.2255 0.52688 0.0
H3886 H 0.76637 0.20829 0.53634 0.0
H3887 H 0.78031 0.22232 0.53715 0.0
H3888 H 0.77936 0.22161 0.56561 0.0
H3889 H 0.76541 0.20768 0.5649 0.0
H3890 H 0.76212 0.22451 0.57482 0.0
H3891 H 0.7177 0.25125 0.55027 0.0
H3892 H 0.70246 0.22902 0.55308 0.0
H3893 H 0.7415 0.20191 0.55255 0.0
C3894 C 0.77525 0.25164 0.55389 0.0
C3895 C 0.77396 0.26699 0.55583 0.0
C3896 C 0.76009 0.27375 0.55436 0.0
C3897 C 0.74756 0.26531 0.55158 0.0
C3898 C 0.74912 0.25014 0.5502 0.0
C3899 C 0.76262 0.24335 0.55117 0.0
C3900 C 0.76108 0.22676 0.55081 0.0
C3901 C 0.7683 0.22034 0.53697 0.0
C3902 C 0.76736 0.21974 0.56487 0.0
C3903 C 0.74458 0.22529 0.55015 0.0
C3904 C 0.73791 0.23893 0.54959 0.0
C3905 C 0.72277 0.2405 0.55037 0.0
C3906 C 0.71421 0.22783 0.55202 0.0
C3907 C 0.72081 0.21379 0.55287 0.0
C3908 C 0.73616 0.21249 0.55157 0.0
H3909 H 0.24611 0.78695 0.55274 0.0
H3910 H 0.28532 0.76175 0.56219 0.0
H3911 H 0.27105 0.73878 0.5606 0.0
H3912 H 0.22266 0.76618 0.57455 0.0
H3913 H 0.20705 0.76728 0.56248 0.0
H3914 H 0.22061 0.78163 0.56231 0.0
H3915 H 0.22437 0.77786 0.53433 0.0
H3916 H 0.21076 0.7635 0.5344 0.0
H3917 H 0.22886 0.75984 0.52741 0.0
H3918 H 0.25236 0.71894 0.5607 0.0
H3919 H 0.23034 0.70337 0.56253 0.0
H3920 H 0.20299 0.7412 0.55301 0.0
C3921 C 0.25175 0.77657 0.55411 0.0
C3922 C 0.26684 0.77611 0.5575 0.0
C3923 C 0.27378 0.76235 0.55954 0.0
C3924 C 0.26577 0.74924 0.55862 0.0
C3925 C 0.25085 0.75007 0.55559 0.0
C3926 C 0.24389 0.76336 0.55331 0.0
C3927 C 0.22752 0.76125 0.55145 0.0
C3928 C 0.21896 0.76957 0.56341 0.0
C3929 C 0.22259 0.76589 0.53597 0.0
C3930 C 0.22634 0.74475 0.55346 0.0
C3931 C 0.23996 0.73853 0.55567 0.0
C3932 C 0.24165 0.72364 0.55876 0.0
C3933 C 0.22907 0.71489 0.55982 0.0
C3934 C 0.21498 0.72105 0.55783 0.0
C3935 C 0.21364 0.73613 0.55435 0.0
H3936 H 0.02391 0.16767 0.31955 0.0
H3937 H 0.03179 0.20038 0.35333 0.0
H3938 H 0.00567 0.19934 0.36034 0.0
H3939 H -0.00675 0.18258 0.30668 0.0
H3940 H 0.98368 0.16574 0.30251 0.0
H3941 H 0.00331 0.16596 0.30286 0.0
H3942 H 0.0034 0.14498 0.32213 0.0
H3943 H 0.98367 0.1446 0.32176 0.0
H3944 H -0.00682 0.14706 0.33895 0.0
H3945 H 0.97833 0.19839 0.3603 0.0
H3946 H 0.95236 0.19821 0.35286 0.0
H3947 H 0.96231 0.16656 0.31861 0.0
C3948 C 0.02028 0.17418 0.32882 0.0
C3949 C 0.02989 0.18403 0.33597 0.0
C3950 C 0.02464 0.19266 0.34779 0.0
C3951 C 0.00982 0.19209 0.35187 0.0
C3952 C 0.00047 0.18276 0.3441 0.0
C3953 C 0.00555 0.17385 0.33289 0.0
C3954 C -0.00692 0.16653 0.32472 0.0
C3955 C -0.00665 0.17045 0.30823 0.0
C3956 C -0.00665 0.1498 0.32703 0.0
C3957 C 0.98015 0.17342 0.33245 0.0
C3958 C 0.9846 0.18242 0.34388 0.0
C3959 C 0.97469 0.19112 0.35161 0.0
C3960 C 0.95996 0.19097 0.34727 0.0
C3961 C 0.95532 0.18233 0.33517 0.0
C3962 C 0.96549 0.1731 0.32804 0.0
H3963 H 0.78163 0.95895 0.33799 0.0
H3964 H 0.82489 0.94933 0.32099 0.0
H3965 H 0.83255 0.97478 0.32612 0.0
H3966 H 0.77751 0.99062 0.32112 0.0
H3967 H 0.76792 0.00049 0.33535 0.0
H3968 H 0.76706 0.98081 0.33478 0.0
H3969 H 0.77682 0.97938 0.36148 0.0
H3970 H 0.77759 -0.00082 0.3622 0.0
H3971 H 0.79371 0.98849 0.36622 0.0
H3972 H 0.83353 0.00179 0.32663 0.0
H3973 H 0.82791 0.02812 0.32338 0.0
H3974 H 0.78431 0.02084 0.34067 0.0
C3975 C 0.79292 0.96203 0.33607 0.0
C3976 C 0.8027 0.95218 0.32921 0.0
C3977 C 0.81725 0.9567 0.32634 0.0
C3978 C 0.82172 0.97113 0.32928 0.0
C3979 C 0.81157 0.98089 0.33523 0.0
C3980 C 0.79751 0.97648 0.33884 0.0
C3981 C 0.78803 0.98956 0.34281 0.0
C3982 C 0.77434 0.99041 0.33292 0.0
C3983 C 0.78379 0.98913 0.35915 0.0
C3984 C 0.79858 0.00204 0.33973 0.0
C3985 C 0.81222 -0.00321 0.33573 0.0
C3986 C 0.82308 0.00608 0.33024 0.0
C3987 C 0.81979 0.02101 0.32836 0.0
C3988 C 0.80577 0.02649 0.33201 0.0
C3989 C 0.79527 0.01699 0.33827 0.0
H3990 H 0.96075 0.82157 0.3115 0.0
H3991 H 0.95119 0.80046 0.35314 0.0
H3992 H 0.97691 0.80374 0.36072 0.0
H3993 H -0.00853 0.80396 0.30486 0.0
H3994 H 0.00156 0.8188 0.29648 0.0
H3995 H 0.98195 0.81893 0.29606 0.0
H3996 H 0.98165 0.84452 0.30858 0.0
H3997 H 0.00139 0.84454 0.30893 0.0
H3998 H -0.00878 0.8472 0.3257 0.0
H3999 H 0.00406 0.80366 0.36124 0.0
H4000 H 0.0301 0.8005 0.35473 0.0
H4001 H 0.0222 0.82187 0.31286 0.0
C4002 C 0.96392 0.81824 0.32247 0.0
C4003 C 0.95399 0.81082 0.33175 0.0
C4004 C 0.95861 0.80626 0.34589 0.0
C4005 C 0.9732 0.80814 0.35031 0.0
C4006 C 0.98296 0.81476 0.34056 0.0
C4007 C 0.97845 0.81996 0.327 0.0
C4008 C -0.00863 0.82448 0.3176 0.0
C4009 C -0.0084 0.81603 0.3029 0.0
C4010 C -0.00859 0.84118 0.31506 0.0
C4011 C 0.00387 0.81993 0.32752 0.0
C4012 C -0.00117 0.81474 0.34088 0.0
C4013 C 0.00819 0.80811 0.35101 0.0
C4014 C 0.02296 0.80631 0.3472 0.0
C4015 C 0.02817 0.81102 0.33332 0.0
C4016 C 0.0186 0.81843 0.32367 0.0
H4017 H 0.16959 0.02317 0.33007 0.0
H4018 H 0.20713 0.03137 0.35807 0.0
H4019 H 0.20852 0.00485 0.36377 0.0
H4020 H 0.15437 0.98999 0.351 0.0
H4021 H 0.14945 0.98126 0.3339 0.0
H4022 H 0.14876 0.001 0.33553 0.0
H4023 H 0.16582 0.00338 0.3129 0.0
H4024 H 0.16671 0.98376 0.31129 0.0
H4025 H 0.18335 -0.00573 0.31308 0.0
H4026 H 0.20925 0.97739 0.36195 0.0
H4027 H 0.20938 0.95188 0.35267 0.0
H4028 H 0.17168 0.96164 0.32541 0.0
C4029 C 0.17771 0.0195 0.33792 0.0
C4030 C 0.18819 0.02934 0.3437 0.0
C4031 C 0.19888 0.02404 0.35364 0.0
C4032 C 0.19973 0.00898 0.35695 0.0
C4033 C 0.18973 -0.00058 0.35036 0.0
C4034 C 0.17878 0.00453 0.34119 0.0
C4035 C 0.17088 0.992 0.33361 0.0
C4036 C 0.15492 0.991 0.33883 0.0
C4037 C 0.17177 -0.00656 0.31674 0.0
C4038 C 0.17974 0.9791 0.33913 0.0
C4039 C 0.19029 0.98352 0.34912 0.0
C4040 C 0.2008 0.97376 0.35444 0.0
C4041 C 0.20081 0.95928 0.34908 0.0
C4042 C 0.1905 0.95477 0.33835 0.0
C4043 C 0.17956 0.9647 0.33376 0.0
H4044 H 0.0173 0.81607 0.6712 0.0
H4045 H 0.02476 0.79122 0.63123 0.0
H4046 H -0.00097 0.79509 0.62399 0.0
H4047 H 0.98591 0.80064 0.67999 0.0
H4048 H 0.97685 0.81664 0.68733 0.0
H4049 H -0.00356 0.81577 0.68725 0.0
H4050 H -0.00236 0.8402 0.67264 0.0
H4051 H 0.97792 0.84117 0.67272 0.0
H4052 H 0.98777 0.84191 0.65556 0.0
H4053 H 0.97184 0.79631 0.62409 0.0
H4054 H 0.94595 0.79461 0.63165 0.0
H4055 H 0.95601 0.81904 0.67133 0.0
C4056 C 0.01367 0.81198 0.66063 0.0
C4057 C 0.02302 0.80338 0.65176 0.0
C4058 C 0.01781 0.79792 0.63816 0.0
C4059 C 0.00321 0.80013 0.63392 0.0
C4060 C -0.00597 0.80801 0.6433 0.0
C4061 C -0.00086 0.81405 0.65629 0.0
C4062 C 0.98671 0.81999 0.66555 0.0
C4063 C 0.98647 0.81282 0.68092 0.0
C4064 C 0.98756 0.83682 0.66668 0.0
C4065 C 0.97374 0.81526 0.65633 0.0
C4066 C 0.97817 0.80877 0.64331 0.0
C4067 C 0.96821 0.80175 0.63401 0.0
C4068 C 0.95351 0.80082 0.63841 0.0
C4069 C 0.94897 0.80674 0.65205 0.0
C4070 C 0.95911 0.81463 0.66072 0.0
H4071 H 0.16202 0.02314 0.67512 0.0
H4072 H 0.185 0.03009 0.634 0.0
H4073 H 0.18188 0.00387 0.62785 0.0
H4074 H 0.17919 0.99255 0.6843 0.0
H4075 H 0.16402 0.98304 0.69268 0.0
H4076 H 0.16406 0.00273 0.69194 0.0
H4077 H 0.13907 0.00249 0.67847 0.0
H4078 H 0.13887 0.98268 0.67927 0.0
H4079 H 0.13695 0.99191 0.66185 0.0
H4080 H 0.18139 0.97667 0.62875 0.0
H4081 H 0.18375 0.95087 0.63668 0.0
H4082 H 0.16127 0.96131 0.67735 0.0
C4083 C 0.16581 0.01928 0.66453 0.0
C4084 C 0.17365 0.02864 0.65499 0.0
C4085 C 0.17886 0.02311 0.64142 0.0
C4086 C 0.17707 0.00824 0.63781 0.0
C4087 C 0.16995 -0.00091 0.64782 0.0
C4088 C 0.16424 0.00444 0.66085 0.0
C4089 C 0.15925 0.99206 0.6708 0.0
C4090 C 0.16711 0.99263 0.6858 0.0
C4091 C 0.14254 0.9923 0.6727 0.0
C4092 C 0.16404 0.97892 0.66182 0.0
C4093 C 0.16978 0.98318 0.64841 0.0
C4094 C 0.17655 0.97316 0.63902 0.0
C4095 C 0.1779 0.95852 0.64365 0.0
C4096 C 0.17262 0.9541 0.6576 0.0
C4097 C 0.16514 0.96433 0.66651 0.0
H4098 H 0.95551 0.20489 0.64223 0.0
H4099 H 0.94585 0.1602 0.65553 0.0
H4100 H 0.97138 0.15314 0.65064 0.0
H4101 H 0.98683 0.19514 0.61453 0.0
H4102 H -0.00315 0.21119 0.62038 0.0
H4103 H 0.97711 0.21157 0.61977 0.0
H4104 H 0.97657 0.21958 0.64708 0.0
H4105 H -0.00386 0.21906 0.64786 0.0
H4106 H 0.98555 0.20831 0.66067 0.0
H4107 H -0.00184 0.15266 0.65184 0.0
H4108 H 0.02381 0.15862 0.65785 0.0
H4109 H 0.01686 0.20344 0.64334 0.0
C4110 C 0.95862 0.19345 0.64329 0.0
C4111 C 0.94875 0.18307 0.64916 0.0
C4112 C 0.95326 0.1683 0.65095 0.0
C4113 C 0.96774 0.16418 0.64813 0.0
C4114 C 0.97755 0.17492 0.64339 0.0
C4115 C 0.97313 0.18923 0.64067 0.0
C4116 C 0.98619 0.19924 0.63829 0.0
C4117 C 0.98678 0.2046 0.62229 0.0
C4118 C 0.9861 0.21229 0.64913 0.0
C4119 C -0.00143 0.18866 0.6415 0.0
C4120 C -0.00661 0.17457 0.64395 0.0
C4121 C 0.00244 0.16349 0.64941 0.0
C4122 C 0.01698 0.16698 0.65289 0.0
C4123 C 0.02231 0.18144 0.6509 0.0
C4124 C 0.01315 0.1922 0.64457 0.0
H4125 H 0.81237 0.0224 0.68207 0.0
H4126 H 0.79254 0.02964 0.63936 0.0
H4127 H 0.79553 0.00328 0.63352 0.0
H4128 H 0.83815 0.99203 0.67077 0.0
H4129 H 0.83515 0.9824 0.68782 0.0
H4130 H 0.83438 0.00221 0.68735 0.0
H4131 H 0.80834 0.00144 0.69866 0.0
H4132 H 0.80901 0.98172 0.69914 0.0
H4133 H 0.79425 0.99084 0.68967 0.0
H4134 H 0.79708 0.97586 0.6339 0.0
H4135 H 0.79601 0.94966 0.64082 0.0
H4136 H 0.81445 0.96027 0.68349 0.0
C4137 C 0.8091 0.01854 0.67129 0.0
C4138 C 0.80234 0.02807 0.66111 0.0
C4139 C 0.79784 0.02253 0.64728 0.0
C4140 C 0.79957 0.0076 0.64385 0.0
C4141 C 0.80587 -0.00162 0.65433 0.0
C4142 C 0.81063 0.00367 0.66776 0.0
C4143 C 0.81521 0.99128 0.67787 0.0
C4144 C 0.83171 0.99203 0.68114 0.0
C4145 C 0.80616 0.99133 0.69216 0.0
C4146 C 0.81157 0.97816 0.66832 0.0
C4147 C 0.80655 0.98248 0.65465 0.0
C4148 C 0.80127 0.97234 0.64445 0.0
C4149 C 0.80069 0.95747 0.64849 0.0
C4150 C 0.8052 0.95293 0.66268 0.0
C4151 C 0.81113 0.96338 0.6725 0.0
H4152 H 0.33681 0.96752 0.18917 0.0
H4153 H 0.3092 0.95756 0.15167 0.0
H4154 H 0.30849 0.98392 0.14528 0.0
H4155 H 0.31808 -0.00328 0.2007 0.0
H4156 H 0.33342 0.00765 0.20674 0.0
H4157 H 0.33496 0.988 0.20616 0.0
H4158 H 0.35769 0.99013 0.18924 0.0
H4159 H 0.35628 0.00989 0.18984 0.0
H4160 H 0.35649 0.00049 0.17239 0.0
H4161 H 0.30646 0.01117 0.14606 0.0
H4162 H 0.30327 0.03692 0.15395 0.0
H4163 H 0.33234 0.02924 0.19086 0.0
C4164 C 0.33108 0.97081 0.17929 0.0
C4165 C 0.32311 0.96051 0.17088 0.0
C4166 C 0.31546 0.96527 0.15822 0.0
C4167 C 0.31506 0.98022 0.15447 0.0
C4168 C 0.3225 0.9902 0.16339 0.0
C4169 C 0.33053 0.98567 0.17545 0.0
C4170 C 0.33579 -0.00138 0.18447 0.0
C4171 C 0.33022 -0.00231 0.20045 0.0
C4172 C 0.35256 -0.00015 0.18395 0.0
C4173 C 0.32865 0.0111 0.17617 0.0
C4174 C 0.32134 0.00608 0.16383 0.0
C4175 C 0.31246 0.0153 0.15546 0.0
C4176 C 0.31067 0.0299 0.16005 0.0
C4177 C 0.31764 0.03508 0.17296 0.0
C4178 C 0.32713 0.02567 0.18077 0.0
H4179 H 0.95757 0.33841 0.20112 0.0
H4180 H 0.94847 0.32317 0.15691 0.0
H4181 H 0.97444 0.3264 0.15038 0.0
H4182 H 0.98939 0.36451 0.19101 0.0
H4183 H -0.00093 0.35931 0.20747 0.0
H4184 H 0.97933 0.36 0.20745 0.0
H4185 H 0.97849 0.33302 0.21653 0.0
H4186 H -0.00189 0.33217 0.2164 0.0
H4187 H 0.98764 0.31896 0.206 0.0
H4188 H 0.00144 0.32518 0.15041 0.0
H4189 H 0.02733 0.32072 0.15675 0.0
H4190 H 0.0194 0.33706 0.20081 0.0
C4191 C 0.96093 0.3365 0.18987 0.0
C4192 C 0.95102 0.33068 0.17948 0.0
C4193 C 0.95589 0.32775 0.165 0.0
C4194 C 0.97062 0.3296 0.16118 0.0
C4195 C 0.98034 0.33451 0.17193 0.0
C4196 C 0.97567 0.33817 0.18594 0.0
C4197 C 0.98856 0.34094 0.19606 0.0
C4198 C 0.98912 0.35716 0.20077 0.0
C4199 C 0.98817 0.33065 0.20952 0.0
C4200 C 0.00114 0.33724 0.18587 0.0
C4201 C -0.00381 0.33388 0.1719 0.0
C4202 C 0.00552 0.32823 0.16116 0.0
C4203 C 0.02019 0.32565 0.16487 0.0
C4204 C 0.02537 0.32871 0.1792 0.0
C4205 C 0.01581 0.335 0.18965 0.0
H4206 H 0.63795 0.962 0.1971 0.0
H4207 H 0.65474 0.95278 0.15351 0.0
H4208 H 0.65279 0.979 0.14716 0.0
H4209 H 0.61366 -0.00483 0.18597 0.0
H4210 H 0.61837 0.00444 0.20284 0.0
H4211 H 0.61678 0.98467 0.20248 0.0
H4212 H 0.64303 0.98252 0.21302 0.0
H4213 H 0.6448 0.00214 0.21323 0.0
H4214 H 0.658 0.99117 0.20341 0.0
H4215 H 0.6557 0.00594 0.14785 0.0
H4216 H 0.66146 0.03149 0.15503 0.0
H4217 H 0.64201 0.02383 0.1978 0.0
C4218 C 0.64046 0.96541 0.18598 0.0
C4219 C 0.64642 0.95537 0.17578 0.0
C4220 C 0.65007 0.96028 0.16147 0.0
C4221 C 0.64895 0.97517 0.15775 0.0
C4222 C 0.64398 0.985 0.16838 0.0
C4223 C 0.63947 0.98029 0.18213 0.0
C4224 C 0.63675 0.99321 0.19229 0.0
C4225 C 0.62042 -0.00556 0.19612 0.0
C4226 C 0.64622 0.99219 0.20629 0.0
C4227 C 0.64156 0.00579 0.1825 0.0
C4228 C 0.64539 0.00086 0.16864 0.0
C4229 C 0.65224 0.01005 0.15846 0.0
C4230 C 0.65555 0.02452 0.16264 0.0
C4231 C 0.65196 0.02965 0.17686 0.0
C4232 C 0.64445 0.0203 0.18669 0.0
H4233 H 0.02955 0.64855 0.19278 0.0
H4234 H 0.03774 0.67189 0.15208 0.0
H4235 H 0.01193 0.66861 0.14493 0.0
H4236 H -0.00133 0.6233 0.17803 0.0
H4237 H 0.98891 0.62509 0.19516 0.0
H4238 H 0.00866 0.62516 0.19503 0.0
H4239 H 0.00858 0.65008 0.20881 0.0
H4240 H 0.98895 0.65019 0.20884 0.0
H4241 H -0.00116 0.66544 0.20099 0.0
H4242 H 0.98496 0.66879 0.14518 0.0
H4243 H 0.95907 0.67152 0.15241 0.0
H4244 H 0.96777 0.64775 0.19276 0.0
C4245 C 0.02606 0.65225 0.18202 0.0
C4246 C 0.03564 0.66033 0.1729 0.0
C4247 C 0.03059 0.66555 0.15916 0.0
C4248 C 0.01594 0.66369 0.15499 0.0
C4249 C 0.00649 0.65649 0.16463 0.0
C4250 C 0.01139 0.65061 0.17778 0.0
C4251 C -0.00133 0.64558 0.18725 0.0
C4252 C -0.00127 0.62878 0.18896 0.0
C4253 C -0.00123 0.6533 0.20235 0.0
C4254 C 0.98589 0.65058 0.17788 0.0
C4255 C 0.99063 0.6565 0.16471 0.0
C4256 C 0.98106 0.66374 0.15521 0.0
C4257 C 0.96638 0.6653 0.15943 0.0
C4258 C 0.96142 0.65966 0.17303 0.0
C4259 C 0.9712 0.65177 0.18209 0.0
H4260 H 0.31684 0.96103 0.81555 0.0
H4261 H 0.35062 0.95192 0.78332 0.0
H4262 H 0.35763 0.97816 0.78341 0.0
H4263 H 0.3041 0.99115 0.79946 0.0
H4264 H 0.29991 0.00147 0.81585 0.0
H4265 H 0.30027 0.98176 0.81649 0.0
H4266 H 0.31943 0.98258 0.83749 0.0
H4267 H 0.31903 0.0024 0.83703 0.0
H4268 H 0.33617 0.99279 0.83501 0.0
H4269 H 0.35744 0.00558 0.78307 0.0
H4270 H 0.34996 0.03161 0.78207 0.0
H4271 H 0.31593 0.02292 0.81417 0.0
C4272 C 0.32613 0.96443 0.80897 0.0
C4273 C 0.33326 0.95443 0.79951 0.0
C4274 C 0.34509 0.95938 0.79076 0.0
C4275 C 0.34917 0.97426 0.79078 0.0
C4276 C 0.34139 0.984 0.79969 0.0
C4277 C 0.3302 0.97924 0.80877 0.0
C4278 C 0.32204 0.99204 0.81553 0.0
C4279 C 0.30563 0.99157 0.81158 0.0
C4280 C 0.32431 0.99248 0.83226 0.0
C4281 C 0.32973 0.00476 0.8081 0.0
C4282 C 0.34113 -7e-05 0.79933 0.0
C4283 C 0.34879 0.00952 0.79017 0.0
C4284 C 0.34443 0.02429 0.78965 0.0
C4285 C 0.3324 0.02929 0.79809 0.0
C4286 C 0.32532 0.01947 0.80778 0.0
H4287 H 0.02809 0.30937 0.8236 0.0
H4288 H 0.0382 0.34909 0.79927 0.0
H4289 H 0.0125 0.35704 0.80157 0.0
H4290 H -0.00248 0.30151 0.80609 0.0
H4291 H 0.98719 0.29438 0.82139 0.0
H4292 H 0.0068 0.29386 0.82182 0.0
H4293 H 0.0069 0.30834 0.84635 0.0
H4294 H 0.98716 0.3088 0.84609 0.0
H4295 H -0.00258 0.32567 0.84756 0.0
H4296 H 0.98535 0.35777 0.80123 0.0
H4297 H 0.95927 0.35129 0.79844 0.0
H4298 H 0.96659 0.31111 0.82301 0.0
C4299 C 0.02504 0.32006 0.81934 0.0
C4300 C 0.03514 0.32865 0.81133 0.0
C4301 C 0.03066 0.34237 0.80555 0.0
C4302 C 0.01608 0.34701 0.80686 0.0
C4303 C 0.00617 0.33787 0.81412 0.0
C4304 C 0.01052 0.32476 0.82047 0.0
C4305 C -0.00253 0.31582 0.82554 0.0
C4306 C -0.00276 0.30051 0.81827 0.0
C4307 C -0.00277 0.31459 0.84239 0.0
C4308 C 0.9851 0.32541 0.82007 0.0
C4309 C 0.99031 0.33829 0.81389 0.0
C4310 C 0.9811 0.34795 0.80642 0.0
C4311 C 0.9663 0.34415 0.80483 0.0
C4312 C 0.9609 0.33074 0.81058 0.0
C4313 C 0.97034 0.32158 0.81876 0.0
H4314 H 0.64407 0.01684 0.79198 0.0
H4315 H 0.67151 0.02786 0.82935 0.0
H4316 H 0.67121 0.00185 0.83715 0.0
H4317 H 0.62254 0.98673 0.81044 0.0
H4318 H 0.62228 0.97595 0.79381 0.0
H4319 H 0.62236 -0.00425 0.79279 0.0
H4320 H 0.64546 -0.00517 0.77627 0.0
H4321 H 0.64548 0.97512 0.77725 0.0
H4322 H 0.66152 0.9853 0.78273 0.0
H4323 H 0.67145 0.97444 0.83839 0.0
H4324 H 0.67214 0.94784 0.83303 0.0
H4325 H 0.64409 0.95475 0.79517 0.0
C4326 C 0.64968 0.01387 0.80204 0.0
C4327 C 0.65779 0.02435 0.81009 0.0
C4328 C 0.66517 0.02 0.82306 0.0
C4329 C 0.66501 0.00527 0.82761 0.0
C4330 C 0.65725 -0.00489 0.81917 0.0
C4331 C 0.6496 -0.00075 0.80673 0.0
C4332 C 0.64349 0.98605 0.79867 0.0
C4333 C 0.62666 0.98613 0.79895 0.0
C4334 C 0.64935 0.98529 0.7828 0.0
C4335 C 0.64956 0.97378 0.80807 0.0
C4336 C 0.65725 0.97922 0.81999 0.0
C4337 C 0.66517 0.97003 0.82932 0.0
C4338 C 0.66553 0.95495 0.82616 0.0
C4339 C 0.65806 0.94926 0.81377 0.0
C4340 C 0.64963 0.95876 0.80491 0.0
H4341 H 0.95688 0.67285 0.82226 0.0
H4342 H 0.94691 0.63258 0.79879 0.0
H4343 H 0.97263 0.62471 0.80147 0.0
H4344 H 0.98724 0.68042 0.80456 0.0
H4345 H -0.00242 0.68802 0.81964 0.0
H4346 H 0.97797 0.68842 0.82012 0.0
H4347 H 0.97801 0.67458 0.84501 0.0
H4348 H -0.00225 0.67427 0.84471 0.0
H4349 H 0.98763 0.65736 0.84664 0.0
H4350 H -0.0001 0.62404 0.80134 0.0
H4351 H 0.02595 0.63063 0.79839 0.0
H4352 H 0.01827 0.67155 0.82159 0.0
C4353 C 0.95994 0.66207 0.81828 0.0
C4354 C 0.94989 0.6533 0.81038 0.0
C4355 C 0.9544 0.63942 0.80501 0.0
C4356 C 0.96899 0.63485 0.80651 0.0
C4357 C 0.97888 0.6442 0.81357 0.0
C4358 C 0.97447 0.65745 0.81957 0.0
C4359 C 0.98745 0.66662 0.82438 0.0
C4360 C 0.98756 0.68175 0.81671 0.0
C4361 C 0.98773 0.6683 0.84119 0.0
C4362 C -0.00012 0.65699 0.81913 0.0
C4363 C -0.00524 0.64389 0.81334 0.0
C4364 C 0.00407 0.63406 0.80621 0.0
C4365 C 0.01886 0.63792 0.80454 0.0
C4366 C 0.02414 0.65159 0.80981 0.0
C4367 C 0.01461 0.66093 0.81767 0.0
H4368 H 0.16468 0.31956 0.01937 0.0
H4369 H 0.1898 0.35917 0.02762 0.0
H4370 H 0.18906 0.3651 0.00117 0.0
H4371 H 0.18335 0.30863 0.99063 0.0
H4372 H 0.16847 0.30114 0.97996 0.0
H4373 H 0.16688 0.30231 -0.00044 0.0
H4374 H 0.14307 0.31756 -0.00303 0.0
H4375 H 0.14449 0.3163 0.97723 0.0
H4376 H 0.14309 0.33404 0.98596 0.0
H4377 H 0.19094 0.3635 0.9739 0.0
H4378 H 0.19498 0.35464 0.94856 0.0
H4379 H 0.16872 0.31603 0.95795 0.0
C4380 C 0.16943 0.32984 0.01572 0.0
C4381 C 0.17724 0.33893 0.02555 0.0
C4382 C 0.18365 0.35209 0.0203 0.0
C4383 C 0.18324 0.35557 0.00527 0.0
C4384 C 0.17624 0.34588 -0.00431 0.0
C4385 C 0.16921 0.33338 0.00076 0.0
C4386 C 0.16458 0.32351 0.98818 0.0
C4387 C 0.17123 0.308 0.98968 0.0
C4388 C 0.14781 0.32282 0.98702 0.0
C4389 C 0.1711 0.33182 0.97535 0.0
C4390 C 0.1774 0.34491 0.97981 0.0
C4391 C 0.18568 0.3535 0.97019 0.0
C4392 C 0.18796 0.34836 0.95582 0.0
C4393 C 0.18212 0.33467 0.95128 0.0
C4394 C 0.17313 0.32664 0.96103 0.0
H4395 H 0.16354 0.67653 0.95857 0.0
H4396 H 0.18804 0.63673 0.94952 0.0
H4397 H 0.18493 0.62902 0.97538 0.0
H4398 H 0.18021 0.68444 0.99014 0.0
H4399 H 0.16457 0.69184 -0.00032 0.0
H4400 H 0.16515 0.69226 0.97999 0.0
H4401 H 0.14051 0.67815 0.9788 0.0
H4402 H 0.13982 0.67773 -0.00139 0.0
H4403 H 0.13861 0.66086 0.98828 0.0
H4404 H 0.18343 0.62807 0.0028 0.0
H4405 H 0.18478 0.63446 0.02912 0.0
H4406 H 0.1617 0.67518 0.02037 0.0
C4407 C 0.16774 0.6659 0.96186 0.0
C4408 C 0.17592 0.65716 0.95201 0.0
C4409 C 0.18162 0.64354 0.95686 0.0
C4410 C 0.17984 0.63904 0.97152 0.0
C4411 C 0.17226 0.64825 0.98114 0.0
C4412 C 0.1662 0.66137 0.97646 0.0
C4413 C 0.16065 0.67041 0.98927 0.0
C4414 C 0.1681 0.68562 0.9898 0.0
C4415 C 0.1439 0.67187 0.9887 0.0
C4416 C 0.16536 0.66079 0.00198 0.0
C4417 C 0.17163 0.64785 -0.00292 0.0
C4418 C 0.17824 0.63799 0.00677 0.0
C4419 C 0.17896 0.64173 0.02172 0.0
C4420 C 0.1733 0.65531 0.0268 0.0
C4421 C 0.16591 0.66462 0.01686 0.0
H4422 H 0.34149 0.19672 0.02329 0.0
H4423 H 0.31452 0.15822 0.0308 0.0
H4424 H 0.31979 0.1496 0.00565 0.0
H4425 H 0.32809 0.2047 0.99088 0.0
H4426 H 0.34463 0.21115 0.98218 0.0
H4427 H 0.34296 0.21188 0.00179 0.0
H4428 H 0.36667 0.19652 0.0046 0.0
H4429 H 0.36847 0.19581 0.98487 0.0
H4430 H 0.3682 0.17903 -0.0046 0.0
H4431 H 0.32255 0.14837 0.9788 0.0
H4432 H 0.32205 0.15493 0.95253 0.0
H4433 H 0.34706 0.19435 0.96187 0.0
C4434 C 0.33729 0.18612 0.01986 0.0
C4435 C 0.32771 0.17806 0.02898 0.0
C4436 C 0.32198 0.1645 0.02399 0.0
C4437 C 0.32499 0.15948 0.00975 0.0
C4438 C 0.33383 0.1681 0.00068 0.0
C4439 C 0.34004 0.18109 0.00559 0.0
C4440 C 0.34679 0.18968 0.99303 0.0
C4441 C 0.34021 0.20525 0.99191 0.0
C4442 C 0.36353 0.19028 -0.00543 0.0
C4443 C 0.34233 0.18012 0.98016 0.0
C4444 C 0.33532 0.16747 0.98484 0.0
C4445 C 0.3284 0.158 0.97499 0.0
C4446 C 0.32812 0.16184 0.96008 0.0
C4447 C 0.33459 0.17511 0.9552 0.0
C4448 C 0.34234 0.18398 0.96527 0.0
H4449 H 0.81601 0.31848 0.96205 0.0
H4450 H 0.78539 0.35349 0.95212 0.0
H4451 H 0.7872 0.36226 0.97776 0.0
H4452 H 0.8007 0.30849 -0.00669 0.0
H4453 H 0.81716 0.30395 0.00327 0.0
H4454 H 0.81707 0.30319 0.98358 0.0
H4455 H 0.83901 0.32124 0.98257 0.0
H4456 H 0.83925 0.32199 0.00238 0.0
H4457 H 0.83783 0.33872 0.99185 0.0
H4458 H 0.78801 0.36376 0.00509 0.0
H4459 H 0.78706 0.35743 0.03143 0.0
H4460 H 0.81666 0.321 0.0237 0.0
C4461 C 0.81017 0.32838 0.96509 0.0
C4462 C 0.80064 0.33537 0.95508 0.0
C4463 C 0.79287 0.34805 0.95958 0.0
C4464 C 0.79388 0.35314 0.97412 0.0
C4465 C 0.8028 0.34549 0.98396 0.0
C4466 C 0.81094 0.33345 0.97957 0.0
C4467 C 0.81767 0.32561 0.99259 0.0
C4468 C 0.81285 0.30937 0.99322 0.0
C4469 C 0.83444 0.32698 0.99233 0.0
C4470 C 0.81119 0.33445 0.00507 0.0
C4471 C 0.80304 0.34617 -0.00012 0.0
C4472 C 0.79465 0.35486 0.00929 0.0
C4473 C 0.79416 0.35116 0.02425 0.0
C4474 C 0.80181 0.33873 0.0296 0.0
C4475 C 0.81087 0.33068 0.01996 0.0
H4476 H 0.6589 0.81149 0.02251 0.0
H4477 H 0.62773 0.77678 0.03193 0.0
H4478 H 0.62009 0.77671 0.00589 0.0
H4479 H 0.63753 0.82978 0.99119 0.0
H4480 H 0.65433 0.83309 0.98134 0.0
H4481 H 0.65418 0.83348 0.00116 0.0
H4482 H 0.67484 0.81397 0.00163 0.0
H4483 H 0.67499 0.81345 0.98194 0.0
H4484 H 0.67216 0.79674 0.9922 0.0
H4485 H 0.61987 0.77649 0.97843 0.0
H4486 H 0.62757 0.77565 0.95243 0.0
H4487 H 0.65921 0.8102 0.96086 0.0
C4488 C 0.65001 0.80431 0.01924 0.0
C4489 C 0.64384 0.79421 0.02925 0.0
C4490 C 0.63251 0.78472 0.02447 0.0
C4491 C 0.62807 0.78464 0.00969 0.0
C4492 C 0.63496 0.79422 -0.00011 0.0
C4493 C 0.64559 0.80402 0.00454 0.0
C4494 C 0.65306 0.8114 0.99165 0.0
C4495 C 0.64956 0.82792 0.99132 0.0
C4496 C 0.66973 0.80871 0.99187 0.0
C4497 C 0.64575 0.80346 0.97902 0.0
C4498 C 0.635 0.79394 0.98394 0.0
C4499 C 0.62798 0.78418 0.97441 0.0
C4500 C 0.63244 0.78377 0.95965 0.0
C4501 C 0.64397 0.79289 0.95463 0.0
C4502 C 0.65023 0.80325 0.96433 0.0
H4503 H 0.79871 0.64935 0.0245 0.0
H4504 H 0.83585 0.67785 0.03291 0.0
H4505 H 0.84365 0.67522 0.00711 0.0
H4506 H 0.81697 0.62568 -0.00542 0.0
H4507 H 0.80006 0.62497 0.98439 0.0
H4508 H 0.79972 0.62563 0.0042 0.0
H4509 H 0.783 0.64861 0.0031 0.0
H4510 H 0.78335 0.64807 0.9834 0.0
H4511 H 0.78899 0.66452 0.99292 0.0
H4512 H 0.84399 0.67462 0.98001 0.0
H4513 H 0.83699 0.67579 0.95384 0.0
H4514 H 0.79998 0.64725 0.96255 0.0
C4515 C 0.80885 0.65448 0.02106 0.0
C4516 C 0.81673 0.66372 0.0307 0.0
C4517 C 0.82969 0.67065 0.02571 0.0
C4518 C 0.83425 0.66915 0.01108 0.0
C4519 C 0.82582 0.66057 0.00162 0.0
C4520 C 0.81348 0.65317 0.00644 0.0
C4521 C 0.80506 0.64659 -0.00633 0.0
C4522 C 0.80548 0.62971 -0.00575 0.0
C4523 C 0.78918 0.6523 0.99325 0.0
C4524 C 0.81398 0.65237 0.98088 0.0
C4525 C 0.82612 0.66009 0.9857 0.0
C4526 C 0.83482 0.66821 0.97606 0.0
C4527 C 0.83073 0.66886 0.96122 0.0
C4528 C 0.81808 0.66144 0.95618 0.0
C4529 C 0.80997 0.65264 0.96604 0.0
H4530 H 0.32307 0.80949 0.03075 0.0
H4531 H 0.35833 0.77807 0.03616 0.0
H4532 H 0.36477 0.78098 0.00995 0.0
H4533 H 0.31026 0.79574 -0.0003 0.0
H4534 H 0.30514 0.81277 0.99099 0.0
H4535 H 0.30602 0.81171 0.01065 0.0
H4536 H 0.3243 0.8335 0.01126 0.0
H4537 H 0.32337 0.83475 0.99149 0.0
H4538 H 0.34083 0.83265 0.00048 0.0
H4539 H 0.36382 0.78301 0.98265 0.0
H4540 H 0.3555 0.78374 0.95687 0.0
H4541 H 0.32048 0.81348 0.96914 0.0
C4542 C 0.33255 0.80369 0.02659 0.0
C4543 C 0.34025 0.79362 0.0355 0.0
C4544 C 0.35236 0.78595 0.02956 0.0
C4545 C 0.35612 0.78758 0.01468 0.0
C4546 C 0.34775 0.79701 0.00597 0.0
C4547 C 0.33631 0.80509 0.01177 0.0
C4548 C 0.32752 0.81258 -0.00018 0.0
C4549 C 0.31129 0.8079 0.00032 0.0
C4550 C 0.32911 0.82937 0.00082 0.0
C4551 C 0.33515 0.80664 0.98632 0.0
C4552 C 0.34706 0.79803 0.99008 0.0
C4553 C 0.35477 0.79002 0.97956 0.0
C4554 C 0.34992 0.79046 0.96494 0.0
C4555 C 0.33737 0.79871 0.96101 0.0
C4556 C 0.33025 0.80728 0.97178 0.0
H4557 H 0.64047 0.20239 0.96184 0.0
H4558 H 0.65627 0.15881 0.95089 0.0
H4559 H 0.65448 0.15158 0.97689 0.0
H4560 H 0.66081 0.20721 0.99128 0.0
H4561 H 0.64778 0.21683 0.00262 0.0
H4562 H 0.64604 0.21742 0.983 0.0
H4563 H 0.61958 0.2073 0.98477 0.0
H4564 H 0.62116 0.20685 0.00453 0.0
H4565 H 0.61614 0.19045 -0.00539 0.0
H4566 H 0.65755 0.1512 0.00383 0.0
H4567 H 0.66332 0.15725 0.02968 0.0
H4568 H 0.64455 0.20058 0.02371 0.0
C4569 C 0.64282 0.19111 0.96483 0.0
C4570 C 0.64844 0.18115 0.95436 0.0
C4571 C 0.65187 0.16661 0.95873 0.0
C4572 C 0.65084 0.16238 0.97349 0.0
C4573 C 0.64616 0.17274 0.98373 0.0
C4574 C 0.64188 0.18673 0.97957 0.0
C4575 C 0.63935 0.19642 0.99289 0.0
C4576 C 0.64908 0.21027 0.99241 0.0
C4577 C 0.62309 0.20049 -0.00572 0.0
C4578 C 0.64397 0.18605 0.00506 0.0
C4579 C 0.64758 0.17235 -0.00041 0.0
C4580 C 0.65424 0.16169 0.00836 0.0
C4581 C 0.65756 0.16523 0.023 0.0
C4582 C 0.65413 0.17927 0.02871 0.0
C4583 C 0.64683 0.18959 0.01974 0.0
H4584 H 0.4635 0.69622 0.8387 0.0
H4585 H 0.45559 0.65258 0.82127 0.0
H4586 H 0.48148 0.64618 0.82557 0.0
H4587 H 0.49431 0.70206 0.82056 0.0
H4588 H 0.50394 0.71227 0.83454 0.0
H4589 H 0.48432 0.71201 0.83446 0.0
H4590 H 0.48418 0.70223 0.86121 0.0
H4591 H 0.50393 0.7025 0.86139 0.0
H4592 H 0.49423 0.68578 0.8657 0.0
H4593 H 0.50845 0.64631 0.82628 0.0
H4594 H 0.53422 0.65325 0.82232 0.0
H4595 H 0.52515 0.69696 0.83894 0.0
C4596 C 0.46709 0.6851 0.83643 0.0
C4597 C 0.45754 0.67483 0.82982 0.0
C4598 C 0.46271 0.66056 0.82647 0.0
C4599 C 0.47738 0.65681 0.82897 0.0
C4600 C 0.48673 0.66743 0.83486 0.0
C4601 C 0.48176 0.68128 0.83865 0.0
C4602 C 0.49437 0.6915 0.84227 0.0
C4603 C 0.49422 0.70525 0.83236 0.0
C4604 C 0.49416 0.69575 0.85862 0.0
C4605 C 0.50723 0.68157 0.83885 0.0
C4606 C 0.50259 0.66759 0.83507 0.0
C4607 C 0.51226 0.65708 0.82961 0.0
C4608 C 0.52688 0.66113 0.82735 0.0
C4609 C 0.53168 0.67561 0.83043 0.0
C4610 C 0.52186 0.68571 0.83686 0.0
H4611 H 0.27527 0.52402 0.84683 0.0
H4612 H 0.32101 0.53418 0.83937 0.0
H4613 H 0.32748 0.50834 0.84421 0.0
H4614 H 0.28131 0.49213 0.87451 0.0
H4615 H 0.26631 0.48209 0.86641 0.0
H4616 H 0.26576 0.5019 0.86721 0.0
H4617 H 0.26161 0.50282 0.83906 0.0
H4618 H 0.26228 0.48315 0.83814 0.0
H4619 H 0.27459 0.49396 0.82703 0.0
H4620 H 0.3283 0.48133 0.84308 0.0
H4621 H 0.3234 0.45549 0.83648 0.0
H4622 H 0.27717 0.46216 0.84476 0.0
C4623 C 0.28672 0.52094 0.84703 0.0
C4624 C 0.29767 0.5311 0.84292 0.0
C4625 C 0.31248 0.52658 0.84266 0.0
C4626 C 0.31626 0.51192 0.84545 0.0
C4627 C 0.3051 0.50191 0.84855 0.0
C4628 C 0.29062 0.50626 0.84958 0.0
C4629 C 0.28049 0.49307 0.85043 0.0
C4630 C 0.27303 0.49225 0.86554 0.0
C4631 C 0.26909 0.49327 0.83792 0.0
C4632 C 0.29141 0.48068 0.84852 0.0
C4633 C 0.30559 0.48599 0.8479 0.0
C4634 C 0.31732 0.47696 0.84405 0.0
C4635 C 0.31444 0.4623 0.84026 0.0
C4636 C 0.29994 0.45681 0.84032 0.0
C4637 C 0.28841 0.46597 0.84509 0.0
H4638 H 0.5233 0.3216 0.82195 0.0
H4639 H 0.53161 0.2878 0.85448 0.0
H4640 H 0.50578 0.28903 0.86234 0.0
H4641 H 0.4928 0.3418 0.84302 0.0
H4642 H 0.48305 0.34486 0.82607 0.0
H4643 H 0.5028 0.34462 0.82617 0.0
H4644 H 0.50257 0.32444 0.80606 0.0
H4645 H 0.48295 0.32452 0.80597 0.0
H4646 H 0.49266 0.3076 0.80934 0.0
H4647 H 0.4785 0.28955 0.86249 0.0
H4648 H 0.45264 0.28907 0.85469 0.0
H4649 H 0.46194 0.32235 0.82187 0.0
C4650 C 0.51986 0.31494 0.83119 0.0
C4651 C 0.52947 0.30466 0.83765 0.0
C4652 C 0.52446 0.29585 0.84945 0.0
C4653 C 0.50979 0.29652 0.85402 0.0
C4654 C 0.50034 0.30617 0.8468 0.0
C4655 C 0.50525 0.31539 0.83575 0.0
C4656 C 0.49263 0.32291 0.82803 0.0
C4657 C 0.49283 0.33954 0.83101 0.0
C4658 C 0.49271 0.31965 0.81138 0.0
C4659 C 0.47982 0.31563 0.83565 0.0
C4660 C 0.48445 0.30636 0.84678 0.0
C4661 C 0.47472 0.29708 0.8541 0.0
C4662 C 0.46002 0.29685 0.84957 0.0
C4663 C 0.45527 0.30571 0.83769 0.0
C4664 C 0.46519 0.31563 0.83113 0.0
H4665 H 0.69989 0.45846 0.84584 0.0
H4666 H 0.65697 0.45009 0.8274 0.0
H4667 H 0.65027 0.47603 0.83131 0.0
H4668 H 0.6884 0.4901 0.87213 0.0
H4669 H 0.70518 0.49972 0.86808 0.0
H4670 H 0.70493 0.4799 0.86853 0.0
H4671 H 0.71562 0.47927 0.84217 0.0
H4672 H 0.71576 0.49896 0.84156 0.0
H4673 H 0.70613 0.48874 0.82759 0.0
H4674 H 0.6505 0.50303 0.83078 0.0
H4675 H 0.65756 0.5288 0.82623 0.0
H4676 H 0.70036 0.5203 0.84496 0.0
C4677 C 0.68882 0.46195 0.84341 0.0
C4678 C 0.67888 0.4523 0.8365 0.0
C4679 C 0.66469 0.45732 0.83285 0.0
C4680 C 0.66077 0.47203 0.83509 0.0
C4681 C 0.67115 0.48157 0.84105 0.0
C4682 C 0.68485 0.47669 0.84538 0.0
C4683 C 0.69488 0.48949 0.84892 0.0
C4684 C 0.69856 0.48982 0.8654 0.0
C4685 C 0.70891 0.48909 0.83949 0.0
C4686 C 0.6851 0.50227 0.84475 0.0
C4687 C 0.67131 0.49749 0.84068 0.0
C4688 C 0.66108 0.50698 0.8344 0.0
C4689 C 0.66521 0.5216 0.83178 0.0
C4690 C 0.67945 0.52655 0.83538 0.0
C4691 C 0.68927 0.5169 0.84247 0.0
H4692 H 0.46018 0.32175 0.18089 0.0
H4693 H 0.45098 0.30424 0.13753 0.0
H4694 H 0.47685 0.30775 0.13062 0.0
H4695 H 0.49144 0.34788 0.16936 0.0
H4696 H 0.50123 0.3436 0.18603 0.0
H4697 H 0.48149 0.34403 0.18603 0.0
H4698 H 0.48099 0.3175 0.19639 0.0
H4699 H 0.50059 0.31693 0.1963 0.0
H4700 H 0.49033 0.30308 0.18654 0.0
H4701 H 0.50398 0.30716 0.13054 0.0
H4702 H 0.52978 0.30277 0.13723 0.0
H4703 H 0.52159 0.32075 0.18061 0.0
C4704 C 0.46347 0.3193 0.16972 0.0
C4705 C 0.45359 0.31278 0.15973 0.0
C4706 C 0.45836 0.30934 0.14533 0.0
C4707 C 0.47304 0.31136 0.14129 0.0
C4708 C 0.48274 0.317 0.15171 0.0
C4709 C 0.47809 0.32115 0.16558 0.0
C4710 C 0.49093 0.32457 0.17554 0.0
C4711 C 0.49129 0.341 0.17946 0.0
C4712 C 0.49069 0.31494 0.18949 0.0
C4713 C 0.50351 0.32056 0.1655 0.0
C4714 C 0.49861 0.31664 0.15166 0.0
C4715 C 0.508 0.31062 0.14117 0.0
C4716 C 0.52264 0.30812 0.14509 0.0
C4717 C 0.52768 0.31149 0.15942 0.0
C4718 C 0.51811 0.31833 0.16949 0.0
H4719 H 0.68635 0.46456 0.14837 0.0
H4720 H 0.64912 0.45875 0.17732 0.0
H4721 H 0.64241 0.48476 0.17378 0.0
H4722 H 0.69779 0.4954 0.16284 0.0
H4723 H 0.70395 0.50446 0.14633 0.0
H4724 H 0.7031 0.4848 0.14695 0.0
H4725 H 0.68624 0.48454 0.12405 0.0
H4726 H 0.68713 0.50434 0.12326 0.0
H4727 H 0.66963 0.49522 0.12406 0.0
H4728 H 0.6434 0.51175 0.17251 0.0
H4729 H 0.65212 0.53736 0.17382 0.0
H4730 H 0.68887 0.52621 0.14583 0.0
C4731 C 0.67637 0.4686 0.15336 0.0
C4732 C 0.66818 0.45966 0.16301 0.0
C4733 C 0.65548 0.46541 0.16979 0.0
C4734 C 0.65154 0.48016 0.16777 0.0
C4735 C 0.66037 0.48897 0.15887 0.0
C4736 C 0.67244 0.48336 0.15161 0.0
C4737 C 0.68163 0.49553 0.14494 0.0
C4738 C 0.69754 0.49501 0.15062 0.0
C4739 C 0.68112 0.49487 0.12807 0.0
C4740 C 0.67354 0.50888 0.15064 0.0
C4741 C 0.66103 0.50487 0.15823 0.0
C4742 C 0.6529 0.51508 0.16623 0.0
C4743 C 0.65797 0.5296 0.16697 0.0
C4744 C 0.67111 0.53375 0.15984 0.0
C4745 C 0.6786 0.5234 0.15108 0.0
H4746 H 0.52256 0.7024 0.14629 0.0
H4747 H 0.53408 0.65797 0.15889 0.0
H4748 H 0.50872 0.64998 0.15423 0.0
H4749 H 0.49222 0.70408 0.16527 0.0
H4750 H 0.48128 0.71473 0.15268 0.0
H4751 H 0.50084 0.71605 0.15204 0.0
H4752 H 0.50065 0.7088 0.12451 0.0
H4753 H 0.48095 0.70756 0.12502 0.0
H4754 H 0.49163 0.69211 0.1188 0.0
H4755 H 0.4819 0.64823 0.15496 0.0
H4756 H 0.45596 0.65288 0.16083 0.0
H4757 H 0.46111 0.69835 0.14762 0.0
C4758 C 0.51989 0.69085 0.14728 0.0
C4759 C 0.53027 0.68076 0.15277 0.0
C4760 C 0.5263 0.66584 0.15454 0.0
C4761 C 0.51192 0.66119 0.15186 0.0
C4762 C 0.50165 0.67158 0.14733 0.0
C4763 C 0.50549 0.6861 0.14484 0.0
C4764 C 0.49203 0.69559 0.14266 0.0
C4765 C 0.49157 0.70834 0.15383 0.0
C4766 C 0.49127 0.70135 0.1268 0.0
C4767 C 0.48005 0.68442 0.14553 0.0
C4768 C 0.48582 0.67054 0.14775 0.0
C4769 C 0.47719 0.65891 0.15276 0.0
C4770 C 0.46246 0.66166 0.15612 0.0
C4771 C 0.45652 0.67592 0.15448 0.0
C4772 C 0.46527 0.68724 0.14852 0.0
H4773 H 0.29304 0.46005 0.15034 0.0
H4774 H 0.33101 0.45297 0.17804 0.0
H4775 H 0.33908 0.47843 0.17338 0.0
H4776 H 0.31067 0.488 0.1241 0.0
H4777 H 0.29389 0.49839 0.1234 0.0
H4778 H 0.2933 0.47867 0.12541 0.0
H4779 H 0.27757 0.48157 0.14894 0.0
H4780 H 0.27814 0.50118 0.14703 0.0
H4781 H 0.28433 0.49275 0.16386 0.0
H4782 H 0.33998 0.5054 0.17063 0.0
H4783 H 0.33337 0.53167 0.17041 0.0
H4784 H 0.29493 0.52168 0.14432 0.0
C4785 C 0.30338 0.46367 0.1549 0.0
C4786 C 0.31146 0.45454 0.16445 0.0
C4787 C 0.3247 0.45978 0.17061 0.0
C4788 C 0.32942 0.4742 0.16794 0.0
C4789 C 0.32084 0.4832 0.15901 0.0
C4790 C 0.30815 0.47809 0.15245 0.0
C4791 C 0.29965 0.49051 0.14537 0.0
C4792 C 0.29937 0.48879 0.12857 0.0
C4793 C 0.28402 0.49156 0.15169 0.0
C4794 C 0.30896 0.50352 0.1499 0.0
C4795 C 0.32136 0.49903 0.15739 0.0
C4796 C 0.33057 0.50905 0.16441 0.0
C4797 C 0.32671 0.52396 0.16426 0.0
C4798 C 0.31373 0.52868 0.1572 0.0
C4799 C 0.30513 0.51841 0.14941 0.0
H4800 H 0.81935 0.52875 0.66906 0.0
H4801 H 0.85475 0.53745 0.69959 0.0
H4802 H 0.86262 0.51156 0.69761 0.0
H4803 H 0.80833 0.49824 0.68461 0.0
H4804 H 0.80325 0.48824 0.66827 0.0
H4805 H 0.80333 0.50794 0.66806 0.0
H4806 H 0.82117 0.50789 0.64592 0.0
H4807 H 0.82103 0.48806 0.64595 0.0
H4808 H 0.83815 0.49787 0.6471 0.0
H4809 H 0.86301 0.48426 0.69701 0.0
H4810 H 0.85549 0.45827 0.69852 0.0
H4811 H 0.8192 0.46712 0.6691 0.0
C4812 C 0.82918 0.52539 0.67478 0.0
C4813 C 0.83651 0.53512 0.68438 0.0
C4814 C 0.84906 0.5302 0.69205 0.0
C4815 C 0.85364 0.51552 0.69094 0.0
C4816 C 0.8456 0.50594 0.68206 0.0
C4817 C 0.8337 0.51075 0.67397 0.0
C4818 C 0.82526 0.49798 0.66745 0.0
C4819 C 0.80911 0.49812 0.67241 0.0
C4820 C 0.82648 0.49795 0.6506 0.0
C4821 C 0.83356 0.48521 0.67406 0.0
C4822 C 0.84557 0.49 0.68201 0.0
C4823 C 0.85387 0.48036 0.69051 0.0
C4824 C 0.84949 0.4656 0.69133 0.0
C4825 C 0.83676 0.46069 0.68391 0.0
C4826 C 0.82909 0.47052 0.67472 0.0
H4827 H 0.52214 0.82578 0.67024 0.0
H4828 H 0.53198 0.85365 0.70763 0.0
H4829 H 0.50615 0.86148 0.70858 0.0
H4830 H 0.49091 0.84937 0.65432 0.0
H4831 H 0.48097 0.83296 0.64939 0.0
H4832 H 0.50071 0.83307 0.64884 0.0
H4833 H 0.50119 0.81041 0.66608 0.0
H4834 H 0.48159 0.81031 0.66682 0.0
H4835 H 0.49203 0.81137 0.68361 0.0
H4836 H 0.47887 0.86141 0.70939 0.0
H4837 H 0.45296 0.85368 0.70974 0.0
H4838 H 0.46076 0.8259 0.6718 0.0
C4839 C 0.519 0.83405 0.6782 0.0
C4840 C 0.52906 0.83914 0.68882 0.0
C4841 C 0.52448 0.84969 0.69929 0.0
C4842 C 0.50981 0.85423 0.69989 0.0
C4843 C 0.49993 0.84829 0.68981 0.0
C4844 C 0.50441 0.8386 0.67897 0.0
C4845 C 0.49145 0.83195 0.671 0.0
C4846 C 0.49098 0.83716 0.65493 0.0
C4847 C 0.49158 0.81502 0.67196 0.0
C4848 C 0.47899 0.8385 0.67977 0.0
C4849 C 0.48405 0.84824 0.6903 0.0
C4850 C 0.47474 0.85416 0.70092 0.0
C4851 C 0.46002 0.84968 0.70106 0.0
C4852 C 0.45483 0.83924 0.69075 0.0
C4853 C 0.46434 0.83409 0.67966 0.0
H4854 H 0.14597 0.51842 0.69638 0.0
H4855 H 0.16803 0.52875 0.65547 0.0
H4856 H 0.1657 0.5029 0.64769 0.0
H4857 H 0.16431 0.48806 0.70337 0.0
H4858 H 0.14967 0.47741 0.71132 0.0
H4859 H 0.14888 0.49709 0.71181 0.0
H4860 H 0.12373 0.4966 0.69864 0.0
H4861 H 0.12438 0.47679 0.69821 0.0
H4862 H 0.12182 0.48699 0.68142 0.0
H4863 H 0.16656 0.4758 0.647 0.0
H4864 H 0.17046 0.44977 0.65344 0.0
H4865 H 0.1478 0.45658 0.69476 0.0
C4866 C 0.14967 0.51536 0.68549 0.0
C4867 C 0.15707 0.52557 0.67647 0.0
C4868 C 0.16223 0.52111 0.6625 0.0
C4869 C 0.16088 0.50645 0.65796 0.0
C4870 C 0.15425 0.49643 0.66746 0.0
C4871 C 0.14854 0.50073 0.68088 0.0
C4872 C 0.14422 0.48755 0.6901 0.0
C4873 C 0.15226 0.48753 0.70501 0.0
C4874 C 0.12755 0.48695 0.69221 0.0
C4875 C 0.14942 0.47519 0.68026 0.0
C4876 C 0.15478 0.48052 0.66707 0.0
C4877 C 0.162 0.47144 0.65707 0.0
C4878 C 0.16422 0.45667 0.66085 0.0
C4879 C 0.15931 0.45116 0.67453 0.0
C4880 C 0.15133 0.46042 0.68406 0.0
H4881 H 0.45708 0.15251 0.68747 0.0
H4882 H 0.45109 0.18129 0.64998 0.0
H4883 H 0.47715 0.17836 0.64354 0.0
H4884 H 0.48781 0.16769 0.69908 0.0
H4885 H 0.49691 0.15127 0.70537 0.0
H4886 H 0.47731 0.1518 0.70452 0.0
H4887 H 0.47717 0.12876 0.68777 0.0
H4888 H 0.49688 0.12807 0.68866 0.0
H4889 H 0.4878 0.1287 0.67108 0.0
H4890 H 0.50415 0.17708 0.64443 0.0
H4891 H 0.5298 0.17793 0.6528 0.0
H4892 H 0.51863 0.15028 0.68999 0.0
C4893 C 0.46111 0.15763 0.67751 0.0
C4894 C 0.45207 0.167 0.66913 0.0
C4895 C 0.45782 0.17396 0.65647 0.0
C4896 C 0.4726 0.17229 0.65269 0.0
C4897 C 0.48145 0.16358 0.66164 0.0
C4898 C 0.47588 0.15622 0.67373 0.0
C4899 C 0.48802 0.14968 0.68299 0.0
C4900 C 0.48747 0.15547 0.69891 0.0
C4901 C 0.48743 0.1328 0.68259 0.0
C4902 C 0.50129 0.15539 0.67483 0.0
C4903 C 0.49728 0.163 0.66229 0.0
C4904 C 0.50747 0.17082 0.65398 0.0
C4905 C 0.52201 0.17129 0.65886 0.0
C4906 C 0.5262 0.16411 0.672 0.0
C4907 C 0.5158 0.15562 0.67974 0.0
H4908 H 0.81796 0.45824 0.31882 0.0
H4909 H 0.85517 0.4492 0.29066 0.0
H4910 H 0.86273 0.47521 0.2925 0.0
H4911 H 0.80778 0.4886 0.3021 0.0
H4912 H 0.80175 0.49877 0.31799 0.0
H4913 H 0.80182 0.47907 0.31842 0.0
H4914 H 0.81832 0.47941 0.34159 0.0
H4915 H 0.81819 0.49923 0.34134 0.0
H4916 H 0.83534 0.48945 0.3413 0.0
H4917 H 0.86294 0.50257 0.29261 0.0
H4918 H 0.85561 0.52857 0.29055 0.0
H4919 H 0.81783 0.51996 0.31811 0.0
C4920 C 0.82808 0.46157 0.31359 0.0
C4921 C 0.83604 0.45168 0.30468 0.0
C4922 C 0.84899 0.45656 0.29767 0.0
C4923 C 0.85338 0.47132 0.2987 0.0
C4924 C 0.84478 0.48101 0.30687 0.0
C4925 C 0.83246 0.47627 0.31436 0.0
C4926 C 0.82367 0.48909 0.32023 0.0
C4927 C 0.80784 0.48886 0.31432 0.0
C4928 C 0.8239 0.48931 0.33712 0.0
C4929 C 0.83234 0.5018 0.31398 0.0
C4930 C 0.84473 0.49695 0.30671 0.0
C4931 C 0.85349 0.50653 0.29859 0.0
C4932 C 0.84921 0.52129 0.29745 0.0
C4933 C 0.83617 0.52629 0.30422 0.0
C4934 C 0.82799 0.51651 0.31303 0.0
H4935 H 0.52046 0.84539 0.28547 0.0
H4936 H 0.5302 0.82975 0.32938 0.0
H4937 H 0.50417 0.83196 0.33603 0.0
H4938 H 0.48743 0.87 0.29621 0.0
H4939 H 0.47807 0.86468 0.27959 0.0
H4940 H 0.49774 0.8664 0.27969 0.0
H4941 H 0.49993 0.83974 0.26995 0.0
H4942 H 0.4804 0.83783 0.27003 0.0
H4943 H 0.49153 0.82496 0.28013 0.0
H4944 H 0.47731 0.82915 0.33582 0.0
H4945 H 0.45179 0.82313 0.32915 0.0
H4946 H 0.45899 0.84101 0.28558 0.0
C4947 C 0.51722 0.84322 0.29671 0.0
C4948 C 0.52733 0.8375 0.30694 0.0
C4949 C 0.52263 0.83425 0.32141 0.0
C4950 C 0.50785 0.83552 0.3253 0.0
C4951 C 0.49793 0.8402 0.31465 0.0
C4952 C 0.50245 0.84431 0.3007 0.0
C4953 C 0.48947 0.84663 0.2906 0.0
C4954 C 0.4881 0.8629 0.28627 0.0
C4955 C 0.4904 0.83669 0.27689 0.0
C4956 C 0.47708 0.84204 0.30066 0.0
C4957 C 0.48214 0.83871 0.3146 0.0
C4958 C 0.47311 0.83221 0.32513 0.0
C4959 C 0.45866 0.82873 0.32122 0.0
C4960 C 0.4534 0.83177 0.30692 0.0
C4961 C 0.46261 0.83893 0.29672 0.0
H4962 H 0.16429 0.47089 0.31917 0.0
H4963 H 0.1275 0.46247 0.29025 0.0
H4964 H 0.12089 0.48874 0.29116 0.0
H4965 H 0.1471 0.50311 0.34044 0.0
H4966 H 0.16454 0.5124 0.34091 0.0
H4967 H 0.16379 0.49259 0.34154 0.0
H4968 H 0.18106 0.49126 0.31898 0.0
H4969 H 0.18181 0.51093 0.31824 0.0
H4970 H 0.17601 0.50069 0.3023 0.0
H4971 H 0.12176 0.51606 0.2904 0.0
H4972 H 0.13034 0.54165 0.28765 0.0
H4973 H 0.16652 0.53249 0.31711 0.0
C4974 C 0.15447 0.47446 0.31356 0.0
C4975 C 0.14637 0.46464 0.30471 0.0
C4976 C 0.13381 0.46979 0.29719 0.0
C4977 C 0.12993 0.4847 0.2977 0.0
C4978 C 0.13861 0.49428 0.30592 0.0
C4979 C 0.15054 0.48931 0.31388 0.0
C4980 C 0.15951 0.50199 0.31982 0.0
C4981 C 0.15868 0.50255 0.33668 0.0
C4982 C 0.17552 0.50117 0.3145 0.0
C4983 C 0.15145 0.51482 0.31301 0.0
C4984 C 0.13916 0.51022 0.30541 0.0
C4985 C 0.1311 0.51986 0.29665 0.0
C4986 C 0.13607 0.5344 0.29514 0.0
C4987 C 0.14907 0.53906 0.30221 0.0
C4988 C 0.15641 0.52931 0.31176 0.0
H4989 H 0.51972 0.14272 0.29849 0.0
H4990 H 0.52815 0.17101 0.33587 0.0
H4991 H 0.50241 0.16855 0.34357 0.0
H4992 H 0.48932 0.15857 0.28828 0.0
H4993 H 0.47931 0.14255 0.28235 0.0
H4994 H 0.49892 0.14225 0.28247 0.0
H4995 H 0.49869 0.11924 0.29923 0.0
H4996 H 0.47894 0.11938 0.29907 0.0
H4997 H 0.48868 0.11962 0.31631 0.0
H4998 H 0.4755 0.16868 0.34348 0.0
H4999 H 0.44984 0.17137 0.33559 0.0
H5000 H 0.45823 0.143 0.29825 0.0
C5001 C 0.5163 0.14775 0.30871 0.0
C5002 C 0.52591 0.15694 0.31666 0.0
C5003 C 0.52097 0.16382 0.32969 0.0
C5004 C 0.50636 0.16242 0.33419 0.0
C5005 C 0.49687 0.15402 0.32559 0.0
C5006 C 0.50168 0.14661 0.31321 0.0
C5007 C 0.48893 0.14059 0.3044 0.0
C5008 C 0.48914 0.14635 0.28845 0.0
C5009 C 0.4888 0.1237 0.30478 0.0
C5010 C 0.47621 0.14684 0.31305 0.0
C5011 C 0.48101 0.15414 0.32551 0.0
C5012 C 0.47155 0.16261 0.33404 0.0
C5013 C 0.45699 0.16414 0.32944 0.0
C5014 C 0.45205 0.15728 0.31639 0.0
C5015 C 0.46163 0.14802 0.30849 0.0
H5016 H 0.66776 0.82251 0.45777 0.0
H5017 H 0.70169 0.85492 0.4499 0.0
H5018 H 0.70012 0.86279 0.47584 0.0
H5019 H 0.64717 0.84357 0.48784 0.0
H5020 H 0.64392 0.82668 0.49768 0.0
H5021 H 0.64461 0.82663 0.47786 0.0
H5022 H 0.66473 0.80658 0.47868 0.0
H5023 H 0.66419 0.80663 0.49838 0.0
H5024 H 0.68126 0.80997 0.489 0.0
H5025 H 0.69887 0.86323 0.50319 0.0
H5026 H 0.69854 0.85585 0.52927 0.0
H5027 H 0.6657 0.82282 0.51947 0.0
C5028 C 0.67441 0.8317 0.46133 0.0
C5029 C 0.68478 0.83817 0.45181 0.0
C5030 C 0.69358 0.84989 0.45698 0.0
C5031 C 0.69271 0.85447 0.47169 0.0
C5032 C 0.6829 0.8473 0.48103 0.0
C5033 C 0.67377 0.83625 0.47599 0.0
C5034 C 0.66599 0.82862 0.48854 0.0
C5035 C 0.64944 0.83156 0.48794 0.0
C5036 C 0.66925 0.81198 0.48865 0.0
C5037 C 0.67294 0.83635 0.5015 0.0
C5038 C 0.68232 0.84741 0.49697 0.0
C5039 C 0.69128 0.85487 0.50689 0.0
C5040 C 0.69104 0.85058 0.5217 0.0
C5041 C 0.68205 0.83879 0.5264 0.0
C5042 C 0.67249 0.83204 0.51625 0.0
H5043 H 0.66219 0.17735 0.45967 0.0
H5044 H 0.68536 0.13695 0.44983 0.0
H5045 H 0.68312 0.12938 0.47575 0.0
H5046 H 0.68013 0.18533 0.48975 0.0
H5047 H 0.66528 0.19293 0.50034 0.0
H5048 H 0.66439 0.1931 0.48067 0.0
H5049 H 0.6397 0.17907 0.48141 0.0
H5050 H 0.64043 0.17897 0.50123 0.0
H5051 H 0.6384 0.16194 0.49129 0.0
H5052 H 0.68422 0.12921 0.50289 0.0
H5053 H 0.68814 0.13631 0.52877 0.0
H5054 H 0.66413 0.17672 0.52132 0.0
C5055 C 0.66617 0.1666 0.46283 0.0
C5056 C 0.67389 0.15772 0.45276 0.0
C5057 C 0.67931 0.14389 0.45736 0.0
C5058 C 0.67803 0.13947 0.47207 0.0
C5059 C 0.67115 0.14891 0.48197 0.0
C5060 C 0.66507 0.1621 0.47749 0.0
C5061 C 0.6605 0.17138 0.49053 0.0
C5062 C 0.66804 0.18656 0.4903 0.0
C5063 C 0.64376 0.17292 0.49115 0.0
C5064 C 0.66606 0.16191 0.50301 0.0
C5065 C 0.67177 0.14879 0.49789 0.0
C5066 C 0.67937 0.13922 0.5071 0.0
C5067 C 0.68161 0.14336 0.52178 0.0
C5068 C 0.67635 0.15701 0.52704 0.0
C5069 C 0.66799 0.16607 0.51767 0.0
H5070 H 0.8386 0.70312 0.52558 0.0
H5071 H 0.82369 0.65921 0.53646 0.0
H5072 H 0.82746 0.65152 0.51079 0.0
H5073 H 0.81973 0.70655 0.49517 0.0
H5074 H 0.8329 0.71656 0.48431 0.0
H5075 H 0.83365 0.71753 0.50398 0.0
H5076 H 0.86054 0.70855 0.50368 0.0
H5077 H 0.85996 0.70772 0.48388 0.0
H5078 H 0.86516 0.69171 0.49432 0.0
H5079 H 0.8262 0.65044 0.48375 0.0
H5080 H 0.82131 0.65582 0.45761 0.0
H5081 H 0.83755 0.70018 0.46374 0.0
C5082 C 0.83689 0.6917 0.5227 0.0
C5083 C 0.83096 0.68174 0.533 0.0
C5084 C 0.82834 0.667 0.52875 0.0
C5085 C 0.8305 0.66251 0.51418 0.0
C5086 C 0.83544 0.67285 0.50402 0.0
C5087 C 0.83889 0.6871 0.50814 0.0
C5088 C 0.84167 0.69668 0.4948 0.0
C5089 C 0.83137 0.7101 0.49456 0.0
C5090 C 0.8578 0.70144 0.49413 0.0
C5091 C 0.83809 0.68593 0.48259 0.0
C5092 C 0.83488 0.67214 0.48812 0.0
C5093 C 0.82918 0.66103 0.47921 0.0
C5094 C 0.82636 0.66419 0.46439 0.0
C5095 C 0.82924 0.67834 0.45865 0.0
C5096 C 0.83566 0.68914 0.46776 0.0
H5097 H 0.28273 0.8435 0.45898 0.0
H5098 H 0.32632 0.82741 0.44946 0.0
H5099 H 0.33356 0.83187 0.47518 0.0
H5100 H 0.29363 0.87064 0.49005 0.0
H5101 H 0.2774 0.86572 0.50019 0.0
H5102 H 0.27704 0.86598 0.48037 0.0
H5103 H 0.26783 0.83904 0.4803 0.0
H5104 H 0.26834 0.8386 0.49999 0.0
H5105 H 0.27843 0.82513 0.48958 0.0
H5106 H 0.33416 0.83164 0.50221 0.0
H5107 H 0.32824 0.82728 0.52829 0.0
H5108 H 0.2842 0.84338 0.52087 0.0
C5109 C 0.29401 0.84172 0.46216 0.0
C5110 C 0.30403 0.83531 0.45225 0.0
C5111 C 0.31854 0.83248 0.45688 0.0
C5112 C 0.32275 0.83503 0.47146 0.0
C5113 C 0.31234 0.84047 0.48126 0.0
C5114 C 0.29829 0.844 0.47676 0.0
C5115 C 0.28846 0.84709 0.48983 0.0
C5116 C 0.28386 0.86333 0.49012 0.0
C5117 C 0.27499 0.83685 0.48992 0.0
C5118 C 0.29884 0.84362 0.50234 0.0
C5119 C 0.31268 0.84024 0.49718 0.0
C5120 C 0.32353 0.83471 0.50644 0.0
C5121 C 0.32004 0.83219 0.52123 0.0
C5122 C 0.30581 0.83513 0.5266 0.0
C5123 C 0.29528 0.8414 0.51714 0.0
H5124 H 0.16051 0.32028 0.4593 0.0
H5125 H 0.12566 0.28882 0.45163 0.0
H5126 H 0.11823 0.29093 0.47766 0.0
H5127 H 0.17244 0.30528 0.48977 0.0
H5128 H 0.17738 0.32186 0.49943 0.0
H5129 H 0.17692 0.32179 0.47975 0.0
H5130 H 0.15865 0.34357 0.47987 0.0
H5131 H 0.15915 0.34381 0.49969 0.0
H5132 H 0.14188 0.34217 0.49023 0.0
H5133 H 0.11822 0.29202 0.50498 0.0
H5134 H 0.12628 0.29096 0.53081 0.0
H5135 H 0.1619 0.32087 0.52086 0.0
C5136 C 0.15089 0.31434 0.46292 0.0
C5137 C 0.14359 0.30447 0.45344 0.0
C5138 C 0.13132 0.29656 0.45868 0.0
C5139 C 0.12699 0.29775 0.47345 0.0
C5140 C 0.13499 0.30695 0.48276 0.0
C5141 C 0.14663 0.31522 0.47763 0.0
C5142 C 0.15518 0.32209 0.49014 0.0
C5143 C 0.17142 0.31746 0.48974 0.0
C5144 C 0.15361 0.33891 0.48997 0.0
C5145 C 0.14725 0.31548 0.50314 0.0
C5146 C 0.1353 0.30724 0.4987 0.0
C5147 C 0.12732 0.29873 0.50862 0.0
C5148 C 0.132 0.29818 0.52329 0.0
C5149 C 0.14473 0.30584 0.52782 0.0
C5150 C 0.15203 0.31506 0.51774 0.0
H5151 H 0.28643 0.14628 0.51712 0.0
H5152 H 0.32719 0.16889 0.52618 0.0
H5153 H 0.33457 0.16585 0.50027 0.0
H5154 H 0.30051 0.12147 0.48575 0.0
H5155 H 0.28361 0.124 0.47584 0.0
H5156 H 0.28356 0.12364 0.49566 0.0
H5157 H 0.27067 0.149 0.49606 0.0
H5158 H 0.27073 0.14946 0.47636 0.0
H5159 H 0.27898 0.16429 0.48659 0.0
H5160 H 0.33504 0.16567 0.47321 0.0
H5161 H 0.32809 0.16957 0.44735 0.0
H5162 H 0.28667 0.14765 0.45523 0.0
C5163 C 0.29721 0.14992 0.51377 0.0
C5164 C 0.30636 0.15761 0.52364 0.0
C5165 C 0.32012 0.16282 0.5188 0.0
C5166 C 0.32443 0.16105 0.50411 0.0
C5167 C 0.31483 0.15406 0.49442 0.0
C5168 C 0.30152 0.14849 0.49907 0.0
C5169 C 0.29204 0.14402 0.48613 0.0
C5170 C 0.2898 0.12728 0.48583 0.0
C5171 C 0.27725 0.15219 0.4863 0.0
C5172 C 0.30163 0.14899 0.47349 0.0
C5173 C 0.31495 0.15426 0.47849 0.0
C5174 C 0.32484 0.16121 0.46912 0.0
C5175 C 0.32077 0.16342 0.45443 0.0
C5176 C 0.30688 0.15882 0.44929 0.0
C5177 C 0.2975 0.15094 0.45878 0.0
H5178 H 0.83968 0.28571 0.46724 0.0
H5179 H 0.82449 0.33001 0.45873 0.0
H5180 H 0.82967 0.33675 0.48448 0.0
H5181 H 0.82196 0.28149 0.4986 0.0
H5182 H 0.83549 0.27076 0.50823 0.0
H5183 H 0.83507 0.27061 0.48853 0.0
H5184 H 0.86219 0.27896 0.48774 0.0
H5185 H 0.8627 0.2791 0.50756 0.0
H5186 H 0.86771 0.29536 0.49741 0.0
H5187 H 0.83084 0.33714 0.51152 0.0
H5188 H 0.82684 0.33092 0.53757 0.0
H5189 H 0.84097 0.28624 0.52912 0.0
C5190 C 0.83811 0.29701 0.47065 0.0
C5191 C 0.83186 0.3074 0.46099 0.0
C5192 C 0.82941 0.32193 0.46594 0.0
C5193 C 0.83241 0.32587 0.48053 0.0
C5194 C 0.8379 0.31516 0.49002 0.0
C5195 C 0.84084 0.30102 0.48525 0.0
C5196 C 0.84411 0.29089 0.49806 0.0
C5197 C 0.83352 0.27768 0.49837 0.0
C5198 C 0.86014 0.28578 0.49767 0.0
C5199 C 0.84147 0.30125 0.51083 0.0
C5200 C 0.83839 0.31532 0.50594 0.0
C5201 C 0.83364 0.3263 0.51552 0.0
C5202 C 0.83137 0.32265 0.5303 0.0
C5203 C 0.83373 0.30813 0.53536 0.0
C5204 C 0.83948 0.29752 0.52563 0.0
H5205 H 0.17968 0.66524 0.52198 0.0
H5206 H 0.1378 0.68614 0.52999 0.0
H5207 H 0.13047 0.6811 0.50437 0.0
H5208 H 0.18592 0.68119 0.48973 0.0
H5209 H 0.19476 0.6659 0.48079 0.0
H5210 H 0.19508 0.66729 0.50044 0.0
H5211 H 0.18345 0.64137 0.50257 0.0
H5212 H 0.18311 0.6399 0.4828 0.0
H5213 H 0.16649 0.63747 0.49321 0.0
H5214 H 0.12972 0.67863 0.47721 0.0
H5215 H 0.13608 0.6801 0.45092 0.0
H5216 H 0.17857 0.66103 0.46028 0.0
C5217 C 0.16873 0.66819 0.51851 0.0
C5218 C 0.15925 0.67595 0.52798 0.0
C5219 C 0.14519 0.68008 0.52293 0.0
C5220 C 0.1409 0.67717 0.50841 0.0
C5221 C 0.15076 0.67006 0.49912 0.0
C5222 C 0.16437 0.66552 0.50401 0.0
C5223 C 0.17386 0.66035 0.49138 0.0
C5224 C 0.18823 0.66922 0.49054 0.0
C5225 C 0.1769 0.64378 0.49256 0.0
C5226 C 0.16387 0.66367 0.47853 0.0
C5227 C 0.15041 0.66881 0.48324 0.0
C5228 C 0.14006 0.67427 0.47339 0.0
C5229 C 0.14378 0.67508 0.45845 0.0
C5230 C 0.15781 0.67063 0.45355 0.0
C5231 C 0.16767 0.66425 0.46365 0.0
H5232 H 0.15444 0.11056 0.32825 0.0
H5233 H 0.13987 0.08214 0.29304 0.0
H5234 H 0.11627 0.09528 0.29212 0.0
H5235 H 0.1161 0.11835 0.3451 0.0
H5236 H 0.1212 0.1372 0.34848 0.0
H5237 H 0.13477 0.12286 0.3497 0.0
H5238 H 0.15088 0.13681 0.33088 0.0
H5239 H 0.13737 0.15103 0.32945 0.0
H5240 H 0.14334 0.14147 0.31316 0.0
H5241 H 0.09799 0.11477 0.29026 0.0
H5242 H 0.08567 0.13887 0.28833 0.0
H5243 H 0.11125 0.15517 0.3249 0.0
C5244 C 0.14587 0.10664 0.32101 0.0
C5245 C 0.14864 0.09514 0.311 0.0
C5246 C 0.13767 0.09071 0.30101 0.0
C5247 C 0.12426 0.09811 0.30044 0.0
C5248 C 0.12205 0.10995 0.30992 0.0
C5249 C 0.13247 0.1141 0.32019 0.0
C5250 C 0.12851 0.12869 0.32723 0.0
C5251 C 0.12493 0.12665 0.3436 0.0
C5252 C 0.14075 0.14016 0.32503 0.0
C5253 C 0.1149 0.13259 0.31854 0.0
C5254 C 0.11117 0.12145 0.30887 0.0
C5255 C 0.10041 0.12334 0.29815 0.0
C5256 C 0.09351 0.13703 0.29708 0.0
C5257 C 0.09731 0.14857 0.30673 0.0
C5258 C 0.10782 0.14623 0.31783 0.0
H5259 H 0.87424 0.15032 0.32309 0.0
H5260 H 0.88971 0.14806 0.27818 0.0
H5261 H 0.87547 0.12534 0.27426 0.0
H5262 H 0.87037 0.10849 0.32925 0.0
H5263 H 0.85382 0.1112 0.3397 0.0
H5264 H 0.8682 0.12479 0.34031 0.0
H5265 H 0.84965 0.14478 0.33238 0.0
H5266 H 0.8353 0.1313 0.33157 0.0
H5267 H 0.83938 0.14233 0.31562 0.0
H5268 H 0.8557 0.10724 0.27322 0.0
H5269 H 0.83233 0.09378 0.27558 0.0
H5270 H 0.8294 0.10667 0.32131 0.0
C5271 C 0.87518 0.14452 0.31274 0.0
C5272 C 0.88329 0.15058 0.30103 0.0
C5273 C 0.88376 0.14329 0.28733 0.0
C5274 C 0.87573 0.1304 0.28503 0.0
C5275 C 0.86727 0.12498 0.29655 0.0
C5276 C 0.86706 0.13166 0.31024 0.0
C5277 C 0.85538 0.12488 0.31999 0.0
C5278 C 0.86236 0.11686 0.33309 0.0
C5279 C 0.84428 0.13652 0.32518 0.0
C5280 C 0.84847 0.11407 0.30935 0.0
C5281 C 0.8557 0.11413 0.29598 0.0
C5282 C 0.85024 0.10667 0.28376 0.0
C5283 C 0.83696 0.09912 0.28516 0.0
C5284 C 0.82939 0.09898 0.29869 0.0
C5285 C 0.83535 0.10623 0.31102 0.0
H5286 H 0.86611 0.82375 0.27814 0.0
H5287 H 0.88995 0.83779 0.31698 0.0
H5288 H 0.87449 0.86005 0.31841 0.0
H5289 H 0.85989 0.86094 0.26265 0.0
H5290 H 0.8419 0.85599 0.25616 0.0
H5291 H 0.85608 0.84226 0.2572 0.0
H5292 H 0.83928 0.82603 0.27347 0.0
H5293 H 0.82512 0.8397 0.27256 0.0
H5294 H 0.83177 0.83357 0.29018 0.0
H5295 H 0.8543 0.87913 0.31729 0.0
H5296 H 0.83181 0.8937 0.31319 0.0
H5297 H 0.82185 0.86707 0.27485 0.0
C5298 C 0.86831 0.83163 0.28679 0.0
C5299 C 0.87924 0.82902 0.29745 0.0
C5300 C 0.88168 0.83959 0.30863 0.0
C5301 C 0.87296 0.85227 0.30954 0.0
C5302 C 0.862 0.85428 0.29906 0.0
C5303 C 0.85979 0.84432 0.2878 0.0
C5304 C 0.84672 0.84843 0.27848 0.0
C5305 C 0.85144 0.85213 0.26269 0.0
C5306 C 0.83504 0.83621 0.2787 0.0
C5307 C 0.84157 0.86199 0.28656 0.0
C5308 C 0.85056 0.86531 0.29832 0.0
C5309 C 0.84733 0.87678 0.30796 0.0
C5310 C 0.83451 0.88497 0.30557 0.0
C5311 C 0.82509 0.88159 0.29366 0.0
C5312 C 0.82888 0.87008 0.28395 0.0
H5313 H 0.11409 0.82955 0.28225 0.0
H5314 H 0.09479 0.83737 0.32512 0.0
H5315 H 0.10985 0.85985 0.32779 0.0
H5316 H 0.14931 0.83892 0.29124 0.0
H5317 H 0.15362 0.8476 0.27396 0.0
H5318 H 0.13989 0.83347 0.27469 0.0
H5319 H 0.12098 0.85122 0.26298 0.0
H5320 H 0.13471 0.86544 0.26218 0.0
H5321 H 0.11758 0.86882 0.27142 0.0
H5322 H 0.12967 0.87959 0.327 0.0
H5323 H 0.15174 0.89481 0.32253 0.0
H5324 H 0.15695 0.87409 0.27985 0.0
C5325 C 0.11279 0.83613 0.29209 0.0
C5326 C 0.1033 0.8317 0.30349 0.0
C5327 C 0.10195 0.8406 0.31621 0.0
C5328 C 0.11045 0.8534 0.31781 0.0
C5329 C 0.12002 0.85724 0.30648 0.0
C5330 C 0.12104 0.84894 0.29379 0.0
C5331 C 0.13279 0.85472 0.28364 0.0
C5332 C 0.14459 0.84299 0.28073 0.0
C5333 C 0.12611 0.86039 0.26921 0.0
C5334 C 0.13867 0.86722 0.29286 0.0
C5335 C 0.13112 0.86867 0.30593 0.0
C5336 C 0.13548 0.87874 0.31667 0.0
C5337 C 0.14803 0.88733 0.31404 0.0
C5338 C 0.15607 0.88571 0.30082 0.0
C5339 C 0.15102 0.87576 0.29002 0.0
H5340 H 0.15589 0.86156 0.70461 0.0
H5341 H 0.14183 0.89005 0.66904 0.0
H5342 H 0.11925 0.8752 0.66631 0.0
H5343 H 0.14508 0.82884 0.68879 0.0
H5344 H 0.1393 0.82033 0.70572 0.0
H5345 H 0.15323 0.83429 0.70601 0.0
H5346 H 0.13792 0.84948 0.72459 0.0
H5347 H 0.12391 0.83552 0.72438 0.0
H5348 H 0.1193 0.85431 0.72015 0.0
H5349 H 0.09946 0.85546 0.66593 0.0
H5350 H 0.0846 0.83278 0.66778 0.0
H5351 H 0.11206 0.8178 0.70373 0.0
C5352 C 0.14798 0.86488 0.69639 0.0
C5353 C 0.15064 0.87697 0.68703 0.0
C5354 C 0.14 0.88085 0.67638 0.0
C5355 C 0.12714 0.8725 0.67477 0.0
C5356 C 0.12504 0.86044 0.68401 0.0
C5357 C 0.13516 0.85673 0.69467 0.0
C5358 C 0.13099 0.84273 0.70255 0.0
C5359 C 0.14285 0.83085 0.70064 0.0
C5360 C 0.12784 0.84569 0.71889 0.0
C5361 C 0.11716 0.8388 0.69434 0.0
C5362 C 0.11376 0.8492 0.6838 0.0
C5363 C 0.10192 0.84736 0.67428 0.0
C5364 C 0.09354 0.83444 0.67542 0.0
C5365 C 0.09714 0.8235 0.68591 0.0
C5366 C 0.10893 0.82596 0.69564 0.0
H5367 H 0.15705 0.1209 0.69936 0.0
H5368 H 0.14608 0.09587 0.66025 0.0
H5369 H 0.12379 0.11108 0.65696 0.0
H5370 H 0.11966 0.12628 0.71248 0.0
H5371 H 0.12365 0.14455 0.71902 0.0
H5372 H 0.13783 0.1308 0.71877 0.0
H5373 H 0.15417 0.14807 0.70306 0.0
H5374 H 0.14005 0.16183 0.70323 0.0
H5375 H 0.14717 0.15523 0.68597 0.0
H5376 H 0.1036 0.13079 0.65718 0.0
H5377 H 0.08773 0.15259 0.66099 0.0
H5378 H 0.11268 0.16376 0.70005 0.0
C5379 C 0.14992 0.11845 0.69016 0.0
C5380 C 0.15332 0.10722 0.68003 0.0
C5381 C 0.14365 0.1044 0.66818 0.0
C5382 C 0.13098 0.11298 0.66623 0.0
C5383 C 0.12812 0.12418 0.67633 0.0
C5384 C 0.13732 0.12679 0.68812 0.0
C5385 C 0.13237 0.1398 0.69711 0.0
C5386 C 0.12812 0.13507 0.71277 0.0
C5387 C 0.14414 0.15194 0.69734 0.0
C5388 C 0.11913 0.14441 0.68836 0.0
C5389 C 0.11669 0.13527 0.67648 0.0
C5390 C 0.10534 0.13792 0.66655 0.0
C5391 C 0.09639 0.15031 0.66879 0.0
C5392 C 0.09896 0.1599 0.68081 0.0
C5393 C 0.11037 0.15669 0.69075 0.0
H5394 H 0.87312 0.15974 0.66701 0.0
H5395 H 0.89301 0.14859 0.70872 0.0
H5396 H 0.88018 0.12468 0.70859 0.0
H5397 H 0.83943 0.14859 0.67643 0.0
H5398 H 0.83386 0.14155 0.65876 0.0
H5399 H 0.84768 0.15554 0.6598 0.0
H5400 H 0.86557 0.13894 0.64521 0.0
H5401 H 0.85172 0.12482 0.64413 0.0
H5402 H 0.86946 0.12064 0.65172 0.0
H5403 H 0.86212 0.10476 0.70658 0.0
H5404 H 0.83873 0.09134 0.70388 0.0
H5405 H 0.82928 0.11565 0.66414 0.0
C5406 C 0.87521 0.15191 0.67573 0.0
C5407 C 0.88422 0.15571 0.68771 0.0
C5408 C 0.88627 0.14566 0.69937 0.0
C5409 C 0.87912 0.13205 0.69931 0.0
C5410 C 0.86985 0.12875 0.68759 0.0
C5411 C 0.86783 0.13842 0.676 0.0
C5412 C 0.85527 0.13355 0.66625 0.0
C5413 C 0.84336 0.14551 0.66527 0.0
C5414 C 0.86084 0.12923 0.65092 0.0
C5415 C 0.84998 0.1202 0.67467 0.0
C5416 C 0.85888 0.11731 0.68664 0.0
C5417 C 0.85531 0.10661 0.69702 0.0
C5418 C 0.84206 0.09903 0.69542 0.0
C5419 C 0.83259 0.10227 0.68361 0.0
C5420 C 0.83673 0.11266 0.67292 0.0
H5421 H 0.87909 0.83255 0.67589 0.0
H5422 H 0.88517 0.82675 0.7228 0.0
H5423 H 0.8701 0.84867 0.72754 0.0
H5424 H 0.87618 0.87466 0.67636 0.0
H5425 H 0.86211 0.87423 0.66247 0.0
H5426 H 0.87637 0.86052 0.66247 0.0
H5427 H 0.85671 0.83999 0.66298 0.0
H5428 H 0.84245 0.85356 0.66308 0.0
H5429 H 0.8432 0.83993 0.67744 0.0
H5430 H 0.85052 0.86698 0.72763 0.0
H5431 H 0.82794 0.88109 0.72295 0.0
H5432 H 0.83429 0.87605 0.67604 0.0
C5433 C 0.87776 0.83633 0.68711 0.0
C5434 C 0.88339 0.8281 0.69899 0.0
C5435 C 0.881 0.83298 0.71356 0.0
C5436 C 0.87253 0.84547 0.71635 0.0
C5437 C 0.86655 0.853 0.70445 0.0
C5438 C 0.86916 0.84874 0.69008 0.0
C5439 C 0.85969 0.85739 0.67946 0.0
C5440 C 0.86915 0.86729 0.66961 0.0
C5441 C 0.84994 0.8471 0.67021 0.0
C5442 C 0.85072 0.86645 0.69016 0.0
C5443 C 0.8551 0.86396 0.70451 0.0
C5444 C 0.84728 0.86943 0.71646 0.0
C5445 C 0.83446 0.87738 0.71371 0.0
C5446 C 0.82967 0.87986 0.69916 0.0
C5447 C 0.8381 0.87471 0.68723 0.0
H5448 H 0.27853 0.17346 0.12034 0.0
H5449 H 0.31151 0.15565 0.09092 0.0
H5450 H 0.3136 0.13366 0.10675 0.0
H5451 H 0.29526 0.1626 0.15309 0.0
H5452 H 0.27842 0.15831 0.16248 0.0
H5453 H 0.27856 0.1719 0.14812 0.0
H5454 H 0.2583 0.15758 0.13419 0.0
H5455 H 0.25804 0.14396 0.14856 0.0
H5456 H 0.26108 0.13846 0.12977 0.0
H5457 H 0.31324 0.11441 0.12689 0.0
H5458 H 0.31032 0.09953 0.14946 0.0
H5459 H 0.27769 0.13039 0.16534 0.0
C5460 C 0.28605 0.16486 0.11706 0.0
C5461 C 0.29484 0.16628 0.10436 0.0
C5462 C 0.30463 0.1548 0.10058 0.0
C5463 C 0.30588 0.14226 0.10949 0.0
C5464 C 0.29723 0.14136 0.12208 0.0
C5465 C 0.28745 0.15234 0.12579 0.0
C5466 C 0.27993 0.14915 0.14024 0.0
C5467 C 0.28325 0.1612 0.15165 0.0
C5468 C 0.26335 0.14716 0.13805 0.0
C5469 C 0.28721 0.1348 0.14425 0.0
C5470 C 0.29707 0.13039 0.13361 0.0
C5471 C 0.30545 0.11769 0.13523 0.0
C5472 C 0.30374 0.10933 0.14809 0.0
C5473 C 0.29378 0.11378 0.15918 0.0
C5474 C 0.28537 0.12663 0.15709 0.0
H5475 H 0.87267 0.31825 0.15699 0.0
H5476 H 0.88839 0.27455 0.14661 0.0
H5477 H 0.87386 0.27461 0.12374 0.0
H5478 H 0.8374 0.31139 0.14803 0.0
H5479 H 0.83308 0.32914 0.14039 0.0
H5480 H 0.84742 0.32748 0.15378 0.0
H5481 H 0.86576 0.33959 0.13575 0.0
H5482 H 0.8514 0.34138 0.12226 0.0
H5483 H 0.86813 0.33197 0.1176 0.0
H5484 H 0.85464 0.27715 0.10508 0.0
H5485 H 0.83142 0.28188 0.09196 0.0
H5486 H 0.82728 0.32375 0.11419 0.0
C5487 C 0.8735 0.30901 0.14952 0.0
C5488 C 0.88181 0.29651 0.15329 0.0
C5489 C 0.8822 0.28429 0.14371 0.0
C5490 C 0.87405 0.28426 0.13069 0.0
C5491 C 0.86549 0.29652 0.12748 0.0
C5492 C 0.86516 0.30872 0.13658 0.0
C5493 C 0.85332 0.3194 0.13182 0.0
C5494 C 0.84215 0.32199 0.14424 0.0
C5495 C 0.86006 0.33395 0.12654 0.0
C5496 C 0.84659 0.31095 0.11913 0.0
C5497 C 0.85403 0.29794 0.11661 0.0
C5498 C 0.84897 0.28748 0.10663 0.0
C5499 C 0.83581 0.29022 0.09925 0.0
C5500 C 0.82793 0.3033 0.10188 0.0
C5501 C 0.83349 0.31392 0.11168 0.0
H5502 H 0.69933 0.87578 0.14938 0.0
H5503 H 0.65341 0.8879 0.14996 0.0
H5504 H 0.64913 0.87224 0.1281 0.0
H5505 H 0.70322 0.87277 0.10862 0.0
H5506 H 0.71538 0.85727 0.11039 0.0
H5507 H 0.71512 0.87133 0.12437 0.0
H5508 H 0.70996 0.8515 0.14419 0.0
H5509 H 0.71016 0.83745 0.13033 0.0
H5510 H 0.69439 0.83949 0.14205 0.0
H5511 H 0.6494 0.8523 0.10841 0.0
H5512 H 0.65421 0.83023 0.0932 0.0
H5513 H 0.7 0.83191 0.1058 0.0
C5514 C 0.68842 0.87544 0.14474 0.0
C5515 C 0.6767 0.88305 0.15138 0.0
C5516 C 0.66258 0.88223 0.14499 0.0
C5517 C 0.66005 0.87338 0.13256 0.0
C5518 C 0.67182 0.86565 0.12656 0.0
C5519 C 0.68576 0.86677 0.13238 0.0
C5520 C 0.69631 0.8564 0.12492 0.0
C5521 C 0.70821 0.86496 0.11658 0.0
C5522 C 0.70308 0.84557 0.13603 0.0
C5523 C 0.68602 0.84872 0.11445 0.0
C5524 C 0.67198 0.85432 0.1153 0.0
C5525 C 0.66042 0.84803 0.10746 0.0
C5526 C 0.66324 0.8355 0.09883 0.0
C5527 C 0.67748 0.82935 0.0983 0.0
C5528 C 0.68901 0.83637 0.10589 0.0
H5529 H 0.15043 0.67313 0.10672 0.0
H5530 H 0.158 0.71926 0.09762 0.0
H5531 H 0.13685 0.72591 0.11308 0.0
H5532 H 0.10893 0.67532 0.11059 0.0
H5533 H 0.109 0.66246 0.12566 0.0
H5534 H 0.12252 0.66097 0.11129 0.0
H5535 H 0.14315 0.66222 0.13078 0.0
H5536 H 0.12976 0.66381 0.14516 0.0
H5537 H 0.14382 0.6776 0.14328 0.0
H5538 H 0.11832 0.728 0.13242 0.0
H5539 H 0.10323 0.72545 0.15471 0.0
H5540 H 0.10722 0.678 0.15211 0.0
C5541 C 0.14718 0.68455 0.10754 0.0
C5542 C 0.15558 0.69571 0.10083 0.0
C5543 C 0.15152 0.7106 0.10258 0.0
C5544 C 0.13951 0.71445 0.11128 0.0
C5545 C 0.13171 0.70328 0.11822 0.0
C5546 C 0.13528 0.68861 0.11644 0.0
C5547 C 0.12637 0.679 0.12675 0.0
C5548 C 0.11609 0.66883 0.11805 0.0
C5549 C 0.13638 0.67014 0.1371 0.0
C5550 C 0.11781 0.69063 0.13506 0.0
C5551 C 0.12088 0.70453 0.12973 0.0
C5552 C 0.11554 0.71717 0.13649 0.0
C5553 C 0.10705 0.71562 0.14919 0.0
C5554 C 0.10396 0.70154 0.15502 0.0
C5555 C 0.10912 0.68887 0.14765 0.0
H5556 H 0.28074 0.87395 0.83492 0.0
H5557 H 0.32509 0.89106 0.83516 0.0
H5558 H 0.33045 0.87638 0.85745 0.0
H5559 H 0.27606 0.87075 0.87558 0.0
H5560 H 0.26582 0.85392 0.87355 0.0
H5561 H 0.26487 0.86787 0.8595 0.0
H5562 H 0.27283 0.84872 0.83996 0.0
H5563 H 0.27387 0.83478 0.85388 0.0
H5564 H 0.28963 0.83865 0.84259 0.0
H5565 H 0.33176 0.85691 0.87769 0.0
H5566 H 0.32899 0.8345 0.89301 0.0
H5567 H 0.28391 0.83049 0.87864 0.0
C5568 C 0.2915 0.87495 0.83984 0.0
C5569 C 0.30249 0.88367 0.8333 0.0
C5570 C 0.31645 0.88453 0.84004 0.0
C5571 C 0.31958 0.87624 0.85272 0.0
C5572 C 0.30858 0.86733 0.85858 0.0
C5573 C 0.29477 0.86678 0.85237 0.0
C5574 C 0.28528 0.85526 0.85957 0.0
C5575 C 0.27224 0.86238 0.86752 0.0
C5576 C 0.28012 0.84367 0.84833 0.0
C5577 C 0.29607 0.84888 0.87038 0.0
C5578 C 0.30938 0.85613 0.86995 0.0
C5579 C 0.3213 0.85134 0.87829 0.0
C5580 C 0.31964 0.83863 0.88697 0.0
C5581 C 0.30624 0.83079 0.88697 0.0
C5582 C 0.29428 0.83628 0.87888 0.0
H5583 H 0.15742 0.31248 0.88012 0.0
H5584 H 0.15963 0.26568 0.88878 0.0
H5585 H 0.13721 0.26184 0.87422 0.0
H5586 H 0.11562 0.3153 0.87762 0.0
H5587 H 0.11691 0.32823 0.86267 0.0
H5588 H 0.13078 0.32797 0.87678 0.0
H5589 H 0.15073 0.32457 0.85684 0.0
H5590 H 0.13698 0.3247 0.84273 0.0
H5591 H 0.14937 0.30935 0.8442 0.0
H5592 H 0.11846 0.26212 0.85514 0.0
H5593 H 0.10407 0.26655 0.83265 0.0
H5594 H 0.11323 0.31318 0.83573 0.0
C5595 C 0.15275 0.30155 0.87946 0.0
C5596 C 0.16006 0.28938 0.8857 0.0
C5597 C 0.15408 0.27513 0.88415 0.0
C5598 C 0.14131 0.27286 0.87598 0.0
C5599 C 0.13467 0.28497 0.8694 0.0
C5600 C 0.14008 0.29908 0.87111 0.0
C5601 C 0.13218 0.30979 0.86107 0.0
C5602 C 0.12334 0.32098 0.87008 0.0
C5603 C 0.14296 0.31754 0.85059 0.0
C5604 C 0.12215 0.29935 0.85285 0.0
C5605 C 0.12357 0.28514 0.85811 0.0
C5606 C 0.1169 0.27323 0.8512 0.0
C5607 C 0.10882 0.27583 0.83842 0.0
C5608 C 0.10741 0.29021 0.83272 0.0
C5609 C 0.11381 0.30217 0.84021 0.0
H5610 H 0.69234 0.14798 0.87688 0.0
H5611 H 0.6476 0.16307 0.88221 0.0
H5612 H 0.63893 0.14269 0.86646 0.0
H5613 H 0.69015 0.1383 0.8401 0.0
H5614 H 0.7014 0.12209 0.84152 0.0
H5615 H 0.7039 0.13701 0.85426 0.0
H5616 H 0.69985 0.11921 0.87614 0.0
H5617 H 0.69742 0.10418 0.86345 0.0
H5618 H 0.68344 0.1082 0.87685 0.0
H5619 H 0.63568 0.12282 0.84735 0.0
H5620 H 0.63789 0.10335 0.82841 0.0
H5621 H 0.68444 0.10026 0.83724 0.0
C5622 C 0.68069 0.14684 0.87494 0.0
C5623 C 0.67064 0.15709 0.88071 0.0
C5624 C 0.65548 0.15526 0.87795 0.0
C5625 C 0.65046 0.14375 0.869 0.0
C5626 C 0.66071 0.13402 0.86319 0.0
C5627 C 0.67548 0.13528 0.86629 0.0
C5628 C 0.6843 0.12366 0.85836 0.0
C5629 C 0.6956 0.13069 0.84794 0.0
C5630 C 0.69169 0.11319 0.86936 0.0
C5631 C 0.67226 0.11598 0.84993 0.0
C5632 C 0.65872 0.12211 0.85281 0.0
C5633 C 0.64616 0.11769 0.84527 0.0
C5634 C 0.64751 0.1067 0.83451 0.0
C5635 C 0.66127 0.1002 0.83158 0.0
C5636 C 0.67372 0.1048 0.83953 0.0
H5637 H 0.88074 0.67697 0.83457 0.0
H5638 H 0.88304 0.72403 0.82716 0.0
H5639 H 0.86704 0.72822 0.84852 0.0
H5640 H 0.84442 0.67569 0.84178 0.0
H5641 H 0.84492 0.66185 0.85596 0.0
H5642 H 0.85911 0.66246 0.84229 0.0
H5643 H 0.8788 0.66442 0.86269 0.0
H5644 H 0.86464 0.66367 0.87649 0.0
H5645 H 0.87746 0.67876 0.87631 0.0
H5646 H 0.84738 0.72726 0.86687 0.0
H5647 H 0.82587 0.7212 0.88211 0.0
H5648 H 0.83623 0.67484 0.87866 0.0
C5649 C 0.87833 0.68817 0.83783 0.0
C5650 C 0.8832 0.70019 0.82929 0.0
C5651 C 0.87946 0.71467 0.83358 0.0
C5652 C 0.87043 0.71716 0.84574 0.0
C5653 C 0.86529 0.70507 0.85358 0.0
C5654 C 0.86921 0.69084 0.84994 0.0
C5655 C 0.86072 0.67976 0.85905 0.0
C5656 C 0.85176 0.66934 0.84918 0.0
C5657 C 0.87102 0.67114 0.86924 0.0
C5658 C 0.85088 0.68997 0.86776 0.0
C5659 C 0.85389 0.70453 0.86457 0.0
C5660 C 0.84518 0.71595 0.86982 0.0
C5661 C 0.83296 0.71241 0.87838 0.0
C5662 C 0.82961 0.6976 0.8817 0.0
C5663 C 0.83887 0.68627 0.87662 0.0
H5664 H 0.16039 0.28705 0.11519 0.0
H5665 H 0.14677 0.32528 0.09015 0.0
H5666 H 0.12475 0.32751 0.10587 0.0
H5667 H 0.12356 0.27217 0.12247 0.0
H5668 H 0.12866 0.26632 0.14069 0.0
H5669 H 0.14217 0.26679 0.12626 0.0
H5670 H 0.1586 0.28361 0.14233 0.0
H5671 H 0.14515 0.28328 0.15675 0.0
H5672 H 0.15125 0.30061 0.14936 0.0
H5673 H 0.1054 0.3268 0.12622 0.0
H5674 H 0.09089 0.3232 0.14898 0.0
H5675 H 0.11793 0.2856 0.16013 0.0
C5676 C 0.15267 0.29575 0.11278 0.0
C5677 C 0.15532 0.30598 0.10141 0.0
C5678 C 0.14495 0.31725 0.09875 0.0
C5679 C 0.1324 0.3186 0.10762 0.0
C5680 C 0.13036 0.30852 0.11899 0.0
C5681 C 0.1402 0.29725 0.12147 0.0
C5682 C 0.13623 0.28843 0.13496 0.0
C5683 C 0.13242 0.27248 0.13084 0.0
C5684 C 0.14854 0.28903 0.14652 0.0
C5685 C 0.12284 0.29674 0.13999 0.0
C5686 C 0.11945 0.30818 0.1306 0.0
C5687 C 0.10787 0.31776 0.13354 0.0
C5688 C 0.0997 0.31564 0.14649 0.0
C5689 C 0.10328 0.30414 0.15636 0.0
C5690 C 0.11487 0.2945 0.15285 0.0
H5691 H 0.14837 0.6717 0.87724 0.0
H5692 H 0.14702 0.71854 0.88583 0.0
H5693 H 0.12427 0.72058 0.87144 0.0
H5694 H 0.13969 0.67411 0.84134 0.0
H5695 H 0.12851 0.65782 0.84003 0.0
H5696 H 0.14236 0.65908 0.85399 0.0
H5697 H 0.12294 0.65416 0.87414 0.0
H5698 H 0.10897 0.65277 0.86018 0.0
H5699 H 0.10686 0.6656 0.87514 0.0
H5700 H 0.1055 0.71882 0.85239 0.0
H5701 H 0.09131 0.71318 0.83 0.0
H5702 H 0.10388 0.66741 0.83329 0.0
C5703 C 0.14286 0.68222 0.8766 0.0
C5704 C 0.14925 0.69494 0.88278 0.0
C5705 C 0.14217 0.70867 0.88126 0.0
C5706 C 0.12922 0.70991 0.87318 0.0
C5707 C 0.12347 0.69731 0.86665 0.0
C5708 C 0.12996 0.68367 0.86835 0.0
C5709 C 0.12278 0.67236 0.8584 0.0
C5710 C 0.134 0.66545 0.84782 0.0
C5711 C 0.11492 0.66052 0.86751 0.0
C5712 C 0.11189 0.68197 0.85028 0.0
C5713 C 0.11229 0.69626 0.85546 0.0
C5714 C 0.1047 0.7076 0.84854 0.0
C5715 C 0.09672 0.70432 0.83582 0.0
C5716 C 0.0963 0.68984 0.83024 0.0
C5717 C 0.10365 0.67845 0.83774 0.0
H5718 H 0.31208 0.16744 0.86535 0.0
H5719 H 0.30892 0.13757 0.90234 0.0
H5720 H 0.3077 0.11643 0.88514 0.0
H5721 H 0.28603 0.14825 0.84285 0.0
H5722 H 0.29554 0.15228 0.82596 0.0
H5723 H 0.2969 0.16473 0.84128 0.0
H5724 H 0.3252 0.16268 0.84041 0.0
H5725 H 0.32392 0.15012 0.82515 0.0
H5726 H 0.33367 0.14482 0.84154 0.0
H5727 H 0.30795 0.09852 0.86349 0.0
H5728 H 0.30607 0.08575 0.83941 0.0
H5729 H 0.30686 0.12788 0.81715 0.0
C5730 C 0.31118 0.15643 0.86981 0.0
C5731 C 0.31073 0.15404 0.88511 0.0
C5732 C 0.30928 0.13955 0.89061 0.0
C5733 C 0.30867 0.12752 0.88094 0.0
C5734 C 0.30925 0.13025 0.86586 0.0
C5735 C 0.3102 0.14439 0.86035 0.0
C5736 C 0.30975 0.14453 0.84375 0.0
C5737 C 0.29625 0.15294 0.83814 0.0
C5738 C 0.32398 0.15091 0.83734 0.0
C5739 C 0.30848 0.12825 0.84073 0.0
C5740 C 0.30848 0.12013 0.85356 0.0
C5741 C 0.30781 0.10479 0.85338 0.0
C5742 C 0.30683 0.09763 0.83971 0.0
C5743 C 0.30621 0.10589 0.82654 0.0
C5744 C 0.30717 0.12134 0.82711 0.0
H5745 H 0.87271 0.28143 0.82974 0.0
H5746 H 0.89243 0.32398 0.83834 0.0
H5747 H 0.87651 0.32687 0.86022 0.0
H5748 H 0.83728 0.29111 0.83757 0.0
H5749 H 0.83229 0.27388 0.84597 0.0
H5750 H 0.84658 0.27441 0.83241 0.0
H5751 H 0.86457 0.26227 0.85082 0.0
H5752 H 0.85027 0.26162 0.86446 0.0
H5753 H 0.86741 0.27054 0.86861 0.0
H5754 H 0.85604 0.32618 0.87936 0.0
H5755 H 0.83366 0.32173 0.89408 0.0
H5756 H 0.82822 0.27946 0.87258 0.0
C5757 C 0.87391 0.29126 0.83636 0.0
C5758 C 0.88378 0.3025 0.83234 0.0
C5759 C 0.88499 0.31519 0.84129 0.0
C5760 C 0.876 0.31692 0.85372 0.0
C5761 C 0.86606 0.30575 0.85712 0.0
C5762 C 0.86515 0.29309 0.84876 0.0
C5763 C 0.853 0.28312 0.85398 0.0
C5764 C 0.84162 0.28049 0.84176 0.0
C5765 C 0.85919 0.26853 0.85982 0.0
C5766 C 0.84681 0.29235 0.86627 0.0
C5767 C 0.85452 0.30531 0.86809 0.0
C5768 C 0.85008 0.31596 0.87818 0.0
C5769 C 0.83734 0.31335 0.88648 0.0
C5770 C 0.82918 0.30023 0.88452 0.0
C5771 C 0.83422 0.28956 0.87446 0.0
H5772 H 0.66038 0.86766 0.83812 0.0
H5773 H 0.70244 0.88909 0.84404 0.0
H5774 H 0.70783 0.87263 0.86489 0.0
H5775 H 0.65324 0.86095 0.87793 0.0
H5776 H 0.64479 0.8434 0.87433 0.0
H5777 H 0.64351 0.85795 0.86094 0.0
H5778 H 0.65464 0.84079 0.84113 0.0
H5779 H 0.65593 0.82622 0.85442 0.0
H5780 H 0.67203 0.83209 0.84458 0.0
H5781 H 0.71023 0.85167 0.88232 0.0
H5782 H 0.70889 0.82825 0.89607 0.0
H5783 H 0.66466 0.8214 0.88026 0.0
C5784 C 0.6706 0.86907 0.84398 0.0
C5785 C 0.681 0.87964 0.83946 0.0
C5786 C 0.6943 0.88109 0.84734 0.0
C5787 C 0.69744 0.87182 0.85922 0.0
C5788 C 0.68706 0.86134 0.86325 0.0
C5789 C 0.67383 0.86003 0.85599 0.0
C5790 C 0.66496 0.84727 0.86194 0.0
C5791 C 0.65079 0.85273 0.86922 0.0
C5792 C 0.66171 0.83593 0.8498 0.0
C5793 C 0.67554 0.84125 0.87326 0.0
C5794 C 0.6882 0.84958 0.87388 0.0
C5795 C 0.70023 0.84529 0.88226 0.0
C5796 C 0.6994 0.83199 0.89 0.0
C5797 C 0.68656 0.82331 0.88944 0.0
C5798 C 0.67438 0.82816 0.88125 0.0
H5799 H 0.83578 0.67242 0.10986 0.0
H5800 H 0.83077 0.71951 0.10473 0.0
H5801 H 0.85307 0.72363 0.11939 0.0
H5802 H 0.84475 0.67366 0.14636 0.0
H5803 H 0.85793 0.65892 0.14628 0.0
H5804 H 0.84361 0.65931 0.13273 0.0
H5805 H 0.86295 0.65827 0.11194 0.0
H5806 H 0.87737 0.65785 0.12547 0.0
H5807 H 0.87738 0.67179 0.11139 0.0
H5808 H 0.87268 0.72314 0.13756 0.0
H5809 H 0.8885 0.71804 0.1589 0.0
H5810 H 0.88157 0.67127 0.15309 0.0
C5811 C 0.83976 0.68352 0.11143 0.0
C5812 C 0.83177 0.69567 0.10605 0.0
C5813 C 0.83687 0.7101 0.10871 0.0
C5814 C 0.84956 0.71254 0.11693 0.0
C5815 C 0.857 0.70041 0.1225 0.0
C5816 C 0.85236 0.68616 0.11988 0.0
C5817 C 0.86123 0.67527 0.12887 0.0
C5818 C 0.85129 0.66627 0.13917 0.0
C5819 C 0.87027 0.6652 0.11881 0.0
C5820 C 0.87103 0.68569 0.13744 0.0
C5821 C 0.86857 0.70012 0.13331 0.0
C5822 C 0.87502 0.71189 0.14065 0.0
C5823 C 0.88394 0.70891 0.15276 0.0
C5824 C 0.8864 0.69429 0.15738 0.0
C5825 C 0.8802 0.6825 0.14941 0.0
H5826 H 0.28781 0.82713 0.11164 0.0
H5827 H 0.33355 0.8195 0.10113 0.0
H5828 H 0.34045 0.84152 0.11536 0.0
H5829 H 0.28987 0.86776 0.11003 0.0
H5830 H 0.27716 0.86993 0.12503 0.0
H5831 H 0.27574 0.85423 0.11303 0.0
H5832 H 0.27743 0.83688 0.13557 0.0
H5833 H 0.27896 0.8525 0.14762 0.0
H5834 H 0.29283 0.83842 0.14787 0.0
H5835 H 0.34264 0.86243 0.13323 0.0
H5836 H 0.33964 0.88232 0.15155 0.0
H5837 H 0.29247 0.87724 0.1491 0.0
C5838 C 0.29925 0.83023 0.11212 0.0
C5839 C 0.31014 0.82159 0.10529 0.0
C5840 C 0.325 0.826 0.10621 0.0
C5841 C 0.32904 0.83847 0.11429 0.0
C5842 C 0.31808 0.84655 0.12117 0.0
C5843 C 0.30346 0.84277 0.11996 0.0
C5844 C 0.29387 0.85309 0.12875 0.0
C5845 C 0.28355 0.86177 0.1186 0.0
C5846 C 0.28527 0.84472 0.14066 0.0
C5847 C 0.30541 0.86298 0.13544 0.0
C5848 C 0.31931 0.85902 0.13097 0.0
C5849 C 0.3318 0.86584 0.13658 0.0
C5850 C 0.33 0.87706 0.14702 0.0
C5851 C 0.31584 0.88139 0.15155 0.0
C5852 C 0.30342 0.87433 0.14559 0.0
H5853 H 0.70152 0.16632 0.12213 0.0
H5854 H 0.66887 0.14982 0.0916 0.0
H5855 H 0.66597 0.12753 0.10691 0.0
H5856 H 0.71801 0.13076 0.13136 0.0
H5857 H 0.72069 0.13588 0.15031 0.0
H5858 H 0.72111 0.14974 0.13616 0.0
H5859 H 0.70082 0.16427 0.1498 0.0
H5860 H 0.7003 0.15045 0.16394 0.0
H5861 H 0.6838 0.15524 0.15419 0.0
H5862 H 0.66537 0.10787 0.12683 0.0
H5863 H 0.6672 0.09274 0.14937 0.0
H5864 H 0.70019 0.12259 0.16646 0.0
C5865 C 0.69392 0.15794 0.11848 0.0
C5866 C 0.68545 0.15983 0.10562 0.0
C5867 C 0.67553 0.14861 0.10137 0.0
C5868 C 0.67381 0.1359 0.11 0.0
C5869 C 0.68215 0.13455 0.12277 0.0
C5870 C 0.69207 0.14526 0.12693 0.0
C5871 C 0.69914 0.14167 0.14152 0.0
C5872 C 0.71572 0.13937 0.13972 0.0
C5873 C 0.69581 0.15361 0.15304 0.0
C5874 C 0.69145 0.12741 0.14512 0.0
C5875 C 0.68177 0.12337 0.13415 0.0
C5876 C 0.67302 0.11086 0.13541 0.0
C5877 C 0.67413 0.10234 0.14826 0.0
C5878 C 0.68385 0.10644 0.15971 0.0
C5879 C 0.6927 0.11907 0.15793 0.0
H5880 H 0.61958 0.65754 0.78002 0.0
H5881 H 0.59476 0.6492 0.81986 0.0
H5882 H 0.61116 0.62832 0.82566 0.0
H5883 H 0.6278 0.61929 0.77103 0.0
H5884 H 0.64589 0.62381 0.7645 0.0
H5885 H 0.63132 0.63706 0.76298 0.0
H5886 H 0.64701 0.65607 0.77727 0.0
H5887 H 0.66157 0.64288 0.77891 0.0
H5888 H 0.65407 0.65134 0.79516 0.0
H5889 H 0.63156 0.60913 0.82767 0.0
H5890 H 0.65399 0.5939 0.82579 0.0
H5891 H 0.66502 0.61578 0.78485 0.0
C5892 C 0.61738 0.65121 0.78986 0.0
C5893 C 0.60583 0.65499 0.79945 0.0
C5894 C 0.60351 0.64648 0.81231 0.0
C5895 C 0.61276 0.6346 0.81569 0.0
C5896 C 0.62422 0.63137 0.80608 0.0
C5897 C 0.62649 0.63945 0.79341 0.0
C5898 C 0.64 0.63443 0.78528 0.0
C5899 C 0.63601 0.62828 0.77005 0.0
C5900 C 0.65133 0.64692 0.7841 0.0
C5901 C 0.64518 0.62242 0.79547 0.0
C5902 C 0.63592 0.62065 0.80735 0.0
C5903 C 0.63882 0.61038 0.81836 0.0
C5904 C 0.65158 0.60179 0.81721 0.0
C5905 C 0.66129 0.60368 0.80521 0.0
C5906 C 0.65788 0.61406 0.7942 0.0
H5907 H 0.32018 0.61594 0.78679 0.0
H5908 H 0.32946 0.59284 0.82749 0.0
H5909 H 0.3517 0.60817 0.83087 0.0
H5910 H 0.35757 0.62062 0.77456 0.0
H5911 H 0.35401 0.63866 0.76721 0.0
H5912 H 0.33961 0.62514 0.76772 0.0
H5913 H 0.32323 0.64322 0.78241 0.0
H5914 H 0.33756 0.65678 0.78193 0.0
H5915 H 0.33001 0.65102 0.79931 0.0
H5916 H 0.37258 0.62729 0.82998 0.0
H5917 H 0.38908 0.64849 0.82541 0.0
H5918 H 0.36506 0.65837 0.78545 0.0
C5919 C 0.32692 0.6139 0.79636 0.0
C5920 C 0.32309 0.60312 0.80684 0.0
C5921 C 0.3322 0.60102 0.81928 0.0
C5922 C 0.34486 0.60965 0.82127 0.0
C5923 C 0.34821 0.62029 0.81072 0.0
C5924 C 0.33943 0.62239 0.79853 0.0
C5925 C 0.34477 0.63494 0.78911 0.0
C5926 C 0.34926 0.62951 0.77374 0.0
C5927 C 0.33321 0.64721 0.78815 0.0
C5928 C 0.35791 0.63975 0.79793 0.0
C5929 C 0.35987 0.63117 0.81031 0.0
C5930 C 0.37116 0.634 0.82027 0.0
C5931 C 0.3805 0.64604 0.81757 0.0
C5932 C 0.37836 0.65511 0.80508 0.0
C5933 C 0.36702 0.6517 0.79511 0.0
H5934 H 0.37351 0.33361 0.78072 0.0
H5935 H 0.39104 0.33739 0.8249 0.0
H5936 H 0.37518 0.359 0.82931 0.0
H5937 H 0.36883 0.37352 0.77382 0.0
H5938 H 0.3521 0.37047 0.76375 0.0
H5939 H 0.36631 0.35673 0.76358 0.0
H5940 H 0.34773 0.33726 0.77284 0.0
H5941 H 0.33352 0.35091 0.77313 0.0
H5942 H 0.33769 0.34066 0.78957 0.0
H5943 H 0.35496 0.37839 0.82971 0.0
H5944 H 0.33288 0.39373 0.82584 0.0
H5945 H 0.32928 0.37683 0.78135 0.0
C5946 C 0.37428 0.33914 0.79124 0.0
C5947 C 0.38353 0.3338 0.80246 0.0
C5948 C 0.38411 0.34134 0.81609 0.0
C5949 C 0.37513 0.35362 0.8187 0.0
C5950 C 0.36581 0.35832 0.8075 0.0
C5951 C 0.36548 0.35137 0.79398 0.0
C5952 C 0.35381 0.35773 0.7841 0.0
C5953 C 0.36068 0.36505 0.77051 0.0
C5954 C 0.34253 0.34594 0.77966 0.0
C5955 C 0.34722 0.36901 0.79431 0.0
C5956 C 0.35434 0.36938 0.80771 0.0
C5957 C 0.34947 0.37835 0.81917 0.0
C5958 C 0.33691 0.38701 0.81688 0.0
C5959 C 0.32933 0.38651 0.80329 0.0
C5960 C 0.33481 0.37757 0.79185 0.0
H5961 H 0.61082 0.33127 0.77839 0.0
H5962 H 0.59195 0.33794 0.82168 0.0
H5963 H 0.60791 0.35967 0.8252 0.0
H5964 H 0.64626 0.33806 0.78819 0.0
H5965 H 0.65142 0.34716 0.77136 0.0
H5966 H 0.63683 0.3339 0.77127 0.0
H5967 H 0.61924 0.35323 0.76005 0.0
H5968 H 0.63384 0.36658 0.76002 0.0
H5969 H 0.6168 0.37068 0.76914 0.0
H5970 H 0.62821 0.37864 0.82511 0.0
H5971 H 0.65102 0.39283 0.82162 0.0
H5972 H 0.65647 0.37317 0.77848 0.0
C5973 C 0.60973 0.33747 0.7885 0.0
C5974 C 0.60009 0.33291 0.79975 0.0
C5975 C 0.59918 0.34128 0.81286 0.0
C5976 C 0.60819 0.35365 0.81494 0.0
C5977 C 0.61791 0.35755 0.80375 0.0
C5978 C 0.61862 0.34974 0.79074 0.0
C5979 C 0.6309 0.35517 0.781 0.0
C5980 C 0.642 0.34284 0.77778 0.0
C5981 C 0.62483 0.36181 0.76671 0.0
C5982 C 0.6374 0.3669 0.79078 0.0
C5983 C 0.62963 0.36832 0.80376 0.0
C5984 C 0.63423 0.37778 0.81489 0.0
C5985 C 0.64722 0.38578 0.81281 0.0
C5986 C 0.65555 0.38413 0.79976 0.0
C5987 C 0.65033 0.37479 0.78853 0.0
H5988 H 0.6626 0.36553 0.20851 0.0
H5989 H 0.64382 0.39705 0.17803 0.0
H5990 H 0.6217 0.38155 0.17588 0.0
H5991 H 0.65106 0.33416 0.19008 0.0
H5992 H 0.64735 0.32357 0.20641 0.0
H5993 H 0.66087 0.33795 0.20687 0.0
H5994 H 0.64726 0.35034 0.22859 0.0
H5995 H 0.6337 0.33595 0.22824 0.0
H5996 H 0.62814 0.3549 0.22672 0.0
H5997 H 0.60263 0.36143 0.17536 0.0
H5998 H 0.58829 0.33841 0.17649 0.0
H5999 H 0.61981 0.32032 0.2073 0.0
C6000 C 0.65374 0.36935 0.20158 0.0
C6001 C 0.65494 0.38254 0.19347 0.0
C6002 C 0.64315 0.38701 0.1844 0.0
C6003 C 0.63052 0.3783 0.18312 0.0
C6004 C 0.62984 0.36521 0.19106 0.0
C6005 C 0.64112 0.36081 0.20017 0.0
C6006 C 0.63817 0.34584 0.20676 0.0
C6007 C 0.65007 0.33473 0.20225 0.0
C6008 C 0.63673 0.34682 0.22358 0.0
C6009 C 0.62364 0.3423 0.19964 0.0
C6010 C 0.61891 0.35366 0.19074 0.0
C6011 C 0.60613 0.35254 0.18244 0.0
C6012 C 0.59807 0.33941 0.18314 0.0
C6013 C 0.60289 0.32755 0.19201 0.0
C6014 C 0.61574 0.32919 0.20051 0.0
H6015 H 0.61717 0.66555 0.2076 0.0
H6016 H 0.59122 0.65281 0.16968 0.0
H6017 H 0.60766 0.63158 0.1656 0.0
H6018 H 0.65115 0.65824 0.19194 0.0
H6019 H 0.65945 0.65161 0.20865 0.0
H6020 H 0.64471 0.66467 0.20954 0.0
H6021 H 0.62996 0.64699 0.22629 0.0
H6022 H 0.64471 0.63387 0.22553 0.0
H6023 H 0.62648 0.62844 0.22024 0.0
H6024 H 0.62807 0.6127 0.16482 0.0
H6025 H 0.65084 0.59822 0.16701 0.0
H6026 H 0.66343 0.6241 0.20509 0.0
C6027 C 0.61472 0.65817 0.19859 0.0
C6028 C 0.60283 0.6608 0.18901 0.0
C6029 C 0.60022 0.65098 0.1772 0.0
C6030 C 0.60948 0.63888 0.17482 0.0
C6031 C 0.62127 0.6368 0.18434 0.0
C6032 C 0.62388 0.64618 0.196 0.0
C6033 C 0.63781 0.64222 0.20404 0.0
C6034 C 0.64893 0.65494 0.2035 0.0
C6035 C 0.63454 0.6376 0.21997 0.0
C6036 C 0.64285 0.6293 0.19493 0.0
C6037 C 0.6331 0.62619 0.18372 0.0
C6038 C 0.63571 0.61497 0.17362 0.0
C6039 C 0.64868 0.60681 0.17496 0.0
C6040 C 0.65894 0.61002 0.18622 0.0
C6041 C 0.65583 0.62134 0.19638 0.0
H6042 H 0.38089 0.65059 0.17288 0.0
H6043 H 0.39102 0.64532 0.21913 0.0
H6044 H 0.37395 0.62442 0.2206 0.0
H6045 H 0.3443 0.64584 0.17627 0.0
H6046 H 0.34118 0.63573 0.15951 0.0
H6047 H 0.35658 0.64796 0.16089 0.0
H6048 H 0.37423 0.62673 0.1542 0.0
H6049 H 0.35882 0.61441 0.1526 0.0
H6050 H 0.37378 0.60994 0.16472 0.0
H6051 H 0.35273 0.60812 0.21867 0.0
H6052 H 0.32928 0.59592 0.2129 0.0
H6053 H 0.33254 0.61063 0.16772 0.0
C6054 C 0.37996 0.64456 0.1831 0.0
C6055 C 0.38737 0.64939 0.19586 0.0
C6056 C 0.38551 0.64168 0.20923 0.0
C6057 C 0.37587 0.62977 0.21016 0.0
C6058 C 0.36819 0.62567 0.1976 0.0
C6059 C 0.37022 0.63267 0.18424 0.0
C6060 C 0.35922 0.62723 0.17295 0.0
C6061 C 0.34977 0.63995 0.16707 0.0
C6062 C 0.36698 0.61909 0.16037 0.0
C6063 C 0.35026 0.61671 0.18228 0.0
C6064 C 0.3558 0.61587 0.19641 0.0
C6065 C 0.34853 0.60831 0.20755 0.0
C6066 C 0.33521 0.6015 0.20421 0.0
C6067 C 0.32937 0.60218 0.18985 0.0
C6068 C 0.33709 0.60964 0.17867 0.0
H6069 H 0.37637 0.33284 0.17505 0.0
H6070 H 0.37998 0.32415 0.22176 0.0
H6071 H 0.36399 0.3453 0.22703 0.0
H6072 H 0.37244 0.37447 0.17779 0.0
H6073 H 0.35903 0.37479 0.16325 0.0
H6074 H 0.37338 0.36117 0.16312 0.0
H6075 H 0.35389 0.34054 0.16155 0.0
H6076 H 0.33952 0.35403 0.16179 0.0
H6077 H 0.33973 0.33957 0.17534 0.0
H6078 H 0.34468 0.36375 0.2273 0.0
H6079 H 0.32288 0.37894 0.22258 0.0
H6080 H 0.33097 0.37642 0.17568 0.0
C6081 C 0.37423 0.33584 0.18637 0.0
C6082 C 0.37953 0.3271 0.19805 0.0
C6083 C 0.37609 0.33085 0.21272 0.0
C6084 C 0.36709 0.34287 0.21581 0.0
C6085 C 0.36156 0.35099 0.20409 0.0
C6086 C 0.36502 0.34774 0.18964 0.0
C6087 C 0.35597 0.35697 0.17911 0.0
C6088 C 0.36579 0.36748 0.1703 0.0
C6089 C 0.34673 0.34719 0.16885 0.0
C6090 C 0.34642 0.36534 0.1899 0.0
C6091 C 0.35008 0.36188 0.20424 0.0
C6092 C 0.34193 0.36686 0.21615 0.0
C6093 C 0.32953 0.3754 0.21337 0.0
C6094 C 0.32544 0.37894 0.19881 0.0
C6095 C 0.33416 0.37416 0.18692 0.0
H6096 H 0.77692 0.65923 0.61501 0.0
H6097 H 0.82124 0.65705 0.59794 0.0
H6098 H 0.82611 0.63548 0.61379 0.0
H6099 H 0.78551 0.65198 0.65115 0.0
H6100 H 0.76938 0.64119 0.65493 0.0
H6101 H 0.76891 0.65507 0.64088 0.0
H6102 H 0.76049 0.63565 0.62178 0.0
H6103 H 0.76087 0.62167 0.63582 0.0
H6104 H 0.77121 0.61923 0.61912 0.0
H6105 H 0.82673 0.6157 0.6336 0.0
H6106 H 0.82303 0.59979 0.65538 0.0
H6107 H 0.77828 0.61542 0.6589 0.0
C6108 C 0.78759 0.6541 0.61437 0.0
C6109 C 0.7987 0.65984 0.60523 0.0
C6110 C 0.81253 0.6528 0.60481 0.0
C6111 C 0.81539 0.64053 0.61376 0.0
C6112 C 0.80425 0.63538 0.6229 0.0
C6113 C 0.79059 0.6419 0.62314 0.0
C6114 C 0.78077 0.63505 0.63461 0.0
C6115 C 0.77587 0.64651 0.64606 0.0
C6116 C 0.76756 0.62745 0.6274 0.0
C6117 C 0.79118 0.62397 0.64118 0.0
C6118 C 0.80462 0.62413 0.6342 0.0
C6119 C 0.81618 0.61535 0.63901 0.0
C6120 C 0.81399 0.60635 0.65139 0.0
C6121 C 0.80037 0.60635 0.65886 0.0
C6122 C 0.78881 0.6151 0.65344 0.0
H6123 H 0.31762 0.80911 0.62645 0.0
H6124 H 0.34235 0.81745 0.58667 0.0
H6125 H 0.36505 0.82005 0.60158 0.0
H6126 H 0.33883 0.83428 0.65058 0.0
H6127 H 0.33689 0.822 0.666 0.0
H6128 H 0.32271 0.82296 0.65225 0.0
H6129 H 0.32473 0.79479 0.6482 0.0
H6130 H 0.33892 0.79375 0.66182 0.0
H6131 H 0.34223 0.78692 0.64352 0.0
H6132 H 0.38551 0.81899 0.62139 0.0
H6133 H 0.40097 0.8142 0.64347 0.0
H6134 H 0.36187 0.80623 0.66915 0.0
C6135 C 0.32777 0.81171 0.62087 0.0
C6136 C 0.32832 0.81299 0.60546 0.0
C6137 C 0.34175 0.8165 0.59852 0.0
C6138 C 0.35466 0.81799 0.6069 0.0
C6139 C 0.35377 0.81624 0.62215 0.0
C6140 C 0.34055 0.81337 0.629 0.0
C6141 C 0.34233 0.81099 0.6453 0.0
C6142 C 0.33474 0.82329 0.65404 0.0
C6143 C 0.33673 0.79571 0.64996 0.0
C6144 C 0.35873 0.81212 0.64654 0.0
C6145 C 0.36524 0.8155 0.63323 0.0
C6146 C 0.38047 0.81651 0.63187 0.0
C6147 C 0.38916 0.81378 0.64439 0.0
C6148 C 0.3825 0.80978 0.65785 0.0
C6149 C 0.36716 0.80921 0.65891 0.0
H6150 H 0.16603 0.33258 0.60441 0.0
H6151 H 0.21212 0.32672 0.59492 0.0
H6152 H 0.21811 0.34806 0.6105 0.0
H6153 H 0.16703 0.37463 0.60928 0.0
H6154 H 0.15426 0.37361 0.62436 0.0
H6155 H 0.15309 0.36058 0.60945 0.0
H6156 H 0.15484 0.33919 0.62813 0.0
H6157 H 0.15619 0.35207 0.64303 0.0
H6158 H 0.17023 0.33838 0.64053 0.0
H6159 H 0.21977 0.36556 0.63068 0.0
H6160 H 0.21695 0.37914 0.65395 0.0
H6161 H 0.16982 0.3745 0.65108 0.0
C6162 C 0.17727 0.33633 0.60508 0.0
C6163 C 0.18863 0.32831 0.5983 0.0
C6164 C 0.20331 0.33294 0.59991 0.0
C6165 C 0.20678 0.34506 0.60868 0.0
C6166 C 0.19545 0.35238 0.61582 0.0
C6167 C 0.18094 0.34834 0.61404 0.0
C6168 C 0.17117 0.3566 0.62472 0.0
C6169 C 0.16077 0.36698 0.61646 0.0
C6170 C 0.16262 0.34592 0.63469 0.0
C6171 C 0.18254 0.36518 0.63334 0.0
C6172 C 0.19643 0.36277 0.62778 0.0
C6173 C 0.20894 0.36791 0.63488 0.0
C6174 C 0.20725 0.37551 0.64812 0.0
C6175 C 0.19318 0.37798 0.65409 0.0
C6176 C 0.18064 0.37309 0.64644 0.0
H6177 H 0.66513 0.20199 0.62137 0.0
H6178 H 0.64911 0.16833 0.59156 0.0
H6179 H 0.62721 0.16508 0.60729 0.0
H6180 H 0.65475 0.18448 0.65404 0.0
H6181 H 0.64983 0.20124 0.66339 0.0
H6182 H 0.66352 0.20157 0.64918 0.0
H6183 H 0.64873 0.22143 0.63512 0.0
H6184 H 0.635 0.2212 0.64933 0.0
H6185 H 0.62986 0.21796 0.63047 0.0
H6186 H 0.60757 0.16485 0.6273 0.0
H6187 H 0.59234 0.16748 0.64967 0.0
H6188 H 0.62199 0.20114 0.66584 0.0
C6189 C 0.65698 0.19402 0.618 0.0
C6190 C 0.65884 0.18543 0.60521 0.0
C6191 C 0.6479 0.17507 0.6013 0.0
C6192 C 0.63543 0.17316 0.61015 0.0
C6193 C 0.63408 0.18173 0.6228 0.0
C6194 C 0.64458 0.19197 0.62665 0.0
C6195 C 0.641 0.1994 0.64105 0.0
C6196 C 0.65298 0.19649 0.65259 0.0
C6197 C 0.6385 0.21598 0.63885 0.0
C6198 C 0.62694 0.19159 0.64488 0.0
C6199 C 0.623 0.18151 0.63422 0.0
C6200 C 0.61053 0.17278 0.63567 0.0
C6201 C 0.60195 0.17435 0.6484 0.0
C6202 C 0.60598 0.1845 0.65952 0.0
C6203 C 0.61858 0.19327 0.65758 0.0
H6204 H 0.78139 0.32468 0.37178 0.0
H6205 H 0.82228 0.33491 0.39386 0.0
H6206 H 0.8251 0.35697 0.37811 0.0
H6207 H 0.79267 0.33353 0.33657 0.0
H6208 H 0.77536 0.34114 0.33087 0.0
H6209 H 0.77589 0.3273 0.34496 0.0
H6210 H 0.76195 0.34466 0.36271 0.0
H6211 H 0.76134 0.35858 0.34863 0.0
H6212 H 0.76911 0.36277 0.36636 0.0
H6213 H 0.82446 0.37649 0.358 0.0
H6214 H 0.82035 0.39164 0.33579 0.0
H6215 H 0.77969 0.36827 0.32765 0.0
C6216 C 0.79087 0.33164 0.3735 0.0
C6217 C 0.80164 0.32805 0.38404 0.0
C6218 C 0.81386 0.33748 0.38589 0.0
C6219 C 0.81554 0.35003 0.37701 0.0
C6220 C 0.80481 0.35304 0.3665 0.0
C6221 C 0.79266 0.34414 0.36484 0.0
C6222 C 0.78309 0.34914 0.35226 0.0
C6223 C 0.78168 0.33706 0.34047 0.0
C6224 C 0.76798 0.35409 0.35783 0.0
C6225 C 0.79195 0.36202 0.34675 0.0
C6226 C 0.80438 0.36423 0.35514 0.0
C6227 C 0.81465 0.37498 0.35149 0.0
C6228 C 0.81223 0.38352 0.33885 0.0
C6229 C 0.79966 0.3812 0.32999 0.0
C6230 C 0.78933 0.37046 0.33423 0.0
H6231 H 0.65112 0.7816 0.37441 0.0
H6232 H 0.65179 0.8272 0.38841 0.0
H6233 H 0.6296 0.83196 0.37353 0.0
H6234 H 0.64307 0.78807 0.33858 0.0
H6235 H 0.63141 0.77227 0.33603 0.0
H6236 H 0.64549 0.77192 0.3498 0.0
H6237 H 0.6262 0.76576 0.36979 0.0
H6238 H 0.61201 0.76599 0.35602 0.0
H6239 H 0.61048 0.77752 0.37207 0.0
H6240 H 0.60948 0.83235 0.3542 0.0
H6241 H 0.59356 0.82831 0.33254 0.0
H6242 H 0.60664 0.78247 0.33159 0.0
C6243 C 0.64642 0.79253 0.37467 0.0
C6244 C 0.65319 0.80403 0.38257 0.0
C6245 C 0.64673 0.81819 0.38252 0.0
C6246 C 0.63412 0.82099 0.3741 0.0
C6247 C 0.62804 0.80946 0.36601 0.0
C6248 C 0.63392 0.79547 0.3664 0.0
C6249 C 0.62635 0.78528 0.35571 0.0
C6250 C 0.63723 0.77903 0.34436 0.0
C6251 C 0.61828 0.77291 0.36389 0.0
C6252 C 0.61571 0.79586 0.34871 0.0
C6253 C 0.6166 0.8097 0.35493 0.0
C6254 C 0.60851 0.82149 0.34944 0.0
C6255 C 0.59952 0.8191 0.33712 0.0
C6256 C 0.59886 0.80507 0.33037 0.0
C6257 C 0.60684 0.79331 0.33652 0.0
H6258 H 0.17289 0.65061 0.3736 0.0
H6259 H 0.21943 0.65713 0.38016 0.0
H6260 H 0.22469 0.63605 0.36396 0.0
H6261 H 0.17386 0.60908 0.36882 0.0
H6262 H 0.16025 0.60972 0.35449 0.0
H6263 H 0.15989 0.62306 0.36915 0.0
H6264 H 0.16057 0.64411 0.34999 0.0
H6265 H 0.16102 0.63088 0.33532 0.0
H6266 H 0.17518 0.64464 0.33667 0.0
H6267 H 0.22525 0.61758 0.34441 0.0
H6268 H 0.22117 0.60288 0.32207 0.0
H6269 H 0.17422 0.60809 0.32715 0.0
C6270 C 0.18412 0.64716 0.37204 0.0
C6271 C 0.19578 0.65523 0.37826 0.0
C6272 C 0.2104 0.65091 0.37557 0.0
C6273 C 0.21347 0.63893 0.36645 0.0
C6274 C 0.20179 0.63144 0.36005 0.0
C6275 C 0.18739 0.63532 0.36271 0.0
C6276 C 0.17706 0.62679 0.35279 0.0
C6277 C 0.16718 0.61655 0.36186 0.0
C6278 C 0.16793 0.63723 0.34312 0.0
C6279 C 0.18795 0.61808 0.34371 0.0
C6280 C 0.20213 0.62073 0.34834 0.0
C6281 C 0.2142 0.61515 0.34087 0.0
C6282 C 0.21177 0.60688 0.32814 0.0
C6283 C 0.19739 0.60428 0.32297 0.0
C6284 C 0.18531 0.60964 0.33107 0.0
H6285 H 0.32854 0.17663 0.37593 0.0
H6286 H 0.32647 0.22393 0.3816 0.0
H6287 H 0.34863 0.22682 0.36651 0.0
H6288 H 0.37005 0.17376 0.37389 0.0
H6289 H 0.36907 0.15984 0.35981 0.0
H6290 H 0.35491 0.16104 0.37358 0.0
H6291 H 0.33534 0.16309 0.35307 0.0
H6292 H 0.34939 0.16198 0.33929 0.0
H6293 H 0.337 0.17739 0.33944 0.0
H6294 H 0.36759 0.2253 0.34769 0.0
H6295 H 0.38287 0.21931 0.32617 0.0
H6296 H 0.37369 0.17297 0.3323 0.0
C6297 C 0.33312 0.18751 0.3744 0.0
C6298 C 0.32591 0.20006 0.38 0.0
C6299 C 0.33187 0.21419 0.37742 0.0
C6300 C 0.3445 0.21593 0.36894 0.0
C6301 C 0.35109 0.20343 0.36313 0.0
C6302 C 0.34571 0.18946 0.36578 0.0
C6303 C 0.35383 0.17811 0.35666 0.0
C6304 C 0.36248 0.16756 0.36658 0.0
C6305 C 0.34326 0.16966 0.34652 0.0
C6306 C 0.36403 0.18799 0.34795 0.0
C6307 C 0.3624 0.20253 0.35209 0.0
C6308 C 0.3693 0.21394 0.3446 0.0
C6309 C 0.37789 0.21046 0.33237 0.0
C6310 C 0.37958 0.1957 0.32783 0.0
C6311 C 0.37288 0.18429 0.3359 0.0
H6312 H 0.65429 0.78568 0.61158 0.0
H6313 H 0.65002 0.83028 0.59529 0.0
H6314 H 0.62838 0.83391 0.61138 0.0
H6315 H 0.61482 0.778 0.61575 0.0
H6316 H 0.6179 0.76737 0.63218 0.0
H6317 H 0.63169 0.76798 0.61803 0.0
H6318 H 0.65076 0.77691 0.63719 0.0
H6319 H 0.63705 0.77642 0.65134 0.0
H6320 H 0.647 0.79318 0.64785 0.0
H6321 H 0.60877 0.83319 0.63171 0.0
H6322 H 0.59329 0.82809 0.65352 0.0
H6323 H 0.61105 0.78389 0.65558 0.0
C6324 C 0.64869 0.79616 0.61117 0.0
C6325 C 0.65385 0.80771 0.60222 0.0
C6326 C 0.64618 0.82124 0.60201 0.0
C6327 C 0.6339 0.8234 0.61112 0.0
C6328 C 0.62936 0.81184 0.62015 0.0
C6329 C 0.63648 0.79843 0.62006 0.0
C6330 C 0.63024 0.788 0.63133 0.0
C6331 C 0.62324 0.77454 0.62387 0.0
C6332 C 0.64196 0.78337 0.64259 0.0
C6333 C 0.61878 0.79775 0.63822 0.0
C6334 C 0.61824 0.81141 0.63159 0.0
C6335 C 0.60898 0.82245 0.63682 0.0
C6336 C 0.60024 0.81946 0.64921 0.0
C6337 C 0.60095 0.80559 0.65628 0.0
C6338 C 0.61018 0.7946 0.65046 0.0
H6339 H 0.60383 0.17081 0.3328 0.0
H6340 H 0.59839 0.21758 0.3256 0.0
H6341 H 0.6145 0.22283 0.34668 0.0
H6342 H 0.60837 0.1725 0.37449 0.0
H6343 H 0.62229 0.15847 0.37416 0.0
H6344 H 0.6077 0.15819 0.36079 0.0
H6345 H 0.62685 0.15792 0.3398 0.0
H6346 H 0.64145 0.15831 0.35304 0.0
H6347 H 0.64049 0.17224 0.33898 0.0
H6348 H 0.63412 0.22329 0.36475 0.0
H6349 H 0.65642 0.21896 0.37932 0.0
H6350 H 0.64997 0.17189 0.37558 0.0
C6351 C 0.60561 0.18211 0.33611 0.0
C6352 C 0.59978 0.19383 0.32781 0.0
C6353 C 0.60272 0.2085 0.33197 0.0
C6354 C 0.61178 0.21158 0.34395 0.0
C6355 C 0.61784 0.19983 0.35164 0.0
C6356 C 0.61487 0.18537 0.34799 0.0
C6357 C 0.62445 0.17492 0.35675 0.0
C6358 C 0.61514 0.16546 0.36717 0.0
C6359 C 0.63386 0.16529 0.34653 0.0
C6360 C 0.63376 0.18582 0.36527 0.0
C6361 C 0.6295 0.20011 0.36232 0.0
C6362 C 0.63734 0.21218 0.36747 0.0
C6363 C 0.65002 0.20962 0.37565 0.0
C6364 C 0.65471 0.19512 0.37865 0.0
C6365 C 0.64631 0.18306 0.37372 0.0
H6366 H 0.78658 0.61787 0.32021 0.0
H6367 H 0.82287 0.59072 0.33471 0.0
H6368 H 0.82511 0.60595 0.3572 0.0
H6369 H 0.80122 0.6515 0.33121 0.0
H6370 H 0.78393 0.65923 0.33679 0.0
H6371 H 0.78447 0.64537 0.32271 0.0
H6372 H 0.76635 0.62928 0.33767 0.0
H6373 H 0.76572 0.64315 0.3518 0.0
H6374 H 0.77066 0.62453 0.35641 0.0
H6375 H 0.82433 0.62574 0.37734 0.0
H6376 H 0.82048 0.64775 0.39295 0.0
H6377 H 0.78468 0.66117 0.36457 0.0
C6378 C 0.79491 0.61494 0.32817 0.0
C6379 C 0.80455 0.60308 0.32568 0.0
C6380 C 0.81531 0.59972 0.3364 0.0
C6381 C 0.81666 0.60831 0.3492 0.0
C6382 C 0.8071 0.62012 0.35114 0.0
C6383 C 0.79638 0.62333 0.34091 0.0
C6384 C 0.78788 0.63694 0.34505 0.0
C6385 C 0.78948 0.64896 0.33324 0.0
C6386 C 0.77169 0.63325 0.3479 0.0
C6387 C 0.79566 0.64113 0.35908 0.0
C6388 C 0.80665 0.6313 0.36254 0.0
C6389 C 0.81565 0.63341 0.37478 0.0
C6390 C 0.81338 0.64594 0.38358 0.0
C6391 C 0.80227 0.6562 0.38002 0.0
C6392 C 0.79325 0.65356 0.36769 0.0
H6393 H 0.36263 0.78289 0.32204 0.0
H6394 H 0.38773 0.82116 0.33542 0.0
H6395 H 0.3731 0.82268 0.35831 0.0
H6396 H 0.32863 0.79521 0.3339 0.0
H6397 H 0.32229 0.77746 0.33998 0.0
H6398 H 0.33564 0.7787 0.32551 0.0
H6399 H 0.35323 0.76195 0.34036 0.0
H6400 H 0.3399 0.76067 0.35491 0.0
H6401 H 0.35819 0.76699 0.35887 0.0
H6402 H 0.35392 0.82128 0.37853 0.0
H6403 H 0.3323 0.81693 0.39431 0.0
H6404 H 0.32064 0.77915 0.36758 0.0
C6405 C 0.3652 0.79152 0.32983 0.0
C6406 C 0.37629 0.80194 0.32693 0.0
C6407 C 0.3793 0.81303 0.33745 0.0
C6408 C 0.37107 0.81396 0.35047 0.0
C6409 C 0.36004 0.8036 0.35286 0.0
C6410 C 0.35722 0.79252 0.34286 0.0
C6411 C 0.34438 0.78314 0.34755 0.0
C6412 C 0.33201 0.78367 0.33606 0.0
C6413 C 0.34922 0.76725 0.3506 0.0
C6414 C 0.34008 0.79093 0.36156 0.0
C6415 C 0.34928 0.80264 0.36454 0.0
C6416 C 0.3468 0.81201 0.37641 0.0
C6417 C 0.33448 0.80946 0.38531 0.0
C6418 C 0.32481 0.79764 0.38225 0.0
C6419 C 0.3279 0.78814 0.37038 0.0
H6420 H 0.1973 0.37962 0.33168 0.0
H6421 H 0.15268 0.39524 0.33615 0.0
H6422 H 0.14944 0.37932 0.35804 0.0
H6423 H 0.19044 0.34366 0.33868 0.0
H6424 H 0.20708 0.34009 0.3487 0.0
H6425 H 0.2066 0.35452 0.33525 0.0
H6426 H 0.21516 0.37337 0.35486 0.0
H6427 H 0.2158 0.35892 0.3684 0.0
H6428 H 0.20506 0.37518 0.37178 0.0
H6429 H 0.15018 0.35872 0.37708 0.0
H6430 H 0.15499 0.33623 0.39161 0.0
H6431 H 0.19923 0.33482 0.37427 0.0
C6432 C 0.18694 0.37998 0.33746 0.0
C6433 C 0.17523 0.38862 0.33224 0.0
C6434 C 0.16183 0.38877 0.34007 0.0
C6435 C 0.1599 0.37976 0.35249 0.0
C6436 C 0.17157 0.37093 0.35702 0.0
C6437 C 0.1849 0.37119 0.34983 0.0
C6438 C 0.19534 0.35986 0.35591 0.0
C6439 C 0.20013 0.34889 0.34392 0.0
C6440 C 0.20862 0.36728 0.36317 0.0
C6441 C 0.18561 0.35264 0.36721 0.0
C6442 C 0.17201 0.35926 0.36791 0.0
C6443 C 0.16089 0.35365 0.37681 0.0
C6444 C 0.16371 0.34085 0.385 0.0
C6445 C 0.1775 0.33375 0.3841 0.0
C6446 C 0.18861 0.33999 0.37531 0.0
H6447 H 0.35803 0.20979 0.6597 0.0
H6448 H 0.39005 0.17888 0.64275 0.0
H6449 H 0.37529 0.17592 0.62019 0.0
H6450 H 0.32729 0.19087 0.64802 0.0
H6451 H 0.31675 0.20696 0.64341 0.0
H6452 H 0.33072 0.20805 0.65728 0.0
H6453 H 0.34328 0.22931 0.64307 0.0
H6454 H 0.32927 0.22833 0.62915 0.0
H6455 H 0.34828 0.22673 0.62407 0.0
H6456 H 0.35564 0.17443 0.60061 0.0
H6457 H 0.33296 0.17473 0.58576 0.0
H6458 H 0.31416 0.20669 0.61577 0.0
C6459 C 0.36213 0.20262 0.65114 0.0
C6460 C 0.37523 0.1946 0.653 0.0
C6461 C 0.38008 0.18519 0.64157 0.0
C6462 C 0.37178 0.18345 0.62869 0.0
C6463 C 0.35873 0.19128 0.62737 0.0
C6464 C 0.35401 0.20076 0.63826 0.0
C6465 C 0.33913 0.20711 0.6347 0.0
C6466 C 0.32781 0.20299 0.64655 0.0
C6467 C 0.34005 0.22386 0.63262 0.0
C6468 C 0.33601 0.1994 0.62032 0.0
C6469 C 0.34748 0.19043 0.61616 0.0
C6470 C 0.34668 0.18158 0.60366 0.0
C6471 C 0.33374 0.1818 0.5953 0.0
C6472 C 0.32177 0.19076 0.59955 0.0
C6473 C 0.32312 0.19981 0.61211 0.0
H6474 H 0.78208 0.37404 0.66387 0.0
H6475 H 0.82287 0.39593 0.65292 0.0
H6476 H 0.82486 0.38073 0.63044 0.0
H6477 H 0.79264 0.33916 0.65423 0.0
H6478 H 0.77519 0.33358 0.64683 0.0
H6479 H 0.776 0.34756 0.66078 0.0
H6480 H 0.76192 0.36555 0.6438 0.0
H6481 H 0.76097 0.35157 0.62979 0.0
H6482 H 0.76878 0.36928 0.6256 0.0
H6483 H 0.82384 0.36072 0.61091 0.0
H6484 H 0.81945 0.33852 0.59579 0.0
H6485 H 0.7791 0.33049 0.61972 0.0
C6486 C 0.79129 0.37588 0.65661 0.0
C6487 C 0.80232 0.38616 0.66016 0.0
C6488 C 0.81423 0.38818 0.65038 0.0
C6489 C 0.81545 0.37959 0.63759 0.0
C6490 C 0.80457 0.36922 0.63466 0.0
C6491 C 0.79262 0.36751 0.64383 0.0
C6492 C 0.7829 0.35501 0.63889 0.0
C6493 C 0.78162 0.34313 0.65089 0.0
C6494 C 0.76774 0.3607 0.63424 0.0
C6495 C 0.7915 0.34955 0.62581 0.0
C6496 C 0.8039 0.35793 0.62341 0.0
C6497 C 0.81403 0.35425 0.61254 0.0
C6498 C 0.81146 0.34159 0.60403 0.0
C6499 C 0.7989 0.33278 0.60651 0.0
C6500 C 0.78873 0.33704 0.61739 0.0
H6501 H 0.20005 0.61914 0.66638 0.0
H6502 H 0.16342 0.59212 0.65232 0.0
H6503 H 0.16071 0.60765 0.63009 0.0
H6504 H 0.18535 0.65302 0.65591 0.0
H6505 H 0.20262 0.66065 0.65009 0.0
H6506 H 0.20218 0.64672 0.66412 0.0
H6507 H 0.21992 0.63059 0.64877 0.0
H6508 H 0.22043 0.64449 0.63469 0.0
H6509 H 0.21525 0.62593 0.63009 0.0
H6510 H 0.16138 0.62746 0.60996 0.0
H6511 H 0.16525 0.64945 0.59432 0.0
H6512 H 0.20144 0.66267 0.62232 0.0
C6513 C 0.19151 0.61634 0.6586 0.0
C6514 C 0.18194 0.60441 0.66111 0.0
C6515 C 0.17091 0.60119 0.65061 0.0
C6516 C 0.1693 0.60994 0.63796 0.0
C6517 C 0.17887 0.62174 0.63595 0.0
C6518 C 0.18978 0.62486 0.64601 0.0
C6519 C 0.19833 0.63842 0.6418 0.0
C6520 C 0.19703 0.6504 0.65368 0.0
C6521 C 0.21444 0.63462 0.63865 0.0
C6522 C 0.19036 0.6427 0.62793 0.0
C6523 C 0.17924 0.63295 0.62458 0.0
C6524 C 0.17015 0.63508 0.61244 0.0
C6525 C 0.17243 0.64759 0.60362 0.0
C6526 C 0.18364 0.6578 0.6071 0.0
C6527 C 0.19277 0.65511 0.61932 0.0
loop_
_geom_bond_atom_site_label_1
_geom_bond_atom_site_label_2
_geom_bond_distance
_geom_bond_site_symmetry_2
_ccdc_geom_bond_type
C0 O1 1.306 . S
C0 O3 1.160 . S
O1 C0 1.306 . S
O1 Cd2 2.228 . S
Cd2 O1 2.228 . S
Cd2 O6 2.273 . S
Cd2 O10 2.277 . S
O3 C0 1.160 . S
O3 Cd4 2.203 . S
Cd4 O3 2.203 . S
Cd4 O6 2.411 . S
Cd4 O7 2.333 . S
Cd4 O8 2.352 . S
Cd4 O12 2.277 . S
Cd4 O13 2.356 . S
C5 O10 1.209 . S
C5 O12 1.226 . S
O6 Cd2 2.273 . S
O6 Cd4 2.411 . S
O6 C9 1.320 . S
O7 Cd4 2.333 . S
O7 C9 1.214 . S
O8 Cd4 2.352 . S
O8 C11 1.258 . S
C9 O6 1.320 . S
C9 O7 1.214 . S
O10 Cd2 2.277 . S
O10 C5 1.209 . S
C11 O8 1.258 . S
C11 O13 1.282 . S
O12 Cd4 2.277 . S
O12 C5 1.226 . S
O13 Cd4 2.356 . S
O13 C11 1.282 . S
C14 O15 1.306 . S
C14 O17 1.160 . S
O15 C14 1.306 . S
O15 Cd16 2.228 . S
Cd16 O15 2.228 . S
Cd16 O20 2.273 . S
Cd16 O24 2.277 . S
O17 C14 1.160 . S
O17 Cd18 2.203 . S
Cd18 O17 2.203 . S
Cd18 O20 2.411 . S
Cd18 O21 2.333 . S
Cd18 O22 2.352 . S
Cd18 O26 2.277 . S
Cd18 O27 2.356 . S
C19 O24 1.209 . S
C19 O26 1.226 . S
O20 Cd16 2.273 . S
O20 Cd18 2.411 . S
O20 C23 1.320 . S
O21 Cd18 2.333 . S
O21 C23 1.214 . S
O22 Cd18 2.352 . S
O22 C25 1.258 . S
C23 O20 1.320 . S
C23 O21 1.214 . S
O24 Cd16 2.277 . S
O24 C19 1.209 . S
C25 O22 1.258 . S
C25 O27 1.282 . S
O26 Cd18 2.277 . S
O26 C19 1.226 . S
O27 Cd18 2.356 . S
O27 C25 1.282 . S
C28 O29 1.306 . S
C28 O31 1.160 . S
O29 C28 1.306 . S
O29 Cd30 2.228 . S
Cd30 O29 2.228 . S
Cd30 O34 2.273 . S
Cd30 O38 2.277 . S
O31 C28 1.160 . S
O31 Cd32 2.203 . S
Cd32 O31 2.203 . S
Cd32 O34 2.411 . S
Cd32 O35 2.333 . S
Cd32 O36 2.352 . S
Cd32 O40 2.277 . S
Cd32 O41 2.356 . S
C33 O38 1.209 . S
C33 O40 1.226 . S
O34 Cd30 2.273 . S
O34 Cd32 2.411 . S
O34 C37 1.320 . S
O35 Cd32 2.333 . S
O35 C37 1.214 . S
O36 Cd32 2.352 . S
O36 C39 1.258 . S
C37 O34 1.320 . S
C37 O35 1.214 . S
O38 Cd30 2.277 . S
O38 C33 1.209 . S
C39 O36 1.258 . S
C39 O41 1.282 . S
O40 Cd32 2.277 . S
O40 C33 1.226 . S
O41 Cd32 2.356 . S
O41 C39 1.282 . S
C42 O43 1.306 . S
C42 O45 1.160 . S
O43 C42 1.306 . S
O43 Cd44 2.228 . S
Cd44 O43 2.228 . S
Cd44 O48 2.273 . S
Cd44 O52 2.277 . S
O45 C42 1.160 . S
O45 Cd46 2.203 . S
Cd46 O45 2.203 . S
Cd46 O48 2.411 . S
Cd46 O49 2.333 . S
Cd46 O50 2.352 . S
Cd46 O54 2.277 . S
Cd46 O55 2.356 . S
C47 O52 1.209 . S
C47 O54 1.226 . S
O48 Cd44 2.273 . S
O48 Cd46 2.411 . S
O48 C51 1.320 . S
O49 Cd46 2.333 . S
O49 C51 1.214 . S
O50 Cd46 2.352 . S
O50 C53 1.258 . S
C51 O48 1.320 . S
C51 O49 1.214 . S
O52 Cd44 2.277 . S
O52 C47 1.209 . S
C53 O50 1.258 . S
C53 O55 1.282 . S
O54 Cd46 2.277 . S
O54 C47 1.226 . S
O55 Cd46 2.356 . S
O55 C53 1.282 . S
C56 O57 1.306 . S
C56 O59 1.160 . S
O57 C56 1.306 . S
O57 Cd58 2.228 . S
Cd58 O57 2.228 . S
Cd58 O62 2.273 . S
Cd58 O66 2.277 . S
O59 C56 1.160 . S
O59 Cd60 2.203 . S
Cd60 O59 2.203 . S
Cd60 O62 2.411 . S
Cd60 O63 2.333 . S
Cd60 O64 2.352 . S
Cd60 O68 2.277 . S
Cd60 O69 2.356 . S
C61 O66 1.209 . S
C61 O68 1.226 . S
O62 Cd58 2.273 . S
O62 Cd60 2.411 . S
O62 C65 1.320 . S
O63 Cd60 2.333 . S
O63 C65 1.214 . S
O64 Cd60 2.352 . S
O64 C67 1.258 . S
C65 O62 1.320 . S
C65 O63 1.214 . S
O66 Cd58 2.277 . S
O66 C61 1.209 . S
C67 O64 1.258 . S
C67 O69 1.282 . S
O68 Cd60 2.277 . S
O68 C61 1.226 . S
O69 Cd60 2.356 . S
O69 C67 1.282 . S
C70 O71 1.306 . S
C70 O73 1.160 . S
O71 C70 1.306 . S
O71 Cd72 2.228 . S
Cd72 O71 2.228 . S
Cd72 O76 2.273 . S
Cd72 O80 2.277 . S
O73 C70 1.160 . S
O73 Cd74 2.203 . S
Cd74 O73 2.203 . S
Cd74 O76 2.411 . S
Cd74 O77 2.333 . S
Cd74 O78 2.352 . S
Cd74 O82 2.277 . S
Cd74 O83 2.356 . S
C75 O80 1.209 . S
C75 O82 1.226 . S
O76 Cd72 2.273 . S
O76 Cd74 2.411 . S
O76 C79 1.320 . S
O77 Cd74 2.333 . S
O77 C79 1.214 . S
O78 Cd74 2.352 . S
O78 C81 1.258 . S
C79 O76 1.320 . S
C79 O77 1.214 . S
O80 Cd72 2.277 . S
O80 C75 1.209 . S
C81 O78 1.258 . S
C81 O83 1.282 . S
O82 Cd74 2.277 . S
O82 C75 1.226 . S
O83 Cd74 2.356 . S
O83 C81 1.282 . S
C84 O85 1.306 . S
C84 O87 1.160 . S
O85 C84 1.306 . S
O85 Cd86 2.228 . S
Cd86 O85 2.228 . S
Cd86 O90 2.273 . S
Cd86 O94 2.277 . S
O87 C84 1.160 . S
O87 Cd88 2.203 . S
Cd88 O87 2.203 . S
Cd88 O90 2.411 . S
Cd88 O91 2.333 . S
Cd88 O92 2.352 . S
Cd88 O96 2.277 . S
Cd88 O97 2.356 . S
C89 O94 1.209 . S
C89 O96 1.226 . S
O90 Cd86 2.273 . S
O90 Cd88 2.411 . S
O90 C93 1.320 . S
O91 Cd88 2.333 . S
O91 C93 1.214 . S
O92 Cd88 2.352 . S
O92 C95 1.258 . S
C93 O90 1.320 . S
C93 O91 1.214 . S
O94 Cd86 2.277 . S
O94 C89 1.209 . S
C95 O92 1.258 . S
C95 O97 1.282 . S
O96 Cd88 2.277 . S
O96 C89 1.226 . S
O97 Cd88 2.356 . S
O97 C95 1.282 . S
C98 O99 1.306 . S
C98 O101 1.160 . S
O99 C98 1.306 . S
O99 Cd100 2.228 . S
Cd100 O99 2.228 . S
Cd100 O104 2.273 . S
Cd100 O108 2.277 . S
O101 C98 1.160 . S
O101 Cd102 2.203 . S
Cd102 O101 2.203 . S
Cd102 O104 2.411 . S
Cd102 O105 2.333 . S
Cd102 O106 2.352 . S
Cd102 O110 2.277 . S
Cd102 O111 2.356 . S
C103 O108 1.209 . S
C103 O110 1.226 . S
O104 Cd100 2.273 . S
O104 Cd102 2.411 . S
O104 C107 1.320 . S
O105 Cd102 2.333 . S
O105 C107 1.214 . S
O106 Cd102 2.352 . S
O106 C109 1.258 . S
C107 O104 1.320 . S
C107 O105 1.214 . S
O108 Cd100 2.277 . S
O108 C103 1.209 . S
C109 O106 1.258 . S
C109 O111 1.282 . S
O110 Cd102 2.277 . S
O110 C103 1.226 . S
O111 Cd102 2.356 . S
O111 C109 1.282 . S
C112 O113 1.306 . S
C112 O115 1.160 . S
O113 C112 1.306 . S
O113 Cd114 2.228 . S
Cd114 O113 2.228 . S
Cd114 O118 2.273 . S
Cd114 O122 2.277 . S
O115 C112 1.160 . S
O115 Cd116 2.203 . S
Cd116 O115 2.203 . S
Cd116 O118 2.411 . S
Cd116 O119 2.333 . S
Cd116 O120 2.352 . S
Cd116 O124 2.277 . S
Cd116 O125 2.356 . S
C117 O122 1.209 . S
C117 O124 1.226 . S
O118 Cd114 2.273 . S
O118 Cd116 2.411 . S
O118 C121 1.320 . S
O119 Cd116 2.333 . S
O119 C121 1.214 . S
O120 Cd116 2.352 . S
O120 C123 1.258 . S
C121 O118 1.320 . S
C121 O119 1.214 . S
O122 Cd114 2.277 . S
O122 C117 1.209 . S
C123 O120 1.258 . S
C123 O125 1.282 . S
O124 Cd116 2.277 . S
O124 C117 1.226 . S
O125 Cd116 2.356 . S
O125 C123 1.282 . S
C126 O127 1.306 . S
C126 O129 1.160 . S
O127 C126 1.306 . S
O127 Cd128 2.228 . S
Cd128 O127 2.228 . S
Cd128 O132 2.273 . S
Cd128 O136 2.277 . S
O129 C126 1.160 . S
O129 Cd130 2.203 . S
Cd130 O129 2.203 . S
Cd130 O132 2.411 . S
Cd130 O133 2.333 . S
Cd130 O134 2.352 . S
Cd130 O138 2.277 . S
Cd130 O139 2.356 . S
C131 O136 1.209 . S
C131 O138 1.226 . S
O132 Cd128 2.273 . S
O132 Cd130 2.411 . S
O132 C135 1.320 . S
O133 Cd130 2.333 . S
O133 C135 1.214 . S
O134 Cd130 2.352 . S
O134 C137 1.258 . S
C135 O132 1.320 . S
C135 O133 1.214 . S
O136 Cd128 2.277 . S
O136 C131 1.209 . S
C137 O134 1.258 . S
C137 O139 1.282 . S
O138 Cd130 2.277 . S
O138 C131 1.226 . S
O139 Cd130 2.356 . S
O139 C137 1.282 . S
C140 O141 1.306 . S
C140 O143 1.160 . S
O141 C140 1.306 . S
O141 Cd142 2.228 . S
Cd142 O141 2.228 . S
Cd142 O146 2.273 . S
Cd142 O150 2.277 . S
O143 C140 1.160 . S
O143 Cd144 2.203 . S
Cd144 O143 2.203 . S
Cd144 O146 2.411 . S
Cd144 O147 2.333 . S
Cd144 O148 2.352 . S
Cd144 O152 2.277 . S
Cd144 O153 2.356 . S
C145 O150 1.209 . S
C145 O152 1.226 . S
O146 Cd142 2.273 . S
O146 Cd144 2.411 . S
O146 C149 1.320 . S
O147 Cd144 2.333 . S
O147 C149 1.214 . S
O148 Cd144 2.352 . S
O148 C151 1.258 . S
C149 O146 1.320 . S
C149 O147 1.214 . S
O150 Cd142 2.277 . S
O150 C145 1.209 . S
C151 O148 1.258 . S
C151 O153 1.282 . S
O152 Cd144 2.277 . S
O152 C145 1.226 . S
O153 Cd144 2.356 . S
O153 C151 1.282 . S
C154 O155 1.306 . S
C154 O157 1.160 . S
O155 C154 1.306 . S
O155 Cd156 2.228 . S
Cd156 O155 2.228 . S
Cd156 O160 2.273 . S
Cd156 O164 2.277 . S
O157 C154 1.160 . S
O157 Cd158 2.203 . S
Cd158 O157 2.203 . S
Cd158 O160 2.411 . S
Cd158 O161 2.333 . S
Cd158 O162 2.352 . S
Cd158 O166 2.277 . S
Cd158 O167 2.356 . S
C159 O164 1.209 . S
C159 O166 1.226 . S
O160 Cd156 2.273 . S
O160 Cd158 2.411 . S
O160 C163 1.320 . S
O161 Cd158 2.333 . S
O161 C163 1.214 . S
O162 Cd158 2.352 . S
O162 C165 1.258 . S
C163 O160 1.320 . S
C163 O161 1.214 . S
O164 Cd156 2.277 . S
O164 C159 1.209 . S
C165 O162 1.258 . S
C165 O167 1.282 . S
O166 Cd158 2.277 . S
O166 C159 1.226 . S
O167 Cd158 2.356 . S
O167 C165 1.282 . S
C168 O169 1.306 . S
C168 O171 1.160 . S
O169 C168 1.306 . S
O169 Cd170 2.228 . S
Cd170 O169 2.228 . S
Cd170 O174 2.273 . S
Cd170 O178 2.277 . S
O171 C168 1.160 . S
O171 Cd172 2.203 . S
Cd172 O171 2.203 . S
Cd172 O174 2.411 . S
Cd172 O175 2.333 . S
Cd172 O176 2.352 . S
Cd172 O180 2.277 . S
Cd172 O181 2.356 . S
C173 O178 1.209 . S
C173 O180 1.226 . S
O174 Cd170 2.273 . S
O174 Cd172 2.411 . S
O174 C177 1.320 . S
O175 Cd172 2.333 . S
O175 C177 1.214 . S
O176 Cd172 2.352 . S
O176 C179 1.258 . S
C177 O174 1.320 . S
C177 O175 1.214 . S
O178 Cd170 2.277 . S
O178 C173 1.209 . S
C179 O176 1.258 . S
C179 O181 1.282 . S
O180 Cd172 2.277 . S
O180 C173 1.226 . S
O181 Cd172 2.356 . S
O181 C179 1.282 . S
C182 O183 1.306 . S
C182 O185 1.160 . S
O183 C182 1.306 . S
O183 Cd184 2.228 . S
Cd184 O183 2.228 . S
Cd184 O188 2.273 . S
Cd184 O192 2.277 . S
O185 C182 1.160 . S
O185 Cd186 2.203 . S
Cd186 O185 2.203 . S
Cd186 O188 2.411 . S
Cd186 O189 2.333 . S
Cd186 O190 2.352 . S
Cd186 O194 2.277 . S
Cd186 O195 2.356 . S
C187 O192 1.209 . S
C187 O194 1.226 . S
O188 Cd184 2.273 . S
O188 Cd186 2.411 . S
O188 C191 1.320 . S
O189 Cd186 2.333 . S
O189 C191 1.214 . S
O190 Cd186 2.352 . S
O190 C193 1.258 . S
C191 O188 1.320 . S
C191 O189 1.214 . S
O192 Cd184 2.277 . S
O192 C187 1.209 . S
C193 O190 1.258 . S
C193 O195 1.282 . S
O194 Cd186 2.277 . S
O194 C187 1.226 . S
O195 Cd186 2.356 . S
O195 C193 1.282 . S
C196 O197 1.306 . S
C196 O199 1.160 . S
O197 C196 1.306 . S
O197 Cd198 2.228 . S
Cd198 O197 2.228 . S
Cd198 O202 2.273 . S
Cd198 O206 2.277 . S
O199 C196 1.160 . S
O199 Cd200 2.203 . S
Cd200 O199 2.203 . S
Cd200 O202 2.411 . S
Cd200 O203 2.333 . S
Cd200 O204 2.352 . S
Cd200 O208 2.277 . S
Cd200 O209 2.356 . S
C201 O206 1.209 . S
C201 O208 1.226 . S
O202 Cd198 2.273 . S
O202 Cd200 2.411 . S
O202 C205 1.320 . S
O203 Cd200 2.333 . S
O203 C205 1.214 . S
O204 Cd200 2.352 . S
O204 C207 1.258 . S
C205 O202 1.320 . S
C205 O203 1.214 . S
O206 Cd198 2.277 . S
O206 C201 1.209 . S
C207 O204 1.258 . S
C207 O209 1.282 . S
O208 Cd200 2.277 . S
O208 C201 1.226 . S
O209 Cd200 2.356 . S
O209 C207 1.282 . S
C210 O211 1.306 . S
C210 O213 1.160 . S
O211 C210 1.306 . S
O211 Cd212 2.228 . S
Cd212 O211 2.228 . S
Cd212 O216 2.273 . S
Cd212 O220 2.277 . S
O213 C210 1.160 . S
O213 Cd214 2.203 . S
Cd214 O213 2.203 . S
Cd214 O216 2.411 . S
Cd214 O217 2.333 . S
Cd214 O218 2.352 . S
Cd214 O222 2.277 . S
Cd214 O223 2.356 . S
C215 O220 1.209 . S
C215 O222 1.226 . S
O216 Cd212 2.273 . S
O216 Cd214 2.411 . S
O216 C219 1.320 . S
O217 Cd214 2.333 . S
O217 C219 1.214 . S
O218 Cd214 2.352 . S
O218 C221 1.258 . S
C219 O216 1.320 . S
C219 O217 1.214 . S
O220 Cd212 2.277 . S
O220 C215 1.209 . S
C221 O218 1.258 . S
C221 O223 1.282 . S
O222 Cd214 2.277 . S
O222 C215 1.226 . S
O223 Cd214 2.356 . S
O223 C221 1.282 . S
C224 O225 1.306 . S
C224 O227 1.160 . S
O225 C224 1.306 . S
O225 Cd226 2.228 . S
Cd226 O225 2.228 . S
Cd226 O230 2.273 . S
Cd226 O234 2.277 . S
O227 C224 1.160 . S
O227 Cd228 2.203 . S
Cd228 O227 2.203 . S
Cd228 O230 2.411 . S
Cd228 O231 2.333 . S
Cd228 O232 2.352 . S
Cd228 O236 2.277 . S
Cd228 O237 2.356 . S
C229 O234 1.209 . S
C229 O236 1.226 . S
O230 Cd226 2.273 . S
O230 Cd228 2.411 . S
O230 C233 1.320 . S
O231 Cd228 2.333 . S
O231 C233 1.214 . S
O232 Cd228 2.352 . S
O232 C235 1.258 . S
C233 O230 1.320 . S
C233 O231 1.214 . S
O234 Cd226 2.277 . S
O234 C229 1.209 . S
C235 O232 1.258 . S
C235 O237 1.282 . S
O236 Cd228 2.277 . S
O236 C229 1.226 . S
O237 Cd228 2.356 . S
O237 C235 1.282 . S
C238 O239 1.306 . S
C238 O241 1.160 . S
O239 C238 1.306 . S
O239 Cd240 2.228 . S
Cd240 O239 2.228 . S
Cd240 O244 2.273 . S
Cd240 O248 2.277 . S
O241 C238 1.160 . S
O241 Cd242 2.203 . S
Cd242 O241 2.203 . S
Cd242 O244 2.411 . S
Cd242 O245 2.333 . S
Cd242 O246 2.352 . S
Cd242 O250 2.277 . S
Cd242 O251 2.356 . S
C243 O248 1.209 . S
C243 O250 1.226 . S
O244 Cd240 2.273 . S
O244 Cd242 2.411 . S
O244 C247 1.320 . S
O245 Cd242 2.333 . S
O245 C247 1.214 . S
O246 Cd242 2.352 . S
O246 C249 1.258 . S
C247 O244 1.320 . S
C247 O245 1.214 . S
O248 Cd240 2.277 . S
O248 C243 1.209 . S
C249 O246 1.258 . S
C249 O251 1.282 . S
O250 Cd242 2.277 . S
O250 C243 1.226 . S
O251 Cd242 2.356 . S
O251 C249 1.282 . S
C252 O253 1.306 . S
C252 O255 1.160 . S
O253 C252 1.306 . S
O253 Cd254 2.228 . S
Cd254 O253 2.228 . S
Cd254 O258 2.273 . S
Cd254 O262 2.277 . S
O255 C252 1.160 . S
O255 Cd256 2.203 . S
Cd256 O255 2.203 . S
Cd256 O258 2.411 . S
Cd256 O259 2.333 . S
Cd256 O260 2.352 . S
Cd256 O264 2.277 . S
Cd256 O265 2.356 . S
C257 O262 1.209 . S
C257 O264 1.226 . S
O258 Cd254 2.273 . S
O258 Cd256 2.411 . S
O258 C261 1.320 . S
O259 Cd256 2.333 . S
O259 C261 1.214 . S
O260 Cd256 2.352 . S
O260 C263 1.258 . S
C261 O258 1.320 . S
C261 O259 1.214 . S
O262 Cd254 2.277 . S
O262 C257 1.209 . S
C263 O260 1.258 . S
C263 O265 1.282 . S
O264 Cd256 2.277 . S
O264 C257 1.226 . S
O265 Cd256 2.356 . S
O265 C263 1.282 . S
C266 O267 1.306 . S
C266 O269 1.160 . S
O267 C266 1.306 . S
O267 Cd268 2.228 . S
Cd268 O267 2.228 . S
Cd268 O272 2.273 . S
Cd268 O276 2.277 . S
O269 C266 1.160 . S
O269 Cd270 2.203 . S
Cd270 O269 2.203 . S
Cd270 O272 2.411 . S
Cd270 O273 2.333 . S
Cd270 O274 2.352 . S
Cd270 O278 2.277 . S
Cd270 O279 2.356 . S
C271 O276 1.209 . S
C271 O278 1.226 . S
O272 Cd268 2.273 . S
O272 Cd270 2.411 . S
O272 C275 1.320 . S
O273 Cd270 2.333 . S
O273 C275 1.214 . S
O274 Cd270 2.352 . S
O274 C277 1.258 . S
C275 O272 1.320 . S
C275 O273 1.214 . S
O276 Cd268 2.277 . S
O276 C271 1.209 . S
C277 O274 1.258 . S
C277 O279 1.282 . S
O278 Cd270 2.277 . S
O278 C271 1.226 . S
O279 Cd270 2.356 . S
O279 C277 1.282 . S
C280 O281 1.306 . S
C280 O283 1.160 . S
O281 C280 1.306 . S
O281 Cd282 2.228 . S
Cd282 O281 2.228 . S
Cd282 O286 2.273 . S
Cd282 O290 2.277 . S
O283 C280 1.160 . S
O283 Cd284 2.203 . S
Cd284 O283 2.203 . S
Cd284 O286 2.411 . S
Cd284 O287 2.333 . S
Cd284 O288 2.352 . S
Cd284 O292 2.277 . S
Cd284 O293 2.356 . S
C285 O290 1.209 . S
C285 O292 1.226 . S
O286 Cd282 2.273 . S
O286 Cd284 2.411 . S
O286 C289 1.320 . S
O287 Cd284 2.333 . S
O287 C289 1.214 . S
O288 Cd284 2.352 . S
O288 C291 1.258 . S
C289 O286 1.320 . S
C289 O287 1.214 . S
O290 Cd282 2.277 . S
O290 C285 1.209 . S
C291 O288 1.258 . S
C291 O293 1.282 . S
O292 Cd284 2.277 . S
O292 C285 1.226 . S
O293 Cd284 2.356 . S
O293 C291 1.282 . S
C294 O295 1.306 . S
C294 O297 1.160 . S
O295 C294 1.306 . S
O295 Cd296 2.228 . S
Cd296 O295 2.228 . S
Cd296 O300 2.273 . S
Cd296 O304 2.277 . S
O297 C294 1.160 . S
O297 Cd298 2.203 . S
Cd298 O297 2.203 . S
Cd298 O300 2.411 . S
Cd298 O301 2.333 . S
Cd298 O302 2.352 . S
Cd298 O306 2.277 . S
Cd298 O307 2.356 . S
C299 O304 1.209 . S
C299 O306 1.226 . S
O300 Cd296 2.273 . S
O300 Cd298 2.411 . S
O300 C303 1.320 . S
O301 Cd298 2.333 . S
O301 C303 1.214 . S
O302 Cd298 2.352 . S
O302 C305 1.258 . S
C303 O300 1.320 . S
C303 O301 1.214 . S
O304 Cd296 2.277 . S
O304 C299 1.209 . S
C305 O302 1.258 . S
C305 O307 1.282 . S
O306 Cd298 2.277 . S
O306 C299 1.226 . S
O307 Cd298 2.356 . S
O307 C305 1.282 . S
C308 O309 1.306 . S
C308 O311 1.160 . S
O309 C308 1.306 . S
O309 Cd310 2.228 . S
Cd310 O309 2.228 . S
Cd310 O314 2.273 . S
Cd310 O318 2.277 . S
O311 C308 1.160 . S
O311 Cd312 2.203 . S
Cd312 O311 2.203 . S
Cd312 O314 2.411 . S
Cd312 O315 2.333 . S
Cd312 O316 2.352 . S
Cd312 O320 2.277 . S
Cd312 O321 2.356 . S
C313 O318 1.209 . S
C313 O320 1.226 . S
O314 Cd310 2.273 . S
O314 Cd312 2.411 . S
O314 C317 1.320 . S
O315 Cd312 2.333 . S
O315 C317 1.214 . S
O316 Cd312 2.352 . S
O316 C319 1.258 . S
C317 O314 1.320 . S
C317 O315 1.214 . S
O318 Cd310 2.277 . S
O318 C313 1.209 . S
C319 O316 1.258 . S
C319 O321 1.282 . S
O320 Cd312 2.277 . S
O320 C313 1.226 . S
O321 Cd312 2.356 . S
O321 C319 1.282 . S
C322 O323 1.306 . S
C322 O325 1.160 . S
O323 C322 1.306 . S
O323 Cd324 2.228 . S
Cd324 O323 2.228 . S
Cd324 O328 2.273 . S
Cd324 O332 2.277 . S
O325 C322 1.160 . S
O325 Cd326 2.203 . S
Cd326 O325 2.203 . S
Cd326 O328 2.411 . S
Cd326 O329 2.333 . S
Cd326 O330 2.352 . S
Cd326 O334 2.277 . S
Cd326 O335 2.356 . S
C327 O332 1.209 . S
C327 O334 1.226 . S
O328 Cd324 2.273 . S
O328 Cd326 2.411 . S
O328 C331 1.320 . S
O329 Cd326 2.333 . S
O329 C331 1.214 . S
O330 Cd326 2.352 . S
O330 C333 1.258 . S
C331 O328 1.320 . S
C331 O329 1.214 . S
O332 Cd324 2.277 . S
O332 C327 1.209 . S
C333 O330 1.258 . S
C333 O335 1.282 . S
O334 Cd326 2.277 . S
O334 C327 1.226 . S
O335 Cd326 2.356 . S
O335 C333 1.282 . S
C336 O337 1.306 . S
C336 O339 1.160 . S
O337 C336 1.306 . S
O337 Cd338 2.228 . S
Cd338 O337 2.228 . S
Cd338 O342 2.273 . S
Cd338 O346 2.277 . S
O339 C336 1.160 . S
O339 Cd340 2.203 . S
Cd340 O339 2.203 . S
Cd340 O342 2.411 . S
Cd340 O343 2.333 . S
Cd340 O344 2.352 . S
Cd340 O348 2.277 . S
Cd340 O349 2.356 . S
C341 O346 1.209 . S
C341 O348 1.226 . S
O342 Cd338 2.273 . S
O342 Cd340 2.411 . S
O342 C345 1.320 . S
O343 Cd340 2.333 . S
O343 C345 1.214 . S
O344 Cd340 2.352 . S
O344 C347 1.258 . S
C345 O342 1.320 . S
C345 O343 1.214 . S
O346 Cd338 2.277 . S
O346 C341 1.209 . S
C347 O344 1.258 . S
C347 O349 1.282 . S
O348 Cd340 2.277 . S
O348 C341 1.226 . S
O349 Cd340 2.356 . S
O349 C347 1.282 . S
C350 O351 1.306 . S
C350 O353 1.160 . S
O351 C350 1.306 . S
O351 Cd352 2.228 . S
Cd352 O351 2.228 . S
Cd352 O356 2.273 . S
Cd352 O360 2.277 . S
O353 C350 1.160 . S
O353 Cd354 2.203 . S
Cd354 O353 2.203 . S
Cd354 O356 2.411 . S
Cd354 O357 2.333 . S
Cd354 O358 2.352 . S
Cd354 O362 2.277 . S
Cd354 O363 2.356 . S
C355 O360 1.209 . S
C355 O362 1.226 . S
O356 Cd352 2.273 . S
O356 Cd354 2.411 . S
O356 C359 1.320 . S
O357 Cd354 2.333 . S
O357 C359 1.214 . S
O358 Cd354 2.352 . S
O358 C361 1.258 . S
C359 O356 1.320 . S
C359 O357 1.214 . S
O360 Cd352 2.277 . S
O360 C355 1.209 . S
C361 O358 1.258 . S
C361 O363 1.282 . S
O362 Cd354 2.277 . S
O362 C355 1.226 . S
O363 Cd354 2.356 . S
O363 C361 1.282 . S
C364 O365 1.306 . S
C364 O367 1.160 . S
O365 C364 1.306 . S
O365 Cd366 2.228 . S
Cd366 O365 2.228 . S
Cd366 O370 2.273 . S
Cd366 O374 2.277 . S
O367 C364 1.160 . S
O367 Cd368 2.203 . S
Cd368 O367 2.203 . S
Cd368 O370 2.411 . S
Cd368 O371 2.333 . S
Cd368 O372 2.352 . S
Cd368 O376 2.277 . S
Cd368 O377 2.356 . S
C369 O374 1.209 . S
C369 O376 1.226 . S
O370 Cd366 2.273 . S
O370 Cd368 2.411 . S
O370 C373 1.320 . S
O371 Cd368 2.333 . S
O371 C373 1.214 . S
O372 Cd368 2.352 . S
O372 C375 1.258 . S
C373 O370 1.320 . S
C373 O371 1.214 . S
O374 Cd366 2.277 . S
O374 C369 1.209 . S
C375 O372 1.258 . S
C375 O377 1.282 . S
O376 Cd368 2.277 . S
O376 C369 1.226 . S
O377 Cd368 2.356 . S
O377 C375 1.282 . S
C378 O379 1.306 . S
C378 O381 1.160 . S
O379 C378 1.306 . S
O379 Cd380 2.228 . S
Cd380 O379 2.228 . S
Cd380 O384 2.273 . S
Cd380 O388 2.277 . S
O381 C378 1.160 . S
O381 Cd382 2.203 . S
Cd382 O381 2.203 . S
Cd382 O384 2.411 . S
Cd382 O385 2.333 . S
Cd382 O386 2.352 . S
Cd382 O390 2.277 . S
Cd382 O391 2.356 . S
C383 O388 1.209 . S
C383 O390 1.226 . S
O384 Cd380 2.273 . S
O384 Cd382 2.411 . S
O384 C387 1.320 . S
O385 Cd382 2.333 . S
O385 C387 1.214 . S
O386 Cd382 2.352 . S
O386 C389 1.258 . S
C387 O384 1.320 . S
C387 O385 1.214 . S
O388 Cd380 2.277 . S
O388 C383 1.209 . S
C389 O386 1.258 . S
C389 O391 1.282 . S
O390 Cd382 2.277 . S
O390 C383 1.226 . S
O391 Cd382 2.356 . S
O391 C389 1.282 . S
C392 O393 1.306 . S
C392 O395 1.160 . S
O393 C392 1.306 . S
O393 Cd394 2.228 . S
Cd394 O393 2.228 . S
Cd394 O398 2.273 . S
Cd394 O402 2.277 . S
O395 C392 1.160 . S
O395 Cd396 2.203 . S
Cd396 O395 2.203 . S
Cd396 O398 2.411 . S
Cd396 O399 2.333 . S
Cd396 O400 2.352 . S
Cd396 O404 2.277 . S
Cd396 O405 2.356 . S
C397 O402 1.209 . S
C397 O404 1.226 . S
O398 Cd394 2.273 . S
O398 Cd396 2.411 . S
O398 C401 1.320 . S
O399 Cd396 2.333 . S
O399 C401 1.214 . S
O400 Cd396 2.352 . S
O400 C403 1.258 . S
C401 O398 1.320 . S
C401 O399 1.214 . S
O402 Cd394 2.277 . S
O402 C397 1.209 . S
C403 O400 1.258 . S
C403 O405 1.282 . S
O404 Cd396 2.277 . S
O404 C397 1.226 . S
O405 Cd396 2.356 . S
O405 C403 1.282 . S
C406 O407 1.306 . S
C406 O409 1.160 . S
O407 C406 1.306 . S
O407 Cd408 2.228 . S
Cd408 O407 2.228 . S
Cd408 O412 2.273 . S
Cd408 O416 2.277 . S
O409 C406 1.160 . S
O409 Cd410 2.203 . S
Cd410 O409 2.203 . S
Cd410 O412 2.411 . S
Cd410 O413 2.333 . S
Cd410 O414 2.352 . S
Cd410 O418 2.277 . S
Cd410 O419 2.356 . S
C411 O416 1.209 . S
C411 O418 1.226 . S
O412 Cd408 2.273 . S
O412 Cd410 2.411 . S
O412 C415 1.320 . S
O413 Cd410 2.333 . S
O413 C415 1.214 . S
O414 Cd410 2.352 . S
O414 C417 1.258 . S
C415 O412 1.320 . S
C415 O413 1.214 . S
O416 Cd408 2.277 . S
O416 C411 1.209 . S
C417 O414 1.258 . S
C417 O419 1.282 . S
O418 Cd410 2.277 . S
O418 C411 1.226 . S
O419 Cd410 2.356 . S
O419 C417 1.282 . S
C420 O421 1.306 . S
C420 O423 1.160 . S
O421 C420 1.306 . S
O421 Cd422 2.228 . S
Cd422 O421 2.228 . S
Cd422 O426 2.273 . S
Cd422 O430 2.277 . S
O423 C420 1.160 . S
O423 Cd424 2.203 . S
Cd424 O423 2.203 . S
Cd424 O426 2.411 . S
Cd424 O427 2.333 . S
Cd424 O428 2.352 . S
Cd424 O432 2.277 . S
Cd424 O433 2.356 . S
C425 O430 1.209 . S
C425 O432 1.226 . S
O426 Cd422 2.273 . S
O426 Cd424 2.411 . S
O426 C429 1.320 . S
O427 Cd424 2.333 . S
O427 C429 1.214 . S
O428 Cd424 2.352 . S
O428 C431 1.258 . S
C429 O426 1.320 . S
C429 O427 1.214 . S
O430 Cd422 2.277 . S
O430 C425 1.209 . S
C431 O428 1.258 . S
C431 O433 1.282 . S
O432 Cd424 2.277 . S
O432 C425 1.226 . S
O433 Cd424 2.356 . S
O433 C431 1.282 . S
C434 O435 1.306 . S
C434 O437 1.160 . S
O435 C434 1.306 . S
O435 Cd436 2.228 . S
Cd436 O435 2.228 . S
Cd436 O440 2.273 . S
Cd436 O444 2.277 . S
O437 C434 1.160 . S
O437 Cd438 2.203 . S
Cd438 O437 2.203 . S
Cd438 O440 2.411 . S
Cd438 O441 2.333 . S
Cd438 O442 2.352 . S
Cd438 O446 2.277 . S
Cd438 O447 2.356 . S
C439 O444 1.209 . S
C439 O446 1.226 . S
O440 Cd436 2.273 . S
O440 Cd438 2.411 . S
O440 C443 1.320 . S
O441 Cd438 2.333 . S
O441 C443 1.214 . S
O442 Cd438 2.352 . S
O442 C445 1.258 . S
C443 O440 1.320 . S
C443 O441 1.214 . S
O444 Cd436 2.277 . S
O444 C439 1.209 . S
C445 O442 1.258 . S
C445 O447 1.282 . S
O446 Cd438 2.277 . S
O446 C439 1.226 . S
O447 Cd438 2.356 . S
O447 C445 1.282 . S
C448 O449 1.306 . S
C448 O451 1.160 . S
O449 C448 1.306 . S
O449 Cd450 2.228 . S
Cd450 O449 2.228 . S
Cd450 O454 2.273 . S
Cd450 O458 2.277 . S
O451 C448 1.160 . S
O451 Cd452 2.203 . S
Cd452 O451 2.203 . S
Cd452 O454 2.411 . S
Cd452 O455 2.333 . S
Cd452 O456 2.352 . S
Cd452 O460 2.277 . S
Cd452 O461 2.356 . S
C453 O458 1.209 . S
C453 O460 1.226 . S
O454 Cd450 2.273 . S
O454 Cd452 2.411 . S
O454 C457 1.320 . S
O455 Cd452 2.333 . S
O455 C457 1.214 . S
O456 Cd452 2.352 . S
O456 C459 1.258 . S
C457 O454 1.320 . S
C457 O455 1.214 . S
O458 Cd450 2.277 . S
O458 C453 1.209 . S
C459 O456 1.258 . S
C459 O461 1.282 . S
O460 Cd452 2.277 . S
O460 C453 1.226 . S
O461 Cd452 2.356 . S
O461 C459 1.282 . S
C462 O463 1.306 . S
C462 O465 1.160 . S
O463 C462 1.306 . S
O463 Cd464 2.228 . S
Cd464 O463 2.228 . S
Cd464 O468 2.273 . S
Cd464 O472 2.277 . S
O465 C462 1.160 . S
O465 Cd466 2.203 . S
Cd466 O465 2.203 . S
Cd466 O468 2.411 . S
Cd466 O469 2.333 . S
Cd466 O470 2.352 . S
Cd466 O474 2.277 . S
Cd466 O475 2.356 . S
C467 O472 1.209 . S
C467 O474 1.226 . S
O468 Cd464 2.273 . S
O468 Cd466 2.411 . S
O468 C471 1.320 . S
O469 Cd466 2.333 . S
O469 C471 1.214 . S
O470 Cd466 2.352 . S
O470 C473 1.258 . S
C471 O468 1.320 . S
C471 O469 1.214 . S
O472 Cd464 2.277 . S
O472 C467 1.209 . S
C473 O470 1.258 . S
C473 O475 1.282 . S
O474 Cd466 2.277 . S
O474 C467 1.226 . S
O475 Cd466 2.356 . S
O475 C473 1.282 . S
C476 O477 1.306 . S
C476 O479 1.160 . S
O477 C476 1.306 . S
O477 Cd478 2.228 . S
Cd478 O477 2.228 . S
Cd478 O482 2.273 . S
Cd478 O486 2.277 . S
O479 C476 1.160 . S
O479 Cd480 2.203 . S
Cd480 O479 2.203 . S
Cd480 O482 2.411 . S
Cd480 O483 2.333 . S
Cd480 O484 2.352 . S
Cd480 O488 2.277 . S
Cd480 O489 2.356 . S
C481 O486 1.209 . S
C481 O488 1.226 . S
O482 Cd478 2.273 . S
O482 Cd480 2.411 . S
O482 C485 1.320 . S
O483 Cd480 2.333 . S
O483 C485 1.214 . S
O484 Cd480 2.352 . S
O484 C487 1.258 . S
C485 O482 1.320 . S
C485 O483 1.214 . S
O486 Cd478 2.277 . S
O486 C481 1.209 . S
C487 O484 1.258 . S
C487 O489 1.282 . S
O488 Cd480 2.277 . S
O488 C481 1.226 . S
O489 Cd480 2.356 . S
O489 C487 1.282 . S
C490 O491 1.306 . S
C490 O493 1.160 . S
O491 C490 1.306 . S
O491 Cd492 2.228 . S
Cd492 O491 2.228 . S
Cd492 O496 2.273 . S
Cd492 O500 2.277 . S
O493 C490 1.160 . S
O493 Cd494 2.203 . S
Cd494 O493 2.203 . S
Cd494 O496 2.411 . S
Cd494 O497 2.333 . S
Cd494 O498 2.352 . S
Cd494 O502 2.277 . S
Cd494 O503 2.356 . S
C495 O500 1.209 . S
C495 O502 1.226 . S
O496 Cd492 2.273 . S
O496 Cd494 2.411 . S
O496 C499 1.320 . S
O497 Cd494 2.333 . S
O497 C499 1.214 . S
O498 Cd494 2.352 . S
O498 C501 1.258 . S
C499 O496 1.320 . S
C499 O497 1.214 . S
O500 Cd492 2.277 . S
O500 C495 1.209 . S
C501 O498 1.258 . S
C501 O503 1.282 . S
O502 Cd494 2.277 . S
O502 C495 1.226 . S
O503 Cd494 2.356 . S
O503 C501 1.282 . S
C504 O505 1.306 . S
C504 O507 1.160 . S
O505 C504 1.306 . S
O505 Cd506 2.228 . S
Cd506 O505 2.228 . S
Cd506 O510 2.273 . S
Cd506 O514 2.277 . S
O507 C504 1.160 . S
O507 Cd508 2.203 . S
Cd508 O507 2.203 . S
Cd508 O510 2.411 . S
Cd508 O511 2.333 . S
Cd508 O512 2.352 . S
Cd508 O516 2.277 . S
Cd508 O517 2.356 . S
C509 O514 1.209 . S
C509 O516 1.226 . S
O510 Cd506 2.273 . S
O510 Cd508 2.411 . S
O510 C513 1.320 . S
O511 Cd508 2.333 . S
O511 C513 1.214 . S
O512 Cd508 2.352 . S
O512 C515 1.258 . S
C513 O510 1.320 . S
C513 O511 1.214 . S
O514 Cd506 2.277 . S
O514 C509 1.209 . S
C515 O512 1.258 . S
C515 O517 1.282 . S
O516 Cd508 2.277 . S
O516 C509 1.226 . S
O517 Cd508 2.356 . S
O517 C515 1.282 . S
C518 O519 1.306 . S
C518 O521 1.160 . S
O519 C518 1.306 . S
O519 Cd520 2.228 . S
Cd520 O519 2.228 . S
Cd520 O524 2.273 . S
Cd520 O528 2.277 . S
O521 C518 1.160 . S
O521 Cd522 2.203 . S
Cd522 O521 2.203 . S
Cd522 O524 2.411 . S
Cd522 O525 2.333 . S
Cd522 O526 2.352 . S
Cd522 O530 2.277 . S
Cd522 O531 2.356 . S
C523 O528 1.209 . S
C523 O530 1.226 . S
O524 Cd520 2.273 . S
O524 Cd522 2.411 . S
O524 C527 1.320 . S
O525 Cd522 2.333 . S
O525 C527 1.214 . S
O526 Cd522 2.352 . S
O526 C529 1.258 . S
C527 O524 1.320 . S
C527 O525 1.214 . S
O528 Cd520 2.277 . S
O528 C523 1.209 . S
C529 O526 1.258 . S
C529 O531 1.282 . S
O530 Cd522 2.277 . S
O530 C523 1.226 . S
O531 Cd522 2.356 . S
O531 C529 1.282 . S
C532 O533 1.306 . S
C532 O535 1.160 . S
O533 C532 1.306 . S
O533 Cd534 2.228 . S
Cd534 O533 2.228 . S
Cd534 O538 2.273 . S
Cd534 O542 2.277 . S
O535 C532 1.160 . S
O535 Cd536 2.203 . S
Cd536 O535 2.203 . S
Cd536 O538 2.411 . S
Cd536 O539 2.333 . S
Cd536 O540 2.352 . S
Cd536 O544 2.277 . S
Cd536 O545 2.356 . S
C537 O542 1.209 . S
C537 O544 1.226 . S
O538 Cd534 2.273 . S
O538 Cd536 2.411 . S
O538 C541 1.320 . S
O539 Cd536 2.333 . S
O539 C541 1.214 . S
O540 Cd536 2.352 . S
O540 C543 1.258 . S
C541 O538 1.320 . S
C541 O539 1.214 . S
O542 Cd534 2.277 . S
O542 C537 1.209 . S
C543 O540 1.258 . S
C543 O545 1.282 . S
O544 Cd536 2.277 . S
O544 C537 1.226 . S
O545 Cd536 2.356 . S
O545 C543 1.282 . S
C546 O547 1.306 . S
C546 O549 1.160 . S
O547 C546 1.306 . S
O547 Cd548 2.228 . S
Cd548 O547 2.228 . S
Cd548 O552 2.273 . S
Cd548 O556 2.277 . S
O549 C546 1.160 . S
O549 Cd550 2.203 . S
Cd550 O549 2.203 . S
Cd550 O552 2.411 . S
Cd550 O553 2.333 . S
Cd550 O554 2.352 . S
Cd550 O558 2.277 . S
Cd550 O559 2.356 . S
C551 O556 1.209 . S
C551 O558 1.226 . S
O552 Cd548 2.273 . S
O552 Cd550 2.411 . S
O552 C555 1.320 . S
O553 Cd550 2.333 . S
O553 C555 1.214 . S
O554 Cd550 2.352 . S
O554 C557 1.258 . S
C555 O552 1.320 . S
C555 O553 1.214 . S
O556 Cd548 2.277 . S
O556 C551 1.209 . S
C557 O554 1.258 . S
C557 O559 1.282 . S
O558 Cd550 2.277 . S
O558 C551 1.226 . S
O559 Cd550 2.356 . S
O559 C557 1.282 . S
C560 O561 1.306 . S
C560 O563 1.160 . S
O561 C560 1.306 . S
O561 Cd562 2.228 . S
Cd562 O561 2.228 . S
Cd562 O566 2.273 . S
Cd562 O570 2.277 . S
O563 C560 1.160 . S
O563 Cd564 2.203 . S
Cd564 O563 2.203 . S
Cd564 O566 2.411 . S
Cd564 O567 2.333 . S
Cd564 O568 2.352 . S
Cd564 O572 2.277 . S
Cd564 O573 2.356 . S
C565 O570 1.209 . S
C565 O572 1.226 . S
O566 Cd562 2.273 . S
O566 Cd564 2.411 . S
O566 C569 1.320 . S
O567 Cd564 2.333 . S
O567 C569 1.214 . S
O568 Cd564 2.352 . S
O568 C571 1.258 . S
C569 O566 1.320 . S
C569 O567 1.214 . S
O570 Cd562 2.277 . S
O570 C565 1.209 . S
C571 O568 1.258 . S
C571 O573 1.282 . S
O572 Cd564 2.277 . S
O572 C565 1.226 . S
O573 Cd564 2.356 . S
O573 C571 1.282 . S
C574 O575 1.306 . S
C574 O577 1.160 . S
O575 C574 1.306 . S
O575 Cd576 2.228 . S
Cd576 O575 2.228 . S
Cd576 O580 2.273 . S
Cd576 O584 2.277 . S
O577 C574 1.160 . S
O577 Cd578 2.203 . S
Cd578 O577 2.203 . S
Cd578 O580 2.411 . S
Cd578 O581 2.333 . S
Cd578 O582 2.352 . S
Cd578 O586 2.277 . S
Cd578 O587 2.356 . S
C579 O584 1.209 . S
C579 O586 1.226 . S
O580 Cd576 2.273 . S
O580 Cd578 2.411 . S
O580 C583 1.320 . S
O581 Cd578 2.333 . S
O581 C583 1.214 . S
O582 Cd578 2.352 . S
O582 C585 1.258 . S
C583 O580 1.320 . S
C583 O581 1.214 . S
O584 Cd576 2.277 . S
O584 C579 1.209 . S
C585 O582 1.258 . S
C585 O587 1.282 . S
O586 Cd578 2.277 . S
O586 C579 1.226 . S
O587 Cd578 2.356 . S
O587 C585 1.282 . S
C588 O589 1.306 . S
C588 O591 1.160 . S
O589 C588 1.306 . S
O589 Cd590 2.228 . S
Cd590 O589 2.228 . S
Cd590 O594 2.273 . S
Cd590 O598 2.277 . S
O591 C588 1.160 . S
O591 Cd592 2.203 . S
Cd592 O591 2.203 . S
Cd592 O594 2.411 . S
Cd592 O595 2.333 . S
Cd592 O596 2.352 . S
Cd592 O600 2.277 . S
Cd592 O601 2.356 . S
C593 O598 1.209 . S
C593 O600 1.226 . S
O594 Cd590 2.273 . S
O594 Cd592 2.411 . S
O594 C597 1.320 . S
O595 Cd592 2.333 . S
O595 C597 1.214 . S
O596 Cd592 2.352 . S
O596 C599 1.258 . S
C597 O594 1.320 . S
C597 O595 1.214 . S
O598 Cd590 2.277 . S
O598 C593 1.209 . S
C599 O596 1.258 . S
C599 O601 1.282 . S
O600 Cd592 2.277 . S
O600 C593 1.226 . S
O601 Cd592 2.356 . S
O601 C599 1.282 . S
C602 O603 1.306 . S
C602 O605 1.160 . S
O603 C602 1.306 . S
O603 Cd604 2.228 . S
Cd604 O603 2.228 . S
Cd604 O608 2.273 . S
Cd604 O612 2.277 . S
O605 C602 1.160 . S
O605 Cd606 2.203 . S
Cd606 O605 2.203 . S
Cd606 O608 2.411 . S
Cd606 O609 2.333 . S
Cd606 O610 2.352 . S
Cd606 O614 2.277 . S
Cd606 O615 2.356 . S
C607 O612 1.209 . S
C607 O614 1.226 . S
O608 Cd604 2.273 . S
O608 Cd606 2.411 . S
O608 C611 1.320 . S
O609 Cd606 2.333 . S
O609 C611 1.214 . S
O610 Cd606 2.352 . S
O610 C613 1.258 . S
C611 O608 1.320 . S
C611 O609 1.214 . S
O612 Cd604 2.277 . S
O612 C607 1.209 . S
C613 O610 1.258 . S
C613 O615 1.282 . S
O614 Cd606 2.277 . S
O614 C607 1.226 . S
O615 Cd606 2.356 . S
O615 C613 1.282 . S
C616 O617 1.306 . S
C616 O619 1.160 . S
O617 C616 1.306 . S
O617 Cd618 2.228 . S
Cd618 O617 2.228 . S
Cd618 O622 2.273 . S
Cd618 O626 2.277 . S
O619 C616 1.160 . S
O619 Cd620 2.203 . S
Cd620 O619 2.203 . S
Cd620 O622 2.411 . S
Cd620 O623 2.333 . S
Cd620 O624 2.352 . S
Cd620 O628 2.277 . S
Cd620 O629 2.356 . S
C621 O626 1.209 . S
C621 O628 1.226 . S
O622 Cd618 2.273 . S
O622 Cd620 2.411 . S
O622 C625 1.320 . S
O623 Cd620 2.333 . S
O623 C625 1.214 . S
O624 Cd620 2.352 . S
O624 C627 1.258 . S
C625 O622 1.320 . S
C625 O623 1.214 . S
O626 Cd618 2.277 . S
O626 C621 1.209 . S
C627 O624 1.258 . S
C627 O629 1.282 . S
O628 Cd620 2.277 . S
O628 C621 1.226 . S
O629 Cd620 2.356 . S
O629 C627 1.282 . S
C630 O631 1.306 . S
C630 O633 1.160 . S
O631 C630 1.306 . S
O631 Cd632 2.228 . S
Cd632 O631 2.228 . S
Cd632 O636 2.273 . S
Cd632 O640 2.277 . S
O633 C630 1.160 . S
O633 Cd634 2.203 . S
Cd634 O633 2.203 . S
Cd634 O636 2.411 . S
Cd634 O637 2.333 . S
Cd634 O638 2.352 . S
Cd634 O642 2.277 . S
Cd634 O643 2.356 . S
C635 O640 1.209 . S
C635 O642 1.226 . S
O636 Cd632 2.273 . S
O636 Cd634 2.411 . S
O636 C639 1.320 . S
O637 Cd634 2.333 . S
O637 C639 1.214 . S
O638 Cd634 2.352 . S
O638 C641 1.258 . S
C639 O636 1.320 . S
C639 O637 1.214 . S
O640 Cd632 2.277 . S
O640 C635 1.209 . S
C641 O638 1.258 . S
C641 O643 1.282 . S
O642 Cd634 2.277 . S
O642 C635 1.226 . S
O643 Cd634 2.356 . S
O643 C641 1.282 . S
C644 O645 1.306 . S
C644 O647 1.160 . S
O645 C644 1.306 . S
O645 Cd646 2.228 . S
Cd646 O645 2.228 . S
Cd646 O650 2.273 . S
Cd646 O654 2.277 . S
O647 C644 1.160 . S
O647 Cd648 2.203 . S
Cd648 O647 2.203 . S
Cd648 O650 2.411 . S
Cd648 O651 2.333 . S
Cd648 O652 2.352 . S
Cd648 O656 2.277 . S
Cd648 O657 2.356 . S
C649 O654 1.209 . S
C649 O656 1.226 . S
O650 Cd646 2.273 . S
O650 Cd648 2.411 . S
O650 C653 1.320 . S
O651 Cd648 2.333 . S
O651 C653 1.214 . S
O652 Cd648 2.352 . S
O652 C655 1.258 . S
C653 O650 1.320 . S
C653 O651 1.214 . S
O654 Cd646 2.277 . S
O654 C649 1.209 . S
C655 O652 1.258 . S
C655 O657 1.282 . S
O656 Cd648 2.277 . S
O656 C649 1.226 . S
O657 Cd648 2.356 . S
O657 C655 1.282 . S
C658 O659 1.306 . S
C658 O661 1.160 . S
O659 C658 1.306 . S
O659 Cd660 2.228 . S
Cd660 O659 2.228 . S
Cd660 O664 2.273 . S
Cd660 O668 2.277 . S
O661 C658 1.160 . S
O661 Cd662 2.203 . S
Cd662 O661 2.203 . S
Cd662 O664 2.411 . S
Cd662 O665 2.333 . S
Cd662 O666 2.352 . S
Cd662 O670 2.277 . S
Cd662 O671 2.356 . S
C663 O668 1.209 . S
C663 O670 1.226 . S
O664 Cd660 2.273 . S
O664 Cd662 2.411 . S
O664 C667 1.320 . S
O665 Cd662 2.333 . S
O665 C667 1.214 . S
O666 Cd662 2.352 . S
O666 C669 1.258 . S
C667 O664 1.320 . S
C667 O665 1.214 . S
O668 Cd660 2.277 . S
O668 C663 1.209 . S
C669 O666 1.258 . S
C669 O671 1.282 . S
O670 Cd662 2.277 . S
O670 C663 1.226 . S
O671 Cd662 2.356 . S
O671 C669 1.282 . S
C672 O673 1.306 . S
C672 O675 1.160 . S
O673 C672 1.306 . S
O673 Cd674 2.228 . S
Cd674 O673 2.228 . S
Cd674 O678 2.273 . S
Cd674 O682 2.277 . S
O675 C672 1.160 . S
O675 Cd676 2.203 . S
Cd676 O675 2.203 . S
Cd676 O678 2.411 . S
Cd676 O679 2.333 . S
Cd676 O680 2.352 . S
Cd676 O684 2.277 . S
Cd676 O685 2.356 . S
C677 O682 1.209 . S
C677 O684 1.226 . S
O678 Cd674 2.273 . S
O678 Cd676 2.411 . S
O678 C681 1.320 . S
O679 Cd676 2.333 . S
O679 C681 1.214 . S
O680 Cd676 2.352 . S
O680 C683 1.258 . S
C681 O678 1.320 . S
C681 O679 1.214 . S
O682 Cd674 2.277 . S
O682 C677 1.209 . S
C683 O680 1.258 . S
C683 O685 1.282 . S
O684 Cd676 2.277 . S
O684 C677 1.226 . S
O685 Cd676 2.356 . S
O685 C683 1.282 . S
C686 O687 1.306 . S
C686 O689 1.160 . S
O687 C686 1.306 . S
O687 Cd688 2.228 . S
Cd688 O687 2.228 . S
Cd688 O692 2.273 . S
Cd688 O696 2.277 . S
O689 C686 1.160 . S
O689 Cd690 2.203 . S
Cd690 O689 2.203 . S
Cd690 O692 2.411 . S
Cd690 O693 2.333 . S
Cd690 O694 2.352 . S
Cd690 O698 2.277 . S
Cd690 O699 2.356 . S
C691 O696 1.209 . S
C691 O698 1.226 . S
O692 Cd688 2.273 . S
O692 Cd690 2.411 . S
O692 C695 1.320 . S
O693 Cd690 2.333 . S
O693 C695 1.214 . S
O694 Cd690 2.352 . S
O694 C697 1.258 . S
C695 O692 1.320 . S
C695 O693 1.214 . S
O696 Cd688 2.277 . S
O696 C691 1.209 . S
C697 O694 1.258 . S
C697 O699 1.282 . S
O698 Cd690 2.277 . S
O698 C691 1.226 . S
O699 Cd690 2.356 . S
O699 C697 1.282 . S
C700 O701 1.306 . S
C700 O703 1.160 . S
O701 C700 1.306 . S
O701 Cd702 2.228 . S
Cd702 O701 2.228 . S
Cd702 O706 2.273 . S
Cd702 O710 2.277 . S
O703 C700 1.160 . S
O703 Cd704 2.203 . S
Cd704 O703 2.203 . S
Cd704 O706 2.411 . S
Cd704 O707 2.333 . S
Cd704 O708 2.352 . S
Cd704 O712 2.277 . S
Cd704 O713 2.356 . S
C705 O710 1.209 . S
C705 O712 1.226 . S
O706 Cd702 2.273 . S
O706 Cd704 2.411 . S
O706 C709 1.320 . S
O707 Cd704 2.333 . S
O707 C709 1.214 . S
O708 Cd704 2.352 . S
O708 C711 1.258 . S
C709 O706 1.320 . S
C709 O707 1.214 . S
O710 Cd702 2.277 . S
O710 C705 1.209 . S
C711 O708 1.258 . S
C711 O713 1.282 . S
O712 Cd704 2.277 . S
O712 C705 1.226 . S
O713 Cd704 2.356 . S
O713 C711 1.282 . S
C714 O715 1.306 . S
C714 O717 1.160 . S
O715 C714 1.306 . S
O715 Cd716 2.228 . S
Cd716 O715 2.228 . S
Cd716 O720 2.273 . S
Cd716 O724 2.277 . S
O717 C714 1.160 . S
O717 Cd718 2.203 . S
Cd718 O717 2.203 . S
Cd718 O720 2.411 . S
Cd718 O721 2.333 . S
Cd718 O722 2.352 . S
Cd718 O726 2.277 . S
Cd718 O727 2.356 . S
C719 O724 1.209 . S
C719 O726 1.226 . S
O720 Cd716 2.273 . S
O720 Cd718 2.411 . S
O720 C723 1.320 . S
O721 Cd718 2.333 . S
O721 C723 1.214 . S
O722 Cd718 2.352 . S
O722 C725 1.258 . S
C723 O720 1.320 . S
C723 O721 1.214 . S
O724 Cd716 2.277 . S
O724 C719 1.209 . S
C725 O722 1.258 . S
C725 O727 1.282 . S
O726 Cd718 2.277 . S
O726 C719 1.226 . S
O727 Cd718 2.356 . S
O727 C725 1.282 . S
C728 O729 1.306 . S
C728 O731 1.160 . S
O729 C728 1.306 . S
O729 Cd730 2.228 . S
Cd730 O729 2.228 . S
Cd730 O734 2.273 . S
Cd730 O738 2.277 . S
O731 C728 1.160 . S
O731 Cd732 2.203 . S
Cd732 O731 2.203 . S
Cd732 O734 2.411 . S
Cd732 O735 2.333 . S
Cd732 O736 2.352 . S
Cd732 O740 2.277 . S
Cd732 O741 2.356 . S
C733 O738 1.209 . S
C733 O740 1.226 . S
O734 Cd730 2.273 . S
O734 Cd732 2.411 . S
O734 C737 1.320 . S
O735 Cd732 2.333 . S
O735 C737 1.214 . S
O736 Cd732 2.352 . S
O736 C739 1.258 . S
C737 O734 1.320 . S
C737 O735 1.214 . S
O738 Cd730 2.277 . S
O738 C733 1.209 . S
C739 O736 1.258 . S
C739 O741 1.282 . S
O740 Cd732 2.277 . S
O740 C733 1.226 . S
O741 Cd732 2.356 . S
O741 C739 1.282 . S
C742 O743 1.306 . S
C742 O745 1.160 . S
O743 C742 1.306 . S
O743 Cd744 2.228 . S
Cd744 O743 2.228 . S
Cd744 O748 2.273 . S
Cd744 O752 2.277 . S
O745 C742 1.160 . S
O745 Cd746 2.203 . S
Cd746 O745 2.203 . S
Cd746 O748 2.411 . S
Cd746 O749 2.333 . S
Cd746 O750 2.352 . S
Cd746 O754 2.277 . S
Cd746 O755 2.356 . S
C747 O752 1.209 . S
C747 O754 1.226 . S
O748 Cd744 2.273 . S
O748 Cd746 2.411 . S
O748 C751 1.320 . S
O749 Cd746 2.333 . S
O749 C751 1.214 . S
O750 Cd746 2.352 . S
O750 C753 1.258 . S
C751 O748 1.320 . S
C751 O749 1.214 . S
O752 Cd744 2.277 . S
O752 C747 1.209 . S
C753 O750 1.258 . S
C753 O755 1.282 . S
O754 Cd746 2.277 . S
O754 C747 1.226 . S
O755 Cd746 2.356 . S
O755 C753 1.282 . S
C756 O757 1.306 . S
C756 O759 1.160 . S
O757 C756 1.306 . S
O757 Cd758 2.228 . S
Cd758 O757 2.228 . S
Cd758 O762 2.273 . S
Cd758 O766 2.277 . S
O759 C756 1.160 . S
O759 Cd760 2.203 . S
Cd760 O759 2.203 . S
Cd760 O762 2.411 . S
Cd760 O763 2.333 . S
Cd760 O764 2.352 . S
Cd760 O768 2.277 . S
Cd760 O769 2.356 . S
C761 O766 1.209 . S
C761 O768 1.226 . S
O762 Cd758 2.273 . S
O762 Cd760 2.411 . S
O762 C765 1.320 . S
O763 Cd760 2.333 . S
O763 C765 1.214 . S
O764 Cd760 2.352 . S
O764 C767 1.258 . S
C765 O762 1.320 . S
C765 O763 1.214 . S
O766 Cd758 2.277 . S
O766 C761 1.209 . S
C767 O764 1.258 . S
C767 O769 1.282 . S
O768 Cd760 2.277 . S
O768 C761 1.226 . S
O769 Cd760 2.356 . S
O769 C767 1.282 . S
C770 O771 1.306 . S
C770 O773 1.160 . S
O771 C770 1.306 . S
O771 Cd772 2.228 . S
Cd772 O771 2.228 . S
Cd772 O776 2.273 . S
Cd772 O780 2.277 . S
O773 C770 1.160 . S
O773 Cd774 2.203 . S
Cd774 O773 2.203 . S
Cd774 O776 2.411 . S
Cd774 O777 2.333 . S
Cd774 O778 2.352 . S
Cd774 O782 2.277 . S
Cd774 O783 2.356 . S
C775 O780 1.209 . S
C775 O782 1.226 . S
O776 Cd772 2.273 . S
O776 Cd774 2.411 . S
O776 C779 1.320 . S
O777 Cd774 2.333 . S
O777 C779 1.214 . S
O778 Cd774 2.352 . S
O778 C781 1.258 . S
C779 O776 1.320 . S
C779 O777 1.214 . S
O780 Cd772 2.277 . S
O780 C775 1.209 . S
C781 O778 1.258 . S
C781 O783 1.282 . S
O782 Cd774 2.277 . S
O782 C775 1.226 . S
O783 Cd774 2.356 . S
O783 C781 1.282 . S
C784 O785 1.306 . S
C784 O787 1.160 . S
O785 C784 1.306 . S
O785 Cd786 2.228 . S
Cd786 O785 2.228 . S
Cd786 O790 2.273 . S
Cd786 O794 2.277 . S
O787 C784 1.160 . S
O787 Cd788 2.203 . S
Cd788 O787 2.203 . S
Cd788 O790 2.411 . S
Cd788 O791 2.333 . S
Cd788 O792 2.352 . S
Cd788 O796 2.277 . S
Cd788 O797 2.356 . S
C789 O794 1.209 . S
C789 O796 1.226 . S
O790 Cd786 2.273 . S
O790 Cd788 2.411 . S
O790 C793 1.320 . S
O791 Cd788 2.333 . S
O791 C793 1.214 . S
O792 Cd788 2.352 . S
O792 C795 1.258 . S
C793 O790 1.320 . S
C793 O791 1.214 . S
O794 Cd786 2.277 . S
O794 C789 1.209 . S
C795 O792 1.258 . S
C795 O797 1.282 . S
O796 Cd788 2.277 . S
O796 C789 1.226 . S
O797 Cd788 2.356 . S
O797 C795 1.282 . S
C798 O799 1.306 . S
C798 O801 1.160 . S
O799 C798 1.306 . S
O799 Cd800 2.228 . S
Cd800 O799 2.228 . S
Cd800 O804 2.273 . S
Cd800 O808 2.277 . S
O801 C798 1.160 . S
O801 Cd802 2.203 . S
Cd802 O801 2.203 . S
Cd802 O804 2.411 . S
Cd802 O805 2.333 . S
Cd802 O806 2.352 . S
Cd802 O810 2.277 . S
Cd802 O811 2.356 . S
C803 O808 1.209 . S
C803 O810 1.226 . S
O804 Cd800 2.273 . S
O804 Cd802 2.411 . S
O804 C807 1.320 . S
O805 Cd802 2.333 . S
O805 C807 1.214 . S
O806 Cd802 2.352 . S
O806 C809 1.258 . S
C807 O804 1.320 . S
C807 O805 1.214 . S
O808 Cd800 2.277 . S
O808 C803 1.209 . S
C809 O806 1.258 . S
C809 O811 1.282 . S
O810 Cd802 2.277 . S
O810 C803 1.226 . S
O811 Cd802 2.356 . S
O811 C809 1.282 . S
C812 O813 1.306 . S
C812 O815 1.160 . S
O813 C812 1.306 . S
O813 Cd814 2.228 . S
Cd814 O813 2.228 . S
Cd814 O818 2.273 . S
Cd814 O822 2.277 . S
O815 C812 1.160 . S
O815 Cd816 2.203 . S
Cd816 O815 2.203 . S
Cd816 O818 2.411 . S
Cd816 O819 2.333 . S
Cd816 O820 2.352 . S
Cd816 O824 2.277 . S
Cd816 O825 2.356 . S
C817 O822 1.209 . S
C817 O824 1.226 . S
O818 Cd814 2.273 . S
O818 Cd816 2.411 . S
O818 C821 1.320 . S
O819 Cd816 2.333 . S
O819 C821 1.214 . S
O820 Cd816 2.352 . S
O820 C823 1.258 . S
C821 O818 1.320 . S
C821 O819 1.214 . S
O822 Cd814 2.277 . S
O822 C817 1.209 . S
C823 O820 1.258 . S
C823 O825 1.282 . S
O824 Cd816 2.277 . S
O824 C817 1.226 . S
O825 Cd816 2.356 . S
O825 C823 1.282 . S
C826 O827 1.306 . S
C826 O829 1.160 . S
O827 C826 1.306 . S
O827 Cd828 2.228 . S
Cd828 O827 2.228 . S
Cd828 O832 2.273 . S
Cd828 O836 2.277 . S
O829 C826 1.160 . S
O829 Cd830 2.203 . S
Cd830 O829 2.203 . S
Cd830 O832 2.411 . S
Cd830 O833 2.333 . S
Cd830 O834 2.352 . S
Cd830 O838 2.277 . S
Cd830 O839 2.356 . S
C831 O836 1.209 . S
C831 O838 1.226 . S
O832 Cd828 2.273 . S
O832 Cd830 2.411 . S
O832 C835 1.320 . S
O833 Cd830 2.333 . S
O833 C835 1.214 . S
O834 Cd830 2.352 . S
O834 C837 1.258 . S
C835 O832 1.320 . S
C835 O833 1.214 . S
O836 Cd828 2.277 . S
O836 C831 1.209 . S
C837 O834 1.258 . S
C837 O839 1.282 . S
O838 Cd830 2.277 . S
O838 C831 1.226 . S
O839 Cd830 2.356 . S
O839 C837 1.282 . S
C840 O841 1.306 . S
C840 O843 1.160 . S
O841 C840 1.306 . S
O841 Cd842 2.228 . S
Cd842 O841 2.228 . S
Cd842 O846 2.273 . S
Cd842 O850 2.277 . S
O843 C840 1.160 . S
O843 Cd844 2.203 . S
Cd844 O843 2.203 . S
Cd844 O846 2.411 . S
Cd844 O847 2.333 . S
Cd844 O848 2.352 . S
Cd844 O852 2.277 . S
Cd844 O853 2.356 . S
C845 O850 1.209 . S
C845 O852 1.226 . S
O846 Cd842 2.273 . S
O846 Cd844 2.411 . S
O846 C849 1.320 . S
O847 Cd844 2.333 . S
O847 C849 1.214 . S
O848 Cd844 2.352 . S
O848 C851 1.258 . S
C849 O846 1.320 . S
C849 O847 1.214 . S
O850 Cd842 2.277 . S
O850 C845 1.209 . S
C851 O848 1.258 . S
C851 O853 1.282 . S
O852 Cd844 2.277 . S
O852 C845 1.226 . S
O853 Cd844 2.356 . S
O853 C851 1.282 . S
C854 O855 1.306 . S
C854 O857 1.160 . S
O855 C854 1.306 . S
O855 Cd856 2.228 . S
Cd856 O855 2.228 . S
Cd856 O860 2.273 . S
Cd856 O864 2.277 . S
O857 C854 1.160 . S
O857 Cd858 2.203 . S
Cd858 O857 2.203 . S
Cd858 O860 2.411 . S
Cd858 O861 2.333 . S
Cd858 O862 2.352 . S
Cd858 O866 2.277 . S
Cd858 O867 2.356 . S
C859 O864 1.209 . S
C859 O866 1.226 . S
O860 Cd856 2.273 . S
O860 Cd858 2.411 . S
O860 C863 1.320 . S
O861 Cd858 2.333 . S
O861 C863 1.214 . S
O862 Cd858 2.352 . S
O862 C865 1.258 . S
C863 O860 1.320 . S
C863 O861 1.214 . S
O864 Cd856 2.277 . S
O864 C859 1.209 . S
C865 O862 1.258 . S
C865 O867 1.282 . S
O866 Cd858 2.277 . S
O866 C859 1.226 . S
O867 Cd858 2.356 . S
O867 C865 1.282 . S
C868 O869 1.306 . S
C868 O871 1.160 . S
O869 C868 1.306 . S
O869 Cd870 2.228 . S
Cd870 O869 2.228 . S
Cd870 O874 2.273 . S
Cd870 O878 2.277 . S
O871 C868 1.160 . S
O871 Cd872 2.203 . S
Cd872 O871 2.203 . S
Cd872 O874 2.411 . S
Cd872 O875 2.333 . S
Cd872 O876 2.352 . S
Cd872 O880 2.277 . S
Cd872 O881 2.356 . S
C873 O878 1.209 . S
C873 O880 1.226 . S
O874 Cd870 2.273 . S
O874 Cd872 2.411 . S
O874 C877 1.320 . S
O875 Cd872 2.333 . S
O875 C877 1.214 . S
O876 Cd872 2.352 . S
O876 C879 1.258 . S
C877 O874 1.320 . S
C877 O875 1.214 . S
O878 Cd870 2.277 . S
O878 C873 1.209 . S
C879 O876 1.258 . S
C879 O881 1.282 . S
O880 Cd872 2.277 . S
O880 C873 1.226 . S
O881 Cd872 2.356 . S
O881 C879 1.282 . S
C882 O883 1.306 . S
C882 O885 1.160 . S
O883 C882 1.306 . S
O883 Cd884 2.228 . S
Cd884 O883 2.228 . S
Cd884 O888 2.273 . S
Cd884 O892 2.277 . S
O885 C882 1.160 . S
O885 Cd886 2.203 . S
Cd886 O885 2.203 . S
Cd886 O888 2.411 . S
Cd886 O889 2.333 . S
Cd886 O890 2.352 . S
Cd886 O894 2.277 . S
Cd886 O895 2.356 . S
C887 O892 1.209 . S
C887 O894 1.226 . S
O888 Cd884 2.273 . S
O888 Cd886 2.411 . S
O888 C891 1.320 . S
O889 Cd886 2.333 . S
O889 C891 1.214 . S
O890 Cd886 2.352 . S
O890 C893 1.258 . S
C891 O888 1.320 . S
C891 O889 1.214 . S
O892 Cd884 2.277 . S
O892 C887 1.209 . S
C893 O890 1.258 . S
C893 O895 1.282 . S
O894 Cd886 2.277 . S
O894 C887 1.226 . S
O895 Cd886 2.356 . S
O895 C893 1.282 . S
C896 O897 1.306 . S
C896 O899 1.160 . S
O897 C896 1.306 . S
O897 Cd898 2.228 . S
Cd898 O897 2.228 . S
Cd898 O902 2.273 . S
Cd898 O906 2.277 . S
O899 C896 1.160 . S
O899 Cd900 2.203 . S
Cd900 O899 2.203 . S
Cd900 O902 2.411 . S
Cd900 O903 2.333 . S
Cd900 O904 2.352 . S
Cd900 O908 2.277 . S
Cd900 O909 2.356 . S
C901 O906 1.209 . S
C901 O908 1.226 . S
O902 Cd898 2.273 . S
O902 Cd900 2.411 . S
O902 C905 1.320 . S
O903 Cd900 2.333 . S
O903 C905 1.214 . S
O904 Cd900 2.352 . S
O904 C907 1.258 . S
C905 O902 1.320 . S
C905 O903 1.214 . S
O906 Cd898 2.277 . S
O906 C901 1.209 . S
C907 O904 1.258 . S
C907 O909 1.282 . S
O908 Cd900 2.277 . S
O908 C901 1.226 . S
O909 Cd900 2.356 . S
O909 C907 1.282 . S
C910 O911 1.306 . S
C910 O913 1.160 . S
O911 C910 1.306 . S
O911 Cd912 2.228 . S
Cd912 O911 2.228 . S
Cd912 O916 2.273 . S
Cd912 O920 2.277 . S
O913 C910 1.160 . S
O913 Cd914 2.203 . S
Cd914 O913 2.203 . S
Cd914 O916 2.411 . S
Cd914 O917 2.333 . S
Cd914 O918 2.352 . S
Cd914 O922 2.277 . S
Cd914 O923 2.356 . S
C915 O920 1.209 . S
C915 O922 1.226 . S
O916 Cd912 2.273 . S
O916 Cd914 2.411 . S
O916 C919 1.320 . S
O917 Cd914 2.333 . S
O917 C919 1.214 . S
O918 Cd914 2.352 . S
O918 C921 1.258 . S
C919 O916 1.320 . S
C919 O917 1.214 . S
O920 Cd912 2.277 . S
O920 C915 1.209 . S
C921 O918 1.258 . S
C921 O923 1.282 . S
O922 Cd914 2.277 . S
O922 C915 1.226 . S
O923 Cd914 2.356 . S
O923 C921 1.282 . S
C924 O925 1.306 . S
C924 O927 1.160 . S
O925 C924 1.306 . S
O925 Cd926 2.228 . S
Cd926 O925 2.228 . S
Cd926 O930 2.273 . S
Cd926 O934 2.277 . S
O927 C924 1.160 . S
O927 Cd928 2.203 . S
Cd928 O927 2.203 . S
Cd928 O930 2.411 . S
Cd928 O931 2.333 . S
Cd928 O932 2.352 . S
Cd928 O936 2.277 . S
Cd928 O937 2.356 . S
C929 O934 1.209 . S
C929 O936 1.226 . S
O930 Cd926 2.273 . S
O930 Cd928 2.411 . S
O930 C933 1.320 . S
O931 Cd928 2.333 . S
O931 C933 1.214 . S
O932 Cd928 2.352 . S
O932 C935 1.258 . S
C933 O930 1.320 . S
C933 O931 1.214 . S
O934 Cd926 2.277 . S
O934 C929 1.209 . S
C935 O932 1.258 . S
C935 O937 1.282 . S
O936 Cd928 2.277 . S
O936 C929 1.226 . S
O937 Cd928 2.356 . S
O937 C935 1.282 . S
C938 O939 1.306 . S
C938 O941 1.160 . S
O939 C938 1.306 . S
O939 Cd940 2.228 . S
Cd940 O939 2.228 . S
Cd940 O944 2.273 . S
Cd940 O948 2.277 . S
O941 C938 1.160 . S
O941 Cd942 2.203 . S
Cd942 O941 2.203 . S
Cd942 O944 2.411 . S
Cd942 O945 2.333 . S
Cd942 O946 2.352 . S
Cd942 O950 2.277 . S
Cd942 O951 2.356 . S
C943 O948 1.209 . S
C943 O950 1.226 . S
O944 Cd940 2.273 . S
O944 Cd942 2.411 . S
O944 C947 1.320 . S
O945 Cd942 2.333 . S
O945 C947 1.214 . S
O946 Cd942 2.352 . S
O946 C949 1.258 . S
C947 O944 1.320 . S
C947 O945 1.214 . S
O948 Cd940 2.277 . S
O948 C943 1.209 . S
C949 O946 1.258 . S
C949 O951 1.282 . S
O950 Cd942 2.277 . S
O950 C943 1.226 . S
O951 Cd942 2.356 . S
O951 C949 1.282 . S
C952 O953 1.306 . S
C952 O955 1.160 . S
O953 C952 1.306 . S
O953 Cd954 2.228 . S
Cd954 O953 2.228 . S
Cd954 O958 2.273 . S
Cd954 O962 2.277 . S
O955 C952 1.160 . S
O955 Cd956 2.203 . S
Cd956 O955 2.203 . S
Cd956 O958 2.411 . S
Cd956 O959 2.333 . S
Cd956 O960 2.352 . S
Cd956 O964 2.277 . S
Cd956 O965 2.356 . S
C957 O962 1.209 . S
C957 O964 1.226 . S
O958 Cd954 2.273 . S
O958 Cd956 2.411 . S
O958 C961 1.320 . S
O959 Cd956 2.333 . S
O959 C961 1.214 . S
O960 Cd956 2.352 . S
O960 C963 1.258 . S
C961 O958 1.320 . S
C961 O959 1.214 . S
O962 Cd954 2.277 . S
O962 C957 1.209 . S
C963 O960 1.258 . S
C963 O965 1.282 . S
O964 Cd956 2.277 . S
O964 C957 1.226 . S
O965 Cd956 2.356 . S
O965 C963 1.282 . S
C966 O967 1.306 . S
C966 O969 1.160 . S
O967 C966 1.306 . S
O967 Cd968 2.228 . S
Cd968 O967 2.228 . S
Cd968 O972 2.273 . S
Cd968 O976 2.277 . S
O969 C966 1.160 . S
O969 Cd970 2.203 . S
Cd970 O969 2.203 . S
Cd970 O972 2.411 . S
Cd970 O973 2.333 . S
Cd970 O974 2.352 . S
Cd970 O978 2.277 . S
Cd970 O979 2.356 . S
C971 O976 1.209 . S
C971 O978 1.226 . S
O972 Cd968 2.273 . S
O972 Cd970 2.411 . S
O972 C975 1.320 . S
O973 Cd970 2.333 . S
O973 C975 1.214 . S
O974 Cd970 2.352 . S
O974 C977 1.258 . S
C975 O972 1.320 . S
C975 O973 1.214 . S
O976 Cd968 2.277 . S
O976 C971 1.209 . S
C977 O974 1.258 . S
C977 O979 1.282 . S
O978 Cd970 2.277 . S
O978 C971 1.226 . S
O979 Cd970 2.356 . S
O979 C977 1.282 . S
C980 O981 1.306 . S
C980 O983 1.160 . S
O981 C980 1.306 . S
O981 Cd982 2.228 . S
Cd982 O981 2.228 . S
Cd982 O986 2.273 . S
Cd982 O990 2.277 . S
O983 C980 1.160 . S
O983 Cd984 2.203 . S
Cd984 O983 2.203 . S
Cd984 O986 2.411 . S
Cd984 O987 2.333 . S
Cd984 O988 2.352 . S
Cd984 O992 2.277 . S
Cd984 O993 2.356 . S
C985 O990 1.209 . S
C985 O992 1.226 . S
O986 Cd982 2.273 . S
O986 Cd984 2.411 . S
O986 C989 1.320 . S
O987 Cd984 2.333 . S
O987 C989 1.214 . S
O988 Cd984 2.352 . S
O988 C991 1.258 . S
C989 O986 1.320 . S
C989 O987 1.214 . S
O990 Cd982 2.277 . S
O990 C985 1.209 . S
C991 O988 1.258 . S
C991 O993 1.282 . S
O992 Cd984 2.277 . S
O992 C985 1.226 . S
O993 Cd984 2.356 . S
O993 C991 1.282 . S
C994 O995 1.306 . S
C994 O997 1.160 . S
O995 C994 1.306 . S
O995 Cd996 2.228 . S
Cd996 O995 2.228 . S
Cd996 O1000 2.273 . S
Cd996 O1004 2.277 . S
O997 C994 1.160 . S
O997 Cd998 2.203 . S
Cd998 O997 2.203 . S
Cd998 O1000 2.411 . S
Cd998 O1001 2.333 . S
Cd998 O1002 2.352 . S
Cd998 O1006 2.277 . S
Cd998 O1007 2.356 . S
C999 O1004 1.209 . S
C999 O1006 1.226 . S
O1000 Cd996 2.273 . S
O1000 Cd998 2.411 . S
O1000 C1003 1.320 . S
O1001 Cd998 2.333 . S
O1001 C1003 1.214 . S
O1002 Cd998 2.352 . S
O1002 C1005 1.258 . S
C1003 O1000 1.320 . S
C1003 O1001 1.214 . S
O1004 Cd996 2.277 . S
O1004 C999 1.209 . S
C1005 O1002 1.258 . S
C1005 O1007 1.282 . S
O1006 Cd998 2.277 . S
O1006 C999 1.226 . S
O1007 Cd998 2.356 . S
O1007 C1005 1.282 . S
C1008 O1009 1.306 . S
C1008 O1011 1.160 . S
O1009 C1008 1.306 . S
O1009 Cd1010 2.228 . S
Cd1010 O1009 2.228 . S
Cd1010 O1014 2.273 . S
Cd1010 O1018 2.277 . S
O1011 C1008 1.160 . S
O1011 Cd1012 2.203 . S
Cd1012 O1011 2.203 . S
Cd1012 O1014 2.411 . S
Cd1012 O1015 2.333 . S
Cd1012 O1016 2.352 . S
Cd1012 O1020 2.277 . S
Cd1012 O1021 2.356 . S
C1013 O1018 1.209 . S
C1013 O1020 1.226 . S
O1014 Cd1010 2.273 . S
O1014 Cd1012 2.411 . S
O1014 C1017 1.320 . S
O1015 Cd1012 2.333 . S
O1015 C1017 1.214 . S
O1016 Cd1012 2.352 . S
O1016 C1019 1.258 . S
C1017 O1014 1.320 . S
C1017 O1015 1.214 . S
O1018 Cd1010 2.277 . S
O1018 C1013 1.209 . S
C1019 O1016 1.258 . S
C1019 O1021 1.282 . S
O1020 Cd1012 2.277 . S
O1020 C1013 1.226 . S
O1021 Cd1012 2.356 . S
O1021 C1019 1.282 . S
C1022 O1023 1.306 . S
C1022 O1025 1.160 . S
O1023 C1022 1.306 . S
O1023 Cd1024 2.228 . S
Cd1024 O1023 2.228 . S
Cd1024 O1028 2.273 . S
Cd1024 O1032 2.277 . S
O1025 C1022 1.160 . S
O1025 Cd1026 2.203 . S
Cd1026 O1025 2.203 . S
Cd1026 O1028 2.411 . S
Cd1026 O1029 2.333 . S
Cd1026 O1030 2.352 . S
Cd1026 O1034 2.277 . S
Cd1026 O1035 2.356 . S
C1027 O1032 1.209 . S
C1027 O1034 1.226 . S
O1028 Cd1024 2.273 . S
O1028 Cd1026 2.411 . S
O1028 C1031 1.320 . S
O1029 Cd1026 2.333 . S
O1029 C1031 1.214 . S
O1030 Cd1026 2.352 . S
O1030 C1033 1.258 . S
C1031 O1028 1.320 . S
C1031 O1029 1.214 . S
O1032 Cd1024 2.277 . S
O1032 C1027 1.209 . S
C1033 O1030 1.258 . S
C1033 O1035 1.282 . S
O1034 Cd1026 2.277 . S
O1034 C1027 1.226 . S
O1035 Cd1026 2.356 . S
O1035 C1033 1.282 . S
C1036 O1037 1.306 . S
C1036 O1039 1.160 . S
O1037 C1036 1.306 . S
O1037 Cd1038 2.228 . S
Cd1038 O1037 2.228 . S
Cd1038 O1042 2.273 . S
Cd1038 O1046 2.277 . S
O1039 C1036 1.160 . S
O1039 Cd1040 2.203 . S
Cd1040 O1039 2.203 . S
Cd1040 O1042 2.411 . S
Cd1040 O1043 2.333 . S
Cd1040 O1044 2.352 . S
Cd1040 O1048 2.277 . S
Cd1040 O1049 2.356 . S
C1041 O1046 1.209 . S
C1041 O1048 1.226 . S
O1042 Cd1038 2.273 . S
O1042 Cd1040 2.411 . S
O1042 C1045 1.320 . S
O1043 Cd1040 2.333 . S
O1043 C1045 1.214 . S
O1044 Cd1040 2.352 . S
O1044 C1047 1.258 . S
C1045 O1042 1.320 . S
C1045 O1043 1.214 . S
O1046 Cd1038 2.277 . S
O1046 C1041 1.209 . S
C1047 O1044 1.258 . S
C1047 O1049 1.282 . S
O1048 Cd1040 2.277 . S
O1048 C1041 1.226 . S
O1049 Cd1040 2.356 . S
O1049 C1047 1.282 . S
C1050 O1051 1.306 . S
C1050 O1053 1.160 . S
O1051 C1050 1.306 . S
O1051 Cd1052 2.228 . S
Cd1052 O1051 2.228 . S
Cd1052 O1056 2.273 . S
Cd1052 O1060 2.277 . S
O1053 C1050 1.160 . S
O1053 Cd1054 2.203 . S
Cd1054 O1053 2.203 . S
Cd1054 O1056 2.411 . S
Cd1054 O1057 2.333 . S
Cd1054 O1058 2.352 . S
Cd1054 O1062 2.277 . S
Cd1054 O1063 2.356 . S
C1055 O1060 1.209 . S
C1055 O1062 1.226 . S
O1056 Cd1052 2.273 . S
O1056 Cd1054 2.411 . S
O1056 C1059 1.320 . S
O1057 Cd1054 2.333 . S
O1057 C1059 1.214 . S
O1058 Cd1054 2.352 . S
O1058 C1061 1.258 . S
C1059 O1056 1.320 . S
C1059 O1057 1.214 . S
O1060 Cd1052 2.277 . S
O1060 C1055 1.209 . S
C1061 O1058 1.258 . S
C1061 O1063 1.282 . S
O1062 Cd1054 2.277 . S
O1062 C1055 1.226 . S
O1063 Cd1054 2.356 . S
O1063 C1061 1.282 . S
C1064 O1065 1.306 . S
C1064 O1067 1.160 . S
O1065 C1064 1.306 . S
O1065 Cd1066 2.228 . S
Cd1066 O1065 2.228 . S
Cd1066 O1070 2.273 . S
Cd1066 O1074 2.277 . S
O1067 C1064 1.160 . S
O1067 Cd1068 2.203 . S
Cd1068 O1067 2.203 . S
Cd1068 O1070 2.411 . S
Cd1068 O1071 2.333 . S
Cd1068 O1072 2.352 . S
Cd1068 O1076 2.277 . S
Cd1068 O1077 2.356 . S
C1069 O1074 1.209 . S
C1069 O1076 1.226 . S
O1070 Cd1066 2.273 . S
O1070 Cd1068 2.411 . S
O1070 C1073 1.320 . S
O1071 Cd1068 2.333 . S
O1071 C1073 1.214 . S
O1072 Cd1068 2.352 . S
O1072 C1075 1.258 . S
C1073 O1070 1.320 . S
C1073 O1071 1.214 . S
O1074 Cd1066 2.277 . S
O1074 C1069 1.209 . S
C1075 O1072 1.258 . S
C1075 O1077 1.282 . S
O1076 Cd1068 2.277 . S
O1076 C1069 1.226 . S
O1077 Cd1068 2.356 . S
O1077 C1075 1.282 . S
C1078 O1079 1.306 . S
C1078 O1081 1.160 . S
O1079 C1078 1.306 . S
O1079 Cd1080 2.228 . S
Cd1080 O1079 2.228 . S
Cd1080 O1084 2.273 . S
Cd1080 O1088 2.277 . S
O1081 C1078 1.160 . S
O1081 Cd1082 2.203 . S
Cd1082 O1081 2.203 . S
Cd1082 O1084 2.411 . S
Cd1082 O1085 2.333 . S
Cd1082 O1086 2.352 . S
Cd1082 O1090 2.277 . S
Cd1082 O1091 2.356 . S
C1083 O1088 1.209 . S
C1083 O1090 1.226 . S
O1084 Cd1080 2.273 . S
O1084 Cd1082 2.411 . S
O1084 C1087 1.320 . S
O1085 Cd1082 2.333 . S
O1085 C1087 1.214 . S
O1086 Cd1082 2.352 . S
O1086 C1089 1.258 . S
C1087 O1084 1.320 . S
C1087 O1085 1.214 . S
O1088 Cd1080 2.277 . S
O1088 C1083 1.209 . S
C1089 O1086 1.258 . S
C1089 O1091 1.282 . S
O1090 Cd1082 2.277 . S
O1090 C1083 1.226 . S
O1091 Cd1082 2.356 . S
O1091 C1089 1.282 . S
C1092 O1093 1.306 . S
C1092 O1095 1.160 . S
O1093 C1092 1.306 . S
O1093 Cd1094 2.228 . S
Cd1094 O1093 2.228 . S
Cd1094 O1098 2.273 . S
Cd1094 O1102 2.277 . S
O1095 C1092 1.160 . S
O1095 Cd1096 2.203 . S
Cd1096 O1095 2.203 . S
Cd1096 O1098 2.411 . S
Cd1096 O1099 2.333 . S
Cd1096 O1100 2.352 . S
Cd1096 O1104 2.277 . S
Cd1096 O1105 2.356 . S
C1097 O1102 1.209 . S
C1097 O1104 1.226 . S
O1098 Cd1094 2.273 . S
O1098 Cd1096 2.411 . S
O1098 C1101 1.320 . S
O1099 Cd1096 2.333 . S
O1099 C1101 1.214 . S
O1100 Cd1096 2.352 . S
O1100 C1103 1.258 . S
C1101 O1098 1.320 . S
C1101 O1099 1.214 . S
O1102 Cd1094 2.277 . S
O1102 C1097 1.209 . S
C1103 O1100 1.258 . S
C1103 O1105 1.282 . S
O1104 Cd1096 2.277 . S
O1104 C1097 1.226 . S
O1105 Cd1096 2.356 . S
O1105 C1103 1.282 . S
C1106 O1107 1.306 . S
C1106 O1109 1.160 . S
O1107 C1106 1.306 . S
O1107 Cd1108 2.228 . S
Cd1108 O1107 2.228 . S
Cd1108 O1112 2.273 . S
Cd1108 O1116 2.277 . S
O1109 C1106 1.160 . S
O1109 Cd1110 2.203 . S
Cd1110 O1109 2.203 . S
Cd1110 O1112 2.411 . S
Cd1110 O1113 2.333 . S
Cd1110 O1114 2.352 . S
Cd1110 O1118 2.277 . S
Cd1110 O1119 2.356 . S
C1111 O1116 1.209 . S
C1111 O1118 1.226 . S
O1112 Cd1108 2.273 . S
O1112 Cd1110 2.411 . S
O1112 C1115 1.320 . S
O1113 Cd1110 2.333 . S
O1113 C1115 1.214 . S
O1114 Cd1110 2.352 . S
O1114 C1117 1.258 . S
C1115 O1112 1.320 . S
C1115 O1113 1.214 . S
O1116 Cd1108 2.277 . S
O1116 C1111 1.209 . S
C1117 O1114 1.258 . S
C1117 O1119 1.282 . S
O1118 Cd1110 2.277 . S
O1118 C1111 1.226 . S
O1119 Cd1110 2.356 . S
O1119 C1117 1.282 . S
C1120 O1121 1.306 . S
C1120 O1123 1.160 . S
O1121 C1120 1.306 . S
O1121 Cd1122 2.228 . S
Cd1122 O1121 2.228 . S
Cd1122 O1126 2.273 . S
Cd1122 O1130 2.277 . S
O1123 C1120 1.160 . S
O1123 Cd1124 2.203 . S
Cd1124 O1123 2.203 . S
Cd1124 O1126 2.411 . S
Cd1124 O1127 2.333 . S
Cd1124 O1128 2.352 . S
Cd1124 O1132 2.277 . S
Cd1124 O1133 2.356 . S
C1125 O1130 1.209 . S
C1125 O1132 1.226 . S
O1126 Cd1122 2.273 . S
O1126 Cd1124 2.411 . S
O1126 C1129 1.320 . S
O1127 Cd1124 2.333 . S
O1127 C1129 1.214 . S
O1128 Cd1124 2.352 . S
O1128 C1131 1.258 . S
C1129 O1126 1.320 . S
C1129 O1127 1.214 . S
O1130 Cd1122 2.277 . S
O1130 C1125 1.209 . S
C1131 O1128 1.258 . S
C1131 O1133 1.282 . S
O1132 Cd1124 2.277 . S
O1132 C1125 1.226 . S
O1133 Cd1124 2.356 . S
O1133 C1131 1.282 . S
C1134 O1135 1.306 . S
C1134 O1137 1.160 . S
O1135 C1134 1.306 . S
O1135 Cd1136 2.228 . S
Cd1136 O1135 2.228 . S
Cd1136 O1140 2.273 . S
Cd1136 O1144 2.277 . S
O1137 C1134 1.160 . S
O1137 Cd1138 2.203 . S
Cd1138 O1137 2.203 . S
Cd1138 O1140 2.411 . S
Cd1138 O1141 2.333 . S
Cd1138 O1142 2.352 . S
Cd1138 O1146 2.277 . S
Cd1138 O1147 2.356 . S
C1139 O1144 1.209 . S
C1139 O1146 1.226 . S
O1140 Cd1136 2.273 . S
O1140 Cd1138 2.411 . S
O1140 C1143 1.320 . S
O1141 Cd1138 2.333 . S
O1141 C1143 1.214 . S
O1142 Cd1138 2.352 . S
O1142 C1145 1.258 . S
C1143 O1140 1.320 . S
C1143 O1141 1.214 . S
O1144 Cd1136 2.277 . S
O1144 C1139 1.209 . S
C1145 O1142 1.258 . S
C1145 O1147 1.282 . S
O1146 Cd1138 2.277 . S
O1146 C1139 1.226 . S
O1147 Cd1138 2.356 . S
O1147 C1145 1.282 . S
C1148 O1149 1.306 . S
C1148 O1151 1.160 . S
O1149 C1148 1.306 . S
O1149 Cd1150 2.228 . S
Cd1150 O1149 2.228 . S
Cd1150 O1154 2.273 . S
Cd1150 O1158 2.277 . S
O1151 C1148 1.160 . S
O1151 Cd1152 2.203 . S
Cd1152 O1151 2.203 . S
Cd1152 O1154 2.411 . S
Cd1152 O1155 2.333 . S
Cd1152 O1156 2.352 . S
Cd1152 O1160 2.277 . S
Cd1152 O1161 2.356 . S
C1153 O1158 1.209 . S
C1153 O1160 1.226 . S
O1154 Cd1150 2.273 . S
O1154 Cd1152 2.411 . S
O1154 C1157 1.320 . S
O1155 Cd1152 2.333 . S
O1155 C1157 1.214 . S
O1156 Cd1152 2.352 . S
O1156 C1159 1.258 . S
C1157 O1154 1.320 . S
C1157 O1155 1.214 . S
O1158 Cd1150 2.277 . S
O1158 C1153 1.209 . S
C1159 O1156 1.258 . S
C1159 O1161 1.282 . S
O1160 Cd1152 2.277 . S
O1160 C1153 1.226 . S
O1161 Cd1152 2.356 . S
O1161 C1159 1.282 . S
C1162 O1163 1.306 . S
C1162 O1165 1.160 . S
O1163 C1162 1.306 . S
O1163 Cd1164 2.228 . S
Cd1164 O1163 2.228 . S
Cd1164 O1168 2.273 . S
Cd1164 O1172 2.277 . S
O1165 C1162 1.160 . S
O1165 Cd1166 2.203 . S
Cd1166 O1165 2.203 . S
Cd1166 O1168 2.411 . S
Cd1166 O1169 2.333 . S
Cd1166 O1170 2.352 . S
Cd1166 O1174 2.277 . S
Cd1166 O1175 2.356 . S
C1167 O1172 1.209 . S
C1167 O1174 1.226 . S
O1168 Cd1164 2.273 . S
O1168 Cd1166 2.411 . S
O1168 C1171 1.320 . S
O1169 Cd1166 2.333 . S
O1169 C1171 1.214 . S
O1170 Cd1166 2.352 . S
O1170 C1173 1.258 . S
C1171 O1168 1.320 . S
C1171 O1169 1.214 . S
O1172 Cd1164 2.277 . S
O1172 C1167 1.209 . S
C1173 O1170 1.258 . S
C1173 O1175 1.282 . S
O1174 Cd1166 2.277 . S
O1174 C1167 1.226 . S
O1175 Cd1166 2.356 . S
O1175 C1173 1.282 . S
C1176 O1177 1.306 . S
C1176 O1179 1.160 . S
O1177 C1176 1.306 . S
O1177 Cd1178 2.228 . S
Cd1178 O1177 2.228 . S
Cd1178 O1182 2.273 . S
Cd1178 O1186 2.277 . S
O1179 C1176 1.160 . S
O1179 Cd1180 2.203 . S
Cd1180 O1179 2.203 . S
Cd1180 O1182 2.411 . S
Cd1180 O1183 2.333 . S
Cd1180 O1184 2.352 . S
Cd1180 O1188 2.277 . S
Cd1180 O1189 2.356 . S
C1181 O1186 1.209 . S
C1181 O1188 1.226 . S
O1182 Cd1178 2.273 . S
O1182 Cd1180 2.411 . S
O1182 C1185 1.320 . S
O1183 Cd1180 2.333 . S
O1183 C1185 1.214 . S
O1184 Cd1180 2.352 . S
O1184 C1187 1.258 . S
C1185 O1182 1.320 . S
C1185 O1183 1.214 . S
O1186 Cd1178 2.277 . S
O1186 C1181 1.209 . S
C1187 O1184 1.258 . S
C1187 O1189 1.282 . S
O1188 Cd1180 2.277 . S
O1188 C1181 1.226 . S
O1189 Cd1180 2.356 . S
O1189 C1187 1.282 . S
C1190 O1191 1.306 . S
C1190 O1193 1.160 . S
O1191 C1190 1.306 . S
O1191 Cd1192 2.228 . S
Cd1192 O1191 2.228 . S
Cd1192 O1196 2.273 . S
Cd1192 O1200 2.277 . S
O1193 C1190 1.160 . S
O1193 Cd1194 2.203 . S
Cd1194 O1193 2.203 . S
Cd1194 O1196 2.411 . S
Cd1194 O1197 2.333 . S
Cd1194 O1198 2.352 . S
Cd1194 O1202 2.277 . S
Cd1194 O1203 2.356 . S
C1195 O1200 1.209 . S
C1195 O1202 1.226 . S
O1196 Cd1192 2.273 . S
O1196 Cd1194 2.411 . S
O1196 C1199 1.320 . S
O1197 Cd1194 2.333 . S
O1197 C1199 1.214 . S
O1198 Cd1194 2.352 . S
O1198 C1201 1.258 . S
C1199 O1196 1.320 . S
C1199 O1197 1.214 . S
O1200 Cd1192 2.277 . S
O1200 C1195 1.209 . S
C1201 O1198 1.258 . S
C1201 O1203 1.282 . S
O1202 Cd1194 2.277 . S
O1202 C1195 1.226 . S
O1203 Cd1194 2.356 . S
O1203 C1201 1.282 . S
C1204 O1205 1.306 . S
C1204 O1207 1.160 . S
O1205 C1204 1.306 . S
O1205 Cd1206 2.228 . S
Cd1206 O1205 2.228 . S
Cd1206 O1210 2.273 . S
Cd1206 O1214 2.277 . S
O1207 C1204 1.160 . S
O1207 Cd1208 2.203 . S
Cd1208 O1207 2.203 . S
Cd1208 O1210 2.411 . S
Cd1208 O1211 2.333 . S
Cd1208 O1212 2.352 . S
Cd1208 O1216 2.277 . S
Cd1208 O1217 2.356 . S
C1209 O1214 1.209 . S
C1209 O1216 1.226 . S
O1210 Cd1206 2.273 . S
O1210 Cd1208 2.411 . S
O1210 C1213 1.320 . S
O1211 Cd1208 2.333 . S
O1211 C1213 1.214 . S
O1212 Cd1208 2.352 . S
O1212 C1215 1.258 . S
C1213 O1210 1.320 . S
C1213 O1211 1.214 . S
O1214 Cd1206 2.277 . S
O1214 C1209 1.209 . S
C1215 O1212 1.258 . S
C1215 O1217 1.282 . S
O1216 Cd1208 2.277 . S
O1216 C1209 1.226 . S
O1217 Cd1208 2.356 . S
O1217 C1215 1.282 . S
C1218 O1219 1.306 . S
C1218 O1221 1.160 . S
O1219 C1218 1.306 . S
O1219 Cd1220 2.228 . S
Cd1220 O1219 2.228 . S
Cd1220 O1224 2.273 . S
Cd1220 O1228 2.277 . S
O1221 C1218 1.160 . S
O1221 Cd1222 2.203 . S
Cd1222 O1221 2.203 . S
Cd1222 O1224 2.411 . S
Cd1222 O1225 2.333 . S
Cd1222 O1226 2.352 . S
Cd1222 O1230 2.277 . S
Cd1222 O1231 2.356 . S
C1223 O1228 1.209 . S
C1223 O1230 1.226 . S
O1224 Cd1220 2.273 . S
O1224 Cd1222 2.411 . S
O1224 C1227 1.320 . S
O1225 Cd1222 2.333 . S
O1225 C1227 1.214 . S
O1226 Cd1222 2.352 . S
O1226 C1229 1.258 . S
C1227 O1224 1.320 . S
C1227 O1225 1.214 . S
O1228 Cd1220 2.277 . S
O1228 C1223 1.209 . S
C1229 O1226 1.258 . S
C1229 O1231 1.282 . S
O1230 Cd1222 2.277 . S
O1230 C1223 1.226 . S
O1231 Cd1222 2.356 . S
O1231 C1229 1.282 . S
C1232 O1233 1.306 . S
C1232 O1235 1.160 . S
O1233 C1232 1.306 . S
O1233 Cd1234 2.228 . S
Cd1234 O1233 2.228 . S
Cd1234 O1238 2.273 . S
Cd1234 O1242 2.277 . S
O1235 C1232 1.160 . S
O1235 Cd1236 2.203 . S
Cd1236 O1235 2.203 . S
Cd1236 O1238 2.411 . S
Cd1236 O1239 2.333 . S
Cd1236 O1240 2.352 . S
Cd1236 O1244 2.277 . S
Cd1236 O1245 2.356 . S
C1237 O1242 1.209 . S
C1237 O1244 1.226 . S
O1238 Cd1234 2.273 . S
O1238 Cd1236 2.411 . S
O1238 C1241 1.320 . S
O1239 Cd1236 2.333 . S
O1239 C1241 1.214 . S
O1240 Cd1236 2.352 . S
O1240 C1243 1.258 . S
C1241 O1238 1.320 . S
C1241 O1239 1.214 . S
O1242 Cd1234 2.277 . S
O1242 C1237 1.209 . S
C1243 O1240 1.258 . S
C1243 O1245 1.282 . S
O1244 Cd1236 2.277 . S
O1244 C1237 1.226 . S
O1245 Cd1236 2.356 . S
O1245 C1243 1.282 . S
C1246 O1247 1.306 . S
C1246 O1249 1.160 . S
O1247 C1246 1.306 . S
O1247 Cd1248 2.228 . S
Cd1248 O1247 2.228 . S
Cd1248 O1252 2.273 . S
Cd1248 O1256 2.277 . S
O1249 C1246 1.160 . S
O1249 Cd1250 2.203 . S
Cd1250 O1249 2.203 . S
Cd1250 O1252 2.411 . S
Cd1250 O1253 2.333 . S
Cd1250 O1254 2.352 . S
Cd1250 O1258 2.277 . S
Cd1250 O1259 2.356 . S
C1251 O1256 1.209 . S
C1251 O1258 1.226 . S
O1252 Cd1248 2.273 . S
O1252 Cd1250 2.411 . S
O1252 C1255 1.320 . S
O1253 Cd1250 2.333 . S
O1253 C1255 1.214 . S
O1254 Cd1250 2.352 . S
O1254 C1257 1.258 . S
C1255 O1252 1.320 . S
C1255 O1253 1.214 . S
O1256 Cd1248 2.277 . S
O1256 C1251 1.209 . S
C1257 O1254 1.258 . S
C1257 O1259 1.282 . S
O1258 Cd1250 2.277 . S
O1258 C1251 1.226 . S
O1259 Cd1250 2.356 . S
O1259 C1257 1.282 . S
C1260 O1261 1.306 . S
C1260 O1263 1.160 . S
O1261 C1260 1.306 . S
O1261 Cd1262 2.228 . S
Cd1262 O1261 2.228 . S
Cd1262 O1266 2.273 . S
Cd1262 O1270 2.277 . S
O1263 C1260 1.160 . S
O1263 Cd1264 2.203 . S
Cd1264 O1263 2.203 . S
Cd1264 O1266 2.411 . S
Cd1264 O1267 2.333 . S
Cd1264 O1268 2.352 . S
Cd1264 O1272 2.277 . S
Cd1264 O1273 2.356 . S
C1265 O1270 1.209 . S
C1265 O1272 1.226 . S
O1266 Cd1262 2.273 . S
O1266 Cd1264 2.411 . S
O1266 C1269 1.320 . S
O1267 Cd1264 2.333 . S
O1267 C1269 1.214 . S
O1268 Cd1264 2.352 . S
O1268 C1271 1.258 . S
C1269 O1266 1.320 . S
C1269 O1267 1.214 . S
O1270 Cd1262 2.277 . S
O1270 C1265 1.209 . S
C1271 O1268 1.258 . S
C1271 O1273 1.282 . S
O1272 Cd1264 2.277 . S
O1272 C1265 1.226 . S
O1273 Cd1264 2.356 . S
O1273 C1271 1.282 . S
C1274 O1275 1.306 . S
C1274 O1277 1.160 . S
O1275 C1274 1.306 . S
O1275 Cd1276 2.228 . S
Cd1276 O1275 2.228 . S
Cd1276 O1280 2.273 . S
Cd1276 O1284 2.277 . S
O1277 C1274 1.160 . S
O1277 Cd1278 2.203 . S
Cd1278 O1277 2.203 . S
Cd1278 O1280 2.411 . S
Cd1278 O1281 2.333 . S
Cd1278 O1282 2.352 . S
Cd1278 O1286 2.277 . S
Cd1278 O1287 2.356 . S
C1279 O1284 1.209 . S
C1279 O1286 1.226 . S
O1280 Cd1276 2.273 . S
O1280 Cd1278 2.411 . S
O1280 C1283 1.320 . S
O1281 Cd1278 2.333 . S
O1281 C1283 1.214 . S
O1282 Cd1278 2.352 . S
O1282 C1285 1.258 . S
C1283 O1280 1.320 . S
C1283 O1281 1.214 . S
O1284 Cd1276 2.277 . S
O1284 C1279 1.209 . S
C1285 O1282 1.258 . S
C1285 O1287 1.282 . S
O1286 Cd1278 2.277 . S
O1286 C1279 1.226 . S
O1287 Cd1278 2.356 . S
O1287 C1285 1.282 . S
C1288 O1289 1.306 . S
C1288 O1291 1.160 . S
O1289 C1288 1.306 . S
O1289 Cd1290 2.228 . S
Cd1290 O1289 2.228 . S
Cd1290 O1294 2.273 . S
Cd1290 O1298 2.277 . S
O1291 C1288 1.160 . S
O1291 Cd1292 2.203 . S
Cd1292 O1291 2.203 . S
Cd1292 O1294 2.411 . S
Cd1292 O1295 2.333 . S
Cd1292 O1296 2.352 . S
Cd1292 O1300 2.277 . S
Cd1292 O1301 2.356 . S
C1293 O1298 1.209 . S
C1293 O1300 1.226 . S
O1294 Cd1290 2.273 . S
O1294 Cd1292 2.411 . S
O1294 C1297 1.320 . S
O1295 Cd1292 2.333 . S
O1295 C1297 1.214 . S
O1296 Cd1292 2.352 . S
O1296 C1299 1.258 . S
C1297 O1294 1.320 . S
C1297 O1295 1.214 . S
O1298 Cd1290 2.277 . S
O1298 C1293 1.209 . S
C1299 O1296 1.258 . S
C1299 O1301 1.282 . S
O1300 Cd1292 2.277 . S
O1300 C1293 1.226 . S
O1301 Cd1292 2.356 . S
O1301 C1299 1.282 . S
C1302 O1303 1.306 . S
C1302 O1305 1.160 . S
O1303 C1302 1.306 . S
O1303 Cd1304 2.228 . S
Cd1304 O1303 2.228 . S
Cd1304 O1308 2.273 . S
Cd1304 O1312 2.277 . S
O1305 C1302 1.160 . S
O1305 Cd1306 2.203 . S
Cd1306 O1305 2.203 . S
Cd1306 O1308 2.411 . S
Cd1306 O1309 2.333 . S
Cd1306 O1310 2.352 . S
Cd1306 O1314 2.277 . S
Cd1306 O1315 2.356 . S
C1307 O1312 1.209 . S
C1307 O1314 1.226 . S
O1308 Cd1304 2.273 . S
O1308 Cd1306 2.411 . S
O1308 C1311 1.320 . S
O1309 Cd1306 2.333 . S
O1309 C1311 1.214 . S
O1310 Cd1306 2.352 . S
O1310 C1313 1.258 . S
C1311 O1308 1.320 . S
C1311 O1309 1.214 . S
O1312 Cd1304 2.277 . S
O1312 C1307 1.209 . S
C1313 O1310 1.258 . S
C1313 O1315 1.282 . S
O1314 Cd1306 2.277 . S
O1314 C1307 1.226 . S
O1315 Cd1306 2.356 . S
O1315 C1313 1.282 . S
C1316 O1317 1.306 . S
C1316 O1319 1.160 . S
O1317 C1316 1.306 . S
O1317 Cd1318 2.228 . S
Cd1318 O1317 2.228 . S
Cd1318 O1322 2.273 . S
Cd1318 O1326 2.277 . S
O1319 C1316 1.160 . S
O1319 Cd1320 2.203 . S
Cd1320 O1319 2.203 . S
Cd1320 O1322 2.411 . S
Cd1320 O1323 2.333 . S
Cd1320 O1324 2.352 . S
Cd1320 O1328 2.277 . S
Cd1320 O1329 2.356 . S
C1321 O1326 1.209 . S
C1321 O1328 1.226 . S
O1322 Cd1318 2.273 . S
O1322 Cd1320 2.411 . S
O1322 C1325 1.320 . S
O1323 Cd1320 2.333 . S
O1323 C1325 1.214 . S
O1324 Cd1320 2.352 . S
O1324 C1327 1.258 . S
C1325 O1322 1.320 . S
C1325 O1323 1.214 . S
O1326 Cd1318 2.277 . S
O1326 C1321 1.209 . S
C1327 O1324 1.258 . S
C1327 O1329 1.282 . S
O1328 Cd1320 2.277 . S
O1328 C1321 1.226 . S
O1329 Cd1320 2.356 . S
O1329 C1327 1.282 . S
C1330 O1331 1.306 . S
C1330 O1333 1.160 . S
O1331 C1330 1.306 . S
O1331 Cd1332 2.228 . S
Cd1332 O1331 2.228 . S
Cd1332 O1336 2.273 . S
Cd1332 O1340 2.277 . S
O1333 C1330 1.160 . S
O1333 Cd1334 2.203 . S
Cd1334 O1333 2.203 . S
Cd1334 O1336 2.411 . S
Cd1334 O1337 2.333 . S
Cd1334 O1338 2.352 . S
Cd1334 O1342 2.277 . S
Cd1334 O1343 2.356 . S
C1335 O1340 1.209 . S
C1335 O1342 1.226 . S
O1336 Cd1332 2.273 . S
O1336 Cd1334 2.411 . S
O1336 C1339 1.320 . S
O1337 Cd1334 2.333 . S
O1337 C1339 1.214 . S
O1338 Cd1334 2.352 . S
O1338 C1341 1.258 . S
C1339 O1336 1.320 . S
C1339 O1337 1.214 . S
O1340 Cd1332 2.277 . S
O1340 C1335 1.209 . S
C1341 O1338 1.258 . S
C1341 O1343 1.282 . S
O1342 Cd1334 2.277 . S
O1342 C1335 1.226 . S
O1343 Cd1334 2.356 . S
O1343 C1341 1.282 . S
H1344 C1356 0.930 . S
H1345 C1358 0.930 . S
H1346 C1359 0.930 . S
H1347 C1363 0.959 . S
H1348 C1363 0.959 . S
H1349 C1363 0.961 . S
H1350 C1364 0.960 . S
H1351 C1364 0.961 . S
H1352 C1364 0.959 . S
H1353 C1367 0.929 . S
H1354 C1368 0.931 . S
H1355 C1370 0.930 . S
C1356 H1344 0.930 . S
C1356 C1357 1.399 . S
C1356 C1361 1.399 . S
C1357 C1356 1.399 . S
C1357 C1358 1.376 . S
C1358 H1345 0.930 . S
C1358 C1357 1.376 . S
C1358 C1359 1.388 . S
C1359 H1346 0.930 . S
C1359 C1358 1.388 . S
C1359 C1360 1.390 . S
C1360 C1359 1.390 . S
C1360 C1361 1.394 . S
C1360 C1366 1.465 . S
C1361 C1356 1.399 . S
C1361 C1360 1.394 . S
C1361 C1362 1.516 . S
C1362 C1361 1.516 . S
C1362 C1363 1.502 . S
C1362 C1364 1.561 . S
C1362 C1365 1.526 . S
C1363 H1347 0.959 . S
C1363 H1348 0.959 . S
C1363 H1349 0.961 . S
C1363 C1362 1.502 . S
C1364 H1350 0.960 . S
C1364 H1351 0.961 . S
C1364 H1352 0.959 . S
C1364 C1362 1.561 . S
C1365 C1362 1.526 . S
C1365 C1366 1.396 . S
C1365 C1370 1.390 . S
C1366 C1360 1.465 . S
C1366 C1365 1.396 . S
C1366 C1367 1.399 . S
C1367 H1353 0.929 . S
C1367 C1366 1.399 . S
C1367 C1368 1.385 . S
C1368 H1354 0.931 . S
C1368 C1367 1.385 . S
C1368 C1369 1.389 . S
C1369 C1368 1.389 . S
C1369 C1370 1.387 . S
C1370 H1355 0.930 . S
C1370 C1365 1.390 . S
C1370 C1369 1.387 . S
H1371 C1383 0.930 . S
H1372 C1385 0.930 . S
H1373 C1386 0.930 . S
H1374 C1390 0.959 . S
H1375 C1390 0.959 . S
H1376 C1390 0.961 . S
H1377 C1391 0.960 . S
H1378 C1391 0.961 . S
H1379 C1391 0.959 . S
H1380 C1394 0.929 . S
H1381 C1395 0.931 . S
H1382 C1397 0.930 . S
C1383 H1371 0.930 . S
C1383 C1384 1.399 . S
C1383 C1388 1.399 . S
C1384 C1383 1.399 . S
C1384 C1385 1.376 . S
C1385 H1372 0.930 . S
C1385 C1384 1.376 . S
C1385 C1386 1.388 . S
C1386 H1373 0.930 . S
C1386 C1385 1.388 . S
C1386 C1387 1.390 . S
C1387 C1386 1.390 . S
C1387 C1388 1.394 . S
C1387 C1393 1.465 . S
C1388 C1383 1.399 . S
C1388 C1387 1.394 . S
C1388 C1389 1.516 . S
C1389 C1388 1.516 . S
C1389 C1390 1.502 . S
C1389 C1391 1.561 . S
C1389 C1392 1.526 . S
C1390 H1374 0.959 . S
C1390 H1375 0.959 . S
C1390 H1376 0.961 . S
C1390 C1389 1.502 . S
C1391 H1377 0.960 . S
C1391 H1378 0.961 . S
C1391 H1379 0.959 . S
C1391 C1389 1.561 . S
C1392 C1389 1.526 . S
C1392 C1393 1.396 . S
C1392 C1397 1.390 . S
C1393 C1387 1.465 . S
C1393 C1392 1.396 . S
C1393 C1394 1.399 . S
C1394 H1380 0.929 . S
C1394 C1393 1.399 . S
C1394 C1395 1.385 . S
C1395 H1381 0.931 . S
C1395 C1394 1.385 . S
C1395 C1396 1.389 . S
C1396 C1395 1.389 . S
C1396 C1397 1.387 . S
C1397 H1382 0.930 . S
C1397 C1392 1.390 . S
C1397 C1396 1.387 . S
H1398 C1410 0.930 . S
H1399 C1412 0.930 . S
H1400 C1413 0.930 . S
H1401 C1417 0.959 . S
H1402 C1417 0.959 . S
H1403 C1417 0.961 . S
H1404 C1418 0.960 . S
H1405 C1418 0.961 . S
H1406 C1418 0.959 . S
H1407 C1421 0.929 . S
H1408 C1422 0.931 . S
H1409 C1424 0.930 . S
C1410 H1398 0.930 . S
C1410 C1411 1.399 . S
C1410 C1415 1.399 . S
C1411 C1410 1.399 . S
C1411 C1412 1.376 . S
C1412 H1399 0.930 . S
C1412 C1411 1.376 . S
C1412 C1413 1.388 . S
C1413 H1400 0.930 . S
C1413 C1412 1.388 . S
C1413 C1414 1.390 . S
C1414 C1413 1.390 . S
C1414 C1415 1.394 . S
C1414 C1420 1.465 . S
C1415 C1410 1.399 . S
C1415 C1414 1.394 . S
C1415 C1416 1.516 . S
C1416 C1415 1.516 . S
C1416 C1417 1.502 . S
C1416 C1418 1.561 . S
C1416 C1419 1.526 . S
C1417 H1401 0.959 . S
C1417 H1402 0.959 . S
C1417 H1403 0.961 . S
C1417 C1416 1.502 . S
C1418 H1404 0.960 . S
C1418 H1405 0.961 . S
C1418 H1406 0.959 . S
C1418 C1416 1.561 . S
C1419 C1416 1.526 . S
C1419 C1420 1.396 . S
C1419 C1424 1.390 . S
C1420 C1414 1.465 . S
C1420 C1419 1.396 . S
C1420 C1421 1.399 . S
C1421 H1407 0.929 . S
C1421 C1420 1.399 . S
C1421 C1422 1.385 . S
C1422 H1408 0.931 . S
C1422 C1421 1.385 . S
C1422 C1423 1.389 . S
C1423 C1422 1.389 . S
C1423 C1424 1.387 . S
C1424 H1409 0.930 . S
C1424 C1419 1.390 . S
C1424 C1423 1.387 . S
H1425 C1437 0.930 . S
H1426 C1439 0.930 . S
H1427 C1440 0.930 . S
H1428 C1444 0.959 . S
H1429 C1444 0.959 . S
H1430 C1444 0.961 . S
H1431 C1445 0.960 . S
H1432 C1445 0.961 . S
H1433 C1445 0.959 . S
H1434 C1448 0.929 . S
H1435 C1449 0.931 . S
H1436 C1451 0.930 . S
C1437 H1425 0.930 . S
C1437 C1438 1.399 . S
C1437 C1442 1.399 . S
C1438 C1437 1.399 . S
C1438 C1439 1.376 . S
C1439 H1426 0.930 . S
C1439 C1438 1.376 . S
C1439 C1440 1.388 . S
C1440 H1427 0.930 . S
C1440 C1439 1.388 . S
C1440 C1441 1.390 . S
C1441 C1440 1.390 . S
C1441 C1442 1.394 . S
C1441 C1447 1.465 . S
C1442 C1437 1.399 . S
C1442 C1441 1.394 . S
C1442 C1443 1.516 . S
C1443 C1442 1.516 . S
C1443 C1444 1.502 . S
C1443 C1445 1.561 . S
C1443 C1446 1.526 . S
C1444 H1428 0.959 . S
C1444 H1429 0.959 . S
C1444 H1430 0.961 . S
C1444 C1443 1.502 . S
C1445 H1431 0.960 . S
C1445 H1432 0.961 . S
C1445 H1433 0.959 . S
C1445 C1443 1.561 . S
C1446 C1443 1.526 . S
C1446 C1447 1.396 . S
C1446 C1451 1.390 . S
C1447 C1441 1.465 . S
C1447 C1446 1.396 . S
C1447 C1448 1.399 . S
C1448 H1434 0.929 . S
C1448 C1447 1.399 . S
C1448 C1449 1.385 . S
C1449 H1435 0.931 . S
C1449 C1448 1.385 . S
C1449 C1450 1.389 . S
C1450 C1449 1.389 . S
C1450 C1451 1.387 . S
C1451 H1436 0.930 . S
C1451 C1446 1.390 . S
C1451 C1450 1.387 . S
H1452 C1464 0.930 . S
H1453 C1466 0.930 . S
H1454 C1467 0.930 . S
H1455 C1471 0.959 . S
H1456 C1471 0.959 . S
H1457 C1471 0.961 . S
H1458 C1472 0.960 . S
H1459 C1472 0.961 . S
H1460 C1472 0.959 . S
H1461 C1475 0.929 . S
H1462 C1476 0.931 . S
H1463 C1478 0.930 . S
C1464 H1452 0.930 . S
C1464 C1465 1.399 . S
C1464 C1469 1.399 . S
C1465 C1464 1.399 . S
C1465 C1466 1.376 . S
C1466 H1453 0.930 . S
C1466 C1465 1.376 . S
C1466 C1467 1.388 . S
C1467 H1454 0.930 . S
C1467 C1466 1.388 . S
C1467 C1468 1.390 . S
C1468 C1467 1.390 . S
C1468 C1469 1.394 . S
C1468 C1474 1.465 . S
C1469 C1464 1.399 . S
C1469 C1468 1.394 . S
C1469 C1470 1.516 . S
C1470 C1469 1.516 . S
C1470 C1471 1.502 . S
C1470 C1472 1.561 . S
C1470 C1473 1.526 . S
C1471 H1455 0.959 . S
C1471 H1456 0.959 . S
C1471 H1457 0.961 . S
C1471 C1470 1.502 . S
C1472 H1458 0.960 . S
C1472 H1459 0.961 . S
C1472 H1460 0.959 . S
C1472 C1470 1.561 . S
C1473 C1470 1.526 . S
C1473 C1474 1.396 . S
C1473 C1478 1.390 . S
C1474 C1468 1.465 . S
C1474 C1473 1.396 . S
C1474 C1475 1.399 . S
C1475 H1461 0.929 . S
C1475 C1474 1.399 . S
C1475 C1476 1.385 . S
C1476 H1462 0.931 . S
C1476 C1475 1.385 . S
C1476 C1477 1.389 . S
C1477 C1476 1.389 . S
C1477 C1478 1.387 . S
C1478 H1463 0.930 . S
C1478 C1473 1.390 . S
C1478 C1477 1.387 . S
H1479 C1491 0.930 . S
H1480 C1493 0.930 . S
H1481 C1494 0.930 . S
H1482 C1498 0.959 . S
H1483 C1498 0.959 . S
H1484 C1498 0.961 . S
H1485 C1499 0.960 . S
H1486 C1499 0.961 . S
H1487 C1499 0.959 . S
H1488 C1502 0.929 . S
H1489 C1503 0.931 . S
H1490 C1505 0.930 . S
C1491 H1479 0.930 . S
C1491 C1492 1.399 . S
C1491 C1496 1.399 . S
C1492 C1491 1.399 . S
C1492 C1493 1.376 . S
C1493 H1480 0.930 . S
C1493 C1492 1.376 . S
C1493 C1494 1.388 . S
C1494 H1481 0.930 . S
C1494 C1493 1.388 . S
C1494 C1495 1.390 . S
C1495 C1494 1.390 . S
C1495 C1496 1.394 . S
C1495 C1501 1.465 . S
C1496 C1491 1.399 . S
C1496 C1495 1.394 . S
C1496 C1497 1.516 . S
C1497 C1496 1.516 . S
C1497 C1498 1.502 . S
C1497 C1499 1.561 . S
C1497 C1500 1.526 . S
C1498 H1482 0.959 . S
C1498 H1483 0.959 . S
C1498 H1484 0.961 . S
C1498 C1497 1.502 . S
C1499 H1485 0.960 . S
C1499 H1486 0.961 . S
C1499 H1487 0.959 . S
C1499 C1497 1.561 . S
C1500 C1497 1.526 . S
C1500 C1501 1.396 . S
C1500 C1505 1.390 . S
C1501 C1495 1.465 . S
C1501 C1500 1.396 . S
C1501 C1502 1.399 . S
C1502 H1488 0.929 . S
C1502 C1501 1.399 . S
C1502 C1503 1.385 . S
C1503 H1489 0.931 . S
C1503 C1502 1.385 . S
C1503 C1504 1.389 . S
C1504 C1503 1.389 . S
C1504 C1505 1.387 . S
C1505 H1490 0.930 . S
C1505 C1500 1.390 . S
C1505 C1504 1.387 . S
H1506 C1518 0.930 . S
H1507 C1520 0.930 . S
H1508 C1521 0.930 . S
H1509 C1525 0.959 . S
H1510 C1525 0.959 . S
H1511 C1525 0.961 . S
H1512 C1526 0.960 . S
H1513 C1526 0.961 . S
H1514 C1526 0.959 . S
H1515 C1529 0.929 . S
H1516 C1530 0.931 . S
H1517 C1532 0.930 . S
C1518 H1506 0.930 . S
C1518 C1519 1.399 . S
C1518 C1523 1.399 . S
C1519 C1518 1.399 . S
C1519 C1520 1.376 . S
C1520 H1507 0.930 . S
C1520 C1519 1.376 . S
C1520 C1521 1.388 . S
C1521 H1508 0.930 . S
C1521 C1520 1.388 . S
C1521 C1522 1.390 . S
C1522 C1521 1.390 . S
C1522 C1523 1.394 . S
C1522 C1528 1.465 . S
C1523 C1518 1.399 . S
C1523 C1522 1.394 . S
C1523 C1524 1.516 . S
C1524 C1523 1.516 . S
C1524 C1525 1.502 . S
C1524 C1526 1.561 . S
C1524 C1527 1.526 . S
C1525 H1509 0.959 . S
C1525 H1510 0.959 . S
C1525 H1511 0.961 . S
C1525 C1524 1.502 . S
C1526 H1512 0.960 . S
C1526 H1513 0.961 . S
C1526 H1514 0.959 . S
C1526 C1524 1.561 . S
C1527 C1524 1.526 . S
C1527 C1528 1.396 . S
C1527 C1532 1.390 . S
C1528 C1522 1.465 . S
C1528 C1527 1.396 . S
C1528 C1529 1.399 . S
C1529 H1515 0.929 . S
C1529 C1528 1.399 . S
C1529 C1530 1.385 . S
C1530 H1516 0.931 . S
C1530 C1529 1.385 . S
C1530 C1531 1.389 . S
C1531 C1530 1.389 . S
C1531 C1532 1.387 . S
C1532 H1517 0.930 . S
C1532 C1527 1.390 . S
C1532 C1531 1.387 . S
H1533 C1545 0.930 . S
H1534 C1547 0.930 . S
H1535 C1548 0.930 . S
H1536 C1552 0.959 . S
H1537 C1552 0.959 . S
H1538 C1552 0.961 . S
H1539 C1553 0.960 . S
H1540 C1553 0.961 . S
H1541 C1553 0.959 . S
H1542 C1556 0.929 . S
H1543 C1557 0.931 . S
H1544 C1559 0.930 . S
C1545 H1533 0.930 . S
C1545 C1546 1.399 . S
C1545 C1550 1.399 . S
C1546 C1545 1.399 . S
C1546 C1547 1.376 . S
C1547 H1534 0.930 . S
C1547 C1546 1.376 . S
C1547 C1548 1.388 . S
C1548 H1535 0.930 . S
C1548 C1547 1.388 . S
C1548 C1549 1.390 . S
C1549 C1548 1.390 . S
C1549 C1550 1.394 . S
C1549 C1555 1.465 . S
C1550 C1545 1.399 . S
C1550 C1549 1.394 . S
C1550 C1551 1.516 . S
C1551 C1550 1.516 . S
C1551 C1552 1.502 . S
C1551 C1553 1.561 . S
C1551 C1554 1.526 . S
C1552 H1536 0.959 . S
C1552 H1537 0.959 . S
C1552 H1538 0.961 . S
C1552 C1551 1.502 . S
C1553 H1539 0.960 . S
C1553 H1540 0.961 . S
C1553 H1541 0.959 . S
C1553 C1551 1.561 . S
C1554 C1551 1.526 . S
C1554 C1555 1.396 . S
C1554 C1559 1.390 . S
C1555 C1549 1.465 . S
C1555 C1554 1.396 . S
C1555 C1556 1.399 . S
C1556 H1542 0.929 . S
C1556 C1555 1.399 . S
C1556 C1557 1.385 . S
C1557 H1543 0.931 . S
C1557 C1556 1.385 . S
C1557 C1558 1.389 . S
C1558 C1557 1.389 . S
C1558 C1559 1.387 . S
C1559 H1544 0.930 . S
C1559 C1554 1.390 . S
C1559 C1558 1.387 . S
H1560 C1572 0.930 . S
H1561 C1574 0.930 . S
H1562 C1575 0.930 . S
H1563 C1579 0.959 . S
H1564 C1579 0.959 . S
H1565 C1579 0.961 . S
H1566 C1580 0.960 . S
H1567 C1580 0.961 . S
H1568 C1580 0.959 . S
H1569 C1583 0.929 . S
H1570 C1584 0.931 . S
H1571 C1586 0.930 . S
C1572 H1560 0.930 . S
C1572 C1573 1.399 . S
C1572 C1577 1.399 . S
C1573 C1572 1.399 . S
C1573 C1574 1.376 . S
C1574 H1561 0.930 . S
C1574 C1573 1.376 . S
C1574 C1575 1.388 . S
C1575 H1562 0.930 . S
C1575 C1574 1.388 . S
C1575 C1576 1.390 . S
C1576 C1575 1.390 . S
C1576 C1577 1.394 . S
C1576 C1582 1.465 . S
C1577 C1572 1.399 . S
C1577 C1576 1.394 . S
C1577 C1578 1.516 . S
C1578 C1577 1.516 . S
C1578 C1579 1.502 . S
C1578 C1580 1.561 . S
C1578 C1581 1.526 . S
C1579 H1563 0.959 . S
C1579 H1564 0.959 . S
C1579 H1565 0.961 . S
C1579 C1578 1.502 . S
C1580 H1566 0.960 . S
C1580 H1567 0.961 . S
C1580 H1568 0.959 . S
C1580 C1578 1.561 . S
C1581 C1578 1.526 . S
C1581 C1582 1.396 . S
C1581 C1586 1.390 . S
C1582 C1576 1.465 . S
C1582 C1581 1.396 . S
C1582 C1583 1.399 . S
C1583 H1569 0.929 . S
C1583 C1582 1.399 . S
C1583 C1584 1.385 . S
C1584 H1570 0.931 . S
C1584 C1583 1.385 . S
C1584 C1585 1.389 . S
C1585 C1584 1.389 . S
C1585 C1586 1.387 . S
C1586 H1571 0.930 . S
C1586 C1581 1.390 . S
C1586 C1585 1.387 . S
H1587 C1599 0.930 . S
H1588 C1601 0.930 . S
H1589 C1602 0.930 . S
H1590 C1606 0.959 . S
H1591 C1606 0.959 . S
H1592 C1606 0.961 . S
H1593 C1607 0.960 . S
H1594 C1607 0.961 . S
H1595 C1607 0.959 . S
H1596 C1610 0.929 . S
H1597 C1611 0.931 . S
H1598 C1613 0.930 . S
C1599 H1587 0.930 . S
C1599 C1600 1.399 . S
C1599 C1604 1.399 . S
C1600 C1599 1.399 . S
C1600 C1601 1.376 . S
C1601 H1588 0.930 . S
C1601 C1600 1.376 . S
C1601 C1602 1.388 . S
C1602 H1589 0.930 . S
C1602 C1601 1.388 . S
C1602 C1603 1.390 . S
C1603 C1602 1.390 . S
C1603 C1604 1.394 . S
C1603 C1609 1.465 . S
C1604 C1599 1.399 . S
C1604 C1603 1.394 . S
C1604 C1605 1.516 . S
C1605 C1604 1.516 . S
C1605 C1606 1.502 . S
C1605 C1607 1.561 . S
C1605 C1608 1.526 . S
C1606 H1590 0.959 . S
C1606 H1591 0.959 . S
C1606 H1592 0.961 . S
C1606 C1605 1.502 . S
C1607 H1593 0.960 . S
C1607 H1594 0.961 . S
C1607 H1595 0.959 . S
C1607 C1605 1.561 . S
C1608 C1605 1.526 . S
C1608 C1609 1.396 . S
C1608 C1613 1.390 . S
C1609 C1603 1.465 . S
C1609 C1608 1.396 . S
C1609 C1610 1.399 . S
C1610 H1596 0.929 . S
C1610 C1609 1.399 . S
C1610 C1611 1.385 . S
C1611 H1597 0.931 . S
C1611 C1610 1.385 . S
C1611 C1612 1.389 . S
C1612 C1611 1.389 . S
C1612 C1613 1.387 . S
C1613 H1598 0.930 . S
C1613 C1608 1.390 . S
C1613 C1612 1.387 . S
H1614 C1626 0.930 . S
H1615 C1628 0.930 . S
H1616 C1629 0.930 . S
H1617 C1633 0.959 . S
H1618 C1633 0.959 . S
H1619 C1633 0.961 . S
H1620 C1634 0.960 . S
H1621 C1634 0.961 . S
H1622 C1634 0.959 . S
H1623 C1637 0.929 . S
H1624 C1638 0.931 . S
H1625 C1640 0.930 . S
C1626 H1614 0.930 . S
C1626 C1627 1.399 . S
C1626 C1631 1.399 . S
C1627 C1626 1.399 . S
C1627 C1628 1.376 . S
C1628 H1615 0.930 . S
C1628 C1627 1.376 . S
C1628 C1629 1.388 . S
C1629 H1616 0.930 . S
C1629 C1628 1.388 . S
C1629 C1630 1.390 . S
C1630 C1629 1.390 . S
C1630 C1631 1.394 . S
C1630 C1636 1.465 . S
C1631 C1626 1.399 . S
C1631 C1630 1.394 . S
C1631 C1632 1.516 . S
C1632 C1631 1.516 . S
C1632 C1633 1.502 . S
C1632 C1634 1.561 . S
C1632 C1635 1.526 . S
C1633 H1617 0.959 . S
C1633 H1618 0.959 . S
C1633 H1619 0.961 . S
C1633 C1632 1.502 . S
C1634 H1620 0.960 . S
C1634 H1621 0.961 . S
C1634 H1622 0.959 . S
C1634 C1632 1.561 . S
C1635 C1632 1.526 . S
C1635 C1636 1.396 . S
C1635 C1640 1.390 . S
C1636 C1630 1.465 . S
C1636 C1635 1.396 . S
C1636 C1637 1.399 . S
C1637 H1623 0.929 . S
C1637 C1636 1.399 . S
C1637 C1638 1.385 . S
C1638 H1624 0.931 . S
C1638 C1637 1.385 . S
C1638 C1639 1.389 . S
C1639 C1638 1.389 . S
C1639 C1640 1.387 . S
C1640 H1625 0.930 . S
C1640 C1635 1.390 . S
C1640 C1639 1.387 . S
H1641 C1653 0.930 . S
H1642 C1655 0.930 . S
H1643 C1656 0.930 . S
H1644 C1660 0.959 . S
H1645 C1660 0.959 . S
H1646 C1660 0.961 . S
H1647 C1661 0.960 . S
H1648 C1661 0.961 . S
H1649 C1661 0.959 . S
H1650 C1664 0.929 . S
H1651 C1665 0.931 . S
H1652 C1667 0.930 . S
C1653 H1641 0.930 . S
C1653 C1654 1.399 . S
C1653 C1658 1.399 . S
C1654 C1653 1.399 . S
C1654 C1655 1.376 . S
C1655 H1642 0.930 . S
C1655 C1654 1.376 . S
C1655 C1656 1.388 . S
C1656 H1643 0.930 . S
C1656 C1655 1.388 . S
C1656 C1657 1.390 . S
C1657 C1656 1.390 . S
C1657 C1658 1.394 . S
C1657 C1663 1.465 . S
C1658 C1653 1.399 . S
C1658 C1657 1.394 . S
C1658 C1659 1.516 . S
C1659 C1658 1.516 . S
C1659 C1660 1.502 . S
C1659 C1661 1.561 . S
C1659 C1662 1.526 . S
C1660 H1644 0.959 . S
C1660 H1645 0.959 . S
C1660 H1646 0.961 . S
C1660 C1659 1.502 . S
C1661 H1647 0.960 . S
C1661 H1648 0.961 . S
C1661 H1649 0.959 . S
C1661 C1659 1.561 . S
C1662 C1659 1.526 . S
C1662 C1663 1.396 . S
C1662 C1667 1.390 . S
C1663 C1657 1.465 . S
C1663 C1662 1.396 . S
C1663 C1664 1.399 . S
C1664 H1650 0.929 . S
C1664 C1663 1.399 . S
C1664 C1665 1.385 . S
C1665 H1651 0.931 . S
C1665 C1664 1.385 . S
C1665 C1666 1.389 . S
C1666 C1665 1.389 . S
C1666 C1667 1.387 . S
C1667 H1652 0.930 . S
C1667 C1662 1.390 . S
C1667 C1666 1.387 . S
H1668 C1680 0.930 . S
H1669 C1682 0.930 . S
H1670 C1683 0.930 . S
H1671 C1687 0.959 . S
H1672 C1687 0.959 . S
H1673 C1687 0.961 . S
H1674 C1688 0.960 . S
H1675 C1688 0.961 . S
H1676 C1688 0.959 . S
H1677 C1691 0.929 . S
H1678 C1692 0.931 . S
H1679 C1694 0.930 . S
C1680 H1668 0.930 . S
C1680 C1681 1.399 . S
C1680 C1685 1.399 . S
C1681 C1680 1.399 . S
C1681 C1682 1.376 . S
C1682 H1669 0.930 . S
C1682 C1681 1.376 . S
C1682 C1683 1.388 . S
C1683 H1670 0.930 . S
C1683 C1682 1.388 . S
C1683 C1684 1.390 . S
C1684 C1683 1.390 . S
C1684 C1685 1.394 . S
C1684 C1690 1.465 . S
C1685 C1680 1.399 . S
C1685 C1684 1.394 . S
C1685 C1686 1.516 . S
C1686 C1685 1.516 . S
C1686 C1687 1.502 . S
C1686 C1688 1.561 . S
C1686 C1689 1.526 . S
C1687 H1671 0.959 . S
C1687 H1672 0.959 . S
C1687 H1673 0.961 . S
C1687 C1686 1.502 . S
C1688 H1674 0.960 . S
C1688 H1675 0.961 . S
C1688 H1676 0.959 . S
C1688 C1686 1.561 . S
C1689 C1686 1.526 . S
C1689 C1690 1.396 . S
C1689 C1694 1.390 . S
C1690 C1684 1.465 . S
C1690 C1689 1.396 . S
C1690 C1691 1.399 . S
C1691 H1677 0.929 . S
C1691 C1690 1.399 . S
C1691 C1692 1.385 . S
C1692 H1678 0.931 . S
C1692 C1691 1.385 . S
C1692 C1693 1.389 . S
C1693 C1692 1.389 . S
C1693 C1694 1.387 . S
C1694 H1679 0.930 . S
C1694 C1689 1.390 . S
C1694 C1693 1.387 . S
H1695 C1707 0.930 . S
H1696 C1709 0.930 . S
H1697 C1710 0.930 . S
H1698 C1714 0.959 . S
H1699 C1714 0.959 . S
H1700 C1714 0.961 . S
H1701 C1715 0.960 . S
H1702 C1715 0.961 . S
H1703 C1715 0.959 . S
H1704 C1718 0.929 . S
H1705 C1719 0.931 . S
H1706 C1721 0.930 . S
C1707 H1695 0.930 . S
C1707 C1708 1.399 . S
C1707 C1712 1.399 . S
C1708 C1707 1.399 . S
C1708 C1709 1.376 . S
C1709 H1696 0.930 . S
C1709 C1708 1.376 . S
C1709 C1710 1.388 . S
C1710 H1697 0.930 . S
C1710 C1709 1.388 . S
C1710 C1711 1.390 . S
C1711 C1710 1.390 . S
C1711 C1712 1.394 . S
C1711 C1717 1.465 . S
C1712 C1707 1.399 . S
C1712 C1711 1.394 . S
C1712 C1713 1.516 . S
C1713 C1712 1.516 . S
C1713 C1714 1.502 . S
C1713 C1715 1.561 . S
C1713 C1716 1.526 . S
C1714 H1698 0.959 . S
C1714 H1699 0.959 . S
C1714 H1700 0.961 . S
C1714 C1713 1.502 . S
C1715 H1701 0.960 . S
C1715 H1702 0.961 . S
C1715 H1703 0.959 . S
C1715 C1713 1.561 . S
C1716 C1713 1.526 . S
C1716 C1717 1.396 . S
C1716 C1721 1.390 . S
C1717 C1711 1.465 . S
C1717 C1716 1.396 . S
C1717 C1718 1.399 . S
C1718 H1704 0.929 . S
C1718 C1717 1.399 . S
C1718 C1719 1.385 . S
C1719 H1705 0.931 . S
C1719 C1718 1.385 . S
C1719 C1720 1.389 . S
C1720 C1719 1.389 . S
C1720 C1721 1.387 . S
C1721 H1706 0.930 . S
C1721 C1716 1.390 . S
C1721 C1720 1.387 . S
H1722 C1734 0.930 . S
H1723 C1736 0.930 . S
H1724 C1737 0.930 . S
H1725 C1741 0.959 . S
H1726 C1741 0.959 . S
H1727 C1741 0.961 . S
H1728 C1742 0.960 . S
H1729 C1742 0.961 . S
H1730 C1742 0.959 . S
H1731 C1745 0.929 . S
H1732 C1746 0.931 . S
H1733 C1748 0.930 . S
C1734 H1722 0.930 . S
C1734 C1735 1.399 . S
C1734 C1739 1.399 . S
C1735 C1734 1.399 . S
C1735 C1736 1.376 . S
C1736 H1723 0.930 . S
C1736 C1735 1.376 . S
C1736 C1737 1.388 . S
C1737 H1724 0.930 . S
C1737 C1736 1.388 . S
C1737 C1738 1.390 . S
C1738 C1737 1.390 . S
C1738 C1739 1.394 . S
C1738 C1744 1.465 . S
C1739 C1734 1.399 . S
C1739 C1738 1.394 . S
C1739 C1740 1.516 . S
C1740 C1739 1.516 . S
C1740 C1741 1.502 . S
C1740 C1742 1.561 . S
C1740 C1743 1.526 . S
C1741 H1725 0.959 . S
C1741 H1726 0.959 . S
C1741 H1727 0.961 . S
C1741 C1740 1.502 . S
C1742 H1728 0.960 . S
C1742 H1729 0.961 . S
C1742 H1730 0.959 . S
C1742 C1740 1.561 . S
C1743 C1740 1.526 . S
C1743 C1744 1.396 . S
C1743 C1748 1.390 . S
C1744 C1738 1.465 . S
C1744 C1743 1.396 . S
C1744 C1745 1.399 . S
C1745 H1731 0.929 . S
C1745 C1744 1.399 . S
C1745 C1746 1.385 . S
C1746 H1732 0.931 . S
C1746 C1745 1.385 . S
C1746 C1747 1.389 . S
C1747 C1746 1.389 . S
C1747 C1748 1.387 . S
C1748 H1733 0.930 . S
C1748 C1743 1.390 . S
C1748 C1747 1.387 . S
H1749 C1761 0.930 . S
H1750 C1763 0.930 . S
H1751 C1764 0.930 . S
H1752 C1768 0.959 . S
H1753 C1768 0.959 . S
H1754 C1768 0.961 . S
H1755 C1769 0.960 . S
H1756 C1769 0.961 . S
H1757 C1769 0.959 . S
H1758 C1772 0.929 . S
H1759 C1773 0.931 . S
H1760 C1775 0.930 . S
C1761 H1749 0.930 . S
C1761 C1762 1.399 . S
C1761 C1766 1.399 . S
C1762 C1761 1.399 . S
C1762 C1763 1.376 . S
C1763 H1750 0.930 . S
C1763 C1762 1.376 . S
C1763 C1764 1.388 . S
C1764 H1751 0.930 . S
C1764 C1763 1.388 . S
C1764 C1765 1.390 . S
C1765 C1764 1.390 . S
C1765 C1766 1.394 . S
C1765 C1771 1.465 . S
C1766 C1761 1.399 . S
C1766 C1765 1.394 . S
C1766 C1767 1.516 . S
C1767 C1766 1.516 . S
C1767 C1768 1.502 . S
C1767 C1769 1.561 . S
C1767 C1770 1.526 . S
C1768 H1752 0.959 . S
C1768 H1753 0.959 . S
C1768 H1754 0.961 . S
C1768 C1767 1.502 . S
C1769 H1755 0.960 . S
C1769 H1756 0.961 . S
C1769 H1757 0.959 . S
C1769 C1767 1.561 . S
C1770 C1767 1.526 . S
C1770 C1771 1.396 . S
C1770 C1775 1.390 . S
C1771 C1765 1.465 . S
C1771 C1770 1.396 . S
C1771 C1772 1.399 . S
C1772 H1758 0.929 . S
C1772 C1771 1.399 . S
C1772 C1773 1.385 . S
C1773 H1759 0.931 . S
C1773 C1772 1.385 . S
C1773 C1774 1.389 . S
C1774 C1773 1.389 . S
C1774 C1775 1.387 . S
C1775 H1760 0.930 . S
C1775 C1770 1.390 . S
C1775 C1774 1.387 . S
H1776 C1788 0.930 . S
H1777 C1790 0.930 . S
H1778 C1791 0.930 . S
H1779 C1795 0.959 . S
H1780 C1795 0.959 . S
H1781 C1795 0.961 . S
H1782 C1796 0.960 . S
H1783 C1796 0.961 . S
H1784 C1796 0.959 . S
H1785 C1799 0.929 . S
H1786 C1800 0.931 . S
H1787 C1802 0.930 . S
C1788 H1776 0.930 . S
C1788 C1789 1.399 . S
C1788 C1793 1.399 . S
C1789 C1788 1.399 . S
C1789 C1790 1.376 . S
C1790 H1777 0.930 . S
C1790 C1789 1.376 . S
C1790 C1791 1.388 . S
C1791 H1778 0.930 . S
C1791 C1790 1.388 . S
C1791 C1792 1.390 . S
C1792 C1791 1.390 . S
C1792 C1793 1.394 . S
C1792 C1798 1.465 . S
C1793 C1788 1.399 . S
C1793 C1792 1.394 . S
C1793 C1794 1.516 . S
C1794 C1793 1.516 . S
C1794 C1795 1.502 . S
C1794 C1796 1.561 . S
C1794 C1797 1.526 . S
C1795 H1779 0.959 . S
C1795 H1780 0.959 . S
C1795 H1781 0.961 . S
C1795 C1794 1.502 . S
C1796 H1782 0.960 . S
C1796 H1783 0.961 . S
C1796 H1784 0.959 . S
C1796 C1794 1.561 . S
C1797 C1794 1.526 . S
C1797 C1798 1.396 . S
C1797 C1802 1.390 . S
C1798 C1792 1.465 . S
C1798 C1797 1.396 . S
C1798 C1799 1.399 . S
C1799 H1785 0.929 . S
C1799 C1798 1.399 . S
C1799 C1800 1.385 . S
C1800 H1786 0.931 . S
C1800 C1799 1.385 . S
C1800 C1801 1.389 . S
C1801 C1800 1.389 . S
C1801 C1802 1.387 . S
C1802 H1787 0.930 . S
C1802 C1797 1.390 . S
C1802 C1801 1.387 . S
H1803 C1815 0.930 . S
H1804 C1817 0.930 . S
H1805 C1818 0.930 . S
H1806 C1822 0.959 . S
H1807 C1822 0.959 . S
H1808 C1822 0.961 . S
H1809 C1823 0.960 . S
H1810 C1823 0.961 . S
H1811 C1823 0.959 . S
H1812 C1826 0.929 . S
H1813 C1827 0.931 . S
H1814 C1829 0.930 . S
C1815 H1803 0.930 . S
C1815 C1816 1.399 . S
C1815 C1820 1.399 . S
C1816 C1815 1.399 . S
C1816 C1817 1.376 . S
C1817 H1804 0.930 . S
C1817 C1816 1.376 . S
C1817 C1818 1.388 . S
C1818 H1805 0.930 . S
C1818 C1817 1.388 . S
C1818 C1819 1.390 . S
C1819 C1818 1.390 . S
C1819 C1820 1.394 . S
C1819 C1825 1.465 . S
C1820 C1815 1.399 . S
C1820 C1819 1.394 . S
C1820 C1821 1.516 . S
C1821 C1820 1.516 . S
C1821 C1822 1.502 . S
C1821 C1823 1.561 . S
C1821 C1824 1.526 . S
C1822 H1806 0.959 . S
C1822 H1807 0.959 . S
C1822 H1808 0.961 . S
C1822 C1821 1.502 . S
C1823 H1809 0.960 . S
C1823 H1810 0.961 . S
C1823 H1811 0.959 . S
C1823 C1821 1.561 . S
C1824 C1821 1.526 . S
C1824 C1825 1.396 . S
C1824 C1829 1.390 . S
C1825 C1819 1.465 . S
C1825 C1824 1.396 . S
C1825 C1826 1.399 . S
C1826 H1812 0.929 . S
C1826 C1825 1.399 . S
C1826 C1827 1.385 . S
C1827 H1813 0.931 . S
C1827 C1826 1.385 . S
C1827 C1828 1.389 . S
C1828 C1827 1.389 . S
C1828 C1829 1.387 . S
C1829 H1814 0.930 . S
C1829 C1824 1.390 . S
C1829 C1828 1.387 . S
H1830 C1842 0.930 . S
H1831 C1844 0.930 . S
H1832 C1845 0.930 . S
H1833 C1849 0.959 . S
H1834 C1849 0.959 . S
H1835 C1849 0.961 . S
H1836 C1850 0.960 . S
H1837 C1850 0.961 . S
H1838 C1850 0.959 . S
H1839 C1853 0.929 . S
H1840 C1854 0.931 . S
H1841 C1856 0.930 . S
C1842 H1830 0.930 . S
C1842 C1843 1.399 . S
C1842 C1847 1.399 . S
C1843 C1842 1.399 . S
C1843 C1844 1.376 . S
C1844 H1831 0.930 . S
C1844 C1843 1.376 . S
C1844 C1845 1.388 . S
C1845 H1832 0.930 . S
C1845 C1844 1.388 . S
C1845 C1846 1.390 . S
C1846 C1845 1.390 . S
C1846 C1847 1.394 . S
C1846 C1852 1.465 . S
C1847 C1842 1.399 . S
C1847 C1846 1.394 . S
C1847 C1848 1.516 . S
C1848 C1847 1.516 . S
C1848 C1849 1.502 . S
C1848 C1850 1.561 . S
C1848 C1851 1.526 . S
C1849 H1833 0.959 . S
C1849 H1834 0.959 . S
C1849 H1835 0.961 . S
C1849 C1848 1.502 . S
C1850 H1836 0.960 . S
C1850 H1837 0.961 . S
C1850 H1838 0.959 . S
C1850 C1848 1.561 . S
C1851 C1848 1.526 . S
C1851 C1852 1.396 . S
C1851 C1856 1.390 . S
C1852 C1846 1.465 . S
C1852 C1851 1.396 . S
C1852 C1853 1.399 . S
C1853 H1839 0.929 . S
C1853 C1852 1.399 . S
C1853 C1854 1.385 . S
C1854 H1840 0.931 . S
C1854 C1853 1.385 . S
C1854 C1855 1.389 . S
C1855 C1854 1.389 . S
C1855 C1856 1.387 . S
C1856 H1841 0.930 . S
C1856 C1851 1.390 . S
C1856 C1855 1.387 . S
H1857 C1869 0.930 . S
H1858 C1871 0.930 . S
H1859 C1872 0.930 . S
H1860 C1876 0.959 . S
H1861 C1876 0.959 . S
H1862 C1876 0.961 . S
H1863 C1877 0.960 . S
H1864 C1877 0.961 . S
H1865 C1877 0.959 . S
H1866 C1880 0.929 . S
H1867 C1881 0.931 . S
H1868 C1883 0.930 . S
C1869 H1857 0.930 . S
C1869 C1870 1.399 . S
C1869 C1874 1.399 . S
C1870 C1869 1.399 . S
C1870 C1871 1.376 . S
C1871 H1858 0.930 . S
C1871 C1870 1.376 . S
C1871 C1872 1.388 . S
C1872 H1859 0.930 . S
C1872 C1871 1.388 . S
C1872 C1873 1.390 . S
C1873 C1872 1.390 . S
C1873 C1874 1.394 . S
C1873 C1879 1.465 . S
C1874 C1869 1.399 . S
C1874 C1873 1.394 . S
C1874 C1875 1.516 . S
C1875 C1874 1.516 . S
C1875 C1876 1.502 . S
C1875 C1877 1.561 . S
C1875 C1878 1.526 . S
C1876 H1860 0.959 . S
C1876 H1861 0.959 . S
C1876 H1862 0.961 . S
C1876 C1875 1.502 . S
C1877 H1863 0.960 . S
C1877 H1864 0.961 . S
C1877 H1865 0.959 . S
C1877 C1875 1.561 . S
C1878 C1875 1.526 . S
C1878 C1879 1.396 . S
C1878 C1883 1.390 . S
C1879 C1873 1.465 . S
C1879 C1878 1.396 . S
C1879 C1880 1.399 . S
C1880 H1866 0.929 . S
C1880 C1879 1.399 . S
C1880 C1881 1.385 . S
C1881 H1867 0.931 . S
C1881 C1880 1.385 . S
C1881 C1882 1.389 . S
C1882 C1881 1.389 . S
C1882 C1883 1.387 . S
C1883 H1868 0.930 . S
C1883 C1878 1.390 . S
C1883 C1882 1.387 . S
H1884 C1896 0.930 . S
H1885 C1898 0.930 . S
H1886 C1899 0.930 . S
H1887 C1903 0.959 . S
H1888 C1903 0.959 . S
H1889 C1903 0.961 . S
H1890 C1904 0.960 . S
H1891 C1904 0.961 . S
H1892 C1904 0.959 . S
H1893 C1907 0.929 . S
H1894 C1908 0.931 . S
H1895 C1910 0.930 . S
C1896 H1884 0.930 . S
C1896 C1897 1.399 . S
C1896 C1901 1.399 . S
C1897 C1896 1.399 . S
C1897 C1898 1.376 . S
C1898 H1885 0.930 . S
C1898 C1897 1.376 . S
C1898 C1899 1.388 . S
C1899 H1886 0.930 . S
C1899 C1898 1.388 . S
C1899 C1900 1.390 . S
C1900 C1899 1.390 . S
C1900 C1901 1.394 . S
C1900 C1906 1.465 . S
C1901 C1896 1.399 . S
C1901 C1900 1.394 . S
C1901 C1902 1.516 . S
C1902 C1901 1.516 . S
C1902 C1903 1.502 . S
C1902 C1904 1.561 . S
C1902 C1905 1.526 . S
C1903 H1887 0.959 . S
C1903 H1888 0.959 . S
C1903 H1889 0.961 . S
C1903 C1902 1.502 . S
C1904 H1890 0.960 . S
C1904 H1891 0.961 . S
C1904 H1892 0.959 . S
C1904 C1902 1.561 . S
C1905 C1902 1.526 . S
C1905 C1906 1.396 . S
C1905 C1910 1.390 . S
C1906 C1900 1.465 . S
C1906 C1905 1.396 . S
C1906 C1907 1.399 . S
C1907 H1893 0.929 . S
C1907 C1906 1.399 . S
C1907 C1908 1.385 . S
C1908 H1894 0.931 . S
C1908 C1907 1.385 . S
C1908 C1909 1.389 . S
C1909 C1908 1.389 . S
C1909 C1910 1.387 . S
C1910 H1895 0.930 . S
C1910 C1905 1.390 . S
C1910 C1909 1.387 . S
H1911 C1923 0.930 . S
H1912 C1925 0.930 . S
H1913 C1926 0.930 . S
H1914 C1930 0.959 . S
H1915 C1930 0.959 . S
H1916 C1930 0.961 . S
H1917 C1931 0.960 . S
H1918 C1931 0.961 . S
H1919 C1931 0.959 . S
H1920 C1934 0.929 . S
H1921 C1935 0.931 . S
H1922 C1937 0.930 . S
C1923 H1911 0.930 . S
C1923 C1924 1.399 . S
C1923 C1928 1.399 . S
C1924 C1923 1.399 . S
C1924 C1925 1.376 . S
C1925 H1912 0.930 . S
C1925 C1924 1.376 . S
C1925 C1926 1.388 . S
C1926 H1913 0.930 . S
C1926 C1925 1.388 . S
C1926 C1927 1.390 . S
C1927 C1926 1.390 . S
C1927 C1928 1.394 . S
C1927 C1933 1.465 . S
C1928 C1923 1.399 . S
C1928 C1927 1.394 . S
C1928 C1929 1.516 . S
C1929 C1928 1.516 . S
C1929 C1930 1.502 . S
C1929 C1931 1.561 . S
C1929 C1932 1.526 . S
C1930 H1914 0.959 . S
C1930 H1915 0.959 . S
C1930 H1916 0.961 . S
C1930 C1929 1.502 . S
C1931 H1917 0.960 . S
C1931 H1918 0.961 . S
C1931 H1919 0.959 . S
C1931 C1929 1.561 . S
C1932 C1929 1.526 . S
C1932 C1933 1.396 . S
C1932 C1937 1.390 . S
C1933 C1927 1.465 . S
C1933 C1932 1.396 . S
C1933 C1934 1.399 . S
C1934 H1920 0.929 . S
C1934 C1933 1.399 . S
C1934 C1935 1.385 . S
C1935 H1921 0.931 . S
C1935 C1934 1.385 . S
C1935 C1936 1.389 . S
C1936 C1935 1.389 . S
C1936 C1937 1.387 . S
C1937 H1922 0.930 . S
C1937 C1932 1.390 . S
C1937 C1936 1.387 . S
H1938 C1950 0.930 . S
H1939 C1952 0.930 . S
H1940 C1953 0.930 . S
H1941 C1957 0.959 . S
H1942 C1957 0.959 . S
H1943 C1957 0.961 . S
H1944 C1958 0.960 . S
H1945 C1958 0.961 . S
H1946 C1958 0.959 . S
H1947 C1961 0.929 . S
H1948 C1962 0.931 . S
H1949 C1964 0.930 . S
C1950 H1938 0.930 . S
C1950 C1951 1.399 . S
C1950 C1955 1.399 . S
C1951 C1950 1.399 . S
C1951 C1952 1.376 . S
C1952 H1939 0.930 . S
C1952 C1951 1.376 . S
C1952 C1953 1.388 . S
C1953 H1940 0.930 . S
C1953 C1952 1.388 . S
C1953 C1954 1.390 . S
C1954 C1953 1.390 . S
C1954 C1955 1.394 . S
C1954 C1960 1.465 . S
C1955 C1950 1.399 . S
C1955 C1954 1.394 . S
C1955 C1956 1.516 . S
C1956 C1955 1.516 . S
C1956 C1957 1.502 . S
C1956 C1958 1.561 . S
C1956 C1959 1.526 . S
C1957 H1941 0.959 . S
C1957 H1942 0.959 . S
C1957 H1943 0.961 . S
C1957 C1956 1.502 . S
C1958 H1944 0.960 . S
C1958 H1945 0.961 . S
C1958 H1946 0.959 . S
C1958 C1956 1.561 . S
C1959 C1956 1.526 . S
C1959 C1960 1.396 . S
C1959 C1964 1.390 . S
C1960 C1954 1.465 . S
C1960 C1959 1.396 . S
C1960 C1961 1.399 . S
C1961 H1947 0.929 . S
C1961 C1960 1.399 . S
C1961 C1962 1.385 . S
C1962 H1948 0.931 . S
C1962 C1961 1.385 . S
C1962 C1963 1.389 . S
C1963 C1962 1.389 . S
C1963 C1964 1.387 . S
C1964 H1949 0.930 . S
C1964 C1959 1.390 . S
C1964 C1963 1.387 . S
H1965 C1977 0.930 . S
H1966 C1979 0.930 . S
H1967 C1980 0.930 . S
H1968 C1984 0.959 . S
H1969 C1984 0.959 . S
H1970 C1984 0.961 . S
H1971 C1985 0.960 . S
H1972 C1985 0.961 . S
H1973 C1985 0.959 . S
H1974 C1988 0.929 . S
H1975 C1989 0.931 . S
H1976 C1991 0.930 . S
C1977 H1965 0.930 . S
C1977 C1978 1.399 . S
C1977 C1982 1.399 . S
C1978 C1977 1.399 . S
C1978 C1979 1.376 . S
C1979 H1966 0.930 . S
C1979 C1978 1.376 . S
C1979 C1980 1.388 . S
C1980 H1967 0.930 . S
C1980 C1979 1.388 . S
C1980 C1981 1.390 . S
C1981 C1980 1.390 . S
C1981 C1982 1.394 . S
C1981 C1987 1.465 . S
C1982 C1977 1.399 . S
C1982 C1981 1.394 . S
C1982 C1983 1.516 . S
C1983 C1982 1.516 . S
C1983 C1984 1.502 . S
C1983 C1985 1.561 . S
C1983 C1986 1.526 . S
C1984 H1968 0.959 . S
C1984 H1969 0.959 . S
C1984 H1970 0.961 . S
C1984 C1983 1.502 . S
C1985 H1971 0.960 . S
C1985 H1972 0.961 . S
C1985 H1973 0.959 . S
C1985 C1983 1.561 . S
C1986 C1983 1.526 . S
C1986 C1987 1.396 . S
C1986 C1991 1.390 . S
C1987 C1981 1.465 . S
C1987 C1986 1.396 . S
C1987 C1988 1.399 . S
C1988 H1974 0.929 . S
C1988 C1987 1.399 . S
C1988 C1989 1.385 . S
C1989 H1975 0.931 . S
C1989 C1988 1.385 . S
C1989 C1990 1.389 . S
C1990 C1989 1.389 . S
C1990 C1991 1.387 . S
C1991 H1976 0.930 . S
C1991 C1986 1.390 . S
C1991 C1990 1.387 . S
H1992 C2004 0.930 . S
H1993 C2006 0.930 . S
H1994 C2007 0.930 . S
H1995 C2011 0.959 . S
H1996 C2011 0.959 . S
H1997 C2011 0.961 . S
H1998 C2012 0.960 . S
H1999 C2012 0.961 . S
H2000 C2012 0.959 . S
H2001 C2015 0.929 . S
H2002 C2016 0.931 . S
H2003 C2018 0.930 . S
C2004 H1992 0.930 . S
C2004 C2005 1.399 . S
C2004 C2009 1.399 . S
C2005 C2004 1.399 . S
C2005 C2006 1.376 . S
C2006 H1993 0.930 . S
C2006 C2005 1.376 . S
C2006 C2007 1.388 . S
C2007 H1994 0.930 . S
C2007 C2006 1.388 . S
C2007 C2008 1.390 . S
C2008 C2007 1.390 . S
C2008 C2009 1.394 . S
C2008 C2014 1.465 . S
C2009 C2004 1.399 . S
C2009 C2008 1.394 . S
C2009 C2010 1.516 . S
C2010 C2009 1.516 . S
C2010 C2011 1.502 . S
C2010 C2012 1.561 . S
C2010 C2013 1.526 . S
C2011 H1995 0.959 . S
C2011 H1996 0.959 . S
C2011 H1997 0.961 . S
C2011 C2010 1.502 . S
C2012 H1998 0.960 . S
C2012 H1999 0.961 . S
C2012 H2000 0.959 . S
C2012 C2010 1.561 . S
C2013 C2010 1.526 . S
C2013 C2014 1.396 . S
C2013 C2018 1.390 . S
C2014 C2008 1.465 . S
C2014 C2013 1.396 . S
C2014 C2015 1.399 . S
C2015 H2001 0.929 . S
C2015 C2014 1.399 . S
C2015 C2016 1.385 . S
C2016 H2002 0.931 . S
C2016 C2015 1.385 . S
C2016 C2017 1.389 . S
C2017 C2016 1.389 . S
C2017 C2018 1.387 . S
C2018 H2003 0.930 . S
C2018 C2013 1.390 . S
C2018 C2017 1.387 . S
H2019 C2031 0.930 . S
H2020 C2033 0.930 . S
H2021 C2034 0.930 . S
H2022 C2038 0.959 . S
H2023 C2038 0.959 . S
H2024 C2038 0.961 . S
H2025 C2039 0.960 . S
H2026 C2039 0.961 . S
H2027 C2039 0.959 . S
H2028 C2042 0.929 . S
H2029 C2043 0.931 . S
H2030 C2045 0.930 . S
C2031 H2019 0.930 . S
C2031 C2032 1.399 . S
C2031 C2036 1.399 . S
C2032 C2031 1.399 . S
C2032 C2033 1.376 . S
C2033 H2020 0.930 . S
C2033 C2032 1.376 . S
C2033 C2034 1.388 . S
C2034 H2021 0.930 . S
C2034 C2033 1.388 . S
C2034 C2035 1.390 . S
C2035 C2034 1.390 . S
C2035 C2036 1.394 . S
C2035 C2041 1.465 . S
C2036 C2031 1.399 . S
C2036 C2035 1.394 . S
C2036 C2037 1.516 . S
C2037 C2036 1.516 . S
C2037 C2038 1.502 . S
C2037 C2039 1.561 . S
C2037 C2040 1.526 . S
C2038 H2022 0.959 . S
C2038 H2023 0.959 . S
C2038 H2024 0.961 . S
C2038 C2037 1.502 . S
C2039 H2025 0.960 . S
C2039 H2026 0.961 . S
C2039 H2027 0.959 . S
C2039 C2037 1.561 . S
C2040 C2037 1.526 . S
C2040 C2041 1.396 . S
C2040 C2045 1.390 . S
C2041 C2035 1.465 . S
C2041 C2040 1.396 . S
C2041 C2042 1.399 . S
C2042 H2028 0.929 . S
C2042 C2041 1.399 . S
C2042 C2043 1.385 . S
C2043 H2029 0.931 . S
C2043 C2042 1.385 . S
C2043 C2044 1.389 . S
C2044 C2043 1.389 . S
C2044 C2045 1.387 . S
C2045 H2030 0.930 . S
C2045 C2040 1.390 . S
C2045 C2044 1.387 . S
H2046 C2058 0.930 . S
H2047 C2060 0.930 . S
H2048 C2061 0.930 . S
H2049 C2065 0.959 . S
H2050 C2065 0.959 . S
H2051 C2065 0.961 . S
H2052 C2066 0.960 . S
H2053 C2066 0.961 . S
H2054 C2066 0.959 . S
H2055 C2069 0.929 . S
H2056 C2070 0.931 . S
H2057 C2072 0.930 . S
C2058 H2046 0.930 . S
C2058 C2059 1.399 . S
C2058 C2063 1.399 . S
C2059 C2058 1.399 . S
C2059 C2060 1.376 . S
C2060 H2047 0.930 . S
C2060 C2059 1.376 . S
C2060 C2061 1.388 . S
C2061 H2048 0.930 . S
C2061 C2060 1.388 . S
C2061 C2062 1.390 . S
C2062 C2061 1.390 . S
C2062 C2063 1.394 . S
C2062 C2068 1.465 . S
C2063 C2058 1.399 . S
C2063 C2062 1.394 . S
C2063 C2064 1.516 . S
C2064 C2063 1.516 . S
C2064 C2065 1.502 . S
C2064 C2066 1.561 . S
C2064 C2067 1.526 . S
C2065 H2049 0.959 . S
C2065 H2050 0.959 . S
C2065 H2051 0.961 . S
C2065 C2064 1.502 . S
C2066 H2052 0.960 . S
C2066 H2053 0.961 . S
C2066 H2054 0.959 . S
C2066 C2064 1.561 . S
C2067 C2064 1.526 . S
C2067 C2068 1.396 . S
C2067 C2072 1.390 . S
C2068 C2062 1.465 . S
C2068 C2067 1.396 . S
C2068 C2069 1.399 . S
C2069 H2055 0.929 . S
C2069 C2068 1.399 . S
C2069 C2070 1.385 . S
C2070 H2056 0.931 . S
C2070 C2069 1.385 . S
C2070 C2071 1.389 . S
C2071 C2070 1.389 . S
C2071 C2072 1.387 . S
C2072 H2057 0.930 . S
C2072 C2067 1.390 . S
C2072 C2071 1.387 . S
H2073 C2085 0.930 . S
H2074 C2087 0.930 . S
H2075 C2088 0.930 . S
H2076 C2092 0.959 . S
H2077 C2092 0.959 . S
H2078 C2092 0.961 . S
H2079 C2093 0.960 . S
H2080 C2093 0.961 . S
H2081 C2093 0.959 . S
H2082 C2096 0.929 . S
H2083 C2097 0.931 . S
H2084 C2099 0.930 . S
C2085 H2073 0.930 . S
C2085 C2086 1.399 . S
C2085 C2090 1.399 . S
C2086 C2085 1.399 . S
C2086 C2087 1.376 . S
C2087 H2074 0.930 . S
C2087 C2086 1.376 . S
C2087 C2088 1.388 . S
C2088 H2075 0.930 . S
C2088 C2087 1.388 . S
C2088 C2089 1.390 . S
C2089 C2088 1.390 . S
C2089 C2090 1.394 . S
C2089 C2095 1.465 . S
C2090 C2085 1.399 . S
C2090 C2089 1.394 . S
C2090 C2091 1.516 . S
C2091 C2090 1.516 . S
C2091 C2092 1.502 . S
C2091 C2093 1.561 . S
C2091 C2094 1.526 . S
C2092 H2076 0.959 . S
C2092 H2077 0.959 . S
C2092 H2078 0.961 . S
C2092 C2091 1.502 . S
C2093 H2079 0.960 . S
C2093 H2080 0.961 . S
C2093 H2081 0.959 . S
C2093 C2091 1.561 . S
C2094 C2091 1.526 . S
C2094 C2095 1.396 . S
C2094 C2099 1.390 . S
C2095 C2089 1.465 . S
C2095 C2094 1.396 . S
C2095 C2096 1.399 . S
C2096 H2082 0.929 . S
C2096 C2095 1.399 . S
C2096 C2097 1.385 . S
C2097 H2083 0.931 . S
C2097 C2096 1.385 . S
C2097 C2098 1.389 . S
C2098 C2097 1.389 . S
C2098 C2099 1.387 . S
C2099 H2084 0.930 . S
C2099 C2094 1.390 . S
C2099 C2098 1.387 . S
H2100 C2112 0.930 . S
H2101 C2114 0.930 . S
H2102 C2115 0.930 . S
H2103 C2119 0.959 . S
H2104 C2119 0.959 . S
H2105 C2119 0.961 . S
H2106 C2120 0.960 . S
H2107 C2120 0.961 . S
H2108 C2120 0.959 . S
H2109 C2123 0.929 . S
H2110 C2124 0.931 . S
H2111 C2126 0.930 . S
C2112 H2100 0.930 . S
C2112 C2113 1.399 . S
C2112 C2117 1.399 . S
C2113 C2112 1.399 . S
C2113 C2114 1.376 . S
C2114 H2101 0.930 . S
C2114 C2113 1.376 . S
C2114 C2115 1.388 . S
C2115 H2102 0.930 . S
C2115 C2114 1.388 . S
C2115 C2116 1.390 . S
C2116 C2115 1.390 . S
C2116 C2117 1.394 . S
C2116 C2122 1.465 . S
C2117 C2112 1.399 . S
C2117 C2116 1.394 . S
C2117 C2118 1.516 . S
C2118 C2117 1.516 . S
C2118 C2119 1.502 . S
C2118 C2120 1.561 . S
C2118 C2121 1.526 . S
C2119 H2103 0.959 . S
C2119 H2104 0.959 . S
C2119 H2105 0.961 . S
C2119 C2118 1.502 . S
C2120 H2106 0.960 . S
C2120 H2107 0.961 . S
C2120 H2108 0.959 . S
C2120 C2118 1.561 . S
C2121 C2118 1.526 . S
C2121 C2122 1.396 . S
C2121 C2126 1.390 . S
C2122 C2116 1.465 . S
C2122 C2121 1.396 . S
C2122 C2123 1.399 . S
C2123 H2109 0.929 . S
C2123 C2122 1.399 . S
C2123 C2124 1.385 . S
C2124 H2110 0.931 . S
C2124 C2123 1.385 . S
C2124 C2125 1.389 . S
C2125 C2124 1.389 . S
C2125 C2126 1.387 . S
C2126 H2111 0.930 . S
C2126 C2121 1.390 . S
C2126 C2125 1.387 . S
H2127 C2139 0.930 . S
H2128 C2141 0.930 . S
H2129 C2142 0.930 . S
H2130 C2146 0.959 . S
H2131 C2146 0.959 . S
H2132 C2146 0.961 . S
H2133 C2147 0.960 . S
H2134 C2147 0.961 . S
H2135 C2147 0.959 . S
H2136 C2150 0.929 . S
H2137 C2151 0.931 . S
H2138 C2153 0.930 . S
C2139 H2127 0.930 . S
C2139 C2140 1.399 . S
C2139 C2144 1.399 . S
C2140 C2139 1.399 . S
C2140 C2141 1.376 . S
C2141 H2128 0.930 . S
C2141 C2140 1.376 . S
C2141 C2142 1.388 . S
C2142 H2129 0.930 . S
C2142 C2141 1.388 . S
C2142 C2143 1.390 . S
C2143 C2142 1.390 . S
C2143 C2144 1.394 . S
C2143 C2149 1.465 . S
C2144 C2139 1.399 . S
C2144 C2143 1.394 . S
C2144 C2145 1.516 . S
C2145 C2144 1.516 . S
C2145 C2146 1.502 . S
C2145 C2147 1.561 . S
C2145 C2148 1.526 . S
C2146 H2130 0.959 . S
C2146 H2131 0.959 . S
C2146 H2132 0.961 . S
C2146 C2145 1.502 . S
C2147 H2133 0.960 . S
C2147 H2134 0.961 . S
C2147 H2135 0.959 . S
C2147 C2145 1.561 . S
C2148 C2145 1.526 . S
C2148 C2149 1.396 . S
C2148 C2153 1.390 . S
C2149 C2143 1.465 . S
C2149 C2148 1.396 . S
C2149 C2150 1.399 . S
C2150 H2136 0.929 . S
C2150 C2149 1.399 . S
C2150 C2151 1.385 . S
C2151 H2137 0.931 . S
C2151 C2150 1.385 . S
C2151 C2152 1.389 . S
C2152 C2151 1.389 . S
C2152 C2153 1.387 . S
C2153 H2138 0.930 . S
C2153 C2148 1.390 . S
C2153 C2152 1.387 . S
H2154 C2166 0.930 . S
H2155 C2168 0.930 . S
H2156 C2169 0.930 . S
H2157 C2173 0.959 . S
H2158 C2173 0.959 . S
H2159 C2173 0.961 . S
H2160 C2174 0.960 . S
H2161 C2174 0.961 . S
H2162 C2174 0.959 . S
H2163 C2177 0.929 . S
H2164 C2178 0.931 . S
H2165 C2180 0.930 . S
C2166 H2154 0.930 . S
C2166 C2167 1.399 . S
C2166 C2171 1.399 . S
C2167 C2166 1.399 . S
C2167 C2168 1.376 . S
C2168 H2155 0.930 . S
C2168 C2167 1.376 . S
C2168 C2169 1.388 . S
C2169 H2156 0.930 . S
C2169 C2168 1.388 . S
C2169 C2170 1.390 . S
C2170 C2169 1.390 . S
C2170 C2171 1.394 . S
C2170 C2176 1.465 . S
C2171 C2166 1.399 . S
C2171 C2170 1.394 . S
C2171 C2172 1.516 . S
C2172 C2171 1.516 . S
C2172 C2173 1.502 . S
C2172 C2174 1.561 . S
C2172 C2175 1.526 . S
C2173 H2157 0.959 . S
C2173 H2158 0.959 . S
C2173 H2159 0.961 . S
C2173 C2172 1.502 . S
C2174 H2160 0.960 . S
C2174 H2161 0.961 . S
C2174 H2162 0.959 . S
C2174 C2172 1.561 . S
C2175 C2172 1.526 . S
C2175 C2176 1.396 . S
C2175 C2180 1.390 . S
C2176 C2170 1.465 . S
C2176 C2175 1.396 . S
C2176 C2177 1.399 . S
C2177 H2163 0.929 . S
C2177 C2176 1.399 . S
C2177 C2178 1.385 . S
C2178 H2164 0.931 . S
C2178 C2177 1.385 . S
C2178 C2179 1.389 . S
C2179 C2178 1.389 . S
C2179 C2180 1.387 . S
C2180 H2165 0.930 . S
C2180 C2175 1.390 . S
C2180 C2179 1.387 . S
H2181 C2193 0.930 . S
H2182 C2195 0.930 . S
H2183 C2196 0.930 . S
H2184 C2200 0.959 . S
H2185 C2200 0.959 . S
H2186 C2200 0.961 . S
H2187 C2201 0.960 . S
H2188 C2201 0.961 . S
H2189 C2201 0.959 . S
H2190 C2204 0.929 . S
H2191 C2205 0.931 . S
H2192 C2207 0.930 . S
C2193 H2181 0.930 . S
C2193 C2194 1.399 . S
C2193 C2198 1.399 . S
C2194 C2193 1.399 . S
C2194 C2195 1.376 . S
C2195 H2182 0.930 . S
C2195 C2194 1.376 . S
C2195 C2196 1.388 . S
C2196 H2183 0.930 . S
C2196 C2195 1.388 . S
C2196 C2197 1.390 . S
C2197 C2196 1.390 . S
C2197 C2198 1.394 . S
C2197 C2203 1.465 . S
C2198 C2193 1.399 . S
C2198 C2197 1.394 . S
C2198 C2199 1.516 . S
C2199 C2198 1.516 . S
C2199 C2200 1.502 . S
C2199 C2201 1.561 . S
C2199 C2202 1.526 . S
C2200 H2184 0.959 . S
C2200 H2185 0.959 . S
C2200 H2186 0.961 . S
C2200 C2199 1.502 . S
C2201 H2187 0.960 . S
C2201 H2188 0.961 . S
C2201 H2189 0.959 . S
C2201 C2199 1.561 . S
C2202 C2199 1.526 . S
C2202 C2203 1.396 . S
C2202 C2207 1.390 . S
C2203 C2197 1.465 . S
C2203 C2202 1.396 . S
C2203 C2204 1.399 . S
C2204 H2190 0.929 . S
C2204 C2203 1.399 . S
C2204 C2205 1.385 . S
C2205 H2191 0.931 . S
C2205 C2204 1.385 . S
C2205 C2206 1.389 . S
C2206 C2205 1.389 . S
C2206 C2207 1.387 . S
C2207 H2192 0.930 . S
C2207 C2202 1.390 . S
C2207 C2206 1.387 . S
H2208 C2220 0.930 . S
H2209 C2222 0.930 . S
H2210 C2223 0.930 . S
H2211 C2227 0.959 . S
H2212 C2227 0.959 . S
H2213 C2227 0.961 . S
H2214 C2228 0.960 . S
H2215 C2228 0.961 . S
H2216 C2228 0.959 . S
H2217 C2231 0.929 . S
H2218 C2232 0.931 . S
H2219 C2234 0.930 . S
C2220 H2208 0.930 . S
C2220 C2221 1.399 . S
C2220 C2225 1.399 . S
C2221 C2220 1.399 . S
C2221 C2222 1.376 . S
C2222 H2209 0.930 . S
C2222 C2221 1.376 . S
C2222 C2223 1.388 . S
C2223 H2210 0.930 . S
C2223 C2222 1.388 . S
C2223 C2224 1.390 . S
C2224 C2223 1.390 . S
C2224 C2225 1.394 . S
C2224 C2230 1.465 . S
C2225 C2220 1.399 . S
C2225 C2224 1.394 . S
C2225 C2226 1.516 . S
C2226 C2225 1.516 . S
C2226 C2227 1.502 . S
C2226 C2228 1.561 . S
C2226 C2229 1.526 . S
C2227 H2211 0.959 . S
C2227 H2212 0.959 . S
C2227 H2213 0.961 . S
C2227 C2226 1.502 . S
C2228 H2214 0.960 . S
C2228 H2215 0.961 . S
C2228 H2216 0.959 . S
C2228 C2226 1.561 . S
C2229 C2226 1.526 . S
C2229 C2230 1.396 . S
C2229 C2234 1.390 . S
C2230 C2224 1.465 . S
C2230 C2229 1.396 . S
C2230 C2231 1.399 . S
C2231 H2217 0.929 . S
C2231 C2230 1.399 . S
C2231 C2232 1.385 . S
C2232 H2218 0.931 . S
C2232 C2231 1.385 . S
C2232 C2233 1.389 . S
C2233 C2232 1.389 . S
C2233 C2234 1.387 . S
C2234 H2219 0.930 . S
C2234 C2229 1.390 . S
C2234 C2233 1.387 . S
H2235 C2247 0.930 . S
H2236 C2249 0.930 . S
H2237 C2250 0.930 . S
H2238 C2254 0.959 . S
H2239 C2254 0.959 . S
H2240 C2254 0.961 . S
H2241 C2255 0.960 . S
H2242 C2255 0.961 . S
H2243 C2255 0.959 . S
H2244 C2258 0.929 . S
H2245 C2259 0.931 . S
H2246 C2261 0.930 . S
C2247 H2235 0.930 . S
C2247 C2248 1.399 . S
C2247 C2252 1.399 . S
C2248 C2247 1.399 . S
C2248 C2249 1.376 . S
C2249 H2236 0.930 . S
C2249 C2248 1.376 . S
C2249 C2250 1.388 . S
C2250 H2237 0.930 . S
C2250 C2249 1.388 . S
C2250 C2251 1.390 . S
C2251 C2250 1.390 . S
C2251 C2252 1.394 . S
C2251 C2257 1.465 . S
C2252 C2247 1.399 . S
C2252 C2251 1.394 . S
C2252 C2253 1.516 . S
C2253 C2252 1.516 . S
C2253 C2254 1.502 . S
C2253 C2255 1.561 . S
C2253 C2256 1.526 . S
C2254 H2238 0.959 . S
C2254 H2239 0.959 . S
C2254 H2240 0.961 . S
C2254 C2253 1.502 . S
C2255 H2241 0.960 . S
C2255 H2242 0.961 . S
C2255 H2243 0.959 . S
C2255 C2253 1.561 . S
C2256 C2253 1.526 . S
C2256 C2257 1.396 . S
C2256 C2261 1.390 . S
C2257 C2251 1.465 . S
C2257 C2256 1.396 . S
C2257 C2258 1.399 . S
C2258 H2244 0.929 . S
C2258 C2257 1.399 . S
C2258 C2259 1.385 . S
C2259 H2245 0.931 . S
C2259 C2258 1.385 . S
C2259 C2260 1.389 . S
C2260 C2259 1.389 . S
C2260 C2261 1.387 . S
C2261 H2246 0.930 . S
C2261 C2256 1.390 . S
C2261 C2260 1.387 . S
H2262 C2274 0.930 . S
H2263 C2276 0.930 . S
H2264 C2277 0.930 . S
H2265 C2281 0.959 . S
H2266 C2281 0.959 . S
H2267 C2281 0.961 . S
H2268 C2282 0.960 . S
H2269 C2282 0.961 . S
H2270 C2282 0.959 . S
H2271 C2285 0.929 . S
H2272 C2286 0.931 . S
H2273 C2288 0.930 . S
C2274 H2262 0.930 . S
C2274 C2275 1.399 . S
C2274 C2279 1.399 . S
C2275 C2274 1.399 . S
C2275 C2276 1.376 . S
C2276 H2263 0.930 . S
C2276 C2275 1.376 . S
C2276 C2277 1.388 . S
C2277 H2264 0.930 . S
C2277 C2276 1.388 . S
C2277 C2278 1.390 . S
C2278 C2277 1.390 . S
C2278 C2279 1.394 . S
C2278 C2284 1.465 . S
C2279 C2274 1.399 . S
C2279 C2278 1.394 . S
C2279 C2280 1.516 . S
C2280 C2279 1.516 . S
C2280 C2281 1.502 . S
C2280 C2282 1.561 . S
C2280 C2283 1.526 . S
C2281 H2265 0.959 . S
C2281 H2266 0.959 . S
C2281 H2267 0.961 . S
C2281 C2280 1.502 . S
C2282 H2268 0.960 . S
C2282 H2269 0.961 . S
C2282 H2270 0.959 . S
C2282 C2280 1.561 . S
C2283 C2280 1.526 . S
C2283 C2284 1.396 . S
C2283 C2288 1.390 . S
C2284 C2278 1.465 . S
C2284 C2283 1.396 . S
C2284 C2285 1.399 . S
C2285 H2271 0.929 . S
C2285 C2284 1.399 . S
C2285 C2286 1.385 . S
C2286 H2272 0.931 . S
C2286 C2285 1.385 . S
C2286 C2287 1.389 . S
C2287 C2286 1.389 . S
C2287 C2288 1.387 . S
C2288 H2273 0.930 . S
C2288 C2283 1.390 . S
C2288 C2287 1.387 . S
H2289 C2301 0.930 . S
H2290 C2303 0.930 . S
H2291 C2304 0.930 . S
H2292 C2308 0.959 . S
H2293 C2308 0.959 . S
H2294 C2308 0.961 . S
H2295 C2309 0.960 . S
H2296 C2309 0.961 . S
H2297 C2309 0.959 . S
H2298 C2312 0.929 . S
H2299 C2313 0.931 . S
H2300 C2315 0.930 . S
C2301 H2289 0.930 . S
C2301 C2302 1.399 . S
C2301 C2306 1.399 . S
C2302 C2301 1.399 . S
C2302 C2303 1.376 . S
C2303 H2290 0.930 . S
C2303 C2302 1.376 . S
C2303 C2304 1.388 . S
C2304 H2291 0.930 . S
C2304 C2303 1.388 . S
C2304 C2305 1.390 . S
C2305 C2304 1.390 . S
C2305 C2306 1.394 . S
C2305 C2311 1.465 . S
C2306 C2301 1.399 . S
C2306 C2305 1.394 . S
C2306 C2307 1.516 . S
C2307 C2306 1.516 . S
C2307 C2308 1.502 . S
C2307 C2309 1.561 . S
C2307 C2310 1.526 . S
C2308 H2292 0.959 . S
C2308 H2293 0.959 . S
C2308 H2294 0.961 . S
C2308 C2307 1.502 . S
C2309 H2295 0.960 . S
C2309 H2296 0.961 . S
C2309 H2297 0.959 . S
C2309 C2307 1.561 . S
C2310 C2307 1.526 . S
C2310 C2311 1.396 . S
C2310 C2315 1.390 . S
C2311 C2305 1.465 . S
C2311 C2310 1.396 . S
C2311 C2312 1.399 . S
C2312 H2298 0.929 . S
C2312 C2311 1.399 . S
C2312 C2313 1.385 . S
C2313 H2299 0.931 . S
C2313 C2312 1.385 . S
C2313 C2314 1.389 . S
C2314 C2313 1.389 . S
C2314 C2315 1.387 . S
C2315 H2300 0.930 . S
C2315 C2310 1.390 . S
C2315 C2314 1.387 . S
H2316 C2328 0.930 . S
H2317 C2330 0.930 . S
H2318 C2331 0.930 . S
H2319 C2335 0.959 . S
H2320 C2335 0.959 . S
H2321 C2335 0.961 . S
H2322 C2336 0.960 . S
H2323 C2336 0.961 . S
H2324 C2336 0.959 . S
H2325 C2339 0.929 . S
H2326 C2340 0.931 . S
H2327 C2342 0.930 . S
C2328 H2316 0.930 . S
C2328 C2329 1.399 . S
C2328 C2333 1.399 . S
C2329 C2328 1.399 . S
C2329 C2330 1.376 . S
C2330 H2317 0.930 . S
C2330 C2329 1.376 . S
C2330 C2331 1.388 . S
C2331 H2318 0.930 . S
C2331 C2330 1.388 . S
C2331 C2332 1.390 . S
C2332 C2331 1.390 . S
C2332 C2333 1.394 . S
C2332 C2338 1.465 . S
C2333 C2328 1.399 . S
C2333 C2332 1.394 . S
C2333 C2334 1.516 . S
C2334 C2333 1.516 . S
C2334 C2335 1.502 . S
C2334 C2336 1.561 . S
C2334 C2337 1.526 . S
C2335 H2319 0.959 . S
C2335 H2320 0.959 . S
C2335 H2321 0.961 . S
C2335 C2334 1.502 . S
C2336 H2322 0.960 . S
C2336 H2323 0.961 . S
C2336 H2324 0.959 . S
C2336 C2334 1.561 . S
C2337 C2334 1.526 . S
C2337 C2338 1.396 . S
C2337 C2342 1.390 . S
C2338 C2332 1.465 . S
C2338 C2337 1.396 . S
C2338 C2339 1.399 . S
C2339 H2325 0.929 . S
C2339 C2338 1.399 . S
C2339 C2340 1.385 . S
C2340 H2326 0.931 . S
C2340 C2339 1.385 . S
C2340 C2341 1.389 . S
C2341 C2340 1.389 . S
C2341 C2342 1.387 . S
C2342 H2327 0.930 . S
C2342 C2337 1.390 . S
C2342 C2341 1.387 . S
H2343 C2355 0.930 . S
H2344 C2357 0.930 . S
H2345 C2358 0.930 . S
H2346 C2362 0.959 . S
H2347 C2362 0.959 . S
H2348 C2362 0.961 . S
H2349 C2363 0.960 . S
H2350 C2363 0.961 . S
H2351 C2363 0.959 . S
H2352 C2366 0.929 . S
H2353 C2367 0.931 . S
H2354 C2369 0.930 . S
C2355 H2343 0.930 . S
C2355 C2356 1.399 . S
C2355 C2360 1.399 . S
C2356 C2355 1.399 . S
C2356 C2357 1.376 . S
C2357 H2344 0.930 . S
C2357 C2356 1.376 . S
C2357 C2358 1.388 . S
C2358 H2345 0.930 . S
C2358 C2357 1.388 . S
C2358 C2359 1.390 . S
C2359 C2358 1.390 . S
C2359 C2360 1.394 . S
C2359 C2365 1.465 . S
C2360 C2355 1.399 . S
C2360 C2359 1.394 . S
C2360 C2361 1.516 . S
C2361 C2360 1.516 . S
C2361 C2362 1.502 . S
C2361 C2363 1.561 . S
C2361 C2364 1.526 . S
C2362 H2346 0.959 . S
C2362 H2347 0.959 . S
C2362 H2348 0.961 . S
C2362 C2361 1.502 . S
C2363 H2349 0.960 . S
C2363 H2350 0.961 . S
C2363 H2351 0.959 . S
C2363 C2361 1.561 . S
C2364 C2361 1.526 . S
C2364 C2365 1.396 . S
C2364 C2369 1.390 . S
C2365 C2359 1.465 . S
C2365 C2364 1.396 . S
C2365 C2366 1.399 . S
C2366 H2352 0.929 . S
C2366 C2365 1.399 . S
C2366 C2367 1.385 . S
C2367 H2353 0.931 . S
C2367 C2366 1.385 . S
C2367 C2368 1.389 . S
C2368 C2367 1.389 . S
C2368 C2369 1.387 . S
C2369 H2354 0.930 . S
C2369 C2364 1.390 . S
C2369 C2368 1.387 . S
H2370 C2382 0.930 . S
H2371 C2384 0.930 . S
H2372 C2385 0.930 . S
H2373 C2389 0.959 . S
H2374 C2389 0.959 . S
H2375 C2389 0.961 . S
H2376 C2390 0.960 . S
H2377 C2390 0.961 . S
H2378 C2390 0.959 . S
H2379 C2393 0.929 . S
H2380 C2394 0.931 . S
H2381 C2396 0.930 . S
C2382 H2370 0.930 . S
C2382 C2383 1.399 . S
C2382 C2387 1.399 . S
C2383 C2382 1.399 . S
C2383 C2384 1.376 . S
C2384 H2371 0.930 . S
C2384 C2383 1.376 . S
C2384 C2385 1.388 . S
C2385 H2372 0.930 . S
C2385 C2384 1.388 . S
C2385 C2386 1.390 . S
C2386 C2385 1.390 . S
C2386 C2387 1.394 . S
C2386 C2392 1.465 . S
C2387 C2382 1.399 . S
C2387 C2386 1.394 . S
C2387 C2388 1.516 . S
C2388 C2387 1.516 . S
C2388 C2389 1.502 . S
C2388 C2390 1.561 . S
C2388 C2391 1.526 . S
C2389 H2373 0.959 . S
C2389 H2374 0.959 . S
C2389 H2375 0.961 . S
C2389 C2388 1.502 . S
C2390 H2376 0.960 . S
C2390 H2377 0.961 . S
C2390 H2378 0.959 . S
C2390 C2388 1.561 . S
C2391 C2388 1.526 . S
C2391 C2392 1.396 . S
C2391 C2396 1.390 . S
C2392 C2386 1.465 . S
C2392 C2391 1.396 . S
C2392 C2393 1.399 . S
C2393 H2379 0.929 . S
C2393 C2392 1.399 . S
C2393 C2394 1.385 . S
C2394 H2380 0.931 . S
C2394 C2393 1.385 . S
C2394 C2395 1.389 . S
C2395 C2394 1.389 . S
C2395 C2396 1.387 . S
C2396 H2381 0.930 . S
C2396 C2391 1.390 . S
C2396 C2395 1.387 . S
H2397 C2409 0.930 . S
H2398 C2411 0.930 . S
H2399 C2412 0.930 . S
H2400 C2416 0.959 . S
H2401 C2416 0.959 . S
H2402 C2416 0.961 . S
H2403 C2417 0.960 . S
H2404 C2417 0.961 . S
H2405 C2417 0.959 . S
H2406 C2420 0.929 . S
H2407 C2421 0.931 . S
H2408 C2423 0.930 . S
C2409 H2397 0.930 . S
C2409 C2410 1.399 . S
C2409 C2414 1.399 . S
C2410 C2409 1.399 . S
C2410 C2411 1.376 . S
C2411 H2398 0.930 . S
C2411 C2410 1.376 . S
C2411 C2412 1.388 . S
C2412 H2399 0.930 . S
C2412 C2411 1.388 . S
C2412 C2413 1.390 . S
C2413 C2412 1.390 . S
C2413 C2414 1.394 . S
C2413 C2419 1.465 . S
C2414 C2409 1.399 . S
C2414 C2413 1.394 . S
C2414 C2415 1.516 . S
C2415 C2414 1.516 . S
C2415 C2416 1.502 . S
C2415 C2417 1.561 . S
C2415 C2418 1.526 . S
C2416 H2400 0.959 . S
C2416 H2401 0.959 . S
C2416 H2402 0.961 . S
C2416 C2415 1.502 . S
C2417 H2403 0.960 . S
C2417 H2404 0.961 . S
C2417 H2405 0.959 . S
C2417 C2415 1.561 . S
C2418 C2415 1.526 . S
C2418 C2419 1.396 . S
C2418 C2423 1.390 . S
C2419 C2413 1.465 . S
C2419 C2418 1.396 . S
C2419 C2420 1.399 . S
C2420 H2406 0.929 . S
C2420 C2419 1.399 . S
C2420 C2421 1.385 . S
C2421 H2407 0.931 . S
C2421 C2420 1.385 . S
C2421 C2422 1.389 . S
C2422 C2421 1.389 . S
C2422 C2423 1.387 . S
C2423 H2408 0.930 . S
C2423 C2418 1.390 . S
C2423 C2422 1.387 . S
H2424 C2436 0.930 . S
H2425 C2438 0.930 . S
H2426 C2439 0.930 . S
H2427 C2443 0.959 . S
H2428 C2443 0.959 . S
H2429 C2443 0.961 . S
H2430 C2444 0.960 . S
H2431 C2444 0.961 . S
H2432 C2444 0.959 . S
H2433 C2447 0.929 . S
H2434 C2448 0.931 . S
H2435 C2450 0.930 . S
C2436 H2424 0.930 . S
C2436 C2437 1.399 . S
C2436 C2441 1.399 . S
C2437 C2436 1.399 . S
C2437 C2438 1.376 . S
C2438 H2425 0.930 . S
C2438 C2437 1.376 . S
C2438 C2439 1.388 . S
C2439 H2426 0.930 . S
C2439 C2438 1.388 . S
C2439 C2440 1.390 . S
C2440 C2439 1.390 . S
C2440 C2441 1.394 . S
C2440 C2446 1.465 . S
C2441 C2436 1.399 . S
C2441 C2440 1.394 . S
C2441 C2442 1.516 . S
C2442 C2441 1.516 . S
C2442 C2443 1.502 . S
C2442 C2444 1.561 . S
C2442 C2445 1.526 . S
C2443 H2427 0.959 . S
C2443 H2428 0.959 . S
C2443 H2429 0.961 . S
C2443 C2442 1.502 . S
C2444 H2430 0.960 . S
C2444 H2431 0.961 . S
C2444 H2432 0.959 . S
C2444 C2442 1.561 . S
C2445 C2442 1.526 . S
C2445 C2446 1.396 . S
C2445 C2450 1.390 . S
C2446 C2440 1.465 . S
C2446 C2445 1.396 . S
C2446 C2447 1.399 . S
C2447 H2433 0.929 . S
C2447 C2446 1.399 . S
C2447 C2448 1.385 . S
C2448 H2434 0.931 . S
C2448 C2447 1.385 . S
C2448 C2449 1.389 . S
C2449 C2448 1.389 . S
C2449 C2450 1.387 . S
C2450 H2435 0.930 . S
C2450 C2445 1.390 . S
C2450 C2449 1.387 . S
H2451 C2463 0.930 . S
H2452 C2465 0.930 . S
H2453 C2466 0.930 . S
H2454 C2470 0.959 . S
H2455 C2470 0.959 . S
H2456 C2470 0.961 . S
H2457 C2471 0.960 . S
H2458 C2471 0.961 . S
H2459 C2471 0.959 . S
H2460 C2474 0.929 . S
H2461 C2475 0.931 . S
H2462 C2477 0.930 . S
C2463 H2451 0.930 . S
C2463 C2464 1.399 . S
C2463 C2468 1.399 . S
C2464 C2463 1.399 . S
C2464 C2465 1.376 . S
C2465 H2452 0.930 . S
C2465 C2464 1.376 . S
C2465 C2466 1.388 . S
C2466 H2453 0.930 . S
C2466 C2465 1.388 . S
C2466 C2467 1.390 . S
C2467 C2466 1.390 . S
C2467 C2468 1.394 . S
C2467 C2473 1.465 . S
C2468 C2463 1.399 . S
C2468 C2467 1.394 . S
C2468 C2469 1.516 . S
C2469 C2468 1.516 . S
C2469 C2470 1.502 . S
C2469 C2471 1.561 . S
C2469 C2472 1.526 . S
C2470 H2454 0.959 . S
C2470 H2455 0.959 . S
C2470 H2456 0.961 . S
C2470 C2469 1.502 . S
C2471 H2457 0.960 . S
C2471 H2458 0.961 . S
C2471 H2459 0.959 . S
C2471 C2469 1.561 . S
C2472 C2469 1.526 . S
C2472 C2473 1.396 . S
C2472 C2477 1.390 . S
C2473 C2467 1.465 . S
C2473 C2472 1.396 . S
C2473 C2474 1.399 . S
C2474 H2460 0.929 . S
C2474 C2473 1.399 . S
C2474 C2475 1.385 . S
C2475 H2461 0.931 . S
C2475 C2474 1.385 . S
C2475 C2476 1.389 . S
C2476 C2475 1.389 . S
C2476 C2477 1.387 . S
C2477 H2462 0.930 . S
C2477 C2472 1.390 . S
C2477 C2476 1.387 . S
H2478 C2490 0.930 . S
H2479 C2492 0.930 . S
H2480 C2493 0.930 . S
H2481 C2497 0.959 . S
H2482 C2497 0.959 . S
H2483 C2497 0.961 . S
H2484 C2498 0.960 . S
H2485 C2498 0.961 . S
H2486 C2498 0.959 . S
H2487 C2501 0.929 . S
H2488 C2502 0.931 . S
H2489 C2504 0.930 . S
C2490 H2478 0.930 . S
C2490 C2491 1.399 . S
C2490 C2495 1.399 . S
C2491 C2490 1.399 . S
C2491 C2492 1.376 . S
C2492 H2479 0.930 . S
C2492 C2491 1.376 . S
C2492 C2493 1.388 . S
C2493 H2480 0.930 . S
C2493 C2492 1.388 . S
C2493 C2494 1.390 . S
C2494 C2493 1.390 . S
C2494 C2495 1.394 . S
C2494 C2500 1.465 . S
C2495 C2490 1.399 . S
C2495 C2494 1.394 . S
C2495 C2496 1.516 . S
C2496 C2495 1.516 . S
C2496 C2497 1.502 . S
C2496 C2498 1.561 . S
C2496 C2499 1.526 . S
C2497 H2481 0.959 . S
C2497 H2482 0.959 . S
C2497 H2483 0.961 . S
C2497 C2496 1.502 . S
C2498 H2484 0.960 . S
C2498 H2485 0.961 . S
C2498 H2486 0.959 . S
C2498 C2496 1.561 . S
C2499 C2496 1.526 . S
C2499 C2500 1.396 . S
C2499 C2504 1.390 . S
C2500 C2494 1.465 . S
C2500 C2499 1.396 . S
C2500 C2501 1.399 . S
C2501 H2487 0.929 . S
C2501 C2500 1.399 . S
C2501 C2502 1.385 . S
C2502 H2488 0.931 . S
C2502 C2501 1.385 . S
C2502 C2503 1.389 . S
C2503 C2502 1.389 . S
C2503 C2504 1.387 . S
C2504 H2489 0.930 . S
C2504 C2499 1.390 . S
C2504 C2503 1.387 . S
H2505 C2517 0.930 . S
H2506 C2519 0.930 . S
H2507 C2520 0.930 . S
H2508 C2524 0.959 . S
H2509 C2524 0.959 . S
H2510 C2524 0.961 . S
H2511 C2525 0.960 . S
H2512 C2525 0.961 . S
H2513 C2525 0.959 . S
H2514 C2528 0.929 . S
H2515 C2529 0.931 . S
H2516 C2531 0.930 . S
C2517 H2505 0.930 . S
C2517 C2518 1.399 . S
C2517 C2522 1.399 . S
C2518 C2517 1.399 . S
C2518 C2519 1.376 . S
C2519 H2506 0.930 . S
C2519 C2518 1.376 . S
C2519 C2520 1.388 . S
C2520 H2507 0.930 . S
C2520 C2519 1.388 . S
C2520 C2521 1.390 . S
C2521 C2520 1.390 . S
C2521 C2522 1.394 . S
C2521 C2527 1.465 . S
C2522 C2517 1.399 . S
C2522 C2521 1.394 . S
C2522 C2523 1.516 . S
C2523 C2522 1.516 . S
C2523 C2524 1.502 . S
C2523 C2525 1.561 . S
C2523 C2526 1.526 . S
C2524 H2508 0.959 . S
C2524 H2509 0.959 . S
C2524 H2510 0.961 . S
C2524 C2523 1.502 . S
C2525 H2511 0.960 . S
C2525 H2512 0.961 . S
C2525 H2513 0.959 . S
C2525 C2523 1.561 . S
C2526 C2523 1.526 . S
C2526 C2527 1.396 . S
C2526 C2531 1.390 . S
C2527 C2521 1.465 . S
C2527 C2526 1.396 . S
C2527 C2528 1.399 . S
C2528 H2514 0.929 . S
C2528 C2527 1.399 . S
C2528 C2529 1.385 . S
C2529 H2515 0.931 . S
C2529 C2528 1.385 . S
C2529 C2530 1.389 . S
C2530 C2529 1.389 . S
C2530 C2531 1.387 . S
C2531 H2516 0.930 . S
C2531 C2526 1.390 . S
C2531 C2530 1.387 . S
H2532 C2544 0.930 . S
H2533 C2546 0.930 . S
H2534 C2547 0.930 . S
H2535 C2551 0.959 . S
H2536 C2551 0.959 . S
H2537 C2551 0.961 . S
H2538 C2552 0.960 . S
H2539 C2552 0.961 . S
H2540 C2552 0.959 . S
H2541 C2555 0.929 . S
H2542 C2556 0.931 . S
H2543 C2558 0.930 . S
C2544 H2532 0.930 . S
C2544 C2545 1.399 . S
C2544 C2549 1.399 . S
C2545 C2544 1.399 . S
C2545 C2546 1.376 . S
C2546 H2533 0.930 . S
C2546 C2545 1.376 . S
C2546 C2547 1.388 . S
C2547 H2534 0.930 . S
C2547 C2546 1.388 . S
C2547 C2548 1.390 . S
C2548 C2547 1.390 . S
C2548 C2549 1.394 . S
C2548 C2554 1.465 . S
C2549 C2544 1.399 . S
C2549 C2548 1.394 . S
C2549 C2550 1.516 . S
C2550 C2549 1.516 . S
C2550 C2551 1.502 . S
C2550 C2552 1.561 . S
C2550 C2553 1.526 . S
C2551 H2535 0.959 . S
C2551 H2536 0.959 . S
C2551 H2537 0.961 . S
C2551 C2550 1.502 . S
C2552 H2538 0.960 . S
C2552 H2539 0.961 . S
C2552 H2540 0.959 . S
C2552 C2550 1.561 . S
C2553 C2550 1.526 . S
C2553 C2554 1.396 . S
C2553 C2558 1.390 . S
C2554 C2548 1.465 . S
C2554 C2553 1.396 . S
C2554 C2555 1.399 . S
C2555 H2541 0.929 . S
C2555 C2554 1.399 . S
C2555 C2556 1.385 . S
C2556 H2542 0.931 . S
C2556 C2555 1.385 . S
C2556 C2557 1.389 . S
C2557 C2556 1.389 . S
C2557 C2558 1.387 . S
C2558 H2543 0.930 . S
C2558 C2553 1.390 . S
C2558 C2557 1.387 . S
H2559 C2571 0.930 . S
H2560 C2573 0.930 . S
H2561 C2574 0.930 . S
H2562 C2578 0.959 . S
H2563 C2578 0.959 . S
H2564 C2578 0.961 . S
H2565 C2579 0.960 . S
H2566 C2579 0.961 . S
H2567 C2579 0.959 . S
H2568 C2582 0.929 . S
H2569 C2583 0.931 . S
H2570 C2585 0.930 . S
C2571 H2559 0.930 . S
C2571 C2572 1.399 . S
C2571 C2576 1.399 . S
C2572 C2571 1.399 . S
C2572 C2573 1.376 . S
C2573 H2560 0.930 . S
C2573 C2572 1.376 . S
C2573 C2574 1.388 . S
C2574 H2561 0.930 . S
C2574 C2573 1.388 . S
C2574 C2575 1.390 . S
C2575 C2574 1.390 . S
C2575 C2576 1.394 . S
C2575 C2581 1.465 . S
C2576 C2571 1.399 . S
C2576 C2575 1.394 . S
C2576 C2577 1.516 . S
C2577 C2576 1.516 . S
C2577 C2578 1.502 . S
C2577 C2579 1.561 . S
C2577 C2580 1.526 . S
C2578 H2562 0.959 . S
C2578 H2563 0.959 . S
C2578 H2564 0.961 . S
C2578 C2577 1.502 . S
C2579 H2565 0.960 . S
C2579 H2566 0.961 . S
C2579 H2567 0.959 . S
C2579 C2577 1.561 . S
C2580 C2577 1.526 . S
C2580 C2581 1.396 . S
C2580 C2585 1.390 . S
C2581 C2575 1.465 . S
C2581 C2580 1.396 . S
C2581 C2582 1.399 . S
C2582 H2568 0.929 . S
C2582 C2581 1.399 . S
C2582 C2583 1.385 . S
C2583 H2569 0.931 . S
C2583 C2582 1.385 . S
C2583 C2584 1.389 . S
C2584 C2583 1.389 . S
C2584 C2585 1.387 . S
C2585 H2570 0.930 . S
C2585 C2580 1.390 . S
C2585 C2584 1.387 . S
H2586 C2598 0.930 . S
H2587 C2600 0.930 . S
H2588 C2601 0.930 . S
H2589 C2605 0.959 . S
H2590 C2605 0.959 . S
H2591 C2605 0.961 . S
H2592 C2606 0.960 . S
H2593 C2606 0.961 . S
H2594 C2606 0.959 . S
H2595 C2609 0.929 . S
H2596 C2610 0.931 . S
H2597 C2612 0.930 . S
C2598 H2586 0.930 . S
C2598 C2599 1.399 . S
C2598 C2603 1.399 . S
C2599 C2598 1.399 . S
C2599 C2600 1.376 . S
C2600 H2587 0.930 . S
C2600 C2599 1.376 . S
C2600 C2601 1.388 . S
C2601 H2588 0.930 . S
C2601 C2600 1.388 . S
C2601 C2602 1.390 . S
C2602 C2601 1.390 . S
C2602 C2603 1.394 . S
C2602 C2608 1.465 . S
C2603 C2598 1.399 . S
C2603 C2602 1.394 . S
C2603 C2604 1.516 . S
C2604 C2603 1.516 . S
C2604 C2605 1.502 . S
C2604 C2606 1.561 . S
C2604 C2607 1.526 . S
C2605 H2589 0.959 . S
C2605 H2590 0.959 . S
C2605 H2591 0.961 . S
C2605 C2604 1.502 . S
C2606 H2592 0.960 . S
C2606 H2593 0.961 . S
C2606 H2594 0.959 . S
C2606 C2604 1.561 . S
C2607 C2604 1.526 . S
C2607 C2608 1.396 . S
C2607 C2612 1.390 . S
C2608 C2602 1.465 . S
C2608 C2607 1.396 . S
C2608 C2609 1.399 . S
C2609 H2595 0.929 . S
C2609 C2608 1.399 . S
C2609 C2610 1.385 . S
C2610 H2596 0.931 . S
C2610 C2609 1.385 . S
C2610 C2611 1.389 . S
C2611 C2610 1.389 . S
C2611 C2612 1.387 . S
C2612 H2597 0.930 . S
C2612 C2607 1.390 . S
C2612 C2611 1.387 . S
H2613 C2625 0.930 . S
H2614 C2627 0.930 . S
H2615 C2628 0.930 . S
H2616 C2632 0.959 . S
H2617 C2632 0.959 . S
H2618 C2632 0.961 . S
H2619 C2633 0.960 . S
H2620 C2633 0.961 . S
H2621 C2633 0.959 . S
H2622 C2636 0.929 . S
H2623 C2637 0.931 . S
H2624 C2639 0.930 . S
C2625 H2613 0.930 . S
C2625 C2626 1.399 . S
C2625 C2630 1.399 . S
C2626 C2625 1.399 . S
C2626 C2627 1.376 . S
C2627 H2614 0.930 . S
C2627 C2626 1.376 . S
C2627 C2628 1.388 . S
C2628 H2615 0.930 . S
C2628 C2627 1.388 . S
C2628 C2629 1.390 . S
C2629 C2628 1.390 . S
C2629 C2630 1.394 . S
C2629 C2635 1.465 . S
C2630 C2625 1.399 . S
C2630 C2629 1.394 . S
C2630 C2631 1.516 . S
C2631 C2630 1.516 . S
C2631 C2632 1.502 . S
C2631 C2633 1.561 . S
C2631 C2634 1.526 . S
C2632 H2616 0.959 . S
C2632 H2617 0.959 . S
C2632 H2618 0.961 . S
C2632 C2631 1.502 . S
C2633 H2619 0.960 . S
C2633 H2620 0.961 . S
C2633 H2621 0.959 . S
C2633 C2631 1.561 . S
C2634 C2631 1.526 . S
C2634 C2635 1.396 . S
C2634 C2639 1.390 . S
C2635 C2629 1.465 . S
C2635 C2634 1.396 . S
C2635 C2636 1.399 . S
C2636 H2622 0.929 . S
C2636 C2635 1.399 . S
C2636 C2637 1.385 . S
C2637 H2623 0.931 . S
C2637 C2636 1.385 . S
C2637 C2638 1.389 . S
C2638 C2637 1.389 . S
C2638 C2639 1.387 . S
C2639 H2624 0.930 . S
C2639 C2634 1.390 . S
C2639 C2638 1.387 . S
H2640 C2652 0.930 . S
H2641 C2654 0.930 . S
H2642 C2655 0.930 . S
H2643 C2659 0.959 . S
H2644 C2659 0.959 . S
H2645 C2659 0.961 . S
H2646 C2660 0.960 . S
H2647 C2660 0.961 . S
H2648 C2660 0.959 . S
H2649 C2663 0.929 . S
H2650 C2664 0.931 . S
H2651 C2666 0.930 . S
C2652 H2640 0.930 . S
C2652 C2653 1.399 . S
C2652 C2657 1.399 . S
C2653 C2652 1.399 . S
C2653 C2654 1.376 . S
C2654 H2641 0.930 . S
C2654 C2653 1.376 . S
C2654 C2655 1.388 . S
C2655 H2642 0.930 . S
C2655 C2654 1.388 . S
C2655 C2656 1.390 . S
C2656 C2655 1.390 . S
C2656 C2657 1.394 . S
C2656 C2662 1.465 . S
C2657 C2652 1.399 . S
C2657 C2656 1.394 . S
C2657 C2658 1.516 . S
C2658 C2657 1.516 . S
C2658 C2659 1.502 . S
C2658 C2660 1.561 . S
C2658 C2661 1.526 . S
C2659 H2643 0.959 . S
C2659 H2644 0.959 . S
C2659 H2645 0.961 . S
C2659 C2658 1.502 . S
C2660 H2646 0.960 . S
C2660 H2647 0.961 . S
C2660 H2648 0.959 . S
C2660 C2658 1.561 . S
C2661 C2658 1.526 . S
C2661 C2662 1.396 . S
C2661 C2666 1.390 . S
C2662 C2656 1.465 . S
C2662 C2661 1.396 . S
C2662 C2663 1.399 . S
C2663 H2649 0.929 . S
C2663 C2662 1.399 . S
C2663 C2664 1.385 . S
C2664 H2650 0.931 . S
C2664 C2663 1.385 . S
C2664 C2665 1.389 . S
C2665 C2664 1.389 . S
C2665 C2666 1.387 . S
C2666 H2651 0.930 . S
C2666 C2661 1.390 . S
C2666 C2665 1.387 . S
H2667 C2679 0.930 . S
H2668 C2681 0.930 . S
H2669 C2682 0.930 . S
H2670 C2686 0.959 . S
H2671 C2686 0.959 . S
H2672 C2686 0.961 . S
H2673 C2687 0.960 . S
H2674 C2687 0.961 . S
H2675 C2687 0.959 . S
H2676 C2690 0.929 . S
H2677 C2691 0.931 . S
H2678 C2693 0.930 . S
C2679 H2667 0.930 . S
C2679 C2680 1.399 . S
C2679 C2684 1.399 . S
C2680 C2679 1.399 . S
C2680 C2681 1.376 . S
C2681 H2668 0.930 . S
C2681 C2680 1.376 . S
C2681 C2682 1.388 . S
C2682 H2669 0.930 . S
C2682 C2681 1.388 . S
C2682 C2683 1.390 . S
C2683 C2682 1.390 . S
C2683 C2684 1.394 . S
C2683 C2689 1.465 . S
C2684 C2679 1.399 . S
C2684 C2683 1.394 . S
C2684 C2685 1.516 . S
C2685 C2684 1.516 . S
C2685 C2686 1.502 . S
C2685 C2687 1.561 . S
C2685 C2688 1.526 . S
C2686 H2670 0.959 . S
C2686 H2671 0.959 . S
C2686 H2672 0.961 . S
C2686 C2685 1.502 . S
C2687 H2673 0.960 . S
C2687 H2674 0.961 . S
C2687 H2675 0.959 . S
C2687 C2685 1.561 . S
C2688 C2685 1.526 . S
C2688 C2689 1.396 . S
C2688 C2693 1.390 . S
C2689 C2683 1.465 . S
C2689 C2688 1.396 . S
C2689 C2690 1.399 . S
C2690 H2676 0.929 . S
C2690 C2689 1.399 . S
C2690 C2691 1.385 . S
C2691 H2677 0.931 . S
C2691 C2690 1.385 . S
C2691 C2692 1.389 . S
C2692 C2691 1.389 . S
C2692 C2693 1.387 . S
C2693 H2678 0.930 . S
C2693 C2688 1.390 . S
C2693 C2692 1.387 . S
H2694 C2706 0.930 . S
H2695 C2708 0.930 . S
H2696 C2709 0.930 . S
H2697 C2713 0.959 . S
H2698 C2713 0.959 . S
H2699 C2713 0.961 . S
H2700 C2714 0.960 . S
H2701 C2714 0.961 . S
H2702 C2714 0.959 . S
H2703 C2717 0.929 . S
H2704 C2718 0.931 . S
H2705 C2720 0.930 . S
C2706 H2694 0.930 . S
C2706 C2707 1.399 . S
C2706 C2711 1.399 . S
C2707 C2706 1.399 . S
C2707 C2708 1.376 . S
C2708 H2695 0.930 . S
C2708 C2707 1.376 . S
C2708 C2709 1.388 . S
C2709 H2696 0.930 . S
C2709 C2708 1.388 . S
C2709 C2710 1.390 . S
C2710 C2709 1.390 . S
C2710 C2711 1.394 . S
C2710 C2716 1.465 . S
C2711 C2706 1.399 . S
C2711 C2710 1.394 . S
C2711 C2712 1.516 . S
C2712 C2711 1.516 . S
C2712 C2713 1.502 . S
C2712 C2714 1.561 . S
C2712 C2715 1.526 . S
C2713 H2697 0.959 . S
C2713 H2698 0.959 . S
C2713 H2699 0.961 . S
C2713 C2712 1.502 . S
C2714 H2700 0.960 . S
C2714 H2701 0.961 . S
C2714 H2702 0.959 . S
C2714 C2712 1.561 . S
C2715 C2712 1.526 . S
C2715 C2716 1.396 . S
C2715 C2720 1.390 . S
C2716 C2710 1.465 . S
C2716 C2715 1.396 . S
C2716 C2717 1.399 . S
C2717 H2703 0.929 . S
C2717 C2716 1.399 . S
C2717 C2718 1.385 . S
C2718 H2704 0.931 . S
C2718 C2717 1.385 . S
C2718 C2719 1.389 . S
C2719 C2718 1.389 . S
C2719 C2720 1.387 . S
C2720 H2705 0.930 . S
C2720 C2715 1.390 . S
C2720 C2719 1.387 . S
H2721 C2733 0.930 . S
H2722 C2735 0.930 . S
H2723 C2736 0.930 . S
H2724 C2740 0.959 . S
H2725 C2740 0.959 . S
H2726 C2740 0.961 . S
H2727 C2741 0.960 . S
H2728 C2741 0.961 . S
H2729 C2741 0.959 . S
H2730 C2744 0.929 . S
H2731 C2745 0.931 . S
H2732 C2747 0.930 . S
C2733 H2721 0.930 . S
C2733 C2734 1.399 . S
C2733 C2738 1.399 . S
C2734 C2733 1.399 . S
C2734 C2735 1.376 . S
C2735 H2722 0.930 . S
C2735 C2734 1.376 . S
C2735 C2736 1.388 . S
C2736 H2723 0.930 . S
C2736 C2735 1.388 . S
C2736 C2737 1.390 . S
C2737 C2736 1.390 . S
C2737 C2738 1.394 . S
C2737 C2743 1.465 . S
C2738 C2733 1.399 . S
C2738 C2737 1.394 . S
C2738 C2739 1.516 . S
C2739 C2738 1.516 . S
C2739 C2740 1.502 . S
C2739 C2741 1.561 . S
C2739 C2742 1.526 . S
C2740 H2724 0.959 . S
C2740 H2725 0.959 . S
C2740 H2726 0.961 . S
C2740 C2739 1.502 . S
C2741 H2727 0.960 . S
C2741 H2728 0.961 . S
C2741 H2729 0.959 . S
C2741 C2739 1.561 . S
C2742 C2739 1.526 . S
C2742 C2743 1.396 . S
C2742 C2747 1.390 . S
C2743 C2737 1.465 . S
C2743 C2742 1.396 . S
C2743 C2744 1.399 . S
C2744 H2730 0.929 . S
C2744 C2743 1.399 . S
C2744 C2745 1.385 . S
C2745 H2731 0.931 . S
C2745 C2744 1.385 . S
C2745 C2746 1.389 . S
C2746 C2745 1.389 . S
C2746 C2747 1.387 . S
C2747 H2732 0.930 . S
C2747 C2742 1.390 . S
C2747 C2746 1.387 . S
H2748 C2760 0.930 . S
H2749 C2762 0.930 . S
H2750 C2763 0.930 . S
H2751 C2767 0.959 . S
H2752 C2767 0.959 . S
H2753 C2767 0.961 . S
H2754 C2768 0.960 . S
H2755 C2768 0.961 . S
H2756 C2768 0.959 . S
H2757 C2771 0.929 . S
H2758 C2772 0.931 . S
H2759 C2774 0.930 . S
C2760 H2748 0.930 . S
C2760 C2761 1.399 . S
C2760 C2765 1.399 . S
C2761 C2760 1.399 . S
C2761 C2762 1.376 . S
C2762 H2749 0.930 . S
C2762 C2761 1.376 . S
C2762 C2763 1.388 . S
C2763 H2750 0.930 . S
C2763 C2762 1.388 . S
C2763 C2764 1.390 . S
C2764 C2763 1.390 . S
C2764 C2765 1.394 . S
C2764 C2770 1.465 . S
C2765 C2760 1.399 . S
C2765 C2764 1.394 . S
C2765 C2766 1.516 . S
C2766 C2765 1.516 . S
C2766 C2767 1.502 . S
C2766 C2768 1.561 . S
C2766 C2769 1.526 . S
C2767 H2751 0.959 . S
C2767 H2752 0.959 . S
C2767 H2753 0.961 . S
C2767 C2766 1.502 . S
C2768 H2754 0.960 . S
C2768 H2755 0.961 . S
C2768 H2756 0.959 . S
C2768 C2766 1.561 . S
C2769 C2766 1.526 . S
C2769 C2770 1.396 . S
C2769 C2774 1.390 . S
C2770 C2764 1.465 . S
C2770 C2769 1.396 . S
C2770 C2771 1.399 . S
C2771 H2757 0.929 . S
C2771 C2770 1.399 . S
C2771 C2772 1.385 . S
C2772 H2758 0.931 . S
C2772 C2771 1.385 . S
C2772 C2773 1.389 . S
C2773 C2772 1.389 . S
C2773 C2774 1.387 . S
C2774 H2759 0.930 . S
C2774 C2769 1.390 . S
C2774 C2773 1.387 . S
H2775 C2787 0.930 . S
H2776 C2789 0.930 . S
H2777 C2790 0.930 . S
H2778 C2794 0.959 . S
H2779 C2794 0.959 . S
H2780 C2794 0.961 . S
H2781 C2795 0.960 . S
H2782 C2795 0.961 . S
H2783 C2795 0.959 . S
H2784 C2798 0.929 . S
H2785 C2799 0.931 . S
H2786 C2801 0.930 . S
C2787 H2775 0.930 . S
C2787 C2788 1.399 . S
C2787 C2792 1.399 . S
C2788 C2787 1.399 . S
C2788 C2789 1.376 . S
C2789 H2776 0.930 . S
C2789 C2788 1.376 . S
C2789 C2790 1.388 . S
C2790 H2777 0.930 . S
C2790 C2789 1.388 . S
C2790 C2791 1.390 . S
C2791 C2790 1.390 . S
C2791 C2792 1.394 . S
C2791 C2797 1.465 . S
C2792 C2787 1.399 . S
C2792 C2791 1.394 . S
C2792 C2793 1.516 . S
C2793 C2792 1.516 . S
C2793 C2794 1.502 . S
C2793 C2795 1.561 . S
C2793 C2796 1.526 . S
C2794 H2778 0.959 . S
C2794 H2779 0.959 . S
C2794 H2780 0.961 . S
C2794 C2793 1.502 . S
C2795 H2781 0.960 . S
C2795 H2782 0.961 . S
C2795 H2783 0.959 . S
C2795 C2793 1.561 . S
C2796 C2793 1.526 . S
C2796 C2797 1.396 . S
C2796 C2801 1.390 . S
C2797 C2791 1.465 . S
C2797 C2796 1.396 . S
C2797 C2798 1.399 . S
C2798 H2784 0.929 . S
C2798 C2797 1.399 . S
C2798 C2799 1.385 . S
C2799 H2785 0.931 . S
C2799 C2798 1.385 . S
C2799 C2800 1.389 . S
C2800 C2799 1.389 . S
C2800 C2801 1.387 . S
C2801 H2786 0.930 . S
C2801 C2796 1.390 . S
C2801 C2800 1.387 . S
H2802 C2814 0.930 . S
H2803 C2816 0.930 . S
H2804 C2817 0.930 . S
H2805 C2821 0.959 . S
H2806 C2821 0.959 . S
H2807 C2821 0.961 . S
H2808 C2822 0.960 . S
H2809 C2822 0.961 . S
H2810 C2822 0.959 . S
H2811 C2825 0.929 . S
H2812 C2826 0.931 . S
H2813 C2828 0.930 . S
C2814 H2802 0.930 . S
C2814 C2815 1.399 . S
C2814 C2819 1.399 . S
C2815 C2814 1.399 . S
C2815 C2816 1.376 . S
C2816 H2803 0.930 . S
C2816 C2815 1.376 . S
C2816 C2817 1.388 . S
C2817 H2804 0.930 . S
C2817 C2816 1.388 . S
C2817 C2818 1.390 . S
C2818 C2817 1.390 . S
C2818 C2819 1.394 . S
C2818 C2824 1.465 . S
C2819 C2814 1.399 . S
C2819 C2818 1.394 . S
C2819 C2820 1.516 . S
C2820 C2819 1.516 . S
C2820 C2821 1.502 . S
C2820 C2822 1.561 . S
C2820 C2823 1.526 . S
C2821 H2805 0.959 . S
C2821 H2806 0.959 . S
C2821 H2807 0.961 . S
C2821 C2820 1.502 . S
C2822 H2808 0.960 . S
C2822 H2809 0.961 . S
C2822 H2810 0.959 . S
C2822 C2820 1.561 . S
C2823 C2820 1.526 . S
C2823 C2824 1.396 . S
C2823 C2828 1.390 . S
C2824 C2818 1.465 . S
C2824 C2823 1.396 . S
C2824 C2825 1.399 . S
C2825 H2811 0.929 . S
C2825 C2824 1.399 . S
C2825 C2826 1.385 . S
C2826 H2812 0.931 . S
C2826 C2825 1.385 . S
C2826 C2827 1.389 . S
C2827 C2826 1.389 . S
C2827 C2828 1.387 . S
C2828 H2813 0.930 . S
C2828 C2823 1.390 . S
C2828 C2827 1.387 . S
H2829 C2841 0.930 . S
H2830 C2843 0.930 . S
H2831 C2844 0.930 . S
H2832 C2848 0.959 . S
H2833 C2848 0.959 . S
H2834 C2848 0.961 . S
H2835 C2849 0.960 . S
H2836 C2849 0.961 . S
H2837 C2849 0.959 . S
H2838 C2852 0.929 . S
H2839 C2853 0.931 . S
H2840 C2855 0.930 . S
C2841 H2829 0.930 . S
C2841 C2842 1.399 . S
C2841 C2846 1.399 . S
C2842 C2841 1.399 . S
C2842 C2843 1.376 . S
C2843 H2830 0.930 . S
C2843 C2842 1.376 . S
C2843 C2844 1.388 . S
C2844 H2831 0.930 . S
C2844 C2843 1.388 . S
C2844 C2845 1.390 . S
C2845 C2844 1.390 . S
C2845 C2846 1.394 . S
C2845 C2851 1.465 . S
C2846 C2841 1.399 . S
C2846 C2845 1.394 . S
C2846 C2847 1.516 . S
C2847 C2846 1.516 . S
C2847 C2848 1.502 . S
C2847 C2849 1.561 . S
C2847 C2850 1.526 . S
C2848 H2832 0.959 . S
C2848 H2833 0.959 . S
C2848 H2834 0.961 . S
C2848 C2847 1.502 . S
C2849 H2835 0.960 . S
C2849 H2836 0.961 . S
C2849 H2837 0.959 . S
C2849 C2847 1.561 . S
C2850 C2847 1.526 . S
C2850 C2851 1.396 . S
C2850 C2855 1.390 . S
C2851 C2845 1.465 . S
C2851 C2850 1.396 . S
C2851 C2852 1.399 . S
C2852 H2838 0.929 . S
C2852 C2851 1.399 . S
C2852 C2853 1.385 . S
C2853 H2839 0.931 . S
C2853 C2852 1.385 . S
C2853 C2854 1.389 . S
C2854 C2853 1.389 . S
C2854 C2855 1.387 . S
C2855 H2840 0.930 . S
C2855 C2850 1.390 . S
C2855 C2854 1.387 . S
H2856 C2868 0.930 . S
H2857 C2870 0.930 . S
H2858 C2871 0.930 . S
H2859 C2875 0.959 . S
H2860 C2875 0.959 . S
H2861 C2875 0.961 . S
H2862 C2876 0.960 . S
H2863 C2876 0.961 . S
H2864 C2876 0.959 . S
H2865 C2879 0.929 . S
H2866 C2880 0.931 . S
H2867 C2882 0.930 . S
C2868 H2856 0.930 . S
C2868 C2869 1.399 . S
C2868 C2873 1.399 . S
C2869 C2868 1.399 . S
C2869 C2870 1.376 . S
C2870 H2857 0.930 . S
C2870 C2869 1.376 . S
C2870 C2871 1.388 . S
C2871 H2858 0.930 . S
C2871 C2870 1.388 . S
C2871 C2872 1.390 . S
C2872 C2871 1.390 . S
C2872 C2873 1.394 . S
C2872 C2878 1.465 . S
C2873 C2868 1.399 . S
C2873 C2872 1.394 . S
C2873 C2874 1.516 . S
C2874 C2873 1.516 . S
C2874 C2875 1.502 . S
C2874 C2876 1.561 . S
C2874 C2877 1.526 . S
C2875 H2859 0.959 . S
C2875 H2860 0.959 . S
C2875 H2861 0.961 . S
C2875 C2874 1.502 . S
C2876 H2862 0.960 . S
C2876 H2863 0.961 . S
C2876 H2864 0.959 . S
C2876 C2874 1.561 . S
C2877 C2874 1.526 . S
C2877 C2878 1.396 . S
C2877 C2882 1.390 . S
C2878 C2872 1.465 . S
C2878 C2877 1.396 . S
C2878 C2879 1.399 . S
C2879 H2865 0.929 . S
C2879 C2878 1.399 . S
C2879 C2880 1.385 . S
C2880 H2866 0.931 . S
C2880 C2879 1.385 . S
C2880 C2881 1.389 . S
C2881 C2880 1.389 . S
C2881 C2882 1.387 . S
C2882 H2867 0.930 . S
C2882 C2877 1.390 . S
C2882 C2881 1.387 . S
H2883 C2895 0.930 . S
H2884 C2897 0.930 . S
H2885 C2898 0.930 . S
H2886 C2902 0.959 . S
H2887 C2902 0.959 . S
H2888 C2902 0.961 . S
H2889 C2903 0.960 . S
H2890 C2903 0.961 . S
H2891 C2903 0.959 . S
H2892 C2906 0.929 . S
H2893 C2907 0.931 . S
H2894 C2909 0.930 . S
C2895 H2883 0.930 . S
C2895 C2896 1.399 . S
C2895 C2900 1.399 . S
C2896 C2895 1.399 . S
C2896 C2897 1.376 . S
C2897 H2884 0.930 . S
C2897 C2896 1.376 . S
C2897 C2898 1.388 . S
C2898 H2885 0.930 . S
C2898 C2897 1.388 . S
C2898 C2899 1.390 . S
C2899 C2898 1.390 . S
C2899 C2900 1.394 . S
C2899 C2905 1.465 . S
C2900 C2895 1.399 . S
C2900 C2899 1.394 . S
C2900 C2901 1.516 . S
C2901 C2900 1.516 . S
C2901 C2902 1.502 . S
C2901 C2903 1.561 . S
C2901 C2904 1.526 . S
C2902 H2886 0.959 . S
C2902 H2887 0.959 . S
C2902 H2888 0.961 . S
C2902 C2901 1.502 . S
C2903 H2889 0.960 . S
C2903 H2890 0.961 . S
C2903 H2891 0.959 . S
C2903 C2901 1.561 . S
C2904 C2901 1.526 . S
C2904 C2905 1.396 . S
C2904 C2909 1.390 . S
C2905 C2899 1.465 . S
C2905 C2904 1.396 . S
C2905 C2906 1.399 . S
C2906 H2892 0.929 . S
C2906 C2905 1.399 . S
C2906 C2907 1.385 . S
C2907 H2893 0.931 . S
C2907 C2906 1.385 . S
C2907 C2908 1.389 . S
C2908 C2907 1.389 . S
C2908 C2909 1.387 . S
C2909 H2894 0.930 . S
C2909 C2904 1.390 . S
C2909 C2908 1.387 . S
H2910 C2922 0.930 . S
H2911 C2924 0.930 . S
H2912 C2925 0.930 . S
H2913 C2929 0.959 . S
H2914 C2929 0.959 . S
H2915 C2929 0.961 . S
H2916 C2930 0.960 . S
H2917 C2930 0.961 . S
H2918 C2930 0.959 . S
H2919 C2933 0.929 . S
H2920 C2934 0.931 . S
H2921 C2936 0.930 . S
C2922 H2910 0.930 . S
C2922 C2923 1.399 . S
C2922 C2927 1.399 . S
C2923 C2922 1.399 . S
C2923 C2924 1.376 . S
C2924 H2911 0.930 . S
C2924 C2923 1.376 . S
C2924 C2925 1.388 . S
C2925 H2912 0.930 . S
C2925 C2924 1.388 . S
C2925 C2926 1.390 . S
C2926 C2925 1.390 . S
C2926 C2927 1.394 . S
C2926 C2932 1.465 . S
C2927 C2922 1.399 . S
C2927 C2926 1.394 . S
C2927 C2928 1.516 . S
C2928 C2927 1.516 . S
C2928 C2929 1.502 . S
C2928 C2930 1.561 . S
C2928 C2931 1.526 . S
C2929 H2913 0.959 . S
C2929 H2914 0.959 . S
C2929 H2915 0.961 . S
C2929 C2928 1.502 . S
C2930 H2916 0.960 . S
C2930 H2917 0.961 . S
C2930 H2918 0.959 . S
C2930 C2928 1.561 . S
C2931 C2928 1.526 . S
C2931 C2932 1.396 . S
C2931 C2936 1.390 . S
C2932 C2926 1.465 . S
C2932 C2931 1.396 . S
C2932 C2933 1.399 . S
C2933 H2919 0.929 . S
C2933 C2932 1.399 . S
C2933 C2934 1.385 . S
C2934 H2920 0.931 . S
C2934 C2933 1.385 . S
C2934 C2935 1.389 . S
C2935 C2934 1.389 . S
C2935 C2936 1.387 . S
C2936 H2921 0.930 . S
C2936 C2931 1.390 . S
C2936 C2935 1.387 . S
H2937 C2949 0.930 . S
H2938 C2951 0.930 . S
H2939 C2952 0.930 . S
H2940 C2956 0.959 . S
H2941 C2956 0.959 . S
H2942 C2956 0.961 . S
H2943 C2957 0.960 . S
H2944 C2957 0.961 . S
H2945 C2957 0.959 . S
H2946 C2960 0.929 . S
H2947 C2961 0.931 . S
H2948 C2963 0.930 . S
C2949 H2937 0.930 . S
C2949 C2950 1.399 . S
C2949 C2954 1.399 . S
C2950 C2949 1.399 . S
C2950 C2951 1.376 . S
C2951 H2938 0.930 . S
C2951 C2950 1.376 . S
C2951 C2952 1.388 . S
C2952 H2939 0.930 . S
C2952 C2951 1.388 . S
C2952 C2953 1.390 . S
C2953 C2952 1.390 . S
C2953 C2954 1.394 . S
C2953 C2959 1.465 . S
C2954 C2949 1.399 . S
C2954 C2953 1.394 . S
C2954 C2955 1.516 . S
C2955 C2954 1.516 . S
C2955 C2956 1.502 . S
C2955 C2957 1.561 . S
C2955 C2958 1.526 . S
C2956 H2940 0.959 . S
C2956 H2941 0.959 . S
C2956 H2942 0.961 . S
C2956 C2955 1.502 . S
C2957 H2943 0.960 . S
C2957 H2944 0.961 . S
C2957 H2945 0.959 . S
C2957 C2955 1.561 . S
C2958 C2955 1.526 . S
C2958 C2959 1.396 . S
C2958 C2963 1.390 . S
C2959 C2953 1.465 . S
C2959 C2958 1.396 . S
C2959 C2960 1.399 . S
C2960 H2946 0.929 . S
C2960 C2959 1.399 . S
C2960 C2961 1.385 . S
C2961 H2947 0.931 . S
C2961 C2960 1.385 . S
C2961 C2962 1.389 . S
C2962 C2961 1.389 . S
C2962 C2963 1.387 . S
C2963 H2948 0.930 . S
C2963 C2958 1.390 . S
C2963 C2962 1.387 . S
H2964 C2976 0.930 . S
H2965 C2978 0.930 . S
H2966 C2979 0.930 . S
H2967 C2983 0.959 . S
H2968 C2983 0.959 . S
H2969 C2983 0.961 . S
H2970 C2984 0.960 . S
H2971 C2984 0.961 . S
H2972 C2984 0.959 . S
H2973 C2987 0.929 . S
H2974 C2988 0.931 . S
H2975 C2990 0.930 . S
C2976 H2964 0.930 . S
C2976 C2977 1.399 . S
C2976 C2981 1.399 . S
C2977 C2976 1.399 . S
C2977 C2978 1.376 . S
C2978 H2965 0.930 . S
C2978 C2977 1.376 . S
C2978 C2979 1.388 . S
C2979 H2966 0.930 . S
C2979 C2978 1.388 . S
C2979 C2980 1.390 . S
C2980 C2979 1.390 . S
C2980 C2981 1.394 . S
C2980 C2986 1.465 . S
C2981 C2976 1.399 . S
C2981 C2980 1.394 . S
C2981 C2982 1.516 . S
C2982 C2981 1.516 . S
C2982 C2983 1.502 . S
C2982 C2984 1.561 . S
C2982 C2985 1.526 . S
C2983 H2967 0.959 . S
C2983 H2968 0.959 . S
C2983 H2969 0.961 . S
C2983 C2982 1.502 . S
C2984 H2970 0.960 . S
C2984 H2971 0.961 . S
C2984 H2972 0.959 . S
C2984 C2982 1.561 . S
C2985 C2982 1.526 . S
C2985 C2986 1.396 . S
C2985 C2990 1.390 . S
C2986 C2980 1.465 . S
C2986 C2985 1.396 . S
C2986 C2987 1.399 . S
C2987 H2973 0.929 . S
C2987 C2986 1.399 . S
C2987 C2988 1.385 . S
C2988 H2974 0.931 . S
C2988 C2987 1.385 . S
C2988 C2989 1.389 . S
C2989 C2988 1.389 . S
C2989 C2990 1.387 . S
C2990 H2975 0.930 . S
C2990 C2985 1.390 . S
C2990 C2989 1.387 . S
H2991 C3003 0.930 . S
H2992 C3005 0.930 . S
H2993 C3006 0.930 . S
H2994 C3010 0.959 . S
H2995 C3010 0.959 . S
H2996 C3010 0.961 . S
H2997 C3011 0.960 . S
H2998 C3011 0.961 . S
H2999 C3011 0.959 . S
H3000 C3014 0.929 . S
H3001 C3015 0.931 . S
H3002 C3017 0.930 . S
C3003 H2991 0.930 . S
C3003 C3004 1.399 . S
C3003 C3008 1.399 . S
C3004 C3003 1.399 . S
C3004 C3005 1.376 . S
C3005 H2992 0.930 . S
C3005 C3004 1.376 . S
C3005 C3006 1.388 . S
C3006 H2993 0.930 . S
C3006 C3005 1.388 . S
C3006 C3007 1.390 . S
C3007 C3006 1.390 . S
C3007 C3008 1.394 . S
C3007 C3013 1.465 . S
C3008 C3003 1.399 . S
C3008 C3007 1.394 . S
C3008 C3009 1.516 . S
C3009 C3008 1.516 . S
C3009 C3010 1.502 . S
C3009 C3011 1.561 . S
C3009 C3012 1.526 . S
C3010 H2994 0.959 . S
C3010 H2995 0.959 . S
C3010 H2996 0.961 . S
C3010 C3009 1.502 . S
C3011 H2997 0.960 . S
C3011 H2998 0.961 . S
C3011 H2999 0.959 . S
C3011 C3009 1.561 . S
C3012 C3009 1.526 . S
C3012 C3013 1.396 . S
C3012 C3017 1.390 . S
C3013 C3007 1.465 . S
C3013 C3012 1.396 . S
C3013 C3014 1.399 . S
C3014 H3000 0.929 . S
C3014 C3013 1.399 . S
C3014 C3015 1.385 . S
C3015 H3001 0.931 . S
C3015 C3014 1.385 . S
C3015 C3016 1.389 . S
C3016 C3015 1.389 . S
C3016 C3017 1.387 . S
C3017 H3002 0.930 . S
C3017 C3012 1.390 . S
C3017 C3016 1.387 . S
H3018 C3030 0.930 . S
H3019 C3032 0.930 . S
H3020 C3033 0.930 . S
H3021 C3037 0.959 . S
H3022 C3037 0.959 . S
H3023 C3037 0.961 . S
H3024 C3038 0.960 . S
H3025 C3038 0.961 . S
H3026 C3038 0.959 . S
H3027 C3041 0.929 . S
H3028 C3042 0.931 . S
H3029 C3044 0.930 . S
C3030 H3018 0.930 . S
C3030 C3031 1.399 . S
C3030 C3035 1.399 . S
C3031 C3030 1.399 . S
C3031 C3032 1.376 . S
C3032 H3019 0.930 . S
C3032 C3031 1.376 . S
C3032 C3033 1.388 . S
C3033 H3020 0.930 . S
C3033 C3032 1.388 . S
C3033 C3034 1.390 . S
C3034 C3033 1.390 . S
C3034 C3035 1.394 . S
C3034 C3040 1.465 . S
C3035 C3030 1.399 . S
C3035 C3034 1.394 . S
C3035 C3036 1.516 . S
C3036 C3035 1.516 . S
C3036 C3037 1.502 . S
C3036 C3038 1.561 . S
C3036 C3039 1.526 . S
C3037 H3021 0.959 . S
C3037 H3022 0.959 . S
C3037 H3023 0.961 . S
C3037 C3036 1.502 . S
C3038 H3024 0.960 . S
C3038 H3025 0.961 . S
C3038 H3026 0.959 . S
C3038 C3036 1.561 . S
C3039 C3036 1.526 . S
C3039 C3040 1.396 . S
C3039 C3044 1.390 . S
C3040 C3034 1.465 . S
C3040 C3039 1.396 . S
C3040 C3041 1.399 . S
C3041 H3027 0.929 . S
C3041 C3040 1.399 . S
C3041 C3042 1.385 . S
C3042 H3028 0.931 . S
C3042 C3041 1.385 . S
C3042 C3043 1.389 . S
C3043 C3042 1.389 . S
C3043 C3044 1.387 . S
C3044 H3029 0.930 . S
C3044 C3039 1.390 . S
C3044 C3043 1.387 . S
H3045 C3057 0.930 . S
H3046 C3059 0.930 . S
H3047 C3060 0.930 . S
H3048 C3064 0.959 . S
H3049 C3064 0.959 . S
H3050 C3064 0.961 . S
H3051 C3065 0.960 . S
H3052 C3065 0.961 . S
H3053 C3065 0.959 . S
H3054 C3068 0.929 . S
H3055 C3069 0.931 . S
H3056 C3071 0.930 . S
C3057 H3045 0.930 . S
C3057 C3058 1.399 . S
C3057 C3062 1.399 . S
C3058 C3057 1.399 . S
C3058 C3059 1.376 . S
C3059 H3046 0.930 . S
C3059 C3058 1.376 . S
C3059 C3060 1.388 . S
C3060 H3047 0.930 . S
C3060 C3059 1.388 . S
C3060 C3061 1.390 . S
C3061 C3060 1.390 . S
C3061 C3062 1.394 . S
C3061 C3067 1.465 . S
C3062 C3057 1.399 . S
C3062 C3061 1.394 . S
C3062 C3063 1.516 . S
C3063 C3062 1.516 . S
C3063 C3064 1.502 . S
C3063 C3065 1.561 . S
C3063 C3066 1.526 . S
C3064 H3048 0.959 . S
C3064 H3049 0.959 . S
C3064 H3050 0.961 . S
C3064 C3063 1.502 . S
C3065 H3051 0.960 . S
C3065 H3052 0.961 . S
C3065 H3053 0.959 . S
C3065 C3063 1.561 . S
C3066 C3063 1.526 . S
C3066 C3067 1.396 . S
C3066 C3071 1.390 . S
C3067 C3061 1.465 . S
C3067 C3066 1.396 . S
C3067 C3068 1.399 . S
C3068 H3054 0.929 . S
C3068 C3067 1.399 . S
C3068 C3069 1.385 . S
C3069 H3055 0.931 . S
C3069 C3068 1.385 . S
C3069 C3070 1.389 . S
C3070 C3069 1.389 . S
C3070 C3071 1.387 . S
C3071 H3056 0.930 . S
C3071 C3066 1.390 . S
C3071 C3070 1.387 . S
H3072 C3084 0.930 . S
H3073 C3086 0.930 . S
H3074 C3087 0.930 . S
H3075 C3091 0.959 . S
H3076 C3091 0.959 . S
H3077 C3091 0.961 . S
H3078 C3092 0.960 . S
H3079 C3092 0.961 . S
H3080 C3092 0.959 . S
H3081 C3095 0.929 . S
H3082 C3096 0.931 . S
H3083 C3098 0.930 . S
C3084 H3072 0.930 . S
C3084 C3085 1.399 . S
C3084 C3089 1.399 . S
C3085 C3084 1.399 . S
C3085 C3086 1.376 . S
C3086 H3073 0.930 . S
C3086 C3085 1.376 . S
C3086 C3087 1.388 . S
C3087 H3074 0.930 . S
C3087 C3086 1.388 . S
C3087 C3088 1.390 . S
C3088 C3087 1.390 . S
C3088 C3089 1.394 . S
C3088 C3094 1.465 . S
C3089 C3084 1.399 . S
C3089 C3088 1.394 . S
C3089 C3090 1.516 . S
C3090 C3089 1.516 . S
C3090 C3091 1.502 . S
C3090 C3092 1.561 . S
C3090 C3093 1.526 . S
C3091 H3075 0.959 . S
C3091 H3076 0.959 . S
C3091 H3077 0.961 . S
C3091 C3090 1.502 . S
C3092 H3078 0.960 . S
C3092 H3079 0.961 . S
C3092 H3080 0.959 . S
C3092 C3090 1.561 . S
C3093 C3090 1.526 . S
C3093 C3094 1.396 . S
C3093 C3098 1.390 . S
C3094 C3088 1.465 . S
C3094 C3093 1.396 . S
C3094 C3095 1.399 . S
C3095 H3081 0.929 . S
C3095 C3094 1.399 . S
C3095 C3096 1.385 . S
C3096 H3082 0.931 . S
C3096 C3095 1.385 . S
C3096 C3097 1.389 . S
C3097 C3096 1.389 . S
C3097 C3098 1.387 . S
C3098 H3083 0.930 . S
C3098 C3093 1.390 . S
C3098 C3097 1.387 . S
H3099 C3111 0.930 . S
H3100 C3113 0.930 . S
H3101 C3114 0.930 . S
H3102 C3118 0.959 . S
H3103 C3118 0.959 . S
H3104 C3118 0.961 . S
H3105 C3119 0.960 . S
H3106 C3119 0.961 . S
H3107 C3119 0.959 . S
H3108 C3122 0.929 . S
H3109 C3123 0.931 . S
H3110 C3125 0.930 . S
C3111 H3099 0.930 . S
C3111 C3112 1.399 . S
C3111 C3116 1.399 . S
C3112 C3111 1.399 . S
C3112 C3113 1.376 . S
C3113 H3100 0.930 . S
C3113 C3112 1.376 . S
C3113 C3114 1.388 . S
C3114 H3101 0.930 . S
C3114 C3113 1.388 . S
C3114 C3115 1.390 . S
C3115 C3114 1.390 . S
C3115 C3116 1.394 . S
C3115 C3121 1.465 . S
C3116 C3111 1.399 . S
C3116 C3115 1.394 . S
C3116 C3117 1.516 . S
C3117 C3116 1.516 . S
C3117 C3118 1.502 . S
C3117 C3119 1.561 . S
C3117 C3120 1.526 . S
C3118 H3102 0.959 . S
C3118 H3103 0.959 . S
C3118 H3104 0.961 . S
C3118 C3117 1.502 . S
C3119 H3105 0.960 . S
C3119 H3106 0.961 . S
C3119 H3107 0.959 . S
C3119 C3117 1.561 . S
C3120 C3117 1.526 . S
C3120 C3121 1.396 . S
C3120 C3125 1.390 . S
C3121 C3115 1.465 . S
C3121 C3120 1.396 . S
C3121 C3122 1.399 . S
C3122 H3108 0.929 . S
C3122 C3121 1.399 . S
C3122 C3123 1.385 . S
C3123 H3109 0.931 . S
C3123 C3122 1.385 . S
C3123 C3124 1.389 . S
C3124 C3123 1.389 . S
C3124 C3125 1.387 . S
C3125 H3110 0.930 . S
C3125 C3120 1.390 . S
C3125 C3124 1.387 . S
H3126 C3138 0.930 . S
H3127 C3140 0.930 . S
H3128 C3141 0.930 . S
H3129 C3145 0.959 . S
H3130 C3145 0.959 . S
H3131 C3145 0.961 . S
H3132 C3146 0.960 . S
H3133 C3146 0.961 . S
H3134 C3146 0.959 . S
H3135 C3149 0.929 . S
H3136 C3150 0.931 . S
H3137 C3152 0.930 . S
C3138 H3126 0.930 . S
C3138 C3139 1.399 . S
C3138 C3143 1.399 . S
C3139 C3138 1.399 . S
C3139 C3140 1.376 . S
C3140 H3127 0.930 . S
C3140 C3139 1.376 . S
C3140 C3141 1.388 . S
C3141 H3128 0.930 . S
C3141 C3140 1.388 . S
C3141 C3142 1.390 . S
C3142 C3141 1.390 . S
C3142 C3143 1.394 . S
C3142 C3148 1.465 . S
C3143 C3138 1.399 . S
C3143 C3142 1.394 . S
C3143 C3144 1.516 . S
C3144 C3143 1.516 . S
C3144 C3145 1.502 . S
C3144 C3146 1.561 . S
C3144 C3147 1.526 . S
C3145 H3129 0.959 . S
C3145 H3130 0.959 . S
C3145 H3131 0.961 . S
C3145 C3144 1.502 . S
C3146 H3132 0.960 . S
C3146 H3133 0.961 . S
C3146 H3134 0.959 . S
C3146 C3144 1.561 . S
C3147 C3144 1.526 . S
C3147 C3148 1.396 . S
C3147 C3152 1.390 . S
C3148 C3142 1.465 . S
C3148 C3147 1.396 . S
C3148 C3149 1.399 . S
C3149 H3135 0.929 . S
C3149 C3148 1.399 . S
C3149 C3150 1.385 . S
C3150 H3136 0.931 . S
C3150 C3149 1.385 . S
C3150 C3151 1.389 . S
C3151 C3150 1.389 . S
C3151 C3152 1.387 . S
C3152 H3137 0.930 . S
C3152 C3147 1.390 . S
C3152 C3151 1.387 . S
H3153 C3165 0.930 . S
H3154 C3167 0.930 . S
H3155 C3168 0.930 . S
H3156 C3172 0.959 . S
H3157 C3172 0.959 . S
H3158 C3172 0.961 . S
H3159 C3173 0.960 . S
H3160 C3173 0.961 . S
H3161 C3173 0.959 . S
H3162 C3176 0.929 . S
H3163 C3177 0.931 . S
H3164 C3179 0.930 . S
C3165 H3153 0.930 . S
C3165 C3166 1.399 . S
C3165 C3170 1.399 . S
C3166 C3165 1.399 . S
C3166 C3167 1.376 . S
C3167 H3154 0.930 . S
C3167 C3166 1.376 . S
C3167 C3168 1.388 . S
C3168 H3155 0.930 . S
C3168 C3167 1.388 . S
C3168 C3169 1.390 . S
C3169 C3168 1.390 . S
C3169 C3170 1.394 . S
C3169 C3175 1.465 . S
C3170 C3165 1.399 . S
C3170 C3169 1.394 . S
C3170 C3171 1.516 . S
C3171 C3170 1.516 . S
C3171 C3172 1.502 . S
C3171 C3173 1.561 . S
C3171 C3174 1.526 . S
C3172 H3156 0.959 . S
C3172 H3157 0.959 . S
C3172 H3158 0.961 . S
C3172 C3171 1.502 . S
C3173 H3159 0.960 . S
C3173 H3160 0.961 . S
C3173 H3161 0.959 . S
C3173 C3171 1.561 . S
C3174 C3171 1.526 . S
C3174 C3175 1.396 . S
C3174 C3179 1.390 . S
C3175 C3169 1.465 . S
C3175 C3174 1.396 . S
C3175 C3176 1.399 . S
C3176 H3162 0.929 . S
C3176 C3175 1.399 . S
C3176 C3177 1.385 . S
C3177 H3163 0.931 . S
C3177 C3176 1.385 . S
C3177 C3178 1.389 . S
C3178 C3177 1.389 . S
C3178 C3179 1.387 . S
C3179 H3164 0.930 . S
C3179 C3174 1.390 . S
C3179 C3178 1.387 . S
H3180 C3192 0.930 . S
H3181 C3194 0.930 . S
H3182 C3195 0.930 . S
H3183 C3199 0.959 . S
H3184 C3199 0.959 . S
H3185 C3199 0.961 . S
H3186 C3200 0.960 . S
H3187 C3200 0.961 . S
H3188 C3200 0.959 . S
H3189 C3203 0.929 . S
H3190 C3204 0.931 . S
H3191 C3206 0.930 . S
C3192 H3180 0.930 . S
C3192 C3193 1.399 . S
C3192 C3197 1.399 . S
C3193 C3192 1.399 . S
C3193 C3194 1.376 . S
C3194 H3181 0.930 . S
C3194 C3193 1.376 . S
C3194 C3195 1.388 . S
C3195 H3182 0.930 . S
C3195 C3194 1.388 . S
C3195 C3196 1.390 . S
C3196 C3195 1.390 . S
C3196 C3197 1.394 . S
C3196 C3202 1.465 . S
C3197 C3192 1.399 . S
C3197 C3196 1.394 . S
C3197 C3198 1.516 . S
C3198 C3197 1.516 . S
C3198 C3199 1.502 . S
C3198 C3200 1.561 . S
C3198 C3201 1.526 . S
C3199 H3183 0.959 . S
C3199 H3184 0.959 . S
C3199 H3185 0.961 . S
C3199 C3198 1.502 . S
C3200 H3186 0.960 . S
C3200 H3187 0.961 . S
C3200 H3188 0.959 . S
C3200 C3198 1.561 . S
C3201 C3198 1.526 . S
C3201 C3202 1.396 . S
C3201 C3206 1.390 . S
C3202 C3196 1.465 . S
C3202 C3201 1.396 . S
C3202 C3203 1.399 . S
C3203 H3189 0.929 . S
C3203 C3202 1.399 . S
C3203 C3204 1.385 . S
C3204 H3190 0.931 . S
C3204 C3203 1.385 . S
C3204 C3205 1.389 . S
C3205 C3204 1.389 . S
C3205 C3206 1.387 . S
C3206 H3191 0.930 . S
C3206 C3201 1.390 . S
C3206 C3205 1.387 . S
H3207 C3219 0.930 . S
H3208 C3221 0.930 . S
H3209 C3222 0.930 . S
H3210 C3226 0.959 . S
H3211 C3226 0.959 . S
H3212 C3226 0.961 . S
H3213 C3227 0.960 . S
H3214 C3227 0.961 . S
H3215 C3227 0.959 . S
H3216 C3230 0.929 . S
H3217 C3231 0.931 . S
H3218 C3233 0.930 . S
C3219 H3207 0.930 . S
C3219 C3220 1.399 . S
C3219 C3224 1.399 . S
C3220 C3219 1.399 . S
C3220 C3221 1.376 . S
C3221 H3208 0.930 . S
C3221 C3220 1.376 . S
C3221 C3222 1.388 . S
C3222 H3209 0.930 . S
C3222 C3221 1.388 . S
C3222 C3223 1.390 . S
C3223 C3222 1.390 . S
C3223 C3224 1.394 . S
C3223 C3229 1.465 . S
C3224 C3219 1.399 . S
C3224 C3223 1.394 . S
C3224 C3225 1.516 . S
C3225 C3224 1.516 . S
C3225 C3226 1.502 . S
C3225 C3227 1.561 . S
C3225 C3228 1.526 . S
C3226 H3210 0.959 . S
C3226 H3211 0.959 . S
C3226 H3212 0.961 . S
C3226 C3225 1.502 . S
C3227 H3213 0.960 . S
C3227 H3214 0.961 . S
C3227 H3215 0.959 . S
C3227 C3225 1.561 . S
C3228 C3225 1.526 . S
C3228 C3229 1.396 . S
C3228 C3233 1.390 . S
C3229 C3223 1.465 . S
C3229 C3228 1.396 . S
C3229 C3230 1.399 . S
C3230 H3216 0.929 . S
C3230 C3229 1.399 . S
C3230 C3231 1.385 . S
C3231 H3217 0.931 . S
C3231 C3230 1.385 . S
C3231 C3232 1.389 . S
C3232 C3231 1.389 . S
C3232 C3233 1.387 . S
C3233 H3218 0.930 . S
C3233 C3228 1.390 . S
C3233 C3232 1.387 . S
H3234 C3246 0.930 . S
H3235 C3248 0.930 . S
H3236 C3249 0.930 . S
H3237 C3253 0.959 . S
H3238 C3253 0.959 . S
H3239 C3253 0.961 . S
H3240 C3254 0.960 . S
H3241 C3254 0.961 . S
H3242 C3254 0.959 . S
H3243 C3257 0.929 . S
H3244 C3258 0.931 . S
H3245 C3260 0.930 . S
C3246 H3234 0.930 . S
C3246 C3247 1.399 . S
C3246 C3251 1.399 . S
C3247 C3246 1.399 . S
C3247 C3248 1.376 . S
C3248 H3235 0.930 . S
C3248 C3247 1.376 . S
C3248 C3249 1.388 . S
C3249 H3236 0.930 . S
C3249 C3248 1.388 . S
C3249 C3250 1.390 . S
C3250 C3249 1.390 . S
C3250 C3251 1.394 . S
C3250 C3256 1.465 . S
C3251 C3246 1.399 . S
C3251 C3250 1.394 . S
C3251 C3252 1.516 . S
C3252 C3251 1.516 . S
C3252 C3253 1.502 . S
C3252 C3254 1.561 . S
C3252 C3255 1.526 . S
C3253 H3237 0.959 . S
C3253 H3238 0.959 . S
C3253 H3239 0.961 . S
C3253 C3252 1.502 . S
C3254 H3240 0.960 . S
C3254 H3241 0.961 . S
C3254 H3242 0.959 . S
C3254 C3252 1.561 . S
C3255 C3252 1.526 . S
C3255 C3256 1.396 . S
C3255 C3260 1.390 . S
C3256 C3250 1.465 . S
C3256 C3255 1.396 . S
C3256 C3257 1.399 . S
C3257 H3243 0.929 . S
C3257 C3256 1.399 . S
C3257 C3258 1.385 . S
C3258 H3244 0.931 . S
C3258 C3257 1.385 . S
C3258 C3259 1.389 . S
C3259 C3258 1.389 . S
C3259 C3260 1.387 . S
C3260 H3245 0.930 . S
C3260 C3255 1.390 . S
C3260 C3259 1.387 . S
H3261 C3273 0.930 . S
H3262 C3275 0.930 . S
H3263 C3276 0.930 . S
H3264 C3280 0.959 . S
H3265 C3280 0.959 . S
H3266 C3280 0.961 . S
H3267 C3281 0.960 . S
H3268 C3281 0.961 . S
H3269 C3281 0.959 . S
H3270 C3284 0.929 . S
H3271 C3285 0.931 . S
H3272 C3287 0.930 . S
C3273 H3261 0.930 . S
C3273 C3274 1.399 . S
C3273 C3278 1.399 . S
C3274 C3273 1.399 . S
C3274 C3275 1.376 . S
C3275 H3262 0.930 . S
C3275 C3274 1.376 . S
C3275 C3276 1.388 . S
C3276 H3263 0.930 . S
C3276 C3275 1.388 . S
C3276 C3277 1.390 . S
C3277 C3276 1.390 . S
C3277 C3278 1.394 . S
C3277 C3283 1.465 . S
C3278 C3273 1.399 . S
C3278 C3277 1.394 . S
C3278 C3279 1.516 . S
C3279 C3278 1.516 . S
C3279 C3280 1.502 . S
C3279 C3281 1.561 . S
C3279 C3282 1.526 . S
C3280 H3264 0.959 . S
C3280 H3265 0.959 . S
C3280 H3266 0.961 . S
C3280 C3279 1.502 . S
C3281 H3267 0.960 . S
C3281 H3268 0.961 . S
C3281 H3269 0.959 . S
C3281 C3279 1.561 . S
C3282 C3279 1.526 . S
C3282 C3283 1.396 . S
C3282 C3287 1.390 . S
C3283 C3277 1.465 . S
C3283 C3282 1.396 . S
C3283 C3284 1.399 . S
C3284 H3270 0.929 . S
C3284 C3283 1.399 . S
C3284 C3285 1.385 . S
C3285 H3271 0.931 . S
C3285 C3284 1.385 . S
C3285 C3286 1.389 . S
C3286 C3285 1.389 . S
C3286 C3287 1.387 . S
C3287 H3272 0.930 . S
C3287 C3282 1.390 . S
C3287 C3286 1.387 . S
H3288 C3300 0.930 . S
H3289 C3302 0.930 . S
H3290 C3303 0.930 . S
H3291 C3307 0.959 . S
H3292 C3307 0.959 . S
H3293 C3307 0.961 . S
H3294 C3308 0.960 . S
H3295 C3308 0.961 . S
H3296 C3308 0.959 . S
H3297 C3311 0.929 . S
H3298 C3312 0.931 . S
H3299 C3314 0.930 . S
C3300 H3288 0.930 . S
C3300 C3301 1.399 . S
C3300 C3305 1.399 . S
C3301 C3300 1.399 . S
C3301 C3302 1.376 . S
C3302 H3289 0.930 . S
C3302 C3301 1.376 . S
C3302 C3303 1.388 . S
C3303 H3290 0.930 . S
C3303 C3302 1.388 . S
C3303 C3304 1.390 . S
C3304 C3303 1.390 . S
C3304 C3305 1.394 . S
C3304 C3310 1.465 . S
C3305 C3300 1.399 . S
C3305 C3304 1.394 . S
C3305 C3306 1.516 . S
C3306 C3305 1.516 . S
C3306 C3307 1.502 . S
C3306 C3308 1.561 . S
C3306 C3309 1.526 . S
C3307 H3291 0.959 . S
C3307 H3292 0.959 . S
C3307 H3293 0.961 . S
C3307 C3306 1.502 . S
C3308 H3294 0.960 . S
C3308 H3295 0.961 . S
C3308 H3296 0.959 . S
C3308 C3306 1.561 . S
C3309 C3306 1.526 . S
C3309 C3310 1.396 . S
C3309 C3314 1.390 . S
C3310 C3304 1.465 . S
C3310 C3309 1.396 . S
C3310 C3311 1.399 . S
C3311 H3297 0.929 . S
C3311 C3310 1.399 . S
C3311 C3312 1.385 . S
C3312 H3298 0.931 . S
C3312 C3311 1.385 . S
C3312 C3313 1.389 . S
C3313 C3312 1.389 . S
C3313 C3314 1.387 . S
C3314 H3299 0.930 . S
C3314 C3309 1.390 . S
C3314 C3313 1.387 . S
H3315 C3327 0.930 . S
H3316 C3329 0.930 . S
H3317 C3330 0.930 . S
H3318 C3334 0.959 . S
H3319 C3334 0.959 . S
H3320 C3334 0.961 . S
H3321 C3335 0.960 . S
H3322 C3335 0.961 . S
H3323 C3335 0.959 . S
H3324 C3338 0.929 . S
H3325 C3339 0.931 . S
H3326 C3341 0.930 . S
C3327 H3315 0.930 . S
C3327 C3328 1.399 . S
C3327 C3332 1.399 . S
C3328 C3327 1.399 . S
C3328 C3329 1.376 . S
C3329 H3316 0.930 . S
C3329 C3328 1.376 . S
C3329 C3330 1.388 . S
C3330 H3317 0.930 . S
C3330 C3329 1.388 . S
C3330 C3331 1.390 . S
C3331 C3330 1.390 . S
C3331 C3332 1.394 . S
C3331 C3337 1.465 . S
C3332 C3327 1.399 . S
C3332 C3331 1.394 . S
C3332 C3333 1.516 . S
C3333 C3332 1.516 . S
C3333 C3334 1.502 . S
C3333 C3335 1.561 . S
C3333 C3336 1.526 . S
C3334 H3318 0.959 . S
C3334 H3319 0.959 . S
C3334 H3320 0.961 . S
C3334 C3333 1.502 . S
C3335 H3321 0.960 . S
C3335 H3322 0.961 . S
C3335 H3323 0.959 . S
C3335 C3333 1.561 . S
C3336 C3333 1.526 . S
C3336 C3337 1.396 . S
C3336 C3341 1.390 . S
C3337 C3331 1.465 . S
C3337 C3336 1.396 . S
C3337 C3338 1.399 . S
C3338 H3324 0.929 . S
C3338 C3337 1.399 . S
C3338 C3339 1.385 . S
C3339 H3325 0.931 . S
C3339 C3338 1.385 . S
C3339 C3340 1.389 . S
C3340 C3339 1.389 . S
C3340 C3341 1.387 . S
C3341 H3326 0.930 . S
C3341 C3336 1.390 . S
C3341 C3340 1.387 . S
H3342 C3354 0.930 . S
H3343 C3356 0.930 . S
H3344 C3357 0.930 . S
H3345 C3361 0.959 . S
H3346 C3361 0.959 . S
H3347 C3361 0.961 . S
H3348 C3362 0.960 . S
H3349 C3362 0.961 . S
H3350 C3362 0.959 . S
H3351 C3365 0.929 . S
H3352 C3366 0.931 . S
H3353 C3368 0.930 . S
C3354 H3342 0.930 . S
C3354 C3355 1.399 . S
C3354 C3359 1.399 . S
C3355 C3354 1.399 . S
C3355 C3356 1.376 . S
C3356 H3343 0.930 . S
C3356 C3355 1.376 . S
C3356 C3357 1.388 . S
C3357 H3344 0.930 . S
C3357 C3356 1.388 . S
C3357 C3358 1.390 . S
C3358 C3357 1.390 . S
C3358 C3359 1.394 . S
C3358 C3364 1.465 . S
C3359 C3354 1.399 . S
C3359 C3358 1.394 . S
C3359 C3360 1.516 . S
C3360 C3359 1.516 . S
C3360 C3361 1.502 . S
C3360 C3362 1.561 . S
C3360 C3363 1.526 . S
C3361 H3345 0.959 . S
C3361 H3346 0.959 . S
C3361 H3347 0.961 . S
C3361 C3360 1.502 . S
C3362 H3348 0.960 . S
C3362 H3349 0.961 . S
C3362 H3350 0.959 . S
C3362 C3360 1.561 . S
C3363 C3360 1.526 . S
C3363 C3364 1.396 . S
C3363 C3368 1.390 . S
C3364 C3358 1.465 . S
C3364 C3363 1.396 . S
C3364 C3365 1.399 . S
C3365 H3351 0.929 . S
C3365 C3364 1.399 . S
C3365 C3366 1.385 . S
C3366 H3352 0.931 . S
C3366 C3365 1.385 . S
C3366 C3367 1.389 . S
C3367 C3366 1.389 . S
C3367 C3368 1.387 . S
C3368 H3353 0.930 . S
C3368 C3363 1.390 . S
C3368 C3367 1.387 . S
H3369 C3381 0.930 . S
H3370 C3383 0.930 . S
H3371 C3384 0.930 . S
H3372 C3388 0.959 . S
H3373 C3388 0.959 . S
H3374 C3388 0.961 . S
H3375 C3389 0.960 . S
H3376 C3389 0.961 . S
H3377 C3389 0.959 . S
H3378 C3392 0.929 . S
H3379 C3393 0.931 . S
H3380 C3395 0.930 . S
C3381 H3369 0.930 . S
C3381 C3382 1.399 . S
C3381 C3386 1.399 . S
C3382 C3381 1.399 . S
C3382 C3383 1.376 . S
C3383 H3370 0.930 . S
C3383 C3382 1.376 . S
C3383 C3384 1.388 . S
C3384 H3371 0.930 . S
C3384 C3383 1.388 . S
C3384 C3385 1.390 . S
C3385 C3384 1.390 . S
C3385 C3386 1.394 . S
C3385 C3391 1.465 . S
C3386 C3381 1.399 . S
C3386 C3385 1.394 . S
C3386 C3387 1.516 . S
C3387 C3386 1.516 . S
C3387 C3388 1.502 . S
C3387 C3389 1.561 . S
C3387 C3390 1.526 . S
C3388 H3372 0.959 . S
C3388 H3373 0.959 . S
C3388 H3374 0.961 . S
C3388 C3387 1.502 . S
C3389 H3375 0.960 . S
C3389 H3376 0.961 . S
C3389 H3377 0.959 . S
C3389 C3387 1.561 . S
C3390 C3387 1.526 . S
C3390 C3391 1.396 . S
C3390 C3395 1.390 . S
C3391 C3385 1.465 . S
C3391 C3390 1.396 . S
C3391 C3392 1.399 . S
C3392 H3378 0.929 . S
C3392 C3391 1.399 . S
C3392 C3393 1.385 . S
C3393 H3379 0.931 . S
C3393 C3392 1.385 . S
C3393 C3394 1.389 . S
C3394 C3393 1.389 . S
C3394 C3395 1.387 . S
C3395 H3380 0.930 . S
C3395 C3390 1.390 . S
C3395 C3394 1.387 . S
H3396 C3408 0.930 . S
H3397 C3410 0.930 . S
H3398 C3411 0.930 . S
H3399 C3415 0.959 . S
H3400 C3415 0.959 . S
H3401 C3415 0.961 . S
H3402 C3416 0.960 . S
H3403 C3416 0.961 . S
H3404 C3416 0.959 . S
H3405 C3419 0.929 . S
H3406 C3420 0.931 . S
H3407 C3422 0.930 . S
C3408 H3396 0.930 . S
C3408 C3409 1.399 . S
C3408 C3413 1.399 . S
C3409 C3408 1.399 . S
C3409 C3410 1.376 . S
C3410 H3397 0.930 . S
C3410 C3409 1.376 . S
C3410 C3411 1.388 . S
C3411 H3398 0.930 . S
C3411 C3410 1.388 . S
C3411 C3412 1.390 . S
C3412 C3411 1.390 . S
C3412 C3413 1.394 . S
C3412 C3418 1.465 . S
C3413 C3408 1.399 . S
C3413 C3412 1.394 . S
C3413 C3414 1.516 . S
C3414 C3413 1.516 . S
C3414 C3415 1.502 . S
C3414 C3416 1.561 . S
C3414 C3417 1.526 . S
C3415 H3399 0.959 . S
C3415 H3400 0.959 . S
C3415 H3401 0.961 . S
C3415 C3414 1.502 . S
C3416 H3402 0.960 . S
C3416 H3403 0.961 . S
C3416 H3404 0.959 . S
C3416 C3414 1.561 . S
C3417 C3414 1.526 . S
C3417 C3418 1.396 . S
C3417 C3422 1.390 . S
C3418 C3412 1.465 . S
C3418 C3417 1.396 . S
C3418 C3419 1.399 . S
C3419 H3405 0.929 . S
C3419 C3418 1.399 . S
C3419 C3420 1.385 . S
C3420 H3406 0.931 . S
C3420 C3419 1.385 . S
C3420 C3421 1.389 . S
C3421 C3420 1.389 . S
C3421 C3422 1.387 . S
C3422 H3407 0.930 . S
C3422 C3417 1.390 . S
C3422 C3421 1.387 . S
H3423 C3435 0.930 . S
H3424 C3437 0.930 . S
H3425 C3438 0.930 . S
H3426 C3442 0.959 . S
H3427 C3442 0.959 . S
H3428 C3442 0.961 . S
H3429 C3443 0.960 . S
H3430 C3443 0.961 . S
H3431 C3443 0.959 . S
H3432 C3446 0.929 . S
H3433 C3447 0.931 . S
H3434 C3449 0.930 . S
C3435 H3423 0.930 . S
C3435 C3436 1.399 . S
C3435 C3440 1.399 . S
C3436 C3435 1.399 . S
C3436 C3437 1.376 . S
C3437 H3424 0.930 . S
C3437 C3436 1.376 . S
C3437 C3438 1.388 . S
C3438 H3425 0.930 . S
C3438 C3437 1.388 . S
C3438 C3439 1.390 . S
C3439 C3438 1.390 . S
C3439 C3440 1.394 . S
C3439 C3445 1.465 . S
C3440 C3435 1.399 . S
C3440 C3439 1.394 . S
C3440 C3441 1.516 . S
C3441 C3440 1.516 . S
C3441 C3442 1.502 . S
C3441 C3443 1.561 . S
C3441 C3444 1.526 . S
C3442 H3426 0.959 . S
C3442 H3427 0.959 . S
C3442 H3428 0.961 . S
C3442 C3441 1.502 . S
C3443 H3429 0.960 . S
C3443 H3430 0.961 . S
C3443 H3431 0.959 . S
C3443 C3441 1.561 . S
C3444 C3441 1.526 . S
C3444 C3445 1.396 . S
C3444 C3449 1.390 . S
C3445 C3439 1.465 . S
C3445 C3444 1.396 . S
C3445 C3446 1.399 . S
C3446 H3432 0.929 . S
C3446 C3445 1.399 . S
C3446 C3447 1.385 . S
C3447 H3433 0.931 . S
C3447 C3446 1.385 . S
C3447 C3448 1.389 . S
C3448 C3447 1.389 . S
C3448 C3449 1.387 . S
C3449 H3434 0.930 . S
C3449 C3444 1.390 . S
C3449 C3448 1.387 . S
H3450 C3462 0.930 . S
H3451 C3464 0.930 . S
H3452 C3465 0.930 . S
H3453 C3469 0.959 . S
H3454 C3469 0.959 . S
H3455 C3469 0.961 . S
H3456 C3470 0.960 . S
H3457 C3470 0.961 . S
H3458 C3470 0.959 . S
H3459 C3473 0.929 . S
H3460 C3474 0.931 . S
H3461 C3476 0.930 . S
C3462 H3450 0.930 . S
C3462 C3463 1.399 . S
C3462 C3467 1.399 . S
C3463 C3462 1.399 . S
C3463 C3464 1.376 . S
C3464 H3451 0.930 . S
C3464 C3463 1.376 . S
C3464 C3465 1.388 . S
C3465 H3452 0.930 . S
C3465 C3464 1.388 . S
C3465 C3466 1.390 . S
C3466 C3465 1.390 . S
C3466 C3467 1.394 . S
C3466 C3472 1.465 . S
C3467 C3462 1.399 . S
C3467 C3466 1.394 . S
C3467 C3468 1.516 . S
C3468 C3467 1.516 . S
C3468 C3469 1.502 . S
C3468 C3470 1.561 . S
C3468 C3471 1.526 . S
C3469 H3453 0.959 . S
C3469 H3454 0.959 . S
C3469 H3455 0.961 . S
C3469 C3468 1.502 . S
C3470 H3456 0.960 . S
C3470 H3457 0.961 . S
C3470 H3458 0.959 . S
C3470 C3468 1.561 . S
C3471 C3468 1.526 . S
C3471 C3472 1.396 . S
C3471 C3476 1.390 . S
C3472 C3466 1.465 . S
C3472 C3471 1.396 . S
C3472 C3473 1.399 . S
C3473 H3459 0.929 . S
C3473 C3472 1.399 . S
C3473 C3474 1.385 . S
C3474 H3460 0.931 . S
C3474 C3473 1.385 . S
C3474 C3475 1.389 . S
C3475 C3474 1.389 . S
C3475 C3476 1.387 . S
C3476 H3461 0.930 . S
C3476 C3471 1.390 . S
C3476 C3475 1.387 . S
H3477 C3489 0.930 . S
H3478 C3491 0.930 . S
H3479 C3492 0.930 . S
H3480 C3496 0.959 . S
H3481 C3496 0.959 . S
H3482 C3496 0.961 . S
H3483 C3497 0.960 . S
H3484 C3497 0.961 . S
H3485 C3497 0.959 . S
H3486 C3500 0.929 . S
H3487 C3501 0.931 . S
H3488 C3503 0.930 . S
C3489 H3477 0.930 . S
C3489 C3490 1.399 . S
C3489 C3494 1.399 . S
C3490 C3489 1.399 . S
C3490 C3491 1.376 . S
C3491 H3478 0.930 . S
C3491 C3490 1.376 . S
C3491 C3492 1.388 . S
C3492 H3479 0.930 . S
C3492 C3491 1.388 . S
C3492 C3493 1.390 . S
C3493 C3492 1.390 . S
C3493 C3494 1.394 . S
C3493 C3499 1.465 . S
C3494 C3489 1.399 . S
C3494 C3493 1.394 . S
C3494 C3495 1.516 . S
C3495 C3494 1.516 . S
C3495 C3496 1.502 . S
C3495 C3497 1.561 . S
C3495 C3498 1.526 . S
C3496 H3480 0.959 . S
C3496 H3481 0.959 . S
C3496 H3482 0.961 . S
C3496 C3495 1.502 . S
C3497 H3483 0.960 . S
C3497 H3484 0.961 . S
C3497 H3485 0.959 . S
C3497 C3495 1.561 . S
C3498 C3495 1.526 . S
C3498 C3499 1.396 . S
C3498 C3503 1.390 . S
C3499 C3493 1.465 . S
C3499 C3498 1.396 . S
C3499 C3500 1.399 . S
C3500 H3486 0.929 . S
C3500 C3499 1.399 . S
C3500 C3501 1.385 . S
C3501 H3487 0.931 . S
C3501 C3500 1.385 . S
C3501 C3502 1.389 . S
C3502 C3501 1.389 . S
C3502 C3503 1.387 . S
C3503 H3488 0.930 . S
C3503 C3498 1.390 . S
C3503 C3502 1.387 . S
H3504 C3516 0.930 . S
H3505 C3518 0.930 . S
H3506 C3519 0.930 . S
H3507 C3523 0.959 . S
H3508 C3523 0.959 . S
H3509 C3523 0.961 . S
H3510 C3524 0.960 . S
H3511 C3524 0.961 . S
H3512 C3524 0.959 . S
H3513 C3527 0.929 . S
H3514 C3528 0.931 . S
H3515 C3530 0.930 . S
C3516 H3504 0.930 . S
C3516 C3517 1.399 . S
C3516 C3521 1.399 . S
C3517 C3516 1.399 . S
C3517 C3518 1.376 . S
C3518 H3505 0.930 . S
C3518 C3517 1.376 . S
C3518 C3519 1.388 . S
C3519 H3506 0.930 . S
C3519 C3518 1.388 . S
C3519 C3520 1.390 . S
C3520 C3519 1.390 . S
C3520 C3521 1.394 . S
C3520 C3526 1.465 . S
C3521 C3516 1.399 . S
C3521 C3520 1.394 . S
C3521 C3522 1.516 . S
C3522 C3521 1.516 . S
C3522 C3523 1.502 . S
C3522 C3524 1.561 . S
C3522 C3525 1.526 . S
C3523 H3507 0.959 . S
C3523 H3508 0.959 . S
C3523 H3509 0.961 . S
C3523 C3522 1.502 . S
C3524 H3510 0.960 . S
C3524 H3511 0.961 . S
C3524 H3512 0.959 . S
C3524 C3522 1.561 . S
C3525 C3522 1.526 . S
C3525 C3526 1.396 . S
C3525 C3530 1.390 . S
C3526 C3520 1.465 . S
C3526 C3525 1.396 . S
C3526 C3527 1.399 . S
C3527 H3513 0.929 . S
C3527 C3526 1.399 . S
C3527 C3528 1.385 . S
C3528 H3514 0.931 . S
C3528 C3527 1.385 . S
C3528 C3529 1.389 . S
C3529 C3528 1.389 . S
C3529 C3530 1.387 . S
C3530 H3515 0.930 . S
C3530 C3525 1.390 . S
C3530 C3529 1.387 . S
H3531 C3543 0.930 . S
H3532 C3545 0.930 . S
H3533 C3546 0.930 . S
H3534 C3550 0.959 . S
H3535 C3550 0.959 . S
H3536 C3550 0.961 . S
H3537 C3551 0.960 . S
H3538 C3551 0.961 . S
H3539 C3551 0.959 . S
H3540 C3554 0.929 . S
H3541 C3555 0.931 . S
H3542 C3557 0.930 . S
C3543 H3531 0.930 . S
C3543 C3544 1.399 . S
C3543 C3548 1.399 . S
C3544 C3543 1.399 . S
C3544 C3545 1.376 . S
C3545 H3532 0.930 . S
C3545 C3544 1.376 . S
C3545 C3546 1.388 . S
C3546 H3533 0.930 . S
C3546 C3545 1.388 . S
C3546 C3547 1.390 . S
C3547 C3546 1.390 . S
C3547 C3548 1.394 . S
C3547 C3553 1.465 . S
C3548 C3543 1.399 . S
C3548 C3547 1.394 . S
C3548 C3549 1.516 . S
C3549 C3548 1.516 . S
C3549 C3550 1.502 . S
C3549 C3551 1.561 . S
C3549 C3552 1.526 . S
C3550 H3534 0.959 . S
C3550 H3535 0.959 . S
C3550 H3536 0.961 . S
C3550 C3549 1.502 . S
C3551 H3537 0.960 . S
C3551 H3538 0.961 . S
C3551 H3539 0.959 . S
C3551 C3549 1.561 . S
C3552 C3549 1.526 . S
C3552 C3553 1.396 . S
C3552 C3557 1.390 . S
C3553 C3547 1.465 . S
C3553 C3552 1.396 . S
C3553 C3554 1.399 . S
C3554 H3540 0.929 . S
C3554 C3553 1.399 . S
C3554 C3555 1.385 . S
C3555 H3541 0.931 . S
C3555 C3554 1.385 . S
C3555 C3556 1.389 . S
C3556 C3555 1.389 . S
C3556 C3557 1.387 . S
C3557 H3542 0.930 . S
C3557 C3552 1.390 . S
C3557 C3556 1.387 . S
H3558 C3570 0.930 . S
H3559 C3572 0.930 . S
H3560 C3573 0.930 . S
H3561 C3577 0.959 . S
H3562 C3577 0.959 . S
H3563 C3577 0.961 . S
H3564 C3578 0.960 . S
H3565 C3578 0.961 . S
H3566 C3578 0.959 . S
H3567 C3581 0.929 . S
H3568 C3582 0.931 . S
H3569 C3584 0.930 . S
C3570 H3558 0.930 . S
C3570 C3571 1.399 . S
C3570 C3575 1.399 . S
C3571 C3570 1.399 . S
C3571 C3572 1.376 . S
C3572 H3559 0.930 . S
C3572 C3571 1.376 . S
C3572 C3573 1.388 . S
C3573 H3560 0.930 . S
C3573 C3572 1.388 . S
C3573 C3574 1.390 . S
C3574 C3573 1.390 . S
C3574 C3575 1.394 . S
C3574 C3580 1.465 . S
C3575 C3570 1.399 . S
C3575 C3574 1.394 . S
C3575 C3576 1.516 . S
C3576 C3575 1.516 . S
C3576 C3577 1.502 . S
C3576 C3578 1.561 . S
C3576 C3579 1.526 . S
C3577 H3561 0.959 . S
C3577 H3562 0.959 . S
C3577 H3563 0.961 . S
C3577 C3576 1.502 . S
C3578 H3564 0.960 . S
C3578 H3565 0.961 . S
C3578 H3566 0.959 . S
C3578 C3576 1.561 . S
C3579 C3576 1.526 . S
C3579 C3580 1.396 . S
C3579 C3584 1.390 . S
C3580 C3574 1.465 . S
C3580 C3579 1.396 . S
C3580 C3581 1.399 . S
C3581 H3567 0.929 . S
C3581 C3580 1.399 . S
C3581 C3582 1.385 . S
C3582 H3568 0.931 . S
C3582 C3581 1.385 . S
C3582 C3583 1.389 . S
C3583 C3582 1.389 . S
C3583 C3584 1.387 . S
C3584 H3569 0.930 . S
C3584 C3579 1.390 . S
C3584 C3583 1.387 . S
H3585 C3597 0.930 . S
H3586 C3599 0.930 . S
H3587 C3600 0.930 . S
H3588 C3604 0.959 . S
H3589 C3604 0.959 . S
H3590 C3604 0.961 . S
H3591 C3605 0.960 . S
H3592 C3605 0.961 . S
H3593 C3605 0.959 . S
H3594 C3608 0.929 . S
H3595 C3609 0.931 . S
H3596 C3611 0.930 . S
C3597 H3585 0.930 . S
C3597 C3598 1.399 . S
C3597 C3602 1.399 . S
C3598 C3597 1.399 . S
C3598 C3599 1.376 . S
C3599 H3586 0.930 . S
C3599 C3598 1.376 . S
C3599 C3600 1.388 . S
C3600 H3587 0.930 . S
C3600 C3599 1.388 . S
C3600 C3601 1.390 . S
C3601 C3600 1.390 . S
C3601 C3602 1.394 . S
C3601 C3607 1.465 . S
C3602 C3597 1.399 . S
C3602 C3601 1.394 . S
C3602 C3603 1.516 . S
C3603 C3602 1.516 . S
C3603 C3604 1.502 . S
C3603 C3605 1.561 . S
C3603 C3606 1.526 . S
C3604 H3588 0.959 . S
C3604 H3589 0.959 . S
C3604 H3590 0.961 . S
C3604 C3603 1.502 . S
C3605 H3591 0.960 . S
C3605 H3592 0.961 . S
C3605 H3593 0.959 . S
C3605 C3603 1.561 . S
C3606 C3603 1.526 . S
C3606 C3607 1.396 . S
C3606 C3611 1.390 . S
C3607 C3601 1.465 . S
C3607 C3606 1.396 . S
C3607 C3608 1.399 . S
C3608 H3594 0.929 . S
C3608 C3607 1.399 . S
C3608 C3609 1.385 . S
C3609 H3595 0.931 . S
C3609 C3608 1.385 . S
C3609 C3610 1.389 . S
C3610 C3609 1.389 . S
C3610 C3611 1.387 . S
C3611 H3596 0.930 . S
C3611 C3606 1.390 . S
C3611 C3610 1.387 . S
H3612 C3624 0.930 . S
H3613 C3626 0.930 . S
H3614 C3627 0.930 . S
H3615 C3631 0.959 . S
H3616 C3631 0.959 . S
H3617 C3631 0.961 . S
H3618 C3632 0.960 . S
H3619 C3632 0.961 . S
H3620 C3632 0.959 . S
H3621 C3635 0.929 . S
H3622 C3636 0.931 . S
H3623 C3638 0.930 . S
C3624 H3612 0.930 . S
C3624 C3625 1.399 . S
C3624 C3629 1.399 . S
C3625 C3624 1.399 . S
C3625 C3626 1.376 . S
C3626 H3613 0.930 . S
C3626 C3625 1.376 . S
C3626 C3627 1.388 . S
C3627 H3614 0.930 . S
C3627 C3626 1.388 . S
C3627 C3628 1.390 . S
C3628 C3627 1.390 . S
C3628 C3629 1.394 . S
C3628 C3634 1.465 . S
C3629 C3624 1.399 . S
C3629 C3628 1.394 . S
C3629 C3630 1.516 . S
C3630 C3629 1.516 . S
C3630 C3631 1.502 . S
C3630 C3632 1.561 . S
C3630 C3633 1.526 . S
C3631 H3615 0.959 . S
C3631 H3616 0.959 . S
C3631 H3617 0.961 . S
C3631 C3630 1.502 . S
C3632 H3618 0.960 . S
C3632 H3619 0.961 . S
C3632 H3620 0.959 . S
C3632 C3630 1.561 . S
C3633 C3630 1.526 . S
C3633 C3634 1.396 . S
C3633 C3638 1.390 . S
C3634 C3628 1.465 . S
C3634 C3633 1.396 . S
C3634 C3635 1.399 . S
C3635 H3621 0.929 . S
C3635 C3634 1.399 . S
C3635 C3636 1.385 . S
C3636 H3622 0.931 . S
C3636 C3635 1.385 . S
C3636 C3637 1.389 . S
C3637 C3636 1.389 . S
C3637 C3638 1.387 . S
C3638 H3623 0.930 . S
C3638 C3633 1.390 . S
C3638 C3637 1.387 . S
H3639 C3651 0.930 . S
H3640 C3653 0.930 . S
H3641 C3654 0.930 . S
H3642 C3658 0.959 . S
H3643 C3658 0.959 . S
H3644 C3658 0.961 . S
H3645 C3659 0.960 . S
H3646 C3659 0.961 . S
H3647 C3659 0.959 . S
H3648 C3662 0.929 . S
H3649 C3663 0.931 . S
H3650 C3665 0.930 . S
C3651 H3639 0.930 . S
C3651 C3652 1.399 . S
C3651 C3656 1.399 . S
C3652 C3651 1.399 . S
C3652 C3653 1.376 . S
C3653 H3640 0.930 . S
C3653 C3652 1.376 . S
C3653 C3654 1.388 . S
C3654 H3641 0.930 . S
C3654 C3653 1.388 . S
C3654 C3655 1.390 . S
C3655 C3654 1.390 . S
C3655 C3656 1.394 . S
C3655 C3661 1.465 . S
C3656 C3651 1.399 . S
C3656 C3655 1.394 . S
C3656 C3657 1.516 . S
C3657 C3656 1.516 . S
C3657 C3658 1.502 . S
C3657 C3659 1.561 . S
C3657 C3660 1.526 . S
C3658 H3642 0.959 . S
C3658 H3643 0.959 . S
C3658 H3644 0.961 . S
C3658 C3657 1.502 . S
C3659 H3645 0.960 . S
C3659 H3646 0.961 . S
C3659 H3647 0.959 . S
C3659 C3657 1.561 . S
C3660 C3657 1.526 . S
C3660 C3661 1.396 . S
C3660 C3665 1.390 . S
C3661 C3655 1.465 . S
C3661 C3660 1.396 . S
C3661 C3662 1.399 . S
C3662 H3648 0.929 . S
C3662 C3661 1.399 . S
C3662 C3663 1.385 . S
C3663 H3649 0.931 . S
C3663 C3662 1.385 . S
C3663 C3664 1.389 . S
C3664 C3663 1.389 . S
C3664 C3665 1.387 . S
C3665 H3650 0.930 . S
C3665 C3660 1.390 . S
C3665 C3664 1.387 . S
H3666 C3678 0.930 . S
H3667 C3680 0.930 . S
H3668 C3681 0.930 . S
H3669 C3685 0.959 . S
H3670 C3685 0.959 . S
H3671 C3685 0.961 . S
H3672 C3686 0.960 . S
H3673 C3686 0.961 . S
H3674 C3686 0.959 . S
H3675 C3689 0.929 . S
H3676 C3690 0.931 . S
H3677 C3692 0.930 . S
C3678 H3666 0.930 . S
C3678 C3679 1.399 . S
C3678 C3683 1.399 . S
C3679 C3678 1.399 . S
C3679 C3680 1.376 . S
C3680 H3667 0.930 . S
C3680 C3679 1.376 . S
C3680 C3681 1.388 . S
C3681 H3668 0.930 . S
C3681 C3680 1.388 . S
C3681 C3682 1.390 . S
C3682 C3681 1.390 . S
C3682 C3683 1.394 . S
C3682 C3688 1.465 . S
C3683 C3678 1.399 . S
C3683 C3682 1.394 . S
C3683 C3684 1.516 . S
C3684 C3683 1.516 . S
C3684 C3685 1.502 . S
C3684 C3686 1.561 . S
C3684 C3687 1.526 . S
C3685 H3669 0.959 . S
C3685 H3670 0.959 . S
C3685 H3671 0.961 . S
C3685 C3684 1.502 . S
C3686 H3672 0.960 . S
C3686 H3673 0.961 . S
C3686 H3674 0.959 . S
C3686 C3684 1.561 . S
C3687 C3684 1.526 . S
C3687 C3688 1.396 . S
C3687 C3692 1.390 . S
C3688 C3682 1.465 . S
C3688 C3687 1.396 . S
C3688 C3689 1.399 . S
C3689 H3675 0.929 . S
C3689 C3688 1.399 . S
C3689 C3690 1.385 . S
C3690 H3676 0.931 . S
C3690 C3689 1.385 . S
C3690 C3691 1.389 . S
C3691 C3690 1.389 . S
C3691 C3692 1.387 . S
C3692 H3677 0.930 . S
C3692 C3687 1.390 . S
C3692 C3691 1.387 . S
H3693 C3705 0.930 . S
H3694 C3707 0.930 . S
H3695 C3708 0.930 . S
H3696 C3712 0.959 . S
H3697 C3712 0.959 . S
H3698 C3712 0.961 . S
H3699 C3713 0.960 . S
H3700 C3713 0.961 . S
H3701 C3713 0.959 . S
H3702 C3716 0.929 . S
H3703 C3717 0.931 . S
H3704 C3719 0.930 . S
C3705 H3693 0.930 . S
C3705 C3706 1.399 . S
C3705 C3710 1.399 . S
C3706 C3705 1.399 . S
C3706 C3707 1.376 . S
C3707 H3694 0.930 . S
C3707 C3706 1.376 . S
C3707 C3708 1.388 . S
C3708 H3695 0.930 . S
C3708 C3707 1.388 . S
C3708 C3709 1.390 . S
C3709 C3708 1.390 . S
C3709 C3710 1.394 . S
C3709 C3715 1.465 . S
C3710 C3705 1.399 . S
C3710 C3709 1.394 . S
C3710 C3711 1.516 . S
C3711 C3710 1.516 . S
C3711 C3712 1.502 . S
C3711 C3713 1.561 . S
C3711 C3714 1.526 . S
C3712 H3696 0.959 . S
C3712 H3697 0.959 . S
C3712 H3698 0.961 . S
C3712 C3711 1.502 . S
C3713 H3699 0.960 . S
C3713 H3700 0.961 . S
C3713 H3701 0.959 . S
C3713 C3711 1.561 . S
C3714 C3711 1.526 . S
C3714 C3715 1.396 . S
C3714 C3719 1.390 . S
C3715 C3709 1.465 . S
C3715 C3714 1.396 . S
C3715 C3716 1.399 . S
C3716 H3702 0.929 . S
C3716 C3715 1.399 . S
C3716 C3717 1.385 . S
C3717 H3703 0.931 . S
C3717 C3716 1.385 . S
C3717 C3718 1.389 . S
C3718 C3717 1.389 . S
C3718 C3719 1.387 . S
C3719 H3704 0.930 . S
C3719 C3714 1.390 . S
C3719 C3718 1.387 . S
H3720 C3732 0.930 . S
H3721 C3734 0.930 . S
H3722 C3735 0.930 . S
H3723 C3739 0.959 . S
H3724 C3739 0.959 . S
H3725 C3739 0.961 . S
H3726 C3740 0.960 . S
H3727 C3740 0.961 . S
H3728 C3740 0.959 . S
H3729 C3743 0.929 . S
H3730 C3744 0.931 . S
H3731 C3746 0.930 . S
C3732 H3720 0.930 . S
C3732 C3733 1.399 . S
C3732 C3737 1.399 . S
C3733 C3732 1.399 . S
C3733 C3734 1.376 . S
C3734 H3721 0.930 . S
C3734 C3733 1.376 . S
C3734 C3735 1.388 . S
C3735 H3722 0.930 . S
C3735 C3734 1.388 . S
C3735 C3736 1.390 . S
C3736 C3735 1.390 . S
C3736 C3737 1.394 . S
C3736 C3742 1.465 . S
C3737 C3732 1.399 . S
C3737 C3736 1.394 . S
C3737 C3738 1.516 . S
C3738 C3737 1.516 . S
C3738 C3739 1.502 . S
C3738 C3740 1.561 . S
C3738 C3741 1.526 . S
C3739 H3723 0.959 . S
C3739 H3724 0.959 . S
C3739 H3725 0.961 . S
C3739 C3738 1.502 . S
C3740 H3726 0.960 . S
C3740 H3727 0.961 . S
C3740 H3728 0.959 . S
C3740 C3738 1.561 . S
C3741 C3738 1.526 . S
C3741 C3742 1.396 . S
C3741 C3746 1.390 . S
C3742 C3736 1.465 . S
C3742 C3741 1.396 . S
C3742 C3743 1.399 . S
C3743 H3729 0.929 . S
C3743 C3742 1.399 . S
C3743 C3744 1.385 . S
C3744 H3730 0.931 . S
C3744 C3743 1.385 . S
C3744 C3745 1.389 . S
C3745 C3744 1.389 . S
C3745 C3746 1.387 . S
C3746 H3731 0.930 . S
C3746 C3741 1.390 . S
C3746 C3745 1.387 . S
H3747 C3759 0.930 . S
H3748 C3761 0.930 . S
H3749 C3762 0.930 . S
H3750 C3766 0.959 . S
H3751 C3766 0.959 . S
H3752 C3766 0.961 . S
H3753 C3767 0.960 . S
H3754 C3767 0.961 . S
H3755 C3767 0.959 . S
H3756 C3770 0.929 . S
H3757 C3771 0.931 . S
H3758 C3773 0.930 . S
C3759 H3747 0.930 . S
C3759 C3760 1.399 . S
C3759 C3764 1.399 . S
C3760 C3759 1.399 . S
C3760 C3761 1.376 . S
C3761 H3748 0.930 . S
C3761 C3760 1.376 . S
C3761 C3762 1.388 . S
C3762 H3749 0.930 . S
C3762 C3761 1.388 . S
C3762 C3763 1.390 . S
C3763 C3762 1.390 . S
C3763 C3764 1.394 . S
C3763 C3769 1.465 . S
C3764 C3759 1.399 . S
C3764 C3763 1.394 . S
C3764 C3765 1.516 . S
C3765 C3764 1.516 . S
C3765 C3766 1.502 . S
C3765 C3767 1.561 . S
C3765 C3768 1.526 . S
C3766 H3750 0.959 . S
C3766 H3751 0.959 . S
C3766 H3752 0.961 . S
C3766 C3765 1.502 . S
C3767 H3753 0.960 . S
C3767 H3754 0.961 . S
C3767 H3755 0.959 . S
C3767 C3765 1.561 . S
C3768 C3765 1.526 . S
C3768 C3769 1.396 . S
C3768 C3773 1.390 . S
C3769 C3763 1.465 . S
C3769 C3768 1.396 . S
C3769 C3770 1.399 . S
C3770 H3756 0.929 . S
C3770 C3769 1.399 . S
C3770 C3771 1.385 . S
C3771 H3757 0.931 . S
C3771 C3770 1.385 . S
C3771 C3772 1.389 . S
C3772 C3771 1.389 . S
C3772 C3773 1.387 . S
C3773 H3758 0.930 . S
C3773 C3768 1.390 . S
C3773 C3772 1.387 . S
H3774 C3786 0.930 . S
H3775 C3788 0.930 . S
H3776 C3789 0.930 . S
H3777 C3793 0.959 . S
H3778 C3793 0.959 . S
H3779 C3793 0.961 . S
H3780 C3794 0.960 . S
H3781 C3794 0.961 . S
H3782 C3794 0.959 . S
H3783 C3797 0.929 . S
H3784 C3798 0.931 . S
H3785 C3800 0.930 . S
C3786 H3774 0.930 . S
C3786 C3787 1.399 . S
C3786 C3791 1.399 . S
C3787 C3786 1.399 . S
C3787 C3788 1.376 . S
C3788 H3775 0.930 . S
C3788 C3787 1.376 . S
C3788 C3789 1.388 . S
C3789 H3776 0.930 . S
C3789 C3788 1.388 . S
C3789 C3790 1.390 . S
C3790 C3789 1.390 . S
C3790 C3791 1.394 . S
C3790 C3796 1.465 . S
C3791 C3786 1.399 . S
C3791 C3790 1.394 . S
C3791 C3792 1.516 . S
C3792 C3791 1.516 . S
C3792 C3793 1.502 . S
C3792 C3794 1.561 . S
C3792 C3795 1.526 . S
C3793 H3777 0.959 . S
C3793 H3778 0.959 . S
C3793 H3779 0.961 . S
C3793 C3792 1.502 . S
C3794 H3780 0.960 . S
C3794 H3781 0.961 . S
C3794 H3782 0.959 . S
C3794 C3792 1.561 . S
C3795 C3792 1.526 . S
C3795 C3796 1.396 . S
C3795 C3800 1.390 . S
C3796 C3790 1.465 . S
C3796 C3795 1.396 . S
C3796 C3797 1.399 . S
C3797 H3783 0.929 . S
C3797 C3796 1.399 . S
C3797 C3798 1.385 . S
C3798 H3784 0.931 . S
C3798 C3797 1.385 . S
C3798 C3799 1.389 . S
C3799 C3798 1.389 . S
C3799 C3800 1.387 . S
C3800 H3785 0.930 . S
C3800 C3795 1.390 . S
C3800 C3799 1.387 . S
H3801 C3813 0.930 . S
H3802 C3815 0.930 . S
H3803 C3816 0.930 . S
H3804 C3820 0.959 . S
H3805 C3820 0.959 . S
H3806 C3820 0.961 . S
H3807 C3821 0.960 . S
H3808 C3821 0.961 . S
H3809 C3821 0.959 . S
H3810 C3824 0.929 . S
H3811 C3825 0.931 . S
H3812 C3827 0.930 . S
C3813 H3801 0.930 . S
C3813 C3814 1.399 . S
C3813 C3818 1.399 . S
C3814 C3813 1.399 . S
C3814 C3815 1.376 . S
C3815 H3802 0.930 . S
C3815 C3814 1.376 . S
C3815 C3816 1.388 . S
C3816 H3803 0.930 . S
C3816 C3815 1.388 . S
C3816 C3817 1.390 . S
C3817 C3816 1.390 . S
C3817 C3818 1.394 . S
C3817 C3823 1.465 . S
C3818 C3813 1.399 . S
C3818 C3817 1.394 . S
C3818 C3819 1.516 . S
C3819 C3818 1.516 . S
C3819 C3820 1.502 . S
C3819 C3821 1.561 . S
C3819 C3822 1.526 . S
C3820 H3804 0.959 . S
C3820 H3805 0.959 . S
C3820 H3806 0.961 . S
C3820 C3819 1.502 . S
C3821 H3807 0.960 . S
C3821 H3808 0.961 . S
C3821 H3809 0.959 . S
C3821 C3819 1.561 . S
C3822 C3819 1.526 . S
C3822 C3823 1.396 . S
C3822 C3827 1.390 . S
C3823 C3817 1.465 . S
C3823 C3822 1.396 . S
C3823 C3824 1.399 . S
C3824 H3810 0.929 . S
C3824 C3823 1.399 . S
C3824 C3825 1.385 . S
C3825 H3811 0.931 . S
C3825 C3824 1.385 . S
C3825 C3826 1.389 . S
C3826 C3825 1.389 . S
C3826 C3827 1.387 . S
C3827 H3812 0.930 . S
C3827 C3822 1.390 . S
C3827 C3826 1.387 . S
H3828 C3840 0.930 . S
H3829 C3842 0.930 . S
H3830 C3843 0.930 . S
H3831 C3847 0.959 . S
H3832 C3847 0.959 . S
H3833 C3847 0.961 . S
H3834 C3848 0.960 . S
H3835 C3848 0.961 . S
H3836 C3848 0.959 . S
H3837 C3851 0.929 . S
H3838 C3852 0.931 . S
H3839 C3854 0.930 . S
C3840 H3828 0.930 . S
C3840 C3841 1.399 . S
C3840 C3845 1.399 . S
C3841 C3840 1.399 . S
C3841 C3842 1.376 . S
C3842 H3829 0.930 . S
C3842 C3841 1.376 . S
C3842 C3843 1.388 . S
C3843 H3830 0.930 . S
C3843 C3842 1.388 . S
C3843 C3844 1.390 . S
C3844 C3843 1.390 . S
C3844 C3845 1.394 . S
C3844 C3850 1.465 . S
C3845 C3840 1.399 . S
C3845 C3844 1.394 . S
C3845 C3846 1.516 . S
C3846 C3845 1.516 . S
C3846 C3847 1.502 . S
C3846 C3848 1.561 . S
C3846 C3849 1.526 . S
C3847 H3831 0.959 . S
C3847 H3832 0.959 . S
C3847 H3833 0.961 . S
C3847 C3846 1.502 . S
C3848 H3834 0.960 . S
C3848 H3835 0.961 . S
C3848 H3836 0.959 . S
C3848 C3846 1.561 . S
C3849 C3846 1.526 . S
C3849 C3850 1.396 . S
C3849 C3854 1.390 . S
C3850 C3844 1.465 . S
C3850 C3849 1.396 . S
C3850 C3851 1.399 . S
C3851 H3837 0.929 . S
C3851 C3850 1.399 . S
C3851 C3852 1.385 . S
C3852 H3838 0.931 . S
C3852 C3851 1.385 . S
C3852 C3853 1.389 . S
C3853 C3852 1.389 . S
C3853 C3854 1.387 . S
C3854 H3839 0.930 . S
C3854 C3849 1.390 . S
C3854 C3853 1.387 . S
H3855 C3867 0.930 . S
H3856 C3869 0.930 . S
H3857 C3870 0.930 . S
H3858 C3874 0.959 . S
H3859 C3874 0.959 . S
H3860 C3874 0.961 . S
H3861 C3875 0.960 . S
H3862 C3875 0.961 . S
H3863 C3875 0.959 . S
H3864 C3878 0.929 . S
H3865 C3879 0.931 . S
H3866 C3881 0.930 . S
C3867 H3855 0.930 . S
C3867 C3868 1.399 . S
C3867 C3872 1.399 . S
C3868 C3867 1.399 . S
C3868 C3869 1.376 . S
C3869 H3856 0.930 . S
C3869 C3868 1.376 . S
C3869 C3870 1.388 . S
C3870 H3857 0.930 . S
C3870 C3869 1.388 . S
C3870 C3871 1.390 . S
C3871 C3870 1.390 . S
C3871 C3872 1.394 . S
C3871 C3877 1.465 . S
C3872 C3867 1.399 . S
C3872 C3871 1.394 . S
C3872 C3873 1.516 . S
C3873 C3872 1.516 . S
C3873 C3874 1.502 . S
C3873 C3875 1.561 . S
C3873 C3876 1.526 . S
C3874 H3858 0.959 . S
C3874 H3859 0.959 . S
C3874 H3860 0.961 . S
C3874 C3873 1.502 . S
C3875 H3861 0.960 . S
C3875 H3862 0.961 . S
C3875 H3863 0.959 . S
C3875 C3873 1.561 . S
C3876 C3873 1.526 . S
C3876 C3877 1.396 . S
C3876 C3881 1.390 . S
C3877 C3871 1.465 . S
C3877 C3876 1.396 . S
C3877 C3878 1.399 . S
C3878 H3864 0.929 . S
C3878 C3877 1.399 . S
C3878 C3879 1.385 . S
C3879 H3865 0.931 . S
C3879 C3878 1.385 . S
C3879 C3880 1.389 . S
C3880 C3879 1.389 . S
C3880 C3881 1.387 . S
C3881 H3866 0.930 . S
C3881 C3876 1.390 . S
C3881 C3880 1.387 . S
H3882 C3894 0.930 . S
H3883 C3896 0.930 . S
H3884 C3897 0.930 . S
H3885 C3901 0.959 . S
H3886 C3901 0.959 . S
H3887 C3901 0.961 . S
H3888 C3902 0.960 . S
H3889 C3902 0.961 . S
H3890 C3902 0.959 . S
H3891 C3905 0.929 . S
H3892 C3906 0.931 . S
H3893 C3908 0.930 . S
C3894 H3882 0.930 . S
C3894 C3895 1.399 . S
C3894 C3899 1.399 . S
C3895 C3894 1.399 . S
C3895 C3896 1.376 . S
C3896 H3883 0.930 . S
C3896 C3895 1.376 . S
C3896 C3897 1.388 . S
C3897 H3884 0.930 . S
C3897 C3896 1.388 . S
C3897 C3898 1.390 . S
C3898 C3897 1.390 . S
C3898 C3899 1.394 . S
C3898 C3904 1.465 . S
C3899 C3894 1.399 . S
C3899 C3898 1.394 . S
C3899 C3900 1.516 . S
C3900 C3899 1.516 . S
C3900 C3901 1.502 . S
C3900 C3902 1.561 . S
C3900 C3903 1.526 . S
C3901 H3885 0.959 . S
C3901 H3886 0.959 . S
C3901 H3887 0.961 . S
C3901 C3900 1.502 . S
C3902 H3888 0.960 . S
C3902 H3889 0.961 . S
C3902 H3890 0.959 . S
C3902 C3900 1.561 . S
C3903 C3900 1.526 . S
C3903 C3904 1.396 . S
C3903 C3908 1.390 . S
C3904 C3898 1.465 . S
C3904 C3903 1.396 . S
C3904 C3905 1.399 . S
C3905 H3891 0.929 . S
C3905 C3904 1.399 . S
C3905 C3906 1.385 . S
C3906 H3892 0.931 . S
C3906 C3905 1.385 . S
C3906 C3907 1.389 . S
C3907 C3906 1.389 . S
C3907 C3908 1.387 . S
C3908 H3893 0.930 . S
C3908 C3903 1.390 . S
C3908 C3907 1.387 . S
H3909 C3921 0.930 . S
H3910 C3923 0.930 . S
H3911 C3924 0.930 . S
H3912 C3928 0.959 . S
H3913 C3928 0.959 . S
H3914 C3928 0.961 . S
H3915 C3929 0.960 . S
H3916 C3929 0.961 . S
H3917 C3929 0.959 . S
H3918 C3932 0.929 . S
H3919 C3933 0.931 . S
H3920 C3935 0.930 . S
C3921 H3909 0.930 . S
C3921 C3922 1.399 . S
C3921 C3926 1.399 . S
C3922 C3921 1.399 . S
C3922 C3923 1.376 . S
C3923 H3910 0.930 . S
C3923 C3922 1.376 . S
C3923 C3924 1.388 . S
C3924 H3911 0.930 . S
C3924 C3923 1.388 . S
C3924 C3925 1.390 . S
C3925 C3924 1.390 . S
C3925 C3926 1.394 . S
C3925 C3931 1.465 . S
C3926 C3921 1.399 . S
C3926 C3925 1.394 . S
C3926 C3927 1.516 . S
C3927 C3926 1.516 . S
C3927 C3928 1.502 . S
C3927 C3929 1.561 . S
C3927 C3930 1.526 . S
C3928 H3912 0.959 . S
C3928 H3913 0.959 . S
C3928 H3914 0.961 . S
C3928 C3927 1.502 . S
C3929 H3915 0.960 . S
C3929 H3916 0.961 . S
C3929 H3917 0.959 . S
C3929 C3927 1.561 . S
C3930 C3927 1.526 . S
C3930 C3931 1.396 . S
C3930 C3935 1.390 . S
C3931 C3925 1.465 . S
C3931 C3930 1.396 . S
C3931 C3932 1.399 . S
C3932 H3918 0.929 . S
C3932 C3931 1.399 . S
C3932 C3933 1.385 . S
C3933 H3919 0.931 . S
C3933 C3932 1.385 . S
C3933 C3934 1.389 . S
C3934 C3933 1.389 . S
C3934 C3935 1.387 . S
C3935 H3920 0.930 . S
C3935 C3930 1.390 . S
C3935 C3934 1.387 . S
H3936 C3948 0.930 . S
H3937 C3950 0.930 . S
H3938 C3951 0.930 . S
H3939 C3955 0.962 . S
H3940 C3955 0.976 . S
H3941 C3955 0.942 1_455 S
H3942 C3956 0.960 1_455 S
H3943 C3956 0.961 . S
H3944 C3956 0.959 . S
H3945 C3959 0.929 . S
H3946 C3960 0.931 . S
H3947 C3962 0.930 . S
C3948 H3936 0.930 . S
C3948 C3949 1.399 . S
C3948 C3953 1.399 . S
C3949 C3948 1.399 . S
C3949 C3950 1.376 . S
C3950 H3937 0.930 . S
C3950 C3949 1.376 . S
C3950 C3951 1.388 . S
C3951 H3938 0.930 . S
C3951 C3950 1.388 . S
C3951 C3952 1.390 . S
C3952 C3951 1.390 . S
C3952 C3953 1.394 . S
C3952 C3958 1.465 1_455 S
C3953 C3948 1.399 . S
C3953 C3952 1.394 . S
C3953 C3954 1.520 1_455 S
C3954 C3953 1.520 1_655 S
C3954 C3955 1.502 . S
C3954 C3956 1.561 . S
C3954 C3957 1.522 . S
C3955 H3939 0.962 . S
C3955 H3940 0.976 . S
C3955 H3941 0.942 1_655 S
C3955 C3954 1.502 . S
C3956 H3942 0.960 1_655 S
C3956 H3943 0.961 . S
C3956 H3944 0.959 . S
C3956 C3954 1.561 . S
C3957 C3954 1.522 . S
C3957 C3958 1.396 . S
C3957 C3962 1.390 . S
C3958 C3952 1.465 1_655 S
C3958 C3957 1.396 . S
C3958 C3959 1.399 . S
C3959 H3945 0.929 . S
C3959 C3958 1.399 . S
C3959 C3960 1.385 . S
C3960 H3946 0.931 . S
C3960 C3959 1.385 . S
C3960 C3961 1.389 . S
C3961 C3960 1.389 . S
C3961 C3962 1.387 . S
C3962 H3947 0.930 . S
C3962 C3957 1.390 . S
C3962 C3961 1.387 . S
H3963 C3975 0.930 . S
H3964 C3977 0.930 . S
H3965 C3978 0.930 . S
H3966 C3982 0.962 . S
H3967 C3982 0.976 . S
H3968 C3982 0.942 1_565 S
H3969 C3983 0.960 1_565 S
H3970 C3983 0.961 . S
H3971 C3983 0.959 . S
H3972 C3986 0.929 . S
H3973 C3987 0.931 . S
H3974 C3989 0.930 . S
C3975 H3963 0.930 . S
C3975 C3976 1.399 . S
C3975 C3980 1.399 . S
C3976 C3975 1.399 . S
C3976 C3977 1.376 . S
C3977 H3964 0.930 . S
C3977 C3976 1.376 . S
C3977 C3978 1.388 . S
C3978 H3965 0.930 . S
C3978 C3977 1.388 . S
C3978 C3979 1.390 . S
C3979 C3978 1.390 . S
C3979 C3980 1.394 . S
C3979 C3985 1.465 1_565 S
C3980 C3975 1.399 . S
C3980 C3979 1.394 . S
C3980 C3981 1.520 1_565 S
C3981 C3980 1.520 1_545 S
C3981 C3982 1.502 . S
C3981 C3983 1.561 . S
C3981 C3984 1.522 . S
C3982 H3966 0.962 . S
C3982 H3967 0.976 . S
C3982 H3968 0.942 1_545 S
C3982 C3981 1.502 . S
C3983 H3969 0.960 1_545 S
C3983 H3970 0.961 . S
C3983 H3971 0.959 . S
C3983 C3981 1.561 . S
C3984 C3981 1.522 . S
C3984 C3985 1.396 . S
C3984 C3989 1.390 . S
C3985 C3979 1.465 1_545 S
C3985 C3984 1.396 . S
C3985 C3986 1.399 . S
C3986 H3972 0.929 . S
C3986 C3985 1.399 . S
C3986 C3987 1.385 . S
C3987 H3973 0.931 . S
C3987 C3986 1.385 . S
C3987 C3988 1.389 . S
C3988 C3987 1.389 . S
C3988 C3989 1.387 . S
C3989 H3974 0.930 . S
C3989 C3984 1.390 . S
C3989 C3988 1.387 . S
H3990 C4002 0.930 . S
H3991 C4004 0.930 . S
H3992 C4005 0.930 . S
H3993 C4009 0.962 . S
H3994 C4009 0.976 . S
H3995 C4009 0.942 1_655 S
H3996 C4010 0.960 1_655 S
H3997 C4010 0.961 . S
H3998 C4010 0.959 . S
H3999 C4013 0.929 . S
H4000 C4014 0.931 . S
H4001 C4016 0.930 . S
C4002 H3990 0.930 . S
C4002 C4003 1.399 . S
C4002 C4007 1.399 . S
C4003 C4002 1.399 . S
C4003 C4004 1.376 . S
C4004 H3991 0.930 . S
C4004 C4003 1.376 . S
C4004 C4005 1.388 . S
C4005 H3992 0.930 . S
C4005 C4004 1.388 . S
C4005 C4006 1.390 . S
C4006 C4005 1.390 . S
C4006 C4007 1.394 . S
C4006 C4012 1.465 1_655 S
C4007 C4002 1.399 . S
C4007 C4006 1.394 . S
C4007 C4008 1.520 1_655 S
C4008 C4007 1.520 1_455 S
C4008 C4009 1.502 . S
C4008 C4010 1.561 . S
C4008 C4011 1.522 . S
C4009 H3993 0.962 . S
C4009 H3994 0.976 . S
C4009 H3995 0.942 1_455 S
C4009 C4008 1.502 . S
C4010 H3996 0.960 1_455 S
C4010 H3997 0.961 . S
C4010 H3998 0.959 . S
C4010 C4008 1.561 . S
C4011 C4008 1.522 . S
C4011 C4012 1.396 . S
C4011 C4016 1.390 . S
C4012 C4006 1.465 1_455 S
C4012 C4011 1.396 . S
C4012 C4013 1.399 . S
C4013 H3999 0.929 . S
C4013 C4012 1.399 . S
C4013 C4014 1.385 . S
C4014 H4000 0.931 . S
C4014 C4013 1.385 . S
C4014 C4015 1.389 . S
C4015 C4014 1.389 . S
C4015 C4016 1.387 . S
C4016 H4001 0.930 . S
C4016 C4011 1.390 . S
C4016 C4015 1.387 . S
H4017 C4029 0.930 . S
H4018 C4031 0.930 . S
H4019 C4032 0.930 . S
H4020 C4036 0.962 . S
H4021 C4036 0.976 . S
H4022 C4036 0.942 1_545 S
H4023 C4037 0.960 1_545 S
H4024 C4037 0.961 . S
H4025 C4037 0.959 . S
H4026 C4040 0.929 . S
H4027 C4041 0.931 . S
H4028 C4043 0.930 . S
C4029 H4017 0.930 . S
C4029 C4030 1.399 . S
C4029 C4034 1.399 . S
C4030 C4029 1.399 . S
C4030 C4031 1.376 . S
C4031 H4018 0.930 . S
C4031 C4030 1.376 . S
C4031 C4032 1.388 . S
C4032 H4019 0.930 . S
C4032 C4031 1.388 . S
C4032 C4033 1.390 . S
C4033 C4032 1.390 . S
C4033 C4034 1.394 . S
C4033 C4039 1.465 1_545 S
C4034 C4029 1.399 . S
C4034 C4033 1.394 . S
C4034 C4035 1.520 1_545 S
C4035 C4034 1.520 1_565 S
C4035 C4036 1.502 . S
C4035 C4037 1.561 . S
C4035 C4038 1.522 . S
C4036 H4020 0.962 . S
C4036 H4021 0.976 . S
C4036 H4022 0.942 1_565 S
C4036 C4035 1.502 . S
C4037 H4023 0.960 1_565 S
C4037 H4024 0.961 . S
C4037 H4025 0.959 . S
C4037 C4035 1.561 . S
C4038 C4035 1.522 . S
C4038 C4039 1.396 . S
C4038 C4043 1.390 . S
C4039 C4033 1.465 1_565 S
C4039 C4038 1.396 . S
C4039 C4040 1.399 . S
C4040 H4026 0.929 . S
C4040 C4039 1.399 . S
C4040 C4041 1.385 . S
C4041 H4027 0.931 . S
C4041 C4040 1.385 . S
C4041 C4042 1.389 . S
C4042 C4041 1.389 . S
C4042 C4043 1.387 . S
C4043 H4028 0.930 . S
C4043 C4038 1.390 . S
C4043 C4042 1.387 . S
H4044 C4056 0.930 . S
H4045 C4058 0.930 . S
H4046 C4059 0.930 . S
H4047 C4063 0.962 . S
H4048 C4063 0.976 . S
H4049 C4063 0.942 1_455 S
H4050 C4064 0.960 1_455 S
H4051 C4064 0.961 . S
H4052 C4064 0.959 . S
H4053 C4067 0.929 . S
H4054 C4068 0.931 . S
H4055 C4070 0.930 . S
C4056 H4044 0.930 . S
C4056 C4057 1.399 . S
C4056 C4061 1.399 . S
C4057 C4056 1.399 . S
C4057 C4058 1.376 . S
C4058 H4045 0.930 . S
C4058 C4057 1.376 . S
C4058 C4059 1.388 . S
C4059 H4046 0.930 . S
C4059 C4058 1.388 . S
C4059 C4060 1.390 . S
C4060 C4059 1.390 . S
C4060 C4061 1.394 . S
C4060 C4066 1.465 1_455 S
C4061 C4056 1.399 . S
C4061 C4060 1.394 . S
C4061 C4062 1.520 1_455 S
C4062 C4061 1.520 1_655 S
C4062 C4063 1.502 . S
C4062 C4064 1.561 . S
C4062 C4065 1.522 . S
C4063 H4047 0.962 . S
C4063 H4048 0.976 . S
C4063 H4049 0.942 1_655 S
C4063 C4062 1.502 . S
C4064 H4050 0.960 1_655 S
C4064 H4051 0.961 . S
C4064 H4052 0.959 . S
C4064 C4062 1.561 . S
C4065 C4062 1.522 . S
C4065 C4066 1.396 . S
C4065 C4070 1.390 . S
C4066 C4060 1.465 1_655 S
C4066 C4065 1.396 . S
C4066 C4067 1.399 . S
C4067 H4053 0.929 . S
C4067 C4066 1.399 . S
C4067 C4068 1.385 . S
C4068 H4054 0.931 . S
C4068 C4067 1.385 . S
C4068 C4069 1.389 . S
C4069 C4068 1.389 . S
C4069 C4070 1.387 . S
C4070 H4055 0.930 . S
C4070 C4065 1.390 . S
C4070 C4069 1.387 . S
H4071 C4083 0.930 . S
H4072 C4085 0.930 . S
H4073 C4086 0.930 . S
H4074 C4090 0.962 . S
H4075 C4090 0.976 . S
H4076 C4090 0.942 1_545 S
H4077 C4091 0.960 1_545 S
H4078 C4091 0.961 . S
H4079 C4091 0.959 . S
H4080 C4094 0.929 . S
H4081 C4095 0.931 . S
H4082 C4097 0.930 . S
C4083 H4071 0.930 . S
C4083 C4084 1.399 . S
C4083 C4088 1.399 . S
C4084 C4083 1.399 . S
C4084 C4085 1.376 . S
C4085 H4072 0.930 . S
C4085 C4084 1.376 . S
C4085 C4086 1.388 . S
C4086 H4073 0.930 . S
C4086 C4085 1.388 . S
C4086 C4087 1.390 . S
C4087 C4086 1.390 . S
C4087 C4088 1.394 . S
C4087 C4093 1.465 1_545 S
C4088 C4083 1.399 . S
C4088 C4087 1.394 . S
C4088 C4089 1.520 1_545 S
C4089 C4088 1.520 1_565 S
C4089 C4090 1.502 . S
C4089 C4091 1.561 . S
C4089 C4092 1.522 . S
C4090 H4074 0.962 . S
C4090 H4075 0.976 . S
C4090 H4076 0.942 1_565 S
C4090 C4089 1.502 . S
C4091 H4077 0.960 1_565 S
C4091 H4078 0.961 . S
C4091 H4079 0.959 . S
C4091 C4089 1.561 . S
C4092 C4089 1.522 . S
C4092 C4093 1.396 . S
C4092 C4097 1.390 . S
C4093 C4087 1.465 1_565 S
C4093 C4092 1.396 . S
C4093 C4094 1.399 . S
C4094 H4080 0.929 . S
C4094 C4093 1.399 . S
C4094 C4095 1.385 . S
C4095 H4081 0.931 . S
C4095 C4094 1.385 . S
C4095 C4096 1.389 . S
C4096 C4095 1.389 . S
C4096 C4097 1.387 . S
C4097 H4082 0.930 . S
C4097 C4092 1.390 . S
C4097 C4096 1.387 . S
H4098 C4110 0.930 . S
H4099 C4112 0.930 . S
H4100 C4113 0.930 . S
H4101 C4117 0.962 . S
H4102 C4117 0.976 . S
H4103 C4117 0.942 1_655 S
H4104 C4118 0.960 1_655 S
H4105 C4118 0.961 . S
H4106 C4118 0.959 . S
H4107 C4121 0.929 . S
H4108 C4122 0.931 . S
H4109 C4124 0.930 . S
C4110 H4098 0.930 . S
C4110 C4111 1.399 . S
C4110 C4115 1.399 . S
C4111 C4110 1.399 . S
C4111 C4112 1.376 . S
C4112 H4099 0.930 . S
C4112 C4111 1.376 . S
C4112 C4113 1.388 . S
C4113 H4100 0.930 . S
C4113 C4112 1.388 . S
C4113 C4114 1.390 . S
C4114 C4113 1.390 . S
C4114 C4115 1.394 . S
C4114 C4120 1.465 1_655 S
C4115 C4110 1.399 . S
C4115 C4114 1.394 . S
C4115 C4116 1.520 1_655 S
C4116 C4115 1.520 1_455 S
C4116 C4117 1.502 . S
C4116 C4118 1.561 . S
C4116 C4119 1.522 . S
C4117 H4101 0.962 . S
C4117 H4102 0.976 . S
C4117 H4103 0.942 1_455 S
C4117 C4116 1.502 . S
C4118 H4104 0.960 1_455 S
C4118 H4105 0.961 . S
C4118 H4106 0.959 . S
C4118 C4116 1.561 . S
C4119 C4116 1.522 . S
C4119 C4120 1.396 . S
C4119 C4124 1.390 . S
C4120 C4114 1.465 1_455 S
C4120 C4119 1.396 . S
C4120 C4121 1.399 . S
C4121 H4107 0.929 . S
C4121 C4120 1.399 . S
C4121 C4122 1.385 . S
C4122 H4108 0.931 . S
C4122 C4121 1.385 . S
C4122 C4123 1.389 . S
C4123 C4122 1.389 . S
C4123 C4124 1.387 . S
C4124 H4109 0.930 . S
C4124 C4119 1.390 . S
C4124 C4123 1.387 . S
H4125 C4137 0.930 . S
H4126 C4139 0.930 . S
H4127 C4140 0.930 . S
H4128 C4144 0.962 . S
H4129 C4144 0.976 . S
H4130 C4144 0.942 1_545 S
H4131 C4145 0.960 1_545 S
H4132 C4145 0.961 . S
H4133 C4145 0.959 . S
H4134 C4148 0.929 . S
H4135 C4149 0.931 . S
H4136 C4151 0.930 . S
C4137 H4125 0.930 . S
C4137 C4138 1.399 . S
C4137 C4142 1.399 . S
C4138 C4137 1.399 . S
C4138 C4139 1.376 . S
C4139 H4126 0.930 . S
C4139 C4138 1.376 . S
C4139 C4140 1.388 . S
C4140 H4127 0.930 . S
C4140 C4139 1.388 . S
C4140 C4141 1.390 . S
C4141 C4140 1.390 . S
C4141 C4142 1.394 . S
C4141 C4147 1.465 1_545 S
C4142 C4137 1.399 . S
C4142 C4141 1.394 . S
C4142 C4143 1.520 1_545 S
C4143 C4142 1.520 1_565 S
C4143 C4144 1.502 . S
C4143 C4145 1.561 . S
C4143 C4146 1.522 . S
C4144 H4128 0.962 . S
C4144 H4129 0.976 . S
C4144 H4130 0.942 1_565 S
C4144 C4143 1.502 . S
C4145 H4131 0.960 1_565 S
C4145 H4132 0.961 . S
C4145 H4133 0.959 . S
C4145 C4143 1.561 . S
C4146 C4143 1.522 . S
C4146 C4147 1.396 . S
C4146 C4151 1.390 . S
C4147 C4141 1.465 1_565 S
C4147 C4146 1.396 . S
C4147 C4148 1.399 . S
C4148 H4134 0.929 . S
C4148 C4147 1.399 . S
C4148 C4149 1.385 . S
C4149 H4135 0.931 . S
C4149 C4148 1.385 . S
C4149 C4150 1.389 . S
C4150 C4149 1.389 . S
C4150 C4151 1.387 . S
C4151 H4136 0.930 . S
C4151 C4146 1.390 . S
C4151 C4150 1.387 . S
H4152 C4164 0.930 . S
H4153 C4166 0.930 . S
H4154 C4167 0.930 . S
H4155 C4171 0.962 . S
H4156 C4171 0.976 . S
H4157 C4171 0.942 1_565 S
H4158 C4172 0.960 1_565 S
H4159 C4172 0.961 . S
H4160 C4172 0.959 . S
H4161 C4175 0.929 . S
H4162 C4176 0.931 . S
H4163 C4178 0.930 . S
C4164 H4152 0.930 . S
C4164 C4165 1.399 . S
C4164 C4169 1.399 . S
C4165 C4164 1.399 . S
C4165 C4166 1.376 . S
C4166 H4153 0.930 . S
C4166 C4165 1.376 . S
C4166 C4167 1.388 . S
C4167 H4154 0.930 . S
C4167 C4166 1.388 . S
C4167 C4168 1.390 . S
C4168 C4167 1.390 . S
C4168 C4169 1.394 . S
C4168 C4174 1.465 1_565 S
C4169 C4164 1.399 . S
C4169 C4168 1.394 . S
C4169 C4170 1.520 1_565 S
C4170 C4169 1.520 1_545 S
C4170 C4171 1.502 . S
C4170 C4172 1.561 . S
C4170 C4173 1.522 . S
C4171 H4155 0.962 . S
C4171 H4156 0.976 . S
C4171 H4157 0.942 1_545 S
C4171 C4170 1.502 . S
C4172 H4158 0.960 1_545 S
C4172 H4159 0.961 . S
C4172 H4160 0.959 . S
C4172 C4170 1.561 . S
C4173 C4170 1.522 . S
C4173 C4174 1.396 . S
C4173 C4178 1.390 . S
C4174 C4168 1.465 1_545 S
C4174 C4173 1.396 . S
C4174 C4175 1.399 . S
C4175 H4161 0.929 . S
C4175 C4174 1.399 . S
C4175 C4176 1.385 . S
C4176 H4162 0.931 . S
C4176 C4175 1.385 . S
C4176 C4177 1.389 . S
C4177 C4176 1.389 . S
C4177 C4178 1.387 . S
C4178 H4163 0.930 . S
C4178 C4173 1.390 . S
C4178 C4177 1.387 . S
H4179 C4191 0.930 . S
H4180 C4193 0.930 . S
H4181 C4194 0.930 . S
H4182 C4198 0.962 . S
H4183 C4198 0.976 . S
H4184 C4198 0.942 1_655 S
H4185 C4199 0.960 1_655 S
H4186 C4199 0.961 . S
H4187 C4199 0.959 . S
H4188 C4202 0.929 . S
H4189 C4203 0.931 . S
H4190 C4205 0.930 . S
C4191 H4179 0.930 . S
C4191 C4192 1.399 . S
C4191 C4196 1.399 . S
C4192 C4191 1.399 . S
C4192 C4193 1.376 . S
C4193 H4180 0.930 . S
C4193 C4192 1.376 . S
C4193 C4194 1.388 . S
C4194 H4181 0.930 . S
C4194 C4193 1.388 . S
C4194 C4195 1.390 . S
C4195 C4194 1.390 . S
C4195 C4196 1.394 . S
C4195 C4201 1.465 1_655 S
C4196 C4191 1.399 . S
C4196 C4195 1.394 . S
C4196 C4197 1.520 1_655 S
C4197 C4196 1.520 1_455 S
C4197 C4198 1.502 . S
C4197 C4199 1.561 . S
C4197 C4200 1.522 . S
C4198 H4182 0.962 . S
C4198 H4183 0.976 . S
C4198 H4184 0.942 1_455 S
C4198 C4197 1.502 . S
C4199 H4185 0.960 1_455 S
C4199 H4186 0.961 . S
C4199 H4187 0.959 . S
C4199 C4197 1.561 . S
C4200 C4197 1.522 . S
C4200 C4201 1.396 . S
C4200 C4205 1.390 . S
C4201 C4195 1.465 1_455 S
C4201 C4200 1.396 . S
C4201 C4202 1.399 . S
C4202 H4188 0.929 . S
C4202 C4201 1.399 . S
C4202 C4203 1.385 . S
C4203 H4189 0.931 . S
C4203 C4202 1.385 . S
C4203 C4204 1.389 . S
C4204 C4203 1.389 . S
C4204 C4205 1.387 . S
C4205 H4190 0.930 . S
C4205 C4200 1.390 . S
C4205 C4204 1.387 . S
H4206 C4218 0.930 . S
H4207 C4220 0.930 . S
H4208 C4221 0.930 . S
H4209 C4225 0.962 . S
H4210 C4225 0.976 . S
H4211 C4225 0.942 1_565 S
H4212 C4226 0.960 1_565 S
H4213 C4226 0.961 . S
H4214 C4226 0.959 . S
H4215 C4229 0.929 . S
H4216 C4230 0.931 . S
H4217 C4232 0.930 . S
C4218 H4206 0.930 . S
C4218 C4219 1.399 . S
C4218 C4223 1.399 . S
C4219 C4218 1.399 . S
C4219 C4220 1.376 . S
C4220 H4207 0.930 . S
C4220 C4219 1.376 . S
C4220 C4221 1.388 . S
C4221 H4208 0.930 . S
C4221 C4220 1.388 . S
C4221 C4222 1.390 . S
C4222 C4221 1.390 . S
C4222 C4223 1.394 . S
C4222 C4228 1.465 1_565 S
C4223 C4218 1.399 . S
C4223 C4222 1.394 . S
C4223 C4224 1.520 1_565 S
C4224 C4223 1.520 1_545 S
C4224 C4225 1.502 . S
C4224 C4226 1.561 . S
C4224 C4227 1.522 . S
C4225 H4209 0.962 . S
C4225 H4210 0.976 . S
C4225 H4211 0.942 1_545 S
C4225 C4224 1.502 . S
C4226 H4212 0.960 1_545 S
C4226 H4213 0.961 . S
C4226 H4214 0.959 . S
C4226 C4224 1.561 . S
C4227 C4224 1.522 . S
C4227 C4228 1.396 . S
C4227 C4232 1.390 . S
C4228 C4222 1.465 1_545 S
C4228 C4227 1.396 . S
C4228 C4229 1.399 . S
C4229 H4215 0.929 . S
C4229 C4228 1.399 . S
C4229 C4230 1.385 . S
C4230 H4216 0.931 . S
C4230 C4229 1.385 . S
C4230 C4231 1.389 . S
C4231 C4230 1.389 . S
C4231 C4232 1.387 . S
C4232 H4217 0.930 . S
C4232 C4227 1.390 . S
C4232 C4231 1.387 . S
H4233 C4245 0.930 . S
H4234 C4247 0.930 . S
H4235 C4248 0.930 . S
H4236 C4252 0.962 . S
H4237 C4252 0.976 . S
H4238 C4252 0.942 1_455 S
H4239 C4253 0.960 1_455 S
H4240 C4253 0.961 . S
H4241 C4253 0.959 . S
H4242 C4256 0.929 . S
H4243 C4257 0.931 . S
H4244 C4259 0.930 . S
C4245 H4233 0.930 . S
C4245 C4246 1.399 . S
C4245 C4250 1.399 . S
C4246 C4245 1.399 . S
C4246 C4247 1.376 . S
C4247 H4234 0.930 . S
C4247 C4246 1.376 . S
C4247 C4248 1.388 . S
C4248 H4235 0.930 . S
C4248 C4247 1.388 . S
C4248 C4249 1.390 . S
C4249 C4248 1.390 . S
C4249 C4250 1.394 . S
C4249 C4255 1.465 1_455 S
C4250 C4245 1.399 . S
C4250 C4249 1.394 . S
C4250 C4251 1.520 1_455 S
C4251 C4250 1.520 1_655 S
C4251 C4252 1.502 . S
C4251 C4253 1.561 . S
C4251 C4254 1.522 . S
C4252 H4236 0.962 . S
C4252 H4237 0.976 . S
C4252 H4238 0.942 1_655 S
C4252 C4251 1.502 . S
C4253 H4239 0.960 1_655 S
C4253 H4240 0.961 . S
C4253 H4241 0.959 . S
C4253 C4251 1.561 . S
C4254 C4251 1.522 . S
C4254 C4255 1.396 . S
C4254 C4259 1.390 . S
C4255 C4249 1.465 1_655 S
C4255 C4254 1.396 . S
C4255 C4256 1.399 . S
C4256 H4242 0.929 . S
C4256 C4255 1.399 . S
C4256 C4257 1.385 . S
C4257 H4243 0.931 . S
C4257 C4256 1.385 . S
C4257 C4258 1.389 . S
C4258 C4257 1.389 . S
C4258 C4259 1.387 . S
C4259 H4244 0.930 . S
C4259 C4254 1.390 . S
C4259 C4258 1.387 . S
H4260 C4272 0.930 . S
H4261 C4274 0.930 . S
H4262 C4275 0.930 . S
H4263 C4279 0.962 . S
H4264 C4279 0.976 . S
H4265 C4279 0.942 1_565 S
H4266 C4280 0.960 1_565 S
H4267 C4280 0.961 . S
H4268 C4280 0.959 . S
H4269 C4283 0.929 . S
H4270 C4284 0.931 . S
H4271 C4286 0.930 . S
C4272 H4260 0.930 . S
C4272 C4273 1.399 . S
C4272 C4277 1.399 . S
C4273 C4272 1.399 . S
C4273 C4274 1.376 . S
C4274 H4261 0.930 . S
C4274 C4273 1.376 . S
C4274 C4275 1.388 . S
C4275 H4262 0.930 . S
C4275 C4274 1.388 . S
C4275 C4276 1.390 . S
C4276 C4275 1.390 . S
C4276 C4277 1.394 . S
C4276 C4282 1.465 1_565 S
C4277 C4272 1.399 . S
C4277 C4276 1.394 . S
C4277 C4278 1.520 1_565 S
C4278 C4277 1.520 1_545 S
C4278 C4279 1.502 . S
C4278 C4280 1.561 . S
C4278 C4281 1.522 . S
C4279 H4263 0.962 . S
C4279 H4264 0.976 . S
C4279 H4265 0.942 1_545 S
C4279 C4278 1.502 . S
C4280 H4266 0.960 1_545 S
C4280 H4267 0.961 . S
C4280 H4268 0.959 . S
C4280 C4278 1.561 . S
C4281 C4278 1.522 . S
C4281 C4282 1.396 . S
C4281 C4286 1.390 . S
C4282 C4276 1.465 1_545 S
C4282 C4281 1.396 . S
C4282 C4283 1.399 . S
C4283 H4269 0.929 . S
C4283 C4282 1.399 . S
C4283 C4284 1.385 . S
C4284 H4270 0.931 . S
C4284 C4283 1.385 . S
C4284 C4285 1.389 . S
C4285 C4284 1.389 . S
C4285 C4286 1.387 . S
C4286 H4271 0.930 . S
C4286 C4281 1.390 . S
C4286 C4285 1.387 . S
H4287 C4299 0.930 . S
H4288 C4301 0.930 . S
H4289 C4302 0.930 . S
H4290 C4306 0.962 . S
H4291 C4306 0.976 . S
H4292 C4306 0.942 1_455 S
H4293 C4307 0.960 1_455 S
H4294 C4307 0.961 . S
H4295 C4307 0.959 . S
H4296 C4310 0.929 . S
H4297 C4311 0.931 . S
H4298 C4313 0.930 . S
C4299 H4287 0.930 . S
C4299 C4300 1.399 . S
C4299 C4304 1.399 . S
C4300 C4299 1.399 . S
C4300 C4301 1.376 . S
C4301 H4288 0.930 . S
C4301 C4300 1.376 . S
C4301 C4302 1.388 . S
C4302 H4289 0.930 . S
C4302 C4301 1.388 . S
C4302 C4303 1.390 . S
C4303 C4302 1.390 . S
C4303 C4304 1.394 . S
C4303 C4309 1.465 1_455 S
C4304 C4299 1.399 . S
C4304 C4303 1.394 . S
C4304 C4305 1.520 1_455 S
C4305 C4304 1.520 1_655 S
C4305 C4306 1.502 . S
C4305 C4307 1.561 . S
C4305 C4308 1.522 . S
C4306 H4290 0.962 . S
C4306 H4291 0.976 . S
C4306 H4292 0.942 1_655 S
C4306 C4305 1.502 . S
C4307 H4293 0.960 1_655 S
C4307 H4294 0.961 . S
C4307 H4295 0.959 . S
C4307 C4305 1.561 . S
C4308 C4305 1.522 . S
C4308 C4309 1.396 . S
C4308 C4313 1.390 . S
C4309 C4303 1.465 1_655 S
C4309 C4308 1.396 . S
C4309 C4310 1.399 . S
C4310 H4296 0.929 . S
C4310 C4309 1.399 . S
C4310 C4311 1.385 . S
C4311 H4297 0.931 . S
C4311 C4310 1.385 . S
C4311 C4312 1.389 . S
C4312 C4311 1.389 . S
C4312 C4313 1.387 . S
C4313 H4298 0.930 . S
C4313 C4308 1.390 . S
C4313 C4312 1.387 . S
H4314 C4326 0.930 . S
H4315 C4328 0.930 . S
H4316 C4329 0.930 . S
H4317 C4333 0.962 . S
H4318 C4333 0.976 . S
H4319 C4333 0.942 1_545 S
H4320 C4334 0.960 1_545 S
H4321 C4334 0.961 . S
H4322 C4334 0.959 . S
H4323 C4337 0.929 . S
H4324 C4338 0.931 . S
H4325 C4340 0.930 . S
C4326 H4314 0.930 . S
C4326 C4327 1.399 . S
C4326 C4331 1.399 . S
C4327 C4326 1.399 . S
C4327 C4328 1.376 . S
C4328 H4315 0.930 . S
C4328 C4327 1.376 . S
C4328 C4329 1.388 . S
C4329 H4316 0.930 . S
C4329 C4328 1.388 . S
C4329 C4330 1.390 . S
C4330 C4329 1.390 . S
C4330 C4331 1.394 . S
C4330 C4336 1.465 1_545 S
C4331 C4326 1.399 . S
C4331 C4330 1.394 . S
C4331 C4332 1.520 1_545 S
C4332 C4331 1.520 1_565 S
C4332 C4333 1.502 . S
C4332 C4334 1.561 . S
C4332 C4335 1.522 . S
C4333 H4317 0.962 . S
C4333 H4318 0.976 . S
C4333 H4319 0.942 1_565 S
C4333 C4332 1.502 . S
C4334 H4320 0.960 1_565 S
C4334 H4321 0.961 . S
C4334 H4322 0.959 . S
C4334 C4332 1.561 . S
C4335 C4332 1.522 . S
C4335 C4336 1.396 . S
C4335 C4340 1.390 . S
C4336 C4330 1.465 1_565 S
C4336 C4335 1.396 . S
C4336 C4337 1.399 . S
C4337 H4323 0.929 . S
C4337 C4336 1.399 . S
C4337 C4338 1.385 . S
C4338 H4324 0.931 . S
C4338 C4337 1.385 . S
C4338 C4339 1.389 . S
C4339 C4338 1.389 . S
C4339 C4340 1.387 . S
C4340 H4325 0.930 . S
C4340 C4335 1.390 . S
C4340 C4339 1.387 . S
H4341 C4353 0.930 . S
H4342 C4355 0.930 . S
H4343 C4356 0.930 . S
H4344 C4360 0.962 . S
H4345 C4360 0.976 . S
H4346 C4360 0.942 1_655 S
H4347 C4361 0.960 1_655 S
H4348 C4361 0.961 . S
H4349 C4361 0.959 . S
H4350 C4364 0.929 . S
H4351 C4365 0.931 . S
H4352 C4367 0.930 . S
C4353 H4341 0.930 . S
C4353 C4354 1.399 . S
C4353 C4358 1.399 . S
C4354 C4353 1.399 . S
C4354 C4355 1.376 . S
C4355 H4342 0.930 . S
C4355 C4354 1.376 . S
C4355 C4356 1.388 . S
C4356 H4343 0.930 . S
C4356 C4355 1.388 . S
C4356 C4357 1.390 . S
C4357 C4356 1.390 . S
C4357 C4358 1.394 . S
C4357 C4363 1.465 1_655 S
C4358 C4353 1.399 . S
C4358 C4357 1.394 . S
C4358 C4359 1.520 1_655 S
C4359 C4358 1.520 1_455 S
C4359 C4360 1.502 . S
C4359 C4361 1.561 . S
C4359 C4362 1.522 . S
C4360 H4344 0.962 . S
C4360 H4345 0.976 . S
C4360 H4346 0.942 1_455 S
C4360 C4359 1.502 . S
C4361 H4347 0.960 1_455 S
C4361 H4348 0.961 . S
C4361 H4349 0.959 . S
C4361 C4359 1.561 . S
C4362 C4359 1.522 . S
C4362 C4363 1.396 . S
C4362 C4367 1.390 . S
C4363 C4357 1.465 1_455 S
C4363 C4362 1.396 . S
C4363 C4364 1.399 . S
C4364 H4350 0.929 . S
C4364 C4363 1.399 . S
C4364 C4365 1.385 . S
C4365 H4351 0.931 . S
C4365 C4364 1.385 . S
C4365 C4366 1.389 . S
C4366 C4365 1.389 . S
C4366 C4367 1.387 . S
C4367 H4352 0.930 . S
C4367 C4362 1.390 . S
C4367 C4366 1.387 . S
H4368 C4380 0.930 . S
H4369 C4382 0.930 . S
H4370 C4383 0.930 . S
H4371 C4387 0.962 . S
H4372 C4387 0.976 . S
H4373 C4387 0.942 1_554 S
H4374 C4388 0.960 1_554 S
H4375 C4388 0.961 . S
H4376 C4388 0.959 . S
H4377 C4391 0.929 . S
H4378 C4392 0.931 . S
H4379 C4394 0.930 . S
C4380 H4368 0.930 . S
C4380 C4381 1.399 . S
C4380 C4385 1.399 . S
C4381 C4380 1.399 . S
C4381 C4382 1.376 . S
C4382 H4369 0.930 . S
C4382 C4381 1.376 . S
C4382 C4383 1.388 . S
C4383 H4370 0.930 . S
C4383 C4382 1.388 . S
C4383 C4384 1.390 . S
C4384 C4383 1.390 . S
C4384 C4385 1.394 . S
C4384 C4390 1.465 1_554 S
C4385 C4380 1.399 . S
C4385 C4384 1.394 . S
C4385 C4386 1.520 1_554 S
C4386 C4385 1.520 1_556 S
C4386 C4387 1.502 . S
C4386 C4388 1.561 . S
C4386 C4389 1.522 . S
C4387 H4371 0.962 . S
C4387 H4372 0.976 . S
C4387 H4373 0.942 1_556 S
C4387 C4386 1.502 . S
C4388 H4374 0.960 1_556 S
C4388 H4375 0.961 . S
C4388 H4376 0.959 . S
C4388 C4386 1.561 . S
C4389 C4386 1.522 . S
C4389 C4390 1.396 . S
C4389 C4394 1.390 . S
C4390 C4384 1.465 1_556 S
C4390 C4389 1.396 . S
C4390 C4391 1.399 . S
C4391 H4377 0.929 . S
C4391 C4390 1.399 . S
C4391 C4392 1.385 . S
C4392 H4378 0.931 . S
C4392 C4391 1.385 . S
C4392 C4393 1.389 . S
C4393 C4392 1.389 . S
C4393 C4394 1.387 . S
C4394 H4379 0.930 . S
C4394 C4389 1.390 . S
C4394 C4393 1.387 . S
H4395 C4407 0.930 . S
H4396 C4409 0.930 . S
H4397 C4410 0.930 . S
H4398 C4414 0.962 . S
H4399 C4414 0.976 . S
H4400 C4414 0.942 1_556 S
H4401 C4415 0.960 1_556 S
H4402 C4415 0.961 . S
H4403 C4415 0.959 . S
H4404 C4418 0.929 . S
H4405 C4419 0.931 . S
H4406 C4421 0.930 . S
C4407 H4395 0.930 . S
C4407 C4408 1.399 . S
C4407 C4412 1.399 . S
C4408 C4407 1.399 . S
C4408 C4409 1.376 . S
C4409 H4396 0.930 . S
C4409 C4408 1.376 . S
C4409 C4410 1.388 . S
C4410 H4397 0.930 . S
C4410 C4409 1.388 . S
C4410 C4411 1.390 . S
C4411 C4410 1.390 . S
C4411 C4412 1.394 . S
C4411 C4417 1.465 1_556 S
C4412 C4407 1.399 . S
C4412 C4411 1.394 . S
C4412 C4413 1.520 1_556 S
C4413 C4412 1.520 1_554 S
C4413 C4414 1.502 . S
C4413 C4415 1.561 . S
C4413 C4416 1.522 . S
C4414 H4398 0.962 . S
C4414 H4399 0.976 . S
C4414 H4400 0.942 1_554 S
C4414 C4413 1.502 . S
C4415 H4401 0.960 1_554 S
C4415 H4402 0.961 . S
C4415 H4403 0.959 . S
C4415 C4413 1.561 . S
C4416 C4413 1.522 . S
C4416 C4417 1.396 . S
C4416 C4421 1.390 . S
C4417 C4411 1.465 1_554 S
C4417 C4416 1.396 . S
C4417 C4418 1.399 . S
C4418 H4404 0.929 . S
C4418 C4417 1.399 . S
C4418 C4419 1.385 . S
C4419 H4405 0.931 . S
C4419 C4418 1.385 . S
C4419 C4420 1.389 . S
C4420 C4419 1.389 . S
C4420 C4421 1.387 . S
C4421 H4406 0.930 . S
C4421 C4416 1.390 . S
C4421 C4420 1.387 . S
H4422 C4434 0.930 . S
H4423 C4436 0.930 . S
H4424 C4437 0.930 . S
H4425 C4441 0.962 . S
H4426 C4441 0.976 . S
H4427 C4441 0.942 1_554 S
H4428 C4442 0.960 1_554 S
H4429 C4442 0.961 . S
H4430 C4442 0.959 . S
H4431 C4445 0.929 . S
H4432 C4446 0.931 . S
H4433 C4448 0.930 . S
C4434 H4422 0.930 . S
C4434 C4435 1.399 . S
C4434 C4439 1.399 . S
C4435 C4434 1.399 . S
C4435 C4436 1.376 . S
C4436 H4423 0.930 . S
C4436 C4435 1.376 . S
C4436 C4437 1.388 . S
C4437 H4424 0.930 . S
C4437 C4436 1.388 . S
C4437 C4438 1.390 . S
C4438 C4437 1.390 . S
C4438 C4439 1.394 . S
C4438 C4444 1.465 1_554 S
C4439 C4434 1.399 . S
C4439 C4438 1.394 . S
C4439 C4440 1.520 1_554 S
C4440 C4439 1.520 1_556 S
C4440 C4441 1.502 . S
C4440 C4442 1.561 . S
C4440 C4443 1.522 . S
C4441 H4425 0.962 . S
C4441 H4426 0.976 . S
C4441 H4427 0.942 1_556 S
C4441 C4440 1.502 . S
C4442 H4428 0.960 1_556 S
C4442 H4429 0.961 . S
C4442 H4430 0.959 . S
C4442 C4440 1.561 . S
C4443 C4440 1.522 . S
C4443 C4444 1.396 . S
C4443 C4448 1.390 . S
C4444 C4438 1.465 1_556 S
C4444 C4443 1.396 . S
C4444 C4445 1.399 . S
C4445 H4431 0.929 . S
C4445 C4444 1.399 . S
C4445 C4446 1.385 . S
C4446 H4432 0.931 . S
C4446 C4445 1.385 . S
C4446 C4447 1.389 . S
C4447 C4446 1.389 . S
C4447 C4448 1.387 . S
C4448 H4433 0.930 . S
C4448 C4443 1.390 . S
C4448 C4447 1.387 . S
H4449 C4461 0.930 . S
H4450 C4463 0.930 . S
H4451 C4464 0.930 . S
H4452 C4468 0.962 . S
H4453 C4468 0.976 . S
H4454 C4468 0.942 1_556 S
H4455 C4469 0.960 1_556 S
H4456 C4469 0.961 . S
H4457 C4469 0.959 . S
H4458 C4472 0.929 . S
H4459 C4473 0.931 . S
H4460 C4475 0.930 . S
C4461 H4449 0.930 . S
C4461 C4462 1.399 . S
C4461 C4466 1.399 . S
C4462 C4461 1.399 . S
C4462 C4463 1.376 . S
C4463 H4450 0.930 . S
C4463 C4462 1.376 . S
C4463 C4464 1.388 . S
C4464 H4451 0.930 . S
C4464 C4463 1.388 . S
C4464 C4465 1.390 . S
C4465 C4464 1.390 . S
C4465 C4466 1.394 . S
C4465 C4471 1.465 1_556 S
C4466 C4461 1.399 . S
C4466 C4465 1.394 . S
C4466 C4467 1.520 1_556 S
C4467 C4466 1.520 1_554 S
C4467 C4468 1.502 . S
C4467 C4469 1.561 . S
C4467 C4470 1.522 . S
C4468 H4452 0.962 . S
C4468 H4453 0.976 . S
C4468 H4454 0.942 1_554 S
C4468 C4467 1.502 . S
C4469 H4455 0.960 1_554 S
C4469 H4456 0.961 . S
C4469 H4457 0.959 . S
C4469 C4467 1.561 . S
C4470 C4467 1.522 . S
C4470 C4471 1.396 . S
C4470 C4475 1.390 . S
C4471 C4465 1.465 1_554 S
C4471 C4470 1.396 . S
C4471 C4472 1.399 . S
C4472 H4458 0.929 . S
C4472 C4471 1.399 . S
C4472 C4473 1.385 . S
C4473 H4459 0.931 . S
C4473 C4472 1.385 . S
C4473 C4474 1.389 . S
C4474 C4473 1.389 . S
C4474 C4475 1.387 . S
C4475 H4460 0.930 . S
C4475 C4470 1.390 . S
C4475 C4474 1.387 . S
H4476 C4488 0.930 . S
H4477 C4490 0.930 . S
H4478 C4491 0.930 . S
H4479 C4495 0.962 . S
H4480 C4495 0.976 . S
H4481 C4495 0.942 1_554 S
H4482 C4496 0.960 1_554 S
H4483 C4496 0.961 . S
H4484 C4496 0.959 . S
H4485 C4499 0.929 . S
H4486 C4500 0.931 . S
H4487 C4502 0.930 . S
C4488 H4476 0.930 . S
C4488 C4489 1.399 . S
C4488 C4493 1.399 . S
C4489 C4488 1.399 . S
C4489 C4490 1.376 . S
C4490 H4477 0.930 . S
C4490 C4489 1.376 . S
C4490 C4491 1.388 . S
C4491 H4478 0.930 . S
C4491 C4490 1.388 . S
C4491 C4492 1.390 . S
C4492 C4491 1.390 . S
C4492 C4493 1.394 . S
C4492 C4498 1.465 1_554 S
C4493 C4488 1.399 . S
C4493 C4492 1.394 . S
C4493 C4494 1.520 1_554 S
C4494 C4493 1.520 1_556 S
C4494 C4495 1.502 . S
C4494 C4496 1.561 . S
C4494 C4497 1.522 . S
C4495 H4479 0.962 . S
C4495 H4480 0.976 . S
C4495 H4481 0.942 1_556 S
C4495 C4494 1.502 . S
C4496 H4482 0.960 1_556 S
C4496 H4483 0.961 . S
C4496 H4484 0.959 . S
C4496 C4494 1.561 . S
C4497 C4494 1.522 . S
C4497 C4498 1.396 . S
C4497 C4502 1.390 . S
C4498 C4492 1.465 1_556 S
C4498 C4497 1.396 . S
C4498 C4499 1.399 . S
C4499 H4485 0.929 . S
C4499 C4498 1.399 . S
C4499 C4500 1.385 . S
C4500 H4486 0.931 . S
C4500 C4499 1.385 . S
C4500 C4501 1.389 . S
C4501 C4500 1.389 . S
C4501 C4502 1.387 . S
C4502 H4487 0.930 . S
C4502 C4497 1.390 . S
C4502 C4501 1.387 . S
H4503 C4515 0.930 . S
H4504 C4517 0.930 . S
H4505 C4518 0.930 . S
H4506 C4522 0.962 . S
H4507 C4522 0.976 . S
H4508 C4522 0.942 1_554 S
H4509 C4523 0.960 1_554 S
H4510 C4523 0.961 . S
H4511 C4523 0.959 . S
H4512 C4526 0.929 . S
H4513 C4527 0.931 . S
H4514 C4529 0.930 . S
C4515 H4503 0.930 . S
C4515 C4516 1.399 . S
C4515 C4520 1.399 . S
C4516 C4515 1.399 . S
C4516 C4517 1.376 . S
C4517 H4504 0.930 . S
C4517 C4516 1.376 . S
C4517 C4518 1.388 . S
C4518 H4505 0.930 . S
C4518 C4517 1.388 . S
C4518 C4519 1.390 . S
C4519 C4518 1.390 . S
C4519 C4520 1.394 . S
C4519 C4525 1.465 1_554 S
C4520 C4515 1.399 . S
C4520 C4519 1.394 . S
C4520 C4521 1.520 1_554 S
C4521 C4520 1.520 1_556 S
C4521 C4522 1.502 . S
C4521 C4523 1.561 . S
C4521 C4524 1.522 . S
C4522 H4506 0.962 . S
C4522 H4507 0.976 . S
C4522 H4508 0.942 1_556 S
C4522 C4521 1.502 . S
C4523 H4509 0.960 1_556 S
C4523 H4510 0.961 . S
C4523 H4511 0.959 . S
C4523 C4521 1.561 . S
C4524 C4521 1.522 . S
C4524 C4525 1.396 . S
C4524 C4529 1.390 . S
C4525 C4519 1.465 1_556 S
C4525 C4524 1.396 . S
C4525 C4526 1.399 . S
C4526 H4512 0.929 . S
C4526 C4525 1.399 . S
C4526 C4527 1.385 . S
C4527 H4513 0.931 . S
C4527 C4526 1.385 . S
C4527 C4528 1.389 . S
C4528 C4527 1.389 . S
C4528 C4529 1.387 . S
C4529 H4514 0.930 . S
C4529 C4524 1.390 . S
C4529 C4528 1.387 . S
H4530 C4542 0.930 . S
H4531 C4544 0.930 . S
H4532 C4545 0.930 . S
H4533 C4549 0.962 . S
H4534 C4549 0.976 . S
H4535 C4549 0.942 1_554 S
H4536 C4550 0.960 1_554 S
H4537 C4550 0.961 . S
H4538 C4550 0.959 . S
H4539 C4553 0.929 . S
H4540 C4554 0.931 . S
H4541 C4556 0.930 . S
C4542 H4530 0.930 . S
C4542 C4543 1.399 . S
C4542 C4547 1.399 . S
C4543 C4542 1.399 . S
C4543 C4544 1.376 . S
C4544 H4531 0.930 . S
C4544 C4543 1.376 . S
C4544 C4545 1.388 . S
C4545 H4532 0.930 . S
C4545 C4544 1.388 . S
C4545 C4546 1.390 . S
C4546 C4545 1.390 . S
C4546 C4547 1.394 . S
C4546 C4552 1.465 1_554 S
C4547 C4542 1.399 . S
C4547 C4546 1.394 . S
C4547 C4548 1.520 1_554 S
C4548 C4547 1.520 1_556 S
C4548 C4549 1.502 . S
C4548 C4550 1.561 . S
C4548 C4551 1.522 . S
C4549 H4533 0.962 . S
C4549 H4534 0.976 . S
C4549 H4535 0.942 1_556 S
C4549 C4548 1.502 . S
C4550 H4536 0.960 1_556 S
C4550 H4537 0.961 . S
C4550 H4538 0.959 . S
C4550 C4548 1.561 . S
C4551 C4548 1.522 . S
C4551 C4552 1.396 . S
C4551 C4556 1.390 . S
C4552 C4546 1.465 1_556 S
C4552 C4551 1.396 . S
C4552 C4553 1.399 . S
C4553 H4539 0.929 . S
C4553 C4552 1.399 . S
C4553 C4554 1.385 . S
C4554 H4540 0.931 . S
C4554 C4553 1.385 . S
C4554 C4555 1.389 . S
C4555 C4554 1.389 . S
C4555 C4556 1.387 . S
C4556 H4541 0.930 . S
C4556 C4551 1.390 . S
C4556 C4555 1.387 . S
H4557 C4569 0.930 . S
H4558 C4571 0.930 . S
H4559 C4572 0.930 . S
H4560 C4576 0.962 . S
H4561 C4576 0.976 . S
H4562 C4576 0.942 1_556 S
H4563 C4577 0.960 1_556 S
H4564 C4577 0.961 . S
H4565 C4577 0.959 . S
H4566 C4580 0.929 . S
H4567 C4581 0.931 . S
H4568 C4583 0.930 . S
C4569 H4557 0.930 . S
C4569 C4570 1.399 . S
C4569 C4574 1.399 . S
C4570 C4569 1.399 . S
C4570 C4571 1.376 . S
C4571 H4558 0.930 . S
C4571 C4570 1.376 . S
C4571 C4572 1.388 . S
C4572 H4559 0.930 . S
C4572 C4571 1.388 . S
C4572 C4573 1.390 . S
C4573 C4572 1.390 . S
C4573 C4574 1.394 . S
C4573 C4579 1.465 1_556 S
C4574 C4569 1.399 . S
C4574 C4573 1.394 . S
C4574 C4575 1.520 1_556 S
C4575 C4574 1.520 1_554 S
C4575 C4576 1.502 . S
C4575 C4577 1.561 . S
C4575 C4578 1.522 . S
C4576 H4560 0.962 . S
C4576 H4561 0.976 . S
C4576 H4562 0.942 1_554 S
C4576 C4575 1.502 . S
C4577 H4563 0.960 1_554 S
C4577 H4564 0.961 . S
C4577 H4565 0.959 . S
C4577 C4575 1.561 . S
C4578 C4575 1.522 . S
C4578 C4579 1.396 . S
C4578 C4583 1.390 . S
C4579 C4573 1.465 1_554 S
C4579 C4578 1.396 . S
C4579 C4580 1.399 . S
C4580 H4566 0.929 . S
C4580 C4579 1.399 . S
C4580 C4581 1.385 . S
C4581 H4567 0.931 . S
C4581 C4580 1.385 . S
C4581 C4582 1.389 . S
C4582 C4581 1.389 . S
C4582 C4583 1.387 . S
C4583 H4568 0.930 . S
C4583 C4578 1.390 . S
C4583 C4582 1.387 . S
H4584 C4596 0.930 . S
H4585 C4598 0.930 . S
H4586 C4599 0.930 . S
H4587 C4603 0.959 . S
H4588 C4603 0.959 . S
H4589 C4603 0.961 . S
H4590 C4604 0.960 . S
H4591 C4604 0.961 . S
H4592 C4604 0.959 . S
H4593 C4607 0.929 . S
H4594 C4608 0.931 . S
H4595 C4610 0.930 . S
C4596 H4584 0.930 . S
C4596 C4597 1.399 . S
C4596 C4601 1.399 . S
C4597 C4596 1.399 . S
C4597 C4598 1.376 . S
C4598 H4585 0.930 . S
C4598 C4597 1.376 . S
C4598 C4599 1.388 . S
C4599 H4586 0.930 . S
C4599 C4598 1.388 . S
C4599 C4600 1.390 . S
C4600 C4599 1.390 . S
C4600 C4601 1.394 . S
C4600 C4606 1.465 . S
C4601 C4596 1.399 . S
C4601 C4600 1.394 . S
C4601 C4602 1.516 . S
C4602 C4601 1.516 . S
C4602 C4603 1.502 . S
C4602 C4604 1.561 . S
C4602 C4605 1.526 . S
C4603 H4587 0.959 . S
C4603 H4588 0.959 . S
C4603 H4589 0.961 . S
C4603 C4602 1.502 . S
C4604 H4590 0.960 . S
C4604 H4591 0.961 . S
C4604 H4592 0.959 . S
C4604 C4602 1.561 . S
C4605 C4602 1.526 . S
C4605 C4606 1.396 . S
C4605 C4610 1.390 . S
C4606 C4600 1.465 . S
C4606 C4605 1.396 . S
C4606 C4607 1.399 . S
C4607 H4593 0.929 . S
C4607 C4606 1.399 . S
C4607 C4608 1.385 . S
C4608 H4594 0.931 . S
C4608 C4607 1.385 . S
C4608 C4609 1.389 . S
C4609 C4608 1.389 . S
C4609 C4610 1.387 . S
C4610 H4595 0.930 . S
C4610 C4605 1.390 . S
C4610 C4609 1.387 . S
H4611 C4623 0.930 . S
H4612 C4625 0.930 . S
H4613 C4626 0.930 . S
H4614 C4630 0.959 . S
H4615 C4630 0.959 . S
H4616 C4630 0.961 . S
H4617 C4631 0.960 . S
H4618 C4631 0.961 . S
H4619 C4631 0.959 . S
H4620 C4634 0.929 . S
H4621 C4635 0.931 . S
H4622 C4637 0.930 . S
C4623 H4611 0.930 . S
C4623 C4624 1.399 . S
C4623 C4628 1.399 . S
C4624 C4623 1.399 . S
C4624 C4625 1.376 . S
C4625 H4612 0.930 . S
C4625 C4624 1.376 . S
C4625 C4626 1.388 . S
C4626 H4613 0.930 . S
C4626 C4625 1.388 . S
C4626 C4627 1.390 . S
C4627 C4626 1.390 . S
C4627 C4628 1.394 . S
C4627 C4633 1.465 . S
C4628 C4623 1.399 . S
C4628 C4627 1.394 . S
C4628 C4629 1.516 . S
C4629 C4628 1.516 . S
C4629 C4630 1.502 . S
C4629 C4631 1.561 . S
C4629 C4632 1.526 . S
C4630 H4614 0.959 . S
C4630 H4615 0.959 . S
C4630 H4616 0.961 . S
C4630 C4629 1.502 . S
C4631 H4617 0.960 . S
C4631 H4618 0.961 . S
C4631 H4619 0.959 . S
C4631 C4629 1.561 . S
C4632 C4629 1.526 . S
C4632 C4633 1.396 . S
C4632 C4637 1.390 . S
C4633 C4627 1.465 . S
C4633 C4632 1.396 . S
C4633 C4634 1.399 . S
C4634 H4620 0.929 . S
C4634 C4633 1.399 . S
C4634 C4635 1.385 . S
C4635 H4621 0.931 . S
C4635 C4634 1.385 . S
C4635 C4636 1.389 . S
C4636 C4635 1.389 . S
C4636 C4637 1.387 . S
C4637 H4622 0.930 . S
C4637 C4632 1.390 . S
C4637 C4636 1.387 . S
H4638 C4650 0.930 . S
H4639 C4652 0.930 . S
H4640 C4653 0.930 . S
H4641 C4657 0.959 . S
H4642 C4657 0.959 . S
H4643 C4657 0.961 . S
H4644 C4658 0.960 . S
H4645 C4658 0.961 . S
H4646 C4658 0.959 . S
H4647 C4661 0.929 . S
H4648 C4662 0.931 . S
H4649 C4664 0.930 . S
C4650 H4638 0.930 . S
C4650 C4651 1.399 . S
C4650 C4655 1.399 . S
C4651 C4650 1.399 . S
C4651 C4652 1.376 . S
C4652 H4639 0.930 . S
C4652 C4651 1.376 . S
C4652 C4653 1.388 . S
C4653 H4640 0.930 . S
C4653 C4652 1.388 . S
C4653 C4654 1.390 . S
C4654 C4653 1.390 . S
C4654 C4655 1.394 . S
C4654 C4660 1.465 . S
C4655 C4650 1.399 . S
C4655 C4654 1.394 . S
C4655 C4656 1.516 . S
C4656 C4655 1.516 . S
C4656 C4657 1.502 . S
C4656 C4658 1.561 . S
C4656 C4659 1.526 . S
C4657 H4641 0.959 . S
C4657 H4642 0.959 . S
C4657 H4643 0.961 . S
C4657 C4656 1.502 . S
C4658 H4644 0.960 . S
C4658 H4645 0.961 . S
C4658 H4646 0.959 . S
C4658 C4656 1.561 . S
C4659 C4656 1.526 . S
C4659 C4660 1.396 . S
C4659 C4664 1.390 . S
C4660 C4654 1.465 . S
C4660 C4659 1.396 . S
C4660 C4661 1.399 . S
C4661 H4647 0.929 . S
C4661 C4660 1.399 . S
C4661 C4662 1.385 . S
C4662 H4648 0.931 . S
C4662 C4661 1.385 . S
C4662 C4663 1.389 . S
C4663 C4662 1.389 . S
C4663 C4664 1.387 . S
C4664 H4649 0.930 . S
C4664 C4659 1.390 . S
C4664 C4663 1.387 . S
H4665 C4677 0.930 . S
H4666 C4679 0.930 . S
H4667 C4680 0.930 . S
H4668 C4684 0.959 . S
H4669 C4684 0.959 . S
H4670 C4684 0.961 . S
H4671 C4685 0.960 . S
H4672 C4685 0.961 . S
H4673 C4685 0.959 . S
H4674 C4688 0.929 . S
H4675 C4689 0.931 . S
H4676 C4691 0.930 . S
C4677 H4665 0.930 . S
C4677 C4678 1.399 . S
C4677 C4682 1.399 . S
C4678 C4677 1.399 . S
C4678 C4679 1.376 . S
C4679 H4666 0.930 . S
C4679 C4678 1.376 . S
C4679 C4680 1.388 . S
C4680 H4667 0.930 . S
C4680 C4679 1.388 . S
C4680 C4681 1.390 . S
C4681 C4680 1.390 . S
C4681 C4682 1.394 . S
C4681 C4687 1.465 . S
C4682 C4677 1.399 . S
C4682 C4681 1.394 . S
C4682 C4683 1.516 . S
C4683 C4682 1.516 . S
C4683 C4684 1.502 . S
C4683 C4685 1.561 . S
C4683 C4686 1.526 . S
C4684 H4668 0.959 . S
C4684 H4669 0.959 . S
C4684 H4670 0.961 . S
C4684 C4683 1.502 . S
C4685 H4671 0.960 . S
C4685 H4672 0.961 . S
C4685 H4673 0.959 . S
C4685 C4683 1.561 . S
C4686 C4683 1.526 . S
C4686 C4687 1.396 . S
C4686 C4691 1.390 . S
C4687 C4681 1.465 . S
C4687 C4686 1.396 . S
C4687 C4688 1.399 . S
C4688 H4674 0.929 . S
C4688 C4687 1.399 . S
C4688 C4689 1.385 . S
C4689 H4675 0.931 . S
C4689 C4688 1.385 . S
C4689 C4690 1.389 . S
C4690 C4689 1.389 . S
C4690 C4691 1.387 . S
C4691 H4676 0.930 . S
C4691 C4686 1.390 . S
C4691 C4690 1.387 . S
H4692 C4704 0.930 . S
H4693 C4706 0.930 . S
H4694 C4707 0.930 . S
H4695 C4711 0.959 . S
H4696 C4711 0.959 . S
H4697 C4711 0.961 . S
H4698 C4712 0.960 . S
H4699 C4712 0.961 . S
H4700 C4712 0.959 . S
H4701 C4715 0.929 . S
H4702 C4716 0.931 . S
H4703 C4718 0.930 . S
C4704 H4692 0.930 . S
C4704 C4705 1.399 . S
C4704 C4709 1.399 . S
C4705 C4704 1.399 . S
C4705 C4706 1.376 . S
C4706 H4693 0.930 . S
C4706 C4705 1.376 . S
C4706 C4707 1.388 . S
C4707 H4694 0.930 . S
C4707 C4706 1.388 . S
C4707 C4708 1.390 . S
C4708 C4707 1.390 . S
C4708 C4709 1.394 . S
C4708 C4714 1.465 . S
C4709 C4704 1.399 . S
C4709 C4708 1.394 . S
C4709 C4710 1.516 . S
C4710 C4709 1.516 . S
C4710 C4711 1.502 . S
C4710 C4712 1.561 . S
C4710 C4713 1.526 . S
C4711 H4695 0.959 . S
C4711 H4696 0.959 . S
C4711 H4697 0.961 . S
C4711 C4710 1.502 . S
C4712 H4698 0.960 . S
C4712 H4699 0.961 . S
C4712 H4700 0.959 . S
C4712 C4710 1.561 . S
C4713 C4710 1.526 . S
C4713 C4714 1.396 . S
C4713 C4718 1.390 . S
C4714 C4708 1.465 . S
C4714 C4713 1.396 . S
C4714 C4715 1.399 . S
C4715 H4701 0.929 . S
C4715 C4714 1.399 . S
C4715 C4716 1.385 . S
C4716 H4702 0.931 . S
C4716 C4715 1.385 . S
C4716 C4717 1.389 . S
C4717 C4716 1.389 . S
C4717 C4718 1.387 . S
C4718 H4703 0.930 . S
C4718 C4713 1.390 . S
C4718 C4717 1.387 . S
H4719 C4731 0.930 . S
H4720 C4733 0.930 . S
H4721 C4734 0.930 . S
H4722 C4738 0.959 . S
H4723 C4738 0.959 . S
H4724 C4738 0.961 . S
H4725 C4739 0.960 . S
H4726 C4739 0.961 . S
H4727 C4739 0.959 . S
H4728 C4742 0.929 . S
H4729 C4743 0.931 . S
H4730 C4745 0.930 . S
C4731 H4719 0.930 . S
C4731 C4732 1.399 . S
C4731 C4736 1.399 . S
C4732 C4731 1.399 . S
C4732 C4733 1.376 . S
C4733 H4720 0.930 . S
C4733 C4732 1.376 . S
C4733 C4734 1.388 . S
C4734 H4721 0.930 . S
C4734 C4733 1.388 . S
C4734 C4735 1.390 . S
C4735 C4734 1.390 . S
C4735 C4736 1.394 . S
C4735 C4741 1.465 . S
C4736 C4731 1.399 . S
C4736 C4735 1.394 . S
C4736 C4737 1.516 . S
C4737 C4736 1.516 . S
C4737 C4738 1.502 . S
C4737 C4739 1.561 . S
C4737 C4740 1.526 . S
C4738 H4722 0.959 . S
C4738 H4723 0.959 . S
C4738 H4724 0.961 . S
C4738 C4737 1.502 . S
C4739 H4725 0.960 . S
C4739 H4726 0.961 . S
C4739 H4727 0.959 . S
C4739 C4737 1.561 . S
C4740 C4737 1.526 . S
C4740 C4741 1.396 . S
C4740 C4745 1.390 . S
C4741 C4735 1.465 . S
C4741 C4740 1.396 . S
C4741 C4742 1.399 . S
C4742 H4728 0.929 . S
C4742 C4741 1.399 . S
C4742 C4743 1.385 . S
C4743 H4729 0.931 . S
C4743 C4742 1.385 . S
C4743 C4744 1.389 . S
C4744 C4743 1.389 . S
C4744 C4745 1.387 . S
C4745 H4730 0.930 . S
C4745 C4740 1.390 . S
C4745 C4744 1.387 . S
H4746 C4758 0.930 . S
H4747 C4760 0.930 . S
H4748 C4761 0.930 . S
H4749 C4765 0.959 . S
H4750 C4765 0.959 . S
H4751 C4765 0.961 . S
H4752 C4766 0.960 . S
H4753 C4766 0.961 . S
H4754 C4766 0.959 . S
H4755 C4769 0.929 . S
H4756 C4770 0.931 . S
H4757 C4772 0.930 . S
C4758 H4746 0.930 . S
C4758 C4759 1.399 . S
C4758 C4763 1.399 . S
C4759 C4758 1.399 . S
C4759 C4760 1.376 . S
C4760 H4747 0.930 . S
C4760 C4759 1.376 . S
C4760 C4761 1.388 . S
C4761 H4748 0.930 . S
C4761 C4760 1.388 . S
C4761 C4762 1.390 . S
C4762 C4761 1.390 . S
C4762 C4763 1.394 . S
C4762 C4768 1.465 . S
C4763 C4758 1.399 . S
C4763 C4762 1.394 . S
C4763 C4764 1.516 . S
C4764 C4763 1.516 . S
C4764 C4765 1.502 . S
C4764 C4766 1.561 . S
C4764 C4767 1.526 . S
C4765 H4749 0.959 . S
C4765 H4750 0.959 . S
C4765 H4751 0.961 . S
C4765 C4764 1.502 . S
C4766 H4752 0.960 . S
C4766 H4753 0.961 . S
C4766 H4754 0.959 . S
C4766 C4764 1.561 . S
C4767 C4764 1.526 . S
C4767 C4768 1.396 . S
C4767 C4772 1.390 . S
C4768 C4762 1.465 . S
C4768 C4767 1.396 . S
C4768 C4769 1.399 . S
C4769 H4755 0.929 . S
C4769 C4768 1.399 . S
C4769 C4770 1.385 . S
C4770 H4756 0.931 . S
C4770 C4769 1.385 . S
C4770 C4771 1.389 . S
C4771 C4770 1.389 . S
C4771 C4772 1.387 . S
C4772 H4757 0.930 . S
C4772 C4767 1.390 . S
C4772 C4771 1.387 . S
H4773 C4785 0.930 . S
H4774 C4787 0.930 . S
H4775 C4788 0.930 . S
H4776 C4792 0.959 . S
H4777 C4792 0.959 . S
H4778 C4792 0.961 . S
H4779 C4793 0.960 . S
H4780 C4793 0.961 . S
H4781 C4793 0.959 . S
H4782 C4796 0.929 . S
H4783 C4797 0.931 . S
H4784 C4799 0.930 . S
C4785 H4773 0.930 . S
C4785 C4786 1.399 . S
C4785 C4790 1.399 . S
C4786 C4785 1.399 . S
C4786 C4787 1.376 . S
C4787 H4774 0.930 . S
C4787 C4786 1.376 . S
C4787 C4788 1.388 . S
C4788 H4775 0.930 . S
C4788 C4787 1.388 . S
C4788 C4789 1.390 . S
C4789 C4788 1.390 . S
C4789 C4790 1.394 . S
C4789 C4795 1.465 . S
C4790 C4785 1.399 . S
C4790 C4789 1.394 . S
C4790 C4791 1.516 . S
C4791 C4790 1.516 . S
C4791 C4792 1.502 . S
C4791 C4793 1.561 . S
C4791 C4794 1.526 . S
C4792 H4776 0.959 . S
C4792 H4777 0.959 . S
C4792 H4778 0.961 . S
C4792 C4791 1.502 . S
C4793 H4779 0.960 . S
C4793 H4780 0.961 . S
C4793 H4781 0.959 . S
C4793 C4791 1.561 . S
C4794 C4791 1.526 . S
C4794 C4795 1.396 . S
C4794 C4799 1.390 . S
C4795 C4789 1.465 . S
C4795 C4794 1.396 . S
C4795 C4796 1.399 . S
C4796 H4782 0.929 . S
C4796 C4795 1.399 . S
C4796 C4797 1.385 . S
C4797 H4783 0.931 . S
C4797 C4796 1.385 . S
C4797 C4798 1.389 . S
C4798 C4797 1.389 . S
C4798 C4799 1.387 . S
C4799 H4784 0.930 . S
C4799 C4794 1.390 . S
C4799 C4798 1.387 . S
H4800 C4812 0.930 . S
H4801 C4814 0.930 . S
H4802 C4815 0.930 . S
H4803 C4819 0.959 . S
H4804 C4819 0.959 . S
H4805 C4819 0.961 . S
H4806 C4820 0.960 . S
H4807 C4820 0.961 . S
H4808 C4820 0.959 . S
H4809 C4823 0.929 . S
H4810 C4824 0.931 . S
H4811 C4826 0.930 . S
C4812 H4800 0.930 . S
C4812 C4813 1.399 . S
C4812 C4817 1.399 . S
C4813 C4812 1.399 . S
C4813 C4814 1.376 . S
C4814 H4801 0.930 . S
C4814 C4813 1.376 . S
C4814 C4815 1.388 . S
C4815 H4802 0.930 . S
C4815 C4814 1.388 . S
C4815 C4816 1.390 . S
C4816 C4815 1.390 . S
C4816 C4817 1.394 . S
C4816 C4822 1.465 . S
C4817 C4812 1.399 . S
C4817 C4816 1.394 . S
C4817 C4818 1.516 . S
C4818 C4817 1.516 . S
C4818 C4819 1.502 . S
C4818 C4820 1.561 . S
C4818 C4821 1.526 . S
C4819 H4803 0.959 . S
C4819 H4804 0.959 . S
C4819 H4805 0.961 . S
C4819 C4818 1.502 . S
C4820 H4806 0.960 . S
C4820 H4807 0.961 . S
C4820 H4808 0.959 . S
C4820 C4818 1.561 . S
C4821 C4818 1.526 . S
C4821 C4822 1.396 . S
C4821 C4826 1.390 . S
C4822 C4816 1.465 . S
C4822 C4821 1.396 . S
C4822 C4823 1.399 . S
C4823 H4809 0.929 . S
C4823 C4822 1.399 . S
C4823 C4824 1.385 . S
C4824 H4810 0.931 . S
C4824 C4823 1.385 . S
C4824 C4825 1.389 . S
C4825 C4824 1.389 . S
C4825 C4826 1.387 . S
C4826 H4811 0.930 . S
C4826 C4821 1.390 . S
C4826 C4825 1.387 . S
H4827 C4839 0.930 . S
H4828 C4841 0.930 . S
H4829 C4842 0.930 . S
H4830 C4846 0.959 . S
H4831 C4846 0.959 . S
H4832 C4846 0.961 . S
H4833 C4847 0.960 . S
H4834 C4847 0.961 . S
H4835 C4847 0.959 . S
H4836 C4850 0.929 . S
H4837 C4851 0.931 . S
H4838 C4853 0.930 . S
C4839 H4827 0.930 . S
C4839 C4840 1.399 . S
C4839 C4844 1.399 . S
C4840 C4839 1.399 . S
C4840 C4841 1.376 . S
C4841 H4828 0.930 . S
C4841 C4840 1.376 . S
C4841 C4842 1.388 . S
C4842 H4829 0.930 . S
C4842 C4841 1.388 . S
C4842 C4843 1.390 . S
C4843 C4842 1.390 . S
C4843 C4844 1.394 . S
C4843 C4849 1.465 . S
C4844 C4839 1.399 . S
C4844 C4843 1.394 . S
C4844 C4845 1.516 . S
C4845 C4844 1.516 . S
C4845 C4846 1.502 . S
C4845 C4847 1.561 . S
C4845 C4848 1.526 . S
C4846 H4830 0.959 . S
C4846 H4831 0.959 . S
C4846 H4832 0.961 . S
C4846 C4845 1.502 . S
C4847 H4833 0.960 . S
C4847 H4834 0.961 . S
C4847 H4835 0.959 . S
C4847 C4845 1.561 . S
C4848 C4845 1.526 . S
C4848 C4849 1.396 . S
C4848 C4853 1.390 . S
C4849 C4843 1.465 . S
C4849 C4848 1.396 . S
C4849 C4850 1.399 . S
C4850 H4836 0.929 . S
C4850 C4849 1.399 . S
C4850 C4851 1.385 . S
C4851 H4837 0.931 . S
C4851 C4850 1.385 . S
C4851 C4852 1.389 . S
C4852 C4851 1.389 . S
C4852 C4853 1.387 . S
C4853 H4838 0.930 . S
C4853 C4848 1.390 . S
C4853 C4852 1.387 . S
H4854 C4866 0.930 . S
H4855 C4868 0.930 . S
H4856 C4869 0.930 . S
H4857 C4873 0.959 . S
H4858 C4873 0.959 . S
H4859 C4873 0.961 . S
H4860 C4874 0.960 . S
H4861 C4874 0.961 . S
H4862 C4874 0.959 . S
H4863 C4877 0.929 . S
H4864 C4878 0.931 . S
H4865 C4880 0.930 . S
C4866 H4854 0.930 . S
C4866 C4867 1.399 . S
C4866 C4871 1.399 . S
C4867 C4866 1.399 . S
C4867 C4868 1.376 . S
C4868 H4855 0.930 . S
C4868 C4867 1.376 . S
C4868 C4869 1.388 . S
C4869 H4856 0.930 . S
C4869 C4868 1.388 . S
C4869 C4870 1.390 . S
C4870 C4869 1.390 . S
C4870 C4871 1.394 . S
C4870 C4876 1.465 . S
C4871 C4866 1.399 . S
C4871 C4870 1.394 . S
C4871 C4872 1.516 . S
C4872 C4871 1.516 . S
C4872 C4873 1.502 . S
C4872 C4874 1.561 . S
C4872 C4875 1.526 . S
C4873 H4857 0.959 . S
C4873 H4858 0.959 . S
C4873 H4859 0.961 . S
C4873 C4872 1.502 . S
C4874 H4860 0.960 . S
C4874 H4861 0.961 . S
C4874 H4862 0.959 . S
C4874 C4872 1.561 . S
C4875 C4872 1.526 . S
C4875 C4876 1.396 . S
C4875 C4880 1.390 . S
C4876 C4870 1.465 . S
C4876 C4875 1.396 . S
C4876 C4877 1.399 . S
C4877 H4863 0.929 . S
C4877 C4876 1.399 . S
C4877 C4878 1.385 . S
C4878 H4864 0.931 . S
C4878 C4877 1.385 . S
C4878 C4879 1.389 . S
C4879 C4878 1.389 . S
C4879 C4880 1.387 . S
C4880 H4865 0.930 . S
C4880 C4875 1.390 . S
C4880 C4879 1.387 . S
H4881 C4893 0.930 . S
H4882 C4895 0.930 . S
H4883 C4896 0.930 . S
H4884 C4900 0.959 . S
H4885 C4900 0.959 . S
H4886 C4900 0.961 . S
H4887 C4901 0.960 . S
H4888 C4901 0.961 . S
H4889 C4901 0.959 . S
H4890 C4904 0.929 . S
H4891 C4905 0.931 . S
H4892 C4907 0.930 . S
C4893 H4881 0.930 . S
C4893 C4894 1.399 . S
C4893 C4898 1.399 . S
C4894 C4893 1.399 . S
C4894 C4895 1.376 . S
C4895 H4882 0.930 . S
C4895 C4894 1.376 . S
C4895 C4896 1.388 . S
C4896 H4883 0.930 . S
C4896 C4895 1.388 . S
C4896 C4897 1.390 . S
C4897 C4896 1.390 . S
C4897 C4898 1.394 . S
C4897 C4903 1.465 . S
C4898 C4893 1.399 . S
C4898 C4897 1.394 . S
C4898 C4899 1.516 . S
C4899 C4898 1.516 . S
C4899 C4900 1.502 . S
C4899 C4901 1.561 . S
C4899 C4902 1.526 . S
C4900 H4884 0.959 . S
C4900 H4885 0.959 . S
C4900 H4886 0.961 . S
C4900 C4899 1.502 . S
C4901 H4887 0.960 . S
C4901 H4888 0.961 . S
C4901 H4889 0.959 . S
C4901 C4899 1.561 . S
C4902 C4899 1.526 . S
C4902 C4903 1.396 . S
C4902 C4907 1.390 . S
C4903 C4897 1.465 . S
C4903 C4902 1.396 . S
C4903 C4904 1.399 . S
C4904 H4890 0.929 . S
C4904 C4903 1.399 . S
C4904 C4905 1.385 . S
C4905 H4891 0.931 . S
C4905 C4904 1.385 . S
C4905 C4906 1.389 . S
C4906 C4905 1.389 . S
C4906 C4907 1.387 . S
C4907 H4892 0.930 . S
C4907 C4902 1.390 . S
C4907 C4906 1.387 . S
H4908 C4920 0.930 . S
H4909 C4922 0.930 . S
H4910 C4923 0.930 . S
H4911 C4927 0.959 . S
H4912 C4927 0.959 . S
H4913 C4927 0.961 . S
H4914 C4928 0.960 . S
H4915 C4928 0.961 . S
H4916 C4928 0.959 . S
H4917 C4931 0.929 . S
H4918 C4932 0.931 . S
H4919 C4934 0.930 . S
C4920 H4908 0.930 . S
C4920 C4921 1.399 . S
C4920 C4925 1.399 . S
C4921 C4920 1.399 . S
C4921 C4922 1.376 . S
C4922 H4909 0.930 . S
C4922 C4921 1.376 . S
C4922 C4923 1.388 . S
C4923 H4910 0.930 . S
C4923 C4922 1.388 . S
C4923 C4924 1.390 . S
C4924 C4923 1.390 . S
C4924 C4925 1.394 . S
C4924 C4930 1.465 . S
C4925 C4920 1.399 . S
C4925 C4924 1.394 . S
C4925 C4926 1.516 . S
C4926 C4925 1.516 . S
C4926 C4927 1.502 . S
C4926 C4928 1.561 . S
C4926 C4929 1.526 . S
C4927 H4911 0.959 . S
C4927 H4912 0.959 . S
C4927 H4913 0.961 . S
C4927 C4926 1.502 . S
C4928 H4914 0.960 . S
C4928 H4915 0.961 . S
C4928 H4916 0.959 . S
C4928 C4926 1.561 . S
C4929 C4926 1.526 . S
C4929 C4930 1.396 . S
C4929 C4934 1.390 . S
C4930 C4924 1.465 . S
C4930 C4929 1.396 . S
C4930 C4931 1.399 . S
C4931 H4917 0.929 . S
C4931 C4930 1.399 . S
C4931 C4932 1.385 . S
C4932 H4918 0.931 . S
C4932 C4931 1.385 . S
C4932 C4933 1.389 . S
C4933 C4932 1.389 . S
C4933 C4934 1.387 . S
C4934 H4919 0.930 . S
C4934 C4929 1.390 . S
C4934 C4933 1.387 . S
H4935 C4947 0.930 . S
H4936 C4949 0.930 . S
H4937 C4950 0.930 . S
H4938 C4954 0.959 . S
H4939 C4954 0.959 . S
H4940 C4954 0.961 . S
H4941 C4955 0.960 . S
H4942 C4955 0.961 . S
H4943 C4955 0.959 . S
H4944 C4958 0.929 . S
H4945 C4959 0.931 . S
H4946 C4961 0.930 . S
C4947 H4935 0.930 . S
C4947 C4948 1.399 . S
C4947 C4952 1.399 . S
C4948 C4947 1.399 . S
C4948 C4949 1.376 . S
C4949 H4936 0.930 . S
C4949 C4948 1.376 . S
C4949 C4950 1.388 . S
C4950 H4937 0.930 . S
C4950 C4949 1.388 . S
C4950 C4951 1.390 . S
C4951 C4950 1.390 . S
C4951 C4952 1.394 . S
C4951 C4957 1.465 . S
C4952 C4947 1.399 . S
C4952 C4951 1.394 . S
C4952 C4953 1.516 . S
C4953 C4952 1.516 . S
C4953 C4954 1.502 . S
C4953 C4955 1.561 . S
C4953 C4956 1.526 . S
C4954 H4938 0.959 . S
C4954 H4939 0.959 . S
C4954 H4940 0.961 . S
C4954 C4953 1.502 . S
C4955 H4941 0.960 . S
C4955 H4942 0.961 . S
C4955 H4943 0.959 . S
C4955 C4953 1.561 . S
C4956 C4953 1.526 . S
C4956 C4957 1.396 . S
C4956 C4961 1.390 . S
C4957 C4951 1.465 . S
C4957 C4956 1.396 . S
C4957 C4958 1.399 . S
C4958 H4944 0.929 . S
C4958 C4957 1.399 . S
C4958 C4959 1.385 . S
C4959 H4945 0.931 . S
C4959 C4958 1.385 . S
C4959 C4960 1.389 . S
C4960 C4959 1.389 . S
C4960 C4961 1.387 . S
C4961 H4946 0.930 . S
C4961 C4956 1.390 . S
C4961 C4960 1.387 . S
H4962 C4974 0.930 . S
H4963 C4976 0.930 . S
H4964 C4977 0.930 . S
H4965 C4981 0.959 . S
H4966 C4981 0.959 . S
H4967 C4981 0.961 . S
H4968 C4982 0.960 . S
H4969 C4982 0.961 . S
H4970 C4982 0.959 . S
H4971 C4985 0.929 . S
H4972 C4986 0.931 . S
H4973 C4988 0.930 . S
C4974 H4962 0.930 . S
C4974 C4975 1.399 . S
C4974 C4979 1.399 . S
C4975 C4974 1.399 . S
C4975 C4976 1.376 . S
C4976 H4963 0.930 . S
C4976 C4975 1.376 . S
C4976 C4977 1.388 . S
C4977 H4964 0.930 . S
C4977 C4976 1.388 . S
C4977 C4978 1.390 . S
C4978 C4977 1.390 . S
C4978 C4979 1.394 . S
C4978 C4984 1.465 . S
C4979 C4974 1.399 . S
C4979 C4978 1.394 . S
C4979 C4980 1.516 . S
C4980 C4979 1.516 . S
C4980 C4981 1.502 . S
C4980 C4982 1.561 . S
C4980 C4983 1.526 . S
C4981 H4965 0.959 . S
C4981 H4966 0.959 . S
C4981 H4967 0.961 . S
C4981 C4980 1.502 . S
C4982 H4968 0.960 . S
C4982 H4969 0.961 . S
C4982 H4970 0.959 . S
C4982 C4980 1.561 . S
C4983 C4980 1.526 . S
C4983 C4984 1.396 . S
C4983 C4988 1.390 . S
C4984 C4978 1.465 . S
C4984 C4983 1.396 . S
C4984 C4985 1.399 . S
C4985 H4971 0.929 . S
C4985 C4984 1.399 . S
C4985 C4986 1.385 . S
C4986 H4972 0.931 . S
C4986 C4985 1.385 . S
C4986 C4987 1.389 . S
C4987 C4986 1.389 . S
C4987 C4988 1.387 . S
C4988 H4973 0.930 . S
C4988 C4983 1.390 . S
C4988 C4987 1.387 . S
H4989 C5001 0.930 . S
H4990 C5003 0.930 . S
H4991 C5004 0.930 . S
H4992 C5008 0.959 . S
H4993 C5008 0.959 . S
H4994 C5008 0.961 . S
H4995 C5009 0.960 . S
H4996 C5009 0.961 . S
H4997 C5009 0.959 . S
H4998 C5012 0.929 . S
H4999 C5013 0.931 . S
H5000 C5015 0.930 . S
C5001 H4989 0.930 . S
C5001 C5002 1.399 . S
C5001 C5006 1.399 . S
C5002 C5001 1.399 . S
C5002 C5003 1.376 . S
C5003 H4990 0.930 . S
C5003 C5002 1.376 . S
C5003 C5004 1.388 . S
C5004 H4991 0.930 . S
C5004 C5003 1.388 . S
C5004 C5005 1.390 . S
C5005 C5004 1.390 . S
C5005 C5006 1.394 . S
C5005 C5011 1.465 . S
C5006 C5001 1.399 . S
C5006 C5005 1.394 . S
C5006 C5007 1.516 . S
C5007 C5006 1.516 . S
C5007 C5008 1.502 . S
C5007 C5009 1.561 . S
C5007 C5010 1.526 . S
C5008 H4992 0.959 . S
C5008 H4993 0.959 . S
C5008 H4994 0.961 . S
C5008 C5007 1.502 . S
C5009 H4995 0.960 . S
C5009 H4996 0.961 . S
C5009 H4997 0.959 . S
C5009 C5007 1.561 . S
C5010 C5007 1.526 . S
C5010 C5011 1.396 . S
C5010 C5015 1.390 . S
C5011 C5005 1.465 . S
C5011 C5010 1.396 . S
C5011 C5012 1.399 . S
C5012 H4998 0.929 . S
C5012 C5011 1.399 . S
C5012 C5013 1.385 . S
C5013 H4999 0.931 . S
C5013 C5012 1.385 . S
C5013 C5014 1.389 . S
C5014 C5013 1.389 . S
C5014 C5015 1.387 . S
C5015 H5000 0.930 . S
C5015 C5010 1.390 . S
C5015 C5014 1.387 . S
H5016 C5028 0.930 . S
H5017 C5030 0.930 . S
H5018 C5031 0.930 . S
H5019 C5035 0.959 . S
H5020 C5035 0.959 . S
H5021 C5035 0.961 . S
H5022 C5036 0.960 . S
H5023 C5036 0.961 . S
H5024 C5036 0.959 . S
H5025 C5039 0.929 . S
H5026 C5040 0.931 . S
H5027 C5042 0.930 . S
C5028 H5016 0.930 . S
C5028 C5029 1.399 . S
C5028 C5033 1.399 . S
C5029 C5028 1.399 . S
C5029 C5030 1.376 . S
C5030 H5017 0.930 . S
C5030 C5029 1.376 . S
C5030 C5031 1.388 . S
C5031 H5018 0.930 . S
C5031 C5030 1.388 . S
C5031 C5032 1.390 . S
C5032 C5031 1.390 . S
C5032 C5033 1.394 . S
C5032 C5038 1.465 . S
C5033 C5028 1.399 . S
C5033 C5032 1.394 . S
C5033 C5034 1.516 . S
C5034 C5033 1.516 . S
C5034 C5035 1.502 . S
C5034 C5036 1.561 . S
C5034 C5037 1.526 . S
C5035 H5019 0.959 . S
C5035 H5020 0.959 . S
C5035 H5021 0.961 . S
C5035 C5034 1.502 . S
C5036 H5022 0.960 . S
C5036 H5023 0.961 . S
C5036 H5024 0.959 . S
C5036 C5034 1.561 . S
C5037 C5034 1.526 . S
C5037 C5038 1.396 . S
C5037 C5042 1.390 . S
C5038 C5032 1.465 . S
C5038 C5037 1.396 . S
C5038 C5039 1.399 . S
C5039 H5025 0.929 . S
C5039 C5038 1.399 . S
C5039 C5040 1.385 . S
C5040 H5026 0.931 . S
C5040 C5039 1.385 . S
C5040 C5041 1.389 . S
C5041 C5040 1.389 . S
C5041 C5042 1.387 . S
C5042 H5027 0.930 . S
C5042 C5037 1.390 . S
C5042 C5041 1.387 . S
H5043 C5055 0.930 . S
H5044 C5057 0.930 . S
H5045 C5058 0.930 . S
H5046 C5062 0.959 . S
H5047 C5062 0.959 . S
H5048 C5062 0.961 . S
H5049 C5063 0.960 . S
H5050 C5063 0.961 . S
H5051 C5063 0.959 . S
H5052 C5066 0.929 . S
H5053 C5067 0.931 . S
H5054 C5069 0.930 . S
C5055 H5043 0.930 . S
C5055 C5056 1.399 . S
C5055 C5060 1.399 . S
C5056 C5055 1.399 . S
C5056 C5057 1.376 . S
C5057 H5044 0.930 . S
C5057 C5056 1.376 . S
C5057 C5058 1.388 . S
C5058 H5045 0.930 . S
C5058 C5057 1.388 . S
C5058 C5059 1.390 . S
C5059 C5058 1.390 . S
C5059 C5060 1.394 . S
C5059 C5065 1.465 . S
C5060 C5055 1.399 . S
C5060 C5059 1.394 . S
C5060 C5061 1.516 . S
C5061 C5060 1.516 . S
C5061 C5062 1.502 . S
C5061 C5063 1.561 . S
C5061 C5064 1.526 . S
C5062 H5046 0.959 . S
C5062 H5047 0.959 . S
C5062 H5048 0.961 . S
C5062 C5061 1.502 . S
C5063 H5049 0.960 . S
C5063 H5050 0.961 . S
C5063 H5051 0.959 . S
C5063 C5061 1.561 . S
C5064 C5061 1.526 . S
C5064 C5065 1.396 . S
C5064 C5069 1.390 . S
C5065 C5059 1.465 . S
C5065 C5064 1.396 . S
C5065 C5066 1.399 . S
C5066 H5052 0.929 . S
C5066 C5065 1.399 . S
C5066 C5067 1.385 . S
C5067 H5053 0.931 . S
C5067 C5066 1.385 . S
C5067 C5068 1.389 . S
C5068 C5067 1.389 . S
C5068 C5069 1.387 . S
C5069 H5054 0.930 . S
C5069 C5064 1.390 . S
C5069 C5068 1.387 . S
H5070 C5082 0.930 . S
H5071 C5084 0.930 . S
H5072 C5085 0.930 . S
H5073 C5089 0.959 . S
H5074 C5089 0.959 . S
H5075 C5089 0.961 . S
H5076 C5090 0.960 . S
H5077 C5090 0.961 . S
H5078 C5090 0.959 . S
H5079 C5093 0.929 . S
H5080 C5094 0.931 . S
H5081 C5096 0.930 . S
C5082 H5070 0.930 . S
C5082 C5083 1.399 . S
C5082 C5087 1.399 . S
C5083 C5082 1.399 . S
C5083 C5084 1.376 . S
C5084 H5071 0.930 . S
C5084 C5083 1.376 . S
C5084 C5085 1.388 . S
C5085 H5072 0.930 . S
C5085 C5084 1.388 . S
C5085 C5086 1.390 . S
C5086 C5085 1.390 . S
C5086 C5087 1.394 . S
C5086 C5092 1.465 . S
C5087 C5082 1.399 . S
C5087 C5086 1.394 . S
C5087 C5088 1.516 . S
C5088 C5087 1.516 . S
C5088 C5089 1.502 . S
C5088 C5090 1.561 . S
C5088 C5091 1.526 . S
C5089 H5073 0.959 . S
C5089 H5074 0.959 . S
C5089 H5075 0.961 . S
C5089 C5088 1.502 . S
C5090 H5076 0.960 . S
C5090 H5077 0.961 . S
C5090 H5078 0.959 . S
C5090 C5088 1.561 . S
C5091 C5088 1.526 . S
C5091 C5092 1.396 . S
C5091 C5096 1.390 . S
C5092 C5086 1.465 . S
C5092 C5091 1.396 . S
C5092 C5093 1.399 . S
C5093 H5079 0.929 . S
C5093 C5092 1.399 . S
C5093 C5094 1.385 . S
C5094 H5080 0.931 . S
C5094 C5093 1.385 . S
C5094 C5095 1.389 . S
C5095 C5094 1.389 . S
C5095 C5096 1.387 . S
C5096 H5081 0.930 . S
C5096 C5091 1.390 . S
C5096 C5095 1.387 . S
H5097 C5109 0.930 . S
H5098 C5111 0.930 . S
H5099 C5112 0.930 . S
H5100 C5116 0.959 . S
H5101 C5116 0.959 . S
H5102 C5116 0.961 . S
H5103 C5117 0.960 . S
H5104 C5117 0.961 . S
H5105 C5117 0.959 . S
H5106 C5120 0.929 . S
H5107 C5121 0.931 . S
H5108 C5123 0.930 . S
C5109 H5097 0.930 . S
C5109 C5110 1.399 . S
C5109 C5114 1.399 . S
C5110 C5109 1.399 . S
C5110 C5111 1.376 . S
C5111 H5098 0.930 . S
C5111 C5110 1.376 . S
C5111 C5112 1.388 . S
C5112 H5099 0.930 . S
C5112 C5111 1.388 . S
C5112 C5113 1.390 . S
C5113 C5112 1.390 . S
C5113 C5114 1.394 . S
C5113 C5119 1.465 . S
C5114 C5109 1.399 . S
C5114 C5113 1.394 . S
C5114 C5115 1.516 . S
C5115 C5114 1.516 . S
C5115 C5116 1.502 . S
C5115 C5117 1.561 . S
C5115 C5118 1.526 . S
C5116 H5100 0.959 . S
C5116 H5101 0.959 . S
C5116 H5102 0.961 . S
C5116 C5115 1.502 . S
C5117 H5103 0.960 . S
C5117 H5104 0.961 . S
C5117 H5105 0.959 . S
C5117 C5115 1.561 . S
C5118 C5115 1.526 . S
C5118 C5119 1.396 . S
C5118 C5123 1.390 . S
C5119 C5113 1.465 . S
C5119 C5118 1.396 . S
C5119 C5120 1.399 . S
C5120 H5106 0.929 . S
C5120 C5119 1.399 . S
C5120 C5121 1.385 . S
C5121 H5107 0.931 . S
C5121 C5120 1.385 . S
C5121 C5122 1.389 . S
C5122 C5121 1.389 . S
C5122 C5123 1.387 . S
C5123 H5108 0.930 . S
C5123 C5118 1.390 . S
C5123 C5122 1.387 . S
H5124 C5136 0.930 . S
H5125 C5138 0.930 . S
H5126 C5139 0.930 . S
H5127 C5143 0.959 . S
H5128 C5143 0.959 . S
H5129 C5143 0.961 . S
H5130 C5144 0.960 . S
H5131 C5144 0.961 . S
H5132 C5144 0.959 . S
H5133 C5147 0.929 . S
H5134 C5148 0.931 . S
H5135 C5150 0.930 . S
C5136 H5124 0.930 . S
C5136 C5137 1.399 . S
C5136 C5141 1.399 . S
C5137 C5136 1.399 . S
C5137 C5138 1.376 . S
C5138 H5125 0.930 . S
C5138 C5137 1.376 . S
C5138 C5139 1.388 . S
C5139 H5126 0.930 . S
C5139 C5138 1.388 . S
C5139 C5140 1.390 . S
C5140 C5139 1.390 . S
C5140 C5141 1.394 . S
C5140 C5146 1.465 . S
C5141 C5136 1.399 . S
C5141 C5140 1.394 . S
C5141 C5142 1.516 . S
C5142 C5141 1.516 . S
C5142 C5143 1.502 . S
C5142 C5144 1.561 . S
C5142 C5145 1.526 . S
C5143 H5127 0.959 . S
C5143 H5128 0.959 . S
C5143 H5129 0.961 . S
C5143 C5142 1.502 . S
C5144 H5130 0.960 . S
C5144 H5131 0.961 . S
C5144 H5132 0.959 . S
C5144 C5142 1.561 . S
C5145 C5142 1.526 . S
C5145 C5146 1.396 . S
C5145 C5150 1.390 . S
C5146 C5140 1.465 . S
C5146 C5145 1.396 . S
C5146 C5147 1.399 . S
C5147 H5133 0.929 . S
C5147 C5146 1.399 . S
C5147 C5148 1.385 . S
C5148 H5134 0.931 . S
C5148 C5147 1.385 . S
C5148 C5149 1.389 . S
C5149 C5148 1.389 . S
C5149 C5150 1.387 . S
C5150 H5135 0.930 . S
C5150 C5145 1.390 . S
C5150 C5149 1.387 . S
H5151 C5163 0.930 . S
H5152 C5165 0.930 . S
H5153 C5166 0.930 . S
H5154 C5170 0.959 . S
H5155 C5170 0.959 . S
H5156 C5170 0.961 . S
H5157 C5171 0.960 . S
H5158 C5171 0.961 . S
H5159 C5171 0.959 . S
H5160 C5174 0.929 . S
H5161 C5175 0.931 . S
H5162 C5177 0.930 . S
C5163 H5151 0.930 . S
C5163 C5164 1.399 . S
C5163 C5168 1.399 . S
C5164 C5163 1.399 . S
C5164 C5165 1.376 . S
C5165 H5152 0.930 . S
C5165 C5164 1.376 . S
C5165 C5166 1.388 . S
C5166 H5153 0.930 . S
C5166 C5165 1.388 . S
C5166 C5167 1.390 . S
C5167 C5166 1.390 . S
C5167 C5168 1.394 . S
C5167 C5173 1.465 . S
C5168 C5163 1.399 . S
C5168 C5167 1.394 . S
C5168 C5169 1.516 . S
C5169 C5168 1.516 . S
C5169 C5170 1.502 . S
C5169 C5171 1.561 . S
C5169 C5172 1.526 . S
C5170 H5154 0.959 . S
C5170 H5155 0.959 . S
C5170 H5156 0.961 . S
C5170 C5169 1.502 . S
C5171 H5157 0.960 . S
C5171 H5158 0.961 . S
C5171 H5159 0.959 . S
C5171 C5169 1.561 . S
C5172 C5169 1.526 . S
C5172 C5173 1.396 . S
C5172 C5177 1.390 . S
C5173 C5167 1.465 . S
C5173 C5172 1.396 . S
C5173 C5174 1.399 . S
C5174 H5160 0.929 . S
C5174 C5173 1.399 . S
C5174 C5175 1.385 . S
C5175 H5161 0.931 . S
C5175 C5174 1.385 . S
C5175 C5176 1.389 . S
C5176 C5175 1.389 . S
C5176 C5177 1.387 . S
C5177 H5162 0.930 . S
C5177 C5172 1.390 . S
C5177 C5176 1.387 . S
H5178 C5190 0.930 . S
H5179 C5192 0.930 . S
H5180 C5193 0.930 . S
H5181 C5197 0.959 . S
H5182 C5197 0.959 . S
H5183 C5197 0.961 . S
H5184 C5198 0.960 . S
H5185 C5198 0.961 . S
H5186 C5198 0.959 . S
H5187 C5201 0.929 . S
H5188 C5202 0.931 . S
H5189 C5204 0.930 . S
C5190 H5178 0.930 . S
C5190 C5191 1.399 . S
C5190 C5195 1.399 . S
C5191 C5190 1.399 . S
C5191 C5192 1.376 . S
C5192 H5179 0.930 . S
C5192 C5191 1.376 . S
C5192 C5193 1.388 . S
C5193 H5180 0.930 . S
C5193 C5192 1.388 . S
C5193 C5194 1.390 . S
C5194 C5193 1.390 . S
C5194 C5195 1.394 . S
C5194 C5200 1.465 . S
C5195 C5190 1.399 . S
C5195 C5194 1.394 . S
C5195 C5196 1.516 . S
C5196 C5195 1.516 . S
C5196 C5197 1.502 . S
C5196 C5198 1.561 . S
C5196 C5199 1.526 . S
C5197 H5181 0.959 . S
C5197 H5182 0.959 . S
C5197 H5183 0.961 . S
C5197 C5196 1.502 . S
C5198 H5184 0.960 . S
C5198 H5185 0.961 . S
C5198 H5186 0.959 . S
C5198 C5196 1.561 . S
C5199 C5196 1.526 . S
C5199 C5200 1.396 . S
C5199 C5204 1.390 . S
C5200 C5194 1.465 . S
C5200 C5199 1.396 . S
C5200 C5201 1.399 . S
C5201 H5187 0.929 . S
C5201 C5200 1.399 . S
C5201 C5202 1.385 . S
C5202 H5188 0.931 . S
C5202 C5201 1.385 . S
C5202 C5203 1.389 . S
C5203 C5202 1.389 . S
C5203 C5204 1.387 . S
C5204 H5189 0.930 . S
C5204 C5199 1.390 . S
C5204 C5203 1.387 . S
H5205 C5217 0.930 . S
H5206 C5219 0.930 . S
H5207 C5220 0.930 . S
H5208 C5224 0.959 . S
H5209 C5224 0.959 . S
H5210 C5224 0.961 . S
H5211 C5225 0.960 . S
H5212 C5225 0.961 . S
H5213 C5225 0.959 . S
H5214 C5228 0.929 . S
H5215 C5229 0.931 . S
H5216 C5231 0.930 . S
C5217 H5205 0.930 . S
C5217 C5218 1.399 . S
C5217 C5222 1.399 . S
C5218 C5217 1.399 . S
C5218 C5219 1.376 . S
C5219 H5206 0.930 . S
C5219 C5218 1.376 . S
C5219 C5220 1.388 . S
C5220 H5207 0.930 . S
C5220 C5219 1.388 . S
C5220 C5221 1.390 . S
C5221 C5220 1.390 . S
C5221 C5222 1.394 . S
C5221 C5227 1.465 . S
C5222 C5217 1.399 . S
C5222 C5221 1.394 . S
C5222 C5223 1.516 . S
C5223 C5222 1.516 . S
C5223 C5224 1.502 . S
C5223 C5225 1.561 . S
C5223 C5226 1.526 . S
C5224 H5208 0.959 . S
C5224 H5209 0.959 . S
C5224 H5210 0.961 . S
C5224 C5223 1.502 . S
C5225 H5211 0.960 . S
C5225 H5212 0.961 . S
C5225 H5213 0.959 . S
C5225 C5223 1.561 . S
C5226 C5223 1.526 . S
C5226 C5227 1.396 . S
C5226 C5231 1.390 . S
C5227 C5221 1.465 . S
C5227 C5226 1.396 . S
C5227 C5228 1.399 . S
C5228 H5214 0.929 . S
C5228 C5227 1.399 . S
C5228 C5229 1.385 . S
C5229 H5215 0.931 . S
C5229 C5228 1.385 . S
C5229 C5230 1.389 . S
C5230 C5229 1.389 . S
C5230 C5231 1.387 . S
C5231 H5216 0.930 . S
C5231 C5226 1.390 . S
C5231 C5230 1.387 . S
H5232 C5244 0.930 . S
H5233 C5246 0.930 . S
H5234 C5247 0.930 . S
H5235 C5251 0.959 . S
H5236 C5251 0.959 . S
H5237 C5251 0.961 . S
H5238 C5252 0.960 . S
H5239 C5252 0.961 . S
H5240 C5252 0.959 . S
H5241 C5255 0.929 . S
H5242 C5256 0.931 . S
H5243 C5258 0.930 . S
C5244 H5232 0.930 . S
C5244 C5245 1.399 . S
C5244 C5249 1.399 . S
C5245 C5244 1.399 . S
C5245 C5246 1.376 . S
C5246 H5233 0.930 . S
C5246 C5245 1.376 . S
C5246 C5247 1.388 . S
C5247 H5234 0.930 . S
C5247 C5246 1.388 . S
C5247 C5248 1.390 . S
C5248 C5247 1.390 . S
C5248 C5249 1.394 . S
C5248 C5254 1.465 . S
C5249 C5244 1.399 . S
C5249 C5248 1.394 . S
C5249 C5250 1.516 . S
C5250 C5249 1.516 . S
C5250 C5251 1.502 . S
C5250 C5252 1.561 . S
C5250 C5253 1.526 . S
C5251 H5235 0.959 . S
C5251 H5236 0.959 . S
C5251 H5237 0.961 . S
C5251 C5250 1.502 . S
C5252 H5238 0.960 . S
C5252 H5239 0.961 . S
C5252 H5240 0.959 . S
C5252 C5250 1.561 . S
C5253 C5250 1.526 . S
C5253 C5254 1.396 . S
C5253 C5258 1.390 . S
C5254 C5248 1.465 . S
C5254 C5253 1.396 . S
C5254 C5255 1.399 . S
C5255 H5241 0.929 . S
C5255 C5254 1.399 . S
C5255 C5256 1.385 . S
C5256 H5242 0.931 . S
C5256 C5255 1.385 . S
C5256 C5257 1.389 . S
C5257 C5256 1.389 . S
C5257 C5258 1.387 . S
C5258 H5243 0.930 . S
C5258 C5253 1.390 . S
C5258 C5257 1.387 . S
H5259 C5271 0.930 . S
H5260 C5273 0.930 . S
H5261 C5274 0.930 . S
H5262 C5278 0.959 . S
H5263 C5278 0.959 . S
H5264 C5278 0.961 . S
H5265 C5279 0.960 . S
H5266 C5279 0.961 . S
H5267 C5279 0.959 . S
H5268 C5282 0.929 . S
H5269 C5283 0.931 . S
H5270 C5285 0.930 . S
C5271 H5259 0.930 . S
C5271 C5272 1.399 . S
C5271 C5276 1.399 . S
C5272 C5271 1.399 . S
C5272 C5273 1.376 . S
C5273 H5260 0.930 . S
C5273 C5272 1.376 . S
C5273 C5274 1.388 . S
C5274 H5261 0.930 . S
C5274 C5273 1.388 . S
C5274 C5275 1.390 . S
C5275 C5274 1.390 . S
C5275 C5276 1.394 . S
C5275 C5281 1.465 . S
C5276 C5271 1.399 . S
C5276 C5275 1.394 . S
C5276 C5277 1.516 . S
C5277 C5276 1.516 . S
C5277 C5278 1.502 . S
C5277 C5279 1.561 . S
C5277 C5280 1.526 . S
C5278 H5262 0.959 . S
C5278 H5263 0.959 . S
C5278 H5264 0.961 . S
C5278 C5277 1.502 . S
C5279 H5265 0.960 . S
C5279 H5266 0.961 . S
C5279 H5267 0.959 . S
C5279 C5277 1.561 . S
C5280 C5277 1.526 . S
C5280 C5281 1.396 . S
C5280 C5285 1.390 . S
C5281 C5275 1.465 . S
C5281 C5280 1.396 . S
C5281 C5282 1.399 . S
C5282 H5268 0.929 . S
C5282 C5281 1.399 . S
C5282 C5283 1.385 . S
C5283 H5269 0.931 . S
C5283 C5282 1.385 . S
C5283 C5284 1.389 . S
C5284 C5283 1.389 . S
C5284 C5285 1.387 . S
C5285 H5270 0.930 . S
C5285 C5280 1.390 . S
C5285 C5284 1.387 . S
H5286 C5298 0.930 . S
H5287 C5300 0.930 . S
H5288 C5301 0.930 . S
H5289 C5305 0.959 . S
H5290 C5305 0.959 . S
H5291 C5305 0.961 . S
H5292 C5306 0.960 . S
H5293 C5306 0.961 . S
H5294 C5306 0.959 . S
H5295 C5309 0.929 . S
H5296 C5310 0.931 . S
H5297 C5312 0.930 . S
C5298 H5286 0.930 . S
C5298 C5299 1.399 . S
C5298 C5303 1.399 . S
C5299 C5298 1.399 . S
C5299 C5300 1.376 . S
C5300 H5287 0.930 . S
C5300 C5299 1.376 . S
C5300 C5301 1.388 . S
C5301 H5288 0.930 . S
C5301 C5300 1.388 . S
C5301 C5302 1.390 . S
C5302 C5301 1.390 . S
C5302 C5303 1.394 . S
C5302 C5308 1.465 . S
C5303 C5298 1.399 . S
C5303 C5302 1.394 . S
C5303 C5304 1.516 . S
C5304 C5303 1.516 . S
C5304 C5305 1.502 . S
C5304 C5306 1.561 . S
C5304 C5307 1.526 . S
C5305 H5289 0.959 . S
C5305 H5290 0.959 . S
C5305 H5291 0.961 . S
C5305 C5304 1.502 . S
C5306 H5292 0.960 . S
C5306 H5293 0.961 . S
C5306 H5294 0.959 . S
C5306 C5304 1.561 . S
C5307 C5304 1.526 . S
C5307 C5308 1.396 . S
C5307 C5312 1.390 . S
C5308 C5302 1.465 . S
C5308 C5307 1.396 . S
C5308 C5309 1.399 . S
C5309 H5295 0.929 . S
C5309 C5308 1.399 . S
C5309 C5310 1.385 . S
C5310 H5296 0.931 . S
C5310 C5309 1.385 . S
C5310 C5311 1.389 . S
C5311 C5310 1.389 . S
C5311 C5312 1.387 . S
C5312 H5297 0.930 . S
C5312 C5307 1.390 . S
C5312 C5311 1.387 . S
H5313 C5325 0.930 . S
H5314 C5327 0.930 . S
H5315 C5328 0.930 . S
H5316 C5332 0.959 . S
H5317 C5332 0.959 . S
H5318 C5332 0.961 . S
H5319 C5333 0.960 . S
H5320 C5333 0.961 . S
H5321 C5333 0.959 . S
H5322 C5336 0.929 . S
H5323 C5337 0.931 . S
H5324 C5339 0.930 . S
C5325 H5313 0.930 . S
C5325 C5326 1.399 . S
C5325 C5330 1.399 . S
C5326 C5325 1.399 . S
C5326 C5327 1.376 . S
C5327 H5314 0.930 . S
C5327 C5326 1.376 . S
C5327 C5328 1.388 . S
C5328 H5315 0.930 . S
C5328 C5327 1.388 . S
C5328 C5329 1.390 . S
C5329 C5328 1.390 . S
C5329 C5330 1.394 . S
C5329 C5335 1.465 . S
C5330 C5325 1.399 . S
C5330 C5329 1.394 . S
C5330 C5331 1.516 . S
C5331 C5330 1.516 . S
C5331 C5332 1.502 . S
C5331 C5333 1.561 . S
C5331 C5334 1.526 . S
C5332 H5316 0.959 . S
C5332 H5317 0.959 . S
C5332 H5318 0.961 . S
C5332 C5331 1.502 . S
C5333 H5319 0.960 . S
C5333 H5320 0.961 . S
C5333 H5321 0.959 . S
C5333 C5331 1.561 . S
C5334 C5331 1.526 . S
C5334 C5335 1.396 . S
C5334 C5339 1.390 . S
C5335 C5329 1.465 . S
C5335 C5334 1.396 . S
C5335 C5336 1.399 . S
C5336 H5322 0.929 . S
C5336 C5335 1.399 . S
C5336 C5337 1.385 . S
C5337 H5323 0.931 . S
C5337 C5336 1.385 . S
C5337 C5338 1.389 . S
C5338 C5337 1.389 . S
C5338 C5339 1.387 . S
C5339 H5324 0.930 . S
C5339 C5334 1.390 . S
C5339 C5338 1.387 . S
H5340 C5352 0.930 . S
H5341 C5354 0.930 . S
H5342 C5355 0.930 . S
H5343 C5359 0.959 . S
H5344 C5359 0.959 . S
H5345 C5359 0.961 . S
H5346 C5360 0.960 . S
H5347 C5360 0.961 . S
H5348 C5360 0.959 . S
H5349 C5363 0.929 . S
H5350 C5364 0.931 . S
H5351 C5366 0.930 . S
C5352 H5340 0.930 . S
C5352 C5353 1.399 . S
C5352 C5357 1.399 . S
C5353 C5352 1.399 . S
C5353 C5354 1.376 . S
C5354 H5341 0.930 . S
C5354 C5353 1.376 . S
C5354 C5355 1.388 . S
C5355 H5342 0.930 . S
C5355 C5354 1.388 . S
C5355 C5356 1.390 . S
C5356 C5355 1.390 . S
C5356 C5357 1.394 . S
C5356 C5362 1.465 . S
C5357 C5352 1.399 . S
C5357 C5356 1.394 . S
C5357 C5358 1.516 . S
C5358 C5357 1.516 . S
C5358 C5359 1.502 . S
C5358 C5360 1.561 . S
C5358 C5361 1.526 . S
C5359 H5343 0.959 . S
C5359 H5344 0.959 . S
C5359 H5345 0.961 . S
C5359 C5358 1.502 . S
C5360 H5346 0.960 . S
C5360 H5347 0.961 . S
C5360 H5348 0.959 . S
C5360 C5358 1.561 . S
C5361 C5358 1.526 . S
C5361 C5362 1.396 . S
C5361 C5366 1.390 . S
C5362 C5356 1.465 . S
C5362 C5361 1.396 . S
C5362 C5363 1.399 . S
C5363 H5349 0.929 . S
C5363 C5362 1.399 . S
C5363 C5364 1.385 . S
C5364 H5350 0.931 . S
C5364 C5363 1.385 . S
C5364 C5365 1.389 . S
C5365 C5364 1.389 . S
C5365 C5366 1.387 . S
C5366 H5351 0.930 . S
C5366 C5361 1.390 . S
C5366 C5365 1.387 . S
H5367 C5379 0.930 . S
H5368 C5381 0.930 . S
H5369 C5382 0.930 . S
H5370 C5386 0.959 . S
H5371 C5386 0.959 . S
H5372 C5386 0.961 . S
H5373 C5387 0.960 . S
H5374 C5387 0.961 . S
H5375 C5387 0.959 . S
H5376 C5390 0.929 . S
H5377 C5391 0.931 . S
H5378 C5393 0.930 . S
C5379 H5367 0.930 . S
C5379 C5380 1.399 . S
C5379 C5384 1.399 . S
C5380 C5379 1.399 . S
C5380 C5381 1.376 . S
C5381 H5368 0.930 . S
C5381 C5380 1.376 . S
C5381 C5382 1.388 . S
C5382 H5369 0.930 . S
C5382 C5381 1.388 . S
C5382 C5383 1.390 . S
C5383 C5382 1.390 . S
C5383 C5384 1.394 . S
C5383 C5389 1.465 . S
C5384 C5379 1.399 . S
C5384 C5383 1.394 . S
C5384 C5385 1.516 . S
C5385 C5384 1.516 . S
C5385 C5386 1.502 . S
C5385 C5387 1.561 . S
C5385 C5388 1.526 . S
C5386 H5370 0.959 . S
C5386 H5371 0.959 . S
C5386 H5372 0.961 . S
C5386 C5385 1.502 . S
C5387 H5373 0.960 . S
C5387 H5374 0.961 . S
C5387 H5375 0.959 . S
C5387 C5385 1.561 . S
C5388 C5385 1.526 . S
C5388 C5389 1.396 . S
C5388 C5393 1.390 . S
C5389 C5383 1.465 . S
C5389 C5388 1.396 . S
C5389 C5390 1.399 . S
C5390 H5376 0.929 . S
C5390 C5389 1.399 . S
C5390 C5391 1.385 . S
C5391 H5377 0.931 . S
C5391 C5390 1.385 . S
C5391 C5392 1.389 . S
C5392 C5391 1.389 . S
C5392 C5393 1.387 . S
C5393 H5378 0.930 . S
C5393 C5388 1.390 . S
C5393 C5392 1.387 . S
H5394 C5406 0.930 . S
H5395 C5408 0.930 . S
H5396 C5409 0.930 . S
H5397 C5413 0.959 . S
H5398 C5413 0.959 . S
H5399 C5413 0.961 . S
H5400 C5414 0.960 . S
H5401 C5414 0.961 . S
H5402 C5414 0.959 . S
H5403 C5417 0.929 . S
H5404 C5418 0.931 . S
H5405 C5420 0.930 . S
C5406 H5394 0.930 . S
C5406 C5407 1.399 . S
C5406 C5411 1.399 . S
C5407 C5406 1.399 . S
C5407 C5408 1.376 . S
C5408 H5395 0.930 . S
C5408 C5407 1.376 . S
C5408 C5409 1.388 . S
C5409 H5396 0.930 . S
C5409 C5408 1.388 . S
C5409 C5410 1.390 . S
C5410 C5409 1.390 . S
C5410 C5411 1.394 . S
C5410 C5416 1.465 . S
C5411 C5406 1.399 . S
C5411 C5410 1.394 . S
C5411 C5412 1.516 . S
C5412 C5411 1.516 . S
C5412 C5413 1.502 . S
C5412 C5414 1.561 . S
C5412 C5415 1.526 . S
C5413 H5397 0.959 . S
C5413 H5398 0.959 . S
C5413 H5399 0.961 . S
C5413 C5412 1.502 . S
C5414 H5400 0.960 . S
C5414 H5401 0.961 . S
C5414 H5402 0.959 . S
C5414 C5412 1.561 . S
C5415 C5412 1.526 . S
C5415 C5416 1.396 . S
C5415 C5420 1.390 . S
C5416 C5410 1.465 . S
C5416 C5415 1.396 . S
C5416 C5417 1.399 . S
C5417 H5403 0.929 . S
C5417 C5416 1.399 . S
C5417 C5418 1.385 . S
C5418 H5404 0.931 . S
C5418 C5417 1.385 . S
C5418 C5419 1.389 . S
C5419 C5418 1.389 . S
C5419 C5420 1.387 . S
C5420 H5405 0.930 . S
C5420 C5415 1.390 . S
C5420 C5419 1.387 . S
H5421 C5433 0.930 . S
H5422 C5435 0.930 . S
H5423 C5436 0.930 . S
H5424 C5440 0.959 . S
H5425 C5440 0.959 . S
H5426 C5440 0.961 . S
H5427 C5441 0.960 . S
H5428 C5441 0.961 . S
H5429 C5441 0.959 . S
H5430 C5444 0.929 . S
H5431 C5445 0.931 . S
H5432 C5447 0.930 . S
C5433 H5421 0.930 . S
C5433 C5434 1.399 . S
C5433 C5438 1.399 . S
C5434 C5433 1.399 . S
C5434 C5435 1.376 . S
C5435 H5422 0.930 . S
C5435 C5434 1.376 . S
C5435 C5436 1.388 . S
C5436 H5423 0.930 . S
C5436 C5435 1.388 . S
C5436 C5437 1.390 . S
C5437 C5436 1.390 . S
C5437 C5438 1.394 . S
C5437 C5443 1.465 . S
C5438 C5433 1.399 . S
C5438 C5437 1.394 . S
C5438 C5439 1.516 . S
C5439 C5438 1.516 . S
C5439 C5440 1.502 . S
C5439 C5441 1.561 . S
C5439 C5442 1.526 . S
C5440 H5424 0.959 . S
C5440 H5425 0.959 . S
C5440 H5426 0.961 . S
C5440 C5439 1.502 . S
C5441 H5427 0.960 . S
C5441 H5428 0.961 . S
C5441 H5429 0.959 . S
C5441 C5439 1.561 . S
C5442 C5439 1.526 . S
C5442 C5443 1.396 . S
C5442 C5447 1.390 . S
C5443 C5437 1.465 . S
C5443 C5442 1.396 . S
C5443 C5444 1.399 . S
C5444 H5430 0.929 . S
C5444 C5443 1.399 . S
C5444 C5445 1.385 . S
C5445 H5431 0.931 . S
C5445 C5444 1.385 . S
C5445 C5446 1.389 . S
C5446 C5445 1.389 . S
C5446 C5447 1.387 . S
C5447 H5432 0.930 . S
C5447 C5442 1.390 . S
C5447 C5446 1.387 . S
H5448 C5460 0.930 . S
H5449 C5462 0.930 . S
H5450 C5463 0.930 . S
H5451 C5467 0.959 . S
H5452 C5467 0.959 . S
H5453 C5467 0.961 . S
H5454 C5468 0.960 . S
H5455 C5468 0.961 . S
H5456 C5468 0.959 . S
H5457 C5471 0.929 . S
H5458 C5472 0.931 . S
H5459 C5474 0.930 . S
C5460 H5448 0.930 . S
C5460 C5461 1.399 . S
C5460 C5465 1.399 . S
C5461 C5460 1.399 . S
C5461 C5462 1.376 . S
C5462 H5449 0.930 . S
C5462 C5461 1.376 . S
C5462 C5463 1.388 . S
C5463 H5450 0.930 . S
C5463 C5462 1.388 . S
C5463 C5464 1.390 . S
C5464 C5463 1.390 . S
C5464 C5465 1.394 . S
C5464 C5470 1.465 . S
C5465 C5460 1.399 . S
C5465 C5464 1.394 . S
C5465 C5466 1.516 . S
C5466 C5465 1.516 . S
C5466 C5467 1.502 . S
C5466 C5468 1.561 . S
C5466 C5469 1.526 . S
C5467 H5451 0.959 . S
C5467 H5452 0.959 . S
C5467 H5453 0.961 . S
C5467 C5466 1.502 . S
C5468 H5454 0.960 . S
C5468 H5455 0.961 . S
C5468 H5456 0.959 . S
C5468 C5466 1.561 . S
C5469 C5466 1.526 . S
C5469 C5470 1.396 . S
C5469 C5474 1.390 . S
C5470 C5464 1.465 . S
C5470 C5469 1.396 . S
C5470 C5471 1.399 . S
C5471 H5457 0.929 . S
C5471 C5470 1.399 . S
C5471 C5472 1.385 . S
C5472 H5458 0.931 . S
C5472 C5471 1.385 . S
C5472 C5473 1.389 . S
C5473 C5472 1.389 . S
C5473 C5474 1.387 . S
C5474 H5459 0.930 . S
C5474 C5469 1.390 . S
C5474 C5473 1.387 . S
H5475 C5487 0.930 . S
H5476 C5489 0.930 . S
H5477 C5490 0.930 . S
H5478 C5494 0.959 . S
H5479 C5494 0.959 . S
H5480 C5494 0.961 . S
H5481 C5495 0.960 . S
H5482 C5495 0.961 . S
H5483 C5495 0.959 . S
H5484 C5498 0.929 . S
H5485 C5499 0.931 . S
H5486 C5501 0.930 . S
C5487 H5475 0.930 . S
C5487 C5488 1.399 . S
C5487 C5492 1.399 . S
C5488 C5487 1.399 . S
C5488 C5489 1.376 . S
C5489 H5476 0.930 . S
C5489 C5488 1.376 . S
C5489 C5490 1.388 . S
C5490 H5477 0.930 . S
C5490 C5489 1.388 . S
C5490 C5491 1.390 . S
C5491 C5490 1.390 . S
C5491 C5492 1.394 . S
C5491 C5497 1.465 . S
C5492 C5487 1.399 . S
C5492 C5491 1.394 . S
C5492 C5493 1.516 . S
C5493 C5492 1.516 . S
C5493 C5494 1.502 . S
C5493 C5495 1.561 . S
C5493 C5496 1.526 . S
C5494 H5478 0.959 . S
C5494 H5479 0.959 . S
C5494 H5480 0.961 . S
C5494 C5493 1.502 . S
C5495 H5481 0.960 . S
C5495 H5482 0.961 . S
C5495 H5483 0.959 . S
C5495 C5493 1.561 . S
C5496 C5493 1.526 . S
C5496 C5497 1.396 . S
C5496 C5501 1.390 . S
C5497 C5491 1.465 . S
C5497 C5496 1.396 . S
C5497 C5498 1.399 . S
C5498 H5484 0.929 . S
C5498 C5497 1.399 . S
C5498 C5499 1.385 . S
C5499 H5485 0.931 . S
C5499 C5498 1.385 . S
C5499 C5500 1.389 . S
C5500 C5499 1.389 . S
C5500 C5501 1.387 . S
C5501 H5486 0.930 . S
C5501 C5496 1.390 . S
C5501 C5500 1.387 . S
H5502 C5514 0.930 . S
H5503 C5516 0.930 . S
H5504 C5517 0.930 . S
H5505 C5521 0.959 . S
H5506 C5521 0.959 . S
H5507 C5521 0.961 . S
H5508 C5522 0.960 . S
H5509 C5522 0.961 . S
H5510 C5522 0.959 . S
H5511 C5525 0.929 . S
H5512 C5526 0.931 . S
H5513 C5528 0.930 . S
C5514 H5502 0.930 . S
C5514 C5515 1.399 . S
C5514 C5519 1.399 . S
C5515 C5514 1.399 . S
C5515 C5516 1.376 . S
C5516 H5503 0.930 . S
C5516 C5515 1.376 . S
C5516 C5517 1.388 . S
C5517 H5504 0.930 . S
C5517 C5516 1.388 . S
C5517 C5518 1.390 . S
C5518 C5517 1.390 . S
C5518 C5519 1.394 . S
C5518 C5524 1.465 . S
C5519 C5514 1.399 . S
C5519 C5518 1.394 . S
C5519 C5520 1.516 . S
C5520 C5519 1.516 . S
C5520 C5521 1.502 . S
C5520 C5522 1.561 . S
C5520 C5523 1.526 . S
C5521 H5505 0.959 . S
C5521 H5506 0.959 . S
C5521 H5507 0.961 . S
C5521 C5520 1.502 . S
C5522 H5508 0.960 . S
C5522 H5509 0.961 . S
C5522 H5510 0.959 . S
C5522 C5520 1.561 . S
C5523 C5520 1.526 . S
C5523 C5524 1.396 . S
C5523 C5528 1.390 . S
C5524 C5518 1.465 . S
C5524 C5523 1.396 . S
C5524 C5525 1.399 . S
C5525 H5511 0.929 . S
C5525 C5524 1.399 . S
C5525 C5526 1.385 . S
C5526 H5512 0.931 . S
C5526 C5525 1.385 . S
C5526 C5527 1.389 . S
C5527 C5526 1.389 . S
C5527 C5528 1.387 . S
C5528 H5513 0.930 . S
C5528 C5523 1.390 . S
C5528 C5527 1.387 . S
H5529 C5541 0.930 . S
H5530 C5543 0.930 . S
H5531 C5544 0.930 . S
H5532 C5548 0.959 . S
H5533 C5548 0.959 . S
H5534 C5548 0.961 . S
H5535 C5549 0.960 . S
H5536 C5549 0.961 . S
H5537 C5549 0.959 . S
H5538 C5552 0.929 . S
H5539 C5553 0.931 . S
H5540 C5555 0.930 . S
C5541 H5529 0.930 . S
C5541 C5542 1.399 . S
C5541 C5546 1.399 . S
C5542 C5541 1.399 . S
C5542 C5543 1.376 . S
C5543 H5530 0.930 . S
C5543 C5542 1.376 . S
C5543 C5544 1.388 . S
C5544 H5531 0.930 . S
C5544 C5543 1.388 . S
C5544 C5545 1.390 . S
C5545 C5544 1.390 . S
C5545 C5546 1.394 . S
C5545 C5551 1.465 . S
C5546 C5541 1.399 . S
C5546 C5545 1.394 . S
C5546 C5547 1.516 . S
C5547 C5546 1.516 . S
C5547 C5548 1.502 . S
C5547 C5549 1.561 . S
C5547 C5550 1.526 . S
C5548 H5532 0.959 . S
C5548 H5533 0.959 . S
C5548 H5534 0.961 . S
C5548 C5547 1.502 . S
C5549 H5535 0.960 . S
C5549 H5536 0.961 . S
C5549 H5537 0.959 . S
C5549 C5547 1.561 . S
C5550 C5547 1.526 . S
C5550 C5551 1.396 . S
C5550 C5555 1.390 . S
C5551 C5545 1.465 . S
C5551 C5550 1.396 . S
C5551 C5552 1.399 . S
C5552 H5538 0.929 . S
C5552 C5551 1.399 . S
C5552 C5553 1.385 . S
C5553 H5539 0.931 . S
C5553 C5552 1.385 . S
C5553 C5554 1.389 . S
C5554 C5553 1.389 . S
C5554 C5555 1.387 . S
C5555 H5540 0.930 . S
C5555 C5550 1.390 . S
C5555 C5554 1.387 . S
H5556 C5568 0.930 . S
H5557 C5570 0.930 . S
H5558 C5571 0.930 . S
H5559 C5575 0.959 . S
H5560 C5575 0.959 . S
H5561 C5575 0.961 . S
H5562 C5576 0.960 . S
H5563 C5576 0.961 . S
H5564 C5576 0.959 . S
H5565 C5579 0.929 . S
H5566 C5580 0.931 . S
H5567 C5582 0.930 . S
C5568 H5556 0.930 . S
C5568 C5569 1.399 . S
C5568 C5573 1.399 . S
C5569 C5568 1.399 . S
C5569 C5570 1.376 . S
C5570 H5557 0.930 . S
C5570 C5569 1.376 . S
C5570 C5571 1.388 . S
C5571 H5558 0.930 . S
C5571 C5570 1.388 . S
C5571 C5572 1.390 . S
C5572 C5571 1.390 . S
C5572 C5573 1.394 . S
C5572 C5578 1.465 . S
C5573 C5568 1.399 . S
C5573 C5572 1.394 . S
C5573 C5574 1.516 . S
C5574 C5573 1.516 . S
C5574 C5575 1.502 . S
C5574 C5576 1.561 . S
C5574 C5577 1.526 . S
C5575 H5559 0.959 . S
C5575 H5560 0.959 . S
C5575 H5561 0.961 . S
C5575 C5574 1.502 . S
C5576 H5562 0.960 . S
C5576 H5563 0.961 . S
C5576 H5564 0.959 . S
C5576 C5574 1.561 . S
C5577 C5574 1.526 . S
C5577 C5578 1.396 . S
C5577 C5582 1.390 . S
C5578 C5572 1.465 . S
C5578 C5577 1.396 . S
C5578 C5579 1.399 . S
C5579 H5565 0.929 . S
C5579 C5578 1.399 . S
C5579 C5580 1.385 . S
C5580 H5566 0.931 . S
C5580 C5579 1.385 . S
C5580 C5581 1.389 . S
C5581 C5580 1.389 . S
C5581 C5582 1.387 . S
C5582 H5567 0.930 . S
C5582 C5577 1.390 . S
C5582 C5581 1.387 . S
H5583 C5595 0.930 . S
H5584 C5597 0.930 . S
H5585 C5598 0.930 . S
H5586 C5602 0.959 . S
H5587 C5602 0.959 . S
H5588 C5602 0.961 . S
H5589 C5603 0.960 . S
H5590 C5603 0.961 . S
H5591 C5603 0.959 . S
H5592 C5606 0.929 . S
H5593 C5607 0.931 . S
H5594 C5609 0.930 . S
C5595 H5583 0.930 . S
C5595 C5596 1.399 . S
C5595 C5600 1.399 . S
C5596 C5595 1.399 . S
C5596 C5597 1.376 . S
C5597 H5584 0.930 . S
C5597 C5596 1.376 . S
C5597 C5598 1.388 . S
C5598 H5585 0.930 . S
C5598 C5597 1.388 . S
C5598 C5599 1.390 . S
C5599 C5598 1.390 . S
C5599 C5600 1.394 . S
C5599 C5605 1.465 . S
C5600 C5595 1.399 . S
C5600 C5599 1.394 . S
C5600 C5601 1.516 . S
C5601 C5600 1.516 . S
C5601 C5602 1.502 . S
C5601 C5603 1.561 . S
C5601 C5604 1.526 . S
C5602 H5586 0.959 . S
C5602 H5587 0.959 . S
C5602 H5588 0.961 . S
C5602 C5601 1.502 . S
C5603 H5589 0.960 . S
C5603 H5590 0.961 . S
C5603 H5591 0.959 . S
C5603 C5601 1.561 . S
C5604 C5601 1.526 . S
C5604 C5605 1.396 . S
C5604 C5609 1.390 . S
C5605 C5599 1.465 . S
C5605 C5604 1.396 . S
C5605 C5606 1.399 . S
C5606 H5592 0.929 . S
C5606 C5605 1.399 . S
C5606 C5607 1.385 . S
C5607 H5593 0.931 . S
C5607 C5606 1.385 . S
C5607 C5608 1.389 . S
C5608 C5607 1.389 . S
C5608 C5609 1.387 . S
C5609 H5594 0.930 . S
C5609 C5604 1.390 . S
C5609 C5608 1.387 . S
H5610 C5622 0.930 . S
H5611 C5624 0.930 . S
H5612 C5625 0.930 . S
H5613 C5629 0.959 . S
H5614 C5629 0.959 . S
H5615 C5629 0.961 . S
H5616 C5630 0.960 . S
H5617 C5630 0.961 . S
H5618 C5630 0.959 . S
H5619 C5633 0.929 . S
H5620 C5634 0.931 . S
H5621 C5636 0.930 . S
C5622 H5610 0.930 . S
C5622 C5623 1.399 . S
C5622 C5627 1.399 . S
C5623 C5622 1.399 . S
C5623 C5624 1.376 . S
C5624 H5611 0.930 . S
C5624 C5623 1.376 . S
C5624 C5625 1.388 . S
C5625 H5612 0.930 . S
C5625 C5624 1.388 . S
C5625 C5626 1.390 . S
C5626 C5625 1.390 . S
C5626 C5627 1.394 . S
C5626 C5632 1.465 . S
C5627 C5622 1.399 . S
C5627 C5626 1.394 . S
C5627 C5628 1.516 . S
C5628 C5627 1.516 . S
C5628 C5629 1.502 . S
C5628 C5630 1.561 . S
C5628 C5631 1.526 . S
C5629 H5613 0.959 . S
C5629 H5614 0.959 . S
C5629 H5615 0.961 . S
C5629 C5628 1.502 . S
C5630 H5616 0.960 . S
C5630 H5617 0.961 . S
C5630 H5618 0.959 . S
C5630 C5628 1.561 . S
C5631 C5628 1.526 . S
C5631 C5632 1.396 . S
C5631 C5636 1.390 . S
C5632 C5626 1.465 . S
C5632 C5631 1.396 . S
C5632 C5633 1.399 . S
C5633 H5619 0.929 . S
C5633 C5632 1.399 . S
C5633 C5634 1.385 . S
C5634 H5620 0.931 . S
C5634 C5633 1.385 . S
C5634 C5635 1.389 . S
C5635 C5634 1.389 . S
C5635 C5636 1.387 . S
C5636 H5621 0.930 . S
C5636 C5631 1.390 . S
C5636 C5635 1.387 . S
H5637 C5649 0.930 . S
H5638 C5651 0.930 . S
H5639 C5652 0.930 . S
H5640 C5656 0.959 . S
H5641 C5656 0.959 . S
H5642 C5656 0.961 . S
H5643 C5657 0.960 . S
H5644 C5657 0.961 . S
H5645 C5657 0.959 . S
H5646 C5660 0.929 . S
H5647 C5661 0.931 . S
H5648 C5663 0.930 . S
C5649 H5637 0.930 . S
C5649 C5650 1.399 . S
C5649 C5654 1.399 . S
C5650 C5649 1.399 . S
C5650 C5651 1.376 . S
C5651 H5638 0.930 . S
C5651 C5650 1.376 . S
C5651 C5652 1.388 . S
C5652 H5639 0.930 . S
C5652 C5651 1.388 . S
C5652 C5653 1.390 . S
C5653 C5652 1.390 . S
C5653 C5654 1.394 . S
C5653 C5659 1.465 . S
C5654 C5649 1.399 . S
C5654 C5653 1.394 . S
C5654 C5655 1.516 . S
C5655 C5654 1.516 . S
C5655 C5656 1.502 . S
C5655 C5657 1.561 . S
C5655 C5658 1.526 . S
C5656 H5640 0.959 . S
C5656 H5641 0.959 . S
C5656 H5642 0.961 . S
C5656 C5655 1.502 . S
C5657 H5643 0.960 . S
C5657 H5644 0.961 . S
C5657 H5645 0.959 . S
C5657 C5655 1.561 . S
C5658 C5655 1.526 . S
C5658 C5659 1.396 . S
C5658 C5663 1.390 . S
C5659 C5653 1.465 . S
C5659 C5658 1.396 . S
C5659 C5660 1.399 . S
C5660 H5646 0.929 . S
C5660 C5659 1.399 . S
C5660 C5661 1.385 . S
C5661 H5647 0.931 . S
C5661 C5660 1.385 . S
C5661 C5662 1.389 . S
C5662 C5661 1.389 . S
C5662 C5663 1.387 . S
C5663 H5648 0.930 . S
C5663 C5658 1.390 . S
C5663 C5662 1.387 . S
H5664 C5676 0.930 . S
H5665 C5678 0.930 . S
H5666 C5679 0.930 . S
H5667 C5683 0.959 . S
H5668 C5683 0.959 . S
H5669 C5683 0.961 . S
H5670 C5684 0.960 . S
H5671 C5684 0.961 . S
H5672 C5684 0.959 . S
H5673 C5687 0.929 . S
H5674 C5688 0.931 . S
H5675 C5690 0.930 . S
C5676 H5664 0.930 . S
C5676 C5677 1.399 . S
C5676 C5681 1.399 . S
C5677 C5676 1.399 . S
C5677 C5678 1.376 . S
C5678 H5665 0.930 . S
C5678 C5677 1.376 . S
C5678 C5679 1.388 . S
C5679 H5666 0.930 . S
C5679 C5678 1.388 . S
C5679 C5680 1.390 . S
C5680 C5679 1.390 . S
C5680 C5681 1.394 . S
C5680 C5686 1.465 . S
C5681 C5676 1.399 . S
C5681 C5680 1.394 . S
C5681 C5682 1.516 . S
C5682 C5681 1.516 . S
C5682 C5683 1.502 . S
C5682 C5684 1.561 . S
C5682 C5685 1.526 . S
C5683 H5667 0.959 . S
C5683 H5668 0.959 . S
C5683 H5669 0.961 . S
C5683 C5682 1.502 . S
C5684 H5670 0.960 . S
C5684 H5671 0.961 . S
C5684 H5672 0.959 . S
C5684 C5682 1.561 . S
C5685 C5682 1.526 . S
C5685 C5686 1.396 . S
C5685 C5690 1.390 . S
C5686 C5680 1.465 . S
C5686 C5685 1.396 . S
C5686 C5687 1.399 . S
C5687 H5673 0.929 . S
C5687 C5686 1.399 . S
C5687 C5688 1.385 . S
C5688 H5674 0.931 . S
C5688 C5687 1.385 . S
C5688 C5689 1.389 . S
C5689 C5688 1.389 . S
C5689 C5690 1.387 . S
C5690 H5675 0.930 . S
C5690 C5685 1.390 . S
C5690 C5689 1.387 . S
H5691 C5703 0.930 . S
H5692 C5705 0.930 . S
H5693 C5706 0.930 . S
H5694 C5710 0.959 . S
H5695 C5710 0.959 . S
H5696 C5710 0.961 . S
H5697 C5711 0.960 . S
H5698 C5711 0.961 . S
H5699 C5711 0.959 . S
H5700 C5714 0.929 . S
H5701 C5715 0.931 . S
H5702 C5717 0.930 . S
C5703 H5691 0.930 . S
C5703 C5704 1.399 . S
C5703 C5708 1.399 . S
C5704 C5703 1.399 . S
C5704 C5705 1.376 . S
C5705 H5692 0.930 . S
C5705 C5704 1.376 . S
C5705 C5706 1.388 . S
C5706 H5693 0.930 . S
C5706 C5705 1.388 . S
C5706 C5707 1.390 . S
C5707 C5706 1.390 . S
C5707 C5708 1.394 . S
C5707 C5713 1.465 . S
C5708 C5703 1.399 . S
C5708 C5707 1.394 . S
C5708 C5709 1.516 . S
C5709 C5708 1.516 . S
C5709 C5710 1.502 . S
C5709 C5711 1.561 . S
C5709 C5712 1.526 . S
C5710 H5694 0.959 . S
C5710 H5695 0.959 . S
C5710 H5696 0.961 . S
C5710 C5709 1.502 . S
C5711 H5697 0.960 . S
C5711 H5698 0.961 . S
C5711 H5699 0.959 . S
C5711 C5709 1.561 . S
C5712 C5709 1.526 . S
C5712 C5713 1.396 . S
C5712 C5717 1.390 . S
C5713 C5707 1.465 . S
C5713 C5712 1.396 . S
C5713 C5714 1.399 . S
C5714 H5700 0.929 . S
C5714 C5713 1.399 . S
C5714 C5715 1.385 . S
C5715 H5701 0.931 . S
C5715 C5714 1.385 . S
C5715 C5716 1.389 . S
C5716 C5715 1.389 . S
C5716 C5717 1.387 . S
C5717 H5702 0.930 . S
C5717 C5712 1.390 . S
C5717 C5716 1.387 . S
H5718 C5730 0.930 . S
H5719 C5732 0.930 . S
H5720 C5733 0.930 . S
H5721 C5737 0.959 . S
H5722 C5737 0.959 . S
H5723 C5737 0.961 . S
H5724 C5738 0.960 . S
H5725 C5738 0.961 . S
H5726 C5738 0.959 . S
H5727 C5741 0.929 . S
H5728 C5742 0.931 . S
H5729 C5744 0.930 . S
C5730 H5718 0.930 . S
C5730 C5731 1.399 . S
C5730 C5735 1.399 . S
C5731 C5730 1.399 . S
C5731 C5732 1.376 . S
C5732 H5719 0.930 . S
C5732 C5731 1.376 . S
C5732 C5733 1.388 . S
C5733 H5720 0.930 . S
C5733 C5732 1.388 . S
C5733 C5734 1.390 . S
C5734 C5733 1.390 . S
C5734 C5735 1.394 . S
C5734 C5740 1.465 . S
C5735 C5730 1.399 . S
C5735 C5734 1.394 . S
C5735 C5736 1.516 . S
C5736 C5735 1.516 . S
C5736 C5737 1.502 . S
C5736 C5738 1.561 . S
C5736 C5739 1.526 . S
C5737 H5721 0.959 . S
C5737 H5722 0.959 . S
C5737 H5723 0.961 . S
C5737 C5736 1.502 . S
C5738 H5724 0.960 . S
C5738 H5725 0.961 . S
C5738 H5726 0.959 . S
C5738 C5736 1.561 . S
C5739 C5736 1.526 . S
C5739 C5740 1.396 . S
C5739 C5744 1.390 . S
C5740 C5734 1.465 . S
C5740 C5739 1.396 . S
C5740 C5741 1.399 . S
C5741 H5727 0.929 . S
C5741 C5740 1.399 . S
C5741 C5742 1.385 . S
C5742 H5728 0.931 . S
C5742 C5741 1.385 . S
C5742 C5743 1.389 . S
C5743 C5742 1.389 . S
C5743 C5744 1.387 . S
C5744 H5729 0.930 . S
C5744 C5739 1.390 . S
C5744 C5743 1.387 . S
H5745 C5757 0.930 . S
H5746 C5759 0.930 . S
H5747 C5760 0.930 . S
H5748 C5764 0.959 . S
H5749 C5764 0.959 . S
H5750 C5764 0.961 . S
H5751 C5765 0.960 . S
H5752 C5765 0.961 . S
H5753 C5765 0.959 . S
H5754 C5768 0.929 . S
H5755 C5769 0.931 . S
H5756 C5771 0.930 . S
C5757 H5745 0.930 . S
C5757 C5758 1.399 . S
C5757 C5762 1.399 . S
C5758 C5757 1.399 . S
C5758 C5759 1.376 . S
C5759 H5746 0.930 . S
C5759 C5758 1.376 . S
C5759 C5760 1.388 . S
C5760 H5747 0.930 . S
C5760 C5759 1.388 . S
C5760 C5761 1.390 . S
C5761 C5760 1.390 . S
C5761 C5762 1.394 . S
C5761 C5767 1.465 . S
C5762 C5757 1.399 . S
C5762 C5761 1.394 . S
C5762 C5763 1.516 . S
C5763 C5762 1.516 . S
C5763 C5764 1.502 . S
C5763 C5765 1.561 . S
C5763 C5766 1.526 . S
C5764 H5748 0.959 . S
C5764 H5749 0.959 . S
C5764 H5750 0.961 . S
C5764 C5763 1.502 . S
C5765 H5751 0.960 . S
C5765 H5752 0.961 . S
C5765 H5753 0.959 . S
C5765 C5763 1.561 . S
C5766 C5763 1.526 . S
C5766 C5767 1.396 . S
C5766 C5771 1.390 . S
C5767 C5761 1.465 . S
C5767 C5766 1.396 . S
C5767 C5768 1.399 . S
C5768 H5754 0.929 . S
C5768 C5767 1.399 . S
C5768 C5769 1.385 . S
C5769 H5755 0.931 . S
C5769 C5768 1.385 . S
C5769 C5770 1.389 . S
C5770 C5769 1.389 . S
C5770 C5771 1.387 . S
C5771 H5756 0.930 . S
C5771 C5766 1.390 . S
C5771 C5770 1.387 . S
H5772 C5784 0.930 . S
H5773 C5786 0.930 . S
H5774 C5787 0.930 . S
H5775 C5791 0.959 . S
H5776 C5791 0.959 . S
H5777 C5791 0.961 . S
H5778 C5792 0.960 . S
H5779 C5792 0.961 . S
H5780 C5792 0.959 . S
H5781 C5795 0.929 . S
H5782 C5796 0.931 . S
H5783 C5798 0.930 . S
C5784 H5772 0.930 . S
C5784 C5785 1.399 . S
C5784 C5789 1.399 . S
C5785 C5784 1.399 . S
C5785 C5786 1.376 . S
C5786 H5773 0.930 . S
C5786 C5785 1.376 . S
C5786 C5787 1.388 . S
C5787 H5774 0.930 . S
C5787 C5786 1.388 . S
C5787 C5788 1.390 . S
C5788 C5787 1.390 . S
C5788 C5789 1.394 . S
C5788 C5794 1.465 . S
C5789 C5784 1.399 . S
C5789 C5788 1.394 . S
C5789 C5790 1.516 . S
C5790 C5789 1.516 . S
C5790 C5791 1.502 . S
C5790 C5792 1.561 . S
C5790 C5793 1.526 . S
C5791 H5775 0.959 . S
C5791 H5776 0.959 . S
C5791 H5777 0.961 . S
C5791 C5790 1.502 . S
C5792 H5778 0.960 . S
C5792 H5779 0.961 . S
C5792 H5780 0.959 . S
C5792 C5790 1.561 . S
C5793 C5790 1.526 . S
C5793 C5794 1.396 . S
C5793 C5798 1.390 . S
C5794 C5788 1.465 . S
C5794 C5793 1.396 . S
C5794 C5795 1.399 . S
C5795 H5781 0.929 . S
C5795 C5794 1.399 . S
C5795 C5796 1.385 . S
C5796 H5782 0.931 . S
C5796 C5795 1.385 . S
C5796 C5797 1.389 . S
C5797 C5796 1.389 . S
C5797 C5798 1.387 . S
C5798 H5783 0.930 . S
C5798 C5793 1.390 . S
C5798 C5797 1.387 . S
H5799 C5811 0.930 . S
H5800 C5813 0.930 . S
H5801 C5814 0.930 . S
H5802 C5818 0.959 . S
H5803 C5818 0.959 . S
H5804 C5818 0.961 . S
H5805 C5819 0.960 . S
H5806 C5819 0.961 . S
H5807 C5819 0.959 . S
H5808 C5822 0.929 . S
H5809 C5823 0.931 . S
H5810 C5825 0.930 . S
C5811 H5799 0.930 . S
C5811 C5812 1.399 . S
C5811 C5816 1.399 . S
C5812 C5811 1.399 . S
C5812 C5813 1.376 . S
C5813 H5800 0.930 . S
C5813 C5812 1.376 . S
C5813 C5814 1.388 . S
C5814 H5801 0.930 . S
C5814 C5813 1.388 . S
C5814 C5815 1.390 . S
C5815 C5814 1.390 . S
C5815 C5816 1.394 . S
C5815 C5821 1.465 . S
C5816 C5811 1.399 . S
C5816 C5815 1.394 . S
C5816 C5817 1.516 . S
C5817 C5816 1.516 . S
C5817 C5818 1.502 . S
C5817 C5819 1.561 . S
C5817 C5820 1.526 . S
C5818 H5802 0.959 . S
C5818 H5803 0.959 . S
C5818 H5804 0.961 . S
C5818 C5817 1.502 . S
C5819 H5805 0.960 . S
C5819 H5806 0.961 . S
C5819 H5807 0.959 . S
C5819 C5817 1.561 . S
C5820 C5817 1.526 . S
C5820 C5821 1.396 . S
C5820 C5825 1.390 . S
C5821 C5815 1.465 . S
C5821 C5820 1.396 . S
C5821 C5822 1.399 . S
C5822 H5808 0.929 . S
C5822 C5821 1.399 . S
C5822 C5823 1.385 . S
C5823 H5809 0.931 . S
C5823 C5822 1.385 . S
C5823 C5824 1.389 . S
C5824 C5823 1.389 . S
C5824 C5825 1.387 . S
C5825 H5810 0.930 . S
C5825 C5820 1.390 . S
C5825 C5824 1.387 . S
H5826 C5838 0.930 . S
H5827 C5840 0.930 . S
H5828 C5841 0.930 . S
H5829 C5845 0.959 . S
H5830 C5845 0.959 . S
H5831 C5845 0.961 . S
H5832 C5846 0.960 . S
H5833 C5846 0.961 . S
H5834 C5846 0.959 . S
H5835 C5849 0.929 . S
H5836 C5850 0.931 . S
H5837 C5852 0.930 . S
C5838 H5826 0.930 . S
C5838 C5839 1.399 . S
C5838 C5843 1.399 . S
C5839 C5838 1.399 . S
C5839 C5840 1.376 . S
C5840 H5827 0.930 . S
C5840 C5839 1.376 . S
C5840 C5841 1.388 . S
C5841 H5828 0.930 . S
C5841 C5840 1.388 . S
C5841 C5842 1.390 . S
C5842 C5841 1.390 . S
C5842 C5843 1.394 . S
C5842 C5848 1.465 . S
C5843 C5838 1.399 . S
C5843 C5842 1.394 . S
C5843 C5844 1.516 . S
C5844 C5843 1.516 . S
C5844 C5845 1.502 . S
C5844 C5846 1.561 . S
C5844 C5847 1.526 . S
C5845 H5829 0.959 . S
C5845 H5830 0.959 . S
C5845 H5831 0.961 . S
C5845 C5844 1.502 . S
C5846 H5832 0.960 . S
C5846 H5833 0.961 . S
C5846 H5834 0.959 . S
C5846 C5844 1.561 . S
C5847 C5844 1.526 . S
C5847 C5848 1.396 . S
C5847 C5852 1.390 . S
C5848 C5842 1.465 . S
C5848 C5847 1.396 . S
C5848 C5849 1.399 . S
C5849 H5835 0.929 . S
C5849 C5848 1.399 . S
C5849 C5850 1.385 . S
C5850 H5836 0.931 . S
C5850 C5849 1.385 . S
C5850 C5851 1.389 . S
C5851 C5850 1.389 . S
C5851 C5852 1.387 . S
C5852 H5837 0.930 . S
C5852 C5847 1.390 . S
C5852 C5851 1.387 . S
H5853 C5865 0.930 . S
H5854 C5867 0.930 . S
H5855 C5868 0.930 . S
H5856 C5872 0.959 . S
H5857 C5872 0.959 . S
H5858 C5872 0.961 . S
H5859 C5873 0.960 . S
H5860 C5873 0.961 . S
H5861 C5873 0.959 . S
H5862 C5876 0.929 . S
H5863 C5877 0.931 . S
H5864 C5879 0.930 . S
C5865 H5853 0.930 . S
C5865 C5866 1.399 . S
C5865 C5870 1.399 . S
C5866 C5865 1.399 . S
C5866 C5867 1.376 . S
C5867 H5854 0.930 . S
C5867 C5866 1.376 . S
C5867 C5868 1.388 . S
C5868 H5855 0.930 . S
C5868 C5867 1.388 . S
C5868 C5869 1.390 . S
C5869 C5868 1.390 . S
C5869 C5870 1.394 . S
C5869 C5875 1.465 . S
C5870 C5865 1.399 . S
C5870 C5869 1.394 . S
C5870 C5871 1.516 . S
C5871 C5870 1.516 . S
C5871 C5872 1.502 . S
C5871 C5873 1.561 . S
C5871 C5874 1.526 . S
C5872 H5856 0.959 . S
C5872 H5857 0.959 . S
C5872 H5858 0.961 . S
C5872 C5871 1.502 . S
C5873 H5859 0.960 . S
C5873 H5860 0.961 . S
C5873 H5861 0.959 . S
C5873 C5871 1.561 . S
C5874 C5871 1.526 . S
C5874 C5875 1.396 . S
C5874 C5879 1.390 . S
C5875 C5869 1.465 . S
C5875 C5874 1.396 . S
C5875 C5876 1.399 . S
C5876 H5862 0.929 . S
C5876 C5875 1.399 . S
C5876 C5877 1.385 . S
C5877 H5863 0.931 . S
C5877 C5876 1.385 . S
C5877 C5878 1.389 . S
C5878 C5877 1.389 . S
C5878 C5879 1.387 . S
C5879 H5864 0.930 . S
C5879 C5874 1.390 . S
C5879 C5878 1.387 . S
H5880 C5892 0.930 . S
H5881 C5894 0.930 . S
H5882 C5895 0.930 . S
H5883 C5899 0.959 . S
H5884 C5899 0.959 . S
H5885 C5899 0.961 . S
H5886 C5900 0.960 . S
H5887 C5900 0.961 . S
H5888 C5900 0.959 . S
H5889 C5903 0.929 . S
H5890 C5904 0.931 . S
H5891 C5906 0.930 . S
C5892 H5880 0.930 . S
C5892 C5893 1.399 . S
C5892 C5897 1.399 . S
C5893 C5892 1.399 . S
C5893 C5894 1.376 . S
C5894 H5881 0.930 . S
C5894 C5893 1.376 . S
C5894 C5895 1.388 . S
C5895 H5882 0.930 . S
C5895 C5894 1.388 . S
C5895 C5896 1.390 . S
C5896 C5895 1.390 . S
C5896 C5897 1.394 . S
C5896 C5902 1.465 . S
C5897 C5892 1.399 . S
C5897 C5896 1.394 . S
C5897 C5898 1.516 . S
C5898 C5897 1.516 . S
C5898 C5899 1.502 . S
C5898 C5900 1.561 . S
C5898 C5901 1.526 . S
C5899 H5883 0.959 . S
C5899 H5884 0.959 . S
C5899 H5885 0.961 . S
C5899 C5898 1.502 . S
C5900 H5886 0.960 . S
C5900 H5887 0.961 . S
C5900 H5888 0.959 . S
C5900 C5898 1.561 . S
C5901 C5898 1.526 . S
C5901 C5902 1.396 . S
C5901 C5906 1.390 . S
C5902 C5896 1.465 . S
C5902 C5901 1.396 . S
C5902 C5903 1.399 . S
C5903 H5889 0.929 . S
C5903 C5902 1.399 . S
C5903 C5904 1.385 . S
C5904 H5890 0.931 . S
C5904 C5903 1.385 . S
C5904 C5905 1.389 . S
C5905 C5904 1.389 . S
C5905 C5906 1.387 . S
C5906 H5891 0.930 . S
C5906 C5901 1.390 . S
C5906 C5905 1.387 . S
H5907 C5919 0.930 . S
H5908 C5921 0.930 . S
H5909 C5922 0.930 . S
H5910 C5926 0.959 . S
H5911 C5926 0.959 . S
H5912 C5926 0.961 . S
H5913 C5927 0.960 . S
H5914 C5927 0.961 . S
H5915 C5927 0.959 . S
H5916 C5930 0.929 . S
H5917 C5931 0.931 . S
H5918 C5933 0.930 . S
C5919 H5907 0.930 . S
C5919 C5920 1.399 . S
C5919 C5924 1.399 . S
C5920 C5919 1.399 . S
C5920 C5921 1.376 . S
C5921 H5908 0.930 . S
C5921 C5920 1.376 . S
C5921 C5922 1.388 . S
C5922 H5909 0.930 . S
C5922 C5921 1.388 . S
C5922 C5923 1.390 . S
C5923 C5922 1.390 . S
C5923 C5924 1.394 . S
C5923 C5929 1.465 . S
C5924 C5919 1.399 . S
C5924 C5923 1.394 . S
C5924 C5925 1.516 . S
C5925 C5924 1.516 . S
C5925 C5926 1.502 . S
C5925 C5927 1.561 . S
C5925 C5928 1.526 . S
C5926 H5910 0.959 . S
C5926 H5911 0.959 . S
C5926 H5912 0.961 . S
C5926 C5925 1.502 . S
C5927 H5913 0.960 . S
C5927 H5914 0.961 . S
C5927 H5915 0.959 . S
C5927 C5925 1.561 . S
C5928 C5925 1.526 . S
C5928 C5929 1.396 . S
C5928 C5933 1.390 . S
C5929 C5923 1.465 . S
C5929 C5928 1.396 . S
C5929 C5930 1.399 . S
C5930 H5916 0.929 . S
C5930 C5929 1.399 . S
C5930 C5931 1.385 . S
C5931 H5917 0.931 . S
C5931 C5930 1.385 . S
C5931 C5932 1.389 . S
C5932 C5931 1.389 . S
C5932 C5933 1.387 . S
C5933 H5918 0.930 . S
C5933 C5928 1.390 . S
C5933 C5932 1.387 . S
H5934 C5946 0.930 . S
H5935 C5948 0.930 . S
H5936 C5949 0.930 . S
H5937 C5953 0.959 . S
H5938 C5953 0.959 . S
H5939 C5953 0.961 . S
H5940 C5954 0.960 . S
H5941 C5954 0.961 . S
H5942 C5954 0.959 . S
H5943 C5957 0.929 . S
H5944 C5958 0.931 . S
H5945 C5960 0.930 . S
C5946 H5934 0.930 . S
C5946 C5947 1.399 . S
C5946 C5951 1.399 . S
C5947 C5946 1.399 . S
C5947 C5948 1.376 . S
C5948 H5935 0.930 . S
C5948 C5947 1.376 . S
C5948 C5949 1.388 . S
C5949 H5936 0.930 . S
C5949 C5948 1.388 . S
C5949 C5950 1.390 . S
C5950 C5949 1.390 . S
C5950 C5951 1.394 . S
C5950 C5956 1.465 . S
C5951 C5946 1.399 . S
C5951 C5950 1.394 . S
C5951 C5952 1.516 . S
C5952 C5951 1.516 . S
C5952 C5953 1.502 . S
C5952 C5954 1.561 . S
C5952 C5955 1.526 . S
C5953 H5937 0.959 . S
C5953 H5938 0.959 . S
C5953 H5939 0.961 . S
C5953 C5952 1.502 . S
C5954 H5940 0.960 . S
C5954 H5941 0.961 . S
C5954 H5942 0.959 . S
C5954 C5952 1.561 . S
C5955 C5952 1.526 . S
C5955 C5956 1.396 . S
C5955 C5960 1.390 . S
C5956 C5950 1.465 . S
C5956 C5955 1.396 . S
C5956 C5957 1.399 . S
C5957 H5943 0.929 . S
C5957 C5956 1.399 . S
C5957 C5958 1.385 . S
C5958 H5944 0.931 . S
C5958 C5957 1.385 . S
C5958 C5959 1.389 . S
C5959 C5958 1.389 . S
C5959 C5960 1.387 . S
C5960 H5945 0.930 . S
C5960 C5955 1.390 . S
C5960 C5959 1.387 . S
H5961 C5973 0.930 . S
H5962 C5975 0.930 . S
H5963 C5976 0.930 . S
H5964 C5980 0.959 . S
H5965 C5980 0.959 . S
H5966 C5980 0.961 . S
H5967 C5981 0.960 . S
H5968 C5981 0.961 . S
H5969 C5981 0.959 . S
H5970 C5984 0.929 . S
H5971 C5985 0.931 . S
H5972 C5987 0.930 . S
C5973 H5961 0.930 . S
C5973 C5974 1.399 . S
C5973 C5978 1.399 . S
C5974 C5973 1.399 . S
C5974 C5975 1.376 . S
C5975 H5962 0.930 . S
C5975 C5974 1.376 . S
C5975 C5976 1.388 . S
C5976 H5963 0.930 . S
C5976 C5975 1.388 . S
C5976 C5977 1.390 . S
C5977 C5976 1.390 . S
C5977 C5978 1.394 . S
C5977 C5983 1.465 . S
C5978 C5973 1.399 . S
C5978 C5977 1.394 . S
C5978 C5979 1.516 . S
C5979 C5978 1.516 . S
C5979 C5980 1.502 . S
C5979 C5981 1.561 . S
C5979 C5982 1.526 . S
C5980 H5964 0.959 . S
C5980 H5965 0.959 . S
C5980 H5966 0.961 . S
C5980 C5979 1.502 . S
C5981 H5967 0.960 . S
C5981 H5968 0.961 . S
C5981 H5969 0.959 . S
C5981 C5979 1.561 . S
C5982 C5979 1.526 . S
C5982 C5983 1.396 . S
C5982 C5987 1.390 . S
C5983 C5977 1.465 . S
C5983 C5982 1.396 . S
C5983 C5984 1.399 . S
C5984 H5970 0.929 . S
C5984 C5983 1.399 . S
C5984 C5985 1.385 . S
C5985 H5971 0.931 . S
C5985 C5984 1.385 . S
C5985 C5986 1.389 . S
C5986 C5985 1.389 . S
C5986 C5987 1.387 . S
C5987 H5972 0.930 . S
C5987 C5982 1.390 . S
C5987 C5986 1.387 . S
H5988 C6000 0.930 . S
H5989 C6002 0.930 . S
H5990 C6003 0.930 . S
H5991 C6007 0.959 . S
H5992 C6007 0.959 . S
H5993 C6007 0.961 . S
H5994 C6008 0.960 . S
H5995 C6008 0.961 . S
H5996 C6008 0.959 . S
H5997 C6011 0.929 . S
H5998 C6012 0.931 . S
H5999 C6014 0.930 . S
C6000 H5988 0.930 . S
C6000 C6001 1.399 . S
C6000 C6005 1.399 . S
C6001 C6000 1.399 . S
C6001 C6002 1.376 . S
C6002 H5989 0.930 . S
C6002 C6001 1.376 . S
C6002 C6003 1.388 . S
C6003 H5990 0.930 . S
C6003 C6002 1.388 . S
C6003 C6004 1.390 . S
C6004 C6003 1.390 . S
C6004 C6005 1.394 . S
C6004 C6010 1.465 . S
C6005 C6000 1.399 . S
C6005 C6004 1.394 . S
C6005 C6006 1.516 . S
C6006 C6005 1.516 . S
C6006 C6007 1.502 . S
C6006 C6008 1.561 . S
C6006 C6009 1.526 . S
C6007 H5991 0.959 . S
C6007 H5992 0.959 . S
C6007 H5993 0.961 . S
C6007 C6006 1.502 . S
C6008 H5994 0.960 . S
C6008 H5995 0.961 . S
C6008 H5996 0.959 . S
C6008 C6006 1.561 . S
C6009 C6006 1.526 . S
C6009 C6010 1.396 . S
C6009 C6014 1.390 . S
C6010 C6004 1.465 . S
C6010 C6009 1.396 . S
C6010 C6011 1.399 . S
C6011 H5997 0.929 . S
C6011 C6010 1.399 . S
C6011 C6012 1.385 . S
C6012 H5998 0.931 . S
C6012 C6011 1.385 . S
C6012 C6013 1.389 . S
C6013 C6012 1.389 . S
C6013 C6014 1.387 . S
C6014 H5999 0.930 . S
C6014 C6009 1.390 . S
C6014 C6013 1.387 . S
H6015 C6027 0.930 . S
H6016 C6029 0.930 . S
H6017 C6030 0.930 . S
H6018 C6034 0.959 . S
H6019 C6034 0.959 . S
H6020 C6034 0.961 . S
H6021 C6035 0.960 . S
H6022 C6035 0.961 . S
H6023 C6035 0.959 . S
H6024 C6038 0.929 . S
H6025 C6039 0.931 . S
H6026 C6041 0.930 . S
C6027 H6015 0.930 . S
C6027 C6028 1.399 . S
C6027 C6032 1.399 . S
C6028 C6027 1.399 . S
C6028 C6029 1.376 . S
C6029 H6016 0.930 . S
C6029 C6028 1.376 . S
C6029 C6030 1.388 . S
C6030 H6017 0.930 . S
C6030 C6029 1.388 . S
C6030 C6031 1.390 . S
C6031 C6030 1.390 . S
C6031 C6032 1.394 . S
C6031 C6037 1.465 . S
C6032 C6027 1.399 . S
C6032 C6031 1.394 . S
C6032 C6033 1.516 . S
C6033 C6032 1.516 . S
C6033 C6034 1.502 . S
C6033 C6035 1.561 . S
C6033 C6036 1.526 . S
C6034 H6018 0.959 . S
C6034 H6019 0.959 . S
C6034 H6020 0.961 . S
C6034 C6033 1.502 . S
C6035 H6021 0.960 . S
C6035 H6022 0.961 . S
C6035 H6023 0.959 . S
C6035 C6033 1.561 . S
C6036 C6033 1.526 . S
C6036 C6037 1.396 . S
C6036 C6041 1.390 . S
C6037 C6031 1.465 . S
C6037 C6036 1.396 . S
C6037 C6038 1.399 . S
C6038 H6024 0.929 . S
C6038 C6037 1.399 . S
C6038 C6039 1.385 . S
C6039 H6025 0.931 . S
C6039 C6038 1.385 . S
C6039 C6040 1.389 . S
C6040 C6039 1.389 . S
C6040 C6041 1.387 . S
C6041 H6026 0.930 . S
C6041 C6036 1.390 . S
C6041 C6040 1.387 . S
H6042 C6054 0.930 . S
H6043 C6056 0.930 . S
H6044 C6057 0.930 . S
H6045 C6061 0.959 . S
H6046 C6061 0.959 . S
H6047 C6061 0.961 . S
H6048 C6062 0.960 . S
H6049 C6062 0.961 . S
H6050 C6062 0.959 . S
H6051 C6065 0.929 . S
H6052 C6066 0.931 . S
H6053 C6068 0.930 . S
C6054 H6042 0.930 . S
C6054 C6055 1.399 . S
C6054 C6059 1.399 . S
C6055 C6054 1.399 . S
C6055 C6056 1.376 . S
C6056 H6043 0.930 . S
C6056 C6055 1.376 . S
C6056 C6057 1.388 . S
C6057 H6044 0.930 . S
C6057 C6056 1.388 . S
C6057 C6058 1.390 . S
C6058 C6057 1.390 . S
C6058 C6059 1.394 . S
C6058 C6064 1.465 . S
C6059 C6054 1.399 . S
C6059 C6058 1.394 . S
C6059 C6060 1.516 . S
C6060 C6059 1.516 . S
C6060 C6061 1.502 . S
C6060 C6062 1.561 . S
C6060 C6063 1.526 . S
C6061 H6045 0.959 . S
C6061 H6046 0.959 . S
C6061 H6047 0.961 . S
C6061 C6060 1.502 . S
C6062 H6048 0.960 . S
C6062 H6049 0.961 . S
C6062 H6050 0.959 . S
C6062 C6060 1.561 . S
C6063 C6060 1.526 . S
C6063 C6064 1.396 . S
C6063 C6068 1.390 . S
C6064 C6058 1.465 . S
C6064 C6063 1.396 . S
C6064 C6065 1.399 . S
C6065 H6051 0.929 . S
C6065 C6064 1.399 . S
C6065 C6066 1.385 . S
C6066 H6052 0.931 . S
C6066 C6065 1.385 . S
C6066 C6067 1.389 . S
C6067 C6066 1.389 . S
C6067 C6068 1.387 . S
C6068 H6053 0.930 . S
C6068 C6063 1.390 . S
C6068 C6067 1.387 . S
H6069 C6081 0.930 . S
H6070 C6083 0.930 . S
H6071 C6084 0.930 . S
H6072 C6088 0.959 . S
H6073 C6088 0.959 . S
H6074 C6088 0.961 . S
H6075 C6089 0.960 . S
H6076 C6089 0.961 . S
H6077 C6089 0.959 . S
H6078 C6092 0.929 . S
H6079 C6093 0.931 . S
H6080 C6095 0.930 . S
C6081 H6069 0.930 . S
C6081 C6082 1.399 . S
C6081 C6086 1.399 . S
C6082 C6081 1.399 . S
C6082 C6083 1.376 . S
C6083 H6070 0.930 . S
C6083 C6082 1.376 . S
C6083 C6084 1.388 . S
C6084 H6071 0.930 . S
C6084 C6083 1.388 . S
C6084 C6085 1.390 . S
C6085 C6084 1.390 . S
C6085 C6086 1.394 . S
C6085 C6091 1.465 . S
C6086 C6081 1.399 . S
C6086 C6085 1.394 . S
C6086 C6087 1.516 . S
C6087 C6086 1.516 . S
C6087 C6088 1.502 . S
C6087 C6089 1.561 . S
C6087 C6090 1.526 . S
C6088 H6072 0.959 . S
C6088 H6073 0.959 . S
C6088 H6074 0.961 . S
C6088 C6087 1.502 . S
C6089 H6075 0.960 . S
C6089 H6076 0.961 . S
C6089 H6077 0.959 . S
C6089 C6087 1.561 . S
C6090 C6087 1.526 . S
C6090 C6091 1.396 . S
C6090 C6095 1.390 . S
C6091 C6085 1.465 . S
C6091 C6090 1.396 . S
C6091 C6092 1.399 . S
C6092 H6078 0.929 . S
C6092 C6091 1.399 . S
C6092 C6093 1.385 . S
C6093 H6079 0.931 . S
C6093 C6092 1.385 . S
C6093 C6094 1.389 . S
C6094 C6093 1.389 . S
C6094 C6095 1.387 . S
C6095 H6080 0.930 . S
C6095 C6090 1.390 . S
C6095 C6094 1.387 . S
H6096 C6108 0.930 . S
H6097 C6110 0.930 . S
H6098 C6111 0.930 . S
H6099 C6115 0.959 . S
H6100 C6115 0.959 . S
H6101 C6115 0.961 . S
H6102 C6116 0.960 . S
H6103 C6116 0.961 . S
H6104 C6116 0.959 . S
H6105 C6119 0.929 . S
H6106 C6120 0.931 . S
H6107 C6122 0.930 . S
C6108 H6096 0.930 . S
C6108 C6109 1.399 . S
C6108 C6113 1.399 . S
C6109 C6108 1.399 . S
C6109 C6110 1.376 . S
C6110 H6097 0.930 . S
C6110 C6109 1.376 . S
C6110 C6111 1.388 . S
C6111 H6098 0.930 . S
C6111 C6110 1.388 . S
C6111 C6112 1.390 . S
C6112 C6111 1.390 . S
C6112 C6113 1.394 . S
C6112 C6118 1.465 . S
C6113 C6108 1.399 . S
C6113 C6112 1.394 . S
C6113 C6114 1.516 . S
C6114 C6113 1.516 . S
C6114 C6115 1.502 . S
C6114 C6116 1.561 . S
C6114 C6117 1.526 . S
C6115 H6099 0.959 . S
C6115 H6100 0.959 . S
C6115 H6101 0.961 . S
C6115 C6114 1.502 . S
C6116 H6102 0.960 . S
C6116 H6103 0.961 . S
C6116 H6104 0.959 . S
C6116 C6114 1.561 . S
C6117 C6114 1.526 . S
C6117 C6118 1.396 . S
C6117 C6122 1.390 . S
C6118 C6112 1.465 . S
C6118 C6117 1.396 . S
C6118 C6119 1.399 . S
C6119 H6105 0.929 . S
C6119 C6118 1.399 . S
C6119 C6120 1.385 . S
C6120 H6106 0.931 . S
C6120 C6119 1.385 . S
C6120 C6121 1.389 . S
C6121 C6120 1.389 . S
C6121 C6122 1.387 . S
C6122 H6107 0.930 . S
C6122 C6117 1.390 . S
C6122 C6121 1.387 . S
H6123 C6135 0.930 . S
H6124 C6137 0.930 . S
H6125 C6138 0.930 . S
H6126 C6142 0.959 . S
H6127 C6142 0.959 . S
H6128 C6142 0.961 . S
H6129 C6143 0.960 . S
H6130 C6143 0.961 . S
H6131 C6143 0.959 . S
H6132 C6146 0.929 . S
H6133 C6147 0.931 . S
H6134 C6149 0.930 . S
C6135 H6123 0.930 . S
C6135 C6136 1.399 . S
C6135 C6140 1.399 . S
C6136 C6135 1.399 . S
C6136 C6137 1.376 . S
C6137 H6124 0.930 . S
C6137 C6136 1.376 . S
C6137 C6138 1.388 . S
C6138 H6125 0.930 . S
C6138 C6137 1.388 . S
C6138 C6139 1.390 . S
C6139 C6138 1.390 . S
C6139 C6140 1.394 . S
C6139 C6145 1.465 . S
C6140 C6135 1.399 . S
C6140 C6139 1.394 . S
C6140 C6141 1.516 . S
C6141 C6140 1.516 . S
C6141 C6142 1.502 . S
C6141 C6143 1.561 . S
C6141 C6144 1.526 . S
C6142 H6126 0.959 . S
C6142 H6127 0.959 . S
C6142 H6128 0.961 . S
C6142 C6141 1.502 . S
C6143 H6129 0.960 . S
C6143 H6130 0.961 . S
C6143 H6131 0.959 . S
C6143 C6141 1.561 . S
C6144 C6141 1.526 . S
C6144 C6145 1.396 . S
C6144 C6149 1.390 . S
C6145 C6139 1.465 . S
C6145 C6144 1.396 . S
C6145 C6146 1.399 . S
C6146 H6132 0.929 . S
C6146 C6145 1.399 . S
C6146 C6147 1.385 . S
C6147 H6133 0.931 . S
C6147 C6146 1.385 . S
C6147 C6148 1.389 . S
C6148 C6147 1.389 . S
C6148 C6149 1.387 . S
C6149 H6134 0.930 . S
C6149 C6144 1.390 . S
C6149 C6148 1.387 . S
H6150 C6162 0.930 . S
H6151 C6164 0.930 . S
H6152 C6165 0.930 . S
H6153 C6169 0.959 . S
H6154 C6169 0.959 . S
H6155 C6169 0.961 . S
H6156 C6170 0.960 . S
H6157 C6170 0.961 . S
H6158 C6170 0.959 . S
H6159 C6173 0.929 . S
H6160 C6174 0.931 . S
H6161 C6176 0.930 . S
C6162 H6150 0.930 . S
C6162 C6163 1.399 . S
C6162 C6167 1.399 . S
C6163 C6162 1.399 . S
C6163 C6164 1.376 . S
C6164 H6151 0.930 . S
C6164 C6163 1.376 . S
C6164 C6165 1.388 . S
C6165 H6152 0.930 . S
C6165 C6164 1.388 . S
C6165 C6166 1.390 . S
C6166 C6165 1.390 . S
C6166 C6167 1.394 . S
C6166 C6172 1.465 . S
C6167 C6162 1.399 . S
C6167 C6166 1.394 . S
C6167 C6168 1.516 . S
C6168 C6167 1.516 . S
C6168 C6169 1.502 . S
C6168 C6170 1.561 . S
C6168 C6171 1.526 . S
C6169 H6153 0.959 . S
C6169 H6154 0.959 . S
C6169 H6155 0.961 . S
C6169 C6168 1.502 . S
C6170 H6156 0.960 . S
C6170 H6157 0.961 . S
C6170 H6158 0.959 . S
C6170 C6168 1.561 . S
C6171 C6168 1.526 . S
C6171 C6172 1.396 . S
C6171 C6176 1.390 . S
C6172 C6166 1.465 . S
C6172 C6171 1.396 . S
C6172 C6173 1.399 . S
C6173 H6159 0.929 . S
C6173 C6172 1.399 . S
C6173 C6174 1.385 . S
C6174 H6160 0.931 . S
C6174 C6173 1.385 . S
C6174 C6175 1.389 . S
C6175 C6174 1.389 . S
C6175 C6176 1.387 . S
C6176 H6161 0.930 . S
C6176 C6171 1.390 . S
C6176 C6175 1.387 . S
H6177 C6189 0.930 . S
H6178 C6191 0.930 . S
H6179 C6192 0.930 . S
H6180 C6196 0.959 . S
H6181 C6196 0.959 . S
H6182 C6196 0.961 . S
H6183 C6197 0.960 . S
H6184 C6197 0.961 . S
H6185 C6197 0.959 . S
H6186 C6200 0.929 . S
H6187 C6201 0.931 . S
H6188 C6203 0.930 . S
C6189 H6177 0.930 . S
C6189 C6190 1.399 . S
C6189 C6194 1.399 . S
C6190 C6189 1.399 . S
C6190 C6191 1.376 . S
C6191 H6178 0.930 . S
C6191 C6190 1.376 . S
C6191 C6192 1.388 . S
C6192 H6179 0.930 . S
C6192 C6191 1.388 . S
C6192 C6193 1.390 . S
C6193 C6192 1.390 . S
C6193 C6194 1.394 . S
C6193 C6199 1.465 . S
C6194 C6189 1.399 . S
C6194 C6193 1.394 . S
C6194 C6195 1.516 . S
C6195 C6194 1.516 . S
C6195 C6196 1.502 . S
C6195 C6197 1.561 . S
C6195 C6198 1.526 . S
C6196 H6180 0.959 . S
C6196 H6181 0.959 . S
C6196 H6182 0.961 . S
C6196 C6195 1.502 . S
C6197 H6183 0.960 . S
C6197 H6184 0.961 . S
C6197 H6185 0.959 . S
C6197 C6195 1.561 . S
C6198 C6195 1.526 . S
C6198 C6199 1.396 . S
C6198 C6203 1.390 . S
C6199 C6193 1.465 . S
C6199 C6198 1.396 . S
C6199 C6200 1.399 . S
C6200 H6186 0.929 . S
C6200 C6199 1.399 . S
C6200 C6201 1.385 . S
C6201 H6187 0.931 . S
C6201 C6200 1.385 . S
C6201 C6202 1.389 . S
C6202 C6201 1.389 . S
C6202 C6203 1.387 . S
C6203 H6188 0.930 . S
C6203 C6198 1.390 . S
C6203 C6202 1.387 . S
H6204 C6216 0.930 . S
H6205 C6218 0.930 . S
H6206 C6219 0.930 . S
H6207 C6223 0.959 . S
H6208 C6223 0.959 . S
H6209 C6223 0.961 . S
H6210 C6224 0.960 . S
H6211 C6224 0.961 . S
H6212 C6224 0.959 . S
H6213 C6227 0.929 . S
H6214 C6228 0.931 . S
H6215 C6230 0.930 . S
C6216 H6204 0.930 . S
C6216 C6217 1.399 . S
C6216 C6221 1.399 . S
C6217 C6216 1.399 . S
C6217 C6218 1.376 . S
C6218 H6205 0.930 . S
C6218 C6217 1.376 . S
C6218 C6219 1.388 . S
C6219 H6206 0.930 . S
C6219 C6218 1.388 . S
C6219 C6220 1.390 . S
C6220 C6219 1.390 . S
C6220 C6221 1.394 . S
C6220 C6226 1.465 . S
C6221 C6216 1.399 . S
C6221 C6220 1.394 . S
C6221 C6222 1.516 . S
C6222 C6221 1.516 . S
C6222 C6223 1.502 . S
C6222 C6224 1.561 . S
C6222 C6225 1.526 . S
C6223 H6207 0.959 . S
C6223 H6208 0.959 . S
C6223 H6209 0.961 . S
C6223 C6222 1.502 . S
C6224 H6210 0.960 . S
C6224 H6211 0.961 . S
C6224 H6212 0.959 . S
C6224 C6222 1.561 . S
C6225 C6222 1.526 . S
C6225 C6226 1.396 . S
C6225 C6230 1.390 . S
C6226 C6220 1.465 . S
C6226 C6225 1.396 . S
C6226 C6227 1.399 . S
C6227 H6213 0.929 . S
C6227 C6226 1.399 . S
C6227 C6228 1.385 . S
C6228 H6214 0.931 . S
C6228 C6227 1.385 . S
C6228 C6229 1.389 . S
C6229 C6228 1.389 . S
C6229 C6230 1.387 . S
C6230 H6215 0.930 . S
C6230 C6225 1.390 . S
C6230 C6229 1.387 . S
H6231 C6243 0.930 . S
H6232 C6245 0.930 . S
H6233 C6246 0.930 . S
H6234 C6250 0.959 . S
H6235 C6250 0.959 . S
H6236 C6250 0.961 . S
H6237 C6251 0.960 . S
H6238 C6251 0.961 . S
H6239 C6251 0.959 . S
H6240 C6254 0.929 . S
H6241 C6255 0.931 . S
H6242 C6257 0.930 . S
C6243 H6231 0.930 . S
C6243 C6244 1.399 . S
C6243 C6248 1.399 . S
C6244 C6243 1.399 . S
C6244 C6245 1.376 . S
C6245 H6232 0.930 . S
C6245 C6244 1.376 . S
C6245 C6246 1.388 . S
C6246 H6233 0.930 . S
C6246 C6245 1.388 . S
C6246 C6247 1.390 . S
C6247 C6246 1.390 . S
C6247 C6248 1.394 . S
C6247 C6253 1.465 . S
C6248 C6243 1.399 . S
C6248 C6247 1.394 . S
C6248 C6249 1.516 . S
C6249 C6248 1.516 . S
C6249 C6250 1.502 . S
C6249 C6251 1.561 . S
C6249 C6252 1.526 . S
C6250 H6234 0.959 . S
C6250 H6235 0.959 . S
C6250 H6236 0.961 . S
C6250 C6249 1.502 . S
C6251 H6237 0.960 . S
C6251 H6238 0.961 . S
C6251 H6239 0.959 . S
C6251 C6249 1.561 . S
C6252 C6249 1.526 . S
C6252 C6253 1.396 . S
C6252 C6257 1.390 . S
C6253 C6247 1.465 . S
C6253 C6252 1.396 . S
C6253 C6254 1.399 . S
C6254 H6240 0.929 . S
C6254 C6253 1.399 . S
C6254 C6255 1.385 . S
C6255 H6241 0.931 . S
C6255 C6254 1.385 . S
C6255 C6256 1.389 . S
C6256 C6255 1.389 . S
C6256 C6257 1.387 . S
C6257 H6242 0.930 . S
C6257 C6252 1.390 . S
C6257 C6256 1.387 . S
H6258 C6270 0.930 . S
H6259 C6272 0.930 . S
H6260 C6273 0.930 . S
H6261 C6277 0.959 . S
H6262 C6277 0.959 . S
H6263 C6277 0.961 . S
H6264 C6278 0.960 . S
H6265 C6278 0.961 . S
H6266 C6278 0.959 . S
H6267 C6281 0.929 . S
H6268 C6282 0.931 . S
H6269 C6284 0.930 . S
C6270 H6258 0.930 . S
C6270 C6271 1.399 . S
C6270 C6275 1.399 . S
C6271 C6270 1.399 . S
C6271 C6272 1.376 . S
C6272 H6259 0.930 . S
C6272 C6271 1.376 . S
C6272 C6273 1.388 . S
C6273 H6260 0.930 . S
C6273 C6272 1.388 . S
C6273 C6274 1.390 . S
C6274 C6273 1.390 . S
C6274 C6275 1.394 . S
C6274 C6280 1.465 . S
C6275 C6270 1.399 . S
C6275 C6274 1.394 . S
C6275 C6276 1.516 . S
C6276 C6275 1.516 . S
C6276 C6277 1.502 . S
C6276 C6278 1.561 . S
C6276 C6279 1.526 . S
C6277 H6261 0.959 . S
C6277 H6262 0.959 . S
C6277 H6263 0.961 . S
C6277 C6276 1.502 . S
C6278 H6264 0.960 . S
C6278 H6265 0.961 . S
C6278 H6266 0.959 . S
C6278 C6276 1.561 . S
C6279 C6276 1.526 . S
C6279 C6280 1.396 . S
C6279 C6284 1.390 . S
C6280 C6274 1.465 . S
C6280 C6279 1.396 . S
C6280 C6281 1.399 . S
C6281 H6267 0.929 . S
C6281 C6280 1.399 . S
C6281 C6282 1.385 . S
C6282 H6268 0.931 . S
C6282 C6281 1.385 . S
C6282 C6283 1.389 . S
C6283 C6282 1.389 . S
C6283 C6284 1.387 . S
C6284 H6269 0.930 . S
C6284 C6279 1.390 . S
C6284 C6283 1.387 . S
H6285 C6297 0.930 . S
H6286 C6299 0.930 . S
H6287 C6300 0.930 . S
H6288 C6304 0.959 . S
H6289 C6304 0.959 . S
H6290 C6304 0.961 . S
H6291 C6305 0.960 . S
H6292 C6305 0.961 . S
H6293 C6305 0.959 . S
H6294 C6308 0.929 . S
H6295 C6309 0.931 . S
H6296 C6311 0.930 . S
C6297 H6285 0.930 . S
C6297 C6298 1.399 . S
C6297 C6302 1.399 . S
C6298 C6297 1.399 . S
C6298 C6299 1.376 . S
C6299 H6286 0.930 . S
C6299 C6298 1.376 . S
C6299 C6300 1.388 . S
C6300 H6287 0.930 . S
C6300 C6299 1.388 . S
C6300 C6301 1.390 . S
C6301 C6300 1.390 . S
C6301 C6302 1.394 . S
C6301 C6307 1.465 . S
C6302 C6297 1.399 . S
C6302 C6301 1.394 . S
C6302 C6303 1.516 . S
C6303 C6302 1.516 . S
C6303 C6304 1.502 . S
C6303 C6305 1.561 . S
C6303 C6306 1.526 . S
C6304 H6288 0.959 . S
C6304 H6289 0.959 . S
C6304 H6290 0.961 . S
C6304 C6303 1.502 . S
C6305 H6291 0.960 . S
C6305 H6292 0.961 . S
C6305 H6293 0.959 . S
C6305 C6303 1.561 . S
C6306 C6303 1.526 . S
C6306 C6307 1.396 . S
C6306 C6311 1.390 . S
C6307 C6301 1.465 . S
C6307 C6306 1.396 . S
C6307 C6308 1.399 . S
C6308 H6294 0.929 . S
C6308 C6307 1.399 . S
C6308 C6309 1.385 . S
C6309 H6295 0.931 . S
C6309 C6308 1.385 . S
C6309 C6310 1.389 . S
C6310 C6309 1.389 . S
C6310 C6311 1.387 . S
C6311 H6296 0.930 . S
C6311 C6306 1.390 . S
C6311 C6310 1.387 . S
H6312 C6324 0.930 . S
H6313 C6326 0.930 . S
H6314 C6327 0.930 . S
H6315 C6331 0.959 . S
H6316 C6331 0.959 . S
H6317 C6331 0.961 . S
H6318 C6332 0.960 . S
H6319 C6332 0.961 . S
H6320 C6332 0.959 . S
H6321 C6335 0.929 . S
H6322 C6336 0.931 . S
H6323 C6338 0.930 . S
C6324 H6312 0.930 . S
C6324 C6325 1.399 . S
C6324 C6329 1.399 . S
C6325 C6324 1.399 . S
C6325 C6326 1.376 . S
C6326 H6313 0.930 . S
C6326 C6325 1.376 . S
C6326 C6327 1.388 . S
C6327 H6314 0.930 . S
C6327 C6326 1.388 . S
C6327 C6328 1.390 . S
C6328 C6327 1.390 . S
C6328 C6329 1.394 . S
C6328 C6334 1.465 . S
C6329 C6324 1.399 . S
C6329 C6328 1.394 . S
C6329 C6330 1.516 . S
C6330 C6329 1.516 . S
C6330 C6331 1.502 . S
C6330 C6332 1.561 . S
C6330 C6333 1.526 . S
C6331 H6315 0.959 . S
C6331 H6316 0.959 . S
C6331 H6317 0.961 . S
C6331 C6330 1.502 . S
C6332 H6318 0.960 . S
C6332 H6319 0.961 . S
C6332 H6320 0.959 . S
C6332 C6330 1.561 . S
C6333 C6330 1.526 . S
C6333 C6334 1.396 . S
C6333 C6338 1.390 . S
C6334 C6328 1.465 . S
C6334 C6333 1.396 . S
C6334 C6335 1.399 . S
C6335 H6321 0.929 . S
C6335 C6334 1.399 . S
C6335 C6336 1.385 . S
C6336 H6322 0.931 . S
C6336 C6335 1.385 . S
C6336 C6337 1.389 . S
C6337 C6336 1.389 . S
C6337 C6338 1.387 . S
C6338 H6323 0.930 . S
C6338 C6333 1.390 . S
C6338 C6337 1.387 . S
H6339 C6351 0.930 . S
H6340 C6353 0.930 . S
H6341 C6354 0.930 . S
H6342 C6358 0.959 . S
H6343 C6358 0.959 . S
H6344 C6358 0.961 . S
H6345 C6359 0.960 . S
H6346 C6359 0.961 . S
H6347 C6359 0.959 . S
H6348 C6362 0.929 . S
H6349 C6363 0.931 . S
H6350 C6365 0.930 . S
C6351 H6339 0.930 . S
C6351 C6352 1.399 . S
C6351 C6356 1.399 . S
C6352 C6351 1.399 . S
C6352 C6353 1.376 . S
C6353 H6340 0.930 . S
C6353 C6352 1.376 . S
C6353 C6354 1.388 . S
C6354 H6341 0.930 . S
C6354 C6353 1.388 . S
C6354 C6355 1.390 . S
C6355 C6354 1.390 . S
C6355 C6356 1.394 . S
C6355 C6361 1.465 . S
C6356 C6351 1.399 . S
C6356 C6355 1.394 . S
C6356 C6357 1.516 . S
C6357 C6356 1.516 . S
C6357 C6358 1.502 . S
C6357 C6359 1.561 . S
C6357 C6360 1.526 . S
C6358 H6342 0.959 . S
C6358 H6343 0.959 . S
C6358 H6344 0.961 . S
C6358 C6357 1.502 . S
C6359 H6345 0.960 . S
C6359 H6346 0.961 . S
C6359 H6347 0.959 . S
C6359 C6357 1.561 . S
C6360 C6357 1.526 . S
C6360 C6361 1.396 . S
C6360 C6365 1.390 . S
C6361 C6355 1.465 . S
C6361 C6360 1.396 . S
C6361 C6362 1.399 . S
C6362 H6348 0.929 . S
C6362 C6361 1.399 . S
C6362 C6363 1.385 . S
C6363 H6349 0.931 . S
C6363 C6362 1.385 . S
C6363 C6364 1.389 . S
C6364 C6363 1.389 . S
C6364 C6365 1.387 . S
C6365 H6350 0.930 . S
C6365 C6360 1.390 . S
C6365 C6364 1.387 . S
H6366 C6378 0.930 . S
H6367 C6380 0.930 . S
H6368 C6381 0.930 . S
H6369 C6385 0.959 . S
H6370 C6385 0.959 . S
H6371 C6385 0.961 . S
H6372 C6386 0.960 . S
H6373 C6386 0.961 . S
H6374 C6386 0.959 . S
H6375 C6389 0.929 . S
H6376 C6390 0.931 . S
H6377 C6392 0.930 . S
C6378 H6366 0.930 . S
C6378 C6379 1.399 . S
C6378 C6383 1.399 . S
C6379 C6378 1.399 . S
C6379 C6380 1.376 . S
C6380 H6367 0.930 . S
C6380 C6379 1.376 . S
C6380 C6381 1.388 . S
C6381 H6368 0.930 . S
C6381 C6380 1.388 . S
C6381 C6382 1.390 . S
C6382 C6381 1.390 . S
C6382 C6383 1.394 . S
C6382 C6388 1.465 . S
C6383 C6378 1.399 . S
C6383 C6382 1.394 . S
C6383 C6384 1.516 . S
C6384 C6383 1.516 . S
C6384 C6385 1.502 . S
C6384 C6386 1.561 . S
C6384 C6387 1.526 . S
C6385 H6369 0.959 . S
C6385 H6370 0.959 . S
C6385 H6371 0.961 . S
C6385 C6384 1.502 . S
C6386 H6372 0.960 . S
C6386 H6373 0.961 . S
C6386 H6374 0.959 . S
C6386 C6384 1.561 . S
C6387 C6384 1.526 . S
C6387 C6388 1.396 . S
C6387 C6392 1.390 . S
C6388 C6382 1.465 . S
C6388 C6387 1.396 . S
C6388 C6389 1.399 . S
C6389 H6375 0.929 . S
C6389 C6388 1.399 . S
C6389 C6390 1.385 . S
C6390 H6376 0.931 . S
C6390 C6389 1.385 . S
C6390 C6391 1.389 . S
C6391 C6390 1.389 . S
C6391 C6392 1.387 . S
C6392 H6377 0.930 . S
C6392 C6387 1.390 . S
C6392 C6391 1.387 . S
H6393 C6405 0.930 . S
H6394 C6407 0.930 . S
H6395 C6408 0.930 . S
H6396 C6412 0.959 . S
H6397 C6412 0.959 . S
H6398 C6412 0.961 . S
H6399 C6413 0.960 . S
H6400 C6413 0.961 . S
H6401 C6413 0.959 . S
H6402 C6416 0.929 . S
H6403 C6417 0.931 . S
H6404 C6419 0.930 . S
C6405 H6393 0.930 . S
C6405 C6406 1.399 . S
C6405 C6410 1.399 . S
C6406 C6405 1.399 . S
C6406 C6407 1.376 . S
C6407 H6394 0.930 . S
C6407 C6406 1.376 . S
C6407 C6408 1.388 . S
C6408 H6395 0.930 . S
C6408 C6407 1.388 . S
C6408 C6409 1.390 . S
C6409 C6408 1.390 . S
C6409 C6410 1.394 . S
C6409 C6415 1.465 . S
C6410 C6405 1.399 . S
C6410 C6409 1.394 . S
C6410 C6411 1.516 . S
C6411 C6410 1.516 . S
C6411 C6412 1.502 . S
C6411 C6413 1.561 . S
C6411 C6414 1.526 . S
C6412 H6396 0.959 . S
C6412 H6397 0.959 . S
C6412 H6398 0.961 . S
C6412 C6411 1.502 . S
C6413 H6399 0.960 . S
C6413 H6400 0.961 . S
C6413 H6401 0.959 . S
C6413 C6411 1.561 . S
C6414 C6411 1.526 . S
C6414 C6415 1.396 . S
C6414 C6419 1.390 . S
C6415 C6409 1.465 . S
C6415 C6414 1.396 . S
C6415 C6416 1.399 . S
C6416 H6402 0.929 . S
C6416 C6415 1.399 . S
C6416 C6417 1.385 . S
C6417 H6403 0.931 . S
C6417 C6416 1.385 . S
C6417 C6418 1.389 . S
C6418 C6417 1.389 . S
C6418 C6419 1.387 . S
C6419 H6404 0.930 . S
C6419 C6414 1.390 . S
C6419 C6418 1.387 . S
H6420 C6432 0.930 . S
H6421 C6434 0.930 . S
H6422 C6435 0.930 . S
H6423 C6439 0.959 . S
H6424 C6439 0.959 . S
H6425 C6439 0.961 . S
H6426 C6440 0.960 . S
H6427 C6440 0.961 . S
H6428 C6440 0.959 . S
H6429 C6443 0.929 . S
H6430 C6444 0.931 . S
H6431 C6446 0.930 . S
C6432 H6420 0.930 . S
C6432 C6433 1.399 . S
C6432 C6437 1.399 . S
C6433 C6432 1.399 . S
C6433 C6434 1.376 . S
C6434 H6421 0.930 . S
C6434 C6433 1.376 . S
C6434 C6435 1.388 . S
C6435 H6422 0.930 . S
C6435 C6434 1.388 . S
C6435 C6436 1.390 . S
C6436 C6435 1.390 . S
C6436 C6437 1.394 . S
C6436 C6442 1.465 . S
C6437 C6432 1.399 . S
C6437 C6436 1.394 . S
C6437 C6438 1.516 . S
C6438 C6437 1.516 . S
C6438 C6439 1.502 . S
C6438 C6440 1.561 . S
C6438 C6441 1.526 . S
C6439 H6423 0.959 . S
C6439 H6424 0.959 . S
C6439 H6425 0.961 . S
C6439 C6438 1.502 . S
C6440 H6426 0.960 . S
C6440 H6427 0.961 . S
C6440 H6428 0.959 . S
C6440 C6438 1.561 . S
C6441 C6438 1.526 . S
C6441 C6442 1.396 . S
C6441 C6446 1.390 . S
C6442 C6436 1.465 . S
C6442 C6441 1.396 . S
C6442 C6443 1.399 . S
C6443 H6429 0.929 . S
C6443 C6442 1.399 . S
C6443 C6444 1.385 . S
C6444 H6430 0.931 . S
C6444 C6443 1.385 . S
C6444 C6445 1.389 . S
C6445 C6444 1.389 . S
C6445 C6446 1.387 . S
C6446 H6431 0.930 . S
C6446 C6441 1.390 . S
C6446 C6445 1.387 . S
H6447 C6459 0.930 . S
H6448 C6461 0.930 . S
H6449 C6462 0.930 . S
H6450 C6466 0.959 . S
H6451 C6466 0.959 . S
H6452 C6466 0.961 . S
H6453 C6467 0.960 . S
H6454 C6467 0.961 . S
H6455 C6467 0.959 . S
H6456 C6470 0.929 . S
H6457 C6471 0.931 . S
H6458 C6473 0.930 . S
C6459 H6447 0.930 . S
C6459 C6460 1.399 . S
C6459 C6464 1.399 . S
C6460 C6459 1.399 . S
C6460 C6461 1.376 . S
C6461 H6448 0.930 . S
C6461 C6460 1.376 . S
C6461 C6462 1.388 . S
C6462 H6449 0.930 . S
C6462 C6461 1.388 . S
C6462 C6463 1.390 . S
C6463 C6462 1.390 . S
C6463 C6464 1.394 . S
C6463 C6469 1.465 . S
C6464 C6459 1.399 . S
C6464 C6463 1.394 . S
C6464 C6465 1.516 . S
C6465 C6464 1.516 . S
C6465 C6466 1.502 . S
C6465 C6467 1.561 . S
C6465 C6468 1.526 . S
C6466 H6450 0.959 . S
C6466 H6451 0.959 . S
C6466 H6452 0.961 . S
C6466 C6465 1.502 . S
C6467 H6453 0.960 . S
C6467 H6454 0.961 . S
C6467 H6455 0.959 . S
C6467 C6465 1.561 . S
C6468 C6465 1.526 . S
C6468 C6469 1.396 . S
C6468 C6473 1.390 . S
C6469 C6463 1.465 . S
C6469 C6468 1.396 . S
C6469 C6470 1.399 . S
C6470 H6456 0.929 . S
C6470 C6469 1.399 . S
C6470 C6471 1.385 . S
C6471 H6457 0.931 . S
C6471 C6470 1.385 . S
C6471 C6472 1.389 . S
C6472 C6471 1.389 . S
C6472 C6473 1.387 . S
C6473 H6458 0.930 . S
C6473 C6468 1.390 . S
C6473 C6472 1.387 . S
H6474 C6486 0.930 . S
H6475 C6488 0.930 . S
H6476 C6489 0.930 . S
H6477 C6493 0.959 . S
H6478 C6493 0.959 . S
H6479 C6493 0.961 . S
H6480 C6494 0.960 . S
H6481 C6494 0.961 . S
H6482 C6494 0.959 . S
H6483 C6497 0.929 . S
H6484 C6498 0.931 . S
H6485 C6500 0.930 . S
C6486 H6474 0.930 . S
C6486 C6487 1.399 . S
C6486 C6491 1.399 . S
C6487 C6486 1.399 . S
C6487 C6488 1.376 . S
C6488 H6475 0.930 . S
C6488 C6487 1.376 . S
C6488 C6489 1.388 . S
C6489 H6476 0.930 . S
C6489 C6488 1.388 . S
C6489 C6490 1.390 . S
C6490 C6489 1.390 . S
C6490 C6491 1.394 . S
C6490 C6496 1.465 . S
C6491 C6486 1.399 . S
C6491 C6490 1.394 . S
C6491 C6492 1.516 . S
C6492 C6491 1.516 . S
C6492 C6493 1.502 . S
C6492 C6494 1.561 . S
C6492 C6495 1.526 . S
C6493 H6477 0.959 . S
C6493 H6478 0.959 . S
C6493 H6479 0.961 . S
C6493 C6492 1.502 . S
C6494 H6480 0.960 . S
C6494 H6481 0.961 . S
C6494 H6482 0.959 . S
C6494 C6492 1.561 . S
C6495 C6492 1.526 . S
C6495 C6496 1.396 . S
C6495 C6500 1.390 . S
C6496 C6490 1.465 . S
C6496 C6495 1.396 . S
C6496 C6497 1.399 . S
C6497 H6483 0.929 . S
C6497 C6496 1.399 . S
C6497 C6498 1.385 . S
C6498 H6484 0.931 . S
C6498 C6497 1.385 . S
C6498 C6499 1.389 . S
C6499 C6498 1.389 . S
C6499 C6500 1.387 . S
C6500 H6485 0.930 . S
C6500 C6495 1.390 . S
C6500 C6499 1.387 . S
H6501 C6513 0.930 . S
H6502 C6515 0.930 . S
H6503 C6516 0.930 . S
H6504 C6520 0.959 . S
H6505 C6520 0.959 . S
H6506 C6520 0.961 . S
H6507 C6521 0.960 . S
H6508 C6521 0.961 . S
H6509 C6521 0.959 . S
H6510 C6524 0.929 . S
H6511 C6525 0.931 . S
H6512 C6527 0.930 . S
C6513 H6501 0.930 . S
C6513 C6514 1.399 . S
C6513 C6518 1.399 . S
C6514 C6513 1.399 . S
C6514 C6515 1.376 . S
C6515 H6502 0.930 . S
C6515 C6514 1.376 . S
C6515 C6516 1.388 . S
C6516 H6503 0.930 . S
C6516 C6515 1.388 . S
C6516 C6517 1.390 . S
C6517 C6516 1.390 . S
C6517 C6518 1.394 . S
C6517 C6523 1.465 . S
C6518 C6513 1.399 . S
C6518 C6517 1.394 . S
C6518 C6519 1.516 . S
C6519 C6518 1.516 . S
C6519 C6520 1.502 . S
C6519 C6521 1.561 . S
C6519 C6522 1.526 . S
C6520 H6504 0.959 . S
C6520 H6505 0.959 . S
C6520 H6506 0.961 . S
C6520 C6519 1.502 . S
C6521 H6507 0.960 . S
C6521 H6508 0.961 . S
C6521 H6509 0.959 . S
C6521 C6519 1.561 . S
C6522 C6519 1.526 . S
C6522 C6523 1.396 . S
C6522 C6527 1.390 . S
C6523 C6517 1.465 . S
C6523 C6522 1.396 . S
C6523 C6524 1.399 . S
C6524 H6510 0.929 . S
C6524 C6523 1.399 . S
C6524 C6525 1.385 . S
C6525 H6511 0.931 . S
C6525 C6524 1.385 . S
C6525 C6526 1.389 . S
C6526 C6525 1.389 . S
C6526 C6527 1.387 . S
C6527 H6512 0.930 . S
C6527 C6522 1.390 . S
C6527 C6526 1.387 . S
C1357 C5 1.636 . S
C1369 C957 1.649 . S
C1384 C915 1.644 . S
C1396 C19 1.655 . S
C1411 C929 1.643 . S
C1423 C33 1.656 . S
C1438 C47 1.651 . S
C1450 C943 1.636 . S
C1465 C999 1.659 . S
C1477 C61 1.637 . S
C1492 C971 1.639 . S
C1504 C75 1.658 . S
C1519 C985 1.639 . S
C1531 C89 1.646 . S
C1546 C103 1.638 . S
C1558 C901 1.658 . S
C1573 C117 1.636 . S
C1585 C887 1.659 . S
C1600 C131 1.635 . S
C1612 C845 1.651 . S
C1627 C145 1.639 . S
C1639 C859 1.646 . S
C1654 C159 1.654 . S
C1666 C873 1.634 . S
C1681 C173 1.637 . S
C1693 C803 1.648 . S
C1708 C817 1.635 . S
C1720 C187 1.658 . S
C1735 C831 1.656 . S
C1747 C201 1.643 . S
C1762 C215 1.650 . S
C1774 C789 1.636 . S
C1789 C229 1.636 . S
C1801 C775 1.659 . S
C1816 C243 1.646 . S
C1828 C691 1.639 . S
C1843 C705 1.639 . S
C1855 C257 1.646 . S
C1870 C719 1.651 . S
C1882 C271 1.635 . S
C1897 C677 1.636 . S
C1909 C285 1.649 . S
C1924 C299 1.637 . S
C1936 C747 1.659 . S
C1951 C313 1.657 . S
C1963 C761 1.634 . S
C1978 C327 1.658 . S
C1990 C733 1.640 . S
C2005 C341 1.634 . S
C2017 C1293 1.651 . S
C2032 C355 1.658 . S
C2044 C1251 1.646 . S
C2059 C369 1.637 . S
C2071 C1265 1.657 . S
C2086 C383 1.657 . S
C2098 C1279 1.648 . S
C2113 C397 1.653 . S
C2125 C1335 1.635 . S
C2140 C411 1.641 . S
C2152 C1307 1.637 . S
C2167 C1321 1.658 . S
C2179 C425 1.647 . S
C2194 C439 1.634 . S
C2206 C1237 1.647 . S
C2221 C453 1.644 . S
C2233 C1223 1.635 . S
C2248 C1181 1.658 . S
C2260 C467 1.647 . S
C2275 C481 1.656 . S
C2287 C1195 1.650 . S
C2302 C495 1.640 . S
C2314 C1209 1.658 . S
C2329 C509 1.658 . S
C2341 C1139 1.646 . S
C2356 C523 1.657 . S
C2368 C1153 1.648 . S
C2383 C537 1.649 . S
C2395 C1167 1.657 . S
C2410 C1125 1.640 . S
C2422 C551 1.658 . S
C2437 C565 1.658 . S
C2449 C1111 1.647 . S
C2464 C579 1.639 . S
C2476 C1027 1.658 . S
C2491 C593 1.649 . S
C2503 C1041 1.634 . S
C2518 C1055 1.658 . S
C2530 C607 1.647 . S
C2545 C621 1.656 . S
C2557 C1013 1.651 . S
C2572 C1083 1.635 . S
C2584 C635 1.644 . S
C2599 C649 1.643 . S
C2611 C1097 1.636 . S
C2626 C663 1.651 . S
C2638 C1069 1.656 . S
C2653 C9 1.519 . S
C2665 C555 1.520 . S
C2680 C23 1.509 . S
C2692 C513 1.505 . S
C2707 C527 1.513 . S
C2719 C37 1.510 . S
C2734 C51 1.509 . S
C2746 C541 1.506 . S
C2761 C471 1.499 . S
C2773 C65 1.497 . S
C2788 C485 1.506 . S
C2800 C79 1.510 . S
C2815 C499 1.511 . S
C2827 C93 1.515 . S
C2842 C457 1.496 . S
C2854 C107 1.497 . S
C2869 C443 1.519 . S
C2881 C121 1.517 . S
C2896 C135 1.519 . S
C2908 C401 1.518 . S
C2923 C415 1.520 . S
C2935 C149 1.519 . S
C2950 C163 1.496 . S
C2962 C429 1.497 . S
C2977 C359 1.519 . S
C2989 C177 1.518 . S
C3004 C373 1.504 . S
C3016 C191 1.508 . S
C3031 C205 1.508 . S
C3043 C387 1.505 . S
C3058 C219 1.496 . S
C3070 C345 1.497 . S
C3085 C233 1.507 . S
C3097 C625 1.504 . S
C3112 C247 1.510 . S
C3124 C667 1.514 . S
C3139 C639 1.496 . S
C3151 C261 1.497 . S
C3166 C653 1.520 . S
C3178 C275 1.520 . S
C3193 C289 1.506 . S
C3205 C569 1.510 . S
C3220 C303 1.509 . S
C3232 C597 1.505 . S
C3247 C611 1.496 . S
C3259 C317 1.497 . S
C3274 C331 1.508 . S
C3286 C583 1.505 . S
C3301 C1227 1.506 . S
C3313 C681 1.510 . S
C3328 C1185 1.520 . S
C3340 C695 1.519 . S
C3355 C1199 1.507 . S
C3367 C709 1.504 . S
C3382 C723 1.507 . S
C3394 C1213 1.504 . S
C3409 C1143 1.507 . S
C3421 C737 1.504 . S
C3436 C1157 1.496 . S
C3448 C751 1.497 . S
C3463 C765 1.512 . S
C3475 C1171 1.515 . S
C3490 C779 1.510 . S
C3502 C1129 1.507 . S
C3517 C1115 1.498 . S
C3529 C793 1.501 . S
C3544 C807 1.519 . S
C3556 C1073 1.520 . S
C3571 C1087 1.520 . S
C3583 C821 1.519 . S
C3598 C1101 1.519 . S
C3610 C835 1.516 . S
C3625 C849 1.507 . S
C3637 C1031 1.504 . S
C3652 C863 1.520 . S
C3664 C1045 1.520 . S
C3679 C1059 1.497 . S
C3691 C877 1.499 . S
C3706 C891 1.496 . S
C3718 C1017 1.498 . S
C3733 C1297 1.520 . S
C3745 C905 1.520 . S
C3760 C1339 1.519 . S
C3772 C919 1.518 . S
C3787 C933 1.507 . S
C3799 C1311 1.511 . S
C3814 C1325 1.496 . S
C3826 C947 1.498 . S
C3841 C1241 1.520 . S
C3853 C961 1.520 . S
C3868 C1269 1.496 . S
C3880 C975 1.498 . S
C3895 C989 1.509 . S
C3907 C1283 1.506 . S
C3922 C1255 1.520 . S
C3934 C1003 1.519 . S
C3949 C11 1.189 . S
C3961 C403 1.188 . S
C3976 C417 1.254 . S
C3988 C25 1.252 . S
C4003 C39 1.244 . S
C4015 C431 1.236 . S
C4030 C445 1.197 . S
C4042 C53 1.206 . S
C4057 C67 1.253 . S
C4069 C347 1.249 . S
C4084 C81 1.245 . S
C4096 C361 1.237 . S
C4111 C95 1.241 . S
C4123 C375 1.248 . S
C4138 C389 1.189 . S
C4150 C109 1.194 . S
C4165 C543 1.199 . S
C4177 C123 1.193 . S
C4192 C137 1.253 . S
C4204 C557 1.248 . S
C4219 C151 1.241 . S
C4231 C515 1.248 . S
C4246 C165 1.223 . S
C4258 C529 1.233 . S
C4273 C179 1.211 . S
C4285 C487 1.203 . S
C4300 C193 1.245 . S
C4312 C501 1.237 . S
C4327 C207 1.246 . S
C4339 C459 1.251 . S
C4354 C221 1.234 . S
C4366 C473 1.224 . S
C4381 C235 1.244 . S
C4393 C641 1.236 . S
C4408 C249 1.247 . S
C4420 C613 1.240 . S
C4435 C627 1.242 . S
C4447 C263 1.248 . S
C4462 C277 1.188 . S
C4474 C585 1.189 . S
C4489 C599 1.188 . S
C4501 C291 1.189 . S
C4516 C305 1.199 . S
C4528 C571 1.208 . S
C4543 C319 1.192 . S
C4555 C669 1.189 . S
C4570 C655 1.248 . S
C4582 C333 1.252 . S
C4597 C1075 1.232 . S
C4609 C683 1.222 . S
C4624 C697 1.195 . S
C4636 C1089 1.203 . S
C4651 C1103 1.188 . S
C4663 C711 1.192 . S
C4678 C725 1.191 . S
C4690 C1117 1.198 . S
C4705 C1019 1.221 . S
C4717 C739 1.231 . S
C4732 C1033 1.246 . S
C4744 C753 1.238 . S
C4759 C1047 1.248 . S
C4771 C767 1.242 . S
C4786 C781 1.196 . S
C4798 C1061 1.205 . S
C4813 C795 1.197 . S
C4825 C1215 1.192 . S
C4840 C1229 1.205 . S
C4852 C809 1.215 . S
C4867 C1187 1.244 . S
C4879 C823 1.249 . S
C4894 C1201 1.251 . S
C4906 C837 1.253 . S
C4921 C851 1.193 . S
C4933 C1159 1.190 . S
C4948 C865 1.214 . S
C4960 C1173 1.224 . S
C4975 C1131 1.200 . S
C4987 C879 1.194 . S
C5002 C1145 1.243 . S
C5014 C893 1.235 . S
C5029 C1313 1.195 . S
C5041 C907 1.204 . S
C5056 C921 1.242 . S
C5068 C1285 1.234 . S
C5083 C1299 1.242 . S
C5095 C935 1.248 . S
C5110 C949 1.198 . S
C5122 C1257 1.207 . S
C5137 C963 1.198 . S
C5149 C1271 1.192 . S
C5164 C977 1.193 . S
C5176 C1243 1.201 . S
C5191 C1341 1.241 . S
C5203 C991 1.248 . S
C5218 C1005 1.198 . S
C5230 C1327 1.192 . S
C5245 C434 1.222 . S
C5257 C0 1.233 . S
C5272 C392 1.215 . S
C5284 C14 1.225 . S
C5299 C28 1.224 . S
C5311 C406 1.236 . S
C5326 C420 1.273 . S
C5338 C42 1.264 . S
C5353 C350 1.275 . S
C5365 C56 1.266 . S
C5380 C70 1.214 . S
C5392 C364 1.224 . S
C5407 C84 1.238 . S
C5419 C378 1.227 . S
C5434 C336 1.212 . S
C5446 C98 1.221 . S
C5461 C616 1.219 . S
C5473 C112 1.212 . S
C5488 C126 1.275 . S
C5500 C574 1.266 . S
C5515 C140 1.208 . S
C5527 C588 1.207 . S
C5542 C602 1.209 . S
C5554 C154 1.217 . S
C5569 C168 1.228 . S
C5581 C658 1.240 . S
C5596 C630 1.214 . S
C5608 C182 1.223 . S
C5623 C644 1.218 . S
C5635 C196 1.211 . S
C5650 C210 1.258 . S
C5662 C560 1.247 . S
C5677 C224 1.230 . S
C5689 C546 1.242 . S
C5704 C238 1.268 . S
C5716 C462 1.258 . S
C5731 C252 1.274 . S
C5743 C476 1.280 . S
C5758 C490 1.255 . S
C5770 C266 1.244 . S
C5785 C448 1.257 . S
C5797 C280 1.267 . S
C5812 C294 1.258 . S
C5824 C518 1.247 . S
C5839 C308 1.212 . S
C5851 C532 1.208 . S
C5866 C322 1.283 . S
C5878 C504 1.280 . S
C5893 C672 1.217 . S
C5905 C1106 1.227 . S
C5920 C686 1.272 . S
C5932 C1064 1.262 . S
C5947 C700 1.218 . S
C5959 C1078 1.229 . S
C5974 C1092 1.273 . S
C5986 C714 1.264 . S
C6001 C1022 1.271 . S
C6013 C728 1.262 . S
C6028 C1036 1.276 . S
C6040 C742 1.267 . S
C6055 C756 1.265 . S
C6067 C1050 1.254 . S
C6082 C1008 1.245 . S
C6094 C770 1.256 . S
C6109 C1288 1.217 . S
C6121 C784 1.211 . S
C6136 C1246 1.226 . S
C6148 C798 1.237 . S
C6163 C1260 1.215 . S
C6175 C812 1.225 . S
C6190 C1274 1.282 . S
C6202 C826 1.279 . S
C6217 C1330 1.280 . S
C6229 C840 1.282 . S
C6244 C1302 1.272 . S
C6256 C854 1.263 . S
C6271 C1316 1.234 . S
C6283 C868 1.246 . S
C6298 C1232 1.214 . S
C6310 C882 1.224 . S
C6325 C896 1.215 . S
C6337 C1218 1.225 . S
C6352 C1134 1.218 . S
C6364 C910 1.228 . S
C6379 C1148 1.267 . S
C6391 C924 1.275 . S
C6406 C1162 1.271 . S
C6418 C938 1.261 . S
C6433 C1120 1.221 . S
C6445 C952 1.214 . S
C6460 C1190 1.278 . S
C6472 C966 1.270 . S
C6487 C1204 1.238 . S
C6499 C980 1.227 . S
C6514 C1176 1.220 . S
C6526 C994 1.213 . S
