# Generated by pormake.
# Topology ecv, (8)-cn, num edge types: 1
# Building blocks:
#     Node 0, Type 0, BuildingBlock: TAGTUT_clean_sbu_1, # of connection points: 8
#     Node 1, Type 0, BuildingBlock: TAGTUT_clean_sbu_1, # of connection points: 8
#     Node 2, Type 0, BuildingBlock: TAGTUT_clean_sbu_1, # of connection points: 8
#     Node 3, Type 0, BuildingBlock: TAGTUT_clean_sbu_1, # of connection points: 8
#     Node 4, Type 0, BuildingBlock: TAGTUT_clean_sbu_1, # of connection points: 8
#     Node 5, Type 0, BuildingBlock: TAGTUT_clean_sbu_1, # of connection points: 8
#     Node 6, Type 0, BuildingBlock: TAGTUT_clean_sbu_1, # of connection points: 8
#     Node 7, Type 0, BuildingBlock: TAGTUT_clean_sbu_1, # of connection points: 8
#     Node 8, Type 0, BuildingBlock: TAGTUT_clean_sbu_1, # of connection points: 8
#     Node 9, Type 0, BuildingBlock: TAGTUT_clean_sbu_1, # of connection points: 8
#     Node 10, Type 0, BuildingBlock: TAGTUT_clean_sbu_1, # of connection points: 8
#     Node 11, Type 0, BuildingBlock: TAGTUT_clean_sbu_1, # of connection points: 8
#     Node 12, Type 0, BuildingBlock: TAGTUT_clean_sbu_1, # of connection points: 8
#     Node 13, Type 0, BuildingBlock: TAGTUT_clean_sbu_1, # of connection points: 8
#     Node 14, Type 0, BuildingBlock: TAGTUT_clean_sbu_1, # of connection points: 8
#     Node 15, Type 0, BuildingBlock: TAGTUT_clean_sbu_1, # of connection points: 8
#     Edge 16, Type (0, 0), None
#     Edge 17, Type (0, 0), None
#     Edge 18, Type (0, 0), None
#     Edge 19, Type (0, 0), None
#     Edge 20, Type (0, 0), None
#     Edge 21, Type (0, 0), None
#     Edge 22, Type (0, 0), None
#     Edge 23, Type (0, 0), None
#     Edge 24, Type (0, 0), None
#     Edge 25, Type (0, 0), None
#     Edge 26, Type (0, 0), None
#     Edge 27, Type (0, 0), None
#     Edge 28, Type (0, 0), None
#     Edge 29, Type (0, 0), None
#     Edge 30, Type (0, 0), None
#     Edge 31, Type (0, 0), None
#     Edge 32, Type (0, 0), None
#     Edge 33, Type (0, 0), None
#     Edge 34, Type (0, 0), None
#     Edge 35, Type (0, 0), None
#     Edge 36, Type (0, 0), None
#     Edge 37, Type (0, 0), None
#     Edge 38, Type (0, 0), None
#     Edge 39, Type (0, 0), None
#     Edge 40, Type (0, 0), None
#     Edge 41, Type (0, 0), None
#     Edge 42, Type (0, 0), None
#     Edge 43, Type (0, 0), None
#     Edge 44, Type (0, 0), None
#     Edge 45, Type (0, 0), None
#     Edge 46, Type (0, 0), None
#     Edge 47, Type (0, 0), None
#     Edge 48, Type (0, 0), None
#     Edge 49, Type (0, 0), None
#     Edge 50, Type (0, 0), None
#     Edge 51, Type (0, 0), None
#     Edge 52, Type (0, 0), None
#     Edge 53, Type (0, 0), None
#     Edge 54, Type (0, 0), None
#     Edge 55, Type (0, 0), None
#     Edge 56, Type (0, 0), None
#     Edge 57, Type (0, 0), None
#     Edge 58, Type (0, 0), None
#     Edge 59, Type (0, 0), None
#     Edge 60, Type (0, 0), None
#     Edge 61, Type (0, 0), None
#     Edge 62, Type (0, 0), None
#     Edge 63, Type (0, 0), None
#     Edge 64, Type (0, 0), None
#     Edge 65, Type (0, 0), None
#     Edge 66, Type (0, 0), None
#     Edge 67, Type (0, 0), None
#     Edge 68, Type (0, 0), None
#     Edge 69, Type (0, 0), None
#     Edge 70, Type (0, 0), None
#     Edge 71, Type (0, 0), None
#     Edge 72, Type (0, 0), None
#     Edge 73, Type (0, 0), None
#     Edge 74, Type (0, 0), None
#     Edge 75, Type (0, 0), None
#     Edge 76, Type (0, 0), None
#     Edge 77, Type (0, 0), None
#     Edge 78, Type (0, 0), None
#     Edge 79, Type (0, 0), None
# Relax obj value: 0.175
# Max RMSD: 0.185
# Mean RMSD: 0.185
data_MOF--net-ecv--node1-TAGTUT_clean_sbu_1--edge1-none
_symmetry_space_group_name_H-M    P1
_symmetry_Int_Tables_number       1
_symmetry_cell_setting            triclinic
loop_
_symmetry_equiv_pos_as_xyz
'x, y, z'
_cell_length_a     10.549184
_cell_length_b     13.063114
_cell_length_c     62.704938
_cell_angle_alpha  94.607866
_cell_angle_beta   89.999984
_cell_angle_gamma 90.000012
loop_
_atom_site_label
_atom_site_type_symbol
_atom_site_fract_x
_atom_site_fract_y
_atom_site_fract_z
_atom_type_partial_charge
C0 C 0.01923 0.06652 0.50634 0.0
C1 C 0.98597 0.96815 0.44811 0.0
C2 C 0.44388 0.98451 0.43717 0.0
Mg3 Mg 0.94527 0.18429 0.47125 0.0
O4 O 0.11962 0.16201 0.46719 0.0
Mg5 Mg 0.23545 0.04511 0.47732 0.0
Mg6 Mg 0.20325 0.17873 0.44021 0.0
O7 O 0.29146 0.18512 0.41231 0.0
Mg8 Mg 0.46852 0.18108 0.41453 0.0
Mg9 Mg 0.20981 0.30949 0.40246 0.0
C10 C 0.98549 0.37947 0.44376 0.0
C11 C 0.02659 0.11438 0.39659 0.0
O12 O 0.13666 0.0658 0.50901 0.0
O13 O 0.96523 0.15297 0.50429 0.0
O14 O 0.09197 0.95338 0.45741 0.0
O15 O 0.91726 0.04923 0.45075 0.0
O16 O 0.92409 0.34018 0.45887 0.0
O17 O 0.07774 0.32727 0.43399 0.0
C18 C 0.29363 0.25246 0.49161 0.0
O19 O 0.28081 0.27918 0.47216 0.0
O20 O 0.35029 0.168 0.49406 0.0
O21 O 0.34873 0.26561 0.37184 0.0
O22 O 0.53584 0.25276 0.38764 0.0
O23 O 0.35987 0.40418 0.42014 0.0
C24 C 0.47005 0.25127 0.3707 0.0
O25 O 0.48196 0.29683 0.43785 0.0
O26 O 0.50952 0.02535 0.42295 0.0
C27 C 0.43923 0.38528 0.43471 0.0
O28 O 0.34747 0.03572 0.44589 0.0
O29 O 0.07233 0.08351 0.4141 0.0
O30 O 0.06109 0.19983 0.38968 0.0
C31 C 0.01928 0.22804 0.74412 0.0
C32 C 0.98597 0.32643 0.80235 0.0
C33 C 0.44388 0.31007 0.81329 0.0
Mg34 Mg 0.94527 0.11029 0.77921 0.0
O35 O 0.11962 0.13258 0.78327 0.0
Mg36 Mg 0.23547 0.24947 0.77314 0.0
Mg37 Mg 0.20325 0.11585 0.81025 0.0
O38 O 0.29147 0.10944 0.83815 0.0
Mg39 Mg 0.46854 0.11349 0.83593 0.0
Mg40 Mg 0.20982 0.98507 0.848 0.0
C41 C 0.98549 0.91511 0.8067 0.0
C42 C 0.02659 0.18018 0.85387 0.0
O43 O 0.13672 0.22875 0.74145 0.0
O44 O 0.96529 0.14159 0.74617 0.0
O45 O 0.09198 0.34119 0.79305 0.0
O46 O 0.91727 0.24535 0.79971 0.0
O47 O 0.92409 0.9544 0.79159 0.0
O48 O 0.07774 0.9673 0.81647 0.0
C49 C 0.2937 0.04211 0.75887 0.0
O50 O 0.28091 1.01538 0.77832 0.0
O51 O 0.35035 0.12657 0.75641 0.0
O52 O 0.34875 0.02895 0.87862 0.0
O53 O 0.53585 0.04179 0.86282 0.0
O54 O 0.35987 0.89039 0.83032 0.0
C55 C 0.47006 0.04329 0.87976 0.0
O56 O 0.48197 0.99775 0.81261 0.0
O57 O 0.50953 0.26923 0.82751 0.0
C58 C 0.43923 0.9093 0.81575 0.0
O59 O 0.34747 0.25887 0.80458 0.0
O60 O 0.07231 0.21105 0.83636 0.0
O61 O 0.0611 0.09473 0.86078 0.0
C62 C 0.52169 0.79327 0.62975 0.0
C63 C 0.55264 0.65928 0.56573 0.0
C64 C 0.00628 0.66513 0.55669 0.0
Mg65 Mg 0.52321 0.86348 0.58592 0.0
O66 O 0.70027 0.85941 0.58814 0.0
Mg67 Mg 0.78197 0.73508 0.59799 0.0
Mg68 Mg 0.78863 0.86593 0.56026 0.0
O69 O 0.87223 0.88269 0.53328 0.0
Mg70 Mg 0.04651 0.86026 0.52918 0.0
Mg71 Mg 0.75624 0.99948 0.52315 0.0
C72 C 0.5479 0.0601 0.56328 0.0
C73 C 0.69777 0.79208 0.50894 0.0
O74 O 0.643 0.7789 0.62861 0.0
O75 O 0.45589 0.79181 0.61281 0.0
O76 O 0.632 0.64036 0.5803 0.0
O77 O 0.50982 0.74772 0.5626 0.0
O78 O 0.48216 1.01919 0.57748 0.0
O79 O 0.64451 1.00903 0.5546 0.0
C80 C 0.96519 0.93024 0.60388 0.0
O81 O 0.91959 0.96112 0.58635 0.0
O82 O 0.9306 0.84481 0.61078 0.0
O83 O 0.8547 0.97862 0.49143 0.0
O84 O 0.02626 0.89143 0.49613 0.0
O85 O 0.89989 0.09121 0.54302 0.0
C86 C 0.97216 0.97783 0.49406 0.0
O87 O 0.07461 0.99535 0.54967 0.0
O88 O 0.06764 0.70438 0.54157 0.0
C89 C 0.00592 0.07643 0.55232 0.0
O90 O 0.91413 0.71738 0.56647 0.0
O91 O 0.71044 0.76534 0.5284 0.0
O92 O 0.64114 0.87654 0.50649 0.0
C93 C 0.52171 1.00131 0.12072 0.0
C94 C 0.55264 0.1353 0.18473 0.0
C95 C 0.00628 0.12945 0.19378 0.0
Mg96 Mg 0.52322 0.9311 0.16454 0.0
O97 O 0.70028 0.93516 0.16232 0.0
Mg98 Mg 0.78198 0.0595 0.15247 0.0
Mg99 Mg 0.78862 0.92865 0.1902 0.0
O100 O 0.87223 0.9119 0.21718 0.0
Mg101 Mg 0.04653 0.9343 0.22128 0.0
Mg102 Mg 0.75626 0.79509 0.22731 0.0
C103 C 0.54789 0.73448 0.18718 0.0
C104 C 0.69783 1.00248 0.24153 0.0
O105 O 0.64301 1.01568 0.12185 0.0
O106 O 0.45591 1.00277 0.13765 0.0
O107 O 0.632 0.15422 0.17017 0.0
O108 O 0.50983 0.04686 0.18786 0.0
O109 O 0.48217 0.77539 0.17298 0.0
O110 O 0.64449 0.78556 0.19586 0.0
C111 C 0.96518 0.86434 0.14658 0.0
O112 O 0.91957 0.83346 0.16411 0.0
O113 O 0.93061 0.94978 0.13968 0.0
O114 O 0.8548 0.81593 0.25903 0.0
O115 O 0.02625 0.90308 0.25432 0.0
O116 O 0.89988 0.70338 0.20743 0.0
C117 C 0.97224 0.81663 0.25637 0.0
O118 O 0.07461 0.79923 0.20079 0.0
O119 O 0.06765 0.09019 0.20889 0.0
C120 C 0.00591 0.71815 0.19813 0.0
O121 O 0.91413 0.0772 0.18399 0.0
O122 O 0.71051 0.02922 0.22208 0.0
O123 O 0.6412 0.91802 0.24399 0.0
C124 C 0.01923 0.56652 0.00634 0.0
C125 C 0.98596 0.46815 0.94811 0.0
C126 C 0.44388 0.48451 0.93717 0.0
Mg127 Mg 0.94527 0.68429 0.97125 0.0
O128 O 0.11962 0.66201 0.96719 0.0
Mg129 Mg 0.23545 0.54511 0.97732 0.0
Mg130 Mg 0.20325 0.67873 0.94021 0.0
O131 O 0.29145 0.68512 0.91231 0.0
Mg132 Mg 0.46852 0.68108 0.91453 0.0
Mg133 Mg 0.2098 0.8095 0.90246 0.0
C134 C 0.98549 0.87947 0.94376 0.0
C135 C 0.02658 0.6144 0.89659 0.0
O136 O 0.13667 0.5658 0.00901 0.0
O137 O 0.96524 0.65297 0.00429 0.0
O138 O 0.09197 0.45339 0.95741 0.0
O139 O 0.91726 0.54923 0.95075 0.0
O140 O 0.92409 0.84018 0.95887 0.0
O141 O 0.07774 0.82728 0.93399 0.0
C142 C 0.29364 0.75245 0.99161 0.0
O143 O 0.28083 0.77918 0.97216 0.0
O144 O 0.3503 0.66799 0.99406 0.0
O145 O 0.34872 0.76561 0.87184 0.0
O146 O 0.53583 0.75277 0.88764 0.0
O147 O 0.35987 0.90419 0.92014 0.0
C148 C 0.47003 0.75128 0.8707 0.0
O149 O 0.48196 0.79683 0.93784 0.0
O150 O 0.50952 0.52535 0.92295 0.0
C151 C 0.43924 0.88528 0.93471 0.0
O152 O 0.34747 0.53572 0.94589 0.0
O153 O 0.07232 0.58352 0.91411 0.0
O154 O 0.06108 0.69984 0.88969 0.0
C155 C 0.01931 0.72794 0.2441 0.0
C156 C 0.98595 0.82643 0.30234 0.0
C157 C 0.44387 0.81008 0.31329 0.0
Mg158 Mg 0.94528 0.61028 0.27921 0.0
O159 O 0.11962 0.63257 0.28327 0.0
Mg160 Mg 0.23547 0.74946 0.27314 0.0
Mg161 Mg 0.20324 0.61585 0.31025 0.0
O162 O 0.29146 0.60945 0.33816 0.0
Mg163 Mg 0.46853 0.6135 0.33594 0.0
Mg164 Mg 0.20981 0.48508 0.348 0.0
C165 C 0.98549 0.41511 0.3067 0.0
C166 C 0.02657 0.68019 0.35387 0.0
O167 O 0.13676 0.72874 0.24145 0.0
O168 O 0.96523 0.64154 0.24617 0.0
O169 O 0.09196 0.8412 0.29304 0.0
O170 O 0.91726 0.74535 0.2997 0.0
O171 O 0.92409 0.45439 0.29159 0.0
O172 O 0.07774 0.4673 0.31647 0.0
C173 C 0.2937 0.54211 0.25887 0.0
O174 O 0.2809 0.51538 0.27832 0.0
O175 O 0.35036 0.62656 0.25641 0.0
O176 O 0.34873 0.52896 0.37862 0.0
O177 O 0.53584 0.54181 0.36283 0.0
O178 O 0.35987 0.39039 0.33032 0.0
C179 C 0.47004 0.5433 0.37976 0.0
O180 O 0.48198 0.49774 0.31262 0.0
O181 O 0.50952 0.76923 0.32751 0.0
C182 C 0.43924 0.40929 0.31575 0.0
O183 O 0.34745 0.75887 0.30458 0.0
O184 O 0.0723 0.71106 0.33635 0.0
O185 O 0.06109 0.59474 0.36078 0.0
C186 C 0.52171 0.29326 0.12975 0.0
C187 C 0.55263 0.15928 0.06573 0.0
C188 C 0.00628 0.16512 0.05669 0.0
Mg189 Mg 0.52322 0.36347 0.08592 0.0
O190 O 0.70027 0.35941 0.08814 0.0
Mg191 Mg 0.78198 0.23507 0.09799 0.0
Mg192 Mg 0.78863 0.36593 0.06026 0.0
O193 O 0.87223 0.38269 0.03328 0.0
Mg194 Mg 0.04651 0.36026 0.02918 0.0
Mg195 Mg 0.75623 0.49948 0.02315 0.0
C196 C 0.5479 0.5601 0.06329 0.0
C197 C 0.69776 0.29209 0.00895 0.0
O198 O 0.64302 0.27889 0.12861 0.0
O199 O 0.45591 0.29181 0.11281 0.0
O200 O 0.632 0.14036 0.0803 0.0
O201 O 0.50981 0.24772 0.06261 0.0
O202 O 0.48217 0.51919 0.07748 0.0
O203 O 0.64451 0.50903 0.05461 0.0
C204 C 0.9652 0.43023 0.10388 0.0
O205 O 0.9196 0.46112 0.08635 0.0
O206 O 0.93061 0.3448 0.11078 0.0
O207 O 0.8547 0.47862 0.99143 0.0
O208 O 0.02625 0.39143 0.99613 0.0
O209 O 0.89989 0.59121 0.04302 0.0
C210 C 0.97216 0.47783 0.99406 0.0
O211 O 0.07462 0.49534 0.04967 0.0
O212 O 0.06764 0.20438 0.04157 0.0
C213 C 0.00593 0.57643 0.05232 0.0
O214 O 0.91413 0.21738 0.06647 0.0
O215 O 0.71042 0.26534 0.0284 0.0
O216 O 0.64113 0.37655 0.00649 0.0
C217 C 0.52172 0.5013 0.62071 0.0
C218 C 0.55263 0.6353 0.68473 0.0
C219 C 0.00628 0.62945 0.69377 0.0
Mg220 Mg 0.52323 0.43109 0.66454 0.0
O221 O 0.70029 0.43515 0.66232 0.0
Mg222 Mg 0.78199 0.55949 0.65247 0.0
Mg223 Mg 0.78863 0.42865 0.6902 0.0
O224 O 0.87223 0.4119 0.71718 0.0
Mg225 Mg 0.04652 0.43431 0.72128 0.0
Mg226 Mg 0.75626 0.29509 0.72732 0.0
C227 C 0.5479 0.23448 0.68718 0.0
C228 C 0.69783 0.50248 0.74153 0.0
O229 O 0.64303 0.51566 0.62185 0.0
O230 O 0.45592 0.50275 0.63765 0.0
O231 O 0.632 0.65421 0.67016 0.0
O232 O 0.50982 0.54686 0.68785 0.0
O233 O 0.48217 0.27538 0.67298 0.0
O234 O 0.64451 0.28555 0.69586 0.0
C235 C 0.9652 0.36433 0.64659 0.0
O236 O 0.91959 0.33345 0.66411 0.0
O237 O 0.93062 0.44977 0.63968 0.0
O238 O 0.85476 0.31594 0.75903 0.0
O239 O 0.0263 0.40313 0.75433 0.0
O240 O 0.8999 0.20337 0.70744 0.0
C241 C 0.97222 0.31673 0.75639 0.0
O242 O 0.07462 0.29923 0.70079 0.0
O243 O 0.06764 0.5902 0.70889 0.0
C244 C 0.00593 0.21814 0.69814 0.0
O245 O 0.91413 0.5772 0.68399 0.0
O246 O 0.71051 0.52922 0.72208 0.0
O247 O 0.64119 0.41802 0.74399 0.0
C248 C 0.51921 0.06652 0.00634 0.0
C249 C 0.48602 0.96819 0.9481 0.0
C250 C 0.94389 0.98451 0.93718 0.0
Mg251 Mg 0.44531 0.18431 0.97125 0.0
O252 O 0.61967 0.16207 0.9672 0.0
Mg253 Mg 0.73545 0.04513 0.97733 0.0
Mg254 Mg 0.70328 0.17874 0.94021 0.0
O255 O 0.79145 0.18508 0.9123 0.0
Mg256 Mg 0.96852 0.18105 0.91453 0.0
Mg257 Mg 0.70983 0.30949 0.90246 0.0
C258 C 0.4855 0.37947 0.94376 0.0
C259 C 0.52657 0.11445 0.8966 0.0
O260 O 0.63664 0.06582 0.00901 0.0
O261 O 0.46521 0.15297 0.00429 0.0
O262 O 0.59201 0.95342 0.95741 0.0
O263 O 0.4173 0.04926 0.95075 0.0
O264 O 0.42411 0.34019 0.95887 0.0
O265 O 0.57776 0.32728 0.93399 0.0
C266 C 0.79362 0.25245 0.99163 0.0
O267 O 0.78067 0.27918 0.97218 0.0
O268 O 0.85026 0.168 0.99409 0.0
O269 O 0.84877 0.26561 0.87184 0.0
O270 O 0.03592 0.25271 0.88764 0.0
O271 O 0.85989 0.40416 0.92013 0.0
C272 C 0.9701 0.25135 0.87071 0.0
O273 O 0.9819 0.2968 0.93785 0.0
O274 O 0.00952 0.02533 0.92296 0.0
C275 C 0.93919 0.38525 0.93471 0.0
O276 O 0.84751 0.03574 0.9459 0.0
O277 O 0.57234 0.08353 0.91411 0.0
O278 O 0.56109 0.19987 0.88968 0.0
C279 C 0.51927 0.22804 0.24412 0.0
C280 C 0.48602 0.32639 0.30236 0.0
C281 C 0.94389 0.31007 0.31329 0.0
Mg282 Mg 0.44531 0.11027 0.27921 0.0
O283 O 0.61967 0.13252 0.28326 0.0
Mg284 Mg 0.73548 0.24944 0.27314 0.0
Mg285 Mg 0.70328 0.11583 0.31025 0.0
O286 O 0.79147 0.10948 0.33816 0.0
Mg287 Mg 0.96854 0.11351 0.33593 0.0
Mg288 Mg 0.70984 0.98508 0.348 0.0
C289 C 0.4855 0.91511 0.30671 0.0
C290 C 0.52656 0.18011 0.35386 0.0
O291 O 0.6367 0.22874 0.24145 0.0
O292 O 0.46526 0.14159 0.24617 0.0
O293 O 0.59201 0.34116 0.29305 0.0
O294 O 0.4173 0.24532 0.29971 0.0
O295 O 0.42411 0.95439 0.29159 0.0
O296 O 0.57776 0.96729 0.31647 0.0
C297 C 0.79369 0.04211 0.25885 0.0
O298 O 0.78077 1.01538 0.2783 0.0
O299 O 0.85032 0.12657 0.25639 0.0
O300 O 0.84878 0.02895 0.37862 0.0
O301 O 0.03594 0.04184 0.36282 0.0
O302 O 0.8599 0.89041 0.33032 0.0
C303 C 0.97011 0.0432 0.37975 0.0
O304 O 0.98191 0.99778 0.31261 0.0
O305 O 0.00953 0.26924 0.32751 0.0
C306 C 0.93919 0.90933 0.31574 0.0
O307 O 0.8475 0.25884 0.30457 0.0
O308 O 0.57233 0.21103 0.33635 0.0
O309 O 0.5611 0.0947 0.36078 0.0
C310 C 0.02164 0.79318 0.12974 0.0
C311 C 0.05268 0.65931 0.06572 0.0
C312 C 0.50627 0.66512 0.05669 0.0
Mg313 Mg 0.02321 0.8635 0.08592 0.0
O314 O 0.20028 0.85945 0.08815 0.0
Mg315 Mg 0.28195 0.73509 0.09799 0.0
Mg316 Mg 0.28859 0.86591 0.06026 0.0
O317 O 0.37218 0.88263 0.03327 0.0
Mg318 Mg 0.54648 0.86024 0.02918 0.0
Mg319 Mg 0.25623 0.99946 0.02314 0.0
C320 C 0.04789 0.06009 0.06328 0.0
C321 C 0.19779 0.79208 0.00893 0.0
O322 O 0.14297 0.7789 0.12861 0.0
O323 O 0.95581 0.79186 0.11281 0.0
O324 O 0.13198 0.64038 0.0803 0.0
O325 O 0.00987 0.74775 0.0626 0.0
O326 O 0.98216 1.01921 0.07748 0.0
O327 O 0.14448 1.009 0.05459 0.0
C328 C 0.46521 0.93018 0.10387 0.0
O329 O 0.41958 0.9611 0.08635 0.0
O330 O 0.4306 0.84477 0.11078 0.0
O331 O 0.35473 0.9786 0.99142 0.0
O332 O 0.52629 0.89143 0.99613 0.0
O333 O 0.39986 0.09118 0.04302 0.0
C334 C 0.47218 0.97782 0.99406 0.0
O335 O 0.57458 0.99532 0.04967 0.0
O336 O 0.56763 0.70438 0.04157 0.0
C337 C 0.50588 0.0764 0.05232 0.0
O338 O 0.41411 0.71737 0.06648 0.0
O339 O 0.21057 0.76534 0.02838 0.0
O340 O 0.14117 0.87654 0.00646 0.0
C341 C 0.02165 1.0014 0.62072 0.0
C342 C 0.05268 0.13526 0.68474 0.0
C343 C 0.50627 0.12945 0.69377 0.0
Mg344 Mg 0.02322 0.93108 0.66454 0.0
O345 O 0.20028 0.93512 0.66231 0.0
Mg346 Mg 0.28196 0.05949 0.65247 0.0
Mg347 Mg 0.28858 0.92867 0.6902 0.0
O348 O 0.37218 0.91195 0.71719 0.0
Mg349 Mg 0.54649 0.93432 0.72128 0.0
Mg350 Mg 0.25625 0.79511 0.72732 0.0
C351 C 0.04788 0.73449 0.68719 0.0
C352 C 0.19784 1.00247 0.74155 0.0
O353 O 0.14298 1.01568 0.62185 0.0
O354 O 0.95582 1.00272 0.63765 0.0
O355 O 0.13198 0.15419 0.67016 0.0
O356 O 0.00989 0.04682 0.68786 0.0
O357 O 0.98217 0.77537 0.67298 0.0
O358 O 0.14446 0.78559 0.69587 0.0
C359 C 0.46521 0.86441 0.64659 0.0
O360 O 0.41955 0.83348 0.66411 0.0
O361 O 0.43061 0.94981 0.63968 0.0
O362 O 0.35482 0.81594 0.75903 0.0
O363 O 0.52628 0.90308 0.75432 0.0
O364 O 0.39985 0.70341 0.70743 0.0
C365 C 0.47226 0.81663 0.75638 0.0
O366 O 0.57457 0.79926 0.70078 0.0
O367 O 0.56763 0.0902 0.70889 0.0
C368 C 0.50586 0.71819 0.69813 0.0
O369 O 0.41411 0.0772 0.68398 0.0
O370 O 0.21064 0.02922 0.7221 0.0
O371 O 0.14123 0.91801 0.74401 0.0
C372 C 0.51922 0.56652 0.50634 0.0
C373 C 0.48601 0.46819 0.4481 0.0
C374 C 0.94388 0.48451 0.43718 0.0
Mg375 Mg 0.44531 0.68431 0.47125 0.0
O376 O 0.61967 0.66207 0.4672 0.0
Mg377 Mg 0.73545 0.54513 0.47733 0.0
Mg378 Mg 0.70328 0.67875 0.44021 0.0
O379 O 0.79144 0.68508 0.4123 0.0
Mg380 Mg 0.96851 0.68105 0.41453 0.0
Mg381 Mg 0.70983 0.80949 0.40246 0.0
C382 C 0.4855 0.87947 0.44376 0.0
C383 C 0.52655 0.61446 0.3966 0.0
O384 O 0.63664 0.56582 0.50901 0.0
O385 O 0.46521 0.65297 0.50429 0.0
O386 O 0.592 0.45342 0.45741 0.0
O387 O 0.4173 0.54926 0.45075 0.0
O388 O 0.42411 0.84019 0.45887 0.0
O389 O 0.57776 0.82728 0.43399 0.0
C390 C 0.79363 0.75245 0.49163 0.0
O391 O 0.78069 0.77918 0.47218 0.0
O392 O 0.85027 0.66799 0.49408 0.0
O393 O 0.84875 0.76561 0.37183 0.0
O394 O 0.03591 0.75272 0.38764 0.0
O395 O 0.85989 0.90416 0.42013 0.0
C396 C 0.97008 0.75136 0.37071 0.0
O397 O 0.98191 0.7968 0.43785 0.0
O398 O 0.00951 0.52533 0.42295 0.0
C399 C 0.9392 0.88525 0.43471 0.0
O400 O 0.8475 0.53574 0.4459 0.0
O401 O 0.57234 0.58354 0.41411 0.0
O402 O 0.56108 0.69988 0.38968 0.0
C403 C 0.5193 0.72794 0.7441 0.0
C404 C 0.486 0.8264 0.80235 0.0
C405 C 0.94388 0.81007 0.81329 0.0
Mg406 Mg 0.44532 0.61026 0.77921 0.0
O407 O 0.61967 0.63252 0.78326 0.0
Mg408 Mg 0.73548 0.74944 0.77313 0.0
Mg409 Mg 0.70328 0.61584 0.81025 0.0
O410 O 0.79145 0.60949 0.83816 0.0
Mg411 Mg 0.96852 0.61352 0.83593 0.0
Mg412 Mg 0.70983 0.48508 0.848 0.0
C413 C 0.4855 0.4151 0.80671 0.0
C414 C 0.52655 0.68012 0.85386 0.0
O415 O 0.63674 0.72873 0.74144 0.0
O416 O 0.46521 0.64154 0.74617 0.0
O417 O 0.59199 0.84117 0.79304 0.0
O418 O 0.41729 0.74532 0.7997 0.0
O419 O 0.42411 0.45439 0.79159 0.0
O420 O 0.57777 0.46729 0.81648 0.0
C421 C 0.79369 0.54211 0.75885 0.0
O422 O 0.78076 0.51538 0.7783 0.0
O423 O 0.85033 0.62657 0.75639 0.0
O424 O 0.84876 0.52896 0.87863 0.0
O425 O 0.03592 0.54186 0.86282 0.0
O426 O 0.8599 0.39041 0.83033 0.0
C427 C 0.9701 0.54322 0.87975 0.0
O428 O 0.98192 0.49778 0.81261 0.0
O429 O 0.00952 0.76924 0.82751 0.0
C430 C 0.9392 0.40933 0.81575 0.0
O431 O 0.84749 0.75885 0.80457 0.0
O432 O 0.57231 0.71104 0.83635 0.0
O433 O 0.56109 0.59471 0.86078 0.0
C434 C 0.02166 0.29317 0.62974 0.0
C435 C 0.05267 0.15931 0.56572 0.0
C436 C 0.50627 0.16512 0.55669 0.0
Mg437 Mg 0.02322 0.3635 0.58592 0.0
O438 O 0.20028 0.35945 0.58815 0.0
Mg439 Mg 0.28195 0.23508 0.59799 0.0
Mg440 Mg 0.28859 0.36591 0.56026 0.0
O441 O 0.37218 0.38263 0.53327 0.0
Mg442 Mg 0.54647 0.36024 0.52918 0.0
Mg443 Mg 0.25623 0.49946 0.52314 0.0
C444 C 0.04789 0.5601 0.56328 0.0
C445 C 0.19778 0.29209 0.50893 0.0
O446 O 0.14298 0.27889 0.62861 0.0
O447 O 0.95582 0.29185 0.61281 0.0
O448 O 0.13197 0.14038 0.5803 0.0
O449 O 0.00987 0.24775 0.5626 0.0
O450 O 0.98217 0.51921 0.57748 0.0
O451 O 0.14448 0.509 0.5546 0.0
C452 C 0.46523 0.43016 0.60387 0.0
O453 O 0.41958 0.4611 0.58635 0.0
O454 O 0.43061 0.34476 0.61078 0.0
O455 O 0.35473 0.47861 0.49142 0.0
O456 O 0.52628 0.39143 0.49613 0.0
O457 O 0.39986 0.59118 0.54302 0.0
C458 C 0.47218 0.47783 0.49406 0.0
O459 O 0.57458 0.49532 0.54967 0.0
O460 O 0.56763 0.20438 0.54157 0.0
C461 C 0.50588 0.57639 0.55232 0.0
O462 O 0.41411 0.21737 0.56648 0.0
O463 O 0.21056 0.26534 0.52838 0.0
O464 O 0.14116 0.37655 0.50646 0.0
C465 C 0.02167 0.50138 0.12072 0.0
C466 C 0.05267 0.63527 0.18473 0.0
C467 C 0.50627 0.62946 0.19377 0.0
Mg468 Mg 0.02323 0.43107 0.16454 0.0
O469 O 0.2003 0.43511 0.16231 0.0
Mg470 Mg 0.28197 0.55948 0.15247 0.0
Mg471 Mg 0.28859 0.42866 0.1902 0.0
O472 O 0.37218 0.41195 0.21719 0.0
Mg473 Mg 0.54648 0.43433 0.22128 0.0
Mg474 Mg 0.25625 0.29511 0.22732 0.0
C475 C 0.04789 0.23448 0.18719 0.0
C476 C 0.19784 0.50248 0.24155 0.0
O477 O 0.143 0.51566 0.12185 0.0
O478 O 0.95584 0.5027 0.13765 0.0
O479 O 0.13198 0.65419 0.17015 0.0
O480 O 0.00988 0.54683 0.18786 0.0
O481 O 0.98218 0.27537 0.17298 0.0
O482 O 0.14448 0.28558 0.19587 0.0
C483 C 0.46523 0.3644 0.14659 0.0
O484 O 0.41957 0.33347 0.16411 0.0
O485 O 0.43062 0.4498 0.13968 0.0
O486 O 0.35478 0.31595 0.25904 0.0
O487 O 0.52633 0.40312 0.25433 0.0
O488 O 0.39987 0.2034 0.20744 0.0
C489 C 0.47224 0.31673 0.2564 0.0
O490 O 0.57458 0.29926 0.20079 0.0
O491 O 0.56763 0.5902 0.20889 0.0
C492 C 0.50588 0.21818 0.19814 0.0
O493 O 0.41411 0.5772 0.18398 0.0
O494 O 0.21065 0.52922 0.2221 0.0
O495 O 0.14122 0.41802 0.24401 0.0
loop_
_geom_bond_atom_site_label_1
_geom_bond_atom_site_label_2
_geom_bond_distance
_geom_bond_site_symmetry_2
_ccdc_geom_bond_type
C0 O12 1.241 1_655 S
C0 O13 1.280 . S
C1 O14 1.277 1_655 S
C1 O15 1.245 . S
C2 O26 1.247 1_565 S
C2 O28 1.288 1_565 S
Mg3 O4 1.926 1_655 S
Mg3 O13 1.984 . S
Mg3 O15 1.988 1_545 S
Mg3 O16 2.061 . S
O4 Mg3 1.926 1_455 S
O4 Mg5 1.986 1_545 S
O4 Mg6 1.917 . S
Mg5 O4 1.986 1_565 S
Mg5 O12 2.042 1_565 S
Mg5 O14 2.041 . S
Mg5 O20 2.038 1_565 S
Mg5 O28 2.237 1_565 S
Mg6 O4 1.917 . S
Mg6 O7 1.917 . S
Mg6 O17 2.106 . S
Mg6 O19 2.079 . S
Mg6 O28 2.110 . S
Mg6 O29 2.079 . S
O7 Mg6 1.917 . S
O7 Mg8 1.926 . S
O7 Mg9 1.986 . S
Mg8 O7 1.926 . S
Mg8 O22 1.984 . S
Mg8 O25 1.988 . S
Mg8 O26 2.061 . S
Mg9 O7 1.986 . S
Mg9 O17 2.238 . S
Mg9 O21 2.042 . S
Mg9 O23 2.041 . S
Mg9 O30 2.038 . S
C10 O16 1.247 1_455 S
C10 O17 1.289 . S
C11 O29 1.245 . S
C11 O30 1.274 . S
O12 C0 1.241 1_455 S
O12 Mg5 2.042 1_545 S
O13 C0 1.280 . S
O13 Mg3 1.984 . S
O14 C1 1.277 1_455 S
O14 Mg5 2.041 . S
O15 C1 1.245 . S
O15 Mg3 1.988 1_565 S
O16 Mg3 2.061 . S
O16 C10 1.247 1_655 S
O17 Mg6 2.106 . S
O17 Mg9 2.238 . S
O17 C10 1.289 . S
C18 O19 1.245 . S
C18 O20 1.274 . S
O19 Mg6 2.079 . S
O19 C18 1.245 . S
O20 Mg5 2.038 1_545 S
O20 C18 1.274 . S
O21 Mg9 2.042 . S
O21 C24 1.241 . S
O22 Mg8 1.984 . S
O22 C24 1.280 . S
O23 Mg9 2.041 . S
O23 C27 1.277 . S
C24 O21 1.241 . S
C24 O22 1.280 . S
O25 Mg8 1.988 . S
O25 C27 1.245 . S
O26 C2 1.247 1_545 S
O26 Mg8 2.061 . S
C27 O23 1.277 . S
C27 O25 1.245 . S
O28 C2 1.288 1_545 S
O28 Mg5 2.237 1_545 S
O28 Mg6 2.110 . S
O29 Mg6 2.079 . S
O29 C11 1.245 . S
O30 Mg9 2.038 . S
O30 C11 1.274 . S
C31 O43 1.241 1_655 S
C31 O44 1.280 . S
C32 O45 1.277 1_655 S
C32 O46 1.245 . S
C33 O57 1.247 . S
C33 O59 1.289 . S
Mg34 O35 1.926 1_655 S
Mg34 O44 1.984 . S
Mg34 O46 1.988 . S
Mg34 O47 2.061 . S
O35 Mg34 1.926 1_455 S
O35 Mg36 1.986 . S
O35 Mg37 1.917 . S
Mg36 O35 1.986 . S
Mg36 O43 2.042 . S
Mg36 O45 2.041 . S
Mg36 O51 2.038 . S
Mg36 O59 2.238 . S
Mg37 O35 1.917 . S
Mg37 O38 1.917 . S
Mg37 O48 2.106 1_545 S
Mg37 O50 2.079 . S
Mg37 O59 2.106 . S
Mg37 O60 2.079 . S
O38 Mg37 1.917 . S
O38 Mg39 1.926 . S
O38 Mg40 1.986 1_545 S
Mg39 O38 1.926 . S
Mg39 O53 1.984 . S
Mg39 O56 1.988 1_545 S
Mg39 O57 2.061 . S
Mg40 O38 1.986 1_565 S
Mg40 O48 2.238 . S
Mg40 O52 2.042 . S
Mg40 O54 2.041 . S
Mg40 O61 2.038 1_565 S
C41 O47 1.247 1_465 S
C41 O48 1.289 . S
C42 O60 1.245 . S
C42 O61 1.274 . S
O43 C31 1.241 1_455 S
O43 Mg36 2.042 . S
O44 C31 1.280 . S
O44 Mg34 1.984 . S
O45 C32 1.277 1_455 S
O45 Mg36 2.041 . S
O46 C32 1.245 . S
O46 Mg34 1.988 . S
O47 Mg34 2.061 . S
O47 C41 1.247 1_645 S
O48 Mg37 2.106 1_565 S
O48 Mg40 2.238 . S
O48 C41 1.289 . S
C49 O50 1.245 . S
C49 O51 1.274 . S
O50 Mg37 2.079 . S
O50 C49 1.245 . S
O51 Mg36 2.038 . S
O51 C49 1.274 . S
O52 Mg40 2.042 . S
O52 C55 1.241 1_565 S
O53 Mg39 1.984 . S
O53 C55 1.280 . S
O54 Mg40 2.041 . S
O54 C58 1.277 . S
C55 O52 1.241 1_545 S
C55 O53 1.280 . S
O56 Mg39 1.988 1_565 S
O56 C58 1.245 . S
O57 C33 1.247 . S
O57 Mg39 2.061 . S
C58 O54 1.277 . S
C58 O56 1.245 . S
O59 C33 1.289 . S
O59 Mg36 2.238 . S
O59 Mg37 2.106 . S
O60 Mg37 2.079 . S
O60 C42 1.245 . S
O61 Mg40 2.038 1_545 S
O61 C42 1.274 . S
C62 O74 1.241 . S
C62 O75 1.280 . S
C63 O76 1.277 . S
C63 O77 1.245 . S
C64 O88 1.247 1_655 S
C64 O90 1.289 . S
Mg65 O66 1.926 . S
Mg65 O75 1.984 . S
Mg65 O77 1.988 . S
Mg65 O78 2.061 . S
O66 Mg65 1.926 . S
O66 Mg67 1.986 . S
O66 Mg68 1.917 . S
Mg67 O66 1.986 . S
Mg67 O74 2.042 . S
Mg67 O76 2.041 . S
Mg67 O82 2.038 . S
Mg67 O90 2.238 . S
Mg68 O66 1.917 . S
Mg68 O69 1.917 . S
Mg68 O79 2.110 . S
Mg68 O81 2.079 . S
Mg68 O90 2.106 . S
Mg68 O91 2.079 . S
O69 Mg68 1.917 . S
O69 Mg70 1.926 1_655 S
O69 Mg71 1.986 1_565 S
Mg70 O69 1.926 1_455 S
Mg70 O84 1.984 . S
Mg70 O87 1.988 1_565 S
Mg70 O88 2.061 . S
Mg71 O69 1.986 1_545 S
Mg71 O79 2.237 1_545 S
Mg71 O83 2.042 1_545 S
Mg71 O85 2.041 . S
Mg71 O92 2.038 1_545 S
C72 O78 1.247 1_545 S
C72 O79 1.288 1_545 S
C73 O91 1.245 . S
C73 O92 1.274 . S
O74 C62 1.241 . S
O74 Mg67 2.042 . S
O75 C62 1.280 . S
O75 Mg65 1.984 . S
O76 C63 1.277 . S
O76 Mg67 2.041 . S
O77 C63 1.245 . S
O77 Mg65 1.988 . S
O78 Mg65 2.061 . S
O78 C72 1.247 1_565 S
O79 Mg68 2.110 . S
O79 Mg71 2.237 1_565 S
O79 C72 1.288 1_565 S
C80 O81 1.245 . S
C80 O82 1.274 . S
O81 Mg68 2.079 . S
O81 C80 1.245 . S
O82 Mg67 2.038 . S
O82 C80 1.274 . S
O83 Mg71 2.042 1_565 S
O83 C86 1.241 1_655 S
O84 Mg70 1.984 . S
O84 C86 1.280 . S
O85 Mg71 2.041 . S
O85 C89 1.277 1_655 S
C86 O83 1.241 1_455 S
C86 O84 1.280 . S
O87 Mg70 1.988 1_545 S
O87 C89 1.245 . S
O88 C64 1.247 1_455 S
O88 Mg70 2.061 . S
C89 O85 1.277 1_455 S
C89 O87 1.245 . S
O90 C64 1.289 . S
O90 Mg67 2.238 . S
O90 Mg68 2.106 . S
O91 Mg68 2.079 . S
O91 C73 1.245 . S
O92 Mg71 2.038 1_565 S
O92 C73 1.274 . S
C93 O105 1.241 1_565 S
C93 O106 1.280 . S
C94 O107 1.277 . S
C94 O108 1.245 . S
C95 O119 1.247 1_645 S
C95 O121 1.289 . S
Mg96 O97 1.926 . S
Mg96 O106 1.984 . S
Mg96 O108 1.988 1_565 S
Mg96 O109 2.061 . S
O97 Mg96 1.926 . S
O97 Mg98 1.986 1_565 S
O97 Mg99 1.917 . S
Mg98 O97 1.986 1_545 S
Mg98 O105 2.042 . S
Mg98 O107 2.041 . S
Mg98 O113 2.038 1_545 S
Mg98 O121 2.238 . S
Mg99 O97 1.917 . S
Mg99 O100 1.917 . S
Mg99 O110 2.106 . S
Mg99 O112 2.079 . S
Mg99 O121 2.106 1_565 S
Mg99 O122 2.079 . S
O100 Mg99 1.917 . S
O100 Mg101 1.926 1_655 S
O100 Mg102 1.986 . S
Mg101 O100 1.926 1_455 S
Mg101 O115 1.984 . S
Mg101 O118 1.988 . S
Mg101 O119 2.061 . S
Mg102 O100 1.986 . S
Mg102 O110 2.238 . S
Mg102 O114 2.042 . S
Mg102 O116 2.041 . S
Mg102 O123 2.038 . S
C103 O109 1.247 . S
C103 O110 1.289 . S
C104 O122 1.245 . S
C104 O123 1.274 . S
O105 C93 1.241 1_545 S
O105 Mg98 2.042 . S
O106 C93 1.280 . S
O106 Mg96 1.984 . S
O107 C94 1.277 . S
O107 Mg98 2.041 . S
O108 C94 1.245 . S
O108 Mg96 1.988 1_545 S
O109 Mg96 2.061 . S
O109 C103 1.247 . S
O110 Mg99 2.106 . S
O110 Mg102 2.238 . S
O110 C103 1.289 . S
C111 O112 1.245 . S
C111 O113 1.274 . S
O112 Mg99 2.079 . S
O112 C111 1.245 . S
O113 Mg98 2.038 1_565 S
O113 C111 1.274 . S
O114 Mg102 2.042 . S
O114 C117 1.241 1_655 S
O115 Mg101 1.984 . S
O115 C117 1.280 . S
O116 Mg102 2.041 . S
O116 C120 1.277 1_655 S
C117 O114 1.241 1_455 S
C117 O115 1.280 . S
O118 Mg101 1.988 . S
O118 C120 1.245 . S
O119 C95 1.247 1_465 S
O119 Mg101 2.061 . S
C120 O116 1.277 1_455 S
C120 O118 1.245 . S
O121 C95 1.289 . S
O121 Mg98 2.238 . S
O121 Mg99 2.106 1_545 S
O122 Mg99 2.079 . S
O122 C104 1.245 . S
O123 Mg102 2.038 . S
O123 C104 1.274 . S
C124 O136 1.241 1_655 S
C124 O137 1.280 . S
C125 O138 1.277 1_655 S
C125 O139 1.245 . S
C126 O150 1.247 . S
C126 O152 1.289 . S
Mg127 O128 1.926 1_655 S
Mg127 O137 1.984 . S
Mg127 O139 1.988 . S
Mg127 O140 2.061 . S
O128 Mg127 1.926 1_455 S
O128 Mg129 1.986 . S
O128 Mg130 1.917 . S
Mg129 O128 1.986 . S
Mg129 O136 2.042 . S
Mg129 O138 2.041 . S
Mg129 O144 2.038 . S
Mg129 O152 2.238 . S
Mg130 O128 1.917 . S
Mg130 O131 1.917 . S
Mg130 O141 2.106 . S
Mg130 O143 2.079 . S
Mg130 O152 2.106 . S
Mg130 O153 2.079 . S
O131 Mg130 1.917 . S
O131 Mg132 1.926 . S
O131 Mg133 1.986 . S
Mg132 O131 1.926 . S
Mg132 O146 1.984 . S
Mg132 O149 1.988 . S
Mg132 O150 2.061 . S
Mg133 O131 1.986 . S
Mg133 O141 2.238 . S
Mg133 O145 2.042 . S
Mg133 O147 2.041 . S
Mg133 O154 2.038 . S
C134 O140 1.247 1_455 S
C134 O141 1.289 . S
C135 O153 1.245 . S
C135 O154 1.274 . S
O136 C124 1.241 1_455 S
O136 Mg129 2.042 . S
O137 C124 1.280 . S
O137 Mg127 1.984 . S
O138 C125 1.277 1_455 S
O138 Mg129 2.041 . S
O139 C125 1.245 . S
O139 Mg127 1.988 . S
O140 Mg127 2.061 . S
O140 C134 1.247 1_655 S
O141 Mg130 2.106 . S
O141 Mg133 2.238 . S
O141 C134 1.289 . S
C142 O143 1.245 . S
C142 O144 1.274 . S
O143 Mg130 2.079 . S
O143 C142 1.245 . S
O144 Mg129 2.038 . S
O144 C142 1.274 . S
O145 Mg133 2.042 . S
O145 C148 1.241 . S
O146 Mg132 1.984 . S
O146 C148 1.280 . S
O147 Mg133 2.041 . S
O147 C151 1.277 . S
C148 O145 1.241 . S
C148 O146 1.280 . S
O149 Mg132 1.988 . S
O149 C151 1.245 . S
O150 C126 1.247 . S
O150 Mg132 2.061 . S
C151 O147 1.277 . S
C151 O149 1.245 . S
O152 C126 1.289 . S
O152 Mg129 2.238 . S
O152 Mg130 2.106 . S
O153 Mg130 2.079 . S
O153 C135 1.245 . S
O154 Mg133 2.038 . S
O154 C135 1.274 . S
C155 O167 1.241 1_655 S
C155 O168 1.280 . S
C156 O169 1.277 1_655 S
C156 O170 1.245 . S
C157 O181 1.247 . S
C157 O183 1.289 . S
Mg158 O159 1.926 1_655 S
Mg158 O168 1.984 . S
Mg158 O170 1.988 . S
Mg158 O171 2.061 . S
O159 Mg158 1.926 1_455 S
O159 Mg160 1.986 . S
O159 Mg161 1.917 . S
Mg160 O159 1.986 . S
Mg160 O167 2.042 . S
Mg160 O169 2.041 . S
Mg160 O175 2.038 . S
Mg160 O183 2.238 . S
Mg161 O159 1.917 . S
Mg161 O162 1.917 . S
Mg161 O172 2.106 . S
Mg161 O174 2.079 . S
Mg161 O183 2.106 . S
Mg161 O184 2.079 . S
O162 Mg161 1.917 . S
O162 Mg163 1.926 . S
O162 Mg164 1.986 . S
Mg163 O162 1.926 . S
Mg163 O177 1.984 . S
Mg163 O180 1.988 . S
Mg163 O181 2.061 . S
Mg164 O162 1.986 . S
Mg164 O172 2.238 . S
Mg164 O176 2.042 . S
Mg164 O178 2.041 . S
Mg164 O185 2.038 . S
C165 O171 1.247 1_455 S
C165 O172 1.289 . S
C166 O184 1.245 . S
C166 O185 1.274 . S
O167 C155 1.241 1_455 S
O167 Mg160 2.042 . S
O168 C155 1.280 . S
O168 Mg158 1.984 . S
O169 C156 1.277 1_455 S
O169 Mg160 2.041 . S
O170 C156 1.245 . S
O170 Mg158 1.988 . S
O171 Mg158 2.061 . S
O171 C165 1.247 1_655 S
O172 Mg161 2.106 . S
O172 Mg164 2.238 . S
O172 C165 1.289 . S
C173 O174 1.245 . S
C173 O175 1.274 . S
O174 Mg161 2.079 . S
O174 C173 1.245 . S
O175 Mg160 2.038 . S
O175 C173 1.274 . S
O176 Mg164 2.042 . S
O176 C179 1.241 . S
O177 Mg163 1.984 . S
O177 C179 1.280 . S
O178 Mg164 2.041 . S
O178 C182 1.277 . S
C179 O176 1.241 . S
C179 O177 1.280 . S
O180 Mg163 1.988 . S
O180 C182 1.245 . S
O181 C157 1.247 . S
O181 Mg163 2.061 . S
C182 O178 1.277 . S
C182 O180 1.245 . S
O183 C157 1.289 . S
O183 Mg160 2.238 . S
O183 Mg161 2.106 . S
O184 Mg161 2.079 . S
O184 C166 1.245 . S
O185 Mg164 2.038 . S
O185 C166 1.274 . S
C186 O198 1.241 . S
C186 O199 1.280 . S
C187 O200 1.277 . S
C187 O201 1.245 . S
C188 O212 1.247 1_655 S
C188 O214 1.289 . S
Mg189 O190 1.926 . S
Mg189 O199 1.984 . S
Mg189 O201 1.988 . S
Mg189 O202 2.061 . S
O190 Mg189 1.926 . S
O190 Mg191 1.986 . S
O190 Mg192 1.917 . S
Mg191 O190 1.986 . S
Mg191 O198 2.042 . S
Mg191 O200 2.041 . S
Mg191 O206 2.038 . S
Mg191 O214 2.238 . S
Mg192 O190 1.917 . S
Mg192 O193 1.917 . S
Mg192 O203 2.106 . S
Mg192 O205 2.079 . S
Mg192 O214 2.106 . S
Mg192 O215 2.079 . S
O193 Mg192 1.917 . S
O193 Mg194 1.926 1_655 S
O193 Mg195 1.986 . S
Mg194 O193 1.926 1_455 S
Mg194 O208 1.984 . S
Mg194 O211 1.988 . S
Mg194 O212 2.061 . S
Mg195 O193 1.986 . S
Mg195 O203 2.238 . S
Mg195 O207 2.042 . S
Mg195 O209 2.041 . S
Mg195 O216 2.038 . S
C196 O202 1.247 . S
C196 O203 1.289 . S
C197 O215 1.245 . S
C197 O216 1.274 . S
O198 C186 1.241 . S
O198 Mg191 2.042 . S
O199 C186 1.280 . S
O199 Mg189 1.984 . S
O200 C187 1.277 . S
O200 Mg191 2.041 . S
O201 C187 1.245 . S
O201 Mg189 1.988 . S
O202 Mg189 2.061 . S
O202 C196 1.247 . S
O203 Mg192 2.106 . S
O203 Mg195 2.238 . S
O203 C196 1.289 . S
C204 O205 1.245 . S
C204 O206 1.274 . S
O205 Mg192 2.079 . S
O205 C204 1.245 . S
O206 Mg191 2.038 . S
O206 C204 1.274 . S
O207 Mg195 2.042 . S
O207 C210 1.241 1_655 S
O208 Mg194 1.984 . S
O208 C210 1.280 . S
O209 Mg195 2.041 . S
O209 C213 1.277 1_655 S
C210 O207 1.241 1_455 S
C210 O208 1.280 . S
O211 Mg194 1.988 . S
O211 C213 1.245 . S
O212 C188 1.247 1_455 S
O212 Mg194 2.061 . S
C213 O209 1.277 1_455 S
C213 O211 1.245 . S
O214 C188 1.289 . S
O214 Mg191 2.238 . S
O214 Mg192 2.106 . S
O215 Mg192 2.079 . S
O215 C197 1.245 . S
O216 Mg195 2.038 . S
O216 C197 1.274 . S
C217 O229 1.241 . S
C217 O230 1.280 . S
C218 O231 1.277 . S
C218 O232 1.245 . S
C219 O243 1.247 1_655 S
C219 O245 1.289 . S
Mg220 O221 1.926 . S
Mg220 O230 1.984 . S
Mg220 O232 1.988 . S
Mg220 O233 2.061 . S
O221 Mg220 1.926 . S
O221 Mg222 1.986 . S
O221 Mg223 1.917 . S
Mg222 O221 1.986 . S
Mg222 O229 2.042 . S
Mg222 O231 2.041 . S
Mg222 O237 2.038 . S
Mg222 O245 2.238 . S
Mg223 O221 1.917 . S
Mg223 O224 1.917 . S
Mg223 O234 2.106 . S
Mg223 O236 2.079 . S
Mg223 O245 2.106 . S
Mg223 O246 2.079 . S
O224 Mg223 1.917 . S
O224 Mg225 1.926 1_655 S
O224 Mg226 1.986 . S
Mg225 O224 1.926 1_455 S
Mg225 O239 1.984 . S
Mg225 O242 1.988 . S
Mg225 O243 2.061 . S
Mg226 O224 1.986 . S
Mg226 O234 2.238 . S
Mg226 O238 2.042 . S
Mg226 O240 2.041 . S
Mg226 O247 2.038 . S
C227 O233 1.247 . S
C227 O234 1.289 . S
C228 O246 1.245 . S
C228 O247 1.274 . S
O229 C217 1.241 . S
O229 Mg222 2.042 . S
O230 C217 1.280 . S
O230 Mg220 1.984 . S
O231 C218 1.277 . S
O231 Mg222 2.041 . S
O232 C218 1.245 . S
O232 Mg220 1.988 . S
O233 Mg220 2.061 . S
O233 C227 1.247 . S
O234 Mg223 2.106 . S
O234 Mg226 2.238 . S
O234 C227 1.289 . S
C235 O236 1.245 . S
C235 O237 1.274 . S
O236 Mg223 2.079 . S
O236 C235 1.245 . S
O237 Mg222 2.038 . S
O237 C235 1.274 . S
O238 Mg226 2.042 . S
O238 C241 1.241 1_655 S
O239 Mg225 1.984 . S
O239 C241 1.280 . S
O240 Mg226 2.041 . S
O240 C244 1.277 1_655 S
C241 O238 1.241 1_455 S
C241 O239 1.280 . S
O242 Mg225 1.988 . S
O242 C244 1.245 . S
O243 C219 1.247 1_455 S
O243 Mg225 2.061 . S
C244 O240 1.277 1_455 S
C244 O242 1.245 . S
O245 C219 1.289 . S
O245 Mg222 2.238 . S
O245 Mg223 2.106 . S
O246 Mg223 2.079 . S
O246 C228 1.245 . S
O247 Mg226 2.038 . S
O247 C228 1.274 . S
C248 O260 1.241 . S
C248 O261 1.280 . S
C249 O262 1.277 . S
C249 O263 1.245 . S
C250 O274 1.247 1_665 S
C250 O276 1.288 1_565 S
Mg251 O252 1.926 . S
Mg251 O261 1.984 . S
Mg251 O263 1.988 1_545 S
Mg251 O264 2.061 . S
O252 Mg251 1.926 . S
O252 Mg253 1.986 1_545 S
O252 Mg254 1.917 . S
Mg253 O252 1.986 1_565 S
Mg253 O260 2.042 1_565 S
Mg253 O262 2.041 . S
Mg253 O268 2.038 1_565 S
Mg253 O276 2.237 1_565 S
Mg254 O252 1.917 . S
Mg254 O255 1.917 . S
Mg254 O265 2.106 . S
Mg254 O267 2.079 . S
Mg254 O276 2.110 . S
Mg254 O277 2.079 . S
O255 Mg254 1.917 . S
O255 Mg256 1.926 1_655 S
O255 Mg257 1.986 . S
Mg256 O255 1.926 1_455 S
Mg256 O270 1.984 . S
Mg256 O273 1.988 . S
Mg256 O274 2.061 . S
Mg257 O255 1.986 . S
Mg257 O265 2.238 . S
Mg257 O269 2.042 . S
Mg257 O271 2.041 . S
Mg257 O278 2.038 . S
C258 O264 1.247 . S
C258 O265 1.289 . S
C259 O277 1.245 . S
C259 O278 1.274 . S
O260 C248 1.241 . S
O260 Mg253 2.042 1_545 S
O261 C248 1.280 . S
O261 Mg251 1.984 . S
O262 C249 1.277 . S
O262 Mg253 2.041 . S
O263 C249 1.245 . S
O263 Mg251 1.988 1_565 S
O264 Mg251 2.061 . S
O264 C258 1.247 . S
O265 Mg254 2.106 . S
O265 Mg257 2.238 . S
O265 C258 1.289 . S
C266 O267 1.245 . S
C266 O268 1.274 . S
O267 Mg254 2.079 . S
O267 C266 1.245 . S
O268 Mg253 2.038 1_545 S
O268 C266 1.274 . S
O269 Mg257 2.042 . S
O269 C272 1.241 1_655 S
O270 Mg256 1.984 . S
O270 C272 1.280 . S
O271 Mg257 2.041 . S
O271 C275 1.277 . S
C272 O269 1.241 1_455 S
C272 O270 1.280 . S
O273 Mg256 1.988 . S
O273 C275 1.245 1_455 S
O274 C250 1.247 1_445 S
O274 Mg256 2.061 . S
C275 O271 1.277 . S
C275 O273 1.245 1_655 S
O276 C250 1.288 1_545 S
O276 Mg253 2.237 1_545 S
O276 Mg254 2.110 . S
O277 Mg254 2.079 . S
O277 C259 1.245 . S
O278 Mg257 2.038 . S
O278 C259 1.274 . S
C279 O291 1.241 . S
C279 O292 1.280 . S
C280 O293 1.277 . S
C280 O294 1.245 . S
C281 O305 1.247 1_655 S
C281 O307 1.289 . S
Mg282 O283 1.926 . S
Mg282 O292 1.984 . S
Mg282 O294 1.988 . S
Mg282 O295 2.061 . S
O283 Mg282 1.926 . S
O283 Mg284 1.986 . S
O283 Mg285 1.917 . S
Mg284 O283 1.986 . S
Mg284 O291 2.042 . S
Mg284 O293 2.041 . S
Mg284 O299 2.038 . S
Mg284 O307 2.238 . S
Mg285 O283 1.917 . S
Mg285 O286 1.917 . S
Mg285 O296 2.106 1_545 S
Mg285 O298 2.079 . S
Mg285 O307 2.106 . S
Mg285 O308 2.079 . S
O286 Mg285 1.917 . S
O286 Mg287 1.926 1_655 S
O286 Mg288 1.986 1_545 S
Mg287 O286 1.926 1_455 S
Mg287 O301 1.984 . S
Mg287 O304 1.988 1_545 S
Mg287 O305 2.061 . S
Mg288 O286 1.986 1_565 S
Mg288 O296 2.238 . S
Mg288 O300 2.042 . S
Mg288 O302 2.041 . S
Mg288 O309 2.038 1_565 S
C289 O295 1.247 1_565 S
C289 O296 1.289 . S
C290 O308 1.245 . S
C290 O309 1.274 . S
O291 C279 1.241 . S
O291 Mg284 2.042 . S
O292 C279 1.280 . S
O292 Mg282 1.984 . S
O293 C280 1.277 . S
O293 Mg284 2.041 . S
O294 C280 1.245 . S
O294 Mg282 1.988 . S
O295 Mg282 2.061 . S
O295 C289 1.247 1_545 S
O296 Mg285 2.106 1_565 S
O296 Mg288 2.238 . S
O296 C289 1.289 . S
C297 O298 1.245 . S
C297 O299 1.274 . S
O298 Mg285 2.079 . S
O298 C297 1.245 . S
O299 Mg284 2.038 . S
O299 C297 1.274 . S
O300 Mg288 2.042 . S
O300 C303 1.241 1_665 S
O301 Mg287 1.984 . S
O301 C303 1.280 . S
O302 Mg288 2.041 . S
O302 C306 1.277 . S
C303 O300 1.241 1_445 S
C303 O301 1.280 . S
O304 Mg287 1.988 1_565 S
O304 C306 1.245 1_455 S
O305 C281 1.247 1_455 S
O305 Mg287 2.061 . S
C306 O302 1.277 . S
C306 O304 1.245 1_655 S
O307 C281 1.289 . S
O307 Mg284 2.238 . S
O307 Mg285 2.106 . S
O308 Mg285 2.079 . S
O308 C290 1.245 . S
O309 Mg288 2.038 1_545 S
O309 C290 1.274 . S
C310 O322 1.241 1_655 S
C310 O323 1.280 . S
C311 O324 1.277 . S
C311 O325 1.245 1_455 S
C312 O336 1.247 . S
C312 O338 1.289 . S
Mg313 O314 1.926 1_655 S
Mg313 O323 1.984 . S
Mg313 O325 1.988 . S
Mg313 O326 2.061 . S
O314 Mg313 1.926 1_455 S
O314 Mg315 1.986 . S
O314 Mg316 1.917 . S
Mg315 O314 1.986 . S
Mg315 O322 2.042 . S
Mg315 O324 2.041 . S
Mg315 O330 2.038 . S
Mg315 O338 2.238 . S
Mg316 O314 1.917 . S
Mg316 O317 1.917 . S
Mg316 O327 2.110 . S
Mg316 O329 2.079 . S
Mg316 O338 2.106 . S
Mg316 O339 2.079 . S
O317 Mg316 1.917 . S
O317 Mg318 1.926 . S
O317 Mg319 1.986 1_565 S
Mg318 O317 1.926 . S
Mg318 O332 1.984 . S
Mg318 O335 1.988 1_565 S
Mg318 O336 2.061 . S
Mg319 O317 1.986 1_545 S
Mg319 O327 2.237 1_545 S
Mg319 O331 2.042 1_545 S
Mg319 O333 2.041 . S
Mg319 O340 2.038 1_545 S
C320 O326 1.247 1_445 S
C320 O327 1.288 1_545 S
C321 O339 1.245 . S
C321 O340 1.274 . S
O322 C310 1.241 1_455 S
O322 Mg315 2.042 . S
O323 C310 1.280 . S
O323 Mg313 1.984 . S
O324 C311 1.277 . S
O324 Mg315 2.041 . S
O325 C311 1.245 1_655 S
O325 Mg313 1.988 . S
O326 Mg313 2.061 . S
O326 C320 1.247 1_665 S
O327 Mg316 2.110 . S
O327 Mg319 2.237 1_565 S
O327 C320 1.288 1_565 S
C328 O329 1.245 . S
C328 O330 1.274 . S
O329 Mg316 2.079 . S
O329 C328 1.245 . S
O330 Mg315 2.038 . S
O330 C328 1.274 . S
O331 Mg319 2.042 1_565 S
O331 C334 1.241 . S
O332 Mg318 1.984 . S
O332 C334 1.280 . S
O333 Mg319 2.041 . S
O333 C337 1.277 . S
C334 O331 1.241 . S
C334 O332 1.280 . S
O335 Mg318 1.988 1_545 S
O335 C337 1.245 . S
O336 C312 1.247 . S
O336 Mg318 2.061 . S
C337 O333 1.277 . S
C337 O335 1.245 . S
O338 C312 1.289 . S
O338 Mg315 2.238 . S
O338 Mg316 2.106 . S
O339 Mg316 2.079 . S
O339 C321 1.245 . S
O340 Mg319 2.038 1_565 S
O340 C321 1.274 . S
C341 O353 1.241 1_665 S
C341 O354 1.280 . S
C342 O355 1.277 . S
C342 O356 1.245 1_455 S
C343 O367 1.247 1_545 S
C343 O369 1.289 . S
Mg344 O345 1.926 1_655 S
Mg344 O354 1.984 . S
Mg344 O356 1.988 1_565 S
Mg344 O357 2.061 . S
O345 Mg344 1.926 1_455 S
O345 Mg346 1.986 1_565 S
O345 Mg347 1.917 . S
Mg346 O345 1.986 1_545 S
Mg346 O353 2.042 . S
Mg346 O355 2.041 . S
Mg346 O361 2.038 1_545 S
Mg346 O369 2.238 . S
Mg347 O345 1.917 . S
Mg347 O348 1.917 . S
Mg347 O358 2.106 . S
Mg347 O360 2.079 . S
Mg347 O369 2.106 1_565 S
Mg347 O370 2.079 . S
O348 Mg347 1.917 . S
O348 Mg349 1.926 . S
O348 Mg350 1.986 . S
Mg349 O348 1.926 . S
Mg349 O363 1.984 . S
Mg349 O366 1.988 . S
Mg349 O367 2.061 . S
Mg350 O348 1.986 . S
Mg350 O358 2.238 . S
Mg350 O362 2.042 . S
Mg350 O364 2.041 . S
Mg350 O371 2.038 . S
C351 O357 1.247 1_455 S
C351 O358 1.289 . S
C352 O370 1.245 . S
C352 O371 1.274 . S
O353 C341 1.241 1_445 S
O353 Mg346 2.042 . S
O354 C341 1.280 . S
O354 Mg344 1.984 . S
O355 C342 1.277 . S
O355 Mg346 2.041 . S
O356 C342 1.245 1_655 S
O356 Mg344 1.988 1_545 S
O357 Mg344 2.061 . S
O357 C351 1.247 1_655 S
O358 Mg347 2.106 . S
O358 Mg350 2.238 . S
O358 C351 1.289 . S
C359 O360 1.245 . S
C359 O361 1.274 . S
O360 Mg347 2.079 . S
O360 C359 1.245 . S
O361 Mg346 2.038 1_565 S
O361 C359 1.274 . S
O362 Mg350 2.042 . S
O362 C365 1.241 . S
O363 Mg349 1.984 . S
O363 C365 1.280 . S
O364 Mg350 2.041 . S
O364 C368 1.277 . S
C365 O362 1.241 . S
C365 O363 1.280 . S
O366 Mg349 1.988 . S
O366 C368 1.245 . S
O367 C343 1.247 1_565 S
O367 Mg349 2.061 . S
C368 O364 1.277 . S
C368 O366 1.245 . S
O369 C343 1.289 . S
O369 Mg346 2.238 . S
O369 Mg347 2.106 1_545 S
O370 Mg347 2.079 . S
O370 C352 1.245 . S
O371 Mg350 2.038 . S
O371 C352 1.274 . S
C372 O384 1.241 . S
C372 O385 1.280 . S
C373 O386 1.277 . S
C373 O387 1.245 . S
C374 O398 1.247 1_655 S
C374 O400 1.289 . S
Mg375 O376 1.926 . S
Mg375 O385 1.984 . S
Mg375 O387 1.988 . S
Mg375 O388 2.061 . S
O376 Mg375 1.926 . S
O376 Mg377 1.986 . S
O376 Mg378 1.917 . S
Mg377 O376 1.986 . S
Mg377 O384 2.042 . S
Mg377 O386 2.041 . S
Mg377 O392 2.038 . S
Mg377 O400 2.238 . S
Mg378 O376 1.917 . S
Mg378 O379 1.917 . S
Mg378 O389 2.106 . S
Mg378 O391 2.079 . S
Mg378 O400 2.106 . S
Mg378 O401 2.079 . S
O379 Mg378 1.917 . S
O379 Mg380 1.926 1_655 S
O379 Mg381 1.986 . S
Mg380 O379 1.926 1_455 S
Mg380 O394 1.984 . S
Mg380 O397 1.988 . S
Mg380 O398 2.061 . S
Mg381 O379 1.986 . S
Mg381 O389 2.238 . S
Mg381 O393 2.042 . S
Mg381 O395 2.041 . S
Mg381 O402 2.038 . S
C382 O388 1.247 . S
C382 O389 1.289 . S
C383 O401 1.245 . S
C383 O402 1.274 . S
O384 C372 1.241 . S
O384 Mg377 2.042 . S
O385 C372 1.280 . S
O385 Mg375 1.984 . S
O386 C373 1.277 . S
O386 Mg377 2.041 . S
O387 C373 1.245 . S
O387 Mg375 1.988 . S
O388 Mg375 2.061 . S
O388 C382 1.247 . S
O389 Mg378 2.106 . S
O389 Mg381 2.238 . S
O389 C382 1.289 . S
C390 O391 1.245 . S
C390 O392 1.274 . S
O391 Mg378 2.079 . S
O391 C390 1.245 . S
O392 Mg377 2.038 . S
O392 C390 1.274 . S
O393 Mg381 2.042 . S
O393 C396 1.241 1_655 S
O394 Mg380 1.984 . S
O394 C396 1.280 . S
O395 Mg381 2.041 . S
O395 C399 1.277 . S
C396 O393 1.241 1_455 S
C396 O394 1.280 . S
O397 Mg380 1.988 . S
O397 C399 1.245 1_455 S
O398 C374 1.247 1_455 S
O398 Mg380 2.061 . S
C399 O395 1.277 . S
C399 O397 1.245 1_655 S
O400 C374 1.289 . S
O400 Mg377 2.238 . S
O400 Mg378 2.106 . S
O401 Mg378 2.079 . S
O401 C383 1.245 . S
O402 Mg381 2.038 . S
O402 C383 1.274 . S
C403 O415 1.241 . S
C403 O416 1.280 . S
C404 O417 1.277 . S
C404 O418 1.245 . S
C405 O429 1.247 1_655 S
C405 O431 1.289 . S
Mg406 O407 1.926 . S
Mg406 O416 1.984 . S
Mg406 O418 1.988 . S
Mg406 O419 2.061 . S
O407 Mg406 1.926 . S
O407 Mg408 1.986 . S
O407 Mg409 1.917 . S
Mg408 O407 1.986 . S
Mg408 O415 2.042 . S
Mg408 O417 2.041 . S
Mg408 O423 2.038 . S
Mg408 O431 2.238 . S
Mg409 O407 1.917 . S
Mg409 O410 1.917 . S
Mg409 O420 2.106 . S
Mg409 O422 2.079 . S
Mg409 O431 2.106 . S
Mg409 O432 2.079 . S
O410 Mg409 1.917 . S
O410 Mg411 1.926 1_655 S
O410 Mg412 1.986 . S
Mg411 O410 1.926 1_455 S
Mg411 O425 1.984 . S
Mg411 O428 1.988 . S
Mg411 O429 2.061 . S
Mg412 O410 1.986 . S
Mg412 O420 2.238 . S
Mg412 O424 2.042 . S
Mg412 O426 2.041 . S
Mg412 O433 2.038 . S
C413 O419 1.247 . S
C413 O420 1.289 . S
C414 O432 1.245 . S
C414 O433 1.274 . S
O415 C403 1.241 . S
O415 Mg408 2.042 . S
O416 C403 1.280 . S
O416 Mg406 1.984 . S
O417 C404 1.277 . S
O417 Mg408 2.041 . S
O418 C404 1.245 . S
O418 Mg406 1.988 . S
O419 Mg406 2.061 . S
O419 C413 1.247 . S
O420 Mg409 2.106 . S
O420 Mg412 2.238 . S
O420 C413 1.289 . S
C421 O422 1.245 . S
C421 O423 1.274 . S
O422 Mg409 2.079 . S
O422 C421 1.245 . S
O423 Mg408 2.038 . S
O423 C421 1.274 . S
O424 Mg412 2.042 . S
O424 C427 1.241 1_655 S
O425 Mg411 1.984 . S
O425 C427 1.280 . S
O426 Mg412 2.041 . S
O426 C430 1.277 . S
C427 O424 1.241 1_455 S
C427 O425 1.280 . S
O428 Mg411 1.988 . S
O428 C430 1.245 1_455 S
O429 C405 1.247 1_455 S
O429 Mg411 2.061 . S
C430 O426 1.277 . S
C430 O428 1.245 1_655 S
O431 C405 1.289 . S
O431 Mg408 2.238 . S
O431 Mg409 2.106 . S
O432 Mg409 2.079 . S
O432 C414 1.245 . S
O433 Mg412 2.038 . S
O433 C414 1.274 . S
C434 O446 1.241 1_655 S
C434 O447 1.280 . S
C435 O448 1.277 . S
C435 O449 1.245 1_455 S
C436 O460 1.247 . S
C436 O462 1.289 . S
Mg437 O438 1.926 1_655 S
Mg437 O447 1.984 . S
Mg437 O449 1.988 . S
Mg437 O450 2.061 . S
O438 Mg437 1.926 1_455 S
O438 Mg439 1.986 . S
O438 Mg440 1.917 . S
Mg439 O438 1.986 . S
Mg439 O446 2.042 . S
Mg439 O448 2.041 . S
Mg439 O454 2.038 . S
Mg439 O462 2.238 . S
Mg440 O438 1.917 . S
Mg440 O441 1.917 . S
Mg440 O451 2.106 . S
Mg440 O453 2.079 . S
Mg440 O462 2.106 . S
Mg440 O463 2.079 . S
O441 Mg440 1.917 . S
O441 Mg442 1.926 . S
O441 Mg443 1.986 . S
Mg442 O441 1.926 . S
Mg442 O456 1.984 . S
Mg442 O459 1.988 . S
Mg442 O460 2.061 . S
Mg443 O441 1.986 . S
Mg443 O451 2.238 . S
Mg443 O455 2.042 . S
Mg443 O457 2.041 . S
Mg443 O464 2.038 . S
C444 O450 1.247 1_455 S
C444 O451 1.289 . S
C445 O463 1.245 . S
C445 O464 1.274 . S
O446 C434 1.241 1_455 S
O446 Mg439 2.042 . S
O447 C434 1.280 . S
O447 Mg437 1.984 . S
O448 C435 1.277 . S
O448 Mg439 2.041 . S
O449 C435 1.245 1_655 S
O449 Mg437 1.988 . S
O450 Mg437 2.061 . S
O450 C444 1.247 1_655 S
O451 Mg440 2.106 . S
O451 Mg443 2.238 . S
O451 C444 1.289 . S
C452 O453 1.245 . S
C452 O454 1.274 . S
O453 Mg440 2.079 . S
O453 C452 1.245 . S
O454 Mg439 2.038 . S
O454 C452 1.274 . S
O455 Mg443 2.042 . S
O455 C458 1.241 . S
O456 Mg442 1.984 . S
O456 C458 1.280 . S
O457 Mg443 2.041 . S
O457 C461 1.277 . S
C458 O455 1.241 . S
C458 O456 1.280 . S
O459 Mg442 1.988 . S
O459 C461 1.245 . S
O460 C436 1.247 . S
O460 Mg442 2.061 . S
C461 O457 1.277 . S
C461 O459 1.245 . S
O462 C436 1.289 . S
O462 Mg439 2.238 . S
O462 Mg440 2.106 . S
O463 Mg440 2.079 . S
O463 C445 1.245 . S
O464 Mg443 2.038 . S
O464 C445 1.274 . S
C465 O477 1.241 1_655 S
C465 O478 1.280 . S
C466 O479 1.277 . S
C466 O480 1.245 1_455 S
C467 O491 1.247 . S
C467 O493 1.289 . S
Mg468 O469 1.926 1_655 S
Mg468 O478 1.984 . S
Mg468 O480 1.988 . S
Mg468 O481 2.061 . S
O469 Mg468 1.926 1_455 S
O469 Mg470 1.986 . S
O469 Mg471 1.917 . S
Mg470 O469 1.986 . S
Mg470 O477 2.042 . S
Mg470 O479 2.041 . S
Mg470 O485 2.038 . S
Mg470 O493 2.238 . S
Mg471 O469 1.917 . S
Mg471 O472 1.917 . S
Mg471 O482 2.106 . S
Mg471 O484 2.079 . S
Mg471 O493 2.106 . S
Mg471 O494 2.079 . S
O472 Mg471 1.917 . S
O472 Mg473 1.926 . S
O472 Mg474 1.986 . S
Mg473 O472 1.926 . S
Mg473 O487 1.984 . S
Mg473 O490 1.988 . S
Mg473 O491 2.061 . S
Mg474 O472 1.986 . S
Mg474 O482 2.238 . S
Mg474 O486 2.042 . S
Mg474 O488 2.041 . S
Mg474 O495 2.038 . S
C475 O481 1.247 1_455 S
C475 O482 1.289 . S
C476 O494 1.245 . S
C476 O495 1.274 . S
O477 C465 1.241 1_455 S
O477 Mg470 2.042 . S
O478 C465 1.280 . S
O478 Mg468 1.984 . S
O479 C466 1.277 . S
O479 Mg470 2.041 . S
O480 C466 1.245 1_655 S
O480 Mg468 1.988 . S
O481 Mg468 2.061 . S
O481 C475 1.247 1_655 S
O482 Mg471 2.106 . S
O482 Mg474 2.238 . S
O482 C475 1.289 . S
C483 O484 1.245 . S
C483 O485 1.274 . S
O484 Mg471 2.079 . S
O484 C483 1.245 . S
O485 Mg470 2.038 . S
O485 C483 1.274 . S
O486 Mg474 2.042 . S
O486 C489 1.241 . S
O487 Mg473 1.984 . S
O487 C489 1.280 . S
O488 Mg474 2.041 . S
O488 C492 1.277 . S
C489 O486 1.241 . S
C489 O487 1.280 . S
O490 Mg473 1.988 . S
O490 C492 1.245 . S
O491 C467 1.247 . S
O491 Mg473 2.061 . S
C492 O488 1.277 . S
C492 O490 1.245 . S
O493 C467 1.289 . S
O493 Mg470 2.238 . S
O493 Mg471 2.106 . S
O494 Mg471 2.079 . S
O494 C476 1.245 . S
O495 Mg474 2.038 . S
O495 C476 1.274 . S
C27 C373 0.472 . S
C1 C399 0.472 . S
C58 C404 0.472 . S
C32 C430 0.472 . S
C461 C63 0.472 . S
C89 C435 0.472 . S
C94 C492 0.472 . S
C120 C466 0.472 . S
C249 C151 0.472 . S
C275 C125 0.472 . S
C280 C182 0.472 . S
C306 C156 0.472 . S
C337 C187 0.472 . S
C213 C311 0.472 . S
C368 C218 0.472 . S
C244 C342 0.472 . S
C2 C382 2.687 . S
C10 C374 2.687 1_455 S
C33 C413 2.687 . S
C405 C41 2.687 1_655 S
C436 C72 2.687 . S
C444 C64 2.687 1_455 S
C467 C103 2.687 . S
C475 C95 2.687 1_455 S
C126 C258 2.687 . S
C134 C250 2.687 1_455 S
C157 C289 2.687 . S
C165 C281 2.687 1_455 S
C312 C196 2.687 . S
C320 C188 2.687 1_455 S
C343 C227 2.687 . S
C219 C351 2.687 1_655 S
C24 C290 2.054 . S
C303 C11 2.054 . S
C259 C55 2.054 . S
C272 C42 2.054 . S
C359 C62 2.054 . S
C80 C341 2.054 . S
C93 C328 2.054 . S
C111 C310 2.054 . S
C414 C148 2.054 . S
C135 C427 2.054 . S
C179 C383 2.054 . S
C396 C166 2.054 . S
C483 C186 2.054 . S
C465 C204 2.054 . S
C452 C217 2.054 . S
C434 C235 2.054 . S
C445 C18 3.306 . S
C86 C0 1.974 1_465 S
C352 C49 3.306 1_565 S
C31 C241 1.974 1_655 S
C390 C73 3.306 . S
C104 C297 3.306 1_565 S
C155 C117 1.974 1_655 S
C321 C142 3.306 1_554 S
C124 C210 1.974 1_656 S
C173 C476 3.306 . S
C266 C197 3.306 1_556 S
C421 C228 3.306 . S
C248 C334 1.974 1_546 S
C279 C489 1.974 . S
C403 C365 1.974 . S
C458 C372 1.974 . S
