# Generated by pormake.
# Topology wip, (6)-cn, num edge types: 1
# Building blocks:
#     Node 0, Type 0, BuildingBlock: PAMTOO_clean_sbu_0, # of connection points: 6
#     Node 1, Type 0, BuildingBlock: PAMTOO_clean_sbu_0, # of connection points: 6
#     Node 2, Type 0, BuildingBlock: PAMTOO_clean_sbu_0, # of connection points: 6
#     Node 3, Type 0, BuildingBlock: PAMTOO_clean_sbu_0, # of connection points: 6
#     Node 4, Type 0, BuildingBlock: PAMTOO_clean_sbu_0, # of connection points: 6
#     Node 5, Type 0, BuildingBlock: PAMTOO_clean_sbu_0, # of connection points: 6
#     Node 6, Type 0, BuildingBlock: PAMTOO_clean_sbu_0, # of connection points: 6
#     Node 7, Type 0, BuildingBlock: PAMTOO_clean_sbu_0, # of connection points: 6
#     Node 8, Type 0, BuildingBlock: PAMTOO_clean_sbu_0, # of connection points: 6
#     Node 9, Type 0, BuildingBlock: PAMTOO_clean_sbu_0, # of connection points: 6
#     Node 10, Type 0, BuildingBlock: PAMTOO_clean_sbu_0, # of connection points: 6
#     Node 11, Type 0, BuildingBlock: PAMTOO_clean_sbu_0, # of connection points: 6
#     Node 12, Type 0, BuildingBlock: PAMTOO_clean_sbu_0, # of connection points: 6
#     Node 13, Type 0, BuildingBlock: PAMTOO_clean_sbu_0, # of connection points: 6
#     Node 14, Type 0, BuildingBlock: PAMTOO_clean_sbu_0, # of connection points: 6
#     Node 15, Type 0, BuildingBlock: PAMTOO_clean_sbu_0, # of connection points: 6
#     Node 16, Type 0, BuildingBlock: PAMTOO_clean_sbu_0, # of connection points: 6
#     Node 17, Type 0, BuildingBlock: PAMTOO_clean_sbu_0, # of connection points: 6
#     Node 18, Type 0, BuildingBlock: PAMTOO_clean_sbu_0, # of connection points: 6
#     Node 19, Type 0, BuildingBlock: PAMTOO_clean_sbu_0, # of connection points: 6
#     Node 20, Type 0, BuildingBlock: PAMTOO_clean_sbu_0, # of connection points: 6
#     Node 21, Type 0, BuildingBlock: PAMTOO_clean_sbu_0, # of connection points: 6
#     Node 22, Type 0, BuildingBlock: PAMTOO_clean_sbu_0, # of connection points: 6
#     Node 23, Type 0, BuildingBlock: PAMTOO_clean_sbu_0, # of connection points: 6
#     Node 24, Type 0, BuildingBlock: PAMTOO_clean_sbu_0, # of connection points: 6
#     Node 25, Type 0, BuildingBlock: PAMTOO_clean_sbu_0, # of connection points: 6
#     Node 26, Type 0, BuildingBlock: PAMTOO_clean_sbu_0, # of connection points: 6
#     Node 27, Type 0, BuildingBlock: PAMTOO_clean_sbu_0, # of connection points: 6
#     Node 28, Type 0, BuildingBlock: PAMTOO_clean_sbu_0, # of connection points: 6
#     Node 29, Type 0, BuildingBlock: PAMTOO_clean_sbu_0, # of connection points: 6
#     Node 30, Type 0, BuildingBlock: PAMTOO_clean_sbu_0, # of connection points: 6
#     Node 31, Type 0, BuildingBlock: PAMTOO_clean_sbu_0, # of connection points: 6
#     Edge 32, Type (0, 0), BuildingBlock: AJUNOK_clean_linker_0, # of connection points: 2
#     Edge 33, Type (0, 0), BuildingBlock: AJUNOK_clean_linker_0, # of connection points: 2
#     Edge 34, Type (0, 0), BuildingBlock: AJUNOK_clean_linker_0, # of connection points: 2
#     Edge 35, Type (0, 0), BuildingBlock: AJUNOK_clean_linker_0, # of connection points: 2
#     Edge 36, Type (0, 0), BuildingBlock: AJUNOK_clean_linker_0, # of connection points: 2
#     Edge 37, Type (0, 0), BuildingBlock: AJUNOK_clean_linker_0, # of connection points: 2
#     Edge 38, Type (0, 0), BuildingBlock: AJUNOK_clean_linker_0, # of connection points: 2
#     Edge 39, Type (0, 0), BuildingBlock: AJUNOK_clean_linker_0, # of connection points: 2
#     Edge 40, Type (0, 0), BuildingBlock: AJUNOK_clean_linker_0, # of connection points: 2
#     Edge 41, Type (0, 0), BuildingBlock: AJUNOK_clean_linker_0, # of connection points: 2
#     Edge 42, Type (0, 0), BuildingBlock: AJUNOK_clean_linker_0, # of connection points: 2
#     Edge 43, Type (0, 0), BuildingBlock: AJUNOK_clean_linker_0, # of connection points: 2
#     Edge 44, Type (0, 0), BuildingBlock: AJUNOK_clean_linker_0, # of connection points: 2
#     Edge 45, Type (0, 0), BuildingBlock: AJUNOK_clean_linker_0, # of connection points: 2
#     Edge 46, Type (0, 0), BuildingBlock: AJUNOK_clean_linker_0, # of connection points: 2
#     Edge 47, Type (0, 0), BuildingBlock: AJUNOK_clean_linker_0, # of connection points: 2
#     Edge 48, Type (0, 0), BuildingBlock: AJUNOK_clean_linker_0, # of connection points: 2
#     Edge 49, Type (0, 0), BuildingBlock: AJUNOK_clean_linker_0, # of connection points: 2
#     Edge 50, Type (0, 0), BuildingBlock: AJUNOK_clean_linker_0, # of connection points: 2
#     Edge 51, Type (0, 0), BuildingBlock: AJUNOK_clean_linker_0, # of connection points: 2
#     Edge 52, Type (0, 0), BuildingBlock: AJUNOK_clean_linker_0, # of connection points: 2
#     Edge 53, Type (0, 0), BuildingBlock: AJUNOK_clean_linker_0, # of connection points: 2
#     Edge 54, Type (0, 0), BuildingBlock: AJUNOK_clean_linker_0, # of connection points: 2
#     Edge 55, Type (0, 0), BuildingBlock: AJUNOK_clean_linker_0, # of connection points: 2
#     Edge 56, Type (0, 0), BuildingBlock: AJUNOK_clean_linker_0, # of connection points: 2
#     Edge 57, Type (0, 0), BuildingBlock: AJUNOK_clean_linker_0, # of connection points: 2
#     Edge 58, Type (0, 0), BuildingBlock: AJUNOK_clean_linker_0, # of connection points: 2
#     Edge 59, Type (0, 0), BuildingBlock: AJUNOK_clean_linker_0, # of connection points: 2
#     Edge 60, Type (0, 0), BuildingBlock: AJUNOK_clean_linker_0, # of connection points: 2
#     Edge 61, Type (0, 0), BuildingBlock: AJUNOK_clean_linker_0, # of connection points: 2
#     Edge 62, Type (0, 0), BuildingBlock: AJUNOK_clean_linker_0, # of connection points: 2
#     Edge 63, Type (0, 0), BuildingBlock: AJUNOK_clean_linker_0, # of connection points: 2
#     Edge 64, Type (0, 0), BuildingBlock: AJUNOK_clean_linker_0, # of connection points: 2
#     Edge 65, Type (0, 0), BuildingBlock: AJUNOK_clean_linker_0, # of connection points: 2
#     Edge 66, Type (0, 0), BuildingBlock: AJUNOK_clean_linker_0, # of connection points: 2
#     Edge 67, Type (0, 0), BuildingBlock: AJUNOK_clean_linker_0, # of connection points: 2
#     Edge 68, Type (0, 0), BuildingBlock: AJUNOK_clean_linker_0, # of connection points: 2
#     Edge 69, Type (0, 0), BuildingBlock: AJUNOK_clean_linker_0, # of connection points: 2
#     Edge 70, Type (0, 0), BuildingBlock: AJUNOK_clean_linker_0, # of connection points: 2
#     Edge 71, Type (0, 0), BuildingBlock: AJUNOK_clean_linker_0, # of connection points: 2
#     Edge 72, Type (0, 0), BuildingBlock: AJUNOK_clean_linker_0, # of connection points: 2
#     Edge 73, Type (0, 0), BuildingBlock: AJUNOK_clean_linker_0, # of connection points: 2
#     Edge 74, Type (0, 0), BuildingBlock: AJUNOK_clean_linker_0, # of connection points: 2
#     Edge 75, Type (0, 0), BuildingBlock: AJUNOK_clean_linker_0, # of connection points: 2
#     Edge 76, Type (0, 0), BuildingBlock: AJUNOK_clean_linker_0, # of connection points: 2
#     Edge 77, Type (0, 0), BuildingBlock: AJUNOK_clean_linker_0, # of connection points: 2
#     Edge 78, Type (0, 0), BuildingBlock: AJUNOK_clean_linker_0, # of connection points: 2
#     Edge 79, Type (0, 0), BuildingBlock: AJUNOK_clean_linker_0, # of connection points: 2
#     Edge 80, Type (0, 0), BuildingBlock: AJUNOK_clean_linker_0, # of connection points: 2
#     Edge 81, Type (0, 0), BuildingBlock: AJUNOK_clean_linker_0, # of connection points: 2
#     Edge 82, Type (0, 0), BuildingBlock: AJUNOK_clean_linker_0, # of connection points: 2
#     Edge 83, Type (0, 0), BuildingBlock: AJUNOK_clean_linker_0, # of connection points: 2
#     Edge 84, Type (0, 0), BuildingBlock: AJUNOK_clean_linker_0, # of connection points: 2
#     Edge 85, Type (0, 0), BuildingBlock: AJUNOK_clean_linker_0, # of connection points: 2
#     Edge 86, Type (0, 0), BuildingBlock: AJUNOK_clean_linker_0, # of connection points: 2
#     Edge 87, Type (0, 0), BuildingBlock: AJUNOK_clean_linker_0, # of connection points: 2
#     Edge 88, Type (0, 0), BuildingBlock: AJUNOK_clean_linker_0, # of connection points: 2
#     Edge 89, Type (0, 0), BuildingBlock: AJUNOK_clean_linker_0, # of connection points: 2
#     Edge 90, Type (0, 0), BuildingBlock: AJUNOK_clean_linker_0, # of connection points: 2
#     Edge 91, Type (0, 0), BuildingBlock: AJUNOK_clean_linker_0, # of connection points: 2
#     Edge 92, Type (0, 0), BuildingBlock: AJUNOK_clean_linker_0, # of connection points: 2
#     Edge 93, Type (0, 0), BuildingBlock: AJUNOK_clean_linker_0, # of connection points: 2
#     Edge 94, Type (0, 0), BuildingBlock: AJUNOK_clean_linker_0, # of connection points: 2
#     Edge 95, Type (0, 0), BuildingBlock: AJUNOK_clean_linker_0, # of connection points: 2
#     Edge 96, Type (0, 0), BuildingBlock: AJUNOK_clean_linker_0, # of connection points: 2
#     Edge 97, Type (0, 0), BuildingBlock: AJUNOK_clean_linker_0, # of connection points: 2
#     Edge 98, Type (0, 0), BuildingBlock: AJUNOK_clean_linker_0, # of connection points: 2
#     Edge 99, Type (0, 0), BuildingBlock: AJUNOK_clean_linker_0, # of connection points: 2
#     Edge 100, Type (0, 0), BuildingBlock: AJUNOK_clean_linker_0, # of connection points: 2
#     Edge 101, Type (0, 0), BuildingBlock: AJUNOK_clean_linker_0, # of connection points: 2
#     Edge 102, Type (0, 0), BuildingBlock: AJUNOK_clean_linker_0, # of connection points: 2
#     Edge 103, Type (0, 0), BuildingBlock: AJUNOK_clean_linker_0, # of connection points: 2
#     Edge 104, Type (0, 0), BuildingBlock: AJUNOK_clean_linker_0, # of connection points: 2
#     Edge 105, Type (0, 0), BuildingBlock: AJUNOK_clean_linker_0, # of connection points: 2
#     Edge 106, Type (0, 0), BuildingBlock: AJUNOK_clean_linker_0, # of connection points: 2
#     Edge 107, Type (0, 0), BuildingBlock: AJUNOK_clean_linker_0, # of connection points: 2
#     Edge 108, Type (0, 0), BuildingBlock: AJUNOK_clean_linker_0, # of connection points: 2
#     Edge 109, Type (0, 0), BuildingBlock: AJUNOK_clean_linker_0, # of connection points: 2
#     Edge 110, Type (0, 0), BuildingBlock: AJUNOK_clean_linker_0, # of connection points: 2
#     Edge 111, Type (0, 0), BuildingBlock: AJUNOK_clean_linker_0, # of connection points: 2
#     Edge 112, Type (0, 0), BuildingBlock: AJUNOK_clean_linker_0, # of connection points: 2
#     Edge 113, Type (0, 0), BuildingBlock: AJUNOK_clean_linker_0, # of connection points: 2
#     Edge 114, Type (0, 0), BuildingBlock: AJUNOK_clean_linker_0, # of connection points: 2
#     Edge 115, Type (0, 0), BuildingBlock: AJUNOK_clean_linker_0, # of connection points: 2
#     Edge 116, Type (0, 0), BuildingBlock: AJUNOK_clean_linker_0, # of connection points: 2
#     Edge 117, Type (0, 0), BuildingBlock: AJUNOK_clean_linker_0, # of connection points: 2
#     Edge 118, Type (0, 0), BuildingBlock: AJUNOK_clean_linker_0, # of connection points: 2
#     Edge 119, Type (0, 0), BuildingBlock: AJUNOK_clean_linker_0, # of connection points: 2
#     Edge 120, Type (0, 0), BuildingBlock: AJUNOK_clean_linker_0, # of connection points: 2
#     Edge 121, Type (0, 0), BuildingBlock: AJUNOK_clean_linker_0, # of connection points: 2
#     Edge 122, Type (0, 0), BuildingBlock: AJUNOK_clean_linker_0, # of connection points: 2
#     Edge 123, Type (0, 0), BuildingBlock: AJUNOK_clean_linker_0, # of connection points: 2
#     Edge 124, Type (0, 0), BuildingBlock: AJUNOK_clean_linker_0, # of connection points: 2
#     Edge 125, Type (0, 0), BuildingBlock: AJUNOK_clean_linker_0, # of connection points: 2
#     Edge 126, Type (0, 0), BuildingBlock: AJUNOK_clean_linker_0, # of connection points: 2
#     Edge 127, Type (0, 0), BuildingBlock: AJUNOK_clean_linker_0, # of connection points: 2
# Relax obj value: 0.549
# Max RMSD: 0.303
# Mean RMSD: 0.237
data_MOF--net-wip--node1-PAMTOO_clean_sbu_0--edge1-AJUNOK_clean_linker_0
_symmetry_space_group_name_H-M    P1
_symmetry_Int_Tables_number       1
_symmetry_cell_setting            triclinic
loop_
_symmetry_equiv_pos_as_xyz
'x, y, z'
_cell_length_a     48.773759
_cell_length_b     47.086055
_cell_length_c     26.351283
_cell_angle_alpha  95.141187
_cell_angle_beta   84.508211
_cell_angle_gamma 91.254624
loop_
_atom_site_label
_atom_site_type_symbol
_atom_site_fract_x
_atom_site_fract_y
_atom_site_fract_z
_atom_type_partial_charge
Dy0 Dy 0.07954 0.45875 0.32536 0.0
Dy1 Dy 0.06004 0.39879 0.27543 0.0
C2 C 0.10594 0.40405 0.35537 0.0
O3 O 0.08007 0.46534 0.24294 0.0
O4 O 0.08442 0.41963 0.20874 0.0
O5 O 0.11362 0.48823 0.31733 0.0
O6 O 0.07794 0.49879 0.37139 0.0
O7 O 0.03196 0.4298 0.24864 0.0
O8 O 0.03628 0.46583 0.31185 0.0
O9 O 0.03086 0.40601 0.34686 0.0
O10 O 0.05635 0.43914 0.39275 0.0
O11 O 0.02993 0.36646 0.25656 0.0
O12 O 0.07363 0.35836 0.23757 0.0
C13 C 0.08483 0.44729 0.20279 0.0
O14 O 0.11222 0.42804 0.33566 0.0
O15 O 0.08435 0.38969 0.34087 0.0
C16 C 0.12115 0.5113 0.39578 0.0
C17 C 0.13599 0.52744 0.49252 0.0
C18 C 0.13067 0.49856 0.47845 0.0
C19 C 0.12273 0.49063 0.43022 0.0
C20 C 0.13231 0.53856 0.40578 0.0
C21 C 0.14052 0.54648 0.45428 0.0
C22 C 0.10329 0.5055 0.35538 0.0
C23 C 0.0243 0.45448 0.27236 0.0
C24 C 0.03576 0.42032 0.39052 0.0
C25 C 0.04329 0.34171 0.17807 0.0
C26 C 0.03399 0.32745 0.07573 0.0
C27 C 0.03755 0.35609 0.09398 0.0
C28 C 0.04226 0.36315 0.14474 0.0
C29 C 0.03939 0.3131 0.16039 0.0
C30 C 0.03463 0.30598 0.10929 0.0
C31 C 0.04842 0.34973 0.23105 0.0
H32 H 0.12733 0.48318 0.50669 0.0
H33 H 0.11413 0.46945 0.4225 0.0
H34 H 0.13166 0.55448 0.37869 0.0
H35 H 0.1453 0.5687 0.46436 0.0
H36 H 0.03648 0.37304 0.06902 0.0
H37 H 0.04502 0.38539 0.15808 0.0
H38 H 0.04008 0.2964 0.18595 0.0
H39 H 0.03173 0.28379 0.09582 0.0
Dy40 Dy 0.7744 0.86603 0.47383 0.0
Dy41 Dy 0.82298 0.83331 0.40178 0.0
C42 C 0.83643 0.87613 0.50546 0.0
O43 O 0.75987 0.85557 0.39599 0.0
O44 O 0.80078 0.86084 0.35234 0.0
O45 O 0.75563 0.90724 0.47587 0.0
O46 O 0.73815 0.87537 0.52512 0.0
O47 O 0.78654 0.80302 0.40667 0.0
O48 O 0.75822 0.8226 0.47552 0.0
O49 O 0.82525 0.8144 0.47592 0.0
O50 O 0.79028 0.83777 0.52923 0.0
O51 O 0.83932 0.79353 0.36466 0.0
O52 O 0.85507 0.83323 0.33792 0.0
C53 C 0.7739 0.85885 0.35236 0.0
O54 O 0.81278 0.88812 0.50027 0.0
O55 O 0.84628 0.8564 0.46858 0.0
C56 C 0.73267 0.92298 0.55588 0.0
C57 C 0.72519 0.94681 0.65686 0.0
C58 C 0.75145 0.94636 0.63027 0.0
C59 C 0.75531 0.93424 0.58005 0.0
C60 C 0.70594 0.92758 0.5794 0.0
C61 C 0.70217 0.93967 0.62985 0.0
C62 C 0.73684 0.9015 0.51256 0.0
C63 C 0.76664 0.80093 0.44388 0.0
C64 C 0.81041 0.8189 0.52047 0.0
C65 C 0.8487 0.79355 0.27444 0.0
C66 C 0.83675 0.76568 0.17685 0.0
C67 C 0.81845 0.78557 0.20479 0.0
C68 C 0.82423 0.79908 0.25281 0.0
C69 C 0.8673 0.77431 0.2462 0.0
C70 C 0.86151 0.76072 0.19826 0.0
C71 C 0.85372 0.80546 0.3279 0.0
H72 H 0.76925 0.95108 0.65083 0.0
H73 H 0.77607 0.93071 0.56245 0.0
H74 H 0.68823 0.91909 0.56089 0.0
H75 H 0.68164 0.93988 0.64966 0.0
H76 H 0.79951 0.79079 0.18963 0.0
H77 H 0.80929 0.81354 0.27352 0.0
H78 H 0.88618 0.76924 0.2618 0.0
H79 H 0.87619 0.74563 0.17857 0.0
Dy80 Dy 0.40825 0.52324 0.70634 0.0
Dy81 Dy 0.43361 0.58154 0.66139 0.0
C82 C 0.38617 0.58445 0.75768 0.0
O83 O 0.38861 0.52666 0.63235 0.0
O84 O 0.42484 0.54987 0.59478 0.0
O85 O 0.37325 0.49501 0.71349 0.0
O86 O 0.41202 0.48305 0.73897 0.0
O87 O 0.46873 0.5528 0.66379 0.0
O88 O 0.44394 0.5126 0.65033 0.0
O89 O 0.44918 0.58567 0.73949 0.0
O90 O 0.43863 0.54037 0.76411 0.0
O91 O 0.46529 0.61323 0.64602 0.0
O92 O 0.42894 0.61124 0.60446 0.0
C93 C 0.40338 0.53289 0.59036 0.0
O94 O 0.38836 0.557 0.76045 0.0
O95 O 0.39736 0.59737 0.7177 0.0
C96 C 0.37069 0.47201 0.78935 0.0
C97 C 0.34492 0.47345 0.88945 0.0
C98 C 0.32977 0.47931 0.8492 0.0
C99 C 0.34248 0.47837 0.79941 0.0
C100 C 0.38503 0.46348 0.82902 0.0
C101 C 0.3722 0.46418 0.87876 0.0
C102 C 0.38555 0.47767 0.73967 0.0
C103 C 0.46756 0.52499 0.65729 0.0
C104 C 0.45069 0.56592 0.77184 0.0
C105 C 0.47227 0.61259 0.55577 0.0
C106 C 0.50169 0.5946 0.46048 0.0
C107 C 0.50675 0.58229 0.50522 0.0
C108 C 0.49216 0.59104 0.55211 0.0
C109 C 0.46737 0.62519 0.51127 0.0
C110 C 0.48199 0.61637 0.46415 0.0
C111 C 0.45479 0.61928 0.60458 0.0
H112 H 0.30859 0.48618 0.85671 0.0
H113 H 0.33063 0.4844 0.76944 0.0
H114 H 0.40661 0.45798 0.82231 0.0
H115 H 0.38423 0.45952 0.90945 0.0
H116 H 0.52218 0.56599 0.50414 0.0
H117 H 0.49626 0.58055 0.58545 0.0
H118 H 0.45186 0.64145 0.51275 0.0
H119 H 0.47755 0.62626 0.43035 0.0
Dy120 Dy 0.71012 0.13502 0.93404 0.0
Dy121 Dy 0.66262 0.17007 0.89942 0.0
C122 C 0.65023 0.12656 0.99582 0.0
O123 O 0.70965 0.12264 0.84856 0.0
O124 O 0.69821 0.16674 0.83779 0.0
O125 O 0.72656 0.09341 0.9402 0.0
O126 O 0.75178 0.13152 0.95278 0.0
O127 O 0.69265 0.20478 0.9168 0.0
O128 O 0.73021 0.17648 0.9181 0.0
O129 O 0.66082 0.19049 0.97766 0.0
O130 O 0.69618 0.16523 1.00519 0.0
O131 O 0.63715 0.2044 0.88246 0.0
O132 O 0.63658 0.16373 0.83649 0.0
C133 C 0.71068 0.14348 0.81873 0.0
O134 O 0.67588 0.1183 0.98647 0.0
O135 O 0.63987 0.14314 0.96324 0.0
C136 C 0.75705 0.09377 1.00425 0.0
C137 C 0.7646 0.07466 0.09976 0.0
C138 C 0.7584 0.05507 0.059 0.0
C139 C 0.75481 0.06456 1.01138 0.0
C140 C 0.76443 0.11312 1.04448 0.0
C141 C 0.76804 0.10366 0.09177 0.0
C142 C 0.7494 0.10409 0.95658 0.0
C143 C 0.71886 0.2017 0.92209 0.0
C144 C 0.67622 0.18454 1.01356 0.0
C145 C 0.63981 0.20623 0.79127 0.0
C146 C 0.65571 0.23485 0.7006 0.0
C147 C 0.66816 0.24187 0.74633 0.0
C148 C 0.66039 0.22783 0.79077 0.0
C149 C 0.62787 0.19865 0.74533 0.0
C150 C 0.63574 0.21259 0.70078 0.0
C151 C 0.63151 0.19115 0.83877 0.0
H152 H 0.75542 0.03264 0.06451 0.0
H153 H 0.74919 0.04927 0.98078 0.0
H154 H 0.76623 0.13579 1.04034 0.0
H155 H 0.77197 0.11937 0.12294 0.0
H156 H 0.68364 0.25867 0.74816 0.0
H157 H 0.67053 0.23404 0.82494 0.0
H158 H 0.61241 0.18181 0.74378 0.0
H159 H 0.62623 0.20569 0.66622 0.0
Dy160 Dy 0.0833 0.5726 0.80605 0.0
Dy161 Dy 0.04048 0.61238 0.75284 0.0
C162 C 0.02615 0.54746 0.76449 0.0
O163 O 0.08523 0.55346 0.72627 0.0
O164 O 0.0603 0.58496 0.68606 0.0
O165 O 0.09649 0.53123 0.82326 0.0
O166 O 0.11379 0.56917 0.86095 0.0
O167 O 0.08239 0.632 0.73326 0.0
O168 O 0.11086 0.59553 0.74315 0.0
O169 O 0.0204 0.60491 0.83069 0.0
O170 O 0.05845 0.59827 0.87034 0.0
O171 O 0.02748 0.65592 0.75057 0.0
O172 O 0.00562 0.6206 0.71294 0.0
C173 C 0.07632 0.5625 0.68509 0.0
O174 O 0.04421 0.54678 0.79868 0.0
O175 O 0.02262 0.5697 0.73961 0.0
C176 C 0.10685 0.52733 0.90979 0.0
C177 C 0.10031 0.49949 1.00357 0.0
C178 C 0.09297 0.48556 0.95713 0.0
C179 C 0.09616 0.49919 0.9112 0.0
C180 C 0.11473 0.54103 0.95601 0.0
C181 C 0.11153 0.52741 1.00191 0.0
C182 C 0.11108 0.54133 0.85991 0.0
C183 C 0.10498 0.61767 0.71745 0.0
C184 C 0.03156 0.60048 0.8723 0.0
C185 C 0.00834 0.66276 0.67369 0.0
C186 C 0.00122 0.6796 0.57661 0.0
C187 C 0.02483 0.66464 0.58443 0.0
C188 C 0.02831 0.65617 0.63271 0.0
C189 C 0.98574 0.67936 0.66692 0.0
C190 C 0.98217 0.68774 0.61854 0.0
C191 C 0.00843 0.64819 0.72023 0.0
H192 H 0.08428 0.46418 0.95639 0.0
H193 H 0.09021 0.48754 0.87655 0.0
H194 H 0.12357 0.56235 0.95677 0.0
H195 H 0.11814 0.53878 1.03627 0.0
H196 H 0.03947 0.65751 0.55253 0.0
H197 H 0.04552 0.64275 0.63724 0.0
H198 H 0.96999 0.68425 0.69818 0.0
H199 H 0.96371 0.6991 0.6132 0.0
Dy200 Dy 0.72021 0.84579 1.03744 0.0
Dy201 Dy 0.66832 0.81067 0.09632 0.0
C202 C 0.65758 0.86187 1.02551 0.0
O203 O 0.72758 0.85751 0.1198 0.0
O204 O 0.6953 0.82814 0.15869 0.0
O205 O 0.74486 0.88376 1.02752 0.0
O206 O 0.75529 0.84453 0.98062 0.0
O207 O 0.69965 0.77771 0.07222 0.0
O208 O 0.73464 0.80926 0.07457 0.0
O209 O 0.66509 0.79545 1.01398 0.0
O210 O 0.70418 0.81551 0.97428 0.0
O211 O 0.64387 0.7731 0.10891 0.0
O212 O 0.63438 0.81252 0.15579 0.0
C213 C 0.71662 0.846 0.16091 0.0
O214 O 0.68299 0.87117 1.02848 0.0
O215 O 0.64757 0.84073 0.05129 0.0
C216 C 0.75378 0.88648 0.94036 0.0
C217 C 0.74143 0.91459 0.8561 0.0
C218 C 0.72075 0.90007 0.88451 0.0
C219 C 0.72701 0.88569 0.92531 0.0
C220 C 0.77463 0.90141 0.91321 0.0
C221 C 0.76854 0.91519 0.87066 0.0
C222 C 0.75834 0.87227 0.98577 0.0
C223 C 0.72579 0.78349 0.06245 0.0
C224 C 0.68212 0.79863 0.97286 0.0
C225 C 0.63295 0.7692 0.19617 0.0
C226 C 0.64855 0.73985 0.27678 0.0
C227 C 0.64389 0.72486 0.23001 0.0
C228 C 0.63586 0.73937 0.19017 0.0
C229 C 0.63627 0.78393 0.244 0.0
C230 C 0.644 0.76933 0.28398 0.0
C231 C 0.63075 0.78479 0.15069 0.0
H232 H 0.69973 0.89922 0.87438 0.0
H233 H 0.71082 0.87377 0.94511 0.0
H234 H 0.79545 0.90209 0.92438 0.0
H235 H 0.78507 0.92555 0.84852 0.0
H236 H 0.64685 0.70202 0.2241 0.0
H237 H 0.63321 0.72743 0.15383 0.0
H238 H 0.63408 0.80686 0.24998 0.0
H239 H 0.64732 0.7812 0.32006 0.0
Dy240 Dy 0.39464 0.47143 0.27163 0.0
Dy241 Dy 0.4218 0.41632 0.30916 0.0
C242 C 0.38118 0.41051 0.2106 0.0
O243 O 0.3787 0.46943 0.35524 0.0
O244 O 0.4186 0.45233 0.37165 0.0
O245 O 0.35662 0.494 0.27535 0.0
O246 O 0.39408 0.51206 0.23927 0.0
O247 O 0.4569 0.44598 0.29452 0.0
O248 O 0.43419 0.48833 0.29766 0.0
O249 O 0.44206 0.41275 0.23052 0.0
O250 O 0.42538 0.45461 0.20453 0.0
O251 O 0.4538 0.38782 0.32501 0.0
O252 O 0.41468 0.38894 0.37159 0.0
C253 C 0.39673 0.46693 0.38816 0.0
O254 O 0.37845 0.43823 0.21641 0.0
O255 O 0.39284 0.39711 0.24637 0.0
C256 C 0.35297 0.51547 0.19903 0.0
C257 C 0.3333 0.50875 0.10194 0.0
C258 C 0.31895 0.49623 0.14297 0.0
C259 C 0.32844 0.49996 0.1914 0.0
C260 C 0.36582 0.53009 0.15893 0.0
C261 C 0.35603 0.52676 0.1107 0.0
C262 C 0.36714 0.51293 0.24547 0.0
C263 C 0.45704 0.47366 0.29177 0.0
C264 C 0.44061 0.43114 0.19607 0.0
C265 C 0.45621 0.38807 0.41558 0.0
C266 C 0.48864 0.40205 0.50089 0.0
C267 C 0.46649 0.41922 0.49198 0.0
C268 C 0.45056 0.41232 0.45032 0.0
C269 C 0.47809 0.37072 0.42476 0.0
C270 C 0.49385 0.37743 0.46678 0.0
C271 C 0.44074 0.38176 0.36847 0.0
H272 H 0.30133 0.48235 0.13693 0.0
H273 H 0.31751 0.48918 0.22197 0.0
H274 H 0.3845 0.54249 0.16388 0.0
H275 H 0.36757 0.53643 0.07934 0.0
H276 H 0.46119 0.43796 0.51764 0.0
H277 H 0.43383 0.42616 0.44532 0.0
H278 H 0.48326 0.35199 0.39896 0.0
H279 H 0.51059 0.36357 0.47196 0.0
Dy280 Dy 0.77397 0.1417 0.49824 0.0
Dy281 Dy 0.82704 0.17552 0.54162 0.0
C282 C 0.83482 0.12237 0.45186 0.0
O283 O 0.77383 0.12838 0.57875 0.0
O284 O 0.79581 0.16809 0.60946 0.0
O285 O 0.74732 0.10466 0.49781 0.0
O286 O 0.73749 0.14071 0.45734 0.0
O287 O 0.79774 0.20938 0.53309 0.0
O288 O 0.75954 0.18155 0.54279 0.0
O289 O 0.82992 0.1907 0.46313 0.0
O290 O 0.79094 0.1687 0.43319 0.0
O291 O 0.85539 0.2106 0.55413 0.0
O292 O 0.85718 0.1733 0.59641 0.0
C293 C 0.77896 0.14642 0.61771 0.0
O294 O 0.80839 0.11656 0.45686 0.0
O295 O 0.84638 0.14176 0.48284 0.0
C296 C 0.73333 0.09501 0.41531 0.0
C297 C 0.74284 0.07069 0.3144 0.0
C298 C 0.7598 0.06378 0.35128 0.0
C299 C 0.75514 0.0759 0.40139 0.0
C300 C 0.71484 0.09975 0.37954 0.0
C301 C 0.71954 0.08758 0.32925 0.0
C302 C 0.7331 0.11365 0.46307 0.0
C303 C 0.77102 0.20618 0.53421 0.0
C304 C 0.81296 0.18576 0.42706 0.0
C305 C 0.85831 0.21854 0.64216 0.0
C306 C 0.84528 0.25148 0.73556 0.0
C307 C 0.82586 0.24743 0.69963 0.0
C308 C 0.83226 0.23101 0.65353 0.0
C309 C 0.87792 0.22271 0.67773 0.0
C310 C 0.8714 0.23903 0.72431 0.0
C311 C 0.86385 0.20028 0.59412 0.0
H312 H 0.77777 0.05066 0.34054 0.0
H313 H 0.76983 0.07183 0.42811 0.0
H314 H 0.69803 0.1145 0.38946 0.0
H315 H 0.70629 0.09328 0.30111 0.0
H316 H 0.80542 0.25625 0.70782 0.0
H317 H 0.81662 0.22771 0.62698 0.0
H318 H 0.89801 0.21306 0.66982 0.0
H319 H 0.88666 0.2418 0.75171 0.0
Dy320 Dy 0.93885 0.59757 0.17349 0.0
Dy321 Dy 0.91323 0.53972 0.12517 0.0
C322 C 0.96924 0.53837 0.17481 0.0
O323 O 0.96675 0.5874 0.10159 0.0
O324 O 0.93723 0.55837 0.0567 0.0
O325 O 0.97211 0.6271 0.18753 0.0
O326 O 0.92985 0.6389 0.21315 0.0
O327 O 0.88257 0.57316 0.11933 0.0
O328 O 0.91331 0.60894 0.11078 0.0
O329 O 0.91189 0.53282 0.20822 0.0
O330 O 0.91481 0.5788 0.24242 0.0
O331 O 0.87627 0.5139 0.13063 0.0
O332 O 0.91216 0.49937 0.08048 0.0
C333 C 0.95987 0.5746 0.05802 0.0
O334 O 0.96393 0.56347 0.19937 0.0
O335 O 0.95573 0.5284 0.13642 0.0
C336 C 0.96411 0.65365 0.26641 0.0
C337 C 0.9774 0.66861 0.36636 0.0
C338 C 0.97509 0.63983 0.34826 0.0
C339 C 0.96847 0.63238 0.29861 0.0
C340 C 0.9669 0.68246 0.28395 0.0
C341 C 0.97363 0.68996 0.33388 0.0
C342 C 0.95595 0.64543 0.2152 0.0
C343 C 0.89003 0.59673 0.0993 0.0
C344 C 0.91029 0.55137 0.24836 0.0
C345 C 0.86921 0.48746 0.05409 0.0
C346 C 0.86244 0.46897 0.95387 0.0
C347 C 0.86284 0.49834 0.96863 0.0
C348 C 0.86635 0.50764 1.01909 0.0
C349 C 0.86281 0.45877 1.04178 0.0
C350 C 0.85894 0.4495 0.99138 0.0
C351 C 0.88624 0.49473 0.09544 0.0
H352 H 0.97823 0.62315 0.37278 0.0
H353 H 0.96643 0.61002 0.28548 0.0
H354 H 0.96353 0.69906 0.25938 0.0
H355 H 0.97524 0.71227 0.34753 0.0
H356 H 0.86531 0.51377 0.94035 0.0
H357 H 0.87103 0.52997 1.02867 0.0
H358 H 0.86461 0.44313 0.06902 0.0
H359 H 0.85809 0.4268 0.98048 0.0
Dy360 Dy 0.17036 0.1713 0.05613 0.0
Dy361 Dy 0.21545 0.13031 0.98651 0.0
C362 C 0.23022 0.19449 1.01639 0.0
O363 O 0.17377 0.19 0.98069 0.0
O364 O 0.20107 0.15735 0.92794 0.0
O365 O 0.15714 0.21341 0.08692 0.0
O366 O 0.13894 0.17669 0.12129 0.0
O367 O 0.17383 0.11209 0.96868 0.0
O368 O 0.14557 0.14998 0.9905 0.0
O369 O 0.22976 0.13755 0.06521 0.0
O370 O 0.18762 0.14122 0.10734 0.0
O371 O 0.22899 0.08655 0.97658 0.0
O372 O 0.25186 0.11932 0.9368 0.0
C373 C 0.18576 0.18058 0.93534 0.0
O374 O 0.21124 0.19412 0.05534 0.0
O375 O 0.23495 0.1724 0.98326 0.0
C376 C 0.1496 0.21838 0.17857 0.0
C377 C 0.16228 0.24606 0.2759 0.0
C378 C 0.16912 0.25886 0.22991 0.0
C379 C 0.16287 0.24536 0.18236 0.0
C380 C 0.14262 0.20555 0.22456 0.0
C381 C 0.14876 0.21919 0.27234 0.0
C382 C 0.14297 0.20439 0.12696 0.0
C383 C 0.15271 0.12704 0.95861 0.0
C384 C 0.2143 0.13857 0.10854 0.0
C385 C 0.2483 0.07514 0.89157 0.0
C386 C 0.24327 0.06438 0.78705 0.0
C387 C 0.22073 0.05944 0.82241 0.0
C388 C 0.2232 0.06511 0.87454 0.0
C389 C 0.27179 0.07576 0.85662 0.0
C390 C 0.26926 0.07055 0.80436 0.0
C391 C 0.24845 0.09205 0.9409 0.0
H392 H 0.17888 0.27974 0.23064 0.0
H393 H 0.16838 0.25632 0.14835 0.0
H394 H 0.13232 0.18492 0.22373 0.0
H395 H 0.14309 0.20851 0.30663 0.0
H396 H 0.20051 0.05471 0.80975 0.0
H397 H 0.20492 0.06447 0.90105 0.0
H398 H 0.29133 0.08355 0.86913 0.0
H399 H 0.28685 0.07447 0.77743 0.0
Dy400 Dy 0.56799 0.41513 0.79276 0.0
Dy401 Dy 0.59643 0.47187 0.74653 0.0
C402 C 0.53501 0.47136 0.78702 0.0
O403 O 0.55331 0.41004 0.71378 0.0
O404 O 0.56876 0.4533 0.68557 0.0
O405 O 0.53519 0.38519 0.81114 0.0
O406 O 0.57273 0.38522 0.84923 0.0
O407 O 0.6208 0.43745 0.70231 0.0
O408 O 0.60212 0.39662 0.73495 0.0
O409 O 0.61334 0.47053 0.82317 0.0
O410 O 0.57581 0.44821 0.85833 0.0
O411 O 0.63041 0.50195 0.74477 0.0
O412 O 0.59527 0.50873 0.70318 0.0
C413 C 0.55478 0.42883 0.67906 0.0
O414 O 0.53364 0.44362 0.78571 0.0
O415 O 0.55827 0.4846 0.79482 0.0
C416 C 0.53037 0.38467 0.90098 0.0
C417 C 0.50166 0.40014 0.99787 0.0
C418 C 0.49947 0.41658 0.9566 0.0
C419 C 0.5137 0.40902 0.90886 0.0
C420 C 0.53292 0.36836 0.94221 0.0
C421 C 0.51876 0.37605 0.99024 0.0
C422 C 0.54658 0.37806 0.85096 0.0
C423 C 0.61877 0.4097 0.70143 0.0
C424 C 0.59742 0.46491 0.86406 0.0
C425 C 0.63919 0.51249 0.65936 0.0
C426 C 0.66027 0.49521 0.55908 0.0
C427 C 0.66883 0.48169 0.59973 0.0
C428 C 0.65855 0.49038 0.64964 0.0
C429 C 0.6328 0.52781 0.6189 0.0
C430 C 0.64337 0.51921 0.56885 0.0
C431 C 0.62129 0.51453 0.70773 0.0
H432 H 0.4865 0.4352 0.96107 0.0
H433 H 0.51177 0.42242 0.8781 0.0
H434 H 0.54611 0.34991 0.93745 0.0
H435 H 0.52146 0.36331 1.02159 0.0
H436 H 0.68166 0.46303 0.59245 0.0
H437 H 0.66391 0.47801 0.67989 0.0
H438 H 0.61779 0.54468 0.6254 0.0
H439 H 0.63638 0.52964 0.53748 0.0
Dy440 Dy 0.32071 0.8291 0.54481 0.0
Dy441 Dy 0.27667 0.87145 0.50986 0.0
C442 C 0.26186 0.80708 0.51447 0.0
O443 O 0.32154 0.81799 0.45867 0.0
O444 O 0.28449 0.84296 0.43765 0.0
O445 O 0.33064 0.78566 0.55607 0.0
O446 O 0.35286 0.82065 0.59343 0.0
O447 O 0.31791 0.88737 0.47302 0.0
O448 O 0.34798 0.85193 0.48323 0.0
O449 O 0.26335 0.86393 0.59132 0.0
O450 O 0.30581 0.85872 0.61449 0.0
O451 O 0.26806 0.91646 0.51263 0.0
O452 O 0.23755 0.88489 0.49016 0.0
C453 C 0.30587 0.82644 0.42419 0.0
O454 O 0.27908 0.80811 0.54992 0.0
O455 O 0.25729 0.82971 0.49151 0.0
C456 C 0.33979 0.78049 0.64294 0.0
C457 C 0.32687 0.75561 0.7386 0.0
C458 C 0.31585 0.74424 0.6934 0.0
C459 C 0.32218 0.7564 0.64659 0.0
C460 C 0.35098 0.7918 0.68804 0.0
C461 C 0.3447 0.77955 0.73494 0.0
C462 C 0.34643 0.7934 0.59244 0.0
C463 C 0.34113 0.87361 0.45771 0.0
C464 C 0.27932 0.86222 0.62775 0.0
C465 C 0.24074 0.92676 0.44711 0.0
C466 C 0.24154 0.94919 0.35178 0.0
C467 C 0.25505 0.96379 0.39127 0.0
C468 C 0.25473 0.95258 0.43865 0.0
C469 C 0.22482 0.91398 0.40944 0.0
C470 C 0.22536 0.92498 0.36217 0.0
C471 C 0.24469 0.91178 0.49259 0.0
H472 H 0.30264 0.72547 0.69386 0.0
H473 H 0.31325 0.74669 0.61304 0.0
H474 H 0.36467 0.81021 0.68717 0.0
H475 H 0.35365 0.78905 0.76861 0.0
H476 H 0.26711 0.98291 0.38458 0.0
H477 H 0.26662 0.96328 0.46758 0.0
H478 H 0.21329 0.89441 0.41509 0.0
H479 H 0.21476 0.91318 0.33251 0.0
Dy480 Dy 0.95859 0.38283 0.69652 0.0
Dy481 Dy 0.91544 0.42211 0.64204 0.0
C482 C 0.89486 0.37751 0.73206 0.0
O483 O 0.97783 0.38893 0.61776 0.0
O484 O 0.93924 0.39458 0.5792 0.0
O485 O 0.97234 0.33954 0.69882 0.0
O486 O 0.99322 0.37533 0.73734 0.0
O487 O 0.95518 0.44735 0.64492 0.0
O488 O 0.97714 0.42541 0.70471 0.0
O489 O 0.91577 0.44343 0.72013 0.0
O490 O 0.93858 0.41102 0.76233 0.0
O491 O 0.902 0.46298 0.62302 0.0
O492 O 0.885 0.42461 0.58639 0.0
C493 C 0.96613 0.3925 0.57639 0.0
O494 O 0.91684 0.36285 0.71382 0.0
O495 O 0.88872 0.39995 0.70732 0.0
C496 C 0.99295 0.33246 0.77424 0.0
C497 C 0.00478 0.31579 0.8688 0.0
C498 C 0.98046 0.33052 0.86494 0.0
C499 C 0.97465 0.33899 0.81783 0.0
C500 C 0.01586 0.31549 0.77713 0.0
C501 C 0.02175 0.30711 0.82429 0.0
C502 C 0.99138 0.34769 0.72889 0.0
C503 C 0.97414 0.44678 0.67743 0.0
C504 C 0.92356 0.43416 0.76205 0.0
C505 C 0.89184 0.46583 0.53611 0.0
C506 C 0.89734 0.49584 0.44448 0.0
C507 C 0.91868 0.49625 0.47726 0.0
C508 C 0.91599 0.48157 0.52214 0.0
C509 C 0.87075 0.46498 0.50299 0.0
C510 C 0.87349 0.47954 0.45801 0.0
C511 C 0.88752 0.45241 0.58655 0.0
H512 H 0.96721 0.3376 0.8989 0.0
H513 H 0.95712 0.35251 0.81615 0.0
H514 H 0.03025 0.31051 0.74372 0.0
H515 H 0.04053 0.29561 0.8266 0.0
H516 H 0.93772 0.50773 0.46804 0.0
H517 H 0.93282 0.48281 0.54626 0.0
H518 H 0.85179 0.45337 0.51236 0.0
H519 H 0.85652 0.47847 0.43421 0.0
Dy520 Dy 0.32118 0.18381 0.35973 0.0
Dy521 Dy 0.26235 0.1639 0.41909 0.0
C522 C 0.27088 0.22422 0.38554 0.0
O523 O 0.32624 0.19939 0.44203 0.0
O524 O 0.28192 0.19318 0.4798 0.0
O525 O 0.35556 0.2125 0.3451 0.0
O526 O 0.35034 0.17487 0.29307 0.0
O527 O 0.2934 0.13995 0.4538 0.0
O528 O 0.33285 0.14605 0.3999 0.0
O529 O 0.2637 0.14102 0.34028 0.0
O530 O 0.2908 0.17347 0.30002 0.0
O531 O 0.22984 0.13251 0.42215 0.0
O532 O 0.22554 0.172 0.471 0.0
C533 C 0.30761 0.20287 0.48202 0.0
O534 O 0.29769 0.22357 0.37979 0.0
O535 O 0.25752 0.20062 0.37393 0.0
C536 C 0.35768 0.21871 0.25707 0.0
C537 C 0.34213 0.24822 0.17598 0.0
C538 C 0.33372 0.25785 0.22682 0.0
C539 C 0.34131 0.24324 0.26688 0.0
C540 C 0.36689 0.20958 0.20627 0.0
C541 C 0.35927 0.2243 0.16602 0.0
C542 C 0.36112 0.2005 0.2988 0.0
C543 C 0.31987 0.13637 0.44144 0.0
C544 C 0.27156 0.15345 0.29863 0.0
C545 C 0.21182 0.12908 0.5072 0.0
C546 C 0.21384 0.10197 0.59741 0.0
C547 C 0.22392 0.0882 0.55026 0.0
C548 C 0.22279 0.10153 0.50552 0.0
C549 C 0.19976 0.14187 0.55388 0.0
C550 C 0.20077 0.1284 0.59874 0.0
C551 C 0.21659 0.14578 0.46236 0.0
H552 H 0.32112 0.27664 0.23565 0.0
H553 H 0.33354 0.25076 0.30552 0.0
H554 H 0.37913 0.19053 0.19767 0.0
H555 H 0.36614 0.21656 0.12703 0.0
H556 H 0.23449 0.06808 0.54828 0.0
H557 H 0.2322 0.09091 0.47019 0.0
H558 H 0.19106 0.16298 0.55613 0.0
H559 H 0.19272 0.13932 0.63486 0.0
Dy560 Dy 0.57883 0.58046 0.14864 0.0
Dy561 Dy 0.60763 0.52505 0.18126 0.0
C562 C 0.54424 0.52396 0.16527 0.0
O563 O 0.56007 0.58215 0.22862 0.0
O564 O 0.57907 0.54083 0.25209 0.0
O565 O 0.54625 0.60839 0.1344 0.0
O566 O 0.58528 0.60911 0.08764 0.0
O567 O 0.62916 0.5591 0.22751 0.0
O568 O 0.60595 0.59924 0.21439 0.0
O569 O 0.62303 0.52748 0.09799 0.0
O570 O 0.58288 0.54543 0.0837 0.0
O571 O 0.64435 0.50171 0.18994 0.0
O572 O 0.60412 0.48138 0.19939 0.0
C573 C 0.56308 0.56363 0.26237 0.0
O574 O 0.54349 0.5517 0.16515 0.0
O575 O 0.5674 0.51017 0.15481 0.0
C576 C 0.54369 0.60746 1.04348 0.0
C577 C 0.51432 0.59345 0.95387 0.0
C578 C 0.50894 0.57883 0.99834 0.0
C579 C 0.52329 0.58566 1.04213 0.0
C580 C 0.54958 0.62168 0.99881 0.0
C581 C 0.53528 0.61477 0.95488 0.0
C582 C 0.55887 0.61485 0.09077 0.0
C583 C 0.62182 0.58534 0.24312 0.0
C584 C 0.60467 0.53076 0.06605 0.0
C585 C 0.63715 0.46977 0.25369 0.0
C586 C 0.65218 0.45938 0.35056 0.0
C587 C 0.62454 0.46435 0.34345 0.0
C588 C 0.6171 0.46954 0.29557 0.0
C589 C 0.66448 0.46314 0.25991 0.0
C590 C 0.672 0.45811 0.30815 0.0
C591 C 0.63027 0.47963 0.20516 0.0
H592 H 0.49316 0.5623 0.99977 0.0
H593 H 0.51825 0.57381 0.07523 0.0
H594 H 0.56534 0.63823 0.99776 0.0
H595 H 0.54095 0.62607 0.92135 0.0
H596 H 0.60894 0.46647 0.37565 0.0
H597 H 0.59589 0.47487 0.29217 0.0
H598 H 0.68023 0.46326 0.228 0.0
H599 H 0.69345 0.45459 0.31283 0.0
Dy600 Dy 0.17075 0.82267 0.9071 0.0
Dy601 Dy 0.22533 0.85264 0.95837 0.0
C602 C 0.2247 0.78907 0.91456 0.0
O603 O 0.16728 0.80603 0.98543 0.0
O604 O 0.20731 0.82381 1.01801 0.0
O605 O 0.14197 0.7883 0.89196 0.0
O606 O 0.14035 0.82682 0.8533 0.0
O607 O 0.19031 0.88108 0.98757 0.0
O608 O 0.15232 0.85362 0.97077 0.0
O609 O 0.23469 0.86232 0.87705 0.0
O610 O 0.19986 0.83709 0.84044 0.0
O611 O 0.25406 0.88775 0.96141 0.0
O612 O 0.25865 0.85221 1.00699 0.0
C613 C 0.18435 0.80824 1.02184 0.0
O614 O 0.19852 0.78678 0.90897 0.0
O615 O 0.23739 0.81346 0.90896 0.0
C616 C 0.14027 0.78251 0.80388 0.0
C617 C 0.15452 0.74783 0.71297 0.0
C618 C 0.17446 0.75587 0.74648 0.0
C619 C 0.16746 0.7732 0.79121 0.0
C620 C 0.1202 0.77468 0.77038 0.0
C621 C 0.12737 0.75758 0.72479 0.0
C622 C 0.13378 0.79969 0.85286 0.0
C623 C 0.16461 0.87343 0.99943 0.0
C624 C 0.22311 0.85203 0.83637 0.0
C625 C 0.2673 0.89858 1.04423 0.0
C626 C 0.26473 0.93279 0.13755 0.0
C627 C 0.24914 0.93972 0.09847 0.0
C628 C 0.25029 0.92269 0.05225 0.0
C629 C 0.28388 0.89249 0.08216 0.0
C630 C 0.2824 0.90926 0.12857 0.0
C631 C 0.26604 0.8784 0.99869 0.0
H632 H 0.19561 0.74909 0.73764 0.0
H633 H 0.18337 0.77923 0.81617 0.0
H634 H 0.09916 0.7817 0.77942 0.0
H635 H 0.11176 0.75175 0.69899 0.0
H636 H 0.23522 0.95757 0.10445 0.0
H637 H 0.23707 0.92784 1.0237 0.0
H638 H 0.29693 0.87392 0.0769 0.0
H639 H 0.29384 0.90269 0.15851 0.0
Dy640 Dy 0.57931 0.95321 0.82157 0.0
Dy641 Dy 0.5578 0.89454 0.76967 0.0
C642 C 0.60363 0.89699 0.85068 0.0
O643 O 0.5809 0.95968 0.73845 0.0
O644 O 0.58455 0.9138 0.70485 0.0
O645 O 0.61425 0.98166 0.81394 0.0
O646 O 0.57863 0.99333 0.86734 0.0
O647 O 0.53126 0.92764 0.74382 0.0
O648 O 0.53649 0.96236 0.80887 0.0
O649 O 0.52866 0.90213 0.84077 0.0
O650 O 0.55512 0.93339 0.88848 0.0
O651 O 0.52629 0.8641 0.74927 0.0
O652 O 0.56952 0.85356 0.73147 0.0
C653 C 0.58643 0.94135 0.69882 0.0
O654 O 0.61076 0.92154 0.83375 0.0
O655 O 0.58182 0.88366 0.83444 0.0
C656 C 0.62176 0.00662 0.89114 0.0
C657 C 0.63194 0.02282 0.99076 0.0
C658 C 0.63444 0.04314 0.95455 0.0
C659 C 0.62857 0.03507 0.90461 0.0
C660 C 0.62579 0.98563 0.92383 0.0
C661 C 0.63086 0.99369 0.97385 0.0
C662 C 0.604 -0.0003 0.85089 0.0
C663 C 0.524 0.95205 0.76939 0.0
C664 C 0.53378 0.91551 0.88502 0.0
C665 C 0.53891 0.83778 0.67168 0.0
C666 C 0.5292 0.82223 0.56979 0.0
C667 C 0.53265 0.85106 0.58701 0.0
C668 C 0.53747 0.85878 0.6376 0.0
C669 C 0.53558 0.80897 0.6548 0.0
C670 C 0.53072 0.80119 0.60396 0.0
C671 C 0.54404 0.84625 0.72459 0.0
H672 H 0.63614 0.06564 0.9667 0.0
H673 H 0.62598 0.05135 0.87895 0.0
H674 H 0.62066 0.96353 0.91333 0.0
H675 H 0.62896 0.97735 1.00041 0.0
H676 H 0.53135 0.86764 0.56139 0.0
H677 H 0.54001 0.88115 0.65023 0.0
H678 H 0.53679 0.79258 0.68082 0.0
H679 H 0.52843 0.77882 0.59122 0.0
Dy680 Dy 0.27749 0.36228 0.96493 0.0
Dy681 Dy 0.32751 0.33088 0.89895 0.0
C682 C 0.33747 0.3724 1.00762 0.0
O683 O 0.27924 0.37678 0.88481 0.0
O684 O 0.2916 0.33359 0.85206 0.0
O685 O 0.25966 0.40338 0.98735 0.0
O686 O 0.23636 0.36481 1.00305 0.0
O687 O 0.29802 0.29537 0.91311 0.0
O688 O 0.25862 0.32067 0.93956 0.0
O689 O 0.3303 0.30944 0.96902 0.0
O690 O 0.29227 0.33051 1.01701 0.0
O691 O 0.35463 0.29797 0.86158 0.0
O692 O 0.35264 0.33835 0.82831 0.0
C693 C 0.27878 0.35688 0.84703 0.0
O694 O 0.31078 0.37628 1.01506 0.0
O695 O 0.34864 0.36018 0.96225 0.0
C696 C 0.23115 0.40455 0.06477 0.0
C697 C 0.23064 0.42197 0.16915 0.0
C698 C 0.24082 0.4405 0.13281 0.0
C699 C 0.24102 0.43186 0.08082 0.0
C700 C 0.21782 0.38765 0.10121 0.0
C701 C 0.21762 0.39631 0.15316 0.0
C702 C 0.23776 0.39257 1.01156 0.0
C703 C 0.27169 0.29643 0.92928 0.0
C704 C 0.31331 0.31252 1.01107 0.0
C705 C 0.35211 0.29556 0.77049 0.0
C706 C 0.33778 0.26594 0.67583 0.0
C707 C 0.32629 0.25782 0.72369 0.0
C708 C 0.33328 0.27232 0.77005 0.0
C709 C 0.36328 0.30402 0.72282 0.0
C710 C 0.35619 0.28958 0.67639 0.0
C711 C 0.3594 0.31134 0.82008 0.0
H712 H 0.25059 0.46058 0.14462 0.0
H713 H 0.25074 0.4457 0.05346 0.0
H714 H 0.2094 0.3668 0.08992 0.0
H715 H 0.20957 0.38175 0.18072 0.0
H716 H 0.31206 0.23987 0.72544 0.0
H717 H 0.32384 0.26525 0.80573 0.0
H718 H 0.37747 0.32202 0.72139 0.0
H719 H 0.36494 0.29729 0.6408 0.0
Dy720 Dy 0.91648 0.01941 0.19973 0.0
Dy721 Dy 0.9321 0.08178 0.15675 0.0
C722 C 0.88644 0.07711 0.25452 0.0
O723 O 0.89343 0.0186 0.12996 0.0
O724 O 0.92063 0.05103 0.08937 0.0
O725 O 0.88677 0.9858 0.21322 0.0
O726 O 0.92966 0.97997 0.22502 0.0
O727 O 0.97134 0.05876 0.15225 0.0
O728 O 0.95036 0.01695 0.13728 0.0
O729 O 0.94803 0.08688 0.23524 0.0
O730 O 0.94487 0.0403 0.25679 0.0
O731 O 0.95892 0.11818 0.14506 0.0
O732 O 0.92321 0.11163 0.10237 0.0
C733 C 0.90324 0.02916 0.08746 0.0
O734 O 0.89096 0.04964 0.25352 0.0
O735 O 0.89681 0.09268 0.2175 0.0
C736 C 0.89573 0.96741 0.28773 0.0
C737 C 0.87193 0.9673 0.38844 0.0
C738 C 0.88733 0.99094 0.37274 0.0
C739 C 0.89937 0.99083 0.32316 0.0
C740 C 0.88022 0.94365 0.30272 0.0
C741 C 0.86838 0.94353 0.35329 0.0
C742 C 0.90425 0.97105 0.23427 0.0
C743 C 0.97302 0.03117 0.14484 0.0
C744 C 0.95287 0.06724 0.26624 0.0
C745 C 0.96617 0.11942 0.05535 0.0
C746 C 0.99721 0.10354 0.96104 0.0
C747 C 0.00611 0.0963 1.00718 0.0
C748 C 0.99081 0.10408 0.05368 0.0
C749 C 0.95764 0.1274 1.00931 0.0
C750 C 0.9731 0.11967 0.9626 0.0
C751 C 0.94781 0.12316 0.10372 0.0
H752 H 0.88949 0.00996 0.39851 0.0
H753 H 0.91051 0.00973 0.3119 0.0
H754 H 0.87662 0.92577 0.27521 0.0
H755 H 0.85625 0.92524 0.36476 0.0
H756 H 0.02491 0.08448 1.00733 0.0
H757 H -0.00198 0.09729 0.08821 0.0
H758 H 0.9386 0.13882 1.00931 0.0
H759 H 0.96582 0.12562 0.92751 0.0
Dy760 Dy 0.21743 0.63168 0.44555 0.0
Dy761 Dy 0.17356 0.67135 0.40134 0.0
C762 C 0.15462 0.6311 0.49826 0.0
O763 O 0.23334 0.63824 0.36411 0.0
O764 O 0.19237 0.64238 0.33354 0.0
O765 O 0.2294 0.58758 0.43311 0.0
O766 O 0.25225 0.618 0.48086 0.0
O767 O 0.21479 0.69324 0.3937 0.0
O768 O 0.23828 0.67348 0.45293 0.0
O769 O 0.17687 0.69195 0.48035 0.0
O770 O 0.20434 0.66077 0.51595 0.0
O771 O 0.16087 0.71339 0.38753 0.0
O772 O 0.14175 0.67649 0.3498 0.0
C773 C 0.21923 0.63955 0.32469 0.0
O774 O 0.17678 0.61596 0.48271 0.0
O775 O 0.14788 0.65167 0.46981 0.0
C776 C 0.2455 0.57243 0.50775 0.0
C777 C 0.23806 0.55774 0.60834 0.0
C778 C 0.21563 0.55637 0.57868 0.0
C779 C 0.21932 0.56379 0.52844 0.0
C780 C 0.26847 0.56932 0.53473 0.0
C781 C 0.26476 0.56199 0.585 0.0
C782 C 0.24794 0.59114 0.46605 0.0
C783 C 0.23348 0.69491 0.42671 0.0
C784 C 0.18878 0.68374 0.51949 0.0
C785 C 0.15136 0.71801 0.30127 0.0
C786 C 0.16175 0.7457 0.20806 0.0
C787 C 0.16803 0.75929 0.25547 0.0
C788 C 0.16279 0.74582 0.3011 0.0
C789 C 0.14518 0.70425 0.25384 0.0
C790 C 0.15032 0.71784 0.20804 0.0
C791 C 0.14582 0.70418 0.35099 0.0
H792 H 0.19488 0.55319 0.59613 0.0
H793 H 0.20131 0.56575 0.50801 0.0
H794 H 0.2888 0.57576 0.5192 0.0
H795 H 0.28229 0.56306 0.60748 0.0
H796 H 0.17665 0.78071 0.25752 0.0
H797 H 0.16765 0.75741 0.33657 0.0
H798 H 0.13638 0.68291 0.25201 0.0
H799 H 0.14562 0.70632 0.17243 0.0
Dy800 Dy 0.5835 0.06346 0.30525 0.0
Dy801 Dy 0.53581 0.09819 0.26279 0.0
C802 C 0.52865 0.03104 0.26959 0.0
O803 O 0.5885 0.04399 0.22749 0.0
O804 O 0.55526 0.06982 0.19457 0.0
O805 O 0.60925 0.02945 0.32262 0.0
O806 O 0.60872 0.06982 0.36952 0.0
O807 O 0.57215 0.11799 0.21957 0.0
O808 O 0.60691 0.09163 0.24401 0.0
O809 O 0.53048 0.10651 0.34923 0.0
O810 O 0.5459 0.06349 0.36113 0.0
O811 O 0.51749 0.13907 0.2581 0.0
O812 O 0.49704 0.1001 0.2303 0.0
C813 C 0.5752 0.05056 0.18937 0.0
O814 O 0.55404 0.02875 0.28196 0.0
O815 O 0.5164 0.05569 0.27111 0.0
C816 C 0.61156 0.02689 0.41285 0.0
C817 C 0.6049 0.99581 0.50274 0.0
C818 C 0.58814 0.98982 0.46214 0.0
C819 C 0.59139 0.00509 0.41804 0.0
C820 C 0.62819 0.03298 0.45335 0.0
C821 C 0.62489 0.01782 0.49745 0.0
C822 C 0.61584 0.04289 0.36547 0.0
C823 C 0.59769 0.10915 0.2117 0.0
C824 C 0.53004 0.08487 0.37738 0.0
C825 C 0.49467 0.13948 0.18318 0.0
C826 C 0.49004 0.15165 0.08206 0.0
C827 C 0.51569 0.15398 0.10219 0.0
C828 C 0.51796 0.14788 0.15238 0.0
C829 C 0.46877 0.13885 0.16422 0.0
C830 C 0.46644 0.145 0.11395 0.0
C831 C 0.49779 0.12788 0.23207 0.0
H832 H 0.57203 0.9737 0.46481 0.0
H833 H 0.57798 -0.00015 0.38798 0.0
H834 H 0.64393 0.04952 0.45084 0.0
H835 H 0.63828 0.02324 0.52746 0.0
H836 H 0.53411 0.15952 0.07855 0.0
H837 H 0.53803 0.14862 0.16655 0.0
H838 H 0.4506 0.13228 0.18745 0.0
H839 H 0.44645 0.14304 0.09916 0.0
Dy840 Dy 0.22103 0.35014 0.55038 0.0
Dy841 Dy 0.16578 0.31791 0.59975 0.0
C842 C 0.16014 0.37012 0.52924 0.0
O843 O 0.21696 0.36656 0.63375 0.0
O844 O 0.19542 0.327 0.66101 0.0
O845 O 0.24586 0.38836 0.54748 0.0
O846 O 0.26067 0.34891 0.50616 0.0
O847 O 0.19532 0.28373 0.57302 0.0
O848 O 0.23316 0.31105 0.58287 0.0
O849 O 0.16397 0.30473 0.51557 0.0
O850 O 0.20644 0.32161 0.48313 0.0
O851 O 0.13636 0.28333 0.60764 0.0
O852 O 0.13558 0.31895 0.6658 0.0
C853 C 0.2113 0.34946 0.6701 0.0
O854 O 0.18695 0.3711 0.51879 0.0
O855 O 0.14811 0.35492 0.56517 0.0
C856 C 0.26761 0.39114 0.46434 0.0
C857 C 0.2629 0.41271 0.36988 0.0
C858 C 0.25368 0.42877 0.41528 0.0
C859 C 0.25619 0.41819 0.46228 0.0
C860 C 0.27904 0.37631 0.41887 0.0
C861 C 0.2766 0.387 0.37189 0.0
C862 C 0.26362 0.37665 0.51188 0.0
C863 C 0.22211 0.28655 0.56828 0.0
C864 C 0.18319 0.30697 0.47701 0.0
C865 C 0.13447 0.27276 0.69306 0.0
C866 C 0.14999 0.23953 0.76915 0.0
C867 C 0.16752 0.24227 0.72451 0.0
C868 C 0.15987 0.25871 0.68701 0.0
C869 C 0.11668 0.26994 0.73741 0.0
C870 C 0.12442 0.25341 0.77531 0.0
C871 C 0.12853 0.2923 0.65498 0.0
H872 H 0.24336 0.44882 0.41423 0.0
H873 H 0.24756 0.43041 0.49666 0.0
H874 H 0.28817 0.35557 0.41931 0.0
H875 H 0.28377 0.37426 0.33703 0.0
H876 H 0.18764 0.23256 0.71936 0.0
H877 H 0.17427 0.26103 0.65377 0.0
H878 H 0.09721 0.28095 0.74321 0.0
H879 H 0.11061 0.25173 0.80967 0.0
Dy880 Dy 0.88024 0.97078 0.76256 0.0
Dy881 Dy 0.92048 0.92495 0.8026 0.0
C882 C 0.87623 0.90611 0.71627 0.0
O883 O 0.88721 0.98624 0.84385 0.0
O884 O 0.89188 0.94275 0.8704 0.0
O885 O 0.838 0.98478 0.77485 0.0
O886 O 0.86808 0.00685 0.72584 0.0
O887 O 0.94159 0.96778 0.80934 0.0
O888 O 0.92029 0.99226 0.75306 0.0
O889 O 0.93933 0.92933 0.72331 0.0
O890 O 0.90695 0.95598 0.68973 0.0
O891 O 0.96149 0.91262 0.81562 0.0
O892 O 0.92641 0.89164 0.85312 0.0
C893 C 0.88893 0.97036 0.8816 0.0
O894 O 0.862 0.92762 0.73995 0.0
O895 O 0.89956 0.89958 0.73523 0.0
C896 C 0.82525 -0.00139 0.69695 0.0
C897 C 0.82013 0.98794 0.59273 0.0
C898 C 0.81957 0.9653 0.62349 0.0
C899 C 0.82153 0.97059 0.67567 0.0
C900 C 0.82174 0.02144 0.66764 0.0
C901 C 0.81908 0.01608 0.61535 0.0
C902 C 0.84201 0.00297 0.74005 0.0
C903 C 0.94168 0.98769 0.77731 0.0
C904 C 0.93028 0.94143 0.68496 0.0
C905 C 0.96606 0.90211 0.90102 0.0
C906 C 0.99484 0.91414 0.99121 0.0
C907 C 0.97884 0.93509 0.97317 0.0
C908 C 0.96465 0.92916 0.92889 0.0
C909 C 0.98207 0.88127 0.91877 0.0
C910 C 0.99621 0.88715 0.96293 0.0
C911 C 0.9531 0.89622 0.85141 0.0
H912 H 0.82085 0.94359 0.60631 0.0
H913 H 0.82391 0.95269 0.69772 0.0
H914 H 0.8248 0.04321 0.68341 0.0
H915 H 0.82016 0.03382 0.59169 0.0
H916 H 0.97708 0.95608 0.99358 0.0
H917 H 0.95279 0.94588 0.91607 0.0
H918 H 0.98408 0.86042 0.89787 0.0
H919 H 0.00872 0.87056 0.97437 0.0
Dy920 Dy 0.26789 0.65538 1.00269 0.0
Dy921 Dy 0.32492 0.68501 1.04238 0.0
C922 C 0.32825 0.63597 0.94837 0.0
O923 O 0.27172 0.63708 0.0776 0.0
O924 O 0.29706 0.6733 0.11278 0.0
O925 O 0.24357 0.61701 0.99447 0.0
O926 O 0.22749 0.65707 0.97606 0.0
O927 O 0.29521 0.71953 1.04377 0.0
O928 O 0.25651 0.693 0.05679 0.0
O929 O 0.32521 0.69845 0.96175 0.0
O930 O 0.28065 0.68667 0.94357 0.0
O931 O 0.35303 0.72105 1.04808 0.0
O932 O 0.35829 0.68497 0.09122 0.0
C933 C 0.27917 0.65212 0.11843 0.0
O934 O 0.30152 0.63732 0.94634 0.0
O935 O 0.34042 0.64733 0.9884 0.0
C936 C 0.21712 0.61518 0.92414 0.0
C937 C 0.21357 0.5913 0.82354 0.0
C938 C 0.22288 0.57485 0.86003 0.0
C939 C 0.22441 0.58661 0.91008 0.0
C940 C 0.20546 0.63074 0.88877 0.0
C941 C 0.20373 0.61887 0.83878 0.0
C942 C 0.22434 0.62933 0.97333 0.0
C943 C 0.26842 0.71775 1.05093 0.0
C944 C 0.30479 0.69924 0.9321 0.0
C945 C 0.3605 0.73139 0.13381 0.0
C946 C 0.34802 0.77109 0.21946 0.0
C947 C 0.33085 0.74729 0.20969 0.0
C948 C 0.33705 0.7278 0.16774 0.0
C949 C 0.37759 0.75551 0.14241 0.0
C950 C 0.37142 0.77529 0.18525 0.0
C951 C 0.36412 0.71196 0.08647 0.0
H952 H 0.23087 0.55367 0.84912 0.0
H953 H 0.23299 0.57386 0.93679 0.0
H954 H 0.19915 0.65261 0.8988 0.0
H955 H 0.19621 0.63183 0.8112 0.0
H956 H 0.31242 0.74366 0.23483 0.0
H957 H 0.32306 0.71009 0.16139 0.0
H958 H 0.39541 0.75917 0.11588 0.0
H959 H 0.385 0.79347 0.19198 0.0
Dy960 Dy 0.42626 0.09023 0.67426 0.0
Dy961 Dy 0.40317 0.0321 0.62271 0.0
C962 C 0.45695 0.02856 0.67721 0.0
O963 O 0.44794 0.08881 0.5948 0.0
O964 O 0.43826 0.04269 0.56311 0.0
O965 O 0.45755 0.12281 0.68451 0.0
O966 O 0.41653 0.12834 0.72374 0.0
O967 O 0.3937 0.06566 0.57446 0.0
O968 O 0.38702 0.10003 0.63895 0.0
O969 O 0.38813 0.0325 0.70654 0.0
O970 O 0.4159 0.06577 0.74362 0.0
O971 O 0.36176 0.01678 0.61625 0.0
O972 O 0.39684 0.98991 0.58714 0.0
C973 C 0.4515 0.06752 0.5588 0.0
O974 O 0.45611 0.05647 0.68905 0.0
O975 O 0.43895 0.01438 0.65092 0.0
C976 C 0.45381 0.14186 0.7699 0.0
C977 C 0.47221 0.14914 0.86804 0.0
C978 C 0.46758 0.12168 0.84475 0.0
C979 C 0.45874 0.11812 0.79598 0.0
C980 C 0.45847 0.16937 0.7926 0.0
C981 C 0.46768 0.173 0.84154 0.0
C982 C 0.44214 0.13731 0.72066 0.0
C983 C 0.38322 0.08994 0.59194 0.0
C984 C 0.39981 0.04325 0.74691 0.0
C985 C 0.35907 0.98854 0.54003 0.0
C986 C 0.36582 0.97381 0.43587 0.0
C987 C 0.36681 0.00263 0.45424 0.0
C988 C 0.36285 0.01003 0.50643 0.0
C989 C 0.35285 0.96069 0.52153 0.0
C990 C 0.35562 0.95347 0.46903 0.0
C991 C 0.37011 0.9934 0.58917 0.0
H992 H 0.47 0.10293 0.8648 0.0
H993 H 0.45514 0.09676 0.77907 0.0
H994 H 0.45458 0.18791 0.77295 0.0
H995 H 0.47097 0.19439 0.8589 0.0
H996 H 0.37449 0.01895 0.42992 0.0
H997 H 0.36681 0.03185 0.52037 0.0
H998 H 0.34942 0.94398 0.54726 0.0
H999 H 0.35397 0.93131 0.45505 0.0
Dy1000 Dy 0.67418 0.66446 0.55555 0.0
Dy1001 Dy 0.72165 0.63002 0.48067 0.0
C1002 C 0.73232 0.69422 0.5189 0.0
O1003 O 0.67604 0.68696 0.48526 0.0
O1004 O 0.7038 0.65791 0.4268 0.0
O1005 O 0.65666 0.70398 0.59057 0.0
O1006 O 0.64255 0.66436 0.62011 0.0
O1007 O 0.68167 0.60835 0.46119 0.0
O1008 O 0.65036 0.64286 0.4889 0.0
O1009 O 0.73746 0.6367 0.55868 0.0
O1010 O 0.69608 0.63651 0.60397 0.0
O1011 O 0.73979 0.5882 0.46929 0.0
O1012 O 0.7564 0.62245 0.42485 0.0
C1013 C 0.68706 0.67986 0.43848 0.0
O1014 O 0.71219 0.69228 0.55561 0.0
O1015 O 0.73887 0.67336 0.48401 0.0
C1016 C 0.64903 0.70491 0.68074 0.0
C1017 C 0.66009 0.73383 0.77712 0.0
C1018 C 0.68171 0.72501 0.74007 0.0
C1019 C 0.67627 0.71065 0.69275 0.0
C1020 C 0.62741 0.71344 0.71775 0.0
C1021 C 0.63284 0.72763 0.76525 0.0
C1022 C 0.64324 0.69221 0.62856 0.0
C1023 C 0.65868 0.62131 0.45483 0.0
C1024 C 0.72304 0.63636 0.60305 0.0
C1025 C 0.75406 0.57745 0.38151 0.0
C1026 C 0.74136 0.56547 0.28086 0.0
C1027 C 0.72262 0.55796 0.32123 0.0
C1028 C 0.72888 0.564 0.37154 0.0
C1029 C 0.77439 0.58063 0.34098 0.0
C1030 C 0.76803 0.5747 0.29061 0.0
C1031 C 0.75611 0.59508 0.42974 0.0
H1032 H 0.70292 0.72916 0.74773 0.0
H1033 H 0.69343 0.70442 0.66509 0.0
H1034 H 0.60624 0.70964 0.70955 0.0
H1035 H 0.6156 0.73442 0.79226 0.0
H1036 H 0.70203 0.55077 0.31395 0.0
H1037 H 0.71288 0.56115 0.40216 0.0
H1038 H 0.79391 0.59096 0.348 0.0
H1039 H 0.78269 0.58071 0.25974 0.0
Dy1040 Dy 0.06448 0.92194 0.29262 0.0
Dy1041 Dy 0.09538 0.97917 0.25027 0.0
C1042 C 0.03394 0.97968 0.28726 0.0
O1043 O 0.05206 0.91861 0.21271 0.0
O1044 O 0.06904 0.96166 0.18594 0.0
O1045 O 0.03054 0.89241 0.30478 0.0
O1046 O 0.0659 0.89092 0.34846 0.0
O1047 O 0.12017 0.94472 0.20763 0.0
O1048 O 0.09912 0.90374 0.23561 0.0
O1049 O 0.11043 0.97635 0.32813 0.0
O1050 O 0.07244 0.95324 0.36011 0.0
O1051 O 0.12953 0.00888 0.2531 0.0
O1052 O 0.09578 0.01687 0.20873 0.0
C1053 C 0.05476 0.93741 0.1782 0.0
O1054 O 0.03126 0.95195 0.28481 0.0
O1055 O 0.05727 0.99131 0.29874 0.0
C1056 C 0.02166 0.89137 0.39384 0.0
C1057 C 0.99068 0.90826 0.48755 0.0
C1058 C 0.99177 0.92547 0.44669 0.0
C1059 C 0.00725 0.91724 0.40057 0.0
C1060 C 0.02015 0.87378 0.43424 0.0
C1061 C 0.00475 0.88215 0.48076 0.0
C1062 C 0.03976 0.88448 0.34613 0.0
C1063 C 0.11676 0.917 0.20386 0.0
C1064 C 0.09372 0.97009 0.36766 0.0
C1065 C 0.14073 0.02206 0.16995 0.0
C1066 C 0.16495 0.00904 0.07028 0.0
C1067 C 0.17165 0.99315 0.10951 0.0
C1068 C 0.15976 -0.00029 0.15917 0.0
C1069 C 0.13629 0.03973 0.13156 0.0
C1070 C 0.14846 0.03327 0.08182 0.0
C1071 C 0.12148 0.02259 0.21646 0.0
H1072 H 0.98137 0.94576 0.45097 0.0
H1073 H 0.00838 0.93152 0.37044 0.0
H1074 H 0.03124 0.8539 0.43017 0.0
H1075 H 0.00403 0.86835 0.51163 0.0
H1076 H 0.18416 0.97428 0.10095 0.0
H1077 H 0.16364 0.98565 0.18796 0.0
H1078 H 0.12161 0.05689 0.13895 0.0
H1079 H 0.14291 0.04554 0.05153 0.0
Dy1080 Dy 0.83427 0.32112 1.05009 0.0
Dy1081 Dy 0.78926 0.36213 1.01718 0.0
C1082 C 0.77463 0.29575 1.02725 0.0
O1083 O 0.8319 0.30099 0.97178 0.0
O1084 O 0.80049 0.33196 0.94577 0.0
O1085 O 0.85636 0.28344 0.06305 0.0
O1086 O 0.86163 0.32273 0.11101 0.0
O1087 O 0.82578 0.37611 0.966 0.0
O1088 O 0.85837 0.34507 0.98419 0.0
O1089 O 0.7886 0.37106 0.10348 0.0
O1090 O 0.79942 0.32632 0.11271 0.0
O1091 O 0.77733 0.40611 1.02085 0.0
O1092 O 0.75044 0.37263 0.99088 0.0
C1093 C 0.81712 0.30965 0.93687 0.0
O1094 O 0.7997 0.2913 1.03847 0.0
O1095 O 0.76507 0.32153 1.02469 0.0
C1096 C 0.85645 0.27906 0.15284 0.0
C1097 C 0.84092 0.24774 0.24063 0.0
C1098 C 0.82122 0.25541 0.20848 0.0
C1099 C 0.82887 0.27062 0.16532 0.0
C1100 C 0.87612 0.27178 0.18502 0.0
C1101 C 0.86852 0.25643 0.22809 0.0
C1102 C 0.8646 0.29489 0.10618 0.0
C1103 C 0.84969 0.36374 0.95354 0.0
C1104 C 0.78722 0.34966 0.13198 0.0
C1105 C 0.75586 0.41373 0.94719 0.0
C1106 C 0.75915 0.42047 0.84248 0.0
C1107 C 0.7825 0.4255 0.86931 0.0
C1108 C 0.78084 0.42226 0.92144 0.0
C1109 C 0.73179 0.41271 0.922 0.0
C1110 C 0.73337 0.41641 0.86985 0.0
C1111 C 0.75614 0.39994 0.99488 0.0
H1112 H 0.79967 0.25007 0.21698 0.0
H1113 H 0.81308 0.27575 0.14155 0.0
H1114 H 0.89753 0.27781 0.17671 0.0
H1115 H 0.88446 0.25104 0.25134 0.0
H1116 H 0.80255 0.42908 0.84926 0.0
H1117 H 0.79966 0.42381 0.94027 0.0
H1118 H 0.71227 0.40653 0.94143 0.0
H1119 H 0.7149 0.41348 0.85008 0.0
Dy1120 Dy 0.45798 0.87357 0.18839 0.0
Dy1121 Dy 0.41437 0.91201 0.13505 0.0
C1122 C 0.39366 0.86985 0.23085 0.0
O1123 O 0.47627 0.87922 0.10823 0.0
O1124 O 0.4371 0.88438 0.07175 0.0
O1125 O 0.47186 0.83022 0.18888 0.0
O1126 O 0.49328 0.86576 0.22725 0.0
O1127 O 0.4537 0.9383 0.13686 0.0
O1128 O 0.47857 0.9152 0.19131 0.0
O1129 O 0.4155 0.93438 0.21132 0.0
O1130 O 0.4416 0.90482 0.25331 0.0
O1131 O 0.39979 0.95238 0.11611 0.0
O1132 O 0.38296 0.91347 0.08107 0.0
C1133 C 0.46397 0.88271 0.06743 0.0
O1134 O 0.41717 0.85628 0.22129 0.0
O1135 O 0.38833 0.89061 0.20141 0.0
C1136 C 0.49332 0.82273 0.26337 0.0
C1137 C 0.50375 0.80733 0.35985 0.0
C1138 C 0.47782 0.81779 0.35221 0.0
C1139 C 0.47262 0.8254 0.30412 0.0
C1140 C 0.51837 0.81018 0.26978 0.0
C1141 C 0.52355 0.80244 0.31777 0.0
C1142 C 0.49132 0.83814 0.2183 0.0
C1143 C 0.47432 0.93697 0.16572 0.0
C1144 C 0.42643 0.92777 0.2522 0.0
C1145 C 0.38847 0.9542 1.02982 0.0
C1146 C 0.39217 0.98263 0.93688 0.0
C1147 C 0.41245 0.98683 0.97167 0.0
C1148 C 0.41071 0.97282 1.01714 0.0
C1149 C 0.36827 0.94988 0.99503 0.0
C1150 C 0.37009 0.96378 0.94943 0.0
C1151 C 0.38499 0.94125 0.08058 0.0
H1152 H 0.46239 0.82233 0.38413 0.0
H1153 H 0.45332 0.83541 0.29971 0.0
H1154 H 0.53463 0.80829 0.23867 0.0
H1155 H 0.54368 0.79441 0.3228 0.0
H1156 H 0.42986 0.00093 0.96362 0.0
H1157 H 0.42671 0.97692 1.04274 0.0
H1158 H 0.35067 0.93611 1.0036 0.0
H1159 H 0.35372 0.96024 0.92451 0.0
Dy1160 Dy 0.83032 0.68525 0.85611 0.0
Dy1161 Dy 0.77244 0.66057 0.91018 0.0
C1162 C 0.77771 0.72242 0.88086 0.0
O1163 O 0.83258 0.70118 0.93983 0.0
O1164 O 0.78857 0.68998 0.97402 0.0
O1165 O 0.86331 0.71606 0.84506 0.0
O1166 O 0.86003 0.67974 0.78938 0.0
O1167 O 0.8047 0.63863 0.94625 0.0
O1168 O 0.84433 0.64795 0.89488 0.0
O1169 O 0.77579 0.6391 0.83058 0.0
O1170 O 0.80096 0.67418 0.79413 0.0
O1171 O 0.74477 0.625 0.92113 0.0
O1172 O 0.73177 0.66801 0.94827 0.0
C1173 C 0.81302 0.70233 0.97867 0.0
O1174 O 0.8045 0.72316 0.87672 0.0
O1175 O 0.76549 0.69822 0.86827 0.0
C1176 C 0.86497 0.72512 0.75819 0.0
C1177 C 0.84724 0.75604 0.68061 0.0
C1178 C 0.8386 0.7638 0.73213 0.0
C1179 C 0.84729 0.74852 0.77045 0.0
C1180 C 0.87449 0.718 0.70675 0.0
C1181 C 0.86581 0.73345 0.66824 0.0
C1182 C 0.86945 0.70577 0.79781 0.0
C1183 C 0.83136 0.636 0.93415 0.0
C1184 C 0.78299 0.65295 0.79039 0.0
C1185 C 0.71848 0.63052 0.99964 0.0
C1186 C 0.71514 0.60611 0.09312 0.0
C1187 C 0.7076 0.59003 1.04912 0.0
C1188 C 0.70913 0.60225 1.0026 0.0
C1189 C 0.72464 0.64699 1.04427 0.0
C1190 C 0.72306 0.63484 0.09059 0.0
C1191 C 0.72644 0.64072 0.94939 0.0
H1192 H 0.82482 0.78153 0.7428 0.0
H1193 H 0.83928 0.75452 0.8096 0.0
H1194 H 0.88778 0.69986 0.69621 0.0
H1195 H 0.87288 0.72716 0.62869 0.0
H1196 H 0.7015 0.56782 1.0504 0.0
H1197 H 0.70456 0.58916 0.9684 0.0
H1198 H 0.73223 0.66872 1.043 0.0
H1199 H 0.72954 0.64749 0.12384 0.0
Dy1200 Dy 0.07568 0.08664 0.65028 0.0
Dy1201 Dy 0.10457 0.03246 0.68615 0.0
C1202 C 0.04074 0.03024 0.67239 0.0
O1203 O 0.05629 0.09009 0.72953 0.0
O1204 O 0.07653 0.05033 0.75614 0.0
O1205 O 0.04379 0.11453 0.63276 0.0
O1206 O 0.08327 0.1137 0.58715 0.0
O1207 O 0.12623 0.06714 0.73042 0.0
O1208 O 0.103 0.10676 0.71449 0.0
O1209 O 0.11822 0.03214 0.60155 0.0
O1210 O 0.078 0.05023 0.58854 0.0
O1211 O 0.14205 0.00966 0.68936 0.0
O1212 O 0.10285 0.99094 0.7151 0.0
C1213 C 0.0599 0.07269 0.76477 0.0
O1214 O 0.04041 0.05776 0.66808 0.0
O1215 O 0.06363 0.01571 0.66648 0.0
C1216 C 0.04235 0.11239 0.54133 0.0
C1217 C 0.01397 0.09792 0.45064 0.0
C1218 C 0.00866 0.08301 0.49484 0.0
C1219 C 0.02254 0.09006 0.53915 0.0
C1220 C 0.04816 0.12693 0.497 0.0
C1221 C 0.03435 0.1198 0.45254 0.0
C1222 C 0.05705 0.12007 0.58908 0.0
C1223 C 0.11933 0.09375 0.74356 0.0
C1224 C 0.09931 0.03503 0.57059 0.0
C1225 C 0.13961 0.98673 0.76401 0.0
C1226 C 0.15919 0.98361 0.85947 0.0
C1227 C 0.14226 0.00609 0.85142 0.0
C1228 C 0.13243 0.00756 0.80413 0.0
C1229 C 0.15681 0.96429 0.77156 0.0
C1230 C 0.16646 0.96259 0.81959 0.0
C1231 C 0.12957 0.98972 0.71445 0.0
H1232 H 0.99334 0.06602 0.49562 0.0
H1233 H 0.01761 0.07796 0.57198 0.0
H1234 H 0.06351 0.1439 0.49662 0.0
H1235 H 0.04002 0.13133 0.41929 0.0
H1236 H 0.13632 0.02232 0.8821 0.0
H1237 H 0.11916 0.02499 0.79884 0.0
H1238 H 0.16263 0.94822 0.74061 0.0
H1239 H 0.17943 0.94506 0.82566 0.0
Dy1240 Dy 0.67038 0.31646 0.40643 0.0
Dy1241 Dy 0.72952 0.33674 0.44586 0.0
C1242 C 0.7202 0.27516 0.40128 0.0
O1243 O 0.66655 0.30046 0.48465 0.0
O1244 O 0.71091 0.30858 0.5075 0.0
O1245 O 0.63626 0.28734 0.39556 0.0
O1246 O 0.64096 0.32477 0.35299 0.0
O1247 O 0.69964 0.36079 0.50173 0.0
O1248 O 0.65853 0.35329 0.4658 0.0
O1249 O 0.72709 0.35807 0.37292 0.0
O1250 O 0.70088 0.32319 0.33753 0.0
O1251 O 0.76036 0.36979 0.45144 0.0
O1252 O 0.76875 0.32751 0.47221 0.0
C1253 C 0.68552 0.29807 0.51662 0.0
O1254 O 0.69345 0.27677 0.40784 0.0
O1255 O 0.73441 0.29813 0.3914 0.0
C1256 C 0.63431 0.28027 0.30602 0.0
C1257 C 0.6486 0.24816 0.21151 0.0
C1258 C 0.65471 0.23803 0.25749 0.0
C1259 C 0.64766 0.25385 0.30417 0.0
C1260 C 0.62812 0.29035 0.25999 0.0
C1261 C 0.63526 0.27452 0.21321 0.0
C1262 C 0.63069 0.2989 0.35461 0.0
C1263 C 0.67292 0.36413 0.50342 0.0
C1264 C 0.71953 0.34349 0.33172 0.0
C1265 C 0.78436 0.36718 0.524 0.0
C1266 C 0.78498 0.38814 0.62673 0.0
C1267 C 0.77927 0.40651 0.59026 0.0
C1268 C 0.77906 0.39614 0.53914 0.0
C1269 C 0.79346 0.34985 0.55952 0.0
C1270 C 0.79385 0.36033 0.61062 0.0
C1271 C 0.7765 0.35434 0.47427 0.0
H1272 H 0.66487 0.21778 0.25735 0.0
H1273 H 0.65329 0.24556 0.33872 0.0
H1274 H 0.61846 0.31086 0.26007 0.0
H1275 H 0.63073 0.28311 0.17821 0.0
H1276 H 0.77277 0.42818 0.6018 0.0
H1277 H 0.77268 0.4103 0.5124 0.0
H1278 H 0.79837 0.32768 0.54865 0.0
H1279 H 0.79924 0.34611 0.63814 0.0
C1280 C 0.10238 0.55792 0.54634 0.0
C1281 C 0.12413 0.53846 0.54348 0.0
C1282 C 0.08582 0.56419 0.59165 0.0
C1283 C 0.09019 0.5511 0.63585 0.0
H1284 H 0.09744 0.56782 0.51286 0.0
H1285 H 0.06988 0.57989 0.59202 0.0
S1286 S 0.14296 0.49658 0.64681 0.0
N1287 N 0.14874 0.50548 0.58759 0.0
N1288 N 0.11668 0.51597 0.67296 0.0
C1289 C 0.11136 0.53083 0.63314 0.0
C1290 C 0.12868 0.52502 0.58709 0.0
C1291 C 0.71834 0.90929 0.7759 0.0
C1292 C 0.73468 0.92608 0.80846 0.0
C1293 C 0.71275 0.91808 0.72906 0.0
C1294 C 0.72367 0.94382 0.71224 0.0
H1295 H 0.71086 0.8884 0.78539 0.0
H1296 H 0.70168 0.90337 0.70409 0.0
S1297 S 0.76493 0.9972 0.78531 0.0
N1298 N 0.75935 0.97109 0.82311 0.0
N1299 N 0.74962 0.98724 0.73317 0.0
C1300 C 0.73888 0.96159 0.74531 0.0
C1301 C 0.74434 0.95274 0.7937 0.0
C1302 C 0.3347 0.4614 0.97949 0.0
C1303 C 0.33428 0.48129 0.94296 0.0
C1304 C 0.33141 0.4702 1.03182 0.0
C1305 C 0.32812 0.4992 1.04893 0.0
H1306 H 0.33922 0.43924 0.96748 0.0
H1307 H 0.3337 0.45459 0.05888 0.0
S1308 S 0.32128 0.55879 0.96873 0.0
N1309 N 0.32689 0.53059 0.92733 0.0
N1310 N 0.321 0.54708 1.02601 0.0
C1311 C 0.32531 0.51885 1.01292 0.0
C1312 C 0.32832 0.50988 0.95972 0.0
C1313 C 0.73373 0.05212 0.22601 0.0
C1314 C 0.75192 0.06493 0.25965 0.0
C1315 C 0.73959 0.05243 0.17305 0.0
C1316 C 0.76347 0.06617 0.15245 0.0
H1317 H 0.71419 0.04327 0.2408 0.0
H1318 H 0.72428 0.04392 0.14846 0.0
S1319 S 0.81925 0.09954 0.22421 0.0
N1320 N 0.79605 0.08909 0.26876 0.0
N1321 N 0.80704 0.08947 0.16903 0.0
C1322 C 0.78292 0.07676 0.18553 0.0
C1323 C 0.77709 0.0763 0.23932 0.0
C1324 C 0.90092 0.44396 0.9024 0.0
C1325 C 0.87644 0.45942 0.90385 0.0
C1326 C 0.91708 0.43744 0.85662 0.0
C1327 C 0.90948 0.44635 0.81066 0.0
H1328 H 0.90791 0.43715 0.93713 0.0
H1329 H 0.93531 0.42478 0.85722 0.0
S1330 S 0.84741 0.48844 0.79512 0.0
N1331 N 0.84547 0.48405 0.85677 0.0
N1332 N 0.87597 0.47254 0.76987 0.0
C1333 C 0.8854 0.46281 0.81197 0.0
C1334 C 0.86878 0.46904 0.85876 0.0
C1335 C 0.24249 0.10019 0.72469 0.0
C1336 C 0.23785 0.07181 0.73606 0.0
C1337 C 0.23419 0.10967 0.68008 0.0
C1338 C 0.22092 0.09112 0.64521 0.0
H1339 H 0.2519 0.11545 0.75129 0.0
H1340 H 0.23834 0.1317 0.67273 0.0
S1341 S 0.20559 0.01429 0.65615 0.0
N1342 N 0.22015 0.02494 0.70881 0.0
N1343 N 0.20456 0.0427 0.62383 0.0
C1344 C 0.21668 0.06246 0.65553 0.0
C1345 C 0.22504 0.05285 0.7014 0.0
C1346 C 0.68011 0.48211 0.41757 0.0
C1347 C 0.66042 0.46129 0.40329 0.0
C1348 C 0.68131 0.49215 0.46895 0.0
C1349 C 0.66362 0.4808 0.50729 0.0
H1350 H 0.69272 0.49277 0.38872 0.0
H1351 H 0.69494 0.50992 0.47844 0.0
S1352 S 0.61246 0.42221 0.49093 0.0
N1353 N 0.62581 0.42686 0.43221 0.0
N1354 N 0.62858 0.44531 0.52904 0.0
C1355 C 0.64611 0.45784 0.49414 0.0
C1356 C 0.64453 0.44799 0.44194 0.0
C1357 C 0.22634 0.95382 0.26534 0.0
C1358 C 0.24768 0.95546 0.29786 0.0
C1359 C 0.23212 0.94938 0.21227 0.0
C1360 C 0.25946 0.94676 0.19006 0.0
H1361 H 0.20502 0.95337 0.28121 0.0
H1362 H 0.215 0.94534 0.18916 0.0
S1363 S 0.32267 0.95631 0.2575 0.0
N1364 N 0.29721 0.95858 0.30358 0.0
N1365 N 0.30797 0.95192 0.20345 0.0
C1366 C 0.28093 0.95223 0.22164 0.0
C1367 C 0.27508 0.95625 0.27573 0.0
C1368 C 0.58158 0.0546 0.09607 0.0
C1369 C 0.5877 0.04058 0.13822 0.0
C1370 C 0.5973 0.05 1.04927 0.0
C1371 C 0.61987 0.0314 1.04295 0.0
H1372 H 0.56507 0.06987 0.09941 0.0
H1373 H 0.59113 0.06064 1.01746 0.0
S1374 S 0.64406 0.98875 0.14091 0.0
N1375 N 0.61706 0.00595 0.17001 0.0
N1376 N 0.64762 -0.00106 0.08236 0.0
C1377 C 0.62616 0.01713 0.08461 0.0
C1378 C 0.60973 0.02117 0.13202 0.0
C1379 C 0.21894 0.4236 0.2635 0.0
C1380 C 0.2387 0.42597 0.22169 0.0
C1381 C 0.22707 0.421 0.31233 0.0
C1382 C 0.2551 0.42063 0.32063 0.0
H1383 H 0.19722 0.42227 0.25788 0.0
H1384 H 0.21141 0.41732 0.34299 0.0
S1385 S 0.31443 0.42633 0.22399 0.0
N1386 N 0.28731 0.4281 0.19167 0.0
N1387 N 0.30243 0.42354 0.28404 0.0
C1388 C 0.27494 0.42403 0.27964 0.0
C1389 C 0.26674 0.42674 0.22999 0.0
C1390 C 0.83042 0.96474 0.45125 0.0
C1391 C 0.85905 0.96876 0.44131 0.0
C1392 C 0.81733 0.97134 0.50052 0.0
C1393 C 0.83265 0.98244 0.54032 0.0
H1394 H 0.818 0.95754 0.42051 0.0
H1395 H 0.79527 0.96828 0.50732 0.0
S1396 S 0.90817 0.99431 0.53492 0.0
N1397 N 0.90241 0.98198 0.47623 0.0
N1398 N 0.87769 0.9953 0.56813 0.0
C1399 C 0.86129 0.9855 0.53121 0.0
C1400 C 0.87457 0.97835 0.4818 0.0
C1401 C 0.2401 0.59144 0.68481 0.0
C1402 C 0.23277 0.56415 0.66393 0.0
C1403 C 0.23314 0.60009 0.73622 0.0
C1404 C 0.21855 0.58177 0.7687 0.0
H1405 H 0.25086 0.60649 0.6609 0.0
H1406 H 0.23959 0.62119 0.75078 0.0
S1407 S 0.19483 0.50805 0.73269 0.0
N1408 N 0.21027 0.51878 0.67897 0.0
N1409 N 0.19711 0.53506 0.77671 0.0
C1410 C 0.21115 0.55434 0.74844 0.0
C1411 C 0.21816 0.54556 0.69567 0.0
C1412 C 0.40192 0.94255 0.3901 0.0
C1413 C 0.38258 0.96418 0.38847 0.0
C1414 C 0.4187 0.93285 0.34664 0.0
C1415 C 0.41648 0.94425 0.30003 0.0
H1416 H 0.40397 0.93276 0.42519 0.0
H1417 H 0.43227 0.91524 0.34914 0.0
S1418 S 0.37532 0.00718 0.27962 0.0
N1419 N 0.36598 0.00042 0.33923 0.0
N1420 N 0.39856 0.98307 0.25761 0.0
C1421 C 0.39976 0.96832 0.29943 0.0
C1422 C 0.38235 0.97793 0.34357 0.0
C1423 C 0.73441 0.56868 0.14005 0.0
C1424 C 0.71747 0.59257 0.14069 0.0
C1425 C 0.74124 0.5588 0.18579 0.0
C1426 C 0.73085 0.57228 0.23311 0.0
H1427 H 0.74372 0.55865 0.1041 0.0
H1428 H 0.75546 0.54132 0.18421 0.0
S1429 S 0.68602 0.63558 0.25487 0.0
N1430 N 0.69016 0.62896 0.19213 0.0
N1431 N 0.70315 0.61064 0.27816 0.0
C1432 C 0.71315 0.59551 0.23414 0.0
C1433 C 0.70636 0.60558 0.18783 0.0
C1434 C 0.18735 0.01 0.98152 0.0
C1435 C 0.16926 0.99681 1.01708 0.0
C1436 C 0.18664 0.00252 0.92904 0.0
C1437 C 0.16746 0.98229 0.91112 0.0
H1438 H 0.20083 0.02727 0.99416 0.0
H1439 H 0.19952 0.01414 0.90212 0.0
S1440 S 0.11713 0.94056 0.98938 0.0
N1441 N 0.13329 0.96109 1.03149 0.0
N1442 N 0.13145 0.94782 0.93252 0.0
C1443 C 0.15074 0.96754 0.94642 0.0
C1444 C 0.1517 0.97475 0.99971 0.0
C1445 C 0.78738 0.42277 0.70396 0.0
C1446 C 0.77784 0.39668 0.68147 0.0
C1447 C 0.78019 0.43114 0.75577 0.0
C1448 C 0.76299 0.41382 0.78645 0.0
H1449 H 0.80085 0.43651 0.68157 0.0
H1450 H 0.78852 0.45102 0.77221 0.0
S1451 S 0.73165 0.34404 0.74456 0.0
N1452 N 0.7492 0.35435 0.69258 0.0
N1453 N 0.73651 0.36945 0.79026 0.0
C1454 C 0.75283 0.38798 0.76389 0.0
C1455 C 0.7601 0.37954 0.71132 0.0
C1456 C 0.12044 0.36733 0.47428 0.0
C1457 C 0.14368 0.3822 0.49139 0.0
C1458 C 0.10875 0.37418 0.42999 0.0
C1459 C 0.11985 0.39609 0.40054 0.0
H1460 H 0.11196 0.34937 0.49381 0.0
H1461 H 0.09093 0.36198 0.4186 0.0
S1462 S 0.17936 0.44304 0.43173 0.0
N1463 N 0.17608 0.42123 0.47759 0.0
N1464 N 0.15512 0.43333 0.39382 0.0
C1465 C 0.14272 0.41155 0.41817 0.0
C1466 C 0.15429 0.40484 0.46361 0.0
C1467 C 0.8853 0.8865 0.61914 0.0
C1468 C 0.86693 0.89306 0.66395 0.0
C1469 C 0.8761 0.88072 0.56856 0.0
C1470 C 0.84782 0.88111 0.5593 0.0
H1471 H 0.9072 0.88676 0.6228 0.0
H1472 H 0.89144 0.87668 0.53636 0.0
S1473 S 0.79068 0.89024 0.66431 0.0
N1474 N 0.81865 0.8948 0.69481 0.0
N1475 N 0.80162 0.88425 0.60315 0.0
C1476 C 0.82939 0.88556 0.60457 0.0
C1477 C 0.83874 0.89139 0.6554 0.0
C1478 C 0.33652 0.62973 0.85197 0.0
C1479 C 0.34482 0.62441 0.90034 0.0
C1480 C 0.35076 0.61839 0.80552 0.0
C1481 C 0.37353 0.60066 0.80552 0.0
H1482 H 0.31867 0.64274 0.84992 0.0
H1483 H 0.34318 0.62255 0.76962 0.0
S1484 S 0.4042 0.58071 0.92128 0.0
N1485 N 0.37832 0.60149 0.94461 0.0
N1486 N 0.40394 0.57879 0.85845 0.0
C1487 C 0.38224 0.59561 0.85366 0.0
C1488 C 0.36829 0.60786 0.90069 0.0
C1489 C 0.61231 0.13546 0.07313 0.0
C1490 C 0.63575 0.12055 1.04963 0.0
C1491 C 0.60158 0.13277 0.12525 0.0
C1492 C 0.61311 0.11478 0.15845 0.0
H1493 H 0.6022 0.14983 0.05131 0.0
H1494 H 0.58367 0.14513 0.13955 0.0
S1495 S 0.67462 0.07024 0.11746 0.0
N1496 N 0.67013 0.08652 0.06603 0.0
N1497 N 0.64989 0.08147 0.16136 0.0
C1498 C 0.63652 0.09969 0.13546 0.0
C1499 C 0.64762 0.1025 0.08242 0.0
C1500 C 0.13837 0.60324 0.63542 0.0
C1501 C 0.11974 0.62293 0.66346 0.0
C1502 C 0.14853 0.60565 0.58289 0.0
C1503 C 0.14078 0.62775 0.55363 0.0
H1504 H 0.1448 0.58517 0.65381 0.0
H1505 H 0.16267 0.58961 0.56484 0.0
S1506 S 0.09619 0.68798 0.60961 0.0
N1507 N 0.09671 0.66765 0.65743 0.0
N1508 N 0.11512 0.67165 0.5608 0.0
C1509 C 0.12304 0.6482 0.58177 0.0
C1510 C 0.11287 0.64594 0.63544 0.0
C1511 C 0.63947 0.90292 0.91441 0.0
C1512 C 0.61723 0.88719 0.89487 0.0
C1513 C 0.65124 0.89568 0.95826 0.0
C1514 C 0.64154 0.8722 0.98486 0.0
H1515 H 0.64809 0.92103 0.89555 0.0
H1516 H 0.66855 0.90835 0.97073 0.0
S1517 S 0.5839 0.82352 0.94956 0.0
N1518 N 0.58594 0.84685 0.90618 0.0
N1519 N 0.60815 0.833 0.98752 0.0
C1520 C 0.61916 0.85633 0.96592 0.0
C1521 C 0.60713 0.86377 0.92127 0.0
C1522 C 0.35551 0.37338 0.15026 0.0
C1523 C 0.37385 0.39679 0.15733 0.0
C1524 C 0.34508 0.36519 0.10174 0.0
C1525 C 0.35325 0.37864 0.05601 0.0
H1526 H 0.34765 0.36242 0.18313 0.0
H1527 H 0.32948 0.34859 0.10072 0.0
S1528 S 0.40066 0.44115 0.05182 0.0
N1529 N 0.39857 0.43405 0.1123 0.0
N1530 N 0.38137 0.41678 1.02268 0.0
C1531 C 0.37226 0.40129 0.06214 0.0
C1532 C 0.38185 0.41062 0.11182 0.0
C1533 C 0.84348 0.08291 0.38252 0.0
C1534 C 0.85048 0.10974 0.40371 0.0
C1535 C 0.85425 0.07373 0.33331 0.0
C1536 C 0.87233 0.0909 0.30341 0.0
H1537 H 0.82928 0.06917 0.40349 0.0
H1538 H 0.84859 0.05248 0.31816 0.0
S1539 S 0.89543 0.17322 0.34326 0.0
N1540 N 0.87503 0.15424 0.3827 0.0
N1541 N 0.87793 0.14225 0.35801 0.0
C1542 C 0.88106 0.11913 0.31954 0.0
C1543 C 0.86915 0.12802 0.36939 0.0
C1544 C 0.8871 0.62567 1.02341 0.0
C1545 C 0.87472 0.60642 0.05716 0.0
C1546 C 0.87379 0.63373 0.98168 0.0
C1547 C 0.8474 0.62302 0.97186 0.0
H1548 H 0.90734 0.63462 1.0291 0.0
H1549 H 0.88386 0.64931 0.95811 0.0
S1550 S 0.80636 0.57091 1.04667 0.0
N1551 N 0.83468 0.57608 0.07612 0.0
N1552 N 0.8099 0.59119 0.99846 0.0
C1553 C 0.83506 0.60331 1.00461 0.0
C1554 C 0.84861 0.59503 1.0469 0.0
C1555 C 0.14381 0.08809 0.824 0.0
C1556 C 0.12777 0.10563 0.79736 0.0
C1557 C 0.14985 0.09466 0.87549 0.0
C1558 C 0.14114 0.11982 0.90555 0.0
H1559 H 0.15184 0.06826 0.80509 0.0
H1560 H 0.16182 0.07942 0.8919 0.0
S1561 S 0.09858 0.17455 0.85691 0.0
N1562 N 0.10268 0.15012 0.80773 0.0
N1563 N 0.11512 0.16311 0.90295 0.0
C1564 C 0.12505 0.13801 0.87994 0.0
C1565 C 0.11829 0.13092 0.82691 0.0
C1566 C 0.63096 0.37004 0.56872 0.0
C1567 C 0.65884 0.37653 0.55379 0.0
C1568 C 0.61854 0.37868 0.61838 0.0
C1569 C 0.63351 0.39391 0.6555 0.0
H1570 H 0.61861 0.35808 0.54196 0.0
H1571 H 0.59676 0.37441 0.62706 0.0
S1572 S 0.70715 0.41519 0.63814 0.0
N1573 N 0.70107 0.39867 0.58232 0.0
N1574 N 0.67768 0.41446 0.67439 0.0
C1575 C 0.66134 0.40007 0.6415 0.0
C1576 C 0.67399 0.39147 0.59124 0.0
C1577 C 0.3815 0.87115 0.38255 0.0
C1578 C 0.35356 0.87626 0.40158 0.0
C1579 C 0.39243 0.86875 0.32897 0.0
C1580 C 0.3773 0.86667 0.28445 0.0
H1581 H 0.39616 0.86989 0.4106 0.0
H1582 H 0.41464 0.86808 0.32227 0.0
S1583 S 0.27493 0.85882 0.32687 0.0
N1584 N 0.3024 0.87532 0.37695 0.0
N1585 N 0.30307 0.84884 0.26297 0.0
C1586 C 0.34793 0.86475 0.29836 0.0
C1587 C 0.33561 0.87686 0.3634 0.0
C1588 C 0.86377 0.39216 0.81681 0.0
C1589 C 0.88182 0.37248 0.78737 0.0
C1590 C 0.85496 0.38981 0.8699 0.0
C1591 C 0.86336 0.36763 0.89832 0.0
H1592 H 0.85645 0.40995 0.79883 0.0
H1593 H 0.8411 0.40582 0.88895 0.0
S1594 S 0.90696 0.30741 0.83894 0.0
N1595 N 0.90538 0.32782 0.79151 0.0
N1596 N 0.88901 0.3237 0.88907 0.0
C1597 C 0.88063 0.34723 0.86894 0.0
C1598 C 0.8896 0.34953 0.81473 0.0
C1599 C 0.3611 0.11117 0.46614 0.0
C1600 C 0.33596 0.12493 0.4805 0.0
C1601 C 0.37656 0.10103 0.50298 0.0
C1602 C 0.36798 0.10483 0.55596 0.0
H1603 H 0.36867 0.10772 0.42609 0.0
H1604 H 0.3954 0.08976 0.48969 0.0
S1605 S 0.3049 0.14167 0.61444 0.0
N1606 N 0.30391 0.14326 0.5523 0.0
N1607 N 0.33338 0.12452 0.62087 0.0
C1608 C 0.3435 0.11951 0.57109 0.0
C1609 C 0.32739 0.1294 0.53358 0.0
C1610 C 0.62669 0.62431 0.32215 0.0
C1611 C 0.62926 0.59594 0.29855 0.0
C1612 C 0.63446 0.63244 0.37322 0.0
C1613 C 0.64484 0.6127 0.4046 0.0
H1614 H 0.61936 0.64066 0.3006 0.0
H1615 H 0.63301 0.65464 0.38753 0.0
S1616 S 0.64913 0.53491 0.36854 0.0
N1617 N 0.6389 0.54753 0.31733 0.0
N1618 N 0.65297 0.5628 0.40969 0.0
C1619 C 0.64562 0.58427 0.38281 0.0
C1620 C 0.63793 0.57598 0.33149 0.0
C1621 C 0.16465 0.90546 0.08141 0.0
C1622 C 0.15105 0.88446 0.05099 0.0
C1623 C 0.15455 0.914 0.13213 0.0
C1624 C 0.13032 0.90202 0.15563 0.0
H1625 H 0.18342 0.91556 0.06603 0.0
H1626 H 0.16556 0.93082 0.15284 0.0
S1627 S 0.08671 0.84596 0.09393 0.0
N1628 N 0.11198 0.85136 1.04931 0.0
N1629 N 0.0929 0.86788 0.14418 0.0
C1630 C 0.11665 0.88069 0.1262 0.0
C1631 C 0.12692 0.87194 0.07417 0.0
C1632 C 0.98563 0.5199 0.25135 0.0
C1633 C 0.98519 0.51779 0.19796 0.0
C1634 C 0.99667 0.4982 0.27547 0.0
C1635 C 0.00772 0.47367 0.2471 0.0
H1636 H 0.97675 0.53806 0.27493 0.0
H1637 H 0.99697 0.50092 0.31669 0.0
S1638 S 0.0123 0.45852 0.10579 0.0
N1639 N 0.9972 0.48978 0.11706 0.0
N1640 N 0.01786 0.44873 0.16246 0.0
C1641 C 0.00719 0.4712 0.1936 0.0
C1642 C 0.9961 0.49342 0.169 0.0
C1643 C 0.73149 0.76957 0.48512 0.0
C1644 C 0.75775 0.77277 0.45911 0.0
C1645 C 0.72413 0.74476 0.50873 0.0
C1646 C 0.74287 0.72241 0.50722 0.0
H1647 H 0.71655 0.78645 0.48742 0.0
H1648 H 0.70324 0.74258 0.52617 0.0
S1649 S 0.81515 0.72154 0.44956 0.0
N1650 N 0.80329 0.75249 0.43706 0.0
N1651 N 0.7892 0.70559 0.48111 0.0
C1652 C 0.76943 0.72565 0.48281 0.0
C1653 C 0.77691 0.75085 0.4586 0.0
C1654 C 0.52106 0.51335 0.74597 0.0
C1655 C 0.51586 0.48502 0.75714 0.0
C1656 C 0.50718 0.52534 0.70956 0.0
C1657 C 0.48718 0.50963 0.68342 0.0
H1658 H 0.53632 0.52638 0.76486 0.0
H1659 H 0.51149 0.54752 0.70352 0.0
S1660 S 0.46694 0.43394 0.69597 0.0
N1661 N 0.48956 0.44121 0.73812 0.0
N1662 N 0.46439 0.46357 0.66798 0.0
C1663 C 0.48239 0.48096 0.69282 0.0
C1664 C 0.49615 0.46885 0.73064 0.0
C1665 C 0.72103 0.25233 0.95871 0.0
C1666 C 0.7344 0.22624 0.94427 0.0
C1667 C 0.73347 0.27427 0.98817 0.0
C1668 C 0.75963 0.27084 1.00479 0.0
H1669 H 0.70054 0.25577 0.94803 0.0
H1670 H 0.72261 0.29417 0.99736 0.0
S1671 S 0.80361 0.20651 0.97669 0.0
N1672 N 0.77571 0.19854 0.94749 0.0
N1673 N 0.79852 0.23891 1.00465 0.0
C1674 C 0.77316 0.24466 0.99088 0.0
C1675 C 0.76079 0.22269 0.95988 0.0
C1676 C 0.97513 0.49875 0.70071 0.0
C1677 C 0.98923 0.47286 0.6925 0.0
C1678 C 0.98671 0.52254 0.72673 0.0
C1679 C 0.01263 0.52109 0.74555 0.0
H1680 H 0.95457 0.50033 0.68893 0.0
H1681 H 0.9753 0.54225 0.73214 0.0
S1682 S 0.05895 0.45891 0.72891 0.0
N1683 N 0.03109 0.4475 0.70187 0.0
N1684 N 0.05297 0.49239 0.75066 0.0
C1685 C 0.02721 0.49551 0.73644 0.0
C1686 C 0.01551 0.47137 0.70971 0.0
C1687 C 0.73672 0.73521 0.94072 0.0
C1688 C 0.76392 0.7416 0.92239 0.0
C1689 C 0.72535 0.74717 0.98807 0.0
C1690 C 0.74027 0.76711 1.01806 0.0
H1691 H 0.72431 0.71999 0.91927 0.0
H1692 H 0.70435 0.74122 1.00034 0.0
S1693 S 0.81166 0.79294 0.98593 0.0
N1694 N 0.80512 0.77049 0.93671 0.0
N1695 N 0.78349 0.79313 1.0259 0.0
C1696 C 0.76723 0.7744 0.99966 0.0
C1697 C 0.77894 0.76204 0.95143 0.0
C1698 C 0.48101 0.51539 0.25615 0.0
C1699 C 0.48145 0.48644 0.26487 0.0
C1700 C 0.50028 0.52683 0.22088 0.0
C1701 C 0.52101 0.50986 0.1932 0.0
H1702 H 0.46521 0.52929 0.27575 0.0
H1703 H 0.49919 0.54941 0.21645 0.0
S1704 S 0.53142 0.43265 0.20162 0.0
N1705 N 0.50479 0.44094 0.2433 0.0
N1706 N 0.54065 0.46253 0.17612 0.0
C1707 C 0.52179 0.48086 0.20146 0.0
C1708 C 0.50233 0.46921 0.23789 0.0
C1709 C 0.77236 0.24426 0.47511 0.0
C1710 C 0.75663 0.22515 0.50456 0.0
C1711 C 0.76091 0.25816 0.43804 0.0
C1712 C 0.73297 0.25442 0.43003 0.0
H1713 H 0.79405 0.24798 0.47932 0.0
H1714 H 0.77399 0.27273 0.41675 0.0
S1715 S 0.68269 0.20668 0.49719 0.0
N1716 N 0.71167 0.20304 0.52331 0.0
N1717 N 0.68986 0.22942 0.4535 0.0
C1718 C 0.71696 0.23509 0.45875 0.0
C1719 C 0.72874 0.22077 0.49654 0.0
C1720 C 0.27402 0.24495 0.94078 0.0
C1721 C 0.259 0.27038 0.94881 0.0
C1722 C 0.26572 0.2212 0.96649 0.0
C1723 C 0.24191 0.22173 1.00097 0.0
H1724 H 0.29271 0.24338 0.91498 0.0
H1725 H 0.27771 0.20195 0.95816 0.0
S1726 S 0.19491 0.28279 1.03562 0.0
N1727 N 0.21897 0.29465 0.99409 0.0
N1728 N 0.2032 0.2496 1.04198 0.0
C1729 C 0.22667 0.24697 1.0098 0.0
C1730 C 0.2351 0.27128 0.98343 0.0
C1731 C 0.25336 0.72734 0.49342 0.0
C1732 C 0.24372 0.72335 0.44457 0.0
C1733 C 0.25789 0.75458 0.51668 0.0
C1734 C 0.25308 0.77896 0.492 0.0
H1735 H 0.25657 0.70936 0.51498 0.0
H1736 H 0.26536 0.75646 0.55428 0.0
S1737 S 0.22977 0.78009 0.36178 0.0
N1738 N 0.23093 0.74595 0.37094 0.0
N1739 N 0.23929 0.79736 0.41463 0.0
C1740 C 0.24392 0.77532 0.4426 0.0
C1741 C 0.23943 0.74748 0.4188 0.0
C1742 C 0.23136 0.23754 0.44801 0.0
C1743 C 0.25851 0.24328 0.42859 0.0
C1744 C 0.22084 0.24948 0.49577 0.0
C1745 C 0.23649 0.26893 0.52529 0.0
H1746 H 0.21823 0.22288 0.42696 0.0
H1747 H 0.19973 0.24412 0.50849 0.0
S1748 S 0.30867 0.29198 0.49138 0.0
N1749 N 0.30092 0.27022 0.44203 0.0
N1750 N 0.28082 0.29301 0.53225 0.0
C1751 C 0.26366 0.27517 0.50631 0.0
C1752 C 0.27455 0.26274 0.45751 0.0
C1753 C 0.26921 0.76233 1.00822 0.0
C1754 C 0.25378 0.73927 1.02711 0.0
C1755 C 0.26037 0.77706 0.96952 0.0
C1756 C 0.23528 0.77001 0.94925 0.0
H1757 H 0.28922 0.76802 1.02105 0.0
H1758 H 0.27337 0.79421 0.9557 0.0
S1759 S 0.18454 0.71498 0.99283 0.0
N1760 N 0.2103 0.7129 1.02849 0.0
N1761 N 0.19367 0.74011 0.95458 0.0
C1762 C 0.21873 0.74812 0.97008 0.0
C1763 C 0.22773 0.73327 1.00997 0.0
C1764 C 0.48578 0.98572 0.67288 0.0
C1765 C 0.47624 0.01122 0.69999 0.0
C1766 C 0.50032 0.96613 0.69626 0.0
C1767 C 0.50564 0.97125 0.74777 0.0
H1768 H 0.48169 0.98072 0.63334 0.0
H1769 H 0.50777 0.94708 0.67343 0.0
S1770 S 0.48326 0.03419 0.83637 0.0
N1771 N 0.47206 0.04023 0.78124 0.0
N1772 N 0.49918 0.00334 0.82589 0.0
C1773 C 0.49589 0.99663 0.77553 0.0
C1774 C 0.48134 0.0167 0.7514 0.0
C1775 C 0.00055 0.97765 0.22182 0.0
C1776 C 0.01788 0.99415 0.253 0.0
C1777 C 0.98906 0.98906 0.18206 0.0
C1778 C 0.99292 0.01792 0.17372 0.0
H1779 H 0.99625 0.95537 0.227 0.0
H1780 H 0.97579 0.9754 0.15946 0.0
S1781 S 0.03797 0.07001 0.24223 0.0
N1782 N 0.03981 0.04044 0.27084 0.0
N1783 N 0.01737 0.06233 0.19663 0.0
C1784 C 0.01108 0.03452 0.20316 0.0
C1785 C 0.02326 0.0227 0.24331 0.0
C1786 C 0.47501 0.9869 0.20213 0.0
C1787 C 0.48975 0.96277 0.18098 0.0
C1788 C 0.4875 0.00828 0.2327 0.0
C1789 C 0.51522 0.00633 0.243 0.0
H1790 H 0.45324 0.98845 0.1977 0.0
H1791 H 0.47518 0.02637 0.24869 0.0
S1792 S 0.56317 0.94813 0.1918 0.0
N1793 N 0.53356 0.93854 0.16936 0.0
N1794 N 0.55747 0.9789 0.22599 0.0
C1795 C 0.53041 0.98263 0.2203 0.0
C1796 C 0.5176 0.9609 0.18927 0.0
C1797 C 0.96706 0.0227 0.72551 0.0
C1798 C 0.96789 0.00045 0.75756 0.0
C1799 C 0.99047 0.03096 0.69564 0.0
C1800 C 0.01571 0.01744 0.69679 0.0
H1801 H 0.94794 0.03338 0.7222 0.0
H1802 H 0.98878 0.04831 0.67177 0.0
S1803 S 0.02954 0.9594 0.77728 0.0
N1804 N 0.99643 0.96593 0.79073 0.0
N1805 N 0.04068 0.98166 0.73471 0.0
C1806 C 0.01711 0.99557 0.72957 0.0
C1807 C 0.9932 0.98724 0.76032 0.0
C1808 C 0.0049 0.30565 1.0094 0.0
C1809 C 0.02903 0.32048 1.02178 0.0
C1810 C 0.99769 0.30283 0.95898 0.0
C1811 C 0.01465 0.31435 0.91957 0.0
H1812 H 0.99084 0.29751 1.03923 0.0
H1813 H 0.97831 0.29248 0.95102 0.0
S1814 S 0.08073 0.3537 0.93219 0.0
N1815 N 0.07053 0.34546 0.99067 0.0
N1816 N 0.05693 0.34037 0.89596 0.0
C1817 C 0.03943 0.3281 0.93123 0.0
C1818 C 0.04664 0.33111 0.98241 0.0
C1819 C 0.84482 0.73041 1.03746 0.0
C1820 C 0.81853 0.71851 1.02948 0.0
C1821 C 0.85043 0.74549 0.08449 0.0
C1822 C 0.83005 0.74983 0.12629 0.0
H1823 H 0.86141 0.72803 1.00707 0.0
H1824 H 0.87101 0.75409 0.08787 0.0
S1825 S 0.75779 0.72276 0.12678 0.0
N1826 N 0.77185 0.71223 0.06889 0.0
N1827 N 0.78238 0.74005 0.15619 0.0
C1828 C 0.80366 0.7381 0.11884 0.0
C1829 C 0.79796 0.72263 0.07106 0.0
C1830 C 0.54421 0.59889 0.33251 0.0
C1831 C 0.54856 0.57015 0.31415 0.0
C1832 C 0.52916 0.60642 0.37959 0.0
C1833 C 0.51761 0.58557 0.4105 0.0
H1834 H 0.55261 0.61587 0.31028 0.0
H1835 H 0.52672 0.62886 0.39203 0.0
S1836 S 0.52188 0.50713 0.37904 0.0
N1837 N 0.53974 0.52064 0.33016 0.0
N1838 N 0.51089 0.53468 0.41846 0.0
C1839 C 0.5218 0.55665 0.39271 0.0
C1840 C 0.53742 0.54897 0.34468 0.0
C1841 C 0.69075 0.25842 0.63793 0.0
C1842 C 0.66312 0.25101 0.65353 0.0
C1843 C 0.69786 0.27368 0.59435 0.0
C1844 C 0.67774 0.28242 0.564 0.0
H1845 H 0.70717 0.25204 0.65921 0.0
H1846 H 0.71942 0.27834 0.58407 0.0
S1847 S 0.60215 0.27048 0.59011 0.0
N1848 N 0.61548 0.2553 0.636 0.0
N1849 N 0.62857 0.28327 0.5549 0.0
C1850 C 0.65002 0.27545 0.57968 0.0
C1851 C 0.64283 0.25999 0.62394 0.0
C1852 C 0.00579 0.58868 1.01224 0.0
C1853 C 0.97789 0.58009 1.00983 0.0
C1854 C 0.02295 0.59532 0.96827 0.0
C1855 C 0.01294 0.59445 0.91969 0.0
H1856 H 0.01463 0.59012 1.04857 0.0
H1857 H 0.04421 0.60138 0.97255 0.0
S1858 S 0.94143 0.57309 0.89196 0.0
N1859 N 0.94134 0.57081 0.95411 0.0
N1860 N 0.97288 0.5836 0.87228 0.0
C1861 C 0.98501 0.58588 0.91683 0.0
C1862 C 0.96775 0.57863 0.96146 0.0
C1863 C 0.69182 0.69409 0.34859 0.0
C1864 C 0.67769 0.69595 0.39778 0.0
C1865 C 0.68226 0.70832 0.30934 0.0
C1866 C 0.65829 0.72481 0.31813 0.0
H1867 H 0.71034 0.68157 0.3403 0.0
H1868 H 0.69375 0.70658 0.27194 0.0
S1869 S 0.61273 0.73548 0.43866 0.0
N1870 N 0.63768 0.71516 0.45222 0.0
N1871 N 0.62008 0.74148 0.37815 0.0
C1872 C 0.64391 0.72679 0.36677 0.0
C1873 C 0.65354 0.7125 0.40672 0.0
C1874 C 0.52825 0.39487 0.61968 0.0
C1875 C 0.53888 0.42256 0.63217 0.0
C1876 C 0.5125 0.38848 0.57746 0.0
C1877 C 0.506 0.40948 0.54558 0.0
H1878 H 0.53208 0.37777 0.64283 0.0
H1879 H 0.50491 0.36685 0.5703 0.0
S1880 S 0.52899 0.48538 0.55995 0.0
N1881 N 0.54188 0.47115 0.60742 0.0
N1882 N 0.51231 0.45929 0.5293 0.0
C1883 C 0.51655 0.43726 0.55743 0.0
C1884 C 0.53293 0.4437 0.60006 0.0
C1885 C 0.83293 0.26731 0.87907 0.0
C1886 C 0.82169 0.29485 0.88488 0.0
C1887 C 0.8407 0.25367 0.8307 0.0
C1888 C 0.8375 0.26696 0.78612 0.0
H1889 H 0.83611 0.25621 0.91225 0.0
H1890 H 0.84913 0.23243 0.82818 0.0
S1891 S 0.8097 0.33913 0.77968 0.0
N1892 N 0.80792 0.33503 0.84151 0.0
N1893 N 0.82266 0.30925 0.75029 0.0
C1894 C 0.82602 0.29434 0.79104 0.0
C1895 C 0.81802 0.30829 0.84048 0.0
C1896 C 0.96892 0.6698 0.50985 0.0
C1897 C 0.99405 0.68176 0.52397 0.0
C1898 C 0.96328 0.66673 0.4587 0.0
C1899 C 0.98243 0.67582 0.4201 0.0
H1900 H 0.95413 0.66132 0.53815 0.0
H1901 H 0.94419 0.65633 0.449 0.0
S1902 S 0.05033 0.71015 0.43722 0.0
N1903 N 0.03763 0.70403 0.49571 0.0
N1904 N 0.02678 0.69842 0.39901 0.0
C1905 C 0.00704 0.68901 0.43372 0.0
C1906 C 0.01295 0.69189 0.48588 0.0
C1907 C 0.15323 0.2776 0.41703 0.0
C1908 C 0.17862 0.29157 0.42521 0.0
C1909 C 0.14834 0.26276 0.36949 0.0
C1910 C 0.16849 0.26109 0.32718 0.0
H1911 H 0.13672 0.27817 0.44764 0.0
H1912 H 0.12829 0.2529 0.36565 0.0
S1913 S 0.23942 0.29169 0.32841 0.0
N1914 N 0.22479 0.30124 0.38636 0.0
N1915 N 0.21568 0.27343 0.29809 0.0
C1916 C 0.19417 0.27449 0.33497 0.0
C1917 C 0.19918 0.28961 0.38342 0.0
C1918 C 0.47009 0.44426 0.11752 0.0
C1919 C 0.45554 0.42362 0.14509 0.0
C1920 C 0.48512 0.43655 0.07011 0.0
C1921 C 0.48583 0.408 1.04837 0.0
H1922 H 0.47036 0.46633 0.13316 0.0
H1923 H 0.49655 0.45302 1.05062 0.0
S1924 S 0.44794 0.34676 0.10258 0.0
N1925 N 0.44105 0.37392 0.14566 0.0
N1926 N 0.4684 0.3597 0.05637 0.0
C1927 C 0.47054 0.38745 0.07503 0.0
C1928 C 0.45563 0.3952 0.12336 0.0
C1929 C 0.34156 0.73707 0.81981 0.0
C1930 C 0.32043 0.74209 0.78876 0.0
C1931 C 0.33629 0.72353 0.86569 0.0
C1932 C 0.30956 0.71429 0.88333 0.0
H1933 H 0.3626 0.74315 0.80806 0.0
H1934 H 0.35356 0.71999 0.88719 0.0
S1935 S 0.24625 0.72461 0.81906 0.0
N1936 N 0.27117 0.73827 0.78133 0.0
N1937 N 0.26134 0.71285 0.86647 0.0
C1938 C 0.2881 0.71976 0.8532 0.0
C1939 C 0.29349 0.73356 0.80644 0.0
C1940 C 0.99091 0.40318 0.43584 0.0
C1941 C 0.01814 0.41384 0.43832 0.0
C1942 C 0.9742 0.39621 0.48008 0.0
C1943 C 0.98418 0.39879 0.52877 0.0
H1944 H 0.98225 0.40046 0.39934 0.0
H1945 H 0.95335 0.38858 0.47598 0.0
S1946 S 0.05418 0.42566 0.5564 0.0
N1947 N 0.05411 0.42674 0.494 0.0
N1948 N 0.02345 0.41331 0.57629 0.0
C1949 C 0.01151 0.40932 0.53159 0.0
C1950 C 0.02823 0.41691 0.48677 0.0
C1951 C 0.34675 0.28768 0.05653 0.0
C1952 C 0.31936 0.29573 0.05333 0.0
C1953 C 0.35377 0.27203 0.09587 0.0
C1954 C 0.33369 0.2637 0.13358 0.0
H1955 H 0.36314 0.29398 1.0289 0.0
H1956 H 0.37521 0.26689 0.09734 0.0
S1957 S 0.25861 0.27712 0.1402 0.0
N1958 N 0.27179 0.29295 0.08975 0.0
N1959 N 0.28492 0.26309 0.16376 0.0
C1960 C 0.30608 0.27109 0.13043 0.0
C1961 C 0.29893 0.28722 0.09032 0.0
C1962 C 0.49101 0.55826 0.89014 0.0
C1963 C 0.49802 0.58667 0.90728 0.0
C1964 C 0.47578 0.55166 0.84706 0.0
C1965 C 0.46669 0.57308 0.81847 0.0
H1966 H 0.49766 0.54078 0.90982 0.0
H1967 H 0.47137 0.52947 0.83578 0.0
S1968 S 0.47698 0.65108 0.84946 0.0
N1969 N 0.49257 0.63643 0.8933 0.0
N1970 N 0.46478 0.62428 0.81313 0.0
C1971 C 0.47318 0.60156 0.83571 0.0
C1972 C 0.48854 0.60825 0.87959 0.0
C1973 C 0.16018 0.74188 0.61784 0.0
C1974 C 0.16276 0.73057 0.66452 0.0
C1975 C 0.16959 0.72692 0.57142 0.0
C1976 C 0.18176 0.6999 0.56981 0.0
H1977 H 0.1512 0.76269 0.61725 0.0
H1978 H 0.16712 0.73666 0.53645 0.0
S1979 S 0.19199 0.66049 0.68231 0.0
N1980 N 0.17771 0.69074 0.70709 0.0
N1981 N 0.19509 0.6622 0.61969 0.0
C1982 C 0.18437 0.6883 0.61651 0.0
C1983 C 0.17488 0.70371 0.66387 0.0
C1984 C 0.53552 0.82184 0.426 0.0
C1985 C 0.51176 0.80666 0.41239 0.0
C1986 C 0.54154 0.82578 0.4769 0.0
C1987 C 0.5241 0.81459 0.51598 0.0
H1988 H 0.54886 0.83199 0.39747 0.0
H1989 H 0.55957 0.83839 0.48596 0.0
S1990 S 0.46042 0.7716 0.50011 0.0
N1991 N 0.47161 0.77894 0.44149 0.0
N1992 N 0.48284 0.78664 0.53776 0.0
C1993 C 0.50094 0.79832 0.50278 0.0
C1994 C 0.49475 0.79436 0.45082 0.0
C1995 C 0.29604 0.22561 0.57316 0.0
C1996 C 0.31582 0.21867 0.5313 0.0
C1997 C 0.30319 0.24073 0.61913 0.0
C1998 C 0.33053 0.24982 0.62598 0.0
H1999 H 0.27465 0.21956 0.57039 0.0
H2000 H 0.28694 0.24567 0.6494 0.0
S2001 S 0.39077 0.23567 0.53006 0.0
N2002 N 0.36448 0.22149 0.5013 0.0
N2003 N 0.37773 0.24918 0.58697 0.0
C2004 C 0.35056 0.24269 0.58472 0.0
C2005 C 0.34331 0.22735 0.53789 0.0
C2006 C 0.02085 0.11522 0.8769 0.0
C2007 C 0.01339 0.09478 0.91154 0.0
C2008 C 0.03627 0.10778 0.83021 0.0
C2009 C 0.04489 0.07955 0.81598 0.0
H2010 H 0.01493 0.13726 0.88617 0.0
H2011 H 0.04153 0.12447 0.80508 0.0
S2012 S 0.02972 0.01766 0.89227 0.0
N2013 N 0.01509 0.04484 0.92802 0.0
N2014 N 0.04431 0.03091 0.84016 0.0
C2015 C 0.03769 0.05885 0.85033 0.0
C2016 C 0.02186 0.06644 0.89805 0.0
C2017 C 0.19744 0.7909 0.10498 0.0
C2018 C 0.17799 0.79189 0.06872 0.0
C2019 C 0.19215 0.77587 0.1491 0.0
C2020 C 0.16719 0.76077 0.15942 0.0
H2021 H 0.21712 0.80182 0.09934 0.0
H2022 H 0.20797 0.77595 0.1753 0.0
S2023 S 0.10888 0.75664 0.0779 0.0
N2024 N 0.13233 0.77623 1.04717 0.0
N2025 N 0.12254 0.74831 0.12947 0.0
C2026 C 0.1476 0.76139 0.12343 0.0
C2027 C 0.15292 0.77681 0.07852 0.0
C2028 C 0.50362 0.05419 0.44013 0.0
C2029 C 0.50949 0.08166 0.42342 0.0
C2030 C 0.48455 0.04969 0.48264 0.0
C2031 C 0.47063 0.07248 0.51159 0.0
H2032 H 0.51376 0.03568 0.41992 0.0
H2033 H 0.48114 0.02816 0.4935 0.0
S2034 S 0.47759 0.14867 0.48399 0.0
N2035 N 0.49883 0.13193 0.43909 0.0
N2036 N 0.46366 0.12383 0.51918 0.0
C2037 C 0.47612 0.1001 0.49521 0.0
C2038 C 0.49525 0.10459 0.45127 0.0
C2039 C 0.15848 0.23708 0.86047 0.0
C2040 C 0.15941 0.22384 0.81046 0.0
C2041 C 0.16812 0.22327 0.89996 0.0
C2042 C 0.17904 0.1956 0.89112 0.0
H2043 H 0.15048 0.25843 0.86907 0.0
H2044 H 0.16675 0.23438 0.93793 0.0
S2045 S 0.18592 0.15164 0.76652 0.0
N2046 N 0.17198 0.18155 0.75386 0.0
N2047 N 0.19043 0.15558 0.82808 0.0
C2048 C 0.18056 0.18229 0.84097 0.0
C2049 C 0.1706 0.19637 0.8007 0.0
C2050 C 0.04027 0.95074 0.0922 0.0
C2051 C 0.0398 0.93122 0.1301 0.0
C2052 C 0.02563 0.94539 1.04809 0.0
C2053 C 0.00988 0.92012 1.03921 0.0
H2054 H 0.05195 0.97048 0.09663 0.0
H2055 H 0.02699 0.96109 1.0203 0.0
S2056 S 2e-05 0.86263 0.12732 0.0
N2057 N 0.02088 0.88571 0.15552 0.0
N2058 N 0.99374 0.87614 0.07405 0.0
C2059 C 0.00897 0.90065 0.07701 0.0
C2060 C 0.02374 0.90604 0.12181 0.0
C2061 C 0.32278 0.78916 0.35937 0.0
C2062 C 0.31405 0.81768 0.36852 0.0
C2063 C 0.335 0.77615 0.31289 0.0
C2064 C 0.34136 0.78957 0.26751 0.0
H2065 H 0.31985 0.77543 0.39047 0.0
H2066 H 0.33944 0.75365 0.31246 0.0
S2067 S 0.33123 0.88068 0.22326 0.0
N2068 N 0.31206 0.88512 0.29857 0.0
N2069 N 0.34267 0.83831 0.2208 0.0
C2070 C 0.33622 0.81853 0.26855 0.0
C2071 C 0.31818 0.83521 0.32507 0.0
C2072 C 0.46437 0.17055 0.95832 0.0
C2073 C 0.4798 0.1525 0.92131 0.0
C2074 C 0.46839 0.1709 1.0103 0.0
C2075 C 0.48814 0.15343 1.02684 0.0
H2076 H 0.44821 0.18351 0.94735 0.0
H2077 H 0.45554 0.18444 1.03787 0.0
S2078 S 0.5349 0.10354 0.94487 0.0
N2079 N 0.51667 0.11797 0.90442 0.0
N2080 N 0.52379 0.11816 1.00223 0.0
C2081 C 0.5044 0.13607 0.99006 0.0
C2082 C 0.50033 0.13572 0.93724 0.0
C2083 C 0.68455 0.77315 0.8292 0.0
C2084 C 0.6659 0.74977 0.82749 0.0
C2085 C 0.68971 0.78874 0.87589 0.0
C2086 C 0.67649 0.78174 0.92329 0.0
H2087 H 0.69498 0.77979 0.79398 0.0
H2088 H 0.70401 0.80664 0.87465 0.0
S2089 S 0.62811 0.72036 0.94066 0.0
N2090 N 0.63582 0.71917 0.87814 0.0
N2091 N 0.64521 0.74813 0.96511 0.0
C2092 C 0.65828 0.75793 0.92209 0.0
C2093 C 0.65307 0.74212 0.8746 0.0
C2094 C 0.94827 0.92715 0.54103 0.0
C2095 C 0.97584 0.91824 0.53773 0.0
C2096 C 0.93388 0.93598 0.58851 0.0
C2097 C 0.94654 0.93622 0.63433 0.0
H2098 H 0.93752 0.92656 0.50682 0.0
H2099 H 0.91236 0.94138 0.58954 0.0
S2100 S 0.01978 0.9192 0.6451 0.0
N2101 N 0.01609 0.91324 0.58344 0.0
N2102 N 0.98937 0.92971 0.67232 0.0
C2103 C 0.97458 0.92876 0.63099 0.0
C2104 C 0.98911 0.91975 0.58284 0.0
C2105 C 0.84467 0.23896 0.33387 0.0
C2106 C 0.8329 0.23146 0.28752 0.0
C2107 C 0.83795 0.22426 0.378 0.0
C2108 C 0.81901 0.20107 0.37873 0.0
H2109 H 0.85913 0.2567 0.33644 0.0
H2110 H 0.84777 0.23139 0.41213 0.0
S2111 S 0.78296 0.17148 0.26727 0.0
N2112 N 0.80171 0.19814 0.24519 0.0
N2113 N 0.78898 0.17099 0.3278 0.0
C2114 C 0.80701 0.19324 0.33275 0.0
C2115 C 0.81392 0.20823 0.28753 0.0
C2116 C 0.52672 0.90355 0.97735 0.0
C2117 C 0.51552 0.90851 0.93172 0.0
C2118 C 0.51007 0.89431 1.01986 0.0
C2119 C 0.48125 0.88988 1.01927 0.0
H2120 H 0.54869 0.9062 0.9799 0.0
H2121 H 0.51999 0.89097 0.05385 0.0
S2122 S 0.4414 0.90178 0.90984 0.0
N2123 N 0.47358 0.9091 0.889 0.0
N2124 N 0.44237 0.89265 0.96871 0.0
C2125 C 0.46977 0.89529 0.97398 0.0
C2126 C 0.48682 0.9043 0.93044 0.0
C2127 C 0.84696 0.79833 0.56492 0.0
C2128 C 0.8188 0.80351 0.56265 0.0
C2129 C 0.85592 0.78281 0.60292 0.0
C2130 C 0.83704 0.7718 0.64003 0.0
H2131 H 0.86229 0.80655 0.53725 0.0
H2132 H 0.87782 0.7797 0.60363 0.0
S2133 S 0.76087 0.77724 0.64805 0.0
N2134 N 0.77199 0.79526 0.59896 0.0
N2135 N 0.78872 0.76569 0.67043 0.0
C2136 C 0.80875 0.77649 0.63782 0.0
C2137 C 0.79965 0.79248 0.59916 0.0
C2138 C 0.99212 0.06198 0.38643 0.0
C2139 C -0.00162 0.09061 0.40326 0.0
C2140 C 0.97748 0.05473 0.34289 0.0
C2141 C 0.96824 0.07561 0.31326 0.0
H2142 H -0.0011 0.04482 0.40674 0.0
H2143 H 0.97363 0.03236 0.33214 0.0
S2144 S 0.97712 0.15391 0.34226 0.0
N2145 N 0.99236 0.14005 0.38743 0.0
N2146 N 0.9657 0.12659 0.30612 0.0
C2147 C 0.97407 0.10432 0.32996 0.0
C2148 C 0.98887 0.11172 0.37443 0.0
C2149 C 0.68872 0.20411 0.10092 0.0
C2150 C 0.66908 0.19933 0.06522 0.0
C2151 C 0.68199 0.21968 0.14854 0.0
C2152 C 0.65544 0.23094 0.16196 0.0
H2153 H 0.70951 0.1964 0.0916 0.0
H2154 H 0.69781 0.22338 0.17464 0.0
S2155 S 0.59557 0.22096 0.08528 0.0
N2156 N 0.62118 0.2051 1.04894 0.0
N2157 N 0.60884 0.23368 0.13806 0.0
C2158 C 0.63543 0.22527 0.1275 0.0
C2159 C 0.64218 0.20965 0.07928 0.0
C2160 C 0.10281 0.45687 0.05798 0.0
C2161 C 0.09559 0.48554 0.05373 0.0
C2162 C 0.09917 0.44424 0.1054 0.0
C2163 C 0.08818 0.45969 0.151 0.0
H2164 H 0.11183 0.44418 1.02449 0.0
H2165 H 0.10541 0.42239 0.10641 0.0
S2166 S 0.06203 0.53411 0.1592 0.0
N2167 N 0.07403 0.52763 0.09873 0.0
N2168 N 0.06771 0.50491 0.18652 0.0
C2169 C 0.07999 0.48807 0.14648 0.0
C2170 C 0.08354 0.50067 0.09849 0.0
C2171 C 0.75844 0.86002 0.21039 0.0
C2172 C 0.73047 0.85108 0.21043 0.0
C2173 C 0.77236 0.86275 0.25571 0.0
C2174 C 0.75898 0.85707 0.3038 0.0
H2175 H 0.77002 0.86431 0.17469 0.0
H2176 H 0.79387 0.86916 0.25287 0.0
S2177 S 0.68559 0.83368 0.32581 0.0
N2178 N 0.69006 0.83695 0.26375 0.0
N2179 N 0.71548 0.84232 0.34779 0.0
C2180 C 0.73087 0.84853 0.30431 0.0
C2181 C 0.7169 0.84547 0.25823 0.0
C2182 C 0.42333 0.51092 0.50395 0.0
C2183 C 0.39984 0.51678 0.53869 0.0
C2184 C 0.42174 0.49511 0.45615 0.0
C2185 C 0.39647 0.48478 0.43917 0.0
H2186 H 0.4435 0.51807 0.51421 0.0
H2187 H 0.44076 0.49105 0.43202 0.0
S2188 S 0.32832 0.49473 0.51399 0.0
N2189 N 0.35011 0.51081 0.55195 0.0
N2190 N 0.34704 0.4822 0.46142 0.0
C2191 C 0.37261 0.49095 0.47283 0.0
C2192 C 0.37432 0.50652 0.52254 0.0
C2193 C 0.75189 0.11927 0.68803 0.0
C2194 C 0.76256 0.14514 0.6699 0.0
C2195 C 0.73586 0.11846 0.73623 0.0
C2196 C 0.72891 0.14357 0.76816 0.0
H2197 H 0.75606 0.09939 0.66489 0.0
H2198 H 0.72836 0.09802 0.74797 0.0
S2199 S 0.75101 0.21704 0.73863 0.0
N2200 N 0.76463 0.19653 0.68896 0.0
N2201 N 0.73448 0.19521 0.77696 0.0
C2202 C 0.7394 0.1695 0.75013 0.0
C2203 C 0.75612 0.17024 0.70198 0.0
C2204 C 0.89168 0.49803 0.34965 0.0
C2205 C 0.90004 0.51147 0.39579 0.0
C2206 C 0.89439 0.5115 0.3035 0.0
C2207 C 0.90528 0.53949 0.30042 0.0
H2208 H 0.88348 0.47644 0.34871 0.0
H2209 H 0.88803 0.49949 0.26951 0.0
S2210 S 0.92916 0.58517 0.4104 0.0
N2211 N 0.91898 0.55531 0.43539 0.0
N2212 N 0.92393 0.58042 0.34916 0.0
C2213 C 0.91322 0.55354 0.34646 0.0
C2214 C 0.91072 0.53964 0.39365 0.0
C2215 C 0.25692 0.145 0.15698 0.0
C2216 C 0.22809 0.14025 0.15812 0.0
C2217 C 0.27068 0.14883 0.20204 0.0
C2218 C 0.25658 0.14738 0.25097 0.0
H2219 H 0.26913 0.14655 0.12075 0.0
H2220 H 0.29268 0.15305 0.19843 0.0
S2221 S 0.18098 0.13629 0.27682 0.0
N2222 N 0.18591 0.13519 0.21376 0.0
N2223 N 0.21173 0.14136 0.29781 0.0
C2224 C 0.22782 0.1423 0.25296 0.0
C2225 C 0.21364 0.13903 0.20696 0.0
C2226 C 0.57739 0.48661 0.95088 0.0
C2227 C 0.6008 0.48084 0.91589 0.0
C2228 C 0.57911 0.50262 0.99852 0.0
C2229 C 0.60446 0.51318 1.01492 0.0
H2230 H 0.55723 0.47924 0.94094 0.0
H2231 H 0.56021 0.50659 1.02304 0.0
S2232 S 0.67234 0.50354 0.93925 0.0
N2233 N 0.65047 0.48716 0.90184 0.0
N2234 N 0.65377 0.51607 0.99196 0.0
C2235 C 0.62819 0.50707 0.98101 0.0
C2236 C 0.62635 0.49134 0.93157 0.0
C2237 C 0.22332 0.85702 0.7408 0.0
C2238 C 0.23797 0.8558 0.78405 0.0
C2239 C 0.23692 0.85991 0.69156 0.0
C2240 C 0.26605 0.86113 0.68224 0.0
H2241 H 0.20102 0.85586 0.74497 0.0
H2242 H 0.22424 0.86067 0.66017 0.0
S2243 S 0.31445 0.85681 0.78177 0.0
N2244 N 0.28369 0.85518 0.8137 0.0
N2245 N 0.30897 0.85976 0.72158 0.0
C2246 C 0.28101 0.85953 0.72511 0.0
C2247 C 0.26711 0.8571 0.77559 0.0
C2248 C 0.59723 0.9831 0.64582 0.0
C2249 C 0.59274 0.95336 0.64729 0.0
C2250 C 0.60124 0.99619 0.59954 0.0
C2251 C 0.6009 0.98049 0.55149 0.0
H2252 H 0.59741 0.99679 0.68108 0.0
H2253 H 0.6041 0.01913 0.60168 0.0
S2254 S 0.59098 0.90177 0.53241 0.0
N2255 N 0.58886 0.90845 0.59529 0.0
N2256 N 0.59649 0.93288 0.50849 0.0
C2257 C 0.59672 0.95062 0.55201 0.0
C2258 C 0.59274 0.93717 0.59955 0.0
C2259 C 0.24333 0.37688 0.72997 0.0
C2260 C 0.22621 0.35286 0.71858 0.0
C2261 C 0.25928 0.37899 0.77272 0.0
C2262 C 0.2593 0.35695 0.80564 0.0
H2263 H 0.24487 0.39405 0.70508 0.0
H2264 H 0.2725 0.39752 0.77877 0.0
S2265 S 0.21716 0.29027 0.79591 0.0
N2266 N 0.2095 0.30727 0.74709 0.0
N2267 N 0.23964 0.31095 0.82511 0.0
C2268 C 0.24185 0.33323 0.79545 0.0
C2269 C 0.22532 0.33127 0.75278 0.0
C2270 C 0.89687 0.02882 0.99239 0.0
C2271 C 0.89765 0.01382 1.03619 0.0
C2272 C 0.89313 0.01467 0.94368 0.0
C2273 C 0.8906 0.98458 0.93551 0.0
H2274 H 0.89923 0.05182 0.99569 0.0
H2275 H 0.89288 0.02759 0.91176 0.0
S2276 S 0.89326 0.93486 1.03675 0.0
N2277 N 0.89638 0.96674 0.06748 0.0
N2278 N 0.89022 0.94037 0.97653 0.0
C2279 C 0.89166 0.96929 0.97898 0.0
C2280 C 0.89494 0.98377 1.02887 0.0
C2281 C 0.22265 0.63402 0.2258 0.0
C2282 C 0.23472 0.64174 0.27184 0.0
C2283 C 0.23734 0.63644 0.17687 0.0
C2284 C 0.2647 0.6474 0.17111 0.0
H2285 H 0.20166 0.62591 0.22748 0.0
H2286 H 0.22681 0.63032 0.14312 0.0
S2287 S 0.30573 0.67187 0.2789 0.0
N2288 N 0.2761 0.66135 0.30739 0.0
N2289 N 0.30286 0.66629 0.2169 0.0
C2290 C 0.27684 0.65541 0.21681 0.0
C2291 C 0.26216 0.65249 0.26645 0.0
C2292 C 0.40074 0.02732 0.88841 0.0
C2293 C 0.39391 0.99793 0.88814 0.0
C2294 C 0.40217 0.04192 0.84333 0.0
C2295 C 0.39662 0.02798 0.79556 0.0
H2296 H 0.40485 0.0393 0.92398 0.0
H2297 H 0.40768 0.06437 0.84603 0.0
S2298 S 0.38155 0.95033 0.77209 0.0
N2299 N 0.38417 0.95506 0.83427 0.0
N2300 N 0.3864 0.98212 0.75069 0.0
C2301 C 0.3904 -0.00154 0.79462 0.0
C2302 C 0.38914 0.98362 0.84037 0.0
C2303 C 0.78128 0.64649 0.69348 0.0
C2304 C 0.76755 0.6474 0.74313 0.0
C2305 C 0.76684 0.64198 0.64911 0.0
C2306 C 0.73776 0.63878 0.65178 0.0
H2307 H 0.80347 0.64916 0.68877 0.0
H2308 H 0.77873 0.64154 0.61218 0.0
S2309 S 0.69162 0.6426 0.77295 0.0
N2310 N 0.72286 0.64622 0.79221 0.0
N2311 N 0.69588 0.63873 0.70977 0.0
C2312 C 0.72377 0.64028 0.70143 0.0
C2313 C 0.73855 0.64433 0.7466 0.0
C2314 C 0.12108 0.99528 0.43781 0.0
C2315 C 0.09568 0.98574 0.42007 0.0
C2316 C 0.1225 0.01039 0.48682 0.0
C2317 C 0.09852 0.01743 0.51967 0.0
H2318 H 0.14005 0.99088 0.41379 0.0
H2319 H 0.14248 0.0172 0.49849 0.0
S2320 S 0.02679 0.99798 0.49154 0.0
N2321 N 0.04599 0.98469 0.44035 0.0
N2322 N 0.04854 0.01325 0.53018 0.0
C2323 C 0.07308 0.00808 0.50208 0.0
C2324 C 0.07169 0.99227 0.4531 0.0
C2325 C 0.74997 0.37119 0.26686 0.0
C2326 C 0.73541 0.34602 0.27958 0.0
C2327 C 0.76587 0.3729 0.21883 0.0
C2328 C 0.7687 0.34924 0.18176 0.0
H2329 H 0.74912 0.38978 0.29427 0.0
H2330 H 0.77667 0.39265 0.21137 0.0
S2331 S 0.73484 0.27835 0.195 0.0
N2332 N 0.72479 0.29708 0.24926 0.0
N2333 N 0.75479 0.29999 0.16143 0.0
C2334 C 0.75414 0.3241 0.19404 0.0
C2335 C 0.73755 0.32256 0.24204 0.0
loop_
_geom_bond_atom_site_label_1
_geom_bond_atom_site_label_2
_geom_bond_distance
_geom_bond_site_symmetry_2
_ccdc_geom_bond_type
Dy0 O3 2.307 . S
Dy0 O5 2.395 . S
Dy0 O6 2.379 . S
Dy0 O8 2.339 . S
Dy0 O10 2.298 . S
Dy0 O14 2.275 . S
Dy0 C22 2.738 . S
Dy1 O4 2.298 . S
Dy1 O7 2.275 . S
Dy1 O9 2.307 . S
Dy1 O11 2.395 . S
Dy1 O12 2.379 . S
Dy1 O15 2.339 . S
Dy1 C31 2.738 . S
C2 O14 1.254 . S
C2 O15 1.257 . S
O3 Dy0 2.307 . S
O3 C13 1.266 . S
O4 Dy1 2.298 . S
O4 C13 1.236 . S
O5 Dy0 2.395 . S
O5 C22 1.255 . S
O6 Dy0 2.379 . S
O6 C22 1.249 . S
O7 Dy1 2.275 . S
O7 C23 1.254 . S
O8 Dy0 2.339 . S
O8 C23 1.257 . S
O9 Dy1 2.307 . S
O9 C24 1.266 . S
O10 Dy0 2.298 . S
O10 C24 1.236 . S
O11 Dy1 2.395 . S
O11 C31 1.255 . S
O12 Dy1 2.379 . S
O12 C31 1.249 . S
C13 O3 1.266 . S
C13 O4 1.236 . S
O14 Dy0 2.275 . S
O14 C2 1.254 . S
O15 Dy1 2.339 . S
O15 C2 1.257 . S
C16 C19 1.344 . S
C16 C20 1.328 . S
C16 C22 1.516 . S
C17 C18 1.304 . S
C17 C21 1.323 . S
C18 C17 1.304 . S
C18 C19 1.371 . S
C18 H32 0.930 . S
C19 C16 1.344 . S
C19 C18 1.371 . S
C19 H33 0.931 . S
C20 C16 1.328 . S
C20 C21 1.433 . S
C20 H34 0.931 . S
C21 C17 1.323 . S
C21 C20 1.433 . S
C21 H35 0.933 . S
C22 Dy0 2.738 . S
C22 O5 1.255 . S
C22 O6 1.249 . S
C22 C16 1.516 . S
C23 O7 1.254 . S
C23 O8 1.257 . S
C24 O9 1.266 . S
C24 O10 1.236 . S
C25 C28 1.344 . S
C25 C29 1.328 . S
C25 C31 1.516 . S
C26 C27 1.304 . S
C26 C30 1.323 . S
C27 C26 1.304 . S
C27 C28 1.371 . S
C27 H36 0.940 . S
C28 C25 1.344 . S
C28 C27 1.371 . S
C28 H37 0.931 . S
C29 C25 1.328 . S
C29 C30 1.433 . S
C29 H38 0.931 . S
C30 C26 1.323 . S
C30 C29 1.433 . S
C30 H39 0.933 . S
C31 Dy1 2.738 . S
C31 O11 1.255 . S
C31 O12 1.249 . S
C31 C25 1.516 . S
H32 C18 0.930 . S
H33 C19 0.931 . S
H34 C20 0.931 . S
H35 C21 0.933 . S
H36 C27 0.940 . S
H37 C28 0.931 . S
H38 C29 0.931 . S
H39 C30 0.933 . S
Dy40 O43 2.307 . S
Dy40 O45 2.395 . S
Dy40 O46 2.379 . S
Dy40 O48 2.339 . S
Dy40 O50 2.298 . S
Dy40 O54 2.275 . S
Dy40 C62 2.738 . S
Dy41 O44 2.298 . S
Dy41 O47 2.275 . S
Dy41 O49 2.307 . S
Dy41 O51 2.395 . S
Dy41 O52 2.379 . S
Dy41 O55 2.339 . S
Dy41 C71 2.738 . S
C42 O54 1.254 . S
C42 O55 1.257 . S
O43 Dy40 2.307 . S
O43 C53 1.266 . S
O44 Dy41 2.298 . S
O44 C53 1.236 . S
O45 Dy40 2.395 . S
O45 C62 1.255 . S
O46 Dy40 2.379 . S
O46 C62 1.249 . S
O47 Dy41 2.275 . S
O47 C63 1.254 . S
O48 Dy40 2.339 . S
O48 C63 1.257 . S
O49 Dy41 2.307 . S
O49 C64 1.266 . S
O50 Dy40 2.298 . S
O50 C64 1.236 . S
O51 Dy41 2.395 . S
O51 C71 1.255 . S
O52 Dy41 2.379 . S
O52 C71 1.249 . S
C53 O43 1.266 . S
C53 O44 1.236 . S
O54 Dy40 2.275 . S
O54 C42 1.254 . S
O55 Dy41 2.339 . S
O55 C42 1.257 . S
C56 C59 1.344 . S
C56 C60 1.328 . S
C56 C62 1.516 . S
C57 C58 1.304 . S
C57 C61 1.323 . S
C58 C57 1.304 . S
C58 C59 1.371 . S
C58 H72 0.930 . S
C59 C56 1.344 . S
C59 C58 1.371 . S
C59 H73 0.931 . S
C60 C56 1.328 . S
C60 C61 1.433 . S
C60 H74 0.931 . S
C61 C57 1.323 . S
C61 C60 1.433 . S
C61 H75 0.933 . S
C62 Dy40 2.738 . S
C62 O45 1.255 . S
C62 O46 1.249 . S
C62 C56 1.516 . S
C63 O47 1.254 . S
C63 O48 1.257 . S
C64 O49 1.266 . S
C64 O50 1.236 . S
C65 C68 1.344 . S
C65 C69 1.328 . S
C65 C71 1.516 . S
C66 C67 1.304 . S
C66 C70 1.323 . S
C67 C66 1.304 . S
C67 C68 1.371 . S
C67 H76 0.930 . S
C68 C65 1.344 . S
C68 C67 1.371 . S
C68 H77 0.931 . S
C69 C65 1.328 . S
C69 C70 1.433 . S
C69 H78 0.931 . S
C70 C66 1.323 . S
C70 C69 1.433 . S
C70 H79 0.933 . S
C71 Dy41 2.738 . S
C71 O51 1.255 . S
C71 O52 1.249 . S
C71 C65 1.516 . S
H72 C58 0.930 . S
H73 C59 0.931 . S
H74 C60 0.931 . S
H75 C61 0.933 . S
H76 C67 0.930 . S
H77 C68 0.931 . S
H78 C69 0.931 . S
H79 C70 0.933 . S
Dy80 O83 2.307 . S
Dy80 O85 2.395 . S
Dy80 O86 2.379 . S
Dy80 O88 2.339 . S
Dy80 O90 2.298 . S
Dy80 O94 2.275 . S
Dy80 C102 2.738 . S
Dy81 O84 2.298 . S
Dy81 O87 2.275 . S
Dy81 O89 2.307 . S
Dy81 O91 2.395 . S
Dy81 O92 2.379 . S
Dy81 O95 2.339 . S
Dy81 C111 2.738 . S
C82 O94 1.254 . S
C82 O95 1.257 . S
O83 Dy80 2.307 . S
O83 C93 1.266 . S
O84 Dy81 2.298 . S
O84 C93 1.236 . S
O85 Dy80 2.395 . S
O85 C102 1.255 . S
O86 Dy80 2.379 . S
O86 C102 1.249 . S
O87 Dy81 2.275 . S
O87 C103 1.254 . S
O88 Dy80 2.339 . S
O88 C103 1.257 . S
O89 Dy81 2.307 . S
O89 C104 1.266 . S
O90 Dy80 2.298 . S
O90 C104 1.236 . S
O91 Dy81 2.395 . S
O91 C111 1.255 . S
O92 Dy81 2.379 . S
O92 C111 1.249 . S
C93 O83 1.266 . S
C93 O84 1.236 . S
O94 Dy80 2.275 . S
O94 C82 1.254 . S
O95 Dy81 2.339 . S
O95 C82 1.257 . S
C96 C99 1.344 . S
C96 C100 1.328 . S
C96 C102 1.516 . S
C97 C98 1.304 . S
C97 C101 1.323 . S
C98 C97 1.304 . S
C98 C99 1.371 . S
C98 H112 0.930 . S
C99 C96 1.344 . S
C99 C98 1.371 . S
C99 H113 0.931 . S
C100 C96 1.328 . S
C100 C101 1.433 . S
C100 H114 0.931 . S
C101 C97 1.323 . S
C101 C100 1.433 . S
C101 H115 0.933 . S
C102 Dy80 2.738 . S
C102 O85 1.255 . S
C102 O86 1.249 . S
C102 C96 1.516 . S
C103 O87 1.254 . S
C103 O88 1.257 . S
C104 O89 1.266 . S
C104 O90 1.236 . S
C105 C108 1.344 . S
C105 C109 1.328 . S
C105 C111 1.516 . S
C106 C107 1.304 . S
C106 C110 1.323 . S
C107 C106 1.304 . S
C107 C108 1.371 . S
C107 H116 0.930 . S
C108 C105 1.344 . S
C108 C107 1.371 . S
C108 H117 0.931 . S
C109 C105 1.328 . S
C109 C110 1.433 . S
C109 H118 0.931 . S
C110 C106 1.323 . S
C110 C109 1.433 . S
C110 H119 0.933 . S
C111 Dy81 2.738 . S
C111 O91 1.255 . S
C111 O92 1.249 . S
C111 C105 1.516 . S
H112 C98 0.930 . S
H113 C99 0.931 . S
H114 C100 0.931 . S
H115 C101 0.933 . S
H116 C107 0.930 . S
H117 C108 0.931 . S
H118 C109 0.931 . S
H119 C110 0.933 . S
Dy120 O123 2.307 . S
Dy120 O125 2.395 . S
Dy120 O126 2.379 . S
Dy120 O128 2.339 . S
Dy120 O130 2.298 . S
Dy120 O134 2.275 . S
Dy120 C142 2.738 . S
Dy121 O124 2.298 . S
Dy121 O127 2.275 . S
Dy121 O129 2.307 . S
Dy121 O131 2.395 . S
Dy121 O132 2.379 . S
Dy121 O135 2.339 . S
Dy121 C151 2.738 . S
C122 O134 1.254 . S
C122 O135 1.257 . S
O123 Dy120 2.307 . S
O123 C133 1.266 . S
O124 Dy121 2.298 . S
O124 C133 1.236 . S
O125 Dy120 2.395 . S
O125 C142 1.255 . S
O126 Dy120 2.379 . S
O126 C142 1.249 . S
O127 Dy121 2.275 . S
O127 C143 1.254 . S
O128 Dy120 2.339 . S
O128 C143 1.257 . S
O129 Dy121 2.307 . S
O129 C144 1.266 . S
O130 Dy120 2.298 . S
O130 C144 1.236 . S
O131 Dy121 2.395 . S
O131 C151 1.255 . S
O132 Dy121 2.379 . S
O132 C151 1.249 . S
C133 O123 1.266 . S
C133 O124 1.236 . S
O134 Dy120 2.275 . S
O134 C122 1.254 . S
O135 Dy121 2.339 . S
O135 C122 1.257 . S
C136 C139 1.344 . S
C136 C140 1.328 . S
C136 C142 1.516 1_554 S
C137 C138 1.304 . S
C137 C141 1.323 . S
C138 C137 1.304 . S
C138 C139 1.371 . S
C138 H152 0.930 . S
C139 C136 1.344 . S
C139 C138 1.371 . S
C139 H153 0.931 . S
C140 C136 1.328 . S
C140 C141 1.433 . S
C140 H154 0.931 . S
C141 C137 1.323 . S
C141 C140 1.433 . S
C141 H155 0.933 . S
C142 Dy120 2.738 . S
C142 O125 1.255 . S
C142 O126 1.249 . S
C142 C136 1.516 1_556 S
C143 O127 1.254 . S
C143 O128 1.257 . S
C144 O129 1.266 . S
C144 O130 1.236 . S
C145 C148 1.344 . S
C145 C149 1.328 . S
C145 C151 1.516 . S
C146 C147 1.304 . S
C146 C150 1.323 . S
C147 C146 1.304 . S
C147 C148 1.371 . S
C147 H156 0.930 . S
C148 C145 1.344 . S
C148 C147 1.371 . S
C148 H157 0.931 . S
C149 C145 1.328 . S
C149 C150 1.433 . S
C149 H158 0.931 . S
C150 C146 1.323 . S
C150 C149 1.433 . S
C150 H159 0.933 . S
C151 Dy121 2.738 . S
C151 O131 1.255 . S
C151 O132 1.249 . S
C151 C145 1.516 . S
H152 C138 0.930 . S
H153 C139 0.931 . S
H154 C140 0.931 . S
H155 C141 0.933 . S
H156 C147 0.930 . S
H157 C148 0.931 . S
H158 C149 0.931 . S
H159 C150 0.933 . S
Dy160 O163 2.307 . S
Dy160 O165 2.395 . S
Dy160 O166 2.379 . S
Dy160 O168 2.339 . S
Dy160 O170 2.298 . S
Dy160 O174 2.275 . S
Dy160 C182 2.738 . S
Dy161 O164 2.298 . S
Dy161 O167 2.275 . S
Dy161 O169 2.307 . S
Dy161 O171 2.395 . S
Dy161 O172 2.379 . S
Dy161 O175 2.339 . S
Dy161 C191 2.738 . S
C162 O174 1.254 . S
C162 O175 1.257 . S
O163 Dy160 2.307 . S
O163 C173 1.266 . S
O164 Dy161 2.298 . S
O164 C173 1.236 . S
O165 Dy160 2.395 . S
O165 C182 1.255 . S
O166 Dy160 2.379 . S
O166 C182 1.249 . S
O167 Dy161 2.275 . S
O167 C183 1.254 . S
O168 Dy160 2.339 . S
O168 C183 1.257 . S
O169 Dy161 2.307 . S
O169 C184 1.266 . S
O170 Dy160 2.298 . S
O170 C184 1.236 . S
O171 Dy161 2.395 . S
O171 C191 1.255 . S
O172 Dy161 2.379 . S
O172 C191 1.249 . S
C173 O163 1.266 . S
C173 O164 1.236 . S
O174 Dy160 2.275 . S
O174 C162 1.254 . S
O175 Dy161 2.339 . S
O175 C162 1.257 . S
C176 C179 1.344 . S
C176 C180 1.328 . S
C176 C182 1.516 . S
C177 C178 1.304 . S
C177 C181 1.323 . S
C178 C177 1.304 . S
C178 C179 1.371 . S
C178 H192 0.930 . S
C179 C176 1.344 . S
C179 C178 1.371 . S
C179 H193 0.931 . S
C180 C176 1.328 . S
C180 C181 1.433 . S
C180 H194 0.931 . S
C181 C177 1.323 . S
C181 C180 1.433 . S
C181 H195 0.933 . S
C182 Dy160 2.738 . S
C182 O165 1.255 . S
C182 O166 1.249 . S
C182 C176 1.516 . S
C183 O167 1.254 . S
C183 O168 1.257 . S
C184 O169 1.266 . S
C184 O170 1.236 . S
C185 C188 1.344 . S
C185 C189 1.328 1_455 S
C185 C191 1.516 . S
C186 C187 1.304 1_655 S
C186 C190 1.323 . S
C187 C186 1.304 1_455 S
C187 C188 1.371 . S
C187 H196 0.930 . S
C188 C185 1.344 . S
C188 C187 1.371 . S
C188 H197 0.931 . S
C189 C185 1.328 1_655 S
C189 C190 1.433 . S
C189 H198 0.931 . S
C190 C186 1.323 . S
C190 C189 1.433 . S
C190 H199 0.933 . S
C191 Dy161 2.738 . S
C191 O171 1.255 . S
C191 O172 1.249 . S
C191 C185 1.516 . S
H192 C178 0.930 . S
H193 C179 0.931 . S
H194 C180 0.931 . S
H195 C181 0.933 . S
H196 C187 0.930 . S
H197 C188 0.931 . S
H198 C189 0.931 . S
H199 C190 0.933 . S
Dy200 O203 2.307 1_556 S
Dy200 O205 2.395 . S
Dy200 O206 2.379 . S
Dy200 O208 2.339 . S
Dy200 O210 2.298 . S
Dy200 O214 2.275 . S
Dy200 C222 2.738 . S
Dy201 O204 2.298 . S
Dy201 O207 2.275 . S
Dy201 O209 2.307 1_554 S
Dy201 O211 2.395 . S
Dy201 O212 2.379 . S
Dy201 O215 2.339 . S
Dy201 C231 2.738 . S
C202 O214 1.250 1_554 S
C202 O215 1.272 . S
O203 Dy200 2.307 1_554 S
O203 C213 1.266 . S
O204 Dy201 2.298 . S
O204 C213 1.236 . S
O205 Dy200 2.395 . S
O205 C222 1.255 . S
O206 Dy200 2.379 . S
O206 C222 1.249 . S
O207 Dy201 2.275 . S
O207 C223 1.254 1_554 S
O208 Dy200 2.339 . S
O208 C223 1.257 . S
O209 Dy201 2.307 1_556 S
O209 C224 1.266 . S
O210 Dy200 2.298 . S
O210 C224 1.236 . S
O211 Dy201 2.395 . S
O211 C231 1.255 . S
O212 Dy201 2.379 . S
O212 C231 1.249 . S
C213 O203 1.266 . S
C213 O204 1.236 . S
O214 Dy200 2.275 . S
O214 C202 1.250 1_556 S
O215 Dy201 2.339 . S
O215 C202 1.272 . S
C216 C219 1.344 . S
C216 C220 1.328 . S
C216 C222 1.516 . S
C217 C218 1.304 . S
C217 C221 1.323 . S
C218 C217 1.304 . S
C218 C219 1.371 . S
C218 H232 0.930 . S
C219 C216 1.344 . S
C219 C218 1.371 . S
C219 H233 0.931 . S
C220 C216 1.328 . S
C220 C221 1.433 . S
C220 H234 0.931 . S
C221 C217 1.323 . S
C221 C220 1.433 . S
C221 H235 0.933 . S
C222 Dy200 2.738 . S
C222 O205 1.255 . S
C222 O206 1.249 . S
C222 C216 1.516 . S
C223 O207 1.254 1_556 S
C223 O208 1.257 . S
C224 O209 1.266 . S
C224 O210 1.236 . S
C225 C228 1.344 . S
C225 C229 1.328 . S
C225 C231 1.516 . S
C226 C227 1.304 . S
C226 C230 1.323 . S
C227 C226 1.304 . S
C227 C228 1.371 . S
C227 H236 0.930 . S
C228 C225 1.344 . S
C228 C227 1.371 . S
C228 H237 0.931 . S
C229 C225 1.328 . S
C229 C230 1.433 . S
C229 H238 0.931 . S
C230 C226 1.323 . S
C230 C229 1.433 . S
C230 H239 0.933 . S
C231 Dy201 2.738 . S
C231 O211 1.255 . S
C231 O212 1.249 . S
C231 C225 1.516 . S
H232 C218 0.930 . S
H233 C219 0.931 . S
H234 C220 0.931 . S
H235 C221 0.933 . S
H236 C227 0.930 . S
H237 C228 0.931 . S
H238 C229 0.931 . S
H239 C230 0.933 . S
Dy240 O243 2.307 . S
Dy240 O245 2.395 . S
Dy240 O246 2.379 . S
Dy240 O248 2.339 . S
Dy240 O250 2.298 . S
Dy240 O254 2.275 . S
Dy240 C262 2.738 . S
Dy241 O244 2.298 . S
Dy241 O247 2.275 . S
Dy241 O249 2.307 . S
Dy241 O251 2.395 . S
Dy241 O252 2.379 . S
Dy241 O255 2.339 . S
Dy241 C271 2.738 . S
C242 O254 1.254 . S
C242 O255 1.257 . S
O243 Dy240 2.307 . S
O243 C253 1.266 . S
O244 Dy241 2.298 . S
O244 C253 1.236 . S
O245 Dy240 2.395 . S
O245 C262 1.255 . S
O246 Dy240 2.379 . S
O246 C262 1.249 . S
O247 Dy241 2.275 . S
O247 C263 1.254 . S
O248 Dy240 2.339 . S
O248 C263 1.257 . S
O249 Dy241 2.307 . S
O249 C264 1.266 . S
O250 Dy240 2.298 . S
O250 C264 1.236 . S
O251 Dy241 2.395 . S
O251 C271 1.255 . S
O252 Dy241 2.379 . S
O252 C271 1.249 . S
C253 O243 1.266 . S
C253 O244 1.236 . S
O254 Dy240 2.275 . S
O254 C242 1.254 . S
O255 Dy241 2.339 . S
O255 C242 1.257 . S
C256 C259 1.344 . S
C256 C260 1.328 . S
C256 C262 1.516 . S
C257 C258 1.304 . S
C257 C261 1.323 . S
C258 C257 1.304 . S
C258 C259 1.371 1_556 S
C258 H272 0.930 . S
C259 C256 1.344 . S
C259 C258 1.371 1_554 S
C259 H273 0.931 . S
C260 C256 1.328 . S
C260 C261 1.433 1_554 S
C260 H274 0.931 . S
C261 C257 1.323 . S
C261 C260 1.433 1_556 S
C261 H275 0.933 . S
C262 Dy240 2.738 . S
C262 O245 1.255 . S
C262 O246 1.249 . S
C262 C256 1.516 . S
C263 O247 1.254 . S
C263 O248 1.257 . S
C264 O249 1.266 . S
C264 O250 1.236 . S
C265 C268 1.344 . S
C265 C269 1.328 . S
C265 C271 1.516 . S
C266 C267 1.304 . S
C266 C270 1.323 . S
C267 C266 1.304 . S
C267 C268 1.371 . S
C267 H276 0.930 . S
C268 C265 1.344 . S
C268 C267 1.371 . S
C268 H277 0.931 . S
C269 C265 1.328 . S
C269 C270 1.433 . S
C269 H278 0.931 . S
C270 C266 1.323 . S
C270 C269 1.433 . S
C270 H279 0.933 . S
C271 Dy241 2.738 . S
C271 O251 1.255 . S
C271 O252 1.249 . S
C271 C265 1.516 . S
H272 C258 0.930 . S
H273 C259 0.931 . S
H274 C260 0.931 . S
H275 C261 0.933 . S
H276 C267 0.930 . S
H277 C268 0.931 . S
H278 C269 0.931 . S
H279 C270 0.933 . S
Dy280 O283 2.307 . S
Dy280 O285 2.395 . S
Dy280 O286 2.379 . S
Dy280 O288 2.339 . S
Dy280 O290 2.298 . S
Dy280 O294 2.275 . S
Dy280 C302 2.738 . S
Dy281 O284 2.298 . S
Dy281 O287 2.275 . S
Dy281 O289 2.307 . S
Dy281 O291 2.395 . S
Dy281 O292 2.379 . S
Dy281 O295 2.339 . S
Dy281 C311 2.738 . S
C282 O294 1.254 . S
C282 O295 1.257 . S
O283 Dy280 2.307 . S
O283 C293 1.266 . S
O284 Dy281 2.298 . S
O284 C293 1.236 . S
O285 Dy280 2.395 . S
O285 C302 1.255 . S
O286 Dy280 2.379 . S
O286 C302 1.249 . S
O287 Dy281 2.275 . S
O287 C303 1.254 . S
O288 Dy280 2.339 . S
O288 C303 1.257 . S
O289 Dy281 2.307 . S
O289 C304 1.266 . S
O290 Dy280 2.298 . S
O290 C304 1.236 . S
O291 Dy281 2.395 . S
O291 C311 1.255 . S
O292 Dy281 2.379 . S
O292 C311 1.249 . S
C293 O283 1.266 . S
C293 O284 1.236 . S
O294 Dy280 2.275 . S
O294 C282 1.254 . S
O295 Dy281 2.339 . S
O295 C282 1.257 . S
C296 C299 1.344 . S
C296 C300 1.328 . S
C296 C302 1.516 . S
C297 C298 1.304 . S
C297 C301 1.323 . S
C298 C297 1.304 . S
C298 C299 1.371 . S
C298 H312 0.930 . S
C299 C296 1.344 . S
C299 C298 1.371 . S
C299 H313 0.931 . S
C300 C296 1.328 . S
C300 C301 1.433 . S
C300 H314 0.931 . S
C301 C297 1.323 . S
C301 C300 1.433 . S
C301 H315 0.933 . S
C302 Dy280 2.738 . S
C302 O285 1.255 . S
C302 O286 1.249 . S
C302 C296 1.516 . S
C303 O287 1.254 . S
C303 O288 1.257 . S
C304 O289 1.266 . S
C304 O290 1.236 . S
C305 C308 1.344 . S
C305 C309 1.328 . S
C305 C311 1.516 . S
C306 C307 1.304 . S
C306 C310 1.323 . S
C307 C306 1.304 . S
C307 C308 1.371 . S
C307 H316 0.930 . S
C308 C305 1.344 . S
C308 C307 1.371 . S
C308 H317 0.931 . S
C309 C305 1.328 . S
C309 C310 1.433 . S
C309 H318 0.931 . S
C310 C306 1.323 . S
C310 C309 1.433 . S
C310 H319 0.933 . S
C311 Dy281 2.738 . S
C311 O291 1.255 . S
C311 O292 1.249 . S
C311 C305 1.516 . S
H312 C298 0.930 . S
H313 C299 0.931 . S
H314 C300 0.931 . S
H315 C301 0.933 . S
H316 C307 0.930 . S
H317 C308 0.931 . S
H318 C309 0.931 . S
H319 C310 0.933 . S
Dy320 O323 2.307 . S
Dy320 O325 2.395 . S
Dy320 O326 2.379 . S
Dy320 O328 2.339 . S
Dy320 O330 2.298 . S
Dy320 O334 2.275 . S
Dy320 C342 2.738 . S
Dy321 O324 2.299 1_554 S
Dy321 O327 2.275 . S
Dy321 O329 2.307 . S
Dy321 O331 2.395 1_554 S
Dy321 O332 2.379 1_554 S
Dy321 O335 2.339 . S
Dy321 C351 2.738 1_554 S
C322 O334 1.254 . S
C322 O335 1.257 . S
O323 Dy320 2.307 . S
O323 C333 1.266 . S
O324 Dy321 2.299 1_556 S
O324 C333 1.236 1_556 S
O325 Dy320 2.395 . S
O325 C342 1.255 . S
O326 Dy320 2.379 . S
O326 C342 1.249 . S
O327 Dy321 2.275 . S
O327 C343 1.254 . S
O328 Dy320 2.339 . S
O328 C343 1.257 . S
O329 Dy321 2.307 . S
O329 C344 1.266 . S
O330 Dy320 2.298 . S
O330 C344 1.236 . S
O331 Dy321 2.395 1_556 S
O331 C351 1.255 . S
O332 Dy321 2.379 1_556 S
O332 C351 1.249 . S
C333 O323 1.266 . S
C333 O324 1.236 1_554 S
O334 Dy320 2.275 . S
O334 C322 1.254 . S
O335 Dy321 2.339 . S
O335 C322 1.257 . S
C336 C339 1.344 . S
C336 C340 1.328 . S
C336 C342 1.516 . S
C337 C338 1.304 . S
C337 C341 1.323 . S
C338 C337 1.304 . S
C338 C339 1.371 . S
C338 H352 0.930 . S
C339 C336 1.344 . S
C339 C338 1.371 . S
C339 H353 0.931 . S
C340 C336 1.328 . S
C340 C341 1.433 . S
C340 H354 0.931 . S
C341 C337 1.323 . S
C341 C340 1.433 . S
C341 H355 0.933 . S
C342 Dy320 2.738 . S
C342 O325 1.255 . S
C342 O326 1.249 . S
C342 C336 1.516 . S
C343 O327 1.254 . S
C343 O328 1.257 . S
C344 O329 1.266 . S
C344 O330 1.236 . S
C345 C348 1.344 . S
C345 C349 1.328 . S
C345 C351 1.516 . S
C346 C347 1.304 . S
C346 C350 1.323 . S
C347 C346 1.304 . S
C347 C348 1.371 . S
C347 H356 0.930 . S
C348 C345 1.344 . S
C348 C347 1.371 . S
C348 H357 0.931 . S
C349 C345 1.328 . S
C349 C350 1.433 . S
C349 H358 0.931 . S
C350 C346 1.323 . S
C350 C349 1.433 . S
C350 H359 0.933 . S
C351 Dy321 2.738 1_556 S
C351 O331 1.255 . S
C351 O332 1.249 . S
C351 C345 1.516 . S
H352 C338 0.930 . S
H353 C339 0.931 . S
H354 C340 0.931 . S
H355 C341 0.933 . S
H356 C347 0.930 . S
H357 C348 0.931 . S
H358 C349 0.931 . S
H359 C350 0.933 . S
Dy360 O363 2.307 1_554 S
Dy360 O365 2.395 . S
Dy360 O366 2.379 . S
Dy360 O368 2.339 1_554 S
Dy360 O370 2.298 . S
Dy360 O374 2.275 1_554 S
Dy360 C382 2.738 . S
Dy361 O364 2.298 . S
Dy361 O367 2.275 . S
Dy361 O369 2.307 . S
Dy361 O371 2.395 . S
Dy361 O372 2.379 . S
Dy361 O375 2.339 . S
Dy361 C391 2.738 . S
C362 O374 1.254 . S
C362 O375 1.257 . S
O363 Dy360 2.307 1_556 S
O363 C373 1.266 . S
O364 Dy361 2.298 . S
O364 C373 1.236 . S
O365 Dy360 2.395 . S
O365 C382 1.255 . S
O366 Dy360 2.379 . S
O366 C382 1.249 . S
O367 Dy361 2.275 . S
O367 C383 1.254 . S
O368 Dy360 2.339 1_556 S
O368 C383 1.257 . S
O369 Dy361 2.307 . S
O369 C384 1.266 1_556 S
O370 Dy360 2.298 . S
O370 C384 1.236 . S
O371 Dy361 2.395 . S
O371 C391 1.255 . S
O372 Dy361 2.379 . S
O372 C391 1.249 . S
C373 O363 1.266 . S
C373 O364 1.236 . S
O374 Dy360 2.275 1_556 S
O374 C362 1.254 . S
O375 Dy361 2.339 . S
O375 C362 1.257 . S
C376 C379 1.344 . S
C376 C380 1.328 . S
C376 C382 1.516 . S
C377 C378 1.304 . S
C377 C381 1.323 . S
C378 C377 1.304 . S
C378 C379 1.371 . S
C378 H392 0.930 . S
C379 C376 1.344 . S
C379 C378 1.371 . S
C379 H393 0.931 . S
C380 C376 1.328 . S
C380 C381 1.433 . S
C380 H394 0.931 . S
C381 C377 1.323 . S
C381 C380 1.433 . S
C381 H395 0.933 . S
C382 Dy360 2.738 . S
C382 O365 1.255 . S
C382 O366 1.249 . S
C382 C376 1.516 . S
C383 O367 1.254 . S
C383 O368 1.257 . S
C384 O369 1.266 1_554 S
C384 O370 1.236 . S
C385 C388 1.344 . S
C385 C389 1.328 . S
C385 C391 1.516 . S
C386 C387 1.304 . S
C386 C390 1.323 . S
C387 C386 1.304 . S
C387 C388 1.371 . S
C387 H396 0.930 . S
C388 C385 1.344 . S
C388 C387 1.371 . S
C388 H397 0.931 . S
C389 C385 1.328 . S
C389 C390 1.433 . S
C389 H398 0.931 . S
C390 C386 1.323 . S
C390 C389 1.433 . S
C390 H399 0.933 . S
C391 Dy361 2.738 . S
C391 O371 1.255 . S
C391 O372 1.249 . S
C391 C385 1.516 . S
H392 C378 0.930 . S
H393 C379 0.931 . S
H394 C380 0.931 . S
H395 C381 0.933 . S
H396 C387 0.930 . S
H397 C388 0.931 . S
H398 C389 0.931 . S
H399 C390 0.933 . S
Dy400 O403 2.307 . S
Dy400 O405 2.395 . S
Dy400 O406 2.379 . S
Dy400 O408 2.339 . S
Dy400 O410 2.298 . S
Dy400 O414 2.275 . S
Dy400 C422 2.738 . S
Dy401 O404 2.298 . S
Dy401 O407 2.275 . S
Dy401 O409 2.307 . S
Dy401 O411 2.395 . S
Dy401 O412 2.379 . S
Dy401 O415 2.339 . S
Dy401 C431 2.738 . S
C402 O414 1.254 . S
C402 O415 1.257 . S
O403 Dy400 2.307 . S
O403 C413 1.266 . S
O404 Dy401 2.298 . S
O404 C413 1.236 . S
O405 Dy400 2.395 . S
O405 C422 1.255 . S
O406 Dy400 2.379 . S
O406 C422 1.249 . S
O407 Dy401 2.275 . S
O407 C423 1.254 . S
O408 Dy400 2.339 . S
O408 C423 1.257 . S
O409 Dy401 2.307 . S
O409 C424 1.266 . S
O410 Dy400 2.298 . S
O410 C424 1.236 . S
O411 Dy401 2.395 . S
O411 C431 1.255 . S
O412 Dy401 2.379 . S
O412 C431 1.249 . S
C413 O403 1.266 . S
C413 O404 1.236 . S
O414 Dy400 2.275 . S
O414 C402 1.254 . S
O415 Dy401 2.339 . S
O415 C402 1.257 . S
C416 C419 1.344 . S
C416 C420 1.328 . S
C416 C422 1.516 . S
C417 C418 1.304 . S
C417 C421 1.323 . S
C418 C417 1.304 . S
C418 C419 1.371 . S
C418 H432 0.930 . S
C419 C416 1.344 . S
C419 C418 1.371 . S
C419 H433 0.931 . S
C420 C416 1.328 . S
C420 C421 1.433 . S
C420 H434 0.931 . S
C421 C417 1.323 . S
C421 C420 1.433 . S
C421 H435 0.933 . S
C422 Dy400 2.738 . S
C422 O405 1.255 . S
C422 O406 1.249 . S
C422 C416 1.516 . S
C423 O407 1.254 . S
C423 O408 1.257 . S
C424 O409 1.266 . S
C424 O410 1.236 . S
C425 C428 1.344 . S
C425 C429 1.328 . S
C425 C431 1.516 . S
C426 C427 1.304 . S
C426 C430 1.323 . S
C427 C426 1.304 . S
C427 C428 1.371 . S
C427 H436 0.930 . S
C428 C425 1.344 . S
C428 C427 1.371 . S
C428 H437 0.931 . S
C429 C425 1.328 . S
C429 C430 1.433 . S
C429 H438 0.931 . S
C430 C426 1.323 . S
C430 C429 1.433 . S
C430 H439 0.933 . S
C431 Dy401 2.738 . S
C431 O411 1.255 . S
C431 O412 1.249 . S
C431 C425 1.516 . S
H432 C418 0.930 . S
H433 C419 0.931 . S
H434 C420 0.931 . S
H435 C421 0.933 . S
H436 C427 0.930 . S
H437 C428 0.931 . S
H438 C429 0.931 . S
H439 C430 0.933 . S
Dy440 O443 2.307 . S
Dy440 O445 2.395 . S
Dy440 O446 2.379 . S
Dy440 O448 2.339 . S
Dy440 O450 2.298 . S
Dy440 O454 2.275 . S
Dy440 C462 2.738 . S
Dy441 O444 2.298 . S
Dy441 O447 2.275 . S
Dy441 O449 2.307 . S
Dy441 O451 2.395 . S
Dy441 O452 2.379 . S
Dy441 O455 2.339 . S
Dy441 C471 2.738 . S
C442 O454 1.254 . S
C442 O455 1.257 . S
O443 Dy440 2.307 . S
O443 C453 1.266 . S
O444 Dy441 2.298 . S
O444 C453 1.236 . S
O445 Dy440 2.395 . S
O445 C462 1.255 . S
O446 Dy440 2.379 . S
O446 C462 1.249 . S
O447 Dy441 2.275 . S
O447 C463 1.254 . S
O448 Dy440 2.339 . S
O448 C463 1.257 . S
O449 Dy441 2.307 . S
O449 C464 1.266 . S
O450 Dy440 2.298 . S
O450 C464 1.236 . S
O451 Dy441 2.395 . S
O451 C471 1.255 . S
O452 Dy441 2.379 . S
O452 C471 1.249 . S
C453 O443 1.266 . S
C453 O444 1.236 . S
O454 Dy440 2.275 . S
O454 C442 1.254 . S
O455 Dy441 2.339 . S
O455 C442 1.257 . S
C456 C459 1.344 . S
C456 C460 1.328 . S
C456 C462 1.516 . S
C457 C458 1.304 . S
C457 C461 1.323 . S
C458 C457 1.304 . S
C458 C459 1.371 . S
C458 H472 0.930 . S
C459 C456 1.344 . S
C459 C458 1.371 . S
C459 H473 0.931 . S
C460 C456 1.328 . S
C460 C461 1.433 . S
C460 H474 0.931 . S
C461 C457 1.323 . S
C461 C460 1.433 . S
C461 H475 0.933 . S
C462 Dy440 2.738 . S
C462 O445 1.255 . S
C462 O446 1.249 . S
C462 C456 1.516 . S
C463 O447 1.254 . S
C463 O448 1.257 . S
C464 O449 1.266 . S
C464 O450 1.236 . S
C465 C468 1.344 . S
C465 C469 1.328 . S
C465 C471 1.516 . S
C466 C467 1.304 . S
C466 C470 1.323 . S
C467 C466 1.304 . S
C467 C468 1.371 . S
C467 H476 0.930 . S
C468 C465 1.344 . S
C468 C467 1.371 . S
C468 H477 0.931 . S
C469 C465 1.328 . S
C469 C470 1.433 . S
C469 H478 0.931 . S
C470 C466 1.323 . S
C470 C469 1.433 . S
C470 H479 0.933 . S
C471 Dy441 2.738 . S
C471 O451 1.255 . S
C471 O452 1.249 . S
C471 C465 1.516 . S
H472 C458 0.930 . S
H473 C459 0.931 . S
H474 C460 0.931 . S
H475 C461 0.933 . S
H476 C467 0.930 . S
H477 C468 0.931 . S
H478 C469 0.931 . S
H479 C470 0.933 . S
Dy480 O483 2.307 . S
Dy480 O485 2.395 . S
Dy480 O486 2.379 . S
Dy480 O488 2.339 . S
Dy480 O490 2.298 . S
Dy480 O494 2.275 . S
Dy480 C502 2.738 . S
Dy481 O484 2.298 . S
Dy481 O487 2.275 . S
Dy481 O489 2.307 . S
Dy481 O491 2.395 . S
Dy481 O492 2.379 . S
Dy481 O495 2.339 . S
Dy481 C511 2.738 . S
C482 O494 1.254 . S
C482 O495 1.257 . S
O483 Dy480 2.307 . S
O483 C493 1.266 . S
O484 Dy481 2.298 . S
O484 C493 1.236 . S
O485 Dy480 2.395 . S
O485 C502 1.255 . S
O486 Dy480 2.379 . S
O486 C502 1.249 . S
O487 Dy481 2.275 . S
O487 C503 1.254 . S
O488 Dy480 2.339 . S
O488 C503 1.257 . S
O489 Dy481 2.307 . S
O489 C504 1.266 . S
O490 Dy480 2.298 . S
O490 C504 1.236 . S
O491 Dy481 2.395 . S
O491 C511 1.255 . S
O492 Dy481 2.379 . S
O492 C511 1.249 . S
C493 O483 1.266 . S
C493 O484 1.236 . S
O494 Dy480 2.275 . S
O494 C482 1.254 . S
O495 Dy481 2.339 . S
O495 C482 1.257 . S
C496 C499 1.344 . S
C496 C500 1.328 1_655 S
C496 C502 1.516 . S
C497 C498 1.304 1_455 S
C497 C501 1.323 . S
C498 C497 1.304 1_655 S
C498 C499 1.371 . S
C498 H512 0.930 . S
C499 C496 1.344 . S
C499 C498 1.371 . S
C499 H513 0.931 . S
C500 C496 1.328 1_455 S
C500 C501 1.433 . S
C500 H514 0.931 . S
C501 C497 1.323 . S
C501 C500 1.433 . S
C501 H515 0.933 . S
C502 Dy480 2.738 . S
C502 O485 1.255 . S
C502 O486 1.249 . S
C502 C496 1.516 . S
C503 O487 1.254 . S
C503 O488 1.257 . S
C504 O489 1.266 . S
C504 O490 1.236 . S
C505 C508 1.344 . S
C505 C509 1.328 . S
C505 C511 1.516 . S
C506 C507 1.304 . S
C506 C510 1.323 . S
C507 C506 1.304 . S
C507 C508 1.371 . S
C507 H516 0.930 . S
C508 C505 1.344 . S
C508 C507 1.371 . S
C508 H517 0.931 . S
C509 C505 1.328 . S
C509 C510 1.433 . S
C509 H518 0.931 . S
C510 C506 1.323 . S
C510 C509 1.433 . S
C510 H519 0.933 . S
C511 Dy481 2.738 . S
C511 O491 1.255 . S
C511 O492 1.249 . S
C511 C505 1.516 . S
H512 C498 0.930 . S
H513 C499 0.931 . S
H514 C500 0.931 . S
H515 C501 0.933 . S
H516 C507 0.930 . S
H517 C508 0.931 . S
H518 C509 0.931 . S
H519 C510 0.933 . S
Dy520 O523 2.307 . S
Dy520 O525 2.395 . S
Dy520 O526 2.379 . S
Dy520 O528 2.339 . S
Dy520 O530 2.298 . S
Dy520 O534 2.275 . S
Dy520 C542 2.738 . S
Dy521 O524 2.298 . S
Dy521 O527 2.275 . S
Dy521 O529 2.307 . S
Dy521 O531 2.395 . S
Dy521 O532 2.379 . S
Dy521 O535 2.339 . S
Dy521 C551 2.738 . S
C522 O534 1.254 . S
C522 O535 1.257 . S
O523 Dy520 2.307 . S
O523 C533 1.266 . S
O524 Dy521 2.298 . S
O524 C533 1.236 . S
O525 Dy520 2.395 . S
O525 C542 1.255 . S
O526 Dy520 2.379 . S
O526 C542 1.249 . S
O527 Dy521 2.275 . S
O527 C543 1.254 . S
O528 Dy520 2.339 . S
O528 C543 1.257 . S
O529 Dy521 2.307 . S
O529 C544 1.266 . S
O530 Dy520 2.298 . S
O530 C544 1.236 . S
O531 Dy521 2.395 . S
O531 C551 1.255 . S
O532 Dy521 2.379 . S
O532 C551 1.249 . S
C533 O523 1.266 . S
C533 O524 1.236 . S
O534 Dy520 2.275 . S
O534 C522 1.254 . S
O535 Dy521 2.339 . S
O535 C522 1.257 . S
C536 C539 1.344 . S
C536 C540 1.328 . S
C536 C542 1.516 . S
C537 C538 1.304 . S
C537 C541 1.323 . S
C538 C537 1.304 . S
C538 C539 1.371 . S
C538 H552 0.930 . S
C539 C536 1.344 . S
C539 C538 1.371 . S
C539 H553 0.931 . S
C540 C536 1.328 . S
C540 C541 1.433 . S
C540 H554 0.931 . S
C541 C537 1.323 . S
C541 C540 1.433 . S
C541 H555 0.933 . S
C542 Dy520 2.738 . S
C542 O525 1.255 . S
C542 O526 1.249 . S
C542 C536 1.516 . S
C543 O527 1.254 . S
C543 O528 1.257 . S
C544 O529 1.266 . S
C544 O530 1.236 . S
C545 C548 1.344 . S
C545 C549 1.328 . S
C545 C551 1.516 . S
C546 C547 1.304 . S
C546 C550 1.323 . S
C547 C546 1.304 . S
C547 C548 1.371 . S
C547 H556 0.930 . S
C548 C545 1.344 . S
C548 C547 1.371 . S
C548 H557 0.931 . S
C549 C545 1.328 . S
C549 C550 1.433 . S
C549 H558 0.931 . S
C550 C546 1.323 . S
C550 C549 1.433 . S
C550 H559 0.933 . S
C551 Dy521 2.738 . S
C551 O531 1.255 . S
C551 O532 1.249 . S
C551 C545 1.516 . S
H552 C538 0.930 . S
H553 C539 0.931 . S
H554 C540 0.931 . S
H555 C541 0.933 . S
H556 C547 0.930 . S
H557 C548 0.931 . S
H558 C549 0.931 . S
H559 C550 0.933 . S
Dy560 O563 2.307 . S
Dy560 O565 2.395 . S
Dy560 O566 2.379 . S
Dy560 O568 2.339 . S
Dy560 O570 2.298 . S
Dy560 O574 2.275 . S
Dy560 C582 2.738 . S
Dy561 O564 2.298 . S
Dy561 O567 2.275 . S
Dy561 O569 2.307 . S
Dy561 O571 2.395 . S
Dy561 O572 2.379 . S
Dy561 O575 2.339 . S
Dy561 C591 2.738 . S
C562 O574 1.254 . S
C562 O575 1.257 . S
O563 Dy560 2.307 . S
O563 C573 1.266 . S
O564 Dy561 2.298 . S
O564 C573 1.236 . S
O565 Dy560 2.395 . S
O565 C582 1.255 . S
O566 Dy560 2.379 . S
O566 C582 1.249 . S
O567 Dy561 2.275 . S
O567 C583 1.254 . S
O568 Dy560 2.339 . S
O568 C583 1.257 . S
O569 Dy561 2.307 . S
O569 C584 1.266 . S
O570 Dy560 2.298 . S
O570 C584 1.236 . S
O571 Dy561 2.395 . S
O571 C591 1.255 . S
O572 Dy561 2.379 . S
O572 C591 1.249 . S
C573 O563 1.266 . S
C573 O564 1.236 . S
O574 Dy560 2.275 . S
O574 C562 1.254 . S
O575 Dy561 2.339 . S
O575 C562 1.257 . S
C576 C579 1.344 . S
C576 C580 1.328 . S
C576 C582 1.516 1_556 S
C577 C578 1.304 . S
C577 C581 1.323 . S
C578 C577 1.304 . S
C578 C579 1.371 . S
C578 H592 0.930 . S
C579 C576 1.344 . S
C579 C578 1.371 . S
C579 H593 0.931 . S
C580 C576 1.328 . S
C580 C581 1.433 . S
C580 H594 0.931 . S
C581 C577 1.323 . S
C581 C580 1.433 . S
C581 H595 0.933 . S
C582 Dy560 2.738 . S
C582 O565 1.255 . S
C582 O566 1.249 . S
C582 C576 1.516 1_554 S
C583 O567 1.254 . S
C583 O568 1.257 . S
C584 O569 1.266 . S
C584 O570 1.236 . S
C585 C588 1.344 . S
C585 C589 1.328 . S
C585 C591 1.516 . S
C586 C587 1.304 . S
C586 C590 1.323 . S
C587 C586 1.304 . S
C587 C588 1.371 . S
C587 H596 0.930 . S
C588 C585 1.344 . S
C588 C587 1.371 . S
C588 H597 0.931 . S
C589 C585 1.328 . S
C589 C590 1.433 . S
C589 H598 0.931 . S
C590 C586 1.323 . S
C590 C589 1.433 . S
C590 H599 0.933 . S
C591 Dy561 2.738 . S
C591 O571 1.255 . S
C591 O572 1.249 . S
C591 C585 1.516 . S
H592 C578 0.930 . S
H593 C579 0.931 . S
H594 C580 0.931 . S
H595 C581 0.933 . S
H596 C587 0.930 . S
H597 C588 0.931 . S
H598 C589 0.931 . S
H599 C590 0.933 . S
Dy600 O603 2.307 . S
Dy600 O605 2.395 . S
Dy600 O606 2.379 . S
Dy600 O608 2.339 . S
Dy600 O610 2.298 . S
Dy600 O614 2.275 . S
Dy600 C622 2.738 . S
Dy601 O604 2.298 . S
Dy601 O607 2.275 . S
Dy601 O609 2.307 . S
Dy601 O611 2.395 1_556 S
Dy601 O612 2.379 . S
Dy601 O615 2.339 . S
Dy601 C631 2.738 1_556 S
C602 O614 1.254 . S
C602 O615 1.257 . S
O603 Dy600 2.307 . S
O603 C613 1.266 . S
O604 Dy601 2.298 . S
O604 C613 1.236 . S
O605 Dy600 2.395 . S
O605 C622 1.255 . S
O606 Dy600 2.379 . S
O606 C622 1.249 . S
O607 Dy601 2.275 . S
O607 C623 1.254 . S
O608 Dy600 2.339 . S
O608 C623 1.257 . S
O609 Dy601 2.307 . S
O609 C624 1.266 . S
O610 Dy600 2.298 . S
O610 C624 1.236 . S
O611 Dy601 2.395 1_554 S
O611 C631 1.255 . S
O612 Dy601 2.379 . S
O612 C631 1.249 1_556 S
C613 O603 1.266 . S
C613 O604 1.236 . S
O614 Dy600 2.275 . S
O614 C602 1.254 . S
O615 Dy601 2.339 . S
O615 C602 1.257 . S
C616 C619 1.344 . S
C616 C620 1.328 . S
C616 C622 1.516 . S
C617 C618 1.304 . S
C617 C621 1.323 . S
C618 C617 1.304 . S
C618 C619 1.371 . S
C618 H632 0.930 . S
C619 C616 1.344 . S
C619 C618 1.371 . S
C619 H633 0.931 . S
C620 C616 1.328 . S
C620 C621 1.433 . S
C620 H634 0.931 . S
C621 C617 1.323 . S
C621 C620 1.433 . S
C621 H635 0.933 . S
C622 Dy600 2.738 . S
C622 O605 1.255 . S
C622 O606 1.249 . S
C622 C616 1.516 . S
C623 O607 1.254 . S
C623 O608 1.257 . S
C624 O609 1.266 . S
C624 O610 1.236 . S
C625 C628 1.344 . S
C625 C629 1.328 . S
C625 C631 1.516 . S
C626 C627 1.304 . S
C626 C630 1.323 . S
C627 C626 1.304 . S
C627 C628 1.371 . S
C627 H636 0.930 . S
C628 C625 1.344 . S
C628 C627 1.371 . S
C628 H637 0.931 . S
C629 C625 1.328 . S
C629 C630 1.433 . S
C629 H638 0.931 . S
C630 C626 1.323 . S
C630 C629 1.433 . S
C630 H639 0.933 . S
C631 Dy601 2.738 1_554 S
C631 O611 1.255 . S
C631 O612 1.249 1_554 S
C631 C625 1.516 . S
H632 C618 0.930 . S
H633 C619 0.931 . S
H634 C620 0.931 . S
H635 C621 0.933 . S
H636 C627 0.930 . S
H637 C628 0.931 . S
H638 C629 0.931 . S
H639 C630 0.933 . S
Dy640 O643 2.307 . S
Dy640 O645 2.395 . S
Dy640 O646 2.379 1_565 S
Dy640 O648 2.339 1_565 S
Dy640 O650 2.298 . S
Dy640 O654 2.275 . S
Dy640 C662 2.738 1_565 S
Dy641 O644 2.298 . S
Dy641 O647 2.275 . S
Dy641 O649 2.307 . S
Dy641 O651 2.395 . S
Dy641 O652 2.379 . S
Dy641 O655 2.339 . S
Dy641 C671 2.738 . S
C642 O654 1.254 . S
C642 O655 1.257 . S
O643 Dy640 2.307 . S
O643 C653 1.266 . S
O644 Dy641 2.298 . S
O644 C653 1.236 . S
O645 Dy640 2.395 . S
O645 C662 1.255 1_565 S
O646 Dy640 2.379 1_545 S
O646 C662 1.249 . S
O647 Dy641 2.275 . S
O647 C663 1.254 . S
O648 Dy640 2.339 1_545 S
O648 C663 1.257 1_545 S
O649 Dy641 2.307 . S
O649 C664 1.266 . S
O650 Dy640 2.298 . S
O650 C664 1.236 . S
O651 Dy641 2.395 . S
O651 C671 1.255 . S
O652 Dy641 2.379 . S
O652 C671 1.249 . S
C653 O643 1.266 . S
C653 O644 1.236 . S
O654 Dy640 2.275 . S
O654 C642 1.254 . S
O655 Dy641 2.339 . S
O655 C642 1.257 . S
C656 C659 1.344 . S
C656 C660 1.328 . S
C656 C662 1.516 . S
C657 C658 1.304 . S
C657 C661 1.323 . S
C658 C657 1.304 . S
C658 C659 1.371 1_554 S
C658 H672 0.930 . S
C659 C656 1.344 . S
C659 C658 1.371 1_556 S
C659 H673 0.931 1_545 S
C660 C656 1.328 . S
C660 C661 1.433 1_556 S
C660 H674 0.931 . S
C661 C657 1.323 . S
C661 C660 1.433 1_554 S
C661 H675 0.933 . S
C662 Dy640 2.738 1_545 S
C662 O645 1.255 1_545 S
C662 O646 1.249 . S
C662 C656 1.516 . S
C663 O647 1.254 . S
C663 O648 1.257 1_565 S
C664 O649 1.266 . S
C664 O650 1.236 . S
C665 C668 1.344 . S
C665 C669 1.328 . S
C665 C671 1.516 . S
C666 C667 1.304 . S
C666 C670 1.323 . S
C667 C666 1.304 . S
C667 C668 1.371 . S
C667 H676 0.930 . S
C668 C665 1.344 . S
C668 C667 1.371 . S
C668 H677 0.931 . S
C669 C665 1.328 . S
C669 C670 1.433 . S
C669 H678 0.931 . S
C670 C666 1.323 . S
C670 C669 1.433 . S
C670 H679 0.933 . S
C671 Dy641 2.738 . S
C671 O651 1.255 . S
C671 O652 1.249 . S
C671 C665 1.516 . S
H672 C658 0.930 . S
H673 C659 0.931 1_565 S
H674 C660 0.931 . S
H675 C661 0.933 . S
H676 C667 0.930 . S
H677 C668 0.931 . S
H678 C669 0.931 . S
H679 C670 0.933 . S
Dy680 O683 2.307 . S
Dy680 O685 2.395 1_556 S
Dy680 O686 2.379 . S
Dy680 O688 2.339 . S
Dy680 O690 2.298 . S
Dy680 O694 2.275 . S
Dy680 C702 2.738 1_556 S
Dy681 O684 2.298 . S
Dy681 O687 2.275 . S
Dy681 O689 2.307 . S
Dy681 O691 2.395 . S
Dy681 O692 2.379 . S
Dy681 O695 2.339 . S
Dy681 C711 2.738 . S
C682 O694 1.254 . S
C682 O695 1.257 . S
O683 Dy680 2.307 . S
O683 C693 1.266 . S
O684 Dy681 2.298 . S
O684 C693 1.236 . S
O685 Dy680 2.395 1_554 S
O685 C702 1.255 . S
O686 Dy680 2.379 . S
O686 C702 1.249 1_556 S
O687 Dy681 2.275 . S
O687 C703 1.254 . S
O688 Dy680 2.339 . S
O688 C703 1.257 . S
O689 Dy681 2.307 . S
O689 C704 1.266 . S
O690 Dy680 2.298 . S
O690 C704 1.236 . S
O691 Dy681 2.395 . S
O691 C711 1.255 . S
O692 Dy681 2.379 . S
O692 C711 1.249 . S
C693 O683 1.266 . S
C693 O684 1.236 . S
O694 Dy680 2.275 . S
O694 C682 1.254 . S
O695 Dy681 2.339 . S
O695 C682 1.257 . S
C696 C699 1.344 . S
C696 C700 1.328 . S
C696 C702 1.516 . S
C697 C698 1.304 . S
C697 C701 1.323 . S
C698 C697 1.304 . S
C698 C699 1.371 . S
C698 H712 0.930 . S
C699 C696 1.344 . S
C699 C698 1.371 . S
C699 H713 0.931 . S
C700 C696 1.328 . S
C700 C701 1.433 . S
C700 H714 0.931 . S
C701 C697 1.323 . S
C701 C700 1.433 . S
C701 H715 0.933 . S
C702 Dy680 2.738 1_554 S
C702 O685 1.255 . S
C702 O686 1.249 1_554 S
C702 C696 1.516 . S
C703 O687 1.254 . S
C703 O688 1.257 . S
C704 O689 1.266 . S
C704 O690 1.236 . S
C705 C708 1.344 . S
C705 C709 1.328 . S
C705 C711 1.516 . S
C706 C707 1.304 . S
C706 C710 1.323 . S
C707 C706 1.304 . S
C707 C708 1.371 . S
C707 H716 0.930 . S
C708 C705 1.344 . S
C708 C707 1.371 . S
C708 H717 0.931 . S
C709 C705 1.328 . S
C709 C710 1.433 . S
C709 H718 0.931 . S
C710 C706 1.323 . S
C710 C709 1.433 . S
C710 H719 0.933 . S
C711 Dy681 2.738 . S
C711 O691 1.255 . S
C711 O692 1.249 . S
C711 C705 1.516 . S
H712 C698 0.930 . S
H713 C699 0.931 . S
H714 C700 0.931 . S
H715 C701 0.933 . S
H716 C707 0.930 . S
H717 C708 0.931 . S
H718 C709 0.931 . S
H719 C710 0.933 . S
Dy720 O723 2.307 . S
Dy720 O725 2.395 . S
Dy720 O726 2.379 . S
Dy720 O728 2.339 . S
Dy720 O730 2.298 . S
Dy720 O734 2.275 . S
Dy720 C742 2.738 . S
Dy721 O724 2.298 . S
Dy721 O727 2.275 . S
Dy721 O729 2.307 . S
Dy721 O731 2.395 . S
Dy721 O732 2.379 . S
Dy721 O735 2.339 . S
Dy721 C751 2.738 . S
C722 O734 1.254 . S
C722 O735 1.257 . S
O723 Dy720 2.307 . S
O723 C733 1.266 . S
O724 Dy721 2.298 . S
O724 C733 1.236 . S
O725 Dy720 2.395 . S
O725 C742 1.255 . S
O726 Dy720 2.379 . S
O726 C742 1.249 . S
O727 Dy721 2.275 . S
O727 C743 1.254 . S
O728 Dy720 2.339 . S
O728 C743 1.257 . S
O729 Dy721 2.307 . S
O729 C744 1.266 . S
O730 Dy720 2.298 . S
O730 C744 1.236 . S
O731 Dy721 2.395 . S
O731 C751 1.255 . S
O732 Dy721 2.379 . S
O732 C751 1.249 . S
C733 O723 1.266 . S
C733 O724 1.236 . S
O734 Dy720 2.275 . S
O734 C722 1.254 . S
O735 Dy721 2.339 . S
O735 C722 1.257 . S
C736 C739 1.344 . S
C736 C740 1.328 . S
C736 C742 1.516 . S
C737 C738 1.304 . S
C737 C741 1.323 1_545 S
C738 C737 1.304 . S
C738 C739 1.371 . S
C738 H752 0.930 . S
C739 C736 1.344 . S
C739 C738 1.371 . S
C739 H753 0.931 . S
C740 C736 1.328 . S
C740 C741 1.433 1_545 S
C740 H754 0.931 1_545 S
C741 C737 1.323 1_565 S
C741 C740 1.433 1_565 S
C741 H755 0.933 . S
C742 Dy720 2.738 . S
C742 O725 1.255 . S
C742 O726 1.249 . S
C742 C736 1.516 . S
C743 O727 1.254 . S
C743 O728 1.257 . S
C744 O729 1.266 . S
C744 O730 1.236 . S
C745 C748 1.344 . S
C745 C749 1.328 . S
C745 C751 1.516 1_556 S
C746 C747 1.304 . S
C746 C750 1.323 . S
C747 C746 1.304 . S
C747 C748 1.371 . S
C747 H756 0.930 1_655 S
C748 C745 1.344 . S
C748 C747 1.371 . S
C748 H757 0.931 . S
C749 C745 1.328 . S
C749 C750 1.433 . S
C749 H758 0.931 . S
C750 C746 1.323 . S
C750 C749 1.433 . S
C750 H759 0.933 . S
C751 Dy721 2.738 . S
C751 O731 1.255 . S
C751 O732 1.249 . S
C751 C745 1.516 1_554 S
H752 C738 0.930 . S
H753 C739 0.931 . S
H754 C740 0.931 1_565 S
H755 C741 0.933 . S
H756 C747 0.930 1_455 S
H757 C748 0.931 . S
H758 C749 0.931 . S
H759 C750 0.933 . S
Dy760 O763 2.307 . S
Dy760 O765 2.395 . S
Dy760 O766 2.379 . S
Dy760 O768 2.339 . S
Dy760 O770 2.298 . S
Dy760 O774 2.275 . S
Dy760 C782 2.738 . S
Dy761 O764 2.298 . S
Dy761 O767 2.275 . S
Dy761 O769 2.307 . S
Dy761 O771 2.395 . S
Dy761 O772 2.379 . S
Dy761 O775 2.339 . S
Dy761 C791 2.738 . S
C762 O774 1.254 . S
C762 O775 1.257 . S
O763 Dy760 2.307 . S
O763 C773 1.266 . S
O764 Dy761 2.298 . S
O764 C773 1.236 . S
O765 Dy760 2.395 . S
O765 C782 1.255 . S
O766 Dy760 2.379 . S
O766 C782 1.249 . S
O767 Dy761 2.275 . S
O767 C783 1.254 . S
O768 Dy760 2.339 . S
O768 C783 1.257 . S
O769 Dy761 2.307 . S
O769 C784 1.266 . S
O770 Dy760 2.298 . S
O770 C784 1.236 . S
O771 Dy761 2.395 . S
O771 C791 1.255 . S
O772 Dy761 2.379 . S
O772 C791 1.249 . S
C773 O763 1.266 . S
C773 O764 1.236 . S
O774 Dy760 2.275 . S
O774 C762 1.254 . S
O775 Dy761 2.339 . S
O775 C762 1.257 . S
C776 C779 1.344 . S
C776 C780 1.328 . S
C776 C782 1.516 . S
C777 C778 1.304 . S
C777 C781 1.323 . S
C778 C777 1.304 . S
C778 C779 1.371 . S
C778 H792 0.930 . S
C779 C776 1.344 . S
C779 C778 1.371 . S
C779 H793 0.931 . S
C780 C776 1.328 . S
C780 C781 1.433 . S
C780 H794 0.931 . S
C781 C777 1.323 . S
C781 C780 1.433 . S
C781 H795 0.933 . S
C782 Dy760 2.738 . S
C782 O765 1.255 . S
C782 O766 1.249 . S
C782 C776 1.516 . S
C783 O767 1.254 . S
C783 O768 1.257 . S
C784 O769 1.266 . S
C784 O770 1.236 . S
C785 C788 1.344 . S
C785 C789 1.328 . S
C785 C791 1.516 . S
C786 C787 1.304 . S
C786 C790 1.323 . S
C787 C786 1.304 . S
C787 C788 1.371 . S
C787 H796 0.930 . S
C788 C785 1.344 . S
C788 C787 1.371 . S
C788 H797 0.931 . S
C789 C785 1.328 . S
C789 C790 1.433 . S
C789 H798 0.931 . S
C790 C786 1.323 . S
C790 C789 1.433 . S
C790 H799 0.933 . S
C791 Dy761 2.738 . S
C791 O771 1.255 . S
C791 O772 1.249 . S
C791 C785 1.516 . S
H792 C778 0.930 . S
H793 C779 0.931 . S
H794 C780 0.931 . S
H795 C781 0.933 . S
H796 C787 0.930 . S
H797 C788 0.931 . S
H798 C789 0.931 . S
H799 C790 0.933 . S
Dy800 O803 2.307 . S
Dy800 O805 2.395 . S
Dy800 O806 2.379 . S
Dy800 O808 2.339 . S
Dy800 O810 2.298 . S
Dy800 O814 2.275 . S
Dy800 C822 2.738 . S
Dy801 O804 2.298 . S
Dy801 O807 2.275 . S
Dy801 O809 2.307 . S
Dy801 O811 2.395 . S
Dy801 O812 2.379 . S
Dy801 O815 2.339 . S
Dy801 C831 2.738 . S
C802 O814 1.254 . S
C802 O815 1.257 . S
O803 Dy800 2.307 . S
O803 C813 1.266 . S
O804 Dy801 2.298 . S
O804 C813 1.236 . S
O805 Dy800 2.395 . S
O805 C822 1.255 . S
O806 Dy800 2.379 . S
O806 C822 1.249 . S
O807 Dy801 2.275 . S
O807 C823 1.254 . S
O808 Dy800 2.339 . S
O808 C823 1.257 . S
O809 Dy801 2.307 . S
O809 C824 1.266 . S
O810 Dy800 2.298 . S
O810 C824 1.236 . S
O811 Dy801 2.395 . S
O811 C831 1.255 . S
O812 Dy801 2.379 . S
O812 C831 1.249 . S
C813 O803 1.266 . S
C813 O804 1.236 . S
O814 Dy800 2.275 . S
O814 C802 1.254 . S
O815 Dy801 2.339 . S
O815 C802 1.257 . S
C816 C819 1.344 . S
C816 C820 1.328 . S
C816 C822 1.516 . S
C817 C818 1.304 . S
C817 C821 1.323 . S
C818 C817 1.304 . S
C818 C819 1.371 . S
C818 H832 0.930 . S
C819 C816 1.344 . S
C819 C818 1.371 . S
C819 H833 0.931 . S
C820 C816 1.328 . S
C820 C821 1.433 . S
C820 H834 0.931 . S
C821 C817 1.323 . S
C821 C820 1.433 . S
C821 H835 0.933 . S
C822 Dy800 2.738 . S
C822 O805 1.255 . S
C822 O806 1.249 . S
C822 C816 1.516 . S
C823 O807 1.254 . S
C823 O808 1.257 . S
C824 O809 1.266 . S
C824 O810 1.236 . S
C825 C828 1.344 . S
C825 C829 1.328 . S
C825 C831 1.516 . S
C826 C827 1.304 . S
C826 C830 1.323 . S
C827 C826 1.304 . S
C827 C828 1.371 1_556 S
C827 H836 0.930 . S
C828 C825 1.344 . S
C828 C827 1.371 1_554 S
C828 H837 0.931 . S
C829 C825 1.328 . S
C829 C830 1.433 1_554 S
C829 H838 0.931 . S
C830 C826 1.323 . S
C830 C829 1.433 1_556 S
C830 H839 0.933 . S
C831 Dy801 2.738 . S
C831 O811 1.255 . S
C831 O812 1.249 . S
C831 C825 1.516 . S
H832 C818 0.930 . S
H833 C819 0.931 . S
H834 C820 0.931 . S
H835 C821 0.933 . S
H836 C827 0.930 . S
H837 C828 0.931 . S
H838 C829 0.931 . S
H839 C830 0.933 . S
Dy840 O843 2.307 . S
Dy840 O845 2.395 . S
Dy840 O846 2.379 . S
Dy840 O848 2.339 . S
Dy840 O850 2.298 . S
Dy840 O854 2.275 . S
Dy840 C862 2.738 . S
Dy841 O844 2.298 . S
Dy841 O847 2.275 . S
Dy841 O849 2.307 . S
Dy841 O851 2.395 . S
Dy841 O852 2.379 . S
Dy841 O855 2.339 . S
Dy841 C871 2.738 . S
C842 O854 1.254 . S
C842 O855 1.257 . S
O843 Dy840 2.307 . S
O843 C853 1.266 . S
O844 Dy841 2.298 . S
O844 C853 1.236 . S
O845 Dy840 2.395 . S
O845 C862 1.255 . S
O846 Dy840 2.379 . S
O846 C862 1.249 . S
O847 Dy841 2.275 . S
O847 C863 1.254 . S
O848 Dy840 2.339 . S
O848 C863 1.257 . S
O849 Dy841 2.307 . S
O849 C864 1.266 . S
O850 Dy840 2.298 . S
O850 C864 1.236 . S
O851 Dy841 2.395 . S
O851 C871 1.255 . S
O852 Dy841 2.379 . S
O852 C871 1.249 . S
C853 O843 1.266 . S
C853 O844 1.236 . S
O854 Dy840 2.275 . S
O854 C842 1.254 . S
O855 Dy841 2.339 . S
O855 C842 1.257 . S
C856 C859 1.344 . S
C856 C860 1.328 . S
C856 C862 1.516 . S
C857 C858 1.304 . S
C857 C861 1.323 . S
C858 C857 1.304 . S
C858 C859 1.371 . S
C858 H872 0.930 . S
C859 C856 1.344 . S
C859 C858 1.371 . S
C859 H873 0.931 . S
C860 C856 1.328 . S
C860 C861 1.433 . S
C860 H874 0.931 . S
C861 C857 1.323 . S
C861 C860 1.433 . S
C861 H875 0.933 . S
C862 Dy840 2.738 . S
C862 O845 1.255 . S
C862 O846 1.249 . S
C862 C856 1.516 . S
C863 O847 1.254 . S
C863 O848 1.257 . S
C864 O849 1.266 . S
C864 O850 1.236 . S
C865 C868 1.344 . S
C865 C869 1.328 . S
C865 C871 1.516 . S
C866 C867 1.304 . S
C866 C870 1.323 . S
C867 C866 1.304 . S
C867 C868 1.371 . S
C867 H876 0.930 . S
C868 C865 1.344 . S
C868 C867 1.371 . S
C868 H877 0.931 . S
C869 C865 1.328 . S
C869 C870 1.433 . S
C869 H878 0.931 . S
C870 C866 1.323 . S
C870 C869 1.433 . S
C870 H879 0.933 . S
C871 Dy841 2.738 . S
C871 O851 1.255 . S
C871 O852 1.249 . S
C871 C865 1.516 . S
H872 C858 0.930 . S
H873 C859 0.931 . S
H874 C860 0.931 . S
H875 C861 0.933 . S
H876 C867 0.930 . S
H877 C868 0.931 . S
H878 C869 0.931 . S
H879 C870 0.933 . S
Dy880 O883 2.307 . S
Dy880 O885 2.395 . S
Dy880 O886 2.379 . S
Dy880 O888 2.339 . S
Dy880 O890 2.298 . S
Dy880 O894 2.275 . S
Dy880 C902 2.738 . S
Dy881 O884 2.298 . S
Dy881 O887 2.275 . S
Dy881 O889 2.307 . S
Dy881 O891 2.395 . S
Dy881 O892 2.379 . S
Dy881 O895 2.339 . S
Dy881 C911 2.738 . S
C882 O894 1.254 . S
C882 O895 1.257 . S
O883 Dy880 2.307 . S
O883 C893 1.266 . S
O884 Dy881 2.298 . S
O884 C893 1.236 . S
O885 Dy880 2.395 . S
O885 C902 1.255 . S
O886 Dy880 2.379 . S
O886 C902 1.249 . S
O887 Dy881 2.275 . S
O887 C903 1.254 . S
O888 Dy880 2.339 . S
O888 C903 1.257 . S
O889 Dy881 2.307 . S
O889 C904 1.266 . S
O890 Dy880 2.298 . S
O890 C904 1.236 . S
O891 Dy881 2.395 . S
O891 C911 1.255 . S
O892 Dy881 2.379 . S
O892 C911 1.249 . S
C893 O883 1.266 . S
C893 O884 1.236 . S
O894 Dy880 2.275 . S
O894 C882 1.254 . S
O895 Dy881 2.339 . S
O895 C882 1.257 . S
C896 C899 1.344 . S
C896 C900 1.346 . S
C896 C902 1.516 . S
C897 C898 1.304 . S
C897 C901 1.323 1_565 S
C898 C897 1.304 . S
C898 C899 1.371 . S
C898 H912 0.930 . S
C899 C896 1.344 . S
C899 C898 1.371 . S
C899 H913 0.931 . S
C900 C896 1.346 . S
C900 C901 1.426 1_565 S
C900 H914 0.920 1_565 S
C901 C897 1.323 1_545 S
C901 C900 1.426 1_545 S
C901 H915 0.933 . S
C902 Dy880 2.738 . S
C902 O885 1.255 . S
C902 O886 1.249 . S
C902 C896 1.516 . S
C903 O887 1.254 . S
C903 O888 1.257 . S
C904 O889 1.266 . S
C904 O890 1.236 . S
C905 C908 1.344 . S
C905 C909 1.328 . S
C905 C911 1.516 . S
C906 C907 1.304 . S
C906 C910 1.323 . S
C907 C906 1.304 . S
C907 C908 1.371 . S
C907 H916 0.930 . S
C908 C905 1.344 . S
C908 C907 1.371 . S
C908 H917 0.931 . S
C909 C905 1.328 . S
C909 C910 1.433 . S
C909 H918 0.931 . S
C910 C906 1.323 . S
C910 C909 1.433 . S
C910 H919 0.933 . S
C911 Dy881 2.738 . S
C911 O891 1.255 . S
C911 O892 1.249 . S
C911 C905 1.516 . S
H912 C898 0.930 . S
H913 C899 0.931 . S
H914 C900 0.920 1_545 S
H915 C901 0.933 . S
H916 C907 0.930 . S
H917 C908 0.931 . S
H918 C909 0.931 . S
H919 C910 0.933 . S
Dy920 O923 2.307 . S
Dy920 O925 2.395 . S
Dy920 O926 2.379 . S
Dy920 O928 2.339 . S
Dy920 O930 2.298 . S
Dy920 O934 2.275 . S
Dy920 C942 2.738 . S
Dy921 O924 2.298 1_556 S
Dy921 O927 2.275 . S
Dy921 O929 2.307 . S
Dy921 O931 2.395 1_556 S
Dy921 O932 2.379 1_556 S
Dy921 O935 2.339 . S
Dy921 C951 2.738 1_556 S
C922 O934 1.254 . S
C922 O935 1.257 . S
O923 Dy920 2.307 . S
O923 C933 1.266 1_556 S
O924 Dy921 2.298 1_554 S
O924 C933 1.236 . S
O925 Dy920 2.395 . S
O925 C942 1.255 . S
O926 Dy920 2.379 . S
O926 C942 1.249 . S
O927 Dy921 2.275 . S
O927 C943 1.254 . S
O928 Dy920 2.339 . S
O928 C943 1.257 . S
O929 Dy921 2.307 . S
O929 C944 1.266 . S
O930 Dy920 2.298 . S
O930 C944 1.236 . S
O931 Dy921 2.395 1_554 S
O931 C951 1.255 . S
O932 Dy921 2.379 1_554 S
O932 C951 1.249 . S
C933 O923 1.266 1_554 S
C933 O924 1.236 . S
O934 Dy920 2.275 . S
O934 C922 1.254 . S
O935 Dy921 2.339 . S
O935 C922 1.257 . S
C936 C939 1.344 . S
C936 C940 1.328 . S
C936 C942 1.516 . S
C937 C938 1.304 . S
C937 C941 1.323 . S
C938 C937 1.304 . S
C938 C939 1.371 . S
C938 H952 0.930 . S
C939 C936 1.344 . S
C939 C938 1.371 . S
C939 H953 0.931 . S
C940 C936 1.328 . S
C940 C941 1.433 . S
C940 H954 0.931 . S
C941 C937 1.323 . S
C941 C940 1.433 . S
C941 H955 0.933 . S
C942 Dy920 2.738 . S
C942 O925 1.255 . S
C942 O926 1.249 . S
C942 C936 1.516 . S
C943 O927 1.254 . S
C943 O928 1.257 . S
C944 O929 1.266 . S
C944 O930 1.236 . S
C945 C948 1.344 . S
C945 C949 1.328 . S
C945 C951 1.516 . S
C946 C947 1.304 . S
C946 C950 1.323 . S
C947 C946 1.304 . S
C947 C948 1.371 . S
C947 H956 0.930 . S
C948 C945 1.344 . S
C948 C947 1.371 . S
C948 H957 0.931 . S
C949 C945 1.328 . S
C949 C950 1.433 . S
C949 H958 0.931 . S
C950 C946 1.323 . S
C950 C949 1.433 . S
C950 H959 0.933 . S
C951 Dy921 2.738 1_554 S
C951 O931 1.255 . S
C951 O932 1.249 . S
C951 C945 1.516 . S
H952 C938 0.930 . S
H953 C939 0.931 . S
H954 C940 0.931 . S
H955 C941 0.933 . S
H956 C947 0.930 . S
H957 C948 0.931 . S
H958 C949 0.931 . S
H959 C950 0.933 . S
Dy960 O963 2.307 . S
Dy960 O965 2.395 . S
Dy960 O966 2.379 . S
Dy960 O968 2.339 . S
Dy960 O970 2.298 . S
Dy960 O974 2.275 . S
Dy960 C982 2.738 . S
Dy961 O964 2.298 . S
Dy961 O967 2.275 . S
Dy961 O969 2.307 . S
Dy961 O971 2.395 . S
Dy961 O972 2.379 1_545 S
Dy961 O975 2.339 1_545 S
Dy961 C991 2.738 1_545 S
C962 O974 1.254 . S
C962 O975 1.257 1_545 S
O963 Dy960 2.307 . S
O963 C973 1.266 . S
O964 Dy961 2.298 . S
O964 C973 1.236 . S
O965 Dy960 2.395 . S
O965 C982 1.255 . S
O966 Dy960 2.379 . S
O966 C982 1.249 . S
O967 Dy961 2.275 . S
O967 C983 1.254 . S
O968 Dy960 2.339 . S
O968 C983 1.257 . S
O969 Dy961 2.307 . S
O969 C984 1.266 . S
O970 Dy960 2.298 . S
O970 C984 1.236 . S
O971 Dy961 2.395 . S
O971 C991 1.255 1_545 S
O972 Dy961 2.379 1_565 S
O972 C991 1.249 . S
C973 O963 1.266 . S
C973 O964 1.236 . S
O974 Dy960 2.275 . S
O974 C962 1.254 . S
O975 Dy961 2.339 1_565 S
O975 C962 1.257 1_565 S
C976 C979 1.344 . S
C976 C980 1.328 . S
C976 C982 1.516 . S
C977 C978 1.304 . S
C977 C981 1.323 . S
C978 C977 1.304 . S
C978 C979 1.371 . S
C978 H992 0.930 . S
C979 C976 1.344 . S
C979 C978 1.371 . S
C979 H993 0.931 . S
C980 C976 1.328 . S
C980 C981 1.433 . S
C980 H994 0.931 . S
C981 C977 1.323 . S
C981 C980 1.433 . S
C981 H995 0.933 . S
C982 Dy960 2.738 . S
C982 O965 1.255 . S
C982 O966 1.249 . S
C982 C976 1.516 . S
C983 O967 1.254 . S
C983 O968 1.257 . S
C984 O969 1.266 . S
C984 O970 1.236 . S
C985 C988 1.344 . S
C985 C989 1.328 . S
C985 C991 1.516 . S
C986 C987 1.304 . S
C986 C990 1.323 . S
C987 C986 1.304 . S
C987 C988 1.371 . S
C987 H996 0.930 . S
C988 C985 1.344 . S
C988 C987 1.371 . S
C988 H997 0.931 1_565 S
C989 C985 1.328 . S
C989 C990 1.433 . S
C989 H998 0.931 . S
C990 C986 1.323 . S
C990 C989 1.433 . S
C990 H999 0.933 . S
C991 Dy961 2.738 1_565 S
C991 O971 1.255 1_565 S
C991 O972 1.249 . S
C991 C985 1.516 . S
H992 C978 0.930 . S
H993 C979 0.931 . S
H994 C980 0.931 . S
H995 C981 0.933 . S
H996 C987 0.930 . S
H997 C988 0.931 1_545 S
H998 C989 0.931 . S
H999 C990 0.933 . S
Dy1000 O1003 2.307 . S
Dy1000 O1005 2.395 . S
Dy1000 O1006 2.379 . S
Dy1000 O1008 2.339 . S
Dy1000 O1010 2.298 . S
Dy1000 O1014 2.275 . S
Dy1000 C1022 2.738 . S
Dy1001 O1004 2.298 . S
Dy1001 O1007 2.275 . S
Dy1001 O1009 2.307 . S
Dy1001 O1011 2.395 . S
Dy1001 O1012 2.379 . S
Dy1001 O1015 2.339 . S
Dy1001 C1031 2.738 . S
C1002 O1014 1.254 . S
C1002 O1015 1.257 . S
O1003 Dy1000 2.307 . S
O1003 C1013 1.266 . S
O1004 Dy1001 2.298 . S
O1004 C1013 1.236 . S
O1005 Dy1000 2.395 . S
O1005 C1022 1.255 . S
O1006 Dy1000 2.379 . S
O1006 C1022 1.249 . S
O1007 Dy1001 2.275 . S
O1007 C1023 1.254 . S
O1008 Dy1000 2.339 . S
O1008 C1023 1.257 . S
O1009 Dy1001 2.307 . S
O1009 C1024 1.266 . S
O1010 Dy1000 2.298 . S
O1010 C1024 1.236 . S
O1011 Dy1001 2.395 . S
O1011 C1031 1.255 . S
O1012 Dy1001 2.379 . S
O1012 C1031 1.249 . S
C1013 O1003 1.266 . S
C1013 O1004 1.236 . S
O1014 Dy1000 2.275 . S
O1014 C1002 1.254 . S
O1015 Dy1001 2.339 . S
O1015 C1002 1.257 . S
C1016 C1019 1.344 . S
C1016 C1020 1.328 . S
C1016 C1022 1.516 . S
C1017 C1018 1.304 . S
C1017 C1021 1.323 . S
C1018 C1017 1.304 . S
C1018 C1019 1.371 . S
C1018 H1032 0.930 . S
C1019 C1016 1.344 . S
C1019 C1018 1.371 . S
C1019 H1033 0.931 . S
C1020 C1016 1.328 . S
C1020 C1021 1.433 . S
C1020 H1034 0.931 . S
C1021 C1017 1.323 . S
C1021 C1020 1.433 . S
C1021 H1035 0.933 . S
C1022 Dy1000 2.738 . S
C1022 O1005 1.255 . S
C1022 O1006 1.249 . S
C1022 C1016 1.516 . S
C1023 O1007 1.254 . S
C1023 O1008 1.257 . S
C1024 O1009 1.266 . S
C1024 O1010 1.236 . S
C1025 C1028 1.344 . S
C1025 C1029 1.328 . S
C1025 C1031 1.516 . S
C1026 C1027 1.304 . S
C1026 C1030 1.323 . S
C1027 C1026 1.304 . S
C1027 C1028 1.371 . S
C1027 H1036 0.930 . S
C1028 C1025 1.344 . S
C1028 C1027 1.371 . S
C1028 H1037 0.931 . S
C1029 C1025 1.328 . S
C1029 C1030 1.433 . S
C1029 H1038 0.931 . S
C1030 C1026 1.323 . S
C1030 C1029 1.433 . S
C1030 H1039 0.933 . S
C1031 Dy1001 2.738 . S
C1031 O1011 1.255 . S
C1031 O1012 1.249 . S
C1031 C1025 1.516 . S
H1032 C1018 0.930 . S
H1033 C1019 0.931 . S
H1034 C1020 0.931 . S
H1035 C1021 0.933 . S
H1036 C1027 0.930 . S
H1037 C1028 0.931 . S
H1038 C1029 0.931 . S
H1039 C1030 0.933 . S
Dy1040 O1043 2.307 . S
Dy1040 O1045 2.395 . S
Dy1040 O1046 2.379 . S
Dy1040 O1048 2.339 . S
Dy1040 O1050 2.298 . S
Dy1040 O1054 2.275 . S
Dy1040 C1062 2.738 . S
Dy1041 O1044 2.298 . S
Dy1041 O1047 2.275 . S
Dy1041 O1049 2.307 . S
Dy1041 O1051 2.395 . S
Dy1041 O1052 2.379 . S
Dy1041 O1055 2.339 . S
Dy1041 C1071 2.738 . S
C1042 O1054 1.254 . S
C1042 O1055 1.257 . S
O1043 Dy1040 2.307 . S
O1043 C1053 1.266 . S
O1044 Dy1041 2.298 . S
O1044 C1053 1.236 . S
O1045 Dy1040 2.395 . S
O1045 C1062 1.255 . S
O1046 Dy1040 2.379 . S
O1046 C1062 1.249 . S
O1047 Dy1041 2.275 . S
O1047 C1063 1.254 . S
O1048 Dy1040 2.339 . S
O1048 C1063 1.257 . S
O1049 Dy1041 2.307 . S
O1049 C1064 1.266 . S
O1050 Dy1040 2.298 . S
O1050 C1064 1.236 . S
O1051 Dy1041 2.395 . S
O1051 C1071 1.255 . S
O1052 Dy1041 2.379 . S
O1052 C1071 1.249 . S
C1053 O1043 1.266 . S
C1053 O1044 1.236 . S
O1054 Dy1040 2.275 . S
O1054 C1042 1.254 . S
O1055 Dy1041 2.339 . S
O1055 C1042 1.257 . S
C1056 C1059 1.344 . S
C1056 C1060 1.328 . S
C1056 C1062 1.516 . S
C1057 C1058 1.304 . S
C1057 C1061 1.323 . S
C1058 C1057 1.304 . S
C1058 C1059 1.371 . S
C1058 H1072 0.930 1_455 S
C1059 C1056 1.344 . S
C1059 C1058 1.371 . S
C1059 H1073 0.931 . S
C1060 C1056 1.328 . S
C1060 C1061 1.433 . S
C1060 H1074 0.931 . S
C1061 C1057 1.323 . S
C1061 C1060 1.433 . S
C1061 H1075 0.933 . S
C1062 Dy1040 2.738 . S
C1062 O1045 1.255 . S
C1062 O1046 1.249 . S
C1062 C1056 1.516 . S
C1063 O1047 1.254 . S
C1063 O1048 1.257 . S
C1064 O1049 1.266 . S
C1064 O1050 1.236 . S
C1065 C1068 1.344 1_554 S
C1065 C1069 1.328 . S
C1065 C1071 1.516 . S
C1066 C1067 1.304 . S
C1066 C1070 1.323 1_565 S
C1067 C1066 1.304 . S
C1067 C1068 1.371 . S
C1067 H1076 0.930 . S
C1068 C1065 1.344 1_556 S
C1068 C1067 1.371 . S
C1068 H1077 0.931 1_556 S
C1069 C1065 1.328 . S
C1069 C1070 1.433 1_564 S
C1069 H1078 0.931 1_565 S
C1070 C1066 1.323 1_545 S
C1070 C1069 1.433 1_546 S
C1070 H1079 0.933 . S
C1071 Dy1041 2.738 . S
C1071 O1051 1.255 . S
C1071 O1052 1.249 . S
C1071 C1065 1.516 . S
H1072 C1058 0.930 1_655 S
H1073 C1059 0.931 . S
H1074 C1060 0.931 . S
H1075 C1061 0.933 . S
H1076 C1067 0.930 . S
H1077 C1068 0.931 1_554 S
H1078 C1069 0.931 1_545 S
H1079 C1070 0.933 . S
Dy1080 O1083 2.307 . S
Dy1080 O1085 2.395 1_556 S
Dy1080 O1086 2.379 1_556 S
Dy1080 O1088 2.339 . S
Dy1080 O1090 2.298 1_556 S
Dy1080 O1094 2.275 . S
Dy1080 C1102 2.738 1_556 S
Dy1081 O1084 2.298 . S
Dy1081 O1087 2.275 . S
Dy1081 O1089 2.307 1_556 S
Dy1081 O1091 2.395 . S
Dy1081 O1092 2.379 . S
Dy1081 O1095 2.339 . S
Dy1081 C1111 2.738 . S
C1082 O1094 1.254 . S
C1082 O1095 1.257 . S
O1083 Dy1080 2.307 . S
O1083 C1093 1.266 . S
O1084 Dy1081 2.298 . S
O1084 C1093 1.236 . S
O1085 Dy1080 2.395 1_554 S
O1085 C1102 1.255 . S
O1086 Dy1080 2.379 1_554 S
O1086 C1102 1.249 . S
O1087 Dy1081 2.275 . S
O1087 C1103 1.254 . S
O1088 Dy1080 2.339 . S
O1088 C1103 1.257 . S
O1089 Dy1081 2.307 1_554 S
O1089 C1104 1.266 . S
O1090 Dy1080 2.298 1_554 S
O1090 C1104 1.236 . S
O1091 Dy1081 2.395 . S
O1091 C1111 1.255 . S
O1092 Dy1081 2.379 . S
O1092 C1111 1.249 . S
C1093 O1083 1.266 . S
C1093 O1084 1.236 . S
O1094 Dy1080 2.275 . S
O1094 C1082 1.254 . S
O1095 Dy1081 2.339 . S
O1095 C1082 1.257 . S
C1096 C1099 1.344 . S
C1096 C1100 1.328 . S
C1096 C1102 1.516 . S
C1097 C1098 1.304 . S
C1097 C1101 1.323 . S
C1098 C1097 1.304 . S
C1098 C1099 1.371 . S
C1098 H1112 0.930 . S
C1099 C1096 1.344 . S
C1099 C1098 1.371 . S
C1099 H1113 0.931 . S
C1100 C1096 1.328 . S
C1100 C1101 1.433 . S
C1100 H1114 0.931 . S
C1101 C1097 1.323 . S
C1101 C1100 1.433 . S
C1101 H1115 0.933 . S
C1102 Dy1080 2.738 1_554 S
C1102 O1085 1.255 . S
C1102 O1086 1.249 . S
C1102 C1096 1.516 . S
C1103 O1087 1.254 . S
C1103 O1088 1.257 . S
C1104 O1089 1.266 . S
C1104 O1090 1.236 . S
C1105 C1108 1.344 . S
C1105 C1109 1.328 . S
C1105 C1111 1.516 . S
C1106 C1107 1.304 . S
C1106 C1110 1.323 . S
C1107 C1106 1.304 . S
C1107 C1108 1.371 . S
C1107 H1116 0.930 . S
C1108 C1105 1.344 . S
C1108 C1107 1.371 . S
C1108 H1117 0.931 . S
C1109 C1105 1.328 . S
C1109 C1110 1.433 . S
C1109 H1118 0.931 . S
C1110 C1106 1.323 . S
C1110 C1109 1.433 . S
C1110 H1119 0.933 . S
C1111 Dy1081 2.738 . S
C1111 O1091 1.255 . S
C1111 O1092 1.249 . S
C1111 C1105 1.516 . S
H1112 C1098 0.930 . S
H1113 C1099 0.931 . S
H1114 C1100 0.931 . S
H1115 C1101 0.933 . S
H1116 C1107 0.930 . S
H1117 C1108 0.931 . S
H1118 C1109 0.931 . S
H1119 C1110 0.933 . S
Dy1120 O1123 2.307 . S
Dy1120 O1125 2.395 . S
Dy1120 O1126 2.379 . S
Dy1120 O1128 2.339 . S
Dy1120 O1130 2.298 . S
Dy1120 O1134 2.275 . S
Dy1120 C1142 2.738 . S
Dy1121 O1124 2.298 . S
Dy1121 O1127 2.275 . S
Dy1121 O1129 2.307 . S
Dy1121 O1131 2.395 . S
Dy1121 O1132 2.379 . S
Dy1121 O1135 2.339 . S
Dy1121 C1151 2.738 . S
C1122 O1134 1.254 . S
C1122 O1135 1.257 . S
O1123 Dy1120 2.307 . S
O1123 C1133 1.266 . S
O1124 Dy1121 2.298 . S
O1124 C1133 1.236 . S
O1125 Dy1120 2.395 . S
O1125 C1142 1.255 . S
O1126 Dy1120 2.379 . S
O1126 C1142 1.249 . S
O1127 Dy1121 2.275 . S
O1127 C1143 1.254 . S
O1128 Dy1120 2.339 . S
O1128 C1143 1.257 . S
O1129 Dy1121 2.307 . S
O1129 C1144 1.266 . S
O1130 Dy1120 2.298 . S
O1130 C1144 1.236 . S
O1131 Dy1121 2.395 . S
O1131 C1151 1.255 . S
O1132 Dy1121 2.379 . S
O1132 C1151 1.249 . S
C1133 O1123 1.266 . S
C1133 O1124 1.236 . S
O1134 Dy1120 2.275 . S
O1134 C1122 1.254 . S
O1135 Dy1121 2.339 . S
O1135 C1122 1.257 . S
C1136 C1139 1.344 . S
C1136 C1140 1.328 . S
C1136 C1142 1.516 . S
C1137 C1138 1.304 . S
C1137 C1141 1.323 . S
C1138 C1137 1.304 . S
C1138 C1139 1.371 . S
C1138 H1152 0.930 . S
C1139 C1136 1.344 . S
C1139 C1138 1.371 . S
C1139 H1153 0.931 . S
C1140 C1136 1.328 . S
C1140 C1141 1.433 . S
C1140 H1154 0.931 . S
C1141 C1137 1.323 . S
C1141 C1140 1.433 . S
C1141 H1155 0.933 . S
C1142 Dy1120 2.738 . S
C1142 O1125 1.255 . S
C1142 O1126 1.249 . S
C1142 C1136 1.516 . S
C1143 O1127 1.254 . S
C1143 O1128 1.257 . S
C1144 O1129 1.266 . S
C1144 O1130 1.236 . S
C1145 C1148 1.344 . S
C1145 C1149 1.328 . S
C1145 C1151 1.516 1_556 S
C1146 C1147 1.304 . S
C1146 C1150 1.323 . S
C1147 C1146 1.304 . S
C1147 C1148 1.371 . S
C1147 H1156 0.930 . S
C1148 C1145 1.344 . S
C1148 C1147 1.371 . S
C1148 H1157 0.931 . S
C1149 C1145 1.328 . S
C1149 C1150 1.433 . S
C1149 H1158 0.931 . S
C1150 C1146 1.323 . S
C1150 C1149 1.433 . S
C1150 H1159 0.933 . S
C1151 Dy1121 2.738 . S
C1151 O1131 1.255 . S
C1151 O1132 1.249 . S
C1151 C1145 1.516 1_554 S
H1152 C1138 0.930 . S
H1153 C1139 0.931 . S
H1154 C1140 0.931 . S
H1155 C1141 0.933 . S
H1156 C1147 0.930 . S
H1157 C1148 0.931 . S
H1158 C1149 0.931 . S
H1159 C1150 0.933 . S
Dy1160 O1163 2.307 . S
Dy1160 O1165 2.395 . S
Dy1160 O1166 2.379 . S
Dy1160 O1168 2.339 . S
Dy1160 O1170 2.298 . S
Dy1160 O1174 2.275 . S
Dy1160 C1182 2.738 . S
Dy1161 O1164 2.298 . S
Dy1161 O1167 2.275 . S
Dy1161 O1169 2.307 . S
Dy1161 O1171 2.395 . S
Dy1161 O1172 2.379 . S
Dy1161 O1175 2.339 . S
Dy1161 C1191 2.738 . S
C1162 O1174 1.254 . S
C1162 O1175 1.257 . S
O1163 Dy1160 2.307 . S
O1163 C1173 1.266 . S
O1164 Dy1161 2.298 . S
O1164 C1173 1.236 . S
O1165 Dy1160 2.395 . S
O1165 C1182 1.255 . S
O1166 Dy1160 2.379 . S
O1166 C1182 1.249 . S
O1167 Dy1161 2.275 . S
O1167 C1183 1.254 . S
O1168 Dy1160 2.339 . S
O1168 C1183 1.257 . S
O1169 Dy1161 2.307 . S
O1169 C1184 1.266 . S
O1170 Dy1160 2.298 . S
O1170 C1184 1.236 . S
O1171 Dy1161 2.395 . S
O1171 C1191 1.255 . S
O1172 Dy1161 2.379 . S
O1172 C1191 1.249 . S
C1173 O1163 1.266 . S
C1173 O1164 1.236 . S
O1174 Dy1160 2.275 . S
O1174 C1162 1.254 . S
O1175 Dy1161 2.339 . S
O1175 C1162 1.257 . S
C1176 C1179 1.344 . S
C1176 C1180 1.328 . S
C1176 C1182 1.516 . S
C1177 C1178 1.304 . S
C1177 C1181 1.323 . S
C1178 C1177 1.304 . S
C1178 C1179 1.371 . S
C1178 H1192 0.930 . S
C1179 C1176 1.344 . S
C1179 C1178 1.371 . S
C1179 H1193 0.931 . S
C1180 C1176 1.328 . S
C1180 C1181 1.433 . S
C1180 H1194 0.931 . S
C1181 C1177 1.323 . S
C1181 C1180 1.433 . S
C1181 H1195 0.933 . S
C1182 Dy1160 2.738 . S
C1182 O1165 1.255 . S
C1182 O1166 1.249 . S
C1182 C1176 1.516 . S
C1183 O1167 1.254 . S
C1183 O1168 1.257 . S
C1184 O1169 1.266 . S
C1184 O1170 1.236 . S
C1185 C1188 1.344 . S
C1185 C1189 1.328 . S
C1185 C1191 1.516 1_554 S
C1186 C1187 1.304 . S
C1186 C1190 1.323 . S
C1187 C1186 1.304 . S
C1187 C1188 1.371 . S
C1187 H1196 0.930 . S
C1188 C1185 1.344 . S
C1188 C1187 1.371 . S
C1188 H1197 0.931 . S
C1189 C1185 1.328 . S
C1189 C1190 1.433 . S
C1189 H1198 0.931 . S
C1190 C1186 1.323 . S
C1190 C1189 1.433 . S
C1190 H1199 0.933 . S
C1191 Dy1161 2.738 . S
C1191 O1171 1.255 . S
C1191 O1172 1.249 . S
C1191 C1185 1.516 1_556 S
H1192 C1178 0.930 . S
H1193 C1179 0.931 . S
H1194 C1180 0.931 . S
H1195 C1181 0.933 . S
H1196 C1187 0.930 . S
H1197 C1188 0.931 . S
H1198 C1189 0.931 . S
H1199 C1190 0.933 . S
Dy1200 O1203 2.307 . S
Dy1200 O1205 2.395 . S
Dy1200 O1206 2.379 . S
Dy1200 O1208 2.339 . S
Dy1200 O1210 2.298 . S
Dy1200 O1214 2.275 . S
Dy1200 C1222 2.738 . S
Dy1201 O1204 2.298 . S
Dy1201 O1207 2.275 . S
Dy1201 O1209 2.307 . S
Dy1201 O1211 2.395 . S
Dy1201 O1212 2.379 . S
Dy1201 O1215 2.339 . S
Dy1201 C1231 2.738 . S
C1202 O1214 1.254 . S
C1202 O1215 1.257 . S
O1203 Dy1200 2.307 . S
O1203 C1213 1.266 . S
O1204 Dy1201 2.298 . S
O1204 C1213 1.236 . S
O1205 Dy1200 2.395 . S
O1205 C1222 1.255 . S
O1206 Dy1200 2.379 . S
O1206 C1222 1.249 . S
O1207 Dy1201 2.275 . S
O1207 C1223 1.254 . S
O1208 Dy1200 2.339 . S
O1208 C1223 1.257 . S
O1209 Dy1201 2.307 . S
O1209 C1224 1.266 . S
O1210 Dy1200 2.298 . S
O1210 C1224 1.236 . S
O1211 Dy1201 2.395 . S
O1211 C1231 1.255 . S
O1212 Dy1201 2.379 . S
O1212 C1231 1.249 . S
C1213 O1203 1.266 . S
C1213 O1204 1.236 . S
O1214 Dy1200 2.275 . S
O1214 C1202 1.254 . S
O1215 Dy1201 2.339 . S
O1215 C1202 1.257 . S
C1216 C1219 1.344 . S
C1216 C1220 1.328 . S
C1216 C1222 1.516 . S
C1217 C1218 1.304 . S
C1217 C1221 1.323 . S
C1218 C1217 1.304 . S
C1218 C1219 1.371 . S
C1218 H1232 0.930 . S
C1219 C1216 1.344 . S
C1219 C1218 1.371 . S
C1219 H1233 0.931 . S
C1220 C1216 1.328 . S
C1220 C1221 1.433 . S
C1220 H1234 0.931 . S
C1221 C1217 1.323 . S
C1221 C1220 1.433 . S
C1221 H1235 0.933 . S
C1222 Dy1200 2.738 . S
C1222 O1205 1.255 . S
C1222 O1206 1.249 . S
C1222 C1216 1.516 . S
C1223 O1207 1.254 . S
C1223 O1208 1.257 . S
C1224 O1209 1.266 . S
C1224 O1210 1.236 . S
C1225 C1228 1.344 . S
C1225 C1229 1.345 . S
C1225 C1231 1.516 . S
C1226 C1227 1.304 . S
C1226 C1230 1.323 1_545 S
C1227 C1226 1.304 . S
C1227 C1228 1.371 . S
C1227 H1236 0.930 . S
C1228 C1225 1.344 . S
C1228 C1227 1.371 . S
C1228 H1237 0.931 . S
C1229 C1225 1.345 . S
C1229 C1230 1.427 1_545 S
C1229 H1238 0.920 1_545 S
C1230 C1226 1.323 1_565 S
C1230 C1229 1.427 1_565 S
C1230 H1239 0.933 . S
C1231 Dy1201 2.738 . S
C1231 O1211 1.255 . S
C1231 O1212 1.249 . S
C1231 C1225 1.516 . S
H1232 C1218 0.930 . S
H1233 C1219 0.931 . S
H1234 C1220 0.931 . S
H1235 C1221 0.933 . S
H1236 C1227 0.930 . S
H1237 C1228 0.931 . S
H1238 C1229 0.920 1_565 S
H1239 C1230 0.933 . S
Dy1240 O1243 2.307 . S
Dy1240 O1245 2.395 . S
Dy1240 O1246 2.379 . S
Dy1240 O1248 2.339 . S
Dy1240 O1250 2.298 . S
Dy1240 O1254 2.275 . S
Dy1240 C1262 2.738 . S
Dy1241 O1244 2.298 . S
Dy1241 O1247 2.275 . S
Dy1241 O1249 2.307 . S
Dy1241 O1251 2.395 . S
Dy1241 O1252 2.379 . S
Dy1241 O1255 2.339 . S
Dy1241 C1271 2.738 . S
C1242 O1254 1.254 . S
C1242 O1255 1.257 . S
O1243 Dy1240 2.307 . S
O1243 C1253 1.266 . S
O1244 Dy1241 2.298 . S
O1244 C1253 1.236 . S
O1245 Dy1240 2.395 . S
O1245 C1262 1.255 . S
O1246 Dy1240 2.379 . S
O1246 C1262 1.249 . S
O1247 Dy1241 2.275 . S
O1247 C1263 1.254 . S
O1248 Dy1240 2.339 . S
O1248 C1263 1.257 . S
O1249 Dy1241 2.307 . S
O1249 C1264 1.266 . S
O1250 Dy1240 2.298 . S
O1250 C1264 1.236 . S
O1251 Dy1241 2.395 . S
O1251 C1271 1.255 . S
O1252 Dy1241 2.379 . S
O1252 C1271 1.249 . S
C1253 O1243 1.266 . S
C1253 O1244 1.236 . S
O1254 Dy1240 2.275 . S
O1254 C1242 1.254 . S
O1255 Dy1241 2.339 . S
O1255 C1242 1.257 . S
C1256 C1259 1.344 . S
C1256 C1260 1.328 . S
C1256 C1262 1.516 . S
C1257 C1258 1.304 . S
C1257 C1261 1.323 . S
C1258 C1257 1.304 . S
C1258 C1259 1.371 . S
C1258 H1272 0.930 . S
C1259 C1256 1.344 . S
C1259 C1258 1.371 . S
C1259 H1273 0.931 . S
C1260 C1256 1.328 . S
C1260 C1261 1.433 . S
C1260 H1274 0.931 . S
C1261 C1257 1.323 . S
C1261 C1260 1.433 . S
C1261 H1275 0.933 . S
C1262 Dy1240 2.738 . S
C1262 O1245 1.255 . S
C1262 O1246 1.249 . S
C1262 C1256 1.516 . S
C1263 O1247 1.254 . S
C1263 O1248 1.257 . S
C1264 O1249 1.266 . S
C1264 O1250 1.236 . S
C1265 C1268 1.344 . S
C1265 C1269 1.328 . S
C1265 C1271 1.516 . S
C1266 C1267 1.304 . S
C1266 C1270 1.323 . S
C1267 C1266 1.304 . S
C1267 C1268 1.371 . S
C1267 H1276 0.930 . S
C1268 C1265 1.344 . S
C1268 C1267 1.371 . S
C1268 H1277 0.931 . S
C1269 C1265 1.328 . S
C1269 C1270 1.433 . S
C1269 H1278 0.931 . S
C1270 C1266 1.323 . S
C1270 C1269 1.433 . S
C1270 H1279 0.933 . S
C1271 Dy1241 2.738 . S
C1271 O1251 1.255 . S
C1271 O1252 1.249 . S
C1271 C1265 1.516 . S
H1272 C1258 0.930 . S
H1273 C1259 0.931 . S
H1274 C1260 0.931 . S
H1275 C1261 0.933 . S
H1276 C1267 0.930 . S
H1277 C1268 0.931 . S
H1278 C1269 0.931 . S
H1279 C1270 0.933 . S
C1280 C1281 1.369 . S
C1280 C1282 1.419 . S
C1280 H1284 0.930 . S
C1281 C1280 1.369 . S
C1281 C1290 1.429 . S
C1282 C1280 1.419 . S
C1282 C1283 1.363 . S
C1282 H1285 0.929 . S
C1283 C1282 1.363 . S
C1283 C1289 1.428 . S
H1284 C1280 0.930 . S
H1285 C1282 0.929 . S
S1286 N1287 1.613 . S
S1286 N1288 1.610 . S
N1287 S1286 1.613 . S
N1287 C1290 1.350 . S
N1288 S1286 1.610 . S
N1288 C1289 1.351 . S
C1289 C1283 1.428 . S
C1289 N1288 1.351 . S
C1289 C1290 1.434 . S
C1290 C1281 1.429 . S
C1290 N1287 1.350 . S
C1290 C1289 1.434 . S
C1291 C1292 1.369 . S
C1291 C1293 1.419 . S
C1291 H1295 0.930 . S
C1292 C1291 1.369 . S
C1292 C1301 1.429 . S
C1293 C1291 1.419 . S
C1293 C1294 1.363 . S
C1293 H1296 0.929 . S
C1294 C1293 1.363 . S
C1294 C1300 1.428 . S
H1295 C1291 0.930 . S
H1296 C1293 0.929 . S
S1297 N1298 1.613 . S
S1297 N1299 1.610 . S
N1298 S1297 1.613 . S
N1298 C1301 1.350 . S
N1299 S1297 1.610 . S
N1299 C1300 1.351 . S
C1300 C1294 1.428 . S
C1300 N1299 1.351 . S
C1300 C1301 1.434 . S
C1301 C1292 1.429 . S
C1301 N1298 1.350 . S
C1301 C1300 1.434 . S
C1302 C1303 1.369 . S
C1302 C1304 1.419 . S
C1302 H1306 0.930 . S
C1303 C1302 1.369 . S
C1303 C1312 1.429 . S
C1304 C1302 1.419 . S
C1304 C1305 1.363 . S
C1304 H1307 0.929 . S
C1305 C1304 1.363 . S
C1305 C1311 1.428 . S
H1306 C1302 0.930 . S
H1307 C1304 0.929 . S
S1308 N1309 1.613 1_554 S
S1308 N1310 1.610 . S
N1309 S1308 1.613 1_556 S
N1309 C1312 1.350 . S
N1310 S1308 1.610 . S
N1310 C1311 1.351 1_554 S
C1311 C1305 1.428 . S
C1311 N1310 1.351 1_556 S
C1311 C1312 1.434 . S
C1312 C1303 1.429 . S
C1312 N1309 1.350 . S
C1312 C1311 1.434 . S
C1313 C1314 1.369 . S
C1313 C1315 1.419 . S
C1313 H1317 0.930 . S
C1314 C1313 1.369 . S
C1314 C1323 1.429 . S
C1315 C1313 1.419 . S
C1315 C1316 1.363 . S
C1315 H1318 0.929 . S
C1316 C1315 1.363 . S
C1316 C1322 1.428 . S
H1317 C1313 0.930 . S
H1318 C1315 0.929 . S
S1319 N1320 1.613 . S
S1319 N1321 1.610 . S
N1320 S1319 1.613 . S
N1320 C1323 1.350 . S
N1321 S1319 1.610 . S
N1321 C1322 1.351 . S
C1322 C1316 1.428 . S
C1322 N1321 1.351 . S
C1322 C1323 1.434 . S
C1323 C1314 1.429 . S
C1323 N1320 1.350 . S
C1323 C1322 1.434 . S
C1324 C1325 1.369 . S
C1324 C1326 1.419 . S
C1324 H1328 0.930 . S
C1325 C1324 1.369 . S
C1325 C1334 1.429 . S
C1326 C1324 1.419 . S
C1326 C1327 1.363 . S
C1326 H1329 0.929 . S
C1327 C1326 1.363 . S
C1327 C1333 1.428 . S
H1328 C1324 0.930 . S
H1329 C1326 0.929 . S
S1330 N1331 1.613 . S
S1330 N1332 1.610 . S
N1331 S1330 1.613 . S
N1331 C1334 1.350 . S
N1332 S1330 1.610 . S
N1332 C1333 1.351 . S
C1333 C1327 1.428 . S
C1333 N1332 1.351 . S
C1333 C1334 1.434 . S
C1334 C1325 1.429 . S
C1334 N1331 1.350 . S
C1334 C1333 1.434 . S
C1335 C1336 1.369 . S
C1335 C1337 1.419 . S
C1335 H1339 0.930 . S
C1336 C1335 1.369 . S
C1336 C1345 1.429 . S
C1337 C1335 1.419 . S
C1337 C1338 1.363 . S
C1337 H1340 0.929 . S
C1338 C1337 1.363 . S
C1338 C1344 1.428 . S
H1339 C1335 0.930 . S
H1340 C1337 0.929 . S
S1341 N1342 1.613 . S
S1341 N1343 1.610 . S
N1342 S1341 1.613 . S
N1342 C1345 1.350 . S
N1343 S1341 1.610 . S
N1343 C1344 1.351 . S
C1344 C1338 1.428 . S
C1344 N1343 1.351 . S
C1344 C1345 1.434 . S
C1345 C1336 1.429 . S
C1345 N1342 1.350 . S
C1345 C1344 1.434 . S
C1346 C1347 1.369 . S
C1346 C1348 1.419 . S
C1346 H1350 0.930 . S
C1347 C1346 1.369 . S
C1347 C1356 1.429 . S
C1348 C1346 1.419 . S
C1348 C1349 1.363 . S
C1348 H1351 0.929 . S
C1349 C1348 1.363 . S
C1349 C1355 1.428 . S
H1350 C1346 0.930 . S
H1351 C1348 0.929 . S
S1352 N1353 1.613 . S
S1352 N1354 1.610 . S
N1353 S1352 1.613 . S
N1353 C1356 1.350 . S
N1354 S1352 1.610 . S
N1354 C1355 1.351 . S
C1355 C1349 1.428 . S
C1355 N1354 1.351 . S
C1355 C1356 1.434 . S
C1356 C1347 1.429 . S
C1356 N1353 1.350 . S
C1356 C1355 1.434 . S
C1357 C1358 1.369 . S
C1357 C1359 1.419 . S
C1357 H1361 0.930 . S
C1358 C1357 1.369 . S
C1358 C1367 1.429 . S
C1359 C1357 1.419 . S
C1359 C1360 1.363 . S
C1359 H1362 0.929 . S
C1360 C1359 1.363 . S
C1360 C1366 1.428 . S
H1361 C1357 0.930 . S
H1362 C1359 0.929 . S
S1363 N1364 1.613 . S
S1363 N1365 1.610 . S
N1364 S1363 1.613 . S
N1364 C1367 1.350 . S
N1365 S1363 1.610 . S
N1365 C1366 1.351 . S
C1366 C1360 1.428 . S
C1366 N1365 1.351 . S
C1366 C1367 1.434 . S
C1367 C1358 1.429 . S
C1367 N1364 1.350 . S
C1367 C1366 1.434 . S
C1368 C1369 1.369 . S
C1368 C1370 1.419 . S
C1368 H1372 0.930 . S
C1369 C1368 1.369 . S
C1369 C1378 1.429 . S
C1370 C1368 1.419 . S
C1370 C1371 1.363 . S
C1370 H1373 0.929 . S
C1371 C1370 1.363 . S
C1371 C1377 1.428 . S
H1372 C1368 0.930 . S
H1373 C1370 0.929 . S
S1374 N1375 1.613 1_565 S
S1374 N1376 1.610 1_565 S
N1375 S1374 1.613 1_545 S
N1375 C1378 1.350 . S
N1376 S1374 1.610 1_545 S
N1376 C1377 1.351 . S
C1377 C1371 1.428 . S
C1377 N1376 1.351 . S
C1377 C1378 1.434 . S
C1378 C1369 1.429 . S
C1378 N1375 1.350 . S
C1378 C1377 1.434 . S
C1379 C1380 1.369 . S
C1379 C1381 1.419 . S
C1379 H1383 0.930 . S
C1380 C1379 1.369 . S
C1380 C1389 1.429 . S
C1381 C1379 1.419 . S
C1381 C1382 1.363 . S
C1381 H1384 0.929 . S
C1382 C1381 1.363 . S
C1382 C1388 1.428 . S
H1383 C1379 0.930 . S
H1384 C1381 0.929 . S
S1385 N1386 1.613 . S
S1385 N1387 1.610 . S
N1386 S1385 1.613 . S
N1386 C1389 1.350 . S
N1387 S1385 1.610 . S
N1387 C1388 1.351 . S
C1388 C1382 1.428 . S
C1388 N1387 1.351 . S
C1388 C1389 1.434 . S
C1389 C1380 1.429 . S
C1389 N1386 1.350 . S
C1389 C1388 1.434 . S
C1390 C1391 1.369 . S
C1390 C1392 1.419 . S
C1390 H1394 0.930 . S
C1391 C1390 1.369 . S
C1391 C1400 1.429 . S
C1392 C1390 1.419 . S
C1392 C1393 1.363 1_545 S
C1392 H1395 0.929 . S
C1393 C1392 1.363 1_565 S
C1393 C1399 1.428 . S
H1394 C1390 0.930 . S
H1395 C1392 0.929 . S
S1396 N1397 1.592 1_565 S
S1396 N1398 1.610 . S
N1397 S1396 1.592 1_545 S
N1397 C1400 1.351 . S
N1398 S1396 1.610 . S
N1398 C1399 1.351 . S
C1399 C1393 1.428 . S
C1399 N1398 1.351 . S
C1399 C1400 1.434 1_565 S
C1400 C1391 1.429 . S
C1400 N1397 1.351 . S
C1400 C1399 1.434 1_545 S
C1401 C1402 1.369 . S
C1401 C1403 1.419 . S
C1401 H1405 0.930 . S
C1402 C1401 1.369 . S
C1402 C1411 1.429 . S
C1403 C1401 1.419 . S
C1403 C1404 1.363 . S
C1403 H1406 0.929 . S
C1404 C1403 1.363 . S
C1404 C1410 1.428 . S
H1405 C1401 0.930 . S
H1406 C1403 0.929 . S
S1407 N1408 1.613 . S
S1407 N1409 1.610 . S
N1408 S1407 1.613 . S
N1408 C1411 1.350 . S
N1409 S1407 1.610 . S
N1409 C1410 1.351 . S
C1410 C1404 1.428 . S
C1410 N1409 1.351 . S
C1410 C1411 1.434 . S
C1411 C1402 1.429 . S
C1411 N1408 1.350 . S
C1411 C1410 1.434 . S
C1412 C1413 1.369 . S
C1412 C1414 1.419 . S
C1412 H1416 0.930 . S
C1413 C1412 1.369 . S
C1413 C1422 1.429 . S
C1414 C1412 1.419 . S
C1414 C1415 1.363 . S
C1414 H1417 0.929 . S
C1415 C1414 1.363 . S
C1415 C1421 1.428 . S
H1416 C1412 0.930 . S
H1417 C1414 0.929 . S
S1418 N1419 1.613 . S
S1418 N1420 1.610 . S
N1419 S1418 1.613 . S
N1419 C1422 1.350 . S
N1420 S1418 1.610 . S
N1420 C1421 1.351 . S
C1421 C1415 1.428 . S
C1421 N1420 1.351 . S
C1421 C1422 1.434 . S
C1422 C1413 1.429 . S
C1422 N1419 1.350 . S
C1422 C1421 1.434 . S
C1423 C1424 1.369 . S
C1423 C1425 1.419 . S
C1423 H1427 0.930 . S
C1424 C1423 1.369 . S
C1424 C1433 1.429 . S
C1425 C1423 1.419 . S
C1425 C1426 1.363 . S
C1425 H1428 0.929 . S
C1426 C1425 1.363 . S
C1426 C1432 1.428 . S
H1427 C1423 0.930 . S
H1428 C1425 0.929 . S
S1429 N1430 1.613 . S
S1429 N1431 1.610 . S
N1430 S1429 1.613 . S
N1430 C1433 1.350 . S
N1431 S1429 1.610 . S
N1431 C1432 1.351 . S
C1432 C1426 1.428 . S
C1432 N1431 1.351 . S
C1432 C1433 1.434 . S
C1433 C1424 1.429 . S
C1433 N1430 1.350 . S
C1433 C1432 1.434 . S
C1434 C1435 1.369 . S
C1434 C1436 1.419 1_565 S
C1434 H1438 0.930 . S
C1435 C1434 1.369 . S
C1435 C1444 1.429 . S
C1436 C1434 1.419 1_545 S
C1436 C1437 1.363 . S
C1436 H1439 0.929 . S
C1437 C1436 1.363 . S
C1437 C1443 1.422 1_545 S
H1438 C1434 0.930 . S
H1439 C1436 0.929 . S
S1440 N1441 1.613 . S
S1440 N1442 1.645 . S
N1441 S1440 1.613 . S
N1441 C1444 1.350 . S
N1442 S1440 1.645 . S
N1442 C1443 1.352 . S
C1443 C1437 1.422 1_565 S
C1443 N1442 1.352 . S
C1443 C1444 1.442 . S
C1444 C1435 1.429 . S
C1444 N1441 1.350 . S
C1444 C1443 1.442 . S
C1445 C1446 1.369 . S
C1445 C1447 1.419 . S
C1445 H1449 0.930 . S
C1446 C1445 1.369 . S
C1446 C1455 1.429 . S
C1447 C1445 1.419 . S
C1447 C1448 1.363 . S
C1447 H1450 0.929 . S
C1448 C1447 1.363 . S
C1448 C1454 1.428 . S
H1449 C1445 0.930 . S
H1450 C1447 0.929 . S
S1451 N1452 1.613 . S
S1451 N1453 1.610 . S
N1452 S1451 1.613 . S
N1452 C1455 1.350 . S
N1453 S1451 1.610 . S
N1453 C1454 1.351 . S
C1454 C1448 1.428 . S
C1454 N1453 1.351 . S
C1454 C1455 1.434 . S
C1455 C1446 1.429 . S
C1455 N1452 1.350 . S
C1455 C1454 1.434 . S
C1456 C1457 1.369 . S
C1456 C1458 1.419 . S
C1456 H1460 0.930 . S
C1457 C1456 1.369 . S
C1457 C1466 1.429 . S
C1458 C1456 1.419 . S
C1458 C1459 1.363 . S
C1458 H1461 0.929 . S
C1459 C1458 1.363 . S
C1459 C1465 1.428 . S
H1460 C1456 0.930 . S
H1461 C1458 0.929 . S
S1462 N1463 1.613 . S
S1462 N1464 1.610 . S
N1463 S1462 1.613 . S
N1463 C1466 1.350 . S
N1464 S1462 1.610 . S
N1464 C1465 1.351 . S
C1465 C1459 1.428 . S
C1465 N1464 1.351 . S
C1465 C1466 1.434 . S
C1466 C1457 1.429 . S
C1466 N1463 1.350 . S
C1466 C1465 1.434 . S
C1467 C1468 1.369 . S
C1467 C1469 1.419 . S
C1467 H1471 0.930 . S
C1468 C1467 1.369 . S
C1468 C1477 1.429 . S
C1469 C1467 1.419 . S
C1469 C1470 1.363 . S
C1469 H1472 0.929 . S
C1470 C1469 1.363 . S
C1470 C1476 1.428 . S
H1471 C1467 0.930 . S
H1472 C1469 0.929 . S
S1473 N1474 1.613 . S
S1473 N1475 1.610 . S
N1474 S1473 1.613 . S
N1474 C1477 1.350 . S
N1475 S1473 1.610 . S
N1475 C1476 1.351 . S
C1476 C1470 1.428 . S
C1476 N1475 1.351 . S
C1476 C1477 1.434 . S
C1477 C1468 1.429 . S
C1477 N1474 1.350 . S
C1477 C1476 1.434 . S
C1478 C1479 1.369 . S
C1478 C1480 1.419 . S
C1478 H1482 0.930 . S
C1479 C1478 1.369 . S
C1479 C1488 1.429 . S
C1480 C1478 1.419 . S
C1480 C1481 1.363 . S
C1480 H1483 0.929 . S
C1481 C1480 1.363 . S
C1481 C1487 1.428 . S
H1482 C1478 0.930 . S
H1483 C1480 0.929 . S
S1484 N1485 1.613 . S
S1484 N1486 1.610 . S
N1485 S1484 1.613 . S
N1485 C1488 1.350 . S
N1486 S1484 1.610 . S
N1486 C1487 1.351 . S
C1487 C1481 1.428 . S
C1487 N1486 1.351 . S
C1487 C1488 1.434 . S
C1488 C1479 1.429 . S
C1488 N1485 1.350 . S
C1488 C1487 1.434 . S
C1489 C1490 1.369 . S
C1489 C1491 1.419 . S
C1489 H1493 0.930 . S
C1490 C1489 1.369 . S
C1490 C1499 1.429 . S
C1491 C1489 1.419 . S
C1491 C1492 1.363 . S
C1491 H1494 0.929 . S
C1492 C1491 1.363 . S
C1492 C1498 1.428 . S
H1493 C1489 0.930 . S
H1494 C1491 0.929 . S
S1495 N1496 1.613 . S
S1495 N1497 1.610 . S
N1496 S1495 1.613 . S
N1496 C1499 1.350 . S
N1497 S1495 1.610 . S
N1497 C1498 1.351 . S
C1498 C1492 1.428 . S
C1498 N1497 1.351 . S
C1498 C1499 1.434 . S
C1499 C1490 1.429 . S
C1499 N1496 1.350 . S
C1499 C1498 1.434 . S
C1500 C1501 1.369 . S
C1500 C1502 1.419 . S
C1500 H1504 0.930 . S
C1501 C1500 1.369 . S
C1501 C1510 1.429 . S
C1502 C1500 1.419 . S
C1502 C1503 1.363 . S
C1502 H1505 0.929 . S
C1503 C1502 1.363 . S
C1503 C1509 1.428 . S
H1504 C1500 0.930 . S
H1505 C1502 0.929 . S
S1506 N1507 1.613 . S
S1506 N1508 1.610 . S
N1507 S1506 1.613 . S
N1507 C1510 1.350 . S
N1508 S1506 1.610 . S
N1508 C1509 1.351 . S
C1509 C1503 1.428 . S
C1509 N1508 1.351 . S
C1509 C1510 1.434 . S
C1510 C1501 1.429 . S
C1510 N1507 1.350 . S
C1510 C1509 1.434 . S
C1511 C1512 1.369 . S
C1511 C1513 1.419 . S
C1511 H1515 0.930 . S
C1512 C1511 1.369 . S
C1512 C1521 1.429 . S
C1513 C1511 1.419 . S
C1513 C1514 1.363 . S
C1513 H1516 0.929 . S
C1514 C1513 1.363 . S
C1514 C1520 1.428 . S
H1515 C1511 0.930 . S
H1516 C1513 0.929 . S
S1517 N1518 1.613 . S
S1517 N1519 1.610 . S
N1518 S1517 1.613 . S
N1518 C1521 1.350 . S
N1519 S1517 1.610 . S
N1519 C1520 1.351 . S
C1520 C1514 1.428 . S
C1520 N1519 1.351 . S
C1520 C1521 1.434 . S
C1521 C1512 1.429 . S
C1521 N1518 1.350 . S
C1521 C1520 1.434 . S
C1522 C1523 1.369 . S
C1522 C1524 1.419 . S
C1522 H1526 0.930 . S
C1523 C1522 1.369 . S
C1523 C1532 1.429 . S
C1524 C1522 1.419 . S
C1524 C1525 1.363 1_554 S
C1524 H1527 0.929 . S
C1525 C1524 1.363 1_556 S
C1525 C1531 1.428 1_556 S
H1526 C1522 0.930 . S
H1527 C1524 0.929 . S
S1528 N1529 1.613 . S
S1528 N1530 1.610 . S
N1529 S1528 1.613 . S
N1529 C1532 1.350 . S
N1530 S1528 1.610 . S
N1530 C1531 1.351 . S
C1531 C1525 1.428 1_554 S
C1531 N1530 1.351 . S
C1531 C1532 1.434 . S
C1532 C1523 1.429 . S
C1532 N1529 1.350 . S
C1532 C1531 1.434 . S
C1533 C1534 1.369 . S
C1533 C1535 1.419 . S
C1533 H1537 0.930 . S
C1534 C1533 1.369 . S
C1534 C1543 1.429 . S
C1535 C1533 1.419 . S
C1535 C1536 1.363 . S
C1535 H1538 0.929 . S
C1536 C1535 1.363 . S
C1536 C1542 1.428 . S
H1537 C1533 0.930 . S
H1538 C1535 0.929 . S
S1539 N1540 1.613 . S
S1539 N1541 1.610 . S
N1540 S1539 1.613 . S
N1540 C1543 1.350 . S
N1541 S1539 1.610 . S
N1541 C1542 1.351 . S
C1542 C1536 1.428 . S
C1542 N1541 1.351 . S
C1542 C1543 1.434 . S
C1543 C1534 1.429 . S
C1543 N1540 1.350 . S
C1543 C1542 1.434 . S
C1544 C1545 1.375 . S
C1544 C1546 1.419 . S
C1544 H1548 0.930 1_556 S
C1545 C1544 1.375 . S
C1545 C1554 1.445 . S
C1546 C1544 1.419 . S
C1546 C1547 1.363 . S
C1546 H1549 0.929 . S
C1547 C1546 1.363 . S
C1547 C1553 1.428 . S
H1548 C1544 0.930 1_554 S
H1549 C1546 0.929 . S
S1550 N1551 1.613 . S
S1550 N1552 1.610 . S
N1551 S1550 1.613 . S
N1551 C1554 1.350 . S
N1552 S1550 1.610 . S
N1552 C1553 1.351 . S
C1553 C1547 1.428 . S
C1553 N1552 1.351 . S
C1553 C1554 1.434 . S
C1554 C1545 1.445 . S
C1554 N1551 1.350 . S
C1554 C1553 1.434 . S
C1555 C1556 1.369 . S
C1555 C1557 1.419 . S
C1555 H1559 0.930 . S
C1556 C1555 1.369 . S
C1556 C1565 1.429 . S
C1557 C1555 1.419 . S
C1557 C1558 1.363 . S
C1557 H1560 0.929 . S
C1558 C1557 1.363 . S
C1558 C1564 1.428 . S
H1559 C1555 0.930 . S
H1560 C1557 0.929 . S
S1561 N1562 1.613 . S
S1561 N1563 1.610 . S
N1562 S1561 1.613 . S
N1562 C1565 1.350 . S
N1563 S1561 1.610 . S
N1563 C1564 1.351 . S
C1564 C1558 1.428 . S
C1564 N1563 1.351 . S
C1564 C1565 1.434 . S
C1565 C1556 1.429 . S
C1565 N1562 1.350 . S
C1565 C1564 1.434 . S
C1566 C1567 1.369 . S
C1566 C1568 1.419 . S
C1566 H1570 0.930 . S
C1567 C1566 1.369 . S
C1567 C1576 1.429 . S
C1568 C1566 1.419 . S
C1568 C1569 1.363 . S
C1568 H1571 0.929 . S
C1569 C1568 1.363 . S
C1569 C1575 1.428 . S
H1570 C1566 0.930 . S
H1571 C1568 0.929 . S
S1572 N1573 1.613 . S
S1572 N1574 1.610 . S
N1573 S1572 1.613 . S
N1573 C1576 1.350 . S
N1574 S1572 1.610 . S
N1574 C1575 1.351 . S
C1575 C1569 1.428 . S
C1575 N1574 1.351 . S
C1575 C1576 1.434 . S
C1576 C1567 1.429 . S
C1576 N1573 1.350 . S
C1576 C1575 1.434 . S
C1577 C1578 1.369 . S
C1577 C1579 1.419 . S
C1577 H1581 0.930 . S
C1578 C1577 1.369 . S
C1578 C1587 1.429 . S
C1579 C1577 1.419 . S
C1579 C1580 1.363 . S
C1579 H1582 0.929 . S
C1580 C1579 1.363 . S
C1580 C1586 1.428 . S
H1581 C1577 0.930 . S
H1582 C1579 0.929 . S
S1583 N1584 1.613 . S
S1583 N1585 1.610 . S
N1584 S1583 1.613 . S
N1584 C1587 1.350 . S
N1585 S1583 1.610 . S
N1585 C1586 1.351 . S
C1586 C1580 1.428 . S
C1586 N1585 1.351 . S
C1586 C1587 1.434 . S
C1587 C1578 1.429 . S
C1587 N1584 1.350 . S
C1587 C1586 1.434 . S
C1588 C1589 1.369 . S
C1588 C1590 1.419 . S
C1588 H1592 0.930 . S
C1589 C1588 1.369 . S
C1589 C1598 1.429 . S
C1590 C1588 1.419 . S
C1590 C1591 1.363 . S
C1590 H1593 0.929 . S
C1591 C1590 1.363 . S
C1591 C1597 1.428 . S
H1592 C1588 0.930 . S
H1593 C1590 0.929 . S
S1594 N1595 1.613 . S
S1594 N1596 1.610 . S
N1595 S1594 1.613 . S
N1595 C1598 1.350 . S
N1596 S1594 1.610 . S
N1596 C1597 1.351 . S
C1597 C1591 1.428 . S
C1597 N1596 1.351 . S
C1597 C1598 1.434 . S
C1598 C1589 1.429 . S
C1598 N1595 1.350 . S
C1598 C1597 1.434 . S
C1599 C1600 1.369 . S
C1599 C1601 1.419 . S
C1599 H1603 0.930 . S
C1600 C1599 1.369 . S
C1600 C1609 1.429 . S
C1601 C1599 1.419 . S
C1601 C1602 1.363 . S
C1601 H1604 0.929 . S
C1602 C1601 1.363 . S
C1602 C1608 1.428 . S
H1603 C1599 0.930 . S
H1604 C1601 0.929 . S
S1605 N1606 1.613 . S
S1605 N1607 1.610 . S
N1606 S1605 1.613 . S
N1606 C1609 1.350 . S
N1607 S1605 1.610 . S
N1607 C1608 1.351 . S
C1608 C1602 1.428 . S
C1608 N1607 1.351 . S
C1608 C1609 1.434 . S
C1609 C1600 1.429 . S
C1609 N1606 1.350 . S
C1609 C1608 1.434 . S
C1610 C1611 1.369 . S
C1610 C1612 1.419 . S
C1610 H1614 0.930 . S
C1611 C1610 1.369 . S
C1611 C1620 1.429 . S
C1612 C1610 1.419 . S
C1612 C1613 1.363 . S
C1612 H1615 0.929 . S
C1613 C1612 1.363 . S
C1613 C1619 1.428 . S
H1614 C1610 0.930 . S
H1615 C1612 0.929 . S
S1616 N1617 1.613 . S
S1616 N1618 1.610 . S
N1617 S1616 1.613 . S
N1617 C1620 1.350 . S
N1618 S1616 1.610 . S
N1618 C1619 1.351 . S
C1619 C1613 1.428 . S
C1619 N1618 1.351 . S
C1619 C1620 1.434 . S
C1620 C1611 1.429 . S
C1620 N1617 1.350 . S
C1620 C1619 1.434 . S
C1621 C1622 1.369 1_554 S
C1621 C1623 1.419 . S
C1621 H1625 0.930 . S
C1622 C1621 1.369 1_556 S
C1622 C1631 1.429 1_556 S
C1623 C1621 1.419 . S
C1623 C1624 1.363 . S
C1623 H1626 0.929 . S
C1624 C1623 1.363 . S
C1624 C1630 1.428 . S
H1625 C1621 0.930 . S
H1626 C1623 0.929 . S
S1627 N1628 1.613 . S
S1627 N1629 1.610 . S
N1628 S1627 1.613 . S
N1628 C1631 1.350 . S
N1629 S1627 1.610 . S
N1629 C1630 1.351 . S
C1630 C1624 1.428 . S
C1630 N1629 1.351 . S
C1630 C1631 1.434 . S
C1631 C1622 1.429 1_554 S
C1631 N1628 1.350 . S
C1631 C1630 1.434 . S
C1632 C1633 1.369 . S
C1632 C1634 1.419 . S
C1632 H1636 0.930 . S
C1633 C1632 1.369 . S
C1633 C1642 1.429 1_655 S
C1634 C1632 1.419 . S
C1634 C1635 1.363 1_655 S
C1634 H1637 0.929 . S
C1635 C1634 1.363 1_455 S
C1635 C1641 1.428 . S
H1636 C1632 0.930 . S
H1637 C1634 0.929 . S
S1638 N1639 1.613 . S
S1638 N1640 1.610 . S
N1639 S1638 1.613 . S
N1639 C1642 1.350 . S
N1640 S1638 1.610 . S
N1640 C1641 1.351 . S
C1641 C1635 1.428 . S
C1641 N1640 1.351 . S
C1641 C1642 1.434 . S
C1642 C1633 1.429 1_455 S
C1642 N1639 1.350 . S
C1642 C1641 1.434 . S
C1643 C1644 1.369 . S
C1643 C1645 1.419 . S
C1643 H1647 0.930 . S
C1644 C1643 1.369 . S
C1644 C1653 1.429 . S
C1645 C1643 1.419 . S
C1645 C1646 1.363 . S
C1645 H1648 0.929 . S
C1646 C1645 1.363 . S
C1646 C1652 1.428 . S
H1647 C1643 0.930 . S
H1648 C1645 0.929 . S
S1649 N1650 1.613 . S
S1649 N1651 1.610 . S
N1650 S1649 1.613 . S
N1650 C1653 1.350 . S
N1651 S1649 1.610 . S
N1651 C1652 1.351 . S
C1652 C1646 1.428 . S
C1652 N1651 1.351 . S
C1652 C1653 1.434 . S
C1653 C1644 1.429 . S
C1653 N1650 1.350 . S
C1653 C1652 1.434 . S
C1654 C1655 1.369 . S
C1654 C1656 1.419 . S
C1654 H1658 0.930 . S
C1655 C1654 1.369 . S
C1655 C1664 1.429 . S
C1656 C1654 1.419 . S
C1656 C1657 1.363 . S
C1656 H1659 0.929 . S
C1657 C1656 1.363 . S
C1657 C1663 1.428 . S
H1658 C1654 0.930 . S
H1659 C1656 0.929 . S
S1660 N1661 1.613 . S
S1660 N1662 1.610 . S
N1661 S1660 1.613 . S
N1661 C1664 1.350 . S
N1662 S1660 1.610 . S
N1662 C1663 1.351 . S
C1663 C1657 1.428 . S
C1663 N1662 1.351 . S
C1663 C1664 1.434 . S
C1664 C1655 1.429 . S
C1664 N1661 1.350 . S
C1664 C1663 1.434 . S
C1665 C1666 1.369 . S
C1665 C1667 1.419 . S
C1665 H1669 0.930 . S
C1666 C1665 1.369 . S
C1666 C1675 1.429 . S
C1667 C1665 1.419 . S
C1667 C1668 1.363 . S
C1667 H1670 0.929 . S
C1668 C1667 1.363 . S
C1668 C1674 1.428 . S
H1669 C1665 0.930 . S
H1670 C1667 0.929 . S
S1671 N1672 1.613 . S
S1671 N1673 1.610 . S
N1672 S1671 1.613 . S
N1672 C1675 1.350 . S
N1673 S1671 1.610 . S
N1673 C1674 1.351 . S
C1674 C1668 1.428 . S
C1674 N1673 1.351 . S
C1674 C1675 1.434 . S
C1675 C1666 1.429 . S
C1675 N1672 1.350 . S
C1675 C1674 1.434 . S
C1676 C1677 1.369 . S
C1676 C1678 1.419 . S
C1676 H1680 0.930 . S
C1677 C1676 1.369 . S
C1677 C1686 1.429 1_655 S
C1678 C1676 1.419 . S
C1678 C1679 1.363 1_655 S
C1678 H1681 0.929 . S
C1679 C1678 1.363 1_455 S
C1679 C1685 1.428 . S
H1680 C1676 0.930 . S
H1681 C1678 0.929 . S
S1682 N1683 1.613 . S
S1682 N1684 1.610 . S
N1683 S1682 1.613 . S
N1683 C1686 1.350 . S
N1684 S1682 1.610 . S
N1684 C1685 1.351 . S
C1685 C1679 1.428 . S
C1685 N1684 1.351 . S
C1685 C1686 1.434 . S
C1686 C1677 1.429 1_455 S
C1686 N1683 1.350 . S
C1686 C1685 1.434 . S
C1687 C1688 1.369 . S
C1687 C1689 1.419 . S
C1687 H1691 0.930 . S
C1688 C1687 1.369 . S
C1688 C1697 1.429 . S
C1689 C1687 1.419 . S
C1689 C1690 1.363 . S
C1689 H1692 0.929 . S
C1690 C1689 1.363 . S
C1690 C1696 1.428 . S
H1691 C1687 0.930 . S
H1692 C1689 0.929 . S
S1693 N1694 1.613 . S
S1693 N1695 1.610 1_556 S
N1694 S1693 1.613 . S
N1694 C1697 1.350 . S
N1695 S1693 1.610 1_554 S
N1695 C1696 1.351 1_554 S
C1696 C1690 1.428 . S
C1696 N1695 1.351 1_556 S
C1696 C1697 1.434 . S
C1697 C1688 1.429 . S
C1697 N1694 1.350 . S
C1697 C1696 1.434 . S
C1698 C1699 1.369 . S
C1698 C1700 1.419 . S
C1698 H1702 0.930 . S
C1699 C1698 1.369 . S
C1699 C1708 1.429 . S
C1700 C1698 1.419 . S
C1700 C1701 1.363 . S
C1700 H1703 0.929 . S
C1701 C1700 1.363 . S
C1701 C1707 1.428 . S
H1702 C1698 0.930 . S
H1703 C1700 0.929 . S
S1704 N1705 1.613 . S
S1704 N1706 1.610 . S
N1705 S1704 1.613 . S
N1705 C1708 1.350 . S
N1706 S1704 1.610 . S
N1706 C1707 1.351 . S
C1707 C1701 1.428 . S
C1707 N1706 1.351 . S
C1707 C1708 1.434 . S
C1708 C1699 1.429 . S
C1708 N1705 1.350 . S
C1708 C1707 1.434 . S
C1709 C1710 1.369 . S
C1709 C1711 1.419 . S
C1709 H1713 0.930 . S
C1710 C1709 1.369 . S
C1710 C1719 1.429 . S
C1711 C1709 1.419 . S
C1711 C1712 1.363 . S
C1711 H1714 0.929 . S
C1712 C1711 1.363 . S
C1712 C1718 1.428 . S
H1713 C1709 0.930 . S
H1714 C1711 0.929 . S
S1715 N1716 1.613 . S
S1715 N1717 1.610 . S
N1716 S1715 1.613 . S
N1716 C1719 1.350 . S
N1717 S1715 1.610 . S
N1717 C1718 1.351 . S
C1718 C1712 1.428 . S
C1718 N1717 1.351 . S
C1718 C1719 1.434 . S
C1719 C1710 1.429 . S
C1719 N1716 1.350 . S
C1719 C1718 1.434 . S
C1720 C1721 1.369 . S
C1720 C1722 1.419 . S
C1720 H1724 0.930 . S
C1721 C1720 1.369 . S
C1721 C1730 1.429 . S
C1722 C1720 1.419 . S
C1722 C1723 1.363 . S
C1722 H1725 0.929 . S
C1723 C1722 1.363 . S
C1723 C1729 1.428 . S
H1724 C1720 0.930 . S
H1725 C1722 0.929 . S
S1726 N1727 1.613 . S
S1726 N1728 1.610 . S
N1727 S1726 1.613 . S
N1727 C1730 1.350 . S
N1728 S1726 1.610 . S
N1728 C1729 1.351 . S
C1729 C1723 1.428 . S
C1729 N1728 1.351 . S
C1729 C1730 1.434 . S
C1730 C1721 1.429 . S
C1730 N1727 1.350 . S
C1730 C1729 1.434 . S
C1731 C1732 1.369 . S
C1731 C1733 1.419 . S
C1731 H1735 0.930 . S
C1732 C1731 1.369 . S
C1732 C1741 1.429 . S
C1733 C1731 1.419 . S
C1733 C1734 1.363 . S
C1733 H1736 0.929 . S
C1734 C1733 1.363 . S
C1734 C1740 1.428 . S
H1735 C1731 0.930 . S
H1736 C1733 0.929 . S
S1737 N1738 1.613 . S
S1737 N1739 1.610 . S
N1738 S1737 1.613 . S
N1738 C1741 1.350 . S
N1739 S1737 1.610 . S
N1739 C1740 1.351 . S
C1740 C1734 1.428 . S
C1740 N1739 1.351 . S
C1740 C1741 1.434 . S
C1741 C1732 1.429 . S
C1741 N1738 1.350 . S
C1741 C1740 1.434 . S
C1742 C1743 1.369 . S
C1742 C1744 1.419 . S
C1742 H1746 0.930 . S
C1743 C1742 1.369 . S
C1743 C1752 1.429 . S
C1744 C1742 1.419 . S
C1744 C1745 1.363 . S
C1744 H1747 0.929 . S
C1745 C1744 1.363 . S
C1745 C1751 1.428 . S
H1746 C1742 0.930 . S
H1747 C1744 0.929 . S
S1748 N1749 1.613 . S
S1748 N1750 1.610 . S
N1749 S1748 1.613 . S
N1749 C1752 1.350 . S
N1750 S1748 1.610 . S
N1750 C1751 1.351 . S
C1751 C1745 1.428 . S
C1751 N1750 1.351 . S
C1751 C1752 1.434 . S
C1752 C1743 1.429 . S
C1752 N1749 1.350 . S
C1752 C1751 1.434 . S
C1753 C1754 1.369 . S
C1753 C1755 1.419 . S
C1753 H1757 0.930 . S
C1754 C1753 1.369 . S
C1754 C1763 1.429 . S
C1755 C1753 1.419 . S
C1755 C1756 1.363 . S
C1755 H1758 0.929 . S
C1756 C1755 1.363 . S
C1756 C1762 1.428 . S
H1757 C1753 0.930 . S
H1758 C1755 0.929 . S
S1759 N1760 1.613 . S
S1759 N1761 1.610 . S
N1760 S1759 1.613 . S
N1760 C1763 1.350 . S
N1761 S1759 1.610 . S
N1761 C1762 1.351 . S
C1762 C1756 1.428 . S
C1762 N1761 1.351 . S
C1762 C1763 1.434 . S
C1763 C1754 1.429 . S
C1763 N1760 1.350 . S
C1763 C1762 1.434 . S
C1764 C1765 1.369 . S
C1764 C1766 1.418 . S
C1764 H1768 0.930 . S
C1765 C1764 1.369 . S
C1765 C1774 1.429 1_545 S
C1766 C1764 1.418 . S
C1766 C1767 1.364 1_545 S
C1766 H1769 0.929 . S
C1767 C1766 1.364 1_565 S
C1767 C1773 1.428 . S
H1768 C1764 0.930 . S
H1769 C1766 0.929 . S
S1770 N1771 1.613 . S
S1770 N1772 1.610 . S
N1771 S1770 1.613 . S
N1771 C1774 1.350 . S
N1772 S1770 1.610 . S
N1772 C1773 1.351 . S
C1773 C1767 1.428 . S
C1773 N1772 1.351 . S
C1773 C1774 1.434 . S
C1774 C1765 1.429 1_565 S
C1774 N1771 1.350 . S
C1774 C1773 1.434 . S
C1775 C1776 1.369 1_655 S
C1775 C1777 1.419 . S
C1775 H1779 0.930 . S
C1776 C1775 1.369 1_455 S
C1776 C1785 1.429 1_565 S
C1777 C1775 1.419 . S
C1777 C1778 1.363 1_565 S
C1777 H1780 0.929 . S
C1778 C1777 1.363 1_545 S
C1778 C1784 1.428 1_655 S
H1779 C1775 0.930 . S
H1780 C1777 0.929 . S
S1781 N1782 1.613 . S
S1781 N1783 1.610 . S
N1782 S1781 1.613 . S
N1782 C1785 1.350 . S
N1783 S1781 1.610 . S
N1783 C1784 1.351 . S
C1784 C1778 1.428 1_455 S
C1784 N1783 1.351 . S
C1784 C1785 1.434 . S
C1785 C1776 1.429 1_545 S
C1785 N1782 1.350 . S
C1785 C1784 1.434 . S
C1786 C1787 1.369 . S
C1786 C1788 1.419 1_565 S
C1786 H1790 0.930 . S
C1787 C1786 1.369 . S
C1787 C1796 1.429 . S
C1788 C1786 1.419 1_545 S
C1788 C1789 1.363 . S
C1788 H1791 0.929 . S
C1789 C1788 1.363 . S
C1789 C1795 1.428 . S
H1790 C1786 0.930 . S
H1791 C1788 0.929 . S
S1792 N1793 1.613 . S
S1792 N1794 1.609 . S
N1793 S1792 1.613 . S
N1793 C1796 1.350 . S
N1794 S1792 1.609 . S
N1794 C1795 1.351 1_565 S
C1795 C1789 1.428 . S
C1795 N1794 1.351 1_545 S
C1795 C1796 1.434 1_545 S
C1796 C1787 1.429 . S
C1796 N1793 1.350 . S
C1796 C1795 1.434 1_565 S
C1797 C1798 1.369 . S
C1797 C1799 1.425 . S
C1797 H1801 0.930 . S
C1798 C1797 1.369 . S
C1798 C1807 1.429 1_665 S
C1799 C1797 1.425 . S
C1799 C1800 1.357 1_665 S
C1799 H1802 0.929 . S
C1800 C1799 1.357 1_445 S
C1800 C1806 1.428 . S
H1801 C1797 0.930 . S
H1802 C1799 0.929 . S
S1803 N1804 1.613 . S
S1803 N1805 1.610 . S
N1804 S1803 1.613 . S
N1804 C1807 1.350 . S
N1805 S1803 1.610 . S
N1805 C1806 1.351 . S
C1806 C1800 1.428 . S
C1806 N1805 1.351 . S
C1806 C1807 1.434 . S
C1807 C1798 1.429 1_445 S
C1807 N1804 1.350 . S
C1807 C1806 1.434 . S
C1808 C1809 1.369 . S
C1808 C1810 1.419 . S
C1808 H1812 0.930 . S
C1809 C1808 1.369 . S
C1809 C1818 1.429 . S
C1810 C1808 1.419 . S
C1810 C1811 1.363 . S
C1810 H1813 0.929 1_455 S
C1811 C1810 1.363 . S
C1811 C1817 1.428 . S
H1812 C1808 0.930 . S
H1813 C1810 0.929 1_655 S
S1814 N1815 1.613 . S
S1814 N1816 1.610 . S
N1815 S1814 1.613 . S
N1815 C1818 1.350 . S
N1816 S1814 1.610 . S
N1816 C1817 1.351 . S
C1817 C1811 1.428 . S
C1817 N1816 1.351 . S
C1817 C1818 1.434 . S
C1818 C1809 1.429 . S
C1818 N1815 1.350 . S
C1818 C1817 1.434 . S
C1819 C1820 1.369 . S
C1819 C1821 1.419 1_556 S
C1819 H1823 0.930 . S
C1820 C1819 1.369 . S
C1820 C1829 1.429 1_556 S
C1821 C1819 1.419 1_554 S
C1821 C1822 1.363 . S
C1821 H1824 0.929 1_554 S
C1822 C1821 1.363 . S
C1822 C1828 1.428 . S
H1823 C1819 0.930 . S
H1824 C1821 0.929 1_556 S
S1825 N1826 1.613 . S
S1825 N1827 1.610 . S
N1826 S1825 1.613 . S
N1826 C1829 1.350 . S
N1827 S1825 1.610 . S
N1827 C1828 1.351 . S
C1828 C1822 1.428 . S
C1828 N1827 1.351 . S
C1828 C1829 1.434 . S
C1829 C1820 1.429 1_554 S
C1829 N1826 1.350 . S
C1829 C1828 1.434 . S
C1830 C1831 1.369 . S
C1830 C1832 1.419 . S
C1830 H1834 0.930 . S
C1831 C1830 1.369 . S
C1831 C1840 1.429 . S
C1832 C1830 1.419 . S
C1832 C1833 1.363 . S
C1832 H1835 0.929 . S
C1833 C1832 1.363 . S
C1833 C1839 1.428 . S
H1834 C1830 0.930 . S
H1835 C1832 0.929 . S
S1836 N1837 1.613 . S
S1836 N1838 1.610 . S
N1837 S1836 1.613 . S
N1837 C1840 1.350 . S
N1838 S1836 1.610 . S
N1838 C1839 1.351 . S
C1839 C1833 1.428 . S
C1839 N1838 1.351 . S
C1839 C1840 1.434 . S
C1840 C1831 1.429 . S
C1840 N1837 1.350 . S
C1840 C1839 1.434 . S
C1841 C1842 1.369 . S
C1841 C1843 1.419 . S
C1841 H1845 0.930 . S
C1842 C1841 1.369 . S
C1842 C1851 1.429 . S
C1843 C1841 1.419 . S
C1843 C1844 1.363 . S
C1843 H1846 0.929 . S
C1844 C1843 1.363 . S
C1844 C1850 1.428 . S
H1845 C1841 0.930 . S
H1846 C1843 0.929 . S
S1847 N1848 1.613 . S
S1847 N1849 1.610 . S
N1848 S1847 1.613 . S
N1848 C1851 1.350 . S
N1849 S1847 1.610 . S
N1849 C1850 1.351 . S
C1850 C1844 1.428 . S
C1850 N1849 1.351 . S
C1850 C1851 1.434 . S
C1851 C1842 1.429 . S
C1851 N1848 1.350 . S
C1851 C1850 1.434 . S
C1852 C1853 1.369 1_455 S
C1852 C1854 1.419 . S
C1852 H1856 0.930 . S
C1853 C1852 1.369 1_655 S
C1853 C1862 1.429 . S
C1854 C1852 1.419 . S
C1854 C1855 1.363 . S
C1854 H1857 0.929 . S
C1855 C1854 1.363 . S
C1855 C1861 1.428 1_455 S
H1856 C1852 0.930 . S
H1857 C1854 0.929 . S
S1858 N1859 1.613 . S
S1858 N1860 1.610 . S
N1859 S1858 1.613 . S
N1859 C1862 1.350 . S
N1860 S1858 1.610 . S
N1860 C1861 1.351 . S
C1861 C1855 1.428 1_655 S
C1861 N1860 1.351 . S
C1861 C1862 1.434 . S
C1862 C1853 1.429 . S
C1862 N1859 1.350 . S
C1862 C1861 1.434 . S
C1863 C1864 1.369 . S
C1863 C1865 1.419 . S
C1863 H1867 0.930 . S
C1864 C1863 1.369 . S
C1864 C1873 1.429 . S
C1865 C1863 1.419 . S
C1865 C1866 1.363 . S
C1865 H1868 0.929 . S
C1866 C1865 1.363 . S
C1866 C1872 1.428 . S
H1867 C1863 0.930 . S
H1868 C1865 0.929 . S
S1869 N1870 1.613 . S
S1869 N1871 1.610 . S
N1870 S1869 1.613 . S
N1870 C1873 1.350 . S
N1871 S1869 1.610 . S
N1871 C1872 1.351 . S
C1872 C1866 1.428 . S
C1872 N1871 1.351 . S
C1872 C1873 1.434 . S
C1873 C1864 1.429 . S
C1873 N1870 1.350 . S
C1873 C1872 1.434 . S
C1874 C1875 1.369 . S
C1874 C1876 1.419 . S
C1874 H1878 0.930 . S
C1875 C1874 1.369 . S
C1875 C1884 1.429 . S
C1876 C1874 1.419 . S
C1876 C1877 1.363 . S
C1876 H1879 0.929 . S
C1877 C1876 1.363 . S
C1877 C1883 1.428 . S
H1878 C1874 0.930 . S
H1879 C1876 0.929 . S
S1880 N1881 1.613 . S
S1880 N1882 1.610 . S
N1881 S1880 1.613 . S
N1881 C1884 1.350 . S
N1882 S1880 1.610 . S
N1882 C1883 1.351 . S
C1883 C1877 1.428 . S
C1883 N1882 1.351 . S
C1883 C1884 1.434 . S
C1884 C1875 1.429 . S
C1884 N1881 1.350 . S
C1884 C1883 1.434 . S
C1885 C1886 1.369 . S
C1885 C1887 1.419 . S
C1885 H1889 0.930 . S
C1886 C1885 1.369 . S
C1886 C1895 1.429 . S
C1887 C1885 1.419 . S
C1887 C1888 1.363 . S
C1887 H1890 0.929 . S
C1888 C1887 1.363 . S
C1888 C1894 1.428 . S
H1889 C1885 0.930 . S
H1890 C1887 0.929 . S
S1891 N1892 1.613 . S
S1891 N1893 1.610 . S
N1892 S1891 1.613 . S
N1892 C1895 1.350 . S
N1893 S1891 1.610 . S
N1893 C1894 1.351 . S
C1894 C1888 1.428 . S
C1894 N1893 1.351 . S
C1894 C1895 1.434 . S
C1895 C1886 1.429 . S
C1895 N1892 1.350 . S
C1895 C1894 1.434 . S
C1896 C1897 1.369 . S
C1896 C1898 1.419 . S
C1896 H1900 0.930 . S
C1897 C1896 1.369 . S
C1897 C1906 1.429 . S
C1898 C1896 1.419 . S
C1898 C1899 1.363 . S
C1898 H1901 0.929 . S
C1899 C1898 1.363 . S
C1899 C1905 1.428 . S
H1900 C1896 0.930 . S
H1901 C1898 0.929 . S
S1902 N1903 1.613 . S
S1902 N1904 1.610 1_455 S
N1903 S1902 1.613 . S
N1903 C1906 1.350 1_455 S
N1904 S1902 1.610 1_655 S
N1904 C1905 1.351 . S
C1905 C1899 1.428 . S
C1905 N1904 1.351 . S
C1905 C1906 1.434 . S
C1906 C1897 1.429 . S
C1906 N1903 1.350 1_655 S
C1906 C1905 1.434 . S
C1907 C1908 1.369 . S
C1907 C1909 1.419 . S
C1907 H1911 0.930 . S
C1908 C1907 1.369 . S
C1908 C1917 1.429 . S
C1909 C1907 1.419 . S
C1909 C1910 1.363 . S
C1909 H1912 0.929 . S
C1910 C1909 1.363 . S
C1910 C1916 1.428 . S
H1911 C1907 0.930 . S
H1912 C1909 0.929 . S
S1913 N1914 1.613 . S
S1913 N1915 1.610 . S
N1914 S1913 1.613 . S
N1914 C1917 1.350 . S
N1915 S1913 1.610 . S
N1915 C1916 1.351 . S
C1916 C1910 1.428 . S
C1916 N1915 1.351 . S
C1916 C1917 1.434 . S
C1917 C1908 1.429 . S
C1917 N1914 1.350 . S
C1917 C1916 1.434 . S
C1918 C1919 1.369 . S
C1918 C1920 1.419 . S
C1918 H1922 0.930 . S
C1919 C1918 1.369 . S
C1919 C1928 1.429 . S
C1920 C1918 1.419 . S
C1920 C1921 1.363 . S
C1920 H1923 0.929 . S
C1921 C1920 1.363 . S
C1921 C1927 1.428 . S
H1922 C1918 0.930 . S
H1923 C1920 0.929 . S
S1924 N1925 1.613 . S
S1924 N1926 1.610 . S
N1925 S1924 1.613 . S
N1925 C1928 1.350 . S
N1926 S1924 1.610 . S
N1926 C1927 1.351 . S
C1927 C1921 1.428 . S
C1927 N1926 1.351 . S
C1927 C1928 1.434 . S
C1928 C1919 1.429 . S
C1928 N1925 1.350 . S
C1928 C1927 1.434 . S
C1929 C1930 1.369 . S
C1929 C1931 1.419 . S
C1929 H1933 0.930 . S
C1930 C1929 1.369 . S
C1930 C1939 1.429 . S
C1931 C1929 1.419 . S
C1931 C1932 1.363 . S
C1931 H1934 0.929 . S
C1932 C1931 1.363 . S
C1932 C1938 1.428 . S
H1933 C1929 0.930 . S
H1934 C1931 0.929 . S
S1935 N1936 1.613 . S
S1935 N1937 1.610 . S
N1936 S1935 1.613 . S
N1936 C1939 1.350 . S
N1937 S1935 1.610 . S
N1937 C1938 1.351 . S
C1938 C1932 1.428 . S
C1938 N1937 1.351 . S
C1938 C1939 1.434 . S
C1939 C1930 1.429 . S
C1939 N1936 1.350 . S
C1939 C1938 1.434 . S
C1940 C1941 1.369 1_655 S
C1940 C1942 1.419 . S
C1940 H1944 0.930 . S
C1941 C1940 1.369 1_455 S
C1941 C1950 1.429 . S
C1942 C1940 1.419 . S
C1942 C1943 1.363 . S
C1942 H1945 0.929 . S
C1943 C1942 1.363 . S
C1943 C1949 1.428 1_655 S
H1944 C1940 0.930 . S
H1945 C1942 0.929 . S
S1946 N1947 1.613 . S
S1946 N1948 1.610 . S
N1947 S1946 1.613 . S
N1947 C1950 1.350 . S
N1948 S1946 1.610 . S
N1948 C1949 1.351 . S
C1949 C1943 1.428 1_455 S
C1949 N1948 1.351 . S
C1949 C1950 1.434 . S
C1950 C1941 1.429 . S
C1950 N1947 1.350 . S
C1950 C1949 1.434 . S
C1951 C1952 1.369 . S
C1951 C1953 1.419 1_556 S
C1951 H1955 0.930 . S
C1952 C1951 1.369 . S
C1952 C1961 1.429 1_556 S
C1953 C1951 1.419 1_554 S
C1953 C1954 1.363 . S
C1953 H1956 0.929 . S
C1954 C1953 1.363 . S
C1954 C1960 1.428 . S
H1955 C1951 0.930 . S
H1956 C1953 0.929 . S
S1957 N1958 1.613 . S
S1957 N1959 1.610 . S
N1958 S1957 1.613 . S
N1958 C1961 1.350 . S
N1959 S1957 1.610 . S
N1959 C1960 1.351 . S
C1960 C1954 1.428 . S
C1960 N1959 1.351 . S
C1960 C1961 1.434 . S
C1961 C1952 1.429 1_554 S
C1961 N1958 1.350 . S
C1961 C1960 1.434 . S
C1962 C1963 1.369 . S
C1962 C1964 1.419 . S
C1962 H1966 0.930 . S
C1963 C1962 1.369 . S
C1963 C1972 1.429 . S
C1964 C1962 1.419 . S
C1964 C1965 1.363 . S
C1964 H1967 0.929 . S
C1965 C1964 1.363 . S
C1965 C1971 1.428 . S
H1966 C1962 0.930 . S
H1967 C1964 0.929 . S
S1968 N1969 1.613 . S
S1968 N1970 1.610 . S
N1969 S1968 1.613 . S
N1969 C1972 1.350 . S
N1970 S1968 1.610 . S
N1970 C1971 1.351 . S
C1971 C1965 1.428 . S
C1971 N1970 1.351 . S
C1971 C1972 1.434 . S
C1972 C1963 1.429 . S
C1972 N1969 1.350 . S
C1972 C1971 1.434 . S
C1973 C1974 1.369 . S
C1973 C1975 1.419 . S
C1973 H1977 0.930 . S
C1974 C1973 1.369 . S
C1974 C1983 1.429 . S
C1975 C1973 1.419 . S
C1975 C1976 1.363 . S
C1975 H1978 0.929 . S
C1976 C1975 1.363 . S
C1976 C1982 1.428 . S
H1977 C1973 0.930 . S
H1978 C1975 0.929 . S
S1979 N1980 1.613 . S
S1979 N1981 1.610 . S
N1980 S1979 1.613 . S
N1980 C1983 1.350 . S
N1981 S1979 1.610 . S
N1981 C1982 1.351 . S
C1982 C1976 1.428 . S
C1982 N1981 1.351 . S
C1982 C1983 1.434 . S
C1983 C1974 1.429 . S
C1983 N1980 1.350 . S
C1983 C1982 1.434 . S
C1984 C1985 1.369 . S
C1984 C1986 1.419 . S
C1984 H1988 0.930 . S
C1985 C1984 1.369 . S
C1985 C1994 1.429 . S
C1986 C1984 1.419 . S
C1986 C1987 1.363 . S
C1986 H1989 0.929 . S
C1987 C1986 1.363 . S
C1987 C1993 1.428 . S
H1988 C1984 0.930 . S
H1989 C1986 0.929 . S
S1990 N1991 1.613 . S
S1990 N1992 1.610 . S
N1991 S1990 1.613 . S
N1991 C1994 1.350 . S
N1992 S1990 1.610 . S
N1992 C1993 1.351 . S
C1993 C1987 1.428 . S
C1993 N1992 1.351 . S
C1993 C1994 1.434 . S
C1994 C1985 1.429 . S
C1994 N1991 1.350 . S
C1994 C1993 1.434 . S
C1995 C1996 1.369 . S
C1995 C1997 1.419 . S
C1995 H1999 0.930 . S
C1996 C1995 1.369 . S
C1996 C2005 1.429 . S
C1997 C1995 1.419 . S
C1997 C1998 1.363 . S
C1997 H2000 0.929 . S
C1998 C1997 1.363 . S
C1998 C2004 1.428 . S
H1999 C1995 0.930 . S
H2000 C1997 0.929 . S
S2001 N2002 1.613 . S
S2001 N2003 1.610 . S
N2002 S2001 1.613 . S
N2002 C2005 1.350 . S
N2003 S2001 1.610 . S
N2003 C2004 1.351 . S
C2004 C1998 1.428 . S
C2004 N2003 1.351 . S
C2004 C2005 1.434 . S
C2005 C1996 1.429 . S
C2005 N2002 1.350 . S
C2005 C2004 1.434 . S
C2006 C2007 1.369 . S
C2006 C2008 1.419 . S
C2006 H2010 0.930 . S
C2007 C2006 1.369 . S
C2007 C2016 1.429 1_455 S
C2008 C2006 1.419 . S
C2008 C2009 1.363 . S
C2008 H2011 0.929 . S
C2009 C2008 1.363 . S
C2009 C2015 1.428 . S
H2010 C2006 0.930 . S
H2011 C2008 0.929 . S
S2012 N2013 1.613 . S
S2012 N2014 1.610 1_655 S
N2013 S2012 1.613 . S
N2013 C2016 1.350 . S
N2014 S2012 1.610 1_455 S
N2014 C2015 1.351 . S
C2015 C2009 1.428 . S
C2015 N2014 1.351 . S
C2015 C2016 1.434 1_455 S
C2016 C2007 1.429 1_655 S
C2016 N2013 1.350 . S
C2016 C2015 1.434 1_655 S
C2017 C2018 1.369 . S
C2017 C2019 1.419 . S
C2017 H2021 0.930 . S
C2018 C2017 1.369 . S
C2018 C2027 1.429 . S
C2019 C2017 1.419 . S
C2019 C2020 1.363 . S
C2019 H2022 0.929 . S
C2020 C2019 1.363 . S
C2020 C2026 1.428 . S
H2021 C2017 0.930 . S
H2022 C2019 0.929 . S
S2023 N2024 1.613 . S
S2023 N2025 1.610 . S
N2024 S2023 1.613 . S
N2024 C2027 1.350 . S
N2025 S2023 1.610 . S
N2025 C2026 1.351 . S
C2026 C2020 1.428 . S
C2026 N2025 1.351 . S
C2026 C2027 1.434 . S
C2027 C2018 1.429 . S
C2027 N2024 1.350 . S
C2027 C2026 1.434 . S
C2028 C2029 1.369 . S
C2028 C2030 1.419 . S
C2028 H2032 0.930 . S
C2029 C2028 1.369 . S
C2029 C2038 1.429 . S
C2030 C2028 1.419 . S
C2030 C2031 1.363 . S
C2030 H2033 0.929 . S
C2031 C2030 1.363 . S
C2031 C2037 1.428 . S
H2032 C2028 0.930 . S
H2033 C2030 0.929 . S
S2034 N2035 1.613 . S
S2034 N2036 1.610 . S
N2035 S2034 1.613 . S
N2035 C2038 1.350 . S
N2036 S2034 1.610 . S
N2036 C2037 1.351 . S
C2037 C2031 1.428 . S
C2037 N2036 1.351 . S
C2037 C2038 1.434 . S
C2038 C2029 1.429 . S
C2038 N2035 1.350 . S
C2038 C2037 1.434 . S
C2039 C2040 1.369 . S
C2039 C2041 1.419 . S
C2039 H2043 0.930 . S
C2040 C2039 1.369 . S
C2040 C2049 1.429 . S
C2041 C2039 1.419 . S
C2041 C2042 1.363 . S
C2041 H2044 0.929 . S
C2042 C2041 1.363 . S
C2042 C2048 1.428 . S
H2043 C2039 0.930 . S
H2044 C2041 0.929 . S
S2045 N2046 1.613 . S
S2045 N2047 1.610 . S
N2046 S2045 1.613 . S
N2046 C2049 1.350 . S
N2047 S2045 1.610 . S
N2047 C2048 1.351 . S
C2048 C2042 1.428 . S
C2048 N2047 1.351 . S
C2048 C2049 1.434 . S
C2049 C2040 1.429 . S
C2049 N2046 1.350 . S
C2049 C2048 1.434 . S
C2050 C2051 1.369 . S
C2050 C2052 1.419 1_554 S
C2050 H2054 0.930 . S
C2051 C2050 1.369 . S
C2051 C2060 1.429 . S
C2052 C2050 1.419 1_556 S
C2052 C2053 1.363 1_456 S
C2052 H2055 0.929 . S
C2053 C2052 1.363 1_654 S
C2053 C2059 1.428 . S
H2054 C2050 0.930 . S
H2055 C2052 0.929 . S
S2056 N2057 1.613 . S
S2056 N2058 1.610 . S
N2057 S2056 1.613 . S
N2057 C2060 1.350 1_655 S
N2058 S2056 1.610 . S
N2058 C2059 1.351 . S
C2059 C2053 1.428 . S
C2059 N2058 1.351 . S
C2059 C2060 1.434 1_655 S
C2060 C2051 1.429 . S
C2060 N2057 1.350 1_455 S
C2060 C2059 1.434 1_455 S
C2061 C2062 1.369 . S
C2061 C2063 1.419 . S
C2061 H2065 0.930 . S
C2062 C2061 1.369 . S
C2062 C2071 1.429 . S
C2063 C2061 1.419 . S
C2063 C2064 1.363 . S
C2063 H2066 0.929 . S
C2064 C2063 1.363 . S
C2064 C2070 1.428 . S
H2065 C2061 0.930 . S
H2066 C2063 0.929 . S
S2067 N2068 1.613 . S
S2067 N2069 1.610 . S
N2068 S2067 1.613 . S
N2068 C2071 1.350 . S
N2069 S2067 1.610 . S
N2069 C2070 1.351 . S
C2070 C2064 1.428 . S
C2070 N2069 1.351 . S
C2070 C2071 1.434 . S
C2071 C2062 1.429 . S
C2071 N2068 1.350 . S
C2071 C2070 1.434 . S
C2072 C2073 1.369 . S
C2072 C2074 1.419 . S
C2072 H2076 0.930 . S
C2073 C2072 1.369 . S
C2073 C2082 1.429 . S
C2074 C2072 1.419 . S
C2074 C2075 1.363 . S
C2074 H2077 0.929 . S
C2075 C2074 1.363 . S
C2075 C2081 1.428 . S
H2076 C2072 0.930 . S
H2077 C2074 0.929 . S
S2078 N2079 1.613 . S
S2078 N2080 1.610 . S
N2079 S2078 1.613 . S
N2079 C2082 1.350 . S
N2080 S2078 1.610 . S
N2080 C2081 1.351 . S
C2081 C2075 1.428 . S
C2081 N2080 1.351 . S
C2081 C2082 1.434 . S
C2082 C2073 1.429 . S
C2082 N2079 1.350 . S
C2082 C2081 1.434 . S
C2083 C2084 1.369 . S
C2083 C2085 1.419 . S
C2083 H2087 0.930 . S
C2084 C2083 1.369 . S
C2084 C2093 1.429 . S
C2085 C2083 1.419 . S
C2085 C2086 1.363 . S
C2085 H2088 0.929 . S
C2086 C2085 1.363 . S
C2086 C2092 1.428 . S
H2087 C2083 0.930 . S
H2088 C2085 0.929 . S
S2089 N2090 1.613 . S
S2089 N2091 1.610 . S
N2090 S2089 1.613 . S
N2090 C2093 1.350 . S
N2091 S2089 1.610 . S
N2091 C2092 1.351 . S
C2092 C2086 1.428 . S
C2092 N2091 1.351 . S
C2092 C2093 1.434 . S
C2093 C2084 1.429 . S
C2093 N2090 1.350 . S
C2093 C2092 1.434 . S
C2094 C2095 1.369 . S
C2094 C2096 1.419 . S
C2094 H2098 0.930 . S
C2095 C2094 1.369 . S
C2095 C2104 1.429 1_655 S
C2096 C2094 1.419 . S
C2096 C2097 1.363 . S
C2096 H2099 0.929 . S
C2097 C2096 1.363 . S
C2097 C2103 1.428 . S
H2098 C2094 0.930 . S
H2099 C2096 0.929 . S
S2100 N2101 1.613 . S
S2100 N2102 1.610 . S
N2101 S2100 1.613 . S
N2101 C2104 1.350 . S
N2102 S2100 1.610 . S
N2102 C2103 1.351 1_455 S
C2103 C2097 1.428 . S
C2103 N2102 1.351 1_655 S
C2103 C2104 1.434 1_655 S
C2104 C2095 1.429 1_455 S
C2104 N2101 1.350 . S
C2104 C2103 1.434 1_455 S
C2105 C2106 1.369 . S
C2105 C2107 1.419 . S
C2105 H2109 0.930 . S
C2106 C2105 1.369 . S
C2106 C2115 1.429 . S
C2107 C2105 1.419 . S
C2107 C2108 1.363 . S
C2107 H2110 0.929 . S
C2108 C2107 1.363 . S
C2108 C2114 1.428 . S
H2109 C2105 0.930 . S
H2110 C2107 0.929 . S
S2111 N2112 1.613 . S
S2111 N2113 1.610 . S
N2112 S2111 1.613 . S
N2112 C2115 1.350 . S
N2113 S2111 1.610 . S
N2113 C2114 1.351 . S
C2114 C2108 1.428 . S
C2114 N2113 1.351 . S
C2114 C2115 1.434 . S
C2115 C2106 1.429 . S
C2115 N2112 1.350 . S
C2115 C2114 1.434 . S
C2116 C2117 1.369 . S
C2116 C2118 1.419 . S
C2116 H2120 0.930 . S
C2117 C2116 1.369 . S
C2117 C2126 1.429 . S
C2118 C2116 1.419 . S
C2118 C2119 1.363 . S
C2118 H2121 0.929 1_556 S
C2119 C2118 1.363 . S
C2119 C2125 1.428 . S
H2120 C2116 0.930 . S
H2121 C2118 0.929 1_554 S
S2122 N2123 1.613 . S
S2122 N2124 1.610 . S
N2123 S2122 1.613 . S
N2123 C2126 1.350 . S
N2124 S2122 1.610 . S
N2124 C2125 1.351 . S
C2125 C2119 1.428 . S
C2125 N2124 1.351 . S
C2125 C2126 1.434 . S
C2126 C2117 1.429 . S
C2126 N2123 1.350 . S
C2126 C2125 1.434 . S
C2127 C2128 1.369 . S
C2127 C2129 1.419 . S
C2127 H2131 0.930 . S
C2128 C2127 1.369 . S
C2128 C2137 1.429 . S
C2129 C2127 1.419 . S
C2129 C2130 1.363 . S
C2129 H2132 0.929 . S
C2130 C2129 1.363 . S
C2130 C2136 1.428 . S
H2131 C2127 0.930 . S
H2132 C2129 0.929 . S
S2133 N2134 1.613 . S
S2133 N2135 1.610 . S
N2134 S2133 1.613 . S
N2134 C2137 1.350 . S
N2135 S2133 1.610 . S
N2135 C2136 1.351 . S
C2136 C2130 1.428 . S
C2136 N2135 1.351 . S
C2136 C2137 1.434 . S
C2137 C2128 1.429 . S
C2137 N2134 1.350 . S
C2137 C2136 1.434 . S
C2138 C2139 1.369 . S
C2138 C2140 1.419 1_455 S
C2138 H2142 0.930 . S
C2139 C2138 1.369 . S
C2139 C2148 1.429 1_455 S
C2140 C2138 1.419 1_655 S
C2140 C2141 1.363 . S
C2140 H2143 0.929 . S
C2141 C2140 1.363 . S
C2141 C2147 1.428 . S
H2142 C2138 0.930 . S
H2143 C2140 0.929 . S
S2144 N2145 1.613 . S
S2144 N2146 1.610 . S
N2145 S2144 1.613 . S
N2145 C2148 1.350 . S
N2146 S2144 1.610 . S
N2146 C2147 1.351 . S
C2147 C2141 1.428 . S
C2147 N2146 1.351 . S
C2147 C2148 1.434 . S
C2148 C2139 1.429 1_655 S
C2148 N2145 1.350 . S
C2148 C2147 1.434 . S
C2149 C2150 1.369 . S
C2149 C2151 1.419 . S
C2149 H2153 0.930 . S
C2150 C2149 1.369 . S
C2150 C2159 1.429 . S
C2151 C2149 1.419 . S
C2151 C2152 1.363 . S
C2151 H2154 0.929 . S
C2152 C2151 1.363 . S
C2152 C2158 1.428 . S
H2153 C2149 0.930 . S
H2154 C2151 0.929 . S
S2155 N2156 1.613 . S
S2155 N2157 1.610 . S
N2156 S2155 1.613 . S
N2156 C2159 1.350 . S
N2157 S2155 1.610 . S
N2157 C2158 1.351 . S
C2158 C2152 1.428 . S
C2158 N2157 1.351 . S
C2158 C2159 1.434 . S
C2159 C2150 1.429 . S
C2159 N2156 1.350 . S
C2159 C2158 1.434 . S
C2160 C2161 1.369 . S
C2160 C2162 1.419 . S
C2160 H2164 0.930 . S
C2161 C2160 1.369 . S
C2161 C2170 1.429 . S
C2162 C2160 1.419 . S
C2162 C2163 1.363 . S
C2162 H2165 0.929 . S
C2163 C2162 1.363 . S
C2163 C2169 1.428 . S
H2164 C2160 0.930 . S
H2165 C2162 0.929 . S
S2166 N2167 1.613 . S
S2166 N2168 1.610 . S
N2167 S2166 1.613 . S
N2167 C2170 1.350 . S
N2168 S2166 1.610 . S
N2168 C2169 1.351 . S
C2169 C2163 1.428 . S
C2169 N2168 1.351 . S
C2169 C2170 1.434 . S
C2170 C2161 1.429 . S
C2170 N2167 1.350 . S
C2170 C2169 1.434 . S
C2171 C2172 1.369 . S
C2171 C2173 1.419 . S
C2171 H2175 0.930 . S
C2172 C2171 1.369 . S
C2172 C2181 1.429 . S
C2173 C2171 1.419 . S
C2173 C2174 1.363 . S
C2173 H2176 0.929 . S
C2174 C2173 1.363 . S
C2174 C2180 1.428 . S
H2175 C2171 0.930 . S
H2176 C2173 0.929 . S
S2177 N2178 1.613 . S
S2177 N2179 1.610 . S
N2178 S2177 1.613 . S
N2178 C2181 1.350 . S
N2179 S2177 1.610 . S
N2179 C2180 1.351 . S
C2180 C2174 1.428 . S
C2180 N2179 1.351 . S
C2180 C2181 1.434 . S
C2181 C2172 1.429 . S
C2181 N2178 1.350 . S
C2181 C2180 1.434 . S
C2182 C2183 1.369 . S
C2182 C2184 1.419 . S
C2182 H2186 0.930 . S
C2183 C2182 1.369 . S
C2183 C2192 1.429 . S
C2184 C2182 1.419 . S
C2184 C2185 1.363 . S
C2184 H2187 0.929 . S
C2185 C2184 1.363 . S
C2185 C2191 1.428 . S
H2186 C2182 0.930 . S
H2187 C2184 0.929 . S
S2188 N2189 1.613 . S
S2188 N2190 1.610 . S
N2189 S2188 1.613 . S
N2189 C2192 1.350 . S
N2190 S2188 1.610 . S
N2190 C2191 1.351 . S
C2191 C2185 1.428 . S
C2191 N2190 1.351 . S
C2191 C2192 1.434 . S
C2192 C2183 1.429 . S
C2192 N2189 1.350 . S
C2192 C2191 1.434 . S
C2193 C2194 1.369 . S
C2193 C2195 1.419 . S
C2193 H2197 0.930 . S
C2194 C2193 1.369 . S
C2194 C2203 1.429 . S
C2195 C2193 1.419 . S
C2195 C2196 1.363 . S
C2195 H2198 0.929 . S
C2196 C2195 1.363 . S
C2196 C2202 1.428 . S
H2197 C2193 0.930 . S
H2198 C2195 0.929 . S
S2199 N2200 1.613 . S
S2199 N2201 1.610 . S
N2200 S2199 1.613 . S
N2200 C2203 1.350 . S
N2201 S2199 1.610 . S
N2201 C2202 1.351 . S
C2202 C2196 1.428 . S
C2202 N2201 1.351 . S
C2202 C2203 1.434 . S
C2203 C2194 1.429 . S
C2203 N2200 1.350 . S
C2203 C2202 1.434 . S
C2204 C2205 1.369 . S
C2204 C2206 1.419 . S
C2204 H2208 0.930 . S
C2205 C2204 1.369 . S
C2205 C2214 1.429 . S
C2206 C2204 1.419 . S
C2206 C2207 1.363 . S
C2206 H2209 0.929 . S
C2207 C2206 1.363 . S
C2207 C2213 1.428 . S
H2208 C2204 0.930 . S
H2209 C2206 0.929 . S
S2210 N2211 1.613 . S
S2210 N2212 1.610 . S
N2211 S2210 1.613 . S
N2211 C2214 1.350 . S
N2212 S2210 1.610 . S
N2212 C2213 1.351 . S
C2213 C2207 1.428 . S
C2213 N2212 1.351 . S
C2213 C2214 1.434 . S
C2214 C2205 1.429 . S
C2214 N2211 1.350 . S
C2214 C2213 1.434 . S
C2215 C2216 1.369 . S
C2215 C2217 1.419 . S
C2215 H2219 0.930 . S
C2216 C2215 1.369 . S
C2216 C2225 1.429 . S
C2217 C2215 1.419 . S
C2217 C2218 1.363 . S
C2217 H2220 0.929 . S
C2218 C2217 1.363 . S
C2218 C2224 1.428 . S
H2219 C2215 0.930 . S
H2220 C2217 0.929 . S
S2221 N2222 1.613 . S
S2221 N2223 1.610 . S
N2222 S2221 1.613 . S
N2222 C2225 1.350 . S
N2223 S2221 1.610 . S
N2223 C2224 1.351 . S
C2224 C2218 1.428 . S
C2224 N2223 1.351 . S
C2224 C2225 1.434 . S
C2225 C2216 1.429 . S
C2225 N2222 1.350 . S
C2225 C2224 1.434 . S
C2226 C2227 1.369 . S
C2226 C2228 1.419 . S
C2226 H2230 0.930 . S
C2227 C2226 1.369 . S
C2227 C2236 1.429 . S
C2228 C2226 1.419 . S
C2228 C2229 1.363 . S
C2228 H2231 0.929 . S
C2229 C2228 1.363 . S
C2229 C2235 1.428 . S
H2230 C2226 0.930 . S
H2231 C2228 0.929 . S
S2232 N2233 1.613 . S
S2232 N2234 1.610 . S
N2233 S2232 1.613 . S
N2233 C2236 1.350 . S
N2234 S2232 1.610 . S
N2234 C2235 1.351 . S
C2235 C2229 1.428 . S
C2235 N2234 1.351 . S
C2235 C2236 1.434 . S
C2236 C2227 1.429 . S
C2236 N2233 1.350 . S
C2236 C2235 1.434 . S
C2237 C2238 1.369 . S
C2237 C2239 1.419 . S
C2237 H2241 0.930 . S
C2238 C2237 1.369 . S
C2238 C2247 1.429 . S
C2239 C2237 1.419 . S
C2239 C2240 1.363 . S
C2239 H2242 0.929 . S
C2240 C2239 1.363 . S
C2240 C2246 1.428 . S
H2241 C2237 0.930 . S
H2242 C2239 0.929 . S
S2243 N2244 1.613 . S
S2243 N2245 1.610 . S
N2244 S2243 1.613 . S
N2244 C2247 1.350 . S
N2245 S2243 1.610 . S
N2245 C2246 1.351 . S
C2246 C2240 1.428 . S
C2246 N2245 1.351 . S
C2246 C2247 1.434 . S
C2247 C2238 1.429 . S
C2247 N2244 1.350 . S
C2247 C2246 1.434 . S
C2248 C2249 1.369 1_545 S
C2248 C2250 1.419 . S
C2248 H2252 0.930 . S
C2249 C2248 1.369 1_565 S
C2249 C2258 1.429 . S
C2250 C2248 1.419 . S
C2250 C2251 1.363 . S
C2250 H2253 0.929 . S
C2251 C2250 1.363 . S
C2251 C2257 1.445 . S
H2252 C2248 0.930 . S
H2253 C2250 0.929 . S
S2254 N2255 1.613 . S
S2254 N2256 1.610 . S
N2255 S2254 1.613 . S
N2255 C2258 1.350 . S
N2256 S2254 1.610 . S
N2256 C2257 1.343 1_565 S
C2257 C2251 1.445 . S
C2257 N2256 1.343 1_545 S
C2257 C2258 1.423 1_545 S
C2258 C2249 1.429 . S
C2258 N2255 1.350 . S
C2258 C2257 1.423 1_565 S
C2259 C2260 1.369 . S
C2259 C2261 1.419 . S
C2259 H2263 0.930 . S
C2260 C2259 1.369 . S
C2260 C2269 1.429 . S
C2261 C2259 1.419 . S
C2261 C2262 1.363 . S
C2261 H2264 0.929 . S
C2262 C2261 1.363 . S
C2262 C2268 1.428 . S
H2263 C2259 0.930 . S
H2264 C2261 0.929 . S
S2265 N2266 1.613 . S
S2265 N2267 1.610 . S
N2266 S2265 1.613 . S
N2266 C2269 1.350 . S
N2267 S2265 1.610 . S
N2267 C2268 1.351 . S
C2268 C2262 1.428 . S
C2268 N2267 1.351 . S
C2268 C2269 1.434 . S
C2269 C2260 1.429 . S
C2269 N2266 1.350 . S
C2269 C2268 1.434 . S
C2270 C2271 1.369 . S
C2270 C2272 1.419 . S
C2270 H2274 0.930 . S
C2271 C2270 1.369 . S
C2271 C2280 1.429 1_545 S
C2272 C2270 1.419 . S
C2272 C2273 1.363 1_545 S
C2272 H2275 0.929 . S
C2273 C2272 1.363 1_565 S
C2273 C2279 1.428 . S
H2274 C2270 0.930 . S
H2275 C2272 0.929 . S
S2276 N2277 1.613 . S
S2276 N2278 1.610 1_554 S
N2277 S2276 1.613 . S
N2277 C2280 1.350 1_554 S
N2278 S2276 1.610 1_556 S
N2278 C2279 1.351 . S
C2279 C2273 1.428 . S
C2279 N2278 1.351 . S
C2279 C2280 1.434 . S
C2280 C2271 1.429 1_565 S
C2280 N2277 1.350 1_556 S
C2280 C2279 1.434 . S
C2281 C2282 1.369 . S
C2281 C2283 1.419 . S
C2281 H2285 0.930 . S
C2282 C2281 1.369 . S
C2282 C2291 1.429 . S
C2283 C2281 1.419 . S
C2283 C2284 1.363 . S
C2283 H2286 0.929 . S
C2284 C2283 1.363 . S
C2284 C2290 1.428 . S
H2285 C2281 0.930 . S
H2286 C2283 0.929 . S
S2287 N2288 1.613 . S
S2287 N2289 1.610 . S
N2288 S2287 1.613 . S
N2288 C2291 1.350 . S
N2289 S2287 1.610 . S
N2289 C2290 1.351 . S
C2290 C2284 1.428 . S
C2290 N2289 1.351 . S
C2290 C2291 1.434 . S
C2291 C2282 1.429 . S
C2291 N2288 1.350 . S
C2291 C2290 1.434 . S
C2292 C2293 1.369 . S
C2292 C2294 1.419 . S
C2292 H2296 0.930 . S
C2293 C2292 1.369 . S
C2293 C2302 1.429 . S
C2294 C2292 1.419 . S
C2294 C2295 1.363 1_565 S
C2294 H2297 0.929 1_565 S
C2295 C2294 1.363 1_545 S
C2295 C2301 1.428 1_545 S
H2296 C2292 0.930 . S
H2297 C2294 0.929 1_545 S
S2298 N2299 1.613 . S
S2298 N2300 1.610 . S
N2299 S2298 1.613 . S
N2299 C2302 1.350 . S
N2300 S2298 1.610 . S
N2300 C2301 1.351 . S
C2301 C2295 1.428 1_565 S
C2301 N2300 1.351 . S
C2301 C2302 1.434 . S
C2302 C2293 1.429 . S
C2302 N2299 1.350 . S
C2302 C2301 1.434 . S
C2303 C2304 1.369 . S
C2303 C2305 1.419 . S
C2303 H2307 0.930 . S
C2304 C2303 1.369 . S
C2304 C2313 1.429 . S
C2305 C2303 1.419 . S
C2305 C2306 1.363 . S
C2305 H2308 0.929 . S
C2306 C2305 1.363 . S
C2306 C2312 1.428 . S
H2307 C2303 0.930 . S
H2308 C2305 0.929 . S
S2309 N2310 1.613 . S
S2309 N2311 1.610 . S
N2310 S2309 1.613 . S
N2310 C2313 1.350 . S
N2311 S2309 1.610 . S
N2311 C2312 1.351 . S
C2312 C2306 1.428 . S
C2312 N2311 1.351 . S
C2312 C2313 1.434 . S
C2313 C2304 1.429 . S
C2313 N2310 1.350 . S
C2313 C2312 1.434 . S
C2314 C2315 1.384 . S
C2314 C2316 1.406 1_565 S
C2314 H2318 0.929 . S
C2315 C2314 1.384 . S
C2315 C2324 1.429 . S
C2316 C2314 1.406 1_545 S
C2316 C2317 1.363 . S
C2316 H2319 0.929 . S
C2317 C2316 1.363 . S
C2317 C2323 1.431 . S
H2318 C2314 0.929 . S
H2319 C2316 0.929 . S
S2320 N2321 1.613 . S
S2320 N2322 1.610 . S
N2321 S2320 1.613 . S
N2321 C2324 1.350 . S
N2322 S2320 1.610 . S
N2322 C2323 1.351 1_565 S
C2323 C2317 1.431 . S
C2323 N2322 1.351 1_545 S
C2323 C2324 1.432 1_545 S
C2324 C2315 1.429 . S
C2324 N2321 1.350 . S
C2324 C2323 1.432 1_565 S
C2325 C2326 1.369 . S
C2325 C2327 1.419 . S
C2325 H2329 0.930 . S
C2326 C2325 1.369 . S
C2326 C2335 1.429 . S
C2327 C2325 1.419 . S
C2327 C2328 1.363 . S
C2327 H2330 0.929 . S
C2328 C2327 1.363 . S
C2328 C2334 1.428 . S
H2329 C2325 0.930 . S
H2330 C2327 0.929 . S
S2331 N2332 1.613 . S
S2331 N2333 1.610 . S
N2332 S2331 1.613 . S
N2332 C2335 1.350 . S
N2333 S2331 1.610 . S
N2333 C2334 1.351 . S
C2334 C2328 1.428 . S
C2334 N2333 1.351 . S
C2334 C2335 1.434 . S
C2335 C2326 1.429 . S
C2335 N2332 1.350 . S
C2335 C2334 1.434 . S
C1281 C17 0.469 . S
C1283 C173 0.137 . S
C1292 C217 0.643 . S
C1294 C57 0.416 . S
C1303 C97 0.537 . S
C1305 C257 0.429 . S
C1314 C297 0.506 . S
C1316 C137 0.505 . S
C1325 C346 0.466 . S
C1327 C504 0.134 . S
C1336 C386 0.416 . S
C1338 C546 0.642 . S
C1347 C586 0.429 . S
C1349 C426 0.522 . S
C1358 C466 0.530 . S
C1360 C626 0.490 . S
C1369 C813 0.151 . S
C1371 C657 0.451 . S
C1380 C697 0.425 . S
C1382 C857 0.630 . S
C1391 C737 0.517 . S
C1393 C897 0.441 . S
C1402 C777 0.529 . S
C1404 C937 0.489 . S
C1413 C986 0.459 . S
C1415 C1144 0.147 . S
C1424 C1186 0.626 . S
C1426 C1026 0.422 . S
C1435 C1066 0.529 . S
C1437 C1226 0.428 . S
C1446 C1266 0.506 . S
C1448 C1106 0.504 . S
C1457 C842 2.156 . S
C1459 C2 2.150 . S
C1468 C882 3.066 . S
C1470 C42 3.062 . S
C1479 C922 2.382 . S
C1481 C82 2.389 . S
C1490 C122 3.092 1_554 S
C1492 C823 3.075 . S
C1501 C183 3.080 . S
C1503 C762 3.086 . S
C1512 C642 2.145 . S
C1514 C202 2.134 1_556 S
C1523 C242 3.063 . S
C1525 C682 3.067 . S
C1534 C282 2.374 . S
C1536 C722 2.394 . S
C1545 C343 2.127 1_556 S
C1547 C1183 2.156 . S
C1556 C1223 3.063 . S
C1558 C383 3.064 . S
C1567 C1263 2.374 . S
C1569 C423 2.395 . S
C1578 C463 3.084 . S
C1580 C1122 3.081 . S
C1589 C482 3.079 . S
C1591 C1103 3.087 . S
C1600 C543 2.148 . S
C1602 C983 2.150 . S
C1611 C583 3.062 . S
C1613 C1023 3.067 . S
C1622 C623 2.383 . S
C1624 C1063 2.388 . S
C1633 C322 1.700 . S
C1635 C23 1.697 . S
C1644 C63 1.696 . S
C1646 C1002 1.683 . S
C1655 C402 1.621 . S
C1657 C103 1.621 . S
C1666 C143 1.702 . S
C1668 C1082 1.714 . S
C1677 C503 1.703 . S
C1679 C162 1.710 . S
C1688 C1162 1.744 . S
C1690 C223 1.755 . S
C1699 C263 1.700 . S
C1701 C562 1.698 . S
C1710 C303 1.625 . S
C1712 C1242 1.635 . S
C1721 C703 1.689 . S
C1723 C362 1.687 . S
C1732 C783 1.715 . S
C1734 C442 1.703 . S
C1743 C522 1.748 . S
C1745 C863 1.752 . S
C1754 C943 1.628 . S
C1756 C602 1.632 . S
C1765 C962 1.701 . S
C1767 C663 1.696 . S
C1776 C1042 1.624 . S
C1778 C743 1.620 . S
C1787 C1143 1.705 . S
C1789 C802 1.708 . S
C1798 C903 1.705 . S
C1800 C1202 1.694 . S
C1809 C26 0.775 1_556 S
C1811 C497 0.791 . S
C1820 C1173 1.867 . S
C1822 C66 1.674 . S
C1831 C573 1.513 . S
C1833 C106 1.342 . S
C1842 C146 1.603 . S
C1844 C1253 1.774 . S
C1853 C333 2.393 1_556 S
C1855 C184 2.270 . S
C1864 C1013 1.548 . S
C1866 C226 1.379 . S
C1875 C413 1.864 . S
C1877 C266 1.655 . S
C1886 C1093 1.473 . S
C1888 C306 1.309 . S
C1897 C186 0.797 . S
C1899 C337 0.788 . S
C1908 C864 1.866 . S
C1910 C377 1.674 . S
C1919 C264 1.513 . S
C1921 C417 1.352 1_554 S
C1930 C457 1.597 . S
C1932 C944 1.773 . S
C1941 C24 2.393 . S
C1943 C493 2.270 . S
C1952 C704 1.548 . S
C1954 C537 1.370 . S
C1963 C577 1.657 . S
C1965 C104 1.864 . S
C1974 C617 1.306 . S
C1976 C784 1.472 . S
C1985 C1137 0.797 . S
C1987 C666 0.789 . S
C1996 C533 1.868 . S
C1998 C706 1.679 . S
C2007 C746 1.340 1_455 S
C2009 C1213 1.513 . S
C2018 C613 1.775 1_554 S
C2020 C786 1.599 . S
C2029 C824 2.274 . S
C2031 C973 2.391 . S
C2040 C866 1.370 . S
C2042 C373 1.548 . S
C2051 C1053 1.862 . S
C2053 C906 1.665 1_554 S
C2062 C453 1.473 . S
C2064 C946 1.309 . S
C2073 C977 0.771 . S
C2075 C826 0.792 . S
C2084 C1017 1.676 . S
C2086 C224 1.864 . S
C2095 C1057 1.354 1_655 S
C2097 C904 1.511 . S
C2106 C1097 1.597 . S
C2108 C304 1.776 . S
C2117 C664 2.391 . S
C2119 C1133 2.270 1_556 S
C2128 C64 1.545 . S
C2130 C1177 1.375 . S
C2139 C1217 1.663 . S
C2141 C744 1.864 . S
C2150 C144 1.471 1_554 S
C2152 C1257 1.316 . S
C2161 C177 2.320 1_554 S
C2163 C13 2.441 . S
C2172 C213 3.284 . S
C2174 C53 3.264 . S
C2183 C93 3.259 . S
C2185 C253 3.239 . S
C2194 C293 3.265 . S
C2196 C133 3.238 . S
C2205 C506 2.317 . S
C2207 C344 2.441 . S
C2216 C384 3.264 . S
C2218 C544 3.282 . S
C2227 C424 3.260 . S
C2229 C584 3.238 1_556 S
C2238 C624 3.265 . S
C2240 C464 3.240 . S
C2249 C653 2.442 . S
C2251 C817 2.318 . S
C2260 C853 3.284 . S
C2262 C693 3.264 . S
C2271 C733 3.258 1_556 S
C2273 C893 3.238 . S
C2282 C773 3.238 . S
C2284 C933 3.267 . S
C2293 C1146 2.323 . S
C2295 C984 2.442 . S
C2304 C1184 3.282 . S
C2306 C1024 3.265 . S
C2315 C1064 3.258 . S
C2317 C1224 3.236 . S
C2326 C1264 3.265 . S
C2328 C1104 3.238 . S
