# Generated by pormake.
# Topology ana, (4)-cn, num edge types: 1
# Building blocks:
#     Node 0, Type 0, BuildingBlock: NAHDIM_clean_sbu_0, # of connection points: 4
#     Node 1, Type 0, BuildingBlock: NAHDIM_clean_sbu_0, # of connection points: 4
#     Node 2, Type 0, BuildingBlock: NAHDIM_clean_sbu_0, # of connection points: 4
#     Node 3, Type 0, BuildingBlock: NAHDIM_clean_sbu_0, # of connection points: 4
#     Node 4, Type 0, BuildingBlock: NAHDIM_clean_sbu_0, # of connection points: 4
#     Node 5, Type 0, BuildingBlock: NAHDIM_clean_sbu_0, # of connection points: 4
#     Node 6, Type 0, BuildingBlock: NAHDIM_clean_sbu_0, # of connection points: 4
#     Node 7, Type 0, BuildingBlock: NAHDIM_clean_sbu_0, # of connection points: 4
#     Node 8, Type 0, BuildingBlock: NAHDIM_clean_sbu_0, # of connection points: 4
#     Node 9, Type 0, BuildingBlock: NAHDIM_clean_sbu_0, # of connection points: 4
#     Node 10, Type 0, BuildingBlock: NAHDIM_clean_sbu_0, # of connection points: 4
#     Node 11, Type 0, BuildingBlock: NAHDIM_clean_sbu_0, # of connection points: 4
#     Node 12, Type 0, BuildingBlock: NAHDIM_clean_sbu_0, # of connection points: 4
#     Node 13, Type 0, BuildingBlock: NAHDIM_clean_sbu_0, # of connection points: 4
#     Node 14, Type 0, BuildingBlock: NAHDIM_clean_sbu_0, # of connection points: 4
#     Node 15, Type 0, BuildingBlock: NAHDIM_clean_sbu_0, # of connection points: 4
#     Node 16, Type 0, BuildingBlock: NAHDIM_clean_sbu_0, # of connection points: 4
#     Node 17, Type 0, BuildingBlock: NAHDIM_clean_sbu_0, # of connection points: 4
#     Node 18, Type 0, BuildingBlock: NAHDIM_clean_sbu_0, # of connection points: 4
#     Node 19, Type 0, BuildingBlock: NAHDIM_clean_sbu_0, # of connection points: 4
#     Node 20, Type 0, BuildingBlock: NAHDIM_clean_sbu_0, # of connection points: 4
#     Node 21, Type 0, BuildingBlock: NAHDIM_clean_sbu_0, # of connection points: 4
#     Node 22, Type 0, BuildingBlock: NAHDIM_clean_sbu_0, # of connection points: 4
#     Node 23, Type 0, BuildingBlock: NAHDIM_clean_sbu_0, # of connection points: 4
#     Node 24, Type 0, BuildingBlock: NAHDIM_clean_sbu_0, # of connection points: 4
#     Node 25, Type 0, BuildingBlock: NAHDIM_clean_sbu_0, # of connection points: 4
#     Node 26, Type 0, BuildingBlock: NAHDIM_clean_sbu_0, # of connection points: 4
#     Node 27, Type 0, BuildingBlock: NAHDIM_clean_sbu_0, # of connection points: 4
#     Node 28, Type 0, BuildingBlock: NAHDIM_clean_sbu_0, # of connection points: 4
#     Node 29, Type 0, BuildingBlock: NAHDIM_clean_sbu_0, # of connection points: 4
#     Node 30, Type 0, BuildingBlock: NAHDIM_clean_sbu_0, # of connection points: 4
#     Node 31, Type 0, BuildingBlock: NAHDIM_clean_sbu_0, # of connection points: 4
#     Node 32, Type 0, BuildingBlock: NAHDIM_clean_sbu_0, # of connection points: 4
#     Node 33, Type 0, BuildingBlock: NAHDIM_clean_sbu_0, # of connection points: 4
#     Node 34, Type 0, BuildingBlock: NAHDIM_clean_sbu_0, # of connection points: 4
#     Node 35, Type 0, BuildingBlock: NAHDIM_clean_sbu_0, # of connection points: 4
#     Node 36, Type 0, BuildingBlock: NAHDIM_clean_sbu_0, # of connection points: 4
#     Node 37, Type 0, BuildingBlock: NAHDIM_clean_sbu_0, # of connection points: 4
#     Node 38, Type 0, BuildingBlock: NAHDIM_clean_sbu_0, # of connection points: 4
#     Node 39, Type 0, BuildingBlock: NAHDIM_clean_sbu_0, # of connection points: 4
#     Node 40, Type 0, BuildingBlock: NAHDIM_clean_sbu_0, # of connection points: 4
#     Node 41, Type 0, BuildingBlock: NAHDIM_clean_sbu_0, # of connection points: 4
#     Node 42, Type 0, BuildingBlock: NAHDIM_clean_sbu_0, # of connection points: 4
#     Node 43, Type 0, BuildingBlock: NAHDIM_clean_sbu_0, # of connection points: 4
#     Node 44, Type 0, BuildingBlock: NAHDIM_clean_sbu_0, # of connection points: 4
#     Node 45, Type 0, BuildingBlock: NAHDIM_clean_sbu_0, # of connection points: 4
#     Node 46, Type 0, BuildingBlock: NAHDIM_clean_sbu_0, # of connection points: 4
#     Node 47, Type 0, BuildingBlock: NAHDIM_clean_sbu_0, # of connection points: 4
#     Edge 48, Type (0, 0), BuildingBlock: CIFDUS_clean_linker_0, # of connection points: 2
#     Edge 49, Type (0, 0), BuildingBlock: CIFDUS_clean_linker_0, # of connection points: 2
#     Edge 50, Type (0, 0), BuildingBlock: CIFDUS_clean_linker_0, # of connection points: 2
#     Edge 51, Type (0, 0), BuildingBlock: CIFDUS_clean_linker_0, # of connection points: 2
#     Edge 52, Type (0, 0), BuildingBlock: CIFDUS_clean_linker_0, # of connection points: 2
#     Edge 53, Type (0, 0), BuildingBlock: CIFDUS_clean_linker_0, # of connection points: 2
#     Edge 54, Type (0, 0), BuildingBlock: CIFDUS_clean_linker_0, # of connection points: 2
#     Edge 55, Type (0, 0), BuildingBlock: CIFDUS_clean_linker_0, # of connection points: 2
#     Edge 56, Type (0, 0), BuildingBlock: CIFDUS_clean_linker_0, # of connection points: 2
#     Edge 57, Type (0, 0), BuildingBlock: CIFDUS_clean_linker_0, # of connection points: 2
#     Edge 58, Type (0, 0), BuildingBlock: CIFDUS_clean_linker_0, # of connection points: 2
#     Edge 59, Type (0, 0), BuildingBlock: CIFDUS_clean_linker_0, # of connection points: 2
#     Edge 60, Type (0, 0), BuildingBlock: CIFDUS_clean_linker_0, # of connection points: 2
#     Edge 61, Type (0, 0), BuildingBlock: CIFDUS_clean_linker_0, # of connection points: 2
#     Edge 62, Type (0, 0), BuildingBlock: CIFDUS_clean_linker_0, # of connection points: 2
#     Edge 63, Type (0, 0), BuildingBlock: CIFDUS_clean_linker_0, # of connection points: 2
#     Edge 64, Type (0, 0), BuildingBlock: CIFDUS_clean_linker_0, # of connection points: 2
#     Edge 65, Type (0, 0), BuildingBlock: CIFDUS_clean_linker_0, # of connection points: 2
#     Edge 66, Type (0, 0), BuildingBlock: CIFDUS_clean_linker_0, # of connection points: 2
#     Edge 67, Type (0, 0), BuildingBlock: CIFDUS_clean_linker_0, # of connection points: 2
#     Edge 68, Type (0, 0), BuildingBlock: CIFDUS_clean_linker_0, # of connection points: 2
#     Edge 69, Type (0, 0), BuildingBlock: CIFDUS_clean_linker_0, # of connection points: 2
#     Edge 70, Type (0, 0), BuildingBlock: CIFDUS_clean_linker_0, # of connection points: 2
#     Edge 71, Type (0, 0), BuildingBlock: CIFDUS_clean_linker_0, # of connection points: 2
#     Edge 72, Type (0, 0), BuildingBlock: CIFDUS_clean_linker_0, # of connection points: 2
#     Edge 73, Type (0, 0), BuildingBlock: CIFDUS_clean_linker_0, # of connection points: 2
#     Edge 74, Type (0, 0), BuildingBlock: CIFDUS_clean_linker_0, # of connection points: 2
#     Edge 75, Type (0, 0), BuildingBlock: CIFDUS_clean_linker_0, # of connection points: 2
#     Edge 76, Type (0, 0), BuildingBlock: CIFDUS_clean_linker_0, # of connection points: 2
#     Edge 77, Type (0, 0), BuildingBlock: CIFDUS_clean_linker_0, # of connection points: 2
#     Edge 78, Type (0, 0), BuildingBlock: CIFDUS_clean_linker_0, # of connection points: 2
#     Edge 79, Type (0, 0), BuildingBlock: CIFDUS_clean_linker_0, # of connection points: 2
#     Edge 80, Type (0, 0), BuildingBlock: CIFDUS_clean_linker_0, # of connection points: 2
#     Edge 81, Type (0, 0), BuildingBlock: CIFDUS_clean_linker_0, # of connection points: 2
#     Edge 82, Type (0, 0), BuildingBlock: CIFDUS_clean_linker_0, # of connection points: 2
#     Edge 83, Type (0, 0), BuildingBlock: CIFDUS_clean_linker_0, # of connection points: 2
#     Edge 84, Type (0, 0), BuildingBlock: CIFDUS_clean_linker_0, # of connection points: 2
#     Edge 85, Type (0, 0), BuildingBlock: CIFDUS_clean_linker_0, # of connection points: 2
#     Edge 86, Type (0, 0), BuildingBlock: CIFDUS_clean_linker_0, # of connection points: 2
#     Edge 87, Type (0, 0), BuildingBlock: CIFDUS_clean_linker_0, # of connection points: 2
#     Edge 88, Type (0, 0), BuildingBlock: CIFDUS_clean_linker_0, # of connection points: 2
#     Edge 89, Type (0, 0), BuildingBlock: CIFDUS_clean_linker_0, # of connection points: 2
#     Edge 90, Type (0, 0), BuildingBlock: CIFDUS_clean_linker_0, # of connection points: 2
#     Edge 91, Type (0, 0), BuildingBlock: CIFDUS_clean_linker_0, # of connection points: 2
#     Edge 92, Type (0, 0), BuildingBlock: CIFDUS_clean_linker_0, # of connection points: 2
#     Edge 93, Type (0, 0), BuildingBlock: CIFDUS_clean_linker_0, # of connection points: 2
#     Edge 94, Type (0, 0), BuildingBlock: CIFDUS_clean_linker_0, # of connection points: 2
#     Edge 95, Type (0, 0), BuildingBlock: CIFDUS_clean_linker_0, # of connection points: 2
#     Edge 96, Type (0, 0), BuildingBlock: CIFDUS_clean_linker_0, # of connection points: 2
#     Edge 97, Type (0, 0), BuildingBlock: CIFDUS_clean_linker_0, # of connection points: 2
#     Edge 98, Type (0, 0), BuildingBlock: CIFDUS_clean_linker_0, # of connection points: 2
#     Edge 99, Type (0, 0), BuildingBlock: CIFDUS_clean_linker_0, # of connection points: 2
#     Edge 100, Type (0, 0), BuildingBlock: CIFDUS_clean_linker_0, # of connection points: 2
#     Edge 101, Type (0, 0), BuildingBlock: CIFDUS_clean_linker_0, # of connection points: 2
#     Edge 102, Type (0, 0), BuildingBlock: CIFDUS_clean_linker_0, # of connection points: 2
#     Edge 103, Type (0, 0), BuildingBlock: CIFDUS_clean_linker_0, # of connection points: 2
#     Edge 104, Type (0, 0), BuildingBlock: CIFDUS_clean_linker_0, # of connection points: 2
#     Edge 105, Type (0, 0), BuildingBlock: CIFDUS_clean_linker_0, # of connection points: 2
#     Edge 106, Type (0, 0), BuildingBlock: CIFDUS_clean_linker_0, # of connection points: 2
#     Edge 107, Type (0, 0), BuildingBlock: CIFDUS_clean_linker_0, # of connection points: 2
#     Edge 108, Type (0, 0), BuildingBlock: CIFDUS_clean_linker_0, # of connection points: 2
#     Edge 109, Type (0, 0), BuildingBlock: CIFDUS_clean_linker_0, # of connection points: 2
#     Edge 110, Type (0, 0), BuildingBlock: CIFDUS_clean_linker_0, # of connection points: 2
#     Edge 111, Type (0, 0), BuildingBlock: CIFDUS_clean_linker_0, # of connection points: 2
#     Edge 112, Type (0, 0), BuildingBlock: CIFDUS_clean_linker_0, # of connection points: 2
#     Edge 113, Type (0, 0), BuildingBlock: CIFDUS_clean_linker_0, # of connection points: 2
#     Edge 114, Type (0, 0), BuildingBlock: CIFDUS_clean_linker_0, # of connection points: 2
#     Edge 115, Type (0, 0), BuildingBlock: CIFDUS_clean_linker_0, # of connection points: 2
#     Edge 116, Type (0, 0), BuildingBlock: CIFDUS_clean_linker_0, # of connection points: 2
#     Edge 117, Type (0, 0), BuildingBlock: CIFDUS_clean_linker_0, # of connection points: 2
#     Edge 118, Type (0, 0), BuildingBlock: CIFDUS_clean_linker_0, # of connection points: 2
#     Edge 119, Type (0, 0), BuildingBlock: CIFDUS_clean_linker_0, # of connection points: 2
#     Edge 120, Type (0, 0), BuildingBlock: CIFDUS_clean_linker_0, # of connection points: 2
#     Edge 121, Type (0, 0), BuildingBlock: CIFDUS_clean_linker_0, # of connection points: 2
#     Edge 122, Type (0, 0), BuildingBlock: CIFDUS_clean_linker_0, # of connection points: 2
#     Edge 123, Type (0, 0), BuildingBlock: CIFDUS_clean_linker_0, # of connection points: 2
#     Edge 124, Type (0, 0), BuildingBlock: CIFDUS_clean_linker_0, # of connection points: 2
#     Edge 125, Type (0, 0), BuildingBlock: CIFDUS_clean_linker_0, # of connection points: 2
#     Edge 126, Type (0, 0), BuildingBlock: CIFDUS_clean_linker_0, # of connection points: 2
#     Edge 127, Type (0, 0), BuildingBlock: CIFDUS_clean_linker_0, # of connection points: 2
#     Edge 128, Type (0, 0), BuildingBlock: CIFDUS_clean_linker_0, # of connection points: 2
#     Edge 129, Type (0, 0), BuildingBlock: CIFDUS_clean_linker_0, # of connection points: 2
#     Edge 130, Type (0, 0), BuildingBlock: CIFDUS_clean_linker_0, # of connection points: 2
#     Edge 131, Type (0, 0), BuildingBlock: CIFDUS_clean_linker_0, # of connection points: 2
#     Edge 132, Type (0, 0), BuildingBlock: CIFDUS_clean_linker_0, # of connection points: 2
#     Edge 133, Type (0, 0), BuildingBlock: CIFDUS_clean_linker_0, # of connection points: 2
#     Edge 134, Type (0, 0), BuildingBlock: CIFDUS_clean_linker_0, # of connection points: 2
#     Edge 135, Type (0, 0), BuildingBlock: CIFDUS_clean_linker_0, # of connection points: 2
#     Edge 136, Type (0, 0), BuildingBlock: CIFDUS_clean_linker_0, # of connection points: 2
#     Edge 137, Type (0, 0), BuildingBlock: CIFDUS_clean_linker_0, # of connection points: 2
#     Edge 138, Type (0, 0), BuildingBlock: CIFDUS_clean_linker_0, # of connection points: 2
#     Edge 139, Type (0, 0), BuildingBlock: CIFDUS_clean_linker_0, # of connection points: 2
#     Edge 140, Type (0, 0), BuildingBlock: CIFDUS_clean_linker_0, # of connection points: 2
#     Edge 141, Type (0, 0), BuildingBlock: CIFDUS_clean_linker_0, # of connection points: 2
#     Edge 142, Type (0, 0), BuildingBlock: CIFDUS_clean_linker_0, # of connection points: 2
#     Edge 143, Type (0, 0), BuildingBlock: CIFDUS_clean_linker_0, # of connection points: 2
# Relax obj value: 0.186
# Max RMSD: 0.213
# Mean RMSD: 0.197
data_MOF--net-ana--node1-NAHDIM_clean_sbu_0--edge1-CIFDUS_clean_linker_0
_symmetry_space_group_name_H-M    P1
_symmetry_Int_Tables_number       1
_symmetry_cell_setting            triclinic
loop_
_symmetry_equiv_pos_as_xyz
'x, y, z'
_cell_length_a     57.649314
_cell_length_b     55.236444
_cell_length_c     55.166156
_cell_angle_alpha  90.066975
_cell_angle_beta   90.092279
_cell_angle_gamma 90.647766
loop_
_atom_site_label
_atom_site_type_symbol
_atom_site_fract_x
_atom_site_fract_y
_atom_site_fract_z
_atom_type_partial_charge
C0 C 0.13156 0.18495 0.34832 0.0
O1 O 0.14284 0.17128 0.33291 0.0
O2 O 0.16305 0.13208 0.36516 0.0
Zn3 Zn 0.13116 0.14125 0.37583 0.0
O4 O 0.10616 0.12243 0.3587 0.0
C5 C 0.14149 0.14459 0.4272 0.0
O6 O 0.15848 0.15893 0.42006 0.0
O7 O 0.12546 0.17614 0.36861 0.0
C8 C 0.09621 0.10429 0.3685 0.0
O9 O 0.10422 0.09602 0.38917 0.0
C10 C 0.16754 0.11271 0.35376 0.0
O11 O 0.15054 0.0977 0.34808 0.0
O12 O 0.12787 0.13541 0.41152 0.0
C13 C 0.10806 0.88711 0.69032 0.0
O14 O 0.12127 0.89721 0.67371 0.0
O15 O 0.0933 0.85386 0.62962 0.0
Zn16 Zn 0.07999 0.8816 0.64856 0.0
O17 O 0.09103 0.9141 0.63649 0.0
C18 C 0.04068 0.88036 0.62006 0.0
O19 O 0.05764 0.88344 0.60443 0.0
O20 O 0.08833 0.87859 0.6841 0.0
C21 C 0.10719 0.91805 0.62133 0.0
O22 O 0.1182 0.89971 0.61171 0.0
C23 C 0.11331 0.84459 0.63119 0.0
O24 O 0.12868 0.85399 0.64616 0.0
O25 O 0.04561 0.87953 0.64252 0.0
C26 C 0.36353 0.80562 0.89226 0.0
O27 O 0.34268 0.814 0.89646 0.0
O28 O 0.34944 0.86892 0.88562 0.0
Zn29 Zn 0.38002 0.85607 0.897 0.0
O30 O 0.40703 0.87048 0.87871 0.0
C31 C 0.37607 0.85233 0.9495 0.0
O32 O 0.36404 0.83256 0.94471 0.0
O33 O 0.38087 0.82003 0.89246 0.0
C34 C 0.41648 0.85898 0.86143 0.0
O35 O 0.40703 0.83854 0.85397 0.0
C36 C 0.34181 0.86591 0.86419 0.0
O37 O 0.3547 0.85465 0.84822 0.0
O38 O 0.38436 0.86475 0.93212 0.0
C39 C 0.42759 0.13351 0.20976 0.0
O40 O 0.43323 0.15555 0.20283 0.0
O41 O 0.40628 0.14717 0.14653 0.0
Zn42 Zn 0.42816 0.12138 0.15802 0.0
O43 O 0.42075 0.08915 0.14271 0.0
C44 C 0.46293 0.1455 0.13078 0.0
O45 O 0.44476 0.1495 0.11701 0.0
O46 O 0.42506 0.11695 0.19394 0.0
C47 C 0.40113 0.08458 0.13311 0.0
O48 O 0.38581 0.10193 0.1315 0.0
C49 C 0.38917 0.15569 0.1581 0.0
O50 O 0.38364 0.14662 0.17934 0.0
O51 O 0.46051 0.13259 0.14969 0.0
C52 C 0.11191 0.8656 0.04479 0.0
O53 O 0.09106 0.86962 0.05336 0.0
O54 O 0.09377 0.87051 0.1058 0.0
Zn55 Zn 0.12406 0.85617 0.09532 0.0
O56 O 0.15158 0.87214 0.11141 0.0
C57 C 0.14043 0.80784 0.10813 0.0
O58 O 0.16124 0.81778 0.10815 0.0
O59 O 0.12806 0.85972 0.05927 0.0
C60 C 0.15751 0.86981 0.13348 0.0
O61 O 0.1444 0.85687 0.14812 0.0
C62 C 0.0843 0.86342 0.12537 0.0
O63 O 0.09542 0.84819 0.13934 0.0
O64 O 0.12292 0.8207 0.10316 0.0
C65 C 0.41181 0.84449 0.36899 0.0
O66 O 0.39913 0.86376 0.37263 0.0
O67 O 0.35258 0.84959 0.37574 0.0
Zn68 Zn 0.36731 0.82139 0.35872 0.0
O69 O 0.35819 0.78933 0.37289 0.0
C70 C 0.36946 0.838 0.30983 0.0
O71 O 0.38419 0.85332 0.31986 0.0
O72 O 0.40197 0.82471 0.36275 0.0
C73 C 0.34134 0.7763 0.36541 0.0
O74 O 0.3275 0.78476 0.34856 0.0
C75 C 0.3372 0.86222 0.36539 0.0
O76 O 0.32845 0.85475 0.34466 0.0
O77 O 0.35973 0.82202 0.32301 0.0
C78 C 0.38008 0.10735 0.54298 0.0
O79 O 0.36172 0.11919 0.5503 0.0
O80 O 0.4168 0.1035 0.61392 0.0
Zn81 Zn 0.38936 0.11161 0.59297 0.0
O82 O 0.36009 0.09462 0.60333 0.0
C83 C 0.36558 0.15829 0.59746 0.0
O84 O 0.3463 0.14541 0.59725 0.0
O85 O 0.39556 0.10202 0.55842 0.0
C86 C 0.3503 0.09717 0.62377 0.0
O87 O 0.36059 0.1103 0.64059 0.0
C88 C 0.42142 0.1169 0.6321 0.0
O89 O 0.40705 0.13426 0.63786 0.0
O90 O 0.38494 0.14777 0.59493 0.0
C91 C 0.05151 0.11932 0.83826 0.0
O92 O 0.06201 0.09845 0.84031 0.0
O93 O 0.10973 0.10515 0.83763 0.0
Zn94 Zn 0.09781 0.13749 0.82731 0.0
O95 O 0.11214 0.16537 0.84539 0.0
C96 C 0.09344 0.12934 0.77629 0.0
O97 O 0.07676 0.11468 0.78358 0.0
O98 O 0.06325 0.13811 0.83261 0.0
C99 C 0.13229 0.17352 0.84051 0.0
O100 O 0.14503 0.16211 0.82451 0.0
C101 C 0.12666 0.09962 0.85121 0.0
O102 O 0.13957 0.11679 0.86097 0.0
O103 O 0.10475 0.14153 0.79194 0.0
C104 C 0.17752 0.37581 0.1373 0.0
O105 O 0.15876 0.36219 0.13865 0.0
O106 O 0.12227 0.40377 0.15063 0.0
Zn107 Zn 0.14419 0.41097 0.12347 0.0
O108 O 0.13321 0.39591 0.09241 0.0
C109 C 0.12749 0.45749 0.11287 0.0
O110 O 0.10902 0.4442 0.10792 0.0
O111 O 0.17562 0.39792 0.13137 0.0
C112 C 0.14377 0.40261 0.07336 0.0
O113 O 0.16064 0.41871 0.07523 0.0
C114 C 0.10877 0.38548 0.15174 0.0
O115 O 0.10855 0.3696 0.13399 0.0
O116 O 0.14587 0.44704 0.11972 0.0
C117 C 0.63417 0.06679 0.89224 0.0
O118 O 0.6187 0.08358 0.88811 0.0
O119 O 0.64996 0.12652 0.92046 0.0
Zn120 Zn 0.66288 0.10846 0.89219 0.0
O121 O 0.65027 0.12035 0.86055 0.0
C122 C 0.70402 0.13559 0.89702 0.0
O123 O 0.68836 0.15246 0.89981 0.0
O124 O 0.65524 0.0731 0.89517 0.0
C125 C 0.66143 0.11371 0.84191 0.0
O126 O 0.68007 0.10054 0.8448 0.0
C127 C 0.63029 0.13635 0.92282 0.0
O128 O 0.61494 0.13473 0.90526 0.0
O129 O 0.69736 0.11398 0.89289 0.0
C130 C 0.81182 0.96121 0.359 0.0
O131 O 0.80459 0.95372 0.38031 0.0
O132 O 0.81544 0.89854 0.37401 0.0
Zn133 Zn 0.80014 0.91243 0.34439 0.0
O134 O 0.8108 0.89455 0.31476 0.0
C135 C 0.75346 0.89259 0.34733 0.0
O136 O 0.76376 0.87192 0.34307 0.0
O137 O 0.81083 0.94684 0.34102 0.0
C138 C 0.79835 0.89026 0.29618 0.0
O139 O 0.77655 0.8969 0.296 0.0
C140 C 0.83638 0.90435 0.37871 0.0
O141 O 0.84779 0.91845 0.36359 0.0
O142 O 0.76555 0.91191 0.34841 0.0
C143 C 0.83311 0.03424 0.10491 0.0
O144 O 0.84575 0.04506 0.08828 0.0
O145 O 0.84134 0.09727 0.09427 0.0
Zn146 Zn 0.82889 0.08274 0.12496 0.0
O147 O 0.85073 0.0878 0.15288 0.0
C148 C 0.79721 0.12134 0.12997 0.0
O149 O 0.81577 0.13364 0.12334 0.0
O150 O 0.82381 0.04683 0.12148 0.0
C151 C 0.86186 0.10711 0.15808 0.0
O152 O 0.85992 0.12622 0.14412 0.0
C153 C 0.86249 0.09855 0.08792 0.0
O154 O 0.87856 0.08955 0.10211 0.0
O155 O 0.79851 0.09852 0.13227 0.0
C156 C 0.33993 0.50537 0.62144 0.0
O157 O 0.35615 0.51779 0.61008 0.0
O158 O 0.33893 0.56337 0.59793 0.0
Zn159 Zn 0.32166 0.55287 0.62765 0.0
O160 O 0.3364 0.56771 0.65717 0.0
C161 C 0.28211 0.58406 0.63277 0.0
O162 O 0.29713 0.59788 0.64438 0.0
O163 O 0.32287 0.51657 0.63055 0.0
C164 C 0.32656 0.56473 0.67753 0.0
O165 O 0.30727 0.55187 0.67859 0.0
C166 C 0.34689 0.5847 0.59502 0.0
O167 O 0.3439 0.60089 0.61217 0.0
O168 O 0.28862 0.56383 0.6243 0.0
C169 C 0.13652 0.50847 0.38299 0.0
O170 O 0.12634 0.52953 0.38512 0.0
O171 O 0.16422 0.56064 0.40811 0.0
Zn172 Zn 0.17703 0.53861 0.38266 0.0
O173 O 0.17515 0.55418 0.34989 0.0
C174 C 0.22559 0.53082 0.37376 0.0
O175 O 0.21925 0.53367 0.35107 0.0
O176 O 0.15851 0.50776 0.38192 0.0
C177 C 0.16011 0.56972 0.34398 0.0
O178 O 0.1447 0.57657 0.36002 0.0
C179 C 0.17344 0.58123 0.41223 0.0
O180 O 0.19153 0.58815 0.39943 0.0
O181 O 0.21038 0.5317 0.39038 0.0
C182 C 0.29742 0.42599 0.86851 0.0
O183 O 0.30852 0.4205 0.84851 0.0
O184 O 0.35842 0.41455 0.86261 0.0
Zn185 Zn 0.34359 0.43142 0.89072 0.0
O186 O 0.35201 0.41556 0.92219 0.0
C187 C 0.34693 0.47951 0.8735 0.0
O188 O 0.33213 0.47033 0.85775 0.0
O189 O 0.30878 0.43098 0.88768 0.0
C190 C 0.3671 0.42466 0.93643 0.0
O191 O 0.3783 0.44446 0.92996 0.0
C192 C 0.35365 0.39315 0.85556 0.0
O193 O 0.33834 0.38011 0.86758 0.0
O194 O 0.35456 0.46606 0.89029 0.0
C195 C 0.83984 0.83445 0.59267 0.0
O196 O 0.84767 0.81334 0.59968 0.0
O197 O 0.87635 0.79493 0.56059 0.0
Zn198 Zn 0.87493 0.83078 0.55507 0.0
O199 O 0.86758 0.83719 0.52003 0.0
C200 C 0.92318 0.84487 0.55174 0.0
O201 O 0.92121 0.83534 0.53 0.0
O202 O 0.8492 0.84503 0.57468 0.0
C203 C 0.87274 0.857 0.50958 0.0
O204 O 0.88415 0.87385 0.52165 0.0
C205 C 0.88516 0.78072 0.54509 0.0
O206 O 0.89295 0.78959 0.52453 0.0
O207 O 0.90551 0.84543 0.56544 0.0
C208 C 0.96121 0.08584 0.35616 0.0
O209 O 0.94602 0.07517 0.37042 0.0
O210 O 0.8995 0.08372 0.34537 0.0
Zn211 Zn 0.92125 0.11021 0.33525 0.0
O212 O 0.91433 0.14111 0.35267 0.0
C213 C 0.91672 0.13382 0.28759 0.0
O214 O 0.9217 0.15433 0.2986 0.0
O215 O 0.95433 0.101 0.34048 0.0
C216 C 0.89409 0.14988 0.35162 0.0
O217 O 0.87786 0.13816 0.33947 0.0
C218 C 0.88983 0.0807 0.36583 0.0
O219 O 0.89457 0.09567 0.38373 0.0
O220 O 0.91607 0.11426 0.29967 0.0
C221 C 0.68604 0.20385 0.11902 0.0
O222 O 0.68539 0.22544 0.10908 0.0
O223 O 0.63758 0.24068 0.11102 0.0
Zn224 Zn 0.63885 0.20483 0.10504 0.0
O225 O 0.64162 0.19734 0.06947 0.0
C226 C 0.59096 0.1995 0.11616 0.0
O227 O 0.59075 0.22119 0.10641 0.0
O228 O 0.6674 0.19145 0.1205 0.0
C229 C 0.62492 0.19486 0.05455 0.0
O230 O 0.60355 0.19812 0.06194 0.0
C231 C 0.63804 0.25654 0.09435 0.0
O232 O 0.63945 0.24967 0.07161 0.0
O233 O 0.61014 0.1886 0.1183 0.0
C234 C 0.54645 0.90581 0.84637 0.0
O235 O 0.5559 0.92693 0.85157 0.0
O236 O 0.60316 0.92114 0.86069 0.0
Zn237 Zn 0.59434 0.89097 0.84228 0.0
O238 O 0.60712 0.861 0.85784 0.0
C239 C 0.62419 0.90613 0.80305 0.0
O240 O 0.63515 0.91761 0.82058 0.0
O241 O 0.55945 0.888 0.84152 0.0
C242 C 0.62752 0.85348 0.8538 0.0
O243 O 0.64138 0.86618 0.83972 0.0
C244 C 0.62098 0.92471 0.87385 0.0
O245 O 0.6358 0.90712 0.8771 0.0
O246 O 0.6062 0.89358 0.80801 0.0
C247 C 0.92355 0.11651 0.89179 0.0
O248 O 0.91334 0.10023 0.9056 0.0
O249 O 0.89112 0.14354 0.94472 0.0
Zn250 Zn 0.8889 0.15138 0.90938 0.0
O251 O 0.89072 0.18758 0.9051 0.0
C252 C 0.84122 0.14774 0.91079 0.0
O253 O 0.84626 0.16315 0.92824 0.0
O254 O 0.91545 0.13776 0.89072 0.0
C255 C 0.87706 0.19901 0.89121 0.0
O256 O 0.86076 0.18712 0.87938 0.0
C257 C 0.90853 0.13782 0.95754 0.0
O258 O 0.92918 0.13667 0.9476 0.0
O259 O 0.85767 0.13889 0.89842 0.0
C260 C 0.55513 0.10581 0.66252 0.0
O261 O 0.5695 0.08776 0.6596 0.0
O262 O 0.6115 0.1077 0.64395 0.0
Zn263 Zn 0.59751 0.13399 0.66408 0.0
O264 O 0.60192 0.16679 0.6491 0.0
C265 C 0.63155 0.1264 0.70145 0.0
O266 O 0.64448 0.12082 0.68275 0.0
O267 O 0.56321 0.12712 0.66553 0.0
C268 C 0.61792 0.18164 0.65507 0.0
O269 O 0.63347 0.17517 0.67117 0.0
C270 C 0.63 0.10715 0.6315 0.0
O271 O 0.64333 0.12654 0.63002 0.0
O272 O 0.61076 0.13299 0.69792 0.0
C273 C 0.54453 0.86784 0.40372 0.0
O274 O 0.55444 0.88681 0.41394 0.0
O275 O 0.59599 0.8656 0.44162 0.0
Zn276 Zn 0.58841 0.844 0.41344 0.0
O277 O 0.59204 0.80943 0.42336 0.0
C278 C 0.62236 0.87036 0.38561 0.0
O279 O 0.61508 0.88865 0.3987 0.0
O280 O 0.55597 0.84846 0.40137 0.0
C281 C 0.6122 0.80116 0.42716 0.0
O282 O 0.63024 0.81582 0.42554 0.0
C283 C 0.5947 0.85834 0.46341 0.0
O284 O 0.58652 0.83651 0.4679 0.0
O285 O 0.61219 0.84996 0.38761 0.0
C286 C 0.94805 0.88238 0.12256 0.0
O287 O 0.93525 0.88872 0.10395 0.0
O288 O 0.88858 0.89113 0.12066 0.0
Zn289 Zn 0.90401 0.86534 0.14058 0.0
O290 O 0.89801 0.83194 0.12704 0.0
C291 C 0.87377 0.85546 0.18107 0.0
O292 O 0.86281 0.84182 0.16512 0.0
O293 O 0.93835 0.87247 0.14076 0.0
C294 C 0.91469 0.81723 0.12482 0.0
O295 O 0.93576 0.82434 0.13071 0.0
C296 C 0.8679 0.89813 0.12395 0.0
O297 O 0.85486 0.88705 0.14006 0.0
O298 O 0.89205 0.86688 0.17477 0.0
C299 C 0.79954 0.61819 0.86426 0.0
O300 O 0.81378 0.63398 0.85424 0.0
O301 O 0.85133 0.60079 0.83258 0.0
Zn302 Zn 0.84089 0.59013 0.86573 0.0
O303 O 0.8589 0.60575 0.8927 0.0
C304 C 0.84134 0.53936 0.85241 0.0
O305 O 0.832 0.54696 0.8321 0.0
O306 O 0.80722 0.59762 0.87042 0.0
C307 C 0.87826 0.59723 0.89945 0.0
O308 O 0.88763 0.57968 0.88685 0.0
C309 C 0.87111 0.60993 0.82773 0.0
O310 O 0.88609 0.61371 0.84532 0.0
O311 O 0.84586 0.55451 0.8691 0.0
C312 C 0.29069 0.90555 0.14733 0.0
O313 O 0.29883 0.90495 0.16956 0.0
O314 O 0.35163 0.89388 0.16202 0.0
Zn315 Zn 0.33948 0.90614 0.13025 0.0
O316 O 0.34963 0.88546 0.10225 0.0
C317 C 0.34004 0.95618 0.11431 0.0
O318 O 0.31997 0.95036 0.10447 0.0
O319 O 0.30464 0.90614 0.12952 0.0
C320 C 0.3652 0.89241 0.08746 0.0
O321 O 0.3764 0.91284 0.09162 0.0
C322 C 0.34523 0.87436 0.1723 0.0
O323 O 0.32985 0.86023 0.16158 0.0
O324 O 0.35123 0.94025 0.12594 0.0
C325 C 0.21411 0.09334 0.64148 0.0
O326 O 0.20071 0.09599 0.6605 0.0
O327 O 0.15371 0.11064 0.63936 0.0
Zn328 Zn 0.17142 0.09537 0.61225 0.0
O329 O 0.16833 0.11391 0.58119 0.0
C330 C 0.16894 0.04529 0.59637 0.0
O331 O 0.1888 0.05033 0.58577 0.0
O332 O 0.20526 0.09286 0.62037 0.0
C333 C 0.15129 0.11012 0.56702 0.0
O334 O 0.13495 0.09467 0.57351 0.0
C335 C 0.15889 0.13039 0.64997 0.0
O336 O 0.17689 0.14312 0.6425 0.0
O337 O 0.15861 0.06177 0.60809 0.0
C338 C 0.20868 0.90311 0.85531 0.0
O339 O 0.20026 0.9007 0.83328 0.0
O340 O 0.15005 0.89773 0.83713 0.0
Zn341 Zn 0.16065 0.91261 0.86876 0.0
O342 O 0.14548 0.89784 0.8982 0.0
C343 C 0.13632 0.95567 0.85609 0.0
O344 O 0.12269 0.93964 0.84551 0.0
O345 O 0.19508 0.90827 0.87263 0.0
C346 C 0.12554 0.90339 0.90614 0.0
O347 O 0.11273 0.91855 0.8938 0.0
C348 C 0.13126 0.8862 0.83288 0.0
O349 O 0.1169 0.88154 0.85078 0.0
O350 O 0.15401 0.94841 0.86766 0.0
C351 C 0.66444 0.39102 0.38817 0.0
O352 O 0.65769 0.40535 0.40578 0.0
O353 O 0.60054 0.39264 0.34392 0.0
Zn354 Zn 0.61809 0.39868 0.37476 0.0
O355 O 0.6028 0.38491 0.40423 0.0
C356 C 0.63542 0.44688 0.3667 0.0
O357 O 0.64658 0.43619 0.34898 0.0
O358 O 0.64989 0.38478 0.37196 0.0
C359 C 0.58476 0.3942 0.41338 0.0
O360 O 0.57428 0.41171 0.40176 0.0
C361 C 0.58647 0.40825 0.33585 0.0
O362 O 0.58204 0.42748 0.34901 0.0
O363 O 0.62192 0.4344 0.38002 0.0
C364 C 0.76788 0.40947 0.63682 0.0
O365 O 0.77867 0.40239 0.65652 0.0
O366 O 0.82241 0.38156 0.64029 0.0
Zn367 Zn 0.8133 0.40528 0.61459 0.0
O368 O 0.81838 0.39016 0.58213 0.0
C369 C 0.83789 0.44247 0.63991 0.0
O370 O 0.83086 0.42939 0.65842 0.0
O371 O 0.77935 0.41242 0.61737 0.0
C372 C 0.83685 0.39215 0.56975 0.0
O373 O 0.85425 0.40525 0.57816 0.0
C374 C 0.84351 0.37574 0.64293 0.0
O375 O 0.85907 0.38459 0.62789 0.0
O376 O 0.83218 0.43594 0.61859 0.0
C377 C 0.71708 0.64162 0.15537 0.0
O378 O 0.70636 0.65949 0.16619 0.0
O379 O 0.6622 0.64059 0.17822 0.0
Zn380 Zn 0.67042 0.62817 0.14523 0.0
O381 O 0.66141 0.64999 0.11754 0.0
C382 C 0.63603 0.59034 0.14971 0.0
O383 O 0.62514 0.60734 0.16166 0.0
O384 O 0.70511 0.62533 0.14468 0.0
C385 C 0.64387 0.64525 0.1043 0.0
O386 O 0.62985 0.62742 0.11045 0.0
C387 C 0.64565 0.65375 0.18538 0.0
O388 O 0.63046 0.66184 0.16966 0.0
O389 O 0.65595 0.59499 0.14087 0.0
C390 C 0.6419 0.7178 0.89977 0.0
O391 O 0.66255 0.70912 0.89513 0.0
O392 O 0.66119 0.65706 0.90151 0.0
Zn393 Zn 0.62958 0.66783 0.91203 0.0
O394 O 0.60486 0.65133 0.89221 0.0
C395 C 0.63486 0.67302 0.96337 0.0
O396 O 0.64864 0.69088 0.95666 0.0
O397 O 0.62593 0.70362 0.90718 0.0
C398 C 0.59625 0.63061 0.89701 0.0
O399 O 0.60428 0.61841 0.91559 0.0
C400 C 0.66906 0.63674 0.90822 0.0
O401 O 0.65617 0.62269 0.92205 0.0
O402 O 0.62473 0.66032 0.94723 0.0
C403 C 0.57183 0.39099 0.19379 0.0
O404 O 0.57638 0.37228 0.17995 0.0
O405 O 0.5917 0.3936 0.1342 0.0
Zn406 Zn 0.5673 0.41513 0.14792 0.0
O407 O 0.57499 0.44969 0.14036 0.0
C408 C 0.53315 0.382 0.13057 0.0
O409 O 0.5509 0.36743 0.13233 0.0
O410 O 0.56743 0.41125 0.18402 0.0
C411 C 0.56391 0.46652 0.15073 0.0
O412 O 0.5462 0.46085 0.16465 0.0
C413 C 0.59528 0.39075 0.11167 0.0
O414 O 0.5839 0.40413 0.09608 0.0
O415 O 0.53582 0.40429 0.13584 0.0
C416 C 0.85354 0.28144 0.39138 0.0
O417 O 0.87071 0.29379 0.40129 0.0
O418 O 0.80315 0.34159 0.38383 0.0
Zn419 Zn 0.83423 0.32819 0.39184 0.0
O420 O 0.85962 0.34411 0.37275 0.0
C421 C 0.85829 0.34438 0.43549 0.0
O422 O 0.8758 0.34861 0.42083 0.0
O423 O 0.83499 0.29239 0.38597 0.0
C424 C 0.86687 0.33531 0.35293 0.0
O425 O 0.85584 0.31669 0.34332 0.0
C426 C 0.78909 0.33333 0.36805 0.0
O427 O 0.79524 0.31507 0.3543 0.0
O428 O 0.83962 0.33519 0.42708 0.0
C429 C 0.88849 0.61808 0.68459 0.0
O430 O 0.87303 0.615 0.66729 0.0
O431 O 0.90193 0.64623 0.62706 0.0
Zn432 Zn 0.91728 0.61827 0.6434 0.0
O433 O 0.90458 0.58653 0.63092 0.0
C434 C 0.9623 0.60992 0.62176 0.0
O435 O 0.95057 0.59478 0.60789 0.0
O436 O 0.90974 0.62038 0.67886 0.0
C437 C 0.90709 0.56819 0.64451 0.0
O438 O 0.91882 0.57066 0.66482 0.0
C439 C 0.90615 0.65211 0.60525 0.0
O440 O 0.92029 0.63878 0.59236 0.0
O441 O 0.95174 0.62131 0.63838 0.0
C442 C 0.58167 0.37145 0.5555 0.0
O443 O 0.56192 0.37707 0.56582 0.0
O444 O 0.56774 0.37453 0.61777 0.0
Zn445 Zn 0.5986 0.36393 0.60488 0.0
O446 O 0.62544 0.38333 0.61787 0.0
C447 C 0.59053 0.31299 0.60359 0.0
O448 O 0.57403 0.31972 0.58867 0.0
O449 O 0.59897 0.36598 0.56861 0.0
C450 C 0.63365 0.37962 0.63891 0.0
O451 O 0.62293 0.36429 0.65335 0.0
C452 C 0.55876 0.36373 0.63584 0.0
O453 O 0.5708 0.34718 0.64722 0.0
O454 O 0.60354 0.32905 0.6132 0.0
C455 C 0.96238 0.37897 0.8102 0.0
O456 O 0.95816 0.37683 0.78689 0.0
O457 O 0.89262 0.39425 0.81948 0.0
Zn458 Zn 0.91367 0.36605 0.81529 0.0
O459 O 0.90338 0.33767 0.83536 0.0
C460 C 0.89512 0.34636 0.77121 0.0
O461 O 0.87883 0.33867 0.78601 0.0
O462 O 0.94603 0.37549 0.82526 0.0
C463 C 0.8826 0.3337 0.84201 0.0
O464 O 0.86632 0.34906 0.83603 0.0
C465 C 0.89134 0.40653 0.83887 0.0
O466 O 0.90383 0.40019 0.85772 0.0
O467 O 0.91262 0.35755 0.77989 0.0
C468 C 0.90051 0.62321 0.03915 0.0
O469 O 0.92188 0.6197 0.04653 0.0
O470 O 0.91703 0.61406 0.10248 0.0
Zn471 Zn 0.88909 0.63164 0.0902 0.0
O472 O 0.85962 0.62077 0.10638 0.0
C473 C 0.91356 0.67698 0.091 0.0
O474 O 0.93036 0.66351 0.08254 0.0
O475 O 0.88474 0.62755 0.05453 0.0
C476 C 0.85099 0.63285 0.12369 0.0
O477 O 0.86261 0.65153 0.13239 0.0
C478 C 0.92521 0.62097 0.12277 0.0
O479 O 0.91392 0.63729 0.13528 0.0
O480 O 0.89403 0.66723 0.09573 0.0
C481 C 0.56754 0.60496 0.36527 0.0
O482 O 0.57986 0.58647 0.35798 0.0
O483 O 0.62738 0.59847 0.37755 0.0
Zn484 Zn 0.61214 0.62983 0.36973 0.0
O485 O 0.61964 0.6565 0.39303 0.0
C486 C 0.641 0.63724 0.32804 0.0
O487 O 0.65671 0.62766 0.34228 0.0
O488 O 0.5777 0.62474 0.37083 0.0
C489 C 0.63943 0.66591 0.39732 0.0
O490 O 0.65792 0.65671 0.38713 0.0
C491 C 0.62137 0.5864 0.39612 0.0
O492 O 0.607 0.59613 0.41172 0.0
O493 O 0.62058 0.6401 0.33603 0.0
C494 C 0.72235 0.90041 0.62673 0.0
O495 O 0.70862 0.88595 0.6392 0.0
O496 O 0.67077 0.91834 0.65705 0.0
Zn497 Zn 0.68051 0.92677 0.6231 0.0
O498 O 0.6622 0.90721 0.59891 0.0
C499 C 0.6522 0.96703 0.61676 0.0
O500 O 0.63681 0.94941 0.61866 0.0
O501 O 0.71424 0.91994 0.61823 0.0
C502 C 0.6607 0.91499 0.57732 0.0
O503 O 0.67167 0.93512 0.57144 0.0
C504 C 0.65292 0.90543 0.66163 0.0
O505 O 0.64065 0.8964 0.64362 0.0
O506 O 0.67361 0.96195 0.61794 0.0
C507 C 0.30874 0.33504 0.12921 0.0
O508 O 0.31002 0.31133 0.12832 0.0
O509 O 0.35448 0.29654 0.1136 0.0
Zn510 Zn 0.35406 0.3325 0.10755 0.0
O511 O 0.35363 0.34002 0.07185 0.0
C512 C 0.40194 0.33923 0.11186 0.0
O513 O 0.40058 0.32176 0.09573 0.0
O514 O 0.32596 0.34775 0.1222 0.0
C515 C 0.36107 0.36085 0.06564 0.0
O516 O 0.36814 0.37604 0.08251 0.0
C517 C 0.35865 0.28122 0.09701 0.0
O518 O 0.36218 0.28884 0.07476 0.0
O519 O 0.38335 0.34718 0.12111 0.0
C520 C 0.47504 0.61697 0.83062 0.0
O521 O 0.46386 0.59665 0.83523 0.0
O522 O 0.41367 0.61122 0.84121 0.0
Zn523 Zn 0.42908 0.63745 0.82179 0.0
O524 O 0.42017 0.67033 0.83379 0.0
C525 C 0.39624 0.62783 0.78583 0.0
O526 O 0.38337 0.6289 0.80543 0.0
O527 O 0.46378 0.63547 0.82399 0.0
C528 C 0.40198 0.6753 0.84569 0.0
O529 O 0.38687 0.65804 0.85066 0.0
C530 C 0.41674 0.60384 0.86275 0.0
O531 O 0.43256 0.61423 0.87655 0.0
O532 O 0.41786 0.63231 0.78761 0.0
C533 C 0.16406 0.65443 0.61258 0.0
O534 O 0.15398 0.67139 0.62538 0.0
O535 O 0.13237 0.70254 0.57921 0.0
Zn536 Zn 0.13101 0.66646 0.57382 0.0
O537 O 0.1345 0.65814 0.53863 0.0
C538 C 0.09086 0.662 0.60447 0.0
O539 O 0.1017 0.67911 0.61674 0.0
O540 O 0.15685 0.64977 0.59129 0.0
C541 C 0.15146 0.6661 0.52618 0.0
O542 O 0.16612 0.68158 0.53609 0.0
C543 C 0.15066 0.71464 0.58422 0.0
O544 O 0.17071 0.70362 0.58521 0.0
O545 O 0.10025 0.65356 0.58547 0.0
C546 C -0.00108 0.37359 0.33879 0.0
O547 O 0.01061 0.39257 0.34668 0.0
O548 O 0.06003 0.38144 0.34512 0.0
Zn549 Zn 0.04421 0.3552 0.3257 0.0
O550 O 0.05635 0.32273 0.33592 0.0
C551 C 0.05233 0.38274 0.28292 0.0
O552 O 0.04775 0.40065 0.29779 0.0
O553 O 0.00974 0.35586 0.3297 0.0
C554 C 0.07175 0.31201 0.32358 0.0
O555 O 0.07955 0.32215 0.30362 0.0
C556 C 0.08177 0.38026 0.34866 0.0
O557 O 0.09299 0.36125 0.34081 0.0
O558 O 0.05145 0.36115 0.29075 0.0
C559 C 0.43476 0.57245 0.39038 0.0
O560 O 0.42415 0.55141 0.39282 0.0
O561 O 0.38994 0.58546 0.44276 0.0
Zn562 Zn 0.39174 0.59524 0.40778 0.0
O563 O 0.38405 0.63054 0.40564 0.0
C564 C 0.3584 0.55758 0.3977 0.0
O565 O 0.36559 0.54956 0.41879 0.0
O566 O 0.42405 0.59177 0.3954 0.0
C567 C 0.36452 0.63891 0.39929 0.0
O568 O 0.34761 0.62393 0.39326 0.0
C569 C 0.39253 0.6006 0.45993 0.0
O570 O 0.39787 0.62321 0.45484 0.0
O571 O 0.36824 0.5761 0.38849 0.0
C572 C 0.05826 0.61557 0.15958 0.0
O573 O 0.06844 0.59566 0.15242 0.0
O574 O 0.11575 0.60285 0.15058 0.0
Zn575 Zn 0.10538 0.63218 0.16905 0.0
O576 O 0.11755 0.66311 0.15472 0.0
C577 C 0.13198 0.61857 0.21154 0.0
O578 O 0.14643 0.60979 0.19549 0.0
O579 O 0.07053 0.63322 0.16733 0.0
C580 C 0.13741 0.67262 0.15846 0.0
O581 O 0.15241 0.66142 0.17232 0.0
C582 C 0.13531 0.59782 0.1414 0.0
O583 O 0.15264 0.61337 0.14315 0.0
O584 O 0.11388 0.6293 0.2043 0.0
C585 C 0.08187 0.38324 0.88174 0.0
O586 O 0.08532 0.38517 0.90519 0.0
O587 O 0.13217 0.37337 0.91683 0.0
Zn588 Zn 0.12741 0.36189 0.88266 0.0
O589 O 0.1253 0.32561 0.88233 0.0
C590 C 0.16317 0.39416 0.86914 0.0
O591 O 0.15143 0.40784 0.88415 0.0
O592 O 0.09784 0.37474 0.86847 0.0
C593 C 0.14242 0.31192 0.87826 0.0
O594 O 0.16296 0.3216 0.87415 0.0
C595 C 0.12494 0.36256 0.9357 0.0
O596 O 0.11274 0.34244 0.93349 0.0
O597 O 0.15526 0.37324 0.86391 0.0
C598 C 0.42382 0.35117 0.66352 0.0
O599 O 0.41178 0.36877 0.65389 0.0
O600 O 0.36439 0.359 0.658 0.0
Zn601 Zn 0.3784 0.33005 0.67415 0.0
O602 O 0.37007 0.29921 0.65695 0.0
C603 C 0.37825 0.3466 0.72175 0.0
O604 O 0.39253 0.36183 0.71098 0.0
O605 O 0.41325 0.3332 0.67294 0.0
C606 C 0.35022 0.28916 0.65511 0.0
O607 O 0.33218 0.29931 0.66529 0.0
C608 C 0.34542 0.36827 0.66485 0.0
O609 O 0.3333 0.35754 0.68197 0.0
O610 O 0.36895 0.32974 0.70926 0.0
C611 C 0.30351 0.09175 0.35478 0.0
O612 O 0.31964 0.10551 0.36474 0.0
O613 O 0.36239 0.06424 0.33443 0.0
Zn614 Zn 0.3385 0.05556 0.35946 0.0
O615 O 0.34607 0.0686 0.39254 0.0
C616 C 0.33398 0.00516 0.37719 0.0
O617 O 0.33827 0.01366 0.39901 0.0
O618 O 0.308 0.06979 0.35006 0.0
C619 C 0.36429 0.06612 0.40521 0.0
O620 O 0.38153 0.05326 0.39676 0.0
C621 C 0.37238 0.08474 0.33223 0.0
O622 O 0.36795 0.10198 0.34792 0.0
O623 O 0.33381 0.01949 0.3592 0.0
H624 H 0.10415 0.28454 0.3012 0.0
H625 H 0.06086 0.28727 0.36494 0.0
H626 H 0.0765 0.24882 0.37877 0.0
H627 H 0.10166 0.21402 0.37231 0.0
H628 H 0.14434 0.21072 0.30818 0.0
H629 H 0.12985 0.24998 0.29508 0.0
C630 C 0.09814 0.27675 0.31814 0.0
C631 C 0.0813 0.28874 0.33196 0.0
C632 C 0.10714 0.25459 0.32595 0.0
C633 C 0.07374 0.2784 0.35389 0.0
C634 C 0.08271 0.25642 0.36184 0.0
C635 C 0.10796 0.22195 0.35556 0.0
C636 C 0.12405 0.20944 0.34124 0.0
C637 C 0.09932 0.24433 0.34797 0.0
C638 C 0.13192 0.21994 0.31952 0.0
C639 C 0.12362 0.24237 0.31199 0.0
H640 H 0.02683 0.87473 0.57349 0.0
H641 H 0.00078 0.876 0.6468 0.0
H642 H 0.96171 0.86647 0.63191 0.0
H643 H 0.93543 0.85592 0.59819 0.0
H644 H 0.96227 0.85314 0.52522 0.0
H645 H 0.00061 0.86524 0.53993 0.0
C646 C 0.01261 0.87311 0.58626 0.0
C647 C 0.01674 0.87603 0.61124 0.0
C648 C 0.99036 0.86727 0.57763 0.0
C649 C -0.00191 0.87378 0.62748 0.0
C650 C 0.97576 0.86831 0.61898 0.0
C651 C 0.94963 0.85816 0.58548 0.0
C652 C 0.946 0.85358 0.56064 0.0
C653 C 0.97175 0.86474 0.59411 0.0
C654 C 0.9646 0.85643 0.54443 0.0
C655 C 0.98654 0.86335 0.55282 0.0
H656 H 0.40266 0.78544 0.87493 0.0
H657 H 0.33198 0.76816 0.89468 0.0
H658 H 0.33771 0.72602 0.88248 0.0
H659 H 0.36276 0.69431 0.86542 0.0
H660 H 0.43301 0.71273 0.84474 0.0
H661 H 0.4274 0.75424 0.85811 0.0
C662 C 0.3885 0.77247 0.87673 0.0
C663 C 0.36694 0.77993 0.88576 0.0
C664 C 0.39181 0.74848 0.86942 0.0
C665 C 0.34875 0.76289 0.88777 0.0
C666 C 0.35202 0.7388 0.88079 0.0
C667 C 0.37684 0.7074 0.86391 0.0
C668 C 0.39826 0.70039 0.85406 0.0
C669 C 0.37346 0.73142 0.87146 0.0
C670 C 0.41631 0.71762 0.85214 0.0
C671 C 0.41315 0.74138 0.85982 0.0
H672 H 0.50545 0.13554 0.14979 0.0
H673 H 0.47058 0.18259 0.09938 0.0
H674 H 0.50693 0.20392 0.09122 0.0
H675 H 0.54849 0.2094 0.09836 0.0
H676 H 0.58423 0.16135 0.14698 0.0
H677 H 0.54764 0.14027 0.15598 0.0
C678 C 0.50585 0.15043 0.137 0.0
C679 C 0.48533 0.15749 0.12526 0.0
C680 C 0.52692 0.16251 0.13215 0.0
C681 C 0.48613 0.17671 0.1086 0.0
C682 C 0.5069 0.18901 0.10397 0.0
C683 C 0.54826 0.19442 0.11106 0.0
C684 C 0.56894 0.18706 0.12217 0.0
C685 C 0.52735 0.18212 0.1157 0.0
C686 C 0.56847 0.16736 0.13826 0.0
C687 C 0.54758 0.15531 0.14338 0.0
H688 H 0.10809 0.70196 0.13428 0.0
H689 H 0.17844 0.69817 0.16084 0.0
H690 H 0.186 0.73944 0.14655 0.0
H691 H 0.17198 0.77719 0.128 0.0
H692 H 0.10108 0.7807 0.10294 0.0
H693 H 0.09445 0.73887 0.11517 0.0
C694 C 0.12516 0.71003 0.13685 0.0
C695 C 0.14265 0.697 0.14867 0.0
C696 C 0.12926 0.73377 0.12894 0.0
C697 C 0.16463 0.70783 0.15184 0.0
C698 C 0.16896 0.73143 0.1437 0.0
C699 C 0.15514 0.76874 0.12507 0.0
C700 C 0.13705 0.78209 0.11463 0.0
C701 C 0.15131 0.74467 0.13245 0.0
C702 C 0.11529 0.7709 0.11105 0.0
C703 C 0.11146 0.74695 0.11802 0.0
H704 H 0.43777 0.88306 0.38429 0.0
H705 H 0.44294 0.80827 0.36217 0.0
H706 H 0.48458 0.80939 0.36993 0.0
H707 H 0.51916 0.83096 0.38433 0.0
H708 H 0.51424 0.90552 0.40718 0.0
H709 H 0.47282 0.90512 0.39761 0.0
C710 C 0.44801 0.86702 0.38106 0.0
C711 C 0.4372 0.84559 0.37276 0.0
C712 C 0.47196 0.86772 0.3857 0.0
C713 C 0.45076 0.825 0.36863 0.0
C714 C 0.47459 0.8256 0.37307 0.0
C715 C 0.5091 0.84721 0.38712 0.0
C716 C 0.51979 0.86822 0.39656 0.0
C717 C 0.48532 0.84678 0.3818 0.0
C718 C 0.50645 0.88908 0.39998 0.0
C719 C 0.48275 0.88886 0.39455 0.0
H720 H 0.32916 0.18422 0.61467 0.0
H721 H 0.40138 0.19074 0.59472 0.0
H722 H 0.40238 0.23235 0.60943 0.0
H723 H 0.38377 0.26569 0.63049 0.0
H724 H 0.31192 0.25937 0.65175 0.0
H725 H 0.30974 0.21887 0.6338 0.0
C726 C 0.34503 0.19485 0.61324 0.0
C727 C 0.3652 0.18432 0.60373 0.0
C728 C 0.34562 0.2187 0.62213 0.0
C729 C 0.38564 0.19834 0.60207 0.0
C730 C 0.38625 0.22213 0.61052 0.0
C731 C 0.36755 0.25556 0.63113 0.0
C732 C 0.3481 0.26547 0.64269 0.0
C733 C 0.3665 0.23229 0.62103 0.0
C734 C 0.32719 0.25213 0.64308 0.0
C735 C 0.32595 0.22896 0.63284 0.0
H736 H 0.02323 0.08492 0.8582 0.0
H737 H 0.02378 0.15835 0.83135 0.0
H738 H 0.9835 0.163 0.84369 0.0
H739 H 0.94923 0.14738 0.86446 0.0
H740 H 0.94866 0.0746 0.89295 0.0
H741 H 0.98783 0.06845 0.87727 0.0
C742 C 0.01448 0.10186 0.85484 0.0
C743 C 0.02657 0.12132 0.84404 0.0
C744 C 0.99137 0.10456 0.86231 0.0
C745 C 0.01496 0.14315 0.8398 0.0
C746 C 0.99191 0.14583 0.84684 0.0
C747 C 0.95752 0.13005 0.86709 0.0
C748 C 0.94607 0.11154 0.88004 0.0
C749 C 0.98011 0.12682 0.85848 0.0
C750 C 0.9571 0.08919 0.88312 0.0
C751 C 0.97953 0.08569 0.87423 0.0
H752 H 0.4198 0.08957 0.22997 0.0
H753 H 0.42127 0.16589 0.2468 0.0
H754 H 0.40624 0.15733 0.28738 0.0
H755 H 0.38925 0.12837 0.31656 0.0
H756 H 0.38721 0.05221 0.29872 0.0
H757 H 0.40607 0.06055 0.26013 0.0
C758 C 0.41705 0.10435 0.24257 0.0
C759 C 0.42137 0.12835 0.23526 0.0
C760 C 0.40817 0.09934 0.26566 0.0
C761 C 0.41799 0.14725 0.25193 0.0
C762 C 0.40931 0.14237 0.27511 0.0
C763 C 0.39322 0.11357 0.30438 0.0
C764 C 0.38655 0.08974 0.31043 0.0
C765 C 0.40382 0.11852 0.28196 0.0
C766 C 0.39192 0.07076 0.29445 0.0
C767 C 0.40269 0.0755 0.27234 0.0
H768 H 0.16905 0.15831 0.46506 0.0
H769 H 0.10794 0.11587 0.44741 0.0
H770 H 0.10475 0.10277 0.48944 0.0
H771 H 0.12042 0.10154 0.53068 0.0
H772 H 0.18198 0.14322 0.54834 0.0
H773 H 0.18371 0.15856 0.5069 0.0
C774 C 0.15495 0.14633 0.47043 0.0
C775 C 0.13888 0.13798 0.45305 0.0
C776 C 0.15329 0.13866 0.49464 0.0
C777 C 0.12065 0.1225 0.46036 0.0
C778 C 0.11879 0.11497 0.48442 0.0
C779 C 0.13411 0.11415 0.52555 0.0
C780 C 0.15111 0.12108 0.54257 0.0
C781 C 0.13518 0.12267 0.50163 0.0
C782 C 0.16871 0.13747 0.53558 0.0
C783 C 0.16975 0.14624 0.51187 0.0
H784 H 0.15623 0.89598 0.79244 0.0
H785 H 0.09047 0.86628 0.816 0.0
H786 H 0.07769 0.8629 0.7738 0.0
H787 H 0.08443 0.87078 0.73025 0.0
H788 H 0.15015 0.90148 0.70764 0.0
H789 H 0.16359 0.90209 0.74943 0.0
C790 C 0.13915 0.88856 0.78842 0.0
C791 C 0.1243 0.88153 0.80741 0.0
C792 C 0.1318 0.88704 0.76423 0.0
C793 C 0.10227 0.87187 0.80175 0.0
C794 C 0.09491 0.87002 0.77762 0.0
C795 C 0.10173 0.87747 0.73447 0.0
C796 C 0.11617 0.88623 0.71579 0.0
C797 C 0.10939 0.87795 0.75871 0.0
C798 C 0.13857 0.89478 0.7216 0.0
C799 C 0.14632 0.89512 0.74553 0.0
H800 H 0.35716 0.83285 0.99036 0.0
H801 H 0.40128 0.89137 0.96539 0.0
H802 H 0.40358 0.90759 0.00644 0.0
H803 H 0.39079 0.90692 0.04872 0.0
H804 H 0.34566 0.84923 0.07359 0.0
H805 H 0.34631 0.8308 0.03336 0.0
C806 C 0.36743 0.84904 0.99392 0.0
C807 C 0.37883 0.86098 0.97476 0.0
C808 C 0.36849 0.85847 0.01756 0.0
C809 C 0.39216 0.88189 0.97974 0.0
C810 C 0.39351 0.8912 0.00323 0.0
C811 C 0.38133 0.89014 0.04546 0.0
C812 C 0.36807 0.87959 0.06411 0.0
C813 C 0.38141 0.87989 0.02218 0.0
C814 C 0.35593 0.85783 0.05953 0.0
C815 C 0.35623 0.8473 0.0365 0.0
H816 H 0.38753 0.86985 0.27747 0.0
H817 H 0.3378 0.81119 0.28382 0.0
H818 H 0.32671 0.8164 0.24137 0.0
H819 H 0.33001 0.83883 0.20293 0.0
H820 H 0.37948 0.89786 0.19731 0.0
H821 H 0.39183 0.89114 0.23896 0.0
C822 C 0.37432 0.85811 0.26959 0.0
C823 C 0.36345 0.84024 0.28385 0.0
C824 C 0.36794 0.86128 0.24528 0.0
C825 C 0.34643 0.82514 0.27327 0.0
C826 C 0.34006 0.82811 0.24899 0.0
C827 C 0.34362 0.85008 0.21075 0.0
C828 C 0.35371 0.86888 0.19701 0.0
C829 C 0.35054 0.84629 0.23488 0.0
C830 C 0.37131 0.88333 0.20747 0.0
C831 C 0.3784 0.87953 0.23132 0.0
H832 H 0.35003 0.1164 0.50646 0.0
H833 H 0.41406 0.07983 0.52225 0.0
H834 H 0.41544 0.06453 0.48065 0.0
H835 H 0.39746 0.06021 0.44018 0.0
H836 H 0.33311 0.09672 0.42532 0.0
H837 H 0.33297 0.11336 0.46612 0.0
C838 C 0.36438 0.10518 0.50083 0.0
C839 C 0.38184 0.09918 0.51749 0.0
C840 C 0.36498 0.09633 0.47702 0.0
C841 C 0.40034 0.08469 0.5098 0.0
C842 C 0.40113 0.0759 0.48602 0.0
C843 C 0.3835 0.07192 0.44584 0.0
C844 C 0.36527 0.07704 0.42971 0.0
C845 C 0.3834 0.0814 0.46952 0.0
C846 C 0.34731 0.09229 0.43735 0.0
C847 C 0.34718 0.10187 0.46072 0.0
H848 H 0.12721 0.15726 0.75557 0.0
H849 H 0.07555 0.10241 0.7391 0.0
H850 H 0.08995 0.09975 0.69766 0.0
H851 H 0.11926 0.11025 0.66738 0.0
H852 H 0.17149 0.16447 0.68375 0.0
H853 H 0.15453 0.17039 0.72389 0.0
C854 C 0.11894 0.14489 0.74286 0.0
C855 C 0.10052 0.12982 0.75054 0.0
C856 C 0.12744 0.14328 0.71908 0.0
C857 C 0.08987 0.11408 0.73375 0.0
C858 C 0.0981 0.11252 0.71004 0.0
C859 C 0.12682 0.12356 0.67961 0.0
C860 C 0.14679 0.13667 0.6727 0.0
C861 C 0.11721 0.12661 0.70271 0.0
C862 C 0.15617 0.15407 0.68865 0.0
C863 C 0.14655 0.15738 0.71165 0.0
H864 H 0.08361 0.88428 0.01005 0.0
H865 H 0.15169 0.85426 0.02088 0.0
H866 H 0.16114 0.86162 0.97847 0.0
H867 H 0.15102 0.87856 0.939 0.0
H868 H 0.08358 0.91 0.92817 0.0
H869 H 0.07288 0.89984 0.96982 0.0
C870 C 0.10045 0.87918 0.00309 0.0
C871 C 0.11695 0.86887 0.01869 0.0
C872 C 0.10592 0.88374 0.97869 0.0
C873 C 0.1387 0.86238 0.00935 0.0
C874 C 0.14414 0.86655 0.98507 0.0
C875 C 0.13387 0.88299 0.94562 0.0
C876 C 0.11817 0.89512 0.93049 0.0
C877 C 0.128 0.87752 0.96968 0.0
C878 C 0.09605 0.90074 0.93945 0.0
C879 C 0.08993 0.89498 0.96329 0.0
H880 H 0.26786 0.31315 0.14099 0.0
H881 H 0.29953 0.38345 0.1297 0.0
H882 H 0.26173 0.40251 0.13318 0.0
H883 H 0.2194 0.39884 0.1356 0.0
H884 H 0.18764 0.32845 0.14603 0.0
H885 H 0.22581 0.30988 0.14687 0.0
C886 C 0.26656 0.33267 0.13959 0.0
C887 C 0.28646 0.3468 0.13478 0.0
C888 C 0.24473 0.3435 0.14124 0.0
C889 C 0.28447 0.3721 0.13322 0.0
C890 C 0.26284 0.38303 0.13513 0.0
C891 C 0.22082 0.37946 0.13828 0.0
C892 C 0.20068 0.36503 0.14041 0.0
C893 C 0.2428 0.36885 0.13851 0.0
C894 C 0.20285 0.33998 0.14413 0.0
C895 C 0.22468 0.32931 0.14459 0.0
H896 H 0.74119 0.10889 0.88304 0.0
H897 H 0.72252 0.17579 0.91817 0.0
H898 H 0.76331 0.18532 0.92533 0.0
H899 H 0.80408 0.17437 0.92256 0.0
H900 H 0.82358 0.10855 0.88613 0.0
H901 H 0.78262 0.09888 0.87841 0.0
C902 C 0.7461 0.12556 0.89222 0.0
C903 C 0.72886 0.14154 0.90019 0.0
C904 C 0.76967 0.13109 0.89607 0.0
C905 C 0.73544 0.1632 0.91182 0.0
C906 C 0.75876 0.16865 0.91599 0.0
C907 C 0.79938 0.15788 0.91296 0.0
C908 C 0.81674 0.14206 0.90514 0.0
C909 C 0.77597 0.15266 0.90836 0.0
C910 C 0.81046 0.12098 0.89235 0.0
C911 C 0.78707 0.11544 0.88799 0.0
H912 H 0.16272 0.4902 0.11951 0.0
H913 H 0.08889 0.48478 0.10681 0.0
H914 H 0.08532 0.52835 0.11219 0.0
H915 H 0.1024 0.56717 0.12433 0.0
H916 H 0.17607 0.57319 0.13721 0.0
H917 H 0.18054 0.53022 0.12751 0.0
C918 C 0.1459 0.49859 0.11767 0.0
C919 C 0.12605 0.48419 0.11314 0.0
C920 C 0.14392 0.52372 0.12088 0.0
C921 C 0.10442 0.49538 0.11048 0.0
C922 C 0.10234 0.52031 0.11359 0.0
C923 C 0.11949 0.55914 0.12476 0.0
C924 C 0.13883 0.57319 0.1318 0.0
C925 C 0.12186 0.53452 0.1194 0.0
C926 C 0.16091 0.56271 0.13187 0.0
C927 C 0.16344 0.53812 0.12649 0.0
H928 H 0.6509 0.90967 0.38176 0.0
H929 H 0.64447 0.83454 0.36079 0.0
H930 H 0.68418 0.83524 0.34565 0.0
H931 H 0.72188 0.85601 0.34197 0.0
H932 H 0.72838 0.93099 0.36341 0.0
H933 H 0.68752 0.93146 0.37468 0.0
C934 C 0.65804 0.89354 0.37354 0.0
C935 C 0.64479 0.87204 0.37269 0.0
C936 C 0.68103 0.89393 0.36522 0.0
C937 C 0.6543 0.85134 0.36182 0.0
C938 C 0.67707 0.85167 0.35326 0.0
C939 C 0.71432 0.8725 0.34896 0.0
C940 C 0.72825 0.89331 0.35215 0.0
C941 C 0.6908 0.87266 0.35549 0.0
C942 C 0.71811 0.91464 0.36092 0.0
C943 C 0.69472 0.91494 0.36739 0.0
H944 H 0.83138 0.92555 0.13752 0.0
H945 H 0.88788 0.92272 0.08637 0.0
H946 H 0.87981 0.96404 0.07346 0.0
H947 H 0.86015 0.00249 0.08057 0.0
H948 H 0.80541 0.00609 0.13374 0.0
H949 H 0.80918 0.96287 0.14176 0.0
C950 C 0.84164 0.93379 0.12321 0.0
C951 C 0.86037 0.9212 0.11313 0.0
C952 C 0.83738 0.9578 0.11642 0.0
C953 C 0.8735 0.93213 0.0946 0.0
C954 C 0.86894 0.95578 0.08724 0.0
C955 C 0.84875 0.99375 0.0936 0.0
C956 C 0.83274 0.00755 0.10676 0.0
C957 C 0.85145 0.96905 0.09863 0.0
C958 C 0.81807 0.99592 0.12354 0.0
C959 C 0.82023 0.97121 0.12818 0.0
H960 H 0.18314 0.61331 0.59539 0.0
H961 H 0.1924 0.66878 0.64983 0.0
H962 H 0.22949 0.6512 0.66164 0.0
H963 H 0.26036 0.6216 0.65464 0.0
H964 H 0.25052 0.56586 0.60053 0.0
H965 H 0.21248 0.58202 0.59053 0.0
C966 C 0.19319 0.62147 0.60997 0.0
C967 C 0.18516 0.64244 0.62156 0.0
C968 C 0.21443 0.61131 0.61663 0.0
C969 C 0.19822 0.65262 0.64061 0.0
C970 C 0.21947 0.64265 0.6473 0.0
C971 C 0.24983 0.61291 0.64075 0.0
C972 C 0.25836 0.59271 0.62818 0.0
C973 C 0.22792 0.62225 0.63513 0.0
C974 C 0.24439 0.58146 0.61045 0.0
C975 C 0.22266 0.59072 0.60466 0.0
H976 H 0.06484 0.42447 0.36062 0.0
H977 H 0.12797 0.38315 0.35904 0.0
H978 H 0.15028 0.41894 0.37115 0.0
H979 H 0.15228 0.4625 0.37913 0.0
H980 H 0.08934 0.50413 0.37995 0.0
H981 H 0.06655 0.46759 0.37133 0.0
C982 C 0.08344 0.42321 0.3632 0.0
C983 C 0.09473 0.40122 0.35872 0.0
C984 C 0.09624 0.44394 0.36985 0.0
C985 C 0.11884 0.39989 0.36221 0.0
C986 C 0.13165 0.42036 0.36909 0.0
C987 C 0.13356 0.46358 0.37761 0.0
C988 C 0.12257 0.48605 0.37993 0.0
C989 C 0.12059 0.44258 0.37245 0.0
C990 C 0.09827 0.48708 0.37811 0.0
C991 C 0.08521 0.4662 0.37315 0.0
H992 H 0.37936 0.58342 0.84114 0.0
H993 H 0.42548 0.57499 0.90219 0.0
H994 H 0.40681 0.53615 0.91196 0.0
H995 H 0.37939 0.50324 0.90103 0.0
H996 H 0.33413 0.51213 0.83925 0.0
H997 H 0.35057 0.55223 0.83191 0.0
C998 C 0.38528 0.57321 0.85672 0.0
C999 C 0.40396 0.58194 0.87076 0.0
C1000 C 0.37474 0.5509 0.86197 0.0
C1001 C 0.41116 0.56863 0.89106 0.0
C1002 C 0.40057 0.54638 0.89657 0.0
C1003 C 0.37299 0.51404 0.88609 0.0
C1004 C 0.35571 0.50457 0.87056 0.0
C1005 C 0.38266 0.53711 0.88182 0.0
C1006 C 0.34752 0.51886 0.85138 0.0
C1007 C 0.35691 0.54182 0.84715 0.0
H1008 H 0.91582 0.67285 0.5616 0.0
H1009 H 0.87667 0.68341 0.62739 0.0
H1010 H 0.86545 0.72354 0.61371 0.0
H1011 H 0.86911 0.75674 0.58465 0.0
H1012 H 0.90866 0.74672 0.51908 0.0
H1013 H 0.91718 0.7052 0.53105 0.0
C1014 C 0.90462 0.68381 0.57283 0.0
C1015 C 0.89731 0.67521 0.59559 0.0
C1016 C 0.89841 0.70703 0.56498 0.0
C1017 C 0.88271 0.68963 0.60986 0.0
C1018 C 0.8763 0.71262 0.60208 0.0
C1019 C 0.87946 0.74544 0.57286 0.0
C1020 C 0.88844 0.75491 0.55113 0.0
C1021 C 0.88444 0.72169 0.57993 0.0
C1022 C 0.90161 0.73992 0.53597 0.0
C1023 C 0.90654 0.71618 0.54282 0.0
H1024 H 0.9958 0.09997 0.32606 0.0
H1025 H 0.98302 0.06335 0.39389 0.0
H1026 H 0.02471 0.06245 0.402 0.0
H1027 H 0.06407 0.07685 0.39222 0.0
H1028 H 0.07629 0.11492 0.32503 0.0
H1029 H 0.03552 0.11002 0.31406 0.0
C1030 C 0.00212 0.09156 0.34251 0.0
C1031 C 0.98634 0.08217 0.35957 0.0
C1032 C 0.026 0.09141 0.34719 0.0
C1033 C 0.99482 0.07092 0.38057 0.0
C1034 C 0.01865 0.07044 0.38524 0.0
C1035 C 0.05794 0.0836 0.37493 0.0
C1036 C 0.07311 0.09657 0.35964 0.0
C1037 C 0.03432 0.08132 0.36903 0.0
C1038 C 0.0649 0.10512 0.33726 0.0
C1039 C 0.04157 0.10242 0.33101 0.0
H1040 H 0.62826 0.29385 0.06388 0.0
H1041 H 0.64132 0.27705 0.13908 0.0
H1042 H 0.63234 0.3185 0.15052 0.0
H1043 H 0.6169 0.3579 0.13987 0.0
H1044 H 0.60154 0.37456 0.06514 0.0
H1045 H 0.61585 0.33492 0.05276 0.0
C1046 C 0.62945 0.29936 0.08272 0.0
C1047 C 0.63515 0.28231 0.10063 0.0
C1048 C 0.62381 0.32316 0.08927 0.0
C1049 C 0.63668 0.28974 0.12497 0.0
C1050 C 0.63158 0.31345 0.13154 0.0
C1051 C 0.61698 0.35308 0.12081 0.0
C1052 C 0.60787 0.36905 0.1035 0.0
C1053 C 0.62453 0.33008 0.11394 0.0
C1054 C 0.60833 0.36254 0.07887 0.0
C1055 C 0.61639 0.33982 0.07179 0.0
H1056 H 0.43996 0.90088 0.87127 0.0
H1057 H 0.44555 0.83336 0.8323 0.0
H1058 H 0.48603 0.84257 0.82301 0.0
H1059 H 0.52074 0.86807 0.82896 0.0
H1060 H 0.5151 0.93575 0.86758 0.0
H1061 H 0.47375 0.92821 0.87387 0.0
C1062 C 0.44994 0.88831 0.86049 0.0
C1063 C 0.43979 0.86634 0.85276 0.0
C1064 C 0.47328 0.89362 0.85532 0.0
C1065 C 0.45292 0.85038 0.83858 0.0
C1066 C 0.47614 0.85556 0.83334 0.0
C1067 C 0.51042 0.88125 0.83861 0.0
C1068 C 0.52104 0.90227 0.84806 0.0
C1069 C 0.48664 0.87684 0.84213 0.0
C1070 C 0.50738 0.91936 0.8602 0.0
C1071 C 0.48373 0.91504 0.86386 0.0
H1072 H 0.84594 0.23083 0.87333 0.0
H1073 H 0.91642 0.22563 0.89917 0.0
H1074 H 0.92385 0.26769 0.88773 0.0
H1075 H 0.91126 0.30473 0.86739 0.0
H1076 H 0.84056 0.31049 0.84245 0.0
H1077 H 0.83217 0.26946 0.85683 0.0
C1078 C 0.86287 0.23899 0.87661 0.0
C1079 C 0.8807 0.22509 0.88675 0.0
C1080 C 0.86698 0.2632 0.87012 0.0
C1081 C 0.90243 0.23595 0.89131 0.0
C1082 C 0.90672 0.25996 0.8847 0.0
C1083 C 0.89395 0.29707 0.86533 0.0
C1084 C 0.87663 0.31043 0.85362 0.0
C1085 C 0.88927 0.27357 0.87364 0.0
C1086 C 0.85419 0.30051 0.85139 0.0
C1087 C 0.84942 0.27702 0.85948 0.0
H1088 H 0.45367 0.08156 0.62763 0.0
H1089 H 0.44091 0.14992 0.66295 0.0
H1090 H 0.48092 0.15157 0.67722 0.0
H1091 H 0.52049 0.13575 0.67607 0.0
H1092 H 0.5333 0.06718 0.64127 0.0
H1093 H 0.49229 0.06338 0.63062 0.0
C1094 C 0.45956 0.09665 0.63873 0.0
C1095 C 0.44442 0.11575 0.64389 0.0
C1096 C 0.48266 0.09756 0.64682 0.0
C1097 C 0.45222 0.13502 0.65857 0.0
C1098 C 0.47516 0.13606 0.66667 0.0
C1099 C 0.51425 0.11985 0.66639 0.0
C1100 C 0.52994 0.10196 0.65916 0.0
C1101 C 0.49067 0.11777 0.66032 0.0
C1102 C 0.52157 0.08127 0.64697 0.0
C1103 C 0.49814 0.07912 0.64078 0.0
H1104 H 0.65202 0.77596 0.42107 0.0
H1105 H 0.57935 0.76718 0.43819 0.0
H1106 H 0.5827 0.72336 0.43459 0.0
H1107 H 0.60458 0.68856 0.42061 0.0
H1108 H 0.67654 0.69727 0.40056 0.0
H1109 H 0.67531 0.74003 0.4119 0.0
C1110 C 0.63703 0.76443 0.4245 0.0
C1111 C 0.61537 0.7748 0.42947 0.0
C1112 C 0.63892 0.73926 0.4217 0.0
C1113 C 0.59614 0.75963 0.43398 0.0
C1114 C 0.59803 0.73458 0.43191 0.0
C1115 C 0.62015 0.69968 0.41909 0.0
C1116 C 0.64048 0.68987 0.40926 0.0
C1117 C 0.61908 0.72433 0.42482 0.0
C1118 C 0.66059 0.70442 0.40785 0.0
C1119 C 0.65985 0.72892 0.41419 0.0
H1120 H 0.0542 0.88759 0.09638 0.0
H1121 H 0.05928 0.85198 0.16579 0.0
H1122 H 0.01766 0.85657 0.17195 0.0
H1123 H 0.97942 0.86732 0.15602 0.0
H1124 H 0.97419 0.90176 0.08603 0.0
H1125 H 0.0163 0.90111 0.08182 0.0
C1126 C 0.04628 0.88113 0.11301 0.0
C1127 C 0.05981 0.86925 0.13049 0.0
C1128 C 0.02226 0.88342 0.11626 0.0
C1129 C 0.04925 0.86104 0.15196 0.0
C1130 C 0.02543 0.8636 0.15548 0.0
C1131 C 0.98749 0.87494 0.13995 0.0
C1132 C 0.97363 0.88435 0.12127 0.0
C1133 C 0.01169 0.87422 0.13749 0.0
C1134 C 0.9844 0.89424 0.10063 0.0
C1135 C 0.0085 0.89386 0.09818 0.0
H1136 H 0.67251 0.92454 0.70226 0.0
H1137 H 0.61601 0.87858 0.67792 0.0
H1138 H 0.60232 0.87443 0.71959 0.0
H1139 H 0.60584 0.88469 0.76278 0.0
H1140 H 0.66217 0.93106 0.78682 0.0
H1141 H 0.67643 0.93419 0.74536 0.0
C1142 C 0.65726 0.91351 0.70604 0.0
C1143 C 0.64529 0.90193 0.68697 0.0
C1144 C 0.64938 0.91135 0.72998 0.0
C1145 C 0.62555 0.88773 0.69224 0.0
C1146 C 0.61768 0.88536 0.71607 0.0
C1147 C 0.62126 0.89546 0.75897 0.0
C1148 C 0.63286 0.90768 0.77789 0.0
C1149 C 0.62936 0.89725 0.73505 0.0
C1150 C 0.65285 0.92151 0.77262 0.0
C1151 C 0.66104 0.92331 0.7489 0.0
H1152 H 0.88854 0.8913 0.47827 0.0
H1153 H 0.83864 0.83285 0.4849 0.0
H1154 H 0.8233 0.84196 0.44471 0.0
H1155 H 0.82298 0.86761 0.40838 0.0
H1156 H 0.87381 0.92507 0.40105 0.0
H1157 H 0.88993 0.91518 0.44073 0.0
C1158 C 0.87436 0.88051 0.47087 0.0
C1159 C 0.86462 0.86158 0.48462 0.0
C1160 C 0.86577 0.88569 0.44764 0.0
C1161 C 0.84645 0.84755 0.47468 0.0
C1162 C 0.83762 0.85278 0.45172 0.0
C1163 C 0.83765 0.87788 0.41544 0.0
C1164 C 0.84708 0.89713 0.4019 0.0
C1165 C 0.84697 0.87197 0.43816 0.0
C1166 C 0.86626 0.91013 0.41112 0.0
C1167 C 0.87544 0.90455 0.43385 0.0
H1168 H 0.87819 0.1474 0.18143 0.0
H1169 H 0.87556 0.06936 0.18594 0.0
H1170 H 0.89407 0.0709 0.2256 0.0
H1171 H 0.90816 0.0942 0.26012 0.0
H1172 H 0.90987 0.17229 0.25702 0.0
H1173 H 0.89479 0.17091 0.21552 0.0
C1174 C 0.88195 0.13074 0.19098 0.0
C1175 C 0.87531 0.10832 0.18085 0.0
C1176 C 0.89228 0.13175 0.21405 0.0
C1177 C 0.88027 0.08687 0.19343 0.0
C1178 C 0.89086 0.08772 0.21612 0.0
C1179 C 0.90541 0.11097 0.25037 0.0
C1180 C 0.9099 0.13332 0.26175 0.0
C1181 C 0.89646 0.11005 0.2268 0.0
C1182 C 0.90645 0.15483 0.24871 0.0
C1183 C 0.89777 0.15405 0.22501 0.0
H1184 H 0.66112 0.15151 0.95651 0.0
H1185 H 0.58792 0.15064 0.93997 0.0
H1186 H 0.57979 0.17 0.97899 0.0
H1187 H 0.59352 0.18511 0.01866 0.0
H1188 H 0.66698 0.18563 0.0344 0.0
H1189 H 0.67492 0.16853 0.99465 0.0
C1190 C 0.64335 0.15556 0.96138 0.0
C1191 C 0.62511 0.14939 0.94553 0.0
C1192 C 0.63886 0.1666 0.98369 0.0
C1193 C 0.60225 0.15514 0.95193 0.0
C1194 C 0.5976 0.16616 0.97424 0.0
C1195 C 0.61128 0.18166 0.01333 0.0
C1196 C 0.6296 0.18645 0.02961 0.0
C1197 C 0.61577 0.17167 0.9904 0.0
C1198 C 0.65252 0.18199 0.02233 0.0
C1199 C 0.65711 0.17217 -0.0004 0.0
H1200 H 0.68352 0.10547 0.79951 0.0
H1201 H 0.62052 0.13489 0.82904 0.0
H1202 H 0.60592 0.14212 0.78807 0.0
H1203 H 0.61051 0.13858 0.74388 0.0
H1204 H 0.67375 0.10914 0.71477 0.0
H1205 H 0.68878 0.10349 0.75564 0.0
C1206 C 0.66662 0.11354 0.79702 0.0
C1207 C 0.65307 0.11949 0.81728 0.0
C1208 C 0.65834 0.11758 0.7735 0.0
C1209 C 0.63129 0.13012 0.81373 0.0
C1210 C 0.62291 0.13421 0.79032 0.0
C1211 C 0.62761 0.13101 0.74648 0.0
C1212 C 0.64091 0.12416 0.72629 0.0
C1213 C 0.63619 0.12777 0.77007 0.0
C1214 C 0.6631 0.11452 0.72997 0.0
C1215 C 0.67173 0.11124 0.75334 0.0
H1216 H 0.60097 0.84559 0.51055 0.0
H1217 H 0.61231 0.90425 0.46008 0.0
H1218 H 0.6333 0.92711 0.49111 0.0
H1219 H 0.65011 0.92962 0.53179 0.0
H1220 H 0.63915 0.87095 0.58229 0.0
H1221 H 0.61635 0.84892 0.55194 0.0
C1222 C 0.60781 0.86348 0.5064 0.0
C1223 C 0.60516 0.87312 0.48299 0.0
C1224 C 0.62012 0.87644 0.52423 0.0
C1225 C 0.61416 0.89634 0.47793 0.0
C1226 C 0.62623 0.90942 0.49564 0.0
C1227 C 0.64273 0.91202 0.53619 0.0
C1228 C 0.6465 0.90186 0.55918 0.0
C1229 C 0.62964 0.89947 0.51871 0.0
C1230 C 0.63661 0.87914 0.56467 0.0
C1231 C 0.62355 0.86653 0.54734 0.0
H1232 H 0.84418 0.88769 0.28582 0.0
H1233 H 0.7764 0.87006 0.25704 0.0
H1234 H 0.79406 0.85563 0.21949 0.0
H1235 H 0.82859 0.85047 0.19397 0.0
H1236 H 0.89597 0.87095 0.2219 0.0
H1237 H 0.87864 0.88168 0.26079 0.0
C1238 C 0.83326 0.88045 0.27145 0.0
C1239 C 0.80901 0.87995 0.27419 0.0
C1240 C 0.84347 0.87279 0.24975 0.0
C1241 C 0.79511 0.87072 0.25531 0.0
C1242 C 0.80519 0.86247 0.23386 0.0
C1243 C 0.8395 0.85698 0.20869 0.0
C1244 C 0.86351 0.8599 0.20513 0.0
C1245 C 0.82933 0.86376 0.23075 0.0
C1246 C 0.87742 0.86864 0.22422 0.0
C1247 C 0.86753 0.87478 0.24643 0.0
H1248 H 0.86887 0.14207 0.98302 0.0
H1249 H 0.9398 0.11875 0.9898 0.0
H1250 H 0.93217 0.10548 0.03143 0.0
H1251 H 0.90459 0.09871 0.06512 0.0
H1252 H 0.83364 0.12185 0.05701 0.0
H1253 H 0.84216 0.13699 0.01661 0.0
C1254 C 0.88276 0.13417 0.99356 0.0
C1255 C 0.90483 0.13124 0.98324 0.0
C1256 C 0.87822 0.12646 0.01723 0.0
C1257 C 0.92263 0.12117 0.9973 0.0
C1258 C 0.91826 0.11353 0.02108 0.0
C1259 C 0.89106 0.10722 0.05456 0.0
C1260 C 0.86847 0.10896 0.06404 0.0
C1261 C 0.89601 0.11581 0.03112 0.0
C1262 C 0.85114 0.12008 0.05013 0.0
C1263 C 0.85597 0.12878 0.027 0.0
H1264 H 0.76712 0.59131 0.88825 0.0
H1265 H 0.77732 0.65983 0.85198 0.0
H1266 H 0.73771 0.67135 0.86191 0.0
H1267 H 0.70054 0.66245 0.88175 0.0
H1268 H 0.69055 0.59416 0.91852 0.0
H1269 H 0.72974 0.58211 0.90748 0.0
C1270 C 0.76067 0.60873 0.8824 0.0
C1271 C 0.77521 0.62469 0.86942 0.0
C1272 C 0.73793 0.61533 0.88832 0.0
C1273 C 0.76654 0.6472 0.86203 0.0
C1274 C 0.74388 0.65383 0.86771 0.0
C1275 C 0.70689 0.64489 0.8873 0.0
C1276 C 0.69262 0.62926 0.90099 0.0
C1277 C 0.72949 0.63811 0.88099 0.0
C1278 C 0.70116 0.60658 0.90802 0.0
C1279 C 0.72358 0.59966 0.90171 0.0
H1280 H 0.25657 0.89041 0.17821 0.0
H1281 H 0.26833 0.91658 0.10549 0.0
H1282 H 0.22756 0.90995 0.09565 0.0
H1283 H 0.18951 0.89376 0.10645 0.0
H1284 H 0.1775 0.86574 0.17842 0.0
H1285 H 0.21735 0.87636 0.18987 0.0
C1286 C 0.25012 0.89495 0.16033 0.0
C1287 C 0.2655 0.90377 0.14256 0.0
C1288 C 0.22665 0.89065 0.1546 0.0
C1289 C 0.25691 0.90952 0.11943 0.0
C1290 C 0.23358 0.90576 0.11377 0.0
C1291 C 0.19546 0.89017 0.12474 0.0
C1292 C 0.18058 0.87877 0.14147 0.0
C1293 C 0.21844 0.89585 0.13103 0.0
C1294 C 0.18862 0.8744 0.16512 0.0
C1295 C 0.21143 0.8804 0.17167 0.0
H1296 H 0.83735 0.50299 0.81932 0.0
H1297 H 0.8625 0.51878 0.89147 0.0
H1298 H 0.87867 0.47831 0.89438 0.0
H1299 H 0.88832 0.4396 0.8753 0.0
H1300 H 0.86379 0.42412 0.80285 0.0
H1301 H 0.84462 0.46319 0.80136 0.0
C1302 C 0.84616 0.49751 0.83578 0.0
C1303 C 0.84888 0.51399 0.85502 0.0
C1304 C 0.85567 0.47428 0.83727 0.0
C1305 C 0.86025 0.50652 0.87628 0.0
C1306 C 0.86956 0.48337 0.87798 0.0
C1307 C 0.87858 0.44465 0.85928 0.0
C1308 C 0.87773 0.42905 0.83915 0.0
C1309 C 0.86778 0.46728 0.8584 0.0
C1310 C 0.86491 0.43585 0.81857 0.0
C1311 C 0.85394 0.45822 0.81766 0.0
H1312 H 0.24444 0.07418 0.6098 0.0
H1313 H 0.24072 0.10979 0.67929 0.0
H1314 H 0.28314 0.11181 0.68131 0.0
H1315 H 0.32101 0.10697 0.66127 0.0
H1316 H 0.32407 0.07117 0.59169 0.0
H1317 H 0.28218 0.06538 0.592 0.0
C1318 C 0.25292 0.08222 0.62548 0.0
C1319 C 0.23954 0.09217 0.64418 0.0
C1320 C 0.27718 0.0833 0.6265 0.0
C1321 C 0.2507 0.10211 0.6646 0.0
C1322 C 0.27493 0.10332 0.66573 0.0
C1323 C 0.31257 0.09752 0.64638 0.0
C1324 C 0.32566 0.08985 0.62634 0.0
C1325 C 0.28833 0.09447 0.6465 0.0
C1326 C 0.31443 0.0775 0.60726 0.0
C1327 C 0.29043 0.07423 0.60735 0.0
H1328 H 0.16114 0.99388 0.8747 0.0
H1329 H 0.09989 0.9761 0.8328 0.0
H1330 H 0.09149 0.01889 0.82815 0.0
H1331 H 0.10168 0.06112 0.83513 0.0
H1332 H 0.16278 0.07988 0.87675 0.0
H1333 H 0.17103 0.03685 0.88242 0.0
C1334 C 0.14593 -0.00062 0.86461 0.0
C1335 C 0.13122 0.98176 0.85406 0.0
C1336 C 0.14118 0.02415 0.86192 0.0
C1337 C 0.11156 0.98921 0.84108 0.0
C1338 C 0.10672 0.01371 0.83838 0.0
C1339 C 0.11683 0.0559 0.84549 0.0
C1340 C 0.13165 0.07373 0.85542 0.0
C1341 C 0.12146 0.03129 0.8486 0.0
C1342 C 0.1511 0.06653 0.86888 0.0
C1343 C 0.15584 0.04193 0.8721 0.0
H1344 H 0.77018 0.36618 0.39833 0.0
H1345 H 0.75431 0.32169 0.33594 0.0
H1346 H 0.71426 0.33594 0.33639 0.0
H1347 H 0.68358 0.36019 0.35536 0.0
H1348 H 0.6999 0.40369 0.41839 0.0
H1349 H 0.74003 0.3905 0.41683 0.0
C1350 C 0.75806 0.35966 0.38469 0.0
C1351 C 0.76524 0.34288 0.36713 0.0
C1352 C 0.73511 0.36763 0.38528 0.0
C1353 C 0.74923 0.33461 0.34968 0.0
C1354 C 0.72632 0.34271 0.34996 0.0
C1355 C 0.69593 0.3668 0.36874 0.0
C1356 C 0.68872 0.38285 0.38701 0.0
C1357 C 0.71903 0.35905 0.36783 0.0
C1358 C 0.70493 0.39126 0.40419 0.0
C1359 C 0.72792 0.38377 0.4033 0.0
H1360 H 0.84857 0.47811 0.60753 0.0
H1361 H 0.85985 0.45583 0.68158 0.0
H1362 H 0.88332 0.49207 0.68899 0.0
H1363 H 0.89962 0.53058 0.67498 0.0
H1364 H 0.88717 0.55414 0.60159 0.0
H1365 H 0.8653 0.51681 0.59334 0.0
C1366 C 0.85625 0.48115 0.62525 0.0
C1367 C 0.8524 0.46432 0.64398 0.0
C1368 C 0.86952 0.50223 0.62951 0.0
C1369 C 0.8624 0.46856 0.66688 0.0
C1370 C 0.87588 0.48926 0.67114 0.0
C1371 C 0.89231 0.52748 0.6571 0.0
C1372 C 0.89506 0.54508 0.63891 0.0
C1373 C 0.87942 0.50627 0.65265 0.0
C1374 C 0.88528 0.54087 0.61592 0.0
C1375 C 0.87275 0.51955 0.6112 0.0
H1376 H 0.59347 0.57565 0.16518 0.0
H1377 H 0.65373 0.55103 0.12626 0.0
H1378 H 0.63585 0.51102 0.12154 0.0
H1379 H 0.60399 0.48258 0.13011 0.0
H1380 H 0.54413 0.50697 0.16984 0.0
H1381 H 0.56092 0.54767 0.17229 0.0
C1382 C 0.6027 0.56158 0.15559 0.0
C1383 C 0.62498 0.5663 0.14624 0.0
C1384 C 0.59238 0.5386 0.15303 0.0
C1385 C 0.63661 0.54786 0.13375 0.0
C1386 C 0.62639 0.52498 0.13102 0.0
C1387 C 0.59447 0.49684 0.13909 0.0
C1388 C 0.57287 0.49169 0.14987 0.0
C1389 C 0.60439 0.52009 0.14079 0.0
C1390 C 0.56082 0.5104 0.16145 0.0
C1391 C 0.57044 0.53367 0.16293 0.0
H1392 H 0.67008 0.75187 0.87909 0.0
H1393 H 0.60184 0.74155 0.90986 0.0
H1394 H 0.59198 0.7831 0.89969 0.0
H1395 H 0.60182 0.82154 0.88013 0.0
H1396 H 0.66964 0.83184 0.84843 0.0
H1397 H 0.68058 0.79118 0.8611 0.0
C1398 C 0.65311 0.75876 0.88374 0.0
C1399 C 0.63669 0.74353 0.89506 0.0
C1400 C 0.64743 0.78264 0.87762 0.0
C1401 C 0.61479 0.75279 0.901 0.0
C1402 C 0.6091 0.77657 0.8952 0.0
C1403 C 0.61907 0.815 0.87614 0.0
C1404 C 0.63482 0.82968 0.86321 0.0
C1405 C 0.62516 0.79153 0.8832 0.0
C1406 C 0.65712 0.8209 0.85827 0.0
C1407 C 0.6634 0.79762 0.86547 0.0
H1408 H 0.49084 0.4002 0.14174 0.0
H1409 H 0.52418 0.34096 0.1051 0.0
H1410 H 0.48647 0.32255 0.09612 0.0
H1411 H 0.44425 0.32279 0.09936 0.0
H1412 H 0.41054 0.38098 0.1373 0.0
H1413 H 0.44821 0.40019 0.14532 0.0
C1414 C 0.48978 0.38339 0.13159 0.0
C1415 C 0.5102 0.37199 0.12398 0.0
C1416 C 0.46805 0.3726 0.12696 0.0
C1417 C 0.50867 0.35005 0.11116 0.0
C1418 C 0.48714 0.33949 0.10605 0.0
C1419 C 0.44511 0.33967 0.1094 0.0
C1420 C 0.42465 0.35043 0.11772 0.0
C1421 C 0.46675 0.3505 0.11403 0.0
C1422 C 0.42607 0.37225 0.1308 0.0
C1423 C 0.44759 0.3833 0.1353 0.0
H1424 H 0.85383 0.17504 0.34993 0.0
H1425 H 0.92382 0.17843 0.37788 0.0
H1426 H 0.91695 0.21893 0.39377 0.0
H1427 H 0.89181 0.25408 0.39799 0.0
H1428 H 0.82205 0.25115 0.36945 0.0
H1429 H 0.8281 0.20967 0.35568 0.0
C1430 C 0.86754 0.18456 0.35964 0.0
C1431 C 0.88934 0.17376 0.36257 0.0
C1432 C 0.86356 0.20794 0.36857 0.0
C1433 C 0.90689 0.18634 0.37526 0.0
C1434 C 0.903 0.20953 0.38435 0.0
C1435 C 0.87785 0.24434 0.38892 0.0
C1436 C 0.85656 0.25576 0.38466 0.0
C1437 C 0.8815 0.22061 0.38084 0.0
C1438 C 0.83865 0.24282 0.37291 0.0
C1439 C 0.8421 0.21911 0.36499 0.0
H1440 H 0.99064 0.64148 0.64583 0.0
H1441 H 0.98958 0.59055 0.58638 0.0
H1442 H 0.02956 0.60154 0.57636 0.0
H1443 H 0.06418 0.62688 0.58333 0.0
H1444 H 0.06503 0.67808 0.64255 0.0
H1445 H 0.02576 0.66562 0.6538 0.0
C1446 C -0.00082 0.63265 0.63076 0.0
C1447 C 0.98706 0.6153 0.61681 0.0
C1448 C 0.0221 0.63917 0.62498 0.0
C1449 C -0.00155 0.60401 0.5974 0.0
C1450 C 0.02132 0.61031 0.59162 0.0
C1451 C 0.05584 0.63525 0.59877 0.0
C1452 C 0.06752 0.65349 0.61198 0.0
C1453 C 0.0332 0.62808 0.6051 0.0
C1454 C 0.05645 0.66405 0.632 0.0
C1455 C 0.03397 0.65695 0.63845 0.0
H1456 H 0.6241 0.29321 0.63175 0.0
H1457 H 0.56367 0.27471 0.58891 0.0
H1458 H 0.56768 0.23222 0.6 0.0
H1459 H 0.58729 0.20068 0.62311 0.0
H1460 H 0.64753 0.21906 0.66629 0.0
H1461 H 0.64474 0.26126 0.65356 0.0
C1462 C 0.61184 0.27989 0.62477 0.0
C1463 C 0.59353 0.28716 0.60964 0.0
C1464 C 0.61421 0.25548 0.63124 0.0
C1465 C 0.57789 0.26963 0.60064 0.0
C1466 C 0.58016 0.24532 0.60698 0.0
C1467 C 0.59993 0.21386 0.62963 0.0
C1468 C 0.61751 0.20673 0.64575 0.0
C1469 C 0.59811 0.23809 0.62244 0.0
C1470 C 0.63378 0.22405 0.65392 0.0
C1471 C 0.63217 0.24821 0.6467 0.0
H1472 H 0.06909 0.38166 0.83425 0.0
H1473 H 0.04224 0.39436 0.90614 0.0
H1474 H 0.00291 0.39593 0.88994 0.0
H1475 H 0.97591 0.39006 0.85606 0.0
H1476 H 0.00261 0.37718 0.78417 0.0
H1477 H 0.04225 0.37953 0.79971 0.0
C1478 C 0.05468 0.38505 0.84635 0.0
C1479 C 0.0586 0.38756 0.87141 0.0
C1480 C 0.03206 0.38573 0.83697 0.0
C1481 C 0.03974 0.39221 0.88679 0.0
C1482 C 0.0172 0.39303 0.87757 0.0
C1483 C 0.9904 0.38795 0.84374 0.0
C1484 C 0.98631 0.38311 0.81906 0.0
C1485 C 0.01312 0.38921 0.85279 0.0
C1486 C 0.00527 0.38079 0.80328 0.0
C1487 C 0.02796 0.38207 0.81216 0.0
H1488 H 0.88111 0.71104 0.10006 0.0
H1489 H 0.95494 0.7013 0.0924 0.0
H1490 H 0.96168 0.74406 0.10153 0.0
H1491 H 0.94673 0.78383 0.11278 0.0
H1492 H 0.87288 0.79387 0.1198 0.0
H1493 H 0.86603 0.75132 0.10962 0.0
C1494 C 0.89867 0.71828 0.10036 0.0
C1495 C 0.9175 0.70301 0.09569 0.0
C1496 C 0.90242 0.7429 0.10547 0.0
C1497 C 0.94014 0.71269 0.09591 0.0
C1498 C 0.94402 0.73712 0.10117 0.0
C1499 C 0.92912 0.77675 0.11201 0.0
C1500 C 0.91036 0.79195 0.11717 0.0
C1501 C 0.92531 0.75233 0.10613 0.0
C1502 C 0.88764 0.78254 0.11589 0.0
C1503 C 0.8837 0.75821 0.11015 0.0
H1504 H 0.46075 0.61315 0.38555 0.0
H1505 H 0.46431 0.53537 0.37923 0.0
H1506 H 0.50569 0.5386 0.3696 0.0
H1507 H 0.54117 0.56362 0.36481 0.0
H1508 H 0.53692 0.64128 0.37251 0.0
H1509 H 0.49537 0.63791 0.37972 0.0
C1510 C 0.47047 0.59684 0.38197 0.0
C1511 C 0.45945 0.57404 0.38322 0.0
C1512 C 0.49416 0.59881 0.37676 0.0
C1513 C 0.47238 0.55315 0.37844 0.0
C1514 C 0.49604 0.55499 0.37297 0.0
C1515 C 0.5311 0.5798 0.36788 0.0
C1516 C 0.54215 0.60265 0.36821 0.0
C1517 C 0.50716 0.57773 0.37234 0.0
C1518 C 0.52889 0.62345 0.3723 0.0
C1519 C 0.50511 0.62156 0.37642 0.0
H1520 H 0.84357 0.60603 0.78794 0.0
H1521 H 0.91348 0.62414 0.8102 0.0
H1522 H 0.9249 0.62901 0.76784 0.0
H1523 H 0.91539 0.62641 0.72444 0.0
H1524 H 0.84537 0.60832 0.7025 0.0
H1525 H 0.83368 0.60522 0.74483 0.0
C1526 C 0.86129 0.61116 0.78358 0.0
C1527 C 0.87767 0.61456 0.80223 0.0
C1528 C 0.86776 0.61385 0.75923 0.0
C1529 C 0.90052 0.62136 0.79621 0.0
C1530 C 0.90708 0.6241 0.77198 0.0
C1531 C 0.89755 0.62189 0.72892 0.0
C1532 C 0.88133 0.61747 0.71031 0.0
C1533 C 0.89091 0.62011 0.75334 0.0
C1534 C 0.85824 0.61177 0.71643 0.0
C1535 C 0.85152 0.60996 0.74065 0.0
H1536 H 0.61553 0.63111 0.06754 0.0
H1537 H 0.66819 0.68409 0.08635 0.0
H1538 H 0.66895 0.69846 0.04447 0.0
H1539 H 0.65703 0.69359 0.00194 0.0
H1540 H 0.60563 0.63925 0.98311 0.0
H1541 H 0.60206 0.6278 0.02562 0.0
C1542 C 0.62694 0.64606 0.06261 0.0
C1543 C 0.64187 0.65641 0.08004 0.0
C1544 C 0.62773 0.65378 0.03842 0.0
C1545 C 0.65657 0.67572 0.07327 0.0
C1546 C 0.65709 0.68388 0.04931 0.0
C1547 C 0.64492 0.67937 0.00715 0.0
C1548 C 0.63177 0.66717 0.98933 0.0
C1549 C 0.64315 0.67264 0.03162 0.0
C1550 C 0.61611 0.64882 0.99641 0.0
C1551 C 0.61402 0.64227 0.02074 0.0
H1552 H 0.55761 0.42377 0.22714 0.0
H1553 H 0.58911 0.35355 0.22026 0.0
H1554 H 0.59449 0.35173 0.26412 0.0
H1555 H 0.59304 0.37147 0.30391 0.0
H1556 H 0.56174 0.44181 0.3107 0.0
H1557 H 0.55319 0.44198 0.26738 0.0
C1558 C 0.56553 0.40799 0.23524 0.0
C1559 C 0.57323 0.38897 0.22044 0.0
C1560 C 0.56861 0.40707 0.26044 0.0
C1561 C 0.58315 0.36851 0.23124 0.0
C1562 C 0.58626 0.36746 0.25632 0.0
C1563 C 0.5841 0.38672 0.29599 0.0
C1564 C 0.57829 0.40672 0.31049 0.0
C1565 C 0.57947 0.38684 0.27102 0.0
C1566 C 0.56652 0.42623 0.29995 0.0
C1567 C 0.5617 0.4264 0.27515 0.0
H1568 H 0.87303 0.39306 0.53794 0.0
H1569 H 0.80377 0.36411 0.54789 0.0
H1570 H 0.80503 0.34554 0.50792 0.0
H1571 H 0.82483 0.33906 0.46951 0.0
H1572 H 0.89382 0.36825 0.45872 0.0
H1573 H 0.89368 0.38493 0.49978 0.0
C1574 C 0.85826 0.38261 0.5314 0.0
C1575 C 0.83829 0.38016 0.54584 0.0
C1576 C 0.85902 0.372 0.50826 0.0
C1577 C 0.81933 0.36644 0.53713 0.0
C1578 C 0.82001 0.35577 0.51426 0.0
C1579 C 0.83994 0.34892 0.47615 0.0
C1580 C 0.85923 0.35253 0.461 0.0
C1581 C 0.83964 0.35867 0.49958 0.0
C1582 C 0.87869 0.36525 0.46998 0.0
C1583 C 0.87861 0.37486 0.49344 0.0
H1584 H 0.85518 0.33465 0.74779 0.0
H1585 H 0.9256 0.35892 0.73533 0.0
H1586 H 0.91642 0.36685 0.69288 0.0
H1587 H 0.8871 0.37237 0.66117 0.0
H1588 H 0.81608 0.35083 0.67471 0.0
H1589 H 0.82687 0.33609 0.7148 0.0
C1590 C 0.86866 0.34122 0.7357 0.0
C1591 C 0.89094 0.34654 0.74479 0.0
C1592 C 0.86308 0.34649 0.71156 0.0
C1593 C 0.90823 0.35493 0.72884 0.0
C1594 C 0.90298 0.35955 0.70458 0.0
C1595 C 0.87407 0.36401 0.67269 0.0
C1596 C 0.85078 0.36299 0.66512 0.0
C1597 C 0.88025 0.35625 0.696 0.0
C1598 C 0.83409 0.35208 0.68025 0.0
C1599 C 0.84023 0.34368 0.70319 0.0
H1600 H 0.85706 0.62285 0.93466 0.0
H1601 H 0.92078 0.58603 0.91823 0.0
H1602 H 0.93415 0.59223 0.95991 0.0
H1603 H 0.92621 0.60523 0.00188 0.0
H1604 H 0.86122 0.63984 0.01805 0.0
H1605 H 0.8499 0.6373 0.97562 0.0
C1606 C 0.87404 0.61648 0.94005 0.0
C1607 C 0.88786 0.60391 0.92341 0.0
C1608 C 0.88127 0.61943 0.96411 0.0
C1609 C 0.90976 0.59569 0.93075 0.0
C1610 C 0.91738 0.59914 0.95459 0.0
C1611 C 0.90966 0.61236 0.99605 0.0
C1612 C 0.89451 0.62249 0.01313 0.0
C1613 C 0.90303 0.6105 0.97158 0.0
C1614 C 0.87311 0.63168 0.00532 0.0
C1615 C 0.86663 0.63032 0.98104 0.0
H1616 H 0.61228 0.65617 0.29385 0.0
H1617 H 0.68215 0.63083 0.30477 0.0
H1618 H 0.69031 0.63623 0.26177 0.0
H1619 H 0.67674 0.64474 0.22081 0.0
H1620 H 0.60672 0.66911 0.20918 0.0
H1621 H 0.59963 0.66792 0.25291 0.0
C1622 C 0.62936 0.65202 0.28687 0.0
C1623 C 0.64649 0.6428 0.30247 0.0
C1624 C 0.6339 0.65496 0.26204 0.0
C1625 C 0.66858 0.63775 0.29316 0.0
C1626 C 0.67328 0.64082 0.26856 0.0
C1627 C 0.65996 0.65002 0.22781 0.0
C1628 C 0.64217 0.65669 0.21175 0.0
C1629 C 0.65592 0.64889 0.2528 0.0
C1630 C 0.62068 0.66384 0.22116 0.0
C1631 C 0.61658 0.66302 0.24614 0.0
H1632 H 0.55195 0.39038 0.52222 0.0
H1633 H 0.61672 0.3524 0.52893 0.0
H1634 H 0.62195 0.35385 0.48518 0.0
H1635 H 0.60965 0.36812 0.44551 0.0
H1636 H 0.54611 0.40812 0.43837 0.0
H1637 H 0.5387 0.40328 0.48177 0.0
C1638 C 0.56711 0.38228 0.51407 0.0
C1639 C 0.584 0.37148 0.52884 0.0
C1640 C 0.57023 0.38349 0.48884 0.0
C1641 C 0.60356 0.36105 0.51802 0.0
C1642 C 0.60656 0.3618 0.49298 0.0
C1643 C 0.59398 0.37551 0.45332 0.0
C1644 C 0.57849 0.38853 0.43873 0.0
C1645 C 0.5902 0.37328 0.47828 0.0
C1646 C 0.55835 0.39806 0.44923 0.0
C1647 C 0.55415 0.39538 0.47405 0.0
H1648 H 0.74463 0.85999 0.64182 0.0
H1649 H 0.75371 0.92411 0.59798 0.0
H1650 H 0.79162 0.91 0.58489 0.0
H1651 H 0.82089 0.87829 0.58367 0.0
H1652 H 0.81178 0.81389 0.62708 0.0
H1653 H 0.77523 0.82944 0.64271 0.0
C1654 C 0.75497 0.87098 0.62956 0.0
C1655 C 0.74622 0.89296 0.62072 0.0
C1656 C 0.7767 0.86269 0.62194 0.0
C1657 C 0.75995 0.90706 0.60498 0.0
C1658 C 0.78162 0.899 0.59744 0.0
C1659 C 0.81102 0.8677 0.59669 0.0
C1660 C 0.81895 0.84485 0.604 0.0
C1661 C 0.78996 0.87665 0.60546 0.0
C1662 C 0.80604 0.8315 0.62106 0.0
C1663 C 0.7851 0.84035 0.62997 0.0
H1664 H 0.26238 0.5434 0.3457 0.0
H1665 H 0.24442 0.51567 0.41641 0.0
H1666 H 0.28505 0.5182 0.42883 0.0
H1667 H 0.32467 0.5325 0.42112 0.0
H1668 H 0.34204 0.56356 0.35165 0.0
H1669 H 0.30271 0.55513 0.33704 0.0
C1670 C 0.26741 0.53754 0.36369 0.0
C1671 C 0.25042 0.52953 0.38018 0.0
C1672 C 0.29068 0.53975 0.37094 0.0
C1673 C 0.25717 0.52211 0.40347 0.0
C1674 C 0.28039 0.52354 0.41058 0.0
C1675 C 0.32001 0.53698 0.40261 0.0
C1676 C 0.33619 0.54873 0.3875 0.0
C1677 C 0.29717 0.53295 0.39469 0.0
C1678 C 0.32983 0.55459 0.36364 0.0
C1679 C 0.30733 0.54987 0.35533 0.0
H1680 H 0.60341 0.06775 0.6227 0.0
H1681 H 0.67438 0.09326 0.62089 0.0
H1682 H 0.68764 0.05183 0.61403 0.0
H1683 H 0.67911 0.00792 0.61336 0.0
H1684 H 0.60782 0.98311 0.6162 0.0
H1685 H 0.59467 0.02478 0.61786 0.0
C1686 C 0.62178 0.0643 0.62048 0.0
C1687 C 0.63792 0.08343 0.62264 0.0
C1688 C 0.62923 0.04054 0.61705 0.0
C1689 C 0.66162 0.0788 0.61933 0.0
C1690 C 0.66921 0.0551 0.61561 0.0
C1691 C 0.6607 0.01165 0.61409 0.0
C1692 C 0.64451 0.9924 0.61506 0.0
C1693 C 0.65319 0.03574 0.61522 0.0
C1694 C 0.62069 -0.00246 0.61571 0.0
C1695 C 0.61312 0.02138 0.61665 0.0
H1696 H 0.19079 0.42714 0.89142 0.0
H1697 H 0.18961 0.37557 0.83261 0.0
H1698 H 0.23104 0.38272 0.82564 0.0
H1699 H 0.26821 0.40086 0.83884 0.0
H1700 H 0.26944 0.44967 0.89998 0.0
H1701 H 0.22733 0.44642 0.90345 0.0
C1702 C 0.19948 0.41778 0.87678 0.0
C1703 C 0.18718 0.40087 0.86254 0.0
C1704 C 0.22337 0.42129 0.87351 0.0
C1705 C 0.19875 0.38866 0.84384 0.0
C1706 C 0.22243 0.39268 0.83991 0.0
C1707 C 0.25919 0.411 0.85271 0.0
C1708 C 0.27186 0.42538 0.8692 0.0
C1709 C 0.23503 0.40851 0.85503 0.0
C1710 C 0.26004 0.4383 0.88721 0.0
C1711 C 0.23598 0.4365 0.88918 0.0
H1712 H 0.36891 0.39648 0.63275 0.0
H1713 H 0.30756 0.3949 0.67752 0.0
H1714 H 0.29958 0.4369 0.66679 0.0
H1715 H 0.3117 0.47494 0.64714 0.0
H1716 H 0.37373 0.47643 0.60333 0.0
H1717 H 0.37969 0.43356 0.61125 0.0
C1718 C 0.35364 0.40519 0.63998 0.0
C1719 C 0.33896 0.39259 0.65607 0.0
C1720 C 0.34937 0.42942 0.63407 0.0
C1721 C 0.31921 0.40419 0.66517 0.0
C1722 C 0.31467 0.42824 0.65911 0.0
C1723 C 0.32642 0.46584 0.63916 0.0
C1724 C 0.34235 0.47896 0.62484 0.0
C1725 C 0.3299 0.44118 0.64397 0.0
C1726 C 0.36127 0.46685 0.61457 0.0
C1727 C 0.36471 0.44231 0.61907 0.0
H1728 H 0.78923 0.16947 0.12646 0.0
H1729 H 0.75472 0.10093 0.13939 0.0
H1730 H 0.71719 0.12099 0.13961 0.0
H1731 H 0.69408 0.15734 0.13255 0.0
H1732 H 0.72872 0.2256 0.11844 0.0
H1733 H 0.76634 0.20628 0.12256 0.0
C1734 C 0.77353 0.15892 0.12953 0.0
C1735 C 0.77476 0.13371 0.1326 0.0
C1736 C 0.75203 0.1705 0.12936 0.0
C1737 C 0.75426 0.12035 0.13681 0.0
C1738 C 0.73278 0.1318 0.13691 0.0
C1739 C 0.70985 0.16808 0.13071 0.0
C1740 C 0.70858 0.19283 0.12493 0.0
C1741 C 0.73144 0.15677 0.13267 0.0
C1742 C 0.72919 0.20648 0.1227 0.0
C1743 C 0.75072 0.19544 0.12499 0.0
H1744 H 0.66153 0.02769 0.90043 0.0
H1745 H 0.59145 0.04777 0.88213 0.0
H1746 H 0.5808 0.00528 0.87691 0.0
H1747 H 0.59199 0.96287 0.87446 0.0
H1748 H 0.66201 0.94233 0.89221 0.0
H1749 H 0.67195 0.98458 0.90109 0.0
C1750 C 0.64388 0.02276 0.8955 0.0
C1751 C 0.62739 0.04092 0.8914 0.0
C1752 C 0.63785 -0.00176 0.89239 0.0
C1753 C 0.60454 0.0342 0.88524 0.0
C1754 C 0.59841 0.00989 0.88222 0.0
C1755 C 0.60939 0.96757 0.88048 0.0
C1756 C 0.62631 0.94953 0.88239 0.0
C1757 C 0.61503 0.99183 0.88527 0.0
C1758 C 0.64867 0.95588 0.89053 0.0
C1759 C 0.6544 0.98006 0.89549 0.0
H1760 H 0.87106 0.05282 0.33056 0.0
H1761 H 0.87155 0.06277 0.40817 0.0
H1762 H 0.8459 0.02743 0.41288 0.0
H1763 H 0.8252 0.99241 0.39488 0.0
H1764 H 0.82554 0.98296 0.31713 0.0
H1765 H 0.84891 0.01964 0.31259 0.0
C1766 C 0.86556 0.04733 0.34855 0.0
C1767 C 0.87341 0.06023 0.36901 0.0
C1768 C 0.85095 0.02711 0.35109 0.0
C1769 C 0.86583 0.05307 0.39214 0.0
C1770 C 0.85119 0.03287 0.39483 0.0
C1771 C 0.83016 -0.00146 0.37693 0.0
C1772 C 0.82377 0.98486 0.35639 0.0
C1773 C 0.84388 0.01957 0.37443 0.0
C1774 C 0.83034 0.99304 0.33326 0.0
C1775 C 0.84375 0.014 0.33062 0.0
H1776 H 0.3474 0.25862 0.13921 0.0
H1777 H 0.378 0.24614 0.06898 0.0
H1778 H 0.38831 0.20518 0.0811 0.0
H1779 H 0.39183 0.17441 0.11279 0.0
H1780 H 0.36128 0.18668 0.18306 0.0
H1781 H 0.34747 0.22612 0.16963 0.0
C1782 C 0.35613 0.24685 0.12648 0.0
C1783 C 0.36221 0.25554 0.10335 0.0
C1784 C 0.36208 0.22333 0.13359 0.0
C1785 C 0.37322 0.23996 0.08693 0.0
C1786 C 0.37919 0.21655 0.09387 0.0
C1787 C 0.38192 0.18559 0.1251 0.0
C1788 C 0.37785 0.17777 0.14899 0.0
C1789 C 0.3742 0.20828 0.11733 0.0
C1790 C 0.36472 0.1923 0.1646 0.0
C1791 C 0.35691 0.21492 0.15697 0.0
H1792 H 0.57501 0.65253 0.85919 0.0
H1793 H 0.57089 0.58908 0.90468 0.0
H1794 H 0.534 0.57755 0.8858 0.0
H1795 H 0.50101 0.58793 0.85952 0.0
H1796 H 0.5047 0.65256 0.8157 0.0
H1797 H 0.5438 0.66101 0.83061 0.0
C1798 C 0.56621 0.63602 0.86483 0.0
C1799 C 0.57556 0.62187 0.88355 0.0
C1800 C 0.54485 0.62976 0.85426 0.0
C1801 C 0.564 0.60042 0.89043 0.0
C1802 C 0.54287 0.59383 0.87968 0.0
C1803 C 0.51055 0.60361 0.8529 0.0
C1804 C 0.49989 0.61971 0.83671 0.0
C1805 C 0.53284 0.60872 0.86203 0.0
C1806 C 0.51244 0.64 0.82834 0.0
C1807 C 0.53478 0.64488 0.83689 0.0
H1808 H 0.11378 0.74392 0.57789 0.0
H1809 H 0.1834 0.74304 0.60673 0.0
H1810 H 0.1786 0.78405 0.62251 0.0
H1811 H 0.15347 0.81887 0.63082 0.0
H1812 H 0.08386 0.81925 0.60168 0.0
H1813 H 0.08994 0.77981 0.58323 0.0
C1814 C 0.12799 0.75275 0.58746 0.0
C1815 C 0.14881 0.74035 0.59136 0.0
C1816 C 0.12508 0.77622 0.59656 0.0
C1817 C 0.16715 0.75217 0.60353 0.0
C1818 C 0.16439 0.77559 0.61264 0.0
C1819 C 0.13971 0.81043 0.62024 0.0
C1820 C 0.11816 0.82191 0.61793 0.0
C1821 C 0.14326 0.7876 0.60969 0.0
C1822 C 0.10059 0.81079 0.60396 0.0
C1823 C 0.10401 0.78818 0.59339 0.0
H1824 H 0.9694 0.34285 0.31563 0.0
H1825 H 0.97133 0.40129 0.36763 0.0
H1826 H 0.9297 0.39627 0.37466 0.0
H1827 H 0.89373 0.37288 0.3687 0.0
H1828 H 0.89198 0.31427 0.31681 0.0
H1829 H 0.93256 0.32211 0.30673 0.0
C1830 C 0.96069 0.35459 0.3284 0.0
C1831 C 0.97347 0.37216 0.34138 0.0
C1832 C 0.93682 0.35161 0.33233 0.0
C1833 C 0.96189 0.38753 0.35752 0.0
C1834 C 0.9381 0.38465 0.36157 0.0
C1835 C 0.90211 0.36203 0.35492 0.0
C1836 C 0.88992 0.34281 0.34375 0.0
C1837 C 0.92552 0.3664 0.34946 0.0
C1838 C 0.90097 0.3291 0.32577 0.0
C1839 C 0.92423 0.33348 0.32009 0.0
H1840 H 0.37095 0.75243 0.39484 0.0
H1841 H 0.30851 0.74231 0.35254 0.0
H1842 H 0.30916 0.69883 0.36086 0.0
H1843 H 0.3294 0.66333 0.37733 0.0
H1844 H 0.39285 0.67399 0.4179 0.0
H1845 H 0.3898 0.71765 0.41303 0.0
C1846 C 0.35729 0.74082 0.38763 0.0
C1847 C 0.33981 0.75061 0.37292 0.0
C1848 C 0.35808 0.71586 0.39198 0.0
C1849 C 0.32224 0.73524 0.36383 0.0
C1850 C 0.32264 0.71036 0.36851 0.0
C1851 C 0.34243 0.67523 0.3853 0.0
C1852 C 0.36143 0.66539 0.39776 0.0
C1853 C 0.34079 0.7004 0.3821 0.0
C1854 C 0.37817 0.68106 0.40799 0.0
C1855 C 0.37644 0.70605 0.40526 0.0
H1856 H 0.02858 0.58707 0.13364 0.0
H1857 H 0.03096 0.64954 0.18074 0.0
H1858 H 0.98933 0.65509 0.17537 0.0
H1859 H 0.95296 0.64395 0.1552 0.0
H1860 H 0.95086 0.58317 0.10599 0.0
H1861 H 0.99168 0.57501 0.11453 0.0
C1862 C 0.01994 0.60176 0.14292 0.0
C1863 C 0.03285 0.61793 0.15748 0.0
C1864 C 0.99609 0.60516 0.13935 0.0
C1865 C 0.02144 0.63695 0.16928 0.0
C1866 C 0.99764 0.64012 0.16626 0.0
C1867 C 0.96131 0.62868 0.14661 0.0
C1868 C 0.94892 0.61417 0.13 0.0
C1869 C 0.98488 0.62457 0.15104 0.0
C1870 C 0.96006 0.59462 0.11883 0.0
C1871 C 0.9834 0.59 0.12365 0.0
H1872 H 0.17207 0.27838 0.86014 0.0
H1873 H 0.1042 0.28606 0.89208 0.0
H1874 H 0.09618 0.24314 0.88553 0.0
H1875 H 0.10698 0.20443 0.86771 0.0
H1876 H 0.17399 0.19679 0.83391 0.0
H1877 H 0.18391 0.23861 0.84457 0.0
C1878 C 0.15563 0.2706 0.86592 0.0
C1879 C 0.13868 0.28546 0.87636 0.0
C1880 C 0.15093 0.24594 0.86171 0.0
C1881 C 0.11747 0.27509 0.88377 0.0
C1882 C 0.11286 0.25053 0.88006 0.0
C1883 C 0.12389 0.21175 0.86292 0.0
C1884 C 0.13963 0.19754 0.84983 0.0
C1885 C 0.12925 0.23592 0.86857 0.0
C1886 C 0.16149 0.20737 0.84386 0.0
C1887 C 0.16715 0.23131 0.84989 0.0
H1888 H 0.5319 0.33595 0.66528 0.0
H1889 H 0.52978 0.39862 0.61867 0.0
H1890 H 0.48785 0.40109 0.6243 0.0
H1891 H 0.45154 0.38374 0.64017 0.0
H1892 H 0.45371 0.32003 0.68538 0.0
H1893 H 0.49591 0.31972 0.68256 0.0
C1894 C 0.52234 0.35036 0.6566 0.0
C1895 C 0.53395 0.36703 0.64153 0.0
C1896 C 0.49821 0.35134 0.65946 0.0
C1897 C 0.52125 0.38551 0.63032 0.0
C1898 C 0.49727 0.38689 0.63347 0.0
C1899 C 0.46124 0.36988 0.64955 0.0
C1900 C 0.44946 0.35184 0.66281 0.0
C1901 C 0.48551 0.36962 0.64761 0.0
C1902 C 0.46232 0.33404 0.67488 0.0
C1903 C 0.48647 0.33385 0.67332 0.0
H1904 H 0.05731 0.35047 0.24614 0.0
H1905 H 0.06572 0.42622 0.26395 0.0
H1906 H 0.08273 0.43391 0.22421 0.0
H1907 H 0.09757 0.41869 0.18564 0.0
H1908 H 0.08888 0.34314 0.16735 0.0
H1909 H 0.06938 0.33584 0.20604 0.0
C1910 C 0.06272 0.36869 0.24125 0.0
C1911 C 0.06049 0.3877 0.25806 0.0
C1912 C 0.07248 0.373 0.21837 0.0
C1913 C 0.0673 0.41126 0.25138 0.0
C1914 C 0.0771 0.41567 0.22868 0.0
C1915 C 0.09129 0.40065 0.19005 0.0
C1916 C 0.09489 0.38142 0.17383 0.0
C1917 C 0.08014 0.39661 0.21224 0.0
C1918 C 0.08634 0.35823 0.17959 0.0
C1919 C 0.07528 0.35402 0.20173 0.0
H1920 H 0.34875 0.38275 0.95427 0.0
H1921 H 0.39264 0.44363 0.9737 0.0
H1922 H 0.39519 0.42872 0.0152 0.0
H1923 H 0.38334 0.39968 0.0464 0.0
H1924 H 0.33979 0.33852 0.02716 0.0
H1925 H 0.33879 0.35227 0.98506 0.0
C1926 C 0.359 0.39268 0.96754 0.0
C1927 C 0.37032 0.41439 0.96092 0.0
C1928 C 0.36035 0.38405 0.99141 0.0
C1929 C 0.3837 0.42692 0.97829 0.0
C1930 C 0.38511 0.41845 0.00206 0.0
C1931 C 0.37366 0.38931 0.033 0.0
C1932 C 0.36145 0.36827 0.03993 0.0
C1933 C 0.37322 0.39726 0.00889 0.0
C1934 C 0.34927 0.35485 0.02229 0.0
C1935 C 0.34866 0.36271 -0.00177 0.0
H1936 H 0.36797 0.58846 0.68236 0.0
H1937 H 0.30679 0.56682 0.72229 0.0
H1938 H 0.32255 0.58563 0.75886 0.0
H1939 H 0.35388 0.60726 0.7797 0.0
H1940 H 0.41582 0.62782 0.74059 0.0
H1941 H 0.39944 0.61052 0.70336 0.0
C1942 C 0.35806 0.58791 0.69905 0.0
C1943 C 0.33625 0.57621 0.6996 0.0
C1944 C 0.36731 0.5986 0.72011 0.0
C1945 C 0.32366 0.5756 0.72138 0.0
C1946 C 0.33263 0.5864 0.7423 0.0
C1947 C 0.36376 0.60817 0.76301 0.0
C1948 C 0.38601 0.61887 0.7629 0.0
C1949 C 0.35445 0.59785 0.74188 0.0
C1950 C 0.39864 0.61968 0.74114 0.0
C1951 C 0.38931 0.60976 0.71988 0.0
H1952 H 0.12819 0.62933 0.50387 0.0
H1953 H 0.18617 0.67861 0.49469 0.0
H1954 H 0.1972 0.65762 0.45753 0.0
H1955 H 0.19215 0.62334 0.42949 0.0
H1956 H 0.13484 0.57338 0.43975 0.0
H1957 H 0.12179 0.59667 0.47461 0.0
C1958 C 0.14309 0.63569 0.49362 0.0
C1959 C 0.15644 0.6554 0.50217 0.0
C1960 C 0.14959 0.62329 0.47255 0.0
C1961 C 0.17565 0.6634 0.4886 0.0
C1962 C 0.18202 0.65137 0.46737 0.0
C1963 C 0.17669 0.61766 0.43922 0.0
C1964 C 0.16464 0.59651 0.43214 0.0
C1965 C 0.16941 0.63097 0.45947 0.0
C1966 C 0.14458 0.58946 0.44491 0.0
C1967 C 0.13708 0.60277 0.46486 0.0
H1968 H 0.16668 0.59315 0.23249 0.0
H1969 H 0.10512 0.63364 0.24934 0.0
H1970 H 0.10909 0.62313 0.29209 0.0
H1971 H 0.12872 0.60048 0.32428 0.0
H1972 H 0.18987 0.55943 0.30708 0.0
H1973 H 0.18736 0.57223 0.26491 0.0
C1974 C 0.15422 0.59986 0.24552 0.0
C1975 C 0.13555 0.61402 0.23768 0.0
C1976 C 0.15644 0.59354 0.27002 0.0
C1977 C 0.11961 0.62261 0.25485 0.0
C1978 C 0.12183 0.61658 0.27931 0.0
C1979 C 0.14159 0.59446 0.31135 0.0
C1980 C 0.15933 0.57887 0.31882 0.0
C1981 C 0.13997 0.60173 0.28704 0.0
C1982 C 0.17592 0.57132 0.30182 0.0
C1983 C 0.17452 0.57863 0.27768 0.0
H1984 H 0.15965 0.41705 0.02952 0.0
H1985 H 0.11354 0.36529 0.06359 0.0
H1986 H 0.10363 0.34818 0.02396 0.0
H1987 H 0.10832 0.34783 0.97959 0.0
H1988 H 0.15411 0.40029 0.94596 0.0
H1989 H 0.16384 0.41718 0.98551 0.0
C1990 C 0.14743 0.40201 0.02832 0.0
C1991 C 0.13741 0.39242 0.04946 0.0
C1992 C 0.14175 0.39237 0.00554 0.0
C1993 C 0.1215 0.37303 0.04756 0.0
C1994 C 0.11584 0.36321 0.02491 0.0
C1995 C 0.12043 0.36294 0.98093 0.0
C1996 C 0.13048 0.37272 0.95984 0.0
C1997 C 0.1259 0.37272 0.00378 0.0
C1998 C 0.14606 0.3924 0.96188 0.0
C1999 C 0.15169 0.40209 0.9845 0.0
H2000 H 0.338 0.3555 0.82772 0.0
H2001 H 0.3903 0.41202 0.83079 0.0
H2002 H 0.40329 0.40149 0.79018 0.0
H2003 H 0.39812 0.37839 0.7529 0.0
H2004 H 0.34538 0.32246 0.7487 0.0
H2005 H 0.33432 0.33053 0.79074 0.0
C2006 C 0.35244 0.36526 0.81962 0.0
C2007 C 0.36306 0.38461 0.83221 0.0
C2008 C 0.35961 0.35939 0.79601 0.0
C2009 C 0.38171 0.39716 0.82143 0.0
C2010 C 0.38914 0.39119 0.79819 0.0
C2011 C 0.38427 0.36784 0.76116 0.0
C2012 C 0.37246 0.35001 0.74761 0.0
C2013 C 0.37791 0.3727 0.78515 0.0
C2014 C 0.3547 0.33637 0.75872 0.0
C2015 C 0.34835 0.34099 0.78274 0.0
H2016 H 0.38911 0.62971 0.49959 0.0
H2017 H 0.38293 0.55513 0.47658 0.0
H2018 H 0.36952 0.54355 0.51685 0.0
H2019 H 0.35712 0.55488 0.55758 0.0
H2020 H 0.36232 0.62948 0.58064 0.0
H2021 H 0.37868 0.64071 0.54133 0.0
C2022 C 0.38508 0.61088 0.50345 0.0
C2023 C 0.38687 0.59336 0.48504 0.0
C2024 C 0.37705 0.60436 0.52657 0.0
C2025 C 0.38159 0.56903 0.49037 0.0
C2026 C 0.37387 0.56237 0.51338 0.0
C2027 C 0.36193 0.5736 0.5541 0.0
C2028 C 0.35829 0.59135 0.57194 0.0
C2029 C 0.37112 0.57995 0.53146 0.0
C2030 C 0.36483 0.61546 0.56717 0.0
C2031 C 0.37416 0.62191 0.54469 0.0
H2032 H 0.20584 0.1406 0.36165 0.0
H2033 H 0.18401 0.07043 0.33494 0.0
H2034 H 0.22449 0.05852 0.33083 0.0
H2035 H 0.2658 0.06686 0.33801 0.0
H2036 H 0.28744 0.13677 0.36561 0.0
H2037 H 0.24722 0.15001 0.36592 0.0
C2038 C 0.2099 0.12275 0.35475 0.0
C2039 C 0.19192 0.10632 0.3489 0.0
C2040 C 0.23316 0.11594 0.35266 0.0
C2041 C 0.19751 0.08338 0.33972 0.0
C2042 C 0.22065 0.07653 0.3374 0.0
C2043 C 0.26178 0.08509 0.34385 0.0
C2044 C 0.27959 0.1007 0.35204 0.0
C2045 C 0.23859 0.09249 0.34431 0.0
C2046 C 0.27406 0.12432 0.35937 0.0
C2047 C 0.25105 0.1319 0.35961 0.0
H2048 H 0.73735 0.39408 0.67128 0.0
H2049 H 0.74087 0.42758 0.60068 0.0
H2050 H 0.69885 0.42421 0.59664 0.0
H2051 H 0.66195 0.40743 0.61089 0.0
H2052 H 0.65841 0.37204 0.68055 0.0
H2053 H 0.69951 0.38088 0.68738 0.0
C2054 C 0.72889 0.401 0.65519 0.0
C2055 C 0.74227 0.41075 0.63617 0.0
C2056 C 0.70472 0.39853 0.65273 0.0
C2057 C 0.73102 0.41973 0.61548 0.0
C2058 C 0.70698 0.41779 0.61313 0.0
C2059 C 0.67004 0.40196 0.62775 0.0
C2060 C 0.65718 0.38876 0.64501 0.0
C2061 C 0.69377 0.40654 0.63129 0.0
C2062 C 0.66793 0.38204 0.66685 0.0
C2063 C 0.69148 0.387 0.67074 0.0
H2064 H 0.31813 0.89872 0.33976 0.0
H2065 H 0.34858 0.88231 0.40925 0.0
H2066 H 0.34849 0.92527 0.42 0.0
H2067 H 0.34335 0.96784 0.40791 0.0
H2068 H 0.31524 0.98378 0.33718 0.0
H2069 H 0.31085 0.9407 0.32871 0.0
C2070 C 0.32434 0.90444 0.35745 0.0
C2071 C 0.33341 0.88735 0.37363 0.0
C2072 C 0.32498 0.92918 0.36316 0.0
C2073 C 0.34155 0.89514 0.39642 0.0
C2074 C 0.34161 0.91971 0.40254 0.0
C2075 C 0.33604 0.96186 0.39076 0.0
C2076 C 0.32985 0.979 0.37313 0.0
C2077 C 0.33397 0.93696 0.38577 0.0
C2078 C 0.32041 0.97098 0.35098 0.0
C2079 C 0.31782 0.94633 0.34611 0.0
H2080 H 0.82494 0.66021 0.15389 0.0
H2081 H 0.82221 0.59576 0.10956 0.0
H2082 H 0.7806 0.59184 0.11686 0.0
H2083 H 0.74451 0.60873 0.13284 0.0
H2084 H 0.74724 0.6739 0.17614 0.0
H2085 H 0.78935 0.67543 0.17224 0.0
C2086 C 0.81534 0.6451 0.14609 0.0
C2087 C 0.82665 0.62845 0.13101 0.0
C2088 C 0.79135 0.64322 0.14995 0.0
C2089 C 0.81391 0.60894 0.12111 0.0
C2090 C 0.79009 0.60672 0.12521 0.0
C2091 C 0.75432 0.62317 0.14159 0.0
C2092 C 0.7427 0.64132 0.15452 0.0
C2093 C 0.77854 0.6241 0.13909 0.0
C2094 C 0.75571 0.65979 0.16589 0.0
C2095 C 0.77981 0.6607 0.16369 0.0
H2096 H 0.64654 0.56023 0.36405 0.0
H2097 H 0.60667 0.55356 0.42996 0.0
H2098 H 0.60879 0.50952 0.42738 0.0
H2099 H 0.61865 0.47309 0.40432 0.0
H2100 H 0.65773 0.47985 0.33791 0.0
H2101 H 0.65918 0.52377 0.34282 0.0
C2102 C 0.6386 0.54919 0.37807 0.0
C2103 C 0.62623 0.56019 0.39702 0.0
C2104 C 0.63946 0.52391 0.37622 0.0
C2105 C 0.6162 0.54558 0.41511 0.0
C2106 C 0.61729 0.52038 0.41358 0.0
C2107 C 0.62761 0.48415 0.39098 0.0
C2108 C 0.63779 0.47324 0.37061 0.0
C2109 C 0.62829 0.50938 0.39384 0.0
C2110 C 0.6496 0.4878 0.35367 0.0
C2111 C 0.65044 0.51292 0.35646 0.0
H2112 H 0.24159 0.8874 0.82372 0.0
H2113 H 0.2317 0.90931 0.89814 0.0
H2114 H 0.2722 0.90075 0.90704 0.0
H2115 H 0.30996 0.88571 0.89424 0.0
H2116 H 0.32 0.8629 0.82015 0.0
H2117 H 0.27992 0.87329 0.8106 0.0
C2118 C 0.24831 0.89043 0.84185 0.0
C2119 C 0.23356 0.8989 0.86023 0.0
C2120 C 0.27163 0.88527 0.84694 0.0
C2121 C 0.2426 0.90271 0.88364 0.0
C2122 C 0.26578 0.89782 0.88877 0.0
C2123 C 0.30347 0.88313 0.87594 0.0
C2124 C 0.31797 0.87347 0.85796 0.0
C2125 C 0.28038 0.8889 0.87064 0.0
C2126 C 0.30921 0.87025 0.83437 0.0
C2127 C 0.28628 0.87616 0.82888 0.0
H2128 H 0.38323 0.97225 0.12616 0.0
H2129 H 0.31691 0.99662 0.09989 0.0
H2130 H 0.33067 0.03859 0.1015 0.0
H2131 H 0.36053 0.06845 0.11331 0.0
H2132 H 0.42679 0.04384 0.13965 0.0
H2133 H 0.41409 0.00187 0.13478 0.0
C2134 C 0.37181 0.98673 0.12065 0.0
C2135 C 0.34899 0.98134 0.11322 0.0
C2136 C 0.3798 0.01078 0.12167 0.0
C2137 C 0.33453 0.00028 0.1058 0.0
C2138 C 0.34237 0.02429 0.10676 0.0
C2139 C 0.3723 0.05392 0.11774 0.0
C2140 C 0.39448 0.05932 0.12709 0.0
C2141 C 0.36483 0.02978 0.1151 0.0
C2142 C 0.40957 0.04024 0.13253 0.0
C2143 C 0.4023 0.0162 0.12984 0.0
H2144 H 0.14489 0.9335 0.5955 0.0
H2145 H 0.08592 0.95936 0.63578 0.0
H2146 H 0.0992 0.00097 0.6303 0.0
H2147 H 0.12846 0.02985 0.6162 0.0
H2148 H 0.18802 0.00457 0.5766 0.0
H2149 H 0.17346 0.96293 0.57953 0.0
C2150 C 0.13485 0.94825 0.60289 0.0
C2151 C 0.11453 0.94327 0.61618 0.0
C2152 C 0.14271 0.97224 0.59989 0.0
C2153 C 0.10171 0.96262 0.62561 0.0
C2154 C 0.10928 0.98646 0.6225 0.0
C2155 C 0.13824 0.01528 0.60806 0.0
C2156 C 0.15939 0.02032 0.59636 0.0
C2157 C 0.12991 0.99144 0.61002 0.0
C2158 C 0.17172 0.00121 0.58579 0.0
C2159 C 0.16342 0.97737 0.5875 0.0
loop_
_geom_bond_atom_site_label_1
_geom_bond_atom_site_label_2
_geom_bond_distance
_geom_bond_site_symmetry_2
_ccdc_geom_bond_type
C0 O1 1.160 . S
C0 O7 1.185 . S
O1 C0 1.160 . S
O2 Zn3 1.899 . S
O2 C10 1.284 . S
Zn3 O2 1.899 . S
Zn3 O4 2.032 . S
Zn3 O7 2.086 . S
Zn3 O12 1.977 . S
O4 Zn3 2.032 . S
O4 C8 1.278 . S
C5 O6 1.203 . S
C5 O12 1.267 . S
O6 C5 1.203 . S
O7 C0 1.185 . S
O7 Zn3 2.086 . S
C8 O4 1.278 . S
C8 O9 1.211 . S
O9 C8 1.211 . S
C10 O2 1.284 . S
C10 O11 1.273 . S
O11 C10 1.273 . S
O12 Zn3 1.977 . S
O12 C5 1.267 . S
C13 O14 1.160 . S
C13 O20 1.185 . S
O14 C13 1.160 . S
O15 Zn16 1.899 . S
O15 C23 1.284 . S
Zn16 O15 1.899 . S
Zn16 O17 2.032 . S
Zn16 O20 2.086 . S
Zn16 O25 1.977 . S
O17 Zn16 2.032 . S
O17 C21 1.278 . S
C18 O19 1.203 . S
C18 O25 1.267 . S
O19 C18 1.203 . S
O20 C13 1.185 . S
O20 Zn16 2.086 . S
C21 O17 1.278 . S
C21 O22 1.211 . S
O22 C21 1.211 . S
C23 O15 1.284 . S
C23 O24 1.273 . S
O24 C23 1.273 . S
O25 Zn16 1.977 . S
O25 C18 1.267 . S
C26 O27 1.160 . S
C26 O33 1.185 . S
O27 C26 1.160 . S
O28 Zn29 1.899 . S
O28 C36 1.284 . S
Zn29 O28 1.899 . S
Zn29 O30 2.032 . S
Zn29 O33 2.086 . S
Zn29 O38 1.977 . S
O30 Zn29 2.032 . S
O30 C34 1.278 . S
C31 O32 1.203 . S
C31 O38 1.267 . S
O32 C31 1.203 . S
O33 C26 1.185 . S
O33 Zn29 2.086 . S
C34 O30 1.278 . S
C34 O35 1.211 . S
O35 C34 1.211 . S
C36 O28 1.284 . S
C36 O37 1.273 . S
O37 C36 1.273 . S
O38 Zn29 1.977 . S
O38 C31 1.267 . S
C39 O40 1.160 . S
C39 O46 1.185 . S
O40 C39 1.160 . S
O41 Zn42 1.899 . S
O41 C49 1.284 . S
Zn42 O41 1.899 . S
Zn42 O43 2.032 . S
Zn42 O46 2.086 . S
Zn42 O51 1.977 . S
O43 Zn42 2.032 . S
O43 C47 1.278 . S
C44 O45 1.203 . S
C44 O51 1.267 . S
O45 C44 1.203 . S
O46 C39 1.185 . S
O46 Zn42 2.086 . S
C47 O43 1.278 . S
C47 O48 1.211 . S
O48 C47 1.211 . S
C49 O41 1.284 . S
C49 O50 1.273 . S
O50 C49 1.273 . S
O51 Zn42 1.977 . S
O51 C44 1.267 . S
C52 O53 1.160 . S
C52 O59 1.185 . S
O53 C52 1.160 . S
O54 Zn55 1.899 . S
O54 C62 1.284 . S
Zn55 O54 1.899 . S
Zn55 O56 2.032 . S
Zn55 O59 2.086 . S
Zn55 O64 1.977 . S
O56 Zn55 2.032 . S
O56 C60 1.278 . S
C57 O58 1.203 . S
C57 O64 1.267 . S
O58 C57 1.203 . S
O59 C52 1.185 . S
O59 Zn55 2.086 . S
C60 O56 1.278 . S
C60 O61 1.211 . S
O61 C60 1.211 . S
C62 O54 1.284 . S
C62 O63 1.273 . S
O63 C62 1.273 . S
O64 Zn55 1.977 . S
O64 C57 1.267 . S
C65 O66 1.160 . S
C65 O72 1.185 . S
O66 C65 1.160 . S
O67 Zn68 1.899 . S
O67 C75 1.284 . S
Zn68 O67 1.899 . S
Zn68 O69 2.032 . S
Zn68 O72 2.086 . S
Zn68 O77 1.977 . S
O69 Zn68 2.032 . S
O69 C73 1.278 . S
C70 O71 1.203 . S
C70 O77 1.267 . S
O71 C70 1.203 . S
O72 C65 1.185 . S
O72 Zn68 2.086 . S
C73 O69 1.278 . S
C73 O74 1.211 . S
O74 C73 1.211 . S
C75 O67 1.284 . S
C75 O76 1.273 . S
O76 C75 1.273 . S
O77 Zn68 1.977 . S
O77 C70 1.267 . S
C78 O79 1.160 . S
C78 O85 1.185 . S
O79 C78 1.160 . S
O80 Zn81 1.899 . S
O80 C88 1.284 . S
Zn81 O80 1.899 . S
Zn81 O82 2.032 . S
Zn81 O85 2.086 . S
Zn81 O90 1.977 . S
O82 Zn81 2.032 . S
O82 C86 1.278 . S
C83 O84 1.203 . S
C83 O90 1.267 . S
O84 C83 1.203 . S
O85 C78 1.185 . S
O85 Zn81 2.086 . S
C86 O82 1.278 . S
C86 O87 1.211 . S
O87 C86 1.211 . S
C88 O80 1.284 . S
C88 O89 1.273 . S
O89 C88 1.273 . S
O90 Zn81 1.977 . S
O90 C83 1.267 . S
C91 O92 1.160 . S
C91 O98 1.185 . S
O92 C91 1.160 . S
O93 Zn94 1.899 . S
O93 C101 1.284 . S
Zn94 O93 1.899 . S
Zn94 O95 2.032 . S
Zn94 O98 2.086 . S
Zn94 O103 1.977 . S
O95 Zn94 2.032 . S
O95 C99 1.278 . S
C96 O97 1.203 . S
C96 O103 1.267 . S
O97 C96 1.203 . S
O98 C91 1.185 . S
O98 Zn94 2.086 . S
C99 O95 1.278 . S
C99 O100 1.211 . S
O100 C99 1.211 . S
C101 O93 1.284 . S
C101 O102 1.273 . S
O102 C101 1.273 . S
O103 Zn94 1.977 . S
O103 C96 1.267 . S
C104 O105 1.160 . S
C104 O111 1.185 . S
O105 C104 1.160 . S
O106 Zn107 1.899 . S
O106 C114 1.284 . S
Zn107 O106 1.899 . S
Zn107 O108 2.032 . S
Zn107 O111 2.086 . S
Zn107 O116 1.977 . S
O108 Zn107 2.032 . S
O108 C112 1.278 . S
C109 O110 1.203 . S
C109 O116 1.267 . S
O110 C109 1.203 . S
O111 C104 1.185 . S
O111 Zn107 2.086 . S
C112 O108 1.278 . S
C112 O113 1.211 . S
O113 C112 1.211 . S
C114 O106 1.284 . S
C114 O115 1.273 . S
O115 C114 1.273 . S
O116 Zn107 1.977 . S
O116 C109 1.267 . S
C117 O118 1.160 . S
C117 O124 1.185 . S
O118 C117 1.160 . S
O119 Zn120 1.899 . S
O119 C127 1.284 . S
Zn120 O119 1.899 . S
Zn120 O121 2.032 . S
Zn120 O124 2.086 . S
Zn120 O129 1.977 . S
O121 Zn120 2.032 . S
O121 C125 1.278 . S
C122 O123 1.203 . S
C122 O129 1.267 . S
O123 C122 1.203 . S
O124 C117 1.185 . S
O124 Zn120 2.086 . S
C125 O121 1.278 . S
C125 O126 1.211 . S
O126 C125 1.211 . S
C127 O119 1.284 . S
C127 O128 1.273 . S
O128 C127 1.273 . S
O129 Zn120 1.977 . S
O129 C122 1.267 . S
C130 O131 1.160 . S
C130 O137 1.185 . S
O131 C130 1.160 . S
O132 Zn133 1.899 . S
O132 C140 1.284 . S
Zn133 O132 1.899 . S
Zn133 O134 2.032 . S
Zn133 O137 2.086 . S
Zn133 O142 1.977 . S
O134 Zn133 2.032 . S
O134 C138 1.278 . S
C135 O136 1.203 . S
C135 O142 1.267 . S
O136 C135 1.203 . S
O137 C130 1.185 . S
O137 Zn133 2.086 . S
C138 O134 1.278 . S
C138 O139 1.211 . S
O139 C138 1.211 . S
C140 O132 1.284 . S
C140 O141 1.273 . S
O141 C140 1.273 . S
O142 Zn133 1.977 . S
O142 C135 1.267 . S
C143 O144 1.160 . S
C143 O150 1.185 . S
O144 C143 1.160 . S
O145 Zn146 1.899 . S
O145 C153 1.284 . S
Zn146 O145 1.899 . S
Zn146 O147 2.032 . S
Zn146 O150 2.086 . S
Zn146 O155 1.977 . S
O147 Zn146 2.032 . S
O147 C151 1.278 . S
C148 O149 1.203 . S
C148 O155 1.267 . S
O149 C148 1.203 . S
O150 C143 1.185 . S
O150 Zn146 2.086 . S
C151 O147 1.278 . S
C151 O152 1.211 . S
O152 C151 1.211 . S
C153 O145 1.284 . S
C153 O154 1.273 . S
O154 C153 1.273 . S
O155 Zn146 1.977 . S
O155 C148 1.267 . S
C156 O157 1.160 . S
C156 O163 1.185 . S
O157 C156 1.160 . S
O158 Zn159 1.899 . S
O158 C166 1.284 . S
Zn159 O158 1.899 . S
Zn159 O160 2.032 . S
Zn159 O163 2.086 . S
Zn159 O168 1.977 . S
O160 Zn159 2.032 . S
O160 C164 1.278 . S
C161 O162 1.203 . S
C161 O168 1.267 . S
O162 C161 1.203 . S
O163 C156 1.185 . S
O163 Zn159 2.086 . S
C164 O160 1.278 . S
C164 O165 1.211 . S
O165 C164 1.211 . S
C166 O158 1.284 . S
C166 O167 1.273 . S
O167 C166 1.273 . S
O168 Zn159 1.977 . S
O168 C161 1.267 . S
C169 O170 1.160 . S
C169 O176 1.185 . S
O170 C169 1.160 . S
O171 Zn172 1.899 . S
O171 C179 1.284 . S
Zn172 O171 1.899 . S
Zn172 O173 2.032 . S
Zn172 O176 2.086 . S
Zn172 O181 1.977 . S
O173 Zn172 2.032 . S
O173 C177 1.278 . S
C174 O175 1.203 . S
C174 O181 1.267 . S
O175 C174 1.203 . S
O176 C169 1.185 . S
O176 Zn172 2.086 . S
C177 O173 1.278 . S
C177 O178 1.211 . S
O178 C177 1.211 . S
C179 O171 1.284 . S
C179 O180 1.273 . S
O180 C179 1.273 . S
O181 Zn172 1.977 . S
O181 C174 1.267 . S
C182 O183 1.160 . S
C182 O189 1.185 . S
O183 C182 1.160 . S
O184 Zn185 1.899 . S
O184 C192 1.284 . S
Zn185 O184 1.899 . S
Zn185 O186 2.032 . S
Zn185 O189 2.086 . S
Zn185 O194 1.977 . S
O186 Zn185 2.032 . S
O186 C190 1.278 . S
C187 O188 1.203 . S
C187 O194 1.267 . S
O188 C187 1.203 . S
O189 C182 1.185 . S
O189 Zn185 2.086 . S
C190 O186 1.278 . S
C190 O191 1.211 . S
O191 C190 1.211 . S
C192 O184 1.284 . S
C192 O193 1.273 . S
O193 C192 1.273 . S
O194 Zn185 1.977 . S
O194 C187 1.267 . S
C195 O196 1.160 . S
C195 O202 1.185 . S
O196 C195 1.160 . S
O197 Zn198 1.899 . S
O197 C205 1.284 . S
Zn198 O197 1.899 . S
Zn198 O199 2.032 . S
Zn198 O202 2.086 . S
Zn198 O207 1.977 . S
O199 Zn198 2.032 . S
O199 C203 1.278 . S
C200 O201 1.203 . S
C200 O207 1.267 . S
O201 C200 1.203 . S
O202 C195 1.185 . S
O202 Zn198 2.086 . S
C203 O199 1.278 . S
C203 O204 1.211 . S
O204 C203 1.211 . S
C205 O197 1.284 . S
C205 O206 1.273 . S
O206 C205 1.273 . S
O207 Zn198 1.977 . S
O207 C200 1.267 . S
C208 O209 1.160 . S
C208 O215 1.185 . S
O209 C208 1.160 . S
O210 Zn211 1.899 . S
O210 C218 1.284 . S
Zn211 O210 1.899 . S
Zn211 O212 2.032 . S
Zn211 O215 2.086 . S
Zn211 O220 1.977 . S
O212 Zn211 2.032 . S
O212 C216 1.278 . S
C213 O214 1.203 . S
C213 O220 1.267 . S
O214 C213 1.203 . S
O215 C208 1.185 . S
O215 Zn211 2.086 . S
C216 O212 1.278 . S
C216 O217 1.211 . S
O217 C216 1.211 . S
C218 O210 1.284 . S
C218 O219 1.273 . S
O219 C218 1.273 . S
O220 Zn211 1.977 . S
O220 C213 1.267 . S
C221 O222 1.160 . S
C221 O228 1.185 . S
O222 C221 1.160 . S
O223 Zn224 1.899 . S
O223 C231 1.284 . S
Zn224 O223 1.899 . S
Zn224 O225 2.032 . S
Zn224 O228 2.086 . S
Zn224 O233 1.977 . S
O225 Zn224 2.032 . S
O225 C229 1.278 . S
C226 O227 1.203 . S
C226 O233 1.267 . S
O227 C226 1.203 . S
O228 C221 1.185 . S
O228 Zn224 2.086 . S
C229 O225 1.278 . S
C229 O230 1.211 . S
O230 C229 1.211 . S
C231 O223 1.284 . S
C231 O232 1.273 . S
O232 C231 1.273 . S
O233 Zn224 1.977 . S
O233 C226 1.267 . S
C234 O235 1.160 . S
C234 O241 1.185 . S
O235 C234 1.160 . S
O236 Zn237 1.899 . S
O236 C244 1.284 . S
Zn237 O236 1.899 . S
Zn237 O238 2.032 . S
Zn237 O241 2.086 . S
Zn237 O246 1.977 . S
O238 Zn237 2.032 . S
O238 C242 1.278 . S
C239 O240 1.203 . S
C239 O246 1.267 . S
O240 C239 1.203 . S
O241 C234 1.185 . S
O241 Zn237 2.086 . S
C242 O238 1.278 . S
C242 O243 1.211 . S
O243 C242 1.211 . S
C244 O236 1.284 . S
C244 O245 1.273 . S
O245 C244 1.273 . S
O246 Zn237 1.977 . S
O246 C239 1.267 . S
C247 O248 1.160 . S
C247 O254 1.185 . S
O248 C247 1.160 . S
O249 Zn250 1.899 . S
O249 C257 1.284 . S
Zn250 O249 1.899 . S
Zn250 O251 2.032 . S
Zn250 O254 2.086 . S
Zn250 O259 1.977 . S
O251 Zn250 2.032 . S
O251 C255 1.278 . S
C252 O253 1.203 . S
C252 O259 1.267 . S
O253 C252 1.203 . S
O254 C247 1.185 . S
O254 Zn250 2.086 . S
C255 O251 1.278 . S
C255 O256 1.211 . S
O256 C255 1.211 . S
C257 O249 1.284 . S
C257 O258 1.273 . S
O258 C257 1.273 . S
O259 Zn250 1.977 . S
O259 C252 1.267 . S
C260 O261 1.160 . S
C260 O267 1.185 . S
O261 C260 1.160 . S
O262 Zn263 1.899 . S
O262 C270 1.284 . S
Zn263 O262 1.899 . S
Zn263 O264 2.032 . S
Zn263 O267 2.086 . S
Zn263 O272 1.977 . S
O264 Zn263 2.032 . S
O264 C268 1.278 . S
C265 O266 1.203 . S
C265 O272 1.267 . S
O266 C265 1.203 . S
O267 C260 1.185 . S
O267 Zn263 2.086 . S
C268 O264 1.278 . S
C268 O269 1.211 . S
O269 C268 1.211 . S
C270 O262 1.284 . S
C270 O271 1.273 . S
O271 C270 1.273 . S
O272 Zn263 1.977 . S
O272 C265 1.267 . S
C273 O274 1.160 . S
C273 O280 1.185 . S
O274 C273 1.160 . S
O275 Zn276 1.899 . S
O275 C283 1.284 . S
Zn276 O275 1.899 . S
Zn276 O277 2.032 . S
Zn276 O280 2.086 . S
Zn276 O285 1.977 . S
O277 Zn276 2.032 . S
O277 C281 1.278 . S
C278 O279 1.203 . S
C278 O285 1.267 . S
O279 C278 1.203 . S
O280 C273 1.185 . S
O280 Zn276 2.086 . S
C281 O277 1.278 . S
C281 O282 1.211 . S
O282 C281 1.211 . S
C283 O275 1.284 . S
C283 O284 1.273 . S
O284 C283 1.273 . S
O285 Zn276 1.977 . S
O285 C278 1.267 . S
C286 O287 1.160 . S
C286 O293 1.185 . S
O287 C286 1.160 . S
O288 Zn289 1.899 . S
O288 C296 1.284 . S
Zn289 O288 1.899 . S
Zn289 O290 2.032 . S
Zn289 O293 2.086 . S
Zn289 O298 1.977 . S
O290 Zn289 2.032 . S
O290 C294 1.278 . S
C291 O292 1.203 . S
C291 O298 1.267 . S
O292 C291 1.203 . S
O293 C286 1.185 . S
O293 Zn289 2.086 . S
C294 O290 1.278 . S
C294 O295 1.211 . S
O295 C294 1.211 . S
C296 O288 1.284 . S
C296 O297 1.273 . S
O297 C296 1.273 . S
O298 Zn289 1.977 . S
O298 C291 1.267 . S
C299 O300 1.160 . S
C299 O306 1.185 . S
O300 C299 1.160 . S
O301 Zn302 1.899 . S
O301 C309 1.284 . S
Zn302 O301 1.899 . S
Zn302 O303 2.032 . S
Zn302 O306 2.086 . S
Zn302 O311 1.977 . S
O303 Zn302 2.032 . S
O303 C307 1.278 . S
C304 O305 1.203 . S
C304 O311 1.267 . S
O305 C304 1.203 . S
O306 C299 1.185 . S
O306 Zn302 2.086 . S
C307 O303 1.278 . S
C307 O308 1.211 . S
O308 C307 1.211 . S
C309 O301 1.284 . S
C309 O310 1.273 . S
O310 C309 1.273 . S
O311 Zn302 1.977 . S
O311 C304 1.267 . S
C312 O313 1.160 . S
C312 O319 1.185 . S
O313 C312 1.160 . S
O314 Zn315 1.899 . S
O314 C322 1.284 . S
Zn315 O314 1.899 . S
Zn315 O316 2.032 . S
Zn315 O319 2.086 . S
Zn315 O324 1.977 . S
O316 Zn315 2.032 . S
O316 C320 1.278 . S
C317 O318 1.203 . S
C317 O324 1.267 . S
O318 C317 1.203 . S
O319 C312 1.185 . S
O319 Zn315 2.086 . S
C320 O316 1.278 . S
C320 O321 1.211 . S
O321 C320 1.211 . S
C322 O314 1.284 . S
C322 O323 1.273 . S
O323 C322 1.273 . S
O324 Zn315 1.977 . S
O324 C317 1.267 . S
C325 O326 1.160 . S
C325 O332 1.185 . S
O326 C325 1.160 . S
O327 Zn328 1.899 . S
O327 C335 1.284 . S
Zn328 O327 1.899 . S
Zn328 O329 2.032 . S
Zn328 O332 2.086 . S
Zn328 O337 1.977 . S
O329 Zn328 2.032 . S
O329 C333 1.278 . S
C330 O331 1.203 . S
C330 O337 1.267 . S
O331 C330 1.203 . S
O332 C325 1.185 . S
O332 Zn328 2.086 . S
C333 O329 1.278 . S
C333 O334 1.211 . S
O334 C333 1.211 . S
C335 O327 1.284 . S
C335 O336 1.273 . S
O336 C335 1.273 . S
O337 Zn328 1.977 . S
O337 C330 1.267 . S
C338 O339 1.160 . S
C338 O345 1.185 . S
O339 C338 1.160 . S
O340 Zn341 1.899 . S
O340 C348 1.284 . S
Zn341 O340 1.899 . S
Zn341 O342 2.032 . S
Zn341 O345 2.086 . S
Zn341 O350 1.977 . S
O342 Zn341 2.032 . S
O342 C346 1.278 . S
C343 O344 1.203 . S
C343 O350 1.267 . S
O344 C343 1.203 . S
O345 C338 1.185 . S
O345 Zn341 2.086 . S
C346 O342 1.278 . S
C346 O347 1.211 . S
O347 C346 1.211 . S
C348 O340 1.284 . S
C348 O349 1.273 . S
O349 C348 1.273 . S
O350 Zn341 1.977 . S
O350 C343 1.267 . S
C351 O352 1.160 . S
C351 O358 1.185 . S
O352 C351 1.160 . S
O353 Zn354 1.899 . S
O353 C361 1.284 . S
Zn354 O353 1.899 . S
Zn354 O355 2.032 . S
Zn354 O358 2.086 . S
Zn354 O363 1.977 . S
O355 Zn354 2.032 . S
O355 C359 1.278 . S
C356 O357 1.203 . S
C356 O363 1.267 . S
O357 C356 1.203 . S
O358 C351 1.185 . S
O358 Zn354 2.086 . S
C359 O355 1.278 . S
C359 O360 1.211 . S
O360 C359 1.211 . S
C361 O353 1.284 . S
C361 O362 1.273 . S
O362 C361 1.273 . S
O363 Zn354 1.977 . S
O363 C356 1.267 . S
C364 O365 1.160 . S
C364 O371 1.185 . S
O365 C364 1.160 . S
O366 Zn367 1.899 . S
O366 C374 1.284 . S
Zn367 O366 1.899 . S
Zn367 O368 2.032 . S
Zn367 O371 2.086 . S
Zn367 O376 1.977 . S
O368 Zn367 2.032 . S
O368 C372 1.278 . S
C369 O370 1.203 . S
C369 O376 1.267 . S
O370 C369 1.203 . S
O371 C364 1.185 . S
O371 Zn367 2.086 . S
C372 O368 1.278 . S
C372 O373 1.211 . S
O373 C372 1.211 . S
C374 O366 1.284 . S
C374 O375 1.273 . S
O375 C374 1.273 . S
O376 Zn367 1.977 . S
O376 C369 1.267 . S
C377 O378 1.160 . S
C377 O384 1.185 . S
O378 C377 1.160 . S
O379 Zn380 1.899 . S
O379 C387 1.284 . S
Zn380 O379 1.899 . S
Zn380 O381 2.032 . S
Zn380 O384 2.086 . S
Zn380 O389 1.977 . S
O381 Zn380 2.032 . S
O381 C385 1.278 . S
C382 O383 1.203 . S
C382 O389 1.267 . S
O383 C382 1.203 . S
O384 C377 1.185 . S
O384 Zn380 2.086 . S
C385 O381 1.278 . S
C385 O386 1.211 . S
O386 C385 1.211 . S
C387 O379 1.284 . S
C387 O388 1.273 . S
O388 C387 1.273 . S
O389 Zn380 1.977 . S
O389 C382 1.267 . S
C390 O391 1.160 . S
C390 O397 1.185 . S
O391 C390 1.160 . S
O392 Zn393 1.899 . S
O392 C400 1.284 . S
Zn393 O392 1.899 . S
Zn393 O394 2.032 . S
Zn393 O397 2.086 . S
Zn393 O402 1.977 . S
O394 Zn393 2.032 . S
O394 C398 1.278 . S
C395 O396 1.203 . S
C395 O402 1.267 . S
O396 C395 1.203 . S
O397 C390 1.185 . S
O397 Zn393 2.086 . S
C398 O394 1.278 . S
C398 O399 1.211 . S
O399 C398 1.211 . S
C400 O392 1.284 . S
C400 O401 1.273 . S
O401 C400 1.273 . S
O402 Zn393 1.977 . S
O402 C395 1.267 . S
C403 O404 1.160 . S
C403 O410 1.185 . S
O404 C403 1.160 . S
O405 Zn406 1.899 . S
O405 C413 1.284 . S
Zn406 O405 1.899 . S
Zn406 O407 2.032 . S
Zn406 O410 2.086 . S
Zn406 O415 1.977 . S
O407 Zn406 2.032 . S
O407 C411 1.278 . S
C408 O409 1.203 . S
C408 O415 1.267 . S
O409 C408 1.203 . S
O410 C403 1.185 . S
O410 Zn406 2.086 . S
C411 O407 1.278 . S
C411 O412 1.211 . S
O412 C411 1.211 . S
C413 O405 1.284 . S
C413 O414 1.273 . S
O414 C413 1.273 . S
O415 Zn406 1.977 . S
O415 C408 1.267 . S
C416 O417 1.160 . S
C416 O423 1.185 . S
O417 C416 1.160 . S
O418 Zn419 1.899 . S
O418 C426 1.284 . S
Zn419 O418 1.899 . S
Zn419 O420 2.032 . S
Zn419 O423 2.086 . S
Zn419 O428 1.977 . S
O420 Zn419 2.032 . S
O420 C424 1.278 . S
C421 O422 1.203 . S
C421 O428 1.267 . S
O422 C421 1.203 . S
O423 C416 1.185 . S
O423 Zn419 2.086 . S
C424 O420 1.278 . S
C424 O425 1.211 . S
O425 C424 1.211 . S
C426 O418 1.284 . S
C426 O427 1.273 . S
O427 C426 1.273 . S
O428 Zn419 1.977 . S
O428 C421 1.267 . S
C429 O430 1.160 . S
C429 O436 1.185 . S
O430 C429 1.160 . S
O431 Zn432 1.899 . S
O431 C439 1.284 . S
Zn432 O431 1.899 . S
Zn432 O433 2.032 . S
Zn432 O436 2.086 . S
Zn432 O441 1.977 . S
O433 Zn432 2.032 . S
O433 C437 1.278 . S
C434 O435 1.203 . S
C434 O441 1.267 . S
O435 C434 1.203 . S
O436 C429 1.185 . S
O436 Zn432 2.086 . S
C437 O433 1.278 . S
C437 O438 1.211 . S
O438 C437 1.211 . S
C439 O431 1.284 . S
C439 O440 1.273 . S
O440 C439 1.273 . S
O441 Zn432 1.977 . S
O441 C434 1.267 . S
C442 O443 1.160 . S
C442 O449 1.185 . S
O443 C442 1.160 . S
O444 Zn445 1.899 . S
O444 C452 1.284 . S
Zn445 O444 1.899 . S
Zn445 O446 2.032 . S
Zn445 O449 2.086 . S
Zn445 O454 1.977 . S
O446 Zn445 2.032 . S
O446 C450 1.278 . S
C447 O448 1.203 . S
C447 O454 1.267 . S
O448 C447 1.203 . S
O449 C442 1.185 . S
O449 Zn445 2.086 . S
C450 O446 1.278 . S
C450 O451 1.211 . S
O451 C450 1.211 . S
C452 O444 1.284 . S
C452 O453 1.273 . S
O453 C452 1.273 . S
O454 Zn445 1.977 . S
O454 C447 1.267 . S
C455 O456 1.160 . S
C455 O462 1.185 . S
O456 C455 1.160 . S
O457 Zn458 1.899 . S
O457 C465 1.284 . S
Zn458 O457 1.899 . S
Zn458 O459 2.032 . S
Zn458 O462 2.086 . S
Zn458 O467 1.977 . S
O459 Zn458 2.032 . S
O459 C463 1.278 . S
C460 O461 1.203 . S
C460 O467 1.267 . S
O461 C460 1.203 . S
O462 C455 1.185 . S
O462 Zn458 2.086 . S
C463 O459 1.278 . S
C463 O464 1.211 . S
O464 C463 1.211 . S
C465 O457 1.284 . S
C465 O466 1.273 . S
O466 C465 1.273 . S
O467 Zn458 1.977 . S
O467 C460 1.267 . S
C468 O469 1.160 . S
C468 O475 1.185 . S
O469 C468 1.160 . S
O470 Zn471 1.899 . S
O470 C478 1.284 . S
Zn471 O470 1.899 . S
Zn471 O472 2.032 . S
Zn471 O475 2.086 . S
Zn471 O480 1.977 . S
O472 Zn471 2.032 . S
O472 C476 1.278 . S
C473 O474 1.203 . S
C473 O480 1.267 . S
O474 C473 1.203 . S
O475 C468 1.185 . S
O475 Zn471 2.086 . S
C476 O472 1.278 . S
C476 O477 1.211 . S
O477 C476 1.211 . S
C478 O470 1.284 . S
C478 O479 1.273 . S
O479 C478 1.273 . S
O480 Zn471 1.977 . S
O480 C473 1.267 . S
C481 O482 1.160 . S
C481 O488 1.185 . S
O482 C481 1.160 . S
O483 Zn484 1.899 . S
O483 C491 1.284 . S
Zn484 O483 1.899 . S
Zn484 O485 2.032 . S
Zn484 O488 2.086 . S
Zn484 O493 1.977 . S
O485 Zn484 2.032 . S
O485 C489 1.278 . S
C486 O487 1.203 . S
C486 O493 1.267 . S
O487 C486 1.203 . S
O488 C481 1.185 . S
O488 Zn484 2.086 . S
C489 O485 1.278 . S
C489 O490 1.211 . S
O490 C489 1.211 . S
C491 O483 1.284 . S
C491 O492 1.273 . S
O492 C491 1.273 . S
O493 Zn484 1.977 . S
O493 C486 1.267 . S
C494 O495 1.160 . S
C494 O501 1.185 . S
O495 C494 1.160 . S
O496 Zn497 1.899 . S
O496 C504 1.284 . S
Zn497 O496 1.899 . S
Zn497 O498 2.032 . S
Zn497 O501 2.086 . S
Zn497 O506 1.977 . S
O498 Zn497 2.032 . S
O498 C502 1.278 . S
C499 O500 1.203 . S
C499 O506 1.267 . S
O500 C499 1.203 . S
O501 C494 1.185 . S
O501 Zn497 2.086 . S
C502 O498 1.278 . S
C502 O503 1.211 . S
O503 C502 1.211 . S
C504 O496 1.284 . S
C504 O505 1.273 . S
O505 C504 1.273 . S
O506 Zn497 1.977 . S
O506 C499 1.267 . S
C507 O508 1.160 . S
C507 O514 1.185 . S
O508 C507 1.160 . S
O509 Zn510 1.899 . S
O509 C517 1.284 . S
Zn510 O509 1.899 . S
Zn510 O511 2.032 . S
Zn510 O514 2.086 . S
Zn510 O519 1.977 . S
O511 Zn510 2.032 . S
O511 C515 1.278 . S
C512 O513 1.203 . S
C512 O519 1.267 . S
O513 C512 1.203 . S
O514 C507 1.185 . S
O514 Zn510 2.086 . S
C515 O511 1.278 . S
C515 O516 1.211 . S
O516 C515 1.211 . S
C517 O509 1.284 . S
C517 O518 1.273 . S
O518 C517 1.273 . S
O519 Zn510 1.977 . S
O519 C512 1.267 . S
C520 O521 1.160 . S
C520 O527 1.185 . S
O521 C520 1.160 . S
O522 Zn523 1.899 . S
O522 C530 1.284 . S
Zn523 O522 1.899 . S
Zn523 O524 2.032 . S
Zn523 O527 2.086 . S
Zn523 O532 1.977 . S
O524 Zn523 2.032 . S
O524 C528 1.278 . S
C525 O526 1.203 . S
C525 O532 1.267 . S
O526 C525 1.203 . S
O527 C520 1.185 . S
O527 Zn523 2.086 . S
C528 O524 1.278 . S
C528 O529 1.211 . S
O529 C528 1.211 . S
C530 O522 1.284 . S
C530 O531 1.273 . S
O531 C530 1.273 . S
O532 Zn523 1.977 . S
O532 C525 1.267 . S
C533 O534 1.160 . S
C533 O540 1.185 . S
O534 C533 1.160 . S
O535 Zn536 1.899 . S
O535 C543 1.284 . S
Zn536 O535 1.899 . S
Zn536 O537 2.032 . S
Zn536 O540 2.086 . S
Zn536 O545 1.977 . S
O537 Zn536 2.032 . S
O537 C541 1.278 . S
C538 O539 1.203 . S
C538 O545 1.267 . S
O539 C538 1.203 . S
O540 C533 1.185 . S
O540 Zn536 2.086 . S
C541 O537 1.278 . S
C541 O542 1.211 . S
O542 C541 1.211 . S
C543 O535 1.284 . S
C543 O544 1.273 . S
O544 C543 1.273 . S
O545 Zn536 1.977 . S
O545 C538 1.267 . S
C546 O547 1.160 . S
C546 O553 1.185 . S
O547 C546 1.160 . S
O548 Zn549 1.899 . S
O548 C556 1.284 . S
Zn549 O548 1.899 . S
Zn549 O550 2.032 . S
Zn549 O553 2.086 . S
Zn549 O558 1.977 . S
O550 Zn549 2.032 . S
O550 C554 1.278 . S
C551 O552 1.203 . S
C551 O558 1.267 . S
O552 C551 1.203 . S
O553 C546 1.185 . S
O553 Zn549 2.086 . S
C554 O550 1.278 . S
C554 O555 1.211 . S
O555 C554 1.211 . S
C556 O548 1.284 . S
C556 O557 1.273 . S
O557 C556 1.273 . S
O558 Zn549 1.977 . S
O558 C551 1.267 . S
C559 O560 1.160 . S
C559 O566 1.185 . S
O560 C559 1.160 . S
O561 Zn562 1.899 . S
O561 C569 1.284 . S
Zn562 O561 1.899 . S
Zn562 O563 2.032 . S
Zn562 O566 2.086 . S
Zn562 O571 1.977 . S
O563 Zn562 2.032 . S
O563 C567 1.278 . S
C564 O565 1.203 . S
C564 O571 1.267 . S
O565 C564 1.203 . S
O566 C559 1.185 . S
O566 Zn562 2.086 . S
C567 O563 1.278 . S
C567 O568 1.211 . S
O568 C567 1.211 . S
C569 O561 1.284 . S
C569 O570 1.273 . S
O570 C569 1.273 . S
O571 Zn562 1.977 . S
O571 C564 1.267 . S
C572 O573 1.160 . S
C572 O579 1.185 . S
O573 C572 1.160 . S
O574 Zn575 1.899 . S
O574 C582 1.284 . S
Zn575 O574 1.899 . S
Zn575 O576 2.032 . S
Zn575 O579 2.086 . S
Zn575 O584 1.977 . S
O576 Zn575 2.032 . S
O576 C580 1.278 . S
C577 O578 1.203 . S
C577 O584 1.267 . S
O578 C577 1.203 . S
O579 C572 1.185 . S
O579 Zn575 2.086 . S
C580 O576 1.278 . S
C580 O581 1.211 . S
O581 C580 1.211 . S
C582 O574 1.284 . S
C582 O583 1.273 . S
O583 C582 1.273 . S
O584 Zn575 1.977 . S
O584 C577 1.267 . S
C585 O586 1.160 . S
C585 O592 1.185 . S
O586 C585 1.160 . S
O587 Zn588 1.899 . S
O587 C595 1.284 . S
Zn588 O587 1.899 . S
Zn588 O589 2.032 . S
Zn588 O592 2.086 . S
Zn588 O597 1.977 . S
O589 Zn588 2.032 . S
O589 C593 1.278 . S
C590 O591 1.203 . S
C590 O597 1.267 . S
O591 C590 1.203 . S
O592 C585 1.185 . S
O592 Zn588 2.086 . S
C593 O589 1.278 . S
C593 O594 1.211 . S
O594 C593 1.211 . S
C595 O587 1.284 . S
C595 O596 1.273 . S
O596 C595 1.273 . S
O597 Zn588 1.977 . S
O597 C590 1.267 . S
C598 O599 1.160 . S
C598 O605 1.185 . S
O599 C598 1.160 . S
O600 Zn601 1.899 . S
O600 C608 1.284 . S
Zn601 O600 1.899 . S
Zn601 O602 2.032 . S
Zn601 O605 2.086 . S
Zn601 O610 1.977 . S
O602 Zn601 2.032 . S
O602 C606 1.278 . S
C603 O604 1.203 . S
C603 O610 1.267 . S
O604 C603 1.203 . S
O605 C598 1.185 . S
O605 Zn601 2.086 . S
C606 O602 1.278 . S
C606 O607 1.211 . S
O607 C606 1.211 . S
C608 O600 1.284 . S
C608 O609 1.273 . S
O609 C608 1.273 . S
O610 Zn601 1.977 . S
O610 C603 1.267 . S
C611 O612 1.160 . S
C611 O618 1.185 . S
O612 C611 1.160 . S
O613 Zn614 1.899 . S
O613 C621 1.284 . S
Zn614 O613 1.899 . S
Zn614 O615 2.032 . S
Zn614 O618 2.086 . S
Zn614 O623 1.977 . S
O615 Zn614 2.032 . S
O615 C619 1.278 . S
C616 O617 1.203 . S
C616 O623 1.267 . S
O617 C616 1.203 . S
O618 C611 1.185 . S
O618 Zn614 2.086 . S
C619 O615 1.278 . S
C619 O620 1.211 . S
O620 C619 1.211 . S
C621 O613 1.284 . S
C621 O622 1.273 . S
O622 C621 1.273 . S
O623 Zn614 1.977 . S
O623 C616 1.267 . S
H624 C630 0.930 . S
H625 C633 0.930 . S
H626 C634 0.930 . S
H627 C635 0.930 . S
H628 C638 0.930 . S
H629 C639 0.930 . S
C630 H624 0.930 . S
C630 C631 1.355 . S
C630 C632 1.415 . S
C631 C630 1.355 . S
C631 C633 1.419 . S
C632 C630 1.415 . S
C632 C637 1.425 . S
C632 C639 1.409 . S
C633 H625 0.930 . S
C633 C631 1.419 . S
C633 C634 1.362 . S
C634 H626 0.930 . S
C634 C633 1.362 . S
C634 C637 1.409 . S
C635 H627 0.930 . S
C635 C636 1.355 . S
C635 C637 1.415 . S
C636 C635 1.355 . S
C636 C638 1.419 . S
C637 C632 1.425 . S
C637 C634 1.409 . S
C637 C635 1.415 . S
C638 H628 0.930 . S
C638 C636 1.419 . S
C638 C639 1.362 . S
C639 H629 0.930 . S
C639 C632 1.409 . S
C639 C638 1.362 . S
H640 C646 0.930 . S
H641 C649 0.930 . S
H642 C650 0.930 . S
H643 C651 0.930 . S
H644 C654 0.930 . S
H645 C655 0.930 . S
C646 H640 0.930 . S
C646 C647 1.355 . S
C646 C648 1.415 1_455 S
C647 C646 1.355 . S
C647 C649 1.419 . S
C648 C646 1.415 1_655 S
C648 C653 1.425 . S
C648 C655 1.409 . S
C649 H641 0.930 . S
C649 C647 1.419 . S
C649 C650 1.362 1_455 S
C650 H642 0.930 . S
C650 C649 1.362 1_655 S
C650 C653 1.409 . S
C651 H643 0.930 . S
C651 C652 1.355 . S
C651 C653 1.415 . S
C652 C651 1.355 . S
C652 C654 1.419 . S
C653 C648 1.425 . S
C653 C650 1.409 . S
C653 C651 1.415 . S
C654 H644 0.930 . S
C654 C652 1.419 . S
C654 C655 1.362 . S
C655 H645 0.930 . S
C655 C648 1.409 . S
C655 C654 1.362 . S
H656 C662 0.930 . S
H657 C665 0.930 . S
H658 C666 0.930 . S
H659 C667 0.930 . S
H660 C670 0.930 . S
H661 C671 0.930 . S
C662 H656 0.930 . S
C662 C663 1.355 . S
C662 C664 1.415 . S
C663 C662 1.355 . S
C663 C665 1.419 . S
C664 C662 1.415 . S
C664 C669 1.425 . S
C664 C671 1.409 . S
C665 H657 0.930 . S
C665 C663 1.419 . S
C665 C666 1.362 . S
C666 H658 0.930 . S
C666 C665 1.362 . S
C666 C669 1.409 . S
C667 H659 0.930 . S
C667 C668 1.355 . S
C667 C669 1.415 . S
C668 C667 1.355 . S
C668 C670 1.419 . S
C669 C664 1.425 . S
C669 C666 1.409 . S
C669 C667 1.415 . S
C670 H660 0.930 . S
C670 C668 1.419 . S
C670 C671 1.362 . S
C671 H661 0.930 . S
C671 C664 1.409 . S
C671 C670 1.362 . S
H672 C678 0.930 . S
H673 C681 0.930 . S
H674 C682 0.930 . S
H675 C683 0.930 . S
H676 C686 0.930 . S
H677 C687 0.930 . S
C678 H672 0.930 . S
C678 C679 1.355 . S
C678 C680 1.415 . S
C679 C678 1.355 . S
C679 C681 1.419 . S
C680 C678 1.415 . S
C680 C685 1.425 . S
C680 C687 1.409 . S
C681 H673 0.930 . S
C681 C679 1.419 . S
C681 C682 1.362 . S
C682 H674 0.930 . S
C682 C681 1.362 . S
C682 C685 1.409 . S
C683 H675 0.930 . S
C683 C684 1.355 . S
C683 C685 1.415 . S
C684 C683 1.355 . S
C684 C686 1.419 . S
C685 C680 1.425 . S
C685 C682 1.409 . S
C685 C683 1.415 . S
C686 H676 0.930 . S
C686 C684 1.419 . S
C686 C687 1.362 . S
C687 H677 0.930 . S
C687 C680 1.409 . S
C687 C686 1.362 . S
H688 C694 0.930 . S
H689 C697 0.930 . S
H690 C698 0.930 . S
H691 C699 0.930 . S
H692 C702 0.930 . S
H693 C703 0.930 . S
C694 H688 0.930 . S
C694 C695 1.355 . S
C694 C696 1.415 . S
C695 C694 1.355 . S
C695 C697 1.419 . S
C696 C694 1.415 . S
C696 C701 1.425 . S
C696 C703 1.409 . S
C697 H689 0.930 . S
C697 C695 1.419 . S
C697 C698 1.362 . S
C698 H690 0.930 . S
C698 C697 1.362 . S
C698 C701 1.409 . S
C699 H691 0.930 . S
C699 C700 1.355 . S
C699 C701 1.415 . S
C700 C699 1.355 . S
C700 C702 1.419 . S
C701 C696 1.425 . S
C701 C698 1.409 . S
C701 C699 1.415 . S
C702 H692 0.930 . S
C702 C700 1.419 . S
C702 C703 1.362 . S
C703 H693 0.930 . S
C703 C696 1.409 . S
C703 C702 1.362 . S
H704 C710 0.930 . S
H705 C713 0.930 . S
H706 C714 0.930 . S
H707 C715 0.930 . S
H708 C718 0.930 . S
H709 C719 0.930 . S
C710 H704 0.930 . S
C710 C711 1.355 . S
C710 C712 1.415 . S
C711 C710 1.355 . S
C711 C713 1.419 . S
C712 C710 1.415 . S
C712 C717 1.425 . S
C712 C719 1.409 . S
C713 H705 0.930 . S
C713 C711 1.419 . S
C713 C714 1.362 . S
C714 H706 0.930 . S
C714 C713 1.362 . S
C714 C717 1.409 . S
C715 H707 0.930 . S
C715 C716 1.355 . S
C715 C717 1.415 . S
C716 C715 1.355 . S
C716 C718 1.419 . S
C717 C712 1.425 . S
C717 C714 1.409 . S
C717 C715 1.415 . S
C718 H708 0.930 . S
C718 C716 1.419 . S
C718 C719 1.362 . S
C719 H709 0.930 . S
C719 C712 1.409 . S
C719 C718 1.362 . S
H720 C726 0.930 . S
H721 C729 0.930 . S
H722 C730 0.930 . S
H723 C731 0.930 . S
H724 C734 0.930 . S
H725 C735 0.930 . S
C726 H720 0.930 . S
C726 C727 1.355 . S
C726 C728 1.415 . S
C727 C726 1.355 . S
C727 C729 1.419 . S
C728 C726 1.415 . S
C728 C733 1.425 . S
C728 C735 1.409 . S
C729 H721 0.930 . S
C729 C727 1.419 . S
C729 C730 1.362 . S
C730 H722 0.930 . S
C730 C729 1.362 . S
C730 C733 1.409 . S
C731 H723 0.930 . S
C731 C732 1.355 . S
C731 C733 1.415 . S
C732 C731 1.355 . S
C732 C734 1.419 . S
C733 C728 1.425 . S
C733 C730 1.409 . S
C733 C731 1.415 . S
C734 H724 0.930 . S
C734 C732 1.419 . S
C734 C735 1.362 . S
C735 H725 0.930 . S
C735 C728 1.409 . S
C735 C734 1.362 . S
H736 C742 0.930 . S
H737 C745 0.930 . S
H738 C746 0.930 . S
H739 C747 0.930 . S
H740 C750 0.930 . S
H741 C751 0.930 . S
C742 H736 0.930 . S
C742 C743 1.355 . S
C742 C744 1.415 1_455 S
C743 C742 1.355 . S
C743 C745 1.419 . S
C744 C742 1.415 1_655 S
C744 C749 1.425 . S
C744 C751 1.409 . S
C745 H737 0.930 . S
C745 C743 1.419 . S
C745 C746 1.362 1_455 S
C746 H738 0.930 . S
C746 C745 1.362 1_655 S
C746 C749 1.409 . S
C747 H739 0.930 . S
C747 C748 1.355 . S
C747 C749 1.415 . S
C748 C747 1.355 . S
C748 C750 1.419 . S
C749 C744 1.425 . S
C749 C746 1.409 . S
C749 C747 1.415 . S
C750 H740 0.930 . S
C750 C748 1.419 . S
C750 C751 1.362 . S
C751 H741 0.930 . S
C751 C744 1.409 . S
C751 C750 1.362 . S
H752 C758 0.930 . S
H753 C761 0.930 . S
H754 C762 0.930 . S
H755 C763 0.930 . S
H756 C766 0.930 . S
H757 C767 0.930 . S
C758 H752 0.930 . S
C758 C759 1.355 . S
C758 C760 1.415 . S
C759 C758 1.355 . S
C759 C761 1.419 . S
C760 C758 1.415 . S
C760 C765 1.425 . S
C760 C767 1.409 . S
C761 H753 0.930 . S
C761 C759 1.419 . S
C761 C762 1.362 . S
C762 H754 0.930 . S
C762 C761 1.362 . S
C762 C765 1.409 . S
C763 H755 0.930 . S
C763 C764 1.355 . S
C763 C765 1.415 . S
C764 C763 1.355 . S
C764 C766 1.419 . S
C765 C760 1.425 . S
C765 C762 1.409 . S
C765 C763 1.415 . S
C766 H756 0.930 . S
C766 C764 1.419 . S
C766 C767 1.362 . S
C767 H757 0.930 . S
C767 C760 1.409 . S
C767 C766 1.362 . S
H768 C774 0.930 . S
H769 C777 0.930 . S
H770 C778 0.930 . S
H771 C779 0.930 . S
H772 C782 0.930 . S
H773 C783 0.930 . S
C774 H768 0.930 . S
C774 C775 1.355 . S
C774 C776 1.415 . S
C775 C774 1.355 . S
C775 C777 1.419 . S
C776 C774 1.415 . S
C776 C781 1.425 . S
C776 C783 1.409 . S
C777 H769 0.930 . S
C777 C775 1.419 . S
C777 C778 1.362 . S
C778 H770 0.930 . S
C778 C777 1.362 . S
C778 C781 1.409 . S
C779 H771 0.930 . S
C779 C780 1.355 . S
C779 C781 1.415 . S
C780 C779 1.355 . S
C780 C782 1.419 . S
C781 C776 1.425 . S
C781 C778 1.409 . S
C781 C779 1.415 . S
C782 H772 0.930 . S
C782 C780 1.419 . S
C782 C783 1.362 . S
C783 H773 0.930 . S
C783 C776 1.409 . S
C783 C782 1.362 . S
H784 C790 0.930 . S
H785 C793 0.930 . S
H786 C794 0.930 . S
H787 C795 0.930 . S
H788 C798 0.930 . S
H789 C799 0.930 . S
C790 H784 0.930 . S
C790 C791 1.355 . S
C790 C792 1.415 . S
C791 C790 1.355 . S
C791 C793 1.419 . S
C792 C790 1.415 . S
C792 C797 1.425 . S
C792 C799 1.409 . S
C793 H785 0.930 . S
C793 C791 1.419 . S
C793 C794 1.362 . S
C794 H786 0.930 . S
C794 C793 1.362 . S
C794 C797 1.409 . S
C795 H787 0.930 . S
C795 C796 1.355 . S
C795 C797 1.415 . S
C796 C795 1.355 . S
C796 C798 1.419 . S
C797 C792 1.425 . S
C797 C794 1.409 . S
C797 C795 1.415 . S
C798 H788 0.930 . S
C798 C796 1.419 . S
C798 C799 1.362 . S
C799 H789 0.930 . S
C799 C792 1.409 . S
C799 C798 1.362 . S
H800 C806 0.930 . S
H801 C809 0.930 . S
H802 C810 0.930 . S
H803 C811 0.930 . S
H804 C814 0.930 . S
H805 C815 0.930 . S
C806 H800 0.930 . S
C806 C807 1.355 . S
C806 C808 1.415 1_556 S
C807 C806 1.355 . S
C807 C809 1.419 . S
C808 C806 1.415 1_554 S
C808 C813 1.425 . S
C808 C815 1.409 . S
C809 H801 0.930 . S
C809 C807 1.419 . S
C809 C810 1.362 1_556 S
C810 H802 0.930 . S
C810 C809 1.362 1_554 S
C810 C813 1.409 . S
C811 H803 0.930 . S
C811 C812 1.355 . S
C811 C813 1.415 . S
C812 C811 1.355 . S
C812 C814 1.419 . S
C813 C808 1.425 . S
C813 C810 1.409 . S
C813 C811 1.415 . S
C814 H804 0.930 . S
C814 C812 1.419 . S
C814 C815 1.362 . S
C815 H805 0.930 . S
C815 C808 1.409 . S
C815 C814 1.362 . S
H816 C822 0.930 . S
H817 C825 0.930 . S
H818 C826 0.930 . S
H819 C827 0.930 . S
H820 C830 0.930 . S
H821 C831 0.930 . S
C822 H816 0.930 . S
C822 C823 1.355 . S
C822 C824 1.415 . S
C823 C822 1.355 . S
C823 C825 1.419 . S
C824 C822 1.415 . S
C824 C829 1.425 . S
C824 C831 1.409 . S
C825 H817 0.930 . S
C825 C823 1.419 . S
C825 C826 1.362 . S
C826 H818 0.930 . S
C826 C825 1.362 . S
C826 C829 1.409 . S
C827 H819 0.930 . S
C827 C828 1.355 . S
C827 C829 1.415 . S
C828 C827 1.355 . S
C828 C830 1.419 . S
C829 C824 1.425 . S
C829 C826 1.409 . S
C829 C827 1.415 . S
C830 H820 0.930 . S
C830 C828 1.419 . S
C830 C831 1.362 . S
C831 H821 0.930 . S
C831 C824 1.409 . S
C831 C830 1.362 . S
H832 C838 0.930 . S
H833 C841 0.930 . S
H834 C842 0.930 . S
H835 C843 0.930 . S
H836 C846 0.930 . S
H837 C847 0.930 . S
C838 H832 0.930 . S
C838 C839 1.355 . S
C838 C840 1.415 . S
C839 C838 1.355 . S
C839 C841 1.419 . S
C840 C838 1.415 . S
C840 C845 1.425 . S
C840 C847 1.409 . S
C841 H833 0.930 . S
C841 C839 1.419 . S
C841 C842 1.362 . S
C842 H834 0.930 . S
C842 C841 1.362 . S
C842 C845 1.409 . S
C843 H835 0.930 . S
C843 C844 1.355 . S
C843 C845 1.415 . S
C844 C843 1.355 . S
C844 C846 1.419 . S
C845 C840 1.425 . S
C845 C842 1.409 . S
C845 C843 1.415 . S
C846 H836 0.930 . S
C846 C844 1.419 . S
C846 C847 1.362 . S
C847 H837 0.930 . S
C847 C840 1.409 . S
C847 C846 1.362 . S
H848 C854 0.930 . S
H849 C857 0.930 . S
H850 C858 0.930 . S
H851 C859 0.930 . S
H852 C862 0.930 . S
H853 C863 0.930 . S
C854 H848 0.930 . S
C854 C855 1.355 . S
C854 C856 1.415 . S
C855 C854 1.355 . S
C855 C857 1.419 . S
C856 C854 1.415 . S
C856 C861 1.425 . S
C856 C863 1.409 . S
C857 H849 0.930 . S
C857 C855 1.419 . S
C857 C858 1.362 . S
C858 H850 0.930 . S
C858 C857 1.362 . S
C858 C861 1.409 . S
C859 H851 0.930 . S
C859 C860 1.355 . S
C859 C861 1.415 . S
C860 C859 1.355 . S
C860 C862 1.419 . S
C861 C856 1.425 . S
C861 C858 1.409 . S
C861 C859 1.415 . S
C862 H852 0.930 . S
C862 C860 1.419 . S
C862 C863 1.362 . S
C863 H853 0.930 . S
C863 C856 1.409 . S
C863 C862 1.362 . S
H864 C870 0.928 . S
H865 C873 0.930 . S
H866 C874 0.930 . S
H867 C875 0.930 . S
H868 C878 0.930 . S
H869 C879 0.930 . S
C870 H864 0.928 . S
C870 C871 1.352 . S
C870 C872 1.419 1_554 S
C871 C870 1.352 . S
C871 C873 1.419 . S
C872 C870 1.419 1_556 S
C872 C877 1.425 . S
C872 C879 1.409 . S
C873 H865 0.930 . S
C873 C871 1.419 . S
C873 C874 1.362 1_554 S
C874 H866 0.930 . S
C874 C873 1.362 1_556 S
C874 C877 1.409 . S
C875 H867 0.930 . S
C875 C876 1.355 . S
C875 C877 1.415 . S
C876 C875 1.355 . S
C876 C878 1.419 . S
C877 C872 1.425 . S
C877 C874 1.409 . S
C877 C875 1.415 . S
C878 H868 0.930 . S
C878 C876 1.419 . S
C878 C879 1.362 . S
C879 H869 0.930 . S
C879 C872 1.409 . S
C879 C878 1.362 . S
H880 C886 0.930 . S
H881 C889 0.930 . S
H882 C890 0.930 . S
H883 C891 0.930 . S
H884 C894 0.930 . S
H885 C895 0.930 . S
C886 H880 0.930 . S
C886 C887 1.355 . S
C886 C888 1.415 . S
C887 C886 1.355 . S
C887 C889 1.419 . S
C888 C886 1.415 . S
C888 C893 1.425 . S
C888 C895 1.409 . S
C889 H881 0.930 . S
C889 C887 1.419 . S
C889 C890 1.362 . S
C890 H882 0.930 . S
C890 C889 1.362 . S
C890 C893 1.409 . S
C891 H883 0.930 . S
C891 C892 1.355 . S
C891 C893 1.415 . S
C892 C891 1.355 . S
C892 C894 1.419 . S
C893 C888 1.425 . S
C893 C890 1.409 . S
C893 C891 1.415 . S
C894 H884 0.930 . S
C894 C892 1.419 . S
C894 C895 1.362 . S
C895 H885 0.930 . S
C895 C888 1.409 . S
C895 C894 1.362 . S
H896 C902 0.930 . S
H897 C905 0.930 . S
H898 C906 0.930 . S
H899 C907 0.930 . S
H900 C910 0.930 . S
H901 C911 0.930 . S
C902 H896 0.930 . S
C902 C903 1.355 . S
C902 C904 1.415 . S
C903 C902 1.355 . S
C903 C905 1.419 . S
C904 C902 1.415 . S
C904 C909 1.425 . S
C904 C911 1.409 . S
C905 H897 0.930 . S
C905 C903 1.419 . S
C905 C906 1.362 . S
C906 H898 0.930 . S
C906 C905 1.362 . S
C906 C909 1.409 . S
C907 H899 0.930 . S
C907 C908 1.355 . S
C907 C909 1.415 . S
C908 C907 1.355 . S
C908 C910 1.419 . S
C909 C904 1.425 . S
C909 C906 1.409 . S
C909 C907 1.415 . S
C910 H900 0.930 . S
C910 C908 1.419 . S
C910 C911 1.362 . S
C911 H901 0.930 . S
C911 C904 1.409 . S
C911 C910 1.362 . S
H912 C918 0.930 . S
H913 C921 0.930 . S
H914 C922 0.930 . S
H915 C923 0.930 . S
H916 C926 0.930 . S
H917 C927 0.930 . S
C918 H912 0.930 . S
C918 C919 1.355 . S
C918 C920 1.415 . S
C919 C918 1.355 . S
C919 C921 1.419 . S
C920 C918 1.415 . S
C920 C925 1.425 . S
C920 C927 1.409 . S
C921 H913 0.930 . S
C921 C919 1.419 . S
C921 C922 1.362 . S
C922 H914 0.930 . S
C922 C921 1.362 . S
C922 C925 1.409 . S
C923 H915 0.930 . S
C923 C924 1.355 . S
C923 C925 1.415 . S
C924 C923 1.355 . S
C924 C926 1.419 . S
C925 C920 1.425 . S
C925 C922 1.409 . S
C925 C923 1.415 . S
C926 H916 0.930 . S
C926 C924 1.419 . S
C926 C927 1.362 . S
C927 H917 0.930 . S
C927 C920 1.409 . S
C927 C926 1.362 . S
H928 C934 0.930 . S
H929 C937 0.930 . S
H930 C938 0.930 . S
H931 C939 0.930 . S
H932 C942 0.930 . S
H933 C943 0.930 . S
C934 H928 0.930 . S
C934 C935 1.355 . S
C934 C936 1.415 . S
C935 C934 1.355 . S
C935 C937 1.419 . S
C936 C934 1.415 . S
C936 C941 1.425 . S
C936 C943 1.409 . S
C937 H929 0.930 . S
C937 C935 1.419 . S
C937 C938 1.362 . S
C938 H930 0.930 . S
C938 C937 1.362 . S
C938 C941 1.409 . S
C939 H931 0.930 . S
C939 C940 1.355 . S
C939 C941 1.415 . S
C940 C939 1.355 . S
C940 C942 1.419 . S
C941 C936 1.425 . S
C941 C938 1.409 . S
C941 C939 1.415 . S
C942 H932 0.930 . S
C942 C940 1.419 . S
C942 C943 1.362 . S
C943 H933 0.930 . S
C943 C936 1.409 . S
C943 C942 1.362 . S
H944 C950 0.930 . S
H945 C953 0.930 . S
H946 C954 0.930 . S
H947 C955 0.930 . S
H948 C958 0.930 . S
H949 C959 0.930 . S
C950 H944 0.930 . S
C950 C951 1.355 . S
C950 C952 1.415 . S
C951 C950 1.355 . S
C951 C953 1.419 . S
C952 C950 1.415 . S
C952 C957 1.425 . S
C952 C959 1.409 . S
C953 H945 0.930 . S
C953 C951 1.419 . S
C953 C954 1.362 . S
C954 H946 0.930 . S
C954 C953 1.362 . S
C954 C957 1.409 . S
C955 H947 0.930 . S
C955 C956 1.355 . S
C955 C957 1.415 1_545 S
C956 C955 1.355 . S
C956 C958 1.419 . S
C957 C952 1.425 . S
C957 C954 1.409 . S
C957 C955 1.415 1_565 S
C958 H948 0.930 . S
C958 C956 1.419 . S
C958 C959 1.362 1_545 S
C959 H949 0.930 . S
C959 C952 1.409 . S
C959 C958 1.362 1_565 S
H960 C966 0.930 . S
H961 C969 0.930 . S
H962 C970 0.930 . S
H963 C971 0.930 . S
H964 C974 0.930 . S
H965 C975 0.930 . S
C966 H960 0.930 . S
C966 C967 1.355 . S
C966 C968 1.415 . S
C967 C966 1.355 . S
C967 C969 1.419 . S
C968 C966 1.415 . S
C968 C973 1.425 . S
C968 C975 1.409 . S
C969 H961 0.930 . S
C969 C967 1.419 . S
C969 C970 1.362 . S
C970 H962 0.930 . S
C970 C969 1.362 . S
C970 C973 1.409 . S
C971 H963 0.930 . S
C971 C972 1.355 . S
C971 C973 1.415 . S
C972 C971 1.355 . S
C972 C974 1.419 . S
C973 C968 1.425 . S
C973 C970 1.409 . S
C973 C971 1.415 . S
C974 H964 0.930 . S
C974 C972 1.419 . S
C974 C975 1.362 . S
C975 H965 0.930 . S
C975 C968 1.409 . S
C975 C974 1.362 . S
H976 C982 0.930 . S
H977 C985 0.930 . S
H978 C986 0.930 . S
H979 C987 0.930 . S
H980 C990 0.930 . S
H981 C991 0.930 . S
C982 H976 0.930 . S
C982 C983 1.355 . S
C982 C984 1.415 . S
C983 C982 1.355 . S
C983 C985 1.419 . S
C984 C982 1.415 . S
C984 C989 1.425 . S
C984 C991 1.409 . S
C985 H977 0.930 . S
C985 C983 1.419 . S
C985 C986 1.362 . S
C986 H978 0.930 . S
C986 C985 1.362 . S
C986 C989 1.409 . S
C987 H979 0.930 . S
C987 C988 1.355 . S
C987 C989 1.415 . S
C988 C987 1.355 . S
C988 C990 1.419 . S
C989 C984 1.425 . S
C989 C986 1.409 . S
C989 C987 1.415 . S
C990 H980 0.930 . S
C990 C988 1.419 . S
C990 C991 1.362 . S
C991 H981 0.930 . S
C991 C984 1.409 . S
C991 C990 1.362 . S
H992 C998 0.930 . S
H993 C1001 0.930 . S
H994 C1002 0.930 . S
H995 C1003 0.930 . S
H996 C1006 0.930 . S
H997 C1007 0.930 . S
C998 H992 0.930 . S
C998 C999 1.355 . S
C998 C1000 1.415 . S
C999 C998 1.355 . S
C999 C1001 1.419 . S
C1000 C998 1.415 . S
C1000 C1005 1.425 . S
C1000 C1007 1.409 . S
C1001 H993 0.930 . S
C1001 C999 1.419 . S
C1001 C1002 1.362 . S
C1002 H994 0.930 . S
C1002 C1001 1.362 . S
C1002 C1005 1.409 . S
C1003 H995 0.930 . S
C1003 C1004 1.355 . S
C1003 C1005 1.415 . S
C1004 C1003 1.355 . S
C1004 C1006 1.419 . S
C1005 C1000 1.425 . S
C1005 C1002 1.409 . S
C1005 C1003 1.415 . S
C1006 H996 0.930 . S
C1006 C1004 1.419 . S
C1006 C1007 1.362 . S
C1007 H997 0.930 . S
C1007 C1000 1.409 . S
C1007 C1006 1.362 . S
H1008 C1014 0.930 . S
H1009 C1017 0.930 . S
H1010 C1018 0.930 . S
H1011 C1019 0.930 . S
H1012 C1022 0.930 . S
H1013 C1023 0.930 . S
C1014 H1008 0.930 . S
C1014 C1015 1.355 . S
C1014 C1016 1.415 . S
C1015 C1014 1.355 . S
C1015 C1017 1.419 . S
C1016 C1014 1.415 . S
C1016 C1021 1.425 . S
C1016 C1023 1.409 . S
C1017 H1009 0.930 . S
C1017 C1015 1.419 . S
C1017 C1018 1.362 . S
C1018 H1010 0.930 . S
C1018 C1017 1.362 . S
C1018 C1021 1.409 . S
C1019 H1011 0.930 . S
C1019 C1020 1.355 . S
C1019 C1021 1.415 . S
C1020 C1019 1.355 . S
C1020 C1022 1.419 . S
C1021 C1016 1.425 . S
C1021 C1018 1.409 . S
C1021 C1019 1.415 . S
C1022 H1012 0.930 . S
C1022 C1020 1.419 . S
C1022 C1023 1.362 . S
C1023 H1013 0.930 . S
C1023 C1016 1.409 . S
C1023 C1022 1.362 . S
H1024 C1030 0.930 . S
H1025 C1033 0.930 . S
H1026 C1034 0.930 . S
H1027 C1035 0.930 . S
H1028 C1038 0.930 . S
H1029 C1039 0.930 . S
C1030 H1024 0.930 . S
C1030 C1031 1.355 1_455 S
C1030 C1032 1.415 . S
C1031 C1030 1.355 1_655 S
C1031 C1033 1.419 . S
C1032 C1030 1.415 . S
C1032 C1037 1.425 . S
C1032 C1039 1.409 . S
C1033 H1025 0.930 . S
C1033 C1031 1.419 . S
C1033 C1034 1.362 1_655 S
C1034 H1026 0.930 . S
C1034 C1033 1.362 1_455 S
C1034 C1037 1.409 . S
C1035 H1027 0.930 . S
C1035 C1036 1.355 . S
C1035 C1037 1.415 . S
C1036 C1035 1.355 . S
C1036 C1038 1.419 . S
C1037 C1032 1.425 . S
C1037 C1034 1.409 . S
C1037 C1035 1.415 . S
C1038 H1028 0.930 . S
C1038 C1036 1.419 . S
C1038 C1039 1.362 . S
C1039 H1029 0.930 . S
C1039 C1032 1.409 . S
C1039 C1038 1.362 . S
H1040 C1046 0.930 . S
H1041 C1049 0.930 . S
H1042 C1050 0.930 . S
H1043 C1051 0.930 . S
H1044 C1054 0.930 . S
H1045 C1055 0.930 . S
C1046 H1040 0.930 . S
C1046 C1047 1.355 . S
C1046 C1048 1.415 . S
C1047 C1046 1.355 . S
C1047 C1049 1.419 . S
C1048 C1046 1.415 . S
C1048 C1053 1.425 . S
C1048 C1055 1.409 . S
C1049 H1041 0.930 . S
C1049 C1047 1.419 . S
C1049 C1050 1.362 . S
C1050 H1042 0.930 . S
C1050 C1049 1.362 . S
C1050 C1053 1.409 . S
C1051 H1043 0.930 . S
C1051 C1052 1.355 . S
C1051 C1053 1.415 . S
C1052 C1051 1.355 . S
C1052 C1054 1.419 . S
C1053 C1048 1.425 . S
C1053 C1050 1.409 . S
C1053 C1051 1.415 . S
C1054 H1044 0.930 . S
C1054 C1052 1.419 . S
C1054 C1055 1.362 . S
C1055 H1045 0.930 . S
C1055 C1048 1.409 . S
C1055 C1054 1.362 . S
H1056 C1062 0.930 . S
H1057 C1065 0.930 . S
H1058 C1066 0.930 . S
H1059 C1067 0.930 . S
H1060 C1070 0.930 . S
H1061 C1071 0.930 . S
C1062 H1056 0.930 . S
C1062 C1063 1.355 . S
C1062 C1064 1.415 . S
C1063 C1062 1.355 . S
C1063 C1065 1.419 . S
C1064 C1062 1.415 . S
C1064 C1069 1.425 . S
C1064 C1071 1.409 . S
C1065 H1057 0.930 . S
C1065 C1063 1.419 . S
C1065 C1066 1.362 . S
C1066 H1058 0.930 . S
C1066 C1065 1.362 . S
C1066 C1069 1.409 . S
C1067 H1059 0.930 . S
C1067 C1068 1.355 . S
C1067 C1069 1.415 . S
C1068 C1067 1.355 . S
C1068 C1070 1.419 . S
C1069 C1064 1.425 . S
C1069 C1066 1.409 . S
C1069 C1067 1.415 . S
C1070 H1060 0.930 . S
C1070 C1068 1.419 . S
C1070 C1071 1.362 . S
C1071 H1061 0.930 . S
C1071 C1064 1.409 . S
C1071 C1070 1.362 . S
H1072 C1078 0.930 . S
H1073 C1081 0.930 . S
H1074 C1082 0.930 . S
H1075 C1083 0.930 . S
H1076 C1086 0.930 . S
H1077 C1087 0.930 . S
C1078 H1072 0.930 . S
C1078 C1079 1.355 . S
C1078 C1080 1.415 . S
C1079 C1078 1.355 . S
C1079 C1081 1.419 . S
C1080 C1078 1.415 . S
C1080 C1085 1.425 . S
C1080 C1087 1.409 . S
C1081 H1073 0.930 . S
C1081 C1079 1.419 . S
C1081 C1082 1.362 . S
C1082 H1074 0.930 . S
C1082 C1081 1.362 . S
C1082 C1085 1.409 . S
C1083 H1075 0.930 . S
C1083 C1084 1.355 . S
C1083 C1085 1.415 . S
C1084 C1083 1.355 . S
C1084 C1086 1.419 . S
C1085 C1080 1.425 . S
C1085 C1082 1.409 . S
C1085 C1083 1.415 . S
C1086 H1076 0.930 . S
C1086 C1084 1.419 . S
C1086 C1087 1.362 . S
C1087 H1077 0.930 . S
C1087 C1080 1.409 . S
C1087 C1086 1.362 . S
H1088 C1094 0.930 . S
H1089 C1097 0.930 . S
H1090 C1098 0.930 . S
H1091 C1099 0.930 . S
H1092 C1102 0.930 . S
H1093 C1103 0.930 . S
C1094 H1088 0.930 . S
C1094 C1095 1.355 . S
C1094 C1096 1.415 . S
C1095 C1094 1.355 . S
C1095 C1097 1.419 . S
C1096 C1094 1.415 . S
C1096 C1101 1.425 . S
C1096 C1103 1.409 . S
C1097 H1089 0.930 . S
C1097 C1095 1.419 . S
C1097 C1098 1.362 . S
C1098 H1090 0.930 . S
C1098 C1097 1.362 . S
C1098 C1101 1.409 . S
C1099 H1091 0.930 . S
C1099 C1100 1.355 . S
C1099 C1101 1.415 . S
C1100 C1099 1.355 . S
C1100 C1102 1.419 . S
C1101 C1096 1.425 . S
C1101 C1098 1.409 . S
C1101 C1099 1.415 . S
C1102 H1092 0.930 . S
C1102 C1100 1.419 . S
C1102 C1103 1.362 . S
C1103 H1093 0.930 . S
C1103 C1096 1.409 . S
C1103 C1102 1.362 . S
H1104 C1110 0.930 . S
H1105 C1113 0.930 . S
H1106 C1114 0.930 . S
H1107 C1115 0.930 . S
H1108 C1118 0.930 . S
H1109 C1119 0.930 . S
C1110 H1104 0.930 . S
C1110 C1111 1.355 . S
C1110 C1112 1.415 . S
C1111 C1110 1.355 . S
C1111 C1113 1.419 . S
C1112 C1110 1.415 . S
C1112 C1117 1.425 . S
C1112 C1119 1.409 . S
C1113 H1105 0.930 . S
C1113 C1111 1.419 . S
C1113 C1114 1.362 . S
C1114 H1106 0.930 . S
C1114 C1113 1.362 . S
C1114 C1117 1.409 . S
C1115 H1107 0.930 . S
C1115 C1116 1.355 . S
C1115 C1117 1.415 . S
C1116 C1115 1.355 . S
C1116 C1118 1.419 . S
C1117 C1112 1.425 . S
C1117 C1114 1.409 . S
C1117 C1115 1.415 . S
C1118 H1108 0.930 . S
C1118 C1116 1.419 . S
C1118 C1119 1.362 . S
C1119 H1109 0.930 . S
C1119 C1112 1.409 . S
C1119 C1118 1.362 . S
H1120 C1126 0.930 . S
H1121 C1129 0.930 . S
H1122 C1130 0.930 . S
H1123 C1131 0.930 1_655 S
H1124 C1134 0.930 . S
H1125 C1135 0.930 . S
C1126 H1120 0.930 . S
C1126 C1127 1.355 . S
C1126 C1128 1.415 . S
C1127 C1126 1.355 . S
C1127 C1129 1.419 . S
C1128 C1126 1.415 . S
C1128 C1133 1.425 . S
C1128 C1135 1.409 . S
C1129 H1121 0.930 . S
C1129 C1127 1.419 . S
C1129 C1130 1.362 . S
C1130 H1122 0.930 . S
C1130 C1129 1.362 . S
C1130 C1133 1.409 . S
C1131 H1123 0.930 1_455 S
C1131 C1132 1.355 1_455 S
C1131 C1133 1.415 . S
C1132 C1131 1.355 1_655 S
C1132 C1134 1.419 . S
C1133 C1128 1.425 . S
C1133 C1130 1.409 . S
C1133 C1131 1.415 . S
C1134 H1124 0.930 . S
C1134 C1132 1.419 . S
C1134 C1135 1.362 1_655 S
C1135 H1125 0.930 . S
C1135 C1128 1.409 . S
C1135 C1134 1.362 1_455 S
H1136 C1142 0.930 . S
H1137 C1145 0.930 . S
H1138 C1146 0.930 . S
H1139 C1147 0.930 . S
H1140 C1150 0.930 . S
H1141 C1151 0.930 . S
C1142 H1136 0.930 . S
C1142 C1143 1.355 . S
C1142 C1144 1.415 . S
C1143 C1142 1.355 . S
C1143 C1145 1.419 . S
C1144 C1142 1.415 . S
C1144 C1149 1.425 . S
C1144 C1151 1.409 . S
C1145 H1137 0.930 . S
C1145 C1143 1.419 . S
C1145 C1146 1.362 . S
C1146 H1138 0.930 . S
C1146 C1145 1.362 . S
C1146 C1149 1.409 . S
C1147 H1139 0.930 . S
C1147 C1148 1.355 . S
C1147 C1149 1.415 . S
C1148 C1147 1.355 . S
C1148 C1150 1.419 . S
C1149 C1144 1.425 . S
C1149 C1146 1.409 . S
C1149 C1147 1.415 . S
C1150 H1140 0.930 . S
C1150 C1148 1.419 . S
C1150 C1151 1.362 . S
C1151 H1141 0.930 . S
C1151 C1144 1.409 . S
C1151 C1150 1.362 . S
H1152 C1158 0.930 . S
H1153 C1161 0.930 . S
H1154 C1162 0.930 . S
H1155 C1163 0.930 . S
H1156 C1166 0.930 . S
H1157 C1167 0.930 . S
C1158 H1152 0.930 . S
C1158 C1159 1.355 . S
C1158 C1160 1.415 . S
C1159 C1158 1.355 . S
C1159 C1161 1.419 . S
C1160 C1158 1.415 . S
C1160 C1165 1.425 . S
C1160 C1167 1.409 . S
C1161 H1153 0.930 . S
C1161 C1159 1.419 . S
C1161 C1162 1.362 . S
C1162 H1154 0.930 . S
C1162 C1161 1.362 . S
C1162 C1165 1.409 . S
C1163 H1155 0.930 . S
C1163 C1164 1.355 . S
C1163 C1165 1.415 . S
C1164 C1163 1.355 . S
C1164 C1166 1.419 . S
C1165 C1160 1.425 . S
C1165 C1162 1.409 . S
C1165 C1163 1.415 . S
C1166 H1156 0.930 . S
C1166 C1164 1.419 . S
C1166 C1167 1.362 . S
C1167 H1157 0.930 . S
C1167 C1160 1.409 . S
C1167 C1166 1.362 . S
H1168 C1174 0.930 . S
H1169 C1177 0.930 . S
H1170 C1178 0.930 . S
H1171 C1179 0.930 . S
H1172 C1182 0.930 . S
H1173 C1183 0.930 . S
C1174 H1168 0.930 . S
C1174 C1175 1.355 . S
C1174 C1176 1.415 . S
C1175 C1174 1.355 . S
C1175 C1177 1.419 . S
C1176 C1174 1.415 . S
C1176 C1181 1.425 . S
C1176 C1183 1.409 . S
C1177 H1169 0.930 . S
C1177 C1175 1.419 . S
C1177 C1178 1.362 . S
C1178 H1170 0.930 . S
C1178 C1177 1.362 . S
C1178 C1181 1.409 . S
C1179 H1171 0.930 . S
C1179 C1180 1.355 . S
C1179 C1181 1.415 . S
C1180 C1179 1.355 . S
C1180 C1182 1.419 . S
C1181 C1176 1.425 . S
C1181 C1178 1.409 . S
C1181 C1179 1.415 . S
C1182 H1172 0.930 . S
C1182 C1180 1.419 . S
C1182 C1183 1.362 . S
C1183 H1173 0.930 . S
C1183 C1176 1.409 . S
C1183 C1182 1.362 . S
H1184 C1190 0.930 . S
H1185 C1193 0.930 . S
H1186 C1194 0.930 . S
H1187 C1195 0.930 . S
H1188 C1198 0.930 . S
H1189 C1199 0.933 . S
C1190 H1184 0.930 . S
C1190 C1191 1.355 . S
C1190 C1192 1.415 . S
C1191 C1190 1.355 . S
C1191 C1193 1.419 . S
C1192 C1190 1.415 . S
C1192 C1197 1.425 . S
C1192 C1199 1.426 . S
C1193 H1185 0.930 . S
C1193 C1191 1.419 . S
C1193 C1194 1.362 . S
C1194 H1186 0.930 . S
C1194 C1193 1.362 . S
C1194 C1197 1.409 . S
C1195 H1187 0.930 . S
C1195 C1196 1.355 . S
C1195 C1197 1.415 1_554 S
C1196 C1195 1.355 . S
C1196 C1198 1.419 . S
C1197 C1192 1.425 . S
C1197 C1194 1.409 . S
C1197 C1195 1.415 1_556 S
C1198 H1188 0.930 . S
C1198 C1196 1.419 . S
C1198 C1199 1.343 1_554 S
C1199 H1189 0.933 . S
C1199 C1192 1.426 . S
C1199 C1198 1.343 1_556 S
H1200 C1206 0.930 . S
H1201 C1209 0.930 . S
H1202 C1210 0.930 . S
H1203 C1211 0.930 . S
H1204 C1214 0.930 . S
H1205 C1215 0.930 . S
C1206 H1200 0.930 . S
C1206 C1207 1.355 . S
C1206 C1208 1.415 . S
C1207 C1206 1.355 . S
C1207 C1209 1.419 . S
C1208 C1206 1.415 . S
C1208 C1213 1.425 . S
C1208 C1215 1.409 . S
C1209 H1201 0.930 . S
C1209 C1207 1.419 . S
C1209 C1210 1.362 . S
C1210 H1202 0.930 . S
C1210 C1209 1.362 . S
C1210 C1213 1.409 . S
C1211 H1203 0.930 . S
C1211 C1212 1.355 . S
C1211 C1213 1.415 . S
C1212 C1211 1.355 . S
C1212 C1214 1.419 . S
C1213 C1208 1.425 . S
C1213 C1210 1.409 . S
C1213 C1211 1.415 . S
C1214 H1204 0.930 . S
C1214 C1212 1.419 . S
C1214 C1215 1.362 . S
C1215 H1205 0.930 . S
C1215 C1208 1.409 . S
C1215 C1214 1.362 . S
H1216 C1222 0.930 . S
H1217 C1225 0.930 . S
H1218 C1226 0.930 . S
H1219 C1227 0.930 . S
H1220 C1230 0.930 . S
H1221 C1231 0.930 . S
C1222 H1216 0.930 . S
C1222 C1223 1.355 . S
C1222 C1224 1.415 . S
C1223 C1222 1.355 . S
C1223 C1225 1.419 . S
C1224 C1222 1.415 . S
C1224 C1229 1.425 . S
C1224 C1231 1.409 . S
C1225 H1217 0.930 . S
C1225 C1223 1.419 . S
C1225 C1226 1.362 . S
C1226 H1218 0.930 . S
C1226 C1225 1.362 . S
C1226 C1229 1.409 . S
C1227 H1219 0.930 . S
C1227 C1228 1.355 . S
C1227 C1229 1.415 . S
C1228 C1227 1.355 . S
C1228 C1230 1.419 . S
C1229 C1224 1.425 . S
C1229 C1226 1.409 . S
C1229 C1227 1.415 . S
C1230 H1220 0.930 . S
C1230 C1228 1.419 . S
C1230 C1231 1.362 . S
C1231 H1221 0.930 . S
C1231 C1224 1.409 . S
C1231 C1230 1.362 . S
H1232 C1238 0.930 . S
H1233 C1241 0.930 . S
H1234 C1242 0.930 . S
H1235 C1243 0.930 . S
H1236 C1246 0.930 . S
H1237 C1247 0.930 . S
C1238 H1232 0.930 . S
C1238 C1239 1.355 . S
C1238 C1240 1.415 . S
C1239 C1238 1.355 . S
C1239 C1241 1.419 . S
C1240 C1238 1.415 . S
C1240 C1245 1.425 . S
C1240 C1247 1.409 . S
C1241 H1233 0.930 . S
C1241 C1239 1.419 . S
C1241 C1242 1.362 . S
C1242 H1234 0.930 . S
C1242 C1241 1.362 . S
C1242 C1245 1.409 . S
C1243 H1235 0.930 . S
C1243 C1244 1.355 . S
C1243 C1245 1.415 . S
C1244 C1243 1.355 . S
C1244 C1246 1.419 . S
C1245 C1240 1.425 . S
C1245 C1242 1.409 . S
C1245 C1243 1.415 . S
C1246 H1236 0.930 . S
C1246 C1244 1.419 . S
C1246 C1247 1.362 . S
C1247 H1237 0.930 . S
C1247 C1240 1.409 . S
C1247 C1246 1.362 . S
H1248 C1254 0.930 . S
H1249 C1257 0.930 . S
H1250 C1258 0.930 . S
H1251 C1259 0.930 . S
H1252 C1262 0.930 . S
H1253 C1263 0.930 . S
C1254 H1248 0.930 . S
C1254 C1255 1.355 . S
C1254 C1256 1.415 1_556 S
C1255 C1254 1.355 . S
C1255 C1257 1.419 . S
C1256 C1254 1.415 1_554 S
C1256 C1261 1.425 . S
C1256 C1263 1.409 . S
C1257 H1249 0.930 . S
C1257 C1255 1.419 . S
C1257 C1258 1.362 1_556 S
C1258 H1250 0.930 . S
C1258 C1257 1.362 1_554 S
C1258 C1261 1.409 . S
C1259 H1251 0.930 . S
C1259 C1260 1.355 . S
C1259 C1261 1.415 . S
C1260 C1259 1.355 . S
C1260 C1262 1.419 . S
C1261 C1256 1.425 . S
C1261 C1258 1.409 . S
C1261 C1259 1.415 . S
C1262 H1252 0.930 . S
C1262 C1260 1.419 . S
C1262 C1263 1.362 . S
C1263 H1253 0.930 . S
C1263 C1256 1.409 . S
C1263 C1262 1.362 . S
H1264 C1270 0.930 . S
H1265 C1273 0.930 . S
H1266 C1274 0.930 . S
H1267 C1275 0.930 . S
H1268 C1278 0.930 . S
H1269 C1279 0.930 . S
C1270 H1264 0.930 . S
C1270 C1271 1.355 . S
C1270 C1272 1.415 . S
C1271 C1270 1.355 . S
C1271 C1273 1.419 . S
C1272 C1270 1.415 . S
C1272 C1277 1.425 . S
C1272 C1279 1.409 . S
C1273 H1265 0.930 . S
C1273 C1271 1.419 . S
C1273 C1274 1.362 . S
C1274 H1266 0.930 . S
C1274 C1273 1.362 . S
C1274 C1277 1.409 . S
C1275 H1267 0.930 . S
C1275 C1276 1.355 . S
C1275 C1277 1.415 . S
C1276 C1275 1.355 . S
C1276 C1278 1.419 . S
C1277 C1272 1.425 . S
C1277 C1274 1.409 . S
C1277 C1275 1.415 . S
C1278 H1268 0.930 . S
C1278 C1276 1.419 . S
C1278 C1279 1.362 . S
C1279 H1269 0.930 . S
C1279 C1272 1.409 . S
C1279 C1278 1.362 . S
H1280 C1286 0.930 . S
H1281 C1289 0.930 . S
H1282 C1290 0.930 . S
H1283 C1291 0.930 . S
H1284 C1294 0.930 . S
H1285 C1295 0.930 . S
C1286 H1280 0.930 . S
C1286 C1287 1.355 . S
C1286 C1288 1.415 . S
C1287 C1286 1.355 . S
C1287 C1289 1.419 . S
C1288 C1286 1.415 . S
C1288 C1293 1.425 . S
C1288 C1295 1.409 . S
C1289 H1281 0.930 . S
C1289 C1287 1.419 . S
C1289 C1290 1.362 . S
C1290 H1282 0.930 . S
C1290 C1289 1.362 . S
C1290 C1293 1.409 . S
C1291 H1283 0.930 . S
C1291 C1292 1.355 . S
C1291 C1293 1.415 . S
C1292 C1291 1.355 . S
C1292 C1294 1.419 . S
C1293 C1288 1.425 . S
C1293 C1290 1.409 . S
C1293 C1291 1.415 . S
C1294 H1284 0.930 . S
C1294 C1292 1.419 . S
C1294 C1295 1.362 . S
C1295 H1285 0.930 . S
C1295 C1288 1.409 . S
C1295 C1294 1.362 . S
H1296 C1302 0.930 . S
H1297 C1305 0.930 . S
H1298 C1306 0.930 . S
H1299 C1307 0.930 . S
H1300 C1310 0.930 . S
H1301 C1311 0.930 . S
C1302 H1296 0.930 . S
C1302 C1303 1.355 . S
C1302 C1304 1.415 . S
C1303 C1302 1.355 . S
C1303 C1305 1.419 . S
C1304 C1302 1.415 . S
C1304 C1309 1.425 . S
C1304 C1311 1.409 . S
C1305 H1297 0.930 . S
C1305 C1303 1.419 . S
C1305 C1306 1.362 . S
C1306 H1298 0.930 . S
C1306 C1305 1.362 . S
C1306 C1309 1.409 . S
C1307 H1299 0.930 . S
C1307 C1308 1.355 . S
C1307 C1309 1.415 . S
C1308 C1307 1.355 . S
C1308 C1310 1.419 . S
C1309 C1304 1.425 . S
C1309 C1306 1.409 . S
C1309 C1307 1.415 . S
C1310 H1300 0.930 . S
C1310 C1308 1.419 . S
C1310 C1311 1.362 . S
C1311 H1301 0.930 . S
C1311 C1304 1.409 . S
C1311 C1310 1.362 . S
H1312 C1318 0.930 . S
H1313 C1321 0.930 . S
H1314 C1322 0.930 . S
H1315 C1323 0.930 . S
H1316 C1326 0.930 . S
H1317 C1327 0.930 . S
C1318 H1312 0.930 . S
C1318 C1319 1.355 . S
C1318 C1320 1.415 . S
C1319 C1318 1.355 . S
C1319 C1321 1.419 . S
C1320 C1318 1.415 . S
C1320 C1325 1.425 . S
C1320 C1327 1.409 . S
C1321 H1313 0.930 . S
C1321 C1319 1.419 . S
C1321 C1322 1.362 . S
C1322 H1314 0.930 . S
C1322 C1321 1.362 . S
C1322 C1325 1.409 . S
C1323 H1315 0.930 . S
C1323 C1324 1.355 . S
C1323 C1325 1.415 . S
C1324 C1323 1.355 . S
C1324 C1326 1.419 . S
C1325 C1320 1.425 . S
C1325 C1322 1.409 . S
C1325 C1323 1.415 . S
C1326 H1316 0.930 . S
C1326 C1324 1.419 . S
C1326 C1327 1.362 . S
C1327 H1317 0.930 . S
C1327 C1320 1.409 . S
C1327 C1326 1.362 . S
H1328 C1334 0.930 1_565 S
H1329 C1337 0.930 . S
H1330 C1338 0.930 . S
H1331 C1339 0.930 . S
H1332 C1342 0.930 . S
H1333 C1343 0.930 . S
C1334 H1328 0.930 1_545 S
C1334 C1335 1.355 1_545 S
C1334 C1336 1.415 . S
C1335 C1334 1.355 1_565 S
C1335 C1337 1.419 . S
C1336 C1334 1.415 . S
C1336 C1341 1.425 . S
C1336 C1343 1.409 . S
C1337 H1329 0.930 . S
C1337 C1335 1.419 . S
C1337 C1338 1.362 1_565 S
C1338 H1330 0.930 . S
C1338 C1337 1.362 1_545 S
C1338 C1341 1.409 . S
C1339 H1331 0.930 . S
C1339 C1340 1.355 . S
C1339 C1341 1.415 . S
C1340 C1339 1.355 . S
C1340 C1342 1.419 . S
C1341 C1336 1.425 . S
C1341 C1338 1.409 . S
C1341 C1339 1.415 . S
C1342 H1332 0.930 . S
C1342 C1340 1.419 . S
C1342 C1343 1.362 . S
C1343 H1333 0.930 . S
C1343 C1336 1.409 . S
C1343 C1342 1.362 . S
H1344 C1350 0.930 . S
H1345 C1353 0.930 . S
H1346 C1354 0.930 . S
H1347 C1355 0.930 . S
H1348 C1358 0.930 . S
H1349 C1359 0.930 . S
C1350 H1344 0.930 . S
C1350 C1351 1.355 . S
C1350 C1352 1.415 . S
C1351 C1350 1.355 . S
C1351 C1353 1.419 . S
C1352 C1350 1.415 . S
C1352 C1357 1.425 . S
C1352 C1359 1.409 . S
C1353 H1345 0.930 . S
C1353 C1351 1.419 . S
C1353 C1354 1.362 . S
C1354 H1346 0.930 . S
C1354 C1353 1.362 . S
C1354 C1357 1.409 . S
C1355 H1347 0.930 . S
C1355 C1356 1.355 . S
C1355 C1357 1.415 . S
C1356 C1355 1.355 . S
C1356 C1358 1.419 . S
C1357 C1352 1.425 . S
C1357 C1354 1.409 . S
C1357 C1355 1.415 . S
C1358 H1348 0.930 . S
C1358 C1356 1.419 . S
C1358 C1359 1.362 . S
C1359 H1349 0.930 . S
C1359 C1352 1.409 . S
C1359 C1358 1.362 . S
H1360 C1366 0.930 . S
H1361 C1369 0.930 . S
H1362 C1370 0.930 . S
H1363 C1371 0.930 . S
H1364 C1374 0.930 . S
H1365 C1375 0.930 . S
C1366 H1360 0.930 . S
C1366 C1367 1.355 . S
C1366 C1368 1.415 . S
C1367 C1366 1.355 . S
C1367 C1369 1.419 . S
C1368 C1366 1.415 . S
C1368 C1373 1.425 . S
C1368 C1375 1.409 . S
C1369 H1361 0.930 . S
C1369 C1367 1.419 . S
C1369 C1370 1.362 . S
C1370 H1362 0.930 . S
C1370 C1369 1.362 . S
C1370 C1373 1.409 . S
C1371 H1363 0.930 . S
C1371 C1372 1.355 . S
C1371 C1373 1.415 . S
C1372 C1371 1.355 . S
C1372 C1374 1.419 . S
C1373 C1368 1.425 . S
C1373 C1370 1.409 . S
C1373 C1371 1.415 . S
C1374 H1364 0.930 . S
C1374 C1372 1.419 . S
C1374 C1375 1.362 . S
C1375 H1365 0.930 . S
C1375 C1368 1.409 . S
C1375 C1374 1.362 . S
H1376 C1382 0.930 . S
H1377 C1385 0.930 . S
H1378 C1386 0.930 . S
H1379 C1387 0.930 . S
H1380 C1390 0.930 . S
H1381 C1391 0.930 . S
C1382 H1376 0.930 . S
C1382 C1383 1.355 . S
C1382 C1384 1.415 . S
C1383 C1382 1.355 . S
C1383 C1385 1.419 . S
C1384 C1382 1.415 . S
C1384 C1389 1.425 . S
C1384 C1391 1.409 . S
C1385 H1377 0.930 . S
C1385 C1383 1.419 . S
C1385 C1386 1.362 . S
C1386 H1378 0.930 . S
C1386 C1385 1.362 . S
C1386 C1389 1.409 . S
C1387 H1379 0.930 . S
C1387 C1388 1.355 . S
C1387 C1389 1.415 . S
C1388 C1387 1.355 . S
C1388 C1390 1.419 . S
C1389 C1384 1.425 . S
C1389 C1386 1.409 . S
C1389 C1387 1.415 . S
C1390 H1380 0.930 . S
C1390 C1388 1.419 . S
C1390 C1391 1.362 . S
C1391 H1381 0.930 . S
C1391 C1384 1.409 . S
C1391 C1390 1.362 . S
H1392 C1398 0.930 . S
H1393 C1401 0.930 . S
H1394 C1402 0.930 . S
H1395 C1403 0.930 . S
H1396 C1406 0.930 . S
H1397 C1407 0.930 . S
C1398 H1392 0.930 . S
C1398 C1399 1.355 . S
C1398 C1400 1.415 . S
C1399 C1398 1.355 . S
C1399 C1401 1.419 . S
C1400 C1398 1.415 . S
C1400 C1405 1.425 . S
C1400 C1407 1.409 . S
C1401 H1393 0.930 . S
C1401 C1399 1.419 . S
C1401 C1402 1.362 . S
C1402 H1394 0.930 . S
C1402 C1401 1.362 . S
C1402 C1405 1.409 . S
C1403 H1395 0.930 . S
C1403 C1404 1.355 . S
C1403 C1405 1.415 . S
C1404 C1403 1.355 . S
C1404 C1406 1.419 . S
C1405 C1400 1.425 . S
C1405 C1402 1.409 . S
C1405 C1403 1.415 . S
C1406 H1396 0.930 . S
C1406 C1404 1.419 . S
C1406 C1407 1.362 . S
C1407 H1397 0.930 . S
C1407 C1400 1.409 . S
C1407 C1406 1.362 . S
H1408 C1414 0.930 . S
H1409 C1417 0.930 . S
H1410 C1418 0.930 . S
H1411 C1419 0.930 . S
H1412 C1422 0.930 . S
H1413 C1423 0.930 . S
C1414 H1408 0.930 . S
C1414 C1415 1.355 . S
C1414 C1416 1.415 . S
C1415 C1414 1.355 . S
C1415 C1417 1.419 . S
C1416 C1414 1.415 . S
C1416 C1421 1.425 . S
C1416 C1423 1.409 . S
C1417 H1409 0.930 . S
C1417 C1415 1.419 . S
C1417 C1418 1.362 . S
C1418 H1410 0.930 . S
C1418 C1417 1.362 . S
C1418 C1421 1.409 . S
C1419 H1411 0.930 . S
C1419 C1420 1.355 . S
C1419 C1421 1.415 . S
C1420 C1419 1.355 . S
C1420 C1422 1.419 . S
C1421 C1416 1.425 . S
C1421 C1418 1.409 . S
C1421 C1419 1.415 . S
C1422 H1412 0.930 . S
C1422 C1420 1.419 . S
C1422 C1423 1.362 . S
C1423 H1413 0.930 . S
C1423 C1416 1.409 . S
C1423 C1422 1.362 . S
H1424 C1430 0.930 . S
H1425 C1433 0.930 . S
H1426 C1434 0.930 . S
H1427 C1435 0.930 . S
H1428 C1438 0.930 . S
H1429 C1439 0.930 . S
C1430 H1424 0.930 . S
C1430 C1431 1.355 . S
C1430 C1432 1.415 . S
C1431 C1430 1.355 . S
C1431 C1433 1.419 . S
C1432 C1430 1.415 . S
C1432 C1437 1.425 . S
C1432 C1439 1.409 . S
C1433 H1425 0.930 . S
C1433 C1431 1.419 . S
C1433 C1434 1.362 . S
C1434 H1426 0.930 . S
C1434 C1433 1.362 . S
C1434 C1437 1.409 . S
C1435 H1427 0.930 . S
C1435 C1436 1.355 . S
C1435 C1437 1.415 . S
C1436 C1435 1.355 . S
C1436 C1438 1.419 . S
C1437 C1432 1.425 . S
C1437 C1434 1.409 . S
C1437 C1435 1.415 . S
C1438 H1428 0.930 . S
C1438 C1436 1.419 . S
C1438 C1439 1.362 . S
C1439 H1429 0.930 . S
C1439 C1432 1.409 . S
C1439 C1438 1.362 . S
H1440 C1446 0.930 . S
H1441 C1449 0.930 . S
H1442 C1450 0.930 . S
H1443 C1451 0.930 . S
H1444 C1454 0.930 . S
H1445 C1455 0.930 . S
C1446 H1440 0.930 . S
C1446 C1447 1.355 . S
C1446 C1448 1.415 1_655 S
C1447 C1446 1.355 . S
C1447 C1449 1.419 . S
C1448 C1446 1.415 1_455 S
C1448 C1453 1.425 . S
C1448 C1455 1.409 . S
C1449 H1441 0.930 . S
C1449 C1447 1.419 . S
C1449 C1450 1.362 1_655 S
C1450 H1442 0.930 . S
C1450 C1449 1.362 1_455 S
C1450 C1453 1.409 . S
C1451 H1443 0.930 . S
C1451 C1452 1.355 . S
C1451 C1453 1.415 . S
C1452 C1451 1.355 . S
C1452 C1454 1.419 . S
C1453 C1448 1.425 . S
C1453 C1450 1.409 . S
C1453 C1451 1.415 . S
C1454 H1444 0.930 . S
C1454 C1452 1.419 . S
C1454 C1455 1.362 . S
C1455 H1445 0.930 . S
C1455 C1448 1.409 . S
C1455 C1454 1.362 . S
H1456 C1462 0.930 . S
H1457 C1465 0.930 . S
H1458 C1466 0.930 . S
H1459 C1467 0.930 . S
H1460 C1470 0.930 . S
H1461 C1471 0.930 . S
C1462 H1456 0.930 . S
C1462 C1463 1.355 . S
C1462 C1464 1.415 . S
C1463 C1462 1.355 . S
C1463 C1465 1.419 . S
C1464 C1462 1.415 . S
C1464 C1469 1.425 . S
C1464 C1471 1.409 . S
C1465 H1457 0.930 . S
C1465 C1463 1.419 . S
C1465 C1466 1.362 . S
C1466 H1458 0.930 . S
C1466 C1465 1.362 . S
C1466 C1469 1.409 . S
C1467 H1459 0.930 . S
C1467 C1468 1.355 . S
C1467 C1469 1.415 . S
C1468 C1467 1.355 . S
C1468 C1470 1.419 . S
C1469 C1464 1.425 . S
C1469 C1466 1.409 . S
C1469 C1467 1.415 . S
C1470 H1460 0.930 . S
C1470 C1468 1.419 . S
C1470 C1471 1.362 . S
C1471 H1461 0.930 . S
C1471 C1464 1.409 . S
C1471 C1470 1.362 . S
H1472 C1478 0.930 . S
H1473 C1481 0.930 . S
H1474 C1482 0.930 . S
H1475 C1483 0.930 . S
H1476 C1486 0.930 . S
H1477 C1487 0.930 . S
C1478 H1472 0.930 . S
C1478 C1479 1.355 . S
C1478 C1480 1.415 . S
C1479 C1478 1.355 . S
C1479 C1481 1.419 . S
C1480 C1478 1.415 . S
C1480 C1485 1.425 . S
C1480 C1487 1.409 . S
C1481 H1473 0.930 . S
C1481 C1479 1.419 . S
C1481 C1482 1.362 . S
C1482 H1474 0.930 . S
C1482 C1481 1.362 . S
C1482 C1485 1.409 . S
C1483 H1475 0.930 . S
C1483 C1484 1.355 . S
C1483 C1485 1.415 1_655 S
C1484 C1483 1.355 . S
C1484 C1486 1.419 . S
C1485 C1480 1.425 . S
C1485 C1482 1.409 . S
C1485 C1483 1.415 1_455 S
C1486 H1476 0.930 . S
C1486 C1484 1.419 . S
C1486 C1487 1.362 1_655 S
C1487 H1477 0.930 . S
C1487 C1480 1.409 . S
C1487 C1486 1.362 1_455 S
H1488 C1494 0.930 . S
H1489 C1497 0.930 . S
H1490 C1498 0.930 . S
H1491 C1499 0.930 . S
H1492 C1502 0.930 . S
H1493 C1503 0.930 . S
C1494 H1488 0.930 . S
C1494 C1495 1.355 . S
C1494 C1496 1.415 . S
C1495 C1494 1.355 . S
C1495 C1497 1.419 . S
C1496 C1494 1.415 . S
C1496 C1501 1.425 . S
C1496 C1503 1.409 . S
C1497 H1489 0.930 . S
C1497 C1495 1.419 . S
C1497 C1498 1.362 . S
C1498 H1490 0.930 . S
C1498 C1497 1.362 . S
C1498 C1501 1.409 . S
C1499 H1491 0.930 . S
C1499 C1500 1.355 . S
C1499 C1501 1.415 . S
C1500 C1499 1.355 . S
C1500 C1502 1.419 . S
C1501 C1496 1.425 . S
C1501 C1498 1.409 . S
C1501 C1499 1.415 . S
C1502 H1492 0.930 . S
C1502 C1500 1.419 . S
C1502 C1503 1.362 . S
C1503 H1493 0.930 . S
C1503 C1496 1.409 . S
C1503 C1502 1.362 . S
H1504 C1510 0.930 . S
H1505 C1513 0.930 . S
H1506 C1514 0.930 . S
H1507 C1515 0.930 . S
H1508 C1518 0.930 . S
H1509 C1519 0.930 . S
C1510 H1504 0.930 . S
C1510 C1511 1.355 . S
C1510 C1512 1.415 . S
C1511 C1510 1.355 . S
C1511 C1513 1.419 . S
C1512 C1510 1.415 . S
C1512 C1517 1.425 . S
C1512 C1519 1.409 . S
C1513 H1505 0.930 . S
C1513 C1511 1.419 . S
C1513 C1514 1.362 . S
C1514 H1506 0.930 . S
C1514 C1513 1.362 . S
C1514 C1517 1.409 . S
C1515 H1507 0.930 . S
C1515 C1516 1.355 . S
C1515 C1517 1.415 . S
C1516 C1515 1.355 . S
C1516 C1518 1.419 . S
C1517 C1512 1.425 . S
C1517 C1514 1.409 . S
C1517 C1515 1.415 . S
C1518 H1508 0.930 . S
C1518 C1516 1.419 . S
C1518 C1519 1.362 . S
C1519 H1509 0.930 . S
C1519 C1512 1.409 . S
C1519 C1518 1.362 . S
H1520 C1526 0.930 . S
H1521 C1529 0.930 . S
H1522 C1530 0.930 . S
H1523 C1531 0.930 . S
H1524 C1534 0.930 . S
H1525 C1535 0.930 . S
C1526 H1520 0.930 . S
C1526 C1527 1.355 . S
C1526 C1528 1.415 . S
C1527 C1526 1.355 . S
C1527 C1529 1.419 . S
C1528 C1526 1.415 . S
C1528 C1533 1.425 . S
C1528 C1535 1.409 . S
C1529 H1521 0.930 . S
C1529 C1527 1.419 . S
C1529 C1530 1.362 . S
C1530 H1522 0.930 . S
C1530 C1529 1.362 . S
C1530 C1533 1.409 . S
C1531 H1523 0.930 . S
C1531 C1532 1.355 . S
C1531 C1533 1.415 . S
C1532 C1531 1.355 . S
C1532 C1534 1.419 . S
C1533 C1528 1.425 . S
C1533 C1530 1.409 . S
C1533 C1531 1.415 . S
C1534 H1524 0.930 . S
C1534 C1532 1.419 . S
C1534 C1535 1.362 . S
C1535 H1525 0.930 . S
C1535 C1528 1.409 . S
C1535 C1534 1.362 . S
H1536 C1542 0.930 . S
H1537 C1545 0.930 . S
H1538 C1546 0.930 . S
H1539 C1547 0.930 . S
H1540 C1550 0.930 . S
H1541 C1551 0.930 . S
C1542 H1536 0.930 . S
C1542 C1543 1.355 . S
C1542 C1544 1.415 . S
C1543 C1542 1.355 . S
C1543 C1545 1.419 . S
C1544 C1542 1.415 . S
C1544 C1549 1.425 . S
C1544 C1551 1.409 . S
C1545 H1537 0.930 . S
C1545 C1543 1.419 . S
C1545 C1546 1.362 . S
C1546 H1538 0.930 . S
C1546 C1545 1.362 . S
C1546 C1549 1.409 . S
C1547 H1539 0.930 . S
C1547 C1548 1.355 . S
C1547 C1549 1.415 1_556 S
C1548 C1547 1.355 . S
C1548 C1550 1.419 . S
C1549 C1544 1.425 . S
C1549 C1546 1.409 . S
C1549 C1547 1.415 1_554 S
C1550 H1540 0.930 . S
C1550 C1548 1.419 . S
C1550 C1551 1.362 1_556 S
C1551 H1541 0.930 . S
C1551 C1544 1.409 . S
C1551 C1550 1.362 1_554 S
H1552 C1558 0.930 . S
H1553 C1561 0.930 . S
H1554 C1562 0.930 . S
H1555 C1563 0.930 . S
H1556 C1566 0.930 . S
H1557 C1567 0.930 . S
C1558 H1552 0.930 . S
C1558 C1559 1.355 . S
C1558 C1560 1.415 . S
C1559 C1558 1.355 . S
C1559 C1561 1.419 . S
C1560 C1558 1.415 . S
C1560 C1565 1.425 . S
C1560 C1567 1.409 . S
C1561 H1553 0.930 . S
C1561 C1559 1.419 . S
C1561 C1562 1.362 . S
C1562 H1554 0.930 . S
C1562 C1561 1.362 . S
C1562 C1565 1.409 . S
C1563 H1555 0.930 . S
C1563 C1564 1.355 . S
C1563 C1565 1.415 . S
C1564 C1563 1.355 . S
C1564 C1566 1.419 . S
C1565 C1560 1.425 . S
C1565 C1562 1.409 . S
C1565 C1563 1.415 . S
C1566 H1556 0.930 . S
C1566 C1564 1.419 . S
C1566 C1567 1.362 . S
C1567 H1557 0.930 . S
C1567 C1560 1.409 . S
C1567 C1566 1.362 . S
H1568 C1574 0.930 . S
H1569 C1577 0.930 . S
H1570 C1578 0.930 . S
H1571 C1579 0.930 . S
H1572 C1582 0.930 . S
H1573 C1583 0.930 . S
C1574 H1568 0.930 . S
C1574 C1575 1.355 . S
C1574 C1576 1.415 . S
C1575 C1574 1.355 . S
C1575 C1577 1.419 . S
C1576 C1574 1.415 . S
C1576 C1581 1.425 . S
C1576 C1583 1.409 . S
C1577 H1569 0.930 . S
C1577 C1575 1.419 . S
C1577 C1578 1.362 . S
C1578 H1570 0.930 . S
C1578 C1577 1.362 . S
C1578 C1581 1.409 . S
C1579 H1571 0.930 . S
C1579 C1580 1.355 . S
C1579 C1581 1.415 . S
C1580 C1579 1.355 . S
C1580 C1582 1.419 . S
C1581 C1576 1.425 . S
C1581 C1578 1.409 . S
C1581 C1579 1.415 . S
C1582 H1572 0.930 . S
C1582 C1580 1.419 . S
C1582 C1583 1.362 . S
C1583 H1573 0.930 . S
C1583 C1576 1.409 . S
C1583 C1582 1.362 . S
H1584 C1590 0.930 . S
H1585 C1593 0.930 . S
H1586 C1594 0.930 . S
H1587 C1595 0.930 . S
H1588 C1598 0.930 . S
H1589 C1599 0.930 . S
C1590 H1584 0.930 . S
C1590 C1591 1.355 . S
C1590 C1592 1.415 . S
C1591 C1590 1.355 . S
C1591 C1593 1.419 . S
C1592 C1590 1.415 . S
C1592 C1597 1.425 . S
C1592 C1599 1.409 . S
C1593 H1585 0.930 . S
C1593 C1591 1.419 . S
C1593 C1594 1.362 . S
C1594 H1586 0.930 . S
C1594 C1593 1.362 . S
C1594 C1597 1.409 . S
C1595 H1587 0.930 . S
C1595 C1596 1.355 . S
C1595 C1597 1.415 . S
C1596 C1595 1.355 . S
C1596 C1598 1.419 . S
C1597 C1592 1.425 . S
C1597 C1594 1.409 . S
C1597 C1595 1.415 . S
C1598 H1588 0.930 . S
C1598 C1596 1.419 . S
C1598 C1599 1.362 . S
C1599 H1589 0.930 . S
C1599 C1592 1.409 . S
C1599 C1598 1.362 . S
H1600 C1606 0.930 . S
H1601 C1609 0.930 . S
H1602 C1610 0.930 . S
H1603 C1611 0.930 . S
H1604 C1614 0.930 . S
H1605 C1615 0.930 . S
C1606 H1600 0.930 . S
C1606 C1607 1.355 . S
C1606 C1608 1.415 . S
C1607 C1606 1.355 . S
C1607 C1609 1.419 . S
C1608 C1606 1.415 . S
C1608 C1613 1.425 . S
C1608 C1615 1.409 . S
C1609 H1601 0.930 . S
C1609 C1607 1.419 . S
C1609 C1610 1.362 . S
C1610 H1602 0.930 . S
C1610 C1609 1.362 . S
C1610 C1613 1.409 . S
C1611 H1603 0.930 . S
C1611 C1612 1.355 . S
C1611 C1613 1.415 1_554 S
C1612 C1611 1.355 . S
C1612 C1614 1.419 . S
C1613 C1608 1.425 . S
C1613 C1610 1.409 . S
C1613 C1611 1.415 1_556 S
C1614 H1604 0.930 . S
C1614 C1612 1.419 . S
C1614 C1615 1.362 1_554 S
C1615 H1605 0.930 . S
C1615 C1608 1.409 . S
C1615 C1614 1.362 1_556 S
H1616 C1622 0.930 . S
H1617 C1625 0.930 . S
H1618 C1626 0.930 . S
H1619 C1627 0.930 . S
H1620 C1630 0.930 . S
H1621 C1631 0.930 . S
C1622 H1616 0.930 . S
C1622 C1623 1.355 . S
C1622 C1624 1.415 . S
C1623 C1622 1.355 . S
C1623 C1625 1.419 . S
C1624 C1622 1.415 . S
C1624 C1629 1.425 . S
C1624 C1631 1.409 . S
C1625 H1617 0.930 . S
C1625 C1623 1.419 . S
C1625 C1626 1.362 . S
C1626 H1618 0.930 . S
C1626 C1625 1.362 . S
C1626 C1629 1.409 . S
C1627 H1619 0.930 . S
C1627 C1628 1.355 . S
C1627 C1629 1.415 . S
C1628 C1627 1.355 . S
C1628 C1630 1.419 . S
C1629 C1624 1.425 . S
C1629 C1626 1.409 . S
C1629 C1627 1.415 . S
C1630 H1620 0.930 . S
C1630 C1628 1.419 . S
C1630 C1631 1.362 . S
C1631 H1621 0.930 . S
C1631 C1624 1.409 . S
C1631 C1630 1.362 . S
H1632 C1638 0.930 . S
H1633 C1641 0.930 . S
H1634 C1642 0.930 . S
H1635 C1643 0.930 . S
H1636 C1646 0.930 . S
H1637 C1647 0.930 . S
C1638 H1632 0.930 . S
C1638 C1639 1.355 . S
C1638 C1640 1.415 . S
C1639 C1638 1.355 . S
C1639 C1641 1.419 . S
C1640 C1638 1.415 . S
C1640 C1645 1.425 . S
C1640 C1647 1.409 . S
C1641 H1633 0.930 . S
C1641 C1639 1.419 . S
C1641 C1642 1.362 . S
C1642 H1634 0.930 . S
C1642 C1641 1.362 . S
C1642 C1645 1.409 . S
C1643 H1635 0.930 . S
C1643 C1644 1.355 . S
C1643 C1645 1.415 . S
C1644 C1643 1.355 . S
C1644 C1646 1.419 . S
C1645 C1640 1.425 . S
C1645 C1642 1.409 . S
C1645 C1643 1.415 . S
C1646 H1636 0.930 . S
C1646 C1644 1.419 . S
C1646 C1647 1.362 . S
C1647 H1637 0.930 . S
C1647 C1640 1.409 . S
C1647 C1646 1.362 . S
H1648 C1654 0.930 . S
H1649 C1657 0.930 . S
H1650 C1658 0.930 . S
H1651 C1659 0.930 . S
H1652 C1662 0.930 . S
H1653 C1663 0.930 . S
C1654 H1648 0.930 . S
C1654 C1655 1.355 . S
C1654 C1656 1.415 . S
C1655 C1654 1.355 . S
C1655 C1657 1.419 . S
C1656 C1654 1.415 . S
C1656 C1661 1.425 . S
C1656 C1663 1.409 . S
C1657 H1649 0.930 . S
C1657 C1655 1.419 . S
C1657 C1658 1.362 . S
C1658 H1650 0.930 . S
C1658 C1657 1.362 . S
C1658 C1661 1.409 . S
C1659 H1651 0.930 . S
C1659 C1660 1.355 . S
C1659 C1661 1.415 . S
C1660 C1659 1.355 . S
C1660 C1662 1.419 . S
C1661 C1656 1.425 . S
C1661 C1658 1.409 . S
C1661 C1659 1.415 . S
C1662 H1652 0.930 . S
C1662 C1660 1.419 . S
C1662 C1663 1.362 . S
C1663 H1653 0.930 . S
C1663 C1656 1.409 . S
C1663 C1662 1.362 . S
H1664 C1670 0.930 . S
H1665 C1673 0.930 . S
H1666 C1674 0.930 . S
H1667 C1675 0.930 . S
H1668 C1678 0.930 . S
H1669 C1679 0.930 . S
C1670 H1664 0.930 . S
C1670 C1671 1.355 . S
C1670 C1672 1.415 . S
C1671 C1670 1.355 . S
C1671 C1673 1.419 . S
C1672 C1670 1.415 . S
C1672 C1677 1.425 . S
C1672 C1679 1.409 . S
C1673 H1665 0.930 . S
C1673 C1671 1.419 . S
C1673 C1674 1.362 . S
C1674 H1666 0.930 . S
C1674 C1673 1.362 . S
C1674 C1677 1.409 . S
C1675 H1667 0.930 . S
C1675 C1676 1.355 . S
C1675 C1677 1.415 . S
C1676 C1675 1.355 . S
C1676 C1678 1.419 . S
C1677 C1672 1.425 . S
C1677 C1674 1.409 . S
C1677 C1675 1.415 . S
C1678 H1668 0.930 . S
C1678 C1676 1.419 . S
C1678 C1679 1.362 . S
C1679 H1669 0.930 . S
C1679 C1672 1.409 . S
C1679 C1678 1.362 . S
H1680 C1686 0.930 . S
H1681 C1689 0.930 . S
H1682 C1690 0.930 . S
H1683 C1691 0.930 . S
H1684 C1694 0.930 . S
H1685 C1695 0.930 . S
C1686 H1680 0.930 . S
C1686 C1687 1.355 . S
C1686 C1688 1.415 . S
C1687 C1686 1.355 . S
C1687 C1689 1.419 . S
C1688 C1686 1.415 . S
C1688 C1693 1.425 . S
C1688 C1695 1.409 . S
C1689 H1681 0.930 . S
C1689 C1687 1.419 . S
C1689 C1690 1.362 . S
C1690 H1682 0.930 . S
C1690 C1689 1.362 . S
C1690 C1693 1.409 . S
C1691 H1683 0.930 . S
C1691 C1692 1.355 . S
C1691 C1693 1.415 1_565 S
C1692 C1691 1.355 . S
C1692 C1694 1.419 . S
C1693 C1688 1.425 . S
C1693 C1690 1.409 . S
C1693 C1691 1.415 1_545 S
C1694 H1684 0.930 . S
C1694 C1692 1.419 . S
C1694 C1695 1.362 1_565 S
C1695 H1685 0.930 . S
C1695 C1688 1.409 . S
C1695 C1694 1.362 1_545 S
H1696 C1702 0.930 . S
H1697 C1705 0.930 . S
H1698 C1706 0.930 . S
H1699 C1707 0.930 . S
H1700 C1710 0.930 . S
H1701 C1711 0.930 . S
C1702 H1696 0.930 . S
C1702 C1703 1.355 . S
C1702 C1704 1.415 . S
C1703 C1702 1.355 . S
C1703 C1705 1.419 . S
C1704 C1702 1.415 . S
C1704 C1709 1.425 . S
C1704 C1711 1.409 . S
C1705 H1697 0.930 . S
C1705 C1703 1.419 . S
C1705 C1706 1.362 . S
C1706 H1698 0.930 . S
C1706 C1705 1.362 . S
C1706 C1709 1.409 . S
C1707 H1699 0.930 . S
C1707 C1708 1.355 . S
C1707 C1709 1.415 . S
C1708 C1707 1.355 . S
C1708 C1710 1.419 . S
C1709 C1704 1.425 . S
C1709 C1706 1.409 . S
C1709 C1707 1.415 . S
C1710 H1700 0.930 . S
C1710 C1708 1.419 . S
C1710 C1711 1.362 . S
C1711 H1701 0.930 . S
C1711 C1704 1.409 . S
C1711 C1710 1.362 . S
H1712 C1718 0.930 . S
H1713 C1721 0.930 . S
H1714 C1722 0.930 . S
H1715 C1723 0.930 . S
H1716 C1726 0.930 . S
H1717 C1727 0.930 . S
C1718 H1712 0.930 . S
C1718 C1719 1.355 . S
C1718 C1720 1.415 . S
C1719 C1718 1.355 . S
C1719 C1721 1.419 . S
C1720 C1718 1.415 . S
C1720 C1725 1.425 . S
C1720 C1727 1.409 . S
C1721 H1713 0.930 . S
C1721 C1719 1.419 . S
C1721 C1722 1.362 . S
C1722 H1714 0.930 . S
C1722 C1721 1.362 . S
C1722 C1725 1.409 . S
C1723 H1715 0.930 . S
C1723 C1724 1.355 . S
C1723 C1725 1.415 . S
C1724 C1723 1.355 . S
C1724 C1726 1.419 . S
C1725 C1720 1.425 . S
C1725 C1722 1.409 . S
C1725 C1723 1.415 . S
C1726 H1716 0.930 . S
C1726 C1724 1.419 . S
C1726 C1727 1.362 . S
C1727 H1717 0.930 . S
C1727 C1720 1.409 . S
C1727 C1726 1.362 . S
H1728 C1734 0.930 . S
H1729 C1737 0.930 . S
H1730 C1738 0.930 . S
H1731 C1739 0.930 . S
H1732 C1742 0.930 . S
H1733 C1743 0.930 . S
C1734 H1728 0.930 . S
C1734 C1735 1.355 . S
C1734 C1736 1.415 . S
C1735 C1734 1.355 . S
C1735 C1737 1.419 . S
C1736 C1734 1.415 . S
C1736 C1741 1.425 . S
C1736 C1743 1.409 . S
C1737 H1729 0.930 . S
C1737 C1735 1.419 . S
C1737 C1738 1.362 . S
C1738 H1730 0.930 . S
C1738 C1737 1.362 . S
C1738 C1741 1.409 . S
C1739 H1731 0.930 . S
C1739 C1740 1.355 . S
C1739 C1741 1.415 . S
C1740 C1739 1.355 . S
C1740 C1742 1.419 . S
C1741 C1736 1.425 . S
C1741 C1738 1.409 . S
C1741 C1739 1.415 . S
C1742 H1732 0.930 . S
C1742 C1740 1.419 . S
C1742 C1743 1.362 . S
C1743 H1733 0.930 . S
C1743 C1736 1.409 . S
C1743 C1742 1.362 . S
H1744 C1750 0.930 . S
H1745 C1753 0.930 . S
H1746 C1754 0.932 . S
H1747 C1755 0.930 . S
H1748 C1758 0.930 . S
H1749 C1759 0.930 . S
C1750 H1744 0.930 . S
C1750 C1751 1.355 . S
C1750 C1752 1.415 1_545 S
C1751 C1750 1.355 . S
C1751 C1753 1.419 . S
C1752 C1750 1.415 1_565 S
C1752 C1757 1.425 . S
C1752 C1759 1.409 . S
C1753 H1745 0.930 . S
C1753 C1751 1.419 . S
C1753 C1754 1.346 1_545 S
C1754 H1746 0.932 . S
C1754 C1753 1.346 1_565 S
C1754 C1757 1.424 . S
C1755 H1747 0.930 . S
C1755 C1756 1.355 . S
C1755 C1757 1.415 . S
C1756 C1755 1.355 . S
C1756 C1758 1.419 . S
C1757 C1752 1.425 . S
C1757 C1754 1.424 . S
C1757 C1755 1.415 . S
C1758 H1748 0.930 . S
C1758 C1756 1.419 . S
C1758 C1759 1.362 . S
C1759 H1749 0.930 . S
C1759 C1752 1.409 . S
C1759 C1758 1.362 . S
H1760 C1766 0.930 . S
H1761 C1769 0.930 . S
H1762 C1770 0.930 . S
H1763 C1771 0.930 . S
H1764 C1774 0.930 . S
H1765 C1775 0.930 . S
C1766 H1760 0.930 . S
C1766 C1767 1.355 . S
C1766 C1768 1.415 . S
C1767 C1766 1.355 . S
C1767 C1769 1.419 . S
C1768 C1766 1.415 . S
C1768 C1773 1.425 . S
C1768 C1775 1.409 . S
C1769 H1761 0.930 . S
C1769 C1767 1.419 . S
C1769 C1770 1.362 . S
C1770 H1762 0.930 . S
C1770 C1769 1.362 . S
C1770 C1773 1.409 . S
C1771 H1763 0.930 . S
C1771 C1772 1.355 . S
C1771 C1773 1.415 1_565 S
C1772 C1771 1.355 . S
C1772 C1774 1.419 . S
C1773 C1768 1.425 . S
C1773 C1770 1.409 . S
C1773 C1771 1.415 1_545 S
C1774 H1764 0.930 . S
C1774 C1772 1.419 . S
C1774 C1775 1.362 1_565 S
C1775 H1765 0.930 . S
C1775 C1768 1.409 . S
C1775 C1774 1.362 1_545 S
H1776 C1782 0.930 . S
H1777 C1785 0.930 . S
H1778 C1786 0.930 . S
H1779 C1787 0.930 . S
H1780 C1790 0.930 . S
H1781 C1791 0.930 . S
C1782 H1776 0.930 . S
C1782 C1783 1.355 . S
C1782 C1784 1.415 . S
C1783 C1782 1.355 . S
C1783 C1785 1.419 . S
C1784 C1782 1.415 . S
C1784 C1789 1.425 . S
C1784 C1791 1.409 . S
C1785 H1777 0.930 . S
C1785 C1783 1.419 . S
C1785 C1786 1.362 . S
C1786 H1778 0.930 . S
C1786 C1785 1.362 . S
C1786 C1789 1.409 . S
C1787 H1779 0.930 . S
C1787 C1788 1.355 . S
C1787 C1789 1.415 . S
C1788 C1787 1.355 . S
C1788 C1790 1.419 . S
C1789 C1784 1.425 . S
C1789 C1786 1.409 . S
C1789 C1787 1.415 . S
C1790 H1780 0.930 . S
C1790 C1788 1.419 . S
C1790 C1791 1.362 . S
C1791 H1781 0.930 . S
C1791 C1784 1.409 . S
C1791 C1790 1.362 . S
H1792 C1798 0.930 . S
H1793 C1801 0.930 . S
H1794 C1802 0.930 . S
H1795 C1803 0.930 . S
H1796 C1806 0.930 . S
H1797 C1807 0.930 . S
C1798 H1792 0.930 . S
C1798 C1799 1.355 . S
C1798 C1800 1.415 . S
C1799 C1798 1.355 . S
C1799 C1801 1.419 . S
C1800 C1798 1.415 . S
C1800 C1805 1.425 . S
C1800 C1807 1.409 . S
C1801 H1793 0.930 . S
C1801 C1799 1.419 . S
C1801 C1802 1.362 . S
C1802 H1794 0.930 . S
C1802 C1801 1.362 . S
C1802 C1805 1.409 . S
C1803 H1795 0.930 . S
C1803 C1804 1.355 . S
C1803 C1805 1.415 . S
C1804 C1803 1.355 . S
C1804 C1806 1.419 . S
C1805 C1800 1.425 . S
C1805 C1802 1.409 . S
C1805 C1803 1.415 . S
C1806 H1796 0.930 . S
C1806 C1804 1.419 . S
C1806 C1807 1.362 . S
C1807 H1797 0.930 . S
C1807 C1800 1.409 . S
C1807 C1806 1.362 . S
H1808 C1814 0.930 . S
H1809 C1817 0.930 . S
H1810 C1818 0.930 . S
H1811 C1819 0.930 . S
H1812 C1822 0.930 . S
H1813 C1823 0.930 . S
C1814 H1808 0.930 . S
C1814 C1815 1.355 . S
C1814 C1816 1.415 . S
C1815 C1814 1.355 . S
C1815 C1817 1.419 . S
C1816 C1814 1.415 . S
C1816 C1821 1.425 . S
C1816 C1823 1.409 . S
C1817 H1809 0.930 . S
C1817 C1815 1.419 . S
C1817 C1818 1.362 . S
C1818 H1810 0.930 . S
C1818 C1817 1.362 . S
C1818 C1821 1.409 . S
C1819 H1811 0.930 . S
C1819 C1820 1.355 . S
C1819 C1821 1.415 . S
C1820 C1819 1.355 . S
C1820 C1822 1.419 . S
C1821 C1816 1.425 . S
C1821 C1818 1.409 . S
C1821 C1819 1.415 . S
C1822 H1812 0.930 . S
C1822 C1820 1.419 . S
C1822 C1823 1.362 . S
C1823 H1813 0.930 . S
C1823 C1816 1.409 . S
C1823 C1822 1.362 . S
H1824 C1830 0.930 . S
H1825 C1833 0.930 . S
H1826 C1834 0.930 . S
H1827 C1835 0.930 . S
H1828 C1838 0.930 . S
H1829 C1839 0.930 . S
C1830 H1824 0.930 . S
C1830 C1831 1.355 1_655 S
C1830 C1832 1.415 . S
C1831 C1830 1.355 1_455 S
C1831 C1833 1.419 . S
C1832 C1830 1.415 . S
C1832 C1837 1.425 . S
C1832 C1839 1.409 . S
C1833 H1825 0.930 . S
C1833 C1831 1.419 . S
C1833 C1834 1.362 1_455 S
C1834 H1826 0.930 . S
C1834 C1833 1.362 1_655 S
C1834 C1837 1.409 . S
C1835 H1827 0.930 . S
C1835 C1836 1.355 . S
C1835 C1837 1.415 . S
C1836 C1835 1.355 . S
C1836 C1838 1.419 . S
C1837 C1832 1.425 . S
C1837 C1834 1.409 . S
C1837 C1835 1.415 . S
C1838 H1828 0.930 . S
C1838 C1836 1.419 . S
C1838 C1839 1.362 . S
C1839 H1829 0.930 . S
C1839 C1832 1.409 . S
C1839 C1838 1.362 . S
H1840 C1846 0.930 . S
H1841 C1849 0.930 . S
H1842 C1850 0.930 . S
H1843 C1851 0.930 . S
H1844 C1854 0.930 . S
H1845 C1855 0.930 . S
C1846 H1840 0.930 . S
C1846 C1847 1.355 . S
C1846 C1848 1.415 . S
C1847 C1846 1.355 . S
C1847 C1849 1.419 . S
C1848 C1846 1.415 . S
C1848 C1853 1.425 . S
C1848 C1855 1.409 . S
C1849 H1841 0.930 . S
C1849 C1847 1.419 . S
C1849 C1850 1.362 . S
C1850 H1842 0.930 . S
C1850 C1849 1.362 . S
C1850 C1853 1.409 . S
C1851 H1843 0.930 . S
C1851 C1852 1.355 . S
C1851 C1853 1.415 . S
C1852 C1851 1.355 . S
C1852 C1854 1.419 . S
C1853 C1848 1.425 . S
C1853 C1850 1.409 . S
C1853 C1851 1.415 . S
C1854 H1844 0.930 . S
C1854 C1852 1.419 . S
C1854 C1855 1.362 . S
C1855 H1845 0.930 . S
C1855 C1848 1.409 . S
C1855 C1854 1.362 . S
H1856 C1862 0.930 . S
H1857 C1865 0.930 . S
H1858 C1866 0.930 . S
H1859 C1867 0.930 . S
H1860 C1870 0.930 . S
H1861 C1871 0.930 . S
C1862 H1856 0.930 . S
C1862 C1863 1.355 . S
C1862 C1864 1.415 1_455 S
C1863 C1862 1.355 . S
C1863 C1865 1.419 . S
C1864 C1862 1.415 1_655 S
C1864 C1869 1.425 . S
C1864 C1871 1.409 . S
C1865 H1857 0.930 . S
C1865 C1863 1.419 . S
C1865 C1866 1.362 1_455 S
C1866 H1858 0.930 . S
C1866 C1865 1.362 1_655 S
C1866 C1869 1.409 . S
C1867 H1859 0.930 . S
C1867 C1868 1.355 . S
C1867 C1869 1.415 . S
C1868 C1867 1.355 . S
C1868 C1870 1.419 . S
C1869 C1864 1.425 . S
C1869 C1866 1.409 . S
C1869 C1867 1.415 . S
C1870 H1860 0.930 . S
C1870 C1868 1.419 . S
C1870 C1871 1.362 . S
C1871 H1861 0.930 . S
C1871 C1864 1.409 . S
C1871 C1870 1.362 . S
H1872 C1878 0.930 . S
H1873 C1881 0.930 . S
H1874 C1882 0.930 . S
H1875 C1883 0.930 . S
H1876 C1886 0.930 . S
H1877 C1887 0.930 . S
C1878 H1872 0.930 . S
C1878 C1879 1.355 . S
C1878 C1880 1.415 . S
C1879 C1878 1.355 . S
C1879 C1881 1.419 . S
C1880 C1878 1.415 . S
C1880 C1885 1.425 . S
C1880 C1887 1.409 . S
C1881 H1873 0.930 . S
C1881 C1879 1.419 . S
C1881 C1882 1.362 . S
C1882 H1874 0.930 . S
C1882 C1881 1.362 . S
C1882 C1885 1.409 . S
C1883 H1875 0.930 . S
C1883 C1884 1.355 . S
C1883 C1885 1.415 . S
C1884 C1883 1.355 . S
C1884 C1886 1.419 . S
C1885 C1880 1.425 . S
C1885 C1882 1.409 . S
C1885 C1883 1.415 . S
C1886 H1876 0.930 . S
C1886 C1884 1.419 . S
C1886 C1887 1.362 . S
C1887 H1877 0.930 . S
C1887 C1880 1.409 . S
C1887 C1886 1.362 . S
H1888 C1894 0.930 . S
H1889 C1897 0.930 . S
H1890 C1898 0.930 . S
H1891 C1899 0.930 . S
H1892 C1902 0.930 . S
H1893 C1903 0.930 . S
C1894 H1888 0.930 . S
C1894 C1895 1.355 . S
C1894 C1896 1.415 . S
C1895 C1894 1.355 . S
C1895 C1897 1.419 . S
C1896 C1894 1.415 . S
C1896 C1901 1.425 . S
C1896 C1903 1.409 . S
C1897 H1889 0.930 . S
C1897 C1895 1.419 . S
C1897 C1898 1.362 . S
C1898 H1890 0.930 . S
C1898 C1897 1.362 . S
C1898 C1901 1.409 . S
C1899 H1891 0.930 . S
C1899 C1900 1.355 . S
C1899 C1901 1.415 . S
C1900 C1899 1.355 . S
C1900 C1902 1.419 . S
C1901 C1896 1.425 . S
C1901 C1898 1.409 . S
C1901 C1899 1.415 . S
C1902 H1892 0.930 . S
C1902 C1900 1.419 . S
C1902 C1903 1.362 . S
C1903 H1893 0.930 . S
C1903 C1896 1.409 . S
C1903 C1902 1.362 . S
H1904 C1910 0.930 . S
H1905 C1913 0.930 . S
H1906 C1914 0.930 . S
H1907 C1915 0.930 . S
H1908 C1918 0.930 . S
H1909 C1919 0.930 . S
C1910 H1904 0.930 . S
C1910 C1911 1.355 . S
C1910 C1912 1.415 . S
C1911 C1910 1.355 . S
C1911 C1913 1.419 . S
C1912 C1910 1.415 . S
C1912 C1917 1.425 . S
C1912 C1919 1.409 . S
C1913 H1905 0.930 . S
C1913 C1911 1.419 . S
C1913 C1914 1.362 . S
C1914 H1906 0.930 . S
C1914 C1913 1.362 . S
C1914 C1917 1.409 . S
C1915 H1907 0.930 . S
C1915 C1916 1.355 . S
C1915 C1917 1.415 . S
C1916 C1915 1.355 . S
C1916 C1918 1.419 . S
C1917 C1912 1.425 . S
C1917 C1914 1.409 . S
C1917 C1915 1.415 . S
C1918 H1908 0.930 . S
C1918 C1916 1.419 . S
C1918 C1919 1.362 . S
C1919 H1909 0.930 . S
C1919 C1912 1.409 . S
C1919 C1918 1.362 . S
H1920 C1926 0.930 . S
H1921 C1929 0.930 . S
H1922 C1930 0.930 . S
H1923 C1931 0.930 . S
H1924 C1934 0.930 . S
H1925 C1935 0.930 . S
C1926 H1920 0.930 . S
C1926 C1927 1.355 . S
C1926 C1928 1.415 . S
C1927 C1926 1.355 . S
C1927 C1929 1.419 . S
C1928 C1926 1.415 . S
C1928 C1933 1.425 . S
C1928 C1935 1.409 . S
C1929 H1921 0.930 . S
C1929 C1927 1.419 . S
C1929 C1930 1.362 . S
C1930 H1922 0.930 . S
C1930 C1929 1.362 . S
C1930 C1933 1.409 . S
C1931 H1923 0.930 . S
C1931 C1932 1.355 . S
C1931 C1933 1.415 1_554 S
C1932 C1931 1.355 . S
C1932 C1934 1.419 . S
C1933 C1928 1.425 . S
C1933 C1930 1.409 . S
C1933 C1931 1.415 1_556 S
C1934 H1924 0.930 . S
C1934 C1932 1.419 . S
C1934 C1935 1.362 1_554 S
C1935 H1925 0.930 . S
C1935 C1928 1.409 . S
C1935 C1934 1.362 1_556 S
H1936 C1942 0.930 . S
H1937 C1945 0.930 . S
H1938 C1946 0.930 . S
H1939 C1947 0.930 . S
H1940 C1950 0.930 . S
H1941 C1951 0.930 . S
C1942 H1936 0.930 . S
C1942 C1943 1.355 . S
C1942 C1944 1.415 . S
C1943 C1942 1.355 . S
C1943 C1945 1.419 . S
C1944 C1942 1.415 . S
C1944 C1949 1.425 . S
C1944 C1951 1.409 . S
C1945 H1937 0.930 . S
C1945 C1943 1.419 . S
C1945 C1946 1.362 . S
C1946 H1938 0.930 . S
C1946 C1945 1.362 . S
C1946 C1949 1.409 . S
C1947 H1939 0.930 . S
C1947 C1948 1.355 . S
C1947 C1949 1.415 . S
C1948 C1947 1.355 . S
C1948 C1950 1.419 . S
C1949 C1944 1.425 . S
C1949 C1946 1.409 . S
C1949 C1947 1.415 . S
C1950 H1940 0.930 . S
C1950 C1948 1.419 . S
C1950 C1951 1.362 . S
C1951 H1941 0.930 . S
C1951 C1944 1.409 . S
C1951 C1950 1.362 . S
H1952 C1958 0.930 . S
H1953 C1961 0.930 . S
H1954 C1962 0.930 . S
H1955 C1963 0.930 . S
H1956 C1966 0.930 . S
H1957 C1967 0.930 . S
C1958 H1952 0.930 . S
C1958 C1959 1.355 . S
C1958 C1960 1.415 . S
C1959 C1958 1.355 . S
C1959 C1961 1.419 . S
C1960 C1958 1.415 . S
C1960 C1965 1.425 . S
C1960 C1967 1.409 . S
C1961 H1953 0.930 . S
C1961 C1959 1.419 . S
C1961 C1962 1.362 . S
C1962 H1954 0.930 . S
C1962 C1961 1.362 . S
C1962 C1965 1.409 . S
C1963 H1955 0.930 . S
C1963 C1964 1.355 . S
C1963 C1965 1.415 . S
C1964 C1963 1.355 . S
C1964 C1966 1.419 . S
C1965 C1960 1.425 . S
C1965 C1962 1.409 . S
C1965 C1963 1.415 . S
C1966 H1956 0.930 . S
C1966 C1964 1.419 . S
C1966 C1967 1.362 . S
C1967 H1957 0.930 . S
C1967 C1960 1.409 . S
C1967 C1966 1.362 . S
H1968 C1974 0.930 . S
H1969 C1977 0.930 . S
H1970 C1978 0.930 . S
H1971 C1979 0.930 . S
H1972 C1982 0.930 . S
H1973 C1983 0.930 . S
C1974 H1968 0.930 . S
C1974 C1975 1.355 . S
C1974 C1976 1.415 . S
C1975 C1974 1.355 . S
C1975 C1977 1.419 . S
C1976 C1974 1.415 . S
C1976 C1981 1.425 . S
C1976 C1983 1.409 . S
C1977 H1969 0.930 . S
C1977 C1975 1.419 . S
C1977 C1978 1.362 . S
C1978 H1970 0.930 . S
C1978 C1977 1.362 . S
C1978 C1981 1.409 . S
C1979 H1971 0.930 . S
C1979 C1980 1.355 . S
C1979 C1981 1.415 . S
C1980 C1979 1.355 . S
C1980 C1982 1.419 . S
C1981 C1976 1.425 . S
C1981 C1978 1.409 . S
C1981 C1979 1.415 . S
C1982 H1972 0.930 . S
C1982 C1980 1.419 . S
C1982 C1983 1.362 . S
C1983 H1973 0.930 . S
C1983 C1976 1.409 . S
C1983 C1982 1.362 . S
H1984 C1990 0.930 . S
H1985 C1993 0.930 . S
H1986 C1994 0.930 . S
H1987 C1995 0.930 . S
H1988 C1998 0.930 . S
H1989 C1999 0.931 . S
C1990 H1984 0.930 . S
C1990 C1991 1.355 . S
C1990 C1992 1.415 . S
C1991 C1990 1.355 . S
C1991 C1993 1.419 . S
C1992 C1990 1.415 . S
C1992 C1997 1.425 . S
C1992 C1999 1.417 . S
C1993 H1985 0.930 . S
C1993 C1991 1.419 . S
C1993 C1994 1.362 . S
C1994 H1986 0.930 . S
C1994 C1993 1.362 . S
C1994 C1997 1.409 . S
C1995 H1987 0.930 . S
C1995 C1996 1.355 . S
C1995 C1997 1.415 1_556 S
C1996 C1995 1.355 . S
C1996 C1998 1.419 . S
C1997 C1992 1.425 . S
C1997 C1994 1.409 . S
C1997 C1995 1.415 1_554 S
C1998 H1988 0.930 . S
C1998 C1996 1.419 . S
C1998 C1999 1.354 1_556 S
C1999 H1989 0.931 . S
C1999 C1992 1.417 . S
C1999 C1998 1.354 1_554 S
H2000 C2006 0.930 . S
H2001 C2009 0.930 . S
H2002 C2010 0.930 . S
H2003 C2011 0.930 . S
H2004 C2014 0.930 . S
H2005 C2015 0.930 . S
C2006 H2000 0.930 . S
C2006 C2007 1.355 . S
C2006 C2008 1.415 . S
C2007 C2006 1.355 . S
C2007 C2009 1.419 . S
C2008 C2006 1.415 . S
C2008 C2013 1.425 . S
C2008 C2015 1.409 . S
C2009 H2001 0.930 . S
C2009 C2007 1.419 . S
C2009 C2010 1.362 . S
C2010 H2002 0.930 . S
C2010 C2009 1.362 . S
C2010 C2013 1.409 . S
C2011 H2003 0.930 . S
C2011 C2012 1.355 . S
C2011 C2013 1.415 . S
C2012 C2011 1.355 . S
C2012 C2014 1.419 . S
C2013 C2008 1.425 . S
C2013 C2010 1.409 . S
C2013 C2011 1.415 . S
C2014 H2004 0.930 . S
C2014 C2012 1.419 . S
C2014 C2015 1.362 . S
C2015 H2005 0.930 . S
C2015 C2008 1.409 . S
C2015 C2014 1.362 . S
H2016 C2022 0.930 . S
H2017 C2025 0.930 . S
H2018 C2026 0.930 . S
H2019 C2027 0.930 . S
H2020 C2030 0.930 . S
H2021 C2031 0.930 . S
C2022 H2016 0.930 . S
C2022 C2023 1.355 . S
C2022 C2024 1.415 . S
C2023 C2022 1.355 . S
C2023 C2025 1.419 . S
C2024 C2022 1.415 . S
C2024 C2029 1.425 . S
C2024 C2031 1.409 . S
C2025 H2017 0.930 . S
C2025 C2023 1.419 . S
C2025 C2026 1.362 . S
C2026 H2018 0.930 . S
C2026 C2025 1.362 . S
C2026 C2029 1.409 . S
C2027 H2019 0.930 . S
C2027 C2028 1.355 . S
C2027 C2029 1.415 . S
C2028 C2027 1.355 . S
C2028 C2030 1.419 . S
C2029 C2024 1.425 . S
C2029 C2026 1.409 . S
C2029 C2027 1.415 . S
C2030 H2020 0.930 . S
C2030 C2028 1.419 . S
C2030 C2031 1.362 . S
C2031 H2021 0.930 . S
C2031 C2024 1.409 . S
C2031 C2030 1.362 . S
H2032 C2038 0.930 . S
H2033 C2041 0.930 . S
H2034 C2042 0.930 . S
H2035 C2043 0.930 . S
H2036 C2046 0.930 . S
H2037 C2047 0.930 . S
C2038 H2032 0.930 . S
C2038 C2039 1.355 . S
C2038 C2040 1.415 . S
C2039 C2038 1.355 . S
C2039 C2041 1.419 . S
C2040 C2038 1.415 . S
C2040 C2045 1.425 . S
C2040 C2047 1.409 . S
C2041 H2033 0.930 . S
C2041 C2039 1.419 . S
C2041 C2042 1.362 . S
C2042 H2034 0.930 . S
C2042 C2041 1.362 . S
C2042 C2045 1.409 . S
C2043 H2035 0.930 . S
C2043 C2044 1.355 . S
C2043 C2045 1.415 . S
C2044 C2043 1.355 . S
C2044 C2046 1.419 . S
C2045 C2040 1.425 . S
C2045 C2042 1.409 . S
C2045 C2043 1.415 . S
C2046 H2036 0.930 . S
C2046 C2044 1.419 . S
C2046 C2047 1.362 . S
C2047 H2037 0.930 . S
C2047 C2040 1.409 . S
C2047 C2046 1.362 . S
H2048 C2054 0.930 . S
H2049 C2057 0.930 . S
H2050 C2058 0.930 . S
H2051 C2059 0.930 . S
H2052 C2062 0.930 . S
H2053 C2063 0.930 . S
C2054 H2048 0.930 . S
C2054 C2055 1.355 . S
C2054 C2056 1.415 . S
C2055 C2054 1.355 . S
C2055 C2057 1.419 . S
C2056 C2054 1.415 . S
C2056 C2061 1.425 . S
C2056 C2063 1.409 . S
C2057 H2049 0.930 . S
C2057 C2055 1.419 . S
C2057 C2058 1.362 . S
C2058 H2050 0.930 . S
C2058 C2057 1.362 . S
C2058 C2061 1.409 . S
C2059 H2051 0.930 . S
C2059 C2060 1.355 . S
C2059 C2061 1.415 . S
C2060 C2059 1.355 . S
C2060 C2062 1.419 . S
C2061 C2056 1.425 . S
C2061 C2058 1.409 . S
C2061 C2059 1.415 . S
C2062 H2052 0.930 . S
C2062 C2060 1.419 . S
C2062 C2063 1.362 . S
C2063 H2053 0.930 . S
C2063 C2056 1.409 . S
C2063 C2062 1.362 . S
H2064 C2070 0.930 . S
H2065 C2073 0.930 . S
H2066 C2074 0.930 . S
H2067 C2075 0.930 . S
H2068 C2078 0.930 . S
H2069 C2079 0.930 . S
C2070 H2064 0.930 . S
C2070 C2071 1.355 . S
C2070 C2072 1.415 . S
C2071 C2070 1.355 . S
C2071 C2073 1.419 . S
C2072 C2070 1.415 . S
C2072 C2077 1.425 . S
C2072 C2079 1.409 . S
C2073 H2065 0.930 . S
C2073 C2071 1.419 . S
C2073 C2074 1.362 . S
C2074 H2066 0.930 . S
C2074 C2073 1.362 . S
C2074 C2077 1.409 . S
C2075 H2067 0.930 . S
C2075 C2076 1.355 . S
C2075 C2077 1.415 1_545 S
C2076 C2075 1.355 . S
C2076 C2078 1.419 . S
C2077 C2072 1.425 . S
C2077 C2074 1.409 . S
C2077 C2075 1.415 1_565 S
C2078 H2068 0.930 . S
C2078 C2076 1.419 . S
C2078 C2079 1.362 1_545 S
C2079 H2069 0.930 . S
C2079 C2072 1.409 . S
C2079 C2078 1.362 1_565 S
H2080 C2086 0.930 . S
H2081 C2089 0.930 . S
H2082 C2090 0.930 . S
H2083 C2091 0.930 . S
H2084 C2094 0.930 . S
H2085 C2095 0.930 . S
C2086 H2080 0.930 . S
C2086 C2087 1.355 . S
C2086 C2088 1.415 . S
C2087 C2086 1.355 . S
C2087 C2089 1.419 . S
C2088 C2086 1.415 . S
C2088 C2093 1.425 . S
C2088 C2095 1.409 . S
C2089 H2081 0.930 . S
C2089 C2087 1.419 . S
C2089 C2090 1.362 . S
C2090 H2082 0.930 . S
C2090 C2089 1.362 . S
C2090 C2093 1.409 . S
C2091 H2083 0.930 . S
C2091 C2092 1.355 . S
C2091 C2093 1.415 . S
C2092 C2091 1.355 . S
C2092 C2094 1.419 . S
C2093 C2088 1.425 . S
C2093 C2090 1.409 . S
C2093 C2091 1.415 . S
C2094 H2084 0.930 . S
C2094 C2092 1.419 . S
C2094 C2095 1.362 . S
C2095 H2085 0.930 . S
C2095 C2088 1.409 . S
C2095 C2094 1.362 . S
H2096 C2102 0.930 . S
H2097 C2105 0.930 . S
H2098 C2106 0.930 . S
H2099 C2107 0.930 . S
H2100 C2110 0.930 . S
H2101 C2111 0.930 . S
C2102 H2096 0.930 . S
C2102 C2103 1.355 . S
C2102 C2104 1.415 . S
C2103 C2102 1.355 . S
C2103 C2105 1.419 . S
C2104 C2102 1.415 . S
C2104 C2109 1.425 . S
C2104 C2111 1.409 . S
C2105 H2097 0.930 . S
C2105 C2103 1.419 . S
C2105 C2106 1.362 . S
C2106 H2098 0.930 . S
C2106 C2105 1.362 . S
C2106 C2109 1.409 . S
C2107 H2099 0.930 . S
C2107 C2108 1.355 . S
C2107 C2109 1.415 . S
C2108 C2107 1.355 . S
C2108 C2110 1.419 . S
C2109 C2104 1.425 . S
C2109 C2106 1.409 . S
C2109 C2107 1.415 . S
C2110 H2100 0.930 . S
C2110 C2108 1.419 . S
C2110 C2111 1.362 . S
C2111 H2101 0.930 . S
C2111 C2104 1.409 . S
C2111 C2110 1.362 . S
H2112 C2118 0.930 . S
H2113 C2121 0.930 . S
H2114 C2122 0.930 . S
H2115 C2123 0.930 . S
H2116 C2126 0.930 . S
H2117 C2127 0.930 . S
C2118 H2112 0.930 . S
C2118 C2119 1.355 . S
C2118 C2120 1.415 . S
C2119 C2118 1.355 . S
C2119 C2121 1.419 . S
C2120 C2118 1.415 . S
C2120 C2125 1.425 . S
C2120 C2127 1.409 . S
C2121 H2113 0.930 . S
C2121 C2119 1.419 . S
C2121 C2122 1.362 . S
C2122 H2114 0.930 . S
C2122 C2121 1.362 . S
C2122 C2125 1.409 . S
C2123 H2115 0.930 . S
C2123 C2124 1.355 . S
C2123 C2125 1.415 . S
C2124 C2123 1.355 . S
C2124 C2126 1.419 . S
C2125 C2120 1.425 . S
C2125 C2122 1.409 . S
C2125 C2123 1.415 . S
C2126 H2116 0.930 . S
C2126 C2124 1.419 . S
C2126 C2127 1.362 . S
C2127 H2117 0.930 . S
C2127 C2120 1.409 . S
C2127 C2126 1.362 . S
H2128 C2134 0.930 . S
H2129 C2137 0.930 . S
H2130 C2138 0.930 . S
H2131 C2139 0.930 . S
H2132 C2142 0.930 . S
H2133 C2143 0.930 . S
C2134 H2128 0.930 . S
C2134 C2135 1.355 . S
C2134 C2136 1.415 1_565 S
C2135 C2134 1.355 . S
C2135 C2137 1.419 . S
C2136 C2134 1.415 1_545 S
C2136 C2141 1.425 . S
C2136 C2143 1.409 . S
C2137 H2129 0.930 . S
C2137 C2135 1.419 . S
C2137 C2138 1.362 1_565 S
C2138 H2130 0.930 . S
C2138 C2137 1.362 1_545 S
C2138 C2141 1.409 . S
C2139 H2131 0.930 . S
C2139 C2140 1.355 . S
C2139 C2141 1.415 . S
C2140 C2139 1.355 . S
C2140 C2142 1.419 . S
C2141 C2136 1.425 . S
C2141 C2138 1.409 . S
C2141 C2139 1.415 . S
C2142 H2132 0.930 . S
C2142 C2140 1.419 . S
C2142 C2143 1.362 . S
C2143 H2133 0.930 . S
C2143 C2136 1.409 . S
C2143 C2142 1.362 . S
H2144 C2150 0.930 . S
H2145 C2153 0.930 . S
H2146 C2154 0.930 . S
H2147 C2155 0.930 . S
H2148 C2158 0.930 . S
H2149 C2159 0.930 . S
C2150 H2144 0.930 . S
C2150 C2151 1.355 . S
C2150 C2152 1.415 . S
C2151 C2150 1.355 . S
C2151 C2153 1.419 . S
C2152 C2150 1.415 . S
C2152 C2157 1.425 . S
C2152 C2159 1.409 . S
C2153 H2145 0.930 . S
C2153 C2151 1.419 . S
C2153 C2154 1.362 . S
C2154 H2146 0.930 . S
C2154 C2153 1.362 . S
C2154 C2157 1.409 . S
C2155 H2147 0.930 . S
C2155 C2156 1.355 . S
C2155 C2157 1.415 1_545 S
C2156 C2155 1.355 . S
C2156 C2158 1.419 . S
C2157 C2152 1.425 . S
C2157 C2154 1.409 . S
C2157 C2155 1.415 1_565 S
C2158 H2148 0.930 . S
C2158 C2156 1.419 . S
C2158 C2159 1.362 1_545 S
C2159 H2149 0.930 . S
C2159 C2152 1.409 . S
C2159 C2158 1.362 1_565 S
C631 C554 1.200 . S
C636 C0 1.157 . S
C647 C18 1.311 . S
C652 C200 1.178 . S
C663 C26 1.177 . S
C668 C528 1.219 . S
C679 C44 1.281 . S
C684 C226 1.286 . S
C695 C580 1.181 . S
C700 C57 1.208 . S
C711 C65 1.314 . S
C716 C273 1.240 . S
C727 C83 1.225 . S
C732 C606 1.146 . S
C743 C91 1.280 . S
C748 C247 1.206 . S
C759 C39 1.173 . S
C764 C621 1.208 . S
C775 C5 1.243 . S
C780 C333 1.243 . S
C791 C348 1.199 . S
C796 C13 1.162 . S
C807 C31 1.238 . S
C812 C320 1.223 . S
C823 C70 1.275 . S
C828 C322 1.266 . S
C839 C78 1.150 . S
C844 C619 1.122 . S
C855 C96 1.284 . S
C860 C335 1.301 . S
C871 C52 1.194 . S
C876 C346 1.137 . S
C887 C507 1.271 . S
C892 C104 1.244 . S
C903 C122 1.284 . S
C908 C252 1.263 . S
C919 C109 1.242 . S
C924 C582 1.300 . S
C935 C278 1.244 . S
C940 C135 1.352 . S
C951 C296 1.266 . S
C956 C143 1.267 . S
C967 C533 1.207 . S
C972 C161 1.305 . S
C983 C556 1.208 . S
C988 C169 1.187 . S
C999 C530 1.286 . S
C1004 C187 1.247 . S
C1015 C439 1.272 . S
C1020 C205 1.262 . S
C1031 C208 1.215 . S
C1036 C8 1.263 . S
C1047 C231 1.303 . S
C1052 C413 1.287 . S
C1063 C34 1.231 . S
C1068 C234 1.240 . S
C1079 C255 1.281 . S
C1084 C463 1.258 . S
C1095 C88 1.292 . S
C1100 C260 1.280 . S
C1111 C281 1.301 . S
C1116 C489 1.232 . S
C1127 C62 1.290 . S
C1132 C286 1.279 . S
C1143 C504 1.286 . S
C1148 C239 1.244 . S
C1159 C203 1.272 . S
C1164 C140 1.274 . S
C1175 C151 1.301 . S
C1180 C213 1.248 . S
C1191 C127 1.288 . S
C1196 C229 1.271 . S
C1207 C125 1.294 . S
C1212 C265 1.270 . S
C1223 C283 1.320 . S
C1228 C502 1.291 . S
C1239 C138 1.211 . S
C1244 C291 1.300 . S
C1255 C257 1.292 . S
C1260 C153 1.304 . S
C1271 C299 1.235 . S
C1276 C400 1.254 . S
C1287 C312 1.276 . S
C1292 C60 1.266 . S
C1303 C304 1.281 . S
C1308 C465 1.258 . S
C1319 C325 1.242 . S
C1324 C86 1.279 . S
C1335 C343 1.233 . S
C1340 C101 1.281 . S
C1351 C426 1.245 . S
C1356 C351 1.233 . S
C1367 C369 1.278 . S
C1372 C437 1.313 . S
C1383 C382 1.298 . S
C1388 C411 1.265 . S
C1399 C390 1.219 . S
C1404 C242 1.171 . S
C1415 C408 1.248 . S
C1420 C512 1.230 . S
C1431 C216 1.129 . S
C1436 C416 1.180 . S
C1447 C434 1.277 . S
C1452 C538 1.272 . S
C1463 C447 1.234 . S
C1468 C268 1.166 . S
C1479 C585 1.192 . S
C1484 C455 1.251 . S
C1495 C473 1.155 . S
C1500 C294 1.213 . S
C1511 C559 1.219 . S
C1516 C481 1.312 . S
C1527 C309 1.213 . S
C1532 C429 1.180 . S
C1543 C385 1.215 . S
C1548 C395 1.253 . S
C1559 C403 1.179 . S
C1564 C361 1.210 . S
C1575 C372 1.218 . S
C1580 C421 1.235 . S
C1591 C460 1.285 . S
C1596 C374 1.275 . S
C1607 C307 1.124 . S
C1612 C468 1.196 . S
C1623 C486 1.255 . S
C1628 C387 1.278 . S
C1639 C442 1.191 . S
C1644 C359 1.123 . S
C1655 C494 1.241 . S
C1660 C195 1.169 . S
C1671 C174 1.332 . S
C1676 C564 1.215 . S
C1687 C270 1.300 . S
C1692 C499 1.248 . S
C1703 C590 1.245 . S
C1708 C182 1.314 . S
C1719 C608 1.229 . S
C1724 C156 1.195 . S
C1735 C148 1.299 . S
C1740 C221 1.199 . S
C1751 C117 1.177 . S
C1756 C244 1.206 . S
C1767 C218 1.242 . S
C1772 C130 1.234 . S
C1783 C517 1.299 . S
C1788 C49 1.315 . S
C1799 C398 1.201 . S
C1804 C520 1.268 . S
C1815 C543 1.266 . S
C1820 C23 1.280 . S
C1831 C546 1.198 . S
C1836 C424 1.244 . S
C1847 C73 1.204 . S
C1852 C567 1.270 . S
C1863 C572 1.270 . S
C1868 C478 1.277 . S
C1879 C593 1.274 . S
C1884 C99 1.293 . S
C1895 C452 1.247 . S
C1900 C598 1.239 . S
C1911 C551 1.262 . S
C1916 C114 1.270 . S
C1927 C190 1.189 . S
C1932 C515 1.265 . S
C1943 C164 1.233 . S
C1948 C525 1.322 . S
C1959 C541 1.282 . S
C1964 C179 1.280 . S
C1975 C577 1.317 . S
C1980 C177 1.228 . S
C1991 C112 1.303 . S
C1996 C595 1.312 . S
C2007 C192 1.262 . S
C2012 C603 1.263 . S
C2023 C569 1.319 . S
C2028 C166 1.321 . S
C2039 C10 1.242 . S
C2044 C611 1.209 . S
C2055 C364 1.245 . S
C2060 C450 1.192 . S
C2071 C75 1.266 . S
C2076 C616 1.287 . S
C2087 C476 1.250 . S
C2092 C377 1.222 . S
C2103 C491 1.294 . S
C2108 C356 1.262 . S
C2119 C338 1.253 . S
C2124 C36 1.253 . S
C2135 C317 1.324 . S
C2140 C47 1.271 . S
C2151 C21 1.317 . S
C2156 C330 1.285 . S
