# Generated by pormake.
# Topology vmi, (6)-cn, num edge types: 1
# Building blocks:
#     Node 0, Type 0, BuildingBlock: OJICUG_clean_sbu_0, # of connection points: 6
#     Node 1, Type 0, BuildingBlock: OJICUG_clean_sbu_0, # of connection points: 6
#     Node 2, Type 0, BuildingBlock: OJICUG_clean_sbu_0, # of connection points: 6
#     Node 3, Type 0, BuildingBlock: OJICUG_clean_sbu_0, # of connection points: 6
#     Node 4, Type 0, BuildingBlock: OJICUG_clean_sbu_0, # of connection points: 6
#     Node 5, Type 0, BuildingBlock: OJICUG_clean_sbu_0, # of connection points: 6
#     Node 6, Type 0, BuildingBlock: OJICUG_clean_sbu_0, # of connection points: 6
#     Node 7, Type 0, BuildingBlock: OJICUG_clean_sbu_0, # of connection points: 6
#     Edge 8, Type (0, 0), BuildingBlock: UVAHIK_clean_linker_0, # of connection points: 2
#     Edge 9, Type (0, 0), BuildingBlock: UVAHIK_clean_linker_0, # of connection points: 2
#     Edge 10, Type (0, 0), BuildingBlock: UVAHIK_clean_linker_0, # of connection points: 2
#     Edge 11, Type (0, 0), BuildingBlock: UVAHIK_clean_linker_0, # of connection points: 2
#     Edge 12, Type (0, 0), BuildingBlock: UVAHIK_clean_linker_0, # of connection points: 2
#     Edge 13, Type (0, 0), BuildingBlock: UVAHIK_clean_linker_0, # of connection points: 2
#     Edge 14, Type (0, 0), BuildingBlock: UVAHIK_clean_linker_0, # of connection points: 2
#     Edge 15, Type (0, 0), BuildingBlock: UVAHIK_clean_linker_0, # of connection points: 2
#     Edge 16, Type (0, 0), BuildingBlock: UVAHIK_clean_linker_0, # of connection points: 2
#     Edge 17, Type (0, 0), BuildingBlock: UVAHIK_clean_linker_0, # of connection points: 2
#     Edge 18, Type (0, 0), BuildingBlock: UVAHIK_clean_linker_0, # of connection points: 2
#     Edge 19, Type (0, 0), BuildingBlock: UVAHIK_clean_linker_0, # of connection points: 2
#     Edge 20, Type (0, 0), BuildingBlock: UVAHIK_clean_linker_0, # of connection points: 2
#     Edge 21, Type (0, 0), BuildingBlock: UVAHIK_clean_linker_0, # of connection points: 2
#     Edge 22, Type (0, 0), BuildingBlock: UVAHIK_clean_linker_0, # of connection points: 2
#     Edge 23, Type (0, 0), BuildingBlock: UVAHIK_clean_linker_0, # of connection points: 2
#     Edge 24, Type (0, 0), BuildingBlock: UVAHIK_clean_linker_0, # of connection points: 2
#     Edge 25, Type (0, 0), BuildingBlock: UVAHIK_clean_linker_0, # of connection points: 2
#     Edge 26, Type (0, 0), BuildingBlock: UVAHIK_clean_linker_0, # of connection points: 2
#     Edge 27, Type (0, 0), BuildingBlock: UVAHIK_clean_linker_0, # of connection points: 2
#     Edge 28, Type (0, 0), BuildingBlock: UVAHIK_clean_linker_0, # of connection points: 2
#     Edge 29, Type (0, 0), BuildingBlock: UVAHIK_clean_linker_0, # of connection points: 2
#     Edge 30, Type (0, 0), BuildingBlock: UVAHIK_clean_linker_0, # of connection points: 2
#     Edge 31, Type (0, 0), BuildingBlock: UVAHIK_clean_linker_0, # of connection points: 2
# Relax obj value: 0.323
# Max RMSD: 0.296
# Mean RMSD: 0.296
data_MOF--net-vmi--node1-OJICUG_clean_sbu_0--edge1-UVAHIK_clean_linker_0
_symmetry_space_group_name_H-M    P1
_symmetry_Int_Tables_number       1
_symmetry_cell_setting            triclinic
loop_
_symmetry_equiv_pos_as_xyz
'x, y, z'
_cell_length_a     35.492716
_cell_length_b     59.421846
_cell_length_c     39.682252
_cell_angle_alpha  89.992896
_cell_angle_beta   114.31156
_cell_angle_gamma 90.013625
loop_
_atom_site_label
_atom_site_type_symbol
_atom_site_fract_x
_atom_site_fract_y
_atom_site_fract_z
_atom_type_partial_charge
Sc0 Sc 0.25995 0.08185 0.26035 0.0
Sc1 Sc 0.15456 0.08846 0.20808 0.0
Sc2 Sc 0.19341 0.03766 0.25424 0.0
O3 O 0.20233 0.06923 0.24074 0.0
C4 C 0.27864 0.02996 0.25324 0.0
C5 C 0.22413 0.09495 0.17682 0.0
C6 C 0.13128 0.04078 0.16929 0.0
C7 C 0.20852 0.12612 0.25809 0.0
C8 C 0.25553 0.06032 0.33003 0.0
C9 C 0.11702 0.06357 0.25826 0.0
O10 O 0.28972 0.0499 0.26415 0.0
O11 O 0.18922 0.09962 0.1773 0.0
O12 O 0.15064 0.02939 0.19853 0.0
O13 O 0.24118 0.116 0.26115 0.0
O14 O 0.23545 0.04343 0.31129 0.0
O15 O 0.11514 0.07867 0.23493 0.0
O16 O 0.26439 0.07755 0.31555 0.0
O17 O 0.17334 0.11684 0.24429 0.0
O18 O 0.14445 0.04828 0.26871 0.0
O19 O 0.25401 0.08621 0.20434 0.0
O20 O 0.24141 0.02357 0.24133 0.0
O21 O 0.13103 0.06211 0.16861 0.0
Sc22 Sc 0.29354 0.03134 0.74727 0.0
Sc23 Sc 0.31908 0.08368 0.7922 0.0
Sc24 Sc 0.21505 0.06934 0.7428 0.0
O25 O 0.27589 0.06135 0.76077 0.0
C26 C 0.22251 0.04905 0.67179 0.0
C27 C 0.36338 0.06407 0.74349 0.0
C28 C 0.2536 0.11736 0.73894 0.0
C29 C 0.35523 0.03702 0.83159 0.0
C30 C 0.21208 0.01621 0.75502 0.0
C31 C 0.251 0.08538 0.82597 0.0
O32 O 0.25243 0.03605 0.69034 0.0
O33 O 0.35814 0.07942 0.76335 0.0
O34 O 0.22343 0.10434 0.73393 0.0
O35 O 0.33623 0.02458 0.80355 0.0
O36 O 0.19654 0.0358 0.74931 0.0
O37 O 0.28585 0.09021 0.82582 0.0
O38 O 0.24775 0.01194 0.75664 0.0
O39 O 0.35182 0.05828 0.83098 0.0
O40 O 0.2216 0.07647 0.79841 0.0
O41 O 0.34214 0.04609 0.73534 0.0
O42 O 0.20614 0.06288 0.68641 0.0
O43 O 0.29089 0.11145 0.75671 0.0
Sc44 Sc 0.7143 0.91068 0.73921 0.0
Sc45 Sc 0.81878 0.89682 0.78782 0.0
Sc46 Sc 0.79199 0.94926 0.74337 0.0
O47 O 0.77499 0.91902 0.75682 0.0
C48 C 0.72163 0.93119 0.66793 0.0
C49 C 0.75343 0.86312 0.73391 0.0
C50 C 0.86257 0.91708 0.7394 0.0
C51 C 0.75149 0.89413 0.82234 0.0
C52 C 0.71013 0.96365 0.75156 0.0
C53 C 0.85363 0.94372 0.82759 0.0
O54 O 0.7047 0.91783 0.68277 0.0
O55 O 0.79061 0.86895 0.75249 0.0
O56 O 0.84177 0.9352 0.73235 0.0
O57 O 0.72148 0.9027 0.79486 0.0
O58 O 0.74507 0.96825 0.75175 0.0
O59 O 0.85157 0.92239 0.82644 0.0
O60 O 0.69546 0.94388 0.74702 0.0
O61 O 0.78646 0.89 0.82197 0.0
O62 O 0.83352 0.95624 0.79994 0.0
O63 O 0.7231 0.87601 0.72887 0.0
O64 O 0.75193 0.94402 0.68631 0.0
O65 O 0.85688 0.90126 0.75823 0.0
Sc66 Sc 0.69503 0.93566 0.25123 0.0
Sc67 Sc 0.65101 0.8876 0.19899 0.0
Sc68 Sc 0.75621 0.88898 0.25577 0.0
O69 O 0.7006 0.90417 0.23524 0.0
C70 C 0.78191 0.94014 0.25131 0.0
C71 C 0.63697 0.93642 0.16502 0.0
C72 C 0.72232 0.87731 0.17149 0.0
C73 C 0.6137 0.91273 0.24916 0.0
C74 C 0.75282 0.91058 0.32606 0.0
C75 C 0.69605 0.84771 0.24929 0.0
O76 O 0.7457 0.94802 0.2407 0.0
O77 O 0.63497 0.91519 0.16158 0.0
O78 O 0.75239 0.88455 0.20037 0.0
O79 O 0.64387 0.92623 0.26353 0.0
O80 O 0.75992 0.89316 0.31088 0.0
O81 O 0.66276 0.85859 0.23333 0.0
O82 O 0.73485 0.9281 0.30806 0.0
O83 O 0.61045 0.89905 0.22351 0.0
O84 O 0.73116 0.8559 0.2548 0.0
O85 O 0.65478 0.94632 0.19603 0.0
O86 O 0.79055 0.91973 0.26094 0.0
O87 O 0.68603 0.87452 0.16995 0.0
Sc88 Sc 0.76577 0.58103 0.7484 0.0
Sc89 Sc 0.66043 0.58897 0.69466 0.0
Sc90 Sc 0.69446 0.53956 0.74673 0.0
O91 O 0.70684 0.56975 0.72989 0.0
C92 C 0.77852 0.528 0.74238 0.0
C93 C 0.73098 0.59341 0.66412 0.0
C94 C 0.63409 0.54029 0.66095 0.0
C95 C 0.71652 0.62683 0.74413 0.0
C96 C 0.76082 0.56203 0.82057 0.0
C97 C 0.61872 0.56854 0.74526 0.0
O98 O 0.79158 0.54813 0.74883 0.0
O99 O 0.69544 0.59772 0.66323 0.0
O100 O 0.65184 0.52992 0.69157 0.0
O101 O 0.74929 0.61577 0.75014 0.0
O102 O 0.73576 0.54646 0.80305 0.0
O103 O 0.61908 0.58212 0.7207 0.0
O104 O 0.77291 0.57739 0.80487 0.0
O105 O 0.68079 0.61827 0.72841 0.0
O106 O 0.64534 0.55305 0.75877 0.0
O107 O 0.76039 0.5853 0.69255 0.0
O108 O 0.74223 0.52234 0.73748 0.0
O109 O 0.63596 0.56146 0.65781 0.0
Sc110 Sc 0.8001 0.53321 0.23488 0.0
Sc111 Sc 0.82719 0.58655 0.27696 0.0
Sc112 Sc 0.72281 0.57127 0.23159 0.0
O113 O 0.78344 0.56363 0.24791 0.0
C114 C 0.72637 0.54945 0.16005 0.0
C115 C 0.86502 0.56674 0.22376 0.0
C116 C 0.75824 0.61939 0.22445 0.0
C117 C 0.86757 0.54051 0.31663 0.0
C118 C 0.72219 0.51863 0.24853 0.0
C119 C 0.76289 0.58802 0.31487 0.0
O120 O 0.75628 0.53644 0.17846 0.0
O121 O 0.86178 0.5826 0.24383 0.0
O122 O 0.72915 0.60571 0.21964 0.0
O123 O 0.84588 0.52754 0.29027 0.0
O124 O 0.70644 0.53812 0.24151 0.0
O125 O 0.79762 0.59227 0.31393 0.0
O126 O 0.75706 0.51394 0.24867 0.0
O127 O 0.86411 0.56176 0.31489 0.0
O128 O 0.73232 0.57973 0.28752 0.0
O129 O 0.84517 0.54834 0.2188 0.0
O130 O 0.71112 0.56371 0.17494 0.0
O131 O 0.79591 0.61441 0.24278 0.0
Sc132 Sc 0.22193 0.40091 0.22974 0.0
Sc133 Sc 0.32537 0.39216 0.28709 0.0
Sc134 Sc 0.29372 0.4436 0.2405 0.0
O135 O 0.28049 0.4124 0.25261 0.0
C136 C 0.23367 0.42242 0.16264 0.0
C137 C 0.27212 0.35617 0.23177 0.0
C138 C 0.37181 0.41605 0.24337 0.0
C139 C 0.25063 0.38539 0.31166 0.0
C140 C 0.20589 0.45338 0.23649 0.0
C141 C 0.34873 0.43939 0.32724 0.0
O142 O 0.22078 0.40605 0.1758 0.0
O143 O 0.30771 0.36456 0.24919 0.0
O144 O 0.34548 0.43176 0.23057 0.0
O145 O 0.22295 0.39532 0.284 0.0
O146 O 0.24335 0.45948 0.24825 0.0
O147 O 0.347 0.41805 0.3278 0.0
O148 O 0.19435 0.4333 0.22698 0.0
O149 O 0.28636 0.38076 0.31325 0.0
O150 O 0.33281 0.45098 0.29767 0.0
O151 O 0.23925 0.36663 0.22723 0.0
O152 O 0.25601 0.43837 0.1824 0.0
O153 O 0.36979 0.40127 0.26562 0.0
Sc154 Sc 0.19424 0.4416 0.74356 0.0
Sc155 Sc 0.15547 0.3912 0.69552 0.0
Sc156 Sc 0.26226 0.39796 0.74523 0.0
O157 O 0.20401 0.41032 0.72817 0.0
C158 C 0.27856 0.45025 0.7367 0.0
C159 C 0.13159 0.43979 0.65906 0.0
C160 C 0.2219 0.38421 0.66094 0.0
C161 C 0.11764 0.41458 0.74645 0.0
C162 C 0.26094 0.41956 0.81764 0.0
C163 C 0.21208 0.35338 0.74609 0.0
O164 O 0.24376 0.457 0.73442 0.0
O165 O 0.12925 0.41847 0.65841 0.0
O166 O 0.25336 0.39113 0.6889 0.0
O167 O 0.143 0.4309 0.7554 0.0
O168 O 0.27312 0.40414 0.8021 0.0
O169 O 0.1765 0.36184 0.72901 0.0
O170 O 0.23455 0.43458 0.80002 0.0
O171 O 0.11857 0.39881 0.72529 0.0
O172 O 0.24504 0.36406 0.75155 0.0
O173 O 0.15362 0.45089 0.68788 0.0
O174 O 0.2894 0.42974 0.74172 0.0
O175 O 0.18639 0.3818 0.66116 0.0
C176 C 0.53894 0.90866 0.23617 0.0
C177 C 0.57928 0.91471 0.26057 0.0
C178 C 0.50527 0.9153 0.24342 0.0
C179 C 0.48231 0.96378 0.28521 0.0
H180 H 0.37503 0.93618 0.25963 0.0
C181 C 0.34986 0.01592 0.28806 0.0
C182 C 0.31108 0.01327 0.25848 0.0
C183 C 0.38113 0.00036 0.29393 0.0
C184 C 0.4048 0.94409 0.26667 0.0
H185 H 0.61659 0.92957 0.31393 0.0
H186 H 0.55784 0.94092 0.32669 0.0
H187 H 0.43343 0.91304 0.26226 0.0
H188 H 0.27388 -0.00802 0.21248 0.0
H189 H 0.32968 0.9652 0.22143 0.0
H190 H 0.45407 -0.00509 0.2876 0.0
C191 C 0.55217 0.93162 0.30157 0.0
C192 C 0.43816 0.93084 0.26843 0.0
C193 C 0.58572 0.92519 0.29421 0.0
C194 C 0.30373 -0.00557 0.23529 0.0
C195 C 0.33549 0.97903 0.2407 0.0
C196 C 0.44916 0.97697 0.28308 0.0
C197 C 0.51165 0.92789 0.27525 0.0
C198 C 0.47714 0.94066 0.27755 0.0
C199 C 0.37473 0.98206 0.26979 0.0
C200 C 0.40995 0.96736 0.27362 0.0
H201 H 0.53312 0.90041 0.21016 0.0
H202 H 0.47432 0.91224 0.22265 0.0
H203 H 0.51167 0.97197 0.29122 0.0
H204 H 0.35598 0.02998 0.30699 0.0
H205 H 0.41056 0.00286 0.31723 0.0
C206 C 0.93071 0.9003 0.74846 0.0
C207 C 0.89877 0.91575 0.73001 0.0
C208 C 0.96912 0.90259 0.74693 0.0
C209 C 0.02809 0.93281 0.70282 0.0
H210 H 0.10686 0.94413 0.80365 0.0
C211 C 0.18626 0.97676 0.74019 0.0
C212 C 0.18604 -0.00251 0.75718 0.0
C213 C 0.15701 0.96024 0.73732 0.0
C214 C 0.08553 0.94057 0.77543 0.0
H215 H 0.88051 0.94398 0.69195 0.0
H216 H 0.94747 0.94783 0.68911 0.0
H217 H 0.04175 0.92517 0.79237 0.0
H218 H 0.15709 0.0168 0.78635 0.0
H219 H 0.107 0.98762 0.78254 0.0
H220 H 0.0713 0.94936 0.68607 0.0
C221 C 0.94291 0.93409 0.70499 0.0
C222 C 0.04841 0.92963 0.76891 0.0
C223 C 0.90463 0.93198 0.70685 0.0
C224 C 0.15781 0.00096 0.7731 0.0
C225 C 0.12936 0.98427 0.77107 0.0
C226 C 0.06562 0.94344 0.70938 0.0
C227 C 0.97605 0.92013 0.72649 0.0
C228 C 0.01865 0.92649 0.73257 0.0
C229 C 0.12806 0.96404 0.75236 0.0
C230 C 0.09378 0.94819 0.74572 0.0
H231 H 0.92718 0.88747 0.76634 0.0
H232 H -0.00586 0.89151 0.76349 0.0
H233 H 0.00563 0.93056 0.67459 0.0
H234 H 0.20755 0.9738 0.72743 0.0
H235 H 0.15633 0.94476 0.72266 0.0
C236 C 0.68387 0.00314 0.73791 0.0
C237 C 0.68396 0.98216 0.75434 0.0
C238 C 0.65489 0.01958 0.73611 0.0
C239 C 0.58498 0.03814 0.77692 0.0
H240 H 0.50535 0.05162 0.67728 0.0
C241 C 0.43261 0.08007 0.75425 0.0
C242 C 0.3996 0.06557 0.73416 0.0
C243 C 0.47089 0.07753 0.75252 0.0
C244 C 0.52774 0.04837 0.70523 0.0
H245 H 0.65571 0.96232 0.78355 0.0
H246 H 0.60607 -0.00869 0.78152 0.0
H247 H 0.5699 0.03221 0.68679 0.0
H248 H 0.37944 0.03892 0.69317 0.0
H249 H 0.44613 0.03465 0.68997 0.0
H250 H 0.54221 0.05318 0.79545 0.0
C251 C 0.628 -0.00507 0.76967 0.0
C252 C 0.56464 0.03739 0.71067 0.0
C253 C 0.65619 0.97833 0.77067 0.0
C254 C 0.40438 0.05016 0.70933 0.0
C255 C 0.44253 0.04782 0.70729 0.0
C256 C 0.54849 0.04942 0.77154 0.0
C257 C 0.62648 0.01546 0.75165 0.0
C258 C 0.5927 0.03142 0.74649 0.0
C259 C 0.47664 0.06071 0.73026 0.0
C260 C 0.51879 0.05384 0.7356 0.0
H261 H 0.7048 0.00641 0.72487 0.0
H262 H 0.6541 0.0353 0.722 0.0
H263 H 0.60625 0.03368 0.80476 0.0
H264 H 0.42994 0.09222 0.77349 0.0
H265 H 0.49665 0.0878 0.77024 0.0
C266 C 0.8561 0.95088 0.2818 0.0
C267 C 0.81592 0.95571 0.25584 0.0
C268 C 0.88805 0.96616 0.2882 0.0
C269 C 0.90996 0.02553 0.27217 0.0
H270 H 0.01666 0.00022 0.28828 0.0
C271 C 0.04283 0.06809 0.24688 0.0
C272 C 0.08317 0.06151 0.2704 0.0
C273 C 0.00916 0.06 0.25293 0.0
C274 C 0.98728 0.00758 0.28457 0.0
H275 H 0.77754 0.98021 0.21601 0.0
H276 H 0.83396 0.0065 0.22579 0.0
H277 H 0.95986 0.97531 0.28068 0.0
H278 H 0.12053 0.04434 0.32157 0.0
H279 H 0.06178 0.03038 0.33216 0.0
H280 H 0.93764 0.05793 0.27392 0.0
C281 C 0.84052 -0.00877 0.24209 0.0
C282 C 0.95462 -0.00672 0.28019 0.0
C283 C 0.80831 0.97608 0.23617 0.0
C284 C 0.08964 0.04924 0.30257 0.0
C285 C 0.0561 0.04129 0.30868 0.0
C286 C 0.94271 0.03991 0.27602 0.0
C287 C 0.88078 0.98644 0.26823 0.0
C288 C 0.91552 0.00202 0.27386 0.0
C289 C 0.01564 0.04539 0.28263 0.0
C290 C 0.98161 0.03099 0.28224 0.0
H291 H 0.86273 0.93552 0.29792 0.0
H292 H 0.91842 0.96212 0.30914 0.0
H293 H 0.88035 0.03283 0.26778 0.0
H294 H 0.03701 0.07764 0.22197 0.0
H295 H 0.97818 0.06341 0.23247 0.0
C296 C 0.08144 0.43175 0.78256 0.0
C297 C 0.08216 0.4157 0.75681 0.0
C298 C 0.0446 0.43653 0.78586 0.0
C299 C 0.96037 0.44071 0.79014 0.0
H300 H 0.88377 0.4597 0.69217 0.0
C301 C 0.80461 0.4885 0.75486 0.0
C302 C 0.80749 0.51031 0.74233 0.0
C303 C 0.83406 0.47219 0.75751 0.0
C304 C 0.90454 0.45409 0.71953 0.0
H305 H 0.04584 0.3904 0.71723 0.0
H306 H 0.98147 0.39914 0.72261 0.0
H307 H 0.94414 0.43716 0.69931 0.0
H308 H 0.8423 0.53201 0.72163 0.0
H309 H 0.89294 0.50317 0.72501 0.0
H310 H 0.92114 0.4585 0.81025 0.0
C311 C 0.0094 0.408 0.74008 0.0
C312 C 0.93884 0.44111 0.72366 0.0
C313 C 0.04631 0.40302 0.73709 0.0
C314 C 0.83948 0.51535 0.73144 0.0
C315 C 0.86826 0.4989 0.73325 0.0
C316 C 0.92551 0.45337 0.78591 0.0
C317 C 0.00789 0.42548 0.76325 0.0
C318 C 0.96775 0.43493 0.75907 0.0
C319 C 0.86601 0.47735 0.74673 0.0
C320 C 0.89821 0.46072 0.75067 0.0
H321 H 0.10866 0.44161 0.7985 0.0
H322 H 0.04419 0.45015 0.80385 0.0
H323 H 0.98234 0.43618 0.81768 0.0
H324 H 0.78039 0.48427 0.76369 0.0
H325 H 0.832 0.45563 0.76803 0.0
C326 C 0.66927 0.50624 0.27001 0.0
C327 C 0.69673 0.50071 0.25406 0.0
C328 C 0.63806 0.49139 0.26768 0.0
C329 C 0.59511 0.43481 0.24676 0.0
H330 H 0.49204 0.46819 0.20764 0.0
C331 C 0.40691 0.42744 0.20298 0.0
C332 C 0.40846 0.41642 0.2348 0.0
C333 C 0.44319 0.43165 0.19845 0.0
C334 C 0.52025 0.45837 0.21773 0.0
H335 H 0.7157 0.47463 0.22615 0.0
H336 H 0.66016 0.44847 0.22167 0.0
H337 H 0.5559 0.48714 0.21728 0.0
H338 H 0.4485 0.3993 0.28512 0.0
H339 H 0.51201 0.40753 0.27806 0.0
H340 H 0.55901 0.40602 0.24772 0.0
C341 C 0.66312 0.46431 0.23605 0.0
C342 C 0.55699 0.46938 0.22384 0.0
C343 C 0.69481 0.47921 0.23866 0.0
C344 C 0.44644 0.40796 0.26039 0.0
C345 C 0.48286 0.41254 0.2562 0.0
C346 C 0.55804 0.42368 0.24068 0.0
C347 C 0.63341 0.47082 0.249 0.0
C348 C 0.59483 0.45793 0.23943 0.0
C349 C 0.48177 0.42539 0.22608 0.0
C350 C 0.52032 0.43553 0.22686 0.0
H351 H 0.67055 0.52259 0.28254 0.0
H352 H 0.61604 0.49654 0.27866 0.0
H353 H 0.624 0.42562 0.25853 0.0
H354 H 0.37788 0.43371 0.18241 0.0
H355 H 0.44124 0.44105 0.17439 0.0
C356 C 0.93684 0.57645 0.23319 0.0
C357 C 0.89778 0.56785 0.21019 0.0
C358 C 0.97159 0.57048 0.22705 0.0
C359 C -0.00013 0.51968 0.19451 0.0
H360 H 0.10638 0.54806 0.21942 0.0
C361 C 0.13501 0.46716 0.19951 0.0
C362 C 0.17341 0.47044 0.22934 0.0
C363 C 0.1034 0.48273 0.19186 0.0
C364 C 0.07682 0.53995 0.21262 0.0
H365 H 0.86305 0.54953 0.15967 0.0
H366 H 0.92345 0.53977 0.14821 0.0
H367 H 0.04601 0.57127 0.21155 0.0
H368 H 0.2096 0.49302 0.27374 0.0
H369 H 0.15301 0.51999 0.26153 0.0
H370 H 0.03012 0.48843 0.1974 0.0
C371 C 0.92757 0.5504 0.17166 0.0
C372 C 0.04232 0.55322 0.20783 0.0
C373 C 0.89302 0.55602 0.17812 0.0
C374 C 0.18005 0.49003 0.25082 0.0
C375 C 0.14785 0.50552 0.24358 0.0
C376 C 0.03407 0.50653 0.19957 0.0
C377 C 0.96742 0.55609 0.19764 0.0
C378 C 0.0035 0.54314 0.19869 0.0
C379 C 0.10892 0.50175 0.21438 0.0
C380 C 0.07297 0.51642 0.20862 0.0
H381 H 0.94124 0.58566 0.2581 0.0
H382 H 0.00189 0.57518 0.24747 0.0
H383 H 0.97079 0.51127 0.18883 0.0
H384 H 0.12938 0.45254 0.18176 0.0
H385 H 0.07429 0.47964 0.16845 0.0
C386 C 0.58589 0.55924 0.78823 0.0
C387 C 0.58249 0.56817 0.75437 0.0
C388 C 0.5505 0.55306 0.79304 0.0
C389 C 0.48167 0.52065 0.77972 0.0
H390 H 0.37004 0.54242 0.72446 0.0
C391 C 0.3454 0.46025 0.73358 0.0
C392 C 0.30919 0.46713 0.73679 0.0
C393 C 0.37667 0.4757 0.73815 0.0
C394 C 0.40104 0.53625 0.74043 0.0
H395 H 0.53964 0.57982 0.7004 0.0
H396 H 0.4781 0.56815 0.70802 0.0
H397 H 0.42865 0.56696 0.73351 0.0
H398 H 0.27667 0.49585 0.74585 0.0
H399 H 0.33171 0.52279 0.75436 0.0
H400 H 0.45435 0.49008 0.78691 0.0
C401 C 0.50775 0.56629 0.73129 0.0
C402 C 0.43463 0.55024 0.7454 0.0
C403 C 0.54313 0.57294 0.72681 0.0
C404 C 0.30419 0.49001 0.74313 0.0
C405 C 0.3357 0.50547 0.748 0.0
C406 C 0.44824 0.50682 0.77503 0.0
C407 C 0.51118 0.55511 0.76369 0.0
C408 C 0.47539 0.54235 0.76422 0.0
C409 C 0.37266 0.49835 0.74641 0.0
C410 C 0.40761 0.51415 0.75431 0.0
H411 H 0.61595 0.55577 0.81017 0.0
H412 H 0.55418 0.54523 0.81886 0.0
H413 H 0.51244 0.51375 0.79392 0.0
H414 H 0.35001 0.44281 0.72826 0.0
H415 H 0.4043 0.46981 0.73568 0.0
C416 C 0.09767 0.00609 0.13362 0.0
C417 C 0.10734 0.02904 0.13424 0.0
C418 C 0.07255 -0.00429 0.10033 0.0
C419 C 0.03131 0.00235 -0.00098 0.0
H420 H 0.93967 0.96681 -0.00097 0.0
C421 C 0.89329 0.97666 0.86489 0.0
C422 C 0.8813 0.954 0.86292 0.0
C423 C 0.92146 0.98565 0.89828 0.0
C424 C 0.96532 0.97654 -0.0013 0.0
H425 H 0.09993 0.05886 0.1003 0.0
H426 H 0.056 0.04085 0.04273 0.0
H427 H 0.99094 0.98146 0.05723 0.0
H428 H 0.88836 0.92321 0.89464 0.0
H429 H 0.93741 0.93889 0.95242 0.0
H430 H 0.0054 -0.0024 0.94039 0.0
C431 C 0.06786 0.03083 0.06776 0.0
C432 C -0.00526 0.9848 0.03198 0.0
C433 C 0.09273 0.04119 0.10087 0.0
C434 C 0.89716 0.94071 0.8951 0.0
C435 C 0.92505 0.9497 0.92833 0.0
C436 C 0.00186 -0.00589 0.96572 0.0
C437 C 0.05705 0.0081 0.06722 0.0
C438 C 0.02783 -0.00211 0.03239 0.0
C439 C 0.93774 0.97216 0.93018 0.0
C440 C 0.96853 0.98123 0.96529 0.0
H441 H 0.10863 -0.00371 0.15887 0.0
H442 H 0.06493 0.97807 0.10051 0.0
H443 H 0.05682 0.01222 -0.00133 0.0
H444 H 0.88156 0.9873 0.84058 0.0
H445 H 0.9305 0.00313 0.89919 0.0
C446 C 0.60589 0.97251 0.13323 0.0
C447 C 0.61629 0.94989 0.13129 0.0
C448 C 0.58214 0.98424 0.10096 0.0
C449 C 0.54293 0.98246 -0.00095 0.0
H450 H 0.44643 0.0115 0.00192 0.0
C451 C 0.39969 0.00506 0.86734 0.0
C452 C 0.3839 0.02681 0.86651 0.0
C453 C 0.42975 -0.00347 0.90017 0.0
C454 C 0.47345 0.00366 0.00082 0.0
H455 H 0.61271 0.92233 0.09409 0.0
H456 H 0.57105 0.94266 0.03817 0.0
H457 H 0.50003 -0.00306 0.05883 0.0
H458 H 0.38582 0.05631 0.89962 0.0
H459 H 0.43814 0.04142 0.95652 0.0
H460 H 0.51581 -0.01117 0.94083 0.0
C461 C 0.58118 0.95138 0.06441 0.0
C462 C 0.50422 -0.00452 0.03337 0.0
C463 C 0.60467 0.93966 0.09653 0.0
C464 C 0.39762 0.03953 0.89927 0.0
C465 C 0.42741 0.03099 0.93195 0.0
C466 C 0.5121 -0.00938 0.96646 0.0
C467 C 0.56881 0.97356 0.06638 0.0
C468 C 0.53897 0.98457 0.0327 0.0
C469 C 0.44412 0.00956 0.9326 0.0
C470 C 0.47692 0.00107 0.96705 0.0
H471 H 0.61466 0.98086 0.15965 0.0
H472 H 0.57332 0.00146 0.10308 0.0
H473 H 0.56965 0.97428 -0.00209 0.0
H474 H 0.38968 -0.0051 0.84251 0.0
H475 H 0.44186 0.97979 0.90019 0.0
C476 C 0.59445 0.50583 0.62942 0.0
C477 C 0.60866 0.52763 0.62734 0.0
C478 C 0.56699 0.49506 0.59742 0.0
C479 C 0.52641 0.49697 0.49563 0.0
H480 H 0.42837 0.46996 0.49872 0.0
C481 C 0.38716 0.4729 0.36312 0.0
C482 C 0.37268 0.45085 0.36255 0.0
C483 C 0.41436 0.48247 0.39635 0.0
C484 C 0.45572 0.47735 0.49758 0.0
H485 H 0.60695 0.55478 0.59001 0.0
H486 H 0.55907 0.53616 0.53471 0.0
H487 H 0.48268 0.4845 0.55557 0.0
H488 H 0.37295 0.42212 0.39657 0.0
H489 H 0.42046 0.43884 0.45435 0.0
H490 H 0.49937 0.49003 0.43767 0.0
C491 C 0.56911 0.52731 0.56083 0.0
C492 C 0.48687 0.4855 0.53007 0.0
C493 C 0.59631 0.53805 0.59263 0.0
C494 C 0.38396 0.43907 0.39604 0.0
C495 C 0.41094 0.44867 0.4292 0.0
C496 C 0.49527 0.4889 0.4632 0.0
C497 C 0.55369 0.50589 0.56295 0.0
C498 C 0.52233 0.49554 0.52929 0.0
C499 C 0.42721 0.4702 0.42948 0.0
C500 C 0.45954 0.47918 0.46385 0.0
H501 H 0.6035 0.49739 0.65579 0.0
H502 H 0.55582 0.47841 0.59967 0.0
H503 H 0.55371 0.50436 0.49437 0.0
H504 H 0.37886 0.48242 0.3378 0.0
H505 H 0.42608 0.49927 0.39603 0.0
C506 C 0.08639 0.43947 0.5917 0.0
C507 C 0.10824 0.45182 0.62417 0.0
C508 C 0.06451 0.45042 0.55843 0.0
C509 C 0.01294 0.50316 0.52059 0.0
H510 H 0.01334 0.47988 0.42932 0.0
C511 C 0.92217 0.54518 0.38043 0.0
C512 C 0.89836 0.53083 0.35119 0.0
C513 C 0.95092 0.5364 0.41344 0.0
C514 C 0.01282 0.48643 0.45461 0.0
H515 H 0.12455 0.48542 0.64704 0.0
H516 H 0.08594 0.50467 0.58838 0.0
H517 H 0.05971 0.46363 0.48841 0.0
H518 H 0.88652 0.49599 0.33359 0.0
H519 H 0.93682 0.48058 0.39179 0.0
H520 H 0.96563 0.52573 0.4868 0.0
C521 C 0.0858 0.48645 0.58907 0.0
C522 C 0.03934 0.47722 0.48832 0.0
C523 C 0.10789 0.47545 0.62255 0.0
C524 C 0.90433 0.50747 0.35557 0.0
C525 C 0.93326 0.49867 0.38874 0.0
C526 C 0.98648 0.5124 0.48689 0.0
C527 C 0.06397 0.47398 0.55678 0.0
C528 C 0.03914 0.48528 0.52153 0.0
C529 C 0.95653 0.51309 0.41799 0.0
C530 C 0.98584 0.50391 0.45362 0.0
H531 H 0.086 0.42123 0.59183 0.0
H532 H 0.04734 0.44042 0.53408 0.0
H533 H 0.0118 0.50946 0.54578 0.0
H534 H 0.91859 0.5633 0.37802 0.0
H535 H 0.96887 0.54788 0.43542 0.0
C536 C 0.20712 0.08903 0.86199 0.0
C537 C 0.24615 0.08925 0.86084 0.0
C538 C 0.20362 0.09201 0.8956 0.0
C539 C 0.26357 0.11109 0.99303 0.0
H540 H 0.18297 0.07542 0.01205 0.0
C541 C 0.26615 0.09565 0.1388 0.0
C542 C 0.22801 0.0982 0.14134 0.0
C543 C 0.26826 0.09668 0.10435 0.0
C544 C 0.20543 0.0856 0.00697 0.0
H545 H 0.31214 0.09251 0.89426 0.0
H546 H 0.30612 0.09694 0.95237 0.0
H547 H 0.18571 0.07322 0.95179 0.0
H548 H 0.16234 0.10431 0.10954 0.0
H549 H 0.16624 0.1058 0.04995 0.0
H550 H 0.28409 0.12278 0.04892 0.0
C551 C 0.27802 0.09523 0.92741 0.0
C552 C 0.20685 0.08447 0.97237 0.0
C553 C 0.28147 0.09254 0.89394 0.0
C554 C 0.19233 0.10232 0.10881 0.0
C555 C 0.19439 0.10304 0.07453 0.0
C556 C 0.2625 0.11196 0.02782 0.0
C557 C 0.23911 0.095 0.92879 0.0
C558 C 0.23607 0.09712 0.96497 0.0
C559 C 0.23221 0.09993 0.07188 0.0
C560 C 0.23346 0.0992 0.03509 0.0
H561 H 0.17933 0.0866 0.83697 0.0
H562 H 0.17308 0.09203 0.89552 0.0
H563 H 0.28596 0.12142 0.98816 0.0
H564 H 0.29417 0.09245 0.16327 0.0
H565 H 0.29781 0.09416 0.10295 0.0
C566 C 0.70864 0.88985 0.85934 0.0
C567 C 0.74733 0.88979 0.85744 0.0
C568 C 0.70598 0.88636 0.89325 0.0
C569 C 0.76628 0.89314 0.9926 0.0
H570 H 0.69116 0.84967 0.00434 0.0
C571 C 0.76676 0.87624 0.13571 0.0
C572 C 0.72785 0.87397 0.13676 0.0
C573 C 0.77039 0.87573 0.10189 0.0
C574 C 0.71203 0.86207 0.00149 0.0
H575 H 0.81353 0.88604 0.88981 0.0
H576 H 0.80867 0.88027 0.94835 0.0
H577 H 0.6927 0.85471 0.94383 0.0
H578 H 0.66239 0.86866 0.1029 0.0
H579 H 0.66861 0.86845 0.04458 0.0
H580 H 0.78485 0.90113 0.04966 0.0
C581 C 0.78048 0.88293 0.92376 0.0
C582 C 0.71284 0.86491 0.96682 0.0
C583 C 0.78312 0.88611 0.89005 0.0
C584 C 0.69298 0.87037 0.10337 0.0
C585 C 0.69655 0.87012 0.0697 0.0
C586 C 0.76511 0.89053 0.0271 0.0
C587 C 0.742 0.88315 0.92579 0.0
C588 C 0.74003 0.88045 0.9621 0.0
C589 C 0.73515 0.87317 0.06838 0.0
C590 C 0.73795 0.87497 0.03205 0.0
H591 H 0.68053 0.89263 0.83476 0.0
H592 H 0.67592 0.88668 0.89419 0.0
H593 H 0.78729 0.9054 0.98958 0.0
H594 H 0.79426 0.87893 0.16088 0.0
H595 H 0.80077 0.87769 0.10199 0.0
C596 C 0.72041 0.59208 0.35191 0.0
C597 C 0.75919 0.59169 0.35029 0.0
C598 C 0.71758 0.5944 0.38588 0.0
C599 C 0.77911 0.61008 0.48471 0.0
H600 H 0.6949 0.57542 0.49995 0.0
C601 C 0.77528 0.59346 0.62814 0.0
C602 C 0.73658 0.59654 0.62938 0.0
C603 C 0.77903 0.59464 0.59438 0.0
C604 C 0.71841 0.5853 0.49598 0.0
H605 H 0.82546 0.59343 0.38318 0.0
H606 H 0.82057 0.59674 0.44212 0.0
H607 H 0.69877 0.57418 0.44017 0.0
H608 H 0.6717 0.60389 0.59605 0.0
H609 H 0.67842 0.60568 0.53769 0.0
H610 H 0.79934 0.62057 0.54122 0.0
C611 C 0.79221 0.59592 0.41723 0.0
C612 C 0.72049 0.58473 0.46164 0.0
C613 C 0.79501 0.5939 0.38331 0.0
C614 C 0.70205 0.60138 0.59631 0.0
C615 C 0.70574 0.6023 0.56273 0.0
C616 C 0.77733 0.6104 0.51927 0.0
C617 C 0.7535 0.59606 0.41904 0.0
C618 C 0.75079 0.59716 0.45547 0.0
C619 C 0.74408 0.59862 0.56133 0.0
C620 C 0.74684 0.59809 0.52512 0.0
H621 H 0.69223 0.59054 0.32697 0.0
H622 H 0.68719 0.59486 0.3861 0.0
H623 H 0.80248 0.62014 0.48087 0.0
H624 H 0.80248 0.58972 0.65306 0.0
H625 H 0.80895 0.59169 0.59395 0.0
C626 C 0.18905 0.38073 0.59228 0.0
C627 C 0.2251 0.38038 0.62538 0.0
C628 C 0.1913 0.37868 0.55821 0.0
C629 C 0.26464 0.3853 0.5144 0.0
H630 H 0.17619 0.35702 0.43102 0.0
C631 C 0.27542 0.37088 0.37623 0.0
C632 C 0.24332 0.38039 0.34509 0.0
C633 C 0.27162 0.36869 0.40959 0.0
C634 C 0.20091 0.36504 0.45409 0.0
H635 H 0.29176 0.37695 0.64865 0.0
H636 H 0.29571 0.37249 0.58897 0.0
H637 H 0.17465 0.35616 0.492 0.0
H638 H 0.18101 0.39384 0.32429 0.0
H639 H 0.17417 0.38955 0.38305 0.0
H640 H 0.29129 0.39364 0.47646 0.0
C641 C 0.26569 0.37498 0.58939 0.0
C642 C 0.20009 0.36464 0.489 0.0
C643 C 0.26349 0.37739 0.62363 0.0
C644 C 0.20633 0.38652 0.3477 0.0
C645 C 0.20238 0.38405 0.38124 0.0
C646 C 0.26576 0.38537 0.47968 0.0
C647 C 0.22962 0.37589 0.55621 0.0
C648 C 0.23177 0.37496 0.51956 0.0
C649 C 0.2355 0.37568 0.41265 0.0
C650 C 0.23381 0.37537 0.44921 0.0
H651 H 0.15894 0.38331 0.59251 0.0
H652 H 0.16295 0.37999 0.5334 0.0
H653 H 0.28909 0.39384 0.53695 0.0
H654 H 0.3043 0.36576 0.37538 0.0
H655 H 0.29734 0.3619 0.43332 0.0
C656 C 0.26274 0.08136 0.38673 0.0
C657 C 0.26354 0.06083 0.36946 0.0
C658 C 0.26023 0.08152 0.42093 0.0
C659 C 0.27246 0.04665 0.50139 0.0
H660 H 0.17956 0.08091 0.50185 0.0
C661 C 0.21598 0.03091 0.61343 0.0
C662 C 0.21132 0.05015 0.63184 0.0
C663 C 0.218 0.03286 0.57927 0.0
C664 C 0.20577 0.07142 0.50222 0.0
H665 H 0.26595 0.02453 0.3756 0.0
H666 H 0.26231 0.02484 0.4355 0.0
H667 H 0.19907 0.08443 0.44972 0.0
H668 H 0.20125 0.0862 0.62773 0.0
H669 H 0.2053 0.08971 0.568 0.0
H670 H 0.27938 0.0336 0.55368 0.0
C671 C 0.26322 0.04076 0.42257 0.0
C672 C 0.2171 0.07353 0.47257 0.0
C673 C 0.26521 0.04058 0.38826 0.0
C674 C 0.20462 0.0711 0.61394 0.0
C675 C 0.20713 0.0731 0.57983 0.0
C676 C 0.26129 0.0446 0.53101 0.0
C677 C 0.25916 0.06119 0.43854 0.0
C678 C 0.25021 0.06093 0.47172 0.0
C679 C 0.21595 0.05413 0.56316 0.0
C680 C 0.22741 0.05666 0.53147 0.0
H681 H 0.2612 0.09722 0.37274 0.0
H682 H 0.25761 0.09748 0.43299 0.0
H683 H 0.29837 0.03694 0.50154 0.0
H684 H 0.22078 0.01454 0.62658 0.0
H685 H 0.2235 0.01786 0.56646 0.0
C686 C 0.70105 0.90835 0.61041 0.0
C687 C 0.71085 0.92941 0.62803 0.0
C688 C 0.70357 0.90509 0.57651 0.0
C689 C 0.7626 0.92851 0.52792 0.0
H690 H 0.69312 0.89104 0.4459 0.0
C691 C 0.76645 0.93009 0.38528 0.0
C692 C 0.76069 0.90989 0.36546 0.0
C693 C 0.76467 0.93039 0.41967 0.0
C694 C 0.71318 0.90122 0.46897 0.0
H695 H 0.72597 0.96413 0.62225 0.0
H696 H 0.72895 0.95862 0.56261 0.0
H697 H 0.67465 0.89685 0.49826 0.0
H698 H 0.75101 0.87393 0.36684 0.0
H699 H 0.74779 0.87448 0.42731 0.0
H700 H 0.80074 0.9332 0.49851 0.0
C701 C 0.72091 0.94445 0.57552 0.0
C702 C 0.70245 0.90465 0.49875 0.0
C703 C 0.71877 0.94766 0.60944 0.0
C704 C 0.75582 0.88971 0.3817 0.0
C705 C 0.7535 0.89006 0.41602 0.0
C706 C 0.77324 0.92513 0.49822 0.0
C707 C 0.71558 0.92288 0.55974 0.0
C708 C 0.72668 0.91868 0.52819 0.0
C709 C 0.75672 0.91052 0.43475 0.0
C710 C 0.74831 0.91174 0.46821 0.0
H711 H 0.69509 0.89396 0.62426 0.0
H712 H 0.69913 0.88829 0.56489 0.0
H713 H 0.78261 0.93887 0.55074 0.0
H714 H 0.77033 0.94587 0.37338 0.0
H715 H 0.76705 0.94643 0.43339 0.0
C716 C 0.77527 0.54353 0.88054 0.0
C717 C 0.77148 0.56344 0.8604 0.0
C718 C 0.77427 0.54416 0.91522 0.0
C719 C 0.72535 0.5764 0.96316 0.0
H720 H 0.78863 0.53744 0.04541 0.0
C721 C 0.70749 0.57172 0.10228 0.0
C722 C 0.71513 0.55069 0.12003 0.0
C723 C 0.71117 0.57434 0.06875 0.0
C724 C 0.77032 0.54819 0.02243 0.0
H725 H 0.76644 0.59975 0.86141 0.0
H726 H 0.76445 0.60086 0.92243 0.0
H727 H 0.80932 0.54166 -0.00562 0.0
H728 H 0.72722 0.51543 0.11469 0.0
H729 H 0.73207 0.51981 0.05559 0.0
H730 H 0.68582 0.58255 0.99097 0.0
C731 C 0.76816 0.58481 0.91123 0.0
C732 C 0.78247 0.55077 0.99346 0.0
C733 C 0.7698 0.58419 0.87663 0.0
C734 C 0.72164 0.53187 0.10173 0.0
C735 C 0.72492 0.53444 0.06817 0.0
C736 C 0.71308 0.57377 0.99219 0.0
C737 C 0.76894 0.5647 0.93018 0.0
C738 C 0.75973 0.56459 0.96327 0.0
C739 C 0.72215 0.55591 0.05248 0.0
C740 C 0.735 0.55927 0.02175 0.0
H741 H 0.77652 0.52733 0.86849 0.0
H742 H 0.77472 0.5284 0.92909 0.0
H743 H 0.70692 0.58693 0.93991 0.0
H744 H 0.70268 0.58654 0.11591 0.0
H745 H 0.70865 0.59107 0.0572 0.0
C746 C 0.27578 0.43879 0.87707 0.0
C747 C 0.27318 0.4187 0.85771 0.0
C748 C 0.2753 0.43832 0.91194 0.0
C749 C 0.27889 0.4018 0.98875 0.0
H750 H 0.19989 0.44551 0.99347 0.0
C751 C 0.22196 0.40094 0.10516 0.0
C752 C 0.22723 0.42168 0.12358 0.0
C753 C 0.22466 0.39969 0.0711 0.0
C754 C 0.22205 0.43326 0.99253 0.0
H755 H 0.27181 0.38231 0.86053 0.0
H756 H 0.27022 0.38145 0.92148 0.0
H757 H 0.21731 0.44516 0.94025 0.0
H758 H 0.23623 0.45754 0.11967 0.0
H759 H 0.24035 0.45537 0.06006 0.0
H760 H 0.28327 0.38989 0.04118 0.0
C761 C 0.27303 0.39755 0.90992 0.0
C762 C 0.23235 0.43316 0.96228 0.0
C763 C 0.27407 0.39802 0.87511 0.0
C764 C 0.23224 0.44132 0.10617 0.0
C765 C 0.23449 0.44009 0.07202 0.0
C766 C 0.26841 0.40184 0.01903 0.0
C767 C 0.27151 0.41776 0.92774 0.0
C768 C 0.2613 0.41766 0.9603 0.0
C769 C 0.23207 0.41918 0.05479 0.0
C770 C 0.24023 0.41774 0.0213 0.0
H771 H 0.27556 0.45493 0.86427 0.0
H772 H 0.27548 0.45413 0.92559 0.0
H773 H 0.30129 0.38968 0.98794 0.0
H774 H 0.21822 0.38551 0.118 0.0
H775 H 0.22219 0.38341 0.05804 0.0
C776 C 0.17706 0.16426 0.24383 0.0
C777 C 0.21113 0.15055 0.26409 0.0
C778 C 0.18271 0.18722 0.24037 0.0
C779 C 0.26445 0.22345 0.23882 0.0
H780 H 0.18948 0.27208 0.23345 0.0
C781 C 0.30151 0.31749 0.24031 0.0
C782 C 0.26847 0.33221 0.22181 0.0
C783 C 0.29456 0.29437 0.23924 0.0
C784 C 0.21023 0.25854 0.23413 0.0
H785 H 0.27641 0.15034 0.30071 0.0
H786 H 0.286 0.19054 0.2953 0.0
H787 H 0.17648 0.23454 0.251 0.0
H788 H 0.20395 0.33434 0.18334 0.0
H789 H 0.19205 0.29391 0.18114 0.0
H790 H 0.29847 0.24754 0.22237 0.0
C791 C 0.25536 0.18343 0.28103 0.0
C792 C 0.20297 0.23716 0.2445 0.0
C793 C 0.24979 0.16051 0.28435 0.0
C794 C 0.22974 0.32336 0.19857 0.0
C795 C 0.22286 0.30027 0.19738 0.0
C796 C 0.27173 0.24484 0.22847 0.0
C797 C 0.22238 0.19669 0.25737 0.0
C798 C 0.23026 0.21951 0.24731 0.0
C799 C 0.2546 0.28577 0.21944 0.0
C800 C 0.24483 0.26259 0.22628 0.0
H801 H 0.14686 0.15703 0.228 0.0
H802 H 0.15671 0.19713 0.22209 0.0
H803 H 0.2854 0.20995 0.23987 0.0
H804 H 0.33179 0.32384 0.25823 0.0
H805 H 0.31962 0.28351 0.25643 0.0
C806 C 0.2052 0.1501 0.71913 0.0
C807 C 0.24519 0.14134 0.72918 0.0
C808 C 0.19915 0.17328 0.71922 0.0
C809 C 0.25666 0.22189 0.7693 0.0
H810 H 0.16689 0.25706 0.69871 0.0
C811 C 0.25343 0.31821 0.7678 0.0
C812 C 0.21502 0.3292 0.75524 0.0
C813 C 0.25537 0.29481 0.76856 0.0
C814 C 0.19164 0.24733 0.71903 0.0
H815 H 0.30927 0.15005 0.74279 0.0
H816 H 0.29848 0.19047 0.74263 0.0
H817 H 0.17327 0.21731 0.68636 0.0
H818 H 0.14892 0.3243 0.73744 0.0
H819 H 0.15255 0.28338 0.73938 0.0
H820 H 0.27509 0.25176 0.80204 0.0
C821 C 0.27214 0.17936 0.73574 0.0
C822 C 0.19544 0.22468 0.71176 0.0
C823 C 0.2782 0.15624 0.7356 0.0
C824 C 0.17897 0.31635 0.74671 0.0
C825 C 0.18096 0.29292 0.74757 0.0
C826 C 0.25274 0.24446 0.77668 0.0
C827 C 0.23297 0.18799 0.72927 0.0
C828 C 0.22837 0.2119 0.73658 0.0
C829 C 0.21898 0.28196 0.75703 0.0
C830 C 0.22053 0.25748 0.75139 0.0
H831 H 0.17903 0.13908 0.71375 0.0
H832 H 0.16859 0.17958 0.71394 0.0
H833 H 0.28174 0.2122 0.78934 0.0
H834 H 0.28184 0.3276 0.77485 0.0
H835 H 0.28515 0.28684 0.7759 0.0
C836 C 0.68369 0.66445 0.74063 0.0
C837 C 0.71966 0.65139 0.7501 0.0
C838 C 0.68547 0.68778 0.73804 0.0
C839 C 0.747 0.72981 0.71678 0.0
H840 H 0.68696 0.77292 0.74923 0.0
C841 C 0.77817 0.82467 0.72796 0.0
C842 C 0.74513 0.83942 0.72216 0.0
C843 C 0.77166 0.80152 0.72497 0.0
C844 C 0.70319 0.76102 0.73933 0.0
H845 H 0.78628 0.65276 0.76785 0.0
H846 H 0.78927 0.69352 0.76368 0.0
H847 H 0.6842 0.73304 0.7626 0.0
H848 H 0.67864 0.8416 0.70475 0.0
H849 H 0.66734 0.80108 0.69921 0.0
H850 H 0.7663 0.75777 0.69379 0.0
C851 C 0.75963 0.68559 0.75735 0.0
C852 C 0.70187 0.73826 0.74727 0.0
C853 C 0.7579 0.66228 0.76005 0.0
C854 C 0.70486 0.83068 0.70988 0.0
C855 C 0.69837 0.80749 0.70693 0.0
C856 C 0.74824 0.75255 0.70876 0.0
C857 C 0.72322 0.69842 0.74492 0.0
C858 C 0.72425 0.72252 0.73652 0.0
C859 C 0.73198 0.79271 0.716 0.0
C860 C 0.72677 0.76839 0.72036 0.0
H861 H 0.65376 0.65661 0.73312 0.0
H862 H 0.65696 0.69732 0.72853 0.0
H863 H 0.76373 0.71791 0.7074 0.0
H864 H 0.80952 0.83087 0.73702 0.0
H865 H 0.79818 0.79053 0.73216 0.0
C866 C 0.70547 0.64956 0.19741 0.0
C867 C 0.7473 0.64315 0.21482 0.0
C868 C 0.69403 0.67183 0.19904 0.0
C869 C 0.73007 0.71675 0.26492 0.0
H870 H 0.65511 0.7559 0.18872 0.0
C871 C 0.72996 0.81154 0.27673 0.0
C872 C 0.6936 0.82364 0.25677 0.0
C873 C 0.72954 0.78816 0.27617 0.0
C874 C 0.6752 0.74491 0.21046 0.0
H875 H 0.81025 0.65558 0.24267 0.0
H876 H 0.79006 0.6944 0.24532 0.0
H877 H 0.66966 0.71829 0.17221 0.0
H878 H 0.62733 0.82087 0.22437 0.0
H879 H 0.62673 0.77986 0.22357 0.0
H880 H 0.73618 0.74328 0.30315 0.0
C881 C 0.76624 0.68205 0.23138 0.0
C882 C 0.68383 0.72356 0.20087 0.0
C883 C 0.77772 0.65986 0.22959 0.0
C884 C 0.65599 0.81198 0.23961 0.0
C885 C 0.6556 0.78853 0.23897 0.0
C886 C 0.72118 0.73794 0.27456 0.0
C887 C 0.72429 0.68785 0.21802 0.0
C888 C 0.71243 0.70971 0.22787 0.0
C889 C 0.69273 0.7765 0.25569 0.0
C890 C 0.69478 0.7525 0.24723 0.0
H891 H 0.68132 0.63712 0.18522 0.0
H892 H 0.66149 0.67609 0.18815 0.0
H893 H 0.75134 0.70597 0.28634 0.0
H894 H 0.75929 0.82009 0.29071 0.0
H895 H 0.75871 0.77935 0.28928 0.0
loop_
_geom_bond_atom_site_label_1
_geom_bond_atom_site_label_2
_geom_bond_distance
_geom_bond_site_symmetry_2
_ccdc_geom_bond_type
Sc0 O3 2.025 . S
Sc0 O10 2.105 . S
Sc0 O13 2.105 . S
Sc0 O16 2.105 . S
Sc0 O19 2.105 . S
Sc1 O3 2.025 . S
Sc1 O11 2.105 . S
Sc1 O15 2.105 . S
Sc1 O17 2.105 . S
Sc1 O21 2.105 . S
Sc2 O3 2.025 . S
Sc2 O12 2.105 . S
Sc2 O14 2.105 . S
Sc2 O18 2.105 . S
Sc2 O20 2.105 . S
O3 Sc0 2.025 . S
O3 Sc1 2.025 . S
O3 Sc2 2.025 . S
C4 O10 1.268 . S
C4 O20 1.268 . S
C5 O11 1.268 . S
C5 O19 1.268 . S
C6 O12 1.268 . S
C6 O21 1.268 . S
C7 O13 1.268 . S
C7 O17 1.268 . S
C8 O14 1.268 . S
C8 O16 1.268 . S
C9 O15 1.268 . S
C9 O18 1.268 . S
O10 Sc0 2.105 . S
O10 C4 1.268 . S
O11 Sc1 2.105 . S
O11 C5 1.268 . S
O12 Sc2 2.105 . S
O12 C6 1.268 . S
O13 Sc0 2.105 . S
O13 C7 1.268 . S
O14 Sc2 2.105 . S
O14 C8 1.268 . S
O15 Sc1 2.105 . S
O15 C9 1.268 . S
O16 Sc0 2.105 . S
O16 C8 1.268 . S
O17 Sc1 2.105 . S
O17 C7 1.268 . S
O18 Sc2 2.105 . S
O18 C9 1.268 . S
O19 Sc0 2.105 . S
O19 C5 1.268 . S
O20 Sc2 2.105 . S
O20 C4 1.268 . S
O21 Sc1 2.105 . S
O21 C6 1.268 . S
Sc22 O25 2.025 . S
Sc22 O32 2.105 . S
Sc22 O35 2.105 . S
Sc22 O38 2.105 . S
Sc22 O41 2.105 . S
Sc23 O25 2.025 . S
Sc23 O33 2.105 . S
Sc23 O37 2.105 . S
Sc23 O39 2.105 . S
Sc23 O43 2.105 . S
Sc24 O25 2.025 . S
Sc24 O34 2.105 . S
Sc24 O36 2.105 . S
Sc24 O40 2.105 . S
Sc24 O42 2.105 . S
O25 Sc22 2.025 . S
O25 Sc23 2.025 . S
O25 Sc24 2.025 . S
C26 O32 1.268 . S
C26 O42 1.268 . S
C27 O33 1.268 . S
C27 O41 1.268 . S
C28 O34 1.268 . S
C28 O43 1.268 . S
C29 O35 1.268 . S
C29 O39 1.268 . S
C30 O36 1.268 . S
C30 O38 1.268 . S
C31 O37 1.268 . S
C31 O40 1.268 . S
O32 Sc22 2.105 . S
O32 C26 1.268 . S
O33 Sc23 2.105 . S
O33 C27 1.268 . S
O34 Sc24 2.105 . S
O34 C28 1.268 . S
O35 Sc22 2.105 . S
O35 C29 1.268 . S
O36 Sc24 2.105 . S
O36 C30 1.268 . S
O37 Sc23 2.105 . S
O37 C31 1.268 . S
O38 Sc22 2.105 . S
O38 C30 1.268 . S
O39 Sc23 2.105 . S
O39 C29 1.268 . S
O40 Sc24 2.105 . S
O40 C31 1.268 . S
O41 Sc22 2.105 . S
O41 C27 1.268 . S
O42 Sc24 2.105 . S
O42 C26 1.268 . S
O43 Sc23 2.105 . S
O43 C28 1.268 . S
Sc44 O47 2.025 . S
Sc44 O54 2.105 . S
Sc44 O57 2.105 . S
Sc44 O60 2.105 . S
Sc44 O63 2.105 . S
Sc45 O47 2.025 . S
Sc45 O55 2.105 . S
Sc45 O59 2.105 . S
Sc45 O61 2.105 . S
Sc45 O65 2.105 . S
Sc46 O47 2.025 . S
Sc46 O56 2.105 . S
Sc46 O58 2.105 . S
Sc46 O62 2.105 . S
Sc46 O64 2.105 . S
O47 Sc44 2.025 . S
O47 Sc45 2.025 . S
O47 Sc46 2.025 . S
C48 O54 1.268 . S
C48 O64 1.268 . S
C49 O55 1.268 . S
C49 O63 1.268 . S
C50 O56 1.268 . S
C50 O65 1.268 . S
C51 O57 1.268 . S
C51 O61 1.268 . S
C52 O58 1.268 . S
C52 O60 1.268 . S
C53 O59 1.268 . S
C53 O62 1.268 . S
O54 Sc44 2.105 . S
O54 C48 1.268 . S
O55 Sc45 2.105 . S
O55 C49 1.268 . S
O56 Sc46 2.105 . S
O56 C50 1.268 . S
O57 Sc44 2.105 . S
O57 C51 1.268 . S
O58 Sc46 2.105 . S
O58 C52 1.268 . S
O59 Sc45 2.105 . S
O59 C53 1.268 . S
O60 Sc44 2.105 . S
O60 C52 1.268 . S
O61 Sc45 2.105 . S
O61 C51 1.268 . S
O62 Sc46 2.105 . S
O62 C53 1.268 . S
O63 Sc44 2.105 . S
O63 C49 1.268 . S
O64 Sc46 2.105 . S
O64 C48 1.268 . S
O65 Sc45 2.105 . S
O65 C50 1.268 . S
Sc66 O69 2.025 . S
Sc66 O76 2.105 . S
Sc66 O79 2.105 . S
Sc66 O82 2.105 . S
Sc66 O85 2.105 . S
Sc67 O69 2.025 . S
Sc67 O77 2.105 . S
Sc67 O81 2.105 . S
Sc67 O83 2.105 . S
Sc67 O87 2.105 . S
Sc68 O69 2.025 . S
Sc68 O78 2.105 . S
Sc68 O80 2.105 . S
Sc68 O84 2.105 . S
Sc68 O86 2.105 . S
O69 Sc66 2.025 . S
O69 Sc67 2.025 . S
O69 Sc68 2.025 . S
C70 O76 1.268 . S
C70 O86 1.268 . S
C71 O77 1.268 . S
C71 O85 1.268 . S
C72 O78 1.268 . S
C72 O87 1.268 . S
C73 O79 1.268 . S
C73 O83 1.268 . S
C74 O80 1.268 . S
C74 O82 1.268 . S
C75 O81 1.268 . S
C75 O84 1.268 . S
O76 Sc66 2.105 . S
O76 C70 1.268 . S
O77 Sc67 2.105 . S
O77 C71 1.268 . S
O78 Sc68 2.105 . S
O78 C72 1.268 . S
O79 Sc66 2.105 . S
O79 C73 1.268 . S
O80 Sc68 2.105 . S
O80 C74 1.268 . S
O81 Sc67 2.105 . S
O81 C75 1.268 . S
O82 Sc66 2.105 . S
O82 C74 1.268 . S
O83 Sc67 2.105 . S
O83 C73 1.268 . S
O84 Sc68 2.105 . S
O84 C75 1.268 . S
O85 Sc66 2.105 . S
O85 C71 1.268 . S
O86 Sc68 2.105 . S
O86 C70 1.268 . S
O87 Sc67 2.105 . S
O87 C72 1.268 . S
Sc88 O91 2.025 . S
Sc88 O98 2.105 . S
Sc88 O101 2.105 . S
Sc88 O104 2.105 . S
Sc88 O107 2.105 . S
Sc89 O91 2.025 . S
Sc89 O99 2.105 . S
Sc89 O103 2.105 . S
Sc89 O105 2.105 . S
Sc89 O109 2.105 . S
Sc90 O91 2.025 . S
Sc90 O100 2.105 . S
Sc90 O102 2.105 . S
Sc90 O106 2.105 . S
Sc90 O108 2.105 . S
O91 Sc88 2.025 . S
O91 Sc89 2.025 . S
O91 Sc90 2.025 . S
C92 O98 1.268 . S
C92 O108 1.268 . S
C93 O99 1.268 . S
C93 O107 1.268 . S
C94 O100 1.268 . S
C94 O109 1.268 . S
C95 O101 1.268 . S
C95 O105 1.268 . S
C96 O102 1.268 . S
C96 O104 1.268 . S
C97 O103 1.268 . S
C97 O106 1.268 . S
O98 Sc88 2.105 . S
O98 C92 1.268 . S
O99 Sc89 2.105 . S
O99 C93 1.268 . S
O100 Sc90 2.105 . S
O100 C94 1.268 . S
O101 Sc88 2.105 . S
O101 C95 1.268 . S
O102 Sc90 2.105 . S
O102 C96 1.268 . S
O103 Sc89 2.105 . S
O103 C97 1.268 . S
O104 Sc88 2.105 . S
O104 C96 1.268 . S
O105 Sc89 2.105 . S
O105 C95 1.268 . S
O106 Sc90 2.105 . S
O106 C97 1.268 . S
O107 Sc88 2.105 . S
O107 C93 1.268 . S
O108 Sc90 2.105 . S
O108 C92 1.268 . S
O109 Sc89 2.105 . S
O109 C94 1.268 . S
Sc110 O113 2.025 . S
Sc110 O120 2.105 . S
Sc110 O123 2.105 . S
Sc110 O126 2.105 . S
Sc110 O129 2.105 . S
Sc111 O113 2.025 . S
Sc111 O121 2.105 . S
Sc111 O125 2.105 . S
Sc111 O127 2.105 . S
Sc111 O131 2.105 . S
Sc112 O113 2.025 . S
Sc112 O122 2.105 . S
Sc112 O124 2.105 . S
Sc112 O128 2.105 . S
Sc112 O130 2.105 . S
O113 Sc110 2.025 . S
O113 Sc111 2.025 . S
O113 Sc112 2.025 . S
C114 O120 1.268 . S
C114 O130 1.268 . S
C115 O121 1.268 . S
C115 O129 1.268 . S
C116 O122 1.268 . S
C116 O131 1.268 . S
C117 O123 1.268 . S
C117 O127 1.268 . S
C118 O124 1.268 . S
C118 O126 1.268 . S
C119 O125 1.268 . S
C119 O128 1.268 . S
O120 Sc110 2.105 . S
O120 C114 1.268 . S
O121 Sc111 2.105 . S
O121 C115 1.268 . S
O122 Sc112 2.105 . S
O122 C116 1.268 . S
O123 Sc110 2.105 . S
O123 C117 1.268 . S
O124 Sc112 2.105 . S
O124 C118 1.268 . S
O125 Sc111 2.105 . S
O125 C119 1.268 . S
O126 Sc110 2.105 . S
O126 C118 1.268 . S
O127 Sc111 2.105 . S
O127 C117 1.268 . S
O128 Sc112 2.105 . S
O128 C119 1.268 . S
O129 Sc110 2.105 . S
O129 C115 1.268 . S
O130 Sc112 2.105 . S
O130 C114 1.268 . S
O131 Sc111 2.105 . S
O131 C116 1.268 . S
Sc132 O135 2.025 . S
Sc132 O142 2.105 . S
Sc132 O145 2.105 . S
Sc132 O148 2.105 . S
Sc132 O151 2.105 . S
Sc133 O135 2.025 . S
Sc133 O143 2.105 . S
Sc133 O147 2.105 . S
Sc133 O149 2.105 . S
Sc133 O153 2.105 . S
Sc134 O135 2.025 . S
Sc134 O144 2.105 . S
Sc134 O146 2.105 . S
Sc134 O150 2.105 . S
Sc134 O152 2.105 . S
O135 Sc132 2.025 . S
O135 Sc133 2.025 . S
O135 Sc134 2.025 . S
C136 O142 1.268 . S
C136 O152 1.268 . S
C137 O143 1.268 . S
C137 O151 1.268 . S
C138 O144 1.268 . S
C138 O153 1.268 . S
C139 O145 1.268 . S
C139 O149 1.268 . S
C140 O146 1.268 . S
C140 O148 1.268 . S
C141 O147 1.268 . S
C141 O150 1.268 . S
O142 Sc132 2.105 . S
O142 C136 1.268 . S
O143 Sc133 2.105 . S
O143 C137 1.268 . S
O144 Sc134 2.105 . S
O144 C138 1.268 . S
O145 Sc132 2.105 . S
O145 C139 1.268 . S
O146 Sc134 2.105 . S
O146 C140 1.268 . S
O147 Sc133 2.105 . S
O147 C141 1.268 . S
O148 Sc132 2.105 . S
O148 C140 1.268 . S
O149 Sc133 2.105 . S
O149 C139 1.268 . S
O150 Sc134 2.105 . S
O150 C141 1.268 . S
O151 Sc132 2.105 . S
O151 C137 1.268 . S
O152 Sc134 2.105 . S
O152 C136 1.268 . S
O153 Sc133 2.105 . S
O153 C138 1.268 . S
Sc154 O157 2.025 . S
Sc154 O164 2.105 . S
Sc154 O167 2.105 . S
Sc154 O170 2.105 . S
Sc154 O173 2.105 . S
Sc155 O157 2.025 . S
Sc155 O165 2.105 . S
Sc155 O169 2.105 . S
Sc155 O171 2.105 . S
Sc155 O175 2.105 . S
Sc156 O157 2.025 . S
Sc156 O166 2.105 . S
Sc156 O168 2.105 . S
Sc156 O172 2.105 . S
Sc156 O174 2.105 . S
O157 Sc154 2.025 . S
O157 Sc155 2.025 . S
O157 Sc156 2.025 . S
C158 O164 1.268 . S
C158 O174 1.268 . S
C159 O165 1.268 . S
C159 O173 1.268 . S
C160 O166 1.268 . S
C160 O175 1.268 . S
C161 O167 1.268 . S
C161 O171 1.268 . S
C162 O168 1.268 . S
C162 O170 1.268 . S
C163 O169 1.268 . S
C163 O172 1.268 . S
O164 Sc154 2.105 . S
O164 C158 1.268 . S
O165 Sc155 2.105 . S
O165 C159 1.268 . S
O166 Sc156 2.105 . S
O166 C160 1.268 . S
O167 Sc154 2.105 . S
O167 C161 1.268 . S
O168 Sc156 2.105 . S
O168 C162 1.268 . S
O169 Sc155 2.105 . S
O169 C163 1.268 . S
O170 Sc154 2.105 . S
O170 C162 1.268 . S
O171 Sc155 2.105 . S
O171 C161 1.268 . S
O172 Sc156 2.105 . S
O172 C163 1.268 . S
O173 Sc154 2.105 . S
O173 C159 1.268 . S
O174 Sc156 2.105 . S
O174 C158 1.268 . S
O175 Sc155 2.105 . S
O175 C160 1.268 . S
C176 C177 1.349 . S
C176 C178 1.327 . S
C176 H201 0.950 . S
C177 C176 1.349 . S
C177 C193 1.349 . S
C178 C176 1.327 . S
C178 C197 1.429 . S
C178 H202 0.950 . S
C179 C196 1.574 . S
C179 C198 1.368 . S
C179 H203 0.949 . S
H180 C184 0.949 . S
C181 C182 1.349 . S
C181 C183 1.327 . S
C181 H204 0.950 . S
C182 C181 1.349 . S
C182 C194 1.349 . S
C183 C181 1.327 . S
C183 C199 1.429 . S
C183 H205 0.950 . S
C184 H180 0.949 . S
C184 C192 1.574 . S
C184 C200 1.368 . S
H185 C193 0.950 . S
H186 C191 0.950 . S
H187 C192 0.949 . S
H188 C194 0.950 . S
H189 C195 0.950 . S
H190 C196 0.949 . S
C191 H186 0.950 . S
C191 C193 1.327 . S
C191 C197 1.429 . S
C192 C184 1.574 . S
C192 H187 0.949 . S
C192 C198 1.368 . S
C193 C177 1.349 . S
C193 H185 0.950 . S
C193 C191 1.327 . S
C194 C182 1.349 . S
C194 H188 0.950 . S
C194 C195 1.327 . S
C195 H189 0.950 . S
C195 C194 1.327 . S
C195 C199 1.429 . S
C196 C179 1.574 . S
C196 H190 0.949 . S
C196 C200 1.368 . S
C197 C178 1.429 . S
C197 C191 1.429 . S
C197 C198 1.523 . S
C198 C179 1.368 . S
C198 C192 1.368 . S
C198 C197 1.523 . S
C199 C183 1.429 . S
C199 C195 1.429 . S
C199 C200 1.523 1_545 S
C200 C184 1.368 . S
C200 C196 1.368 . S
C200 C199 1.523 1_565 S
H201 C176 0.950 . S
H202 C178 0.950 . S
H203 C179 0.949 . S
H204 C181 0.950 . S
H205 C183 0.950 . S
C206 C207 1.349 . S
C206 C208 1.327 . S
C206 H231 0.950 . S
C207 C206 1.349 . S
C207 C223 1.349 . S
C208 C206 1.327 . S
C208 C227 1.429 . S
C208 H232 0.950 1_655 S
C209 C226 1.574 . S
C209 C228 1.368 . S
C209 H233 0.949 . S
H210 C214 0.936 1_545 S
C211 C212 1.349 . S
C211 C213 1.327 . S
C211 H234 0.950 . S
C212 C211 1.349 . S
C212 C224 1.349 . S
C213 C211 1.327 . S
C213 C229 1.429 . S
C213 H235 0.950 1_545 S
C214 H210 0.936 1_565 S
C214 C222 1.574 . S
C214 C230 1.368 . S
H215 C223 0.950 . S
H216 C221 0.950 . S
H217 C222 0.949 . S
H218 C224 0.950 . S
H219 C225 0.950 . S
H220 C226 0.949 . S
C221 H216 0.950 . S
C221 C223 1.327 . S
C221 C227 1.429 . S
C222 C214 1.574 . S
C222 H217 0.949 . S
C222 C228 1.368 . S
C223 C207 1.349 . S
C223 H215 0.950 . S
C223 C221 1.327 . S
C224 C212 1.349 . S
C224 H218 0.950 . S
C224 C225 1.327 . S
C225 H219 0.950 . S
C225 C224 1.327 . S
C225 C229 1.429 . S
C226 C209 1.574 . S
C226 H220 0.949 . S
C226 C230 1.368 . S
C227 C208 1.429 . S
C227 C221 1.429 . S
C227 C228 1.523 1_655 S
C228 C209 1.368 . S
C228 C222 1.368 . S
C228 C227 1.523 1_455 S
C229 C213 1.429 . S
C229 C225 1.429 . S
C229 C230 1.523 1_545 S
C230 C214 1.368 . S
C230 C226 1.368 . S
C230 C229 1.523 1_565 S
H231 C206 0.950 . S
H232 C208 0.950 1_455 S
H233 C209 0.949 . S
H234 C211 0.950 . S
H235 C213 0.950 1_565 S
C236 C237 1.349 . S
C236 C238 1.327 . S
C236 H261 0.950 . S
C237 C236 1.349 . S
C237 C253 1.349 . S
C238 C236 1.327 . S
C238 C257 1.429 . S
C238 H262 0.949 . S
C239 C256 1.574 . S
C239 C258 1.368 . S
C239 H263 0.949 . S
H240 C244 0.949 . S
C241 C242 1.349 . S
C241 C243 1.327 . S
C241 H264 0.950 . S
C242 C241 1.349 . S
C242 C254 1.349 . S
C243 C241 1.327 . S
C243 C259 1.429 . S
C243 H265 0.950 . S
C244 H240 0.949 . S
C244 C252 1.574 . S
C244 C260 1.368 . S
H245 C253 0.950 . S
H246 C251 0.950 . S
H247 C252 0.949 . S
H248 C254 0.950 . S
H249 C255 0.950 . S
H250 C256 0.949 . S
C251 H246 0.950 . S
C251 C253 1.327 . S
C251 C257 1.429 . S
C252 C244 1.574 . S
C252 H247 0.949 . S
C252 C258 1.368 . S
C253 C237 1.349 . S
C253 H245 0.950 . S
C253 C251 1.327 . S
C254 C242 1.349 . S
C254 H248 0.950 . S
C254 C255 1.327 . S
C255 H249 0.950 . S
C255 C254 1.327 . S
C255 C259 1.429 . S
C256 C239 1.574 . S
C256 H250 0.949 . S
C256 C260 1.368 . S
C257 C238 1.429 . S
C257 C251 1.429 . S
C257 C258 1.523 1_565 S
C258 C239 1.368 . S
C258 C252 1.368 . S
C258 C257 1.523 1_545 S
C259 C243 1.429 . S
C259 C255 1.429 . S
C259 C260 1.523 . S
C260 C244 1.368 . S
C260 C256 1.368 . S
C260 C259 1.523 . S
H261 C236 0.950 . S
H262 C238 0.949 . S
H263 C239 0.949 . S
H264 C241 0.950 . S
H265 C243 0.950 . S
C266 C267 1.349 . S
C266 C268 1.327 . S
C266 H291 0.950 . S
C267 C266 1.349 . S
C267 C283 1.349 . S
C268 C266 1.327 . S
C268 C287 1.429 . S
C268 H292 0.950 . S
C269 C286 1.574 . S
C269 C288 1.368 . S
C269 H293 0.949 . S
H270 C274 0.949 1_455 S
C271 C272 1.349 . S
C271 C273 1.343 . S
C271 H294 0.950 . S
C272 C271 1.349 . S
C272 C284 1.349 . S
C273 C271 1.343 . S
C273 C289 1.426 . S
C273 H295 0.935 1_455 S
C274 H270 0.949 1_655 S
C274 C282 1.574 1_545 S
C274 C290 1.368 . S
H275 C283 0.950 . S
H276 C281 0.950 . S
H277 C282 0.949 . S
H278 C284 0.950 . S
H279 C285 0.950 . S
H280 C286 0.949 . S
C281 H276 0.950 . S
C281 C283 1.327 1_545 S
C281 C287 1.429 1_545 S
C282 C274 1.574 1_565 S
C282 H277 0.949 . S
C282 C288 1.368 1_565 S
C283 C267 1.349 . S
C283 H275 0.950 . S
C283 C281 1.327 1_565 S
C284 C272 1.349 . S
C284 H278 0.950 . S
C284 C285 1.327 . S
C285 H279 0.950 . S
C285 C284 1.327 . S
C285 C289 1.429 . S
C286 C269 1.574 . S
C286 H280 0.949 . S
C286 C290 1.368 . S
C287 C268 1.429 . S
C287 C281 1.429 1_565 S
C287 C288 1.523 1_565 S
C288 C269 1.368 . S
C288 C282 1.368 1_545 S
C288 C287 1.523 1_545 S
C289 C273 1.426 . S
C289 C285 1.429 . S
C289 C290 1.523 1_455 S
C290 C274 1.368 . S
C290 C286 1.368 . S
C290 C289 1.523 1_655 S
H291 C266 0.950 . S
H292 C268 0.950 . S
H293 C269 0.949 . S
H294 C271 0.950 . S
H295 C273 0.935 1_655 S
C296 C297 1.349 . S
C296 C298 1.327 . S
C296 H321 0.950 . S
C297 C296 1.349 . S
C297 C313 1.349 . S
C298 C296 1.327 . S
C298 C317 1.429 . S
C298 H322 0.950 . S
C299 C316 1.574 . S
C299 C318 1.368 . S
C299 H323 0.949 . S
H300 C304 0.949 . S
C301 C302 1.349 . S
C301 C303 1.327 . S
C301 H324 0.950 . S
C302 C301 1.349 . S
C302 C314 1.349 . S
C303 C301 1.327 . S
C303 C319 1.429 . S
C303 H325 0.950 . S
C304 H300 0.949 . S
C304 C312 1.574 . S
C304 C320 1.368 . S
H305 C313 0.950 . S
H306 C311 0.950 . S
H307 C312 0.949 . S
H308 C314 0.950 . S
H309 C315 0.950 . S
H310 C316 0.949 . S
C311 H306 0.950 . S
C311 C313 1.327 . S
C311 C317 1.429 . S
C312 C304 1.574 . S
C312 H307 0.949 . S
C312 C318 1.368 . S
C313 C297 1.349 . S
C313 H305 0.950 . S
C313 C311 1.327 . S
C314 C302 1.349 . S
C314 H308 0.950 . S
C314 C315 1.327 . S
C315 H309 0.950 . S
C315 C314 1.327 . S
C315 C319 1.429 . S
C316 C299 1.574 . S
C316 H310 0.949 . S
C316 C320 1.368 . S
C317 C298 1.429 . S
C317 C311 1.429 . S
C317 C318 1.523 1_455 S
C318 C299 1.368 . S
C318 C312 1.368 . S
C318 C317 1.523 1_655 S
C319 C303 1.429 . S
C319 C315 1.429 . S
C319 C320 1.523 . S
C320 C304 1.368 . S
C320 C316 1.368 . S
C320 C319 1.523 . S
H321 C296 0.950 . S
H322 C298 0.950 . S
H323 C299 0.949 . S
H324 C301 0.950 . S
H325 C303 0.950 . S
C326 C327 1.349 . S
C326 C328 1.327 . S
C326 H351 0.950 . S
C327 C326 1.349 . S
C327 C343 1.349 . S
C328 C326 1.327 . S
C328 C347 1.429 . S
C328 H352 0.950 . S
C329 C346 1.574 . S
C329 C348 1.368 . S
C329 H353 0.949 . S
H330 C334 0.949 . S
C331 C332 1.349 . S
C331 C333 1.327 . S
C331 H354 0.950 . S
C332 C331 1.349 . S
C332 C344 1.349 . S
C333 C331 1.327 . S
C333 C349 1.429 . S
C333 H355 0.950 . S
C334 H330 0.949 . S
C334 C342 1.574 . S
C334 C350 1.368 . S
H335 C343 0.950 . S
H336 C341 0.950 . S
H337 C342 0.949 . S
H338 C344 0.950 . S
H339 C345 0.950 . S
H340 C346 0.949 . S
C341 H336 0.950 . S
C341 C343 1.327 . S
C341 C347 1.429 . S
C342 C334 1.574 . S
C342 H337 0.949 . S
C342 C348 1.368 . S
C343 C327 1.349 . S
C343 H335 0.950 . S
C343 C341 1.327 . S
C344 C332 1.349 . S
C344 H338 0.950 . S
C344 C345 1.327 . S
C345 H339 0.950 . S
C345 C344 1.327 . S
C345 C349 1.429 . S
C346 C329 1.574 . S
C346 H340 0.949 . S
C346 C350 1.368 . S
C347 C328 1.429 . S
C347 C341 1.429 . S
C347 C348 1.523 . S
C348 C329 1.368 . S
C348 C342 1.368 . S
C348 C347 1.523 . S
C349 C333 1.429 . S
C349 C345 1.429 . S
C349 C350 1.523 . S
C350 C334 1.368 . S
C350 C346 1.368 . S
C350 C349 1.523 . S
H351 C326 0.950 . S
H352 C328 0.950 . S
H353 C329 0.949 . S
H354 C331 0.950 . S
H355 C333 0.950 . S
C356 C357 1.349 . S
C356 C358 1.338 . S
C356 H381 0.950 . S
C357 C356 1.349 . S
C357 C373 1.349 . S
C358 C356 1.338 . S
C358 C377 1.427 . S
C358 H382 0.940 1_655 S
C359 C376 1.574 . S
C359 C378 1.368 . S
C359 H383 0.949 1_455 S
H360 C364 0.949 . S
C361 C362 1.349 . S
C361 C363 1.327 . S
C361 H384 0.950 . S
C362 C361 1.349 . S
C362 C374 1.349 . S
C363 C361 1.327 . S
C363 C379 1.429 . S
C363 H385 0.950 . S
C364 H360 0.949 . S
C364 C372 1.574 . S
C364 C380 1.368 . S
H365 C373 0.950 . S
H366 C371 0.950 . S
H367 C372 0.949 . S
H368 C374 0.950 . S
H369 C375 0.950 . S
H370 C376 0.949 . S
C371 H366 0.950 . S
C371 C373 1.327 . S
C371 C377 1.429 . S
C372 C364 1.574 . S
C372 H367 0.949 . S
C372 C378 1.368 . S
C373 C357 1.349 . S
C373 H365 0.950 . S
C373 C371 1.327 . S
C374 C362 1.349 . S
C374 H368 0.950 . S
C374 C375 1.327 . S
C375 H369 0.950 . S
C375 C374 1.327 . S
C375 C379 1.429 . S
C376 C359 1.574 . S
C376 H370 0.949 . S
C376 C380 1.368 . S
C377 C358 1.427 . S
C377 C371 1.429 . S
C377 C378 1.523 1_655 S
C378 C359 1.368 . S
C378 C372 1.368 . S
C378 C377 1.523 1_455 S
C379 C363 1.429 . S
C379 C375 1.429 . S
C379 C380 1.523 . S
C380 C364 1.368 . S
C380 C376 1.368 . S
C380 C379 1.523 . S
H381 C356 0.950 . S
H382 C358 0.940 1_455 S
H383 C359 0.949 1_655 S
H384 C361 0.950 . S
H385 C363 0.950 . S
C386 C387 1.349 . S
C386 C388 1.327 . S
C386 H411 0.950 . S
C387 C386 1.349 . S
C387 C403 1.349 . S
C388 C386 1.327 . S
C388 C407 1.429 . S
C388 H412 0.950 . S
C389 C406 1.574 . S
C389 C408 1.368 . S
C389 H413 0.949 . S
H390 C394 0.949 . S
C391 C392 1.349 . S
C391 C393 1.327 . S
C391 H414 0.950 . S
C392 C391 1.349 . S
C392 C404 1.349 . S
C393 C391 1.327 . S
C393 C409 1.429 . S
C393 H415 0.950 . S
C394 H390 0.949 . S
C394 C402 1.574 . S
C394 C410 1.368 . S
H395 C403 0.950 . S
H396 C401 0.950 . S
H397 C402 0.949 . S
H398 C404 0.950 . S
H399 C405 0.950 . S
H400 C406 0.949 . S
C401 H396 0.950 . S
C401 C403 1.327 . S
C401 C407 1.429 . S
C402 C394 1.574 . S
C402 H397 0.949 . S
C402 C408 1.368 . S
C403 C387 1.349 . S
C403 H395 0.950 . S
C403 C401 1.327 . S
C404 C392 1.349 . S
C404 H398 0.950 . S
C404 C405 1.327 . S
C405 H399 0.950 . S
C405 C404 1.327 . S
C405 C409 1.429 . S
C406 C389 1.574 . S
C406 H400 0.949 . S
C406 C410 1.368 . S
C407 C388 1.429 . S
C407 C401 1.429 . S
C407 C408 1.523 . S
C408 C389 1.368 . S
C408 C402 1.368 . S
C408 C407 1.523 . S
C409 C393 1.429 . S
C409 C405 1.429 . S
C409 C410 1.523 . S
C410 C394 1.368 . S
C410 C406 1.368 . S
C410 C409 1.523 . S
H411 C386 0.950 . S
H412 C388 0.950 . S
H413 C389 0.949 . S
H414 C391 0.950 . S
H415 C393 0.950 . S
C416 C417 1.349 . S
C416 C418 1.327 . S
C416 H441 0.950 . S
C417 C416 1.349 . S
C417 C433 1.349 . S
C418 C416 1.327 . S
C418 C437 1.429 . S
C418 H442 0.950 . S
C419 C436 1.574 1_544 S
C419 C438 1.368 . S
C419 H443 0.949 . S
H420 C424 0.949 . S
C421 C422 1.349 . S
C421 C423 1.327 . S
C421 H444 0.950 . S
C422 C421 1.349 . S
C422 C434 1.349 . S
C423 C421 1.327 . S
C423 C439 1.429 . S
C423 H445 0.950 . S
C424 H420 0.949 . S
C424 C432 1.574 1_566 S
C424 C440 1.368 . S
H425 C433 0.950 . S
H426 C431 0.950 . S
H427 C432 0.949 . S
H428 C434 0.950 . S
H429 C435 0.950 . S
H430 C436 0.949 . S
C431 H426 0.950 . S
C431 C433 1.327 . S
C431 C437 1.429 . S
C432 C424 1.574 1_544 S
C432 H427 0.949 . S
C432 C438 1.368 1_655 S
C433 C417 1.349 . S
C433 H425 0.950 . S
C433 C431 1.327 . S
C434 C422 1.349 . S
C434 H428 0.950 . S
C434 C435 1.327 . S
C435 H429 0.950 . S
C435 C434 1.327 . S
C435 C439 1.429 . S
C436 C419 1.574 1_566 S
C436 H430 0.949 . S
C436 C440 1.368 1_455 S
C437 C418 1.429 . S
C437 C431 1.429 . S
C437 C438 1.523 . S
C438 C419 1.368 . S
C438 C432 1.368 1_455 S
C438 C437 1.523 . S
C439 C423 1.429 . S
C439 C435 1.429 . S
C439 C440 1.523 . S
C440 C424 1.368 . S
C440 C436 1.368 1_655 S
C440 C439 1.523 . S
H441 C416 0.950 . S
H442 C418 0.950 . S
H443 C419 0.949 . S
H444 C421 0.950 . S
H445 C423 0.950 . S
C446 C447 1.349 . S
C446 C448 1.327 . S
C446 H471 0.950 . S
C447 C446 1.349 . S
C447 C463 1.349 . S
C448 C446 1.327 . S
C448 C467 1.429 . S
C448 H472 0.950 . S
C449 C466 1.574 1_554 S
C449 C468 1.368 1_545 S
C449 H473 0.949 . S
H450 C454 0.949 . S
C451 C452 1.349 . S
C451 C453 1.327 . S
C451 H474 0.950 . S
C452 C451 1.349 . S
C452 C464 1.349 . S
C453 C451 1.327 . S
C453 C469 1.429 . S
C453 H475 0.950 . S
C454 H450 0.949 . S
C454 C462 1.574 1_556 S
C454 C470 1.368 1_565 S
H455 C463 0.950 . S
H456 C461 0.950 . S
H457 C462 0.949 . S
H458 C464 0.950 . S
H459 C465 0.950 . S
H460 C466 0.949 . S
C461 H456 0.950 . S
C461 C463 1.327 . S
C461 C467 1.429 . S
C462 C454 1.574 1_554 S
C462 H457 0.949 . S
C462 C468 1.368 . S
C463 C447 1.349 . S
C463 H455 0.950 . S
C463 C461 1.327 . S
C464 C452 1.349 . S
C464 H458 0.950 . S
C464 C465 1.327 . S
C465 H459 0.950 . S
C465 C464 1.327 . S
C465 C469 1.429 . S
C466 C449 1.574 1_556 S
C466 H460 0.949 . S
C466 C470 1.368 . S
C467 C448 1.429 . S
C467 C461 1.429 . S
C467 C468 1.523 . S
C468 C449 1.368 1_565 S
C468 C462 1.368 . S
C468 C467 1.523 . S
C469 C453 1.429 . S
C469 C465 1.429 . S
C469 C470 1.523 . S
C470 C454 1.368 1_545 S
C470 C466 1.368 . S
C470 C469 1.523 . S
H471 C446 0.950 . S
H472 C448 0.950 . S
H473 C449 0.949 . S
H474 C451 0.950 . S
H475 C453 0.950 . S
C476 C477 1.349 . S
C476 C478 1.327 . S
C476 H501 0.950 . S
C477 C476 1.349 . S
C477 C493 1.349 . S
C478 C476 1.327 . S
C478 C497 1.429 . S
C478 H502 0.950 . S
C479 C496 1.574 . S
C479 C498 1.368 . S
C479 H503 0.949 . S
H480 C484 0.949 . S
C481 C482 1.349 . S
C481 C483 1.327 . S
C481 H504 0.950 . S
C482 C481 1.349 . S
C482 C494 1.349 . S
C483 C481 1.327 . S
C483 C499 1.429 . S
C483 H505 0.950 . S
C484 H480 0.949 . S
C484 C492 1.574 . S
C484 C500 1.368 . S
H485 C493 0.950 . S
H486 C491 0.950 . S
H487 C492 0.949 . S
H488 C494 0.950 . S
H489 C495 0.950 . S
H490 C496 0.949 . S
C491 H486 0.950 . S
C491 C493 1.327 . S
C491 C497 1.429 . S
C492 C484 1.574 . S
C492 H487 0.949 . S
C492 C498 1.368 . S
C493 C477 1.349 . S
C493 H485 0.950 . S
C493 C491 1.327 . S
C494 C482 1.349 . S
C494 H488 0.950 . S
C494 C495 1.327 . S
C495 H489 0.950 . S
C495 C494 1.327 . S
C495 C499 1.429 . S
C496 C479 1.574 . S
C496 H490 0.949 . S
C496 C500 1.368 . S
C497 C478 1.429 . S
C497 C491 1.429 . S
C497 C498 1.523 . S
C498 C479 1.368 . S
C498 C492 1.368 . S
C498 C497 1.523 . S
C499 C483 1.429 . S
C499 C495 1.429 . S
C499 C500 1.523 . S
C500 C484 1.368 . S
C500 C496 1.368 . S
C500 C499 1.523 . S
H501 C476 0.950 . S
H502 C478 0.950 . S
H503 C479 0.949 . S
H504 C481 0.950 . S
H505 C483 0.950 . S
C506 C507 1.349 . S
C506 C508 1.327 . S
C506 H531 0.950 . S
C507 C506 1.349 . S
C507 C523 1.349 . S
C508 C506 1.327 . S
C508 C527 1.429 . S
C508 H532 0.950 . S
C509 C526 1.574 . S
C509 C528 1.368 1_655 S
C509 H533 0.949 . S
H510 C514 0.949 . S
C511 C512 1.349 . S
C511 C513 1.327 . S
C511 H534 0.950 . S
C512 C511 1.349 . S
C512 C524 1.349 . S
C513 C511 1.327 . S
C513 C529 1.429 . S
C513 H535 0.950 . S
C514 H510 0.949 . S
C514 C522 1.574 . S
C514 C530 1.368 1_455 S
H515 C523 0.950 . S
H516 C521 0.950 . S
H517 C522 0.949 . S
H518 C524 0.950 . S
H519 C525 0.950 . S
H520 C526 0.949 . S
C521 H516 0.950 . S
C521 C523 1.327 . S
C521 C527 1.429 . S
C522 C514 1.574 . S
C522 H517 0.949 . S
C522 C528 1.368 . S
C523 C507 1.349 . S
C523 H515 0.950 . S
C523 C521 1.327 . S
C524 C512 1.349 . S
C524 H518 0.950 . S
C524 C525 1.327 . S
C525 H519 0.950 . S
C525 C524 1.327 . S
C525 C529 1.429 . S
C526 C509 1.574 . S
C526 H520 0.949 . S
C526 C530 1.368 . S
C527 C508 1.429 . S
C527 C521 1.429 . S
C527 C528 1.523 . S
C528 C509 1.368 1_455 S
C528 C522 1.368 . S
C528 C527 1.523 . S
C529 C513 1.429 . S
C529 C525 1.429 . S
C529 C530 1.523 . S
C530 C514 1.368 1_655 S
C530 C526 1.368 . S
C530 C529 1.523 . S
H531 C506 0.950 . S
H532 C508 0.950 . S
H533 C509 0.949 . S
H534 C511 0.950 . S
H535 C513 0.950 . S
C536 C537 1.349 . S
C536 C538 1.327 . S
C536 H561 0.950 . S
C537 C536 1.349 . S
C537 C553 1.349 . S
C538 C536 1.327 . S
C538 C557 1.429 . S
C538 H562 0.950 . S
C539 C556 1.574 1_556 S
C539 C558 1.368 . S
C539 H563 0.949 . S
H540 C544 0.949 . S
C541 C542 1.349 . S
C541 C543 1.327 . S
C541 H564 0.950 . S
C542 C541 1.349 . S
C542 C554 1.349 . S
C543 C541 1.327 . S
C543 C559 1.429 . S
C543 H565 0.950 . S
C544 H540 0.949 . S
C544 C552 1.574 1_554 S
C544 C560 1.368 . S
H545 C553 0.950 . S
H546 C551 0.950 . S
H547 C552 0.949 . S
H548 C554 0.950 . S
H549 C555 0.950 . S
H550 C556 0.949 . S
C551 H546 0.950 . S
C551 C553 1.327 . S
C551 C557 1.429 . S
C552 C544 1.574 1_556 S
C552 H547 0.949 . S
C552 C558 1.368 . S
C553 C537 1.349 . S
C553 H545 0.950 . S
C553 C551 1.327 . S
C554 C542 1.349 . S
C554 H548 0.950 . S
C554 C555 1.327 . S
C555 H549 0.950 . S
C555 C554 1.327 . S
C555 C559 1.429 . S
C556 C539 1.574 1_554 S
C556 H550 0.949 . S
C556 C560 1.368 . S
C557 C538 1.429 . S
C557 C551 1.429 . S
C557 C558 1.523 . S
C558 C539 1.368 . S
C558 C552 1.368 . S
C558 C557 1.523 . S
C559 C543 1.429 . S
C559 C555 1.429 . S
C559 C560 1.523 . S
C560 C544 1.368 . S
C560 C556 1.368 . S
C560 C559 1.523 . S
H561 C536 0.950 . S
H562 C538 0.950 . S
H563 C539 0.949 . S
H564 C541 0.950 . S
H565 C543 0.950 . S
C566 C567 1.349 . S
C566 C568 1.327 . S
C566 H591 0.950 . S
C567 C566 1.349 . S
C567 C583 1.349 . S
C568 C566 1.327 . S
C568 C587 1.429 . S
C568 H592 0.950 . S
C569 C586 1.574 1_556 S
C569 C588 1.368 . S
C569 H593 0.949 . S
H570 C574 0.949 . S
C571 C572 1.349 . S
C571 C573 1.327 . S
C571 H594 0.950 . S
C572 C571 1.349 . S
C572 C584 1.349 . S
C573 C571 1.327 . S
C573 C589 1.429 . S
C573 H595 0.950 . S
C574 H570 0.949 . S
C574 C582 1.574 1_554 S
C574 C590 1.368 . S
H575 C583 0.950 . S
H576 C581 0.950 . S
H577 C582 0.949 . S
H578 C584 0.950 . S
H579 C585 0.950 . S
H580 C586 0.949 . S
C581 H576 0.950 . S
C581 C583 1.327 . S
C581 C587 1.429 . S
C582 C574 1.574 1_556 S
C582 H577 0.949 . S
C582 C588 1.368 . S
C583 C567 1.349 . S
C583 H575 0.950 . S
C583 C581 1.327 . S
C584 C572 1.349 . S
C584 H578 0.950 . S
C584 C585 1.327 . S
C585 H579 0.950 . S
C585 C584 1.327 . S
C585 C589 1.429 . S
C586 C569 1.574 1_554 S
C586 H580 0.949 . S
C586 C590 1.368 . S
C587 C568 1.429 . S
C587 C581 1.429 . S
C587 C588 1.523 . S
C588 C569 1.368 . S
C588 C582 1.368 . S
C588 C587 1.523 . S
C589 C573 1.429 . S
C589 C585 1.429 . S
C589 C590 1.523 . S
C590 C574 1.368 . S
C590 C586 1.368 . S
C590 C589 1.523 . S
H591 C566 0.950 . S
H592 C568 0.950 . S
H593 C569 0.949 . S
H594 C571 0.950 . S
H595 C573 0.950 . S
C596 C597 1.349 . S
C596 C598 1.327 . S
C596 H621 0.950 . S
C597 C596 1.349 . S
C597 C613 1.349 . S
C598 C596 1.327 . S
C598 C617 1.429 . S
C598 H622 0.950 . S
C599 C616 1.574 . S
C599 C618 1.368 . S
C599 H623 0.949 . S
H600 C604 0.949 . S
C601 C602 1.349 . S
C601 C603 1.327 . S
C601 H624 0.950 . S
C602 C601 1.349 . S
C602 C614 1.349 . S
C603 C601 1.327 . S
C603 C619 1.429 . S
C603 H625 0.950 . S
C604 H600 0.949 . S
C604 C612 1.574 . S
C604 C620 1.368 . S
H605 C613 0.950 . S
H606 C611 0.950 . S
H607 C612 0.949 . S
H608 C614 0.950 . S
H609 C615 0.950 . S
H610 C616 0.949 . S
C611 H606 0.950 . S
C611 C613 1.327 . S
C611 C617 1.429 . S
C612 C604 1.574 . S
C612 H607 0.949 . S
C612 C618 1.368 . S
C613 C597 1.349 . S
C613 H605 0.950 . S
C613 C611 1.327 . S
C614 C602 1.349 . S
C614 H608 0.950 . S
C614 C615 1.327 . S
C615 H609 0.950 . S
C615 C614 1.327 . S
C615 C619 1.429 . S
C616 C599 1.574 . S
C616 H610 0.949 . S
C616 C620 1.368 . S
C617 C598 1.429 . S
C617 C611 1.429 . S
C617 C618 1.523 . S
C618 C599 1.368 . S
C618 C612 1.368 . S
C618 C617 1.523 . S
C619 C603 1.429 . S
C619 C615 1.429 . S
C619 C620 1.523 . S
C620 C604 1.368 . S
C620 C616 1.368 . S
C620 C619 1.523 . S
H621 C596 0.950 . S
H622 C598 0.950 . S
H623 C599 0.949 . S
H624 C601 0.950 . S
H625 C603 0.950 . S
C626 C627 1.349 . S
C626 C628 1.327 . S
C626 H651 0.950 . S
C627 C626 1.349 . S
C627 C643 1.349 . S
C628 C626 1.327 . S
C628 C647 1.429 . S
C628 H652 0.950 . S
C629 C646 1.574 . S
C629 C648 1.368 . S
C629 H653 0.949 . S
H630 C634 0.949 . S
C631 C632 1.349 . S
C631 C633 1.327 . S
C631 H654 0.950 . S
C632 C631 1.349 . S
C632 C644 1.349 . S
C633 C631 1.327 . S
C633 C649 1.429 . S
C633 H655 0.950 . S
C634 H630 0.949 . S
C634 C642 1.574 . S
C634 C650 1.368 . S
H635 C643 0.950 . S
H636 C641 0.950 . S
H637 C642 0.949 . S
H638 C644 0.950 . S
H639 C645 0.950 . S
H640 C646 0.949 . S
C641 H636 0.950 . S
C641 C643 1.327 . S
C641 C647 1.429 . S
C642 C634 1.574 . S
C642 H637 0.949 . S
C642 C648 1.368 . S
C643 C627 1.349 . S
C643 H635 0.950 . S
C643 C641 1.327 . S
C644 C632 1.349 . S
C644 H638 0.950 . S
C644 C645 1.327 . S
C645 H639 0.950 . S
C645 C644 1.327 . S
C645 C649 1.429 . S
C646 C629 1.574 . S
C646 H640 0.949 . S
C646 C650 1.368 . S
C647 C628 1.429 . S
C647 C641 1.429 . S
C647 C648 1.523 . S
C648 C629 1.368 . S
C648 C642 1.368 . S
C648 C647 1.523 . S
C649 C633 1.429 . S
C649 C645 1.429 . S
C649 C650 1.523 . S
C650 C634 1.368 . S
C650 C646 1.368 . S
C650 C649 1.523 . S
H651 C626 0.950 . S
H652 C628 0.950 . S
H653 C629 0.949 . S
H654 C631 0.950 . S
H655 C633 0.950 . S
C656 C657 1.349 . S
C656 C658 1.327 . S
C656 H681 0.950 . S
C657 C656 1.349 . S
C657 C673 1.349 . S
C658 C656 1.327 . S
C658 C677 1.429 . S
C658 H682 0.950 . S
C659 C676 1.574 . S
C659 C678 1.368 . S
C659 H683 0.949 . S
H660 C664 0.949 . S
C661 C662 1.349 . S
C661 C663 1.327 . S
C661 H684 0.950 . S
C662 C661 1.349 . S
C662 C674 1.349 . S
C663 C661 1.327 . S
C663 C679 1.429 . S
C663 H685 0.950 . S
C664 H660 0.949 . S
C664 C672 1.574 . S
C664 C680 1.368 . S
H665 C673 0.950 . S
H666 C671 0.950 . S
H667 C672 0.949 . S
H668 C674 0.950 . S
H669 C675 0.950 . S
H670 C676 0.949 . S
C671 H666 0.950 . S
C671 C673 1.327 . S
C671 C677 1.429 . S
C672 C664 1.574 . S
C672 H667 0.949 . S
C672 C678 1.368 . S
C673 C657 1.349 . S
C673 H665 0.950 . S
C673 C671 1.327 . S
C674 C662 1.349 . S
C674 H668 0.950 . S
C674 C675 1.327 . S
C675 H669 0.950 . S
C675 C674 1.327 . S
C675 C679 1.429 . S
C676 C659 1.574 . S
C676 H670 0.949 . S
C676 C680 1.368 . S
C677 C658 1.429 . S
C677 C671 1.429 . S
C677 C678 1.523 . S
C678 C659 1.368 . S
C678 C672 1.368 . S
C678 C677 1.523 . S
C679 C663 1.429 . S
C679 C675 1.429 . S
C679 C680 1.523 . S
C680 C664 1.368 . S
C680 C676 1.368 . S
C680 C679 1.523 . S
H681 C656 0.950 . S
H682 C658 0.950 . S
H683 C659 0.949 . S
H684 C661 0.950 . S
H685 C663 0.950 . S
C686 C687 1.349 . S
C686 C688 1.327 . S
C686 H711 0.950 . S
C687 C686 1.349 . S
C687 C703 1.349 . S
C688 C686 1.327 . S
C688 C707 1.429 . S
C688 H712 0.950 . S
C689 C706 1.574 . S
C689 C708 1.368 . S
C689 H713 0.949 . S
H690 C694 0.949 . S
C691 C692 1.349 . S
C691 C693 1.327 . S
C691 H714 0.950 . S
C692 C691 1.349 . S
C692 C704 1.349 . S
C693 C691 1.327 . S
C693 C709 1.429 . S
C693 H715 0.950 . S
C694 H690 0.949 . S
C694 C702 1.574 . S
C694 C710 1.368 . S
H695 C703 0.950 . S
H696 C701 0.950 . S
H697 C702 0.949 . S
H698 C704 0.950 . S
H699 C705 0.950 . S
H700 C706 0.949 . S
C701 H696 0.950 . S
C701 C703 1.327 . S
C701 C707 1.429 . S
C702 C694 1.574 . S
C702 H697 0.949 . S
C702 C708 1.368 . S
C703 C687 1.349 . S
C703 H695 0.950 . S
C703 C701 1.327 . S
C704 C692 1.349 . S
C704 H698 0.950 . S
C704 C705 1.327 . S
C705 H699 0.950 . S
C705 C704 1.327 . S
C705 C709 1.429 . S
C706 C689 1.574 . S
C706 H700 0.949 . S
C706 C710 1.368 . S
C707 C688 1.429 . S
C707 C701 1.429 . S
C707 C708 1.523 . S
C708 C689 1.368 . S
C708 C702 1.368 . S
C708 C707 1.523 . S
C709 C693 1.429 . S
C709 C705 1.429 . S
C709 C710 1.523 . S
C710 C694 1.368 . S
C710 C706 1.368 . S
C710 C709 1.523 . S
H711 C686 0.950 . S
H712 C688 0.950 . S
H713 C689 0.949 . S
H714 C691 0.950 . S
H715 C693 0.950 . S
C716 C717 1.349 . S
C716 C718 1.327 . S
C716 H741 0.950 . S
C717 C716 1.349 . S
C717 C733 1.349 . S
C718 C716 1.327 . S
C718 C737 1.429 . S
C718 H742 0.950 . S
C719 C736 1.574 1_556 S
C719 C738 1.368 . S
C719 H743 0.949 . S
H720 C724 0.949 . S
C721 C722 1.349 . S
C721 C723 1.327 . S
C721 H744 0.950 . S
C722 C721 1.349 . S
C722 C734 1.349 . S
C723 C721 1.327 . S
C723 C739 1.429 . S
C723 H745 0.950 . S
C724 H720 0.949 . S
C724 C732 1.574 1_554 S
C724 C740 1.368 . S
H725 C733 0.950 . S
H726 C731 0.950 . S
H727 C732 0.949 . S
H728 C734 0.950 . S
H729 C735 0.950 . S
H730 C736 0.949 . S
C731 H726 0.950 . S
C731 C733 1.327 . S
C731 C737 1.429 . S
C732 C724 1.574 1_556 S
C732 H727 0.949 . S
C732 C738 1.368 . S
C733 C717 1.349 . S
C733 H725 0.950 . S
C733 C731 1.327 . S
C734 C722 1.349 . S
C734 H728 0.950 . S
C734 C735 1.327 . S
C735 H729 0.950 . S
C735 C734 1.327 . S
C735 C739 1.429 . S
C736 C719 1.574 1_554 S
C736 H730 0.949 . S
C736 C740 1.368 . S
C737 C718 1.429 . S
C737 C731 1.429 . S
C737 C738 1.523 . S
C738 C719 1.368 . S
C738 C732 1.368 . S
C738 C737 1.523 . S
C739 C723 1.429 . S
C739 C735 1.429 . S
C739 C740 1.523 . S
C740 C724 1.368 . S
C740 C736 1.368 . S
C740 C739 1.523 . S
H741 C716 0.950 . S
H742 C718 0.950 . S
H743 C719 0.949 . S
H744 C721 0.950 . S
H745 C723 0.950 . S
C746 C747 1.349 . S
C746 C748 1.327 . S
C746 H771 0.950 . S
C747 C746 1.349 . S
C747 C763 1.349 . S
C748 C746 1.327 . S
C748 C767 1.429 . S
C748 H772 0.950 . S
C749 C766 1.574 1_556 S
C749 C768 1.368 . S
C749 H773 0.949 . S
H750 C754 0.949 . S
C751 C752 1.349 . S
C751 C753 1.327 . S
C751 H774 0.950 . S
C752 C751 1.349 . S
C752 C764 1.349 . S
C753 C751 1.327 . S
C753 C769 1.429 . S
C753 H775 0.950 . S
C754 H750 0.949 . S
C754 C762 1.574 1_554 S
C754 C770 1.368 . S
H755 C763 0.950 . S
H756 C761 0.950 . S
H757 C762 0.949 . S
H758 C764 0.950 . S
H759 C765 0.950 . S
H760 C766 0.949 . S
C761 H756 0.950 . S
C761 C763 1.327 . S
C761 C767 1.429 . S
C762 C754 1.574 1_556 S
C762 H757 0.949 . S
C762 C768 1.368 . S
C763 C747 1.349 . S
C763 H755 0.950 . S
C763 C761 1.327 . S
C764 C752 1.349 . S
C764 H758 0.950 . S
C764 C765 1.327 . S
C765 H759 0.950 . S
C765 C764 1.327 . S
C765 C769 1.429 . S
C766 C749 1.574 1_554 S
C766 H760 0.949 . S
C766 C770 1.368 . S
C767 C748 1.429 . S
C767 C761 1.429 . S
C767 C768 1.523 . S
C768 C749 1.368 . S
C768 C762 1.368 . S
C768 C767 1.523 . S
C769 C753 1.429 . S
C769 C765 1.429 . S
C769 C770 1.523 . S
C770 C754 1.368 . S
C770 C766 1.368 . S
C770 C769 1.523 . S
H771 C746 0.950 . S
H772 C748 0.950 . S
H773 C749 0.949 . S
H774 C751 0.950 . S
H775 C753 0.950 . S
C776 C777 1.349 . S
C776 C778 1.327 . S
C776 H801 0.950 . S
C777 C776 1.349 . S
C777 C793 1.349 . S
C778 C776 1.327 . S
C778 C797 1.429 . S
C778 H802 0.950 . S
C779 C796 1.574 . S
C779 C798 1.368 . S
C779 H803 0.949 . S
H780 C784 0.949 . S
C781 C782 1.349 . S
C781 C783 1.327 . S
C781 H804 0.950 . S
C782 C781 1.349 . S
C782 C794 1.349 . S
C783 C781 1.327 . S
C783 C799 1.429 . S
C783 H805 0.950 . S
C784 H780 0.949 . S
C784 C792 1.574 . S
C784 C800 1.368 . S
H785 C793 0.950 . S
H786 C791 0.950 . S
H787 C792 0.949 . S
H788 C794 0.950 . S
H789 C795 0.950 . S
H790 C796 0.949 . S
C791 H786 0.950 . S
C791 C793 1.327 . S
C791 C797 1.429 . S
C792 C784 1.574 . S
C792 H787 0.949 . S
C792 C798 1.368 . S
C793 C777 1.349 . S
C793 H785 0.950 . S
C793 C791 1.327 . S
C794 C782 1.349 . S
C794 H788 0.950 . S
C794 C795 1.327 . S
C795 H789 0.950 . S
C795 C794 1.327 . S
C795 C799 1.429 . S
C796 C779 1.574 . S
C796 H790 0.949 . S
C796 C800 1.368 . S
C797 C778 1.429 . S
C797 C791 1.429 . S
C797 C798 1.523 . S
C798 C779 1.368 . S
C798 C792 1.368 . S
C798 C797 1.523 . S
C799 C783 1.429 . S
C799 C795 1.429 . S
C799 C800 1.523 . S
C800 C784 1.368 . S
C800 C796 1.368 . S
C800 C799 1.523 . S
H801 C776 0.950 . S
H802 C778 0.950 . S
H803 C779 0.949 . S
H804 C781 0.950 . S
H805 C783 0.950 . S
C806 C807 1.349 . S
C806 C808 1.327 . S
C806 H831 0.950 . S
C807 C806 1.349 . S
C807 C823 1.349 . S
C808 C806 1.327 . S
C808 C827 1.429 . S
C808 H832 0.950 . S
C809 C826 1.574 . S
C809 C828 1.368 . S
C809 H833 0.949 . S
H810 C814 0.949 . S
C811 C812 1.349 . S
C811 C813 1.327 . S
C811 H834 0.950 . S
C812 C811 1.349 . S
C812 C824 1.349 . S
C813 C811 1.327 . S
C813 C829 1.429 . S
C813 H835 0.950 . S
C814 H810 0.949 . S
C814 C822 1.574 . S
C814 C830 1.368 . S
H815 C823 0.950 . S
H816 C821 0.950 . S
H817 C822 0.949 . S
H818 C824 0.950 . S
H819 C825 0.950 . S
H820 C826 0.949 . S
C821 H816 0.950 . S
C821 C823 1.327 . S
C821 C827 1.429 . S
C822 C814 1.574 . S
C822 H817 0.949 . S
C822 C828 1.368 . S
C823 C807 1.349 . S
C823 H815 0.950 . S
C823 C821 1.327 . S
C824 C812 1.349 . S
C824 H818 0.950 . S
C824 C825 1.327 . S
C825 H819 0.950 . S
C825 C824 1.327 . S
C825 C829 1.429 . S
C826 C809 1.574 . S
C826 H820 0.949 . S
C826 C830 1.368 . S
C827 C808 1.429 . S
C827 C821 1.429 . S
C827 C828 1.523 . S
C828 C809 1.368 . S
C828 C822 1.368 . S
C828 C827 1.523 . S
C829 C813 1.429 . S
C829 C825 1.429 . S
C829 C830 1.523 . S
C830 C814 1.368 . S
C830 C826 1.368 . S
C830 C829 1.523 . S
H831 C806 0.950 . S
H832 C808 0.950 . S
H833 C809 0.949 . S
H834 C811 0.950 . S
H835 C813 0.950 . S
C836 C837 1.349 . S
C836 C838 1.327 . S
C836 H861 0.950 . S
C837 C836 1.349 . S
C837 C853 1.349 . S
C838 C836 1.327 . S
C838 C857 1.429 . S
C838 H862 0.950 . S
C839 C856 1.574 . S
C839 C858 1.368 . S
C839 H863 0.949 . S
H840 C844 0.949 . S
C841 C842 1.349 . S
C841 C843 1.327 . S
C841 H864 0.950 . S
C842 C841 1.349 . S
C842 C854 1.349 . S
C843 C841 1.327 . S
C843 C859 1.429 . S
C843 H865 0.950 . S
C844 H840 0.949 . S
C844 C852 1.574 . S
C844 C860 1.368 . S
H845 C853 0.950 . S
H846 C851 0.950 . S
H847 C852 0.949 . S
H848 C854 0.950 . S
H849 C855 0.950 . S
H850 C856 0.949 . S
C851 H846 0.950 . S
C851 C853 1.327 . S
C851 C857 1.429 . S
C852 C844 1.574 . S
C852 H847 0.949 . S
C852 C858 1.368 . S
C853 C837 1.349 . S
C853 H845 0.950 . S
C853 C851 1.327 . S
C854 C842 1.349 . S
C854 H848 0.950 . S
C854 C855 1.327 . S
C855 H849 0.950 . S
C855 C854 1.327 . S
C855 C859 1.429 . S
C856 C839 1.574 . S
C856 H850 0.949 . S
C856 C860 1.368 . S
C857 C838 1.429 . S
C857 C851 1.429 . S
C857 C858 1.523 . S
C858 C839 1.368 . S
C858 C852 1.368 . S
C858 C857 1.523 . S
C859 C843 1.429 . S
C859 C855 1.429 . S
C859 C860 1.523 . S
C860 C844 1.368 . S
C860 C856 1.368 . S
C860 C859 1.523 . S
H861 C836 0.950 . S
H862 C838 0.950 . S
H863 C839 0.949 . S
H864 C841 0.950 . S
H865 C843 0.950 . S
C866 C867 1.349 . S
C866 C868 1.327 . S
C866 H891 0.950 . S
C867 C866 1.349 . S
C867 C883 1.349 . S
C868 C866 1.327 . S
C868 C887 1.429 . S
C868 H892 0.950 . S
C869 C886 1.574 . S
C869 C888 1.368 . S
C869 H893 0.949 . S
H870 C874 0.949 . S
C871 C872 1.349 . S
C871 C873 1.327 . S
C871 H894 0.950 . S
C872 C871 1.349 . S
C872 C884 1.349 . S
C873 C871 1.327 . S
C873 C889 1.429 . S
C873 H895 0.950 . S
C874 H870 0.949 . S
C874 C882 1.574 . S
C874 C890 1.368 . S
H875 C883 0.950 . S
H876 C881 0.950 . S
H877 C882 0.949 . S
H878 C884 0.950 . S
H879 C885 0.950 . S
H880 C886 0.949 . S
C881 H876 0.950 . S
C881 C883 1.327 . S
C881 C887 1.429 . S
C882 C874 1.574 . S
C882 H877 0.949 . S
C882 C888 1.368 . S
C883 C867 1.349 . S
C883 H875 0.950 . S
C883 C881 1.327 . S
C884 C872 1.349 . S
C884 H878 0.950 . S
C884 C885 1.327 . S
C885 H879 0.950 . S
C885 C884 1.327 . S
C885 C889 1.429 . S
C886 C869 1.574 . S
C886 H880 0.949 . S
C886 C890 1.368 . S
C887 C868 1.429 . S
C887 C881 1.429 . S
C887 C888 1.523 . S
C888 C869 1.368 . S
C888 C882 1.368 . S
C888 C887 1.523 . S
C889 C873 1.429 . S
C889 C885 1.429 . S
C889 C890 1.523 . S
C890 C874 1.368 . S
C890 C886 1.368 . S
C890 C889 1.523 . S
H891 C866 0.950 . S
H892 C868 0.950 . S
H893 C869 0.949 . S
H894 C871 0.950 . S
H895 C873 0.950 . S
C177 C73 1.133 . S
C182 C4 1.219 . S
C207 C50 1.133 . S
C212 C30 1.219 . S
C237 C52 1.219 . S
C242 C27 1.133 . S
C267 C70 1.219 . S
C272 C9 1.133 . S
C297 C161 1.133 . S
C302 C92 1.219 . S
C327 C118 1.219 . S
C332 C138 1.133 . S
C357 C115 1.133 . S
C362 C140 1.219 . S
C387 C97 1.133 . S
C392 C158 1.219 . S
C417 C6 0.794 . S
C422 C53 0.794 . S
C447 C71 0.794 . S
C452 C29 0.794 . S
C477 C94 0.794 . S
C482 C141 0.794 . S
C507 C159 0.794 . S
C512 C117 0.794 . S
C537 C31 0.948 . S
C542 C5 0.948 . S
C567 C51 0.948 . S
C572 C72 0.948 . S
C597 C119 0.948 . S
C602 C93 0.948 . S
C627 C160 0.948 . S
C632 C139 0.948 . S
C657 C8 1.693 . S
C662 C26 1.693 . S
C687 C48 1.693 . S
C692 C74 1.693 . S
C717 C96 1.693 . S
C722 C114 1.693 . S
C747 C162 1.693 . S
C752 C136 1.693 . S
C777 C7 1.594 . S
C782 C137 1.594 . S
C807 C28 1.594 . S
C812 C163 1.594 . S
C837 C95 1.594 . S
C842 C49 1.594 . S
C867 C116 1.594 . S
C872 C75 1.594 . S
