# Generated by pormake.
# Topology wjd, (6)-cn, num edge types: 1
# Building blocks:
#     Node 0, Type 0, BuildingBlock: CUKXOW_clean_sbu_0, # of connection points: 6
#     Node 1, Type 0, BuildingBlock: CUKXOW_clean_sbu_0, # of connection points: 6
#     Node 2, Type 0, BuildingBlock: CUKXOW_clean_sbu_0, # of connection points: 6
#     Node 3, Type 0, BuildingBlock: CUKXOW_clean_sbu_0, # of connection points: 6
#     Node 4, Type 0, BuildingBlock: CUKXOW_clean_sbu_0, # of connection points: 6
#     Node 5, Type 0, BuildingBlock: CUKXOW_clean_sbu_0, # of connection points: 6
#     Node 6, Type 0, BuildingBlock: CUKXOW_clean_sbu_0, # of connection points: 6
#     Node 7, Type 0, BuildingBlock: CUKXOW_clean_sbu_0, # of connection points: 6
#     Node 8, Type 0, BuildingBlock: CUKXOW_clean_sbu_0, # of connection points: 6
#     Node 9, Type 0, BuildingBlock: CUKXOW_clean_sbu_0, # of connection points: 6
#     Node 10, Type 0, BuildingBlock: CUKXOW_clean_sbu_0, # of connection points: 6
#     Node 11, Type 0, BuildingBlock: CUKXOW_clean_sbu_0, # of connection points: 6
#     Edge 12, Type (0, 0), BuildingBlock: EZIPEK_clean_linker_0, # of connection points: 2
#     Edge 13, Type (0, 0), BuildingBlock: EZIPEK_clean_linker_0, # of connection points: 2
#     Edge 14, Type (0, 0), BuildingBlock: EZIPEK_clean_linker_0, # of connection points: 2
#     Edge 15, Type (0, 0), BuildingBlock: EZIPEK_clean_linker_0, # of connection points: 2
#     Edge 16, Type (0, 0), BuildingBlock: EZIPEK_clean_linker_0, # of connection points: 2
#     Edge 17, Type (0, 0), BuildingBlock: EZIPEK_clean_linker_0, # of connection points: 2
#     Edge 18, Type (0, 0), BuildingBlock: EZIPEK_clean_linker_0, # of connection points: 2
#     Edge 19, Type (0, 0), BuildingBlock: EZIPEK_clean_linker_0, # of connection points: 2
#     Edge 20, Type (0, 0), BuildingBlock: EZIPEK_clean_linker_0, # of connection points: 2
#     Edge 21, Type (0, 0), BuildingBlock: EZIPEK_clean_linker_0, # of connection points: 2
#     Edge 22, Type (0, 0), BuildingBlock: EZIPEK_clean_linker_0, # of connection points: 2
#     Edge 23, Type (0, 0), BuildingBlock: EZIPEK_clean_linker_0, # of connection points: 2
#     Edge 24, Type (0, 0), BuildingBlock: EZIPEK_clean_linker_0, # of connection points: 2
#     Edge 25, Type (0, 0), BuildingBlock: EZIPEK_clean_linker_0, # of connection points: 2
#     Edge 26, Type (0, 0), BuildingBlock: EZIPEK_clean_linker_0, # of connection points: 2
#     Edge 27, Type (0, 0), BuildingBlock: EZIPEK_clean_linker_0, # of connection points: 2
#     Edge 28, Type (0, 0), BuildingBlock: EZIPEK_clean_linker_0, # of connection points: 2
#     Edge 29, Type (0, 0), BuildingBlock: EZIPEK_clean_linker_0, # of connection points: 2
#     Edge 30, Type (0, 0), BuildingBlock: EZIPEK_clean_linker_0, # of connection points: 2
#     Edge 31, Type (0, 0), BuildingBlock: EZIPEK_clean_linker_0, # of connection points: 2
#     Edge 32, Type (0, 0), BuildingBlock: EZIPEK_clean_linker_0, # of connection points: 2
#     Edge 33, Type (0, 0), BuildingBlock: EZIPEK_clean_linker_0, # of connection points: 2
#     Edge 34, Type (0, 0), BuildingBlock: EZIPEK_clean_linker_0, # of connection points: 2
#     Edge 35, Type (0, 0), BuildingBlock: EZIPEK_clean_linker_0, # of connection points: 2
#     Edge 36, Type (0, 0), BuildingBlock: EZIPEK_clean_linker_0, # of connection points: 2
#     Edge 37, Type (0, 0), BuildingBlock: EZIPEK_clean_linker_0, # of connection points: 2
#     Edge 38, Type (0, 0), BuildingBlock: EZIPEK_clean_linker_0, # of connection points: 2
#     Edge 39, Type (0, 0), BuildingBlock: EZIPEK_clean_linker_0, # of connection points: 2
#     Edge 40, Type (0, 0), BuildingBlock: EZIPEK_clean_linker_0, # of connection points: 2
#     Edge 41, Type (0, 0), BuildingBlock: EZIPEK_clean_linker_0, # of connection points: 2
#     Edge 42, Type (0, 0), BuildingBlock: EZIPEK_clean_linker_0, # of connection points: 2
#     Edge 43, Type (0, 0), BuildingBlock: EZIPEK_clean_linker_0, # of connection points: 2
#     Edge 44, Type (0, 0), BuildingBlock: EZIPEK_clean_linker_0, # of connection points: 2
#     Edge 45, Type (0, 0), BuildingBlock: EZIPEK_clean_linker_0, # of connection points: 2
#     Edge 46, Type (0, 0), BuildingBlock: EZIPEK_clean_linker_0, # of connection points: 2
#     Edge 47, Type (0, 0), BuildingBlock: EZIPEK_clean_linker_0, # of connection points: 2
# Relax obj value: 0.061
# Max RMSD: 0.162
# Mean RMSD: 0.162
data_MOF--net-wjd--node1-CUKXOW_clean_sbu_0--edge1-EZIPEK_clean_linker_0
_symmetry_space_group_name_H-M    P1
_symmetry_Int_Tables_number       1
_symmetry_cell_setting            triclinic
loop_
_symmetry_equiv_pos_as_xyz
'x, y, z'
_cell_length_a     24.022291
_cell_length_b     23.877612
_cell_length_c     41.952814
_cell_angle_alpha  90.255443
_cell_angle_beta   89.594816
_cell_angle_gamma 120.11719
loop_
_atom_site_label
_atom_site_type_symbol
_atom_site_fract_x
_atom_site_fract_y
_atom_site_fract_z
_atom_type_partial_charge
Tb0 Tb 0.40859 0.13553 0.12984 0.0
C1 C 0.32399 0.10234 0.06623 0.0
Tb2 Tb 0.30156 0.17456 0.12542 0.0
O3 O 0.3422 0.04233 0.15318 0.0
O4 O 0.30808 0.09013 0.12616 0.0
O5 O 0.3752 0.10594 0.08068 0.0
C6 C 0.19802 0.18334 0.13202 0.0
O7 O 0.28829 0.12525 0.07919 0.0
C8 C 0.41806 0.27597 0.11909 0.0
C9 C 0.36524 0.17626 0.19183 0.0
O10 O 0.23304 0.19899 0.10629 0.0
O11 O 0.219 0.1595 0.15335 0.0
O12 O 0.36615 0.27951 0.11806 0.0
O13 O 0.40058 0.21763 0.12327 0.0
O14 O 0.3134 0.16805 0.17662 0.0
O15 O 0.41488 0.17785 0.17679 0.0
C16 C 0.52509 0.15177 0.12071 0.0
O17 O 0.50499 0.18875 0.10945 0.0
O18 O 0.47937 0.10498 0.13712 0.0
C19 C 0.29054 0.04378 0.14514 0.0
Tb20 Tb 0.89351 0.74505 0.38474 0.0
C21 C 0.84116 0.66929 0.32006 0.0
Tb22 Tb 0.75253 0.6358 0.38116 0.0
O23 O 0.92782 0.67618 0.3815 0.0
O24 O 0.83862 0.64653 0.40187 0.0
O25 O 0.88411 0.72445 0.33365 0.0
C26 C 0.64471 0.51902 0.38531 0.0
O27 O 0.79047 0.62364 0.3356 0.0
C28 C 0.76909 0.75141 0.36597 0.0
C29 C 0.79327 0.73261 0.43893 0.0
O30 O 0.66802 0.55308 0.35948 0.0
O31 O 0.68223 0.55111 0.40874 0.0
O32 O 0.71424 0.70111 0.37357 0.0
O33 O 0.80831 0.73111 0.36345 0.0
O34 O 0.7522 0.67358 0.42849 0.0
O35 O 0.84937 0.77106 0.42438 0.0
C36 C 1.01341 0.84763 0.38536 0.0
O37 O 0.98407 0.8101 0.40954 0.0
O38 O 0.97359 0.82932 0.36169 0.0
C39 C 0.87576 0.62674 0.39189 0.0
Tb40 Tb 0.9101 0.27521 0.11799 0.0
C41 C 0.92335 0.21086 0.05297 0.0
Tb42 Tb 0.85217 0.12292 0.11544 0.0
O43 O 0.99854 0.28894 0.14093 0.0
O44 O 0.94236 0.20843 0.11342 0.0
O45 O 0.9317 0.26374 0.0683 0.0
C46 C 0.83031 1.00256 0.1215 0.0
O47 O 0.89439 0.15216 0.06663 0.0
C48 C 0.7618 0.15459 0.11278 0.0
C49 C 0.8697 0.19724 0.18149 0.0
O50 O 0.82566 0.02825 0.09507 0.0
O51 O 0.84801 0.04485 0.14435 0.0
O52 O 0.74965 0.09535 0.11238 0.0
O53 O 0.82148 0.18969 0.11434 0.0
O54 O 0.87264 0.14945 0.16638 0.0
O55 O 0.86931 0.24522 0.1657 0.0
C56 C 0.91188 0.38619 0.10821 0.0
O57 O 0.95613 0.38069 0.1232 0.0
O58 O 0.86696 0.32949 0.09895 0.0
C59 C 0.98877 0.232 0.13234 0.0
Tb60 Tb 0.28817 0.17202 0.39602 0.0
C61 C 0.35453 0.17207 0.33101 0.0
Tb62 Tb 0.39708 0.13765 0.39427 0.0
O63 O 0.35583 0.27216 0.38357 0.0
O64 O 0.38793 0.2186 0.40783 0.0
O65 O 0.29979 0.15906 0.34525 0.0
C66 C 0.51394 0.14929 0.40027 0.0
O67 O 0.40478 0.17981 0.34743 0.0
C68 C 0.28165 0.04572 0.37495 0.0
C69 C 0.31084 0.10651 0.45732 0.0
O70 O 0.50232 0.1967 0.39874 0.0
O71 O 0.45954 0.09501 0.3987 0.0
O72 O 0.33513 0.04806 0.36652 0.0
O73 O 0.29586 0.08864 0.39563 0.0
O74 O 0.36288 0.11011 0.44347 0.0
O75 O 0.27617 0.1298 0.44394 0.0
C76 C 0.18395 0.18429 0.39422 0.0
O77 O 0.23405 0.218 0.41207 0.0
O78 O 0.19091 0.14061 0.37898 0.0
C79 C 0.40632 0.27191 0.39377 0.0
Tb80 Tb 0.77185 0.62699 0.11873 0.0
C81 C 0.82032 0.72404 0.05991 0.0
Tb82 Tb 0.9112 0.73715 0.11781 0.0
O83 O 0.72754 0.68739 0.12185 0.0
O84 O 0.8222 0.723 0.13512 0.0
O85 O 0.77601 0.66677 0.07144 0.0
C86 C 0.02853 0.84194 0.12172 0.0
O87 O 0.87674 0.75991 0.07413 0.0
C88 C 0.89558 0.61939 0.11307 0.0
C89 C 0.85161 0.66592 0.18243 0.0
O90 O 1.00767 0.80132 0.09803 0.0
O91 O 0.98195 0.82541 0.14202 0.0
O92 O 0.94513 0.66883 0.12531 0.0
O93 O 0.86023 0.63864 0.10077 0.0
O94 O 0.89473 0.72102 0.16895 0.0
O95 O 0.80517 0.61809 0.16595 0.0
C96 C 0.66418 0.51176 0.11728 0.0
O97 O 0.68704 0.54909 0.14202 0.0
O98 O 0.70259 0.53895 0.0932 0.0
C99 C 0.78126 0.73954 0.12849 0.0
Tb100 Tb 0.8559 0.14037 0.39012 0.0
C101 C 0.86893 0.20606 0.32152 0.0
Tb102 Tb 0.89781 0.2842 0.3848 0.0
O103 O 0.77125 0.12403 0.41722 0.0
O104 O 0.8089 0.19471 0.38193 0.0
O105 O 0.87055 0.15944 0.33822 0.0
C106 C 0.89158 0.39242 0.39283 0.0
O107 O 0.86983 0.25657 0.33544 0.0
C108 C 0.98889 0.25503 0.37436 0.0
C109 C 0.91388 0.22886 0.45197 0.0
O110 O 0.94041 0.38997 0.38089 0.0
O111 O 0.84653 0.33422 0.39989 0.0
O112 O 0.9929 0.30866 0.36459 0.0
O113 O 0.94137 0.22855 0.39265 0.0
O114 O 0.9092 0.27466 0.4362 0.0
O115 O 0.90052 0.17353 0.43741 0.0
C116 C 0.83354 0.01891 0.38275 0.0
O117 O 0.88715 0.06785 0.39264 0.0
O118 O 0.79297 0.0385 0.37756 0.0
C119 C 0.76631 0.17005 0.40358 0.0
Tb120 Tb 0.17679 0.29539 0.61338 0.0
C121 C 0.17913 0.35908 0.68188 0.0
Tb122 Tb 0.13778 0.39919 0.61956 0.0
O123 O 0.25887 0.36254 0.58431 0.0
O124 O 0.22576 0.39751 0.62068 0.0
O125 O 0.17999 0.31122 0.66568 0.0
C126 C 0.14625 0.51448 0.6121 0.0
O127 O 0.17155 0.40448 0.66795 0.0
C128 C 0.04663 0.28131 0.63454 0.0
C129 C 0.10114 0.31367 0.55528 0.0
O130 O 0.10693 0.46893 0.6313 0.0
O131 O 0.18092 0.49507 0.597 0.0
O132 O 0.0455 0.33332 0.64316 0.0
O133 O 0.09162 0.29862 0.61483 0.0
O134 O 0.1072 0.36596 0.57028 0.0
O135 O 0.12518 0.27862 0.56758 0.0
C136 C 0.19603 0.19404 0.61905 0.0
O137 O 0.14112 0.1917 0.62253 0.0
O138 O 0.23921 0.25294 0.61197 0.0
C139 C 0.26704 0.41453 0.59854 0.0
Tb140 Tb 0.2951 0.90122 0.8915 0.0
C141 C 0.24737 0.92962 0.95688 0.0
Tb142 Tb 0.15556 0.86809 0.89758 0.0
O143 O 0.32482 0.99623 0.86907 0.0
O144 O 0.24553 0.95248 0.89846 0.0
O145 O 0.28469 0.91007 0.94323 0.0
C146 C 0.03636 0.85052 0.89311 0.0
O147 O 0.19639 0.92425 0.94151 0.0
C148 C 0.1783 0.77233 0.90948 0.0
C149 C 0.2131 0.86214 0.82985 0.0
O150 O 0.08806 0.89904 0.88119 0.0
O151 O 0.05251 0.81369 0.90821 0.0
O152 O 0.13492 0.78049 0.92379 0.0
O153 O 0.204 0.81529 0.88834 0.0
O154 O 0.1692 0.86989 0.84565 0.0
O155 O 0.26045 0.85961 0.84458 0.0
C156 C 0.4012 0.89223 0.89786 0.0
O157 O 0.39602 0.93296 0.87943 0.0
O158 O 0.34728 0.85754 0.91281 0.0
C159 C 0.2736 0.99701 0.87859 0.0
Tb160 Tb 0.73308 0.90115 0.61512 0.0
C161 C 0.67899 0.83273 0.68381 0.0
Tb162 Tb 0.63581 0.74822 0.62158 0.0
O163 O 0.65918 0.92926 0.60917 0.0
O164 O 0.63575 0.83491 0.61396 0.0
O165 O 0.72271 0.88333 0.66696 0.0
C166 C 0.52154 0.64024 0.61477 0.0
O167 O 0.63507 0.77713 0.67075 0.0
C168 C 0.75875 0.79108 0.63561 0.0
C169 C 0.71207 0.80552 0.55585 0.0
O170 O 0.53096 0.6986 0.61697 0.0
O171 O 0.5767 0.64232 0.61681 0.0
O172 O 0.71083 0.73481 0.64467 0.0
O173 O 0.735 0.81396 0.61661 0.0
O174 O 0.66356 0.7556 0.571 0.0
O175 O 0.74666 0.86473 0.56859 0.0
C176 C 0.83247 0.02105 0.62044 0.0
O177 O 0.80087 0.99552 0.59423 0.0
O178 O 0.80927 0.9786 0.64324 0.0
C179 C 0.61159 0.87044 0.61134 0.0
Tb180 Tb 0.14585 0.4029 0.88432 0.0
C181 C 0.09589 0.30748 0.94242 0.0
Tb182 Tb 0.17701 0.29323 0.88522 0.0
O183 O 0.0413 0.33721 0.88338 0.0
O184 O 0.10191 0.30598 0.86754 0.0
O185 O 0.11926 0.36838 0.93334 0.0
C186 C 0.19511 0.19062 0.88319 0.0
O187 O 0.10922 0.26741 0.92602 0.0
C188 C 0.27829 0.41217 0.89001 0.0
C189 C 0.18774 0.36342 0.82025 0.0
O190 O 0.19242 0.21989 0.90896 0.0
O191 O 0.18436 0.21754 0.85911 0.0
O192 O 0.28036 0.36209 0.88018 0.0
O193 O 0.22289 0.39205 0.90168 0.0
O194 O 0.17612 0.30867 0.83402 0.0
O195 O 0.18645 0.41077 0.83631 0.0
C196 C 0.1575 0.52069 0.89056 0.0
O197 O 0.13327 0.48237 0.86612 0.0
O198 O 0.17536 0.49257 0.91111 0.0
C199 C 0.04356 0.28638 0.87424 0.0
Tb200 Tb 0.13996 0.86267 0.62664 0.0
C201 C 0.20099 0.85778 0.6919 0.0
Tb202 Tb 0.27736 0.89071 0.62599 0.0
O203 O 0.10749 0.76022 0.63505 0.0
O204 O 0.18933 0.81617 0.60792 0.0
O205 O 0.15402 0.86209 0.67785 0.0
C206 C 0.37428 0.86701 0.62434 0.0
O207 O 0.251 0.8621 0.67588 0.0
C208 C 0.26679 0.99499 0.63507 0.0
C209 C 0.23049 0.93198 0.56686 0.0
O210 O 0.38027 0.92395 0.62717 0.0
O211 O 0.31394 0.82335 0.62313 0.0
O212 O 0.31747 0.99573 0.62344 0.0
O213 O 0.22858 0.93753 0.64393 0.0
O214 O 0.2648 0.90542 0.57592 0.0
O215 O 0.18105 0.92548 0.58442 0.0
C216 C 0.02237 0.84597 0.62709 0.0
O217 O 0.04403 0.82157 0.60606 0.0
O218 O 0.06778 0.88282 0.64662 0.0
C219 C 0.15501 0.76095 0.62014 0.0
Tb220 Tb 0.64658 0.75042 0.88708 0.0
C221 C 0.72347 0.80323 0.95158 0.0
Tb222 Tb 0.74954 0.89345 0.89089 0.0
O223 O 0.71596 0.71728 0.89389 0.0
O224 O 0.745 0.80773 0.87411 0.0
O225 O 0.6702 0.75845 0.93757 0.0
C226 C 0.85095 1.014 0.89322 0.0
O227 O 0.76528 0.85663 0.93599 0.0
C228 C 0.62969 0.87037 0.89095 0.0
C229 C 0.69113 0.83567 0.82321 0.0
O230 O 0.80491 0.98824 0.91428 0.0
O231 O 0.84145 0.97032 0.87202 0.0
O232 O 0.67915 0.92308 0.88095 0.0
O233 O 0.65007 0.8365 0.90402 0.0
O234 O 0.73701 0.88475 0.83944 0.0
O235 O 0.64734 0.78106 0.83738 0.0
C236 C 0.53086 0.64156 0.88942 0.0
O237 O 0.57771 0.65164 0.87019 0.0
O238 O 0.54883 0.69273 0.90677 0.0
C239 C 0.76532 0.77229 0.88531 0.0
C240 C 0.08137 0.23494 0.1616 0.0
C241 C 0.03407 0.20702 0.13751 0.0
C242 C 0.08938 0.15349 0.11436 0.0
C243 C 0.14039 0.18835 0.13565 0.0
N244 N 0.18879 0.26451 0.17889 0.0
N245 N 0.97923 0.11452 0.10252 0.0
C246 C 0.13715 0.2289 0.15953 0.0
C247 C 0.0341 0.15932 0.11693 0.0
N248 N 0.07048 0.26281 0.1876 0.0
N249 N 0.09363 0.11468 0.09145 0.0
H250 H 0.93611 0.11132 0.10769 0.0
H251 H 0.974 0.07407 0.09034 0.0
H252 H 0.1296 0.10239 0.09095 0.0
H253 H 0.06304 0.09702 0.0719 0.0
H254 H 0.10053 0.27957 0.20735 0.0
H255 H 0.02674 0.26111 0.1913 0.0
H256 H 0.19235 0.30065 0.19415 0.0
H257 H 0.23058 0.26145 0.17808 0.0
C258 C 0.19723 0.93564 0.39488 0.0
C259 C 0.21608 0.98782 0.37332 0.0
C260 C 0.10302 0.95262 0.3636 0.0
C261 C 0.08342 0.89693 0.38284 0.0
N262 N 0.11507 0.82717 0.40941 0.0
N263 N 0.18665 0.03046 0.32894 0.0
C264 C 0.13133 0.88589 0.39648 0.0
C265 C 0.16884 0.99153 0.35512 0.0
N266 N 0.24168 0.93424 0.41448 0.0
N267 N 0.05958 0.97037 0.35454 0.0
H268 H 0.23374 0.05307 0.32026 0.0
H269 H 0.15359 0.03226 0.31363 0.0
H270 H 1.0119 0.94617 0.36239 0.0
H271 H 0.07298 1.01361 0.34265 0.0
H272 H 0.22908 0.90178 0.43336 0.0
H273 H 0.29061 0.96846 0.41334 0.0
H274 H 0.14917 0.8154 0.41695 0.0
H275 H 0.06852 0.78763 0.40933 0.0
C276 C 0.76126 0.88483 0.10973 0.0
C277 C 0.81591 0.93505 0.12506 0.0
C278 C 0.83675 0.85427 0.14904 0.0
C279 C 0.79092 0.80618 0.12838 0.0
N280 N 0.71579 0.78095 0.08441 0.0
N281 N 0.91229 0.96828 0.15598 0.0
C282 C 0.75446 0.82256 0.10755 0.0
C283 C 0.85568 0.92014 0.14382 0.0
N284 N 0.71424 0.89554 0.09828 0.0
N285 N 0.85929 0.83713 0.1748 0.0
H286 H 0.93009 0.01721 0.15143 0.0
H287 H 0.94468 0.95919 0.16805 0.0
H288 H 0.84082 0.78915 0.18166 0.0
H289 H 0.88912 0.87029 0.19187 0.0
H290 H 0.67042 0.85845 0.08976 0.0
H291 H 0.7153 0.93949 0.10094 0.0
H292 H 0.69465 0.79477 0.06681 0.0
H293 H 0.71063 0.73591 0.07975 0.0
C294 C 0.11108 0.22401 0.41399 0.0
C295 C 0.13327 0.20146 0.38828 0.0
C296 C 0.06127 0.21609 0.35215 0.0
C297 C 0.04407 0.24398 0.37743 0.0
N298 N 0.06866 0.29282 0.42953 0.0
N299 N 0.14178 0.19369 0.33087 0.0
C300 C 0.0739 0.25354 0.40748 0.0
C301 C 0.11168 0.20201 0.35671 0.0
N302 N 0.12287 0.21483 0.44479 0.0
N303 N 0.02931 0.20252 0.32385 0.0
H304 H 0.18202 0.18829 0.33245 0.0
H305 H 0.13154 0.19983 0.30748 0.0
H306 H 0.99474 0.21547 0.31914 0.0
H307 H 0.03432 0.17489 0.30597 0.0
H308 H 0.10247 0.2253 0.46429 0.0
H309 H 0.14669 0.18999 0.4508 0.0
H310 H 0.09531 0.30673 0.45049 0.0
H311 H 0.04398 0.31752 0.42502 0.0
C312 C 0.21255 0.93165 0.12452 0.0
C313 C 0.22498 0.98617 0.14345 0.0
C314 C 0.11019 0.95008 0.14395 0.0
C315 C 0.09662 0.89214 0.12797 0.0
N316 N 0.13597 0.82021 0.1121 0.0
N317 N 0.18273 0.03317 0.18019 0.0
C318 C 0.14799 0.88042 0.12089 0.0
C319 C 0.17286 0.99108 0.15595 0.0
N320 N 0.26131 0.92968 0.10856 0.0
N321 N 0.06443 0.9678 0.14651 0.0
H322 H 0.2272 0.05892 0.19141 0.0
H323 H 0.1453 0.03558 0.19163 0.0
H324 H 1.01927 0.94148 0.13598 0.0
H325 H 0.07431 1.01252 0.15568 0.0
H326 H 0.25299 0.89433 0.09158 0.0
H327 H 0.30929 0.96622 0.10989 0.0
H328 H 0.17236 0.80885 0.10944 0.0
H329 H 0.08999 0.7798 0.11126 0.0
C330 C 0.73754 0.83622 0.37669 0.0
C331 C 0.78284 0.82037 0.36415 0.0
C332 C 0.86033 0.93746 0.35831 0.0
C333 C 0.8193 0.95111 0.3775 0.0
N334 N 0.72269 0.91068 0.40952 0.0
N335 N 0.87743 0.85604 0.33185 0.0
C336 C 0.75908 0.89968 0.38798 0.0
C337 C 0.84215 0.87125 0.352 0.0
N338 N 0.67312 0.79289 0.3752 0.0
N339 N 0.91452 0.98749 0.34491 0.0
H340 H 0.85799 0.81033 0.32156 0.0
H341 H 0.92308 0.88859 0.32325 0.0
H342 H 0.92744 0.03588 0.34766 0.0
H343 H 0.94631 0.98213 0.33008 0.0
H344 H 0.63831 0.80447 0.38211 0.0
H345 H 0.65437 0.74968 0.36248 0.0
H346 H 0.68078 0.87329 0.41966 0.0
H347 H 0.73791 0.95583 0.4199 0.0
C348 C 0.28282 0.09953 0.61073 0.0
C349 C 0.25308 0.05021 0.63423 0.0
C350 C 0.18802 0.0995 0.65075 0.0
C351 C 0.20974 0.14002 0.62334 0.0
N352 N 0.26595 0.16514 0.57288 0.0
N353 N 0.18132 1.00858 0.6796 0.0
C354 C 0.25324 0.13564 0.60198 0.0
C355 C 0.20602 0.05116 0.65484 0.0
N356 N 0.34188 0.11644 0.59837 0.0
N357 N 0.15448 0.11024 0.67413 0.0
H358 H 0.20339 0.98369 0.68808 0.0
H359 H 0.13963 0.99882 0.69194 0.0
H360 H 0.14268 0.14655 0.67288 0.0
H361 H 0.14302 0.08705 0.69614 0.0
H362 H 0.36635 0.15539 0.58283 0.0
H363 H 0.37134 0.10026 0.60758 0.0
H364 H 0.29321 0.15831 0.55547 0.0
H365 H 0.24314 0.18979 0.56484 0.0
C366 C 0.94146 0.83754 0.86055 0.0
C367 C 0.96882 0.8369 0.89048 0.0
C368 C 0.86177 0.78388 0.91514 0.0
C369 C 0.83438 0.78931 0.88628 0.0
N370 N 0.84437 0.80412 0.82953 0.0
N371 N 0.95698 0.82703 0.94762 0.0
C372 C 0.87349 0.81265 0.85844 0.0
C373 C 0.92948 0.81508 0.9181 0.0
N374 N 0.98009 0.86156 0.83419 0.0
N375 N 0.82365 0.74541 0.93926 0.0
H376 H 1.00667 0.85286 0.95104 0.0
H377 H 0.93062 0.81835 0.96869 0.0
H378 H 0.77395 0.71755 0.93768 0.0
H379 H 0.84209 0.73433 0.95913 0.0
H380 H 0.96532 0.87115 0.81268 0.0
H381 H 0.02855 0.87512 0.83392 0.0
H382 H 0.86809 0.81388 0.80768 0.0
H383 H 0.79454 0.78149 0.82704 0.0
C384 C 0.94272 0.09929 0.64059 0.0
C385 C 0.88659 0.08807 0.62419 0.0
C386 C 0.93583 0.20437 0.61394 0.0
C387 C 0.98894 0.21596 0.63325 0.0
N388 N 0.03596 0.17506 0.67047 0.0
N389 N 0.82397 0.13153 0.60144 0.0
C390 C 0.99023 0.1636 0.64826 0.0
C391 C 0.88142 0.14101 0.61256 0.0
N392 N 0.95258 0.04901 0.64747 0.0
N393 N 0.93828 0.25283 0.59566 0.0
H394 H 0.78212 0.08637 0.60101 0.0
H395 H 0.81619 0.16949 0.59575 0.0
H396 H 0.97716 0.29999 0.59557 0.0
H397 H 0.90427 0.24466 0.57825 0.0
H398 H 0.99603 0.05562 0.65614 0.0
H399 H 0.92023 1.00114 0.64144 0.0
H400 H 0.03463 0.13888 0.68481 0.0
H401 H 0.07144 0.22145 0.6768 0.0
C402 C 0.2698 0.15037 0.90064 0.0
C403 C 0.21891 0.1434 0.88068 0.0
C404 C 0.2216 0.05342 0.85306 0.0
C405 C 0.26286 0.05302 0.87672 0.0
N406 N 0.3257 0.09982 0.92394 0.0
N407 N 0.14259 0.08286 0.83892 0.0
C408 C 0.28659 0.10102 0.90086 0.0
C409 C 0.1941 0.09373 0.85697 0.0
N410 N 0.30565 0.20617 0.91758 0.0
N411 N 0.20997 0.01637 0.82633 0.0
H412 H 0.12099 0.11099 0.84041 0.0
H413 H 0.11772 0.04238 0.82435 0.0
H414 H 0.23217 0.98904 0.82231 0.0
H415 H 0.18492 0.01875 0.80671 0.0
H416 H 0.3467 0.21591 0.93023 0.0
H417 H 0.29988 0.24644 0.91584 0.0
H418 H 0.33756 0.1279 0.94456 0.0
H419 H 0.34376 0.06827 0.92298 0.0
C420 C 0.91747 0.79676 0.65708 0.0
C421 C 0.95507 0.83047 0.62997 0.0
C422 C 0.87308 0.85458 0.61373 0.0
C423 C 0.82944 0.81183 0.6373 0.0
N424 N 0.81336 0.74488 0.68352 0.0
N425 N 0.96296 0.88013 0.57898 0.0
C426 C 0.85258 0.78354 0.65964 0.0
C427 C 0.9306 0.85474 0.60697 0.0
N428 N 0.94393 0.77778 0.68043 0.0
N429 N 0.86311 0.89974 0.59965 0.0
H430 H 1.00729 0.8843 0.57352 0.0
H431 H 0.94265 0.8917 0.56005 0.0
H432 H 0.82956 0.91005 0.60885 0.0
H433 H 0.89538 0.93466 0.5838 0.0
H434 H 0.92243 0.76031 0.70256 0.0
H435 H 0.98935 0.78242 0.67831 0.0
H436 H 0.82365 0.71513 0.69733 0.0
H437 H 0.77006 0.7422 0.68969 0.0
C438 C 0.92771 0.19921 0.88964 0.0
C439 C 0.98891 0.21697 0.87567 0.0
C440 C 0.96051 0.10301 0.8769 0.0
C441 C 0.89894 0.08442 0.8896 0.0
N442 N 0.81752 0.11435 0.89855 0.0
N443 N 0.04225 0.17778 0.84104 0.0
C444 C 0.88074 0.13233 0.89373 0.0
C445 C 0.9996 0.16672 0.86508 0.0
N446 N 0.91217 0.24508 0.89778 0.0
N447 N 0.98254 0.06031 0.87629 0.0
H448 H 0.06346 0.22073 0.82808 0.0
H449 H 0.0463 0.14052 0.83034 0.0
H450 H 0.95676 1.01383 0.8859 0.0
H451 H 0.02951 0.0742 0.86958 0.0
H452 H 0.87527 0.23606 0.91383 0.0
H453 H 0.93408 0.29117 0.88796 0.0
H454 H 0.80054 0.14681 0.89819 0.0
H455 H 0.78019 0.06655 0.89925 0.0
C456 C 0.33702 0.21148 0.27795 0.0
C457 C 0.35884 0.17509 0.29542 0.0
C458 C 0.38018 0.13629 0.24491 0.0
C459 C 0.36452 0.17741 0.22749 0.0
N460 N 0.33571 0.26094 0.22799 0.0
N461 N 0.40888 0.10816 0.29454 0.0
C462 C 0.34464 0.21651 0.24416 0.0
C463 C 0.38344 0.13996 0.27865 0.0
N464 N 0.30889 0.24166 0.29337 0.0
N465 N 0.38654 0.08907 0.22964 0.0
H466 H 0.40325 0.09807 0.31873 0.0
H467 H 0.43831 0.09331 0.28346 0.0
H468 H 0.38264 0.082 0.20523 0.0
H469 H 0.38866 0.05189 0.24144 0.0
H470 H 0.28235 0.25887 0.28168 0.0
H471 H 0.30906 0.24741 0.31795 0.0
H472 H 0.33041 0.29711 0.23908 0.0
H473 H 0.3385 0.26542 0.20335 0.0
C474 C 0.79602 0.67037 0.26681 0.0
C475 C 0.84244 0.66431 0.28491 0.0
C476 C 0.89624 0.66025 0.23567 0.0
C477 C 0.84765 0.66264 0.21766 0.0
N478 N 0.74698 0.66263 0.21565 0.0
N479 N 0.93165 0.64539 0.28757 0.0
C480 C 0.79605 0.66502 0.23312 0.0
C481 C 0.89133 0.65713 0.26961 0.0
N482 N 0.75411 0.6852 0.28167 0.0
N483 N 0.94721 0.6615 0.22028 0.0
H484 H 0.92907 0.64293 0.31241 0.0
H485 H 0.96447 0.63346 0.27803 0.0
H486 H 0.95044 0.66032 0.1955 0.0
H487 H 0.98786 0.66704 0.23183 0.0
H488 H 0.72538 0.69927 0.26964 0.0
H489 H 0.75127 0.68863 0.30629 0.0
H490 H 0.70372 0.65443 0.22563 0.0
H491 H 0.74728 0.66503 0.19088 0.0
C492 C 0.82454 0.14328 0.2354 0.0
C493 C 0.86928 0.19865 0.21743 0.0
C494 C 0.91718 0.25584 0.26792 0.0
C495 C 0.86892 0.20307 0.2857 0.0
N496 N 0.76971 0.1009 0.28595 0.0
N497 N 0.95406 0.31154 0.21774 0.0
C498 C 0.82102 0.14777 0.26932 0.0
C499 C 0.91384 0.25607 0.23404 0.0
N500 N 0.78471 0.0861 0.22033 0.0
N501 N 0.96916 0.30447 0.28318 0.0
H502 H 0.96145 0.31383 0.19327 0.0
H503 H 0.97866 0.35685 0.22862 0.0
H504 H 0.97449 0.30649 0.30773 0.0
H505 H 1.0103 0.33939 0.27143 0.0
H506 H 0.75835 0.04231 0.23236 0.0
H507 H 0.78017 0.08083 0.19572 0.0
H508 H 0.72907 0.06337 0.2752 0.0
H509 H 0.76473 0.10274 0.31054 0.0
C510 C 0.12549 0.34005 0.73567 0.0
C511 C 0.18258 0.36016 0.71745 0.0
C512 C 0.2442 0.3819 0.76713 0.0
C513 C 0.18766 0.36547 0.78496 0.0
N514 N 0.07688 0.33981 0.78641 0.0
N515 N 0.29803 0.41103 0.71555 0.0
C516 C 0.12911 0.34791 0.76927 0.0
C517 C 0.24254 0.38396 0.73313 0.0
N518 N 0.06707 0.31116 0.72103 0.0
N519 N 0.29927 0.3952 0.78273 0.0
H520 H 0.29802 0.4141 0.69081 0.0
H521 H 0.34386 0.43511 0.72542 0.0
H522 H 0.30256 0.39674 0.80754 0.0
H523 H 0.34037 0.40095 0.77124 0.0
H524 H 0.02326 0.28716 0.73315 0.0
H525 H 0.06224 0.30627 0.69655 0.0
H526 H 0.03551 0.33512 0.77602 0.0
H527 H 0.07645 0.34316 0.81114 0.0
C528 C 0.15343 0.81088 0.77901 0.0
C529 C 0.21026 0.85847 0.79447 0.0
C530 C 0.25681 0.90845 0.74281 0.0
C531 C 0.20276 0.85777 0.72717 0.0
N532 N 0.10067 0.75825 0.7296 0.0
N533 N 0.32004 0.94795 0.79053 0.0
C534 C 0.15105 0.8085 0.74505 0.0
C535 C 0.26326 0.90541 0.7762 0.0
N536 N 0.10173 0.76777 0.79679 0.0
N537 N 0.29994 0.96226 0.72612 0.0
H538 H 0.32645 0.95284 0.81501 0.0
H539 H 0.36267 0.97599 0.77789 0.0
H540 H 0.29634 0.96819 0.70179 0.0
H541 H 0.33558 1.00435 0.73688 0.0
H542 H 0.05605 0.73793 0.7875 0.0
H543 H 0.10361 0.76344 0.82137 0.0
H544 H 0.06558 0.71659 0.74091 0.0
H545 H 0.09546 0.75606 0.70494 0.0
C546 C 0.62749 0.8243 0.73798 0.0
C547 C 0.68258 0.83724 0.71949 0.0
C548 C 0.74615 0.86055 0.76872 0.0
C549 C 0.68961 0.84125 0.7875 0.0
N550 N 0.57803 0.81178 0.79018 0.0
N551 N 0.79224 0.85892 0.71766 0.0
C552 C 0.63067 0.82486 0.77206 0.0
C553 C 0.74141 0.85383 0.73496 0.0
N554 N 0.57294 0.8144 0.72291 0.0
N555 N 0.80525 0.88612 0.7827 0.0
H556 H 0.79249 0.85553 0.693 0.0
H557 H 0.83243 0.86048 0.72782 0.0
H558 H 0.81294 0.88696 0.80701 0.0
H559 H 0.84834 0.91113 0.77003 0.0
H560 H 0.53301 0.81125 0.73442 0.0
H561 H 0.56832 0.81273 0.69822 0.0
H562 H 0.5312 0.78997 0.78164 0.0
H563 H 0.5815 0.82333 0.81431 0.0
C564 C 0.22125 0.96112 0.00975 0.0
C565 C 0.26864 0.96969 0.98669 0.0
C566 C 0.34616 0.07187 0.01285 0.0
C567 C 0.30083 0.06102 0.03711 0.0
N568 N 0.1956 0.99148 0.06054 0.0
N569 N 0.38268 0.0277 0.97167 0.0
C570 C 0.23815 1.00501 0.03594 0.0
C571 C 0.333 0.02292 0.98989 0.0
N572 N 0.16002 0.90966 0.00702 0.0
N573 N 0.40116 0.13097 0.01073 0.0
H574 H 0.37847 0.99782 0.95278 0.0
H575 H 0.43075 0.06013 0.97692 0.0
H576 H 0.41147 0.16886 0.02649 0.0
H577 H 0.43267 0.14496 0.99134 0.0
H578 H 0.12038 0.90604 0.01912 0.0
H579 H 0.14821 0.87063 0.9918 0.0
H580 H 0.15203 0.94843 0.06272 0.0
H581 H 0.20448 0.02104 0.08028 0.0
C582 C 0.8086 0.76321 0.49727 0.0
C583 C 0.77509 0.75578 0.46844 0.0
C584 C 0.70696 0.79119 0.49635 0.0
C585 C 0.73541 0.79106 0.52559 0.0
N586 N 0.80133 0.75937 0.55474 0.0
N587 N 0.68116 0.74809 0.44316 0.0
C588 C 0.78336 0.77273 0.52632 0.0
C589 C 0.72119 0.76584 0.46867 0.0
N590 N 0.86335 0.75913 0.4973 0.0
N591 N 0.66587 0.81506 0.49498 0.0
H592 H 0.68787 0.72698 0.42308 0.0
H593 H 0.63767 0.74783 0.44331 0.0
H594 H 0.65336 0.83254 0.51501 0.0
H595 H 0.64862 0.82255 0.47366 0.0
H596 H 0.89344 0.77148 0.51702 0.0
H597 H 0.88132 0.74804 0.47704 0.0
H598 H 0.83164 0.74013 0.55674 0.0
H599 H 0.77961 0.76003 0.57611 0.0
C600 C 0.05159 0.23676 0.99174 0.0
C601 C 0.04924 0.28171 0.97042 0.0
C602 C 0.95331 0.26831 1.0001 0.0
C603 C 0.95541 0.2223 0.02059 0.0
N604 N 0.99205 0.14535 0.02677 0.0
N605 N 0.99039 0.33484 0.95302 0.0
C606 C 0.99989 0.20101 0.01362 0.0
C607 C 0.99817 0.29612 0.97427 0.0
N608 N 0.10524 0.23078 0.99263 0.0
N609 N 0.90796 0.28594 0.00562 0.0
H610 H 0.02378 0.36339 0.93601 0.0
H611 H 0.94857 0.33745 0.9513 0.0
H612 H 0.86866 0.25983 0.0208 0.0
H613 H 0.90999 0.32714 0.99613 0.0
H614 H 0.11232 0.20378 0.00992 0.0
H615 H 0.14611 0.25912 0.97881 0.0
H616 H 1.02045 0.12537 0.02046 0.0
H617 H 0.95152 0.11373 0.03984 0.0
C618 C 0.3307 0.07616 0.51121 0.0
C619 C 0.28634 0.06606 0.48685 0.0
C620 C 0.20411 0.96862 0.51527 0.0
C621 C 0.25097 0.97506 0.53787 0.0
N622 N 0.36509 0.02913 0.55148 0.0
N623 N 0.18232 0.99556 0.46301 0.0
C624 C 0.31604 0.02679 0.5341 0.0
C625 C 0.22311 1.01086 0.4883 0.0
N626 N 0.38673 0.13433 0.51308 0.0
N627 N 0.14145 0.92055 0.51881 0.0
H628 H 0.19333 0.02324 0.44243 0.0
H629 H 0.13914 0.95196 0.46102 0.0
H630 H 0.12676 0.88232 0.53479 0.0
H631 H 0.10351 0.91969 0.50651 0.0
H632 H 0.4184 0.14745 0.53217 0.0
H633 H 0.39801 0.17237 0.49735 0.0
H634 H 0.4134 0.06121 0.54635 0.0
H635 H 0.35979 0.9964 0.56898 0.0
C636 C 0.8195 0.81658 0.02789 0.0
C637 C 0.80142 0.74969 0.03148 0.0
C638 C 0.71522 0.72193 0.99301 0.0
C639 C 0.74181 0.78759 0.9836 0.0
N640 N 0.81663 0.89961 0.99591 0.0
N641 N 0.74431 0.64296 0.00775 0.0
C642 C 0.79387 0.83557 1.00191 0.0
C643 C 0.75318 0.70381 0.011 0.0
N644 N 0.85643 0.86167 0.05027 0.0
N645 N 0.65299 0.67674 0.98638 0.0
H646 H 0.77529 0.62939 0.01794 0.0
H647 H 0.71178 0.60964 0.99146 0.0
H648 H 0.61945 0.68922 0.97879 0.0
H649 H 0.63235 0.62882 0.99402 0.0
H650 H 0.86404 0.90861 0.05062 0.0
H651 H 0.87421 0.85202 0.07066 0.0
H652 H 0.86108 0.93631 1.00398 0.0
H653 H 0.79049 0.91592 0.9831 0.0
C654 C 1.00308 0.22097 0.52673 0.0
C655 C 0.05339 0.28751 0.52827 0.0
C656 C 0.99162 0.31361 0.49092 0.0
C657 C 0.95061 0.24715 0.48325 0.0
N658 N 0.91208 0.13613 0.49809 0.0
N659 N 0.09991 0.39413 0.50499 0.0
C660 C 0.95539 0.20036 0.50218 0.0
C661 C 0.049 0.33268 0.50814 0.0
N662 N 0.99673 0.17807 0.54995 0.0
N663 N 0.97429 0.35855 0.48399 0.0
H664 H 0.14432 0.40914 0.51569 0.0
H665 H 0.09997 0.42711 0.48874 0.0
H666 H 0.92778 0.34561 0.47704 0.0
H667 H 1.00204 0.40704 0.49065 0.0
H668 H 0.95712 0.13157 0.55184 0.0
H669 H 0.02643 0.18971 0.56962 0.0
H670 H 0.91933 0.09938 0.50664 0.0
H671 H 0.86854 0.11981 0.4863 0.0
C672 C 0.68869 0.18787 0.08887 0.0
C673 C 0.71241 0.17331 0.11646 0.0
C674 C 0.62282 0.16571 0.14776 0.0
C675 C 0.59229 0.16616 0.11913 0.0
N676 N 0.59497 0.17692 0.06175 0.0
N677 N 0.70147 0.14549 0.17223 0.0
C678 C 0.62536 0.17851 0.08946 0.0
C679 C 0.67974 0.16224 0.14604 0.0
N680 N 0.72625 0.20915 0.06209 0.0
N681 N 0.59843 0.17044 0.17656 0.0
H682 H 0.74403 0.14423 0.17198 0.0
H683 H 0.67531 0.12893 0.1934 0.0
H684 H 0.55813 0.17593 0.17867 0.0
H685 H 0.62219 0.17629 0.19806 0.0
H686 H 0.71416 0.22599 0.04194 0.0
H687 H 0.77256 0.2156 0.06127 0.0
H688 H 0.61427 0.17874 0.03923 0.0
H689 H 0.54817 0.16884 0.061 0.0
C690 C 0.58189 0.40575 0.40917 0.0
C691 C 0.58611 0.4534 0.38732 0.0
C692 C 0.48428 0.37197 0.36439 0.0
C693 C 0.47283 0.3292 0.39028 0.0
N694 N 0.51087 0.31165 0.44064 0.0
N695 N 0.53008 0.48361 0.34946 0.0
C696 C 0.52171 0.34746 0.41363 0.0
C697 C 0.53421 0.43708 0.3664 0.0
N698 N 0.63536 0.41421 0.42469 0.0
N699 N 0.44886 0.35024 0.33722 0.0
H700 H 0.56205 0.533 0.35223 0.0
H701 H 0.48988 0.4734 0.33585 0.0
H702 H 0.41612 0.30155 0.33354 0.0
H703 H 0.45883 0.37888 0.31692 0.0
H704 H 0.63551 0.37792 0.43836 0.0
H705 H 0.68108 0.45387 0.42095 0.0
H706 H 0.54299 0.32743 0.45964 0.0
H707 H 0.46811 0.26913 0.44549 0.0
C708 C 0.85563 0.44558 0.12456 0.0
C709 C 0.90636 0.44514 0.1074 0.0
C710 C 0.94564 0.55702 0.08995 0.0
C711 C 0.89364 0.5568 0.10654 0.0
N712 N 0.79101 0.49559 0.13261 0.0
N713 N 0.99375 0.49514 0.0697 0.0
C714 C 0.84604 0.49926 0.12154 0.0
C715 C 0.94987 0.49947 0.08894 0.0
N716 N 0.81843 0.39609 0.14509 0.0
N717 N 0.99098 0.61239 0.07522 0.0
H718 H 0.99825 0.45391 0.0687 0.0
H719 H 0.02269 0.53026 0.05314 0.0
H720 H 0.98584 0.65299 0.0726 0.0
H721 H 0.0344 0.61894 0.06633 0.0
H722 H 0.78564 0.39727 0.16105 0.0
H723 H 0.82429 0.35613 0.14851 0.0
H724 H 0.75143 0.45338 0.14114 0.0
H725 H 0.78251 0.53346 0.12946 0.0
C726 C 0.62355 0.19255 0.42542 0.0
C727 C 0.5794 0.15639 0.40081 0.0
C728 C 0.65707 0.12779 0.37876 0.0
C729 C 0.70294 0.16744 0.402 0.0
N730 N 0.73299 0.24269 0.44564 0.0
N731 N 0.55971 0.10171 0.35012 0.0
C732 C 0.68709 0.20151 0.42475 0.0
C733 C 0.59768 0.12729 0.37641 0.0
N734 N 0.60374 0.2157 0.45027 0.0
N735 N 0.66912 0.08857 0.35961 0.0
H736 H 0.51662 0.10161 0.34702 0.0
H737 H 0.57389 0.08644 0.32993 0.0
H738 H 0.71179 0.08728 0.36052 0.0
H739 H 0.63472 0.05316 0.34481 0.0
H740 H 0.63092 0.23661 0.47064 0.0
H741 H 0.55766 0.20957 0.45179 0.0
H742 H 0.72751 0.2748 0.46037 0.0
H743 H 0.77874 0.24792 0.44676 0.0
C744 C 0.53136 0.33966 0.09752 0.0
C745 C 0.48372 0.33265 0.11981 0.0
C746 C 0.55023 0.44582 0.13526 0.0
C747 C 0.60191 0.4503 0.11677 0.0
N748 N 0.64495 0.3956 0.0849 0.0
N749 N 0.45519 0.37511 0.16546 0.0
C750 C 0.59365 0.39559 0.09913 0.0
C751 C 0.49559 0.38448 0.14047 0.0
N752 N 0.51645 0.29519 0.07376 0.0
N753 N 0.55104 0.50024 0.14624 0.0
H754 H 0.4157 0.33004 0.17063 0.0
H755 H 0.46524 0.41011 0.18291 0.0
H756 H 0.58708 0.54698 0.14035 0.0
H757 H 0.51162 0.49891 0.15757 0.0
H758 H 0.54791 0.3016 0.05506 0.0
H759 H 0.47071 0.25465 0.07131 0.0
H760 H 0.64171 0.35432 0.07452 0.0
H761 H 0.69181 0.43444 0.08623 0.0
C762 C 0.9217 0.5611 0.41531 0.0
C763 C 0.87149 0.56272 0.39824 0.0
C764 C 0.83555 0.45303 0.37777 0.0
C765 C 0.88498 0.45105 0.39506 0.0
N766 N 0.96787 0.49738 0.43483 0.0
N767 N 0.77141 0.50365 0.37044 0.0
C768 C 0.92615 0.50354 0.41513 0.0
C769 C 0.82546 0.50641 0.38185 0.0
N770 N 0.96527 0.61488 0.43166 0.0
N771 N 0.80029 0.40554 0.35602 0.0
H772 H 0.76276 0.54126 0.37446 0.0
H773 H 0.73256 0.46221 0.36093 0.0
H774 H 0.80672 0.3661 0.35175 0.0
H775 H 0.76874 0.40811 0.33999 0.0
H776 H 1.00786 0.62069 0.44102 0.0
H777 H 0.95941 0.65491 0.43522 0.0
H778 H 0.99472 0.53076 0.45244 0.0
H779 H 0.97235 0.45614 0.43518 0.0
C780 C 0.16054 0.67525 0.5864 0.0
C781 C 0.16361 0.70325 0.61686 0.0
C782 C 0.17205 0.61494 0.64204 0.0
C783 C 0.15815 0.58189 0.61256 0.0
N784 N 0.13692 0.57835 0.55637 0.0
N785 N 0.1679 0.69642 0.67418 0.0
C786 C 0.15286 0.61187 0.58449 0.0
C787 C 0.16824 0.67213 0.64476 0.0
N788 N 0.16372 0.70845 0.55936 0.0
N789 N 0.19169 0.59312 0.66728 0.0
H790 H 0.16974 0.74028 0.67734 0.0
H791 H 0.16186 0.67122 0.69532 0.0
H792 H 0.19739 0.55265 0.6659 0.0
H793 H 0.20922 0.61901 0.68842 0.0
H794 H 0.1688 0.69397 0.5366 0.0
H795 H 0.16593 0.75313 0.55963 0.0
H796 H 0.12484 0.59396 0.5358 0.0
H797 H 0.13148 0.53235 0.55411 0.0
C798 C 0.51562 0.93045 0.9136 0.0
C799 C 0.45752 0.88254 0.89947 0.0
C800 C 0.50941 0.82024 0.88401 0.0
C801 C 0.56751 0.8678 0.89831 0.0
N802 N 0.62054 0.95813 0.93432 0.0
N803 N 0.39463 0.77528 0.87714 0.0
C804 C 0.56891 0.91994 0.91545 0.0
C805 C 0.45288 0.82509 0.88683 0.0
N806 N 0.52011 0.9863 0.925 0.0
N807 N 0.50907 0.77261 0.86588 0.0
H808 H 0.35271 0.77806 0.87682 0.0
H809 H 0.38679 0.72935 0.87148 0.0
H810 H 0.54874 0.76633 0.86409 0.0
H811 H 0.47153 0.74301 0.85071 0.0
H812 H 0.56322 0.02631 0.93215 0.0
H813 H 0.48119 0.99425 0.92556 0.0
H814 H 0.62242 0.99346 0.94963 0.0
H815 H 0.65891 0.94981 0.9372 0.0
C816 C 0.41807 0.57881 0.58401 0.0
C817 C 0.4576 0.5811 0.60967 0.0
C818 C 0.37581 0.47051 0.6247 0.0
C819 C 0.33294 0.47159 0.60182 0.0
N820 N 0.31131 0.5279 0.56069 0.0
N821 N 0.46956 0.53285 0.65765 0.0
C822 C 0.3535 0.52622 0.5818 0.0
C823 C 0.43544 0.52781 0.63078 0.0
N824 N 0.44345 0.62497 0.56072 0.0
N825 N 0.36061 0.41418 0.64002 0.0
H826 H 0.51292 0.5742 0.66337 0.0
H827 H 0.45186 0.4984 0.67577 0.0
H828 H 0.3169 0.37142 0.63709 0.0
H829 H 0.39328 0.40865 0.65394 0.0
H830 H 0.41923 0.62298 0.53989 0.0
H831 H 0.49138 0.66207 0.56062 0.0
H832 H 0.32059 0.56931 0.54818 0.0
H833 H 0.2651 0.48871 0.55712 0.0
C834 C 0.11983 0.65872 0.88737 0.0
C835 C 0.17112 0.70702 0.90568 0.0
C836 C 0.2171 0.63626 0.91068 0.0
C837 C 0.16255 0.58527 0.8951 0.0
N838 N 0.05382 0.54431 0.87628 0.0
N839 N 0.25788 0.73426 0.94214 0.0
C840 C 0.11166 0.59546 0.88539 0.0
C841 C 0.21657 0.69354 0.91957 0.0
N842 N 0.07887 0.67306 0.8717 0.0
N843 N 0.27083 0.63174 0.91573 0.0
H844 H 0.25669 0.77511 0.95013 0.0
H845 H 0.28827 0.72377 0.9552 0.0
H846 H 0.27533 0.59272 0.90799 0.0
H847 H 0.31368 0.6701 0.92437 0.0
H848 H 0.04569 0.64219 0.85495 0.0
H849 H 0.08123 0.71774 0.87355 0.0
H850 H 1.01328 0.54834 0.87206 0.0
H851 H 0.04366 0.49649 0.87653 0.0
C852 C 0.4721 0.87708 0.64939 0.0
C853 C 0.42839 0.85438 0.62371 0.0
C854 C 0.49671 0.82144 0.59497 0.0
C855 C 0.5449 0.8541 0.61824 0.0
N856 N 0.58076 0.91552 0.6672 0.0
N857 N 0.39712 0.80473 0.57175 0.0
C858 C 0.53297 0.88199 0.64554 0.0
C859 C 0.43933 0.82508 0.59664 0.0
N860 N 0.45458 0.89234 0.67778 0.0
N861 N 0.50696 0.78902 0.57081 0.0
H862 H 0.35467 0.80653 0.5721 0.0
H863 H 0.40548 0.78941 0.54991 0.0
H864 H 0.5495 0.78755 0.56856 0.0
H865 H 0.47206 0.75979 0.55438 0.0
H866 H 0.48173 0.90287 0.69848 0.0
H867 H 0.40958 0.88802 0.68154 0.0
H868 H 0.57795 0.94449 0.68504 0.0
H869 H 0.62462 0.9165 0.66668 0.0
C870 C 0.4183 0.5759 0.86869 0.0
C871 C 0.46568 0.58276 0.89072 0.0
C872 C 0.38611 0.48084 0.91652 0.0
C873 C 0.33794 0.47626 0.89543 0.0
N874 N 0.30473 0.53162 0.85948 0.0
N875 N 0.49285 0.5477 0.93898 0.0
C876 C 0.35307 0.52753 0.8739 0.0
C877 C 0.4489 0.53714 0.91582 0.0
N878 N 0.43554 0.61471 0.84239 0.0
N879 N 0.37203 0.43085 0.93684 0.0
H880 H 0.5399 0.58672 0.93839 0.0
H881 H 0.48171 0.52019 0.9597 0.0
H882 H 0.32554 0.39145 0.93951 0.0
H883 H 0.40657 0.42719 0.95008 0.0
H884 H 0.4037 0.60774 0.82402 0.0
H885 H 0.48308 0.64985 0.83745 0.0
H886 H 0.31211 0.57028 0.84512 0.0
H887 H 0.25727 0.50151 0.86638 0.0
loop_
_geom_bond_atom_site_label_1
_geom_bond_atom_site_label_2
_geom_bond_distance
_geom_bond_site_symmetry_2
_ccdc_geom_bond_type
Tb0 O3 2.453 . S
Tb0 O4 2.596 . S
Tb0 O5 2.374 . S
Tb0 O13 2.343 . S
Tb0 O15 2.353 . S
Tb0 O17 2.427 . S
Tb0 O18 2.513 . S
C1 O5 1.251 . S
C1 O7 1.263 . S
Tb2 O4 2.343 . S
Tb2 O7 2.353 . S
Tb2 O10 2.427 . S
Tb2 O11 2.513 . S
Tb2 O12 2.453 . S
Tb2 O13 2.596 . S
Tb2 O14 2.374 . S
O3 Tb0 2.453 . S
O3 C19 1.245 . S
O4 Tb0 2.596 . S
O4 Tb2 2.343 . S
O4 C19 1.259 . S
O5 Tb0 2.374 . S
O5 C1 1.251 . S
C6 O10 1.275 . S
C6 O11 1.246 . S
O7 C1 1.263 . S
O7 Tb2 2.353 . S
C8 O12 1.245 . S
C8 O13 1.259 . S
C9 O14 1.250 . S
C9 O15 1.263 . S
O10 Tb2 2.427 . S
O10 C6 1.275 . S
O11 Tb2 2.513 . S
O11 C6 1.246 . S
O12 Tb2 2.453 . S
O12 C8 1.245 . S
O13 Tb0 2.343 . S
O13 Tb2 2.596 . S
O13 C8 1.259 . S
O14 Tb2 2.374 . S
O14 C9 1.250 . S
O15 Tb0 2.353 . S
O15 C9 1.263 . S
C16 O17 1.275 . S
C16 O18 1.246 . S
O17 Tb0 2.427 . S
O17 C16 1.275 . S
O18 Tb0 2.513 . S
O18 C16 1.246 . S
C19 O3 1.245 . S
C19 O4 1.259 . S
Tb20 O23 2.453 . S
Tb20 O24 2.596 . S
Tb20 O25 2.374 . S
Tb20 O33 2.343 . S
Tb20 O35 2.353 . S
Tb20 O37 2.427 . S
Tb20 O38 2.513 . S
C21 O25 1.251 . S
C21 O27 1.263 . S
Tb22 O24 2.343 . S
Tb22 O27 2.353 . S
Tb22 O30 2.427 . S
Tb22 O31 2.513 . S
Tb22 O32 2.453 . S
Tb22 O33 2.596 . S
Tb22 O34 2.374 . S
O23 Tb20 2.453 . S
O23 C39 1.245 . S
O24 Tb20 2.596 . S
O24 Tb22 2.343 . S
O24 C39 1.259 . S
O25 Tb20 2.374 . S
O25 C21 1.251 . S
C26 O30 1.275 . S
C26 O31 1.246 . S
O27 C21 1.263 . S
O27 Tb22 2.353 . S
C28 O32 1.245 . S
C28 O33 1.259 . S
C29 O34 1.250 . S
C29 O35 1.263 . S
O30 Tb22 2.427 . S
O30 C26 1.275 . S
O31 Tb22 2.513 . S
O31 C26 1.246 . S
O32 Tb22 2.453 . S
O32 C28 1.245 . S
O33 Tb20 2.343 . S
O33 Tb22 2.596 . S
O33 C28 1.259 . S
O34 Tb22 2.374 . S
O34 C29 1.250 . S
O35 Tb20 2.353 . S
O35 C29 1.263 . S
C36 O37 1.275 . S
C36 O38 1.246 . S
O37 Tb20 2.427 . S
O37 C36 1.275 . S
O38 Tb20 2.513 . S
O38 C36 1.246 . S
C39 O23 1.245 . S
C39 O24 1.259 . S
Tb40 O43 2.453 . S
Tb40 O44 2.596 . S
Tb40 O45 2.374 . S
Tb40 O53 2.343 . S
Tb40 O55 2.353 . S
Tb40 O57 2.427 . S
Tb40 O58 2.513 . S
C41 O45 1.251 . S
C41 O47 1.263 . S
Tb42 O44 2.343 . S
Tb42 O47 2.353 . S
Tb42 O50 2.427 . S
Tb42 O51 2.513 . S
Tb42 O52 2.453 . S
Tb42 O53 2.596 . S
Tb42 O54 2.374 . S
O43 Tb40 2.453 . S
O43 C59 1.245 . S
O44 Tb40 2.596 . S
O44 Tb42 2.343 . S
O44 C59 1.259 . S
O45 Tb40 2.374 . S
O45 C41 1.251 . S
C46 O50 1.275 . S
C46 O51 1.246 . S
O47 C41 1.263 . S
O47 Tb42 2.353 . S
C48 O52 1.245 . S
C48 O53 1.259 . S
C49 O54 1.250 . S
C49 O55 1.263 . S
O50 Tb42 2.427 . S
O50 C46 1.275 . S
O51 Tb42 2.513 . S
O51 C46 1.246 . S
O52 Tb42 2.453 . S
O52 C48 1.245 . S
O53 Tb40 2.343 . S
O53 Tb42 2.596 . S
O53 C48 1.259 . S
O54 Tb42 2.374 . S
O54 C49 1.250 . S
O55 Tb40 2.353 . S
O55 C49 1.263 . S
C56 O57 1.275 . S
C56 O58 1.246 . S
O57 Tb40 2.427 . S
O57 C56 1.275 . S
O58 Tb40 2.513 . S
O58 C56 1.246 . S
C59 O43 1.245 . S
C59 O44 1.259 . S
Tb60 O63 2.453 . S
Tb60 O64 2.596 . S
Tb60 O65 2.374 . S
Tb60 O73 2.343 . S
Tb60 O75 2.353 . S
Tb60 O77 2.427 . S
Tb60 O78 2.513 . S
C61 O65 1.251 . S
C61 O67 1.263 . S
Tb62 O64 2.343 . S
Tb62 O67 2.353 . S
Tb62 O70 2.427 . S
Tb62 O71 2.513 . S
Tb62 O72 2.453 . S
Tb62 O73 2.596 . S
Tb62 O74 2.374 . S
O63 Tb60 2.453 . S
O63 C79 1.245 . S
O64 Tb60 2.596 . S
O64 Tb62 2.343 . S
O64 C79 1.259 . S
O65 Tb60 2.374 . S
O65 C61 1.251 . S
C66 O70 1.275 . S
C66 O71 1.246 . S
O67 C61 1.263 . S
O67 Tb62 2.353 . S
C68 O72 1.245 . S
C68 O73 1.259 . S
C69 O74 1.250 . S
C69 O75 1.263 . S
O70 Tb62 2.427 . S
O70 C66 1.275 . S
O71 Tb62 2.513 . S
O71 C66 1.246 . S
O72 Tb62 2.453 . S
O72 C68 1.245 . S
O73 Tb60 2.343 . S
O73 Tb62 2.596 . S
O73 C68 1.259 . S
O74 Tb62 2.374 . S
O74 C69 1.250 . S
O75 Tb60 2.353 . S
O75 C69 1.263 . S
C76 O77 1.275 . S
C76 O78 1.246 . S
O77 Tb60 2.427 . S
O77 C76 1.275 . S
O78 Tb60 2.513 . S
O78 C76 1.246 . S
C79 O63 1.245 . S
C79 O64 1.259 . S
Tb80 O83 2.453 . S
Tb80 O84 2.596 . S
Tb80 O85 2.374 . S
Tb80 O93 2.343 . S
Tb80 O95 2.353 . S
Tb80 O97 2.427 . S
Tb80 O98 2.513 . S
C81 O85 1.251 . S
C81 O87 1.263 . S
Tb82 O84 2.343 . S
Tb82 O87 2.353 . S
Tb82 O90 2.427 . S
Tb82 O91 2.513 . S
Tb82 O92 2.453 . S
Tb82 O93 2.596 . S
Tb82 O94 2.374 . S
O83 Tb80 2.453 . S
O83 C99 1.245 . S
O84 Tb80 2.596 . S
O84 Tb82 2.343 . S
O84 C99 1.259 . S
O85 Tb80 2.374 . S
O85 C81 1.251 . S
C86 O90 1.275 . S
C86 O91 1.246 . S
O87 C81 1.263 . S
O87 Tb82 2.353 . S
C88 O92 1.245 . S
C88 O93 1.259 . S
C89 O94 1.250 . S
C89 O95 1.263 . S
O90 Tb82 2.427 . S
O90 C86 1.275 . S
O91 Tb82 2.513 . S
O91 C86 1.246 . S
O92 Tb82 2.453 . S
O92 C88 1.245 . S
O93 Tb80 2.343 . S
O93 Tb82 2.596 . S
O93 C88 1.259 . S
O94 Tb82 2.374 . S
O94 C89 1.250 . S
O95 Tb80 2.353 . S
O95 C89 1.263 . S
C96 O97 1.275 . S
C96 O98 1.246 . S
O97 Tb80 2.427 . S
O97 C96 1.275 . S
O98 Tb80 2.513 . S
O98 C96 1.246 . S
C99 O83 1.245 . S
C99 O84 1.259 . S
Tb100 O103 2.453 . S
Tb100 O104 2.596 . S
Tb100 O105 2.374 . S
Tb100 O113 2.343 . S
Tb100 O115 2.353 . S
Tb100 O117 2.427 . S
Tb100 O118 2.513 . S
C101 O105 1.251 . S
C101 O107 1.263 . S
Tb102 O104 2.343 . S
Tb102 O107 2.353 . S
Tb102 O110 2.427 . S
Tb102 O111 2.513 . S
Tb102 O112 2.453 . S
Tb102 O113 2.596 . S
Tb102 O114 2.374 . S
O103 Tb100 2.453 . S
O103 C119 1.245 . S
O104 Tb100 2.596 . S
O104 Tb102 2.343 . S
O104 C119 1.259 . S
O105 Tb100 2.374 . S
O105 C101 1.251 . S
C106 O110 1.275 . S
C106 O111 1.246 . S
O107 C101 1.263 . S
O107 Tb102 2.353 . S
C108 O112 1.245 . S
C108 O113 1.259 . S
C109 O114 1.250 . S
C109 O115 1.263 . S
O110 Tb102 2.427 . S
O110 C106 1.275 . S
O111 Tb102 2.513 . S
O111 C106 1.246 . S
O112 Tb102 2.453 . S
O112 C108 1.245 . S
O113 Tb100 2.343 . S
O113 Tb102 2.596 . S
O113 C108 1.259 . S
O114 Tb102 2.374 . S
O114 C109 1.250 . S
O115 Tb100 2.353 . S
O115 C109 1.263 . S
C116 O117 1.275 . S
C116 O118 1.246 . S
O117 Tb100 2.427 . S
O117 C116 1.275 . S
O118 Tb100 2.513 . S
O118 C116 1.246 . S
C119 O103 1.245 . S
C119 O104 1.259 . S
Tb120 O123 2.453 . S
Tb120 O124 2.596 . S
Tb120 O125 2.374 . S
Tb120 O133 2.343 . S
Tb120 O135 2.353 . S
Tb120 O137 2.427 . S
Tb120 O138 2.513 . S
C121 O125 1.251 . S
C121 O127 1.263 . S
Tb122 O124 2.343 . S
Tb122 O127 2.353 . S
Tb122 O130 2.427 . S
Tb122 O131 2.513 . S
Tb122 O132 2.453 . S
Tb122 O133 2.596 . S
Tb122 O134 2.374 . S
O123 Tb120 2.453 . S
O123 C139 1.245 . S
O124 Tb120 2.596 . S
O124 Tb122 2.343 . S
O124 C139 1.259 . S
O125 Tb120 2.374 . S
O125 C121 1.251 . S
C126 O130 1.275 . S
C126 O131 1.246 . S
O127 C121 1.263 . S
O127 Tb122 2.353 . S
C128 O132 1.245 . S
C128 O133 1.259 . S
C129 O134 1.250 . S
C129 O135 1.263 . S
O130 Tb122 2.427 . S
O130 C126 1.275 . S
O131 Tb122 2.513 . S
O131 C126 1.246 . S
O132 Tb122 2.453 . S
O132 C128 1.245 . S
O133 Tb120 2.343 . S
O133 Tb122 2.596 . S
O133 C128 1.259 . S
O134 Tb122 2.374 . S
O134 C129 1.250 . S
O135 Tb120 2.353 . S
O135 C129 1.263 . S
C136 O137 1.275 . S
C136 O138 1.246 . S
O137 Tb120 2.427 . S
O137 C136 1.275 . S
O138 Tb120 2.513 . S
O138 C136 1.246 . S
C139 O123 1.245 . S
C139 O124 1.259 . S
Tb140 O143 2.453 . S
Tb140 O144 2.596 . S
Tb140 O145 2.374 . S
Tb140 O153 2.343 . S
Tb140 O155 2.353 . S
Tb140 O157 2.427 . S
Tb140 O158 2.513 . S
C141 O145 1.251 . S
C141 O147 1.263 . S
Tb142 O144 2.343 . S
Tb142 O147 2.353 . S
Tb142 O150 2.427 . S
Tb142 O151 2.513 . S
Tb142 O152 2.453 . S
Tb142 O153 2.596 . S
Tb142 O154 2.374 . S
O143 Tb140 2.453 . S
O143 C159 1.245 . S
O144 Tb140 2.596 . S
O144 Tb142 2.343 . S
O144 C159 1.259 . S
O145 Tb140 2.374 . S
O145 C141 1.251 . S
C146 O150 1.275 . S
C146 O151 1.246 . S
O147 C141 1.263 . S
O147 Tb142 2.353 . S
C148 O152 1.245 . S
C148 O153 1.259 . S
C149 O154 1.250 . S
C149 O155 1.263 . S
O150 Tb142 2.427 . S
O150 C146 1.275 . S
O151 Tb142 2.513 . S
O151 C146 1.246 . S
O152 Tb142 2.453 . S
O152 C148 1.245 . S
O153 Tb140 2.343 . S
O153 Tb142 2.596 . S
O153 C148 1.259 . S
O154 Tb142 2.374 . S
O154 C149 1.250 . S
O155 Tb140 2.353 . S
O155 C149 1.263 . S
C156 O157 1.275 . S
C156 O158 1.246 . S
O157 Tb140 2.427 . S
O157 C156 1.275 . S
O158 Tb140 2.513 . S
O158 C156 1.246 . S
C159 O143 1.245 . S
C159 O144 1.259 . S
Tb160 O163 2.453 . S
Tb160 O164 2.596 . S
Tb160 O165 2.374 . S
Tb160 O173 2.343 . S
Tb160 O175 2.353 . S
Tb160 O177 2.427 . S
Tb160 O178 2.513 . S
C161 O165 1.251 . S
C161 O167 1.263 . S
Tb162 O164 2.343 . S
Tb162 O167 2.353 . S
Tb162 O170 2.427 . S
Tb162 O171 2.513 . S
Tb162 O172 2.453 . S
Tb162 O173 2.596 . S
Tb162 O174 2.374 . S
O163 Tb160 2.453 . S
O163 C179 1.245 . S
O164 Tb160 2.596 . S
O164 Tb162 2.343 . S
O164 C179 1.259 . S
O165 Tb160 2.374 . S
O165 C161 1.251 . S
C166 O170 1.275 . S
C166 O171 1.246 . S
O167 C161 1.263 . S
O167 Tb162 2.353 . S
C168 O172 1.245 . S
C168 O173 1.259 . S
C169 O174 1.250 . S
C169 O175 1.263 . S
O170 Tb162 2.427 . S
O170 C166 1.275 . S
O171 Tb162 2.513 . S
O171 C166 1.246 . S
O172 Tb162 2.453 . S
O172 C168 1.245 . S
O173 Tb160 2.343 . S
O173 Tb162 2.596 . S
O173 C168 1.259 . S
O174 Tb162 2.374 . S
O174 C169 1.250 . S
O175 Tb160 2.353 . S
O175 C169 1.263 . S
C176 O177 1.275 . S
C176 O178 1.246 . S
O177 Tb160 2.427 . S
O177 C176 1.275 . S
O178 Tb160 2.513 . S
O178 C176 1.246 . S
C179 O163 1.245 . S
C179 O164 1.259 . S
Tb180 O183 2.453 . S
Tb180 O184 2.596 . S
Tb180 O185 2.374 . S
Tb180 O193 2.343 . S
Tb180 O195 2.353 . S
Tb180 O197 2.427 . S
Tb180 O198 2.513 . S
C181 O185 1.251 . S
C181 O187 1.263 . S
Tb182 O184 2.343 . S
Tb182 O187 2.353 . S
Tb182 O190 2.427 . S
Tb182 O191 2.513 . S
Tb182 O192 2.453 . S
Tb182 O193 2.596 . S
Tb182 O194 2.374 . S
O183 Tb180 2.453 . S
O183 C199 1.245 . S
O184 Tb180 2.596 . S
O184 Tb182 2.343 . S
O184 C199 1.259 . S
O185 Tb180 2.374 . S
O185 C181 1.251 . S
C186 O190 1.275 . S
C186 O191 1.246 . S
O187 C181 1.263 . S
O187 Tb182 2.353 . S
C188 O192 1.245 . S
C188 O193 1.259 . S
C189 O194 1.250 . S
C189 O195 1.263 . S
O190 Tb182 2.427 . S
O190 C186 1.275 . S
O191 Tb182 2.513 . S
O191 C186 1.246 . S
O192 Tb182 2.453 . S
O192 C188 1.245 . S
O193 Tb180 2.343 . S
O193 Tb182 2.596 . S
O193 C188 1.259 . S
O194 Tb182 2.374 . S
O194 C189 1.250 . S
O195 Tb180 2.353 . S
O195 C189 1.263 . S
C196 O197 1.275 . S
C196 O198 1.246 . S
O197 Tb180 2.427 . S
O197 C196 1.275 . S
O198 Tb180 2.513 . S
O198 C196 1.246 . S
C199 O183 1.245 . S
C199 O184 1.259 . S
Tb200 O203 2.453 . S
Tb200 O204 2.596 . S
Tb200 O205 2.374 . S
Tb200 O213 2.343 . S
Tb200 O215 2.353 . S
Tb200 O217 2.427 . S
Tb200 O218 2.513 . S
C201 O205 1.251 . S
C201 O207 1.263 . S
Tb202 O204 2.343 . S
Tb202 O207 2.353 . S
Tb202 O210 2.427 . S
Tb202 O211 2.513 . S
Tb202 O212 2.453 . S
Tb202 O213 2.596 . S
Tb202 O214 2.374 . S
O203 Tb200 2.453 . S
O203 C219 1.245 . S
O204 Tb200 2.596 . S
O204 Tb202 2.343 . S
O204 C219 1.259 . S
O205 Tb200 2.374 . S
O205 C201 1.251 . S
C206 O210 1.275 . S
C206 O211 1.246 . S
O207 C201 1.263 . S
O207 Tb202 2.353 . S
C208 O212 1.245 . S
C208 O213 1.259 . S
C209 O214 1.250 . S
C209 O215 1.263 . S
O210 Tb202 2.427 . S
O210 C206 1.275 . S
O211 Tb202 2.513 . S
O211 C206 1.246 . S
O212 Tb202 2.453 . S
O212 C208 1.245 . S
O213 Tb200 2.343 . S
O213 Tb202 2.596 . S
O213 C208 1.259 . S
O214 Tb202 2.374 . S
O214 C209 1.250 . S
O215 Tb200 2.353 . S
O215 C209 1.263 . S
C216 O217 1.275 . S
C216 O218 1.246 . S
O217 Tb200 2.427 . S
O217 C216 1.275 . S
O218 Tb200 2.513 . S
O218 C216 1.246 . S
C219 O203 1.245 . S
C219 O204 1.259 . S
Tb220 O223 2.453 . S
Tb220 O224 2.596 . S
Tb220 O225 2.374 . S
Tb220 O233 2.343 . S
Tb220 O235 2.353 . S
Tb220 O237 2.427 . S
Tb220 O238 2.513 . S
C221 O225 1.251 . S
C221 O227 1.263 . S
Tb222 O224 2.343 . S
Tb222 O227 2.353 . S
Tb222 O230 2.427 . S
Tb222 O231 2.513 . S
Tb222 O232 2.453 . S
Tb222 O233 2.596 . S
Tb222 O234 2.374 . S
O223 Tb220 2.453 . S
O223 C239 1.245 . S
O224 Tb220 2.596 . S
O224 Tb222 2.343 . S
O224 C239 1.259 . S
O225 Tb220 2.374 . S
O225 C221 1.251 . S
C226 O230 1.275 . S
C226 O231 1.246 . S
O227 C221 1.263 . S
O227 Tb222 2.353 . S
C228 O232 1.245 . S
C228 O233 1.259 . S
C229 O234 1.250 . S
C229 O235 1.263 . S
O230 Tb222 2.427 . S
O230 C226 1.275 . S
O231 Tb222 2.513 . S
O231 C226 1.246 . S
O232 Tb222 2.453 . S
O232 C228 1.245 . S
O233 Tb220 2.343 . S
O233 Tb222 2.596 . S
O233 C228 1.259 . S
O234 Tb222 2.374 . S
O234 C229 1.250 . S
O235 Tb220 2.353 . S
O235 C229 1.263 . S
C236 O237 1.275 . S
C236 O238 1.246 . S
O237 Tb220 2.427 . S
O237 C236 1.275 . S
O238 Tb220 2.513 . S
O238 C236 1.246 . S
C239 O223 1.245 . S
C239 O224 1.259 . S
C240 C241 1.363 . S
C240 C246 1.379 . S
C240 N248 1.356 . S
C241 C240 1.363 . S
C241 C247 1.363 . S
C242 C243 1.363 . S
C242 C247 1.379 . S
C242 N249 1.356 . S
C243 C242 1.363 . S
C243 C246 1.363 . S
N244 C246 1.356 . S
N244 H256 0.984 . S
N244 H257 0.985 . S
N245 C247 1.356 1_655 S
N245 H250 0.984 . S
N245 H251 0.985 . S
C246 C240 1.379 . S
C246 C243 1.363 . S
C246 N244 1.356 . S
C247 C241 1.363 . S
C247 C242 1.379 . S
C247 N245 1.356 1_455 S
N248 C240 1.356 . S
N248 H254 0.984 . S
N248 H255 0.984 1_455 S
N249 C242 1.356 . S
N249 H252 0.984 . S
N249 H253 0.985 . S
H250 N245 0.984 . S
H251 N245 0.985 . S
H252 N249 0.984 . S
H253 N249 0.985 . S
H254 N248 0.984 . S
H255 N248 0.984 1_655 S
H256 N244 0.984 . S
H257 N244 0.985 . S
C258 C259 1.363 . S
C258 C264 1.379 . S
C258 N266 1.356 . S
C259 C258 1.363 . S
C259 C265 1.363 . S
C260 C261 1.363 . S
C260 C265 1.379 . S
C260 N267 1.356 . S
C261 C260 1.363 . S
C261 C264 1.363 . S
N262 C264 1.356 . S
N262 H274 0.984 . S
N262 H275 0.985 . S
N263 C265 1.356 1_545 S
N263 H268 0.984 . S
N263 H269 0.985 . S
C264 C258 1.379 . S
C264 C261 1.363 . S
C264 N262 1.356 . S
C265 C259 1.363 . S
C265 C260 1.379 . S
C265 N263 1.356 1_565 S
N266 C258 1.356 . S
N266 H272 0.984 . S
N266 H273 0.984 1_565 S
N267 C260 1.356 . S
N267 H270 0.984 1_455 S
N267 H271 0.985 . S
H268 N263 0.984 . S
H269 N263 0.985 . S
H270 N267 0.984 1_655 S
H271 N267 0.985 . S
H272 N266 0.984 . S
H273 N266 0.984 1_545 S
H274 N262 0.984 . S
H275 N262 0.985 . S
C276 C277 1.363 . S
C276 C282 1.379 . S
C276 N284 1.356 . S
C277 C276 1.363 . S
C277 C283 1.363 . S
C278 C279 1.363 . S
C278 C283 1.379 . S
C278 N285 1.356 . S
C279 C278 1.363 . S
C279 C282 1.363 . S
N280 C282 1.356 . S
N280 H292 0.984 . S
N280 H293 0.985 . S
N281 C283 1.356 . S
N281 H286 0.984 1_565 S
N281 H287 0.985 . S
C282 C276 1.379 . S
C282 C279 1.363 . S
C282 N280 1.356 . S
C283 C277 1.363 . S
C283 C278 1.379 . S
C283 N281 1.356 . S
N284 C276 1.356 . S
N284 H290 0.984 . S
N284 H291 0.984 . S
N285 C278 1.356 . S
N285 H288 0.984 . S
N285 H289 0.985 . S
H286 N281 0.984 1_545 S
H287 N281 0.985 . S
H288 N285 0.984 . S
H289 N285 0.985 . S
H290 N284 0.984 . S
H291 N284 0.984 . S
H292 N280 0.984 . S
H293 N280 0.985 . S
C294 C295 1.363 . S
C294 C300 1.379 . S
C294 N302 1.356 . S
C295 C294 1.363 . S
C295 C301 1.363 . S
C296 C297 1.363 . S
C296 C301 1.379 . S
C296 N303 1.356 . S
C297 C296 1.363 . S
C297 C300 1.363 . S
N298 C300 1.356 1_655 S
N298 H310 0.984 . S
N298 H311 0.985 . S
N299 C301 1.356 . S
N299 H304 0.984 . S
N299 H305 0.985 . S
C300 C294 1.379 . S
C300 C297 1.363 . S
C300 N298 1.356 1_455 S
C301 C295 1.363 . S
C301 C296 1.379 . S
C301 N299 1.356 . S
N302 C294 1.356 . S
N302 H308 0.984 . S
N302 H309 0.984 . S
N303 C296 1.356 . S
N303 H306 0.984 1_455 S
N303 H307 0.985 . S
H304 N299 0.984 . S
H305 N299 0.985 . S
H306 N303 0.984 1_655 S
H307 N303 0.985 . S
H308 N302 0.984 . S
H309 N302 0.984 . S
H310 N298 0.984 . S
H311 N298 0.985 . S
C312 C313 1.363 . S
C312 C318 1.379 . S
C312 N320 1.356 . S
C313 C312 1.363 . S
C313 C319 1.363 . S
C314 C315 1.363 . S
C314 C319 1.379 . S
C314 N321 1.356 . S
C315 C314 1.363 . S
C315 C318 1.363 . S
N316 C318 1.356 . S
N316 H328 0.984 . S
N316 H329 0.996 . S
N317 C319 1.356 1_545 S
N317 H322 0.984 . S
N317 H323 0.985 . S
C318 C312 1.379 . S
C318 C315 1.363 . S
C318 N316 1.356 . S
C319 C313 1.363 . S
C319 C314 1.379 . S
C319 N317 1.356 1_565 S
N320 C312 1.356 . S
N320 H326 0.984 . S
N320 H327 0.984 1_565 S
N321 C314 1.356 . S
N321 H324 0.984 1_455 S
N321 H325 0.985 . S
H322 N317 0.984 . S
H323 N317 0.985 . S
H324 N321 0.984 1_655 S
H325 N321 0.985 . S
H326 N320 0.984 . S
H327 N320 0.984 1_545 S
H328 N316 0.984 . S
H329 N316 0.996 . S
C330 C331 1.363 . S
C330 C336 1.379 . S
C330 N338 1.356 . S
C331 C330 1.363 . S
C331 C337 1.363 . S
C332 C333 1.363 . S
C332 C337 1.379 . S
C332 N339 1.356 . S
C333 C332 1.363 . S
C333 C336 1.363 . S
N334 C336 1.356 . S
N334 H346 0.984 . S
N334 H347 0.985 . S
N335 C337 1.356 . S
N335 H340 0.984 . S
N335 H341 0.985 . S
C336 C330 1.379 . S
C336 C333 1.363 . S
C336 N334 1.356 . S
C337 C331 1.363 . S
C337 C332 1.379 . S
C337 N335 1.356 . S
N338 C330 1.356 . S
N338 H344 0.984 . S
N338 H345 0.984 . S
N339 C332 1.356 . S
N339 H342 0.984 1_565 S
N339 H343 0.985 . S
H340 N335 0.984 . S
H341 N335 0.985 . S
H342 N339 0.984 1_545 S
H343 N339 0.985 . S
H344 N338 0.984 . S
H345 N338 0.984 . S
H346 N334 0.984 . S
H347 N334 0.985 . S
C348 C349 1.363 . S
C348 C354 1.379 . S
C348 N356 1.356 . S
C349 C348 1.363 . S
C349 C355 1.363 . S
C350 C351 1.363 . S
C350 C355 1.379 . S
C350 N357 1.356 . S
C351 C350 1.363 . S
C351 C354 1.363 . S
N352 C354 1.356 . S
N352 H364 0.984 . S
N352 H365 0.985 . S
N353 C355 1.356 1_565 S
N353 H358 0.984 . S
N353 H359 0.985 . S
C354 C348 1.379 . S
C354 C351 1.363 . S
C354 N352 1.356 . S
C355 C349 1.363 . S
C355 C350 1.379 . S
C355 N353 1.356 1_545 S
N356 C348 1.356 . S
N356 H362 0.984 . S
N356 H363 0.984 1_545 S
N357 C350 1.356 . S
N357 H360 0.984 . S
N357 H361 0.985 . S
H358 N353 0.984 . S
H359 N353 0.985 . S
H360 N357 0.984 . S
H361 N357 0.985 . S
H362 N356 0.984 . S
H363 N356 0.984 1_565 S
H364 N352 0.984 . S
H365 N352 0.985 . S
C366 C367 1.363 . S
C366 C372 1.379 . S
C366 N374 1.356 . S
C367 C366 1.363 . S
C367 C373 1.363 . S
C368 C369 1.363 . S
C368 C373 1.379 . S
C368 N375 1.356 . S
C369 C368 1.363 . S
C369 C372 1.363 . S
N370 C372 1.356 . S
N370 H382 0.984 . S
N370 H383 0.985 . S
N371 C373 1.356 . S
N371 H376 0.984 . S
N371 H377 0.985 . S
C372 C366 1.379 . S
C372 C369 1.363 . S
C372 N370 1.356 . S
C373 C367 1.363 . S
C373 C368 1.379 . S
C373 N371 1.356 . S
N374 C366 1.356 . S
N374 H380 0.984 . S
N374 H381 0.984 1_655 S
N375 C368 1.356 . S
N375 H378 0.984 . S
N375 H379 0.985 . S
H376 N371 0.984 . S
H377 N371 0.985 . S
H378 N375 0.984 . S
H379 N375 0.985 . S
H380 N374 0.984 . S
H381 N374 0.984 1_455 S
H382 N370 0.984 . S
H383 N370 0.985 . S
C384 C385 1.363 . S
C384 C390 1.379 . S
C384 N392 1.356 . S
C385 C384 1.363 . S
C385 C391 1.363 . S
C386 C387 1.363 . S
C386 C391 1.379 . S
C386 N393 1.356 . S
C387 C386 1.363 . S
C387 C390 1.363 . S
N388 C390 1.356 1_455 S
N388 H400 0.984 . S
N388 H401 0.985 . S
N389 C391 1.356 . S
N389 H394 0.984 . S
N389 H395 0.985 . S
C390 C384 1.379 . S
C390 C387 1.363 . S
C390 N388 1.356 1_655 S
C391 C385 1.363 . S
C391 C386 1.379 . S
C391 N389 1.356 . S
N392 C384 1.356 . S
N392 H398 0.984 . S
N392 H399 0.984 1_545 S
N393 C386 1.356 . S
N393 H396 0.984 1_655 S
N393 H397 0.985 . S
H394 N389 0.984 . S
H395 N389 0.985 . S
H396 N393 0.984 1_455 S
H397 N393 0.985 . S
H398 N392 0.984 . S
H399 N392 0.984 1_565 S
H400 N388 0.984 . S
H401 N388 0.985 . S
C402 C403 1.363 . S
C402 C408 1.379 . S
C402 N410 1.356 . S
C403 C402 1.363 . S
C403 C409 1.363 . S
C404 C405 1.363 . S
C404 C409 1.379 . S
C404 N411 1.356 1_545 S
C405 C404 1.363 . S
C405 C408 1.363 . S
N406 C408 1.356 . S
N406 H418 0.984 . S
N406 H419 0.985 1_545 S
N407 C409 1.356 . S
N407 H412 0.984 . S
N407 H413 0.985 . S
C408 C402 1.379 . S
C408 C405 1.363 . S
C408 N406 1.356 . S
C409 C403 1.363 . S
C409 C404 1.379 . S
C409 N407 1.356 . S
N410 C402 1.356 . S
N410 H416 0.984 . S
N410 H417 0.984 . S
N411 C404 1.356 1_565 S
N411 H414 0.984 . S
N411 H415 0.985 . S
H412 N407 0.984 . S
H413 N407 0.985 . S
H414 N411 0.984 . S
H415 N411 0.985 . S
H416 N410 0.984 . S
H417 N410 0.984 . S
H418 N406 0.984 . S
H419 N406 0.985 1_565 S
C420 C421 1.363 . S
C420 C426 1.379 . S
C420 N428 1.356 . S
C421 C420 1.363 . S
C421 C427 1.363 . S
C422 C423 1.363 . S
C422 C427 1.379 . S
C422 N429 1.356 . S
C423 C422 1.363 . S
C423 C426 1.363 . S
N424 C426 1.356 . S
N424 H436 0.984 . S
N424 H437 0.985 . S
N425 C427 1.356 . S
N425 H430 0.984 1_655 S
N425 H431 0.985 . S
C426 C420 1.379 . S
C426 C423 1.363 . S
C426 N424 1.356 . S
C427 C421 1.363 . S
C427 C422 1.379 . S
C427 N425 1.356 . S
N428 C420 1.356 . S
N428 H434 0.984 . S
N428 H435 0.984 1_655 S
N429 C422 1.356 . S
N429 H432 0.984 . S
N429 H433 0.985 . S
H430 N425 0.984 1_455 S
H431 N425 0.985 . S
H432 N429 0.984 . S
H433 N429 0.985 . S
H434 N428 0.984 . S
H435 N428 0.984 1_455 S
H436 N424 0.984 . S
H437 N424 0.985 . S
C438 C439 1.363 . S
C438 C444 1.379 . S
C438 N446 1.356 . S
C439 C438 1.363 . S
C439 C445 1.363 . S
C440 C441 1.363 . S
C440 C445 1.379 . S
C440 N447 1.356 . S
C441 C440 1.363 . S
C441 C444 1.363 . S
N442 C444 1.356 . S
N442 H454 0.984 . S
N442 H455 0.980 1_545 S
N443 C445 1.356 1_455 S
N443 H448 0.984 . S
N443 H449 0.985 . S
C444 C438 1.379 . S
C444 C441 1.363 . S
C444 N442 1.356 . S
C445 C439 1.363 . S
C445 C440 1.379 . S
C445 N443 1.356 1_655 S
N446 C438 1.356 . S
N446 H452 0.984 . S
N446 H453 0.984 1_655 S
N447 C440 1.356 . S
N447 H450 0.984 1_545 S
N447 H451 0.985 . S
H448 N443 0.984 . S
H449 N443 0.985 . S
H450 N447 0.984 1_565 S
H451 N447 0.985 . S
H452 N446 0.984 . S
H453 N446 0.984 1_455 S
H454 N442 0.984 . S
H455 N442 0.980 1_565 S
C456 C457 1.363 . S
C456 C462 1.379 . S
C456 N464 1.356 . S
C457 C456 1.363 . S
C457 C463 1.363 . S
C458 C459 1.363 . S
C458 C463 1.379 . S
C458 N465 1.356 . S
C459 C458 1.363 . S
C459 C462 1.363 . S
N460 C462 1.356 . S
N460 H472 0.984 . S
N460 H473 0.985 . S
N461 C463 1.356 . S
N461 H466 0.984 . S
N461 H467 0.985 . S
C462 C456 1.379 . S
C462 C459 1.363 . S
C462 N460 1.356 . S
C463 C457 1.363 . S
C463 C458 1.379 . S
C463 N461 1.356 . S
N464 C456 1.356 . S
N464 H470 0.984 . S
N464 H471 0.984 . S
N465 C458 1.356 . S
N465 H468 0.984 . S
N465 H469 0.985 . S
H466 N461 0.984 . S
H467 N461 0.985 . S
H468 N465 0.984 . S
H469 N465 0.985 . S
H470 N464 0.984 . S
H471 N464 0.984 . S
H472 N460 0.984 . S
H473 N460 0.985 . S
C474 C475 1.363 . S
C474 C480 1.379 . S
C474 N482 1.356 . S
C475 C474 1.363 . S
C475 C481 1.363 . S
C476 C477 1.363 . S
C476 C481 1.379 . S
C476 N483 1.356 . S
C477 C476 1.363 . S
C477 C480 1.363 . S
N478 C480 1.356 . S
N478 H490 0.984 . S
N478 H491 0.985 . S
N479 C481 1.356 . S
N479 H484 0.984 . S
N479 H485 0.985 . S
C480 C474 1.379 . S
C480 C477 1.363 . S
C480 N478 1.356 . S
C481 C475 1.363 . S
C481 C476 1.379 . S
C481 N479 1.356 . S
N482 C474 1.356 . S
N482 H488 0.984 . S
N482 H489 0.984 . S
N483 C476 1.356 . S
N483 H486 0.984 . S
N483 H487 0.985 . S
H484 N479 0.984 . S
H485 N479 0.985 . S
H486 N483 0.984 . S
H487 N483 0.985 . S
H488 N482 0.984 . S
H489 N482 0.984 . S
H490 N478 0.984 . S
H491 N478 0.985 . S
C492 C493 1.363 . S
C492 C498 1.379 . S
C492 N500 1.356 . S
C493 C492 1.363 . S
C493 C499 1.363 . S
C494 C495 1.363 . S
C494 C499 1.379 . S
C494 N501 1.356 . S
C495 C494 1.363 . S
C495 C498 1.363 . S
N496 C498 1.356 . S
N496 H508 0.984 . S
N496 H509 0.985 . S
N497 C499 1.356 . S
N497 H502 0.984 . S
N497 H503 0.985 . S
C498 C492 1.379 . S
C498 C495 1.363 . S
C498 N496 1.356 . S
C499 C493 1.363 . S
C499 C494 1.379 . S
C499 N497 1.356 . S
N500 C492 1.356 . S
N500 H506 0.984 . S
N500 H507 0.984 . S
N501 C494 1.356 . S
N501 H504 0.984 . S
N501 H505 0.985 . S
H502 N497 0.984 . S
H503 N497 0.985 . S
H504 N501 0.984 . S
H505 N501 0.985 . S
H506 N500 0.984 . S
H507 N500 0.984 . S
H508 N496 0.984 . S
H509 N496 0.985 . S
C510 C511 1.363 . S
C510 C516 1.379 . S
C510 N518 1.356 . S
C511 C510 1.363 . S
C511 C517 1.363 . S
C512 C513 1.363 . S
C512 C517 1.379 . S
C512 N519 1.356 . S
C513 C512 1.363 . S
C513 C516 1.363 . S
N514 C516 1.356 . S
N514 H526 0.984 . S
N514 H527 0.985 . S
N515 C517 1.356 . S
N515 H520 0.984 . S
N515 H521 0.985 . S
C516 C510 1.379 . S
C516 C513 1.363 . S
C516 N514 1.356 . S
C517 C511 1.363 . S
C517 C512 1.379 . S
C517 N515 1.356 . S
N518 C510 1.356 . S
N518 H524 0.984 . S
N518 H525 0.984 . S
N519 C512 1.356 . S
N519 H522 0.984 . S
N519 H523 0.985 . S
H520 N515 0.984 . S
H521 N515 0.985 . S
H522 N519 0.984 . S
H523 N519 0.985 . S
H524 N518 0.984 . S
H525 N518 0.984 . S
H526 N514 0.984 . S
H527 N514 0.985 . S
C528 C529 1.363 . S
C528 C534 1.379 . S
C528 N536 1.356 . S
C529 C528 1.363 . S
C529 C535 1.363 . S
C530 C531 1.363 . S
C530 C535 1.379 . S
C530 N537 1.356 . S
C531 C530 1.363 . S
C531 C534 1.363 . S
N532 C534 1.356 . S
N532 H544 0.984 . S
N532 H545 0.985 . S
N533 C535 1.356 . S
N533 H538 0.984 . S
N533 H539 0.985 . S
C534 C528 1.379 . S
C534 C531 1.363 . S
C534 N532 1.356 . S
C535 C529 1.363 . S
C535 C530 1.379 . S
C535 N533 1.356 . S
N536 C528 1.356 . S
N536 H542 0.984 . S
N536 H543 0.984 . S
N537 C530 1.356 . S
N537 H540 0.984 . S
N537 H541 0.985 . S
H538 N533 0.984 . S
H539 N533 0.985 . S
H540 N537 0.984 . S
H541 N537 0.985 . S
H542 N536 0.984 . S
H543 N536 0.984 . S
H544 N532 0.984 . S
H545 N532 0.985 . S
C546 C547 1.363 . S
C546 C552 1.379 . S
C546 N554 1.356 . S
C547 C546 1.363 . S
C547 C553 1.363 . S
C548 C549 1.363 . S
C548 C553 1.379 . S
C548 N555 1.356 . S
C549 C548 1.363 . S
C549 C552 1.363 . S
N550 C552 1.356 . S
N550 H562 0.984 . S
N550 H563 0.985 . S
N551 C553 1.356 . S
N551 H556 0.984 . S
N551 H557 0.985 . S
C552 C546 1.379 . S
C552 C549 1.363 . S
C552 N550 1.356 . S
C553 C547 1.363 . S
C553 C548 1.379 . S
C553 N551 1.356 . S
N554 C546 1.356 . S
N554 H560 0.984 . S
N554 H561 0.984 . S
N555 C548 1.356 . S
N555 H558 0.984 . S
N555 H559 0.985 . S
H556 N551 0.984 . S
H557 N551 0.985 . S
H558 N555 0.984 . S
H559 N555 0.985 . S
H560 N554 0.984 . S
H561 N554 0.984 . S
H562 N550 0.984 . S
H563 N550 0.985 . S
C564 C565 1.363 1_554 S
C564 C570 1.379 . S
C564 N572 1.356 . S
C565 C564 1.363 1_556 S
C565 C571 1.363 1_565 S
C566 C567 1.363 1_556 S
C566 C571 1.379 . S
C566 N573 1.356 . S
C567 C566 1.363 1_554 S
C567 C570 1.363 1_545 S
N568 C570 1.356 1_545 S
N568 H580 0.984 1_545 S
N568 H581 0.985 . S
N569 C571 1.356 1_565 S
N569 H574 0.984 . S
N569 H575 0.985 1_565 S
C570 C564 1.379 . S
C570 C567 1.363 1_565 S
C570 N568 1.356 1_565 S
C571 C565 1.363 1_545 S
C571 C566 1.379 . S
C571 N569 1.356 1_545 S
N572 C564 1.356 . S
N572 H578 0.984 . S
N572 H579 0.984 1_554 S
N573 C566 1.356 . S
N573 H576 0.984 1_556 S
N573 H577 0.985 . S
H574 N569 0.984 . S
H575 N569 0.985 1_545 S
H576 N573 0.984 1_554 S
H577 N573 0.985 . S
H578 N572 0.984 . S
H579 N572 0.984 1_556 S
H580 N568 0.984 1_565 S
H581 N568 0.985 . S
C582 C583 1.363 . S
C582 C588 1.379 . S
C582 N590 1.356 . S
C583 C582 1.363 . S
C583 C589 1.363 . S
C584 C585 1.363 . S
C584 C589 1.379 . S
C584 N591 1.356 . S
C585 C584 1.363 . S
C585 C588 1.363 . S
N586 C588 1.356 . S
N586 H598 0.984 . S
N586 H599 0.985 . S
N587 C589 1.356 . S
N587 H592 0.984 . S
N587 H593 0.985 . S
C588 C582 1.379 . S
C588 C585 1.363 . S
C588 N586 1.356 . S
C589 C583 1.363 . S
C589 C584 1.379 . S
C589 N587 1.356 . S
N590 C582 1.356 . S
N590 H596 0.984 . S
N590 H597 0.984 . S
N591 C584 1.356 . S
N591 H594 0.984 . S
N591 H595 0.985 . S
H592 N587 0.984 . S
H593 N587 0.985 . S
H594 N591 0.984 . S
H595 N591 0.985 . S
H596 N590 0.984 . S
H597 N590 0.984 . S
H598 N586 0.984 . S
H599 N586 0.985 . S
C600 C601 1.363 1_554 S
C600 C606 1.379 1_455 S
C600 N608 1.356 . S
C601 C600 1.363 1_556 S
C601 C607 1.363 . S
C602 C603 1.363 1_556 S
C602 C607 1.379 1_655 S
C602 N609 1.356 . S
C603 C602 1.363 1_554 S
C603 C606 1.363 . S
N604 C606 1.356 . S
N604 H616 0.984 . S
N604 H617 0.985 . S
N605 C607 1.356 . S
N605 H610 0.984 . S
N605 H611 0.985 . S
C606 C600 1.379 1_655 S
C606 C603 1.363 . S
C606 N604 1.356 . S
C607 C601 1.363 . S
C607 C602 1.379 1_455 S
C607 N605 1.356 . S
N608 C600 1.356 . S
N608 H614 0.984 . S
N608 H615 0.984 1_554 S
N609 C602 1.356 . S
N609 H612 0.984 1_556 S
N609 H613 0.985 . S
H610 N605 0.984 . S
H611 N605 0.985 . S
H612 N609 0.984 1_554 S
H613 N609 0.985 . S
H614 N608 0.984 . S
H615 N608 0.984 1_556 S
H616 N604 0.984 . S
H617 N604 0.985 . S
C618 C619 1.363 . S
C618 C624 1.379 1_545 S
C618 N626 1.356 . S
C619 C618 1.363 . S
C619 C625 1.363 . S
C620 C621 1.363 . S
C620 C625 1.379 1_565 S
C620 N627 1.356 . S
C621 C620 1.363 . S
C621 C624 1.363 . S
N622 C624 1.356 . S
N622 H634 0.983 1_565 S
N622 H635 0.985 . S
N623 C625 1.356 . S
N623 H628 0.984 . S
N623 H629 0.983 1_545 S
C624 C618 1.379 1_565 S
C624 C621 1.363 . S
C624 N622 1.356 . S
C625 C619 1.363 . S
C625 C620 1.379 1_545 S
C625 N623 1.356 . S
N626 C618 1.356 . S
N626 H632 0.984 . S
N626 H633 0.984 . S
N627 C620 1.356 . S
N627 H630 0.984 . S
N627 H631 0.985 . S
H628 N623 0.984 . S
H629 N623 0.983 1_565 S
H630 N627 0.984 . S
H631 N627 0.985 . S
H632 N626 0.984 . S
H633 N626 0.984 . S
H634 N622 0.983 1_545 S
H635 N622 0.985 . S
C636 C637 1.363 . S
C636 C642 1.379 1_554 S
C636 N644 1.356 . S
C637 C636 1.363 . S
C637 C643 1.363 . S
C638 C639 1.363 . S
C638 C643 1.379 1_556 S
C638 N645 1.356 . S
C639 C638 1.363 . S
C639 C642 1.363 . S
N640 C642 1.356 . S
N640 H652 0.984 . S
N640 H653 0.985 . S
N641 C643 1.356 . S
N641 H646 0.984 . S
N641 H647 0.985 . S
C642 C636 1.379 1_556 S
C642 C639 1.363 . S
C642 N640 1.356 . S
C643 C637 1.363 . S
C643 C638 1.379 1_554 S
C643 N641 1.356 . S
N644 C636 1.356 . S
N644 H650 0.984 . S
N644 H651 0.984 . S
N645 C638 1.356 . S
N645 H648 0.984 . S
N645 H649 0.985 . S
H646 N641 0.984 . S
H647 N641 0.985 . S
H648 N645 0.984 . S
H649 N645 0.985 . S
H650 N644 0.984 . S
H651 N644 0.984 . S
H652 N640 0.984 . S
H653 N640 0.985 . S
C654 C655 1.363 . S
C654 C660 1.379 1_455 S
C654 N662 1.356 . S
C655 C654 1.363 . S
C655 C661 1.363 . S
C656 C657 1.363 . S
C656 C661 1.379 1_655 S
C656 N663 1.356 . S
C657 C656 1.363 . S
C657 C660 1.363 . S
N658 C660 1.356 . S
N658 H670 0.984 . S
N658 H671 0.985 . S
N659 C661 1.356 . S
N659 H664 0.984 . S
N659 H665 0.985 . S
C660 C654 1.379 1_655 S
C660 C657 1.363 . S
C660 N658 1.356 . S
C661 C655 1.363 . S
C661 C656 1.379 1_455 S
C661 N659 1.356 . S
N662 C654 1.356 . S
N662 H668 0.984 1_455 S
N662 H669 0.984 . S
N663 C656 1.356 . S
N663 H666 0.984 . S
N663 H667 0.985 1_655 S
H664 N659 0.984 . S
H665 N659 0.985 . S
H666 N663 0.984 . S
H667 N663 0.985 1_455 S
H668 N662 0.984 1_655 S
H669 N662 0.984 . S
H670 N658 0.984 . S
H671 N658 0.985 . S
C672 C673 1.363 . S
C672 C678 1.379 . S
C672 N680 1.356 . S
C673 C672 1.363 . S
C673 C679 1.363 . S
C674 C675 1.363 . S
C674 C679 1.379 . S
C674 N681 1.356 . S
C675 C674 1.363 . S
C675 C678 1.363 . S
N676 C678 1.356 . S
N676 H688 0.984 . S
N676 H689 0.985 . S
N677 C679 1.356 . S
N677 H682 0.984 . S
N677 H683 0.985 . S
C678 C672 1.379 . S
C678 C675 1.363 . S
C678 N676 1.356 . S
C679 C673 1.363 . S
C679 C674 1.379 . S
C679 N677 1.356 . S
N680 C672 1.356 . S
N680 H686 0.984 . S
N680 H687 0.984 . S
N681 C674 1.356 . S
N681 H684 0.984 . S
N681 H685 0.985 . S
H682 N677 0.984 . S
H683 N677 0.985 . S
H684 N681 0.984 . S
H685 N681 0.985 . S
H686 N680 0.984 . S
H687 N680 0.984 . S
H688 N676 0.984 . S
H689 N676 0.985 . S
C690 C691 1.363 . S
C690 C696 1.379 . S
C690 N698 1.356 . S
C691 C690 1.363 . S
C691 C697 1.363 . S
C692 C693 1.363 . S
C692 C697 1.379 . S
C692 N699 1.356 . S
C693 C692 1.363 . S
C693 C696 1.363 . S
N694 C696 1.356 . S
N694 H706 0.984 . S
N694 H707 0.985 . S
N695 C697 1.356 . S
N695 H700 0.984 . S
N695 H701 0.985 . S
C696 C690 1.379 . S
C696 C693 1.363 . S
C696 N694 1.356 . S
C697 C691 1.363 . S
C697 C692 1.379 . S
C697 N695 1.356 . S
N698 C690 1.356 . S
N698 H704 0.984 . S
N698 H705 0.984 . S
N699 C692 1.356 . S
N699 H702 0.984 . S
N699 H703 0.985 . S
H700 N695 0.984 . S
H701 N695 0.985 . S
H702 N699 0.984 . S
H703 N699 0.985 . S
H704 N698 0.984 . S
H705 N698 0.984 . S
H706 N694 0.984 . S
H707 N694 0.985 . S
C708 C709 1.363 . S
C708 C714 1.379 . S
C708 N716 1.356 . S
C709 C708 1.363 . S
C709 C715 1.363 . S
C710 C711 1.363 . S
C710 C715 1.379 . S
C710 N717 1.356 . S
C711 C710 1.363 . S
C711 C714 1.363 . S
N712 C714 1.356 . S
N712 H724 0.984 . S
N712 H725 0.985 . S
N713 C715 1.356 . S
N713 H718 0.984 . S
N713 H719 0.985 . S
C714 C708 1.379 . S
C714 C711 1.363 . S
C714 N712 1.356 . S
C715 C709 1.363 . S
C715 C710 1.379 . S
C715 N713 1.356 . S
N716 C708 1.356 . S
N716 H722 0.984 . S
N716 H723 0.984 . S
N717 C710 1.356 . S
N717 H720 0.984 . S
N717 H721 0.985 . S
H718 N713 0.984 . S
H719 N713 0.985 . S
H720 N717 0.984 . S
H721 N717 0.985 . S
H722 N716 0.984 . S
H723 N716 0.984 . S
H724 N712 0.984 . S
H725 N712 0.985 . S
C726 C727 1.363 . S
C726 C732 1.379 . S
C726 N734 1.356 . S
C727 C726 1.363 . S
C727 C733 1.363 . S
C728 C729 1.363 . S
C728 C733 1.379 . S
C728 N735 1.356 . S
C729 C728 1.363 . S
C729 C732 1.363 . S
N730 C732 1.356 . S
N730 H742 0.984 . S
N730 H743 0.985 . S
N731 C733 1.356 . S
N731 H736 0.984 . S
N731 H737 0.985 . S
C732 C726 1.379 . S
C732 C729 1.363 . S
C732 N730 1.356 . S
C733 C727 1.363 . S
C733 C728 1.379 . S
C733 N731 1.356 . S
N734 C726 1.356 . S
N734 H740 0.984 . S
N734 H741 0.984 . S
N735 C728 1.356 . S
N735 H738 0.984 . S
N735 H739 0.985 . S
H736 N731 0.984 . S
H737 N731 0.985 . S
H738 N735 0.984 . S
H739 N735 0.985 . S
H740 N734 0.984 . S
H741 N734 0.984 . S
H742 N730 0.984 . S
H743 N730 0.985 . S
C744 C745 1.363 . S
C744 C750 1.379 . S
C744 N752 1.356 . S
C745 C744 1.363 . S
C745 C751 1.363 . S
C746 C747 1.363 . S
C746 C751 1.379 . S
C746 N753 1.356 . S
C747 C746 1.363 . S
C747 C750 1.363 . S
N748 C750 1.356 . S
N748 H760 0.984 . S
N748 H761 0.985 . S
N749 C751 1.356 . S
N749 H754 0.984 . S
N749 H755 0.985 . S
C750 C744 1.379 . S
C750 C747 1.363 . S
C750 N748 1.356 . S
C751 C745 1.363 . S
C751 C746 1.379 . S
C751 N749 1.356 . S
N752 C744 1.356 . S
N752 H758 0.984 . S
N752 H759 0.984 . S
N753 C746 1.356 . S
N753 H756 0.984 . S
N753 H757 0.985 . S
H754 N749 0.984 . S
H755 N749 0.985 . S
H756 N753 0.984 . S
H757 N753 0.985 . S
H758 N752 0.984 . S
H759 N752 0.984 . S
H760 N748 0.984 . S
H761 N748 0.985 . S
C762 C763 1.363 . S
C762 C768 1.379 . S
C762 N770 1.356 . S
C763 C762 1.363 . S
C763 C769 1.363 . S
C764 C765 1.363 . S
C764 C769 1.379 . S
C764 N771 1.356 . S
C765 C764 1.363 . S
C765 C768 1.363 . S
N766 C768 1.356 . S
N766 H778 0.984 . S
N766 H779 0.985 . S
N767 C769 1.356 . S
N767 H772 0.984 . S
N767 H773 0.985 . S
C768 C762 1.379 . S
C768 C765 1.363 . S
C768 N766 1.356 . S
C769 C763 1.363 . S
C769 C764 1.379 . S
C769 N767 1.356 . S
N770 C762 1.356 . S
N770 H776 0.984 . S
N770 H777 0.984 . S
N771 C764 1.356 . S
N771 H774 0.984 . S
N771 H775 0.985 . S
H772 N767 0.984 . S
H773 N767 0.985 . S
H774 N771 0.984 . S
H775 N771 0.985 . S
H776 N770 0.984 . S
H777 N770 0.984 . S
H778 N766 0.984 . S
H779 N766 0.985 . S
C780 C781 1.363 . S
C780 C786 1.379 . S
C780 N788 1.356 . S
C781 C780 1.363 . S
C781 C787 1.363 . S
C782 C783 1.363 . S
C782 C787 1.379 . S
C782 N789 1.356 . S
C783 C782 1.363 . S
C783 C786 1.363 . S
N784 C786 1.356 . S
N784 H796 0.984 . S
N784 H797 0.985 . S
N785 C787 1.356 . S
N785 H790 0.984 . S
N785 H791 0.985 . S
C786 C780 1.379 . S
C786 C783 1.363 . S
C786 N784 1.356 . S
C787 C781 1.363 . S
C787 C782 1.379 . S
C787 N785 1.356 . S
N788 C780 1.356 . S
N788 H794 0.984 . S
N788 H795 0.984 . S
N789 C782 1.356 . S
N789 H792 0.984 . S
N789 H793 0.985 . S
H790 N785 0.984 . S
H791 N785 0.985 . S
H792 N789 0.984 . S
H793 N789 0.985 . S
H794 N788 0.984 . S
H795 N788 0.984 . S
H796 N784 0.984 . S
H797 N784 0.985 . S
C798 C799 1.363 . S
C798 C804 1.379 . S
C798 N806 1.356 . S
C799 C798 1.363 . S
C799 C805 1.363 . S
C800 C801 1.363 . S
C800 C805 1.379 . S
C800 N807 1.356 . S
C801 C800 1.363 . S
C801 C804 1.363 . S
N802 C804 1.356 . S
N802 H814 0.984 . S
N802 H815 0.985 . S
N803 C805 1.356 . S
N803 H808 0.984 . S
N803 H809 0.985 . S
C804 C798 1.379 . S
C804 C801 1.363 . S
C804 N802 1.356 . S
C805 C799 1.363 . S
C805 C800 1.379 . S
C805 N803 1.356 . S
N806 C798 1.356 . S
N806 H812 0.984 . S
N806 H813 0.984 . S
N807 C800 1.356 . S
N807 H810 0.984 . S
N807 H811 0.985 . S
H808 N803 0.984 . S
H809 N803 0.985 . S
H810 N807 0.984 . S
H811 N807 0.985 . S
H812 N806 0.984 . S
H813 N806 0.984 . S
H814 N802 0.984 . S
H815 N802 0.985 . S
C816 C817 1.363 . S
C816 C822 1.379 . S
C816 N824 1.356 . S
C817 C816 1.363 . S
C817 C823 1.363 . S
C818 C819 1.363 . S
C818 C823 1.379 . S
C818 N825 1.356 . S
C819 C818 1.363 . S
C819 C822 1.363 . S
N820 C822 1.356 . S
N820 H832 0.984 . S
N820 H833 0.985 . S
N821 C823 1.356 . S
N821 H826 0.984 . S
N821 H827 0.985 . S
C822 C816 1.379 . S
C822 C819 1.363 . S
C822 N820 1.356 . S
C823 C817 1.363 . S
C823 C818 1.379 . S
C823 N821 1.356 . S
N824 C816 1.356 . S
N824 H830 0.984 . S
N824 H831 0.984 . S
N825 C818 1.356 . S
N825 H828 0.984 . S
N825 H829 0.985 . S
H826 N821 0.984 . S
H827 N821 0.985 . S
H828 N825 0.984 . S
H829 N825 0.985 . S
H830 N824 0.984 . S
H831 N824 0.984 . S
H832 N820 0.984 . S
H833 N820 0.985 . S
C834 C835 1.363 . S
C834 C840 1.379 . S
C834 N842 1.356 . S
C835 C834 1.363 . S
C835 C841 1.363 . S
C836 C837 1.363 . S
C836 C841 1.379 . S
C836 N843 1.356 . S
C837 C836 1.363 . S
C837 C840 1.363 . S
N838 C840 1.356 . S
N838 H850 0.984 . S
N838 H851 0.985 . S
N839 C841 1.356 . S
N839 H844 0.984 . S
N839 H845 0.985 . S
C840 C834 1.379 . S
C840 C837 1.363 . S
C840 N838 1.356 . S
C841 C835 1.363 . S
C841 C836 1.379 . S
C841 N839 1.356 . S
N842 C834 1.356 . S
N842 H848 0.984 . S
N842 H849 0.984 . S
N843 C836 1.356 . S
N843 H846 0.984 . S
N843 H847 0.985 . S
H844 N839 0.984 . S
H845 N839 0.985 . S
H846 N843 0.984 . S
H847 N843 0.985 . S
H848 N842 0.984 . S
H849 N842 0.984 . S
H850 N838 0.984 . S
H851 N838 0.985 . S
C852 C853 1.363 . S
C852 C858 1.379 . S
C852 N860 1.356 . S
C853 C852 1.363 . S
C853 C859 1.363 . S
C854 C855 1.363 . S
C854 C859 1.379 . S
C854 N861 1.356 . S
C855 C854 1.363 . S
C855 C858 1.363 . S
N856 C858 1.356 . S
N856 H868 0.984 . S
N856 H869 0.985 . S
N857 C859 1.356 . S
N857 H862 0.984 . S
N857 H863 0.985 . S
C858 C852 1.379 . S
C858 C855 1.363 . S
C858 N856 1.356 . S
C859 C853 1.363 . S
C859 C854 1.379 . S
C859 N857 1.356 . S
N860 C852 1.356 . S
N860 H866 0.984 . S
N860 H867 0.984 . S
N861 C854 1.356 . S
N861 H864 0.984 . S
N861 H865 0.985 . S
H862 N857 0.984 . S
H863 N857 0.985 . S
H864 N861 0.984 . S
H865 N861 0.985 . S
H866 N860 0.984 . S
H867 N860 0.984 . S
H868 N856 0.984 . S
H869 N856 0.985 . S
C870 C871 1.363 . S
C870 C876 1.379 . S
C870 N878 1.356 . S
C871 C870 1.363 . S
C871 C877 1.363 . S
C872 C873 1.363 . S
C872 C877 1.379 . S
C872 N879 1.356 . S
C873 C872 1.363 . S
C873 C876 1.363 . S
N874 C876 1.356 . S
N874 H886 0.984 . S
N874 H887 0.985 . S
N875 C877 1.356 . S
N875 H880 0.984 . S
N875 H881 0.985 . S
C876 C870 1.379 . S
C876 C873 1.363 . S
C876 N874 1.356 . S
C877 C871 1.363 . S
C877 C872 1.379 . S
C877 N875 1.356 . S
N878 C870 1.356 . S
N878 H884 0.984 . S
N878 H885 0.984 . S
N879 C872 1.356 . S
N879 H882 0.984 . S
N879 H883 0.985 . S
H880 N875 0.984 . S
H881 N875 0.985 . S
H882 N879 0.984 . S
H883 N879 0.985 . S
H884 N878 0.984 . S
H885 N878 0.984 . S
H886 N874 0.984 . S
H887 N874 0.985 . S
C241 C59 1.418 1_455 S
C243 C6 1.380 . S
C259 C68 1.418 1_565 S
C261 C36 1.380 1_455 S
C277 C46 1.380 1_565 S
C279 C99 1.418 . S
C295 C76 1.380 . S
C297 C108 1.418 1_455 S
C313 C19 1.418 1_565 S
C315 C86 1.380 1_455 S
C331 C28 1.418 . S
C333 C116 1.380 1_565 S
C349 C208 1.418 1_545 S
C351 C136 1.380 . S
C367 C146 1.380 1_655 S
C369 C239 1.418 . S
C385 C176 1.380 1_545 S
C387 C128 1.418 1_655 S
C403 C186 1.380 . S
C405 C159 1.418 1_545 S
C421 C216 1.380 1_655 S
C423 C168 1.418 . S
C439 C199 1.418 1_655 S
C441 C226 1.380 1_545 S
C457 C61 1.719 . S
C459 C9 1.719 . S
C475 C21 1.719 . S
C477 C89 1.719 . S
C493 C49 1.719 . S
C495 C101 1.719 . S
C511 C121 1.719 . S
C513 C189 1.719 . S
C529 C149 1.719 . S
C531 C201 1.719 . S
C547 C161 1.719 . S
C549 C229 1.719 . S
C565 C141 1.948 . S
C567 C1 1.948 . S
C583 C29 1.948 . S
C585 C169 1.948 . S
C601 C181 1.948 . S
C603 C41 1.948 . S
C619 C69 1.948 . S
C621 C209 1.948 . S
C637 C81 1.948 . S
C639 C221 1.948 . S
C655 C129 1.948 . S
C657 C109 1.948 . S
C673 C48 1.478 . S
C675 C16 1.558 . S
C691 C26 1.558 . S
C693 C79 1.478 . S
C709 C56 1.558 . S
C711 C88 1.478 . S
C727 C66 1.558 . S
C729 C119 1.478 . S
C745 C8 1.478 . S
C747 C96 1.558 . S
C763 C39 1.478 . S
C765 C106 1.558 . S
C781 C219 1.478 . S
C783 C126 1.558 . S
C799 C156 1.558 . S
C801 C228 1.478 . S
C817 C166 1.558 . S
C819 C139 1.478 . S
C835 C148 1.478 . S
C837 C196 1.558 . S
C853 C206 1.558 . S
C855 C179 1.478 . S
C871 C236 1.558 . S
C873 C188 1.478 . S
