# Generated by pormake.
# Topology wiu, (6)-cn, num edge types: 1
# Building blocks:
#     Node 0, Type 0, BuildingBlock: BETFAJ_clean_sbu_0, # of connection points: 6
#     Node 1, Type 0, BuildingBlock: BETFAJ_clean_sbu_0, # of connection points: 6
#     Node 2, Type 0, BuildingBlock: BETFAJ_clean_sbu_0, # of connection points: 6
#     Node 3, Type 0, BuildingBlock: BETFAJ_clean_sbu_0, # of connection points: 6
#     Node 4, Type 0, BuildingBlock: BETFAJ_clean_sbu_0, # of connection points: 6
#     Node 5, Type 0, BuildingBlock: BETFAJ_clean_sbu_0, # of connection points: 6
#     Node 6, Type 0, BuildingBlock: BETFAJ_clean_sbu_0, # of connection points: 6
#     Node 7, Type 0, BuildingBlock: BETFAJ_clean_sbu_0, # of connection points: 6
#     Node 8, Type 0, BuildingBlock: BETFAJ_clean_sbu_0, # of connection points: 6
#     Node 9, Type 0, BuildingBlock: BETFAJ_clean_sbu_0, # of connection points: 6
#     Node 10, Type 0, BuildingBlock: BETFAJ_clean_sbu_0, # of connection points: 6
#     Node 11, Type 0, BuildingBlock: BETFAJ_clean_sbu_0, # of connection points: 6
#     Node 12, Type 0, BuildingBlock: BETFAJ_clean_sbu_0, # of connection points: 6
#     Node 13, Type 0, BuildingBlock: BETFAJ_clean_sbu_0, # of connection points: 6
#     Node 14, Type 0, BuildingBlock: BETFAJ_clean_sbu_0, # of connection points: 6
#     Node 15, Type 0, BuildingBlock: BETFAJ_clean_sbu_0, # of connection points: 6
#     Edge 16, Type (0, 0), BuildingBlock: XUDNAN_clean_linker_2, # of connection points: 2
#     Edge 17, Type (0, 0), BuildingBlock: XUDNAN_clean_linker_2, # of connection points: 2
#     Edge 18, Type (0, 0), BuildingBlock: XUDNAN_clean_linker_2, # of connection points: 2
#     Edge 19, Type (0, 0), BuildingBlock: XUDNAN_clean_linker_2, # of connection points: 2
#     Edge 20, Type (0, 0), BuildingBlock: XUDNAN_clean_linker_2, # of connection points: 2
#     Edge 21, Type (0, 0), BuildingBlock: XUDNAN_clean_linker_2, # of connection points: 2
#     Edge 22, Type (0, 0), BuildingBlock: XUDNAN_clean_linker_2, # of connection points: 2
#     Edge 23, Type (0, 0), BuildingBlock: XUDNAN_clean_linker_2, # of connection points: 2
#     Edge 24, Type (0, 0), BuildingBlock: XUDNAN_clean_linker_2, # of connection points: 2
#     Edge 25, Type (0, 0), BuildingBlock: XUDNAN_clean_linker_2, # of connection points: 2
#     Edge 26, Type (0, 0), BuildingBlock: XUDNAN_clean_linker_2, # of connection points: 2
#     Edge 27, Type (0, 0), BuildingBlock: XUDNAN_clean_linker_2, # of connection points: 2
#     Edge 28, Type (0, 0), BuildingBlock: XUDNAN_clean_linker_2, # of connection points: 2
#     Edge 29, Type (0, 0), BuildingBlock: XUDNAN_clean_linker_2, # of connection points: 2
#     Edge 30, Type (0, 0), BuildingBlock: XUDNAN_clean_linker_2, # of connection points: 2
#     Edge 31, Type (0, 0), BuildingBlock: XUDNAN_clean_linker_2, # of connection points: 2
#     Edge 32, Type (0, 0), BuildingBlock: XUDNAN_clean_linker_2, # of connection points: 2
#     Edge 33, Type (0, 0), BuildingBlock: XUDNAN_clean_linker_2, # of connection points: 2
#     Edge 34, Type (0, 0), BuildingBlock: XUDNAN_clean_linker_2, # of connection points: 2
#     Edge 35, Type (0, 0), BuildingBlock: XUDNAN_clean_linker_2, # of connection points: 2
#     Edge 36, Type (0, 0), BuildingBlock: XUDNAN_clean_linker_2, # of connection points: 2
#     Edge 37, Type (0, 0), BuildingBlock: XUDNAN_clean_linker_2, # of connection points: 2
#     Edge 38, Type (0, 0), BuildingBlock: XUDNAN_clean_linker_2, # of connection points: 2
#     Edge 39, Type (0, 0), BuildingBlock: XUDNAN_clean_linker_2, # of connection points: 2
#     Edge 40, Type (0, 0), BuildingBlock: XUDNAN_clean_linker_2, # of connection points: 2
#     Edge 41, Type (0, 0), BuildingBlock: XUDNAN_clean_linker_2, # of connection points: 2
#     Edge 42, Type (0, 0), BuildingBlock: XUDNAN_clean_linker_2, # of connection points: 2
#     Edge 43, Type (0, 0), BuildingBlock: XUDNAN_clean_linker_2, # of connection points: 2
#     Edge 44, Type (0, 0), BuildingBlock: XUDNAN_clean_linker_2, # of connection points: 2
#     Edge 45, Type (0, 0), BuildingBlock: XUDNAN_clean_linker_2, # of connection points: 2
#     Edge 46, Type (0, 0), BuildingBlock: XUDNAN_clean_linker_2, # of connection points: 2
#     Edge 47, Type (0, 0), BuildingBlock: XUDNAN_clean_linker_2, # of connection points: 2
#     Edge 48, Type (0, 0), BuildingBlock: XUDNAN_clean_linker_2, # of connection points: 2
#     Edge 49, Type (0, 0), BuildingBlock: XUDNAN_clean_linker_2, # of connection points: 2
#     Edge 50, Type (0, 0), BuildingBlock: XUDNAN_clean_linker_2, # of connection points: 2
#     Edge 51, Type (0, 0), BuildingBlock: XUDNAN_clean_linker_2, # of connection points: 2
#     Edge 52, Type (0, 0), BuildingBlock: XUDNAN_clean_linker_2, # of connection points: 2
#     Edge 53, Type (0, 0), BuildingBlock: XUDNAN_clean_linker_2, # of connection points: 2
#     Edge 54, Type (0, 0), BuildingBlock: XUDNAN_clean_linker_2, # of connection points: 2
#     Edge 55, Type (0, 0), BuildingBlock: XUDNAN_clean_linker_2, # of connection points: 2
#     Edge 56, Type (0, 0), BuildingBlock: XUDNAN_clean_linker_2, # of connection points: 2
#     Edge 57, Type (0, 0), BuildingBlock: XUDNAN_clean_linker_2, # of connection points: 2
#     Edge 58, Type (0, 0), BuildingBlock: XUDNAN_clean_linker_2, # of connection points: 2
#     Edge 59, Type (0, 0), BuildingBlock: XUDNAN_clean_linker_2, # of connection points: 2
#     Edge 60, Type (0, 0), BuildingBlock: XUDNAN_clean_linker_2, # of connection points: 2
#     Edge 61, Type (0, 0), BuildingBlock: XUDNAN_clean_linker_2, # of connection points: 2
#     Edge 62, Type (0, 0), BuildingBlock: XUDNAN_clean_linker_2, # of connection points: 2
#     Edge 63, Type (0, 0), BuildingBlock: XUDNAN_clean_linker_2, # of connection points: 2
# Relax obj value: 0.564
# Max RMSD: 0.323
# Mean RMSD: 0.323
data_MOF--net-wiu--node1-BETFAJ_clean_sbu_0--edge1-XUDNAN_clean_linker_2
_symmetry_space_group_name_H-M    P1
_symmetry_Int_Tables_number       1
_symmetry_cell_setting            triclinic
loop_
_symmetry_equiv_pos_as_xyz
'x, y, z'
_cell_length_a     37.610334
_cell_length_b     37.693727
_cell_length_c     55.947975
_cell_angle_alpha  90.126257
_cell_angle_beta   89.891168
_cell_angle_gamma 90.021652
loop_
_atom_site_label
_atom_site_type_symbol
_atom_site_fract_x
_atom_site_fract_y
_atom_site_fract_z
_atom_type_partial_charge
Sm0 Sm 0.35068 0.17148 0.28587 0.0
Sm1 Sm 0.39365 0.11394 0.27281 0.0
C2 C 0.30923 0.22267 0.30309 0.0
C3 C 0.30403 0.26064 0.29749 0.0
C4 C 0.33292 0.28275 0.29182 0.0
C5 C 0.32726 0.31807 0.28509 0.0
C6 C 0.29257 0.33199 0.28363 0.0
C7 C 0.26377 0.30972 0.28951 0.0
C8 C 0.26948 0.27449 0.29638 0.0
C9 C 0.41996 0.1949 0.27495 0.0
C10 C 0.37836 0.11448 0.32881 0.0
C11 C 0.44743 0.08078 0.25209 0.0
C12 C 0.48648 0.08228 0.25304 0.0
C13 C 0.50424 0.11498 0.25473 0.0
C14 C 0.5409 0.11693 0.25103 0.0
C15 C 0.56033 0.08619 0.24538 0.0
C16 C 0.54295 0.0531 0.24597 0.0
C17 C 0.50626 0.05121 0.24973 0.0
C18 C 0.32684 0.08899 0.2836 0.0
C19 C 0.33765 0.14498 0.23022 0.0
O20 O 0.3394 0.21357 0.31283 0.0
O21 O 0.29907 0.20037 0.28662 0.0
O22 O 0.41169 0.16785 0.28728 0.0
O23 O 0.39112 0.20893 0.26665 0.0
O24 O 0.35279 0.13659 0.32155 0.0
O25 O 0.4033 0.10555 0.31334 0.0
O26 O 0.43087 0.06792 0.27072 0.0
O27 O 0.43176 0.10865 0.24303 0.0
O28 O 0.3336 0.11752 0.27272 0.0
O29 O 0.35582 0.0712 0.28767 0.0
O30 O 0.36243 0.12139 0.23621 0.0
O31 O 0.32809 0.16883 0.24646 0.0
H32 H 0.35988 0.27267 0.29233 0.0
H33 H 0.35015 0.33444 0.28106 0.0
H34 H 0.23667 0.31918 0.28824 0.0
H35 H 0.24678 0.25781 0.30042 0.0
H36 H 0.48946 0.1393 0.25728 0.0
H37 H 0.55357 0.14275 0.25074 0.0
H38 H 0.55702 0.02896 0.24137 0.0
H39 H 0.49304 0.02573 0.24847 0.0
Sm40 Sm 0.63106 0.603 0.53741 0.0
Sm41 Sm 0.6835 0.6467 0.52089 0.0
C42 C 0.58163 0.56211 0.55744 0.0
C43 C 0.5433 0.55555 0.5526 0.0
C44 C 0.53197 0.52188 0.5449 0.0
C45 C 0.49642 0.51592 0.53853 0.0
C46 C 0.47127 0.54354 0.5397 0.0
C47 C 0.48249 0.57698 0.54806 0.0
C48 C 0.51799 0.5829 0.55446 0.0
C49 C 0.60089 0.66787 0.52222 0.0
C50 C 0.6876 0.63968 0.57742 0.0
C51 C 0.71773 0.69077 0.49281 0.0
C52 C 0.73434 0.68174 0.46974 0.0
C53 C 0.75225 0.64919 0.46682 0.0
C54 C 0.76332 0.638 0.44419 0.0
C55 C 0.75607 0.65881 0.42405 0.0
C56 C 0.73848 0.69148 0.42701 0.0
C57 C 0.72775 0.70286 0.44968 0.0
C58 C 0.71303 0.58239 0.53327 0.0
C59 C 0.65238 0.58695 0.48109 0.0
O60 O 0.59059 0.59323 0.5658 0.0
O61 O 0.6039 0.55074 0.54127 0.0
O62 O 0.62868 0.66454 0.53502 0.0
O63 O 0.59125 0.63647 0.51548 0.0
O64 O 0.66812 0.611 0.57226 0.0
O65 O 0.69221 0.66331 0.56031 0.0
O66 O 0.68302 0.68853 0.493 0.0
O67 O 0.73236 0.67695 0.51183 0.0
O68 O 0.6839 0.58671 0.52261 0.0
O69 O 0.7284 0.61264 0.53729 0.0
O70 O 0.67292 0.61492 0.48506 0.0
O71 O 0.63288 0.57525 0.49922 0.0
H72 H 0.55083 0.50028 0.54331 0.0
H73 H 0.48889 0.48992 0.53201 0.0
H74 H 0.4638 0.59871 0.54964 0.0
H75 H 0.52564 0.60908 0.56057 0.0
H76 H 0.75681 0.63185 0.48193 0.0
H77 H 0.7768 0.61274 0.44233 0.0
H78 H 0.73311 0.70831 0.41176 0.0
H79 H 0.71342 0.72767 0.45147 0.0
Sm80 Sm 0.20606 0.8796 0.79002 0.0
Sm81 Sm 0.16406 0.931 0.77283 0.0
C82 C 0.245 0.82921 0.81032 0.0
C83 C 0.25108 0.79202 0.80331 0.0
C84 C 0.24115 0.78044 0.78042 0.0
C85 C 0.24643 0.74524 0.77352 0.0
C86 C 0.26183 0.72076 0.78935 0.0
C87 C 0.27201 0.7325 0.81227 0.0
C88 C 0.26657 0.76787 0.81921 0.0
C89 C 0.1414 0.84971 0.77411 0.0
C90 C 0.17578 0.93905 0.82939 0.0
C91 C 0.11119 0.96175 0.74958 0.0
C92 C 0.07283 0.95522 0.747 0.0
C93 C 0.05981 0.92073 0.74319 0.0
C94 C 0.02429 0.91543 0.73703 0.0
C95 C 1.001 0.94438 0.73502 0.0
C96 C 1.0135 0.97855 0.7408 0.0
C97 C 0.04921 0.98391 0.74662 0.0
C98 C 0.22893 0.96174 0.78377 0.0
C99 C 0.22372 0.89727 0.7339 0.0
O100 O 0.21279 0.837 0.81725 0.0
O101 O 0.25795 0.85285 0.79573 0.0
O102 O 0.14435 0.87723 0.78724 0.0
O103 O 0.17286 0.841 0.76687 0.0
O104 O 0.20229 0.91733 0.82381 0.0
O105 O 0.15154 0.94488 0.81284 0.0
O106 O 0.12222 0.97283 0.77037 0.0
O107 O 0.13215 0.93801 0.74007 0.0
O108 O 0.2246 0.93154 0.77454 0.0
O109 O 0.19863 0.97779 0.78615 0.0
O110 O 0.19511 0.91776 0.73634 0.0
O111 O 0.23474 0.8799 0.75301 0.0
H112 H 0.22944 0.79872 0.76779 0.0
H113 H 0.23885 0.73731 0.75562 0.0
H114 H 0.28368 0.71425 0.82495 0.0
H115 H 0.27435 0.77633 0.83696 0.0
H116 H 0.07745 0.89803 0.74371 0.0
H117 H 1.01557 0.88893 0.7324 0.0
H118 H 0.99644 1.00153 0.739 0.0
H119 H 0.05874 1.01068 0.74965 0.0
Sm120 Sm 0.92268 0.45161 1.03776 0.0
Sm121 Sm 0.86568 0.41255 1.01969 0.0
C122 C 0.97408 0.49019 1.0576 0.0
C123 C 1.01073 0.49802 1.04993 0.0
C124 C 0.03499 0.51378 1.06571 0.0
C125 C 0.07003 0.52048 1.05838 0.0
C126 C 0.08139 0.5114 1.03514 0.0
C127 C 0.05672 0.49586 1.01938 0.0
C128 C 1.02183 0.48918 1.02672 0.0
C129 C 0.94542 0.38331 1.0243 0.0
C130 C 0.86141 0.42146 1.07713 0.0
C131 C 0.83206 0.36207 0.99585 0.0
C132 C 0.83006 0.32323 0.99657 0.0
C133 C 0.85781 0.30306 1.00637 0.0
C134 C 0.8586 0.26624 1.0032 0.0
C135 C 0.83158 0.24914 0.99019 0.0
C136 C 0.80252 0.26941 0.98202 0.0
C137 C 0.80184 0.3061 0.98519 0.0
C138 C 0.84189 0.47861 1.03274 0.0
C139 C 0.90311 0.47051 0.98114 0.0
O140 O 0.96767 0.45732 1.06337 0.0
O141 O 0.94901 0.50355 1.04432 0.0
O142 O 0.91727 0.39089 1.03592 0.0
O143 O 0.96037 0.41256 1.01747 0.0
O144 O 0.88737 0.44477 1.07295 0.0
O145 O 0.85049 0.40106 1.05935 0.0
O146 O 0.81749 0.37937 1.01358 0.0
O147 O 0.8628 0.37512 0.98935 0.0
O148 O 0.87116 0.4721 1.0226 0.0
O149 O 0.82289 0.45001 1.0348 0.0
O150 O 0.87908 0.44487 0.98393 0.0
O151 O 0.9236 0.47841 0.99973 0.0
H152 H 0.02692 0.52067 1.08373 0.0
H153 H 0.08839 0.53213 1.07105 0.0
H154 H 0.06429 0.48905 1.00126 0.0
H155 H 1.00345 0.47704 1.01424 0.0
H156 H 0.87975 0.316 1.01533 0.0
H157 H 0.88123 0.25145 1.00978 0.0
H158 H 0.78153 0.25747 0.9715 0.0
H159 H 0.78024 0.3213 0.97752 0.0
Sm160 Sm 0.66155 0.94347 1.01231 0.0
Sm161 Sm 0.70044 0.88289 0.9993 0.0
C162 C 0.61995 0.98536 1.03742 0.0
C163 C 0.62787 1.00211 1.06078 0.0
C164 C 0.62977 0.9814 1.08161 0.0
C165 C 0.64159 0.99612 1.10303 0.0
C166 C 0.65183 0.03194 1.10426 0.0
C167 C 0.64956 0.05283 1.08352 0.0
C168 C 0.63766 0.03807 1.06201 0.0
C169 C 0.73 0.96164 0.99978 0.0
C170 C 0.71516 0.90908 1.05492 0.0
C171 C 0.73871 0.82982 0.98133 0.0
C172 C 0.74499 0.79224 0.98741 0.0
C173 C 0.77994 0.77936 0.98822 0.0
C174 C 0.78679 0.74449 0.99536 0.0
C175 C 0.75875 0.72161 1.00174 0.0
C176 C 0.72365 0.73451 1.00053 0.0
C177 C 0.71685 0.76949 0.99357 0.0
C178 C 0.63096 0.86299 1.01303 0.0
C179 C 0.67251 0.94068 0.95629 0.0
O180 O 0.61638 0.95076 1.03738 0.0
O181 O 0.63871 0.99686 1.01932 0.0
O182 O 0.72088 0.93496 1.01171 0.0
O183 O 0.70302 0.98222 0.99575 0.0
O184 O 0.69 0.93225 1.0492 0.0
O185 O 0.72517 0.88583 1.03833 0.0
O186 O 0.70722 0.83843 0.97344 0.0
O187 O 0.75129 0.85302 0.9964 0.0
O188 O 0.6394 0.88907 0.99956 0.0
O189 O 0.66026 0.8496 1.02115 0.0
O190 O 0.69731 0.91742 0.96328 0.0
O191 O 0.64888 0.95131 0.9722 0.0
H192 H 0.6226 0.95357 1.08139 0.0
H193 H 0.64196 0.97947 1.11878 0.0
H194 H 0.65713 0.08055 1.0839 0.0
H195 H 0.63678 0.05461 1.04621 0.0
H196 H 0.80207 0.79655 0.98374 0.0
H197 H 0.81417 0.73579 0.99642 0.0
H198 H 0.70132 0.71759 1.00493 0.0
H199 H 0.68962 0.77879 0.99328 0.0
Sm200 Sm 0.36586 0.41148 0.76423 0.0
Sm201 Sm 0.42185 0.45263 0.74747 0.0
C202 C 0.3346 0.35882 0.78718 0.0
C203 C 0.33582 0.31981 0.7864 0.0
C204 C 0.36842 0.30177 0.78456 0.0
C205 C 0.36997 0.26514 0.78802 0.0
C206 C 0.33895 0.24601 0.79348 0.0
C207 C 0.30599 0.2637 0.79311 0.0
C208 C 0.30449 0.30036 0.78966 0.0
C209 C 0.34001 0.4775 0.75343 0.0
C210 C 0.40243 0.46865 0.80412 0.0
C211 C 0.47087 0.49358 0.72739 0.0
C212 C 0.50859 0.50079 0.73271 0.0
C213 C 0.53218 0.47311 0.73819 0.0
C214 C 0.56685 0.48059 0.74561 0.0
C215 C 0.57855 0.51589 0.74802 0.0
C216 C 0.55505 0.5435 0.74198 0.0
C217 C 0.52045 0.53598 0.73437 0.0
C218 C 0.44647 0.3844 0.75927 0.0
C219 C 0.36122 0.42411 0.70752 0.0
O220 O 0.31975 0.37495 0.76912 0.0
O221 O 0.36346 0.3746 0.79474 0.0
O222 O 0.36972 0.47126 0.76299 0.0
O223 O 0.32179 0.44848 0.7506 0.0
O224 O 0.377 0.44467 0.80018 0.0
O225 O 0.42469 0.47578 0.78637 0.0
O226 O 0.46286 0.46195 0.71946 0.0
O227 O 0.44827 0.50503 0.74333 0.0
O228 O 0.41818 0.39175 0.74783 0.0
O229 O 0.46124 0.41373 0.76609 0.0
O230 O 0.38454 0.44926 0.71334 0.0
O231 O 0.35274 0.40049 0.724 0.0
H232 H 0.39296 0.31624 0.78193 0.0
H233 H 0.39569 0.2522 0.78818 0.0
H234 H 0.28166 0.24984 0.7976 0.0
H235 H 0.27908 0.31378 0.791 0.0
H236 H 0.52368 0.44568 0.73725 0.0
H237 H 0.58437 0.45863 0.74968 0.0
H238 H 0.56293 0.57099 0.74389 0.0
H239 H 0.50257 0.55773 0.73046 0.0
Sm240 Sm 0.88404 0.11685 0.51315 0.0
Sm241 Sm 0.85202 0.17926 0.49659 0.0
C242 C 0.92102 0.07142 0.5387 0.0
C243 C 0.91145 0.05076 0.56019 0.0
C244 C 0.90436 0.06771 0.58208 0.0
C245 C 0.89441 0.04798 0.60207 0.0
C246 C 0.89105 1.01085 0.60064 0.0
C247 C 0.89703 0.99408 0.57851 0.0
C248 C 0.90733 1.01382 0.55855 0.0
C249 C 0.81484 0.10382 0.49946 0.0
C250 C 0.83185 0.15901 0.55301 0.0
C251 C 0.81917 0.23417 0.47682 0.0
C252 C 0.81398 0.27193 0.48331 0.0
C253 C 0.84274 0.29564 0.48519 0.0
C254 C 0.83716 0.33084 0.49237 0.0
C255 C 0.80275 0.34304 0.49798 0.0
C256 C 0.77411 0.31915 0.49604 0.0
C257 C 0.77964 0.28416 0.48866 0.0
C258 C 0.92112 0.1953 0.51151 0.0
C259 C 0.87742 0.11663 0.45635 0.0
O260 O 0.92407 0.10587 0.54126 0.0
O261 O 0.90445 0.0624 0.5191 0.0
O262 O 0.82579 0.1307 0.51051 0.0
O263 O 0.84015 0.08074 0.49694 0.0
O264 O 0.85399 0.13216 0.54918 0.0
O265 O 0.82648 0.18179 0.53523 0.0
O266 O 0.85109 0.224 0.47066 0.0
O267 O 0.8032 0.21113 0.49049 0.0
O268 O 0.91214 0.16787 0.49935 0.0
O269 O 0.89277 0.21228 0.51796 0.0
O270 O 0.85446 0.14251 0.4617 0.0
O271 O 0.89854 0.10513 0.47347 0.0
H272 H 0.90683 0.09621 0.58393 0.0
H273 H 0.89079 0.06183 0.61888 0.0
H274 H 0.89438 0.9656 0.57669 0.0
H275 H 0.91214 1.00015 0.54179 0.0
H276 H 0.86961 0.28704 0.48127 0.0
H277 H 0.85982 0.34851 0.49334 0.0
H278 H 0.74732 0.32723 0.50063 0.0
H279 H 0.75703 0.26642 0.48748 0.0
Sm280 Sm 0.1858 0.64195 0.26324 0.0
Sm281 Sm 0.12966 0.60167 0.24661 0.0
C282 C 0.21853 0.69441 0.28553 0.0
C283 C 0.21808 0.73335 0.28402 0.0
C284 C 0.18607 0.75179 0.28034 0.0
C285 C 0.18481 0.78859 0.28315 0.0
C286 C 0.21559 0.80747 0.28952 0.0
C287 C 0.24818 0.78925 0.29093 0.0
C288 C 0.24935 0.75242 0.28829 0.0
C289 C 0.21146 0.57582 0.25158 0.0
C290 C 0.15027 0.58398 0.30285 0.0
C291 C 0.07836 0.56298 0.22696 0.0
C292 C 0.04014 0.55818 0.2322 0.0
C293 C 1.01815 0.58721 0.23775 0.0
C294 C 0.98277 0.58183 0.24469 0.0
C295 C 0.96872 0.5473 0.2465 0.0
C296 C 0.99083 0.51838 0.24065 0.0
C297 C 0.02607 0.52381 0.23353 0.0
C298 C 0.10594 0.67014 0.25923 0.0
C299 C 0.18993 0.62985 0.20641 0.0
O300 O 0.23293 0.67725 0.26766 0.0
O301 O 0.18931 0.67963 0.29339 0.0
O302 O 0.1819 0.582 0.26146 0.0
O303 O 0.22961 0.60486 0.24886 0.0
O304 O 0.1735 0.61031 0.29966 0.0
O305 O 0.1298 0.5752 0.28451 0.0
O306 O 0.08843 0.59369 0.21857 0.0
O307 O 0.10004 0.55085 0.24313 0.0
O308 O 0.13371 0.66248 0.24729 0.0
O309 O 0.09164 0.64091 0.26665 0.0
O310 O 0.16682 0.60448 0.21221 0.0
O311 O 0.1981 0.65352 0.22297 0.0
H312 H 0.16165 0.73756 0.27673 0.0
H313 H 0.15937 0.80197 0.28199 0.0
H314 H 0.27225 0.80297 0.29617 0.0
H315 H 0.27431 0.73866 0.29101 0.0
H316 H 0.02841 0.61406 0.23711 0.0
H317 H 0.9665 0.60478 0.2487 0.0
H318 H 0.98128 0.49138 0.24221 0.0
H319 H 0.04267 0.50102 0.22962 0.0
Sm320 Sm 0.85419 0.6746 0.78751 0.0
Sm321 Sm 0.88719 0.61423 0.76932 0.0
C322 C 0.81903 0.72802 0.80773 0.0
C323 C 0.81268 0.76562 0.80109 0.0
C324 C 0.84092 0.78985 0.79859 0.0
C325 C 0.83453 0.82472 0.79115 0.0
C326 C 0.79981 0.83624 0.78584 0.0
C327 C 0.77161 0.81197 0.78859 0.0
C328 C 0.77798 0.77719 0.7962 0.0
C329 C 0.92276 0.69314 0.77249 0.0
C330 C 0.88376 0.61205 0.8267 0.0
C331 C 0.92474 0.57441 0.74003 0.0
C332 C 0.91463 0.55985 0.71653 0.0
C333 C 0.88141 0.5433 0.71309 0.0
C334 C 0.87068 0.53269 0.69024 0.0
C335 C 0.89263 0.53914 0.67045 0.0
C336 C 0.92574 0.55572 0.67391 0.0
C337 C 0.93667 0.56587 0.69675 0.0
C338 C 0.82024 0.59719 0.78477 0.0
C339 C 0.83195 0.65528 0.73121 0.0
O340 O 0.85129 0.71903 0.81376 0.0
O341 O 0.80386 0.70417 0.79425 0.0
O342 O 0.91455 0.66483 0.78377 0.0
O343 O 0.89412 0.71063 0.76754 0.0
O344 O 0.86221 0.63969 0.82291 0.0
O345 O 0.9015 0.59866 0.80835 0.0
O346 O 0.92805 0.60897 0.74082 0.0
O347 O 0.90813 0.56149 0.75864 0.0
O348 O 0.82847 0.62498 0.77347 0.0
O349 O 0.84766 0.57672 0.78765 0.0
O350 O 0.85332 0.62785 0.73471 0.0
O351 O 0.82841 0.67856 0.74895 0.0
H352 H 0.86805 0.78186 0.80217 0.0
H353 H 0.85689 0.84269 0.78967 0.0
H354 H 0.74458 0.81955 0.78436 0.0
H355 H 0.75574 0.75908 0.79787 0.0
H356 H 0.86346 0.53904 0.72798 0.0
H357 H 0.84509 0.51991 0.68797 0.0
H358 H 0.94343 0.56043 0.65894 0.0
H359 H 0.96212 0.57898 0.69892 0.0
Sm360 Sm 0.13185 0.10239 1.03567 0.0
Sm361 Sm 0.18967 0.14245 1.02351 0.0
C362 C 0.07913 0.06315 1.05326 0.0
C363 C 0.0427 0.05354 1.04587 0.0
C364 C 0.03032 1.01912 1.05029 0.0
C365 C 0.99706 1.00833 1.0419 0.0
C366 C 0.97536 0.03179 1.02891 0.0
C367 C 0.98733 0.06668 1.02509 0.0
C368 C 1.02086 0.07741 1.03336 0.0
C369 C 0.10923 0.17105 1.02249 0.0
C370 C 0.18823 0.13064 1.0793 0.0
C371 C 0.2311 0.18518 0.99897 0.0
C372 C 0.24865 0.17766 0.9758 0.0
C373 C 0.22863 0.17647 0.95461 0.0
C374 C 0.24395 0.16472 0.93333 0.0
C375 C 0.27969 0.15388 0.93261 0.0
C376 C 0.29993 0.15557 0.95368 0.0
C377 C 0.28458 0.16739 0.97505 0.0
C378 C 0.2117 0.07449 1.03419 0.0
C379 C 0.15663 0.08922 0.98005 0.0
O380 O 0.08483 0.096 1.05954 0.0
O381 O 0.10473 0.0503 1.04013 0.0
O382 O 0.13523 0.16363 1.03625 0.0
O383 O 0.09751 0.14146 1.0137 0.0
O384 O 0.16591 0.10529 1.0719 0.0
O385 O 0.19778 0.15496 1.06368 0.0
O386 O 0.19637 0.18776 0.99864 0.0
O387 O 0.24264 0.16682 1.01715 0.0
O388 O 0.18446 0.0825 1.02232 0.0
O389 O 0.22898 0.10277 1.04053 0.0
O390 O 0.17922 0.11477 0.98611 0.0
O391 O 0.13386 0.07826 0.99656 0.0
H392 H 0.04672 1.00031 1.05988 0.0
H393 H 0.98839 0.98143 1.04543 0.0
H394 H 0.97131 0.08525 1.01504 0.0
H395 H 0.02998 0.10407 1.02956 0.0
H396 H 0.20087 0.18406 0.95446 0.0
H397 H 0.22784 0.16481 0.9173 0.0
H398 H 0.32759 0.14757 0.95369 0.0
H399 H 0.30062 0.16777 0.99111 0.0
Sm400 Sm 0.70142 0.38161 0.28784 0.0
Sm401 Sm 0.66122 0.43654 0.27161 0.0
C402 C 0.73894 0.32918 0.30718 0.0
C403 C 0.74421 0.29177 0.30021 0.0
C404 C 0.76068 0.26786 0.31582 0.0
C405 C 0.76613 0.23248 0.30891 0.0
C406 C 0.75513 0.22037 0.28624 0.0
C407 C 0.73849 0.24456 0.27073 0.0
C408 C 0.73307 0.27983 0.27765 0.0
C409 C 0.6341 0.3564 0.27291 0.0
C410 C 0.67232 0.44046 0.32846 0.0
C411 C 0.61079 0.47178 0.24878 0.0
C412 C 0.57189 0.47201 0.2483 0.0
C413 C 0.55242 0.44409 0.2585 0.0
C414 C 0.51632 0.44011 0.25322 0.0
C415 C 0.49934 0.46406 0.23781 0.0
C416 C 0.51835 0.49387 0.22958 0.0
C417 C 0.55441 0.4977 0.23474 0.0
C418 C 0.72724 0.46291 0.28346 0.0
C419 C 0.71989 0.40161 0.23191 0.0
O420 O 0.70706 0.33781 0.31435 0.0
O421 O 0.75234 0.35261 0.29262 0.0
O422 O 0.63994 0.38346 0.286 0.0
O423 O 0.66463 0.34507 0.26544 0.0
O424 O 0.69823 0.41809 0.32248 0.0
O425 O 0.64845 0.448 0.31194 0.0
O426 O 0.62607 0.48381 0.26807 0.0
O427 O 0.62553 0.44281 0.24062 0.0
O428 O 0.72138 0.43367 0.27322 0.0
O429 O 0.69786 0.48022 0.28676 0.0
O430 O 0.69285 0.42406 0.23501 0.0
O431 O 0.72931 0.38198 0.25044 0.0
H432 H 0.76939 0.27656 0.33332 0.0
H433 H 0.77864 0.21454 0.32142 0.0
H434 H 0.73016 0.23645 0.25303 0.0
H435 H 0.72047 0.29791 0.26527 0.0
H436 H 0.56564 0.4242 0.26923 0.0
H437 H 0.50226 0.41715 0.25987 0.0
H438 H 0.50632 0.51259 0.21737 0.0
H439 H 0.56913 0.51938 0.22675 0.0
Sm440 Sm 0.41797 0.94936 0.53589 0.0
Sm441 Sm 0.35731 0.91255 0.52102 0.0
C442 C 0.46985 0.98791 0.55514 0.0
C443 C 0.50499 1.00108 0.54745 0.0
C444 C 0.51565 0.03529 0.55414 0.0
C445 C 0.54806 0.04906 0.54615 0.0
C446 C 0.57053 0.02882 0.53131 0.0
C447 C 0.56009 0.99423 0.52497 0.0
C448 C 0.52749 0.98054 0.53285 0.0
C449 C 0.43758 0.88076 0.52193 0.0
C450 C 0.35943 0.91829 0.57771 0.0
C451 C 0.31536 0.8728 0.49459 0.0
C452 C 0.29908 0.88119 0.47121 0.0
C453 C 0.31996 0.88216 0.45035 0.0
C454 C 0.30552 0.89369 0.4288 0.0
C455 C 0.26983 0.90461 0.42749 0.0
C456 C 0.24882 0.90341 0.44829 0.0
C457 C 0.26328 0.89175 0.46991 0.0
C458 C 0.33925 0.98018 0.53493 0.0
C459 C 0.39408 0.96706 0.48016 0.0
O460 O 0.46658 0.95381 0.55827 0.0
O461 O 0.44242 1.00172 0.54444 0.0
O462 O 0.41015 0.88875 0.53435 0.0
O463 O 0.45324 0.90959 0.51494 0.0
O464 O 0.38571 0.94094 0.57251 0.0
O465 O 0.34562 0.899 0.5604 0.0
O466 O 0.34998 0.86882 0.49487 0.0
O467 O 0.30365 0.89129 0.51275 0.0
O468 O 0.36631 0.97178 0.52284 0.0
O469 O 0.31999 0.95245 0.53958 0.0
O470 O 0.36919 0.94333 0.48524 0.0
O471 O 0.41777 0.97473 0.49699 0.0
H472 H 0.4987 0.05155 0.56538 0.0
H473 H 0.55555 0.07561 0.55161 0.0
H474 H 0.57669 0.97813 0.51341 0.0
H475 H 0.51968 0.95413 0.52727 0.0
H476 H 0.34766 0.87433 0.45064 0.0
H477 H 0.32223 0.89322 0.41302 0.0
H478 H 0.22122 0.91155 0.44787 0.0
H479 H 0.24659 0.89153 0.48571 0.0
Sm480 Sm 0.1601 0.43946 0.5131 0.0
Sm481 Sm 0.20202 0.38382 0.4985 0.0
C482 C 0.1083 0.47378 0.53535 0.0
C483 C 0.06978 0.47937 0.5339 0.0
C484 C 0.0553 0.50913 0.54517 0.0
C485 C 1.0186 0.51279 0.54728 0.0
C486 C 0.99543 0.48673 0.53804 0.0
C487 C 1.01014 0.45791 0.52536 0.0
C488 C 0.0471 0.45424 0.52332 0.0
C489 C 0.22721 0.46494 0.50245 0.0
C490 C 0.21594 0.40704 0.55482 0.0
C491 C 0.24286 0.33266 0.48044 0.0
C492 C 0.25133 0.29645 0.48852 0.0
C493 C 0.26577 0.27154 0.4726 0.0
C494 C 0.27265 0.23677 0.48015 0.0
C495 C 0.2651 0.22631 0.50379 0.0
C496 C 0.25098 0.25165 0.51971 0.0
C497 C 0.24405 0.28627 0.51214 0.0
C498 C 0.13451 0.35827 0.51216 0.0
C499 C 0.17157 0.44166 0.45659 0.0
O500 O 0.1279 0.48831 0.51877 0.0
O501 O 0.11875 0.44188 0.5412 0.0
O502 O 0.22041 0.43621 0.51294 0.0
O503 O 0.19811 0.4823 0.49813 0.0
O504 O 0.19066 0.43039 0.54961 0.0
O505 O 0.22611 0.38484 0.53767 0.0
O506 O 0.21009 0.33798 0.47383 0.0
O507 O 0.25495 0.35843 0.49372 0.0
O508 O 0.14064 0.38519 0.49894 0.0
O509 O 0.16477 0.34717 0.52022 0.0
O510 O 0.19597 0.41731 0.46221 0.0
O511 O 0.14927 0.45212 0.47335 0.0
H512 H 0.07245 0.52872 0.55346 0.0
H513 H 1.00868 0.53493 0.5577 0.0
H514 H 0.99318 0.43747 0.51792 0.0
H515 H 0.05796 0.43113 0.51437 0.0
H516 H 0.27136 0.27887 0.45426 0.0
H517 H 0.28312 0.2179 0.46733 0.0
H518 H 0.24536 0.2448 0.53813 0.0
H519 H 0.23283 0.30511 0.52472 0.0
Sm520 Sm 0.86304 0.91062 0.2627 0.0
Sm521 Sm 0.91965 0.95249 0.24989 0.0
C522 C 0.82681 0.8593 0.28374 0.0
C523 C 0.81972 0.82116 0.28212 0.0
C524 C 0.78886 0.80811 0.29284 0.0
C525 C 0.78386 0.77174 0.29534 0.0
C526 C 0.80966 0.74747 0.28702 0.0
C527 C 0.83938 0.76076 0.27453 0.0
C528 C 0.84445 0.79741 0.27218 0.0
C529 C 0.83765 0.97732 0.25211 0.0
C530 C 0.89425 0.96637 0.30549 0.0
C531 C 0.97173 0.99282 0.23249 0.0
C532 C 1.00988 0.9985 0.23804 0.0
C533 C 1.02214 0.03279 0.24338 0.0
C534 C 0.05761 0.03851 0.24996 0.0
C535 C 0.08173 1.01002 0.25131 0.0
C536 C 0.06947 0.97576 0.24554 0.0
C537 C 0.034 0.97007 0.23902 0.0
C538 C 0.94352 0.88356 0.26223 0.0
C539 C 0.86289 0.92461 0.20683 0.0
O540 O 0.81327 0.87945 0.26713 0.0
O541 O 0.85897 0.86861 0.29007 0.0
O542 O 0.86614 0.97083 0.26314 0.0
O543 O 0.82068 0.94821 0.24715 0.0
O544 O 0.87101 0.94117 0.29964 0.0
O545 O 0.9174 0.97637 0.28895 0.0
O546 O 0.96252 0.96239 0.22316 0.0
O547 O 0.94918 1.00369 0.24863 0.0
O548 O 0.9173 0.89126 0.24883 0.0
O549 O 0.9556 0.91315 0.27076 0.0
O550 O 0.8843 0.95065 0.2143 0.0
O551 O 0.85495 0.8994 0.22222 0.0
H552 H 0.76953 0.82612 0.30058 0.0
H553 H 0.76099 0.76305 0.30554 0.0
H554 H 0.85959 0.74296 0.26769 0.0
H555 H 0.86839 0.80718 0.26363 0.0
H556 H 1.00408 0.05516 0.24284 0.0
H557 H 0.06588 0.06519 0.25454 0.0
H558 H 0.08733 0.95324 0.24597 0.0
H559 H 0.02546 0.94336 0.23496 0.0
Sm560 Sm 0.39281 0.61394 1.0137 0.0
Sm561 Sm 0.35344 0.67136 0.99798 0.0
C562 C 0.43457 0.56987 1.03722 0.0
C563 C 0.42624 0.54601 1.05713 0.0
C564 C 0.39183 0.54581 1.06695 0.0
C565 C 0.38386 0.52433 1.08652 0.0
C566 C 0.40994 0.50199 1.09609 0.0
C567 C 0.44396 0.50107 1.08559 0.0
C568 C 0.45211 0.52313 1.06628 0.0
C569 C 0.32542 0.59161 1.00103 0.0
C570 C 0.33763 0.65004 1.05441 0.0
C571 C 0.31466 0.72295 0.97868 0.0
C572 C 0.30847 0.76091 0.98418 0.0
C573 C 0.33669 0.78375 0.99003 0.0
C574 C 0.33005 0.81894 0.99676 0.0
C575 C 0.29501 0.83208 0.99807 0.0
C576 C 0.26689 0.8092 0.99181 0.0
C577 C 0.27358 0.77407 0.98492 0.0
C578 C 0.422 0.69435 1.01149 0.0
C579 C 0.38653 0.61428 0.95722 0.0
O580 O 0.4329 0.60385 1.04204 0.0
O581 O 0.4192 0.56164 1.01708 0.0
O582 O 0.33271 0.61964 1.01223 0.0
O583 O 0.35409 0.57385 0.99646 0.0
O584 O 0.36437 0.62798 1.05023 0.0
O585 O 0.32684 0.67037 1.0365 0.0
O586 O 0.34611 0.71392 0.97084 0.0
O587 O 0.30221 0.70045 0.99422 0.0
O588 O 0.4147 0.66674 0.99928 0.0
O589 O 0.39247 0.70848 1.01871 0.0
O590 O 0.35869 0.63481 0.96263 0.0
O591 O 0.40984 0.60818 0.97426 0.0
H592 H 0.37121 0.56254 1.05965 0.0
H593 H 0.35753 0.5255 1.09437 0.0
H594 H 0.46463 0.48436 1.09296 0.0
H595 H 0.47866 0.5227 1.05874 0.0
H596 H 0.3639 0.77432 0.98976 0.0
H597 H 0.35247 0.83581 1.00103 0.0
H598 H 0.23955 0.81806 0.9929 0.0
H599 H 0.25137 0.75688 0.98067 0.0
Sm600 Sm 0.68984 0.1439 0.76379 0.0
Sm601 Sm 0.63398 0.104 0.74837 0.0
C602 C 0.72975 0.18599 0.78999 0.0
C603 C 0.75007 0.17746 0.81175 0.0
C604 C 0.74243 0.19551 0.83306 0.0
C605 C 0.75788 0.1847 0.85449 0.0
C606 C 0.78148 0.15577 0.85499 0.0
C607 C 0.78991 0.13823 0.83361 0.0
C608 C 0.77406 0.14874 0.81217 0.0
C609 C 0.71459 0.07765 0.75048 0.0
C610 C 0.6567 0.08674 0.80419 0.0
C611 C 0.58112 0.06601 0.72971 0.0
C612 C 0.5433 0.05953 0.73639 0.0
C613 C 0.51683 0.08519 0.73228 0.0
C614 C 0.48163 0.0793 0.73956 0.0
C615 C 0.47187 0.04751 0.751 0.0
C616 C 0.49826 1.02163 0.75472 0.0
C617 C 0.53345 0.02755 0.74748 0.0
C618 C 0.60892 0.17101 0.76384 0.0
C619 C 0.68999 0.13866 0.70733 0.0
O620 O 0.69513 0.18462 0.79233 0.0
O621 O 0.74099 0.1717 0.77004 0.0
O622 O 0.68629 0.08375 0.76181 0.0
O623 O 0.73138 0.10698 0.74604 0.0
O624 O 0.67905 0.11313 0.79985 0.0
O625 O 0.63541 0.07666 0.78656 0.0
O626 O 0.58969 0.09767 0.72224 0.0
O627 O 0.60518 0.05277 0.74386 0.0
O628 O 0.6359 0.16533 0.75055 0.0
O629 O 0.5977 0.14045 0.77121 0.0
O630 O 0.66943 0.1108 0.7126 0.0
O631 O 0.69672 0.16148 0.72459 0.0
H632 H 0.72383 0.21746 0.83322 0.0
H633 H 0.75152 0.19914 0.87071 0.0
H634 H 0.80816 0.116 0.83357 0.0
H635 H 0.78005 0.13387 0.79608 0.0
H636 H 0.52324 0.10994 0.72349 0.0
H637 H 0.46197 0.09958 0.73598 0.0
H638 H 0.4919 0.99696 0.76364 0.0
H639 H 0.55309 1.00714 0.75081 0.0
H640 H 0.43797 0.2635 0.25923 0.0
H641 H 0.4824 0.17213 0.29536 0.0
H642 H 0.54001 0.20334 0.29886 0.0
H643 H 0.51707 0.29051 0.22634 0.0
H644 H 0.51011 0.33737 0.23083 0.0
H645 H 0.47265 0.30757 0.23025 0.0
H646 H 0.45291 0.33051 0.27159 0.0
H647 H 0.49055 0.35998 0.27283 0.0
H648 H 0.48334 0.32845 0.29642 0.0
H649 H 0.59422 0.2444 0.29783 0.0
H650 H 0.6393 0.29159 0.29355 0.0
H651 H 0.56095 0.3595 0.26011 0.0
C652 C 0.45989 0.24989 0.26772 0.0
C653 C 0.4553 0.21461 0.27661 0.0
C654 C 0.48485 0.19858 0.28802 0.0
C655 C 0.51788 0.21631 0.29017 0.0
C656 C 0.52148 0.25082 0.28126 0.0
C657 C 0.49319 0.2676 0.27037 0.0
C658 C 0.50398 0.30539 0.26319 0.0
C659 C 0.50076 0.3105 0.23604 0.0
C660 C 0.48133 0.3327 0.27681 0.0
C661 C 0.54295 0.30702 0.2712 0.0
C662 C 0.55231 0.27509 0.2816 0.0
C663 C 0.58688 0.26949 0.28989 0.0
C664 C 0.61248 0.29668 0.2874 0.0
C665 C 0.60408 0.32989 0.27689 0.0
C666 C 0.56843 0.33498 0.26876 0.0
H667 H 0.60632 0.7429 0.51608 0.0
H668 H 0.53094 0.6595 0.53279 0.0
H669 H 0.48272 0.7035 0.53506 0.0
H670 H 0.56572 0.81294 0.5532 0.0
H671 H 0.57304 0.84773 0.53169 0.0
H672 H 0.60265 0.81017 0.53269 0.0
H673 H 0.59072 0.79791 0.48794 0.0
H674 H 0.561 0.83537 0.48685 0.0
H675 H 0.54563 0.79209 0.47779 0.0
H676 H 0.44108 0.75718 0.53593 0.0
H677 H 0.41015 0.81508 0.53334 0.0
H678 H 0.50955 0.86524 0.51333 0.0
C679 C 0.57977 0.73399 0.52056 0.0
C680 C 0.57305 0.69716 0.52467 0.0
C681 C 0.53741 0.68712 0.52981 0.0
C682 C 0.50954 0.71214 0.53112 0.0
C683 C 0.51681 0.74789 0.52684 0.0
C684 C 0.55103 0.75891 0.52146 0.0
C685 C 0.55084 0.79895 0.51653 0.0
C686 C 0.57447 0.81861 0.5346 0.0
C687 C 0.56276 0.80652 0.49074 0.0
C688 C 0.51149 0.80854 0.52012 0.0
C689 C 0.49244 0.7786 0.52626 0.0
C690 C 0.45587 0.78068 0.53099 0.0
C691 C 0.43835 0.81388 0.52946 0.0
C692 C 0.45685 0.84518 0.52293 0.0
C693 C 0.49415 0.84205 0.51814 0.0
H694 H 0.06623 0.85684 0.78286 0.0
H695 H 0.14736 0.77927 0.76494 0.0
H696 H 0.10215 0.73238 0.76387 0.0
H697 H 1.0115 0.79615 0.82002 0.0
H698 H 0.96963 0.81365 0.80978 0.0
H699 H 1.00844 0.84173 0.81057 0.0
H700 H 0.99874 0.85598 0.76665 0.0
H701 H 0.96123 0.82661 0.76435 0.0
H702 H 0.99868 0.821 0.74452 0.0
H703 H 0.04801 0.69156 0.76575 0.0
H704 H 0.98879 0.66257 0.76669 0.0
H705 H 0.93972 0.76477 0.77983 0.0
C706 C 0.07451 0.82999 0.77881 0.0
C707 C 0.11119 0.82239 0.7741 0.0
C708 C 0.12004 0.78655 0.76865 0.0
C709 C 0.09432 0.75932 0.76805 0.0
C710 C 0.05879 0.7675 0.77263 0.0
C711 C 0.04864 0.80203 0.77772 0.0
C712 C 1.00811 0.80317 0.78122 0.0
C713 C 0.99888 0.81434 0.80693 0.0
C714 C 0.99068 0.82815 0.76305 0.0
C715 C 0.99733 0.7644 0.77669 0.0
C716 C 0.02722 0.74415 0.77238 0.0
C717 C 0.02445 0.70739 0.76886 0.0
C718 C 0.99055 0.69096 0.76948 0.0
C719 C 0.95912 0.711 0.77301 0.0
C720 C 0.96294 0.74844 0.7767 0.0
H721 H 0.10973 0.2424 1.00632 0.0
H722 H 0.04743 0.16755 1.04751 0.0
H723 H 0.99987 0.21228 1.05214 0.0
H724 H 0.0832 0.32258 1.0402 0.0
H725 H 0.08116 0.35054 1.01414 0.0
H726 H 0.11114 0.31325 1.01473 0.0
H727 H 0.08283 0.28908 0.9759 0.0
H728 H 0.05262 0.32618 0.9753 0.0
H729 H 0.03552 0.2815 0.97483 0.0
H730 H 0.95716 0.26538 1.05169 0.0
H731 H 0.92468 0.32199 1.04718 0.0
H732 H 1.01252 0.36434 1.00586 0.0
C733 C 0.08636 0.23568 1.01669 0.0
C734 C 0.08295 0.20112 1.02693 0.0
C735 C 0.05125 0.19359 1.03977 0.0
C736 C 0.02384 0.21898 1.04242 0.0
C737 C 0.02776 0.25247 1.03203 0.0
C738 C 0.05832 0.26102 1.01949 0.0
C739 C 0.05518 0.29894 1.00977 0.0
C740 C 0.08441 0.32274 1.02034 0.0
C741 C 0.05663 0.29892 0.98232 0.0
C742 C 1.0183 0.31027 1.01878 0.0
C743 C 1.00298 0.28291 1.03157 0.0
C744 C 0.96909 0.28684 1.04166 0.0
C745 C 0.95057 0.31928 1.03888 0.0
C746 C 0.96536 0.34809 1.02595 0.0
C747 C 0.99995 0.34309 1.01575 0.0
H748 H 0.56222 0.85825 1.03393 0.0
H749 H 0.63081 0.80797 0.98164 0.0
H750 H 0.58655 0.76015 0.97618 0.0
H751 H 0.52895 0.77818 1.06089 0.0
H752 H 0.484 0.79368 1.06492 0.0
H753 H 0.52026 0.82494 1.0644 0.0
H754 H 0.48989 0.85933 1.03014 0.0
H755 H 0.45338 0.82834 1.03071 0.0
H756 H 0.47731 0.83606 1.00326 0.0
H757 H 0.53558 0.71472 0.97787 0.0
H758 H 0.48094 0.67927 0.98395 0.0
H759 H 0.442 0.75849 1.0338 0.0
C760 C 0.56756 0.83759 1.02095 0.0
C761 C 0.60032 0.83758 1.00791 0.0
C762 C 0.60613 0.80923 0.99161 0.0
C763 C 0.58102 0.78166 0.98848 0.0
C764 C 0.54939 0.78214 1.00167 0.0
C765 C 0.54227 0.80967 1.01738 0.0
C766 C 0.50596 0.8035 1.02928 0.0
C767 C 0.51004 0.79987 1.05649 0.0
C768 C 0.4801 0.83361 1.02297 0.0
C769 C 0.49401 0.76828 1.01801 0.0
C770 C 0.51971 0.75636 1.00224 0.0
C771 C 0.51529 0.72414 0.99007 0.0
C772 C 0.48398 0.70391 0.99372 0.0
C773 C 0.45655 0.71555 1.00934 0.0
C774 C 0.4621 0.74843 1.02168 0.0
H775 H 0.61229 0.24474 0.77503 0.0
H776 H 0.54308 0.16464 0.74464 0.0
H777 H 0.49558 0.20919 0.74002 0.0
H778 H 0.54295 0.28977 0.8088 0.0
H779 H 0.56019 0.33383 0.80409 0.0
H780 H 0.58991 0.29633 0.80405 0.0
H781 H 0.61263 0.31387 0.76207 0.0
H782 H 0.58305 0.35149 0.76204 0.0
H783 H 0.58123 0.31951 0.73807 0.0
H784 H 0.45411 0.26301 0.73856 0.0
H785 H 0.42276 0.32059 0.74118 0.0
H786 H 0.51583 0.36743 0.77421 0.0
C787 C 0.58732 0.23673 0.76707 0.0
C788 C 0.58201 0.20069 0.75987 0.0
C789 C 0.54834 0.1917 0.75011 0.0
C790 C 0.52096 0.21702 0.74743 0.0
C791 C 0.52678 0.25198 0.7548 0.0
C792 C 0.55912 0.26196 0.76451 0.0
C793 C 0.55759 0.30126 0.77169 0.0
C794 C 0.56299 0.30554 0.79877 0.0
C795 C 0.58528 0.32281 0.75763 0.0
C796 C 0.51964 0.31168 0.76446 0.0
C797 C 0.50245 0.28275 0.75464 0.0
C798 C 0.46745 0.2857 0.74633 0.0
C799 C 0.44964 0.31872 0.74795 0.0
C800 C 0.46617 0.34901 0.75815 0.0
C801 C 0.50192 0.34503 0.7665 0.0
H802 H 0.06066 0.36165 0.52336 0.0
H803 H 0.14094 0.29227 0.49316 0.0
H804 H 0.09658 0.24429 0.48961 0.0
H805 H 1.01687 0.29401 0.55843 0.0
H806 H 0.97243 0.31048 0.55379 0.0
H807 H 1.00967 0.34054 0.5528 0.0
H808 H 0.99113 0.36095 0.51062 0.0
H809 H 0.95368 0.33112 0.51149 0.0
H810 H 0.98524 0.32843 0.48727 0.0
H811 H 0.04287 0.20182 0.48992 0.0
H812 H 0.98539 0.1701 0.494 0.0
H813 H 0.93866 0.26474 0.52502 0.0
C814 C 0.06872 0.33659 0.51557 0.0
C815 C 0.10474 0.33137 0.50815 0.0
C816 C 0.11384 0.29752 0.49873 0.0
C817 C 0.08864 0.26983 0.49669 0.0
C818 C 0.0537 0.27554 0.50433 0.0
C819 C 0.04362 0.30815 0.51358 0.0
C820 C 1.00443 0.30661 0.52115 0.0
C821 C 1.00063 0.31331 0.54815 0.0
C822 C 0.98231 0.33337 0.50678 0.0
C823 C 0.99421 0.26829 0.51475 0.0
C824 C 0.02308 0.25088 0.50499 0.0
C825 C 1.02019 0.21538 0.49758 0.0
C826 C 0.98725 0.19735 0.50002 0.0
C827 C 0.95697 0.2143 0.50996 0.0
C828 C 0.96101 0.25047 0.51748 0.0
H829 H 0.03952 0.68963 0.2788 0.0
H830 H 0.1259 0.73095 0.23564 0.0
H831 H 0.09324 0.78741 0.23098 0.0
H832 H 0.96721 0.73112 0.24587 0.0
H833 H 0.94079 0.74118 0.27194 0.0
H834 H 0.97065 0.70378 0.27216 0.0
H835 H 1.00155 0.72867 0.30985 0.0
H836 H 0.97164 0.76601 0.30981 0.0
H837 H 1.01903 0.77321 0.3095 0.0
H838 H 0.05039 0.84011 0.23009 0.0
H839 H 1.0033 0.88519 0.23507 0.0
H840 H 0.94333 0.81272 0.27953 0.0
C841 C 0.05168 0.7106 0.26843 0.0
C842 C 0.08582 0.70527 0.25761 0.0
C843 C 0.1002 0.7338 0.2442 0.0
C844 C 0.08162 0.76618 0.24138 0.0
C845 C 0.04816 0.77042 0.25203 0.0
C846 C 0.03332 0.74347 0.26547 0.0
C847 C 0.99703 0.75541 0.27528 0.0
C848 C 0.96715 0.73144 0.26575 0.0
C849 C 0.99734 0.75585 0.30274 0.0
C850 C 0.99372 0.79314 0.26524 0.0
C851 C 0.0236 0.80101 0.25178 0.0
C852 C 0.02706 0.83402 0.24066 0.0
C853 C 0.99999 0.85968 0.24358 0.0
C854 C 0.96921 0.85304 0.25756 0.0
C855 C 0.96612 0.81887 0.26844 0.0
H856 H 0.57715 0.13121 0.2099 0.0
H857 H 0.62016 0.04517 0.25185 0.0
H858 H 0.66663 0.03564 0.2214 0.0
H859 H 0.57222 0.09114 0.16212 0.0
H860 H 0.58429 0.12513 1.14095 0.0
H861 H 0.56733 0.13752 0.16954 0.0
H862 H 0.62346 0.17512 0.17794 0.0
H863 H 0.64064 0.16327 0.14887 0.0
H864 H 0.66693 0.15539 0.17523 0.0
H865 H 0.692 1.02113 0.18235 0.0
H866 H 0.69253 1.00298 1.14005 0.0
H867 H 0.63052 0.09579 1.12183 0.0
C868 C 0.59789 0.11203 0.21341 0.0
C869 C 0.59524 0.08904 0.23318 0.0
C870 C 0.62189 0.06319 0.23684 0.0
C871 C 0.64849 0.05776 0.21962 0.0
C872 C 0.64808 0.07842 0.19891 0.0
C873 C 0.6238 0.10573 0.196 0.0
C874 C 0.62261 0.11819 0.17027 0.0
C875 C 0.58439 0.11787 0.16016 0.0
C876 C 0.63943 0.15518 0.16795 0.0
C877 C 0.6459 0.09038 0.15862 0.0
C878 C 0.66211 0.06905 0.17554 0.0
C879 C 0.68026 0.03823 0.16901 0.0
C880 C 0.68007 0.02787 0.14494 0.0
C881 C 0.66114 0.04784 1.12774 0.0
C882 C 0.64578 0.08046 1.13452 0.0
H883 H 0.71711 0.65689 0.38327 0.0
H884 H 0.82255 0.63762 0.41093 0.0
H885 H 0.84621 0.63531 0.36992 0.0
H886 H 0.73468 0.60766 0.32016 0.0
H887 H 0.70707 0.64052 0.30601 0.0
H888 H 0.69598 0.62451 0.33546 0.0
H889 H 0.69537 0.6891 0.35126 0.0
H890 H 0.7063 0.70505 0.32219 0.0
H891 H 0.73428 0.71651 0.3472 0.0
H892 H 0.86134 0.65893 0.33121 0.0
H893 H 0.86557 0.70587 0.3014 0.0
H894 H 0.75102 0.70548 0.29371 0.0
C895 C 0.74484 0.65046 0.3804 0.0
C896 C 0.76811 0.64766 0.40001 0.0
C897 C 0.80428 0.63954 0.39605 0.0
C898 C 0.81787 0.63798 0.37275 0.0
C899 C 0.79479 0.64378 0.35361 0.0
C900 C 0.75864 0.64874 0.35717 0.0
C901 C 0.74075 0.66158 0.33454 0.0
C902 C 0.71831 0.63178 0.32338 0.0
C903 C 0.71795 0.69504 0.3391 0.0
C904 C 0.77317 0.66925 0.31926 0.0
C905 C 0.80393 0.65679 0.32998 0.0
C906 C 0.83748 0.66767 0.3222 0.0
C907 C 0.83968 0.69451 0.30499 0.0
C908 C 0.80842 0.71011 0.29567 0.0
C909 C 0.77524 0.69442 0.30096 0.0
H910 H 0.98947 0.90689 0.69471 0.0
H911 H 0.93649 0.9754 0.74566 0.0
H912 H 0.8874 0.98414 0.71711 0.0
H913 H 0.98411 0.95685 0.65078 0.0
H914 H 0.97623 0.92532 0.62707 0.0
H915 H 0.99736 0.91107 0.65388 0.0
H916 H 0.94907 0.86303 0.66011 0.0
H917 H 0.92773 0.87698 0.63285 0.0
H918 H 0.90276 0.87532 0.66036 0.0
H919 H 0.85665 1.00135 0.68023 0.0
H920 H 0.84905 0.026 0.63985 0.0
H921 H 0.92395 0.94897 0.61205 0.0
C922 C 0.96641 0.92183 0.70043 0.0
C923 C 0.96666 0.94036 0.72234 0.0
C924 C 0.93674 0.96092 0.72892 0.0
C925 C 0.90861 0.96579 0.71283 0.0
C926 C 0.91075 0.94976 0.69034 0.0
C927 C 0.93871 0.92749 0.68432 0.0
C928 C 0.93975 0.9202 0.65771 0.0
C929 C 0.97648 0.92897 0.64677 0.0
C930 C 0.92918 0.88159 0.65245 0.0
C931 C 0.91123 0.94551 0.64934 0.0
C932 C 0.89338 0.96077 0.66843 0.0
C933 C 0.8698 0.98891 0.66517 0.0
C934 C 0.86598 1.00308 0.64218 0.0
C935 C 0.88633 0.98971 0.62283 0.0
C936 C 0.90748 0.95928 0.62632 0.0
H937 H 0.78115 0.19768 0.985 0.0
H938 H 0.89264 0.21924 0.97285 0.0
H939 H 0.89463 0.17283 0.94236 0.0
H940 H 0.78309 0.09684 0.95753 0.0
H941 H 0.73979 0.10581 0.94526 0.0
H942 H 0.75145 0.12263 0.97444 0.0
H943 H 0.7342 0.18569 0.96001 0.0
H944 H 0.72399 0.16911 0.93097 0.0
H945 H 0.75638 0.20411 0.9342 0.0
H946 H 0.88035 0.14849 0.9037 0.0
H947 H 0.85221 0.14763 0.86402 0.0
H948 H 0.74846 0.14318 0.89722 0.0
C949 C 0.80631 0.191 0.97673 0.0
C950 C 0.83641 0.21246 0.98091 0.0
C951 C 0.86913 0.20316 0.97011 0.0
C952 C 0.87048 0.17664 0.95258 0.0
C953 C 0.83899 0.1595 0.94616 0.0
C954 C 0.80752 0.16541 0.95856 0.0
C955 C 0.77586 0.15137 0.94468 0.0
C956 C 0.76173 0.11713 0.95617 0.0
C957 C 0.74596 0.17927 0.9423 0.0
C958 C 0.79354 0.14327 0.92097 0.0
C959 C 0.83023 0.14552 0.92269 0.0
C960 C 0.85183 0.1453 0.90233 0.0
C961 C 0.83566 0.14496 0.87978 0.0
C962 C 0.79826 0.14551 0.87782 0.0
C963 C 0.77716 0.14251 0.89855 0.0
H964 H 0.38324 0.22817 0.82909 0.0
H965 H 0.2976 0.1868 0.78579 0.0
H966 H 0.2869 0.13996 0.8156 0.0
H967 H 0.40551 0.13771 0.86332 0.0
H968 H 0.41298 0.16353 0.88999 0.0
H969 H 0.42594 0.18085 0.86122 0.0
H970 H 0.38878 0.23723 0.86959 0.0
H971 H 0.37531 0.22014 0.89787 0.0
H972 H 0.34203 0.23287 0.87635 0.0
H973 H 0.27093 0.11442 0.85417 0.0
H974 H 0.2513 0.11389 0.89617 0.0
H975 H 0.34456 0.17434 0.91618 0.0
C976 C 0.36393 0.20769 0.82516 0.0
C977 C 0.34136 0.21089 0.8052 0.0
C978 C 0.31532 0.1846 0.80096 0.0
C979 C 0.30921 0.1578 0.81781 0.0
C980 C 0.32939 0.15769 0.83876 0.0
C981 C 0.35694 0.1816 0.84224 0.0
C982 C 0.36869 0.18234 0.86814 0.0
C983 C 0.40545 0.16506 0.87082 0.0
C984 C 0.36859 0.22036 0.87856 0.0
C985 C 0.34017 0.15932 0.87922 0.0
C986 C 0.31914 0.14354 0.86189 0.0
C987 C 0.28779 0.1258 0.86784 0.0
C988 C 0.27659 0.126 0.89174 0.0
C989 C 0.29629 0.14451 0.90934 0.0
C990 C 0.32943 0.15941 0.90317 0.0
H991 H 0.20529 0.88437 0.41048 0.0
H992 H 0.29979 0.94321 0.39097 0.0
H993 H 0.28167 0.9414 0.34877 0.0
H994 H 0.20871 0.82493 0.37242 0.0
H995 H 0.16251 0.82019 0.3644 0.0
H996 H 0.17394 0.83893 0.39262 0.0
H997 H 0.1376 0.89532 0.38274 0.0
H998 H 0.12588 0.87643 0.35416 0.0
H999 H 0.14656 0.91952 0.35564 0.0
H1000 H 0.26735 0.91417 0.31049 0.0
H1001 H 0.25778 0.86586 0.28145 0.0
H1002 H 0.16956 0.82743 0.32373 0.0
C1003 C 0.22097 0.89876 0.39749 0.0
C1004 C 0.25408 0.91347 0.40392 0.0
C1005 C 0.27453 0.93124 0.38637 0.0
C1006 C 0.26416 0.93074 0.36234 0.0
C1007 C 0.23284 0.91312 0.35618 0.0
C1008 C 0.21085 0.89838 0.37342 0.0
C1009 C 0.18275 0.87493 0.36219 0.0
C1010 C 0.18206 0.83758 0.37355 0.0
C1011 C 0.14603 0.89262 0.36377 0.0
C1012 C 0.19588 0.87422 0.33659 0.0
C1013 C 0.22362 0.8979 0.33315 0.0
C1014 C 0.24481 0.8966 0.31261 0.0
C1015 C 0.2393 0.86901 0.29618 0.0
C1016 C 0.21277 0.8432 0.30039 0.0
C1017 C 0.18925 0.84755 0.31981 0.0
H1018 H 0.95167 0.54412 0.5431 0.0
H1019 H 0.95409 0.43003 0.55128 0.0
H1020 H 0.90374 0.43324 0.57885 0.0
H1021 H 0.95613 0.56193 0.59605 0.0
H1022 H 0.92715 0.59984 0.59898 0.0
H1023 H 0.94593 0.58938 0.57056 0.0
H1024 H 0.88317 0.58603 0.55179 0.0
H1025 H 0.86408 0.5972 0.58045 0.0
H1026 H 0.84976 0.55784 0.56491 0.0
H1027 H 0.8754 0.44813 0.6163 0.0
H1028 H 0.87317 0.47237 0.65718 0.0
H1029 H 0.89213 0.57769 0.62961 0.0
C1030 C 0.94032 0.51978 0.54992 0.0
C1031 C 0.95737 0.48705 0.54549 0.0
C1032 C 0.94162 0.45555 0.55424 0.0
C1033 C 0.9128 0.45718 0.5701 0.0
C1034 C 0.90003 0.49041 0.57708 0.0
C1035 C 0.9127 0.52136 0.5667 0.0
C1036 C 0.90247 0.55364 0.58145 0.0
C1037 C 0.93486 0.57748 0.58711 0.0
C1038 C 0.87312 0.57492 0.5689 0.0
C1039 C 0.88793 0.53563 0.60356 0.0
C1040 C 0.88419 0.49942 0.60001 0.0
C1041 C 0.87699 0.47651 0.61902 0.0
C1042 C 0.87588 0.49044 0.64226 0.0
C1043 C 0.88268 0.52679 0.64629 0.0
C1044 C 0.88663 0.54983 0.62667 0.0
H1045 H 0.44309 0.50733 0.2281 0.0
H1046 H 0.48127 0.39992 0.21905 0.0
H1047 H 0.4412 0.39161 0.18512 0.0
H1048 H 0.34721 0.48915 0.19671 0.0
H1049 H 0.34982 0.53314 0.18428 0.0
H1050 H 0.36599 0.52483 0.21409 0.0
H1051 H 0.4267 0.55177 0.20187 0.0
H1052 H 0.41122 0.55912 0.17218 0.0
H1053 H 0.45068 0.53288 0.17693 0.0
H1054 H 0.42231 0.40323 0.14465 0.0
H1055 H 0.41877 0.43128 1.10494 0.0
H1056 H 0.38955 0.53082 1.13802 0.0
C1057 C 0.44111 0.48145 0.21978 0.0
C1058 C 0.46545 0.45453 0.22592 0.0
C1059 C 0.46269 0.42092 0.2148 0.0
C1060 C 0.43992 0.41598 0.19534 0.0
C1061 C 0.41954 0.44462 0.18758 0.0
C1062 C 0.41865 0.47641 0.20012 0.0
C1063 C 0.4008 0.50525 0.18558 0.0
C1064 C 0.36375 0.51358 0.19577 0.0
C1065 C 0.42377 0.53916 0.18403 0.0
C1066 C 0.39773 0.48657 0.16169 0.0
C1067 C 0.40699 0.45109 0.16348 0.0
C1068 C 0.41333 0.43039 0.14315 0.0
C1069 C 0.41159 0.44653 1.12065 0.0
C1070 C 0.40336 0.48293 1.11867 0.0
C1071 C 0.39466 0.50262 1.13928 0.0
H1072 H 0.24208 0.37941 0.29991 0.0
H1073 H 0.32874 0.36927 0.24892 0.0
H1074 H 0.31803 0.43059 0.23536 0.0
H1075 H 0.18342 0.42872 0.2622 0.0
H1076 H 0.16684 0.4563 0.2861 0.0
H1077 H 0.1823 0.41211 0.29239 0.0
H1078 H 0.22542 0.43765 0.32375 0.0
H1079 H 0.21189 0.48241 0.31721 0.0
H1080 H 0.25799 0.47024 0.31496 0.0
H1081 H 0.29776 0.49383 0.22749 0.0
H1082 H 0.26853 0.55277 0.22543 0.0
H1083 H 0.1931 0.51948 0.2796 0.0
C1084 C 0.25865 0.38983 0.28572 0.0
C1085 C 0.28636 0.36927 0.27558 0.0
C1086 C 0.30774 0.38448 0.25734 0.0
C1087 C 0.3017 0.41928 0.24936 0.0
C1088 C 0.27404 0.43862 0.25967 0.0
C1089 C 0.25283 0.42437 0.27742 0.0
C1090 C 0.22478 0.45061 0.28556 0.0
C1091 C 0.18711 0.43606 0.28129 0.0
C1092 C 0.23035 0.4608 0.31193 0.0
C1093 C 0.23294 0.48152 0.2692 0.0
C1094 C 0.26179 0.47438 0.25464 0.0
C1095 C 0.275 0.49959 0.23868 0.0
C1096 C 0.25828 0.53292 0.23761 0.0
C1097 C 0.2284 0.54045 0.25215 0.0
C1098 C 0.21557 0.51427 0.26801 0.0
H1099 H 0.42822 0.48497 0.54682 0.0
H1100 H 0.42944 0.58914 0.51389 0.0
H1101 H 0.36779 0.58011 0.50016 0.0
H1102 H 0.37746 0.44129 0.50057 0.0
H1103 H 0.35295 0.41377 0.52113 0.0
H1104 H 0.39716 0.42844 0.5286 0.0
H1105 H 0.37351 0.45614 0.56808 0.0
H1106 H 0.3295 0.44094 0.56069 0.0
H1107 H 0.33716 0.48726 0.56693 0.0
H1108 H 0.30543 0.55978 0.49 0.0
H1109 H 0.24717 0.52993 0.48505 0.0
H1110 H 0.28716 0.43874 0.52379 0.0
C1111 C 0.41566 0.50581 0.53658 0.0
C1112 C 0.43383 0.53788 0.53157 0.0
C1113 C 0.41606 0.56458 0.51834 0.0
C1114 C 0.38105 0.5596 0.51029 0.0
C1115 C 0.36399 0.52773 0.51553 0.0
C1116 C 0.38067 0.5013 0.52842 0.0
C1117 C 0.3563 0.46961 0.53179 0.0
C1118 C 0.3719 0.43631 0.5198 0.0
C1119 C 0.34867 0.46314 0.55846 0.0
C1120 C 0.32334 0.48238 0.51882 0.0
C1121 C 0.32828 0.51596 0.50954 0.0
C1122 C 0.30131 0.53345 0.49715 0.0
C1123 C 0.26833 0.51631 0.49439 0.0
C1124 C 0.26264 0.48204 0.50395 0.0
C1125 C 0.29073 0.46486 0.51612 0.0
H1126 H 0.31998 0.67796 0.79732 0.0
H1127 H 0.21567 0.67864 0.76424 0.0
H1128 H 0.22509 0.61725 0.75019 0.0
H1129 H 0.36455 0.62749 0.75206 0.0
H1130 H 0.39151 0.60277 0.77278 0.0
H1131 H 0.37666 0.64679 0.78042 0.0
H1132 H 0.34786 0.6227 0.81931 0.0
H1133 H 0.36285 0.57865 0.81186 0.0
H1134 H 0.31635 0.58675 0.81742 0.0
H1135 H 0.24554 0.55533 0.74008 0.0
H1136 H 0.27544 0.49717 0.7354 0.0
H1137 H 0.36639 0.53729 0.77468 0.0
C1138 C 0.29897 0.6651 0.78732 0.0
C1139 C 0.26714 0.68324 0.78179 0.0
C1140 C 0.24049 0.66551 0.76841 0.0
C1141 C 0.24553 0.63058 0.76042 0.0
C1142 C 0.27735 0.61363 0.76594 0.0
C1143 C 0.30359 0.63023 0.77916 0.0
C1144 C 0.33527 0.60601 0.78273 0.0
C1145 C 0.36899 0.62171 0.77131 0.0
C1146 C 0.34092 0.59807 0.80941 0.0
C1147 C 0.32279 0.57332 0.76939 0.0
C1148 C 0.28927 0.57817 0.7599 0.0
C1149 C 0.27185 0.55126 0.74737 0.0
C1150 C 0.289 0.51838 0.74477 0.0
C1151 C 0.32319 0.51284 0.75457 0.0
C1152 C 0.34036 0.54086 0.76678 0.0
H1153 H 0.12432 0.56917 1.04467 0.0
H1154 H 0.12343 0.46749 1.00804 0.0
H1155 H 0.18477 0.47798 0.99411 0.0
H1156 H 0.17511 0.61653 1.00072 0.0
H1157 H 0.19989 0.64207 1.02228 0.0
H1158 H 0.15571 0.62689 1.0294 0.0
H1159 H 0.17949 0.59538 1.06742 0.0
H1160 H 0.22337 0.61144 1.06047 0.0
H1161 H 0.21597 0.56461 1.06466 0.0
H1162 H 0.24659 0.4991 0.98442 0.0
H1163 H 0.30493 0.52898 0.9806 0.0
H1164 H 0.26578 0.6166 1.02363 0.0
C1165 C 0.1371 0.54895 1.03389 0.0
C1166 C 0.11882 0.51758 1.02733 0.0
C1167 C 0.13652 0.49202 1.01297 0.0
C1168 C 0.17148 0.49764 1.00506 0.0
C1169 C 0.18856 0.52893 1.01168 0.0
C1170 C 0.17205 0.55411 1.02585 0.0
C1171 C 0.19646 0.5854 1.0305 0.0
C1172 C 0.18085 0.61975 1.0201 0.0
C1173 C 0.20428 0.58941 1.05736 0.0
C1174 C 0.22927 0.57377 1.0168 0.0
C1175 C 0.22415 0.54114 1.00604 0.0
C1176 C 0.25089 0.52469 0.99273 0.0
C1177 C 0.28389 0.54184 0.99062 0.0
C1178 C 0.2898 0.57507 1.00173 0.0
C1179 C 0.26194 0.59132 1.01476 0.0
H1180 H 0.86063 0.53539 1.00524 0.0
H1181 H 0.78617 0.50169 1.0599 0.0
H1182 H 0.75723 0.56077 1.05861 0.0
H1183 H 0.87044 0.62643 1.02329 0.0
H1184 H 0.87128 0.64314 0.99312 0.0
H1185 H 0.88698 0.59898 0.99928 0.0
H1186 H 0.84243 0.57287 0.96833 0.0
H1187 H 0.82774 0.61725 0.96181 0.0
H1188 H 0.79602 0.58394 0.97076 0.0
H1189 H 0.73658 0.62358 1.05104 0.0
H1190 H 0.72444 0.68444 1.03722 0.0
H1191 H 0.8101 0.67517 0.98538 0.0
C1192 C 0.83853 0.54062 1.01715 0.0
C1193 C 0.82578 0.51427 1.03289 0.0
C1194 C 0.79633 0.52173 1.04783 0.0
C1195 C 0.77981 0.55513 1.0472 0.0
C1196 C 0.7928 0.58047 1.03127 0.0
C1197 C 0.82133 0.57348 1.01638 0.0
C1198 C 0.82899 0.60451 1.0 0.0
C1199 C 0.86665 0.61913 1.00419 0.0
C1200 C 0.82347 0.59402 0.97367 0.0
C1201 C 0.80077 0.63041 1.00832 0.0
C1202 C 0.78017 0.61606 1.02635 0.0
C1203 C 0.75242 0.635 1.03683 0.0
C1204 C 0.74554 0.66951 1.0287 0.0
C1205 C 0.76614 0.68477 1.01009 0.0
C1206 C 0.79408 0.66467 0.99983 0.0
H1207 H 0.62476 0.56896 0.73421 0.0
H1208 H 0.61396 0.48114 0.78387 0.0
H1209 H 0.67366 0.49391 0.79978 0.0
H1210 H 0.71704 0.55787 0.72159 0.0
H1211 H 0.72639 0.60473 0.72045 0.0
H1212 H 0.68274 0.58865 0.71294 0.0
H1213 H 0.65517 0.63039 0.74486 0.0
H1214 H 0.69885 0.6464 0.7525 0.0
H1215 H 0.67047 0.628 0.77533 0.0
H1216 H 0.73554 0.51461 0.80926 0.0
H1217 H 0.7951 0.54247 0.81166 0.0
H1218 H 0.76385 0.61893 0.7578 0.0
C1219 C 0.63471 0.55262 0.74861 0.0
C1220 C 0.6146 0.52385 0.75763 0.0
C1221 C 0.62901 0.50287 0.77627 0.0
C1222 C 0.6628 0.51011 0.78562 0.0
C1223 C 0.68182 0.53863 0.77633 0.0
C1224 C 0.66828 0.55964 0.75829 0.0
C1225 C 0.69433 0.58851 0.75133 0.0
C1226 C 0.7058 0.58469 0.72503 0.0
C1227 C 0.67877 0.62552 0.75631 0.0
C1228 C 0.7247 0.58023 0.76813 0.0
C1229 C 0.71701 0.55131 0.78237 0.0
C1230 C 0.74173 0.53753 0.79841 0.0
C1231 C 0.7754 0.55347 0.79967 0.0
C1232 C 0.78378 0.58298 0.78515 0.0
C1233 C 0.75789 0.5968 0.76946 0.0
H1234 H 0.74597 0.38591 0.48718 0.0
H1235 H 0.8452 0.38499 0.52676 0.0
H1236 H 0.83362 0.44636 0.54033 0.0
H1237 H 0.74793 0.47719 0.46869 0.0
H1238 H 0.70061 0.4824 0.47252 0.0
H1239 H 0.71873 0.43958 0.46519 0.0
H1240 H 0.68697 0.41366 0.50266 0.0
H1241 H 0.66988 0.45692 0.51009 0.0
H1242 H 0.69581 0.43268 0.53164 0.0
H1243 H 0.81027 0.50864 0.54972 0.0
H1244 H 0.77732 0.56551 0.55377 0.0
H1245 H 0.69252 0.52257 0.50991 0.0
C1246 C 0.76523 0.39833 0.49887 0.0
C1247 C 0.79652 0.38038 0.50586 0.0
C1248 C 0.82125 0.3982 0.52082 0.0
C1249 C 0.81479 0.43303 0.52878 0.0
C1250 C 0.7834 0.44965 0.52174 0.0
C1251 C 0.75906 0.43278 0.50713 0.0
C1252 C 0.72702 0.45592 0.50241 0.0
C1253 C 0.72341 0.46427 0.47561 0.0
C1254 C 0.69291 0.43877 0.5123 0.0
C1255 C 0.73711 0.48857 0.51658 0.0
C1256 C 0.76974 0.48468 0.52757 0.0
C1257 C 0.78466 0.51193 0.54123 0.0
C1258 C 0.7658 0.54403 0.54347 0.0
C1259 C 0.73236 0.54832 0.53227 0.0
C1260 C 0.71789 0.52002 0.51887 0.0
H1261 H 0.78298 0.44549 0.25462 0.0
H1262 H 0.74982 0.52099 0.30879 0.0
H1263 H 0.80804 0.55167 0.30526 0.0
H1264 H 0.87416 0.43819 0.27034 0.0
H1265 H 0.88965 0.43652 0.23985 0.0
H1266 H 0.84586 0.4206 0.24719 0.0
H1267 H 0.81771 0.46413 0.21622 0.0
H1268 H 0.86194 0.47843 0.20848 0.0
H1269 H 0.82901 0.51044 0.21767 0.0
H1270 H 0.87094 0.573 0.29591 0.0
H1271 H 0.93189 0.5841 0.28127 0.0
H1272 H 0.9211 0.49658 0.23117 0.0
C1273 C 0.78806 0.46828 0.2659 0.0
C1274 C 0.76217 0.48072 0.28218 0.0
C1275 C 0.76949 0.51103 0.2963 0.0
C1276 C 0.80241 0.52857 0.29438 0.0
C1277 C 0.82733 0.51569 0.27798 0.0
C1278 C 0.82031 0.48642 0.26384 0.0
C1279 C 0.85079 0.47854 0.24696 0.0
C1280 C 0.86601 0.44125 0.25136 0.0
C1281 C 0.83919 0.48315 0.22079 0.0
C1282 C 0.87672 0.50722 0.25431 0.0
C1283 C 0.8627 0.52854 0.27212 0.0
C1284 C 0.88203 0.5566 0.28185 0.0
C1285 C 0.91659 0.56287 0.27325 0.0
C1286 C 0.93153 0.54129 0.25498 0.0
C1287 C 0.91092 0.51331 0.24536 0.0
H1288 H 0.74266 0.87963 0.79617 0.0
H1289 H 0.84143 0.87686 0.75584 0.0
H1290 H 0.83025 0.93784 0.74179 0.0
H1291 H 0.69234 0.92743 0.75167 0.0
H1292 H 0.66732 0.95239 0.77346 0.0
H1293 H 0.68345 0.90874 0.78071 0.0
H1294 H 0.71633 0.93403 0.81791 0.0
H1295 H 0.69913 0.97723 0.81077 0.0
H1296 H 0.74636 0.97092 0.81419 0.0
H1297 H 0.80831 1.00021 0.7325 0.0
H1298 H 0.77732 0.05806 0.72903 0.0
H1299 H 0.69198 1.01822 0.77382 0.0
C1300 C 0.76185 0.89156 0.78418 0.0
C1301 C 0.79305 0.8732 0.77726 0.0
C1302 C 0.81762 0.89037 0.76182 0.0
C1303 C 0.81137 0.92499 0.75356 0.0
C1304 C 0.78029 0.94218 0.76071 0.0
C1305 C 0.75591 0.92596 0.77564 0.0
C1306 C 0.72449 0.95002 0.78064 0.0
C1307 C 0.68986 0.93366 0.77104 0.0
C1308 C 0.72145 0.95855 0.80747 0.0
C1309 C 0.73514 0.98245 0.76639 0.0
C1310 C 0.7674 0.97751 0.75499 0.0
C1311 C 0.78295 1.00427 0.74127 0.0
C1312 C 0.7652 0.037 0.73937 0.0
C1313 C 0.73223 0.04256 0.75104 0.0
C1314 C 0.717 1.0147 0.76449 0.0
H1315 H 0.76415 0.02435 1.01073 0.0
H1316 H 0.78064 0.91844 0.98262 0.0
H1317 H 0.84549 0.92821 0.98259 0.0
H1318 H 0.84233 0.06803 0.98034 0.0
H1319 H 0.85274 0.09459 1.00622 0.0
H1320 H 0.80732 0.08232 1.00019 0.0
H1321 H 0.80189 0.05456 1.04221 0.0
H1322 H 0.84718 0.06661 1.04859 0.0
H1323 H 0.83322 1.02104 1.05131 0.0
H1324 H 0.90751 0.94569 0.9901 0.0
H1325 H 0.96418 0.96995 1.00488 0.0
H1326 H 0.90943 0.06443 1.02979 0.0
C1327 C 0.78152 1.0039 1.00372 0.0
C1328 C 0.76765 0.97087 0.99619 0.0
C1329 C 0.79096 0.94401 0.98813 0.0
C1330 C 0.82777 0.94937 0.98802 0.0
C1331 C 0.8409 0.98172 0.99621 0.0
C1332 C 0.81863 1.00869 1.00386 0.0
C1333 C 0.84003 0.0392 1.01434 0.0
C1334 C 0.83533 0.07303 0.99937 0.0
C1335 C 0.82998 0.04571 1.04067 0.0
C1336 C 0.87756 0.0246 1.01204 0.0
C1337 C 0.8773 0.99163 1.0012 0.0
C1338 C 0.90817 0.97167 0.99836 0.0
C1339 C 0.94019 0.98554 1.00701 0.0
C1340 C 0.94124 1.01899 1.01857 0.0
C1341 C 0.90951 0.039 1.02075 0.0
H1342 H 0.8623 0.0377 0.2737 0.0
H1343 H 0.77328 0.99614 0.23314 0.0
H1344 H 0.74238 0.05387 0.23724 0.0
H1345 H 0.81163 0.08725 0.31552 0.0
H1346 H 0.8422 0.124 0.31713 0.0
H1347 H 0.85837 0.08029 0.31003 0.0
H1348 H 0.8866 0.10327 0.27091 0.0
H1349 H 0.87134 0.14738 0.27793 0.0
H1350 H 0.85958 0.12718 0.24979 0.0
H1351 H 0.72056 0.11577 0.24704 0.0
H1352 H 0.71003 0.1772 0.26069 0.0
H1353 H 0.81384 0.1783 0.29453 0.0
C1354 C 0.83646 0.04084 0.26546 0.0
C1355 C 0.82013 1.01246 0.25307 0.0
C1356 C 0.78621 1.01755 0.24271 0.0
C1357 C 0.76848 0.05021 0.24498 0.0
C1358 C 0.78509 0.07748 0.25766 0.0
C1359 C 0.8184 0.07316 0.26763 0.0
C1360 C 0.83023 0.10641 0.28067 0.0
C1361 C 0.83592 0.09903 0.30743 0.0
C1362 C 0.86393 0.12198 0.26913 0.0
C1363 C 0.79829 0.13013 0.27662 0.0
C1364 C 0.77257 0.11298 0.26328 0.0
C1365 C 0.74065 0.12951 0.25735 0.0
C1366 C 0.735 0.16453 0.2651 0.0
C1367 C 0.76112 0.18282 0.27864 0.0
C1368 C 0.79311 0.16509 0.28447 0.0
H1369 H 0.78053 0.04056 0.50812 0.0
H1370 H 0.76314 0.15025 0.48832 0.0
H1371 H 0.69826 0.14124 0.49093 0.0
H1372 H 0.70025 1.00241 0.47849 0.0
H1373 H 0.69196 0.97202 0.5027 0.0
H1374 H 0.73683 0.98546 0.49583 0.0
H1375 H 0.74509 1.00659 0.53956 0.0
H1376 H 0.70023 0.99356 0.54652 0.0
H1377 H 0.7145 0.0385 0.552 0.0
H1378 H 0.6363 0.12255 0.49934 0.0
H1379 H 0.58031 0.09514 0.51296 0.0
H1380 H 0.63687 0.99769 0.52891 0.0
C1381 C 0.76291 0.06222 0.50357 0.0
C1382 C 0.7766 0.09597 0.49759 0.0
C1383 C 0.75298 0.12416 0.49266 0.0
C1384 C 0.71615 0.11927 0.49408 0.0
C1385 C 0.70335 0.08603 0.50065 0.0
C1386 C 0.7259 0.05789 0.50528 0.0
C1387 C 0.70518 0.02596 0.5142 0.0
C1388 C 0.70877 0.9946 0.49676 0.0
C1389 C 0.71695 1.01556 0.53957 0.0
C1390 C 0.66766 0.04078 0.51419 0.0
C1391 C 0.66728 0.07538 0.50611 0.0
C1392 C 0.63617 0.09536 0.50551 0.0
C1393 C 0.60455 0.07965 0.51347 0.0
C1394 C 0.6042 0.04432 0.52205 0.0
C1395 C 0.63621 0.02458 0.52214 0.0
H1396 H 0.32098 0.18163 0.49243 0.0
H1397 H 0.22254 0.18621 0.53303 0.0
H1398 H 0.23239 0.12498 0.54686 0.0
H1399 H 0.31145 0.09042 0.47297 0.0
H1400 H 0.35836 0.0813 0.47526 0.0
H1401 H 0.34336 0.12562 0.46893 0.0
H1402 H 0.37918 0.14835 0.50557 0.0
H1403 H 0.39335 0.10376 0.51208 0.0
H1404 H 0.37072 0.12952 0.53463 0.0
H1405 H 0.25201 0.06274 0.55571 0.0
H1406 H 0.27966 1.00331 0.55808 0.0
H1407 H 0.36503 0.03879 0.51163 0.0
C1408 C 0.30135 0.16972 0.5041 0.0
C1409 C 0.2711 0.18903 0.51177 0.0
C1410 C 0.24629 0.17238 0.52724 0.0
C1411 C 0.25152 0.13748 0.53511 0.0
C1412 C 0.28167 0.11936 0.52734 0.0
C1413 C 0.30613 0.1348 0.5121 0.0
C1414 C 0.33607 0.10926 0.5062 0.0
C1415 C 0.33735 0.10118 0.47924 0.0
C1416 C 0.37195 0.12359 0.51516 0.0
C1417 C 0.32446 0.07702 0.52039 0.0
C1418 C 0.29305 0.08344 0.53249 0.0
C1419 C 0.27667 0.05743 0.54637 0.0
C1420 C 0.29256 0.0238 0.54765 0.0
C1421 C 0.32448 1.01652 0.53515 0.0
C1422 C 0.34078 0.04368 0.52159 0.0
H1423 H 0.12611 0.066 0.24025 0.0
H1424 H 0.12249 0.96746 0.28025 0.0
H1425 H 0.18442 0.97705 0.29325 0.0
H1426 H 0.21712 0.0592 0.22056 0.0
H1427 H 0.2254 0.10607 0.22377 0.0
H1428 H 0.18122 0.09049 0.21728 0.0
H1429 H 0.1579 0.12421 0.25471 0.0
H1430 H 0.20232 0.13915 0.2613 0.0
H1431 H 0.17727 0.11516 0.28351 0.0
H1432 H 0.24738 0.99738 0.30179 0.0
H1433 H 0.30609 0.02693 0.30483 0.0
H1434 H 0.26748 0.11296 0.26052 0.0
C1435 C 0.13816 0.04653 0.2519 0.0
C1436 C 0.11926 1.01587 0.25911 0.0
C1437 C 0.13643 0.99088 0.27412 0.0
C1438 C 0.17159 0.99621 0.28176 0.0
C1439 C 0.18933 0.02674 0.27434 0.0
C1440 C 0.17319 0.05148 0.25974 0.0
C1441 C 0.19806 0.08211 0.25434 0.0
C1442 C 0.20591 0.08457 0.22739 0.0
C1443 C 0.18298 0.11723 0.26405 0.0
C1444 C 0.23069 0.07072 0.26817 0.0
C1445 C 0.22521 0.03868 0.27956 0.0
C1446 C 0.2519 0.02255 0.29301 0.0
C1447 C 0.28512 0.03949 0.29465 0.0
C1448 C 0.29126 0.07223 0.28301 0.0
C1449 C 0.2635 0.08808 0.2698 0.0
H1450 H 0.19325 1.0189 1.00514 0.0
H1451 H 0.2677 0.05008 1.06047 0.0
H1452 H 0.29697 0.99135 1.05741 0.0
H1453 H 0.18425 0.9269 1.02207 0.0
H1454 H 0.18241 0.91113 0.99166 0.0
H1455 H 0.16674 0.95502 0.99888 0.0
H1456 H 0.20939 0.98165 0.96736 0.0
H1457 H 0.22545 0.93795 0.96004 0.0
H1458 H 0.25628 0.97208 0.96901 0.0
H1459 H 0.31791 0.92922 1.04825 0.0
H1460 H 0.32977 0.86871 1.03356 0.0
H1461 H 0.24346 0.87918 0.98256 0.0
C1462 C 0.2155 1.01324 1.01679 0.0
C1463 C 0.22816 0.0389 1.03319 0.0
C1464 C 0.25762 0.03071 1.04784 0.0
C1465 C 0.27436 0.99747 1.04622 0.0
C1466 C 0.26147 0.97287 1.02969 0.0
C1467 C 0.23276 0.98039 1.01518 0.0
C1468 C 0.22476 0.94975 0.99841 0.0
C1469 C 0.18732 0.93482 1.00305 0.0
C1470 C 0.22925 0.96104 0.97216 0.0
C1471 C 0.25333 0.92363 1.00586 0.0
C1472 C 0.27414 0.93748 1.02396 0.0
C1473 C 0.30194 0.91821 1.03397 0.0
C1474 C 0.30865 0.88387 1.02533 0.0
C1475 C 0.28781 0.86898 1.00671 0.0
C1476 C 0.25979 0.88943 0.99692 0.0
H1477 H 0.43312 0.98558 0.7484 0.0
H1478 H 0.42541 0.09529 0.77151 0.0
H1479 H 0.36315 0.08507 0.78397 0.0
H1480 H 0.34577 0.97826 0.72474 0.0
H1481 H 0.34006 0.93321 0.7347 0.0
H1482 H 0.38385 0.94964 0.72818 0.0
H1483 H 0.40365 0.93123 0.77085 0.0
H1484 H 0.35946 0.91534 0.77722 0.0
H1485 H 0.3797 0.94806 0.79641 0.0
H1486 H 0.3005 0.06264 0.79315 0.0
H1487 H 0.24328 0.03046 0.79709 0.0
H1488 H 0.2929 0.93558 0.76842 0.0
C1489 C 0.4186 1.0074 0.75639 0.0
C1490 C 0.43438 0.04128 0.75893 0.0
C1491 C 0.41394 0.0692 0.76906 0.0
C1492 C 0.37857 0.06357 0.77637 0.0
C1493 C 0.36389 0.02984 0.77353 0.0
C1494 C 0.38335 1.00225 0.76379 0.0
C1495 C 0.36123 0.96878 0.76199 0.0
C1496 C 0.35753 0.95683 0.73583 0.0
C1497 C 0.37695 0.9391 0.77755 0.0
C1498 C 0.32612 0.98182 0.772 0.0
C1499 C 0.32816 1.01707 0.77871 0.0
C1500 C 0.2987 0.035 0.788 0.0
C1501 C 0.26631 1.01654 0.79019 0.0
C1502 C 0.2636 0.98056 0.78306 0.0
C1503 C 0.29411 0.96303 0.77412 0.0
H1504 H 0.31042 0.1924 0.19465 0.0
H1505 H 0.3117 0.08155 0.21505 0.0
H1506 H 0.27273 0.06709 0.18096 0.0
H1507 H 0.21924 0.19572 0.1722 0.0
H1508 H 0.22929 0.22357 0.14692 0.0
H1509 H 0.25613 0.22621 0.17353 0.0
H1510 H 0.31257 0.21352 0.14856 0.0
H1511 H 0.28593 0.21105 1.12186 0.0
H1512 H 0.3143 0.17447 1.12994 0.0
H1513 H 0.23072 0.06417 0.14483 0.0
H1514 H 0.19621 0.07177 1.10769 0.0
H1515 H 0.22502 0.18314 1.10634 0.0
C1516 C 0.30256 0.16507 0.19192 0.0
C1517 C 0.31471 0.13812 0.20801 0.0
C1518 C 0.30355 0.10278 0.20325 0.0
C1519 C 0.28101 0.09427 0.18383 0.0
C1520 C 0.26969 0.1211 0.16837 0.0
C1521 C 0.2806 0.15578 0.17188 0.0
C1522 C 0.26591 0.17902 0.15158 0.0
C1523 C 0.24118 0.20785 0.16166 0.0
C1524 C 0.2965 0.1955 1.13713 0.0
C1525 C 0.24496 0.15217 1.13634 0.0
C1526 C 0.24711 0.11901 0.14672 0.0
C1527 C 0.22924 0.09006 1.13657 0.0
C1528 C 0.20931 0.09472 1.11533 0.0
C1529 C 0.20726 0.12801 1.10355 0.0
C1530 C 0.22564 0.15717 1.11454 0.0
H1531 H 0.61725 0.47249 0.35676 0.0
H1532 H 0.73133 0.45598 0.35492 0.0
H1533 H 0.73755 0.49088 0.39198 0.0
H1534 H 0.61815 0.56212 0.38151 0.0
H1535 H 0.58052 0.55579 0.40104 0.0
H1536 H 0.58426 0.53023 0.37388 0.0
H1537 H 0.57922 0.4722 0.39814 0.0
H1538 H 0.57535 0.49762 0.42536 0.0
H1539 H 0.60953 0.46437 0.42249 0.0
H1540 H 0.73273 0.53147 0.4285 0.0
H1541 H 0.71675 0.56759 0.46368 0.0
H1542 H 0.60499 0.55484 0.44687 0.0
C1543 C 0.64356 0.47607 0.36419 0.0
C1544 C 0.6739 0.46091 0.35231 0.0
C1545 C 0.70754 0.46659 0.3632 0.0
C1546 C 0.71141 0.48675 0.38442 0.0
C1547 C 0.68134 0.50119 0.39555 0.0
C1548 C 0.64788 0.49562 0.38609 0.0
C1549 C 0.61998 0.51319 0.40252 0.0
C1550 C 0.5995 0.54204 0.38892 0.0
C1551 C 0.5945 0.48517 0.41273 0.0
C1552 C 0.64294 0.52966 0.42245 0.0
C1553 C 0.67836 0.52275 0.41765 0.0
C1554 C 0.705 0.5365 0.43243 0.0
C1555 C 0.69557 0.5573 0.45254 0.0
C1556 C 0.65957 0.56431 0.45871 0.0
C1557 C 0.63282 0.54987 0.44322 0.0
H1558 H 0.209 0.91381 0.68474 0.0
H1559 H 0.29465 0.88307 0.7322 0.0
H1560 H 0.33713 0.8869 0.69887 0.0
H1561 H 0.24293 0.86141 0.63368 0.0
H1562 H 0.22936 0.89306 0.61139 0.0
H1563 H 0.2051 0.88969 0.63911 0.0
H1564 H 0.21493 0.9566 0.64677 0.0
H1565 H 0.23938 0.96012 0.61913 0.0
H1566 H 0.25952 0.97418 0.64678 0.0
H1567 H 0.37283 0.89862 0.66057 0.0
H1568 H 0.39609 0.90707 0.61948 0.0
H1569 H 0.2886 0.92258 0.59389 0.0
C1570 C 0.23667 0.90788 0.68815 0.0
C1571 C 0.24796 0.89843 0.71176 0.0
C1572 C 0.28464 0.89044 0.71477 0.0
C1573 C 0.30935 0.89271 0.69576 0.0
C1574 C 0.29764 0.90235 0.67303 0.0
C1575 C 0.26198 0.90898 0.66891 0.0
C1576 C 0.25656 0.91653 0.64216 0.0
C1577 C 0.23202 0.88851 0.63092 0.0
C1578 C 0.2417 0.95409 0.6385 0.0
C1579 C 0.29456 0.9135 0.63212 0.0
C1580 C 0.31789 0.90602 0.65046 0.0
C1581 C 0.35456 0.90389 0.64608 0.0
C1582 C 0.36771 0.9089 0.62256 0.0
C1583 C 0.34456 0.9151 0.60305 0.0
C1584 C 0.30726 0.91738 0.60816 0.0
H1585 H 0.87804 0.54053 0.84197 0.0
H1586 H 0.89778 0.64642 0.86905 0.0
H1587 H 0.90623 0.62183 0.90968 0.0
H1588 H 0.82634 0.51204 0.89473 0.0
H1589 H 0.84221 0.46693 0.8939 0.0
H1590 H 0.83944 0.4923 0.86668 0.0
H1591 H 0.90593 0.48019 0.8584 0.0
H1592 H 0.90893 0.45494 0.88565 0.0
H1593 H 0.93849 0.49186 0.88068 0.0
H1594 H 0.91681 0.58467 0.94785 0.0
H1595 H 0.91966 0.54107 0.98049 0.0
H1596 H 0.88547 0.45827 0.93175 0.0
C1597 C 0.88429 0.55857 0.85644 0.0
C1598 C 0.88774 0.59587 0.85177 0.0
C1599 C 0.89514 0.61808 0.87166 0.0
C1600 C 0.90011 0.60416 0.89499 0.0
C1601 C 0.89675 0.56756 0.89894 0.0
C1602 C 0.88817 0.54508 0.88027 0.0
C1603 C 0.88393 0.50701 0.88989 0.0
C1604 C 0.84571 0.49378 0.88607 0.0
C1605 C 0.91092 0.48202 0.87794 0.0
C1606 C 0.89204 0.5114 0.91671 0.0
C1607 C 0.89998 0.54661 0.92131 0.0
C1608 C 0.91017 0.55723 0.94427 0.0
C1609 C 0.91187 0.5319 0.96291 0.0
C1610 C 0.90267 0.49563 0.95938 0.0
C1611 C 0.89245 0.48555 0.93559 0.0
H1612 H 0.8348 0.87077 0.17628 0.0
H1613 H 0.84359 0.98504 0.18305 0.0
H1614 H 0.80692 0.99231 0.14683 0.0
H1615 H 0.84145 0.8701 1.11016 0.0
H1616 H 0.81065 0.83389 1.10632 0.0
H1617 H 0.83678 0.83707 1.13322 0.0
H1618 H 0.77935 0.83529 0.15857 0.0
H1619 H 0.75304 0.8323 1.13174 0.0
H1620 H 0.74471 0.86727 0.15304 0.0
H1621 H 0.76474 0.98788 1.11108 0.0
H1622 H 0.72887 0.97278 1.07579 0.0
H1623 H 0.75105 0.8611 1.08692 0.0
C1624 C 0.82928 0.89736 0.17004 0.0
C1625 C 0.84269 0.92742 0.18304 0.0
C1626 C 0.83443 0.96149 0.17379 0.0
C1627 C 0.8132 0.96591 0.15311 0.0
C1628 C 0.80041 0.93605 1.14091 0.0
C1629 C 0.80877 0.90232 0.1487 0.0
C1630 C 0.79266 0.87485 1.13136 0.0
C1631 C 0.82214 0.85265 1.11956 0.0
C1632 C 0.76585 0.851 0.14446 0.0
C1633 C 0.77376 0.89832 1.1128 0.0
C1634 C 0.77816 0.93355 1.11913 0.0
C1635 C 0.76179 0.96036 1.10589 0.0
C1636 C 0.74107 0.95136 1.0857 0.0
C1637 C 0.73676 0.91568 1.07785 0.0
C1638 C 0.75375 0.88873 1.09187 0.0
H1639 H 0.33889 0.57639 0.92632 0.0
H1640 H 0.4488 0.60959 0.93275 0.0
H1641 H 0.46351 0.57715 0.8957 0.0
H1642 H 0.35896 0.48728 0.90461 0.0
H1643 H 0.32216 0.48485 0.88407 0.0
H1644 H 0.31905 0.51236 0.91039 0.0
H1645 H 0.30392 0.56579 0.88399 0.0
H1646 H 0.3081 0.53951 0.85715 0.0
H1647 H 0.33427 0.57926 0.86081 0.0
H1648 H 0.46758 0.54051 0.85749 0.0
H1649 H 0.46102 0.50201 0.82215 0.0
H1650 H 0.3494 0.48723 0.839 0.0
C1651 C 0.36591 0.57746 0.91966 0.0
C1652 C 0.39253 0.59678 0.93269 0.0
C1653 C 0.42767 0.59589 0.92337 0.0
C1654 C 0.43638 0.57725 0.90217 0.0
C1655 C 0.40998 0.55837 0.88998 0.0
C1656 C 0.37538 0.55808 0.89839 0.0
C1657 C 0.35268 0.5342 0.88199 0.0
C1658 C 0.33729 0.50281 0.89611 0.0
C1659 C 0.32295 0.55596 0.87027 0.0
C1660 C 0.37981 0.52127 0.86319 0.0
C1661 C 0.41264 0.53595 0.86825 0.0
C1662 C 0.44195 0.52885 0.85356 0.0
C1663 C 0.43792 0.50664 0.83331 0.0
C1664 C 0.4049 0.49057 0.82735 0.0
C1665 C 0.37535 0.4982 0.84288 0.0
H1666 H 0.73196 0.09371 0.67716 0.0
H1667 H 0.6883 0.19986 0.6817 0.0
H1668 H 0.71863 0.21568 0.644 0.0
H1669 H 0.81795 0.12198 0.65502 0.0
H1670 H 0.82517 0.0855 0.63477 0.0
H1671 H 0.79812 0.07936 0.66111 0.0
H1672 H 0.74522 0.05791 0.63583 0.0
H1673 H 0.77224 0.06214 0.60934 0.0
H1674 H 0.72997 0.08453 0.61116 0.0
H1675 H 0.75434 0.22104 0.60504 0.0
H1676 H 0.79298 0.21585 0.5695 0.0
H1677 H 0.81852 0.10766 0.58931 0.0
C1678 C 0.72811 0.12004 0.66993 0.0
C1679 C 0.70643 0.14524 0.68257 0.0
C1680 C 0.70381 0.17974 0.67257 0.0
C1681 C 0.72122 0.18907 0.65101 0.0
C1682 C 0.74239 0.16403 0.63917 0.0
C1683 C 0.74616 0.13017 0.64831 0.0
C1684 C 0.77222 0.10914 0.6324 0.0
C1685 C 0.80531 0.09832 0.6467 0.0
C1686 C 0.75381 0.07649 0.62154 0.0
C1687 C 0.78202 0.13618 0.61286 0.0
C1688 C 0.76427 0.16764 0.6172 0.0
C1689 C 0.76837 0.19647 0.60168 0.0
C1690 C 0.79066 0.19326 0.58132 0.0
C1691 C 0.80964 0.16157 0.57611 0.0
C1692 C 0.80507 0.13262 0.59251 0.0
H1693 H 0.17885 0.5128 0.44142 0.0
H1694 H 0.15818 0.4072 0.41416 0.0
H1695 H 0.1495 0.43213 0.37361 0.0
H1696 H 0.11809 0.56168 0.40361 0.0
H1697 H 0.14743 0.59872 0.39849 0.0
H1698 H 0.15119 0.57319 0.42558 0.0
H1699 H 0.21748 0.56127 0.41649 0.0
H1700 H 0.21398 0.58696 0.38946 0.0
H1701 H 0.22992 0.5419 0.38819 0.0
H1702 H 0.1379 0.46967 0.33591 0.0
H1703 H 0.13398 0.51351 0.30356 0.0
H1704 H 0.16965 0.59598 0.3521 0.0
C1705 C 0.17264 0.49487 0.42688 0.0
C1706 C 0.16901 0.45757 0.43143 0.0
C1707 C 0.16121 0.4355 0.41156 0.0
C1708 C 0.15604 0.44963 0.38832 0.0
C1709 C 0.15951 0.48627 0.3845 0.0
C1710 C 0.16851 0.50856 0.40315 0.0
C1711 C 0.17245 0.54675 0.39371 0.0
C1712 C 0.1457 0.57156 0.40609 0.0
C1713 C 0.21073 0.56001 0.39718 0.0
C1714 C 0.16368 0.54265 0.36698 0.0
C1715 C 0.15566 0.50747 0.36232 0.0
C1716 C 0.14468 0.49707 0.3395 0.0
C1717 C 0.14239 0.52257 0.32103 0.0
C1718 C 0.1517 0.55882 0.32456 0.0
C1719 C 0.16264 0.56872 0.34823 0.0
H1720 H 0.72736 0.593 0.6078 0.0
H1721 H 0.69099 0.70174 0.60237 0.0
H1722 H 0.72232 0.71646 0.63983 0.0
H1723 H 0.72381 0.58608 0.67312 0.0
H1724 H 0.76447 0.56125 0.67641 0.0
H1725 H 0.73865 0.55729 0.6494 0.0
H1726 H 0.79257 0.57511 0.62379 0.0
H1727 H 0.81916 0.57842 0.65046 0.0
H1728 H 0.81605 0.61563 0.63042 0.0
H1729 H 0.75777 0.72037 0.67894 0.0
H1730 H 0.79585 0.71369 0.71454 0.0
H1731 H 0.81475 0.60368 0.69556 0.0
C1732 C 0.72546 0.61978 0.61471 0.0
C1733 C 0.70546 0.64602 0.60184 0.0
C1734 C 0.70525 0.68088 0.61155 0.0
C1735 C 0.72323 0.68959 0.63302 0.0
C1736 C 0.74267 0.66352 0.64509 0.0
C1737 C 0.74427 0.62928 0.63619 0.0
C1738 C 0.76859 0.60692 0.65244 0.0
C1739 C 0.74765 0.57603 0.66351 0.0
C1740 C 0.801 0.59321 0.63842 0.0
C1741 C 0.78006 0.63377 0.6718 0.0
C1742 C 0.76444 0.66619 0.66715 0.0
C1743 C 0.77019 0.69505 0.68251 0.0
C1744 C 0.79214 0.69098 0.70292 0.0
C1745 C 0.80922 0.65837 0.70835 0.0
C1746 C 0.80282 0.62931 0.69219 0.0
H1747 H 0.12071 0.96448 0.8605 0.0
H1748 H 0.23513 0.96526 0.85085 0.0
H1749 H 0.24138 1.00352 0.88639 0.0
H1750 H 0.11091 0.05472 0.88328 0.0
H1751 H 0.07811 0.04395 0.90564 0.0
H1752 H 0.08159 1.01743 0.87888 0.0
H1753 H 0.08992 0.96106 0.90448 0.0
H1754 H 0.08626 0.98743 0.9313 0.0
H1755 H 0.12477 0.95982 0.92656 0.0
H1756 H 0.23583 0.04543 0.92191 0.0
H1757 H 0.22012 0.08051 0.95747 0.0
H1758 H 0.10966 0.04944 0.94951 0.0
C1759 C 0.14709 0.97263 0.8659 0.0
C1760 C 0.17752 0.96141 0.85233 0.0
C1761 C 0.21136 0.97284 0.86056 0.0
C1762 C 0.2152 0.99494 0.88085 0.0
C1763 C 0.18504 1.00544 0.89372 0.0
C1764 C 0.15159 0.99413 0.8869 0.0
C1765 C 0.12395 1.0082 0.90495 0.0
C1766 C 0.09703 0.03251 0.89244 0.0
C1767 C 0.1051 0.97728 0.91757 0.0
C1768 C 0.14699 0.0294 0.92268 0.0
C1769 C 0.18211 0.02777 0.9154 0.0
C1770 C 0.20843 0.04636 0.92782 0.0
C1771 C 0.19906 0.06661 0.94816 0.0
C1772 C 0.16356 0.06826 0.95692 0.0
C1773 C 0.13714 0.04895 0.94375 0.0
H1774 H 0.78969 0.42777 1.09242 0.0
H1775 H 0.89563 0.4073 1.11926 0.0
H1776 H 0.8709 0.39902 0.15994 0.0
H1777 H 0.76123 0.47932 0.1454 0.0
H1778 H 0.71597 0.46362 0.14468 0.0
H1779 H 0.74138 0.46643 1.11739 0.0
H1780 H 0.729 0.40015 1.10901 0.0
H1781 H 0.7037 0.39712 1.13633 0.0
H1782 H 0.74059 0.36754 1.1312 0.0
H1783 H 0.83391 0.38862 0.19793 0.0
H1784 H 0.79048 0.38559 0.23072 0.0
H1785 H 0.70715 0.42007 0.18257 0.0
C1786 C 0.80769 0.42144 1.10687 0.0
C1787 C 0.84505 0.41773 1.10215 0.0
C1788 C 0.86725 0.41015 1.12196 0.0
C1789 C 0.85325 0.40528 0.14529 0.0
C1790 C 0.81661 0.40888 0.1493 0.0
C1791 C 0.79412 0.41759 1.13072 0.0
C1792 C 0.75598 0.4219 1.14046 0.0
C1793 C 0.74285 0.46009 1.13676 0.0
C1794 C 0.73082 0.39509 1.12853 0.0
C1795 C 0.76038 0.41369 0.16725 0.0
C1796 C 0.79565 0.40567 0.17168 0.0
C1797 C 0.80641 0.39533 0.19452 0.0
C1798 C 0.78114 0.39358 0.21325 0.0
C1799 C 0.74477 0.4028 0.20995 0.0
C1800 C 0.73451 0.41315 0.18625 0.0
H1801 H 0.44152 0.99197 0.44335 0.0
H1802 H 0.33189 0.99722 0.46718 0.0
H1803 H 0.31734 0.03602 0.43322 0.0
H1804 H 0.44802 0.0827 0.41975 0.0
H1805 H 0.47372 0.07061 0.39375 0.0
H1806 H 0.47679 0.04447 0.42062 0.0
H1807 H 0.45973 0.9882 0.39681 0.0
H1808 H 0.45672 1.01414 0.36986 0.0
H1809 H 0.41932 0.98787 0.37953 0.0
H1810 H 0.31391 0.07642 0.39667 0.0
H1811 H 0.32063 0.10942 0.35887 0.0
H1812 H 0.43082 0.07605 0.35459 0.0
C1813 C 0.41452 1.00147 0.4415 0.0
C1814 C 0.38793 0.99121 0.45853 0.0
C1815 C 0.35289 1.00416 0.45476 0.0
C1816 C 0.34429 0.02653 0.43538 0.0
C1817 C 0.37071 0.036 0.41899 0.0
C1818 C 0.40508 0.02349 0.42156 0.0
C1819 C 0.42768 0.03645 0.40034 0.0
C1820 C 0.45839 0.05995 0.40914 0.0
C1821 C 0.4417 1.00478 0.38577 0.0
C1822 C 0.40082 0.05822 0.38571 0.0
C1823 C 0.36823 0.05789 0.39712 0.0
C1824 C 0.33936 0.07656 0.38761 0.0
C1825 C 0.34351 0.09558 0.36597 0.0
C1826 C 0.37619 0.09594 0.35321 0.0
C1827 C 0.40529 0.07671 0.36355 0.0
H1828 H 0.32142 0.37132 0.68213 0.0
H1829 H 0.35593 0.48091 0.67737 0.0
H1830 H 0.32342 0.48731 0.63947 0.0
H1831 H 0.32911 0.35328 0.61724 0.0
H1832 H 0.29066 0.32478 0.61605 0.0
H1833 H 0.31611 0.32821 0.64324 0.0
H1834 H 0.25931 0.34591 0.66638 0.0
H1835 H 0.23372 0.34263 0.63925 0.0
H1836 H 0.23342 0.38323 0.65633 0.0
H1837 H 0.28391 0.48387 0.60264 0.0
H1838 H 0.24593 0.46924 0.56812 0.0
H1839 H 0.23895 0.36026 0.59226 0.0
C1840 C 0.32229 0.39665 0.67309 0.0
C1841 C 0.34179 0.42569 0.68337 0.0
C1842 C 0.34182 0.45809 0.67041 0.0
C1843 C 0.3231 0.46208 0.64867 0.0
C1844 C 0.30427 0.43333 0.63918 0.0
C1845 C 0.30409 0.40097 0.65074 0.0
C1846 C 0.28233 0.3742 0.6359 0.0
C1847 C 0.30596 0.34327 0.62762 0.0
C1848 C 0.25029 0.36068 0.65033 0.0
C1849 C 0.27008 0.39663 0.61445 0.0
C1850 C 0.28285 0.43082 0.61707 0.0
C1851 C 0.27414 0.45706 0.60045 0.0
C1852 C 0.25223 0.44845 0.58076 0.0
C1853 C 0.23905 0.41359 0.57695 0.0
C1854 C 0.24856 0.38717 0.59421 0.0
H1855 H 0.92927 0.07483 0.43185 0.0
H1856 H 0.82103 0.11311 0.42536 0.0
H1857 H 0.81423 0.07918 0.38786 0.0
H1858 H 0.94896 0.07961 0.36697 0.0
H1859 H 0.97646 0.04045 0.36676 0.0
H1860 H 0.97312 0.06715 0.39345 0.0
H1861 H 0.95333 1.01199 0.41735 0.0
H1862 H 0.95642 0.98518 0.39071 0.0
H1863 H 0.91539 0.98676 0.40738 0.0
H1864 H 0.81711 0.03691 0.3518 0.0
H1865 H 0.83173 0.99719 0.31805 0.0
H1866 H 0.94024 0.98929 0.34339 0.0
C1867 C 0.90417 0.07631 0.42248 0.0
C1868 C 0.87561 0.09721 0.43215 0.0
C1869 C 0.8435 0.09797 0.41881 0.0
C1870 C 0.83928 0.0784 0.39733 0.0
C1871 C 0.86759 0.05809 0.38848 0.0
C1872 C 0.89975 0.05744 0.40037 0.0
C1873 C 0.92626 0.03437 0.3862 0.0
C1874 C 0.9581 0.05673 0.37785 0.0
C1875 C 0.93859 1.0027 0.40132 0.0
C1876 C 0.90393 1.02181 0.36476 0.0
C1877 C 0.86994 0.03551 0.36679 0.0
C1878 C 0.8438 0.0265 0.35007 0.0
C1879 C 0.85238 1.00354 0.33084 0.0
C1880 C 0.88714 0.98963 0.32755 0.0
C1881 C 0.91339 0.99935 0.34495 0.0
H1882 H 0.22941 0.68323 0.18148 0.0
H1883 H 0.19631 0.57329 0.17584 0.0
H1884 H 0.22955 0.56762 1.13803 0.0
H1885 H 0.22261 0.70185 1.11673 0.0
H1886 H 0.26074 0.73081 1.11596 0.0
H1887 H 0.23488 0.72677 0.14299 0.0
H1888 H 0.2915 0.70947 0.16627 0.0
H1889 H 0.3175 0.71335 1.1393 0.0
H1890 H 0.31799 0.67256 0.15605 0.0
H1891 H 0.26961 0.57199 1.10125 0.0
H1892 H 0.30783 0.58754 1.06699 0.0
H1893 H 0.31334 0.69624 1.09216 0.0
C1894 C 0.22898 0.65796 0.17226 0.0
C1895 C 0.20963 0.62862 0.18225 0.0
C1896 C 0.21023 0.59634 0.16908 0.0
C1897 C 0.22938 0.59277 0.14739 0.0
C1898 C 0.24804 0.62184 1.13817 0.0
C1899 C 0.24762 0.65408 0.14997 0.0
C1900 C 0.26932 0.68126 1.13544 0.0
C1901 C 0.24546 0.71201 1.1273 0.0
C1902 C 0.30095 0.69498 0.15015 0.0
C1903 C 0.28221 0.65924 1.11387 0.0
C1904 C 0.26979 0.62486 1.11616 0.0
C1905 C 0.27906 0.59896 1.09933 0.0
C1906 C 0.30111 0.6081 1.07978 0.0
C1907 C 0.31397 0.64316 1.07631 0.0
C1908 C 0.30395 0.66921 1.09381 0.0
H1909 H 0.61964 0.97689 0.92939 0.0
H1910 H 0.73112 0.94778 0.92727 0.0
H1911 H 0.73825 0.98121 0.88964 0.0
H1912 H 0.60585 0.96906 0.86397 0.0
H1913 H 0.5753 1.00582 0.86247 0.0
H1914 H 0.57857 0.98002 0.88947 0.0
H1915 H 0.59179 0.03709 0.91353 0.0
H1916 H 0.58873 0.06302 0.88659 0.0
H1917 H 0.62831 0.06514 0.90465 0.0
H1918 H 0.73491 0.02241 0.85318 0.0
H1919 H 0.72004 0.06048 0.81882 0.0
H1920 H 0.60917 0.05971 0.8401 0.0
C1921 C 0.64553 0.97723 0.92092 0.0
C1922 C 0.67487 0.9591 0.93183 0.0
C1923 C 0.70805 0.96072 0.9197 0.0
C1924 C 0.71243 0.98003 0.89817 0.0
C1925 C 0.6833 0.99764 0.88809 0.0
C1926 C 0.65023 0.99585 0.89881 0.0
C1927 C 0.62313 1.01638 0.88355 0.0
C1928 C 0.59397 0.99133 0.87432 0.0
C1929 C 0.60703 0.04724 0.89794 0.0
C1930 C 0.64611 0.0303 0.86281 0.0
C1931 C 0.68091 1.0195 0.86616 0.0
C1932 C 0.70762 0.03045 0.85039 0.0
C1933 C 0.69884 0.05238 0.83077 0.0
C1934 C 0.66336 0.0633 0.82612 0.0
C1935 C 0.63654 0.0517 0.84259 0.0
loop_
_geom_bond_atom_site_label_1
_geom_bond_atom_site_label_2
_geom_bond_distance
_geom_bond_site_symmetry_2
_ccdc_geom_bond_type
Sm0 C2 2.846 . S
Sm0 O20 2.543 . S
Sm0 O21 2.450 . S
Sm0 O22 2.681 . S
Sm0 O23 2.464 . S
Sm0 O24 2.396 . S
Sm0 O28 2.386 . S
Sm0 O31 2.408 . S
Sm1 C11 2.846 . S
Sm1 O22 2.386 . S
Sm1 O25 2.408 . S
Sm1 O26 2.543 . S
Sm1 O27 2.450 . S
Sm1 O28 2.681 . S
Sm1 O29 2.464 . S
Sm1 O30 2.396 . S
C2 Sm0 2.846 . S
C2 C3 1.506 . S
C2 O20 1.261 . S
C2 O21 1.242 . S
C3 C2 1.506 . S
C3 C4 1.358 . S
C3 C8 1.382 . S
C4 C3 1.358 . S
C4 C5 1.385 . S
C4 H32 0.930 . S
C5 C4 1.385 . S
C5 C6 1.395 . S
C5 H33 0.929 . S
C6 C5 1.395 . S
C6 C7 1.335 . S
C7 C6 1.335 . S
C7 C8 1.398 . S
C7 H34 0.930 . S
C8 C3 1.382 . S
C8 C7 1.398 . S
C8 H35 0.929 . S
C9 O22 1.271 . S
C9 O23 1.251 . S
C10 O24 1.252 . S
C10 O25 1.272 . S
C11 Sm1 2.846 . S
C11 C12 1.506 . S
C11 O26 1.261 . S
C11 O27 1.242 . S
C12 C11 1.506 . S
C12 C13 1.358 . S
C12 C17 1.382 . S
C13 C12 1.358 . S
C13 C14 1.385 . S
C13 H36 0.930 . S
C14 C13 1.385 . S
C14 C15 1.395 1_545 S
C14 H37 0.929 . S
C15 C14 1.395 1_565 S
C15 C16 1.335 . S
C16 C15 1.335 . S
C16 C17 1.398 1_565 S
C16 H38 0.930 . S
C17 C12 1.382 . S
C17 C16 1.398 1_545 S
C17 H39 0.929 1_545 S
C18 O28 1.271 . S
C18 O29 1.251 . S
C19 O30 1.252 . S
C19 O31 1.272 . S
O20 Sm0 2.543 . S
O20 C2 1.261 . S
O21 Sm0 2.450 . S
O21 C2 1.242 . S
O22 Sm0 2.681 . S
O22 Sm1 2.386 . S
O22 C9 1.271 . S
O23 Sm0 2.464 . S
O23 C9 1.251 . S
O24 Sm0 2.396 . S
O24 C10 1.252 . S
O25 Sm1 2.408 . S
O25 C10 1.272 . S
O26 Sm1 2.543 . S
O26 C11 1.261 . S
O27 Sm1 2.450 . S
O27 C11 1.242 . S
O28 Sm0 2.386 . S
O28 Sm1 2.681 . S
O28 C18 1.271 . S
O29 Sm1 2.464 . S
O29 C18 1.251 . S
O30 Sm1 2.396 . S
O30 C19 1.252 . S
O31 Sm0 2.408 . S
O31 C19 1.272 . S
H32 C4 0.930 . S
H33 C5 0.929 . S
H34 C7 0.930 . S
H35 C8 0.929 . S
H36 C13 0.930 . S
H37 C14 0.929 . S
H38 C16 0.930 . S
H39 C17 0.929 1_565 S
Sm40 C42 2.846 . S
Sm40 O60 2.543 . S
Sm40 O61 2.450 . S
Sm40 O62 2.681 . S
Sm40 O63 2.464 . S
Sm40 O64 2.396 . S
Sm40 O68 2.386 . S
Sm40 O71 2.408 . S
Sm41 C51 2.846 . S
Sm41 O62 2.386 . S
Sm41 O65 2.408 . S
Sm41 O66 2.543 . S
Sm41 O67 2.450 . S
Sm41 O68 2.681 . S
Sm41 O69 2.464 . S
Sm41 O70 2.396 . S
C42 Sm40 2.846 . S
C42 C43 1.506 . S
C42 O60 1.261 . S
C42 O61 1.242 . S
C43 C42 1.506 . S
C43 C44 1.358 . S
C43 C48 1.382 . S
C44 C43 1.358 . S
C44 C45 1.385 . S
C44 H72 0.930 . S
C45 C44 1.385 . S
C45 C46 1.395 . S
C45 H73 0.929 . S
C46 C45 1.395 . S
C46 C47 1.335 . S
C47 C46 1.335 . S
C47 C48 1.398 . S
C47 H74 0.930 . S
C48 C43 1.382 . S
C48 C47 1.398 . S
C48 H75 0.929 . S
C49 O62 1.271 . S
C49 O63 1.251 . S
C50 O64 1.252 . S
C50 O65 1.272 . S
C51 Sm41 2.846 . S
C51 C52 1.506 . S
C51 O66 1.261 . S
C51 O67 1.242 . S
C52 C51 1.506 . S
C52 C53 1.358 . S
C52 C57 1.382 . S
C53 C52 1.358 . S
C53 C54 1.385 . S
C53 H76 0.930 . S
C54 C53 1.385 . S
C54 C55 1.395 . S
C54 H77 0.929 . S
C55 C54 1.395 . S
C55 C56 1.335 . S
C56 C55 1.335 . S
C56 C57 1.398 . S
C56 H78 0.930 . S
C57 C52 1.382 . S
C57 C56 1.398 . S
C57 H79 0.929 . S
C58 O68 1.271 . S
C58 O69 1.251 . S
C59 O70 1.252 . S
C59 O71 1.272 . S
O60 Sm40 2.543 . S
O60 C42 1.261 . S
O61 Sm40 2.450 . S
O61 C42 1.242 . S
O62 Sm40 2.681 . S
O62 Sm41 2.386 . S
O62 C49 1.271 . S
O63 Sm40 2.464 . S
O63 C49 1.251 . S
O64 Sm40 2.396 . S
O64 C50 1.252 . S
O65 Sm41 2.408 . S
O65 C50 1.272 . S
O66 Sm41 2.543 . S
O66 C51 1.261 . S
O67 Sm41 2.450 . S
O67 C51 1.242 . S
O68 Sm40 2.386 . S
O68 Sm41 2.681 . S
O68 C58 1.271 . S
O69 Sm41 2.464 . S
O69 C58 1.251 . S
O70 Sm41 2.396 . S
O70 C59 1.252 . S
O71 Sm40 2.408 . S
O71 C59 1.272 . S
H72 C44 0.930 . S
H73 C45 0.929 . S
H74 C47 0.930 . S
H75 C48 0.929 . S
H76 C53 0.930 . S
H77 C54 0.929 . S
H78 C56 0.930 . S
H79 C57 0.929 . S
Sm80 C82 2.846 . S
Sm80 O100 2.543 . S
Sm80 O101 2.450 . S
Sm80 O102 2.681 . S
Sm80 O103 2.464 . S
Sm80 O104 2.396 . S
Sm80 O108 2.386 . S
Sm80 O111 2.408 . S
Sm81 C91 2.846 . S
Sm81 O102 2.386 . S
Sm81 O105 2.408 . S
Sm81 O106 2.543 . S
Sm81 O107 2.450 . S
Sm81 O108 2.681 . S
Sm81 O109 2.464 . S
Sm81 O110 2.396 . S
C82 Sm80 2.846 . S
C82 C83 1.506 . S
C82 O100 1.261 . S
C82 O101 1.242 . S
C83 C82 1.506 . S
C83 C84 1.358 . S
C83 C88 1.382 . S
C84 C83 1.358 . S
C84 C85 1.385 . S
C84 H112 0.930 . S
C85 C84 1.385 . S
C85 C86 1.395 . S
C85 H113 0.929 . S
C86 C85 1.395 . S
C86 C87 1.335 . S
C87 C86 1.335 . S
C87 C88 1.398 . S
C87 H114 0.930 . S
C88 C83 1.382 . S
C88 C87 1.398 . S
C88 H115 0.929 . S
C89 O102 1.271 . S
C89 O103 1.251 . S
C90 O104 1.252 . S
C90 O105 1.272 . S
C91 Sm81 2.846 . S
C91 C92 1.506 . S
C91 O106 1.261 . S
C91 O107 1.242 . S
C92 C91 1.506 . S
C92 C93 1.358 . S
C92 C97 1.382 . S
C93 C92 1.358 . S
C93 C94 1.385 . S
C93 H116 0.930 . S
C94 C93 1.385 . S
C94 C95 1.395 1_565 S
C94 H117 0.929 . S
C95 C94 1.395 1_545 S
C95 C96 1.335 . S
C96 C95 1.335 . S
C96 C97 1.398 1_545 S
C96 H118 0.930 . S
C97 C92 1.382 . S
C97 C96 1.398 1_565 S
C97 H119 0.929 1_565 S
C98 O108 1.271 . S
C98 O109 1.251 . S
C99 O110 1.252 . S
C99 O111 1.272 . S
O100 Sm80 2.543 . S
O100 C82 1.261 . S
O101 Sm80 2.450 . S
O101 C82 1.242 . S
O102 Sm80 2.681 . S
O102 Sm81 2.386 . S
O102 C89 1.271 . S
O103 Sm80 2.464 . S
O103 C89 1.251 . S
O104 Sm80 2.396 . S
O104 C90 1.252 . S
O105 Sm81 2.408 . S
O105 C90 1.272 . S
O106 Sm81 2.543 . S
O106 C91 1.261 . S
O107 Sm81 2.450 . S
O107 C91 1.242 . S
O108 Sm80 2.386 . S
O108 Sm81 2.681 . S
O108 C98 1.271 . S
O109 Sm81 2.464 . S
O109 C98 1.251 . S
O110 Sm81 2.396 . S
O110 C99 1.252 . S
O111 Sm80 2.408 . S
O111 C99 1.272 . S
H112 C84 0.930 . S
H113 C85 0.929 . S
H114 C87 0.930 . S
H115 C88 0.929 . S
H116 C93 0.930 . S
H117 C94 0.929 . S
H118 C96 0.930 . S
H119 C97 0.929 1_545 S
Sm120 C122 2.846 . S
Sm120 O140 2.543 . S
Sm120 O141 2.450 . S
Sm120 O142 2.681 . S
Sm120 O143 2.464 . S
Sm120 O144 2.396 . S
Sm120 O148 2.386 . S
Sm120 O151 2.408 . S
Sm121 C131 2.846 . S
Sm121 O142 2.386 . S
Sm121 O145 2.408 . S
Sm121 O146 2.543 . S
Sm121 O147 2.450 . S
Sm121 O148 2.681 . S
Sm121 O149 2.464 . S
Sm121 O150 2.396 . S
C122 Sm120 2.846 . S
C122 C123 1.506 1_655 S
C122 O140 1.261 . S
C122 O141 1.242 . S
C123 C122 1.506 1_455 S
C123 C124 1.358 1_455 S
C123 C128 1.382 . S
C124 C123 1.358 1_655 S
C124 C125 1.385 1_655 S
C124 H152 0.930 . S
C125 C124 1.385 1_455 S
C125 C126 1.395 . S
C125 H153 0.929 . S
C126 C125 1.395 . S
C126 C127 1.335 . S
C127 C126 1.335 . S
C127 C128 1.398 . S
C127 H154 0.930 . S
C128 C123 1.382 . S
C128 C127 1.398 . S
C128 H155 0.929 . S
C129 O142 1.271 . S
C129 O143 1.251 . S
C130 O144 1.252 . S
C130 O145 1.272 . S
C131 Sm121 2.846 . S
C131 C132 1.506 . S
C131 O146 1.261 . S
C131 O147 1.242 . S
C132 C131 1.506 . S
C132 C133 1.358 . S
C132 C137 1.382 . S
C133 C132 1.358 . S
C133 C134 1.385 . S
C133 H156 0.930 . S
C134 C133 1.385 . S
C134 C135 1.395 . S
C134 H157 0.929 . S
C135 C134 1.395 . S
C135 C136 1.335 . S
C136 C135 1.335 . S
C136 C137 1.398 . S
C136 H158 0.930 . S
C137 C132 1.382 . S
C137 C136 1.398 . S
C137 H159 0.929 . S
C138 O148 1.271 . S
C138 O149 1.251 . S
C139 O150 1.252 . S
C139 O151 1.272 . S
O140 Sm120 2.543 . S
O140 C122 1.261 . S
O141 Sm120 2.450 . S
O141 C122 1.242 . S
O142 Sm120 2.681 . S
O142 Sm121 2.386 . S
O142 C129 1.271 . S
O143 Sm120 2.464 . S
O143 C129 1.251 . S
O144 Sm120 2.396 . S
O144 C130 1.252 . S
O145 Sm121 2.408 . S
O145 C130 1.272 . S
O146 Sm121 2.543 . S
O146 C131 1.261 . S
O147 Sm121 2.450 . S
O147 C131 1.242 . S
O148 Sm120 2.386 . S
O148 Sm121 2.681 . S
O148 C138 1.271 . S
O149 Sm121 2.464 . S
O149 C138 1.251 . S
O150 Sm121 2.396 . S
O150 C139 1.252 . S
O151 Sm120 2.408 . S
O151 C139 1.272 . S
H152 C124 0.930 . S
H153 C125 0.929 . S
H154 C127 0.930 . S
H155 C128 0.929 . S
H156 C133 0.930 . S
H157 C134 0.929 . S
H158 C136 0.930 . S
H159 C137 0.929 . S
Sm160 C162 2.846 . S
Sm160 O180 2.543 . S
Sm160 O181 2.450 . S
Sm160 O182 2.681 . S
Sm160 O183 2.464 . S
Sm160 O184 2.396 . S
Sm160 O188 2.386 . S
Sm160 O191 2.408 . S
Sm161 C171 2.846 . S
Sm161 O182 2.386 . S
Sm161 O185 2.408 . S
Sm161 O186 2.543 . S
Sm161 O187 2.450 . S
Sm161 O188 2.681 . S
Sm161 O189 2.464 . S
Sm161 O190 2.396 . S
C162 Sm160 2.846 . S
C162 C163 1.506 . S
C162 O180 1.261 . S
C162 O181 1.242 . S
C163 C162 1.506 . S
C163 C164 1.358 . S
C163 C168 1.382 . S
C164 C163 1.358 . S
C164 C165 1.385 . S
C164 H192 0.930 . S
C165 C164 1.385 . S
C165 C166 1.395 1_565 S
C165 H193 0.929 . S
C166 C165 1.395 1_545 S
C166 C167 1.335 . S
C167 C166 1.335 . S
C167 C168 1.398 1_545 S
C167 H194 0.930 . S
C168 C163 1.382 . S
C168 C167 1.398 1_565 S
C168 H195 0.929 1_565 S
C169 O182 1.271 . S
C169 O183 1.251 . S
C170 O184 1.252 . S
C170 O185 1.272 . S
C171 Sm161 2.846 . S
C171 C172 1.506 . S
C171 O186 1.261 . S
C171 O187 1.242 . S
C172 C171 1.506 . S
C172 C173 1.358 . S
C172 C177 1.382 . S
C173 C172 1.358 . S
C173 C174 1.385 . S
C173 H196 0.930 . S
C174 C173 1.385 . S
C174 C175 1.395 . S
C174 H197 0.929 . S
C175 C174 1.395 . S
C175 C176 1.335 . S
C176 C175 1.335 . S
C176 C177 1.398 . S
C176 H198 0.930 . S
C177 C172 1.382 . S
C177 C176 1.398 . S
C177 H199 0.929 . S
C178 O188 1.271 . S
C178 O189 1.251 . S
C179 O190 1.252 . S
C179 O191 1.272 . S
O180 Sm160 2.543 . S
O180 C162 1.261 . S
O181 Sm160 2.450 . S
O181 C162 1.242 . S
O182 Sm160 2.681 . S
O182 Sm161 2.386 . S
O182 C169 1.271 . S
O183 Sm160 2.464 . S
O183 C169 1.251 . S
O184 Sm160 2.396 . S
O184 C170 1.252 . S
O185 Sm161 2.408 . S
O185 C170 1.272 . S
O186 Sm161 2.543 . S
O186 C171 1.261 . S
O187 Sm161 2.450 . S
O187 C171 1.242 . S
O188 Sm160 2.386 . S
O188 Sm161 2.681 . S
O188 C178 1.271 . S
O189 Sm161 2.464 . S
O189 C178 1.251 . S
O190 Sm161 2.396 . S
O190 C179 1.252 . S
O191 Sm160 2.408 . S
O191 C179 1.272 . S
H192 C164 0.930 . S
H193 C165 0.929 . S
H194 C167 0.930 . S
H195 C168 0.929 1_545 S
H196 C173 0.930 . S
H197 C174 0.929 . S
H198 C176 0.930 . S
H199 C177 0.929 . S
Sm200 C202 2.846 . S
Sm200 O220 2.543 . S
Sm200 O221 2.450 . S
Sm200 O222 2.681 . S
Sm200 O223 2.464 . S
Sm200 O224 2.396 . S
Sm200 O228 2.386 . S
Sm200 O231 2.408 . S
Sm201 C211 2.846 . S
Sm201 O222 2.386 . S
Sm201 O225 2.408 . S
Sm201 O226 2.543 . S
Sm201 O227 2.450 . S
Sm201 O228 2.681 . S
Sm201 O229 2.464 . S
Sm201 O230 2.396 . S
C202 Sm200 2.846 . S
C202 C203 1.506 . S
C202 O220 1.261 . S
C202 O221 1.242 . S
C203 C202 1.506 . S
C203 C204 1.358 . S
C203 C208 1.382 . S
C204 C203 1.358 . S
C204 C205 1.385 . S
C204 H232 0.930 . S
C205 C204 1.385 . S
C205 C206 1.395 . S
C205 H233 0.929 . S
C206 C205 1.395 . S
C206 C207 1.335 . S
C207 C206 1.335 . S
C207 C208 1.398 . S
C207 H234 0.930 . S
C208 C203 1.382 . S
C208 C207 1.398 . S
C208 H235 0.929 . S
C209 O222 1.271 . S
C209 O223 1.251 . S
C210 O224 1.252 . S
C210 O225 1.272 . S
C211 Sm201 2.846 . S
C211 C212 1.506 . S
C211 O226 1.261 . S
C211 O227 1.242 . S
C212 C211 1.506 . S
C212 C213 1.358 . S
C212 C217 1.382 . S
C213 C212 1.358 . S
C213 C214 1.385 . S
C213 H236 0.930 . S
C214 C213 1.385 . S
C214 C215 1.395 . S
C214 H237 0.929 . S
C215 C214 1.395 . S
C215 C216 1.335 . S
C216 C215 1.335 . S
C216 C217 1.398 . S
C216 H238 0.930 . S
C217 C212 1.382 . S
C217 C216 1.398 . S
C217 H239 0.929 . S
C218 O228 1.271 . S
C218 O229 1.251 . S
C219 O230 1.252 . S
C219 O231 1.272 . S
O220 Sm200 2.543 . S
O220 C202 1.261 . S
O221 Sm200 2.450 . S
O221 C202 1.242 . S
O222 Sm200 2.681 . S
O222 Sm201 2.386 . S
O222 C209 1.271 . S
O223 Sm200 2.464 . S
O223 C209 1.251 . S
O224 Sm200 2.396 . S
O224 C210 1.252 . S
O225 Sm201 2.408 . S
O225 C210 1.272 . S
O226 Sm201 2.543 . S
O226 C211 1.261 . S
O227 Sm201 2.450 . S
O227 C211 1.242 . S
O228 Sm200 2.386 . S
O228 Sm201 2.681 . S
O228 C218 1.271 . S
O229 Sm201 2.464 . S
O229 C218 1.251 . S
O230 Sm201 2.396 . S
O230 C219 1.252 . S
O231 Sm200 2.408 . S
O231 C219 1.272 . S
H232 C204 0.930 . S
H233 C205 0.929 . S
H234 C207 0.930 . S
H235 C208 0.929 . S
H236 C213 0.930 . S
H237 C214 0.929 . S
H238 C216 0.930 . S
H239 C217 0.929 . S
Sm240 C242 2.846 . S
Sm240 O260 2.543 . S
Sm240 O261 2.450 . S
Sm240 O262 2.681 . S
Sm240 O263 2.464 . S
Sm240 O264 2.396 . S
Sm240 O268 2.386 . S
Sm240 O271 2.408 . S
Sm241 C251 2.846 . S
Sm241 O262 2.386 . S
Sm241 O265 2.408 . S
Sm241 O266 2.543 . S
Sm241 O267 2.450 . S
Sm241 O268 2.681 . S
Sm241 O269 2.464 . S
Sm241 O270 2.396 . S
C242 Sm240 2.846 . S
C242 C243 1.506 . S
C242 O260 1.261 . S
C242 O261 1.242 . S
C243 C242 1.506 . S
C243 C244 1.358 . S
C243 C248 1.382 . S
C244 C243 1.358 . S
C244 C245 1.385 . S
C244 H272 0.930 . S
C245 C244 1.385 . S
C245 C246 1.395 1_545 S
C245 H273 0.929 . S
C246 C245 1.395 1_565 S
C246 C247 1.335 . S
C247 C246 1.335 . S
C247 C248 1.398 1_565 S
C247 H274 0.930 . S
C248 C243 1.382 . S
C248 C247 1.398 1_545 S
C248 H275 0.929 1_545 S
C249 O262 1.271 . S
C249 O263 1.251 . S
C250 O264 1.252 . S
C250 O265 1.272 . S
C251 Sm241 2.846 . S
C251 C252 1.506 . S
C251 O266 1.261 . S
C251 O267 1.242 . S
C252 C251 1.506 . S
C252 C253 1.358 . S
C252 C257 1.382 . S
C253 C252 1.358 . S
C253 C254 1.385 . S
C253 H276 0.930 . S
C254 C253 1.385 . S
C254 C255 1.395 . S
C254 H277 0.929 . S
C255 C254 1.395 . S
C255 C256 1.335 . S
C256 C255 1.335 . S
C256 C257 1.398 . S
C256 H278 0.930 . S
C257 C252 1.382 . S
C257 C256 1.398 . S
C257 H279 0.929 . S
C258 O268 1.271 . S
C258 O269 1.251 . S
C259 O270 1.252 . S
C259 O271 1.272 . S
O260 Sm240 2.543 . S
O260 C242 1.261 . S
O261 Sm240 2.450 . S
O261 C242 1.242 . S
O262 Sm240 2.681 . S
O262 Sm241 2.386 . S
O262 C249 1.271 . S
O263 Sm240 2.464 . S
O263 C249 1.251 . S
O264 Sm240 2.396 . S
O264 C250 1.252 . S
O265 Sm241 2.408 . S
O265 C250 1.272 . S
O266 Sm241 2.543 . S
O266 C251 1.261 . S
O267 Sm241 2.450 . S
O267 C251 1.242 . S
O268 Sm240 2.386 . S
O268 Sm241 2.681 . S
O268 C258 1.271 . S
O269 Sm241 2.464 . S
O269 C258 1.251 . S
O270 Sm241 2.396 . S
O270 C259 1.252 . S
O271 Sm240 2.408 . S
O271 C259 1.272 . S
H272 C244 0.930 . S
H273 C245 0.929 . S
H274 C247 0.930 . S
H275 C248 0.929 1_565 S
H276 C253 0.930 . S
H277 C254 0.929 . S
H278 C256 0.930 . S
H279 C257 0.929 . S
Sm280 C282 2.846 . S
Sm280 O300 2.543 . S
Sm280 O301 2.450 . S
Sm280 O302 2.681 . S
Sm280 O303 2.464 . S
Sm280 O304 2.396 . S
Sm280 O308 2.386 . S
Sm280 O311 2.408 . S
Sm281 C291 2.846 . S
Sm281 O302 2.386 . S
Sm281 O305 2.408 . S
Sm281 O306 2.543 . S
Sm281 O307 2.450 . S
Sm281 O308 2.681 . S
Sm281 O309 2.464 . S
Sm281 O310 2.396 . S
C282 Sm280 2.846 . S
C282 C283 1.506 . S
C282 O300 1.261 . S
C282 O301 1.242 . S
C283 C282 1.506 . S
C283 C284 1.358 . S
C283 C288 1.382 . S
C284 C283 1.358 . S
C284 C285 1.385 . S
C284 H312 0.930 . S
C285 C284 1.385 . S
C285 C286 1.395 . S
C285 H313 0.929 . S
C286 C285 1.395 . S
C286 C287 1.335 . S
C287 C286 1.335 . S
C287 C288 1.398 . S
C287 H314 0.930 . S
C288 C283 1.382 . S
C288 C287 1.398 . S
C288 H315 0.929 . S
C289 O302 1.271 . S
C289 O303 1.251 . S
C290 O304 1.252 . S
C290 O305 1.272 . S
C291 Sm281 2.846 . S
C291 C292 1.506 1_455 S
C291 O306 1.261 . S
C291 O307 1.242 . S
C292 C291 1.506 1_655 S
C292 C293 1.358 1_655 S
C292 C297 1.382 . S
C293 C292 1.358 1_455 S
C293 C294 1.385 1_455 S
C293 H316 0.930 . S
C294 C293 1.385 1_655 S
C294 C295 1.395 . S
C294 H317 0.929 . S
C295 C294 1.395 . S
C295 C296 1.335 . S
C296 C295 1.335 . S
C296 C297 1.398 . S
C296 H318 0.930 . S
C297 C292 1.382 . S
C297 C296 1.398 . S
C297 H319 0.929 . S
C298 O308 1.271 . S
C298 O309 1.251 . S
C299 O310 1.252 . S
C299 O311 1.272 . S
O300 Sm280 2.543 . S
O300 C282 1.261 . S
O301 Sm280 2.450 . S
O301 C282 1.242 . S
O302 Sm280 2.681 . S
O302 Sm281 2.386 . S
O302 C289 1.271 . S
O303 Sm280 2.464 . S
O303 C289 1.251 . S
O304 Sm280 2.396 . S
O304 C290 1.252 . S
O305 Sm281 2.408 . S
O305 C290 1.272 . S
O306 Sm281 2.543 . S
O306 C291 1.261 . S
O307 Sm281 2.450 . S
O307 C291 1.242 . S
O308 Sm280 2.386 . S
O308 Sm281 2.681 . S
O308 C298 1.271 . S
O309 Sm281 2.464 . S
O309 C298 1.251 . S
O310 Sm281 2.396 . S
O310 C299 1.252 . S
O311 Sm280 2.408 . S
O311 C299 1.272 . S
H312 C284 0.930 . S
H313 C285 0.929 . S
H314 C287 0.930 . S
H315 C288 0.929 . S
H316 C293 0.930 . S
H317 C294 0.929 . S
H318 C296 0.930 . S
H319 C297 0.929 . S
Sm320 C322 2.846 . S
Sm320 O340 2.543 . S
Sm320 O341 2.450 . S
Sm320 O342 2.681 . S
Sm320 O343 2.464 . S
Sm320 O344 2.396 . S
Sm320 O348 2.386 . S
Sm320 O351 2.408 . S
Sm321 C331 2.846 . S
Sm321 O342 2.386 . S
Sm321 O345 2.408 . S
Sm321 O346 2.543 . S
Sm321 O347 2.450 . S
Sm321 O348 2.681 . S
Sm321 O349 2.464 . S
Sm321 O350 2.396 . S
C322 Sm320 2.846 . S
C322 C323 1.506 . S
C322 O340 1.261 . S
C322 O341 1.242 . S
C323 C322 1.506 . S
C323 C324 1.358 . S
C323 C328 1.382 . S
C324 C323 1.358 . S
C324 C325 1.385 . S
C324 H352 0.930 . S
C325 C324 1.385 . S
C325 C326 1.395 . S
C325 H353 0.929 . S
C326 C325 1.395 . S
C326 C327 1.335 . S
C327 C326 1.335 . S
C327 C328 1.398 . S
C327 H354 0.930 . S
C328 C323 1.382 . S
C328 C327 1.398 . S
C328 H355 0.929 . S
C329 O342 1.271 . S
C329 O343 1.251 . S
C330 O344 1.252 . S
C330 O345 1.272 . S
C331 Sm321 2.846 . S
C331 C332 1.506 . S
C331 O346 1.261 . S
C331 O347 1.242 . S
C332 C331 1.506 . S
C332 C333 1.358 . S
C332 C337 1.382 . S
C333 C332 1.358 . S
C333 C334 1.385 . S
C333 H356 0.930 . S
C334 C333 1.385 . S
C334 C335 1.395 . S
C334 H357 0.929 . S
C335 C334 1.395 . S
C335 C336 1.335 . S
C336 C335 1.335 . S
C336 C337 1.398 . S
C336 H358 0.930 . S
C337 C332 1.382 . S
C337 C336 1.398 . S
C337 H359 0.929 . S
C338 O348 1.271 . S
C338 O349 1.251 . S
C339 O350 1.252 . S
C339 O351 1.272 . S
O340 Sm320 2.543 . S
O340 C322 1.261 . S
O341 Sm320 2.450 . S
O341 C322 1.242 . S
O342 Sm320 2.681 . S
O342 Sm321 2.386 . S
O342 C329 1.271 . S
O343 Sm320 2.464 . S
O343 C329 1.251 . S
O344 Sm320 2.396 . S
O344 C330 1.252 . S
O345 Sm321 2.408 . S
O345 C330 1.272 . S
O346 Sm321 2.543 . S
O346 C331 1.261 . S
O347 Sm321 2.450 . S
O347 C331 1.242 . S
O348 Sm320 2.386 . S
O348 Sm321 2.681 . S
O348 C338 1.271 . S
O349 Sm321 2.464 . S
O349 C338 1.251 . S
O350 Sm321 2.396 . S
O350 C339 1.252 . S
O351 Sm320 2.408 . S
O351 C339 1.272 . S
H352 C324 0.930 . S
H353 C325 0.929 . S
H354 C327 0.930 . S
H355 C328 0.929 . S
H356 C333 0.930 . S
H357 C334 0.929 . S
H358 C336 0.930 . S
H359 C337 0.929 . S
Sm360 C362 2.846 . S
Sm360 O380 2.543 1_545 S
Sm360 O381 2.450 . S
Sm360 O382 2.681 . S
Sm360 O383 2.464 . S
Sm360 O384 2.396 . S
Sm360 O388 2.386 . S
Sm360 O391 2.408 . S
Sm361 C371 2.846 . S
Sm361 O382 2.386 . S
Sm361 O385 2.408 . S
Sm361 O386 2.543 . S
Sm361 O387 2.450 . S
Sm361 O388 2.681 . S
Sm361 O389 2.464 . S
Sm361 O390 2.396 . S
C362 Sm360 2.846 . S
C362 C363 1.506 1_445 S
C362 O380 1.261 1_545 S
C362 O381 1.242 . S
C363 C362 1.506 1_665 S
C363 C364 1.358 1_655 S
C363 C368 1.382 1_565 S
C364 C363 1.358 1_455 S
C364 C365 1.385 1_455 S
C364 H392 0.930 . S
C365 C364 1.385 1_655 S
C365 C366 1.395 . S
C365 H393 0.929 . S
C366 C365 1.395 . S
C366 C367 1.335 . S
C367 C366 1.335 . S
C367 C368 1.398 1_565 S
C367 H394 0.930 . S
C368 C363 1.382 1_545 S
C368 C367 1.398 1_545 S
C368 H395 0.929 . S
C369 O382 1.271 . S
C369 O383 1.251 . S
C370 O384 1.252 . S
C370 O385 1.272 . S
C371 Sm361 2.846 . S
C371 C372 1.506 . S
C371 O386 1.261 . S
C371 O387 1.242 . S
C372 C371 1.506 . S
C372 C373 1.358 . S
C372 C377 1.382 . S
C373 C372 1.358 . S
C373 C374 1.385 . S
C373 H396 0.930 . S
C374 C373 1.385 . S
C374 C375 1.395 . S
C374 H397 0.929 . S
C375 C374 1.395 . S
C375 C376 1.335 . S
C376 C375 1.335 . S
C376 C377 1.398 . S
C376 H398 0.930 . S
C377 C372 1.382 . S
C377 C376 1.398 . S
C377 H399 0.929 . S
C378 O388 1.271 . S
C378 O389 1.251 . S
C379 O390 1.252 . S
C379 O391 1.272 . S
O380 Sm360 2.543 1_565 S
O380 C362 1.261 1_565 S
O381 Sm360 2.450 . S
O381 C362 1.242 . S
O382 Sm360 2.681 . S
O382 Sm361 2.386 . S
O382 C369 1.271 . S
O383 Sm360 2.464 . S
O383 C369 1.251 . S
O384 Sm360 2.396 . S
O384 C370 1.252 . S
O385 Sm361 2.408 . S
O385 C370 1.272 . S
O386 Sm361 2.543 . S
O386 C371 1.261 . S
O387 Sm361 2.450 . S
O387 C371 1.242 . S
O388 Sm360 2.386 . S
O388 Sm361 2.681 . S
O388 C378 1.271 . S
O389 Sm361 2.464 . S
O389 C378 1.251 . S
O390 Sm361 2.396 . S
O390 C379 1.252 . S
O391 Sm360 2.408 . S
O391 C379 1.272 . S
H392 C364 0.930 . S
H393 C365 0.929 . S
H394 C367 0.930 . S
H395 C368 0.929 . S
H396 C373 0.930 . S
H397 C374 0.929 . S
H398 C376 0.930 . S
H399 C377 0.929 . S
Sm400 C402 2.846 . S
Sm400 O420 2.543 . S
Sm400 O421 2.450 . S
Sm400 O422 2.681 . S
Sm400 O423 2.464 . S
Sm400 O424 2.396 . S
Sm400 O428 2.386 . S
Sm400 O431 2.408 . S
Sm401 C411 2.846 . S
Sm401 O422 2.386 . S
Sm401 O425 2.408 . S
Sm401 O426 2.543 . S
Sm401 O427 2.450 . S
Sm401 O428 2.681 . S
Sm401 O429 2.464 . S
Sm401 O430 2.396 . S
C402 Sm400 2.846 . S
C402 C403 1.506 . S
C402 O420 1.261 . S
C402 O421 1.242 . S
C403 C402 1.506 . S
C403 C404 1.358 . S
C403 C408 1.382 . S
C404 C403 1.358 . S
C404 C405 1.385 . S
C404 H432 0.930 . S
C405 C404 1.385 . S
C405 C406 1.395 . S
C405 H433 0.929 . S
C406 C405 1.395 . S
C406 C407 1.335 . S
C407 C406 1.335 . S
C407 C408 1.398 . S
C407 H434 0.930 . S
C408 C403 1.382 . S
C408 C407 1.398 . S
C408 H435 0.929 . S
C409 O422 1.271 . S
C409 O423 1.251 . S
C410 O424 1.252 . S
C410 O425 1.272 . S
C411 Sm401 2.846 . S
C411 C412 1.506 . S
C411 O426 1.261 . S
C411 O427 1.242 . S
C412 C411 1.506 . S
C412 C413 1.358 . S
C412 C417 1.382 . S
C413 C412 1.358 . S
C413 C414 1.385 . S
C413 H436 0.930 . S
C414 C413 1.385 . S
C414 C415 1.395 . S
C414 H437 0.929 . S
C415 C414 1.395 . S
C415 C416 1.335 . S
C416 C415 1.335 . S
C416 C417 1.398 . S
C416 H438 0.930 . S
C417 C412 1.382 . S
C417 C416 1.398 . S
C417 H439 0.929 . S
C418 O428 1.271 . S
C418 O429 1.251 . S
C419 O430 1.252 . S
C419 O431 1.272 . S
O420 Sm400 2.543 . S
O420 C402 1.261 . S
O421 Sm400 2.450 . S
O421 C402 1.242 . S
O422 Sm400 2.681 . S
O422 Sm401 2.386 . S
O422 C409 1.271 . S
O423 Sm400 2.464 . S
O423 C409 1.251 . S
O424 Sm400 2.396 . S
O424 C410 1.252 . S
O425 Sm401 2.408 . S
O425 C410 1.272 . S
O426 Sm401 2.543 . S
O426 C411 1.261 . S
O427 Sm401 2.450 . S
O427 C411 1.242 . S
O428 Sm400 2.386 . S
O428 Sm401 2.681 . S
O428 C418 1.271 . S
O429 Sm401 2.464 . S
O429 C418 1.251 . S
O430 Sm401 2.396 . S
O430 C419 1.252 . S
O431 Sm400 2.408 . S
O431 C419 1.272 . S
H432 C404 0.930 . S
H433 C405 0.929 . S
H434 C407 0.930 . S
H435 C408 0.929 . S
H436 C413 0.930 . S
H437 C414 0.929 . S
H438 C416 0.930 . S
H439 C417 0.929 . S
Sm440 C442 2.846 . S
Sm440 O460 2.543 1_565 S
Sm440 O461 2.450 . S
Sm440 O462 2.681 . S
Sm440 O463 2.464 . S
Sm440 O464 2.396 . S
Sm440 O468 2.386 . S
Sm440 O471 2.408 . S
Sm441 C451 2.846 . S
Sm441 O462 2.386 . S
Sm441 O465 2.408 . S
Sm441 O466 2.543 . S
Sm441 O467 2.450 . S
Sm441 O468 2.681 . S
Sm441 O469 2.464 . S
Sm441 O470 2.396 . S
C442 Sm440 2.846 . S
C442 C443 1.506 1_565 S
C442 O460 1.261 1_565 S
C442 O461 1.242 . S
C443 C442 1.506 1_545 S
C443 C444 1.358 . S
C443 C448 1.382 1_545 S
C444 C443 1.358 . S
C444 C445 1.385 . S
C444 H472 0.930 . S
C445 C444 1.385 . S
C445 C446 1.395 . S
C445 H473 0.929 . S
C446 C445 1.395 . S
C446 C447 1.335 . S
C447 C446 1.335 . S
C447 C448 1.398 1_545 S
C447 H474 0.930 . S
C448 C443 1.382 1_565 S
C448 C447 1.398 1_565 S
C448 H475 0.929 . S
C449 O462 1.271 . S
C449 O463 1.251 . S
C450 O464 1.252 . S
C450 O465 1.272 . S
C451 Sm441 2.846 . S
C451 C452 1.506 . S
C451 O466 1.261 . S
C451 O467 1.242 . S
C452 C451 1.506 . S
C452 C453 1.358 . S
C452 C457 1.382 . S
C453 C452 1.358 . S
C453 C454 1.385 . S
C453 H476 0.930 . S
C454 C453 1.385 . S
C454 C455 1.395 . S
C454 H477 0.929 . S
C455 C454 1.395 . S
C455 C456 1.335 . S
C456 C455 1.335 . S
C456 C457 1.398 . S
C456 H478 0.930 . S
C457 C452 1.382 . S
C457 C456 1.398 . S
C457 H479 0.929 . S
C458 O468 1.271 . S
C458 O469 1.251 . S
C459 O470 1.252 . S
C459 O471 1.272 . S
O460 Sm440 2.543 1_545 S
O460 C442 1.261 1_545 S
O461 Sm440 2.450 . S
O461 C442 1.242 . S
O462 Sm440 2.681 . S
O462 Sm441 2.386 . S
O462 C449 1.271 . S
O463 Sm440 2.464 . S
O463 C449 1.251 . S
O464 Sm440 2.396 . S
O464 C450 1.252 . S
O465 Sm441 2.408 . S
O465 C450 1.272 . S
O466 Sm441 2.543 . S
O466 C451 1.261 . S
O467 Sm441 2.450 . S
O467 C451 1.242 . S
O468 Sm440 2.386 . S
O468 Sm441 2.681 . S
O468 C458 1.271 . S
O469 Sm441 2.464 . S
O469 C458 1.251 . S
O470 Sm441 2.396 . S
O470 C459 1.252 . S
O471 Sm440 2.408 . S
O471 C459 1.272 . S
H472 C444 0.930 . S
H473 C445 0.929 . S
H474 C447 0.930 . S
H475 C448 0.929 . S
H476 C453 0.930 . S
H477 C454 0.929 . S
H478 C456 0.930 . S
H479 C457 0.929 . S
Sm480 C482 2.846 . S
Sm480 O500 2.543 . S
Sm480 O501 2.450 . S
Sm480 O502 2.681 . S
Sm480 O503 2.464 . S
Sm480 O504 2.396 . S
Sm480 O508 2.386 . S
Sm480 O511 2.408 . S
Sm481 C491 2.846 . S
Sm481 O502 2.386 . S
Sm481 O505 2.408 . S
Sm481 O506 2.543 . S
Sm481 O507 2.450 . S
Sm481 O508 2.681 . S
Sm481 O509 2.464 . S
Sm481 O510 2.396 . S
C482 Sm480 2.846 . S
C482 C483 1.506 . S
C482 O500 1.261 . S
C482 O501 1.242 . S
C483 C482 1.506 . S
C483 C484 1.358 . S
C483 C488 1.382 . S
C484 C483 1.358 . S
C484 C485 1.385 . S
C484 H512 0.930 . S
C485 C484 1.385 . S
C485 C486 1.395 . S
C485 H513 0.929 . S
C486 C485 1.395 . S
C486 C487 1.335 . S
C487 C486 1.335 . S
C487 C488 1.398 . S
C487 H514 0.930 . S
C488 C483 1.382 . S
C488 C487 1.398 . S
C488 H515 0.929 . S
C489 O502 1.271 . S
C489 O503 1.251 . S
C490 O504 1.252 . S
C490 O505 1.272 . S
C491 Sm481 2.846 . S
C491 C492 1.506 . S
C491 O506 1.261 . S
C491 O507 1.242 . S
C492 C491 1.506 . S
C492 C493 1.358 . S
C492 C497 1.382 . S
C493 C492 1.358 . S
C493 C494 1.385 . S
C493 H516 0.930 . S
C494 C493 1.385 . S
C494 C495 1.395 . S
C494 H517 0.929 . S
C495 C494 1.395 . S
C495 C496 1.335 . S
C496 C495 1.335 . S
C496 C497 1.398 . S
C496 H518 0.930 . S
C497 C492 1.382 . S
C497 C496 1.398 . S
C497 H519 0.929 . S
C498 O508 1.271 . S
C498 O509 1.251 . S
C499 O510 1.252 . S
C499 O511 1.272 . S
O500 Sm480 2.543 . S
O500 C482 1.261 . S
O501 Sm480 2.450 . S
O501 C482 1.242 . S
O502 Sm480 2.681 . S
O502 Sm481 2.386 . S
O502 C489 1.271 . S
O503 Sm480 2.464 . S
O503 C489 1.251 . S
O504 Sm480 2.396 . S
O504 C490 1.252 . S
O505 Sm481 2.408 . S
O505 C490 1.272 . S
O506 Sm481 2.543 . S
O506 C491 1.261 . S
O507 Sm481 2.450 . S
O507 C491 1.242 . S
O508 Sm480 2.386 . S
O508 Sm481 2.681 . S
O508 C498 1.271 . S
O509 Sm481 2.464 . S
O509 C498 1.251 . S
O510 Sm481 2.396 . S
O510 C499 1.252 . S
O511 Sm480 2.408 . S
O511 C499 1.272 . S
H512 C484 0.930 . S
H513 C485 0.929 . S
H514 C487 0.930 . S
H515 C488 0.929 . S
H516 C493 0.930 . S
H517 C494 0.929 . S
H518 C496 0.930 . S
H519 C497 0.929 . S
Sm520 C522 2.846 . S
Sm520 O540 2.543 . S
Sm520 O541 2.450 . S
Sm520 O542 2.681 . S
Sm520 O543 2.464 . S
Sm520 O544 2.396 . S
Sm520 O548 2.386 . S
Sm520 O551 2.408 . S
Sm521 C531 2.846 . S
Sm521 O542 2.386 . S
Sm521 O545 2.408 . S
Sm521 O546 2.543 1_565 S
Sm521 O547 2.450 . S
Sm521 O548 2.681 . S
Sm521 O549 2.464 . S
Sm521 O550 2.396 . S
C522 Sm520 2.846 . S
C522 C523 1.506 . S
C522 O540 1.261 . S
C522 O541 1.242 . S
C523 C522 1.506 . S
C523 C524 1.358 . S
C523 C528 1.382 . S
C524 C523 1.358 . S
C524 C525 1.385 . S
C524 H552 0.930 . S
C525 C524 1.385 . S
C525 C526 1.395 . S
C525 H553 0.929 . S
C526 C525 1.395 . S
C526 C527 1.335 . S
C527 C526 1.335 . S
C527 C528 1.398 . S
C527 H554 0.930 . S
C528 C523 1.382 . S
C528 C527 1.398 . S
C528 H555 0.929 . S
C529 O542 1.271 . S
C529 O543 1.251 . S
C530 O544 1.252 . S
C530 O545 1.272 . S
C531 Sm521 2.846 . S
C531 C532 1.506 1_665 S
C531 O546 1.261 1_565 S
C531 O547 1.242 . S
C532 C531 1.506 1_445 S
C532 C533 1.358 1_455 S
C532 C537 1.382 1_545 S
C533 C532 1.358 1_655 S
C533 C534 1.385 1_655 S
C533 H556 0.930 . S
C534 C533 1.385 1_455 S
C534 C535 1.395 . S
C534 H557 0.929 . S
C535 C534 1.395 . S
C535 C536 1.335 . S
C536 C535 1.335 . S
C536 C537 1.398 1_545 S
C536 H558 0.930 . S
C537 C532 1.382 1_565 S
C537 C536 1.398 1_565 S
C537 H559 0.929 . S
C538 O548 1.271 . S
C538 O549 1.251 . S
C539 O550 1.252 . S
C539 O551 1.272 . S
O540 Sm520 2.543 . S
O540 C522 1.261 . S
O541 Sm520 2.450 . S
O541 C522 1.242 . S
O542 Sm520 2.681 . S
O542 Sm521 2.386 . S
O542 C529 1.271 . S
O543 Sm520 2.464 . S
O543 C529 1.251 . S
O544 Sm520 2.396 . S
O544 C530 1.252 . S
O545 Sm521 2.408 . S
O545 C530 1.272 . S
O546 Sm521 2.543 1_545 S
O546 C531 1.261 1_545 S
O547 Sm521 2.450 . S
O547 C531 1.242 . S
O548 Sm520 2.386 . S
O548 Sm521 2.681 . S
O548 C538 1.271 . S
O549 Sm521 2.464 . S
O549 C538 1.251 . S
O550 Sm521 2.396 . S
O550 C539 1.252 . S
O551 Sm520 2.408 . S
O551 C539 1.272 . S
H552 C524 0.930 . S
H553 C525 0.929 . S
H554 C527 0.930 . S
H555 C528 0.929 . S
H556 C533 0.930 . S
H557 C534 0.929 . S
H558 C536 0.930 . S
H559 C537 0.929 . S
Sm560 C562 2.846 . S
Sm560 O580 2.543 . S
Sm560 O581 2.450 . S
Sm560 O582 2.681 . S
Sm560 O583 2.464 . S
Sm560 O584 2.396 . S
Sm560 O588 2.386 . S
Sm560 O591 2.408 . S
Sm561 C571 2.846 . S
Sm561 O582 2.386 . S
Sm561 O585 2.408 . S
Sm561 O586 2.543 . S
Sm561 O587 2.450 . S
Sm561 O588 2.681 . S
Sm561 O589 2.464 . S
Sm561 O590 2.396 . S
C562 Sm560 2.846 . S
C562 C563 1.506 . S
C562 O580 1.261 . S
C562 O581 1.242 . S
C563 C562 1.506 . S
C563 C564 1.358 . S
C563 C568 1.382 . S
C564 C563 1.358 . S
C564 C565 1.385 . S
C564 H592 0.930 . S
C565 C564 1.385 . S
C565 C566 1.395 . S
C565 H593 0.929 . S
C566 C565 1.395 . S
C566 C567 1.335 . S
C567 C566 1.335 . S
C567 C568 1.398 . S
C567 H594 0.930 . S
C568 C563 1.382 . S
C568 C567 1.398 . S
C568 H595 0.929 . S
C569 O582 1.271 . S
C569 O583 1.251 . S
C570 O584 1.252 . S
C570 O585 1.272 . S
C571 Sm561 2.846 . S
C571 C572 1.506 . S
C571 O586 1.261 . S
C571 O587 1.242 . S
C572 C571 1.506 . S
C572 C573 1.358 . S
C572 C577 1.382 . S
C573 C572 1.358 . S
C573 C574 1.385 . S
C573 H596 0.930 . S
C574 C573 1.385 . S
C574 C575 1.395 . S
C574 H597 0.929 . S
C575 C574 1.395 . S
C575 C576 1.335 . S
C576 C575 1.335 . S
C576 C577 1.398 . S
C576 H598 0.930 . S
C577 C572 1.382 . S
C577 C576 1.398 . S
C577 H599 0.929 . S
C578 O588 1.271 . S
C578 O589 1.251 . S
C579 O590 1.252 . S
C579 O591 1.272 . S
O580 Sm560 2.543 . S
O580 C562 1.261 . S
O581 Sm560 2.450 . S
O581 C562 1.242 . S
O582 Sm560 2.681 . S
O582 Sm561 2.386 . S
O582 C569 1.271 . S
O583 Sm560 2.464 . S
O583 C569 1.251 . S
O584 Sm560 2.396 . S
O584 C570 1.252 . S
O585 Sm561 2.408 . S
O585 C570 1.272 . S
O586 Sm561 2.543 . S
O586 C571 1.261 . S
O587 Sm561 2.450 . S
O587 C571 1.242 . S
O588 Sm560 2.386 . S
O588 Sm561 2.681 . S
O588 C578 1.271 . S
O589 Sm561 2.464 . S
O589 C578 1.251 . S
O590 Sm561 2.396 . S
O590 C579 1.252 . S
O591 Sm560 2.408 . S
O591 C579 1.272 . S
H592 C564 0.930 . S
H593 C565 0.929 . S
H594 C567 0.930 . S
H595 C568 0.929 . S
H596 C573 0.930 . S
H597 C574 0.929 . S
H598 C576 0.930 . S
H599 C577 0.929 . S
Sm600 C602 2.846 . S
Sm600 O620 2.543 . S
Sm600 O621 2.450 . S
Sm600 O622 2.681 . S
Sm600 O623 2.464 . S
Sm600 O624 2.396 . S
Sm600 O628 2.386 . S
Sm600 O631 2.408 . S
Sm601 C611 2.846 . S
Sm601 O622 2.386 . S
Sm601 O625 2.408 . S
Sm601 O626 2.543 1_545 S
Sm601 O627 2.450 . S
Sm601 O628 2.681 . S
Sm601 O629 2.464 . S
Sm601 O630 2.396 . S
C602 Sm600 2.846 . S
C602 C603 1.506 . S
C602 O620 1.261 . S
C602 O621 1.242 . S
C603 C602 1.506 . S
C603 C604 1.358 . S
C603 C608 1.382 . S
C604 C603 1.358 . S
C604 C605 1.385 . S
C604 H632 0.930 . S
C605 C604 1.385 . S
C605 C606 1.395 . S
C605 H633 0.929 . S
C606 C605 1.395 . S
C606 C607 1.335 . S
C607 C606 1.335 . S
C607 C608 1.398 . S
C607 H634 0.930 . S
C608 C603 1.382 . S
C608 C607 1.398 . S
C608 H635 0.929 . S
C609 O622 1.271 . S
C609 O623 1.251 . S
C610 O624 1.252 . S
C610 O625 1.272 . S
C611 Sm601 2.846 . S
C611 C612 1.506 1_545 S
C611 O626 1.261 1_545 S
C611 O627 1.242 . S
C612 C611 1.506 1_565 S
C612 C613 1.358 . S
C612 C617 1.382 1_565 S
C613 C612 1.358 . S
C613 C614 1.385 . S
C613 H636 0.930 . S
C614 C613 1.385 . S
C614 C615 1.395 . S
C614 H637 0.929 . S
C615 C614 1.395 . S
C615 C616 1.335 . S
C616 C615 1.335 . S
C616 C617 1.398 1_565 S
C616 H638 0.930 . S
C617 C612 1.382 1_545 S
C617 C616 1.398 1_545 S
C617 H639 0.929 . S
C618 O628 1.271 . S
C618 O629 1.251 . S
C619 O630 1.252 . S
C619 O631 1.272 . S
O620 Sm600 2.543 . S
O620 C602 1.261 . S
O621 Sm600 2.450 . S
O621 C602 1.242 . S
O622 Sm600 2.681 . S
O622 Sm601 2.386 . S
O622 C609 1.271 . S
O623 Sm600 2.464 . S
O623 C609 1.251 . S
O624 Sm600 2.396 . S
O624 C610 1.252 . S
O625 Sm601 2.408 . S
O625 C610 1.272 . S
O626 Sm601 2.543 1_565 S
O626 C611 1.261 1_565 S
O627 Sm601 2.450 . S
O627 C611 1.242 . S
O628 Sm600 2.386 . S
O628 Sm601 2.681 . S
O628 C618 1.271 . S
O629 Sm601 2.464 . S
O629 C618 1.251 . S
O630 Sm601 2.396 . S
O630 C619 1.252 . S
O631 Sm600 2.408 . S
O631 C619 1.272 . S
H632 C604 0.930 . S
H633 C605 0.929 . S
H634 C607 0.930 . S
H635 C608 0.929 . S
H636 C613 0.930 . S
H637 C614 0.929 . S
H638 C616 0.930 . S
H639 C617 0.929 . S
H640 C652 0.930 . S
H641 C654 0.930 . S
H642 C655 0.930 . S
H643 C659 0.959 . S
H644 C659 0.959 . S
H645 C659 0.961 . S
H646 C660 0.960 . S
H647 C660 0.961 . S
H648 C660 0.959 . S
H649 C663 0.929 . S
H650 C664 0.931 . S
H651 C666 0.930 . S
C652 H640 0.930 . S
C652 C653 1.399 . S
C652 C657 1.399 . S
C653 C652 1.399 . S
C653 C654 1.376 . S
C654 H641 0.930 . S
C654 C653 1.376 . S
C654 C655 1.388 . S
C655 H642 0.930 . S
C655 C654 1.388 . S
C655 C656 1.390 . S
C656 C655 1.390 . S
C656 C657 1.394 . S
C656 C662 1.465 . S
C657 C652 1.399 . S
C657 C656 1.394 . S
C657 C658 1.516 . S
C658 C657 1.516 . S
C658 C659 1.502 . S
C658 C660 1.561 . S
C658 C661 1.526 . S
C659 H643 0.959 . S
C659 H644 0.959 . S
C659 H645 0.961 . S
C659 C658 1.502 . S
C660 H646 0.960 . S
C660 H647 0.961 . S
C660 H648 0.959 . S
C660 C658 1.561 . S
C661 C658 1.526 . S
C661 C662 1.396 . S
C661 C666 1.390 . S
C662 C656 1.465 . S
C662 C661 1.396 . S
C662 C663 1.399 . S
C663 H649 0.929 . S
C663 C662 1.399 . S
C663 C664 1.385 . S
C664 H650 0.931 . S
C664 C663 1.385 . S
C664 C665 1.389 . S
C665 C664 1.389 . S
C665 C666 1.387 . S
C666 H651 0.930 . S
C666 C661 1.390 . S
C666 C665 1.387 . S
H667 C679 0.930 . S
H668 C681 0.930 . S
H669 C682 0.930 . S
H670 C686 0.959 . S
H671 C686 0.959 . S
H672 C686 0.961 . S
H673 C687 0.960 . S
H674 C687 0.961 . S
H675 C687 0.959 . S
H676 C690 0.929 . S
H677 C691 0.931 . S
H678 C693 0.930 . S
C679 H667 0.930 . S
C679 C680 1.399 . S
C679 C684 1.399 . S
C680 C679 1.399 . S
C680 C681 1.376 . S
C681 H668 0.930 . S
C681 C680 1.376 . S
C681 C682 1.388 . S
C682 H669 0.930 . S
C682 C681 1.388 . S
C682 C683 1.390 . S
C683 C682 1.390 . S
C683 C684 1.394 . S
C683 C689 1.465 . S
C684 C679 1.399 . S
C684 C683 1.394 . S
C684 C685 1.516 . S
C685 C684 1.516 . S
C685 C686 1.502 . S
C685 C687 1.561 . S
C685 C688 1.526 . S
C686 H670 0.959 . S
C686 H671 0.959 . S
C686 H672 0.961 . S
C686 C685 1.502 . S
C687 H673 0.960 . S
C687 H674 0.961 . S
C687 H675 0.959 . S
C687 C685 1.561 . S
C688 C685 1.526 . S
C688 C689 1.396 . S
C688 C693 1.390 . S
C689 C683 1.465 . S
C689 C688 1.396 . S
C689 C690 1.399 . S
C690 H676 0.929 . S
C690 C689 1.399 . S
C690 C691 1.385 . S
C691 H677 0.931 . S
C691 C690 1.385 . S
C691 C692 1.389 . S
C692 C691 1.389 . S
C692 C693 1.387 . S
C693 H678 0.930 . S
C693 C688 1.390 . S
C693 C692 1.387 . S
H694 C706 0.930 . S
H695 C708 0.930 . S
H696 C709 0.930 . S
H697 C713 0.959 . S
H698 C713 0.959 . S
H699 C713 0.961 . S
H700 C714 0.960 1_455 S
H701 C714 0.961 . S
H702 C714 0.959 1_455 S
H703 C717 0.929 . S
H704 C718 0.931 . S
H705 C720 0.930 . S
C706 H694 0.930 . S
C706 C707 1.399 . S
C706 C711 1.399 . S
C707 C706 1.399 . S
C707 C708 1.376 . S
C708 H695 0.930 . S
C708 C707 1.376 . S
C708 C709 1.388 . S
C709 H696 0.930 . S
C709 C708 1.388 . S
C709 C710 1.390 . S
C710 C709 1.390 . S
C710 C711 1.394 . S
C710 C716 1.465 1_455 S
C711 C706 1.399 . S
C711 C710 1.394 . S
C711 C712 1.516 1_455 S
C712 C711 1.516 1_655 S
C712 C713 1.502 . S
C712 C714 1.561 . S
C712 C715 1.526 . S
C713 H697 0.959 . S
C713 H698 0.959 . S
C713 H699 0.961 . S
C713 C712 1.502 . S
C714 H700 0.960 1_655 S
C714 H701 0.961 . S
C714 H702 0.959 1_655 S
C714 C712 1.561 . S
C715 C712 1.526 . S
C715 C716 1.396 . S
C715 C720 1.390 . S
C716 C710 1.465 1_655 S
C716 C715 1.396 . S
C716 C717 1.399 . S
C717 H703 0.929 . S
C717 C716 1.399 . S
C717 C718 1.385 . S
C718 H704 0.931 . S
C718 C717 1.385 . S
C718 C719 1.389 . S
C719 C718 1.389 . S
C719 C720 1.387 . S
C720 H705 0.930 . S
C720 C715 1.390 . S
C720 C719 1.387 . S
H721 C733 0.930 . S
H722 C735 0.930 . S
H723 C736 0.930 1_655 S
H724 C740 0.959 . S
H725 C740 0.959 . S
H726 C740 0.961 . S
H727 C741 0.960 . S
H728 C741 0.961 . S
H729 C741 0.959 . S
H730 C744 0.929 . S
H731 C745 0.931 . S
H732 C747 0.930 . S
C733 H721 0.930 . S
C733 C734 1.399 . S
C733 C738 1.399 . S
C734 C733 1.399 . S
C734 C735 1.376 . S
C735 H722 0.930 . S
C735 C734 1.376 . S
C735 C736 1.388 . S
C736 H723 0.930 1_455 S
C736 C735 1.388 . S
C736 C737 1.390 . S
C737 C736 1.390 . S
C737 C738 1.394 . S
C737 C743 1.465 1_455 S
C738 C733 1.399 . S
C738 C737 1.394 . S
C738 C739 1.516 . S
C739 C738 1.516 . S
C739 C740 1.502 . S
C739 C741 1.561 1_455 S
C739 C742 1.526 1_455 S
C740 H724 0.959 . S
C740 H725 0.959 . S
C740 H726 0.961 . S
C740 C739 1.502 . S
C741 H727 0.960 . S
C741 H728 0.961 . S
C741 H729 0.959 . S
C741 C739 1.561 1_655 S
C742 C739 1.526 1_655 S
C742 C743 1.396 . S
C742 C747 1.390 . S
C743 C737 1.465 1_655 S
C743 C742 1.396 . S
C743 C744 1.399 . S
C744 H730 0.929 . S
C744 C743 1.399 . S
C744 C745 1.385 . S
C745 H731 0.931 . S
C745 C744 1.385 . S
C745 C746 1.389 . S
C746 C745 1.389 . S
C746 C747 1.387 . S
C747 H732 0.930 . S
C747 C742 1.390 . S
C747 C746 1.387 . S
H748 C760 0.930 . S
H749 C762 0.930 . S
H750 C763 0.930 . S
H751 C767 0.959 . S
H752 C767 0.959 . S
H753 C767 0.961 . S
H754 C768 0.960 . S
H755 C768 0.961 . S
H756 C768 0.959 . S
H757 C771 0.929 . S
H758 C772 0.931 . S
H759 C774 0.930 . S
C760 H748 0.930 . S
C760 C761 1.399 . S
C760 C765 1.399 . S
C761 C760 1.399 . S
C761 C762 1.376 . S
C762 H749 0.930 . S
C762 C761 1.376 . S
C762 C763 1.388 . S
C763 H750 0.930 . S
C763 C762 1.388 . S
C763 C764 1.390 . S
C764 C763 1.390 . S
C764 C765 1.394 . S
C764 C770 1.465 . S
C765 C760 1.399 . S
C765 C764 1.394 . S
C765 C766 1.516 . S
C766 C765 1.516 . S
C766 C767 1.502 . S
C766 C768 1.561 . S
C766 C769 1.526 . S
C767 H751 0.959 . S
C767 H752 0.959 . S
C767 H753 0.961 . S
C767 C766 1.502 . S
C768 H754 0.960 . S
C768 H755 0.961 . S
C768 H756 0.959 . S
C768 C766 1.561 . S
C769 C766 1.526 . S
C769 C770 1.396 . S
C769 C774 1.390 . S
C770 C764 1.465 . S
C770 C769 1.396 . S
C770 C771 1.399 . S
C771 H757 0.929 . S
C771 C770 1.399 . S
C771 C772 1.385 . S
C772 H758 0.931 . S
C772 C771 1.385 . S
C772 C773 1.389 . S
C773 C772 1.389 . S
C773 C774 1.387 . S
C774 H759 0.930 . S
C774 C769 1.390 . S
C774 C773 1.387 . S
H775 C787 0.930 . S
H776 C789 0.930 . S
H777 C790 0.930 . S
H778 C794 0.959 . S
H779 C794 0.959 . S
H780 C794 0.961 . S
H781 C795 0.960 . S
H782 C795 0.961 . S
H783 C795 0.959 . S
H784 C798 0.929 . S
H785 C799 0.931 . S
H786 C801 0.930 . S
C787 H775 0.930 . S
C787 C788 1.399 . S
C787 C792 1.399 . S
C788 C787 1.399 . S
C788 C789 1.376 . S
C789 H776 0.930 . S
C789 C788 1.376 . S
C789 C790 1.388 . S
C790 H777 0.930 . S
C790 C789 1.388 . S
C790 C791 1.390 . S
C791 C790 1.390 . S
C791 C792 1.394 . S
C791 C797 1.465 . S
C792 C787 1.399 . S
C792 C791 1.394 . S
C792 C793 1.516 . S
C793 C792 1.516 . S
C793 C794 1.502 . S
C793 C795 1.561 . S
C793 C796 1.526 . S
C794 H778 0.959 . S
C794 H779 0.959 . S
C794 H780 0.961 . S
C794 C793 1.502 . S
C795 H781 0.960 . S
C795 H782 0.961 . S
C795 H783 0.959 . S
C795 C793 1.561 . S
C796 C793 1.526 . S
C796 C797 1.396 . S
C796 C801 1.390 . S
C797 C791 1.465 . S
C797 C796 1.396 . S
C797 C798 1.399 . S
C798 H784 0.929 . S
C798 C797 1.399 . S
C798 C799 1.385 . S
C799 H785 0.931 . S
C799 C798 1.385 . S
C799 C800 1.389 . S
C800 C799 1.389 . S
C800 C801 1.387 . S
C801 H786 0.930 . S
C801 C796 1.390 . S
C801 C800 1.387 . S
H802 C814 0.930 . S
H803 C816 0.930 . S
H804 C817 0.930 . S
H805 C821 0.959 . S
H806 C821 0.959 . S
H807 C821 0.961 1_455 S
H808 C822 0.960 . S
H809 C822 0.961 1_655 S
H810 C822 0.959 . S
H811 C825 0.929 . S
H812 C826 0.931 . S
H813 C828 0.930 . S
C814 H802 0.930 . S
C814 C815 1.399 . S
C814 C819 1.399 . S
C815 C814 1.399 . S
C815 C816 1.376 . S
C816 H803 0.930 . S
C816 C815 1.376 . S
C816 C817 1.388 . S
C817 H804 0.930 . S
C817 C816 1.388 . S
C817 C818 1.390 . S
C818 C817 1.390 . S
C818 C819 1.394 . S
C818 C824 1.465 1_455 S
C819 C814 1.399 . S
C819 C818 1.394 . S
C819 C820 1.516 1_455 S
C820 C819 1.516 1_655 S
C820 C821 1.502 . S
C820 C822 1.561 1_655 S
C820 C823 1.526 . S
C821 H805 0.959 . S
C821 H806 0.959 . S
C821 H807 0.961 1_655 S
C821 C820 1.502 . S
C822 H808 0.960 . S
C822 H809 0.961 1_455 S
C822 H810 0.959 . S
C822 C820 1.561 1_455 S
C823 C820 1.526 . S
C823 C824 1.396 . S
C823 C828 1.390 . S
C824 C818 1.465 1_655 S
C824 C823 1.396 . S
C824 C825 1.399 . S
C825 H811 0.929 . S
C825 C824 1.399 . S
C825 C826 1.385 . S
C826 H812 0.931 . S
C826 C825 1.385 . S
C826 C827 1.389 . S
C827 C826 1.389 . S
C827 C828 1.387 . S
C828 H813 0.930 . S
C828 C823 1.390 . S
C828 C827 1.387 . S
H829 C841 0.930 . S
H830 C843 0.930 . S
H831 C844 0.930 . S
H832 C848 0.959 . S
H833 C848 0.959 . S
H834 C848 0.961 . S
H835 C849 0.960 . S
H836 C849 0.961 1_655 S
H837 C849 0.959 . S
H838 C852 0.929 . S
H839 C853 0.931 . S
H840 C855 0.930 . S
C841 H829 0.930 . S
C841 C842 1.399 . S
C841 C846 1.399 . S
C842 C841 1.399 . S
C842 C843 1.376 . S
C843 H830 0.930 . S
C843 C842 1.376 . S
C843 C844 1.388 . S
C844 H831 0.930 . S
C844 C843 1.388 . S
C844 C845 1.390 . S
C845 C844 1.390 . S
C845 C846 1.394 . S
C845 C851 1.465 . S
C846 C841 1.399 . S
C846 C845 1.394 . S
C846 C847 1.516 1_455 S
C847 C846 1.516 1_655 S
C847 C848 1.502 . S
C847 C849 1.561 1_655 S
C847 C850 1.526 . S
C848 H832 0.959 . S
C848 H833 0.959 . S
C848 H834 0.961 . S
C848 C847 1.502 . S
C849 H835 0.960 . S
C849 H836 0.961 1_455 S
C849 H837 0.959 . S
C849 C847 1.561 1_455 S
C850 C847 1.526 . S
C850 C851 1.396 1_655 S
C850 C855 1.390 . S
C851 C845 1.465 . S
C851 C850 1.396 1_455 S
C851 C852 1.399 . S
C852 H838 0.929 . S
C852 C851 1.399 . S
C852 C853 1.385 1_455 S
C853 H839 0.931 . S
C853 C852 1.385 1_655 S
C853 C854 1.389 . S
C854 C853 1.389 . S
C854 C855 1.387 . S
C855 H840 0.930 . S
C855 C850 1.390 . S
C855 C854 1.387 . S
H856 C868 0.926 . S
H857 C870 0.930 . S
H858 C871 0.930 . S
H859 C875 0.959 . S
H860 C875 0.959 . S
H861 C875 0.961 . S
H862 C876 0.960 . S
H863 C876 0.961 . S
H864 C876 0.959 1_554 S
H865 C879 0.929 . S
H866 C880 0.931 . S
H867 C882 0.930 . S
C868 H856 0.926 . S
C868 C869 1.403 1_546 S
C868 C873 1.399 . S
C869 C868 1.403 1_564 S
C869 C870 1.376 . S
C870 H857 0.930 . S
C870 C869 1.376 . S
C870 C871 1.388 . S
C871 H858 0.930 . S
C871 C870 1.388 . S
C871 C872 1.390 . S
C872 C871 1.390 . S
C872 C873 1.394 1_564 S
C872 C878 1.465 . S
C873 C868 1.399 . S
C873 C872 1.394 1_546 S
C873 C874 1.516 . S
C874 C873 1.516 . S
C874 C875 1.502 . S
C874 C876 1.561 . S
C874 C877 1.526 . S
C875 H859 0.959 . S
C875 H860 0.959 . S
C875 H861 0.961 . S
C875 C874 1.502 . S
C876 H862 0.960 . S
C876 H863 0.961 . S
C876 H864 0.959 1_556 S
C876 C874 1.561 . S
C877 C874 1.526 . S
C877 C878 1.396 1_546 S
C877 C882 1.390 . S
C878 C872 1.465 . S
C878 C877 1.396 1_564 S
C878 C879 1.399 . S
C879 H865 0.929 . S
C879 C878 1.399 . S
C879 C880 1.385 . S
C880 H866 0.931 . S
C880 C879 1.385 . S
C880 C881 1.389 1_564 S
C881 C880 1.389 1_546 S
C881 C882 1.387 . S
C882 H867 0.930 . S
C882 C877 1.390 . S
C882 C881 1.387 . S
H883 C895 0.930 . S
H884 C897 0.930 . S
H885 C898 0.930 . S
H886 C902 0.959 . S
H887 C902 0.959 . S
H888 C902 0.961 . S
H889 C903 0.960 . S
H890 C903 0.961 . S
H891 C903 0.959 . S
H892 C906 0.929 . S
H893 C907 0.931 . S
H894 C909 0.930 . S
C895 H883 0.930 . S
C895 C896 1.399 . S
C895 C900 1.399 . S
C896 C895 1.399 . S
C896 C897 1.376 . S
C897 H884 0.930 . S
C897 C896 1.376 . S
C897 C898 1.388 . S
C898 H885 0.930 . S
C898 C897 1.388 . S
C898 C899 1.390 . S
C899 C898 1.390 . S
C899 C900 1.394 . S
C899 C905 1.465 . S
C900 C895 1.399 . S
C900 C899 1.394 . S
C900 C901 1.516 . S
C901 C900 1.516 . S
C901 C902 1.502 . S
C901 C903 1.561 . S
C901 C904 1.526 . S
C902 H886 0.959 . S
C902 H887 0.959 . S
C902 H888 0.961 . S
C902 C901 1.502 . S
C903 H889 0.960 . S
C903 H890 0.961 . S
C903 H891 0.959 . S
C903 C901 1.561 . S
C904 C901 1.526 . S
C904 C905 1.396 . S
C904 C909 1.390 . S
C905 C899 1.465 . S
C905 C904 1.396 . S
C905 C906 1.399 . S
C906 H892 0.929 . S
C906 C905 1.399 . S
C906 C907 1.385 . S
C907 H893 0.931 . S
C907 C906 1.385 . S
C907 C908 1.389 . S
C908 C907 1.389 . S
C908 C909 1.387 . S
C909 H894 0.930 . S
C909 C904 1.390 . S
C909 C908 1.387 . S
H910 C922 0.930 . S
H911 C924 0.930 . S
H912 C925 0.930 . S
H913 C929 0.959 1_655 S
H914 C929 0.959 1_655 S
H915 C929 0.961 . S
H916 C930 0.960 . S
H917 C930 0.961 . S
H918 C930 0.959 . S
H919 C933 0.929 . S
H920 C934 0.931 . S
H921 C936 0.930 1_545 S
C922 H910 0.930 . S
C922 C923 1.399 . S
C922 C927 1.399 . S
C923 C922 1.399 . S
C923 C924 1.376 1_545 S
C924 H911 0.930 . S
C924 C923 1.376 1_565 S
C924 C925 1.388 . S
C925 H912 0.930 . S
C925 C924 1.388 . S
C925 C926 1.390 . S
C926 C925 1.390 . S
C926 C927 1.394 1_565 S
C926 C932 1.465 1_455 S
C927 C922 1.399 . S
C927 C926 1.394 1_545 S
C927 C928 1.516 . S
C928 C927 1.516 . S
C928 C929 1.502 . S
C928 C930 1.561 1_545 S
C928 C931 1.526 1_445 S
C929 H913 0.959 1_455 S
C929 H914 0.959 1_455 S
C929 H915 0.961 . S
C929 C928 1.502 . S
C930 H916 0.960 . S
C930 H917 0.961 . S
C930 H918 0.959 . S
C930 C928 1.561 1_565 S
C931 C928 1.526 1_665 S
C931 C932 1.396 . S
C931 C936 1.390 . S
C932 C926 1.465 1_655 S
C932 C931 1.396 . S
C932 C933 1.399 . S
C933 H919 0.929 . S
C933 C932 1.399 . S
C933 C934 1.385 . S
C934 H920 0.931 . S
C934 C933 1.385 . S
C934 C935 1.389 . S
C935 C934 1.389 . S
C935 C936 1.387 . S
C936 H921 0.930 1_565 S
C936 C931 1.390 . S
C936 C935 1.387 . S
H937 C949 0.930 . S
H938 C951 0.930 . S
H939 C952 0.930 . S
H940 C956 0.959 . S
H941 C956 0.959 . S
H942 C956 0.961 . S
H943 C957 0.960 . S
H944 C957 0.961 . S
H945 C957 0.959 . S
H946 C960 0.929 . S
H947 C961 0.931 . S
H948 C963 0.930 . S
C949 H937 0.930 . S
C949 C950 1.399 . S
C949 C954 1.399 . S
C950 C949 1.399 . S
C950 C951 1.376 . S
C951 H938 0.930 . S
C951 C950 1.376 . S
C951 C952 1.388 . S
C952 H939 0.930 . S
C952 C951 1.388 . S
C952 C953 1.390 . S
C953 C952 1.390 . S
C953 C954 1.394 . S
C953 C959 1.465 . S
C954 C949 1.399 . S
C954 C953 1.394 . S
C954 C955 1.516 . S
C955 C954 1.516 . S
C955 C956 1.502 . S
C955 C957 1.561 . S
C955 C958 1.526 . S
C956 H940 0.959 . S
C956 H941 0.959 . S
C956 H942 0.961 . S
C956 C955 1.502 . S
C957 H943 0.960 . S
C957 H944 0.961 . S
C957 H945 0.959 . S
C957 C955 1.561 . S
C958 C955 1.526 . S
C958 C959 1.396 . S
C958 C963 1.390 . S
C959 C953 1.465 . S
C959 C958 1.396 . S
C959 C960 1.399 . S
C960 H946 0.929 . S
C960 C959 1.399 . S
C960 C961 1.385 . S
C961 H947 0.931 . S
C961 C960 1.385 . S
C961 C962 1.389 . S
C962 C961 1.389 . S
C962 C963 1.387 . S
C963 H948 0.930 . S
C963 C958 1.390 . S
C963 C962 1.387 . S
H964 C976 0.930 . S
H965 C978 0.930 . S
H966 C979 0.930 . S
H967 C983 0.959 . S
H968 C983 0.959 . S
H969 C983 0.961 . S
H970 C984 0.960 . S
H971 C984 0.961 . S
H972 C984 0.959 . S
H973 C987 0.929 . S
H974 C988 0.931 . S
H975 C990 0.930 . S
C976 H964 0.930 . S
C976 C977 1.399 . S
C976 C981 1.399 . S
C977 C976 1.399 . S
C977 C978 1.376 . S
C978 H965 0.930 . S
C978 C977 1.376 . S
C978 C979 1.388 . S
C979 H966 0.930 . S
C979 C978 1.388 . S
C979 C980 1.390 . S
C980 C979 1.390 . S
C980 C981 1.394 . S
C980 C986 1.465 . S
C981 C976 1.399 . S
C981 C980 1.394 . S
C981 C982 1.516 . S
C982 C981 1.516 . S
C982 C983 1.502 . S
C982 C984 1.561 . S
C982 C985 1.526 . S
C983 H967 0.959 . S
C983 H968 0.959 . S
C983 H969 0.961 . S
C983 C982 1.502 . S
C984 H970 0.960 . S
C984 H971 0.961 . S
C984 H972 0.959 . S
C984 C982 1.561 . S
C985 C982 1.526 . S
C985 C986 1.396 . S
C985 C990 1.390 . S
C986 C980 1.465 . S
C986 C985 1.396 . S
C986 C987 1.399 . S
C987 H973 0.929 . S
C987 C986 1.399 . S
C987 C988 1.385 . S
C988 H974 0.931 . S
C988 C987 1.385 . S
C988 C989 1.389 . S
C989 C988 1.389 . S
C989 C990 1.387 . S
C990 H975 0.930 . S
C990 C985 1.390 . S
C990 C989 1.387 . S
H991 C1003 0.930 . S
H992 C1005 0.930 . S
H993 C1006 0.930 . S
H994 C1010 0.959 . S
H995 C1010 0.959 . S
H996 C1010 0.961 . S
H997 C1011 0.960 . S
H998 C1011 0.961 . S
H999 C1011 0.959 . S
H1000 C1014 0.929 . S
H1001 C1015 0.931 . S
H1002 C1017 0.930 . S
C1003 H991 0.930 . S
C1003 C1004 1.399 . S
C1003 C1008 1.399 . S
C1004 C1003 1.399 . S
C1004 C1005 1.376 . S
C1005 H992 0.930 . S
C1005 C1004 1.376 . S
C1005 C1006 1.388 . S
C1006 H993 0.930 . S
C1006 C1005 1.388 . S
C1006 C1007 1.390 . S
C1007 C1006 1.390 . S
C1007 C1008 1.394 . S
C1007 C1013 1.465 . S
C1008 C1003 1.399 . S
C1008 C1007 1.394 . S
C1008 C1009 1.516 . S
C1009 C1008 1.516 . S
C1009 C1010 1.502 . S
C1009 C1011 1.561 . S
C1009 C1012 1.526 . S
C1010 H994 0.959 . S
C1010 H995 0.959 . S
C1010 H996 0.961 . S
C1010 C1009 1.502 . S
C1011 H997 0.960 . S
C1011 H998 0.961 . S
C1011 H999 0.959 . S
C1011 C1009 1.561 . S
C1012 C1009 1.526 . S
C1012 C1013 1.396 . S
C1012 C1017 1.390 . S
C1013 C1007 1.465 . S
C1013 C1012 1.396 . S
C1013 C1014 1.399 . S
C1014 H1000 0.929 . S
C1014 C1013 1.399 . S
C1014 C1015 1.385 . S
C1015 H1001 0.931 . S
C1015 C1014 1.385 . S
C1015 C1016 1.389 . S
C1016 C1015 1.389 . S
C1016 C1017 1.387 . S
C1017 H1002 0.930 . S
C1017 C1012 1.390 . S
C1017 C1016 1.387 . S
H1018 C1030 0.930 . S
H1019 C1032 0.930 . S
H1020 C1033 0.930 . S
H1021 C1037 0.959 . S
H1022 C1037 0.959 1_655 S
H1023 C1037 0.961 . S
H1024 C1038 0.960 1_455 S
H1025 C1038 0.961 . S
H1026 C1038 0.959 . S
H1027 C1041 0.929 . S
H1028 C1042 0.931 . S
H1029 C1044 0.930 . S
C1030 H1018 0.930 . S
C1030 C1031 1.399 . S
C1030 C1035 1.399 . S
C1031 C1030 1.399 . S
C1031 C1032 1.376 . S
C1032 H1019 0.930 . S
C1032 C1031 1.376 . S
C1032 C1033 1.388 . S
C1033 H1020 0.930 . S
C1033 C1032 1.388 . S
C1033 C1034 1.390 . S
C1034 C1033 1.390 . S
C1034 C1035 1.394 . S
C1034 C1040 1.465 1_455 S
C1035 C1030 1.399 . S
C1035 C1034 1.394 . S
C1035 C1036 1.516 . S
C1036 C1035 1.516 . S
C1036 C1037 1.502 . S
C1036 C1038 1.561 1_455 S
C1036 C1039 1.526 1_455 S
C1037 H1021 0.959 . S
C1037 H1022 0.959 1_455 S
C1037 H1023 0.961 . S
C1037 C1036 1.502 . S
C1038 H1024 0.960 1_655 S
C1038 H1025 0.961 . S
C1038 H1026 0.959 . S
C1038 C1036 1.561 1_655 S
C1039 C1036 1.526 1_655 S
C1039 C1040 1.396 . S
C1039 C1044 1.390 . S
C1040 C1034 1.465 1_655 S
C1040 C1039 1.396 . S
C1040 C1041 1.399 . S
C1041 H1027 0.929 . S
C1041 C1040 1.399 . S
C1041 C1042 1.385 . S
C1042 H1028 0.931 . S
C1042 C1041 1.385 . S
C1042 C1043 1.389 . S
C1043 C1042 1.389 . S
C1043 C1044 1.387 . S
C1044 H1029 0.930 . S
C1044 C1039 1.390 . S
C1044 C1043 1.387 . S
H1045 C1057 0.930 . S
H1046 C1059 0.937 . S
H1047 C1060 0.930 . S
H1048 C1064 0.959 . S
H1049 C1064 0.959 . S
H1050 C1064 0.961 . S
H1051 C1065 0.960 . S
H1052 C1065 0.961 . S
H1053 C1065 0.959 . S
H1054 C1068 0.929 . S
H1055 C1069 0.931 . S
H1056 C1071 0.930 . S
C1057 H1045 0.930 . S
C1057 C1058 1.399 . S
C1057 C1062 1.399 . S
C1058 C1057 1.399 . S
C1058 C1059 1.376 . S
C1059 H1046 0.937 . S
C1059 C1058 1.376 . S
C1059 C1060 1.388 1_554 S
C1060 H1047 0.930 . S
C1060 C1059 1.388 1_556 S
C1060 C1061 1.390 . S
C1061 C1060 1.390 . S
C1061 C1062 1.394 1_556 S
C1061 C1067 1.465 . S
C1062 C1057 1.399 . S
C1062 C1061 1.394 1_554 S
C1062 C1063 1.516 . S
C1063 C1062 1.516 . S
C1063 C1064 1.502 . S
C1063 C1065 1.561 1_554 S
C1063 C1066 1.526 1_554 S
C1064 H1048 0.959 . S
C1064 H1049 0.959 . S
C1064 H1050 0.961 . S
C1064 C1063 1.502 . S
C1065 H1051 0.960 . S
C1065 H1052 0.961 . S
C1065 H1053 0.959 . S
C1065 C1063 1.561 1_556 S
C1066 C1063 1.526 1_556 S
C1066 C1067 1.396 . S
C1066 C1071 1.390 . S
C1067 C1061 1.465 . S
C1067 C1066 1.396 . S
C1067 C1068 1.399 . S
C1068 H1054 0.929 . S
C1068 C1067 1.399 . S
C1068 C1069 1.385 . S
C1069 H1055 0.931 . S
C1069 C1068 1.385 . S
C1069 C1070 1.389 . S
C1070 C1069 1.389 . S
C1070 C1071 1.387 . S
C1071 H1056 0.930 . S
C1071 C1066 1.390 . S
C1071 C1070 1.387 . S
H1072 C1084 0.930 . S
H1073 C1086 0.930 . S
H1074 C1087 0.930 . S
H1075 C1091 0.959 . S
H1076 C1091 0.959 . S
H1077 C1091 0.961 . S
H1078 C1092 0.960 . S
H1079 C1092 0.961 . S
H1080 C1092 0.959 . S
H1081 C1095 0.929 . S
H1082 C1096 0.931 . S
H1083 C1098 0.930 . S
C1084 H1072 0.930 . S
C1084 C1085 1.399 . S
C1084 C1089 1.399 . S
C1085 C1084 1.399 . S
C1085 C1086 1.376 . S
C1086 H1073 0.930 . S
C1086 C1085 1.376 . S
C1086 C1087 1.388 . S
C1087 H1074 0.930 . S
C1087 C1086 1.388 . S
C1087 C1088 1.390 . S
C1088 C1087 1.390 . S
C1088 C1089 1.394 . S
C1088 C1094 1.465 . S
C1089 C1084 1.399 . S
C1089 C1088 1.394 . S
C1089 C1090 1.516 . S
C1090 C1089 1.516 . S
C1090 C1091 1.502 . S
C1090 C1092 1.561 . S
C1090 C1093 1.526 . S
C1091 H1075 0.959 . S
C1091 H1076 0.959 . S
C1091 H1077 0.961 . S
C1091 C1090 1.502 . S
C1092 H1078 0.960 . S
C1092 H1079 0.961 . S
C1092 H1080 0.959 . S
C1092 C1090 1.561 . S
C1093 C1090 1.526 . S
C1093 C1094 1.396 . S
C1093 C1098 1.390 . S
C1094 C1088 1.465 . S
C1094 C1093 1.396 . S
C1094 C1095 1.399 . S
C1095 H1081 0.929 . S
C1095 C1094 1.399 . S
C1095 C1096 1.385 . S
C1096 H1082 0.931 . S
C1096 C1095 1.385 . S
C1096 C1097 1.389 . S
C1097 C1096 1.389 . S
C1097 C1098 1.387 . S
C1098 H1083 0.930 . S
C1098 C1093 1.390 . S
C1098 C1097 1.387 . S
H1099 C1111 0.930 . S
H1100 C1113 0.930 . S
H1101 C1114 0.930 . S
H1102 C1118 0.959 . S
H1103 C1118 0.959 . S
H1104 C1118 0.961 . S
H1105 C1119 0.960 . S
H1106 C1119 0.961 . S
H1107 C1119 0.959 . S
H1108 C1122 0.929 . S
H1109 C1123 0.931 . S
H1110 C1125 0.930 . S
C1111 H1099 0.930 . S
C1111 C1112 1.399 . S
C1111 C1116 1.399 . S
C1112 C1111 1.399 . S
C1112 C1113 1.376 . S
C1113 H1100 0.930 . S
C1113 C1112 1.376 . S
C1113 C1114 1.388 . S
C1114 H1101 0.930 . S
C1114 C1113 1.388 . S
C1114 C1115 1.390 . S
C1115 C1114 1.390 . S
C1115 C1116 1.394 . S
C1115 C1121 1.465 . S
C1116 C1111 1.399 . S
C1116 C1115 1.394 . S
C1116 C1117 1.516 . S
C1117 C1116 1.516 . S
C1117 C1118 1.502 . S
C1117 C1119 1.561 . S
C1117 C1120 1.526 . S
C1118 H1102 0.959 . S
C1118 H1103 0.959 . S
C1118 H1104 0.961 . S
C1118 C1117 1.502 . S
C1119 H1105 0.960 . S
C1119 H1106 0.961 . S
C1119 H1107 0.959 . S
C1119 C1117 1.561 . S
C1120 C1117 1.526 . S
C1120 C1121 1.396 . S
C1120 C1125 1.390 . S
C1121 C1115 1.465 . S
C1121 C1120 1.396 . S
C1121 C1122 1.399 . S
C1122 H1108 0.929 . S
C1122 C1121 1.399 . S
C1122 C1123 1.385 . S
C1123 H1109 0.931 . S
C1123 C1122 1.385 . S
C1123 C1124 1.389 . S
C1124 C1123 1.389 . S
C1124 C1125 1.387 . S
C1125 H1110 0.930 . S
C1125 C1120 1.390 . S
C1125 C1124 1.387 . S
H1126 C1138 0.930 . S
H1127 C1140 0.930 . S
H1128 C1141 0.930 . S
H1129 C1145 0.959 . S
H1130 C1145 0.959 . S
H1131 C1145 0.961 . S
H1132 C1146 0.960 . S
H1133 C1146 0.961 . S
H1134 C1146 0.959 . S
H1135 C1149 0.929 . S
H1136 C1150 0.931 . S
H1137 C1152 0.930 . S
C1138 H1126 0.930 . S
C1138 C1139 1.399 . S
C1138 C1143 1.399 . S
C1139 C1138 1.399 . S
C1139 C1140 1.376 . S
C1140 H1127 0.930 . S
C1140 C1139 1.376 . S
C1140 C1141 1.388 . S
C1141 H1128 0.930 . S
C1141 C1140 1.388 . S
C1141 C1142 1.390 . S
C1142 C1141 1.390 . S
C1142 C1143 1.394 . S
C1142 C1148 1.465 . S
C1143 C1138 1.399 . S
C1143 C1142 1.394 . S
C1143 C1144 1.516 . S
C1144 C1143 1.516 . S
C1144 C1145 1.502 . S
C1144 C1146 1.561 . S
C1144 C1147 1.526 . S
C1145 H1129 0.959 . S
C1145 H1130 0.959 . S
C1145 H1131 0.961 . S
C1145 C1144 1.502 . S
C1146 H1132 0.960 . S
C1146 H1133 0.961 . S
C1146 H1134 0.959 . S
C1146 C1144 1.561 . S
C1147 C1144 1.526 . S
C1147 C1148 1.396 . S
C1147 C1152 1.390 . S
C1148 C1142 1.465 . S
C1148 C1147 1.396 . S
C1148 C1149 1.399 . S
C1149 H1135 0.929 . S
C1149 C1148 1.399 . S
C1149 C1150 1.385 . S
C1150 H1136 0.931 . S
C1150 C1149 1.385 . S
C1150 C1151 1.389 . S
C1151 C1150 1.389 . S
C1151 C1152 1.387 . S
C1152 H1137 0.930 . S
C1152 C1147 1.390 . S
C1152 C1151 1.387 . S
H1153 C1165 0.930 . S
H1154 C1167 0.930 . S
H1155 C1168 0.930 . S
H1156 C1172 0.959 . S
H1157 C1172 0.959 . S
H1158 C1172 0.961 . S
H1159 C1173 0.960 . S
H1160 C1173 0.961 . S
H1161 C1173 0.959 . S
H1162 C1176 0.929 . S
H1163 C1177 0.931 . S
H1164 C1179 0.930 . S
C1165 H1153 0.930 . S
C1165 C1166 1.399 . S
C1165 C1170 1.399 . S
C1166 C1165 1.399 . S
C1166 C1167 1.376 . S
C1167 H1154 0.930 . S
C1167 C1166 1.376 . S
C1167 C1168 1.388 . S
C1168 H1155 0.930 . S
C1168 C1167 1.388 . S
C1168 C1169 1.390 . S
C1169 C1168 1.390 . S
C1169 C1170 1.394 . S
C1169 C1175 1.465 . S
C1170 C1165 1.399 . S
C1170 C1169 1.394 . S
C1170 C1171 1.516 . S
C1171 C1170 1.516 . S
C1171 C1172 1.502 . S
C1171 C1173 1.561 . S
C1171 C1174 1.526 . S
C1172 H1156 0.959 . S
C1172 H1157 0.959 . S
C1172 H1158 0.961 . S
C1172 C1171 1.502 . S
C1173 H1159 0.960 . S
C1173 H1160 0.961 . S
C1173 H1161 0.959 . S
C1173 C1171 1.561 . S
C1174 C1171 1.526 . S
C1174 C1175 1.396 . S
C1174 C1179 1.390 . S
C1175 C1169 1.465 . S
C1175 C1174 1.396 . S
C1175 C1176 1.399 . S
C1176 H1162 0.929 . S
C1176 C1175 1.399 . S
C1176 C1177 1.385 . S
C1177 H1163 0.931 . S
C1177 C1176 1.385 . S
C1177 C1178 1.389 . S
C1178 C1177 1.389 . S
C1178 C1179 1.387 . S
C1179 H1164 0.930 . S
C1179 C1174 1.390 . S
C1179 C1178 1.387 . S
H1180 C1192 0.930 . S
H1181 C1194 0.930 . S
H1182 C1195 0.930 . S
H1183 C1199 0.959 . S
H1184 C1199 0.959 . S
H1185 C1199 0.961 . S
H1186 C1200 0.960 . S
H1187 C1200 0.961 . S
H1188 C1200 0.959 . S
H1189 C1203 0.929 . S
H1190 C1204 0.931 . S
H1191 C1206 0.930 . S
C1192 H1180 0.930 . S
C1192 C1193 1.399 . S
C1192 C1197 1.399 . S
C1193 C1192 1.399 . S
C1193 C1194 1.376 . S
C1194 H1181 0.930 . S
C1194 C1193 1.376 . S
C1194 C1195 1.388 . S
C1195 H1182 0.930 . S
C1195 C1194 1.388 . S
C1195 C1196 1.390 . S
C1196 C1195 1.390 . S
C1196 C1197 1.394 . S
C1196 C1202 1.465 . S
C1197 C1192 1.399 . S
C1197 C1196 1.394 . S
C1197 C1198 1.516 . S
C1198 C1197 1.516 . S
C1198 C1199 1.502 . S
C1198 C1200 1.561 . S
C1198 C1201 1.526 . S
C1199 H1183 0.959 . S
C1199 H1184 0.959 . S
C1199 H1185 0.961 . S
C1199 C1198 1.502 . S
C1200 H1186 0.960 . S
C1200 H1187 0.961 . S
C1200 H1188 0.959 . S
C1200 C1198 1.561 . S
C1201 C1198 1.526 . S
C1201 C1202 1.396 . S
C1201 C1206 1.390 . S
C1202 C1196 1.465 . S
C1202 C1201 1.396 . S
C1202 C1203 1.399 . S
C1203 H1189 0.929 . S
C1203 C1202 1.399 . S
C1203 C1204 1.385 . S
C1204 H1190 0.931 . S
C1204 C1203 1.385 . S
C1204 C1205 1.389 . S
C1205 C1204 1.389 . S
C1205 C1206 1.387 . S
C1206 H1191 0.930 . S
C1206 C1201 1.390 . S
C1206 C1205 1.387 . S
H1207 C1219 0.930 . S
H1208 C1221 0.930 . S
H1209 C1222 0.930 . S
H1210 C1226 0.959 . S
H1211 C1226 0.959 . S
H1212 C1226 0.961 . S
H1213 C1227 0.960 . S
H1214 C1227 0.961 . S
H1215 C1227 0.959 . S
H1216 C1230 0.929 . S
H1217 C1231 0.931 . S
H1218 C1233 0.930 . S
C1219 H1207 0.930 . S
C1219 C1220 1.399 . S
C1219 C1224 1.399 . S
C1220 C1219 1.399 . S
C1220 C1221 1.376 . S
C1221 H1208 0.930 . S
C1221 C1220 1.376 . S
C1221 C1222 1.388 . S
C1222 H1209 0.930 . S
C1222 C1221 1.388 . S
C1222 C1223 1.390 . S
C1223 C1222 1.390 . S
C1223 C1224 1.394 . S
C1223 C1229 1.465 . S
C1224 C1219 1.399 . S
C1224 C1223 1.394 . S
C1224 C1225 1.516 . S
C1225 C1224 1.516 . S
C1225 C1226 1.502 . S
C1225 C1227 1.561 . S
C1225 C1228 1.526 . S
C1226 H1210 0.959 . S
C1226 H1211 0.959 . S
C1226 H1212 0.961 . S
C1226 C1225 1.502 . S
C1227 H1213 0.960 . S
C1227 H1214 0.961 . S
C1227 H1215 0.959 . S
C1227 C1225 1.561 . S
C1228 C1225 1.526 . S
C1228 C1229 1.396 . S
C1228 C1233 1.390 . S
C1229 C1223 1.465 . S
C1229 C1228 1.396 . S
C1229 C1230 1.399 . S
C1230 H1216 0.929 . S
C1230 C1229 1.399 . S
C1230 C1231 1.385 . S
C1231 H1217 0.931 . S
C1231 C1230 1.385 . S
C1231 C1232 1.389 . S
C1232 C1231 1.389 . S
C1232 C1233 1.387 . S
C1233 H1218 0.930 . S
C1233 C1228 1.390 . S
C1233 C1232 1.387 . S
H1234 C1246 0.930 . S
H1235 C1248 0.930 . S
H1236 C1249 0.930 . S
H1237 C1253 0.959 . S
H1238 C1253 0.959 . S
H1239 C1253 0.961 . S
H1240 C1254 0.960 . S
H1241 C1254 0.961 . S
H1242 C1254 0.959 . S
H1243 C1257 0.929 . S
H1244 C1258 0.931 . S
H1245 C1260 0.930 . S
C1246 H1234 0.930 . S
C1246 C1247 1.399 . S
C1246 C1251 1.399 . S
C1247 C1246 1.399 . S
C1247 C1248 1.376 . S
C1248 H1235 0.930 . S
C1248 C1247 1.376 . S
C1248 C1249 1.388 . S
C1249 H1236 0.930 . S
C1249 C1248 1.388 . S
C1249 C1250 1.390 . S
C1250 C1249 1.390 . S
C1250 C1251 1.394 . S
C1250 C1256 1.465 . S
C1251 C1246 1.399 . S
C1251 C1250 1.394 . S
C1251 C1252 1.516 . S
C1252 C1251 1.516 . S
C1252 C1253 1.502 . S
C1252 C1254 1.561 . S
C1252 C1255 1.526 . S
C1253 H1237 0.959 . S
C1253 H1238 0.959 . S
C1253 H1239 0.961 . S
C1253 C1252 1.502 . S
C1254 H1240 0.960 . S
C1254 H1241 0.961 . S
C1254 H1242 0.959 . S
C1254 C1252 1.561 . S
C1255 C1252 1.526 . S
C1255 C1256 1.396 . S
C1255 C1260 1.390 . S
C1256 C1250 1.465 . S
C1256 C1255 1.396 . S
C1256 C1257 1.399 . S
C1257 H1243 0.929 . S
C1257 C1256 1.399 . S
C1257 C1258 1.385 . S
C1258 H1244 0.931 . S
C1258 C1257 1.385 . S
C1258 C1259 1.389 . S
C1259 C1258 1.389 . S
C1259 C1260 1.387 . S
C1260 H1245 0.930 . S
C1260 C1255 1.390 . S
C1260 C1259 1.387 . S
H1261 C1273 0.930 . S
H1262 C1275 0.930 . S
H1263 C1276 0.930 . S
H1264 C1280 0.959 . S
H1265 C1280 0.959 . S
H1266 C1280 0.961 . S
H1267 C1281 0.960 . S
H1268 C1281 0.961 . S
H1269 C1281 0.959 . S
H1270 C1284 0.929 . S
H1271 C1285 0.931 . S
H1272 C1287 0.930 . S
C1273 H1261 0.930 . S
C1273 C1274 1.399 . S
C1273 C1278 1.399 . S
C1274 C1273 1.399 . S
C1274 C1275 1.376 . S
C1275 H1262 0.930 . S
C1275 C1274 1.376 . S
C1275 C1276 1.388 . S
C1276 H1263 0.930 . S
C1276 C1275 1.388 . S
C1276 C1277 1.390 . S
C1277 C1276 1.390 . S
C1277 C1278 1.394 . S
C1277 C1283 1.465 . S
C1278 C1273 1.399 . S
C1278 C1277 1.394 . S
C1278 C1279 1.516 . S
C1279 C1278 1.516 . S
C1279 C1280 1.502 . S
C1279 C1281 1.561 . S
C1279 C1282 1.526 . S
C1280 H1264 0.959 . S
C1280 H1265 0.959 . S
C1280 H1266 0.961 . S
C1280 C1279 1.502 . S
C1281 H1267 0.960 . S
C1281 H1268 0.961 . S
C1281 H1269 0.959 . S
C1281 C1279 1.561 . S
C1282 C1279 1.526 . S
C1282 C1283 1.396 . S
C1282 C1287 1.390 . S
C1283 C1277 1.465 . S
C1283 C1282 1.396 . S
C1283 C1284 1.399 . S
C1284 H1270 0.929 . S
C1284 C1283 1.399 . S
C1284 C1285 1.385 . S
C1285 H1271 0.931 . S
C1285 C1284 1.385 . S
C1285 C1286 1.389 . S
C1286 C1285 1.389 . S
C1286 C1287 1.387 . S
C1287 H1272 0.930 . S
C1287 C1282 1.390 . S
C1287 C1286 1.387 . S
H1288 C1300 0.930 . S
H1289 C1302 0.930 . S
H1290 C1303 0.930 . S
H1291 C1307 0.959 . S
H1292 C1307 0.959 . S
H1293 C1307 0.961 . S
H1294 C1308 0.960 . S
H1295 C1308 0.961 . S
H1296 C1308 0.959 . S
H1297 C1311 0.929 . S
H1298 C1312 0.931 . S
H1299 C1314 0.930 . S
C1300 H1288 0.930 . S
C1300 C1301 1.399 . S
C1300 C1305 1.399 . S
C1301 C1300 1.399 . S
C1301 C1302 1.376 . S
C1302 H1289 0.930 . S
C1302 C1301 1.376 . S
C1302 C1303 1.388 . S
C1303 H1290 0.930 . S
C1303 C1302 1.388 . S
C1303 C1304 1.390 . S
C1304 C1303 1.390 . S
C1304 C1305 1.394 . S
C1304 C1310 1.465 . S
C1305 C1300 1.399 . S
C1305 C1304 1.394 . S
C1305 C1306 1.516 . S
C1306 C1305 1.516 . S
C1306 C1307 1.502 . S
C1306 C1308 1.561 . S
C1306 C1309 1.526 . S
C1307 H1291 0.959 . S
C1307 H1292 0.959 . S
C1307 H1293 0.961 . S
C1307 C1306 1.502 . S
C1308 H1294 0.960 . S
C1308 H1295 0.961 . S
C1308 H1296 0.959 . S
C1308 C1306 1.561 . S
C1309 C1306 1.526 . S
C1309 C1310 1.396 . S
C1309 C1314 1.390 . S
C1310 C1304 1.465 . S
C1310 C1309 1.396 . S
C1310 C1311 1.399 . S
C1311 H1297 0.929 . S
C1311 C1310 1.399 . S
C1311 C1312 1.385 . S
C1312 H1298 0.931 . S
C1312 C1311 1.385 . S
C1312 C1313 1.389 . S
C1313 C1312 1.389 . S
C1313 C1314 1.387 . S
C1314 H1299 0.930 . S
C1314 C1309 1.390 . S
C1314 C1313 1.387 . S
H1315 C1327 0.930 . S
H1316 C1329 0.930 . S
H1317 C1330 0.930 . S
H1318 C1334 0.959 . S
H1319 C1334 0.959 1_545 S
H1320 C1334 0.961 1_545 S
H1321 C1335 0.960 . S
H1322 C1335 0.961 . S
H1323 C1335 0.959 . S
H1324 C1338 0.929 . S
H1325 C1339 0.931 . S
H1326 C1341 0.930 . S
C1327 H1315 0.930 . S
C1327 C1328 1.399 . S
C1327 C1332 1.399 . S
C1328 C1327 1.399 . S
C1328 C1329 1.376 . S
C1329 H1316 0.930 . S
C1329 C1328 1.376 . S
C1329 C1330 1.388 . S
C1330 H1317 0.930 . S
C1330 C1329 1.388 . S
C1330 C1331 1.390 . S
C1331 C1330 1.390 . S
C1331 C1332 1.394 . S
C1331 C1337 1.465 . S
C1332 C1327 1.399 . S
C1332 C1331 1.394 . S
C1332 C1333 1.516 . S
C1333 C1332 1.516 . S
C1333 C1334 1.502 . S
C1333 C1335 1.561 . S
C1333 C1336 1.526 . S
C1334 H1318 0.959 . S
C1334 H1319 0.959 1_565 S
C1334 H1320 0.961 1_565 S
C1334 C1333 1.502 . S
C1335 H1321 0.960 . S
C1335 H1322 0.961 . S
C1335 H1323 0.959 . S
C1335 C1333 1.561 . S
C1336 C1333 1.526 . S
C1336 C1337 1.396 . S
C1336 C1341 1.390 . S
C1337 C1331 1.465 . S
C1337 C1336 1.396 . S
C1337 C1338 1.399 . S
C1338 H1324 0.929 . S
C1338 C1337 1.399 . S
C1338 C1339 1.385 . S
C1339 H1325 0.931 . S
C1339 C1338 1.385 . S
C1339 C1340 1.389 . S
C1340 C1339 1.389 . S
C1340 C1341 1.387 . S
C1341 H1326 0.930 . S
C1341 C1336 1.390 . S
C1341 C1340 1.387 . S
H1342 C1354 0.930 . S
H1343 C1356 0.930 1_565 S
H1344 C1357 0.930 . S
H1345 C1361 0.959 . S
H1346 C1361 0.959 . S
H1347 C1361 0.961 . S
H1348 C1362 0.960 . S
H1349 C1362 0.961 . S
H1350 C1362 0.959 . S
H1351 C1365 0.929 . S
H1352 C1366 0.931 . S
H1353 C1368 0.930 . S
C1354 H1342 0.930 . S
C1354 C1355 1.399 . S
C1354 C1359 1.399 . S
C1355 C1354 1.399 . S
C1355 C1356 1.376 . S
C1356 H1343 0.930 1_545 S
C1356 C1355 1.376 . S
C1356 C1357 1.388 . S
C1357 H1344 0.930 . S
C1357 C1356 1.388 . S
C1357 C1358 1.390 . S
C1358 C1357 1.390 . S
C1358 C1359 1.394 . S
C1358 C1364 1.465 . S
C1359 C1354 1.399 . S
C1359 C1358 1.394 . S
C1359 C1360 1.516 . S
C1360 C1359 1.516 . S
C1360 C1361 1.502 . S
C1360 C1362 1.561 . S
C1360 C1363 1.526 . S
C1361 H1345 0.959 . S
C1361 H1346 0.959 . S
C1361 H1347 0.961 . S
C1361 C1360 1.502 . S
C1362 H1348 0.960 . S
C1362 H1349 0.961 . S
C1362 H1350 0.959 . S
C1362 C1360 1.561 . S
C1363 C1360 1.526 . S
C1363 C1364 1.396 . S
C1363 C1368 1.390 . S
C1364 C1358 1.465 . S
C1364 C1363 1.396 . S
C1364 C1365 1.399 . S
C1365 H1351 0.929 . S
C1365 C1364 1.399 . S
C1365 C1366 1.385 . S
C1366 H1352 0.931 . S
C1366 C1365 1.385 . S
C1366 C1367 1.389 . S
C1367 C1366 1.389 . S
C1367 C1368 1.387 . S
C1368 H1353 0.930 . S
C1368 C1363 1.390 . S
C1368 C1367 1.387 . S
H1369 C1381 0.930 . S
H1370 C1383 0.930 . S
H1371 C1384 0.930 . S
H1372 C1388 0.959 . S
H1373 C1388 0.959 . S
H1374 C1388 0.961 . S
H1375 C1389 0.960 . S
H1376 C1389 0.961 . S
H1377 C1389 0.959 . S
H1378 C1392 0.929 . S
H1379 C1393 0.931 . S
H1380 C1395 0.930 . S
C1381 H1369 0.930 . S
C1381 C1382 1.399 . S
C1381 C1386 1.399 . S
C1382 C1381 1.399 . S
C1382 C1383 1.376 . S
C1383 H1370 0.930 . S
C1383 C1382 1.376 . S
C1383 C1384 1.388 . S
C1384 H1371 0.930 . S
C1384 C1383 1.388 . S
C1384 C1385 1.390 . S
C1385 C1384 1.390 . S
C1385 C1386 1.394 . S
C1385 C1391 1.465 . S
C1386 C1381 1.399 . S
C1386 C1385 1.394 . S
C1386 C1387 1.516 . S
C1387 C1386 1.516 . S
C1387 C1388 1.502 . S
C1387 C1389 1.561 . S
C1387 C1390 1.526 . S
C1388 H1372 0.959 . S
C1388 H1373 0.959 . S
C1388 H1374 0.961 . S
C1388 C1387 1.502 . S
C1389 H1375 0.960 . S
C1389 H1376 0.961 . S
C1389 H1377 0.959 . S
C1389 C1387 1.561 . S
C1390 C1387 1.526 . S
C1390 C1391 1.396 . S
C1390 C1395 1.390 . S
C1391 C1385 1.465 . S
C1391 C1390 1.396 . S
C1391 C1392 1.399 . S
C1392 H1378 0.929 . S
C1392 C1391 1.399 . S
C1392 C1393 1.385 . S
C1393 H1379 0.931 . S
C1393 C1392 1.385 . S
C1393 C1394 1.389 . S
C1394 C1393 1.389 . S
C1394 C1395 1.387 . S
C1395 H1380 0.930 . S
C1395 C1390 1.390 . S
C1395 C1394 1.387 . S
H1396 C1408 0.930 . S
H1397 C1410 0.930 . S
H1398 C1411 0.930 . S
H1399 C1415 0.959 . S
H1400 C1415 0.959 . S
H1401 C1415 0.961 . S
H1402 C1416 0.960 . S
H1403 C1416 0.961 . S
H1404 C1416 0.959 . S
H1405 C1419 0.929 . S
H1406 C1420 0.918 1_565 S
H1407 C1422 0.930 . S
C1408 H1396 0.930 . S
C1408 C1409 1.399 . S
C1408 C1413 1.399 . S
C1409 C1408 1.399 . S
C1409 C1410 1.376 . S
C1410 H1397 0.930 . S
C1410 C1409 1.376 . S
C1410 C1411 1.388 . S
C1411 H1398 0.930 . S
C1411 C1410 1.388 . S
C1411 C1412 1.390 . S
C1412 C1411 1.390 . S
C1412 C1413 1.394 . S
C1412 C1418 1.465 . S
C1413 C1408 1.399 . S
C1413 C1412 1.394 . S
C1413 C1414 1.516 . S
C1414 C1413 1.516 . S
C1414 C1415 1.502 . S
C1414 C1416 1.561 . S
C1414 C1417 1.526 . S
C1415 H1399 0.959 . S
C1415 H1400 0.959 . S
C1415 H1401 0.961 . S
C1415 C1414 1.502 . S
C1416 H1402 0.960 . S
C1416 H1403 0.961 . S
C1416 H1404 0.959 . S
C1416 C1414 1.561 . S
C1417 C1414 1.526 . S
C1417 C1418 1.396 . S
C1417 C1422 1.390 . S
C1418 C1412 1.465 . S
C1418 C1417 1.396 . S
C1418 C1419 1.399 . S
C1419 H1405 0.929 . S
C1419 C1418 1.399 . S
C1419 C1420 1.385 . S
C1420 H1406 0.918 1_545 S
C1420 C1419 1.385 . S
C1420 C1421 1.389 . S
C1421 C1420 1.389 . S
C1421 C1422 1.387 . S
C1422 H1407 0.930 . S
C1422 C1417 1.390 . S
C1422 C1421 1.387 . S
H1423 C1435 0.930 . S
H1424 C1437 0.930 . S
H1425 C1438 0.930 . S
H1426 C1442 0.959 . S
H1427 C1442 0.959 . S
H1428 C1442 0.961 . S
H1429 C1443 0.960 . S
H1430 C1443 0.961 . S
H1431 C1443 0.959 . S
H1432 C1446 0.929 . S
H1433 C1447 0.931 . S
H1434 C1449 0.930 . S
C1435 H1423 0.930 . S
C1435 C1436 1.399 . S
C1435 C1440 1.399 . S
C1436 C1435 1.399 . S
C1436 C1437 1.376 . S
C1437 H1424 0.930 . S
C1437 C1436 1.376 . S
C1437 C1438 1.388 . S
C1438 H1425 0.930 . S
C1438 C1437 1.388 . S
C1438 C1439 1.390 . S
C1439 C1438 1.390 . S
C1439 C1440 1.394 . S
C1439 C1445 1.465 . S
C1440 C1435 1.399 . S
C1440 C1439 1.394 . S
C1440 C1441 1.516 . S
C1441 C1440 1.516 . S
C1441 C1442 1.502 . S
C1441 C1443 1.561 . S
C1441 C1444 1.526 . S
C1442 H1426 0.959 . S
C1442 H1427 0.959 . S
C1442 H1428 0.961 . S
C1442 C1441 1.502 . S
C1443 H1429 0.960 . S
C1443 H1430 0.961 . S
C1443 H1431 0.959 . S
C1443 C1441 1.561 . S
C1444 C1441 1.526 . S
C1444 C1445 1.396 . S
C1444 C1449 1.390 . S
C1445 C1439 1.465 . S
C1445 C1444 1.396 . S
C1445 C1446 1.399 . S
C1446 H1432 0.929 . S
C1446 C1445 1.399 . S
C1446 C1447 1.385 . S
C1447 H1433 0.931 . S
C1447 C1446 1.385 . S
C1447 C1448 1.389 . S
C1448 C1447 1.389 . S
C1448 C1449 1.387 . S
C1449 H1434 0.930 . S
C1449 C1444 1.390 . S
C1449 C1448 1.387 . S
H1450 C1462 0.930 . S
H1451 C1464 0.930 . S
H1452 C1465 0.930 . S
H1453 C1469 0.959 . S
H1454 C1469 0.959 . S
H1455 C1469 0.961 . S
H1456 C1470 0.960 . S
H1457 C1470 0.961 . S
H1458 C1470 0.959 . S
H1459 C1473 0.929 . S
H1460 C1474 0.931 . S
H1461 C1476 0.930 . S
C1462 H1450 0.930 . S
C1462 C1463 1.399 . S
C1462 C1467 1.399 . S
C1463 C1462 1.399 . S
C1463 C1464 1.376 . S
C1464 H1451 0.930 . S
C1464 C1463 1.376 . S
C1464 C1465 1.388 . S
C1465 H1452 0.930 . S
C1465 C1464 1.388 . S
C1465 C1466 1.390 . S
C1466 C1465 1.390 . S
C1466 C1467 1.394 . S
C1466 C1472 1.465 . S
C1467 C1462 1.399 . S
C1467 C1466 1.394 . S
C1467 C1468 1.516 . S
C1468 C1467 1.516 . S
C1468 C1469 1.502 . S
C1468 C1470 1.561 . S
C1468 C1471 1.526 . S
C1469 H1453 0.959 . S
C1469 H1454 0.959 . S
C1469 H1455 0.961 . S
C1469 C1468 1.502 . S
C1470 H1456 0.960 . S
C1470 H1457 0.961 . S
C1470 H1458 0.959 . S
C1470 C1468 1.561 . S
C1471 C1468 1.526 . S
C1471 C1472 1.396 . S
C1471 C1476 1.390 . S
C1472 C1466 1.465 . S
C1472 C1471 1.396 . S
C1472 C1473 1.399 . S
C1473 H1459 0.929 . S
C1473 C1472 1.399 . S
C1473 C1474 1.385 . S
C1474 H1460 0.931 . S
C1474 C1473 1.385 . S
C1474 C1475 1.389 . S
C1475 C1474 1.389 . S
C1475 C1476 1.387 . S
C1476 H1461 0.930 . S
C1476 C1471 1.390 . S
C1476 C1475 1.387 . S
H1477 C1489 0.930 . S
H1478 C1491 0.930 . S
H1479 C1492 0.930 . S
H1480 C1496 0.959 . S
H1481 C1496 0.959 . S
H1482 C1496 0.961 . S
H1483 C1497 0.960 1_545 S
H1484 C1497 0.961 . S
H1485 C1497 0.959 . S
H1486 C1500 0.929 . S
H1487 C1501 0.931 . S
H1488 C1503 0.930 . S
C1489 H1477 0.930 . S
C1489 C1490 1.399 . S
C1489 C1494 1.399 . S
C1490 C1489 1.399 . S
C1490 C1491 1.376 . S
C1491 H1478 0.930 . S
C1491 C1490 1.376 . S
C1491 C1492 1.388 . S
C1492 H1479 0.930 . S
C1492 C1491 1.388 . S
C1492 C1493 1.390 . S
C1493 C1492 1.390 . S
C1493 C1494 1.394 . S
C1493 C1499 1.465 . S
C1494 C1489 1.399 . S
C1494 C1493 1.394 . S
C1494 C1495 1.516 . S
C1495 C1494 1.516 . S
C1495 C1496 1.502 . S
C1495 C1497 1.561 . S
C1495 C1498 1.526 . S
C1496 H1480 0.959 . S
C1496 H1481 0.959 . S
C1496 H1482 0.961 . S
C1496 C1495 1.502 . S
C1497 H1483 0.960 1_565 S
C1497 H1484 0.961 . S
C1497 H1485 0.959 . S
C1497 C1495 1.561 . S
C1498 C1495 1.526 . S
C1498 C1499 1.396 . S
C1498 C1503 1.390 . S
C1499 C1493 1.465 . S
C1499 C1498 1.396 . S
C1499 C1500 1.399 . S
C1500 H1486 0.929 . S
C1500 C1499 1.399 . S
C1500 C1501 1.385 . S
C1501 H1487 0.931 . S
C1501 C1500 1.385 . S
C1501 C1502 1.389 . S
C1502 C1501 1.389 . S
C1502 C1503 1.387 . S
C1503 H1488 0.930 . S
C1503 C1498 1.390 . S
C1503 C1502 1.387 . S
H1504 C1516 0.930 1_554 S
H1505 C1518 0.930 . S
H1506 C1519 0.930 . S
H1507 C1523 0.959 . S
H1508 C1523 0.959 . S
H1509 C1523 0.961 . S
H1510 C1524 0.960 . S
H1511 C1524 0.961 . S
H1512 C1524 0.959 . S
H1513 C1527 0.929 . S
H1514 C1528 0.931 . S
H1515 C1530 0.930 . S
C1516 H1504 0.930 1_556 S
C1516 C1517 1.399 1_556 S
C1516 C1521 1.399 . S
C1517 C1516 1.399 1_554 S
C1517 C1518 1.376 1_554 S
C1518 H1505 0.930 . S
C1518 C1517 1.376 1_556 S
C1518 C1519 1.388 . S
C1519 H1506 0.930 . S
C1519 C1518 1.388 . S
C1519 C1520 1.390 . S
C1520 C1519 1.390 . S
C1520 C1521 1.394 . S
C1520 C1526 1.465 . S
C1521 C1516 1.399 . S
C1521 C1520 1.394 . S
C1521 C1522 1.516 . S
C1522 C1521 1.516 . S
C1522 C1523 1.502 . S
C1522 C1524 1.561 . S
C1522 C1525 1.526 . S
C1523 H1507 0.959 . S
C1523 H1508 0.959 . S
C1523 H1509 0.961 . S
C1523 C1522 1.502 . S
C1524 H1510 0.960 . S
C1524 H1511 0.961 . S
C1524 H1512 0.959 . S
C1524 C1522 1.561 . S
C1525 C1522 1.526 . S
C1525 C1526 1.396 . S
C1525 C1530 1.390 . S
C1526 C1520 1.465 . S
C1526 C1525 1.396 . S
C1526 C1527 1.399 . S
C1527 H1513 0.929 . S
C1527 C1526 1.399 . S
C1527 C1528 1.385 . S
C1528 H1514 0.931 . S
C1528 C1527 1.385 . S
C1528 C1529 1.389 . S
C1529 C1528 1.389 . S
C1529 C1530 1.387 . S
C1530 H1515 0.930 . S
C1530 C1525 1.390 . S
C1530 C1529 1.387 . S
H1531 C1543 0.930 . S
H1532 C1545 0.930 . S
H1533 C1546 0.930 . S
H1534 C1550 0.959 . S
H1535 C1550 0.959 . S
H1536 C1550 0.961 . S
H1537 C1551 0.960 . S
H1538 C1551 0.961 . S
H1539 C1551 0.959 . S
H1540 C1554 0.929 . S
H1541 C1555 0.931 . S
H1542 C1557 0.930 . S
C1543 H1531 0.930 . S
C1543 C1544 1.399 . S
C1543 C1548 1.399 . S
C1544 C1543 1.399 . S
C1544 C1545 1.376 . S
C1545 H1532 0.930 . S
C1545 C1544 1.376 . S
C1545 C1546 1.388 . S
C1546 H1533 0.930 . S
C1546 C1545 1.388 . S
C1546 C1547 1.390 . S
C1547 C1546 1.390 . S
C1547 C1548 1.394 . S
C1547 C1553 1.465 . S
C1548 C1543 1.399 . S
C1548 C1547 1.394 . S
C1548 C1549 1.516 . S
C1549 C1548 1.516 . S
C1549 C1550 1.502 . S
C1549 C1551 1.561 . S
C1549 C1552 1.526 . S
C1550 H1534 0.959 . S
C1550 H1535 0.959 . S
C1550 H1536 0.961 . S
C1550 C1549 1.502 . S
C1551 H1537 0.960 . S
C1551 H1538 0.961 . S
C1551 H1539 0.959 . S
C1551 C1549 1.561 . S
C1552 C1549 1.526 . S
C1552 C1553 1.396 . S
C1552 C1557 1.390 . S
C1553 C1547 1.465 . S
C1553 C1552 1.396 . S
C1553 C1554 1.399 . S
C1554 H1540 0.929 . S
C1554 C1553 1.399 . S
C1554 C1555 1.385 . S
C1555 H1541 0.931 . S
C1555 C1554 1.385 . S
C1555 C1556 1.389 . S
C1556 C1555 1.389 . S
C1556 C1557 1.387 . S
C1557 H1542 0.930 . S
C1557 C1552 1.390 . S
C1557 C1556 1.387 . S
H1558 C1570 0.930 . S
H1559 C1572 0.930 . S
H1560 C1573 0.930 . S
H1561 C1577 0.959 . S
H1562 C1577 0.959 . S
H1563 C1577 0.961 . S
H1564 C1578 0.960 . S
H1565 C1578 0.961 . S
H1566 C1578 0.959 . S
H1567 C1581 0.929 . S
H1568 C1582 0.931 . S
H1569 C1584 0.930 . S
C1570 H1558 0.930 . S
C1570 C1571 1.399 . S
C1570 C1575 1.399 . S
C1571 C1570 1.399 . S
C1571 C1572 1.376 . S
C1572 H1559 0.930 . S
C1572 C1571 1.376 . S
C1572 C1573 1.388 . S
C1573 H1560 0.930 . S
C1573 C1572 1.388 . S
C1573 C1574 1.390 . S
C1574 C1573 1.390 . S
C1574 C1575 1.394 . S
C1574 C1580 1.465 . S
C1575 C1570 1.399 . S
C1575 C1574 1.394 . S
C1575 C1576 1.516 . S
C1576 C1575 1.516 . S
C1576 C1577 1.502 . S
C1576 C1578 1.561 . S
C1576 C1579 1.526 . S
C1577 H1561 0.959 . S
C1577 H1562 0.959 . S
C1577 H1563 0.961 . S
C1577 C1576 1.502 . S
C1578 H1564 0.960 . S
C1578 H1565 0.961 . S
C1578 H1566 0.959 . S
C1578 C1576 1.561 . S
C1579 C1576 1.526 . S
C1579 C1580 1.396 . S
C1579 C1584 1.390 . S
C1580 C1574 1.465 . S
C1580 C1579 1.396 . S
C1580 C1581 1.399 . S
C1581 H1567 0.929 . S
C1581 C1580 1.399 . S
C1581 C1582 1.385 . S
C1582 H1568 0.931 . S
C1582 C1581 1.385 . S
C1582 C1583 1.389 . S
C1583 C1582 1.389 . S
C1583 C1584 1.387 . S
C1584 H1569 0.930 . S
C1584 C1579 1.390 . S
C1584 C1583 1.387 . S
H1585 C1597 0.930 . S
H1586 C1599 0.930 . S
H1587 C1600 0.930 . S
H1588 C1604 0.959 . S
H1589 C1604 0.959 . S
H1590 C1604 0.961 . S
H1591 C1605 0.960 . S
H1592 C1605 0.961 . S
H1593 C1605 0.959 . S
H1594 C1608 0.929 . S
H1595 C1609 0.931 . S
H1596 C1611 0.930 . S
C1597 H1585 0.930 . S
C1597 C1598 1.399 . S
C1597 C1602 1.399 . S
C1598 C1597 1.399 . S
C1598 C1599 1.376 . S
C1599 H1586 0.930 . S
C1599 C1598 1.376 . S
C1599 C1600 1.388 . S
C1600 H1587 0.930 . S
C1600 C1599 1.388 . S
C1600 C1601 1.390 . S
C1601 C1600 1.390 . S
C1601 C1602 1.394 . S
C1601 C1607 1.465 . S
C1602 C1597 1.399 . S
C1602 C1601 1.394 . S
C1602 C1603 1.516 . S
C1603 C1602 1.516 . S
C1603 C1604 1.502 . S
C1603 C1605 1.561 . S
C1603 C1606 1.526 . S
C1604 H1588 0.959 . S
C1604 H1589 0.959 . S
C1604 H1590 0.961 . S
C1604 C1603 1.502 . S
C1605 H1591 0.960 . S
C1605 H1592 0.961 . S
C1605 H1593 0.959 . S
C1605 C1603 1.561 . S
C1606 C1603 1.526 . S
C1606 C1607 1.396 . S
C1606 C1611 1.390 . S
C1607 C1601 1.465 . S
C1607 C1606 1.396 . S
C1607 C1608 1.399 . S
C1608 H1594 0.929 . S
C1608 C1607 1.399 . S
C1608 C1609 1.385 . S
C1609 H1595 0.931 . S
C1609 C1608 1.385 . S
C1609 C1610 1.389 . S
C1610 C1609 1.389 . S
C1610 C1611 1.387 . S
C1611 H1596 0.930 . S
C1611 C1606 1.390 . S
C1611 C1610 1.387 . S
H1612 C1624 0.930 . S
H1613 C1626 0.930 . S
H1614 C1627 0.930 . S
H1615 C1631 0.959 . S
H1616 C1631 1.011 . S
H1617 C1631 0.961 . S
H1618 C1632 0.960 . S
H1619 C1632 0.961 . S
H1620 C1632 0.959 . S
H1621 C1635 0.929 . S
H1622 C1636 0.931 . S
H1623 C1638 0.962 . S
C1624 H1612 0.930 . S
C1624 C1625 1.399 . S
C1624 C1629 1.399 . S
C1625 C1624 1.399 . S
C1625 C1626 1.376 . S
C1626 H1613 0.930 . S
C1626 C1625 1.376 . S
C1626 C1627 1.388 . S
C1627 H1614 0.930 . S
C1627 C1626 1.388 . S
C1627 C1628 1.390 . S
C1628 C1627 1.390 . S
C1628 C1629 1.394 . S
C1628 C1634 1.465 . S
C1629 C1624 1.399 . S
C1629 C1628 1.394 . S
C1629 C1630 1.516 . S
C1630 C1629 1.516 . S
C1630 C1631 1.502 . S
C1630 C1632 1.561 . S
C1630 C1633 1.526 . S
C1631 H1615 0.959 . S
C1631 H1616 1.011 . S
C1631 H1617 0.961 . S
C1631 C1630 1.502 . S
C1632 H1618 0.960 . S
C1632 H1619 0.961 . S
C1632 H1620 0.959 . S
C1632 C1630 1.561 . S
C1633 C1630 1.526 . S
C1633 C1634 1.396 . S
C1633 C1638 1.346 1_554 S
C1634 C1628 1.465 . S
C1634 C1633 1.396 . S
C1634 C1635 1.399 . S
C1635 H1621 0.929 . S
C1635 C1634 1.399 . S
C1635 C1636 1.385 . S
C1636 H1622 0.931 . S
C1636 C1635 1.385 . S
C1636 C1637 1.389 1_554 S
C1637 C1636 1.389 1_556 S
C1637 C1638 1.400 . S
C1638 H1623 0.962 . S
C1638 C1633 1.346 1_556 S
C1638 C1637 1.400 . S
H1639 C1651 0.930 . S
H1640 C1653 0.930 . S
H1641 C1654 0.930 . S
H1642 C1658 0.959 . S
H1643 C1658 0.959 . S
H1644 C1658 0.961 . S
H1645 C1659 0.960 . S
H1646 C1659 0.961 . S
H1647 C1659 0.959 . S
H1648 C1662 0.929 . S
H1649 C1663 0.931 . S
H1650 C1665 0.930 . S
C1651 H1639 0.930 . S
C1651 C1652 1.399 . S
C1651 C1656 1.399 . S
C1652 C1651 1.399 . S
C1652 C1653 1.376 . S
C1653 H1640 0.930 . S
C1653 C1652 1.376 . S
C1653 C1654 1.388 . S
C1654 H1641 0.930 . S
C1654 C1653 1.388 . S
C1654 C1655 1.390 . S
C1655 C1654 1.390 . S
C1655 C1656 1.394 . S
C1655 C1661 1.465 . S
C1656 C1651 1.399 . S
C1656 C1655 1.394 . S
C1656 C1657 1.516 . S
C1657 C1656 1.516 . S
C1657 C1658 1.502 . S
C1657 C1659 1.561 . S
C1657 C1660 1.526 . S
C1658 H1642 0.959 . S
C1658 H1643 0.959 . S
C1658 H1644 0.961 . S
C1658 C1657 1.502 . S
C1659 H1645 0.960 . S
C1659 H1646 0.961 . S
C1659 H1647 0.959 . S
C1659 C1657 1.561 . S
C1660 C1657 1.526 . S
C1660 C1661 1.396 . S
C1660 C1665 1.390 . S
C1661 C1655 1.465 . S
C1661 C1660 1.396 . S
C1661 C1662 1.399 . S
C1662 H1648 0.929 . S
C1662 C1661 1.399 . S
C1662 C1663 1.385 . S
C1663 H1649 0.931 . S
C1663 C1662 1.385 . S
C1663 C1664 1.389 . S
C1664 C1663 1.389 . S
C1664 C1665 1.387 . S
C1665 H1650 0.930 . S
C1665 C1660 1.390 . S
C1665 C1664 1.387 . S
H1666 C1678 0.930 . S
H1667 C1680 0.930 . S
H1668 C1681 0.930 . S
H1669 C1685 0.959 . S
H1670 C1685 0.959 . S
H1671 C1685 0.961 . S
H1672 C1686 0.960 . S
H1673 C1686 0.961 . S
H1674 C1686 0.959 . S
H1675 C1689 0.929 . S
H1676 C1690 0.931 . S
H1677 C1692 0.930 . S
C1678 H1666 0.930 . S
C1678 C1679 1.399 . S
C1678 C1683 1.399 . S
C1679 C1678 1.399 . S
C1679 C1680 1.376 . S
C1680 H1667 0.930 . S
C1680 C1679 1.376 . S
C1680 C1681 1.388 . S
C1681 H1668 0.930 . S
C1681 C1680 1.388 . S
C1681 C1682 1.390 . S
C1682 C1681 1.390 . S
C1682 C1683 1.394 . S
C1682 C1688 1.465 . S
C1683 C1678 1.399 . S
C1683 C1682 1.394 . S
C1683 C1684 1.516 . S
C1684 C1683 1.516 . S
C1684 C1685 1.502 . S
C1684 C1686 1.561 . S
C1684 C1687 1.526 . S
C1685 H1669 0.959 . S
C1685 H1670 0.959 . S
C1685 H1671 0.961 . S
C1685 C1684 1.502 . S
C1686 H1672 0.960 . S
C1686 H1673 0.961 . S
C1686 H1674 0.959 . S
C1686 C1684 1.561 . S
C1687 C1684 1.526 . S
C1687 C1688 1.396 . S
C1687 C1692 1.390 . S
C1688 C1682 1.465 . S
C1688 C1687 1.396 . S
C1688 C1689 1.399 . S
C1689 H1675 0.929 . S
C1689 C1688 1.399 . S
C1689 C1690 1.385 . S
C1690 H1676 0.931 . S
C1690 C1689 1.385 . S
C1690 C1691 1.389 . S
C1691 C1690 1.389 . S
C1691 C1692 1.387 . S
C1692 H1677 0.930 . S
C1692 C1687 1.390 . S
C1692 C1691 1.387 . S
H1693 C1705 0.930 . S
H1694 C1707 0.930 . S
H1695 C1708 0.930 . S
H1696 C1712 0.959 . S
H1697 C1712 0.959 . S
H1698 C1712 0.961 . S
H1699 C1713 0.960 . S
H1700 C1713 0.961 . S
H1701 C1713 0.959 . S
H1702 C1716 0.929 . S
H1703 C1717 0.931 . S
H1704 C1719 0.930 . S
C1705 H1693 0.930 . S
C1705 C1706 1.399 . S
C1705 C1710 1.399 . S
C1706 C1705 1.399 . S
C1706 C1707 1.376 . S
C1707 H1694 0.930 . S
C1707 C1706 1.376 . S
C1707 C1708 1.388 . S
C1708 H1695 0.930 . S
C1708 C1707 1.388 . S
C1708 C1709 1.390 . S
C1709 C1708 1.390 . S
C1709 C1710 1.394 . S
C1709 C1715 1.465 . S
C1710 C1705 1.399 . S
C1710 C1709 1.394 . S
C1710 C1711 1.516 . S
C1711 C1710 1.516 . S
C1711 C1712 1.502 . S
C1711 C1713 1.561 . S
C1711 C1714 1.526 . S
C1712 H1696 0.959 . S
C1712 H1697 0.959 . S
C1712 H1698 0.961 . S
C1712 C1711 1.502 . S
C1713 H1699 0.960 . S
C1713 H1700 0.961 . S
C1713 H1701 0.959 . S
C1713 C1711 1.561 . S
C1714 C1711 1.526 . S
C1714 C1715 1.396 . S
C1714 C1719 1.390 . S
C1715 C1709 1.465 . S
C1715 C1714 1.396 . S
C1715 C1716 1.399 . S
C1716 H1702 0.929 . S
C1716 C1715 1.399 . S
C1716 C1717 1.385 . S
C1717 H1703 0.931 . S
C1717 C1716 1.385 . S
C1717 C1718 1.389 . S
C1718 C1717 1.389 . S
C1718 C1719 1.387 . S
C1719 H1704 0.930 . S
C1719 C1714 1.390 . S
C1719 C1718 1.387 . S
H1720 C1732 0.930 . S
H1721 C1734 0.930 . S
H1722 C1735 0.930 . S
H1723 C1739 0.959 . S
H1724 C1739 0.959 . S
H1725 C1739 0.961 . S
H1726 C1740 0.960 . S
H1727 C1740 0.961 . S
H1728 C1740 0.959 . S
H1729 C1743 0.929 . S
H1730 C1744 0.931 . S
H1731 C1746 0.930 . S
C1732 H1720 0.930 . S
C1732 C1733 1.399 . S
C1732 C1737 1.399 . S
C1733 C1732 1.399 . S
C1733 C1734 1.376 . S
C1734 H1721 0.930 . S
C1734 C1733 1.376 . S
C1734 C1735 1.388 . S
C1735 H1722 0.930 . S
C1735 C1734 1.388 . S
C1735 C1736 1.390 . S
C1736 C1735 1.390 . S
C1736 C1737 1.394 . S
C1736 C1742 1.465 . S
C1737 C1732 1.399 . S
C1737 C1736 1.394 . S
C1737 C1738 1.516 . S
C1738 C1737 1.516 . S
C1738 C1739 1.502 . S
C1738 C1740 1.561 . S
C1738 C1741 1.526 . S
C1739 H1723 0.959 . S
C1739 H1724 0.959 . S
C1739 H1725 0.961 . S
C1739 C1738 1.502 . S
C1740 H1726 0.960 . S
C1740 H1727 0.961 . S
C1740 H1728 0.959 . S
C1740 C1738 1.561 . S
C1741 C1738 1.526 . S
C1741 C1742 1.396 . S
C1741 C1746 1.390 . S
C1742 C1736 1.465 . S
C1742 C1741 1.396 . S
C1742 C1743 1.399 . S
C1743 H1729 0.929 . S
C1743 C1742 1.399 . S
C1743 C1744 1.385 . S
C1744 H1730 0.931 . S
C1744 C1743 1.385 . S
C1744 C1745 1.389 . S
C1745 C1744 1.389 . S
C1745 C1746 1.387 . S
C1746 H1731 0.930 . S
C1746 C1741 1.390 . S
C1746 C1745 1.387 . S
H1747 C1759 0.930 . S
H1748 C1761 0.930 . S
H1749 C1762 0.930 . S
H1750 C1766 0.959 . S
H1751 C1766 0.959 . S
H1752 C1766 0.961 . S
H1753 C1767 0.960 . S
H1754 C1767 0.961 . S
H1755 C1767 0.959 . S
H1756 C1770 0.929 . S
H1757 C1771 0.931 . S
H1758 C1773 0.930 . S
C1759 H1747 0.930 . S
C1759 C1760 1.399 . S
C1759 C1764 1.399 . S
C1760 C1759 1.399 . S
C1760 C1761 1.376 . S
C1761 H1748 0.930 . S
C1761 C1760 1.376 . S
C1761 C1762 1.388 . S
C1762 H1749 0.930 . S
C1762 C1761 1.388 . S
C1762 C1763 1.390 . S
C1763 C1762 1.390 . S
C1763 C1764 1.394 . S
C1763 C1769 1.465 . S
C1764 C1759 1.399 . S
C1764 C1763 1.394 . S
C1764 C1765 1.516 . S
C1765 C1764 1.516 . S
C1765 C1766 1.502 . S
C1765 C1767 1.561 . S
C1765 C1768 1.526 . S
C1766 H1750 0.959 . S
C1766 H1751 0.959 . S
C1766 H1752 0.961 . S
C1766 C1765 1.502 . S
C1767 H1753 0.960 . S
C1767 H1754 0.961 . S
C1767 H1755 0.959 . S
C1767 C1765 1.561 . S
C1768 C1765 1.526 . S
C1768 C1769 1.396 . S
C1768 C1773 1.390 . S
C1769 C1763 1.465 . S
C1769 C1768 1.396 . S
C1769 C1770 1.399 1_565 S
C1770 H1756 0.929 . S
C1770 C1769 1.399 1_545 S
C1770 C1771 1.385 . S
C1771 H1757 0.931 . S
C1771 C1770 1.385 . S
C1771 C1772 1.389 . S
C1772 C1771 1.389 . S
C1772 C1773 1.387 1_545 S
C1773 H1758 0.930 . S
C1773 C1768 1.390 . S
C1773 C1772 1.387 1_565 S
H1774 C1786 0.930 . S
H1775 C1788 0.930 . S
H1776 C1789 0.930 . S
H1777 C1793 0.959 . S
H1778 C1793 0.959 . S
H1779 C1793 0.961 . S
H1780 C1794 0.960 . S
H1781 C1794 0.961 . S
H1782 C1794 0.959 . S
H1783 C1797 0.930 . S
H1784 C1798 0.931 . S
H1785 C1800 0.930 . S
C1786 H1774 0.930 . S
C1786 C1787 1.399 . S
C1786 C1791 1.399 . S
C1787 C1786 1.399 . S
C1787 C1788 1.376 . S
C1788 H1775 0.930 . S
C1788 C1787 1.376 . S
C1788 C1789 1.388 . S
C1789 H1776 0.930 . S
C1789 C1788 1.388 . S
C1789 C1790 1.390 . S
C1790 C1789 1.390 . S
C1790 C1791 1.394 . S
C1790 C1796 1.465 . S
C1791 C1786 1.399 . S
C1791 C1790 1.394 . S
C1791 C1792 1.516 . S
C1792 C1791 1.516 . S
C1792 C1793 1.502 . S
C1792 C1794 1.561 . S
C1792 C1795 1.526 . S
C1793 H1777 0.959 . S
C1793 H1778 0.959 . S
C1793 H1779 0.961 . S
C1793 C1792 1.502 . S
C1794 H1780 0.960 . S
C1794 H1781 0.961 . S
C1794 H1782 0.959 . S
C1794 C1792 1.561 . S
C1795 C1792 1.526 . S
C1795 C1796 1.396 . S
C1795 C1800 1.390 . S
C1796 C1790 1.465 . S
C1796 C1795 1.396 . S
C1796 C1797 1.397 1_556 S
C1797 H1783 0.930 . S
C1797 C1796 1.397 1_554 S
C1797 C1798 1.386 . S
C1798 H1784 0.931 . S
C1798 C1797 1.386 . S
C1798 C1799 1.389 . S
C1799 C1798 1.389 . S
C1799 C1800 1.387 1_554 S
C1800 H1785 0.930 . S
C1800 C1795 1.390 . S
C1800 C1799 1.387 1_556 S
H1801 C1813 0.930 . S
H1802 C1815 0.930 . S
H1803 C1816 0.929 1_565 S
H1804 C1820 0.959 . S
H1805 C1820 0.959 . S
H1806 C1820 0.961 . S
H1807 C1821 0.960 . S
H1808 C1821 0.961 . S
H1809 C1821 0.959 . S
H1810 C1824 0.929 . S
H1811 C1825 0.931 . S
H1812 C1827 0.930 . S
C1813 H1801 0.930 . S
C1813 C1814 1.399 1_545 S
C1813 C1818 1.399 . S
C1814 C1813 1.399 1_565 S
C1814 C1815 1.376 . S
C1815 H1802 0.930 . S
C1815 C1814 1.376 . S
C1815 C1816 1.388 1_565 S
C1816 H1803 0.929 1_545 S
C1816 C1815 1.388 1_545 S
C1816 C1817 1.390 . S
C1817 C1816 1.390 . S
C1817 C1818 1.394 . S
C1817 C1823 1.465 . S
C1818 C1813 1.399 . S
C1818 C1817 1.394 . S
C1818 C1819 1.516 . S
C1819 C1818 1.516 . S
C1819 C1820 1.502 . S
C1819 C1821 1.561 . S
C1819 C1822 1.526 . S
C1820 H1804 0.959 . S
C1820 H1805 0.959 . S
C1820 H1806 0.961 . S
C1820 C1819 1.502 . S
C1821 H1807 0.960 . S
C1821 H1808 0.961 . S
C1821 H1809 0.959 . S
C1821 C1819 1.561 . S
C1822 C1819 1.526 . S
C1822 C1823 1.396 . S
C1822 C1827 1.390 . S
C1823 C1817 1.465 . S
C1823 C1822 1.396 . S
C1823 C1824 1.399 . S
C1824 H1810 0.929 . S
C1824 C1823 1.399 . S
C1824 C1825 1.385 . S
C1825 H1811 0.931 . S
C1825 C1824 1.385 . S
C1825 C1826 1.389 . S
C1826 C1825 1.389 . S
C1826 C1827 1.387 . S
C1827 H1812 0.930 . S
C1827 C1822 1.390 . S
C1827 C1826 1.387 . S
H1828 C1840 0.930 . S
H1829 C1842 0.930 . S
H1830 C1843 0.930 . S
H1831 C1847 0.959 . S
H1832 C1847 0.959 . S
H1833 C1847 0.961 . S
H1834 C1848 0.960 . S
H1835 C1848 0.961 . S
H1836 C1848 0.959 . S
H1837 C1851 0.929 . S
H1838 C1852 0.931 . S
H1839 C1854 0.930 . S
C1840 H1828 0.930 . S
C1840 C1841 1.399 . S
C1840 C1845 1.399 . S
C1841 C1840 1.399 . S
C1841 C1842 1.376 . S
C1842 H1829 0.930 . S
C1842 C1841 1.376 . S
C1842 C1843 1.388 . S
C1843 H1830 0.930 . S
C1843 C1842 1.388 . S
C1843 C1844 1.390 . S
C1844 C1843 1.390 . S
C1844 C1845 1.394 . S
C1844 C1850 1.465 . S
C1845 C1840 1.399 . S
C1845 C1844 1.394 . S
C1845 C1846 1.516 . S
C1846 C1845 1.516 . S
C1846 C1847 1.502 . S
C1846 C1848 1.561 . S
C1846 C1849 1.526 . S
C1847 H1831 0.959 . S
C1847 H1832 0.959 . S
C1847 H1833 0.961 . S
C1847 C1846 1.502 . S
C1848 H1834 0.960 . S
C1848 H1835 0.961 . S
C1848 H1836 0.959 . S
C1848 C1846 1.561 . S
C1849 C1846 1.526 . S
C1849 C1850 1.396 . S
C1849 C1854 1.390 . S
C1850 C1844 1.465 . S
C1850 C1849 1.396 . S
C1850 C1851 1.399 . S
C1851 H1837 0.929 . S
C1851 C1850 1.399 . S
C1851 C1852 1.385 . S
C1852 H1838 0.931 . S
C1852 C1851 1.385 . S
C1852 C1853 1.389 . S
C1853 C1852 1.389 . S
C1853 C1854 1.387 . S
C1854 H1839 0.930 . S
C1854 C1849 1.390 . S
C1854 C1853 1.387 . S
H1855 C1867 0.930 . S
H1856 C1869 0.930 . S
H1857 C1870 0.930 . S
H1858 C1874 0.959 . S
H1859 C1874 0.959 . S
H1860 C1874 0.961 . S
H1861 C1875 0.960 . S
H1862 C1875 0.961 1_565 S
H1863 C1875 0.959 1_565 S
H1864 C1878 0.929 . S
H1865 C1879 0.931 . S
H1866 C1881 0.930 . S
C1867 H1855 0.930 . S
C1867 C1868 1.399 . S
C1867 C1872 1.399 . S
C1868 C1867 1.399 . S
C1868 C1869 1.376 . S
C1869 H1856 0.930 . S
C1869 C1868 1.376 . S
C1869 C1870 1.388 . S
C1870 H1857 0.930 . S
C1870 C1869 1.388 . S
C1870 C1871 1.390 . S
C1871 C1870 1.390 . S
C1871 C1872 1.394 . S
C1871 C1877 1.465 . S
C1872 C1867 1.399 . S
C1872 C1871 1.394 . S
C1872 C1873 1.516 . S
C1873 C1872 1.516 . S
C1873 C1874 1.502 . S
C1873 C1875 1.561 . S
C1873 C1876 1.526 . S
C1874 H1858 0.959 . S
C1874 H1859 0.959 . S
C1874 H1860 0.961 . S
C1874 C1873 1.502 . S
C1875 H1861 0.960 . S
C1875 H1862 0.961 1_545 S
C1875 H1863 0.959 1_545 S
C1875 C1873 1.561 . S
C1876 C1873 1.526 . S
C1876 C1877 1.396 . S
C1876 C1881 1.390 . S
C1877 C1871 1.465 . S
C1877 C1876 1.396 . S
C1877 C1878 1.399 . S
C1878 H1864 0.929 . S
C1878 C1877 1.399 . S
C1878 C1879 1.385 . S
C1879 H1865 0.931 . S
C1879 C1878 1.385 . S
C1879 C1880 1.390 1_545 S
C1880 C1879 1.390 1_565 S
C1880 C1881 1.387 1_565 S
C1881 H1866 0.930 . S
C1881 C1876 1.390 . S
C1881 C1880 1.387 1_545 S
H1882 C1894 0.930 . S
H1883 C1896 0.930 . S
H1884 C1897 0.930 . S
H1885 C1901 0.959 . S
H1886 C1901 0.959 . S
H1887 C1901 0.961 . S
H1888 C1902 0.960 . S
H1889 C1902 0.961 . S
H1890 C1902 0.959 . S
H1891 C1905 0.929 . S
H1892 C1906 0.916 1_556 S
H1893 C1908 0.930 1_556 S
C1894 H1882 0.930 . S
C1894 C1895 1.399 . S
C1894 C1899 1.399 . S
C1895 C1894 1.399 . S
C1895 C1896 1.376 . S
C1896 H1883 0.930 . S
C1896 C1895 1.376 . S
C1896 C1897 1.388 . S
C1897 H1884 0.930 . S
C1897 C1896 1.388 . S
C1897 C1898 1.390 . S
C1898 C1897 1.390 . S
C1898 C1899 1.394 . S
C1898 C1904 1.465 . S
C1899 C1894 1.399 . S
C1899 C1898 1.394 . S
C1899 C1900 1.516 . S
C1900 C1899 1.516 . S
C1900 C1901 1.502 . S
C1900 C1902 1.561 . S
C1900 C1903 1.526 . S
C1901 H1885 0.959 . S
C1901 H1886 0.959 . S
C1901 H1887 0.961 . S
C1901 C1900 1.502 . S
C1902 H1888 0.960 . S
C1902 H1889 0.961 . S
C1902 H1890 0.959 . S
C1902 C1900 1.561 . S
C1903 C1900 1.526 . S
C1903 C1904 1.396 . S
C1903 C1908 1.390 . S
C1904 C1898 1.465 . S
C1904 C1903 1.396 . S
C1904 C1905 1.399 . S
C1905 H1891 0.929 . S
C1905 C1904 1.399 . S
C1905 C1906 1.410 . S
C1906 H1892 0.916 1_554 S
C1906 C1905 1.410 . S
C1906 C1907 1.379 1_554 S
C1907 C1906 1.379 1_556 S
C1907 C1908 1.387 1_556 S
C1908 H1893 0.930 1_554 S
C1908 C1903 1.390 . S
C1908 C1907 1.387 1_554 S
H1909 C1921 0.930 . S
H1910 C1923 0.930 . S
H1911 C1924 0.930 . S
H1912 C1928 0.959 . S
H1913 C1928 0.959 . S
H1914 C1928 0.961 . S
H1915 C1929 0.960 . S
H1916 C1929 0.961 . S
H1917 C1929 0.959 . S
H1918 C1932 0.929 . S
H1919 C1933 0.931 . S
H1920 C1935 0.930 . S
C1921 H1909 0.930 . S
C1921 C1922 1.399 . S
C1921 C1926 1.399 . S
C1922 C1921 1.399 . S
C1922 C1923 1.376 . S
C1923 H1910 0.930 . S
C1923 C1922 1.376 . S
C1923 C1924 1.388 . S
C1924 H1911 0.930 . S
C1924 C1923 1.388 . S
C1924 C1925 1.390 . S
C1925 C1924 1.390 . S
C1925 C1926 1.394 . S
C1925 C1931 1.465 . S
C1926 C1921 1.399 . S
C1926 C1925 1.394 . S
C1926 C1927 1.516 . S
C1927 C1926 1.516 . S
C1927 C1928 1.502 . S
C1927 C1929 1.561 . S
C1927 C1930 1.526 . S
C1928 H1912 0.959 . S
C1928 H1913 0.959 . S
C1928 H1914 0.961 . S
C1928 C1927 1.502 . S
C1929 H1915 0.960 . S
C1929 H1916 0.961 . S
C1929 H1917 0.959 . S
C1929 C1927 1.561 . S
C1930 C1927 1.526 . S
C1930 C1931 1.396 . S
C1930 C1935 1.390 . S
C1931 C1925 1.465 . S
C1931 C1930 1.396 . S
C1931 C1932 1.399 1_565 S
C1932 H1918 0.929 . S
C1932 C1931 1.399 1_545 S
C1932 C1933 1.385 . S
C1933 H1919 0.931 . S
C1933 C1932 1.385 . S
C1933 C1934 1.389 . S
C1934 C1933 1.389 . S
C1934 C1935 1.387 1_545 S
C1935 H1920 0.930 . S
C1935 C1930 1.390 . S
C1935 C1934 1.387 1_565 S
C653 C9 2.623 . S
C665 C409 2.602 . S
C680 C49 2.602 . S
C692 C449 2.623 . S
C707 C89 2.601 . S
C719 C329 2.625 . S
C734 C369 2.603 . S
C746 C129 2.619 . S
C761 C178 2.610 . S
C773 C578 2.635 . S
C788 C618 2.612 . S
C800 C218 2.634 . S
C815 C498 2.615 . S
C827 C258 2.631 . S
C842 C298 2.628 . S
C854 C538 2.605 . S
C869 C15 0.955 . S
C881 C166 0.985 . S
C896 C55 1.080 . S
C908 C526 0.885 . S
C923 C95 0.882 . S
C935 C246 1.069 . S
C950 C135 1.080 . S
C962 C606 0.888 . S
C977 C206 1.034 . S
C989 C375 0.965 . S
C1004 C455 1.079 . S
C1016 C286 0.896 . S
C1031 C486 0.897 . S
C1043 C335 1.076 . S
C1058 C415 0.972 . S
C1070 C566 1.026 . S
C1085 C6 1.166 . S
C1097 C289 1.172 . S
C1112 C46 1.044 . S
C1124 C489 1.197 . S
C1139 C86 1.004 . S
C1151 C209 1.233 . S
C1166 C126 1.102 . S
C1178 C569 1.168 . S
C1193 C138 1.207 . S
C1205 C175 1.007 . S
C1220 C215 1.134 . S
C1232 C338 1.152 . S
C1247 C255 1.157 . S
C1259 C58 1.158 . S
C1274 C418 1.206 . S
C1286 C295 1.154 . S
C1301 C326 1.161 . S
C1313 C609 1.176 1_565 S
C1328 C169 1.211 . S
C1340 C366 1.105 . S
C1355 C529 1.154 1_545 S
C1367 C406 1.143 . S
C1382 C249 1.233 . S
C1394 C446 1.046 . S
C1409 C495 1.130 . S
C1421 C458 1.152 1_545 S
C1436 C535 1.015 . S
C1448 C18 1.228 . S
C1463 C378 1.183 1_565 S
C1475 C575 1.171 . S
C1490 C615 1.172 . S
C1502 C98 1.174 . S
C1517 C19 4.050 . S
C1529 C370 4.068 . S
C1544 C410 4.077 . S
C1556 C59 4.043 . S
C1571 C99 4.025 . S
C1583 C450 4.075 . S
C1598 C330 4.086 . S
C1610 C139 4.017 . S
C1625 C539 4.061 . S
C1637 C170 4.049 . S
C1652 C579 4.069 . S
C1664 C210 4.042 . S
C1679 C619 4.079 . S
C1691 C250 4.031 . S
C1706 C499 4.091 . S
C1718 C290 4.018 . S
C1733 C50 4.058 . S
C1745 C339 4.048 . S
C1760 C90 4.068 . S
C1772 C379 4.050 . S
C1787 C130 4.085 . S
C1799 C419 4.018 . S
C1814 C459 4.044 . S
C1826 C10 4.076 . S
C1841 C219 4.067 . S
C1853 C490 4.042 . S
C1868 C259 4.081 . S
C1880 C530 4.027 . S
C1895 C299 4.069 . S
C1907 C570 4.040 . S
C1922 C179 4.058 . S
C1934 C610 4.054 . S
