# Generated by pormake.
# Topology vab, (3)-cn, num edge types: 1
# Building blocks:
#     Node 0, Type 0, BuildingBlock: OLANEW_clean_sbu_2, # of connection points: 3
#     Node 1, Type 0, BuildingBlock: OLANEW_clean_sbu_2, # of connection points: 3
#     Node 2, Type 0, BuildingBlock: OLANEW_clean_sbu_2, # of connection points: 3
#     Node 3, Type 0, BuildingBlock: OLANEW_clean_sbu_2, # of connection points: 3
#     Node 4, Type 0, BuildingBlock: OLANEW_clean_sbu_2, # of connection points: 3
#     Node 5, Type 0, BuildingBlock: OLANEW_clean_sbu_2, # of connection points: 3
#     Node 6, Type 0, BuildingBlock: OLANEW_clean_sbu_2, # of connection points: 3
#     Node 7, Type 0, BuildingBlock: OLANEW_clean_sbu_2, # of connection points: 3
#     Node 8, Type 0, BuildingBlock: OLANEW_clean_sbu_2, # of connection points: 3
#     Node 9, Type 0, BuildingBlock: OLANEW_clean_sbu_2, # of connection points: 3
#     Node 10, Type 0, BuildingBlock: OLANEW_clean_sbu_2, # of connection points: 3
#     Node 11, Type 0, BuildingBlock: OLANEW_clean_sbu_2, # of connection points: 3
#     Node 12, Type 0, BuildingBlock: OLANEW_clean_sbu_2, # of connection points: 3
#     Node 13, Type 0, BuildingBlock: OLANEW_clean_sbu_2, # of connection points: 3
#     Node 14, Type 0, BuildingBlock: OLANEW_clean_sbu_2, # of connection points: 3
#     Node 15, Type 0, BuildingBlock: OLANEW_clean_sbu_2, # of connection points: 3
#     Node 16, Type 0, BuildingBlock: OLANEW_clean_sbu_2, # of connection points: 3
#     Node 17, Type 0, BuildingBlock: OLANEW_clean_sbu_2, # of connection points: 3
#     Node 18, Type 0, BuildingBlock: OLANEW_clean_sbu_2, # of connection points: 3
#     Node 19, Type 0, BuildingBlock: OLANEW_clean_sbu_2, # of connection points: 3
#     Node 20, Type 0, BuildingBlock: OLANEW_clean_sbu_2, # of connection points: 3
#     Node 21, Type 0, BuildingBlock: OLANEW_clean_sbu_2, # of connection points: 3
#     Node 22, Type 0, BuildingBlock: OLANEW_clean_sbu_2, # of connection points: 3
#     Node 23, Type 0, BuildingBlock: OLANEW_clean_sbu_2, # of connection points: 3
#     Node 24, Type 0, BuildingBlock: OLANEW_clean_sbu_2, # of connection points: 3
#     Node 25, Type 0, BuildingBlock: OLANEW_clean_sbu_2, # of connection points: 3
#     Node 26, Type 0, BuildingBlock: OLANEW_clean_sbu_2, # of connection points: 3
#     Node 27, Type 0, BuildingBlock: OLANEW_clean_sbu_2, # of connection points: 3
#     Node 28, Type 0, BuildingBlock: OLANEW_clean_sbu_2, # of connection points: 3
#     Node 29, Type 0, BuildingBlock: OLANEW_clean_sbu_2, # of connection points: 3
#     Node 30, Type 0, BuildingBlock: OLANEW_clean_sbu_2, # of connection points: 3
#     Node 31, Type 0, BuildingBlock: OLANEW_clean_sbu_2, # of connection points: 3
#     Node 32, Type 0, BuildingBlock: OLANEW_clean_sbu_2, # of connection points: 3
#     Node 33, Type 0, BuildingBlock: OLANEW_clean_sbu_2, # of connection points: 3
#     Node 34, Type 0, BuildingBlock: OLANEW_clean_sbu_2, # of connection points: 3
#     Node 35, Type 0, BuildingBlock: OLANEW_clean_sbu_2, # of connection points: 3
#     Node 36, Type 0, BuildingBlock: OLANEW_clean_sbu_2, # of connection points: 3
#     Node 37, Type 0, BuildingBlock: OLANEW_clean_sbu_2, # of connection points: 3
#     Node 38, Type 0, BuildingBlock: OLANEW_clean_sbu_2, # of connection points: 3
#     Node 39, Type 0, BuildingBlock: OLANEW_clean_sbu_2, # of connection points: 3
#     Node 40, Type 0, BuildingBlock: OLANEW_clean_sbu_2, # of connection points: 3
#     Node 41, Type 0, BuildingBlock: OLANEW_clean_sbu_2, # of connection points: 3
#     Node 42, Type 0, BuildingBlock: OLANEW_clean_sbu_2, # of connection points: 3
#     Node 43, Type 0, BuildingBlock: OLANEW_clean_sbu_2, # of connection points: 3
#     Node 44, Type 0, BuildingBlock: OLANEW_clean_sbu_2, # of connection points: 3
#     Node 45, Type 0, BuildingBlock: OLANEW_clean_sbu_2, # of connection points: 3
#     Node 46, Type 0, BuildingBlock: OLANEW_clean_sbu_2, # of connection points: 3
#     Node 47, Type 0, BuildingBlock: OLANEW_clean_sbu_2, # of connection points: 3
#     Edge 48, Type (0, 0), BuildingBlock: AJUNOK_clean_linker_0, # of connection points: 2
#     Edge 49, Type (0, 0), BuildingBlock: AJUNOK_clean_linker_0, # of connection points: 2
#     Edge 50, Type (0, 0), BuildingBlock: AJUNOK_clean_linker_0, # of connection points: 2
#     Edge 51, Type (0, 0), BuildingBlock: AJUNOK_clean_linker_0, # of connection points: 2
#     Edge 52, Type (0, 0), BuildingBlock: AJUNOK_clean_linker_0, # of connection points: 2
#     Edge 53, Type (0, 0), BuildingBlock: AJUNOK_clean_linker_0, # of connection points: 2
#     Edge 54, Type (0, 0), BuildingBlock: AJUNOK_clean_linker_0, # of connection points: 2
#     Edge 55, Type (0, 0), BuildingBlock: AJUNOK_clean_linker_0, # of connection points: 2
#     Edge 56, Type (0, 0), BuildingBlock: AJUNOK_clean_linker_0, # of connection points: 2
#     Edge 57, Type (0, 0), BuildingBlock: AJUNOK_clean_linker_0, # of connection points: 2
#     Edge 58, Type (0, 0), BuildingBlock: AJUNOK_clean_linker_0, # of connection points: 2
#     Edge 59, Type (0, 0), BuildingBlock: AJUNOK_clean_linker_0, # of connection points: 2
#     Edge 60, Type (0, 0), BuildingBlock: AJUNOK_clean_linker_0, # of connection points: 2
#     Edge 61, Type (0, 0), BuildingBlock: AJUNOK_clean_linker_0, # of connection points: 2
#     Edge 62, Type (0, 0), BuildingBlock: AJUNOK_clean_linker_0, # of connection points: 2
#     Edge 63, Type (0, 0), BuildingBlock: AJUNOK_clean_linker_0, # of connection points: 2
#     Edge 64, Type (0, 0), BuildingBlock: AJUNOK_clean_linker_0, # of connection points: 2
#     Edge 65, Type (0, 0), BuildingBlock: AJUNOK_clean_linker_0, # of connection points: 2
#     Edge 66, Type (0, 0), BuildingBlock: AJUNOK_clean_linker_0, # of connection points: 2
#     Edge 67, Type (0, 0), BuildingBlock: AJUNOK_clean_linker_0, # of connection points: 2
#     Edge 68, Type (0, 0), BuildingBlock: AJUNOK_clean_linker_0, # of connection points: 2
#     Edge 69, Type (0, 0), BuildingBlock: AJUNOK_clean_linker_0, # of connection points: 2
#     Edge 70, Type (0, 0), BuildingBlock: AJUNOK_clean_linker_0, # of connection points: 2
#     Edge 71, Type (0, 0), BuildingBlock: AJUNOK_clean_linker_0, # of connection points: 2
#     Edge 72, Type (0, 0), BuildingBlock: AJUNOK_clean_linker_0, # of connection points: 2
#     Edge 73, Type (0, 0), BuildingBlock: AJUNOK_clean_linker_0, # of connection points: 2
#     Edge 74, Type (0, 0), BuildingBlock: AJUNOK_clean_linker_0, # of connection points: 2
#     Edge 75, Type (0, 0), BuildingBlock: AJUNOK_clean_linker_0, # of connection points: 2
#     Edge 76, Type (0, 0), BuildingBlock: AJUNOK_clean_linker_0, # of connection points: 2
#     Edge 77, Type (0, 0), BuildingBlock: AJUNOK_clean_linker_0, # of connection points: 2
#     Edge 78, Type (0, 0), BuildingBlock: AJUNOK_clean_linker_0, # of connection points: 2
#     Edge 79, Type (0, 0), BuildingBlock: AJUNOK_clean_linker_0, # of connection points: 2
#     Edge 80, Type (0, 0), BuildingBlock: AJUNOK_clean_linker_0, # of connection points: 2
#     Edge 81, Type (0, 0), BuildingBlock: AJUNOK_clean_linker_0, # of connection points: 2
#     Edge 82, Type (0, 0), BuildingBlock: AJUNOK_clean_linker_0, # of connection points: 2
#     Edge 83, Type (0, 0), BuildingBlock: AJUNOK_clean_linker_0, # of connection points: 2
#     Edge 84, Type (0, 0), BuildingBlock: AJUNOK_clean_linker_0, # of connection points: 2
#     Edge 85, Type (0, 0), BuildingBlock: AJUNOK_clean_linker_0, # of connection points: 2
#     Edge 86, Type (0, 0), BuildingBlock: AJUNOK_clean_linker_0, # of connection points: 2
#     Edge 87, Type (0, 0), BuildingBlock: AJUNOK_clean_linker_0, # of connection points: 2
#     Edge 88, Type (0, 0), BuildingBlock: AJUNOK_clean_linker_0, # of connection points: 2
#     Edge 89, Type (0, 0), BuildingBlock: AJUNOK_clean_linker_0, # of connection points: 2
#     Edge 90, Type (0, 0), BuildingBlock: AJUNOK_clean_linker_0, # of connection points: 2
#     Edge 91, Type (0, 0), BuildingBlock: AJUNOK_clean_linker_0, # of connection points: 2
#     Edge 92, Type (0, 0), BuildingBlock: AJUNOK_clean_linker_0, # of connection points: 2
#     Edge 93, Type (0, 0), BuildingBlock: AJUNOK_clean_linker_0, # of connection points: 2
#     Edge 94, Type (0, 0), BuildingBlock: AJUNOK_clean_linker_0, # of connection points: 2
#     Edge 95, Type (0, 0), BuildingBlock: AJUNOK_clean_linker_0, # of connection points: 2
#     Edge 96, Type (0, 0), BuildingBlock: AJUNOK_clean_linker_0, # of connection points: 2
#     Edge 97, Type (0, 0), BuildingBlock: AJUNOK_clean_linker_0, # of connection points: 2
#     Edge 98, Type (0, 0), BuildingBlock: AJUNOK_clean_linker_0, # of connection points: 2
#     Edge 99, Type (0, 0), BuildingBlock: AJUNOK_clean_linker_0, # of connection points: 2
#     Edge 100, Type (0, 0), BuildingBlock: AJUNOK_clean_linker_0, # of connection points: 2
#     Edge 101, Type (0, 0), BuildingBlock: AJUNOK_clean_linker_0, # of connection points: 2
#     Edge 102, Type (0, 0), BuildingBlock: AJUNOK_clean_linker_0, # of connection points: 2
#     Edge 103, Type (0, 0), BuildingBlock: AJUNOK_clean_linker_0, # of connection points: 2
#     Edge 104, Type (0, 0), BuildingBlock: AJUNOK_clean_linker_0, # of connection points: 2
#     Edge 105, Type (0, 0), BuildingBlock: AJUNOK_clean_linker_0, # of connection points: 2
#     Edge 106, Type (0, 0), BuildingBlock: AJUNOK_clean_linker_0, # of connection points: 2
#     Edge 107, Type (0, 0), BuildingBlock: AJUNOK_clean_linker_0, # of connection points: 2
#     Edge 108, Type (0, 0), BuildingBlock: AJUNOK_clean_linker_0, # of connection points: 2
#     Edge 109, Type (0, 0), BuildingBlock: AJUNOK_clean_linker_0, # of connection points: 2
#     Edge 110, Type (0, 0), BuildingBlock: AJUNOK_clean_linker_0, # of connection points: 2
#     Edge 111, Type (0, 0), BuildingBlock: AJUNOK_clean_linker_0, # of connection points: 2
#     Edge 112, Type (0, 0), BuildingBlock: AJUNOK_clean_linker_0, # of connection points: 2
#     Edge 113, Type (0, 0), BuildingBlock: AJUNOK_clean_linker_0, # of connection points: 2
#     Edge 114, Type (0, 0), BuildingBlock: AJUNOK_clean_linker_0, # of connection points: 2
#     Edge 115, Type (0, 0), BuildingBlock: AJUNOK_clean_linker_0, # of connection points: 2
#     Edge 116, Type (0, 0), BuildingBlock: AJUNOK_clean_linker_0, # of connection points: 2
#     Edge 117, Type (0, 0), BuildingBlock: AJUNOK_clean_linker_0, # of connection points: 2
#     Edge 118, Type (0, 0), BuildingBlock: AJUNOK_clean_linker_0, # of connection points: 2
#     Edge 119, Type (0, 0), BuildingBlock: AJUNOK_clean_linker_0, # of connection points: 2
# Relax obj value: 0.050
# Max RMSD: 0.128
# Mean RMSD: 0.045
data_MOF--net-vab--node1-OLANEW_clean_sbu_2--edge1-AJUNOK_clean_linker_0
_symmetry_space_group_name_H-M    P1
_symmetry_Int_Tables_number       1
_symmetry_cell_setting            triclinic
loop_
_symmetry_equiv_pos_as_xyz
'x, y, z'
_cell_length_a     48.32235
_cell_length_b     48.768672
_cell_length_c     48.732506
_cell_angle_alpha  95.616603
_cell_angle_beta   105.63637
_cell_angle_gamma 105.58198
loop_
_atom_site_label
_atom_site_type_symbol
_atom_site_fract_x
_atom_site_fract_y
_atom_site_fract_z
_atom_type_partial_charge
O0 O 0.97221 0.05172 0.3292 0.0
Cd1 Cd 0.01828 0.0746 0.31808 0.0
O2 O 0.94064 0.05518 0.28876 0.0
Cd3 Cd 0.97683 0.08814 0.28076 0.0
O4 O -0.00018 0.13471 0.28853 0.0
C5 C 0.01261 0.14754 0.31474 0.0
O6 O 0.01332 0.13186 0.33523 0.0
C7 C 0.94534 0.04579 0.31249 0.0
C8 C 0.04817 0.03346 0.3138 0.0
O9 O 0.05323 0.04956 0.33815 0.0
O10 O 0.02941 0.0373 0.29145 0.0
O11 O 0.42242 0.79047 0.65623 0.0
Cd12 Cd 0.45541 0.84055 0.66914 0.0
O13 O 0.39011 0.79914 0.61944 0.0
Cd14 Cd 0.40705 0.84577 0.63476 0.0
O15 O 0.39107 0.87695 0.65611 0.0
C16 C 0.36249 0.86931 0.65011 0.0
O17 O 0.34651 0.84526 0.63143 0.0
C18 C 0.39918 0.78124 0.63399 0.0
C19 C 0.50826 0.84172 0.65553 0.0
O20 O 0.50619 0.8386 0.68077 0.0
O21 O 0.48551 0.84502 0.63692 0.0
O22 O 0.61752 0.10833 0.77061 0.0
Cd23 Cd 0.57292 0.12021 0.77596 0.0
O24 O 0.5916 0.06727 0.74047 0.0
Cd25 Cd 0.54976 0.06658 0.74952 0.0
O26 O 0.52588 0.04004 0.77453 0.0
C27 C 0.5267 0.01409 0.77185 0.0
O28 O 0.53991 0.00571 0.75375 0.0
C29 C 0.61683 0.08611 0.75408 0.0
C30 C 0.58024 0.17946 0.77965 0.0
O31 O 0.58896 0.16888 0.80233 0.0
O32 O 0.56814 0.16198 0.75524 0.0
O33 O 0.49064 0.44711 0.19395 0.0
Cd34 Cd 0.488 0.40146 0.21144 0.0
O35 O 0.45537 0.45655 0.21041 0.0
Cd36 Cd 0.43683 0.41177 0.21504 0.0
O37 O 0.40022 0.37065 0.19957 0.0
C38 C 0.37397 0.37062 0.19983 0.0
O39 O 0.37053 0.39467 0.21099 0.0
C40 C 0.47623 0.46437 0.19891 0.0
C41 C 0.54691 0.39878 0.23307 0.0
O42 O 0.53103 0.38814 0.20662 0.0
O43 O 0.53464 0.41015 0.24947 0.0
O44 O 0.5625 0.17973 0.05739 0.0
Cd45 Cd 0.56376 0.21732 0.02758 0.0
O46 O 0.52256 0.18685 0.06652 0.0
Cd47 Cd 0.48907 0.17605 0.08954 0.0
O48 O 0.46008 0.15254 0.11254 0.0
C49 C 0.4715 0.149 0.13816 0.0
O50 O 0.50069 0.16073 0.15089 0.0
C51 C 0.54184 0.17315 0.06931 0.0
C52 C 0.51296 0.20126 0.97834 0.0
O53 O 0.53714 0.19545 0.97768 0.0
O54 O 0.51293 0.21468 0.0023 0.0
O55 O 0.36726 0.99032 0.30075 0.0
Cd56 Cd 0.31569 0.9845 0.30126 0.0
O57 O 0.36524 0.02486 0.27533 0.0
Cd58 Cd 0.384 0.05735 0.25171 0.0
O59 O 0.40871 0.08551 0.22826 0.0
C60 C 0.39895 0.08116 0.20074 0.0
O61 O 0.37364 0.06036 0.18731 0.0
C62 C 0.38006 0.00943 0.2884 0.0
C63 C 0.31563 0.0274 0.34351 0.0
O64 O 0.318 0.00296 0.34953 0.0
O65 O 0.31284 0.03124 0.31738 0.0
O66 O 0.36365 0.20469 0.55217 0.0
Cd67 Cd 0.3387 0.15304 0.54794 0.0
O68 O 0.36882 0.20093 0.50863 0.0
Cd69 Cd 0.34872 0.15412 0.49561 0.0
O70 O 0.33554 0.1155 0.46252 0.0
C71 C 0.33006 0.11987 0.43658 0.0
O72 O 0.3317 0.14631 0.4321 0.0
C73 C 0.3725 0.21647 0.53261 0.0
C74 C 0.34131 0.13903 0.60263 0.0
O75 O 0.36079 0.13563 0.5903 0.0
O76 O 0.32055 0.14892 0.58903 0.0
O77 O 0.30025 0.08556 0.77924 0.0
Cd78 Cd 0.35057 0.10719 0.77525 0.0
O79 O 0.30744 0.12096 0.81457 0.0
Cd80 Cd 0.35601 0.13961 0.8229 0.0
O81 O 0.40134 0.15539 0.85427 0.0
C82 C 0.40273 0.16572 0.87976 0.0
O83 O 0.37763 0.16695 0.88472 0.0
C84 C 0.29015 0.09811 0.79668 0.0
C85 C 0.34797 0.11636 0.71902 0.0
O86 O 0.35262 0.0934 0.72734 0.0
O87 O 0.34449 0.1349 0.73727 0.0
O88 O 0.17793 0.24224 0.07535 0.0
Cd89 Cd 0.2113 0.22839 0.11534 0.0
O90 O 0.1718 0.27229 0.10788 0.0
Cd91 Cd 0.16029 0.30885 0.12684 0.0
O92 O 0.17678 0.34814 0.16347 0.0
C93 C 0.16234 0.3566 0.17942 0.0
O94 O 0.1778 0.34875 0.1637 0.0
C95 C 0.16595 0.26132 0.08138 0.0
C96 C 0.26519 0.273 0.14331 0.0
O97 O 0.2634 0.25391 0.12233 0.0
O98 O 0.24143 0.27104 0.15093 0.0
O99 O 0.8348 0.44398 0.30956 0.0
Cd100 Cd 0.84865 0.4752 0.27592 0.0
O101 O 0.7873 0.43224 0.2833 0.0
Cd102 Cd 0.73838 0.41317 0.27393 0.0
O103 O 0.68901 0.40161 0.25963 0.0
C104 C 0.67518 0.41001 0.27593 0.0
O105 O 0.691 0.42506 0.30197 0.0
C106 C 0.80728 0.42991 0.3053 0.0
C107 C 0.86067 0.44473 0.23134 0.0
O108 O 0.88183 0.45847 0.25468 0.0
O109 O 0.83393 0.44571 0.2291 0.0
O110 O 0.01002 0.39138 0.40725 0.0
Cd111 Cd 0.96536 0.40161 0.37804 0.0
O112 O 0.01013 0.36237 0.36994 0.0
Cd113 Cd 0.02429 0.32815 0.35052 0.0
O114 O 0.0266 0.28597 0.33334 0.0
C115 C 0.03851 0.27141 0.35056 0.0
O116 O 0.05044 0.28285 0.37827 0.0
C117 C 0.0215 0.37402 0.39661 0.0
C118 C 0.97896 0.44256 0.34358 0.0
O119 O 0.97911 0.45028 0.36954 0.0
O120 O 0.9725 0.41543 0.33405 0.0
O121 O 0.27912 0.92387 0.79637 0.0
Cd122 Cd 0.28187 0.95163 0.75752 0.0
O123 O 0.22941 0.90945 0.78051 0.0
Cd124 Cd 0.21995 0.93114 0.7437 0.0
O125 O 0.17486 0.93366 0.72288 0.0
C126 C 0.15841 0.93069 0.73952 0.0
O127 O 0.17044 0.92791 0.76629 0.0
C128 C 0.2539 0.90961 0.79867 0.0
C129 C 0.30676 0.92762 0.71954 0.0
O130 O 0.32355 0.94725 0.74162 0.0
O131 O 0.2782 0.91968 0.71538 0.0
O132 O 0.71068 0.76226 0.57598 0.0
Cd133 Cd 0.74198 0.74968 0.61845 0.0
O134 O 0.69217 0.78308 0.60537 0.0
Cd135 Cd 0.66433 0.80681 0.61961 0.0
O136 O 0.63108 0.82029 0.63577 0.0
C137 C 0.60928 0.82622 0.61886 0.0
O138 O 0.60747 0.82505 0.59136 0.0
C139 C 0.69257 0.77592 0.57966 0.0
C140 C 0.79535 0.79422 0.64761 0.0
O141 O 0.79468 0.77432 0.62799 0.0
O142 O 0.77069 0.79311 0.65327 0.0
O143 O 0.15802 0.87299 0.27465 0.0
Cd144 Cd 0.11935 0.85884 0.29861 0.0
O145 O 0.18756 0.91239 0.3059 0.0
Cd146 Cd 0.15353 0.91412 0.32706 0.0
O147 O 0.12357 0.93948 0.33168 0.0
C148 C 0.11113 0.94738 0.30863 0.0
O149 O 0.11607 0.93862 0.28454 0.0
C150 C 0.18237 0.89405 0.28329 0.0
C151 C 0.09814 0.79826 0.28867 0.0
O152 O 0.0863 0.81267 0.27086 0.0
O153 O 0.1195 0.81257 0.31164 0.0
O154 O 0.64693 0.38228 0.76855 0.0
Cd155 Cd 0.61217 0.36399 0.7956 0.0
O156 O 0.68261 0.41182 0.80592 0.0
Cd157 Cd 0.65118 0.40977 0.83092 0.0
O158 O 0.61986 0.43352 0.83551 0.0
C159 C 0.60754 0.44114 0.81225 0.0
O160 O 0.61332 0.43269 0.78852 0.0
C161 C 0.67352 0.39984 0.77938 0.0
C162 C 0.59971 0.30395 0.79026 0.0
O163 O 0.62105 0.32121 0.81169 0.0
O164 O 0.58398 0.31513 0.7717 0.0
O165 O 0.17016 0.05401 0.83689 0.0
Cd166 Cd 0.12938 0.03529 0.85717 0.0
O167 O 0.16518 0.0141 0.80828 0.0
Cd168 Cd 0.13468 0.98742 0.82798 0.0
O169 O 0.13325 0.95509 0.85602 0.0
C170 C 0.15159 0.96313 0.88159 0.0
O171 O 0.16779 0.99055 0.8901 0.0
C172 C 0.17792 0.04109 0.81767 0.0
C173 C 0.11872 0.08301 0.88415 0.0
O174 O 0.13693 0.07084 0.89845 0.0
O175 O 0.1049 0.072 0.85733 0.0
O176 O 0.0418 0.56935 0.64681 0.0
Cd177 Cd 0.05132 0.53049 0.67237 0.0
O178 O 0.04133 0.59684 0.6851 0.0
Cd179 Cd 0.0385 0.56164 0.7094 0.0
O180 O -0.00059 0.53208 0.71612 0.0
C181 C 0.98146 0.51241 0.69494 0.0
O182 O 0.98912 0.50866 0.67127 0.0
C183 C 0.04012 0.59306 0.65859 0.0
C184 C 0.06318 0.48925 0.63717 0.0
O185 O 0.03641 0.48611 0.63852 0.0
O186 O 0.08432 0.51186 0.65259 0.0
O187 O 0.52161 0.01372 0.31372 0.0
Cd188 Cd 0.5758 0.02071 0.33194 0.0
O189 O 0.5246 0.05854 0.30813 0.0
Cd190 Cd 0.57369 0.07667 0.32264 0.0
O191 O 0.61083 0.11708 0.33976 0.0
C192 C 0.60245 0.13879 0.34618 0.0
O193 O 0.57353 0.13466 0.3422 0.0
C194 C 0.50876 0.03267 0.30663 0.0
C195 C 0.5834 0.97812 0.36518 0.0
O196 O 0.58315 0.00281 0.37662 0.0
O197 O 0.58106 0.97395 0.33816 0.0
O198 O 0.93988 0.85275 0.02872 0.0
Cd199 Cd 0.96782 0.90424 0.03828 0.0
O200 O 0.91419 0.85859 0.05869 0.0
Cd201 Cd 0.9248 0.90538 0.06212 0.0
O202 O 0.87789 0.90518 0.04855 0.0
C203 C 0.86174 0.8882 0.02475 0.0
O204 O 0.87532 0.87643 0.00913 0.0
C205 C 0.92108 0.84205 0.04166 0.0
C206 C 0.02583 0.91365 0.07569 0.0
O207 O 0.00436 0.91615 0.08549 0.0
O208 O 0.01987 0.90711 0.04816 0.0
O209 O 0.83502 0.12727 0.08667 0.0
Cd210 Cd 0.80016 0.07805 0.07588 0.0
O211 O 0.79801 0.14568 0.07181 0.0
Cd212 Cd 0.7666 0.10332 0.04961 0.0
O213 O 0.75596 0.07487 0.00839 0.0
C214 C 0.77869 0.07392 0.00038 0.0
O215 O 0.80581 0.08796 0.01818 0.0
C216 C 0.82595 0.14929 0.0836 0.0
C217 C 0.80012 0.05622 0.12666 0.0
O218 O 0.81684 0.05094 0.11172 0.0
O219 O 0.78328 0.07182 0.11753 0.0
O220 O 0.72236 0.02553 0.7732 0.0
Cd221 Cd 0.76307 0.00477 0.79118 0.0
O222 O 0.74921 0.06955 0.79659 0.0
Cd223 Cd 0.78198 0.05407 0.82569 0.0
O224 O 0.79047 0.05012 0.87111 0.0
C225 C 0.76692 0.0424 0.87898 0.0
O226 O 0.74043 0.03542 0.85911 0.0
C227 C 0.72518 0.05238 0.77838 0.0
C228 C 0.80611 0.02058 0.76254 0.0
O229 O 0.78301 0.99802 0.75192 0.0
O230 O 0.80903 0.03539 0.78693 0.0
O231 O 0.99152 0.09961 0.63031 0.0
Cd232 Cd 0.98178 0.13288 0.59762 0.0
O233 O 0.94487 0.09411 0.62996 0.0
Cd234 Cd 0.90621 0.07163 0.6429 0.0
O235 O 0.87648 0.05339 0.66753 0.0
C236 C 0.88701 0.0598 0.69501 0.0
O237 O 0.91504 0.07652 0.70688 0.0
C238 C 0.96849 0.08629 0.63691 0.0
C239 C 0.93582 0.0978 0.54919 0.0
O240 O 0.96364 0.10055 0.55216 0.0
O241 O 0.92962 0.11271 0.56854 0.0
O242 O 0.84402 0.98302 0.37206 0.0
Cd243 Cd 0.80961 0.97577 0.40087 0.0
O244 O 0.81646 0.99839 0.33704 0.0
Cd245 Cd 0.80792 0.01924 0.29907 0.0
O246 O 0.80324 0.03357 0.25737 0.0
C247 C 0.80464 0.01685 0.23641 0.0
O248 O 0.80799 0.99156 0.24052 0.0
C249 C 0.84125 0.99384 0.34919 0.0
C250 C 0.84431 0.01342 0.45291 0.0
O251 O 0.84563 0.98758 0.44806 0.0
O252 O 0.82523 0.02103 0.4338 0.0
O253 O 0.29338 0.92119 0.22633 0.0
Cd254 Cd 0.32088 0.92953 0.19108 0.0
O255 O 0.25523 0.9188 0.18874 0.0
Cd256 Cd 0.2081 0.91518 0.16687 0.0
O257 O 0.16264 0.91253 0.14071 0.0
C258 C 0.14572 0.92332 0.15127 0.0
O259 O 0.15587 0.93604 0.17863 0.0
C260 C 0.26524 0.91683 0.21519 0.0
C261 C 0.38054 0.96547 0.21094 0.0
O262 O 0.35847 0.97592 0.20384 0.0
O263 O 0.37425 0.93805 0.20984 0.0
O264 O 0.63591 0.82338 0.97554 0.0
Cd265 Cd 0.67525 0.80955 0.00897 0.0
O266 O 0.63601 0.85313 0.01235 0.0
Cd267 Cd 0.61667 0.88232 0.03229 0.0
O268 O 0.59402 0.90703 0.0533 0.0
C269 C 0.60538 0.91814 0.0801 0.0
O270 O 0.63099 0.91468 0.09467 0.0
C271 C 0.62542 0.84199 0.98554 0.0
C272 C 0.73361 0.83829 0.00894 0.0
O273 O 0.71773 0.81441 0.99149 0.0
O274 O 0.72163 0.84881 0.0262 0.0
O275 O 0.26685 0.83156 0.90122 0.0
Cd276 Cd 0.26504 0.80263 0.93935 0.0
O277 O 0.22762 0.84481 0.90465 0.0
Cd278 Cd 0.21554 0.82698 0.94056 0.0
O279 O 0.18439 0.85271 0.93402 0.0
C280 C 0.19639 0.87993 0.94212 0.0
O281 O 0.22512 0.88984 0.95741 0.0
C282 C 0.24791 0.84504 0.8926 0.0
C283 C 0.22061 0.74875 0.91841 0.0
O284 O 0.21495 0.77073 0.92948 0.0
O285 O 0.24751 0.7522 0.91731 0.0
O286 O 0.13264 0.32686 0.45741 0.0
Cd287 Cd 0.17324 0.31285 0.48872 0.0
O288 O 0.13394 0.35454 0.49617 0.0
Cd289 Cd 0.12216 0.38697 0.52122 0.0
O290 O 0.11102 0.41714 0.54942 0.0
C291 C 0.09081 0.40757 0.56126 0.0
O292 O 0.07724 0.37955 0.55641 0.0
C293 C 0.122 0.34426 0.46919 0.0
C294 C 0.23108 0.34186 0.48754 0.0
O295 O 0.2147 0.31837 0.46966 0.0
O296 O 0.21976 0.35201 0.50564 0.0
O297 O 0.77083 0.44172 0.70768 0.0
Cd298 Cd 0.79207 0.46114 0.67102 0.0
O299 O 0.7289 0.44404 0.67812 0.0
Cd300 Cd 0.68114 0.44152 0.66441 0.0
O301 O 0.63359 0.43822 0.6461 0.0
C302 C 0.61832 0.44426 0.66204 0.0
O303 O 0.63163 0.4526 0.6901 0.0
C304 C 0.74267 0.43788 0.70172 0.0
C305 C 0.85415 0.472 0.68382 0.0
O306 O 0.84316 0.49066 0.69352 0.0
O307 O 0.83569 0.44782 0.66863 0.0
O308 O 0.08302 0.32079 0.99208 0.0
Cd309 Cd 0.05008 0.33485 0.95207 0.0
O310 O 0.08508 0.28649 0.96082 0.0
Cd311 Cd 0.09601 0.2474 0.94795 0.0
O312 O 0.09872 0.20693 0.92685 0.0
C313 C 0.10879 0.18937 0.94116 0.0
O314 O 0.11836 0.19598 0.96961 0.0
C315 C 0.09229 0.2994 0.98686 0.0
C316 C 0.07354 0.3904 0.94169 0.0
O317 O 0.05968 0.38623 0.96067 0.0
O318 O 0.07683 0.36829 0.92796 0.0
O319 O 0.59892 0.82145 0.48564 0.0
Cd320 Cd 0.55973 0.82799 0.44533 0.0
O321 O 0.60338 0.78739 0.45587 0.0
Cd322 Cd 0.61825 0.75027 0.44498 0.0
O323 O 0.62396 0.71024 0.42645 0.0
C324 C 0.60475 0.69588 0.40255 0.0
O325 O 0.5826 0.7058 0.39032 0.0
C326 C 0.61109 0.80205 0.48125 0.0
C327 C 0.57497 0.87934 0.4241 0.0
O328 O 0.56445 0.8782 0.4456 0.0
O329 O 0.57899 0.8563 0.41307 0.0
O330 O 0.45305 0.53419 0.80632 0.0
Cd331 Cd 0.50156 0.55881 0.8005 0.0
O332 O 0.42938 0.56454 0.78918 0.0
Cd333 Cd 0.4689 0.59558 0.78414 0.0
O334 O 0.49417 0.64117 0.78898 0.0
C335 C 0.51595 0.65404 0.81177 0.0
O336 O 0.52473 0.6388 0.83129 0.0
C337 C 0.42913 0.54154 0.79946 0.0
C338 C 0.53629 0.52102 0.80593 0.0
O339 O 0.53704 0.53789 0.82817 0.0
O340 O 0.51956 0.52252 0.7811 0.0
O341 O 0.93692 0.27344 0.1231 0.0
Cd342 Cd 0.9705 0.32321 0.13388 0.0
O343 O 0.89652 0.2877 0.11077 0.0
Cd344 Cd 0.91918 0.33398 0.12566 0.0
O345 O 0.91437 0.37094 0.15083 0.0
C346 C 0.88723 0.37059 0.14735 0.0
O347 O 0.86548 0.3496 0.12827 0.0
C348 C 0.90835 0.26737 0.11343 0.0
C349 C 0.03193 0.32789 0.14893 0.0
O350 O 0.01838 0.32827 0.16817 0.0
O351 O 0.01621 0.32475 0.12238 0.0
O352 O 0.10427 0.60309 0.25569 0.0
Cd353 Cd 0.05711 0.6125 0.25592 0.0
O354 O 0.08377 0.56026 0.2274 0.0
Cd355 Cd 0.0387 0.5558 0.23039 0.0
O356 O 0.01112 0.52573 0.25004 0.0
C357 C 0.01725 0.53059 0.27744 0.0
O358 O 0.0375 0.55501 0.2924 0.0
C359 C 0.1071 0.58115 0.24166 0.0
C360 C 0.06647 0.67226 0.26594 0.0
O361 O 0.07117 0.6586 0.28704 0.0
O362 O 0.05704 0.65757 0.24012 0.0
O363 O 0.96204 0.95667 0.66018 0.0
Cd364 Cd 0.96831 0.91034 0.67059 0.0
O365 O 0.97491 0.97802 0.70571 0.0
Cd366 Cd 0.96422 0.93494 0.71669 0.0
O367 O 0.9294 0.89284 0.70503 0.0
C368 C 0.9027 0.8932 0.70288 0.0
O369 O 0.89843 0.91813 0.70981 0.0
C370 C 0.96849 0.97937 0.67891 0.0
C371 C 0.02976 0.91675 0.69379 0.0
O372 O 0.0168 0.91066 0.66632 0.0
O373 O 0.01354 0.91944 0.71016 0.0
O374 O 0.03985 0.68765 0.57311 0.0
Cd375 Cd 0.02952 0.72111 0.54047 0.0
O376 O 0.99741 0.68655 0.58155 0.0
Cd377 Cd 0.95843 0.67165 0.59708 0.0
O378 O 0.91239 0.67028 0.5953 0.0
C379 C 0.897 0.66162 0.61198 0.0
O380 O 0.87023 0.66524 0.60711 0.0
C381 C 0.02075 0.67821 0.58615 0.0
C382 C 0.97937 0.69397 0.49179 0.0
O383 O 0.00608 0.69456 0.49191 0.0
O384 O 0.97639 0.70626 0.51483 0.0
O385 O 0.88392 0.51352 0.81276 0.0
Cd386 Cd 0.82986 0.50721 0.80006 0.0
O387 O 0.88778 0.54241 0.78149 0.0
Cd388 Cd 0.90793 0.57348 0.75718 0.0
O389 O 0.91227 0.60257 0.72607 0.0
C390 C 0.92427 0.5994 0.7062 0.0
O391 O 0.93616 0.57826 0.70472 0.0
C392 C 0.90038 0.53013 0.80091 0.0
C393 C 0.81885 0.54542 0.83933 0.0
O394 O 0.8185 0.51987 0.84371 0.0
O395 O 0.82409 0.55268 0.8162 0.0
O396 O 0.87376 0.70057 0.01061 0.0
Cd397 Cd 0.85002 0.64807 0.00091 0.0
O398 O 0.82988 0.70888 -0.00038 0.0
Cd399 Cd 0.80663 0.66395 0.97813 0.0
O400 O 0.80104 0.62636 0.94652 0.0
C401 C 0.80934 0.63214 0.92456 0.0
O402 O 0.81913 0.65944 0.92229 0.0
C403 C 0.85856 0.71831 0.0096 0.0
C404 C 0.83656 0.63223 0.05044 0.0
O405 O 0.86074 0.63023 0.04547 0.0
O406 O 0.81832 0.6409 0.03157 0.0
O407 O 0.78524 0.59402 0.2348 0.0
Cd408 Cd 0.83126 0.61308 0.22172 0.0
O409 O 0.81834 0.60795 0.27778 0.0
Cd410 Cd 0.83883 0.61818 0.32495 0.0
O411 O 0.87591 0.63267 0.36568 0.0
C412 C 0.87379 0.64394 0.38936 0.0
O413 O 0.84762 0.64658 0.39006 0.0
C414 C 0.79093 0.59675 0.26212 0.0
C415 C 0.82484 0.61457 0.16339 0.0
O416 O 0.83083 0.59328 0.17455 0.0
O417 O 0.82104 0.63465 0.17964 0.0
O418 O 0.51985 0.89458 0.92192 0.0
Cd419 Cd 0.47708 0.90727 0.8923 0.0
O420 O 0.5172 0.86447 0.88411 0.0
Cd421 Cd 0.53076 0.83201 0.86102 0.0
O422 O 0.52988 0.79029 0.83925 0.0
C423 C 0.55008 0.77835 0.84854 0.0
O424 O 0.57334 0.79212 0.87137 0.0
C425 C 0.52916 0.87548 0.91093 0.0
C426 C 0.49168 0.94067 0.85191 0.0
O427 O 0.49315 0.95259 0.87713 0.0
O428 O 0.48341 0.91295 0.84594 0.0
O429 O 0.66824 0.55456 0.3022 0.0
Cd430 Cd 0.62905 0.54047 0.32558 0.0
O431 O 0.70375 0.5546 0.34138 0.0
Cd432 Cd 0.6734 0.53513 0.36509 0.0
O433 O 0.66722 0.50262 0.39243 0.0
C434 C 0.65498 0.4761 0.38054 0.0
O435 O 0.64313 0.46965 0.3522 0.0
C436 C 0.69602 0.55917 0.31559 0.0
C437 C 0.61891 0.5896 0.35021 0.0
O438 O 0.63887 0.57926 0.36463 0.0
O439 O 0.60359 0.57646 0.32424 0.0
O440 O 0.51525 0.05963 0.13116 0.0
Cd441 Cd 0.51125 0.01711 0.15416 0.0
O442 O 0.55574 0.08858 0.16478 0.0
Cd443 Cd 0.54956 0.05812 0.19426 0.0
O444 O 0.51758 0.02997 0.2115 0.0
C445 C 0.49885 0.04067 0.21891 0.0
O446 O 0.50204 0.06824 0.21852 0.0
C447 C 0.53604 0.08383 0.14006 0.0
C448 C 0.54181 0.98317 0.13297 0.0
O449 O 0.51389 0.97976 0.12015 0.0
O450 O 0.55511 0.00234 0.15615 0.0
O451 O 0.04491 0.54782 0.86156 0.0
Cd452 Cd 0.09819 0.55121 0.88034 0.0
O453 O 0.04562 0.56124 0.81999 0.0
Cd454 Cd 0.09478 0.57842 0.83555 0.0
O455 O 0.13382 0.61657 0.85645 0.0
C456 C 0.1276 0.63715 0.86906 0.0
O457 O 0.09952 0.63316 0.86876 0.0
C458 C 0.03086 0.55156 0.83684 0.0
C459 C 0.09951 0.5017 0.90446 0.0
O460 O 0.10064 0.52516 0.91969 0.0
O461 O 0.09903 0.50207 0.87807 0.0
O462 O 0.41012 0.35669 0.56927 0.0
Cd463 Cd 0.42782 0.40955 0.58047 0.0
O464 O 0.42583 0.35567 0.53102 0.0
Cd465 Cd 0.42335 0.39933 0.52857 0.0
O466 O 0.37771 0.40252 0.51878 0.0
C467 C 0.35865 0.38284 0.49819 0.0
O468 O 0.36873 0.36564 0.48372 0.0
C469 C 0.41534 0.3424 0.549 0.0
C470 C 0.48999 0.42635 0.60792 0.0
O471 O 0.47133 0.4232 0.62259 0.0
O472 O 0.4792 0.42231 0.58025 0.0
O473 O 0.34104 0.63928 0.60097 0.0
Cd474 Cd 0.31304 0.58773 0.58552 0.0
O475 O 0.30113 0.65266 0.58213 0.0
Cd476 Cd 0.27528 0.60924 0.55788 0.0
O477 O 0.26513 0.58234 0.5159 0.0
C478 C 0.28751 0.58409 0.50645 0.0
O479 O 0.31451 0.59979 0.52335 0.0
C480 C 0.3288 0.65921 0.59696 0.0
C481 C 0.30672 0.56304 0.63365 0.0
O482 O 0.329 0.56318 0.62409 0.0
O483 O 0.28715 0.57427 0.62011 0.0
O484 O 0.22226 0.53391 0.27551 0.0
Cd485 Cd 0.26611 0.51905 0.29841 0.0
O486 O 0.24473 0.57951 0.29627 0.0
Cd487 Cd 0.27987 0.56934 0.32822 0.0
O488 O 0.29211 0.56639 0.37398 0.0
C489 C 0.27007 0.55581 0.38329 0.0
O490 O 0.2428 0.54584 0.36457 0.0
C491 C 0.22222 0.56012 0.27835 0.0
C492 C 0.30934 0.53456 0.26989 0.0
O493 O 0.28894 0.5098 0.26196 0.0
O494 O 0.3095 0.55172 0.29162 0.0
O495 O 0.50577 0.57702 0.13629 0.0
Cd496 Cd 0.49654 0.6095 0.10239 0.0
O497 O 0.46302 0.57713 0.14351 0.0
Cd498 Cd 0.42419 0.56034 0.15864 0.0
O499 O 0.39164 0.54818 0.1822 0.0
C500 C 0.39362 0.56632 0.20377 0.0
O501 O 0.41473 0.59151 0.21042 0.0
C502 C 0.48566 0.56769 0.14826 0.0
C503 C 0.44874 0.57695 0.05397 0.0
O504 O 0.47605 0.5779 0.05631 0.0
O505 O 0.444 0.59204 0.07427 0.0
O506 O 0.34034 0.4793 0.86641 0.0
Cd507 Cd 0.31315 0.46838 0.90138 0.0
O508 O 0.30474 0.48972 0.83432 0.0
Cd509 Cd 0.28889 0.50411 0.79346 0.0
O510 O 0.28499 0.52043 0.75291 0.0
C511 C 0.30189 0.5157 0.73826 0.0
O512 O 0.3203 0.50082 0.74792 0.0
C513 C 0.33141 0.48797 0.84282 0.0
C514 C 0.35265 0.50181 0.95414 0.0
O515 O 0.35361 0.47658 0.94522 0.0
O516 O 0.33213 0.51082 0.93865 0.0
O517 O 0.75095 0.33502 0.37795 0.0
Cd518 Cd 0.73468 0.30735 0.41321 0.0
O519 O 0.77242 0.37376 0.41214 0.0
Cd520 Cd 0.74206 0.35713 0.43682 0.0
O521 O 0.70224 0.37178 0.42673 0.0
C522 C 0.70429 0.396 0.4407 0.0
O523 O 0.72809 0.40834 0.46349 0.0
C524 C 0.76809 0.36107 0.38659 0.0
C525 C 0.69123 0.25348 0.3898 0.0
O526 O 0.68374 0.27639 0.39447 0.0
O527 O 0.71944 0.2562 0.39563 0.0
C528 C 0.04167 0.22286 0.36069 0.0
C529 C 0.03548 0.2407 0.34032 0.0
C530 C 0.03544 0.19302 0.35203 0.0
C531 C 0.02285 0.17969 0.32262 0.0
H532 H 0.05036 0.23175 0.38368 0.0
H533 H 0.03967 0.18022 0.36875 0.0
S534 S 0.00626 0.21732 0.26029 0.0
N535 N 0.01883 0.24329 0.28912 0.0
N536 N 0.0072 0.18723 0.27283 0.0
C537 C 0.01825 0.19753 0.30185 0.0
C538 C 0.02451 0.22798 0.3107 0.0
C539 C 0.36523 0.90795 0.68954 0.0
C540 C 0.34764 0.88548 0.66583 0.0
C541 C 0.35179 0.92184 0.70633 0.0
C542 C 0.32018 0.91389 0.7001 0.0
H543 H 0.38966 0.91445 0.6957 0.0
H544 H 0.36641 0.93857 0.72471 0.0
S545 S 0.26377 0.85796 0.63886 0.0
N546 N 0.29676 0.85712 0.63589 0.0
N547 N 0.27157 0.88316 0.66741 0.0
C548 C 0.30227 0.89214 0.67583 0.0
C549 C 0.31596 0.87798 0.65872 0.0
C550 C 0.50292 0.98839 0.83552 0.0
C551 C 0.49934 0.95854 0.83045 0.0
C552 C 0.51083 0.006 0.81603 0.0
C553 C 0.51582 0.99454 0.7908 0.0
H554 H 0.49972 0.99837 0.85481 0.0
H555 H 0.51374 0.02892 0.82119 0.0
S556 S 0.50829 0.91748 0.76676 0.0
N557 N 0.50051 0.9181 0.79774 0.0
N558 N 0.51555 0.95118 0.76125 0.0
C559 C 0.51181 0.96462 0.78517 0.0
C560 C 0.50353 0.94663 0.80493 0.0
C561 C 0.62781 0.41753 0.28222 0.0
C562 C 0.64199 0.40485 0.26511 0.0
C563 C 0.59697 0.41477 0.27199 0.0
C564 C 0.57894 0.39928 0.24411 0.0
H565 H 0.64073 0.43028 0.30355 0.0
H566 H 0.58743 0.42549 0.28589 0.0
S567 S 0.60442 0.36004 0.19133 0.0
N568 N 0.63509 0.37476 0.21937 0.0
N569 N 0.57725 0.3697 0.2001 0.0
C570 C 0.59258 0.38573 0.22705 0.0
C571 C 0.62402 0.38848 0.23753 0.0
C572 C 0.08091 0.00482 0.33718 0.0
C573 C 0.06336 0.01093 0.31176 0.0
C574 C 0.09562 0.98377 0.336 0.0
C575 C 0.09363 0.96809 0.30934 0.0
H576 H 0.08341 0.01643 0.35827 0.0
H577 H 0.10913 0.98018 0.35619 0.0
S578 S 0.04957 0.97491 0.23644 0.0
N579 N 0.04412 0.99885 0.25909 0.0
N580 N 0.07185 0.95946 0.25687 0.0
C581 C 0.07581 0.97366 0.28375 0.0
C582 C 0.06068 0.995 0.28496 0.0
C583 C 0.55964 0.83614 0.60976 0.0
C584 C 0.58503 0.83235 0.62946 0.0
C585 C 0.53539 0.83993 0.61857 0.0
C586 C 0.53542 0.84008 0.64749 0.0
H587 H 0.55811 0.83562 0.58711 0.0
H588 H 0.51617 0.84212 0.60235 0.0
S589 S 0.59743 0.83326 0.70824 0.0
N590 N 0.60942 0.83063 0.67971 0.0
N591 N 0.56387 0.83771 0.69623 0.0
C592 C 0.56108 0.83726 0.66766 0.0
C593 C 0.58584 0.83341 0.65868 0.0
C594 C 0.60271 0.23027 0.80764 0.0
C595 C 0.58434 0.21099 0.78172 0.0
C596 C 0.60745 0.26018 0.81017 0.0
C597 C 0.59378 0.27209 0.78699 0.0
H598 H 0.61382 0.22228 0.82614 0.0
H599 H 0.62194 0.27406 0.83055 0.0
S600 S 0.54321 0.23101 0.71448 0.0
N601 N 0.55217 0.20601 0.73239 0.0
N602 N 0.56087 0.26213 0.73721 0.0
C603 C 0.57511 0.25305 0.761 0.0
C604 C 0.57048 0.22257 0.75834 0.0
C605 C 0.31936 0.3439 0.19061 0.0
C606 C 0.34718 0.34465 0.18625 0.0
C607 C 0.29321 0.32052 0.17696 0.0
C608 C 0.29363 0.29694 0.15813 0.0
H609 H 0.31762 0.36164 0.20458 0.0
H610 H 0.27238 0.32121 0.18093 0.0
S611 S 0.36082 0.2878 0.13981 0.0
N612 N 0.37367 0.31928 0.16216 0.0
N613 N 0.3245 0.27545 0.13636 0.0
C614 C 0.32136 0.29718 0.1538 0.0
C615 C 0.34811 0.32094 0.16791 0.0
C616 C 0.46297 0.13437 0.18377 0.0
C617 C 0.45235 0.13165 0.15346 0.0
C618 C 0.44545 0.11821 0.19882 0.0
C619 C 0.41666 0.09843 0.18417 0.0
H620 H 0.48497 0.14926 0.19608 0.0
H621 H 0.45473 0.12115 0.22216 0.0
S622 S 0.37894 0.08232 0.10457 0.0
N623 N 0.41149 0.10713 0.10917 0.0
N624 N 0.37862 0.07667 0.13734 0.0
C625 C 0.40586 0.09531 0.15378 0.0
C626 C 0.42366 0.11194 0.13848 0.0
C627 C 0.32548 0.06865 0.41762 0.0
C628 C 0.32417 0.09615 0.41213 0.0
C629 C 0.32207 0.04645 0.39523 0.0
C630 C 0.31718 0.05077 0.36638 0.0
H631 H 0.32974 0.06428 0.43949 0.0
H632 H 0.32381 0.02587 0.40077 0.0
S633 S 0.30992 0.11824 0.34002 0.0
N634 N 0.31616 0.12602 0.3753 0.0
N635 N 0.3098 0.08438 0.33335 0.0
C636 C 0.31495 0.07792 0.36042 0.0
C637 C 0.31843 0.10055 0.38323 0.0
C638 C 0.32966 0.14591 0.64932 0.0
C639 C 0.34303 0.1324 0.63198 0.0
C640 C 0.33157 0.14071 0.67746 0.0
C641 C 0.34641 0.12136 0.68918 0.0
H642 H 0.31799 0.16101 0.64129 0.0
H643 H 0.32108 0.15181 0.69001 0.0
S644 S 0.38458 0.07985 0.65243 0.0
N645 N 0.37145 0.09863 0.62847 0.0
N646 N 0.37452 0.0884 0.68112 0.0
C647 C 0.35955 0.10739 0.67194 0.0
C648 C 0.35803 0.11306 0.64343 0.0
C649 C 0.4324 0.18865 0.93123 0.0
C650 C 0.43161 0.1753 0.90395 0.0
C651 C 0.45881 0.19712 0.95491 0.0
C652 C 0.48564 0.19254 0.95245 0.0
H653 H 0.41238 0.19253 0.9345 0.0
H654 H 0.45799 0.20712 0.9754 0.0
S655 S 0.49596 0.15889 0.88566 0.0
N656 N 0.4603 0.15827 0.87574 0.0
N657 N 0.50994 0.17412 0.92027 0.0
C658 C 0.48535 0.17945 0.92523 0.0
C659 C 0.45838 0.17088 0.901 0.0
C660 C 0.90321 0.41019 0.19049 0.0
C661 C 0.88008 0.39132 0.1667 0.0
C662 C 0.89676 0.42782 0.21085 0.0
C663 C 0.86692 0.42745 0.2082 0.0
H664 H 0.92647 0.41084 0.19388 0.0
H665 H 0.91534 0.44148 0.2291 0.0
S666 S 0.7983 0.38389 0.14836 0.0
N667 N 0.82622 0.37481 0.1406 0.0
N668 N 0.81413 0.40793 0.17877 0.0
C669 C 0.84366 0.40959 0.18385 0.0
C670 C 0.85023 0.39155 0.16314 0.0
C671 C 0.99682 0.49416 0.33768 0.0
C672 C 0.98665 0.46448 0.32547 0.0
C673 C 0.00583 0.51537 0.3217 0.0
C674 C 0.00472 0.50782 0.29273 0.0
H675 H -0.00153 0.50117 0.36001 0.0
H676 H 0.0141 0.53788 0.33231 0.0
S677 S 0.97943 0.43319 0.25031 0.0
N678 N 0.97557 0.42867 0.28234 0.0
N679 N 0.99225 0.46852 0.25228 0.0
C680 C 0.99385 0.47826 0.27995 0.0
C681 C 0.98492 0.45662 0.29632 0.0
C682 C 0.08082 0.92249 0.68781 0.0
C683 C 0.06256 0.92081 0.70613 0.0
C684 C 0.11184 0.92627 0.69883 0.0
C685 C 0.12588 0.92834 0.72861 0.0
H686 H 0.07113 0.92088 0.66469 0.0
H687 H 0.1248 0.92718 0.68375 0.0
S688 S 0.08821 0.92544 0.78596 0.0
N689 N 0.06091 0.92175 0.75568 0.0
N690 N 0.11903 0.9288 0.77638 0.0
C691 C 0.10792 0.92693 0.74725 0.0
C692 C 0.07634 0.92318 0.73602 0.0
C693 C 0.09775 0.75085 0.30453 0.0
C694 C 0.08824 0.76608 0.28257 0.0
C695 C 0.09003 0.72055 0.29908 0.0
C696 C 0.07277 0.70419 0.27135 0.0
H697 H 0.11148 0.76241 0.32614 0.0
H698 H 0.09823 0.70995 0.31668 0.0
S699 S 0.04142 0.73341 0.20643 0.0
N700 N 0.05985 0.76233 0.23209 0.0
N701 N 0.04562 0.70549 0.22182 0.0
C702 C 0.06272 0.71908 0.24926 0.0
C703 C 0.07035 0.74995 0.25488 0.0
C704 C 0.55584 0.48508 0.78338 0.0
C705 C 0.55411 0.50035 0.80857 0.0
C706 C 0.57274 0.46572 0.78495 0.0
C707 C 0.58854 0.4606 0.81174 0.0
H708 H 0.54428 0.48828 0.76215 0.0
H709 H 0.57355 0.45479 0.7649 0.0
S710 S 0.59066 0.4943 0.8843 0.0
N711 N 0.56917 0.50851 0.86131 0.0
N712 N 0.60086 0.47199 0.8642 0.0
C713 C 0.58664 0.47532 0.83717 0.0
C714 C 0.5695 0.49523 0.83559 0.0
C715 C 0.18402 0.95045 0.92463 0.0
C716 C 0.15874 0.94151 0.89955 0.0
C717 C 0.19479 0.93032 0.93933 0.0
C718 C 0.18068 0.90035 0.92972 0.0
H719 H 0.19662 0.97319 0.93228 0.0
H720 H 0.2152 0.93841 0.95766 0.0
S721 S 0.11078 0.86564 0.86785 0.0
N722 N 0.1177 0.90066 0.8677 0.0
N723 N 0.13786 0.86277 0.89543 0.0
C724 C 0.15394 0.89111 0.90603 0.0
C725 C 0.14302 0.91168 0.89092 0.0
C726 C 0.10321 0.45585 0.59242 0.0
C727 C 0.0831 0.42777 0.5806 0.0
C728 C 0.09669 0.47538 0.6109 0.0
C729 C 0.06959 0.46779 0.618 0.0
H730 H 0.12435 0.46281 0.58758 0.0
H731 H 0.11295 0.49673 0.61941 0.0
S732 S 0.00914 0.39696 0.59263 0.0
N733 N 0.03488 0.39333 0.57735 0.0
N734 N 0.02248 0.43014 0.6118 0.0
C735 C 0.0492 0.43981 0.60627 0.0
C736 C 0.056 0.41978 0.58768 0.0
C737 C 0.67654 0.20039 0.37016 0.0
C738 C 0.66808 0.22461 0.3785 0.0
C739 C 0.65525 0.17279 0.35982 0.0
C740 C 0.62461 0.16822 0.35745 0.0
H741 H 0.69983 0.20269 0.37154 0.0
H742 H 0.66296 0.15492 0.35359 0.0
S743 S 0.59082 0.22434 0.37731 0.0
N744 N 0.62692 0.24209 0.38419 0.0
N745 N 0.587 0.19039 0.3649 0.0
C746 C 0.61585 0.19226 0.36589 0.0
C747 C 0.63753 0.22037 0.37635 0.0
C748 C 0.81414 0.88916 0.03559 0.0
C749 C 0.82833 0.87766 0.01766 0.0
C750 C 0.78331 0.87692 0.03192 0.0
C751 C 0.76537 0.85259 0.01026 0.0
H752 H 0.82709 0.90725 0.05322 0.0
H753 H 0.77374 0.88614 0.04684 0.0
S754 S 0.79091 0.8156 0.95595 0.0
N755 N 0.82147 0.84162 0.97607 0.0
N756 N 0.76371 0.8186 0.96935 0.0
C757 C 0.77895 0.84164 0.99135 0.0
C758 C 0.81033 0.85419 0.99499 0.0
C759 C 0.12741 0.11915 0.92826 0.0
C760 C 0.11465 0.10953 0.8981 0.0
C761 C 0.12511 0.14475 0.94194 0.0
C762 C 0.11013 0.16197 0.92603 0.0
H763 H 0.13948 0.10691 0.94152 0.0
H764 H 0.13552 0.1512 0.96518 0.0
S765 S 0.07221 0.14619 0.84645 0.0
N766 N 0.08596 0.11909 0.85273 0.0
N767 N 0.08174 0.16717 0.87834 0.0
C768 C 0.09696 0.15246 0.89585 0.0
C769 C 0.09917 0.12628 0.88193 0.0
C770 C 0.9379 0.51234 0.71305 0.0
C771 C 0.95004 0.49866 0.69459 0.0
C772 C 0.90703 0.5029 0.71008 0.0
C773 C 0.88711 0.4791 0.68876 0.0
H774 H 0.95208 0.5315 0.72891 0.0
H775 H 0.89861 0.51491 0.72409 0.0
S776 S 0.90813 0.43382 0.63688 0.0
N777 N 0.94022 0.45878 0.65563 0.0
N778 N 0.88218 0.44066 0.65021 0.0
C779 C 0.89924 0.46414 0.67121 0.0
C780 C 0.93069 0.47402 0.67406 0.0
C781 C 0.58586 0.92793 0.36905 0.0
C782 C 0.5845 0.95442 0.38207 0.0
C783 C 0.58395 0.90418 0.38328 0.0
C784 C 0.58036 0.90581 0.41106 0.0
H785 H 0.58771 0.92521 0.34736 0.0
H786 H 0.58428 0.88409 0.37193 0.0
S787 S 0.57828 0.97093 0.45583 0.0
N788 N 0.58148 0.98143 0.42534 0.0
N789 N 0.57769 0.93676 0.45194 0.0
C790 C 0.58019 0.93249 0.42484 0.0
C791 C 0.58233 0.95678 0.41041 0.0
C792 C 0.07703 0.90743 0.08477 0.0
C793 C 0.05641 0.91723 0.09546 0.0
C794 C 0.1057 0.90951 0.10298 0.0
C795 C 0.11514 0.92168 0.13266 0.0
H796 H 0.07088 0.89767 0.06217 0.0
H797 H 0.12054 0.90142 0.09359 0.0
S798 S 0.0701 0.95173 0.17126 0.0
N799 N 0.04766 0.94028 0.13753 0.0
N800 N 0.10161 0.94437 0.17177 0.0
C801 C 0.09488 0.93196 0.1436 0.0
C802 C 0.06554 0.92968 0.12503 0.0
C803 C 0.8006 0.06541 0.96057 0.0
C804 C 0.775 0.06135 0.97012 0.0
C805 C 0.79782 0.05781 0.93128 0.0
C806 C 0.76932 0.04576 0.91025 0.0
H807 H 0.82306 0.07568 0.97562 0.0
H808 H 0.81823 0.06255 0.925 0.0
S809 S 0.6953 0.02654 0.92449 0.0
N810 N 0.72029 0.04148 0.95661 0.0
N811 N 0.71502 0.02707 0.90155 0.0
C812 C 0.74359 0.03971 0.91975 0.0
C813 C 0.74643 0.04753 0.94965 0.0
C814 C 0.83957 0.02774 0.70054 0.0
C815 C 0.86764 0.04929 0.7132 0.0
C816 C 0.82023 0.01812 0.71685 0.0
C817 C 0.828 0.02987 0.74644 0.0
H818 H 0.8323 0.01826 0.67774 0.0
H819 H 0.79872 0.00177 0.70594 0.0
S820 S 0.89946 0.08598 0.79041 0.0
N821 N 0.9027 0.08141 0.75754 0.0
N822 N 0.86623 0.0635 0.78808 0.0
C823 C 0.85623 0.05107 0.75956 0.0
C824 C 0.87607 0.06071 0.74299 0.0
C825 C 0.91727 0.05213 0.51284 0.0
C826 C 0.91169 0.07669 0.52496 0.0
C827 C 0.89491 0.03133 0.49026 0.0
C828 C 0.86626 0.03457 0.47847 0.0
H829 H 0.93906 0.04876 0.52102 0.0
H830 H 0.90045 0.01295 0.48147 0.0
S831 S 0.84 0.0948 0.50266 0.0
N832 N 0.87514 0.10277 0.52399 0.0
N833 N 0.8333 0.06403 0.48082 0.0
C834 C 0.86028 0.05897 0.4904 0.0
C835 C 0.88292 0.07991 0.51386 0.0
C836 C 0.79103 0.05877 0.1749 0.0
C837 C 0.80068 0.04519 0.15403 0.0
C838 C 0.79239 0.04948 0.20144 0.0
C839 C 0.80303 0.02595 0.20798 0.0
H840 H 0.78282 0.07707 0.17096 0.0
H841 H 0.78497 0.06082 0.2169 0.0
S842 S 0.82988 0.98226 0.16013 0.0
N843 N 0.8206 0.00661 0.14138 0.0
N844 N 0.82285 0.98891 0.19101 0.0
C845 C 0.81225 0.01185 0.18705 0.0
C846 C 0.81119 0.02154 0.16017 0.0
C847 C 0.54498 0.94982 0.09234 0.0
C848 C 0.55832 0.96612 0.12064 0.0
C849 C 0.56036 0.93445 0.07953 0.0
C850 C 0.58969 0.93451 0.09453 0.0
H851 H 0.52255 0.94919 0.0797 0.0
H852 H 0.54907 0.92243 0.05761 0.0
S853 S 0.63447 0.97304 0.16963 0.0
N854 N 0.60246 0.98092 0.16359 0.0
N855 N 0.63132 0.95192 0.13962 0.0
C856 C 0.60319 0.95039 0.12304 0.0
C857 C 0.58755 0.96622 0.13605 0.0
C858 C 0.20301 0.697 0.89303 0.0
C859 C 0.19673 0.72031 0.90684 0.0
C860 C 0.18069 0.67016 0.88122 0.0
C861 C 0.15113 0.66546 0.88273 0.0
H862 H 0.2253 0.69951 0.89104 0.0
H863 H 0.18666 0.65306 0.87058 0.0
S864 S 0.12316 0.71913 0.91756 0.0
N865 N 0.15885 0.73664 0.92199 0.0
N866 N 0.11703 0.68635 0.89992 0.0
C867 C 0.14464 0.68847 0.89688 0.0
C868 C 0.16737 0.71582 0.90888 0.0
C869 C 0.2749 0.34235 0.46946 0.0
C870 C 0.26281 0.35553 0.48838 0.0
C871 C 0.3056 0.35238 0.47192 0.0
C872 C 0.32565 0.37602 0.49342 0.0
H873 H 0.26077 0.32345 0.45315 0.0
H874 H 0.31379 0.34071 0.45741 0.0
S875 S 0.30484 0.42051 0.54614 0.0
N876 N 0.27284 0.39528 0.52768 0.0
N877 N 0.33063 0.4141 0.53231 0.0
C878 C 0.3136 0.39053 0.5114 0.0
C879 C 0.2822 0.38028 0.5089 0.0
C880 C 0.09564 0.44906 0.89886 0.0
C881 C 0.09657 0.47438 0.91616 0.0
C882 C 0.08942 0.42224 0.90785 0.0
C883 C 0.08361 0.41955 0.93441 0.0
H884 H 0.09892 0.44974 0.87778 0.0
H885 H 0.08807 0.4033 0.89332 0.0
S886 S 0.08645 0.47959 0.98922 0.0
N887 N 0.09356 0.49533 0.96232 0.0
N888 N 0.08163 0.4449 0.97903 0.0
C889 C 0.0858 0.44486 0.95253 0.0
C890 C 0.09237 0.47225 0.94348 0.0
C891 C 0.63044 0.65751 0.40295 0.0
C892 C 0.60742 0.66851 0.38876 0.0
C893 C 0.63373 0.63192 0.39044 0.0
C894 C 0.61423 0.61623 0.36313 0.0
H895 H 0.64619 0.66876 0.42395 0.0
H896 H 0.65195 0.62455 0.40227 0.0
S897 S 0.54981 0.63532 0.317 0.0
N898 N 0.56442 0.66136 0.34587 0.0
N899 N 0.57068 0.61338 0.3224 0.0
C900 C 0.59095 0.62684 0.34872 0.0
C901 C 0.58753 0.6529 0.36151 0.0
C902 C 0.54954 0.70025 0.84542 0.0
C903 C 0.52793 0.68621 0.81846 0.0
C904 C 0.55788 0.73033 0.85431 0.0
C905 C 0.54479 0.74757 0.8367 0.0
H906 H 0.55929 0.68784 0.86036 0.0
H907 H 0.57357 0.73988 0.87578 0.0
S908 S 0.49076 0.72236 0.7623 0.0
N909 N 0.49635 0.69257 0.77278 0.0
N910 N 0.51184 0.74899 0.78971 0.0
C911 C 0.52466 0.73415 0.80895 0.0
C912 C 0.51632 0.70353 0.79977 0.0
C913 C 0.07914 0.33102 0.1354 0.0
C914 C 0.06499 0.3323 0.1571 0.0
C915 C 0.11062 0.33731 0.14242 0.0
C916 C 0.12912 0.3455 0.17146 0.0
H917 H 0.06586 0.32591 0.11274 0.0
H918 H 0.12057 0.33712 0.12501 0.0
S919 S 0.10387 0.35115 0.23652 0.0
N920 N 0.07234 0.34117 0.20904 0.0
N921 N 0.13141 0.35381 0.22197 0.0
C922 C 0.11538 0.34631 0.19331 0.0
C923 C 0.08336 0.33947 0.18626 0.0
C924 C 0.8219 0.84332 0.67852 0.0
C925 C 0.82347 0.81828 0.66284 0.0
C926 C 0.84775 0.86706 0.69191 0.0
C927 C 0.87635 0.86669 0.69046 0.0
H928 H 0.8004 0.84494 0.67998 0.0
H929 H 0.84513 0.88601 0.7032 0.0
S930 S 0.89313 0.80556 0.65366 0.0
N931 N 0.85627 0.79401 0.64772 0.0
N932 N 0.9049 0.83853 0.67307 0.0
C933 C 0.87845 0.84143 0.67562 0.0
C934 C 0.85202 0.81729 0.66174 0.0
C935 C 0.90086 0.65401 0.66231 0.0
C936 C 0.9084 0.64831 0.63691 0.0
C937 C 0.90747 0.63906 0.68508 0.0
C938 C 0.92156 0.61743 0.68327 0.0
H939 H 0.88907 0.66974 0.66437 0.0
H940 H 0.90048 0.64392 0.70384 0.0
S941 S 0.94675 0.59489 0.62145 0.0
N942 N 0.93145 0.62022 0.61137 0.0
N943 N 0.9441 0.59204 0.6542 0.0
C944 C 0.93032 0.61229 0.65836 0.0
C945 C 0.92367 0.62773 0.63516 0.0
C946 C 0.81966 0.59551 0.85728 0.0
C947 C 0.81446 0.56644 0.8607 0.0
C948 C 0.8174 0.61632 0.87778 0.0
C949 C 0.80969 0.60899 0.90256 0.0
H950 H 0.82611 0.6025 0.83885 0.0
H951 H 0.8221 0.63845 0.87421 0.0
S952 S 0.79216 0.53548 0.92108 0.0
N953 N 0.80007 0.53109 0.89035 0.0
N954 N 0.79572 0.57021 0.92884 0.0
C955 C 0.80365 0.57983 0.90595 0.0
C956 C 0.80608 0.55859 0.88507 0.0
C957 C 0.84137 0.60318 0.12044 0.0
C958 C 0.82468 0.61701 0.1333 0.0
C959 C 0.84458 0.60777 0.09336 0.0
C960 C 0.83069 0.62587 0.07782 0.0
H961 H 0.85305 0.58956 0.13185 0.0
H962 H 0.85838 0.59732 0.08472 0.0
S963 S 0.78265 0.66546 0.10097 0.0
N964 N 0.7929 0.6485 0.12784 0.0
N965 N 0.79837 0.65663 0.07667 0.0
C966 C 0.81286 0.63886 0.08986 0.0
C967 C 0.81002 0.63458 0.11767 0.0
C968 C 0.89852 0.66876 0.44128 0.0
C969 C 0.90088 0.65531 0.41547 0.0
C970 C 0.9239 0.68084 0.46586 0.0
C971 C 0.95276 0.68001 0.4657 0.0
H972 H 0.87694 0.67031 0.44253 0.0
H973 H 0.92081 0.69117 0.48504 0.0
S974 S 0.97117 0.64628 0.40398 0.0
N975 N 0.9345 0.64113 0.3916 0.0
N976 N 0.98205 0.6638 0.43767 0.0
C977 C 0.95541 0.66617 0.44021 0.0
C978 C 0.92955 0.65384 0.41516 0.0
C979 C 0.69068 0.44192 0.44139 0.0
C980 C 0.685 0.41339 0.42747 0.0
C981 C 0.67874 0.46148 0.42673 0.0
C982 C 0.66062 0.45334 0.39751 0.0
H983 H 0.70603 0.44987 0.46324 0.0
H984 H 0.68541 0.48365 0.43794 0.0
S985 S 0.63331 0.37938 0.35321 0.0
N986 N 0.65582 0.37662 0.38428 0.0
N987 N 0.63329 0.41338 0.35681 0.0
C988 C 0.65206 0.42405 0.38434 0.0
C989 C 0.66427 0.40407 0.39929 0.0
C990 C 0.44682 0.03273 0.22253 0.0
C991 C 0.47072 0.02155 0.22213 0.0
C992 C 0.41814 0.01451 0.22025 0.0
C993 C 0.41215 0.98437 0.21772 0.0
H994 H 0.44984 0.05564 0.22332 0.0
H995 H 0.40025 0.02406 0.21954 0.0
S996 S 0.46813 0.94458 0.22005 0.0
N997 N 0.4874 0.97871 0.22235 0.0
N998 N 0.43342 0.94443 0.21795 0.0
C999 C 0.43636 0.97307 0.21932 0.0
C1000 C 0.46564 0.99167 0.2216 0.0
C1001 C 0.54168 0.42891 0.60564 0.0
C1002 C 0.52289 0.4329 0.62226 0.0
C1003 C 0.57244 0.43292 0.6187 0.0
C1004 C 0.58583 0.44127 0.64895 0.0
H1005 H 0.53248 0.422 0.58234 0.0
H1006 H 0.58572 0.42912 0.60486 0.0
S1007 S 0.54688 0.45656 0.70206 0.0
N1008 N 0.52015 0.44705 0.67047 0.0
N1009 N 0.57798 0.45474 0.69506 0.0
C1010 C 0.56746 0.44611 0.66579 0.0
C1011 C 0.53603 0.44189 0.65245 0.0
C1012 C 0.30327 0.5732 0.43473 0.0
C1013 C 0.27449 0.55871 0.41494 0.0
C1014 C 0.30743 0.57997 0.46444 0.0
C1015 C 0.28298 0.57262 0.47566 0.0
H1016 H 0.32268 0.58039 0.42717 0.0
H1017 H 0.3299 0.59212 0.47852 0.0
S1018 S 0.20366 0.53089 0.43364 0.0
N1019 N 0.22158 0.53446 0.40914 0.0
N1020 N 0.22943 0.54732 0.46498 0.0
C1021 C 0.25438 0.55652 0.4564 0.0
C1022 C 0.25014 0.54954 0.42607 0.0
C1023 C 0.35072 0.53151 0.21407 0.0
C1024 C 0.37275 0.55888 0.2213 0.0
C1025 C 0.33059 0.52383 0.23005 0.0
C1026 C 0.3316 0.54317 0.25397 0.0
H1027 H 0.34886 0.51578 0.19583 0.0
H1028 H 0.314 0.50253 0.22342 0.0
S1029 S 0.38527 0.61748 0.28232 0.0
N1030 N 0.39456 0.60537 0.25435 0.0
N1031 N 0.35677 0.59094 0.28433 0.0
C1032 C 0.35366 0.57057 0.26163 0.0
C1033 C 0.37419 0.57842 0.24532 0.0
C1034 C 0.40418 0.51585 0.98991 0.0
C1035 C 0.37597 0.52065 0.98047 0.0
C1036 C 0.42754 0.53435 0.0135 0.0
C1037 C 0.42349 0.5581 0.02897 0.0
H1038 H 0.40855 0.49801 0.9786 0.0
H1039 H 0.44891 0.52983 0.01976 0.0
S1040 S 0.35359 0.57966 0.01367 0.0
N1041 N 0.34511 0.55072 0.98867 0.0
N1042 N 0.38887 0.58516 0.03351 0.0
C1043 C 0.39522 0.56288 0.02015 0.0
C1044 C 0.37152 0.54427 0.99576 0.0
C1045 C 0.3233 0.52466 0.69746 0.0
C1046 C 0.30179 0.52741 0.71122 0.0
C1047 C 0.32449 0.53605 0.67237 0.0
C1048 C 0.30414 0.5506 0.65982 0.0
H1049 H 0.33967 0.51384 0.70625 0.0
H1050 H 0.34166 0.53346 0.66284 0.0
S1051 S 0.24297 0.5633 0.68698 0.0
N1052 N 0.25929 0.54554 0.71014 0.0
N1053 N 0.26147 0.56687 0.66293 0.0
C1054 C 0.28225 0.55328 0.67313 0.0
C1055 C 0.2811 0.54174 0.69882 0.0
C1056 C 0.89043 0.01824 0.3014 0.0
C1057 C 0.91953 0.02984 0.32162 0.0
C1058 C 0.8653 0.00538 0.31014 0.0
C1059 C 0.86818 0.0042 0.33944 0.0
H1060 H 0.88693 0.0193 0.27867 0.0
H1061 H 0.84353 0.99628 0.29383 0.0
S1062 S 0.93963 0.02983 0.4008 0.0
N1063 N 0.94995 0.03758 0.37213 0.0
N1064 N 0.90275 0.01429 0.38851 0.0
C1065 C 0.89732 0.01464 0.35969 0.0
C1066 C 0.92294 0.02733 0.3508 0.0
C1067 C 0.33595 0.71174 0.59616 0.0
C1068 C 0.34698 0.69008 0.60782 0.0
C1069 C 0.35309 0.74099 0.60465 0.0
C1070 C 0.38192 0.74994 0.6254 0.0
H1071 H 0.31402 0.7061 0.57992 0.0
H1072 H 0.34349 0.7567 0.59486 0.0
S1073 S 0.42088 0.70188 0.66338 0.0
N1074 N 0.38839 0.67962 0.64171 0.0
N1075 N 0.42057 0.73468 0.65786 0.0
C1076 C 0.39312 0.72855 0.63759 0.0
C1077 C 0.37569 0.69865 0.62875 0.0
C1078 C 0.67305 0.09864 0.77333 0.0
C1079 C 0.64542 0.07994 0.75442 0.0
C1080 C 0.69935 0.09037 0.7793 0.0
C1081 C 0.6991 0.06303 0.76669 0.0
H1082 H 0.67412 0.11917 0.785 0.0
H1083 H 0.71953 0.10491 0.79533 0.0
S1084 S 0.63422 0.00858 0.71097 0.0
N1085 N 0.62062 0.03471 0.71954 0.0
N1086 N 0.67005 0.01919 0.73094 0.0
C1087 C 0.67237 0.04528 0.74566 0.0
C1088 C 0.64555 0.05374 0.73947 0.0
C1089 C 0.49493 0.52036 0.15263 0.0
C1090 C 0.48669 0.54346 0.16406 0.0
C1091 C 0.49261 0.49532 0.16481 0.0
C1092 C 0.48187 0.49243 0.18883 0.0
H1093 H 0.50201 0.52111 0.13335 0.0
H1094 H 0.49809 0.47764 0.15454 0.0
S1095 S 0.46353 0.54924 0.23044 0.0
N1096 N 0.47214 0.56387 0.20346 0.0
N1097 N 0.46674 0.51635 0.2259 0.0
C1098 C 0.47532 0.51611 0.20154 0.0
C1099 C 0.47801 0.54176 0.18927 0.0
C1100 C 0.56418 0.12879 0.12625 0.0
C1101 C 0.53715 0.10627 0.12156 0.0
C1102 C 0.56577 0.15008 0.10881 0.0
C1103 C 0.54026 0.14985 0.08647 0.0
H1104 H 0.58435 0.12991 0.14337 0.0
H1105 H 0.58693 0.16714 0.11318 0.0
S1106 S 0.46438 0.09545 0.06455 0.0
N1107 N 0.48435 0.08499 0.09238 0.0
N1108 N 0.48765 0.12485 0.05963 0.0
C1109 C 0.51325 0.12738 0.08129 0.0
C1110 C 0.5116 0.10564 0.09885 0.0
C1111 C 0.46227 0.04809 0.29799 0.0
C1112 C 0.47542 0.02554 0.29915 0.0
C1113 C 0.43136 0.04262 0.29399 0.0
C1114 C 0.41217 0.01433 0.29045 0.0
H1115 H 0.47608 0.07039 0.30122 0.0
H1116 H 0.42279 0.06091 0.29496 0.0
S1117 S 0.43452 0.9473 0.28988 0.0
N1118 N 0.46633 0.9735 0.29525 0.0
N1119 N 0.40809 0.96331 0.2873 0.0
C1120 C 0.42474 0.99146 0.29088 0.0
C1121 C 0.45633 0.99701 0.29514 0.0
C1122 C 0.39641 0.29621 0.56602 0.0
C1123 C 0.40722 0.31035 0.54539 0.0
C1124 C 0.38602 0.26594 0.56206 0.0
C1125 C 0.38586 0.24845 0.53724 0.0
H1126 H 0.39538 0.30858 0.58523 0.0
H1127 H 0.37739 0.25626 0.57836 0.0
S1128 S 0.41365 0.2746 0.47748 0.0
N1129 N 0.41852 0.3044 0.49982 0.0
N1130 N 0.39902 0.24759 0.49236 0.0
C1131 C 0.39752 0.26227 0.51684 0.0
C1132 C 0.40819 0.29314 0.52093 0.0
C1133 C 0.24434 0.05518 0.78772 0.0
C1134 C 0.25922 0.08494 0.79817 0.0
C1135 C 0.2172 0.0414 0.79282 0.0
C1136 C 0.20382 0.05687 0.8085 0.0
H1137 H 0.25442 0.04209 0.77671 0.0
H1138 H 0.20739 0.0182 0.78549 0.0
S1139 S 0.23114 0.13622 0.83614 0.0
N1140 N 0.25668 0.13012 0.82179 0.0
N1141 N 0.20573 0.10437 0.83126 0.0
C1142 C 0.2174 0.08704 0.81726 0.0
C1143 C 0.24507 0.10102 0.81215 0.0
C1144 C 0.1537 0.27271 0.03148 0.0
C1145 C 0.14681 0.27114 0.0577 0.0
C1146 C 0.13582 0.28165 0.00849 0.0
C1147 C 0.11045 0.28932 0.01095 0.0
H1148 H 0.17326 0.26729 0.02882 0.0
H1149 H 0.14219 0.28305 0.98888 0.0
S1150 S 0.07996 0.28438 0.07298 0.0
N1151 N 0.11088 0.27475 0.08336 0.0
N1152 N 0.07773 0.2923 0.04044 0.0
C1153 C 0.10287 0.28714 0.0367 0.0
C1154 C 0.12092 0.27783 0.06001 0.0
C1155 C 0.76617 0.3687 0.33613 0.0
C1156 C 0.78036 0.37758 0.36624 0.0
C1157 C 0.7751 0.38566 0.31653 0.0
C1158 C 0.79873 0.41196 0.32625 0.0
H1159 H 0.74742 0.34892 0.32763 0.0
H1160 H 0.76348 0.378 0.29358 0.0
S1161 S 0.8447 0.44398 0.40259 0.0
N1162 N 0.82029 0.41382 0.40465 0.0
N1163 N 0.83716 0.44544 0.36774 0.0
C1164 C 0.81386 0.42057 0.35615 0.0
C1165 C 0.80461 0.40349 0.37615 0.0
C1166 C 0.09507 0.35655 0.42298 0.0
C1167 C 0.09644 0.35237 0.45141 0.0
C1168 C 0.07076 0.36359 0.40533 0.0
C1169 C 0.04691 0.36655 0.41546 0.0
H1170 H 0.11307 0.35461 0.41438 0.0
H1171 H 0.07086 0.36712 0.38375 0.0
S1172 S 0.03776 0.35418 0.48678 0.0
N1173 N 0.07033 0.34887 0.48777 0.0
N1174 N 0.02515 0.36302 0.45495 0.0
C1175 C 0.04776 0.36199 0.44366 0.0
C1176 C 0.07237 0.35459 0.46154 0.0
C1177 C 0.27454 0.86715 0.85848 0.0
C1178 C 0.24919 0.86144 0.86856 0.0
C1179 C 0.27624 0.88311 0.83616 0.0
C1180 C 0.25246 0.89357 0.82281 0.0
H1181 H 0.29333 0.85943 0.86802 0.0
H1182 H 0.29611 0.88692 0.82904 0.0
S1183 S 0.18139 0.88531 0.84147 0.0
N1184 N 0.19994 0.86817 0.86354 0.0
N1185 N 0.20319 0.89782 0.82178 0.0
C1186 C 0.22707 0.88812 0.83273 0.0
C1187 C 0.22542 0.87217 0.85553 0.0
C1188 C 0.62472 0.79203 0.53144 0.0
C1189 C 0.63225 0.79545 0.50583 0.0
C1190 C 0.64413 0.78537 0.55505 0.0
C1191 C 0.67228 0.78285 0.55433 0.0
H1192 H 0.60327 0.79378 0.53296 0.0
H1193 H 0.63648 0.78133 0.57357 0.0
S1194 S 0.70282 0.79078 0.49227 0.0
N1195 N 0.66953 0.79601 0.48087 0.0
N1196 N 0.70661 0.78444 0.52555 0.0
C1197 C 0.68004 0.78629 0.52871 0.0
C1198 C 0.65995 0.7925 0.50444 0.0
C1199 C 0.25196 0.92581 0.26058 0.0
C1200 C 0.24455 0.90982 0.23265 0.0
C1201 C 0.23194 0.92028 0.27699 0.0
C1202 C 0.20395 0.89819 0.26621 0.0
H1203 H 0.27304 0.94318 0.26948 0.0
H1204 H 0.2384 0.93366 0.29817 0.0
S1205 S 0.1757 0.84811 0.19515 0.0
N1206 N 0.20873 0.86965 0.19567 0.0
N1207 N 0.17092 0.85908 0.2262 0.0
C1208 C 0.19687 0.88134 0.23858 0.0
C1209 C 0.2172 0.8872 0.22187 0.0
C1210 C 0.69662 0.40834 0.7114 0.0
C1211 C 0.72637 0.4271 0.7221 0.0
C1212 C 0.68013 0.39894 0.73016 0.0
C1213 C 0.69272 0.40796 0.76043 0.0
H1214 H 0.68596 0.40072 0.68831 0.0
H1215 H 0.65706 0.38493 0.7207 0.0
S1216 S 0.77078 0.45563 0.79942 0.0
N1217 N 0.76847 0.45329 0.7648 0.0
N1218 N 0.73758 0.43567 0.80024 0.0
C1219 C 0.72292 0.426 0.77146 0.0
C1220 C 0.73973 0.43547 0.75227 0.0
C1221 C 0.03687 0.63506 0.59685 0.0
C1222 C 0.02532 0.65697 0.60511 0.0
C1223 C 0.04168 0.6146 0.61434 0.0
C1224 C 0.03568 0.61562 0.64107 0.0
H1225 H 0.04187 0.63346 0.57648 0.0
H1226 H 0.05028 0.59791 0.60685 0.0
S1227 S 0.00659 0.66991 0.6732 0.0
N1228 N 0.00906 0.67935 0.64211 0.0
N1229 N 0.01806 0.64097 0.67516 0.0
C1230 C 0.0246 0.63784 0.64982 0.0
C1231 C 0.01936 0.65847 0.63177 0.0
C1232 C 0.91992 0.7909 0.02797 0.0
C1233 C 0.90531 0.81057 0.03515 0.0
C1234 C 0.90482 0.76105 0.02043 0.0
C1235 C 0.87432 0.74983 0.01912 0.0
H1236 H 0.94322 0.79861 0.02818 0.0
H1237 H 0.917 0.74675 0.01493 0.0
S1238 S 0.8257 0.79253 0.03542 0.0
N1239 N 0.85866 0.8169 0.04049 0.0
N1240 N 0.83009 0.76095 0.02577 0.0
C1241 C 0.85945 0.76935 0.02628 0.0
C1242 C 0.875 0.79967 0.03445 0.0
C1243 C 0.83715 0.20283 0.08707 0.0
C1244 C 0.84774 0.17902 0.09223 0.0
C1245 C 0.85697 0.23106 0.09378 0.0
C1246 C 0.88835 0.23688 0.10598 0.0
H1247 H 0.81327 0.19974 0.07756 0.0
H1248 H 0.84743 0.24847 0.08928 0.0
S1249 S 0.92785 0.18233 0.12433 0.0
N1250 N 0.89184 0.16319 0.11066 0.0
N1251 N 0.92913 0.21636 0.12331 0.0
C1252 C 0.89935 0.21333 0.11141 0.0
C1253 C 0.87907 0.18444 0.10457 0.0
C1254 C 0.98951 0.03322 0.68439 0.0
C1255 C 0.96758 0.00688 0.66914 0.0
C1256 C 0.98981 0.05919 0.67406 0.0
C1257 C 0.9676 0.0596 0.64878 0.0
H1258 H 0.00701 0.03359 0.70388 0.0
H1259 H 0.00744 0.07899 0.68585 0.0
S1260 S 0.90483 0.99678 0.60165 0.0
N1261 N 0.92294 0.98301 0.62784 0.0
N1262 N 0.92318 0.03178 0.60888 0.0
C1263 C 0.94525 0.03357 0.63379 0.0
C1264 C 0.9453 0.00719 0.64388 0.0
C1265 C 0.57861 0.88726 0.94963 0.0
C1266 C 0.55351 0.86636 0.92938 0.0
C1267 C 0.60184 0.8792 0.96779 0.0
C1268 C 0.60068 0.84998 0.96634 0.0
H1269 H 0.58043 0.91003 0.95126 0.0
H1270 H 0.621 0.89599 0.98282 0.0
S1271 S 0.5378 0.78671 0.92022 0.0
N1272 N 0.52732 0.81503 0.91127 0.0
N1273 N 0.57145 0.79996 0.94477 0.0
C1274 C 0.57546 0.82883 0.94662 0.0
C1275 C 0.5517 0.837 0.92832 0.0
C1276 C 0.379 0.53772 0.8067 0.0
C1277 C 0.40188 0.52504 0.8062 0.0
C1278 C 0.35529 0.52479 0.8172 0.0
C1279 C 0.35329 0.49848 0.82719 0.0
H1280 H 0.38013 0.55856 0.80034 0.0
H1281 H 0.33948 0.5364 0.81905 0.0
S1282 S 0.40503 0.45448 0.82722 0.0
N1283 N 0.41937 0.48321 0.81429 0.0
N1284 N 0.37462 0.45896 0.83385 0.0
C1285 C 0.37501 0.48478 0.82541 0.0
C1286 C 0.39926 0.49796 0.81483 0.0
C1287 C 0.16808 0.54496 0.24779 0.0
C1288 C 0.19452 0.56734 0.26383 0.0
C1289 C 0.14016 0.5501 0.23877 0.0
C1290 C 0.1375 0.57783 0.24551 0.0
H1291 H 0.16853 0.52289 0.24347 0.0
H1292 H 0.12029 0.53175 0.22797 0.0
S1293 S 0.20073 0.64505 0.28173 0.0
N1294 N 0.21693 0.61924 0.28213 0.0
N1295 N 0.16438 0.6288 0.26531 0.0
C1296 C 0.16412 0.60091 0.25922 0.0
C1297 C 0.19263 0.5957 0.26833 0.0
C1298 C 0.95053 0.54348 0.7916 0.0
C1299 C 0.93353 0.53531 0.81039 0.0
C1300 C 0.98184 0.54843 0.80018 0.0
C1301 C 0.99751 0.54535 0.82801 0.0
H1302 H 0.93957 0.54562 0.76989 0.0
H1303 H 0.99378 0.55469 0.78477 0.0
S1304 S 0.96342 0.52414 0.88566 0.0
N1305 N 0.93468 0.52425 0.85821 0.0
N1306 N 0.99336 0.53332 0.87441 0.0
C1307 C 0.98071 0.53689 0.84702 0.0
C1308 C 0.94882 0.53189 0.8382 0.0
C1309 C 0.77229 0.57866 0.30221 0.0
C1310 C 0.7663 0.58737 0.27515 0.0
C1311 C 0.7495 0.56985 0.31507 0.0
C1312 C 0.71958 0.5691 0.30129 0.0
H1313 H 0.79462 0.57793 0.31336 0.0
H1314 H 0.75544 0.56323 0.33589 0.0
S1315 S 0.6919 0.58956 0.22983 0.0
N1316 N 0.72822 0.59464 0.2348 0.0
N1317 N 0.68521 0.5778 0.25876 0.0
C1318 C 0.71316 0.57752 0.27402 0.0
C1319 C 0.7365 0.58661 0.26097 0.0
loop_
_geom_bond_atom_site_label_1
_geom_bond_atom_site_label_2
_geom_bond_distance
_geom_bond_site_symmetry_2
_ccdc_geom_bond_type
O0 Cd1 2.300 1_655 S
O0 C7 1.275 . S
Cd1 O0 2.300 1_455 S
Cd1 O9 2.381 . S
Cd1 O10 2.378 . S
O2 Cd3 2.385 . S
O2 C7 1.255 . S
Cd3 O2 2.385 . S
Cd3 O4 2.317 1_655 S
O4 Cd3 2.317 1_455 S
O4 C5 1.232 . S
C5 O4 1.232 . S
C5 O6 1.218 . S
O6 C5 1.218 . S
C7 O0 1.275 . S
C7 O2 1.255 . S
C8 O9 1.258 . S
C8 O10 1.256 . S
O9 Cd1 2.381 . S
O9 C8 1.258 . S
O10 Cd1 2.378 . S
O10 C8 1.256 . S
O11 Cd12 2.300 . S
O11 C18 1.275 . S
Cd12 O11 2.300 . S
Cd12 O20 2.381 . S
Cd12 O21 2.378 . S
O13 Cd14 2.385 . S
O13 C18 1.255 . S
Cd14 O13 2.385 . S
Cd14 O15 2.317 . S
O15 Cd14 2.317 . S
O15 C16 1.232 . S
C16 O15 1.232 . S
C16 O17 1.218 . S
O17 C16 1.218 . S
C18 O11 1.275 . S
C18 O13 1.255 . S
C19 O20 1.258 . S
C19 O21 1.256 . S
O20 Cd12 2.381 . S
O20 C19 1.258 . S
O21 Cd12 2.378 . S
O21 C19 1.256 . S
O22 Cd23 2.300 . S
O22 C29 1.275 . S
Cd23 O22 2.300 . S
Cd23 O31 2.381 . S
Cd23 O32 2.378 . S
O24 Cd25 2.385 . S
O24 C29 1.255 . S
Cd25 O24 2.385 . S
Cd25 O26 2.317 . S
O26 Cd25 2.317 . S
O26 C27 1.232 . S
C27 O26 1.232 . S
C27 O28 1.218 1_545 S
O28 C27 1.218 1_565 S
C29 O22 1.275 . S
C29 O24 1.255 . S
C30 O31 1.258 . S
C30 O32 1.256 . S
O31 Cd23 2.381 . S
O31 C30 1.258 . S
O32 Cd23 2.378 . S
O32 C30 1.256 . S
O33 Cd34 2.300 . S
O33 C40 1.275 . S
Cd34 O33 2.300 . S
Cd34 O42 2.381 . S
Cd34 O43 2.378 . S
O35 Cd36 2.385 . S
O35 C40 1.255 . S
Cd36 O35 2.385 . S
Cd36 O37 2.317 . S
O37 Cd36 2.317 . S
O37 C38 1.232 . S
C38 O37 1.232 . S
C38 O39 1.218 . S
O39 C38 1.218 . S
C40 O33 1.275 . S
C40 O35 1.255 . S
C41 O42 1.258 . S
C41 O43 1.256 . S
O42 Cd34 2.381 . S
O42 C41 1.258 . S
O43 Cd34 2.378 . S
O43 C41 1.256 . S
O44 Cd45 2.300 . S
O44 C51 1.275 . S
Cd45 O44 2.300 . S
Cd45 O53 2.381 . S
Cd45 O54 2.378 . S
O46 Cd47 2.385 . S
O46 C51 1.255 . S
Cd47 O46 2.385 . S
Cd47 O48 2.317 . S
O48 Cd47 2.317 . S
O48 C49 1.232 . S
C49 O48 1.232 . S
C49 O50 1.218 . S
O50 C49 1.218 . S
C51 O44 1.275 . S
C51 O46 1.255 . S
C52 O53 1.258 1_556 S
C52 O54 1.256 1_556 S
O53 Cd45 2.381 . S
O53 C52 1.258 1_554 S
O54 Cd45 2.378 . S
O54 C52 1.256 1_554 S
O55 Cd56 2.300 . S
O55 C62 1.275 . S
Cd56 O55 2.300 . S
Cd56 O64 2.381 . S
Cd56 O65 2.378 . S
O57 Cd58 2.385 . S
O57 C62 1.255 . S
Cd58 O57 2.385 . S
Cd58 O59 2.317 . S
O59 Cd58 2.317 . S
O59 C60 1.232 . S
C60 O59 1.232 . S
C60 O61 1.218 . S
O61 C60 1.218 . S
C62 O55 1.275 . S
C62 O57 1.255 . S
C63 O64 1.258 . S
C63 O65 1.256 . S
O64 Cd56 2.381 . S
O64 C63 1.258 . S
O65 Cd56 2.378 . S
O65 C63 1.256 . S
O66 Cd67 2.300 . S
O66 C73 1.275 . S
Cd67 O66 2.300 . S
Cd67 O75 2.381 . S
Cd67 O76 2.378 . S
O68 Cd69 2.385 . S
O68 C73 1.255 . S
Cd69 O68 2.385 . S
Cd69 O70 2.317 . S
O70 Cd69 2.317 . S
O70 C71 1.232 . S
C71 O70 1.232 . S
C71 O72 1.218 . S
O72 C71 1.218 . S
C73 O66 1.275 . S
C73 O68 1.255 . S
C74 O75 1.258 . S
C74 O76 1.256 . S
O75 Cd67 2.381 . S
O75 C74 1.258 . S
O76 Cd67 2.378 . S
O76 C74 1.256 . S
O77 Cd78 2.300 . S
O77 C84 1.275 . S
Cd78 O77 2.300 . S
Cd78 O86 2.381 . S
Cd78 O87 2.378 . S
O79 Cd80 2.385 . S
O79 C84 1.255 . S
Cd80 O79 2.385 . S
Cd80 O81 2.317 . S
O81 Cd80 2.317 . S
O81 C82 1.232 . S
C82 O81 1.232 . S
C82 O83 1.218 . S
O83 C82 1.218 . S
C84 O77 1.275 . S
C84 O79 1.255 . S
C85 O86 1.258 . S
C85 O87 1.256 . S
O86 Cd78 2.381 . S
O86 C85 1.258 . S
O87 Cd78 2.378 . S
O87 C85 1.256 . S
O88 Cd89 2.300 . S
O88 C95 1.275 . S
Cd89 O88 2.300 . S
Cd89 O97 2.381 . S
Cd89 O98 2.378 . S
O90 Cd91 2.385 . S
O90 C95 1.255 . S
Cd91 O90 2.385 . S
Cd91 O92 2.317 . S
O92 Cd91 2.317 . S
O92 C93 1.232 . S
C93 O92 1.232 . S
C93 O94 1.218 . S
O94 C93 1.218 . S
C95 O88 1.275 . S
C95 O90 1.255 . S
C96 O97 1.258 . S
C96 O98 1.256 . S
O97 Cd89 2.381 . S
O97 C96 1.258 . S
O98 Cd89 2.378 . S
O98 C96 1.256 . S
O99 Cd100 2.300 . S
O99 C106 1.275 . S
Cd100 O99 2.300 . S
Cd100 O108 2.381 . S
Cd100 O109 2.378 . S
O101 Cd102 2.385 . S
O101 C106 1.255 . S
Cd102 O101 2.385 . S
Cd102 O103 2.317 . S
O103 Cd102 2.317 . S
O103 C104 1.232 . S
C104 O103 1.232 . S
C104 O105 1.218 . S
O105 C104 1.218 . S
C106 O99 1.275 . S
C106 O101 1.255 . S
C107 O108 1.258 . S
C107 O109 1.256 . S
O108 Cd100 2.381 . S
O108 C107 1.258 . S
O109 Cd100 2.378 . S
O109 C107 1.256 . S
O110 Cd111 2.300 . S
O110 C117 1.275 . S
Cd111 O110 2.300 . S
Cd111 O119 2.381 . S
Cd111 O120 2.378 . S
O112 Cd113 2.385 . S
O112 C117 1.255 . S
Cd113 O112 2.385 . S
Cd113 O114 2.317 . S
O114 Cd113 2.317 . S
O114 C115 1.232 . S
C115 O114 1.232 . S
C115 O116 1.218 . S
O116 C115 1.218 . S
C117 O110 1.275 . S
C117 O112 1.255 . S
C118 O119 1.258 . S
C118 O120 1.256 . S
O119 Cd111 2.381 . S
O119 C118 1.258 . S
O120 Cd111 2.378 . S
O120 C118 1.256 . S
O121 Cd122 2.300 . S
O121 C128 1.275 . S
Cd122 O121 2.300 . S
Cd122 O130 2.381 . S
Cd122 O131 2.378 . S
O123 Cd124 2.385 . S
O123 C128 1.255 . S
Cd124 O123 2.385 . S
Cd124 O125 2.317 . S
O125 Cd124 2.317 . S
O125 C126 1.232 . S
C126 O125 1.232 . S
C126 O127 1.218 . S
O127 C126 1.218 . S
C128 O121 1.275 . S
C128 O123 1.255 . S
C129 O130 1.258 . S
C129 O131 1.256 . S
O130 Cd122 2.381 . S
O130 C129 1.258 . S
O131 Cd122 2.378 . S
O131 C129 1.256 . S
O132 Cd133 2.300 . S
O132 C139 1.275 . S
Cd133 O132 2.300 . S
Cd133 O141 2.381 . S
Cd133 O142 2.378 . S
O134 Cd135 2.385 . S
O134 C139 1.255 . S
Cd135 O134 2.385 . S
Cd135 O136 2.317 . S
O136 Cd135 2.317 . S
O136 C137 1.232 . S
C137 O136 1.232 . S
C137 O138 1.218 . S
O138 C137 1.218 . S
C139 O132 1.275 . S
C139 O134 1.255 . S
C140 O141 1.258 . S
C140 O142 1.256 . S
O141 Cd133 2.381 . S
O141 C140 1.258 . S
O142 Cd133 2.378 . S
O142 C140 1.256 . S
O143 Cd144 2.300 . S
O143 C150 1.275 . S
Cd144 O143 2.300 . S
Cd144 O152 2.381 . S
Cd144 O153 2.378 . S
O145 Cd146 2.385 . S
O145 C150 1.255 . S
Cd146 O145 2.385 . S
Cd146 O147 2.317 . S
O147 Cd146 2.317 . S
O147 C148 1.232 . S
C148 O147 1.232 . S
C148 O149 1.218 . S
O149 C148 1.218 . S
C150 O143 1.275 . S
C150 O145 1.255 . S
C151 O152 1.258 . S
C151 O153 1.256 . S
O152 Cd144 2.381 . S
O152 C151 1.258 . S
O153 Cd144 2.378 . S
O153 C151 1.256 . S
O154 Cd155 2.300 . S
O154 C161 1.275 . S
Cd155 O154 2.300 . S
Cd155 O163 2.381 . S
Cd155 O164 2.378 . S
O156 Cd157 2.385 . S
O156 C161 1.255 . S
Cd157 O156 2.385 . S
Cd157 O158 2.317 . S
O158 Cd157 2.317 . S
O158 C159 1.232 . S
C159 O158 1.232 . S
C159 O160 1.218 . S
O160 C159 1.218 . S
C161 O154 1.275 . S
C161 O156 1.255 . S
C162 O163 1.258 . S
C162 O164 1.256 . S
O163 Cd155 2.381 . S
O163 C162 1.258 . S
O164 Cd155 2.378 . S
O164 C162 1.256 . S
O165 Cd166 2.300 . S
O165 C172 1.275 . S
Cd166 O165 2.300 . S
Cd166 O174 2.381 . S
Cd166 O175 2.378 . S
O167 Cd168 2.385 1_545 S
O167 C172 1.255 . S
Cd168 O167 2.385 1_565 S
Cd168 O169 2.317 . S
O169 Cd168 2.317 . S
O169 C170 1.232 . S
C170 O169 1.232 . S
C170 O171 1.218 . S
O171 C170 1.218 . S
C172 O165 1.275 . S
C172 O167 1.255 . S
C173 O174 1.258 . S
C173 O175 1.256 . S
O174 Cd166 2.381 . S
O174 C173 1.258 . S
O175 Cd166 2.378 . S
O175 C173 1.256 . S
O176 Cd177 2.300 . S
O176 C183 1.275 . S
Cd177 O176 2.300 . S
Cd177 O185 2.381 . S
Cd177 O186 2.378 . S
O178 Cd179 2.385 1_455 S
O178 C183 1.255 . S
Cd179 O178 2.385 1_655 S
Cd179 O180 2.317 . S
O180 Cd179 2.317 . S
O180 C181 1.232 . S
C181 O180 1.232 . S
C181 O182 1.218 . S
O182 C181 1.218 . S
C183 O176 1.275 . S
C183 O178 1.255 . S
C184 O185 1.258 . S
C184 O186 1.256 . S
O185 Cd177 2.381 . S
O185 C184 1.258 . S
O186 Cd177 2.378 . S
O186 C184 1.256 . S
O187 Cd188 2.300 . S
O187 C194 1.275 . S
Cd188 O187 2.300 . S
Cd188 O196 2.381 1_545 S
Cd188 O197 2.378 1_545 S
O189 Cd190 2.385 . S
O189 C194 1.255 . S
Cd190 O189 2.385 . S
Cd190 O191 2.317 . S
O191 Cd190 2.317 . S
O191 C192 1.232 . S
C192 O191 1.232 . S
C192 O193 1.218 . S
O193 C192 1.218 . S
C194 O187 1.275 . S
C194 O189 1.255 . S
C195 O196 1.258 . S
C195 O197 1.256 . S
O196 Cd188 2.381 1_565 S
O196 C195 1.258 . S
O197 Cd188 2.378 1_565 S
O197 C195 1.256 . S
O198 Cd199 2.300 . S
O198 C205 1.275 . S
Cd199 O198 2.300 . S
Cd199 O207 2.381 1_655 S
Cd199 O208 2.378 1_655 S
O200 Cd201 2.385 1_554 S
O200 C205 1.255 . S
Cd201 O200 2.385 1_556 S
Cd201 O202 2.317 1_556 S
O202 Cd201 2.317 1_554 S
O202 C203 1.232 . S
C203 O202 1.232 . S
C203 O204 1.218 1_554 S
O204 C203 1.218 1_556 S
C205 O198 1.275 . S
C205 O200 1.255 . S
C206 O207 1.258 . S
C206 O208 1.256 . S
O207 Cd199 2.381 1_455 S
O207 C206 1.258 . S
O208 Cd199 2.378 1_455 S
O208 C206 1.256 . S
O209 Cd210 2.300 . S
O209 C216 1.275 . S
Cd210 O209 2.300 . S
Cd210 O218 2.381 . S
Cd210 O219 2.378 . S
O211 Cd212 2.385 . S
O211 C216 1.255 . S
Cd212 O211 2.385 . S
Cd212 O213 2.317 . S
O213 Cd212 2.317 . S
O213 C214 1.232 . S
C214 O213 1.232 . S
C214 O215 1.218 . S
O215 C214 1.218 . S
C216 O209 1.275 . S
C216 O211 1.255 . S
C217 O218 1.258 . S
C217 O219 1.256 . S
O218 Cd210 2.381 . S
O218 C217 1.258 . S
O219 Cd210 2.378 . S
O219 C217 1.256 . S
O220 Cd221 2.300 . S
O220 C227 1.275 . S
Cd221 O220 2.300 . S
Cd221 O229 2.381 . S
Cd221 O230 2.378 . S
O222 Cd223 2.385 . S
O222 C227 1.255 . S
Cd223 O222 2.385 . S
Cd223 O224 2.317 . S
O224 Cd223 2.317 . S
O224 C225 1.232 . S
C225 O224 1.232 . S
C225 O226 1.218 . S
O226 C225 1.218 . S
C227 O220 1.275 . S
C227 O222 1.255 . S
C228 O229 1.258 . S
C228 O230 1.256 . S
O229 Cd221 2.381 . S
O229 C228 1.258 . S
O230 Cd221 2.378 . S
O230 C228 1.256 . S
O231 Cd232 2.300 . S
O231 C238 1.275 . S
Cd232 O231 2.300 . S
Cd232 O240 2.381 . S
Cd232 O241 2.378 . S
O233 Cd234 2.385 . S
O233 C238 1.255 . S
Cd234 O233 2.385 . S
Cd234 O235 2.317 . S
O235 Cd234 2.317 . S
O235 C236 1.232 . S
C236 O235 1.232 . S
C236 O237 1.218 . S
O237 C236 1.218 . S
C238 O231 1.275 . S
C238 O233 1.255 . S
C239 O240 1.258 . S
C239 O241 1.256 . S
O240 Cd232 2.381 . S
O240 C239 1.258 . S
O241 Cd232 2.378 . S
O241 C239 1.256 . S
O242 Cd243 2.300 . S
O242 C249 1.275 . S
Cd243 O242 2.300 . S
Cd243 O251 2.381 . S
Cd243 O252 2.378 . S
O244 Cd245 2.385 . S
O244 C249 1.255 . S
Cd245 O244 2.385 . S
Cd245 O246 2.317 . S
O246 Cd245 2.317 . S
O246 C247 1.232 . S
C247 O246 1.232 . S
C247 O248 1.218 . S
O248 C247 1.218 . S
C249 O242 1.275 . S
C249 O244 1.255 . S
C250 O251 1.258 . S
C250 O252 1.256 . S
O251 Cd243 2.381 . S
O251 C250 1.258 . S
O252 Cd243 2.378 . S
O252 C250 1.256 . S
O253 Cd254 2.300 . S
O253 C260 1.275 . S
Cd254 O253 2.300 . S
Cd254 O262 2.381 . S
Cd254 O263 2.378 . S
O255 Cd256 2.385 . S
O255 C260 1.255 . S
Cd256 O255 2.385 . S
Cd256 O257 2.317 . S
O257 Cd256 2.317 . S
O257 C258 1.232 . S
C258 O257 1.232 . S
C258 O259 1.218 . S
O259 C258 1.218 . S
C260 O253 1.275 . S
C260 O255 1.255 . S
C261 O262 1.258 . S
C261 O263 1.256 . S
O262 Cd254 2.381 . S
O262 C261 1.258 . S
O263 Cd254 2.378 . S
O263 C261 1.256 . S
O264 Cd265 2.300 . S
O264 C271 1.275 . S
Cd265 O264 2.300 . S
Cd265 O273 2.381 . S
Cd265 O274 2.378 . S
O266 Cd267 2.385 . S
O266 C271 1.255 . S
Cd267 O266 2.385 . S
Cd267 O268 2.317 . S
O268 Cd267 2.317 . S
O268 C269 1.232 . S
C269 O268 1.232 . S
C269 O270 1.218 . S
O270 C269 1.218 . S
C271 O264 1.275 . S
C271 O266 1.255 . S
C272 O273 1.258 . S
C272 O274 1.256 . S
O273 Cd265 2.381 . S
O273 C272 1.258 . S
O274 Cd265 2.378 . S
O274 C272 1.256 . S
O275 Cd276 2.300 . S
O275 C282 1.275 . S
Cd276 O275 2.300 . S
Cd276 O284 2.381 . S
Cd276 O285 2.378 . S
O277 Cd278 2.385 . S
O277 C282 1.255 . S
Cd278 O277 2.385 . S
Cd278 O279 2.317 . S
O279 Cd278 2.317 . S
O279 C280 1.232 . S
C280 O279 1.232 . S
C280 O281 1.218 . S
O281 C280 1.218 . S
C282 O275 1.275 . S
C282 O277 1.255 . S
C283 O284 1.258 . S
C283 O285 1.256 . S
O284 Cd276 2.381 . S
O284 C283 1.258 . S
O285 Cd276 2.378 . S
O285 C283 1.256 . S
O286 Cd287 2.300 . S
O286 C293 1.275 . S
Cd287 O286 2.300 . S
Cd287 O295 2.381 . S
Cd287 O296 2.378 . S
O288 Cd289 2.385 . S
O288 C293 1.255 . S
Cd289 O288 2.385 . S
Cd289 O290 2.317 . S
O290 Cd289 2.317 . S
O290 C291 1.232 . S
C291 O290 1.232 . S
C291 O292 1.218 . S
O292 C291 1.218 . S
C293 O286 1.275 . S
C293 O288 1.255 . S
C294 O295 1.258 . S
C294 O296 1.256 . S
O295 Cd287 2.381 . S
O295 C294 1.258 . S
O296 Cd287 2.378 . S
O296 C294 1.256 . S
O297 Cd298 2.300 . S
O297 C304 1.275 . S
Cd298 O297 2.300 . S
Cd298 O306 2.381 . S
Cd298 O307 2.378 . S
O299 Cd300 2.385 . S
O299 C304 1.255 . S
Cd300 O299 2.385 . S
Cd300 O301 2.317 . S
O301 Cd300 2.317 . S
O301 C302 1.232 . S
C302 O301 1.232 . S
C302 O303 1.218 . S
O303 C302 1.218 . S
C304 O297 1.275 . S
C304 O299 1.255 . S
C305 O306 1.258 . S
C305 O307 1.256 . S
O306 Cd298 2.381 . S
O306 C305 1.258 . S
O307 Cd298 2.378 . S
O307 C305 1.256 . S
O308 Cd309 2.300 . S
O308 C315 1.275 . S
Cd309 O308 2.300 . S
Cd309 O317 2.381 . S
Cd309 O318 2.378 . S
O310 Cd311 2.385 . S
O310 C315 1.255 . S
Cd311 O310 2.385 . S
Cd311 O312 2.317 . S
O312 Cd311 2.317 . S
O312 C313 1.232 . S
C313 O312 1.232 . S
C313 O314 1.218 . S
O314 C313 1.218 . S
C315 O308 1.275 . S
C315 O310 1.255 . S
C316 O317 1.258 . S
C316 O318 1.256 . S
O317 Cd309 2.381 . S
O317 C316 1.258 . S
O318 Cd309 2.378 . S
O318 C316 1.256 . S
O319 Cd320 2.300 . S
O319 C326 1.275 . S
Cd320 O319 2.300 . S
Cd320 O328 2.381 . S
Cd320 O329 2.378 . S
O321 Cd322 2.385 . S
O321 C326 1.255 . S
Cd322 O321 2.385 . S
Cd322 O323 2.317 . S
O323 Cd322 2.317 . S
O323 C324 1.232 . S
C324 O323 1.232 . S
C324 O325 1.218 . S
O325 C324 1.218 . S
C326 O319 1.275 . S
C326 O321 1.255 . S
C327 O328 1.258 . S
C327 O329 1.256 . S
O328 Cd320 2.381 . S
O328 C327 1.258 . S
O329 Cd320 2.378 . S
O329 C327 1.256 . S
O330 Cd331 2.300 . S
O330 C337 1.275 . S
Cd331 O330 2.300 . S
Cd331 O339 2.381 . S
Cd331 O340 2.378 . S
O332 Cd333 2.385 . S
O332 C337 1.255 . S
Cd333 O332 2.385 . S
Cd333 O334 2.317 . S
O334 Cd333 2.317 . S
O334 C335 1.232 . S
C335 O334 1.232 . S
C335 O336 1.218 . S
O336 C335 1.218 . S
C337 O330 1.275 . S
C337 O332 1.255 . S
C338 O339 1.258 . S
C338 O340 1.256 . S
O339 Cd331 2.381 . S
O339 C338 1.258 . S
O340 Cd331 2.378 . S
O340 C338 1.256 . S
O341 Cd342 2.300 . S
O341 C348 1.275 . S
Cd342 O341 2.300 . S
Cd342 O350 2.381 . S
Cd342 O351 2.378 . S
O343 Cd344 2.385 . S
O343 C348 1.255 . S
Cd344 O343 2.385 . S
Cd344 O345 2.317 . S
O345 Cd344 2.317 . S
O345 C346 1.232 . S
C346 O345 1.232 . S
C346 O347 1.218 . S
O347 C346 1.218 . S
C348 O341 1.275 . S
C348 O343 1.255 . S
C349 O350 1.258 1_455 S
C349 O351 1.256 1_455 S
O350 Cd342 2.381 . S
O350 C349 1.258 1_655 S
O351 Cd342 2.378 . S
O351 C349 1.256 1_655 S
O352 Cd353 2.300 . S
O352 C359 1.275 . S
Cd353 O352 2.300 . S
Cd353 O361 2.381 . S
Cd353 O362 2.378 . S
O354 Cd355 2.385 . S
O354 C359 1.255 . S
Cd355 O354 2.385 . S
Cd355 O356 2.317 . S
O356 Cd355 2.317 . S
O356 C357 1.232 . S
C357 O356 1.232 . S
C357 O358 1.218 . S
O358 C357 1.218 . S
C359 O352 1.275 . S
C359 O354 1.255 . S
C360 O361 1.258 . S
C360 O362 1.256 . S
O361 Cd353 2.381 . S
O361 C360 1.258 . S
O362 Cd353 2.378 . S
O362 C360 1.256 . S
O363 Cd364 2.300 . S
O363 C370 1.275 1_455 S
Cd364 O363 2.300 . S
Cd364 O372 2.381 . S
Cd364 O373 2.378 . S
O365 Cd366 2.385 . S
O365 C370 1.255 . S
Cd366 O365 2.385 . S
Cd366 O367 2.317 . S
O367 Cd366 2.317 . S
O367 C368 1.232 . S
C368 O367 1.232 . S
C368 O369 1.218 . S
O369 C368 1.218 . S
C370 O363 1.275 1_655 S
C370 O365 1.255 . S
C371 O372 1.258 . S
C371 O373 1.256 . S
O372 Cd364 2.381 . S
O372 C371 1.258 . S
O373 Cd364 2.378 . S
O373 C371 1.256 . S
O374 Cd375 2.300 . S
O374 C381 1.275 . S
Cd375 O374 2.300 . S
Cd375 O383 2.381 . S
Cd375 O384 2.378 . S
O376 Cd377 2.385 . S
O376 C381 1.255 . S
Cd377 O376 2.385 . S
Cd377 O378 2.317 . S
O378 Cd377 2.317 . S
O378 C379 1.232 . S
C379 O378 1.232 . S
C379 O380 1.218 . S
O380 C379 1.218 . S
C381 O374 1.275 . S
C381 O376 1.255 . S
C382 O383 1.258 . S
C382 O384 1.256 . S
O383 Cd375 2.381 . S
O383 C382 1.258 . S
O384 Cd375 2.378 . S
O384 C382 1.256 . S
O385 Cd386 2.300 . S
O385 C392 1.275 . S
Cd386 O385 2.300 . S
Cd386 O394 2.381 . S
Cd386 O395 2.378 . S
O387 Cd388 2.385 . S
O387 C392 1.255 . S
Cd388 O387 2.385 . S
Cd388 O389 2.317 . S
O389 Cd388 2.317 . S
O389 C390 1.232 . S
C390 O389 1.232 . S
C390 O391 1.218 . S
O391 C390 1.218 . S
C392 O385 1.275 . S
C392 O387 1.255 . S
C393 O394 1.258 . S
C393 O395 1.256 . S
O394 Cd386 2.381 . S
O394 C393 1.258 . S
O395 Cd386 2.378 . S
O395 C393 1.256 . S
O396 Cd397 2.300 . S
O396 C403 1.275 . S
Cd397 O396 2.300 . S
Cd397 O405 2.381 . S
Cd397 O406 2.378 . S
O398 Cd399 2.385 1_554 S
O398 C403 1.255 . S
Cd399 O398 2.385 1_556 S
Cd399 O400 2.317 . S
O400 Cd399 2.317 . S
O400 C401 1.232 . S
C401 O400 1.232 . S
C401 O402 1.218 . S
O402 C401 1.218 . S
C403 O396 1.275 . S
C403 O398 1.255 . S
C404 O405 1.258 . S
C404 O406 1.256 . S
O405 Cd397 2.381 . S
O405 C404 1.258 . S
O406 Cd397 2.378 . S
O406 C404 1.256 . S
O407 Cd408 2.300 . S
O407 C414 1.275 . S
Cd408 O407 2.300 . S
Cd408 O416 2.381 . S
Cd408 O417 2.378 . S
O409 Cd410 2.385 . S
O409 C414 1.255 . S
Cd410 O409 2.385 . S
Cd410 O411 2.317 . S
O411 Cd410 2.317 . S
O411 C412 1.232 . S
C412 O411 1.232 . S
C412 O413 1.218 . S
O413 C412 1.218 . S
C414 O407 1.275 . S
C414 O409 1.255 . S
C415 O416 1.258 . S
C415 O417 1.256 . S
O416 Cd408 2.381 . S
O416 C415 1.258 . S
O417 Cd408 2.378 . S
O417 C415 1.256 . S
O418 Cd419 2.300 . S
O418 C425 1.275 . S
Cd419 O418 2.300 . S
Cd419 O427 2.381 . S
Cd419 O428 2.378 . S
O420 Cd421 2.385 . S
O420 C425 1.255 . S
Cd421 O420 2.385 . S
Cd421 O422 2.317 . S
O422 Cd421 2.317 . S
O422 C423 1.232 . S
C423 O422 1.232 . S
C423 O424 1.218 . S
O424 C423 1.218 . S
C425 O418 1.275 . S
C425 O420 1.255 . S
C426 O427 1.258 . S
C426 O428 1.256 . S
O427 Cd419 2.381 . S
O427 C426 1.258 . S
O428 Cd419 2.378 . S
O428 C426 1.256 . S
O429 Cd430 2.300 . S
O429 C436 1.275 . S
Cd430 O429 2.300 . S
Cd430 O438 2.381 . S
Cd430 O439 2.378 . S
O431 Cd432 2.385 . S
O431 C436 1.255 . S
Cd432 O431 2.385 . S
Cd432 O433 2.317 . S
O433 Cd432 2.317 . S
O433 C434 1.232 . S
C434 O433 1.232 . S
C434 O435 1.218 . S
O435 C434 1.218 . S
C436 O429 1.275 . S
C436 O431 1.255 . S
C437 O438 1.258 . S
C437 O439 1.256 . S
O438 Cd430 2.381 . S
O438 C437 1.258 . S
O439 Cd430 2.378 . S
O439 C437 1.256 . S
O440 Cd441 2.300 1_545 S
O440 C447 1.275 . S
Cd441 O440 2.300 1_565 S
Cd441 O449 2.381 . S
Cd441 O450 2.378 . S
O442 Cd443 2.385 . S
O442 C447 1.255 . S
Cd443 O442 2.385 . S
Cd443 O444 2.317 1_545 S
O444 Cd443 2.317 1_565 S
O444 C445 1.232 . S
C445 O444 1.232 . S
C445 O446 1.218 1_565 S
O446 C445 1.218 1_545 S
C447 O440 1.275 . S
C447 O442 1.255 . S
C448 O449 1.258 . S
C448 O450 1.256 . S
O449 Cd441 2.381 . S
O449 C448 1.258 . S
O450 Cd441 2.378 . S
O450 C448 1.256 . S
O451 Cd452 2.300 . S
O451 C458 1.275 . S
Cd452 O451 2.300 . S
Cd452 O460 2.381 . S
Cd452 O461 2.378 . S
O453 Cd454 2.385 . S
O453 C458 1.255 . S
Cd454 O453 2.385 . S
Cd454 O455 2.317 . S
O455 Cd454 2.317 . S
O455 C456 1.232 . S
C456 O455 1.232 . S
C456 O457 1.218 . S
O457 C456 1.218 . S
C458 O451 1.275 . S
C458 O453 1.255 . S
C459 O460 1.258 . S
C459 O461 1.256 . S
O460 Cd452 2.381 . S
O460 C459 1.258 . S
O461 Cd452 2.378 . S
O461 C459 1.256 . S
O462 Cd463 2.300 . S
O462 C469 1.275 . S
Cd463 O462 2.300 . S
Cd463 O471 2.381 . S
Cd463 O472 2.378 . S
O464 Cd465 2.385 . S
O464 C469 1.255 . S
Cd465 O464 2.385 . S
Cd465 O466 2.317 . S
O466 Cd465 2.317 . S
O466 C467 1.232 . S
C467 O466 1.232 . S
C467 O468 1.218 . S
O468 C467 1.218 . S
C469 O462 1.275 . S
C469 O464 1.255 . S
C470 O471 1.258 . S
C470 O472 1.256 . S
O471 Cd463 2.381 . S
O471 C470 1.258 . S
O472 Cd463 2.378 . S
O472 C470 1.256 . S
O473 Cd474 2.300 . S
O473 C480 1.275 . S
Cd474 O473 2.300 . S
Cd474 O482 2.381 . S
Cd474 O483 2.378 . S
O475 Cd476 2.385 . S
O475 C480 1.255 . S
Cd476 O475 2.385 . S
Cd476 O477 2.317 . S
O477 Cd476 2.317 . S
O477 C478 1.232 . S
C478 O477 1.232 . S
C478 O479 1.218 . S
O479 C478 1.218 . S
C480 O473 1.275 . S
C480 O475 1.255 . S
C481 O482 1.258 . S
C481 O483 1.256 . S
O482 Cd474 2.381 . S
O482 C481 1.258 . S
O483 Cd474 2.378 . S
O483 C481 1.256 . S
O484 Cd485 2.300 . S
O484 C491 1.275 . S
Cd485 O484 2.300 . S
Cd485 O493 2.381 . S
Cd485 O494 2.378 . S
O486 Cd487 2.385 . S
O486 C491 1.255 . S
Cd487 O486 2.385 . S
Cd487 O488 2.317 . S
O488 Cd487 2.317 . S
O488 C489 1.232 . S
C489 O488 1.232 . S
C489 O490 1.218 . S
O490 C489 1.218 . S
C491 O484 1.275 . S
C491 O486 1.255 . S
C492 O493 1.258 . S
C492 O494 1.256 . S
O493 Cd485 2.381 . S
O493 C492 1.258 . S
O494 Cd485 2.378 . S
O494 C492 1.256 . S
O495 Cd496 2.300 . S
O495 C502 1.275 . S
Cd496 O495 2.300 . S
Cd496 O504 2.381 . S
Cd496 O505 2.378 . S
O497 Cd498 2.385 . S
O497 C502 1.255 . S
Cd498 O497 2.385 . S
Cd498 O499 2.317 . S
O499 Cd498 2.317 . S
O499 C500 1.232 . S
C500 O499 1.232 . S
C500 O501 1.218 . S
O501 C500 1.218 . S
C502 O495 1.275 . S
C502 O497 1.255 . S
C503 O504 1.258 . S
C503 O505 1.256 . S
O504 Cd496 2.381 . S
O504 C503 1.258 . S
O505 Cd496 2.378 . S
O505 C503 1.256 . S
O506 Cd507 2.300 . S
O506 C513 1.275 . S
Cd507 O506 2.300 . S
Cd507 O515 2.381 . S
Cd507 O516 2.378 . S
O508 Cd509 2.385 . S
O508 C513 1.255 . S
Cd509 O508 2.385 . S
Cd509 O510 2.317 . S
O510 Cd509 2.317 . S
O510 C511 1.232 . S
C511 O510 1.232 . S
C511 O512 1.218 . S
O512 C511 1.218 . S
C513 O506 1.275 . S
C513 O508 1.255 . S
C514 O515 1.258 . S
C514 O516 1.256 . S
O515 Cd507 2.381 . S
O515 C514 1.258 . S
O516 Cd507 2.378 . S
O516 C514 1.256 . S
O517 Cd518 2.300 . S
O517 C524 1.275 . S
Cd518 O517 2.300 . S
Cd518 O526 2.381 . S
Cd518 O527 2.378 . S
O519 Cd520 2.385 . S
O519 C524 1.255 . S
Cd520 O519 2.385 . S
Cd520 O521 2.317 . S
O521 Cd520 2.317 . S
O521 C522 1.232 . S
C522 O521 1.232 . S
C522 O523 1.218 . S
O523 C522 1.218 . S
C524 O517 1.275 . S
C524 O519 1.255 . S
C525 O526 1.258 . S
C525 O527 1.256 . S
O526 Cd518 2.381 . S
O526 C525 1.258 . S
O527 Cd518 2.378 . S
O527 C525 1.256 . S
C528 C529 1.369 . S
C528 C530 1.419 . S
C528 H532 0.930 . S
C529 C528 1.369 . S
C529 C538 1.429 . S
C530 C528 1.419 . S
C530 C531 1.363 . S
C530 H533 0.929 . S
C531 C530 1.363 . S
C531 C537 1.428 . S
H532 C528 0.930 . S
H533 C530 0.929 . S
S534 N535 1.613 . S
S534 N536 1.610 . S
N535 S534 1.613 . S
N535 C538 1.350 1_655 S
N536 S534 1.610 . S
N536 C537 1.351 1_655 S
C537 C531 1.428 . S
C537 N536 1.351 1_455 S
C537 C538 1.434 . S
C538 C529 1.429 . S
C538 N535 1.350 1_455 S
C538 C537 1.434 . S
C539 C540 1.369 . S
C539 C541 1.419 . S
C539 H543 0.930 . S
C540 C539 1.369 . S
C540 C549 1.429 . S
C541 C539 1.419 . S
C541 C542 1.363 . S
C541 H544 0.929 . S
C542 C541 1.363 . S
C542 C548 1.428 . S
H543 C539 0.930 . S
H544 C541 0.929 . S
S545 N546 1.613 . S
S545 N547 1.610 . S
N546 S545 1.613 . S
N546 C549 1.350 . S
N547 S545 1.610 . S
N547 C548 1.351 . S
C548 C542 1.428 . S
C548 N547 1.351 . S
C548 C549 1.434 . S
C549 C540 1.429 . S
C549 N546 1.350 . S
C549 C548 1.434 . S
C550 C551 1.369 . S
C550 C552 1.419 . S
C550 H554 0.930 . S
C551 C550 1.369 . S
C551 C560 1.429 . S
C552 C550 1.419 . S
C552 C553 1.363 . S
C552 H555 0.929 . S
C553 C552 1.363 . S
C553 C559 1.428 . S
H554 C550 0.930 . S
H555 C552 0.929 . S
S556 N557 1.613 . S
S556 N558 1.610 . S
N557 S556 1.613 . S
N557 C560 1.350 . S
N558 S556 1.610 . S
N558 C559 1.351 . S
C559 C553 1.428 . S
C559 N558 1.351 . S
C559 C560 1.434 . S
C560 C551 1.429 . S
C560 N557 1.350 . S
C560 C559 1.434 . S
C561 C562 1.369 . S
C561 C563 1.419 . S
C561 H565 0.930 . S
C562 C561 1.369 . S
C562 C571 1.429 . S
C563 C561 1.419 . S
C563 C564 1.363 . S
C563 H566 0.929 . S
C564 C563 1.363 . S
C564 C570 1.428 . S
H565 C561 0.930 . S
H566 C563 0.929 . S
S567 N568 1.613 . S
S567 N569 1.610 . S
N568 S567 1.613 . S
N568 C571 1.350 . S
N569 S567 1.610 . S
N569 C570 1.351 . S
C570 C564 1.428 . S
C570 N569 1.351 . S
C570 C571 1.434 . S
C571 C562 1.429 . S
C571 N568 1.350 . S
C571 C570 1.434 . S
C572 C573 1.370 . S
C572 C574 1.416 1_545 S
C572 H576 0.931 . S
C573 C572 1.370 . S
C573 C582 1.429 1_545 S
C574 C572 1.416 1_565 S
C574 C575 1.363 . S
C574 H577 0.929 . S
C575 C574 1.363 . S
C575 C581 1.428 . S
H576 C572 0.931 . S
H577 C574 0.929 . S
S578 N579 1.613 . S
S578 N580 1.610 . S
N579 S578 1.613 . S
N579 C582 1.350 . S
N580 S578 1.610 . S
N580 C581 1.351 . S
C581 C575 1.428 . S
C581 N580 1.351 . S
C581 C582 1.434 . S
C582 C573 1.429 1_565 S
C582 N579 1.350 . S
C582 C581 1.434 . S
C583 C584 1.369 . S
C583 C585 1.419 . S
C583 H587 0.930 . S
C584 C583 1.369 . S
C584 C593 1.429 . S
C585 C583 1.419 . S
C585 C586 1.363 . S
C585 H588 0.929 . S
C586 C585 1.363 . S
C586 C592 1.428 . S
H587 C583 0.930 . S
H588 C585 0.929 . S
S589 N590 1.613 . S
S589 N591 1.610 . S
N590 S589 1.613 . S
N590 C593 1.350 . S
N591 S589 1.610 . S
N591 C592 1.351 . S
C592 C586 1.428 . S
C592 N591 1.351 . S
C592 C593 1.434 . S
C593 C584 1.429 . S
C593 N590 1.350 . S
C593 C592 1.434 . S
C594 C595 1.369 . S
C594 C596 1.419 . S
C594 H598 0.930 . S
C595 C594 1.369 . S
C595 C604 1.429 . S
C596 C594 1.419 . S
C596 C597 1.363 . S
C596 H599 0.929 . S
C597 C596 1.363 . S
C597 C603 1.428 . S
H598 C594 0.930 . S
H599 C596 0.929 . S
S600 N601 1.613 . S
S600 N602 1.610 . S
N601 S600 1.613 . S
N601 C604 1.350 . S
N602 S600 1.610 . S
N602 C603 1.351 . S
C603 C597 1.428 . S
C603 N602 1.351 . S
C603 C604 1.434 . S
C604 C595 1.429 . S
C604 N601 1.350 . S
C604 C603 1.434 . S
C605 C606 1.369 . S
C605 C607 1.419 . S
C605 H609 0.930 . S
C606 C605 1.369 . S
C606 C615 1.429 . S
C607 C605 1.419 . S
C607 C608 1.363 . S
C607 H610 0.929 . S
C608 C607 1.363 . S
C608 C614 1.428 . S
H609 C605 0.930 . S
H610 C607 0.929 . S
S611 N612 1.613 . S
S611 N613 1.610 . S
N612 S611 1.613 . S
N612 C615 1.350 . S
N613 S611 1.610 . S
N613 C614 1.351 . S
C614 C608 1.428 . S
C614 N613 1.351 . S
C614 C615 1.434 . S
C615 C606 1.429 . S
C615 N612 1.350 . S
C615 C614 1.434 . S
C616 C617 1.369 . S
C616 C618 1.419 . S
C616 H620 0.930 . S
C617 C616 1.369 . S
C617 C626 1.429 . S
C618 C616 1.419 . S
C618 C619 1.363 . S
C618 H621 0.929 . S
C619 C618 1.363 . S
C619 C625 1.428 . S
H620 C616 0.930 . S
H621 C618 0.929 . S
S622 N623 1.613 . S
S622 N624 1.610 . S
N623 S622 1.613 . S
N623 C626 1.350 . S
N624 S622 1.610 . S
N624 C625 1.351 . S
C625 C619 1.428 . S
C625 N624 1.351 . S
C625 C626 1.434 . S
C626 C617 1.429 . S
C626 N623 1.350 . S
C626 C625 1.434 . S
C627 C628 1.369 . S
C627 C629 1.419 . S
C627 H631 0.930 . S
C628 C627 1.369 . S
C628 C637 1.429 . S
C629 C627 1.419 . S
C629 C630 1.363 . S
C629 H632 0.929 . S
C630 C629 1.363 . S
C630 C636 1.428 . S
H631 C627 0.930 . S
H632 C629 0.929 . S
S633 N634 1.613 . S
S633 N635 1.610 . S
N634 S633 1.613 . S
N634 C637 1.350 . S
N635 S633 1.610 . S
N635 C636 1.351 . S
C636 C630 1.428 . S
C636 N635 1.351 . S
C636 C637 1.434 . S
C637 C628 1.429 . S
C637 N634 1.350 . S
C637 C636 1.434 . S
C638 C639 1.369 . S
C638 C640 1.419 . S
C638 H642 0.930 . S
C639 C638 1.369 . S
C639 C648 1.429 . S
C640 C638 1.419 . S
C640 C641 1.363 . S
C640 H643 0.929 . S
C641 C640 1.363 . S
C641 C647 1.428 . S
H642 C638 0.930 . S
H643 C640 0.929 . S
S644 N645 1.613 . S
S644 N646 1.610 . S
N645 S644 1.613 . S
N645 C648 1.350 . S
N646 S644 1.610 . S
N646 C647 1.351 . S
C647 C641 1.428 . S
C647 N646 1.351 . S
C647 C648 1.434 . S
C648 C639 1.429 . S
C648 N645 1.350 . S
C648 C647 1.434 . S
C649 C650 1.369 . S
C649 C651 1.419 . S
C649 H653 0.930 . S
C650 C649 1.369 . S
C650 C659 1.429 . S
C651 C649 1.419 . S
C651 C652 1.363 . S
C651 H654 0.929 . S
C652 C651 1.363 . S
C652 C658 1.428 . S
H653 C649 0.930 . S
H654 C651 0.929 . S
S655 N656 1.613 . S
S655 N657 1.610 . S
N656 S655 1.613 . S
N656 C659 1.350 . S
N657 S655 1.610 . S
N657 C658 1.351 . S
C658 C652 1.428 . S
C658 N657 1.351 . S
C658 C659 1.434 . S
C659 C650 1.429 . S
C659 N656 1.350 . S
C659 C658 1.434 . S
C660 C661 1.369 . S
C660 C662 1.419 . S
C660 H664 0.930 . S
C661 C660 1.369 . S
C661 C670 1.429 . S
C662 C660 1.419 . S
C662 C663 1.363 . S
C662 H665 0.929 . S
C663 C662 1.363 . S
C663 C669 1.428 . S
H664 C660 0.930 . S
H665 C662 0.929 . S
S666 N667 1.613 . S
S666 N668 1.610 . S
N667 S666 1.613 . S
N667 C670 1.350 . S
N668 S666 1.610 . S
N668 C669 1.351 . S
C669 C663 1.428 . S
C669 N668 1.351 . S
C669 C670 1.434 . S
C670 C661 1.429 . S
C670 N667 1.350 . S
C670 C669 1.434 . S
C671 C672 1.369 . S
C671 C673 1.419 . S
C671 H675 0.930 . S
C672 C671 1.369 . S
C672 C681 1.429 . S
C673 C671 1.419 . S
C673 C674 1.363 . S
C673 H676 0.929 . S
C674 C673 1.363 . S
C674 C680 1.428 . S
H675 C671 0.930 . S
H676 C673 0.929 . S
S677 N678 1.613 . S
S677 N679 1.610 . S
N678 S677 1.613 . S
N678 C681 1.350 1_655 S
N679 S677 1.610 . S
N679 C680 1.351 1_655 S
C680 C674 1.428 . S
C680 N679 1.351 1_455 S
C680 C681 1.434 . S
C681 C672 1.429 . S
C681 N678 1.350 1_455 S
C681 C680 1.434 . S
C682 C683 1.369 . S
C682 C684 1.419 . S
C682 H686 0.930 . S
C683 C682 1.369 . S
C683 C692 1.429 . S
C684 C682 1.419 . S
C684 C685 1.363 . S
C684 H687 0.929 . S
C685 C684 1.363 . S
C685 C691 1.428 . S
H686 C682 0.930 . S
H687 C684 0.929 . S
S688 N689 1.613 . S
S688 N690 1.610 . S
N689 S688 1.613 . S
N689 C692 1.350 . S
N690 S688 1.610 . S
N690 C691 1.351 . S
C691 C685 1.428 . S
C691 N690 1.351 . S
C691 C692 1.434 . S
C692 C683 1.429 . S
C692 N689 1.350 . S
C692 C691 1.434 . S
C693 C694 1.369 . S
C693 C695 1.419 . S
C693 H697 0.930 . S
C694 C693 1.369 . S
C694 C703 1.429 . S
C695 C693 1.419 . S
C695 C696 1.363 . S
C695 H698 0.929 . S
C696 C695 1.363 . S
C696 C702 1.428 . S
H697 C693 0.930 . S
H698 C695 0.929 . S
S699 N700 1.613 . S
S699 N701 1.610 . S
N700 S699 1.613 . S
N700 C703 1.350 . S
N701 S699 1.610 . S
N701 C702 1.351 . S
C702 C696 1.428 . S
C702 N701 1.351 . S
C702 C703 1.434 . S
C703 C694 1.429 . S
C703 N700 1.350 . S
C703 C702 1.434 . S
C704 C705 1.369 . S
C704 C706 1.419 . S
C704 H708 0.930 . S
C705 C704 1.369 . S
C705 C714 1.429 . S
C706 C704 1.419 . S
C706 C707 1.363 . S
C706 H709 0.929 . S
C707 C706 1.363 . S
C707 C713 1.428 . S
H708 C704 0.930 . S
H709 C706 0.929 . S
S710 N711 1.613 . S
S710 N712 1.610 . S
N711 S710 1.613 . S
N711 C714 1.350 . S
N712 S710 1.610 . S
N712 C713 1.351 . S
C713 C707 1.428 . S
C713 N712 1.351 . S
C713 C714 1.434 . S
C714 C705 1.429 . S
C714 N711 1.350 . S
C714 C713 1.434 . S
C715 C716 1.369 . S
C715 C717 1.419 . S
C715 H719 0.930 . S
C716 C715 1.369 . S
C716 C725 1.429 . S
C717 C715 1.419 . S
C717 C718 1.363 . S
C717 H720 0.929 . S
C718 C717 1.363 . S
C718 C724 1.428 . S
H719 C715 0.930 . S
H720 C717 0.929 . S
S721 N722 1.613 . S
S721 N723 1.610 . S
N722 S721 1.613 . S
N722 C725 1.350 . S
N723 S721 1.610 . S
N723 C724 1.351 . S
C724 C718 1.428 . S
C724 N723 1.351 . S
C724 C725 1.434 . S
C725 C716 1.429 . S
C725 N722 1.350 . S
C725 C724 1.434 . S
C726 C727 1.369 . S
C726 C728 1.419 . S
C726 H730 0.930 . S
C727 C726 1.369 . S
C727 C736 1.429 . S
C728 C726 1.419 . S
C728 C729 1.363 . S
C728 H731 0.929 . S
C729 C728 1.363 . S
C729 C735 1.428 . S
H730 C726 0.930 . S
H731 C728 0.929 . S
S732 N733 1.613 . S
S732 N734 1.610 . S
N733 S732 1.613 . S
N733 C736 1.350 . S
N734 S732 1.610 . S
N734 C735 1.351 . S
C735 C729 1.428 . S
C735 N734 1.351 . S
C735 C736 1.434 . S
C736 C727 1.429 . S
C736 N733 1.350 . S
C736 C735 1.434 . S
C737 C738 1.369 . S
C737 C739 1.419 . S
C737 H741 0.930 . S
C738 C737 1.369 . S
C738 C747 1.429 . S
C739 C737 1.419 . S
C739 C740 1.363 . S
C739 H742 0.929 . S
C740 C739 1.363 . S
C740 C746 1.428 . S
H741 C737 0.930 . S
H742 C739 0.929 . S
S743 N744 1.613 . S
S743 N745 1.610 . S
N744 S743 1.613 . S
N744 C747 1.350 . S
N745 S743 1.610 . S
N745 C746 1.351 . S
C746 C740 1.428 . S
C746 N745 1.351 . S
C746 C747 1.434 . S
C747 C738 1.429 . S
C747 N744 1.350 . S
C747 C746 1.434 . S
C748 C749 1.369 . S
C748 C750 1.419 . S
C748 H752 0.930 . S
C749 C748 1.369 . S
C749 C758 1.429 . S
C750 C748 1.419 . S
C750 C751 1.363 . S
C750 H753 0.929 . S
C751 C750 1.363 . S
C751 C757 1.428 . S
H752 C748 0.930 . S
H753 C750 0.929 . S
S754 N755 1.613 . S
S754 N756 1.610 1_556 S
N755 S754 1.613 . S
N755 C758 1.350 1_556 S
N756 S754 1.610 1_554 S
N756 C757 1.351 . S
C757 C751 1.428 . S
C757 N756 1.351 . S
C757 C758 1.434 . S
C758 C749 1.429 . S
C758 N755 1.350 1_554 S
C758 C757 1.434 . S
C759 C760 1.369 . S
C759 C761 1.419 . S
C759 H763 0.930 . S
C760 C759 1.369 . S
C760 C769 1.429 . S
C761 C759 1.419 . S
C761 C762 1.363 . S
C761 H764 0.929 . S
C762 C761 1.363 . S
C762 C768 1.428 . S
H763 C759 0.930 . S
H764 C761 0.929 . S
S765 N766 1.613 . S
S765 N767 1.610 . S
N766 S765 1.613 . S
N766 C769 1.350 . S
N767 S765 1.610 . S
N767 C768 1.351 . S
C768 C762 1.428 . S
C768 N767 1.351 . S
C768 C769 1.434 . S
C769 C760 1.429 . S
C769 N766 1.350 . S
C769 C768 1.434 . S
C770 C771 1.369 . S
C770 C772 1.419 . S
C770 H774 0.930 . S
C771 C770 1.369 . S
C771 C780 1.429 . S
C772 C770 1.419 . S
C772 C773 1.363 . S
C772 H775 0.929 . S
C773 C772 1.363 . S
C773 C779 1.428 . S
H774 C770 0.930 . S
H775 C772 0.929 . S
S776 N777 1.613 . S
S776 N778 1.610 . S
N777 S776 1.613 . S
N777 C780 1.350 . S
N778 S776 1.610 . S
N778 C779 1.351 . S
C779 C773 1.428 . S
C779 N778 1.351 . S
C779 C780 1.434 . S
C780 C771 1.429 . S
C780 N777 1.350 . S
C780 C779 1.434 . S
C781 C782 1.369 . S
C781 C783 1.419 . S
C781 H785 0.930 . S
C782 C781 1.369 . S
C782 C791 1.429 . S
C783 C781 1.419 . S
C783 C784 1.363 . S
C783 H786 0.929 . S
C784 C783 1.363 . S
C784 C790 1.428 . S
H785 C781 0.930 . S
H786 C783 0.929 . S
S787 N788 1.613 . S
S787 N789 1.610 . S
N788 S787 1.613 . S
N788 C791 1.350 . S
N789 S787 1.610 . S
N789 C790 1.351 . S
C790 C784 1.428 . S
C790 N789 1.351 . S
C790 C791 1.434 . S
C791 C782 1.429 . S
C791 N788 1.350 . S
C791 C790 1.434 . S
C792 C793 1.369 . S
C792 C794 1.419 . S
C792 H796 0.930 . S
C793 C792 1.369 . S
C793 C802 1.429 . S
C794 C792 1.419 . S
C794 C795 1.363 . S
C794 H797 0.929 . S
C795 C794 1.363 . S
C795 C801 1.428 . S
H796 C792 0.930 . S
H797 C794 0.929 . S
S798 N799 1.613 . S
S798 N800 1.610 . S
N799 S798 1.613 . S
N799 C802 1.350 . S
N800 S798 1.610 . S
N800 C801 1.351 . S
C801 C795 1.428 . S
C801 N800 1.351 . S
C801 C802 1.434 . S
C802 C793 1.429 . S
C802 N799 1.350 . S
C802 C801 1.434 . S
C803 C804 1.369 . S
C803 C805 1.419 . S
C803 H807 0.930 1_556 S
C804 C803 1.369 . S
C804 C813 1.429 . S
C805 C803 1.419 . S
C805 C806 1.363 . S
C805 H808 0.929 . S
C806 C805 1.363 . S
C806 C812 1.428 . S
H807 C803 0.930 1_554 S
H808 C805 0.929 . S
S809 N810 1.613 . S
S809 N811 1.610 . S
N810 S809 1.613 . S
N810 C813 1.350 . S
N811 S809 1.610 . S
N811 C812 1.351 . S
C812 C806 1.428 . S
C812 N811 1.351 . S
C812 C813 1.434 . S
C813 C804 1.429 . S
C813 N810 1.350 . S
C813 C812 1.434 . S
C814 C815 1.369 . S
C814 C816 1.419 . S
C814 H818 0.930 . S
C815 C814 1.369 . S
C815 C824 1.429 . S
C816 C814 1.419 . S
C816 C817 1.363 . S
C816 H819 0.929 . S
C817 C816 1.363 . S
C817 C823 1.428 . S
H818 C814 0.930 . S
H819 C816 0.929 . S
S820 N821 1.613 . S
S820 N822 1.610 . S
N821 S820 1.613 . S
N821 C824 1.350 . S
N822 S820 1.610 . S
N822 C823 1.351 . S
C823 C817 1.428 . S
C823 N822 1.351 . S
C823 C824 1.434 . S
C824 C815 1.429 . S
C824 N821 1.350 . S
C824 C823 1.434 . S
C825 C826 1.369 . S
C825 C827 1.419 . S
C825 H829 0.930 . S
C826 C825 1.369 . S
C826 C835 1.429 . S
C827 C825 1.419 . S
C827 C828 1.363 . S
C827 H830 0.929 . S
C828 C827 1.363 . S
C828 C834 1.428 . S
H829 C825 0.930 . S
H830 C827 0.929 . S
S831 N832 1.613 . S
S831 N833 1.610 . S
N832 S831 1.613 . S
N832 C835 1.350 . S
N833 S831 1.610 . S
N833 C834 1.351 . S
C834 C828 1.428 . S
C834 N833 1.351 . S
C834 C835 1.434 . S
C835 C826 1.429 . S
C835 N832 1.350 . S
C835 C834 1.434 . S
C836 C837 1.369 . S
C836 C838 1.419 . S
C836 H840 0.930 . S
C837 C836 1.369 . S
C837 C846 1.429 . S
C838 C836 1.419 . S
C838 C839 1.363 . S
C838 H841 0.929 . S
C839 C838 1.363 . S
C839 C845 1.428 . S
H840 C836 0.930 . S
H841 C838 0.929 . S
S842 N843 1.613 1_565 S
S842 N844 1.603 1_565 S
N843 S842 1.613 1_545 S
N843 C846 1.350 . S
N844 S842 1.603 1_545 S
N844 C845 1.392 . S
C845 C839 1.428 . S
C845 N844 1.392 . S
C845 C846 1.434 . S
C846 C837 1.429 . S
C846 N843 1.350 . S
C846 C845 1.434 . S
C847 C848 1.369 . S
C847 C849 1.419 . S
C847 H851 0.930 . S
C848 C847 1.369 . S
C848 C857 1.429 . S
C849 C847 1.419 . S
C849 C850 1.363 . S
C849 H852 0.929 . S
C850 C849 1.363 . S
C850 C856 1.428 . S
H851 C847 0.930 . S
H852 C849 0.929 . S
S853 N854 1.613 . S
S853 N855 1.610 . S
N854 S853 1.613 . S
N854 C857 1.350 . S
N855 S853 1.610 . S
N855 C856 1.351 . S
C856 C850 1.428 . S
C856 N855 1.351 . S
C856 C857 1.434 . S
C857 C848 1.429 . S
C857 N854 1.350 . S
C857 C856 1.434 . S
C858 C859 1.369 . S
C858 C860 1.419 . S
C858 H862 0.930 . S
C859 C858 1.369 . S
C859 C868 1.429 . S
C860 C858 1.419 . S
C860 C861 1.363 . S
C860 H863 0.929 . S
C861 C860 1.363 . S
C861 C867 1.428 . S
H862 C858 0.930 . S
H863 C860 0.929 . S
S864 N865 1.613 . S
S864 N866 1.610 . S
N865 S864 1.613 . S
N865 C868 1.350 . S
N866 S864 1.610 . S
N866 C867 1.351 . S
C867 C861 1.428 . S
C867 N866 1.351 . S
C867 C868 1.434 . S
C868 C859 1.429 . S
C868 N865 1.350 . S
C868 C867 1.434 . S
C869 C870 1.369 . S
C869 C871 1.419 . S
C869 H873 0.930 . S
C870 C869 1.369 . S
C870 C879 1.429 . S
C871 C869 1.419 . S
C871 C872 1.363 . S
C871 H874 0.929 . S
C872 C871 1.363 . S
C872 C878 1.428 . S
H873 C869 0.930 . S
H874 C871 0.929 . S
S875 N876 1.613 . S
S875 N877 1.610 . S
N876 S875 1.613 . S
N876 C879 1.350 . S
N877 S875 1.610 . S
N877 C878 1.351 . S
C878 C872 1.428 . S
C878 N877 1.351 . S
C878 C879 1.434 . S
C879 C870 1.429 . S
C879 N876 1.350 . S
C879 C878 1.434 . S
C880 C881 1.369 . S
C880 C882 1.419 . S
C880 H884 0.930 . S
C881 C880 1.369 . S
C881 C890 1.429 . S
C882 C880 1.419 . S
C882 C883 1.363 . S
C882 H885 0.929 . S
C883 C882 1.363 . S
C883 C889 1.428 . S
H884 C880 0.930 . S
H885 C882 0.929 . S
S886 N887 1.613 . S
S886 N888 1.610 . S
N887 S886 1.613 . S
N887 C890 1.350 . S
N888 S886 1.610 . S
N888 C889 1.351 . S
C889 C883 1.428 . S
C889 N888 1.351 . S
C889 C890 1.434 . S
C890 C881 1.429 . S
C890 N887 1.350 . S
C890 C889 1.434 . S
C891 C892 1.369 . S
C891 C893 1.419 . S
C891 H895 0.930 . S
C892 C891 1.369 . S
C892 C901 1.429 . S
C893 C891 1.419 . S
C893 C894 1.363 . S
C893 H896 0.929 . S
C894 C893 1.363 . S
C894 C900 1.428 . S
H895 C891 0.930 . S
H896 C893 0.929 . S
S897 N898 1.613 . S
S897 N899 1.610 . S
N898 S897 1.613 . S
N898 C901 1.350 . S
N899 S897 1.610 . S
N899 C900 1.351 . S
C900 C894 1.428 . S
C900 N899 1.351 . S
C900 C901 1.434 . S
C901 C892 1.429 . S
C901 N898 1.350 . S
C901 C900 1.434 . S
C902 C903 1.369 . S
C902 C904 1.419 . S
C902 H906 0.930 . S
C903 C902 1.369 . S
C903 C912 1.429 . S
C904 C902 1.419 . S
C904 C905 1.363 . S
C904 H907 0.929 . S
C905 C904 1.363 . S
C905 C911 1.428 . S
H906 C902 0.930 . S
H907 C904 0.929 . S
S908 N909 1.613 . S
S908 N910 1.610 . S
N909 S908 1.613 . S
N909 C912 1.350 . S
N910 S908 1.610 . S
N910 C911 1.351 . S
C911 C905 1.428 . S
C911 N910 1.351 . S
C911 C912 1.434 . S
C912 C903 1.429 . S
C912 N909 1.350 . S
C912 C911 1.434 . S
C913 C914 1.369 . S
C913 C915 1.419 . S
C913 H917 0.930 . S
C914 C913 1.369 . S
C914 C923 1.429 . S
C915 C913 1.419 . S
C915 C916 1.363 . S
C915 H918 0.929 . S
C916 C915 1.363 . S
C916 C922 1.428 . S
H917 C913 0.930 . S
H918 C915 0.929 . S
S919 N920 1.613 . S
S919 N921 1.610 . S
N920 S919 1.613 . S
N920 C923 1.350 . S
N921 S919 1.610 . S
N921 C922 1.351 . S
C922 C916 1.428 . S
C922 N921 1.351 . S
C922 C923 1.434 . S
C923 C914 1.429 . S
C923 N920 1.350 . S
C923 C922 1.434 . S
C924 C925 1.369 . S
C924 C926 1.419 . S
C924 H928 0.930 . S
C925 C924 1.369 . S
C925 C934 1.429 . S
C926 C924 1.419 . S
C926 C927 1.363 . S
C926 H929 0.929 . S
C927 C926 1.363 . S
C927 C933 1.428 . S
H928 C924 0.930 . S
H929 C926 0.929 . S
S930 N931 1.613 . S
S930 N932 1.610 . S
N931 S930 1.613 . S
N931 C934 1.350 . S
N932 S930 1.610 . S
N932 C933 1.351 . S
C933 C927 1.428 . S
C933 N932 1.351 . S
C933 C934 1.434 . S
C934 C925 1.429 . S
C934 N931 1.350 . S
C934 C933 1.434 . S
C935 C936 1.369 . S
C935 C937 1.419 . S
C935 H939 0.930 . S
C936 C935 1.369 . S
C936 C945 1.429 . S
C937 C935 1.419 . S
C937 C938 1.363 . S
C937 H940 0.929 . S
C938 C937 1.363 . S
C938 C944 1.428 . S
H939 C935 0.930 . S
H940 C937 0.929 . S
S941 N942 1.613 . S
S941 N943 1.610 . S
N942 S941 1.613 . S
N942 C945 1.350 . S
N943 S941 1.610 . S
N943 C944 1.351 . S
C944 C938 1.428 . S
C944 N943 1.351 . S
C944 C945 1.434 . S
C945 C936 1.429 . S
C945 N942 1.350 . S
C945 C944 1.434 . S
C946 C947 1.369 . S
C946 C948 1.419 . S
C946 H950 0.930 . S
C947 C946 1.369 . S
C947 C956 1.429 . S
C948 C946 1.419 . S
C948 C949 1.363 . S
C948 H951 0.929 . S
C949 C948 1.363 . S
C949 C955 1.428 . S
H950 C946 0.930 . S
H951 C948 0.929 . S
S952 N953 1.613 . S
S952 N954 1.610 . S
N953 S952 1.613 . S
N953 C956 1.350 . S
N954 S952 1.610 . S
N954 C955 1.351 . S
C955 C949 1.428 . S
C955 N954 1.351 . S
C955 C956 1.434 . S
C956 C947 1.429 . S
C956 N953 1.350 . S
C956 C955 1.434 . S
C957 C958 1.369 . S
C957 C959 1.419 . S
C957 H961 0.930 . S
C958 C957 1.369 . S
C958 C967 1.429 . S
C959 C957 1.419 . S
C959 C960 1.363 . S
C959 H962 0.929 . S
C960 C959 1.363 . S
C960 C966 1.428 . S
H961 C957 0.930 . S
H962 C959 0.929 . S
S963 N964 1.613 . S
S963 N965 1.610 . S
N964 S963 1.613 . S
N964 C967 1.350 . S
N965 S963 1.610 . S
N965 C966 1.351 . S
C966 C960 1.428 . S
C966 N965 1.351 . S
C966 C967 1.434 . S
C967 C958 1.429 . S
C967 N964 1.350 . S
C967 C966 1.434 . S
C968 C969 1.369 . S
C968 C970 1.419 . S
C968 H972 0.930 . S
C969 C968 1.369 . S
C969 C978 1.429 . S
C970 C968 1.419 . S
C970 C971 1.363 . S
C970 H973 0.929 . S
C971 C970 1.363 . S
C971 C977 1.428 . S
H972 C968 0.930 . S
H973 C970 0.929 . S
S974 N975 1.613 . S
S974 N976 1.610 . S
N975 S974 1.613 . S
N975 C978 1.350 . S
N976 S974 1.610 . S
N976 C977 1.351 . S
C977 C971 1.428 . S
C977 N976 1.351 . S
C977 C978 1.434 . S
C978 C969 1.429 . S
C978 N975 1.350 . S
C978 C977 1.434 . S
C979 C980 1.369 . S
C979 C981 1.419 . S
C979 H983 0.930 . S
C980 C979 1.369 . S
C980 C989 1.429 . S
C981 C979 1.419 . S
C981 C982 1.363 . S
C981 H984 0.929 . S
C982 C981 1.363 . S
C982 C988 1.428 . S
H983 C979 0.930 . S
H984 C981 0.929 . S
S985 N986 1.613 . S
S985 N987 1.610 . S
N986 S985 1.613 . S
N986 C989 1.350 . S
N987 S985 1.610 . S
N987 C988 1.351 . S
C988 C982 1.428 . S
C988 N987 1.351 . S
C988 C989 1.434 . S
C989 C980 1.429 . S
C989 N986 1.350 . S
C989 C988 1.434 . S
C990 C991 1.369 . S
C990 C992 1.419 . S
C990 H994 0.930 1_565 S
C991 C990 1.369 . S
C991 C1000 1.429 . S
C992 C990 1.419 . S
C992 C993 1.363 . S
C992 H995 0.929 1_565 S
C993 C992 1.363 . S
C993 C999 1.428 . S
H994 C990 0.930 1_545 S
H995 C992 0.929 1_545 S
S996 N997 1.613 . S
S996 N998 1.610 . S
N997 S996 1.613 . S
N997 C1000 1.350 . S
N998 S996 1.610 . S
N998 C999 1.351 . S
C999 C993 1.428 . S
C999 N998 1.351 . S
C999 C1000 1.434 . S
C1000 C991 1.429 . S
C1000 N997 1.350 . S
C1000 C999 1.434 . S
C1001 C1002 1.369 . S
C1001 C1003 1.419 . S
C1001 H1005 0.930 . S
C1002 C1001 1.369 . S
C1002 C1011 1.429 . S
C1003 C1001 1.419 . S
C1003 C1004 1.363 . S
C1003 H1006 0.929 . S
C1004 C1003 1.363 . S
C1004 C1010 1.428 . S
H1005 C1001 0.930 . S
H1006 C1003 0.929 . S
S1007 N1008 1.613 . S
S1007 N1009 1.610 . S
N1008 S1007 1.613 . S
N1008 C1011 1.350 . S
N1009 S1007 1.610 . S
N1009 C1010 1.351 . S
C1010 C1004 1.428 . S
C1010 N1009 1.351 . S
C1010 C1011 1.434 . S
C1011 C1002 1.429 . S
C1011 N1008 1.350 . S
C1011 C1010 1.434 . S
C1012 C1013 1.369 . S
C1012 C1014 1.419 . S
C1012 H1016 0.930 . S
C1013 C1012 1.369 . S
C1013 C1022 1.429 . S
C1014 C1012 1.419 . S
C1014 C1015 1.363 . S
C1014 H1017 0.929 . S
C1015 C1014 1.363 . S
C1015 C1021 1.428 . S
H1016 C1012 0.930 . S
H1017 C1014 0.929 . S
S1018 N1019 1.613 . S
S1018 N1020 1.610 . S
N1019 S1018 1.613 . S
N1019 C1022 1.350 . S
N1020 S1018 1.610 . S
N1020 C1021 1.351 . S
C1021 C1015 1.428 . S
C1021 N1020 1.351 . S
C1021 C1022 1.434 . S
C1022 C1013 1.429 . S
C1022 N1019 1.350 . S
C1022 C1021 1.434 . S
C1023 C1024 1.369 . S
C1023 C1025 1.419 . S
C1023 H1027 0.930 . S
C1024 C1023 1.369 . S
C1024 C1033 1.429 . S
C1025 C1023 1.419 . S
C1025 C1026 1.363 . S
C1025 H1028 0.929 . S
C1026 C1025 1.363 . S
C1026 C1032 1.428 . S
H1027 C1023 0.930 . S
H1028 C1025 0.929 . S
S1029 N1030 1.613 . S
S1029 N1031 1.610 . S
N1030 S1029 1.613 . S
N1030 C1033 1.350 . S
N1031 S1029 1.610 . S
N1031 C1032 1.351 . S
C1032 C1026 1.428 . S
C1032 N1031 1.351 . S
C1032 C1033 1.434 . S
C1033 C1024 1.429 . S
C1033 N1030 1.350 . S
C1033 C1032 1.434 . S
C1034 C1035 1.369 . S
C1034 C1036 1.419 . S
C1034 H1038 0.930 . S
C1035 C1034 1.369 . S
C1035 C1044 1.429 . S
C1036 C1034 1.419 . S
C1036 C1037 1.363 1_556 S
C1036 H1039 0.929 . S
C1037 C1036 1.363 1_554 S
C1037 C1043 1.428 . S
H1038 C1034 0.930 . S
H1039 C1036 0.929 . S
S1040 N1041 1.613 1_554 S
S1040 N1042 1.610 . S
N1041 S1040 1.613 1_556 S
N1041 C1044 1.350 . S
N1042 S1040 1.610 . S
N1042 C1043 1.351 . S
C1043 C1037 1.428 . S
C1043 N1042 1.351 . S
C1043 C1044 1.434 1_554 S
C1044 C1035 1.429 . S
C1044 N1041 1.350 . S
C1044 C1043 1.434 1_556 S
C1045 C1046 1.369 . S
C1045 C1047 1.419 . S
C1045 H1049 0.930 . S
C1046 C1045 1.369 . S
C1046 C1055 1.429 . S
C1047 C1045 1.419 . S
C1047 C1048 1.363 . S
C1047 H1050 0.929 . S
C1048 C1047 1.363 . S
C1048 C1054 1.428 . S
H1049 C1045 0.930 . S
H1050 C1047 0.929 . S
S1051 N1052 1.613 . S
S1051 N1053 1.610 . S
N1052 S1051 1.613 . S
N1052 C1055 1.350 . S
N1053 S1051 1.610 . S
N1053 C1054 1.351 . S
C1054 C1048 1.428 . S
C1054 N1053 1.351 . S
C1054 C1055 1.434 . S
C1055 C1046 1.429 . S
C1055 N1052 1.350 . S
C1055 C1054 1.434 . S
C1056 C1057 1.369 . S
C1056 C1058 1.419 . S
C1056 H1060 0.930 . S
C1057 C1056 1.369 . S
C1057 C1066 1.429 . S
C1058 C1056 1.419 . S
C1058 C1059 1.363 . S
C1058 H1061 0.929 . S
C1059 C1058 1.363 . S
C1059 C1065 1.428 . S
H1060 C1056 0.930 . S
H1061 C1058 0.929 . S
S1062 N1063 1.613 . S
S1062 N1064 1.610 . S
N1063 S1062 1.613 . S
N1063 C1066 1.350 . S
N1064 S1062 1.610 . S
N1064 C1065 1.351 . S
C1065 C1059 1.428 . S
C1065 N1064 1.351 . S
C1065 C1066 1.434 . S
C1066 C1057 1.429 . S
C1066 N1063 1.350 . S
C1066 C1065 1.434 . S
C1067 C1068 1.369 . S
C1067 C1069 1.419 . S
C1067 H1071 0.930 . S
C1068 C1067 1.369 . S
C1068 C1077 1.429 . S
C1069 C1067 1.419 . S
C1069 C1070 1.363 . S
C1069 H1072 0.929 . S
C1070 C1069 1.363 . S
C1070 C1076 1.428 . S
H1071 C1067 0.930 . S
H1072 C1069 0.929 . S
S1073 N1074 1.613 . S
S1073 N1075 1.610 . S
N1074 S1073 1.613 . S
N1074 C1077 1.350 . S
N1075 S1073 1.610 . S
N1075 C1076 1.351 . S
C1076 C1070 1.428 . S
C1076 N1075 1.351 . S
C1076 C1077 1.434 . S
C1077 C1068 1.429 . S
C1077 N1074 1.350 . S
C1077 C1076 1.434 . S
C1078 C1079 1.369 . S
C1078 C1080 1.419 . S
C1078 H1082 0.930 . S
C1079 C1078 1.369 . S
C1079 C1088 1.429 . S
C1080 C1078 1.419 . S
C1080 C1081 1.363 . S
C1080 H1083 0.929 . S
C1081 C1080 1.363 . S
C1081 C1087 1.428 . S
H1082 C1078 0.930 . S
H1083 C1080 0.929 . S
S1084 N1085 1.613 1_565 S
S1084 N1086 1.610 1_565 S
N1085 S1084 1.613 1_545 S
N1085 C1088 1.350 . S
N1086 S1084 1.610 1_545 S
N1086 C1087 1.351 . S
C1087 C1081 1.428 . S
C1087 N1086 1.351 . S
C1087 C1088 1.434 . S
C1088 C1079 1.429 . S
C1088 N1085 1.350 . S
C1088 C1087 1.434 . S
C1089 C1090 1.369 . S
C1089 C1091 1.419 . S
C1089 H1093 0.930 . S
C1090 C1089 1.369 . S
C1090 C1099 1.429 . S
C1091 C1089 1.419 . S
C1091 C1092 1.363 . S
C1091 H1094 0.929 . S
C1092 C1091 1.363 . S
C1092 C1098 1.428 . S
H1093 C1089 0.930 . S
H1094 C1091 0.929 . S
S1095 N1096 1.613 . S
S1095 N1097 1.610 . S
N1096 S1095 1.613 . S
N1096 C1099 1.350 . S
N1097 S1095 1.610 . S
N1097 C1098 1.351 . S
C1098 C1092 1.428 . S
C1098 N1097 1.351 . S
C1098 C1099 1.434 . S
C1099 C1090 1.429 . S
C1099 N1096 1.350 . S
C1099 C1098 1.434 . S
C1100 C1101 1.369 . S
C1100 C1102 1.419 . S
C1100 H1104 0.930 . S
C1101 C1100 1.369 . S
C1101 C1110 1.429 . S
C1102 C1100 1.419 . S
C1102 C1103 1.363 . S
C1102 H1105 0.929 . S
C1103 C1102 1.363 . S
C1103 C1109 1.428 . S
H1104 C1100 0.930 . S
H1105 C1102 0.929 . S
S1106 N1107 1.613 . S
S1106 N1108 1.610 . S
N1107 S1106 1.613 . S
N1107 C1110 1.350 . S
N1108 S1106 1.610 . S
N1108 C1109 1.351 . S
C1109 C1103 1.428 . S
C1109 N1108 1.351 . S
C1109 C1110 1.434 . S
C1110 C1101 1.429 . S
C1110 N1107 1.350 . S
C1110 C1109 1.434 . S
C1111 C1112 1.369 . S
C1111 C1113 1.419 . S
C1111 H1115 0.930 . S
C1112 C1111 1.369 . S
C1112 C1121 1.429 . S
C1113 C1111 1.419 . S
C1113 C1114 1.363 . S
C1113 H1116 0.929 . S
C1114 C1113 1.363 . S
C1114 C1120 1.428 . S
H1115 C1111 0.930 . S
H1116 C1113 0.929 . S
S1117 N1118 1.613 . S
S1117 N1119 1.610 . S
N1118 S1117 1.613 . S
N1118 C1121 1.350 . S
N1119 S1117 1.610 . S
N1119 C1120 1.351 . S
C1120 C1114 1.428 . S
C1120 N1119 1.351 . S
C1120 C1121 1.434 . S
C1121 C1112 1.429 . S
C1121 N1118 1.350 . S
C1121 C1120 1.434 . S
C1122 C1123 1.369 . S
C1122 C1124 1.419 . S
C1122 H1126 0.930 . S
C1123 C1122 1.369 . S
C1123 C1132 1.429 . S
C1124 C1122 1.419 . S
C1124 C1125 1.363 . S
C1124 H1127 0.929 . S
C1125 C1124 1.363 . S
C1125 C1131 1.428 . S
H1126 C1122 0.930 . S
H1127 C1124 0.929 . S
S1128 N1129 1.613 . S
S1128 N1130 1.610 . S
N1129 S1128 1.613 . S
N1129 C1132 1.350 . S
N1130 S1128 1.610 . S
N1130 C1131 1.351 . S
C1131 C1125 1.428 . S
C1131 N1130 1.351 . S
C1131 C1132 1.434 . S
C1132 C1123 1.429 . S
C1132 N1129 1.350 . S
C1132 C1131 1.434 . S
C1133 C1134 1.369 . S
C1133 C1135 1.419 . S
C1133 H1137 0.930 . S
C1134 C1133 1.369 . S
C1134 C1143 1.429 . S
C1135 C1133 1.419 . S
C1135 C1136 1.363 . S
C1135 H1138 0.929 . S
C1136 C1135 1.363 . S
C1136 C1142 1.428 . S
H1137 C1133 0.930 . S
H1138 C1135 0.929 . S
S1139 N1140 1.613 . S
S1139 N1141 1.610 . S
N1140 S1139 1.613 . S
N1140 C1143 1.350 . S
N1141 S1139 1.610 . S
N1141 C1142 1.351 . S
C1142 C1136 1.428 . S
C1142 N1141 1.351 . S
C1142 C1143 1.434 . S
C1143 C1134 1.429 . S
C1143 N1140 1.350 . S
C1143 C1142 1.434 . S
C1144 C1145 1.369 . S
C1144 C1146 1.419 . S
C1144 H1148 0.930 . S
C1145 C1144 1.369 . S
C1145 C1154 1.429 . S
C1146 C1144 1.419 . S
C1146 C1147 1.363 1_554 S
C1146 H1149 0.929 1_554 S
C1147 C1146 1.363 1_556 S
C1147 C1153 1.428 1_556 S
H1148 C1144 0.930 . S
H1149 C1146 0.929 1_556 S
S1150 N1151 1.613 . S
S1150 N1152 1.610 . S
N1151 S1150 1.613 . S
N1151 C1154 1.350 . S
N1152 S1150 1.610 . S
N1152 C1153 1.351 . S
C1153 C1147 1.428 1_554 S
C1153 N1152 1.351 . S
C1153 C1154 1.434 . S
C1154 C1145 1.429 . S
C1154 N1151 1.350 . S
C1154 C1153 1.434 . S
C1155 C1156 1.369 . S
C1155 C1157 1.419 . S
C1155 H1159 0.930 . S
C1156 C1155 1.369 . S
C1156 C1165 1.429 . S
C1157 C1155 1.419 . S
C1157 C1158 1.363 . S
C1157 H1160 0.929 . S
C1158 C1157 1.363 . S
C1158 C1164 1.428 . S
H1159 C1155 0.930 . S
H1160 C1157 0.929 . S
S1161 N1162 1.613 . S
S1161 N1163 1.610 . S
N1162 S1161 1.613 . S
N1162 C1165 1.350 . S
N1163 S1161 1.610 . S
N1163 C1164 1.351 . S
C1164 C1158 1.428 . S
C1164 N1163 1.351 . S
C1164 C1165 1.434 . S
C1165 C1156 1.429 . S
C1165 N1162 1.350 . S
C1165 C1164 1.434 . S
C1166 C1167 1.369 . S
C1166 C1168 1.419 . S
C1166 H1170 0.930 . S
C1167 C1166 1.369 . S
C1167 C1176 1.429 . S
C1168 C1166 1.419 . S
C1168 C1169 1.363 . S
C1168 H1171 0.929 . S
C1169 C1168 1.363 . S
C1169 C1175 1.428 . S
H1170 C1166 0.930 . S
H1171 C1168 0.929 . S
S1172 N1173 1.613 . S
S1172 N1174 1.610 . S
N1173 S1172 1.613 . S
N1173 C1176 1.350 . S
N1174 S1172 1.610 . S
N1174 C1175 1.351 . S
C1175 C1169 1.428 . S
C1175 N1174 1.351 . S
C1175 C1176 1.434 . S
C1176 C1167 1.429 . S
C1176 N1173 1.350 . S
C1176 C1175 1.434 . S
C1177 C1178 1.369 . S
C1177 C1179 1.419 . S
C1177 H1181 0.930 . S
C1178 C1177 1.369 . S
C1178 C1187 1.429 . S
C1179 C1177 1.419 . S
C1179 C1180 1.363 . S
C1179 H1182 0.929 . S
C1180 C1179 1.363 . S
C1180 C1186 1.428 . S
H1181 C1177 0.930 . S
H1182 C1179 0.929 . S
S1183 N1184 1.613 . S
S1183 N1185 1.610 . S
N1184 S1183 1.613 . S
N1184 C1187 1.350 . S
N1185 S1183 1.610 . S
N1185 C1186 1.351 . S
C1186 C1180 1.428 . S
C1186 N1185 1.351 . S
C1186 C1187 1.434 . S
C1187 C1178 1.429 . S
C1187 N1184 1.350 . S
C1187 C1186 1.434 . S
C1188 C1189 1.369 . S
C1188 C1190 1.419 . S
C1188 H1192 0.930 . S
C1189 C1188 1.369 . S
C1189 C1198 1.429 . S
C1190 C1188 1.419 . S
C1190 C1191 1.363 . S
C1190 H1193 0.929 . S
C1191 C1190 1.363 . S
C1191 C1197 1.428 . S
H1192 C1188 0.930 . S
H1193 C1190 0.929 . S
S1194 N1195 1.613 . S
S1194 N1196 1.610 . S
N1195 S1194 1.613 . S
N1195 C1198 1.350 . S
N1196 S1194 1.610 . S
N1196 C1197 1.351 . S
C1197 C1191 1.428 . S
C1197 N1196 1.351 . S
C1197 C1198 1.434 . S
C1198 C1189 1.429 . S
C1198 N1195 1.350 . S
C1198 C1197 1.434 . S
C1199 C1200 1.369 . S
C1199 C1201 1.419 . S
C1199 H1203 0.930 . S
C1200 C1199 1.369 . S
C1200 C1209 1.429 . S
C1201 C1199 1.419 . S
C1201 C1202 1.363 . S
C1201 H1204 0.929 . S
C1202 C1201 1.363 . S
C1202 C1208 1.428 . S
H1203 C1199 0.930 . S
H1204 C1201 0.929 . S
S1205 N1206 1.613 . S
S1205 N1207 1.610 . S
N1206 S1205 1.613 . S
N1206 C1209 1.350 . S
N1207 S1205 1.610 . S
N1207 C1208 1.351 . S
C1208 C1202 1.428 . S
C1208 N1207 1.351 . S
C1208 C1209 1.434 . S
C1209 C1200 1.429 . S
C1209 N1206 1.350 . S
C1209 C1208 1.434 . S
C1210 C1211 1.369 . S
C1210 C1212 1.419 . S
C1210 H1214 0.930 . S
C1211 C1210 1.369 . S
C1211 C1220 1.429 . S
C1212 C1210 1.419 . S
C1212 C1213 1.363 . S
C1212 H1215 0.929 . S
C1213 C1212 1.363 . S
C1213 C1219 1.428 . S
H1214 C1210 0.930 . S
H1215 C1212 0.929 . S
S1216 N1217 1.613 . S
S1216 N1218 1.610 . S
N1217 S1216 1.613 . S
N1217 C1220 1.350 . S
N1218 S1216 1.610 . S
N1218 C1219 1.351 . S
C1219 C1213 1.428 . S
C1219 N1218 1.351 . S
C1219 C1220 1.434 . S
C1220 C1211 1.429 . S
C1220 N1217 1.350 . S
C1220 C1219 1.434 . S
C1221 C1222 1.369 1_655 S
C1221 C1223 1.419 . S
C1221 H1225 0.930 . S
C1222 C1221 1.369 1_455 S
C1222 C1231 1.429 . S
C1223 C1221 1.419 . S
C1223 C1224 1.363 1_655 S
C1223 H1226 0.929 . S
C1224 C1223 1.363 1_455 S
C1224 C1230 1.428 . S
H1225 C1221 0.930 . S
H1226 C1223 0.929 . S
S1227 N1228 1.613 . S
S1227 N1229 1.610 . S
N1228 S1227 1.613 . S
N1228 C1231 1.350 . S
N1229 S1227 1.610 . S
N1229 C1230 1.351 . S
C1230 C1224 1.428 . S
C1230 N1229 1.351 . S
C1230 C1231 1.434 . S
C1231 C1222 1.429 . S
C1231 N1228 1.350 . S
C1231 C1230 1.434 . S
C1232 C1233 1.369 . S
C1232 C1234 1.419 . S
C1232 H1236 0.930 . S
C1233 C1232 1.369 . S
C1233 C1242 1.429 . S
C1234 C1232 1.419 . S
C1234 C1235 1.363 . S
C1234 H1237 0.929 . S
C1235 C1234 1.363 . S
C1235 C1241 1.428 . S
H1236 C1232 0.930 . S
H1237 C1234 0.929 . S
S1238 N1239 1.613 . S
S1238 N1240 1.610 . S
N1239 S1238 1.613 . S
N1239 C1242 1.350 . S
N1240 S1238 1.610 . S
N1240 C1241 1.351 . S
C1241 C1235 1.428 . S
C1241 N1240 1.351 . S
C1241 C1242 1.434 . S
C1242 C1233 1.429 . S
C1242 N1239 1.350 . S
C1242 C1241 1.434 . S
C1243 C1244 1.369 . S
C1243 C1245 1.419 . S
C1243 H1247 0.930 . S
C1244 C1243 1.369 . S
C1244 C1253 1.429 . S
C1245 C1243 1.419 . S
C1245 C1246 1.363 . S
C1245 H1248 0.929 . S
C1246 C1245 1.363 . S
C1246 C1252 1.428 . S
H1247 C1243 0.930 . S
H1248 C1245 0.929 . S
S1249 N1250 1.613 . S
S1249 N1251 1.610 . S
N1250 S1249 1.613 . S
N1250 C1253 1.350 . S
N1251 S1249 1.610 . S
N1251 C1252 1.351 . S
C1252 C1246 1.428 . S
C1252 N1251 1.351 . S
C1252 C1253 1.434 . S
C1253 C1244 1.429 . S
C1253 N1250 1.350 . S
C1253 C1252 1.434 . S
C1254 C1255 1.369 1_545 S
C1254 C1256 1.419 . S
C1254 H1258 0.945 . S
C1255 C1254 1.369 1_565 S
C1255 C1264 1.429 . S
C1256 C1254 1.419 . S
C1256 C1257 1.363 . S
C1256 H1259 0.929 . S
C1257 C1256 1.363 . S
C1257 C1263 1.428 . S
H1258 C1254 0.945 . S
H1259 C1256 0.929 . S
S1260 N1261 1.613 . S
S1260 N1262 1.610 . S
N1261 S1260 1.613 . S
N1261 C1264 1.350 . S
N1262 S1260 1.610 . S
N1262 C1263 1.351 1_565 S
C1263 C1257 1.428 . S
C1263 N1262 1.351 1_545 S
C1263 C1264 1.434 1_545 S
C1264 C1255 1.429 . S
C1264 N1261 1.350 . S
C1264 C1263 1.434 1_565 S
C1265 C1266 1.369 . S
C1265 C1267 1.419 . S
C1265 H1269 0.930 . S
C1266 C1265 1.369 . S
C1266 C1275 1.429 . S
C1267 C1265 1.419 . S
C1267 C1268 1.363 . S
C1267 H1270 0.929 . S
C1268 C1267 1.363 . S
C1268 C1274 1.428 . S
H1269 C1265 0.930 . S
H1270 C1267 0.929 . S
S1271 N1272 1.613 . S
S1271 N1273 1.610 . S
N1272 S1271 1.613 . S
N1272 C1275 1.350 . S
N1273 S1271 1.610 . S
N1273 C1274 1.351 . S
C1274 C1268 1.428 . S
C1274 N1273 1.351 . S
C1274 C1275 1.434 . S
C1275 C1266 1.429 . S
C1275 N1272 1.350 . S
C1275 C1274 1.434 . S
C1276 C1277 1.369 . S
C1276 C1278 1.419 . S
C1276 H1280 0.930 . S
C1277 C1276 1.369 . S
C1277 C1286 1.429 . S
C1278 C1276 1.419 . S
C1278 C1279 1.363 . S
C1278 H1281 0.929 . S
C1279 C1278 1.363 . S
C1279 C1285 1.428 . S
H1280 C1276 0.930 . S
H1281 C1278 0.929 . S
S1282 N1283 1.613 . S
S1282 N1284 1.610 . S
N1283 S1282 1.613 . S
N1283 C1286 1.350 . S
N1284 S1282 1.610 . S
N1284 C1285 1.351 . S
C1285 C1279 1.428 . S
C1285 N1284 1.351 . S
C1285 C1286 1.434 . S
C1286 C1277 1.429 . S
C1286 N1283 1.350 . S
C1286 C1285 1.434 . S
C1287 C1288 1.369 . S
C1287 C1289 1.419 . S
C1287 H1291 0.930 . S
C1288 C1287 1.369 . S
C1288 C1297 1.429 . S
C1289 C1287 1.419 . S
C1289 C1290 1.363 . S
C1289 H1292 0.929 . S
C1290 C1289 1.363 . S
C1290 C1296 1.428 . S
H1291 C1287 0.930 . S
H1292 C1289 0.929 . S
S1293 N1294 1.613 . S
S1293 N1295 1.610 . S
N1294 S1293 1.613 . S
N1294 C1297 1.350 . S
N1295 S1293 1.610 . S
N1295 C1296 1.351 . S
C1296 C1290 1.428 . S
C1296 N1295 1.351 . S
C1296 C1297 1.434 . S
C1297 C1288 1.429 . S
C1297 N1294 1.350 . S
C1297 C1296 1.434 . S
C1298 C1299 1.369 . S
C1298 C1300 1.419 1_655 S
C1298 H1302 0.930 . S
C1299 C1298 1.369 . S
C1299 C1308 1.429 . S
C1300 C1298 1.419 1_455 S
C1300 C1301 1.363 . S
C1300 H1303 0.929 . S
C1301 C1300 1.363 . S
C1301 C1307 1.428 1_455 S
H1302 C1298 0.930 . S
H1303 C1300 0.929 . S
S1304 N1305 1.613 . S
S1304 N1306 1.610 . S
N1305 S1304 1.613 . S
N1305 C1308 1.350 . S
N1306 S1304 1.610 . S
N1306 C1307 1.351 . S
C1307 C1301 1.428 1_655 S
C1307 N1306 1.351 . S
C1307 C1308 1.434 . S
C1308 C1299 1.429 . S
C1308 N1305 1.350 . S
C1308 C1307 1.434 . S
C1309 C1310 1.369 . S
C1309 C1311 1.419 . S
C1309 H1313 0.930 . S
C1310 C1309 1.369 . S
C1310 C1319 1.429 . S
C1311 C1309 1.419 . S
C1311 C1312 1.363 . S
C1311 H1314 0.929 . S
C1312 C1311 1.363 . S
C1312 C1318 1.428 . S
H1313 C1309 0.930 . S
H1314 C1311 0.929 . S
S1315 N1316 1.613 . S
S1315 N1317 1.610 . S
N1316 S1315 1.613 . S
N1316 C1319 1.350 . S
N1317 S1315 1.610 . S
N1317 C1318 1.351 . S
C1318 C1312 1.428 . S
C1318 N1317 1.351 . S
C1318 C1319 1.434 . S
C1319 C1310 1.429 . S
C1319 N1316 1.350 . S
C1319 C1318 1.434 . S
C529 C115 1.275 . S
C531 C5 1.478 . S
C540 C16 1.354 . S
C542 C129 1.474 . S
C551 C426 1.581 . S
C553 C27 1.419 1_565 S
C562 C104 1.224 . S
C564 C41 1.639 . S
C573 C8 1.714 . S
C575 C148 1.612 . S
C584 C137 1.176 . S
C586 C19 1.739 . S
C595 C30 1.923 . S
C597 C162 1.972 . S
C606 C38 1.394 . S
C608 C96 1.518 . S
C617 C49 1.192 . S
C619 C60 1.349 . S
C628 C71 1.350 . S
C630 C63 1.499 . S
C639 C74 1.616 . S
C641 C85 1.567 . S
C650 C82 1.393 . S
C652 C52 1.671 . S
C661 C346 1.354 . S
C663 C107 1.475 . S
C672 C118 1.586 . S
C674 C357 1.417 . S
C683 C371 1.637 . S
C685 C126 1.230 . S
C694 C151 1.970 . S
C696 C360 1.926 . S
C705 C338 1.710 . S
C707 C159 1.607 . S
C716 C170 1.883 . S
C718 C280 1.861 . S
C727 C291 1.224 . S
C729 C184 1.513 . S
C738 C525 1.786 . S
C740 C192 1.760 . S
C749 C203 1.656 . S
C751 C272 1.636 . S
C760 C173 1.547 . S
C762 C313 1.359 . S
C771 C181 1.481 . S
C773 C305 1.588 . S
C782 C195 1.600 . S
C784 C327 1.563 . S
C793 C206 1.573 . S
C795 C258 1.362 . S
C804 C214 1.636 1_556 S
C806 C225 1.360 . S
C815 C236 1.188 . S
C817 C228 1.637 . S
C826 C239 1.834 . S
C828 C250 1.809 . S
C837 C217 1.611 . S
C839 C247 1.215 . S
C848 C448 1.510 . S
C850 C269 1.222 . S
C859 C283 1.786 . S
C861 C456 1.759 . S
C870 C294 1.635 . S
C872 C467 1.661 . S
C881 C459 1.604 . S
C883 C316 1.558 . S
C892 C324 1.373 . S
C894 C437 1.553 . S
C903 C335 1.479 . S
C905 C423 1.264 . S
C914 C349 1.738 . S
C916 C93 1.174 . S
C925 C140 1.522 . S
C927 C368 1.383 . S
C936 C379 1.192 . S
C938 C390 1.349 . S
C947 C393 1.504 . S
C949 C401 1.348 . S
C958 C415 1.561 . S
C960 C404 1.618 . S
C969 C412 1.385 . S
C971 C382 1.676 . S
C980 C522 1.856 . S
C982 C434 1.879 . S
C991 C445 1.483 . S
C993 C261 1.592 . S
C1002 C470 1.572 . S
C1004 C302 1.360 . S
C1013 C489 1.354 . S
C1015 C478 1.636 . S
C1024 C500 1.204 . S
C1026 C492 1.632 . S
C1035 C514 1.807 . S
C1037 C503 1.835 . S
C1046 C511 1.200 . S
C1048 C481 1.608 . S
C1057 C7 1.235 . S
C1059 C249 1.175 . S
C1068 C480 1.452 . S
C1070 C18 1.462 . S
C1079 C29 1.276 . S
C1081 C227 1.202 . S
C1090 C502 1.242 . S
C1092 C40 1.338 . S
C1101 C447 1.260 . S
C1103 C51 1.151 . S
C1112 C194 1.402 . S
C1114 C62 1.340 . S
C1123 C469 1.460 . S
C1125 C73 1.460 . S
C1134 C84 1.352 . S
C1136 C172 1.419 . S
C1145 C95 1.356 . S
C1147 C315 1.397 . S
C1156 C524 1.275 . S
C1158 C106 1.200 . S
C1167 C293 1.409 . S
C1169 C117 1.365 . S
C1178 C282 1.275 . S
C1180 C128 1.196 . S
C1189 C326 1.391 . S
C1191 C139 1.354 . S
C1200 C260 1.297 . S
C1202 C150 1.346 . S
C1211 C304 1.305 . S
C1213 C161 1.350 . S
C1222 C381 1.165 1_455 S
C1224 C183 1.252 . S
C1233 C205 1.460 . S
C1235 C403 1.461 . S
C1244 C216 1.452 . S
C1246 C348 1.463 . S
C1255 C370 1.340 . S
C1257 C238 1.236 . S
C1266 C425 1.367 . S
C1268 C271 1.409 1_556 S
C1277 C337 1.232 . S
C1279 C513 1.177 . S
C1288 C491 1.189 . S
C1290 C359 1.275 . S
C1299 C392 1.337 . S
C1301 C458 1.403 . S
C1310 C414 1.341 . S
C1312 C436 1.416 . S
