# Generated by pormake.
# Topology snk, (6)-cn, num edge types: 1
# Building blocks:
#     Node 0, Type 0, BuildingBlock: KUMJIN_clean_sbu_1, # of connection points: 6
#     Node 1, Type 0, BuildingBlock: KUMJIN_clean_sbu_1, # of connection points: 6
#     Node 2, Type 0, BuildingBlock: KUMJIN_clean_sbu_1, # of connection points: 6
#     Node 3, Type 0, BuildingBlock: KUMJIN_clean_sbu_1, # of connection points: 6
#     Node 4, Type 0, BuildingBlock: KUMJIN_clean_sbu_1, # of connection points: 6
#     Node 5, Type 0, BuildingBlock: KUMJIN_clean_sbu_1, # of connection points: 6
#     Node 6, Type 0, BuildingBlock: KUMJIN_clean_sbu_1, # of connection points: 6
#     Node 7, Type 0, BuildingBlock: KUMJIN_clean_sbu_1, # of connection points: 6
#     Edge 8, Type (0, 0), BuildingBlock: MIFKUJ_clean_linker_0, # of connection points: 2
#     Edge 9, Type (0, 0), BuildingBlock: MIFKUJ_clean_linker_0, # of connection points: 2
#     Edge 10, Type (0, 0), BuildingBlock: MIFKUJ_clean_linker_0, # of connection points: 2
#     Edge 11, Type (0, 0), BuildingBlock: MIFKUJ_clean_linker_0, # of connection points: 2
#     Edge 12, Type (0, 0), BuildingBlock: MIFKUJ_clean_linker_0, # of connection points: 2
#     Edge 13, Type (0, 0), BuildingBlock: MIFKUJ_clean_linker_0, # of connection points: 2
#     Edge 14, Type (0, 0), BuildingBlock: MIFKUJ_clean_linker_0, # of connection points: 2
#     Edge 15, Type (0, 0), BuildingBlock: MIFKUJ_clean_linker_0, # of connection points: 2
#     Edge 16, Type (0, 0), BuildingBlock: MIFKUJ_clean_linker_0, # of connection points: 2
#     Edge 17, Type (0, 0), BuildingBlock: MIFKUJ_clean_linker_0, # of connection points: 2
#     Edge 18, Type (0, 0), BuildingBlock: MIFKUJ_clean_linker_0, # of connection points: 2
#     Edge 19, Type (0, 0), BuildingBlock: MIFKUJ_clean_linker_0, # of connection points: 2
#     Edge 20, Type (0, 0), BuildingBlock: MIFKUJ_clean_linker_0, # of connection points: 2
#     Edge 21, Type (0, 0), BuildingBlock: MIFKUJ_clean_linker_0, # of connection points: 2
#     Edge 22, Type (0, 0), BuildingBlock: MIFKUJ_clean_linker_0, # of connection points: 2
#     Edge 23, Type (0, 0), BuildingBlock: MIFKUJ_clean_linker_0, # of connection points: 2
#     Edge 24, Type (0, 0), BuildingBlock: MIFKUJ_clean_linker_0, # of connection points: 2
#     Edge 25, Type (0, 0), BuildingBlock: MIFKUJ_clean_linker_0, # of connection points: 2
#     Edge 26, Type (0, 0), BuildingBlock: MIFKUJ_clean_linker_0, # of connection points: 2
#     Edge 27, Type (0, 0), BuildingBlock: MIFKUJ_clean_linker_0, # of connection points: 2
#     Edge 28, Type (0, 0), BuildingBlock: MIFKUJ_clean_linker_0, # of connection points: 2
#     Edge 29, Type (0, 0), BuildingBlock: MIFKUJ_clean_linker_0, # of connection points: 2
#     Edge 30, Type (0, 0), BuildingBlock: MIFKUJ_clean_linker_0, # of connection points: 2
#     Edge 31, Type (0, 0), BuildingBlock: MIFKUJ_clean_linker_0, # of connection points: 2
# Relax obj value: 0.010
# Max RMSD: 0.073
# Mean RMSD: 0.072
data_MOF--net-snk--node1-KUMJIN_clean_sbu_1--edge1-MIFKUJ_clean_linker_0
_symmetry_space_group_name_H-M    P1
_symmetry_Int_Tables_number       1
_symmetry_cell_setting            triclinic
loop_
_symmetry_equiv_pos_as_xyz
'x, y, z'
_cell_length_a     50.938963
_cell_length_b     50.877326
_cell_length_c     29.595151
_cell_angle_alpha  90.234452
_cell_angle_beta   89.999664
_cell_angle_gamma 89.814825
loop_
_atom_site_label
_atom_site_type_symbol
_atom_site_fract_x
_atom_site_fract_y
_atom_site_fract_z
_atom_type_partial_charge
Eu0 Eu 0.00302 0.02379 0.5809 0.0
C1 C 0.97327 0.92727 0.46603 0.0
N2 N 0.99768 0.93804 0.46772 0.0
C3 C 0.017 0.89537 0.47596 0.0
C4 C 0.96984 0.89989 0.47023 0.0
C5 C 0.01946 0.92262 0.47199 0.0
C6 C 0.9921 0.88395 0.47516 0.0
C7 C 0.92599 0.93326 0.46257 0.0
C8 C 0.95155 0.94386 0.46252 0.0
C9 C 0.92254 0.90599 0.46672 0.0
C10 C 0.94439 0.88937 0.4705 0.0
Eu11 Eu 0.99981 0.98422 0.46333 0.0
N12 N 0.9554 0.97036 0.4604 0.0
C13 C 0.9046 0.9504 0.45869 0.0
C14 C 0.93468 0.98686 0.45329 0.0
C15 C 0.909 0.97726 0.45345 0.0
H16 H 0.03878 0.9313 0.47213 0.0
H17 H 0.89262 0.99056 0.44913 0.0
H18 H 0.95909 0.07327 0.57377 0.0
H19 H 0.10875 0.02655 0.61183 0.0
H20 H 0.93772 0.00728 0.44626 0.0
H21 H 0.88465 0.94305 0.4588 0.0
H22 H 0.06615 0.00552 0.59827 0.0
H23 H 0.03427 0.88321 0.47985 0.0
H24 H 0.90304 0.89756 0.46719 0.0
H25 H 0.94138 0.8684 0.474 0.0
H26 H 0.95909 0.12176 0.57366 0.0
H27 H 0.99028 0.86284 0.47863 0.0
H28 H 0.11178 0.07491 0.61536 0.0
N29 N 1.00049 0.07004 0.58079 0.0
C30 C 0.02357 0.08287 0.58758 0.0
C31 C 0.97737 0.11107 0.57727 0.0
C32 C 0.02435 0.11057 0.589 0.0
C33 C 0.97748 0.0836 0.57657 0.0
C34 C 1.00091 0.12462 0.58333 0.0
N35 N 0.04546 0.04153 0.58988 0.0
C36 C 0.06729 0.02659 0.59734 0.0
C37 C 0.07062 0.08111 0.60089 0.0
C38 C 0.04657 0.06825 0.59287 0.0
C39 C 0.09315 0.06583 0.60764 0.0
C40 C 0.09149 0.03849 0.60582 0.0
H41 H 1.00073 0.14592 0.58412 0.0
H42 H 0.04934 0.14462 0.59753 0.0
H43 H 0.08966 0.11887 0.60876 0.0
O44 O 0.01014 0.00635 0.64743 0.0
O45 O 0.02359 0.04244 0.5202 0.0
O46 O 0.03669 0.0087 0.47274 0.0
O47 O 0.98724 0.04194 0.64203 0.0
O48 O 0.02434 0.98427 0.57599 0.0
O49 O 0.03781 0.97815 0.5017 0.0
O50 O 0.9894 0.99661 0.39482 0.0
O51 O 0.9849 0.96532 0.52854 0.0
O52 O 0.96657 0.99926 0.56847 0.0
O53 O 0.01754 0.96543 0.40408 0.0
O54 O 0.98278 0.02571 0.46715 0.0
O55 O 0.96616 0.0291 0.53924 0.0
C56 C 0.0392 0.03274 0.4888 0.0
C57 C 0.97802 0.01439 0.70369 0.0
C58 C 0.96831 0.00551 0.78316 0.0
C59 C 0.94246 0.9991 0.77072 0.0
C60 C 0.95229 0.0074 0.69205 0.0
C61 C 0.93459 0.99993 0.72551 0.0
C62 C 0.98602 0.01335 0.7492 0.0
C63 C 0.03961 0.97313 0.54525 0.0
C64 C 0.99628 0.02395 0.66901 0.0
C65 C 0.04838 0.12336 0.59626 0.0
C66 C 0.07138 0.10868 0.60252 0.0
C67 C 0.9675 0.97426 0.5576 0.0
C68 C 0.02262 0.99236 0.33967 0.0
C69 C 0.03007 0.00406 0.26037 0.0
C70 C 0.05442 0.01495 0.27296 0.0
C71 C 0.04687 0.00343 0.3511 0.0
C72 C 0.01422 0.99272 0.29429 0.0
C73 C 0.06264 0.01468 0.31795 0.0
C74 C 0.96667 0.03649 0.49675 0.0
C75 C 0.00593 0.98072 0.37507 0.0
H76 H 0.92822 0.99388 0.7962 0.0
H77 H 0.94579 0.00819 0.65724 0.0
H78 H 0.91462 0.99507 0.71637 0.0
H79 H 0.00598 0.01861 0.75804 0.0
H80 H 0.06738 0.02336 0.24793 0.0
H81 H 0.05361 0.0032 0.38567 0.0
H82 H 0.99529 0.98445 0.28563 0.0
H83 H 0.08141 0.0231 0.32712 0.0
Eu84 Eu 0.23354 0.74956 0.82283 0.0
C85 C 0.32894 0.72479 0.69502 0.0
N86 N 0.31819 0.74875 0.70415 0.0
C87 C 0.36096 0.76756 0.71222 0.0
C88 C 0.3564 0.72129 0.69487 0.0
C89 C 0.33363 0.7701 0.71208 0.0
C90 C 0.37241 0.74304 0.70371 0.0
C91 C 0.32298 0.67847 0.67811 0.0
C92 C 0.31232 0.70359 0.68699 0.0
C93 C 0.35034 0.6749 0.67812 0.0
C94 C 0.36699 0.69624 0.68646 0.0
Eu95 Eu 0.27208 0.75134 0.70225 0.0
N96 N 0.28582 0.7075 0.68802 0.0
C97 C 0.30584 0.65768 0.66905 0.0
C98 C 0.26919 0.68763 0.67637 0.0
C99 C 0.27885 0.66237 0.66765 0.0
H100 H 0.32485 0.78918 0.71763 0.0
H101 H 0.26549 0.64661 0.65917 0.0
H102 H 0.17984 0.71348 0.80478 0.0
H103 H 0.24279 0.85246 0.87624 0.0
H104 H 0.24855 0.69114 0.67221 0.0
H105 H 0.31326 0.6381 0.66206 0.0
H106 H 0.2587 0.80833 0.85729 0.0
H107 H 0.37318 0.78453 0.71869 0.0
H108 H 0.35884 0.65571 0.67151 0.0
H109 H 0.38805 0.69314 0.68635 0.0
H110 H 0.13164 0.71915 0.80552 0.0
H111 H 0.3936 0.74114 0.70394 0.0
H112 H 0.1952 0.86189 0.87633 0.0
N113 N 0.18754 0.75334 0.82118 0.0
C114 C 0.17742 0.7772 0.83281 0.0
C115 C 0.14429 0.73566 0.81298 0.0
C116 C 0.15003 0.78119 0.83456 0.0
C117 C 0.17156 0.73257 0.81199 0.0
C118 C 0.13347 0.76009 0.82422 0.0
N119 N 0.22097 0.79335 0.84032 0.0
C120 C 0.23811 0.81239 0.85387 0.0
C121 C 0.1845 0.8226 0.85502 0.0
C122 C 0.19457 0.79775 0.84244 0.0
C123 C 0.20214 0.8426 0.86623 0.0
C124 C 0.22903 0.83739 0.86601 0.0
H125 H 0.11232 0.7624 0.82515 0.0
H126 H 0.11907 0.80941 0.84824 0.0
H127 H 0.14916 0.84537 0.86725 0.0
O128 O 0.24634 0.75283 0.89359 0.0
O129 O 0.21277 0.76962 0.76369 0.0
O130 O 0.24704 0.78627 0.72268 0.0
O131 O 0.21721 0.7242 0.875 0.0
O132 O 0.27416 0.76841 0.82023 0.0
O133 O 0.27755 0.78637 0.74873 0.0
O134 O 0.25943 0.74684 0.63163 0.0
O135 O 0.29277 0.73202 0.76206 0.0
O136 O 0.25853 0.71471 0.80194 0.0
O137 O 0.28801 0.77627 0.64909 0.0
O138 O 0.23146 0.73256 0.70442 0.0
O139 O 0.22742 0.71478 0.77597 0.0
C140 C 0.22202 0.78582 0.73308 0.0
C141 C 0.21368 0.7429 0.94825 0.0
C142 C 0.2093 0.74809 0.0303 0.0
C143 C 0.18277 0.75493 0.02425 0.0
C144 C 0.18701 0.74943 0.94348 0.0
C145 C 0.17179 0.75565 0.98115 0.0
C146 C 0.22484 0.74245 0.99189 0.0
C147 C 0.2848 0.78497 0.79136 0.0
C148 C 0.22957 0.73557 0.90818 0.0
C149 C 0.14005 0.80599 0.84656 0.0
C150 C 0.15722 0.82656 0.85703 0.0
C151 C 0.28362 0.71566 0.79241 0.0
C152 C 0.29168 0.75693 0.57638 0.0
C153 C 0.29625 0.75225 0.49428 0.0
C154 C 0.32265 0.74494 0.50045 0.0
C155 C 0.31819 0.74983 0.58131 0.0
C156 C 0.28069 0.75791 0.53265 0.0
C157 C 0.33345 0.74368 0.54364 0.0
C158 C 0.22053 0.71608 0.73313 0.0
C159 C 0.27578 0.76432 0.61637 0.0
H160 H 0.17046 0.75979 0.05297 0.0
H161 H 0.17771 0.74937 0.91077 0.0
H162 H 0.15129 0.76076 0.97696 0.0
H163 H 0.24529 0.73702 0.99601 0.0
H164 H 0.33497 0.74008 0.47175 0.0
H165 H 0.32732 0.74939 0.61415 0.0
H166 H 0.26035 0.76373 0.52846 0.0
H167 H 0.35384 0.73816 0.54793 0.0
Eu168 Eu 0.49874 0.98178 0.07599 0.0
C169 C 0.52345 0.07522 0.94778 0.0
N170 N 0.50071 0.06153 0.9526 0.0
C171 C 0.47608 0.10183 0.95301 0.0
C172 C 0.52331 0.10293 0.94642 0.0
C173 C 0.47711 0.07438 0.95277 0.0
C174 C 0.49931 0.1162 0.95039 0.0
C175 C 0.57032 0.07508 0.93216 0.0
C176 C 0.54675 0.06149 0.94067 0.0
C177 C 0.57034 0.10266 0.93237 0.0
C178 C 0.54686 0.11651 0.93911 0.0
Eu179 Eu 0.50505 0.01516 0.95182 0.0
N180 N 0.54618 0.03481 0.94015 0.0
C181 C 0.59298 0.0605 0.9221 0.0
C182 C 0.56778 0.0205 0.9279 0.0
C183 C 0.59162 0.0331 0.91941 0.0
H184 H 0.45889 0.06362 0.95177 0.0
H185 H 0.60887 0.02171 0.91061 0.0
H186 H 0.52467 0.92225 0.06129 0.0
H187 H 0.39892 0.0092 0.12856 0.0
H188 H 0.56657 0.99934 0.92527 0.0
H189 H 0.61145 0.07023 0.9153 0.0
H190 H 0.44629 0.01596 0.11813 0.0
H191 H 0.45733 0.11189 0.95415 0.0
H192 H 0.58825 0.11346 0.92594 0.0
H193 H 0.54691 0.13771 0.93685 0.0
H194 H 0.50984 0.87597 0.05618 0.0
H195 H 0.49842 0.13748 0.94968 0.0
H196 H 0.37952 0.96547 0.11463 0.0
N197 N 0.48622 0.93739 0.07121 0.0
C198 C 0.46042 0.93203 0.07804 0.0
C199 C 0.49573 0.89156 0.06206 0.0
C200 C 0.45105 0.90604 0.07512 0.0
C201 C 0.50407 0.91769 0.06479 0.0
C202 C 0.46907 0.88573 0.06675 0.0
N203 N 0.45333 0.97738 0.0924 0.0
C204 C 0.43797 0.99719 0.1092 0.0
C205 C 0.41654 0.94766 0.0954 0.0
C206 C 0.44342 0.95268 0.08793 0.0
C207 C 0.40027 0.96851 0.10861 0.0
C208 C 0.41114 0.99326 0.11636 0.0
H209 H 0.46264 0.8655 0.06429 0.0
H210 H 0.41649 0.88137 0.07805 0.0
H211 H 0.38629 0.91778 0.09592 0.0
O212 O 0.49194 0.97814 0.14871 0.0
O213 O 0.48552 0.96047 0.01201 0.0
O214 O 0.46781 0.99354 0.96996 0.0
O215 O 0.53084 0.972 0.12221 0.0
O216 O 0.48213 0.02303 0.06676 0.0
O217 O 0.46796 0.02422 0.9925 0.0
O218 O 0.50759 0.99036 0.89115 0.0
O219 O 0.53733 0.02105 1.00491 0.0
O220 O 0.51463 0.02314 0.07149 0.0
O221 O 0.49593 0.03084 0.88505 0.0
O222 O 0.52432 0.97541 0.96098 0.0
O223 O 0.53601 0.97115 0.03687 0.0
C224 C 0.46799 0.96894 0.98293 0.0
C225 C 0.52694 0.99174 0.19492 0.0
C226 C 0.52737 0.0051 0.2745 0.0
C227 C 0.54335 0.02654 0.26315 0.0
C228 C 0.54326 0.01308 0.18462 0.0
C229 C 0.55139 0.03034 0.21857 0.0
C230 C 0.5193 0.98762 0.24014 0.0
C231 C 0.46691 0.03254 0.03468 0.0
C232 C 0.51656 0.97471 0.15852 0.0
C233 C 0.42413 0.90117 0.08076 0.0
C234 C 0.40692 0.92193 0.09078 0.0
C235 C 0.53408 0.03081 0.04575 0.0
C236 C 0.47987 1.0016 0.8299 0.0
C237 C 0.46754 0.99562 0.75071 0.0
C238 C 0.44125 0.99272 0.76412 0.0
C239 C 0.45359 0.99831 0.8426 0.0
C240 C 0.4869 0.99975 0.78397 0.0
C241 C 0.43442 0.99366 0.80984 0.0
C242 C 0.53857 0.9651 0.99361 0.0
C243 C 0.49976 0.00875 0.86383 0.0
H244 H 0.54987 0.0402 0.28896 0.0
H245 H 0.54956 0.01651 0.15025 0.0
H246 H 0.56388 0.04681 0.21026 0.0
H247 H 0.5066 0.97126 0.24838 0.0
H248 H 0.42601 0.98955 0.73918 0.0
H249 H 0.4479 0.99995 0.87771 0.0
H250 H 0.50718 0.00252 0.77401 0.0
H251 H 0.41414 0.99122 0.81984 0.0
Eu252 Eu 0.23224 0.25038 0.1974 0.0
C253 C 0.331 0.26513 0.32716 0.0
N254 N 0.31623 0.24315 0.32126 0.0
C255 C 0.35494 0.21627 0.32219 0.0
C256 C 0.35859 0.26346 0.3301 0.0
C257 C 0.32766 0.21887 0.31955 0.0
C258 C 0.37049 0.23866 0.32729 0.0
C259 C 0.33335 0.31261 0.3357 0.0
C260 C 0.31852 0.28949 0.32991 0.0
C261 C 0.36082 0.31098 0.33849 0.0
C262 C 0.3734 0.28649 0.33567 0.0
Eu263 Eu 0.2705 0.24984 0.3167 0.0
N264 N 0.29194 0.29064 0.3253 0.0
C265 C 0.3201 0.33671 0.33825 0.0
C266 C 0.27886 0.31395 0.32937 0.0
C267 C 0.29274 0.33738 0.33531 0.0
H268 H 0.31572 0.20143 0.31685 0.0
H269 H 0.28234 0.35591 0.3379 0.0
H270 H 0.17976 0.29007 0.20759 0.0
H271 H 0.23759 0.14509 0.16005 0.0
H272 H 0.25778 0.31453 0.32815 0.0
H273 H 0.33081 0.35484 0.34302 0.0
H274 H 0.25513 0.18927 0.17381 0.0
H275 H 0.36396 0.197 0.32057 0.0
H276 H 0.37253 0.32857 0.34272 0.0
H277 H 0.39461 0.28558 0.33787 0.0
H278 H 0.13145 0.28653 0.20702 0.0
H279 H 0.39163 0.23656 0.32937 0.0
H280 H 0.18963 0.13803 0.15909 0.0
N281 N 0.18606 0.24923 0.19759 0.0
C282 C 0.17504 0.22535 0.18943 0.0
C283 C 0.14348 0.26915 0.20235 0.0
C284 C 0.14752 0.22249 0.18798 0.0
C285 C 0.17084 0.27107 0.20328 0.0
C286 C 0.13175 0.24475 0.19482 0.0
N287 N 0.21787 0.20671 0.18603 0.0
C288 C 0.23436 0.18628 0.17644 0.0
C289 C 0.18037 0.17865 0.17446 0.0
C290 C 0.19135 0.20356 0.18332 0.0
C291 C 0.19728 0.15736 0.1668 0.0
C292 C 0.22437 0.16125 0.16746 0.0
H293 H 0.11054 0.24334 0.19399 0.0
H294 H 0.11551 0.19507 0.17849 0.0
H295 H 0.14422 0.15692 0.1657 0.0
O296 O 0.2466 0.24146 0.12939 0.0
O297 O 0.21303 0.23008 0.25802 0.0
O298 O 0.24708 0.21317 0.29999 0.0
O299 O 0.21554 0.26991 0.1382 0.0
O300 O 0.27371 0.2335 0.20175 0.0
O301 O 0.27654 0.2143 0.27193 0.0
O302 O 0.25259 0.2608 0.38128 0.0
O303 O 0.28926 0.27268 0.25852 0.0
O304 O 0.25623 0.28706 0.21101 0.0
O305 O 0.28372 0.232 0.37992 0.0
O306 O 0.23021 0.26888 0.31105 0.0
O307 O 0.22486 0.28685 0.24016 0.0
C308 C 0.22256 0.21244 0.28609 0.0
C309 C 0.24347 0.2749 0.07476 0.0
C310 C 0.25522 0.28242 0.99553 0.0
C311 C 0.26727 0.30615 1.0086 0.0
C312 C 0.25563 0.29855 0.08676 0.0
C313 C 0.2675 0.31406 0.05387 0.0
C314 C 0.24335 0.26683 0.0292 0.0
C315 C 0.28393 0.2161 0.22953 0.0
C316 C 0.23122 0.25832 0.10954 0.0
C317 C 0.13661 0.19763 0.1798 0.0
C318 C 0.15298 0.17583 0.17278 0.0
C319 C 0.28025 0.28861 0.22709 0.0
C320 C 0.25269 0.22891 0.43906 0.0
C321 C 0.2413 0.22063 0.51828 0.0
C322 C 0.22643 0.19879 0.50399 0.0
C323 C 0.23753 0.20732 0.42588 0.0
C324 C 0.25443 0.23563 0.48517 0.0
C325 C 0.22449 0.19233 0.45818 0.0
C326 C 0.22131 0.28748 0.28432 0.0
C327 C 0.26673 0.24451 0.40496 0.0
H328 H 0.27618 0.3189 0.98378 0.0
H329 H 0.2558 0.30496 0.12155 0.0
H330 H 0.27679 0.33236 0.06345 0.0
H331 H 0.23427 0.2483 0.02018 0.0
H332 H 0.21651 0.1864 0.5282 0.0
H333 H 0.23593 0.20209 0.39063 0.0
H334 H 0.26579 0.25269 0.495 0.0
H335 H 0.21296 0.17554 0.44769 0.0
Eu336 Eu 0.73161 0.25455 0.31697 0.0
C337 C 0.83382 0.2392 0.18684 0.0
N338 N 0.81709 0.25996 0.1905 0.0
C339 C 0.85291 0.29003 0.18328 0.0
C340 C 0.86101 0.24316 0.18145 0.0
C341 C 0.82609 0.28514 0.18841 0.0
C342 C 0.87046 0.26895 0.17979 0.0
C343 C 0.84055 0.19194 0.18388 0.0
C344 C 0.82372 0.21387 0.18813 0.0
C345 C 0.86767 0.19583 0.17881 0.0
C346 C 0.87787 0.22136 0.17765 0.0
Eu347 Eu 0.77234 0.24972 0.19912 0.0
N348 N 0.79744 0.21067 0.19419 0.0
C349 C 0.82961 0.16674 0.18495 0.0
C350 C 0.78655 0.18617 0.19378 0.0
C351 C 0.80249 0.16387 0.18964 0.0
H352 H 0.8125 0.30147 0.19001 0.0
H353 H 0.79384 0.14447 0.18998 0.0
H354 H 0.67153 0.23142 0.29608 0.0
H355 H 0.76088 0.35489 0.36336 0.0
H356 H 0.76563 0.18374 0.197 0.0
H357 H 0.84189 0.14941 0.18185 0.0
H358 H 0.76512 0.30677 0.36052 0.0
H359 H 0.86 0.31003 0.18166 0.0
H360 H 0.88092 0.17922 0.17569 0.0
H361 H 0.89884 0.22404 0.17361 0.0
H362 H 0.62693 0.24868 0.28032 0.0
H363 H 0.89121 0.27274 0.1754 0.0
H364 H 0.71996 0.37622 0.33708 0.0
N365 N 0.68826 0.26929 0.3044 0.0
C366 C 0.6842 0.2957 0.30575 0.0
C367 C 0.64288 0.2621 0.28732 0.0
C368 C 0.65921 0.30641 0.29657 0.0
C369 C 0.66804 0.25238 0.2963 0.0
C370 C 0.63848 0.28923 0.28707 0.0
N371 N 0.72894 0.30096 0.32588 0.0
C372 C 0.748 0.31584 0.34583 0.0
C373 C 0.70137 0.33943 0.31906 0.0
C374 C 0.70521 0.31199 0.31616 0.0
C375 C 0.72212 0.35508 0.33429 0.0
C376 C 0.74529 0.34314 0.34889 0.0
H377 H 0.619 0.2967 0.27978 0.0
H378 H 0.63676 0.34241 0.28954 0.0
H379 H 0.67358 0.37132 0.30977 0.0
O380 O 0.74222 0.25729 0.38845 0.0
O381 O 0.71407 0.26562 0.2484 0.0
O382 O 0.74862 0.28592 0.21555 0.0
O383 O 0.70651 0.23781 0.36975 0.0
O384 O 0.77422 0.26829 0.31404 0.0
O385 O 0.77694 0.28585 0.24304 0.0
O386 O 0.74806 0.24218 0.13942 0.0
O387 O 0.78984 0.22754 0.25873 0.0
O388 O 0.75693 0.21793 0.31051 0.0
O389 O 0.78441 0.2633 0.13219 0.0
O390 O 0.73681 0.22297 0.20614 0.0
O391 O 0.72147 0.21687 0.27998 0.0
C392 C 0.72335 0.28391 0.22181 0.0
C393 C 0.7073 0.26052 0.44008 0.0
C394 C 0.70338 0.27087 0.52072 0.0
C395 C 0.68429 0.28992 0.51025 0.0
C396 C 0.68808 0.27952 0.43063 0.0
C397 C 0.67664 0.29407 0.46554 0.0
C398 C 0.71475 0.25608 0.48529 0.0
C399 C 0.78558 0.28393 0.28467 0.0
C400 C 0.72081 0.24644 0.40301 0.0
C401 C 0.65573 0.33379 0.29709 0.0
C402 C 0.67675 0.35026 0.30836 0.0
C403 C 0.78073 0.21464 0.29395 0.0
C404 C 0.77133 0.23644 0.07095 0.0
C405 C 0.76732 0.22721 0.98992 0.0
C406 C 0.78383 0.20523 0.99551 0.0
C407 C 0.78778 0.21445 0.07529 0.0
C408 C 0.7612 0.24291 0.02803 0.0
C409 C 0.79395 0.19897 0.03786 0.0
C410 C 0.72208 0.2109 0.23644 0.0
C411 C 0.76475 0.25245 0.11116 0.0
H412 H 0.67506 0.30142 0.53676 0.0
H413 H 0.68201 0.28326 0.3963 0.0
H414 H 0.66186 0.30873 0.4579 0.0
H415 H 0.7298 0.24162 0.49275 0.0
H416 H 0.7893 0.19304 0.9669 0.0
H417 H 0.79597 0.20922 0.10752 0.0
H418 H 0.74842 0.25985 0.02446 0.0
H419 H 0.80674 0.18209 0.04166 0.0
Eu420 Eu 0.72831 0.75229 0.68923 0.0
C421 C 0.81579 0.79893 0.79657 0.0
N422 N 0.8122 0.77249 0.79618 0.0
C423 C 0.85786 0.76551 0.78086 0.0
C424 C 0.84067 0.80976 0.78739 0.0
C425 C 0.83277 0.75568 0.78962 0.0
C426 C 0.86179 0.79267 0.77936 0.0
C427 C 0.79763 0.8427 0.80608 0.0
C428 C 0.79439 0.81516 0.80541 0.0
C429 C 0.82215 0.8536 0.79535 0.0
C430 C 0.84362 0.83718 0.78608 0.0
Eu431 Eu 0.76927 0.7574 0.80972 0.0
N432 N 0.77075 0.80406 0.81516 0.0
C433 C 0.77633 0.85846 0.81889 0.0
C434 C 0.75107 0.81922 0.83276 0.0
C435 C 0.75316 0.84662 0.83338 0.0
H436 H 0.82965 0.73469 0.79047 0.0
H437 H 0.73713 0.85857 0.84594 0.0
H438 H 0.69584 0.8094 0.67896 0.0
H439 H 0.69337 0.65247 0.65826 0.0
H440 H 0.73401 0.81036 0.84776 0.0
H441 H 0.77799 0.87968 0.81982 0.0
H442 H 0.72659 0.6874 0.66893 0.0
H443 H 0.8741 0.75216 0.77501 0.0
H444 H 0.82485 0.87472 0.79503 0.0
H445 H 0.86247 0.84588 0.77834 0.0
H446 H 0.64981 0.82501 0.67536 0.0
H447 H 0.88119 0.80024 0.7721 0.0
H448 H 0.64608 0.66383 0.65882 0.0
N449 N 0.68534 0.76908 0.68167 0.0
C450 C 0.66584 0.75107 0.67803 0.0
C451 C 0.65403 0.80416 0.67648 0.0
C452 C 0.63936 0.759 0.67482 0.0
C453 C 0.68001 0.79531 0.67899 0.0
C454 C 0.63358 0.78594 0.675 0.0
N455 N 0.69822 0.71778 0.67695 0.0
C456 C 0.70596 0.69242 0.66912 0.0
C457 C 0.65288 0.70549 0.66864 0.0
C458 C 0.67249 0.72467 0.67495 0.0
C459 C 0.66055 0.67917 0.66346 0.0
C460 C 0.68723 0.67267 0.66313 0.0
H461 H 0.61348 0.79284 0.6727 0.0
H462 H 0.59918 0.74561 0.66821 0.0
H463 H 0.61103 0.69875 0.66289 0.0
O464 O 0.75663 0.74812 0.63388 0.0
O465 O 0.7149 0.72315 0.74248 0.0
O466 O 0.73697 0.72659 0.81186 0.0
O467 O 0.717 0.7605 0.61946 0.0
O468 O 0.76039 0.72185 0.70055 0.0
O469 O 0.78026 0.72016 0.77222 0.0
O470 O 0.76943 0.76797 0.88173 0.0
O471 O 0.78629 0.76605 0.73971 0.0
O472 O 0.75235 0.78784 0.70744 0.0
O473 O 0.791 0.73407 0.8592 0.0
O474 O 0.72608 0.7687 0.80829 0.0
O475 O 0.72343 0.78645 0.73774 0.0
C476 C 0.71912 0.71612 0.78477 0.0
C477 C 0.74991 0.77519 0.56979 0.0
C478 C 0.75986 0.78696 0.49147 0.0
C479 C 0.76756 0.81205 0.50649 0.0
C480 C 0.75741 0.80039 0.58382 0.0
C481 C 0.76632 0.81866 0.55233 0.0
C482 C 0.75097 0.76857 0.52355 0.0
C483 C 0.77663 0.71142 0.73051 0.0
C484 C 0.74021 0.75594 0.60285 0.0
C485 C 0.61965 0.7399 0.67032 0.0
C486 C 0.6264 0.71321 0.66721 0.0
C487 C 0.7776 0.78487 0.71338 0.0
C488 C 0.77197 0.73232 0.93252 0.0
C489 C 0.75996 0.72917 0.01265 0.0
C490 C 0.74968 0.70399 1.00415 0.0
C491 C 0.76203 0.70694 0.92548 0.0
C492 C 0.77115 0.7433 0.97644 0.0
C493 C 0.7508 0.693 0.96096 0.0
C494 C 0.71355 0.78294 0.77819 0.0
C495 C 0.78276 0.74742 0.89407 0.0
H496 H 0.77427 0.82668 0.48267 0.0
H497 H 0.75608 0.80597 0.61902 0.0
H498 H 0.77211 0.83809 0.56345 0.0
H499 H 0.74499 0.74913 0.51261 0.0
H500 H 0.74124 0.6925 0.03123 0.0
H501 H 0.76306 0.69785 0.89247 0.0
H502 H 0.77891 0.76284 0.98227 0.0
H503 H 0.74309 0.67348 0.95501 0.0
Eu504 Eu 0.50396 0.51392 0.07047 0.0
C505 C 0.48429 0.42328 0.93469 0.0
N506 N 0.50675 0.43682 0.94348 0.0
C507 C 0.53114 0.39638 0.94557 0.0
C508 C 0.48443 0.39558 0.93198 0.0
C509 C 0.53021 0.42383 0.94647 0.0
C510 C 0.5081 0.38216 0.93882 0.0
C511 C 0.43824 0.42378 0.91305 0.0
C512 C 0.46137 0.43716 0.92538 0.0
C513 C 0.43827 0.39624 0.91115 0.0
C514 C 0.46128 0.38218 0.92065 0.0
Eu515 Eu 0.50264 0.48326 0.9434 0.0
N516 N 0.46188 0.46384 0.92697 0.0
C517 C 0.41594 0.43853 0.90173 0.0
C518 C 0.44068 0.47839 0.9137 0.0
C519 C 0.41724 0.46595 0.90173 0.0
H520 H 0.54848 0.43443 0.94837 0.0
H521 H 0.40024 0.47744 0.89232 0.0
H522 H 0.47985 0.57394 0.05488 0.0
H523 H 0.59875 0.48312 0.14034 0.0
H524 H 0.44187 0.4996 0.91301 0.0
H525 H 0.3978 0.42894 0.89217 0.0
H526 H 0.55256 0.47747 0.11901 0.0
H527 H 0.54974 0.38622 0.94892 0.0
H528 H 0.42074 0.38569 0.90131 0.0
H529 H 0.46118 0.36094 0.9179 0.0
H530 H 0.4944 0.62022 0.06203 0.0
H531 H 0.50897 0.36089 0.93719 0.0
H532 H 0.61849 0.52743 0.14105 0.0
N533 N 0.51693 0.55819 0.07345 0.0
C534 C 0.54163 0.56308 0.0885 0.0
C535 C 0.50794 0.60433 0.06912 0.0
C536 C 0.5508 0.58906 0.09292 0.0
C537 C 0.49978 0.57822 0.06493 0.0
C538 C 0.53357 0.60977 0.08307 0.0
N539 N 0.54744 0.51727 0.09854 0.0
C540 C 0.5614 0.49657 0.11544 0.0
C541 C 0.58327 0.54646 0.11618 0.0
C542 C 0.5575 0.54199 0.10045 0.0
C543 C 0.59848 0.52489 0.1294 0.0
C544 C 0.5874 0.49986 0.12928 0.0
H545 H 0.53964 0.63 0.08708 0.0
H546 H 0.58394 0.6133 0.1119 0.0
H547 H 0.61257 0.57606 0.13105 0.0
O548 O 0.50455 0.51408 0.14508 0.0
O549 O 0.52144 0.53775 0.01237 0.0
O550 O 0.53862 0.50659 0.96404 0.0
O551 O 0.46832 0.52299 0.10862 0.0
O552 O 0.52162 0.47333 0.05837 0.0
O553 O 0.539 0.4746 0.98638 0.0
O554 O 0.49702 0.50555 0.8811 0.0
O555 O 0.46855 0.47532 0.99272 0.0
O556 O 0.48989 0.47226 0.06018 0.0
O557 O 0.51817 0.46894 0.87868 0.0
O558 O 0.48483 0.52375 0.95288 0.0
O559 O 0.46885 0.52496 0.02632 0.0
C560 C 0.53851 0.53038 0.98144 0.0
C561 C 0.46561 0.52428 0.19098 0.0
C562 C 0.46447 0.52655 0.27377 0.0
C563 C 0.43806 0.53443 0.27154 0.0
C564 C 0.43909 0.53197 0.18999 0.0
C565 C 0.42546 0.53693 0.22998 0.0
C566 C 0.47821 0.52123 0.23327 0.0
C567 C 0.53935 0.46611 0.02839 0.0
C568 C 0.47984 0.52043 0.14769 0.0
C569 C 0.57654 0.59351 0.10798 0.0
C570 C 0.59283 0.57227 0.11911 0.0
C571 C 0.47018 0.46586 0.03398 0.0
C572 C 0.52791 0.50039 0.82225 0.0
C573 C 0.53759 0.51205 0.74378 0.0
C574 C 0.56046 0.52486 0.75863 0.0
C575 C 0.5511 0.51276 0.83612 0.0
C576 C 0.52138 0.49976 0.77598 0.0
C577 C 0.56722 0.52503 0.80443 0.0
C578 C 0.46845 0.53269 0.98378 0.0
C579 C 0.50982 0.48901 0.85566 0.0
H580 H 0.42708 0.5385 0.30216 0.0
H581 H 0.42885 0.53442 0.1582 0.0
H582 H 0.40507 0.54293 0.22874 0.0
H583 H 0.49867 0.51539 0.23473 0.0
H584 H 0.57329 0.53448 0.73468 0.0
H585 H 0.55659 0.51309 0.87146 0.0
H586 H 0.50341 0.49025 0.76518 0.0
H587 H 0.58498 0.53479 0.81542 0.0
Eu588 Eu 0.00231 0.4781 0.57379 0.0
C589 C 0.01411 0.58136 0.45624 0.0
N590 N 0.99254 0.56572 0.4581 0.0
C591 C 0.96449 0.60359 0.46064 0.0
C592 C 0.01161 0.60897 0.45741 0.0
C593 C 0.96794 0.57632 0.45929 0.0
C594 C 0.98642 0.61999 0.45993 0.0
C595 C 0.06158 0.58545 0.45291 0.0
C596 C 0.03885 0.56972 0.4541 0.0
C597 C 0.05914 0.61294 0.45409 0.0
C598 C 0.03424 0.62467 0.45637 0.0
Eu599 Eu 1.00044 0.52005 0.45805 0.0
N600 N 0.0407 0.54301 0.455 0.0
C601 C 0.08613 0.57305 0.45108 0.0
C602 C 0.06449 0.53085 0.45127 0.0
C603 C 0.08756 0.54564 0.44982 0.0
H604 H 0.95095 0.56375 0.4585 0.0
H605 H 0.10643 0.53589 0.44754 0.0
H606 H 0.05025 0.43294 0.57537 0.0
H607 H 0.89566 0.4656 0.5845 0.0
H608 H 0.06582 0.50981 0.44911 0.0
H609 H 0.10406 0.58444 0.45024 0.0
H610 H 0.93695 0.49038 0.58304 0.0
H611 H 0.94493 0.61193 0.46203 0.0
H612 H 0.0764 0.62533 0.45344 0.0
H613 H 0.03269 0.64591 0.4574 0.0
H614 H 0.05484 0.38459 0.57572 0.0
H615 H 0.98369 0.64112 0.46106 0.0
H616 H 0.89661 0.41699 0.58303 0.0
N617 N 0.00866 0.43224 0.57501 0.0
C618 C 0.9866 0.41733 0.57737 0.0
C619 C 0.03553 0.39352 0.5757 0.0
C620 C 0.98825 0.38966 0.57795 0.0
C621 C 0.03292 0.42087 0.57485 0.0
C622 C 0.01309 0.37784 0.57706 0.0
N623 N 0.9612 0.45652 0.57714 0.0
C624 C 0.93774 0.46936 0.58073 0.0
C625 C 0.93902 0.41474 0.58039 0.0
C626 C 0.96222 0.42977 0.57871 0.0
C627 C 0.91485 0.42785 0.58174 0.0
C628 C 0.91424 0.45528 0.58235 0.0
H629 H 0.01513 0.35665 0.57792 0.0
H630 H 0.96606 0.35341 0.57964 0.0
H631 H 0.92298 0.37535 0.58157 0.0
O632 O 0.98942 0.49171 0.64039 0.0
O633 O 0.98534 0.4588 0.51048 0.0
O634 O 0.96637 0.49236 0.46994 0.0
O635 O 0.02145 0.46406 0.63534 0.0
O636 O 0.9803 0.51711 0.57163 0.0
O637 O 0.96322 0.52231 0.49987 0.0
O638 O 0.01435 0.50733 0.39164 0.0
O639 O 0.01785 0.53903 0.52129 0.0
O640 O 0.03667 0.5055 0.56214 0.0
O641 O 0.98091 0.53325 0.39618 0.0
O642 O 0.02285 0.48127 0.4601 0.0
O643 O 0.0396 0.47496 0.53197 0.0
C644 C 0.96797 0.46745 0.48117 0.0
C645 C 0.02174 0.49355 0.69719 0.0
C646 C 0.02775 0.50644 0.77621 0.0
C647 C 0.04882 0.52247 0.76305 0.0
C648 C 0.0426 0.50989 0.68494 0.0
C649 C 0.05609 0.52425 0.7177 0.0
C650 C 0.01433 0.49181 0.7429 0.0
C651 C 0.96271 0.52694 0.5437 0.0
C652 C 0.0074 0.47869 0.66231 0.0
C653 C 0.96515 0.37469 0.57938 0.0
C654 C 0.94062 0.38718 0.58052 0.0
C655 C 0.03514 0.53038 0.55074 0.0
C656 C 0.9825 0.5035 0.33458 0.0
C657 C 0.97694 0.49029 0.25551 0.0
C658 C 0.95828 0.47162 0.26936 0.0
C659 C 0.96408 0.4846 0.34737 0.0
C660 C 0.98891 0.50638 0.28858 0.0
C661 C 0.95195 0.46883 0.31496 0.0
C662 C 0.0406 0.47148 0.48777 0.0
C663 C 0.99583 0.51935 0.36941 0.0
H664 H 0.05993 0.53332 0.78803 0.0
H665 H 0.04842 0.51136 0.65004 0.0
H666 H 0.0723 0.53671 0.70794 0.0
H667 H 0.99797 0.47941 0.75236 0.0
H668 H 0.94838 0.45926 0.24487 0.0
H669 H 0.9593 0.48204 0.3825 0.0
H670 H 0.00355 0.52067 0.27877 0.0
H671 H 0.93765 0.45433 0.32524 0.0
H672 H 0.08293 0.0178 0.44085 0.0
H673 H 0.11599 0.04605 0.40611 0.0
H674 H 0.07804 0.11436 0.46319 0.0
H675 H 0.04399 0.0864 0.4957 0.0
H676 H 0.10803 0.08572 0.34288 0.0
H677 H 0.12743 0.15761 0.49144 0.0
H678 H 0.13326 0.15758 0.57426 0.0
H679 H 0.15452 0.07586 0.56981 0.0
H680 H 0.14846 0.07535 0.48718 0.0
H681 H 0.16879 0.20957 0.28062 0.0
H682 H 0.14002 0.17558 0.31118 0.0
H683 H 0.20735 0.13427 0.36353 0.0
H684 H 0.23644 0.16725 0.33049 0.0
H685 H 0.16539 0.14677 0.42858 0.0
H686 H 0.18131 0.1035 0.28845 0.0
H687 H 0.18375 0.09609 0.20624 0.0
H688 H 0.10142 0.11295 0.19389 0.0
H689 H 0.0985 0.12047 0.27619 0.0
C690 C 0.0813 0.03885 0.44542 0.0
C691 C 0.0604 0.04977 0.47038 0.0
C692 C 0.10042 0.05498 0.42592 0.0
C693 C 0.09954 0.08235 0.43198 0.0
C694 C 0.07925 0.09328 0.45823 0.0
C695 C 0.0598 0.07721 0.47695 0.0
C696 C 0.11903 0.09957 0.40907 0.0
C697 C 0.12045 0.09918 0.36166 0.0
C698 C 0.13572 0.11672 0.43339 0.0
C699 C 0.13721 0.11639 0.4833 0.0
C700 C 0.13309 0.13959 0.50827 0.0
C701 C 0.13648 0.13968 0.55514 0.0
C702 C 0.14427 0.11674 0.57728 0.0
C703 C 0.1484 0.0936 0.55265 0.0
C704 C 0.14476 0.09333 0.50587 0.0
C705 C 0.1776 0.19294 0.29756 0.0
C706 C 0.20501 0.19127 0.30308 0.0
C707 C 0.16106 0.17357 0.31525 0.0
C708 C 0.17153 0.15241 0.33968 0.0
C709 C 0.19886 0.15045 0.3448 0.0
C710 C 0.21544 0.16943 0.32607 0.0
C711 C 0.15388 0.13337 0.36248 0.0
C712 C 0.15271 0.13355 0.40982 0.0
C713 C 0.13784 0.11566 0.3381 0.0
C714 C 0.13977 0.11288 0.28838 0.0
C715 C 0.16381 0.10602 0.26813 0.0
C716 C 0.16523 0.10159 0.22157 0.0
C717 C 0.14275 0.10402 0.19485 0.0
C718 C 0.11881 0.11101 0.21465 0.0
C719 C 0.11725 0.11533 0.26126 0.0
H720 H 0.14391 0.10059 0.15879 0.0
H721 H 0.14703 0.11687 0.61354 0.0
H722 H 0.08755 0.96108 0.50845 0.0
H723 H 0.12006 0.92969 0.53716 0.0
H724 H 0.06686 0.90827 0.64439 0.0
H725 H 0.03513 0.94053 0.61719 0.0
H726 H 0.11163 0.91371 0.67883 0.0
H727 H 0.08241 0.86671 0.54457 0.0
H728 H 0.0742 0.8601 0.46306 0.0
H729 H 0.15518 0.87583 0.43423 0.0
H730 H 0.16398 0.88223 0.51552 0.0
H731 H 0.16879 0.79144 0.74477 0.0
H732 H 0.13988 0.82456 0.71182 0.0
H733 H 0.20499 0.85621 0.63689 0.0
H734 H 0.23442 0.82395 0.67154 0.0
H735 H 0.15748 0.84699 0.58487 0.0
H736 H 0.18709 0.89013 0.71888 0.0
H737 H 0.19587 0.89681 0.8 0.0
H738 H 0.11372 0.88888 0.82913 0.0
H739 H 0.10448 0.88162 0.74822 0.0
C740 C 0.08284 0.94953 0.53801 0.0
C741 C 0.05891 0.95333 0.56075 0.0
C742 C 0.10135 0.93142 0.55426 0.0
C743 C 0.09592 0.91621 0.59277 0.0
C744 C 0.07171 0.91975 0.61482 0.0
C745 C 0.05353 0.93822 0.59924 0.0
C746 C 0.11569 0.89751 0.61173 0.0
C747 C 0.12125 0.89886 0.65824 0.0
C748 C 0.12919 0.87867 0.58488 0.0
C749 C 0.12378 0.87521 0.53603 0.0
C750 C 0.09841 0.86894 0.5208 0.0
C751 C 0.09366 0.86519 0.47468 0.0
C752 C 0.11408 0.86777 0.44351 0.0
C753 C 0.13936 0.87391 0.45839 0.0
C754 C 0.14427 0.8775 0.50448 0.0
C755 C 0.17717 0.80576 0.72219 0.0
C756 C 0.20413 0.80536 0.7119 0.0
C757 C 0.16052 0.82456 0.70299 0.0
C758 C 0.17034 0.84296 0.67218 0.0
C759 C 0.19705 0.84222 0.66073 0.0
C760 C 0.21384 0.82377 0.68068 0.0
C761 C 0.15259 0.86286 0.65183 0.0
C762 C 0.14762 0.8618 0.60524 0.0
C763 C 0.13951 0.88188 0.67857 0.0
C764 C 0.14512 0.8851 0.72748 0.0
C765 C 0.17093 0.88944 0.74262 0.0
C766 C 0.17598 0.89347 0.78855 0.0
C767 C 0.15535 0.89345 0.81963 0.0
C768 C 0.12966 0.88905 0.80495 0.0
C769 C 0.12451 0.88493 0.75907 0.0
H770 H 0.15927 0.89673 0.85514 0.0
H771 H 0.11034 0.86488 0.40783 0.0
H772 H 0.31842 0.77761 0.86175 0.0
H773 H 0.35076 0.80847 0.89169 0.0
H774 H 0.32855 0.86504 0.79019 0.0
H775 H 0.29685 0.83372 0.75903 0.0
H776 H 0.37929 0.86655 0.80093 0.0
H777 H 0.30581 0.86824 0.90146 0.0
H778 H 0.27214 0.8492 0.95132 0.0
H779 H 0.33233 0.81979 0.0394 0.0
H780 H 0.36641 0.83827 0.98964 0.0
H781 H 0.42257 0.9796 0.93691 0.0
H782 H 0.39272 0.94798 0.90115 0.0
H783 H 0.44105 0.88403 0.94819 0.0
H784 H 0.47211 0.91546 0.9804 0.0
H785 H 0.37717 0.88751 0.96485 0.0
H786 H 0.45057 0.88605 0.85909 0.0
H787 H 0.48252 0.90713 0.80839 0.0
H788 H 0.41949 0.93871 0.72885 0.0
H789 H 0.38712 0.91871 0.78025 0.0
C790 C 0.32048 0.79662 0.84579 0.0
C791 C 0.30496 0.80338 0.80834 0.0
C792 C 0.33893 0.81429 0.86299 0.0
C793 C 0.34174 0.83937 0.84385 0.0
C794 C 0.32671 0.84587 0.80566 0.0
C795 C 0.30856 0.828 0.78795 0.0
C796 C 0.35989 0.85897 0.86433 0.0
C797 C 0.37859 0.87128 0.83669 0.0
C798 C 0.35917 0.86516 0.9111 0.0
C799 C 0.33869 0.85445 0.94158 0.0
C800 C 0.31189 0.85759 0.93132 0.0
C801 C 0.29272 0.84689 0.95957 0.0
C802 C 0.3001 0.83324 0.99845 0.0
C803 C 0.32665 0.83034 1.00924 0.0
C804 C 0.3459 0.84094 0.98104 0.0
C805 C 0.42709 0.95883 0.93894 0.0
C806 C 0.44966 0.95003 0.96175 0.0
C807 C 0.40992 0.94083 0.91885 0.0
C808 C 0.41476 0.91376 0.92215 0.0
C809 C 0.437 0.90488 0.94542 0.0
C810 C 0.45458 0.92286 0.96422 0.0
C811 C 0.3965 0.89465 0.9015 0.0
C812 C 0.37775 0.88264 0.92913 0.0
C813 C 0.39694 0.88903 0.85472 0.0
C814 C 0.4164 0.90128 0.82406 0.0
C815 C 0.4435 0.89794 0.83138 0.0
C816 C 0.4617 0.90964 0.80244 0.0
C817 C 0.45304 0.92436 0.76557 0.0
C818 C 0.42616 0.92742 0.75758 0.0
C819 C 0.40789 0.91599 0.78671 0.0
H820 H 0.46714 0.93329 0.74307 0.0
H821 H 0.28523 0.82495 0.02025 0.0
H822 H 0.47585 0.07476 0.08793 0.0
H823 H 0.4436 0.10596 0.11771 0.0
H824 H 0.38232 0.06627 0.04351 0.0
H825 H 0.4151 0.03589 0.01152 0.0
H826 H 0.37139 0.11545 0.04473 0.0
H827 H 0.39393 0.05446 0.15876 0.0
H828 H 0.42358 0.02822 0.20683 0.0
H829 H 0.4538 0.09891 0.26675 0.0
H830 H 0.42463 0.12557 0.21846 0.0
H831 H 0.29422 0.16613 0.25842 0.0
H832 H 0.3237 0.13382 0.22338 0.0
H833 H 0.34747 0.19164 0.1253 0.0
H834 H 0.31729 0.22352 0.15905 0.0
H835 H 0.37295 0.12882 0.21095 0.0
H836 H 0.36056 0.16419 0.02428 0.0
H837 H 0.32645 0.185 0.97711 0.0
H838 H 0.2665 0.15573 0.06543 0.0
H839 H 0.30015 0.13429 0.11255 0.0
C840 C 0.45553 0.07301 0.07751 0.0
C841 C 0.4478 0.05295 0.04778 0.0
C842 C 0.43707 0.09069 0.09477 0.0
C843 C 0.41033 0.08803 0.08403 0.0
C844 C 0.40278 0.06866 0.05258 0.0
C845 C 0.42145 0.05135 0.03428 0.0
C846 C 0.39037 0.10482 0.10711 0.0
C847 C 0.37172 0.11836 0.08105 0.0
C848 C 0.39006 0.10791 0.15477 0.0
C849 C 0.40724 0.09199 0.1847 0.0
C850 C 0.40701 0.06438 0.18202 0.0
C851 C 0.42372 0.04945 0.20929 0.0
C852 C 0.44061 0.06189 0.23974 0.0
C853 C 0.44073 0.0893 0.2431 0.0
C854 C 0.42408 0.10434 0.21582 0.0
C855 C 0.30589 0.17194 0.22955 0.0
C856 C 0.30336 0.19724 0.21123 0.0
C857 C 0.32271 0.15347 0.20951 0.0
C858 C 0.33747 0.16007 0.17106 0.0
C859 C 0.33577 0.18577 0.15408 0.0
C860 C 0.31863 0.20405 0.17357 0.0
C861 C 0.3545 0.14014 0.14843 0.0
C862 C 0.37255 0.12591 0.17462 0.0
C863 C 0.35343 0.13555 0.10115 0.0
C864 C 0.33296 0.14783 0.07221 0.0
C865 C 0.34009 0.16203 0.03346 0.0
C866 C 0.32083 0.17396 1.00674 0.0
C867 C 0.29433 0.17175 0.01832 0.0
C868 C 0.28703 0.15748 0.05653 0.0
C869 C 0.3062 0.14543 0.08325 0.0
H870 H 0.27947 0.18106 0.99766 0.0
H871 H 0.45357 0.0503 0.2608 0.0
H872 H 0.91821 0.98438 0.59143 0.0
H873 H 0.88587 0.9524 0.61808 0.0
H874 H 0.94162 0.88967 0.5952 0.0
H875 H 0.97362 0.92144 0.56802 0.0
H876 H 0.89876 0.87425 0.56393 0.0
H877 H 0.92085 0.9105 0.7084 0.0
H878 H 0.92658 0.94064 0.77316 0.0
H879 H 0.84673 0.96676 0.75966 0.0
H880 H 0.84048 0.93661 0.6951 0.0
H881 H 0.82841 0.77559 0.68827 0.0
H882 H 0.86033 0.8074 0.6597 0.0
H883 H 0.8008 0.8679 0.66251 0.0
H884 H 0.7691 0.8363 0.69222 0.0
H885 H 0.84492 0.88393 0.70248 0.0
H886 H 0.82432 0.83869 0.56233 0.0
H887 H 0.82093 0.79962 0.51289 0.0
H888 H 0.90338 0.78492 0.52806 0.0
H889 H 0.90729 0.8235 0.57825 0.0
C890 C 0.92364 0.9638 0.5927 0.0
C891 C 0.94843 0.95545 0.57734 0.0
C892 C 0.90515 0.94547 0.60811 0.0
C893 C 0.91118 0.91843 0.60907 0.0
C894 C 0.93624 0.91028 0.59469 0.0
C895 C 0.95458 0.92851 0.57908 0.0
C896 C 0.89112 0.89845 0.62255 0.0
C897 C 0.88725 0.87633 0.59459 0.0
C898 C 0.8756 0.90101 0.66208 0.0
C899 C 0.88031 0.92156 0.69663 0.0
C900 C 0.90468 0.92305 0.71871 0.0
C901 C 0.90792 0.93991 0.75569 0.0
C902 C 0.88698 0.95551 0.77061 0.0
C903 C 0.8629 0.95462 0.74813 0.0
C904 C 0.85949 0.93763 0.71142 0.0
C905 C 0.82213 0.79564 0.68241 0.0
C906 C 0.79629 0.80349 0.69251 0.0
C907 C 0.84032 0.81377 0.66573 0.0
C908 C 0.83295 0.84006 0.65837 0.0
C909 C 0.80697 0.84774 0.66768 0.0
C910 C 0.78881 0.82965 0.68444 0.0
C911 C 0.85261 0.86001 0.64394 0.0
C912 C 0.85634 0.8821 0.67166 0.0
C913 C 0.86848 0.85697 0.60495 0.0
C914 C 0.86604 0.83389 0.57441 0.0
C915 C 0.84168 0.82701 0.55543 0.0
C916 C 0.83966 0.80498 0.52723 0.0
C917 C 0.86186 0.78983 0.51741 0.0
C918 C 0.88618 0.79667 0.53571 0.0
C919 C 0.88832 0.81861 0.56403 0.0
H920 H 0.86022 0.7728 0.49555 0.0
H921 H 0.88933 0.96825 0.79966 0.0
H922 H 0.91782 0.04766 0.53061 0.0
H923 H 0.88529 0.07857 0.50005 0.0
H924 H 0.93971 0.1007 0.3954 0.0
H925 H 0.97211 0.06965 0.42537 0.0
H926 H 0.9134 0.14414 0.43686 0.0
H927 H 0.89394 0.06064 0.36706 0.0
H928 H 0.88351 0.01335 0.36561 0.0
H929 H 0.81403 0.02786 0.44411 0.0
H930 H 0.82418 0.07526 0.44632 0.0
H931 H 0.83337 0.20798 0.27942 0.0
H932 H 0.86322 0.17761 0.31618 0.0
H933 H 0.80004 0.14982 0.40029 0.0
H934 H 0.7694 0.17913 0.36114 0.0
H935 H 0.82963 0.10983 0.37494 0.0
H936 H 0.84715 0.19432 0.43945 0.0
H937 H 0.85658 0.2418 0.43678 0.0
H938 H 0.92939 0.22607 0.36862 0.0
H939 H 0.92021 0.1785 0.37023 0.0
C940 C 0.9229 0.0593 0.50135 0.0
C941 C 0.94749 0.05624 0.48034 0.0
C942 C 0.90429 0.07686 0.48383 0.0
C943 C 0.91006 0.09187 0.44536 0.0
C944 C 0.93486 0.08935 0.42513 0.0
C945 C 0.95329 0.07152 0.44217 0.0
C946 C 0.89002 0.1096 0.42521 0.0
C947 C 0.89515 0.13666 0.42306 0.0
C948 C 0.86596 0.09992 0.40812 0.0
C949 C 0.85997 0.07143 0.40729 0.0
C950 C 0.87657 0.05371 0.38436 0.0
C951 C 0.87064 0.02692 0.38323 0.0
C952 C 0.84814 0.0176 0.4048 0.0
C953 C 0.83146 0.0351 0.42746 0.0
C954 C 0.83727 0.06194 0.42859 0.0
C955 C 0.82553 0.19503 0.30487 0.0
C956 C 0.79877 0.19581 0.31664 0.0
C957 C 0.84284 0.17792 0.32657 0.0
C958 C 0.83409 0.16173 0.36175 0.0
C959 C 0.80733 0.16219 0.37339 0.0
C960 C 0.78984 0.17906 0.35107 0.0
C961 C 0.85298 0.14448 0.38628 0.0
C962 C 0.84768 0.11747 0.38925 0.0
C963 C 0.87685 0.15427 0.40432 0.0
C964 C 0.88291 0.18282 0.40474 0.0
C965 C 0.86514 0.20098 0.42378 0.0
C966 C 0.87044 0.22792 0.42242 0.0
C967 C 0.89355 0.23695 0.40248 0.0
C968 C 0.91149 0.21905 0.38405 0.0
C969 C 0.90627 0.19208 0.38524 0.0
H970 H 0.89757 0.25782 0.40139 0.0
H971 H 0.84362 0.99683 0.40397 0.0
H972 H 0.68441 0.18319 0.28308 0.0
H973 H 0.65271 0.15184 0.25214 0.0
H974 H 0.68774 0.15974 0.12025 0.0
H975 H 0.71907 0.19121 0.1504 0.0
H976 H 0.63607 0.16459 0.11494 0.0
H977 H 0.69612 0.10421 0.18484 0.0
H978 H 0.72207 0.08552 0.24733 0.0
H979 H 0.65135 0.07066 0.32181 0.0
H980 H 0.62498 0.08963 0.26001 0.0
H981 H 0.58354 0.04297 0.01539 0.0
H982 H 0.61434 0.07486 0.04766 0.0
H983 H 0.55897 0.09275 0.15353 0.0
H984 H 0.52737 0.0624 0.1197 0.0
H985 H 0.61947 0.07492 0.17329 0.0
H986 H 0.56002 0.13777 0.10661 0.0
H987 H 0.53426 0.16062 0.04815 0.0
H988 H 0.60412 0.172 0.96956 0.0
H989 H 0.63024 0.14871 0.0272 0.0
C990 C 0.68553 0.17811 0.24757 0.0
C991 C 0.70426 0.18999 0.21929 0.0
C992 C 0.66743 0.16007 0.22995 0.0
C993 C 0.66784 0.15335 0.18382 0.0
C994 C 0.68692 0.16467 0.15587 0.0
C995 C 0.70491 0.1827 0.17333 0.0
C996 C 0.64771 0.13558 0.16389 0.0
C997 C 0.63275 0.14484 0.12737 0.0
C998 C 0.64278 0.11006 0.18083 0.0
C999 C 0.6586 0.09861 0.21799 0.0
C1000 C 0.68611 0.09717 0.21471 0.0
C1001 C 0.7009 0.08649 0.24998 0.0
C1002 C 0.68838 0.07698 0.28858 0.0
C1003 C 0.66103 0.07807 0.29193 0.0
C1004 C 0.64615 0.08878 0.25677 0.0
C1005 C 0.57758 0.05428 0.04462 0.0
C1006 C 0.55282 0.05038 0.0644 0.0
C1007 C 0.59531 0.07228 0.06334 0.0
C1008 C 0.58883 0.08621 0.10282 0.0
C1009 C 0.56425 0.08228 0.12288 0.0
C1010 C 0.54627 0.06485 0.10351 0.0
C1011 C 0.60821 0.10397 0.12426 0.0
C1012 C 0.62297 0.09465 0.16092 0.0
C1013 C 0.61298 0.12946 0.10757 0.0
C1014 C 0.59701 0.14115 0.07091 0.0
C1015 C 0.5698 0.14459 0.0764 0.0
C1016 C 0.55517 0.15785 0.04361 0.0
C1017 C 0.5676 0.16798 1.00542 0.0
C1018 C 0.59456 0.16431 0.99935 0.0
C1019 C 0.60927 0.15101 0.03199 0.0
H1020 H 0.55631 0.17858 0.9804 0.0
H1021 H 0.69986 0.0687 0.31584 0.0
H1022 H 0.70189 0.83325 0.75207 0.0
H1023 H 0.67132 0.86382 0.78891 0.0
H1024 H 0.64729 0.80246 0.88006 0.0
H1025 H 0.67803 0.77199 0.84367 0.0
H1026 H 0.61956 0.86713 0.80507 0.0
H1027 H 0.64039 0.82685 0.98444 0.0
H1028 H 0.67599 0.80364 0.02461 0.0
H1029 H 0.73279 0.83677 0.93422 0.0
H1030 H 0.69754 0.86046 0.89399 0.0
H1031 H 0.52541 0.92096 0.94896 0.0
H1032 H 0.55505 0.88863 0.91477 0.0
H1033 H 0.62155 0.92989 0.97069 0.0
H1034 H 0.59156 0.96174 1.00669 0.0
H1035 H 0.63075 0.87841 0.97073 0.0
H1036 H 0.60075 0.9409 0.86178 0.0
H1037 H 0.56679 0.96655 0.82194 0.0
H1038 H 0.53344 0.89535 0.76923 0.0
H1039 H 0.56696 0.86923 0.80937 0.0
C1040 C 0.68956 0.82611 0.77914 0.0
C1041 C 0.69226 0.80024 0.79497 0.0
C1042 C 0.67221 0.84364 0.80036 0.0
C1043 C 0.65734 0.83558 0.83778 0.0
C1044 C 0.65894 0.80929 0.85184 0.0
C1045 C 0.67639 0.79186 0.83091 0.0
C1046 C 0.64132 0.85491 0.8638 0.0
C1047 C 0.622 0.86958 0.84125 0.0
C1048 C 0.64492 0.85865 0.91089 0.0
C1049 C 0.66631 0.8452 0.93595 0.0
C1050 C 0.66049 0.8293 0.97334 0.0
C1051 C 0.6806 0.81603 0.99607 0.0
C1052 C 0.70662 0.81864 0.98185 0.0
C1053 C 0.71262 0.83467 0.94507 0.0
C1054 C 0.69259 0.848 0.92229 0.0
C1055 C 0.54635 0.92272 0.95469 0.0
C1056 C 0.55637 0.9437 0.98022 0.0
C1057 C 0.56327 0.90439 0.93494 0.0
C1058 C 0.59058 0.90722 0.9391 0.0
C1059 C 0.60056 0.9274 0.9668 0.0
C1060 C 0.58351 0.94552 0.98742 0.0
C1061 C 0.60851 0.8901 0.91223 0.0
C1062 C 0.62828 0.87595 0.93455 0.0
C1063 C 0.60576 0.88736 0.86472 0.0
C1064 C 0.5863 0.90308 0.83881 0.0
C1065 C 0.58616 0.9307 0.84173 0.0
C1066 C 0.56696 0.94533 0.81914 0.0
C1067 C 0.54794 0.93259 0.79311 0.0
C1068 C 0.54819 0.90519 0.7894 0.0
C1069 C 0.5673 0.89046 0.81202 0.0
H1070 H 0.53303 0.94393 0.77581 0.0
H1071 H 0.72215 0.80828 0.99939 0.0
H1072 H 0.58463 0.54813 0.01629 0.0
H1073 H 0.61489 0.58001 0.98292 0.0
H1074 H 0.56314 0.58833 0.86831 0.0
H1075 H 0.53275 0.55662 0.90234 0.0
H1076 H 0.61132 0.58476 0.83873 0.0
H1077 H 0.56909 0.63916 0.94587 0.0
H1078 H 0.5514 0.6565 0.01753 0.0
H1079 H 0.62826 0.65321 0.07692 0.0
H1080 H 0.64647 0.63602 1.00531 0.0
H1081 H 0.66842 0.7056 0.76064 0.0
H1082 H 0.63877 0.67277 0.79194 0.0
H1083 H 0.69852 0.64956 0.887 0.0
H1084 H 0.72882 0.68136 0.85355 0.0
H1085 H 0.64656 0.66074 0.9248 0.0
H1086 H 0.6872 0.61004 0.80496 0.0
H1087 H 0.70054 0.60319 0.72567 0.0
H1088 H 0.61989 0.60675 0.68389 0.0
H1089 H 0.60609 0.61406 0.76288 0.0
C1090 C 0.57959 0.55714 0.9844 0.0
C1091 C 0.55636 0.55017 0.962 0.0
C1092 C 0.59689 0.57533 0.96521 0.0
C1093 C 0.59132 0.58688 0.9231 0.0
C1094 C 0.568 0.57978 0.90073 0.0
C1095 C 0.55062 0.56172 0.92015 0.0
C1096 C 0.61011 0.60583 0.90214 0.0
C1097 C 0.61879 0.60149 0.85755 0.0
C1098 C 0.62009 0.62773 0.92631 0.0
C1099 C 0.60907 0.63604 0.97044 0.0
C1100 C 0.58215 0.64179 0.9744 0.0
C1101 C 0.57208 0.6518 0.01488 0.0
C1102 C 0.58871 0.656 0.05173 0.0
C1103 C 0.61542 0.65002 0.04828 0.0
C1104 C 0.62565 0.64021 1.00773 0.0
C1105 C 0.67558 0.69302 0.78718 0.0
C1106 C 0.70123 0.69596 0.80406 0.0
C1107 C 0.65846 0.67443 0.80549 0.0
C1108 C 0.66645 0.65857 0.84167 0.0
C1109 C 0.69191 0.66159 0.85908 0.0
C1110 C 0.70919 0.67993 0.84018 0.0
C1111 C 0.64793 0.63939 0.86206 0.0
C1112 C 0.63927 0.64377 0.9064 0.0
C1113 C 0.63741 0.61808 0.83714 0.0
C1114 C 0.64563 0.61279 0.78983 0.0
C1115 C 0.67231 0.6095 0.77885 0.0
C1116 C 0.67996 0.60552 0.73396 0.0
C1117 C 0.66107 0.60457 0.69977 0.0
C1118 C 0.63449 0.60748 0.71042 0.0
C1119 C 0.62675 0.61151 0.75526 0.0
H1120 H 0.66703 0.60157 0.66502 0.0
H1121 H 0.58086 0.6638 0.08304 0.0
H1122 H 0.67267 0.27523 0.1961 0.0
H1123 H 0.64252 0.30629 0.15969 0.0
H1124 H 0.70299 0.36543 0.16062 0.0
H1125 H 0.73323 0.33439 0.19686 0.0
H1126 H 0.65411 0.38377 0.19174 0.0
H1127 H 0.68988 0.33703 0.06484 0.0
H1128 H 0.70187 0.29768 0.02039 0.0
H1129 H 0.62078 0.2753 0.01322 0.0
H1130 H 0.60832 0.31435 0.05818 0.0
H1131 H 0.59237 0.46607 0.0138 0.0
H1132 H 0.62484 0.43523 0.0457 0.0
H1133 H 0.56228 0.39042 0.10559 0.0
H1134 H 0.53001 0.42168 0.07557 0.0
H1135 H 0.61358 0.36602 0.04222 0.0
H1136 H 0.57946 0.40899 0.17968 0.0
H1137 H 0.56853 0.44637 0.22958 0.0
H1138 H 0.64755 0.47479 0.21869 0.0
H1139 H 0.65875 0.43784 0.16779 0.0
C1140 C 0.67951 0.29485 0.18843 0.0
C1141 C 0.70527 0.30242 0.19912 0.0
C1142 C 0.66233 0.31252 0.16749 0.0
C1143 C 0.67059 0.3381 0.1571 0.0
C1144 C 0.69626 0.34576 0.16818 0.0
C1145 C 0.71354 0.32799 0.1886 0.0
C1146 C 0.65232 0.35699 0.1353 0.0
C1147 C 0.64552 0.38003 0.15878 0.0
C1148 C 0.6408 0.35191 0.09261 0.0
C1149 C 0.6482 0.32849 0.0653 0.0
C1150 C 0.67462 0.32361 0.05412 0.0
C1151 C 0.6815 0.30138 0.02876 0.0
C1152 C 0.66211 0.28395 0.01416 0.0
C1153 C 0.63578 0.28879 0.02465 0.0
C1154 C 0.6288 0.31099 0.05003 0.0
C1155 C 0.58565 0.44946 0.0334 0.0
C1156 C 0.5588 0.44616 0.04234 0.0
C1157 C 0.60414 0.43203 0.05183 0.0
C1158 C 0.5959 0.41083 0.07853 0.0
C1159 C 0.56901 0.40689 0.08566 0.0
C1160 C 0.55064 0.42464 0.06836 0.0
C1161 C 0.6153 0.39262 0.09887 0.0
C1162 C 0.62234 0.36976 0.07503 0.0
C1163 C 0.62698 0.39778 0.14133 0.0
C1164 C 0.61976 0.42101 0.16906 0.0
C1165 C 0.59432 0.42356 0.18699 0.0
C1166 C 0.58814 0.44453 0.21582 0.0
C1167 C 0.60734 0.46293 0.22737 0.0
C1168 C 0.6327 0.46051 0.20977 0.0
C1169 C 0.63894 0.43962 0.18079 0.0
H1170 H 0.60255 0.47909 0.24983 0.0
H1171 H 0.66748 0.26672 0.99465 0.0
H1172 H 0.92223 0.47799 0.43574 0.0
H1173 H 0.89226 0.44662 0.401 0.0
H1174 H 0.9391 0.38243 0.45231 0.0
H1175 H 0.97062 0.41375 0.4826 0.0
H1176 H 0.9258 0.36943 0.37512 0.0
H1177 H 0.87587 0.40382 0.4982 0.0
H1178 H 0.85548 0.43767 0.54688 0.0
H1179 H 0.80926 0.46489 0.43509 0.0
H1180 H 0.8295 0.43137 0.38559 0.0
H1181 H 0.82146 0.27459 0.35077 0.0
H1182 H 0.85328 0.30555 0.38283 0.0
H1183 H 0.82743 0.36498 0.28923 0.0
H1184 H 0.79587 0.3339 0.25639 0.0
H1185 H 0.82918 0.37925 0.38844 0.0
H1186 H 0.88564 0.34555 0.26597 0.0
H1187 H 0.9062 0.30964 0.22222 0.0
H1188 H 0.9377 0.27678 0.34421 0.0
H1189 H 0.91789 0.31299 0.38856 0.0
C1190 C 0.9263 0.45719 0.43924 0.0
C1191 C 0.94892 0.44844 0.46191 0.0
C1192 C 0.90887 0.43918 0.41992 0.0
C1193 C 0.91295 0.41197 0.42466 0.0
C1194 C 0.93536 0.40324 0.44798 0.0
C1195 C 0.95327 0.42124 0.46586 0.0
C1196 C 0.8944 0.39262 0.40419 0.0
C1197 C 0.90472 0.37153 0.37882 0.0
C1198 C 0.86673 0.39515 0.40829 0.0
C1199 C 0.85437 0.41521 0.43808 0.0
C1200 C 0.86146 0.41712 0.48392 0.0
C1201 C 0.84994 0.43624 0.51166 0.0
C1202 C 0.83118 0.45347 0.49404 0.0
C1203 C 0.82382 0.45155 0.44867 0.0
C1204 C 0.83528 0.43247 0.42077 0.0
C1205 C 0.82279 0.29418 0.33673 0.0
C1206 C 0.8063 0.30187 0.30105 0.0
C1207 C 0.84094 0.3118 0.35504 0.0
C1208 C 0.8426 0.33754 0.33844 0.0
C1209 C 0.82638 0.34519 0.30246 0.0
C1210 C 0.80855 0.3274 0.28355 0.0
C1211 C 0.86078 0.35662 0.35966 0.0
C1212 C 0.85033 0.37744 0.38518 0.0
C1213 C 0.88825 0.35348 0.35691 0.0
C1214 C 0.90021 0.33181 0.33048 0.0
C1215 C 0.8969 0.3306 0.28341 0.0
C1216 C 0.90842 0.31022 0.25853 0.0
C1217 C 0.92298 0.29074 0.28044 0.0
C1218 C 0.92635 0.29183 0.32728 0.0
C1219 C 0.91515 0.31238 0.35227 0.0
H1220 H 0.93176 0.27489 0.2611 0.0
H1221 H 0.8223 0.46826 0.51558 0.0
H1222 H 0.77563 0.68705 0.64774 0.0
H1223 H 0.80597 0.65418 0.61832 0.0
H1224 H 0.84694 0.65307 0.74579 0.0
H1225 H 0.81664 0.68624 0.77581 0.0
H1226 H 0.88074 0.65679 0.674 0.0
H1227 H 0.80782 0.60268 0.71596 0.0
H1228 H 0.76113 0.59006 0.71763 0.0
H1229 H 0.76153 0.58024 0.57347 0.0
H1230 H 0.80812 0.59324 0.57083 0.0
H1231 H 0.9607 0.54733 0.62898 0.0
H1232 H 0.92743 0.57607 0.66157 0.0
H1233 H 0.88446 0.57481 0.536 0.0
H1234 H 0.91721 0.54477 0.50357 0.0
H1235 H 0.85156 0.57216 0.60709 0.0
H1236 H 0.9238 0.62691 0.56426 0.0
H1237 H 0.97064 0.63888 0.56174 0.0
H1238 H 0.97152 0.64769 0.7061 0.0
H1239 H 0.92474 0.63538 0.70956 0.0
C1240 C 0.79084 0.67969 0.66995 0.0
C1241 C 0.79355 0.68942 0.71435 0.0
C1242 C 0.80822 0.66081 0.65294 0.0
C1243 C 0.82867 0.65104 0.67987 0.0
C1244 C 0.8313 0.66036 0.72437 0.0
C1245 C 0.81384 0.67925 0.74155 0.0
C1246 C 0.84764 0.63161 0.66101 0.0
C1247 C 0.8744 0.63812 0.65999 0.0
C1248 C 0.8393 0.60755 0.64157 0.0
C1249 C 0.81142 0.59915 0.64316 0.0
C1250 C 0.79791 0.59798 0.68457 0.0
C1251 C 0.77147 0.59075 0.6857 0.0
C1252 C 0.75835 0.58441 0.64567 0.0
C1253 C 0.7717 0.58518 0.60445 0.0
C1254 C 0.79814 0.59246 0.60312 0.0
C1255 C 0.94416 0.55301 0.60814 0.0
C1256 C 0.94199 0.54418 0.56317 0.0
C1257 C 0.92517 0.56959 0.62688 0.0
C1258 C 0.90373 0.57812 0.60096 0.0
C1259 C 0.90099 0.56871 0.55651 0.0
C1260 C 0.9199 0.5518 0.53782 0.0
C1261 C 0.88464 0.59732 0.62019 0.0
C1262 C 0.85788 0.59082 0.62116 0.0
C1263 C 0.89295 0.62148 0.63937 0.0
C1264 C 0.92078 0.63005 0.6372 0.0
C1265 C 0.93398 0.63136 0.59549 0.0
C1266 C 0.96053 0.63818 0.59389 0.0
C1267 C 0.97406 0.64399 0.63375 0.0
C1268 C 0.96101 0.64317 0.67526 0.0
C1269 C 0.93446 0.63631 0.67706 0.0
H1270 H 0.99465 0.64916 0.63248 0.0
H1271 H 0.73786 0.57887 0.64662 0.0
H1272 H 0.33382 0.29074 0.23421 0.0
H1273 H 0.36349 0.3237 0.20301 0.0
H1274 H 0.29758 0.36518 0.14599 0.0
H1275 H 0.26748 0.3334 0.18013 0.0
H1276 H 0.35202 0.3429 0.08899 0.0
H1277 H 0.31307 0.40075 0.20352 0.0
H1278 H 0.29961 0.41141 0.28152 0.0
H1279 H 0.37879 0.39977 0.32723 0.0
H1280 H 0.39259 0.3885 0.24955 0.0
H1281 H 0.42192 0.45323 0.99764 0.0
H1282 H 0.38869 0.42366 0.02876 0.0
H1283 H 0.43832 0.40909 0.14405 0.0
H1284 H 0.47177 0.4379 0.11256 0.0
H1285 H 0.38957 0.41907 0.17145 0.0
H1286 H 0.42979 0.36061 0.0663 0.0
H1287 H 0.44614 0.34113 0.99527 0.0
H1288 H 0.36939 0.34815 0.93644 0.0
H1289 H 0.35253 0.36756 1.00734 0.0
C1290 C 0.32549 0.30713 0.21587 0.0
C1291 C 0.29818 0.30917 0.20927 0.0
C1292 C 0.34254 0.32588 0.19783 0.0
C1293 C 0.33273 0.34686 0.17223 0.0
C1294 C 0.30554 0.34914 0.16573 0.0
C1295 C 0.28839 0.33075 0.18478 0.0
C1296 C 0.35115 0.36549 0.15044 0.0
C1297 C 0.35981 0.35997 0.10648 0.0
C1298 C 0.36206 0.38698 0.17413 0.0
C1299 C 0.35378 0.3935 0.22085 0.0
C1300 C 0.32753 0.40012 0.2303 0.0
C1301 C 0.31986 0.4064 0.27441 0.0
C1302 C 0.33835 0.40636 0.30927 0.0
C1303 C 0.36451 0.39989 0.30015 0.0
C1304 C 0.37226 0.39353 0.2561 0.0
C1305 C 0.42601 0.44331 0.02905 0.0
C1306 C 0.44976 0.44775 0.05207 0.0
C1307 C 0.4069 0.42647 0.04703 0.0
C1308 C 0.41096 0.41396 0.08878 0.0
C1309 C 0.43461 0.41849 0.11188 0.0
C1310 C 0.45378 0.43503 0.09371 0.0
C1311 C 0.39037 0.39683 0.10921 0.0
C1312 C 0.38146 0.40242 0.15326 0.0
C1313 C 0.37951 0.37508 0.08582 0.0
C1314 C 0.39 0.36584 0.04188 0.0
C1315 C 0.4165 0.35839 0.03797 0.0
C1316 C 0.42579 0.34713 0.9979 0.0
C1317 C 0.40878 0.34331 0.96143 0.0
C1318 C 0.38251 0.35103 0.96478 0.0
C1319 C 0.37307 0.36213 1.00491 0.0
H1320 H 0.416 0.33448 0.93048 0.0
H1321 H 0.33239 0.41124 0.3434 0.0
H1322 H 0.41968 0.54292 0.01918 0.0
H1323 H 0.38723 0.575 0.9917 0.0
H1324 H 0.44182 0.60059 0.88976 0.0
H1325 H 0.47397 0.5683 0.91617 0.0
H1326 H 0.4141 0.64272 0.94022 0.0
H1327 H 0.39876 0.56353 0.85224 0.0
H1328 H 0.39003 0.51622 0.8426 0.0
H1329 H 0.31954 0.52381 0.92128 0.0
H1330 H 0.32792 0.57126 0.93138 0.0
H1331 H 0.33723 0.71363 0.78561 0.0
H1332 H 0.36724 0.68286 0.82143 0.0
H1333 H 0.30221 0.64664 0.89054 0.0
H1334 H 0.27177 0.67632 0.85209 0.0
H1335 H 0.33393 0.61006 0.8633 0.0
H1336 H 0.34605 0.69064 0.94373 0.0
H1337 H 0.35413 0.7382 0.95167 0.0
H1338 H 0.43014 0.72874 0.89092 0.0
H1339 H 0.42235 0.68117 0.88193 0.0
C1340 C 0.42479 0.55553 0.99114 0.0
C1341 C 0.44928 0.553 0.96966 0.0
C1342 C 0.40626 0.57378 0.97545 0.0
C1343 C 0.41216 0.59013 0.93869 0.0
C1344 C 0.43691 0.5882 0.91822 0.0
C1345 C 0.45518 0.56964 0.93321 0.0
C1346 C 0.39224 0.60851 0.92012 0.0
C1347 C 0.39661 0.63566 0.9232 0.0
C1348 C 0.36918 0.59927 0.89887 0.0
C1349 C 0.36412 0.57082 0.893 0.0
C1350 C 0.38152 0.55505 0.8678 0.0
C1351 C 0.3766 0.52824 0.86214 0.0
C1352 C 0.35431 0.51697 0.88153 0.0
C1353 C 0.33683 0.53255 0.90638 0.0
C1354 C 0.34161 0.55942 0.91198 0.0
C1355 C 0.32917 0.69882 0.80762 0.0
C1356 C 0.30197 0.69724 0.81521 0.0
C1357 C 0.34648 0.68145 0.82884 0.0
C1358 C 0.33714 0.66262 0.85945 0.0
C1359 C 0.30997 0.66098 0.86716 0.0
C1360 C 0.29257 0.67807 0.84525 0.0
C1361 C 0.35571 0.64454 0.88299 0.0
C1362 C 0.35115 0.61734 0.88084 0.0
C1363 C 0.37849 0.65383 0.90548 0.0
C1364 C 0.38353 0.68234 0.91188 0.0
C1365 C 0.36445 0.69871 0.93189 0.0
C1366 C 0.36897 0.72567 0.93656 0.0
C1367 C 0.39261 0.73649 0.92173 0.0
C1368 C 0.41183 0.72033 0.90237 0.0
C1369 C 0.40738 0.69336 0.89752 0.0
H1370 H 0.39605 0.75738 0.92531 0.0
H1371 H 0.35055 0.49619 0.87716 0.0
H1372 H 0.20415 0.66995 0.77127 0.0
H1373 H 0.17256 0.63844 0.74058 0.0
H1374 H 0.16038 0.68838 0.62495 0.0
H1375 H 0.19226 0.71967 0.65497 0.0
H1376 H 0.12196 0.64115 0.72144 0.0
H1377 H 0.14782 0.65139 0.53166 0.0
H1378 H 0.18595 0.66261 0.48415 0.0
H1379 H 0.23829 0.63647 0.58852 0.0
H1380 H 0.20052 0.6248 0.63645 0.0
H1381 H 0.03126 0.58396 0.55095 0.0
H1382 H 0.06272 0.61577 0.58049 0.0
H1383 H 0.11212 0.55259 0.62721 0.0
H1384 H 0.08189 0.52045 0.5939 0.0
H1385 H 0.13159 0.60552 0.56595 0.0
H1386 H 0.10839 0.59057 0.75121 0.0
H1387 H 0.07195 0.57935 0.80247 0.0
H1388 H 0.01661 0.61256 0.70914 0.0
H1389 H 0.05283 0.6254 0.65882 0.0
C1390 C 0.19469 0.67425 0.73935 0.0
C1391 C 0.20081 0.69727 0.71547 0.0
C1392 C 0.17662 0.65622 0.72186 0.0
C1393 C 0.16432 0.66082 0.68013 0.0
C1394 C 0.16999 0.68409 0.65674 0.0
C1395 C 0.18818 0.70202 0.67403 0.0
C1396 C 0.14562 0.64128 0.66104 0.0
C1397 C 0.12423 0.63327 0.68754 0.0
C1398 C 0.14839 0.63102 0.61667 0.0
C1399 C 0.1713 0.63747 0.58781 0.0
C1400 C 0.16747 0.64793 0.5444 0.0
C1401 C 0.18902 0.6544 0.51742 0.0
C1402 C 0.21452 0.65036 0.5334 0.0
C1403 C 0.21853 0.63972 0.5763 0.0
C1404 C 0.19705 0.63319 0.6034 0.0
C1405 C 0.04895 0.57672 0.56697 0.0
C1406 C 0.05394 0.54957 0.57025 0.0
C1407 C 0.06674 0.59498 0.58435 0.0
C1408 C 0.08931 0.58649 0.60712 0.0
C1409 C 0.09452 0.55948 0.6104 0.0
C1410 C 0.07714 0.54116 0.59164 0.0
C1411 C 0.10794 0.60586 0.62615 0.0
C1412 C 0.12939 0.6136 0.59973 0.0
C1413 C 0.10531 0.61579 0.67061 0.0
C1414 C 0.08327 0.60808 0.70043 0.0
C1415 C 0.08843 0.59539 0.74158 0.0
C1416 C 0.06783 0.58894 0.77067 0.0
C1417 C 0.04193 0.59481 0.75872 0.0
C1418 C 0.03664 0.60765 0.71808 0.0
C1419 C 0.05722 0.61457 0.68926 0.0
H1420 H 0.026 0.58962 0.78114 0.0
H1421 H 0.23118 0.65542 0.51249 0.0
H1422 H 0.19585 0.3287 0.24229 0.0
H1423 H 0.16675 0.36127 0.27703 0.0
H1424 H 0.18185 0.32764 0.40818 0.0
H1425 H 0.20927 0.29408 0.37352 0.0
H1426 H 0.13352 0.33693 0.40386 0.0
H1427 H 0.20917 0.38802 0.36922 0.0
H1428 H 0.24427 0.4059 0.32101 0.0
H1429 H 0.18664 0.44388 0.23764 0.0
H1430 H 0.15115 0.42585 0.28491 0.0
H1431 H 0.08311 0.44826 0.52996 0.0
H1432 H 0.11536 0.41815 0.49629 0.0
H1433 H 0.07975 0.42893 0.3656 0.0
H1434 H 0.0466 0.45764 0.39903 0.0
H1435 H 0.13905 0.43236 0.37176 0.0
H1436 H 0.06373 0.37826 0.41011 0.0
H1437 H 0.0307 0.35877 0.46072 0.0
H1438 H 0.09201 0.32665 0.54354 0.0
H1439 H 0.12543 0.34644 0.49397 0.0
C1440 C 0.1927 0.328 0.27843 0.0
C1441 C 0.20456 0.30834 0.30483 0.0
C1442 C 0.17633 0.34693 0.29843 0.0
C1443 C 0.17219 0.34717 0.34546 0.0
C1444 C 0.1845 0.32788 0.37186 0.0
C1445 C 0.20033 0.30867 0.35185 0.0
C1446 C 0.15448 0.36687 0.36732 0.0
C1447 C 0.13512 0.35782 0.39728 0.0
C1448 C 0.15618 0.3942 0.35855 0.0
C1449 C 0.17748 0.40539 0.33039 0.0
C1450 C 0.20396 0.40005 0.34044 0.0
C1451 C 0.22393 0.41022 0.31329 0.0
C1452 C 0.21768 0.42597 0.27623 0.0
C1453 C 0.19145 0.43165 0.26633 0.0
C1454 C 0.1714 0.42148 0.29331 0.0
C1455 C 0.08176 0.44384 0.49427 0.0
C1456 C 0.06163 0.45477 0.46766 0.0
C1457 C 0.10043 0.4269 0.47499 0.0
C1458 C 0.09978 0.42124 0.42854 0.0
C1459 C 0.08054 0.43304 0.40153 0.0
C1460 C 0.06154 0.44942 0.42088 0.0
C1461 C 0.11848 0.40223 0.40814 0.0
C1462 C 0.13783 0.41144 0.37845 0.0
C1463 C 0.11722 0.37512 0.4179 0.0
C1464 C 0.09708 0.3641 0.44861 0.0
C1465 C 0.07018 0.3674 0.4395 0.0
C1466 C 0.05138 0.3562 0.46788 0.0
C1467 C 0.05927 0.3414 0.50519 0.0
C1468 C 0.08594 0.33806 0.51455 0.0
C1469 C 0.10481 0.3493 0.48637 0.0
H1470 H 0.04472 0.33246 0.5268 0.0
H1471 H 0.23317 0.43382 0.25524 0.0
H1472 H 0.95704 0.96722 0.84478 0.0
H1473 H 0.96756 0.96655 0.92532 0.0
H1474 H 0.00786 0.04056 0.91224 0.0
H1475 H 0.99761 0.04119 0.83134 0.0
H1476 H 0.03476 0.00905 0.9662 0.0
H1477 H 0.94499 0.03652 0.95666 0.0
H1478 H 0.89871 0.03358 0.93281 0.0
H1479 H 0.89085 0.96032 1.00295 0.0
H1480 H 0.93722 0.96263 0.0267 0.0
H1481 H 0.03682 0.04347 0.1984 0.0
H1482 H 0.02646 0.04281 0.11791 0.0
H1483 H 0.99346 0.96534 0.13144 0.0
H1484 H 0.00431 0.96554 0.21212 0.0
H1485 H 0.96289 0.99813 0.07772 0.0
H1486 H 0.05334 0.97174 0.08785 0.0
H1487 H 0.09946 0.97596 0.11203 0.0
H1488 H 0.10563 0.04913 0.04109 0.0
H1489 H 0.0594 0.04553 0.017 0.0
C1490 C 0.96812 0.98339 0.85904 0.0
C1491 C 0.97629 0.00438 0.83163 0.0
C1492 C 0.9741 0.983 0.90517 0.0
C1493 C 0.98808 0.00376 0.92523 0.0
C1494 C 0.99698 0.02435 0.89768 0.0
C1495 C 0.99116 0.02466 0.85138 0.0
C1496 C 0.99309 0.00412 0.97494 0.0
C1497 C 0.01897 0.00701 0.99052 0.0
C1498 C 0.97261 1.00096 1.00694 0.0
C1499 C 0.94465 0.99963 0.99309 0.0
C1500 C 0.93344 0.01969 0.96675 0.0
C1501 C 0.90719 0.01815 0.95327 0.0
C1502 C 0.89187 0.99674 0.96626 0.0
C1503 C 0.90275 0.97687 0.99287 0.0
C1504 C 0.92901 0.9783 1.00638 0.0
C1505 C 0.02753 0.02616 0.18436 0.0
C1506 C 0.02172 0.00441 0.2119 0.0
C1507 C 0.02152 0.02588 0.13825 0.0
C1508 C 0.00952 0.00388 0.11842 0.0
C1509 C 0.00278 0.98252 0.14597 0.0
C1510 C 0.0089 0.98272 0.19219 0.0
C1511 C 0.0045 0.00308 0.06881 0.0
C1512 C 0.97864 1.00013 0.05331 0.0
C1513 C 0.02496 0.00638 0.0369 0.0
C1514 C 0.05283 0.00848 0.05098 0.0
C1515 C 0.06447 0.98882 0.07768 0.0
C1516 C 0.09064 0.99109 0.09132 0.0
C1517 C 0.10545 0.01283 0.0782 0.0
C1518 C 0.09413 0.03231 0.05127 0.0
C1519 C 0.06795 0.03016 0.03758 0.0
H1520 H 0.12571 0.01455 0.08881 0.0
H1521 H 0.87154 0.99558 0.95578 0.0
H1522 H 0.25 0.73227 0.46129 0.0
H1523 H 0.23493 0.73195 0.38243 0.0
H1524 H 0.30356 0.77572 0.34313 0.0
H1525 H 0.3185 0.7763 0.42164 0.0
H1526 H 0.25964 0.79362 0.30012 0.0
H1527 H 0.30205 0.71066 0.32715 0.0
H1528 H 0.30966 0.66893 0.36722 0.0
H1529 H 0.23077 0.64473 0.338 0.0
H1530 H 0.22257 0.68652 0.29825 0.0
H1531 H 0.25532 0.76886 0.06296 0.0
H1532 H 0.27052 0.76953 0.14176 0.0
H1533 H 0.20253 0.72495 0.18163 0.0
H1534 H 0.1875 0.72399 0.10323 0.0
H1535 H 0.24626 0.70751 0.22436 0.0
H1536 H 0.2037 0.79031 0.19757 0.0
H1537 H 0.19579 0.8321 0.15782 0.0
H1538 H 0.27461 0.85664 0.18681 0.0
H1539 H 0.2831 0.81481 0.22623 0.0
C1540 C 0.26164 0.74214 0.4359 0.0
C1541 C 0.28554 0.75411 0.44759 0.0
C1542 C 0.25313 0.74179 0.39082 0.0
C1543 C 0.2683 0.75352 0.35671 0.0
C1544 C 0.29157 0.76645 0.36874 0.0
C1545 C 0.30016 0.76663 0.41359 0.0
C1546 C 0.26054 0.75159 0.30829 0.0
C1547 C 0.257 0.77479 0.28344 0.0
C1548 C 0.25669 0.72704 0.28659 0.0
C1549 C 0.26161 0.70183 0.31015 0.0
C1550 C 0.28626 0.69653 0.32957 0.0
C1551 C 0.29069 0.67285 0.35217 0.0
C1552 C 0.27069 0.65422 0.35527 0.0
C1553 C 0.24623 0.6592 0.33564 0.0
C1554 C 0.24168 0.68287 0.31304 0.0
C1555 C 0.24386 0.7589 0.08848 0.0
C1556 C 0.22011 0.74657 0.07697 0.0
C1557 C 0.25243 0.75946 0.13352 0.0
C1558 C 0.23748 0.74758 0.16778 0.0
C1559 C 0.21435 0.73434 0.15593 0.0
C1560 C 0.20571 0.73394 0.11112 0.0
C1561 C 0.24535 0.74955 0.21616 0.0
C1562 C 0.24891 0.72635 0.24102 0.0
C1563 C 0.24919 0.7741 0.23787 0.0
C1564 C 0.24412 0.79932 0.21441 0.0
C1565 C 0.21941 0.80453 0.19515 0.0
C1566 C 0.21481 0.82824 0.17274 0.0
C1567 C 0.23471 0.84698 0.16968 0.0
C1568 C 0.25923 0.84209 0.18914 0.0
C1569 C 0.26394 0.81839 0.21155 0.0
H1570 H 0.23112 0.86533 0.15231 0.0
H1571 H 0.27415 0.63591 0.37279 0.0
H1572 H 0.5031 0.96403 0.7071 0.0
H1573 H 0.51261 0.96237 0.62592 0.0
H1574 H 0.4577 0.02589 0.60381 0.0
H1575 H 0.44708 0.02629 0.68438 0.0
H1576 H 0.45119 0.99418 0.54045 0.0
H1577 H 0.5292 0.03198 0.60368 0.0
H1578 H 0.56775 0.03459 0.65391 0.0
H1579 H 0.59835 0.96314 0.59657 0.0
H1580 H 0.5598 0.95992 0.54637 0.0
H1581 H 0.50237 0.0403 0.32927 0.0
H1582 H 0.49155 0.03548 0.40962 0.0
H1583 H 0.52416 0.95718 0.40831 0.0
H1584 H 0.53449 0.96173 0.32746 0.0
H1585 H 0.54235 0.99317 0.4816 0.0
H1586 H 0.46323 0.95934 0.41364 0.0
H1587 H 0.42531 0.96111 0.36193 0.0
H1588 H 0.39769 0.03129 0.4278 0.0
H1589 H 0.43567 0.03016 0.47949 0.0
C1590 C 0.49317 0.97762 0.68475 0.0
C1591 C 0.47439 0.9953 0.70191 0.0
C1592 C 0.4987 0.97681 0.63834 0.0
C1593 C 0.48624 0.99431 0.60833 0.0
C1594 C 0.46759 0.01208 0.62583 0.0
C1595 C 0.46158 0.01241 0.67196 0.0
C1596 C 0.4922 0.99402 0.55874 0.0
C1597 C 0.47118 0.99426 0.52786 0.0
C1598 C 0.51824 0.99363 0.54162 0.0
C1599 C 0.54148 0.99556 0.57163 0.0
C1600 C 0.54407 0.01673 0.60201 0.0
C1601 C 0.56593 0.01833 0.63044 0.0
C1602 C 0.58545 0.999 0.62853 0.0
C1603 C 0.58319 0.97807 0.59807 0.0
C1604 C 0.56135 0.97636 0.5696 0.0
C1605 C 0.50701 0.02199 0.34609 0.0
C1606 C 0.51921 1.00136 0.32224 0.0
C1607 C 0.50083 0.01925 0.3919 0.0
C1608 C 0.50709 0.99599 0.41494 0.0
C1609 C 0.51918 0.97529 0.39116 0.0
C1610 C 0.52491 0.97783 0.34502 0.0
C1611 C 0.50139 0.99365 0.46405 0.0
C1612 C 0.52244 0.99294 0.4946 0.0
C1613 C 0.47544 0.99424 0.48091 0.0
C1614 C 0.45243 0.99479 0.45017 0.0
C1615 C 0.44919 0.97527 0.41686 0.0
C1616 C 0.42766 0.97614 0.3876 0.0
C1617 C 0.40914 0.99634 0.39151 0.0
C1618 C 0.41206 0.01567 0.42478 0.0
C1619 C 0.43358 0.01491 0.4541 0.0
H1620 H 0.39249 0.99698 0.36881 0.0
H1621 H 0.60235 1.00027 0.65057 0.0
H1622 H 0.21525 0.2587 0.94813 0.0
H1623 H 0.21418 0.24721 0.86785 0.0
H1624 H 0.2928 0.27687 0.85187 0.0
H1625 H 0.29429 0.28793 0.93223 0.0
H1626 H 0.26078 0.29471 0.78553 0.0
H1627 H 0.28203 0.21199 0.85147 0.0
H1628 H 0.27697 0.1748 0.90386 0.0
H1629 H 0.20129 0.15774 0.84715 0.0
H1630 H 0.20572 0.19512 0.79488 0.0
H1631 H 0.28371 0.24026 0.56537 0.0
H1632 H 0.28655 0.25057 0.646 0.0
H1633 H 0.2064 0.22589 0.66411 0.0
H1634 H 0.20297 0.21644 0.58342 0.0
H1635 H 0.24029 0.2051 0.72927 0.0
H1636 H 0.21939 0.28905 0.66427 0.0
H1637 H 0.22524 0.32638 0.61242 0.0
H1638 H 0.30182 0.34074 0.66773 0.0
H1639 H 0.29658 0.30322 0.7195 0.0
C1640 C 0.2325 0.26241 0.92779 0.0
C1641 C 0.25484 0.27432 0.94689 0.0
C1642 C 0.23181 0.25592 0.88175 0.0
C1643 C 0.25344 0.2611 0.85374 0.0
C1644 C 0.27581 0.27282 0.87269 0.0
C1645 C 0.27657 0.27922 0.91871 0.0
C1646 C 0.25257 0.25475 0.80454 0.0
C1647 C 0.25668 0.27502 0.77327 0.0
C1648 C 0.24678 0.22917 0.7884 0.0
C1649 C 0.2441 0.20654 0.81955 0.0
C1650 C 0.26421 0.20045 0.85041 0.0
C1651 C 0.26147 0.17931 0.88006 0.0
C1652 C 0.23879 0.16396 0.87892 0.0
C1653 C 0.21883 0.16967 0.84804 0.0
C1654 C 0.22146 0.19083 0.81837 0.0
C1655 C 0.26651 0.23738 0.58622 0.0
C1656 C 0.2431 0.22744 0.56749 0.0
C1657 C 0.26824 0.24314 0.63248 0.0
C1658 C 0.24668 0.239 0.66116 0.0
C1659 C 0.22335 0.22905 0.64274 0.0
C1660 C 0.2215 0.22354 0.59647 0.0
C1661 C 0.24839 0.24508 0.71036 0.0
C1662 C 0.24445 0.22476 0.7416 0.0
C1663 C 0.2545 0.27058 0.72649 0.0
C1664 C 0.25771 0.29314 0.6954 0.0
C1665 C 0.23758 0.30001 0.66509 0.0
C1666 C 0.24077 0.32123 0.63577 0.0
C1667 C 0.26392 0.33587 0.63668 0.0
C1668 C 0.28392 0.32935 0.667 0.0
C1669 C 0.28084 0.30812 0.69636 0.0
H1670 H 0.26634 0.35231 0.61397 0.0
H1671 H 0.2367 0.1476 0.9019 0.0
H1672 H 0.76538 0.2752 0.94771 0.0
H1673 H 0.75375 0.284 0.86873 0.0
H1674 H 0.73513 0.20208 0.84931 0.0
H1675 H 0.74674 0.19322 0.92784 0.0
H1676 H 0.76646 0.21909 0.78337 0.0
H1677 H 0.6867 0.24983 0.85462 0.0
H1678 H 0.66141 0.2766 0.90906 0.0
H1679 H 0.69189 0.34717 0.85009 0.0
H1680 H 0.7175 0.32078 0.7954 0.0
H1681 H 0.70715 0.22442 0.56668 0.0
H1682 H 0.7172 0.21813 0.64683 0.0
H1683 H 0.72786 0.30179 0.66285 0.0
H1684 H 0.71686 0.30814 0.58315 0.0
H1685 H 0.70167 0.28524 0.73105 0.0
H1686 H 0.78074 0.25554 0.65911 0.0
H1687 H 0.80772 0.2295 0.60603 0.0
H1688 H 0.7809 0.15812 0.66741 0.0
H1689 H 0.75349 0.18373 0.72049 0.0
C1690 C 0.75833 0.25919 0.9268 0.0
C1691 C 0.75717 0.23348 0.94397 0.0
C1692 C 0.75175 0.26421 0.88161 0.0
C1693 C 0.74359 0.24368 0.85292 0.0
C1694 C 0.74159 0.2182 0.87055 0.0
C1695 C 0.74822 0.21318 0.9155 0.0
C1696 C 0.73818 0.24829 0.80407 0.0
C1697 C 0.75203 0.23332 0.77193 0.0
C1698 C 0.72 0.26743 0.789 0.0
C1699 C 0.70419 0.28333 0.82119 0.0
C1700 C 0.68811 0.27105 0.85341 0.0
C1701 C 0.67372 0.28616 0.88431 0.0
C1702 C 0.67515 0.31356 0.88321 0.0
C1703 C 0.69084 0.32593 0.85097 0.0
C1704 C 0.70525 0.31092 0.81994 0.0
C1705 C 0.7119 0.2414 0.58726 0.0
C1706 C 0.71126 0.26675 0.56862 0.0
C1707 C 0.71771 0.23782 0.63312 0.0
C1708 C 0.72366 0.25945 0.66111 0.0
C1709 C 0.72328 0.28476 0.64226 0.0
C1710 C 0.71706 0.28837 0.59663 0.0
C1711 C 0.72978 0.25581 0.7101 0.0
C1712 C 0.71612 0.27101 0.74234 0.0
C1713 C 0.74833 0.237 0.72531 0.0
C1714 C 0.76487 0.22155 0.6935 0.0
C1715 C 0.78045 0.23428 0.66108 0.0
C1716 C 0.79585 0.2196 0.63103 0.0
C1717 C 0.79598 0.19217 0.63327 0.0
C1718 C 0.78076 0.17937 0.66567 0.0
C1719 C 0.76531 0.19396 0.69577 0.0
H1720 H 0.8079 0.18084 0.60997 0.0
H1721 H 0.66406 0.32521 0.90727 0.0
H1722 H 0.80018 0.79498 0.43203 0.0
H1723 H 0.80087 0.78623 0.35072 0.0
H1724 H 0.72178 0.75638 0.35811 0.0
H1725 H 0.72146 0.76425 0.43983 0.0
H1726 H 0.74805 0.72695 0.30369 0.0
H1727 H 0.73836 0.82064 0.31732 0.0
H1728 H 0.75022 0.86511 0.34363 0.0
H1729 H 0.82465 0.85876 0.27626 0.0
H1730 H 0.81335 0.81411 0.25002 0.0
H1731 H 0.71864 0.72962 0.07153 0.0
H1732 H 0.71901 0.74129 0.15171 0.0
H1733 H 0.80032 0.76384 0.14116 0.0
H1734 H 0.79991 0.75247 0.06042 0.0
H1735 H 0.77391 0.79703 0.19657 0.0
H1736 H 0.78252 0.70314 0.18217 0.0
H1737 H 0.76967 0.65904 0.15543 0.0
H1738 H 0.6958 0.6664 0.22433 0.0
H1739 H 0.70807 0.71071 0.25096 0.0
C1740 C 0.78296 0.78651 0.41629 0.0
C1741 C 0.76071 0.78042 0.44234 0.0
C1742 C 0.7833 0.78164 0.36967 0.0
C1743 C 0.76115 0.77118 0.34772 0.0
C1744 C 0.73912 0.76454 0.37396 0.0
C1745 C 0.73894 0.76901 0.42074 0.0
C1746 C 0.7609 0.76707 0.29758 0.0
C1747 C 0.75337 0.74245 0.28038 0.0
C1748 C 0.7684 0.787 0.26674 0.0
C1749 C 0.7751 0.81395 0.28205 0.0
C1750 C 0.75731 0.82868 0.30833 0.0
C1751 C 0.76393 0.85391 0.32321 0.0
C1752 C 0.7882 0.86473 0.31171 0.0
C1753 C 0.80587 0.85035 0.28518 0.0
C1754 C 0.79936 0.82509 0.27026 0.0
C1755 C 0.73656 0.73727 0.08619 0.0
C1756 C 0.75935 0.73982 0.0597 0.0
C1757 C 0.73677 0.74387 0.13212 0.0
C1758 C 0.75988 0.75285 0.15293 0.0
C1759 C 0.78229 0.75679 0.12604 0.0
C1760 C 0.78202 0.75037 0.07984 0.0
C1761 C 0.76085 0.75703 0.20292 0.0
C1762 C 0.76858 0.7816 0.22001 0.0
C1763 C 0.75337 0.73712 0.2337 0.0
C1764 C 0.74613 0.71033 0.21824 0.0
C1765 C 0.76347 0.69541 0.1914 0.0
C1766 C 0.7563 0.67038 0.17628 0.0
C1767 C 0.73191 0.65995 0.18809 0.0
C1768 C 0.71468 0.67451 0.21517 0.0
C1769 C 0.72174 0.69958 0.23032 0.0
H1770 H 0.72639 0.64057 0.17633 0.0
H1771 H 0.79329 0.88426 0.32329 0.0
H1772 H 0.53463 0.5541 0.687 0.0
H1773 H 0.52372 0.55416 0.60626 0.0
H1774 H 0.51469 0.46998 0.60887 0.0
H1775 H 0.52501 0.46988 0.69013 0.0
H1776 H 0.54709 0.4931 0.5324 0.0
H1777 H 0.46258 0.49855 0.60507 0.0
H1778 H 0.4302 0.51671 0.65877 0.0
H1779 H 0.43595 0.59227 0.59546 0.0
H1780 H 0.46871 0.57464 0.5418 0.0
H1781 H 0.48663 0.48312 0.31303 0.0
H1782 H 0.50084 0.47853 0.39192 0.0
H1783 H 0.48485 0.56091 0.41476 0.0
H1784 H 0.46963 0.56508 0.33677 0.0
H1785 H 0.46493 0.53566 0.47977 0.0
H1786 H 0.5495 0.53224 0.40835 0.0
H1787 H 0.58276 0.51579 0.35459 0.0
H1788 H 0.57884 0.43921 0.41459 0.0
H1789 H 0.54526 0.45511 0.46833 0.0
C1790 C 0.53032 0.5356 0.67035 0.0
C1791 C 0.53061 0.51198 0.69488 0.0
C1792 C 0.52411 0.53566 0.62426 0.0
C1793 C 0.51848 0.51207 0.60151 0.0
C1794 C 0.51907 0.48839 0.62573 0.0
C1795 C 0.52477 0.48838 0.67214 0.0
C1796 C 0.51135 0.51245 0.55272 0.0
C1797 C 0.52897 0.50206 0.52076 0.0
C1798 C 0.48804 0.52469 0.53757 0.0
C1799 C 0.46832 0.53534 0.56975 0.0
C1800 C 0.45715 0.5191 0.60289 0.0
C1801 C 0.43868 0.52929 0.63326 0.0
C1802 C 0.43108 0.55565 0.63062 0.0
C1803 C 0.44189 0.57186 0.59752 0.0
C1804 C 0.4604 0.56178 0.5671 0.0
C1805 C 0.48668 0.50029 0.33481 0.0
C1806 C 0.47715 0.52447 0.31886 0.0
C1807 C 0.49481 0.4977 0.37994 0.0
C1808 C 0.4941 0.51941 0.40967 0.0
C1809 C 0.48548 0.54378 0.39292 0.0
C1810 C 0.47695 0.54623 0.34822 0.0
C1811 C 0.50087 0.5167 0.4587 0.0
C1812 C 0.48311 0.52664 0.49098 0.0
C1813 C 0.52424 0.50433 0.47397 0.0
C1814 C 0.54465 0.4948 0.44206 0.0
C1815 C 0.5556 0.51184 0.40989 0.0
C1816 C 0.57453 0.50263 0.37944 0.0
C1817 C 0.58285 0.47645 0.38108 0.0
C1818 C 0.57234 0.45947 0.41331 0.0
C1819 C 0.55337 0.46858 0.4438 0.0
H1820 H 0.59748 0.46935 0.35743 0.0
H1821 H 0.41676 0.56349 0.65414 0.0
H1822 H 0.02156 0.54723 0.83555 0.0
H1823 H 0.01213 0.5451 0.91641 0.0
H1824 H 0.00797 0.46053 0.90783 0.0
H1825 H 0.01686 0.46266 0.82651 0.0
H1826 H 0.97077 0.47826 0.96193 0.0
H1827 H 0.06345 0.49334 0.94853 0.0
H1828 H 0.10303 0.51641 0.922 0.0
H1829 H 0.07772 0.58685 0.98977 0.0
H1830 H 0.03779 0.56429 0.01619 0.0
H1831 H 0.98503 0.4506 0.1944 0.0
H1832 H 0.99314 0.45418 0.11337 0.0
H1833 H 0.99254 0.53872 0.12456 0.0
H1834 H 0.98433 0.53527 0.20598 0.0
H1835 H 0.03168 0.52176 0.06943 0.0
H1836 H 0.93922 0.50592 0.08396 0.0
H1837 H 0.89992 0.48238 0.11045 0.0
H1838 H 0.92535 0.41265 0.04067 0.0
H1839 H 0.96501 0.43568 0.01428 0.0
C1840 C 0.01859 0.52818 0.85089 0.0
C1841 C 0.02018 0.50508 0.82472 0.0
C1842 C 0.01327 0.52697 0.89718 0.0
C1843 C 0.0099 0.50261 0.91858 0.0
C1844 C 0.01061 0.47956 0.89222 0.0
C1845 C 0.01564 0.48078 0.84573 0.0
C1846 C 0.00605 0.50117 0.96847 0.0
C1847 C 0.98429 0.48749 0.9854 0.0
C1848 C 0.02334 0.51369 0.99929 0.0
C1849 C 0.04752 0.52719 0.98399 0.0
C1850 C 0.06625 0.51379 0.95756 0.0
C1851 C 0.08875 0.52678 0.94256 0.0
C1852 C 0.09286 0.5531 0.9541 0.0
C1853 C 0.0745 0.56647 0.98081 0.0
C1854 C 0.05195 0.55359 0.99584 0.0
C1855 C 0.9865 0.46998 0.17966 0.0
C1856 C 0.98371 0.49266 0.20667 0.0
C1857 C 0.99117 0.472 0.13327 0.0
C1858 C 0.99298 0.49672 0.11263 0.0
C1859 C 0.99112 0.51942 0.13968 0.0
C1860 C 0.9865 0.51742 0.18624 0.0
C1861 C 0.99647 0.49878 0.06279 0.0
C1862 C 0.01815 0.51257 0.04591 0.0
C1863 C 0.97917 0.48628 0.03202 0.0
C1864 C 0.9552 0.47247 0.04748 0.0
C1865 C 0.93652 0.48552 0.07452 0.0
C1866 C 0.91416 0.47227 0.08948 0.0
C1867 C 0.91017 0.44602 0.07734 0.0
C1868 C 0.92848 0.43298 0.05009 0.0
C1869 C 0.95089 0.44613 0.03508 0.0
H1870 H 0.89285 0.4358 0.08897 0.0
H1871 H 0.11028 0.56313 0.94243 0.0
loop_
_geom_bond_atom_site_label_1
_geom_bond_atom_site_label_2
_geom_bond_distance
_geom_bond_site_symmetry_2
_ccdc_geom_bond_type
Eu0 N29 2.601 . S
Eu0 N35 2.548 1_655 S
Eu0 O44 2.459 1_655 S
Eu0 O45 2.364 1_655 S
Eu0 O47 2.441 . S
Eu0 O48 2.280 1_645 S
Eu0 O52 2.346 1_545 S
Eu0 O55 2.385 . S
Eu0 C64 2.790 . S
C1 N2 1.365 1_655 S
C1 C4 1.405 . S
C1 C8 1.448 . S
N2 C1 1.365 1_455 S
N2 C5 1.319 . S
N2 Eu11 2.601 . S
C3 C5 1.397 . S
C3 C6 1.367 . S
C3 H23 0.931 . S
C4 C1 1.405 . S
C4 C6 1.403 1_655 S
C4 C10 1.439 . S
C5 N2 1.319 . S
C5 C3 1.397 . S
C5 H16 0.930 . S
C6 C3 1.367 . S
C6 C4 1.403 1_455 S
C6 H27 0.929 . S
C7 C8 1.430 . S
C7 C9 1.387 . S
C7 C13 1.404 . S
C8 C1 1.448 . S
C8 C7 1.430 . S
C8 N12 1.351 . S
C9 C7 1.387 . S
C9 C10 1.374 . S
C9 H24 0.931 . S
C10 C4 1.439 . S
C10 C9 1.374 . S
C10 H25 0.931 . S
Eu11 N2 2.601 . S
Eu11 N12 2.539 1_455 S
Eu11 O46 2.352 1_565 S
Eu11 O49 2.392 . S
Eu11 O50 2.457 1_455 S
Eu11 O51 2.359 1_455 S
Eu11 O53 2.446 . S
Eu11 O54 2.274 1_465 S
Eu11 C75 2.792 . S
N12 C8 1.351 . S
N12 Eu11 2.539 1_655 S
N12 C14 1.325 . S
C13 C7 1.404 . S
C13 C15 1.366 . S
C13 H21 0.930 . S
C14 N12 1.325 . S
C14 C15 1.416 . S
C14 H20 0.929 . S
C15 C13 1.366 . S
C15 C14 1.416 . S
C15 H17 0.930 . S
H16 C5 0.930 . S
H17 C15 0.930 . S
H18 C33 0.930 . S
H19 C40 0.930 . S
H20 C14 0.929 . S
H21 C13 0.930 . S
H22 C36 0.929 . S
H23 C3 0.931 . S
H24 C9 0.931 . S
H25 C10 0.931 . S
H26 C31 0.931 . S
H27 C6 0.929 . S
H28 C39 0.930 . S
N29 Eu0 2.601 . S
N29 C30 1.365 1_655 S
N29 C33 1.319 . S
C30 N29 1.365 1_455 S
C30 C32 1.405 . S
C30 C38 1.448 . S
C31 H26 0.931 . S
C31 C33 1.397 . S
C31 C34 1.367 . S
C32 C30 1.405 . S
C32 C34 1.403 1_455 S
C32 C65 1.439 . S
C33 H18 0.930 . S
C33 N29 1.319 . S
C33 C31 1.397 . S
C34 C31 1.367 . S
C34 C32 1.403 1_655 S
C34 H41 0.929 . S
N35 Eu0 2.548 1_455 S
N35 C36 1.325 . S
N35 C38 1.351 . S
C36 H22 0.929 . S
C36 N35 1.325 . S
C36 C40 1.416 . S
C37 C38 1.430 . S
C37 C39 1.404 . S
C37 C66 1.387 . S
C38 C30 1.448 . S
C38 N35 1.351 . S
C38 C37 1.430 . S
C39 H28 0.930 . S
C39 C37 1.404 . S
C39 C40 1.366 . S
C40 H19 0.930 . S
C40 C36 1.416 . S
C40 C39 1.366 . S
H41 C34 0.929 . S
H42 C65 0.931 . S
H43 C66 0.931 . S
O44 Eu0 2.459 1_455 S
O44 C64 1.252 1_455 S
O45 Eu0 2.364 1_455 S
O45 C56 1.249 . S
O46 Eu11 2.352 1_545 S
O46 C56 1.264 . S
O47 Eu0 2.441 . S
O47 C64 1.268 . S
O48 Eu0 2.280 1_465 S
O48 C63 1.255 . S
O49 Eu11 2.392 . S
O49 C63 1.257 . S
O50 Eu11 2.457 1_655 S
O50 C75 1.252 1_655 S
O51 Eu11 2.359 1_655 S
O51 C67 1.249 . S
O52 Eu0 2.346 1_565 S
O52 C67 1.264 . S
O53 Eu11 2.446 . S
O53 C75 1.268 . S
O54 Eu11 2.274 1_645 S
O54 C74 1.255 . S
O55 Eu0 2.385 . S
O55 C74 1.257 . S
C56 O45 1.249 . S
C56 O46 1.264 . S
C57 C60 1.382 . S
C57 C62 1.392 1_545 S
C57 C64 1.506 . S
C58 C59 1.384 1_565 S
C58 C62 1.391 . S
C59 C58 1.384 1_545 S
C59 C61 1.372 . S
C59 H76 0.931 . S
C60 C57 1.382 . S
C60 C61 1.390 . S
C60 H77 0.931 . S
C61 C59 1.372 . S
C61 C60 1.390 . S
C61 H78 0.929 . S
C62 C57 1.392 1_565 S
C62 C58 1.391 . S
C62 H79 0.928 1_655 S
C63 O48 1.255 . S
C63 O49 1.257 . S
C64 Eu0 2.790 . S
C64 O44 1.252 1_655 S
C64 O47 1.268 . S
C64 C57 1.506 . S
C65 C32 1.439 . S
C65 H42 0.931 . S
C65 C66 1.374 . S
C66 C37 1.387 . S
C66 H43 0.931 . S
C66 C65 1.374 . S
C67 O51 1.249 . S
C67 O52 1.264 . S
C68 C71 1.382 . S
C68 C72 1.385 1_565 S
C68 C75 1.506 . S
C69 C70 1.378 1_545 S
C69 C72 1.391 . S
C70 C69 1.378 1_565 S
C70 C73 1.372 . S
C70 H80 0.931 . S
C71 C68 1.382 . S
C71 C73 1.390 . S
C71 H81 0.931 . S
C72 C68 1.385 1_545 S
C72 C69 1.391 . S
C72 H82 0.935 1_455 S
C73 C70 1.372 . S
C73 C71 1.390 . S
C73 H83 0.929 . S
C74 O54 1.255 . S
C74 O55 1.257 . S
C75 Eu11 2.792 . S
C75 O50 1.252 1_455 S
C75 O53 1.268 . S
C75 C68 1.506 . S
H76 C59 0.931 . S
H77 C60 0.931 . S
H78 C61 0.929 . S
H79 C62 0.928 1_455 S
H80 C70 0.931 . S
H81 C71 0.931 . S
H82 C72 0.935 1_655 S
H83 C73 0.929 . S
Eu84 N113 2.600 . S
Eu84 N119 2.562 . S
Eu84 O128 2.462 . S
Eu84 O129 2.373 . S
Eu84 O131 2.432 . S
Eu84 O132 2.291 . S
Eu84 O136 2.335 . S
Eu84 O139 2.372 . S
Eu84 C148 2.787 . S
C85 N86 1.365 . S
C85 C88 1.405 . S
C85 C92 1.448 . S
N86 C85 1.365 . S
N86 C89 1.319 . S
N86 Eu95 2.600 . S
C87 C89 1.397 . S
C87 C90 1.367 . S
C87 H107 0.931 . S
C88 C85 1.405 . S
C88 C90 1.403 . S
C88 C94 1.439 . S
C89 N86 1.319 . S
C89 C87 1.397 . S
C89 H100 0.930 . S
C90 C87 1.367 . S
C90 C88 1.403 . S
C90 H111 0.929 . S
C91 C92 1.430 . S
C91 C93 1.387 . S
C91 C97 1.404 . S
C92 C85 1.448 . S
C92 C91 1.430 . S
C92 N96 1.351 . S
C93 C91 1.387 . S
C93 C94 1.374 . S
C93 H108 0.931 . S
C94 C88 1.439 . S
C94 C93 1.374 . S
C94 H109 0.931 . S
Eu95 N86 2.600 . S
Eu95 N96 2.562 . S
Eu95 O130 2.335 . S
Eu95 O133 2.372 . S
Eu95 O134 2.462 . S
Eu95 O135 2.373 . S
Eu95 O137 2.432 . S
Eu95 O138 2.291 . S
Eu95 C159 2.787 . S
N96 C92 1.351 . S
N96 Eu95 2.562 . S
N96 C98 1.325 . S
C97 C91 1.404 . S
C97 C99 1.366 . S
C97 H105 0.930 . S
C98 N96 1.325 . S
C98 C99 1.416 . S
C98 H104 0.929 . S
C99 C97 1.366 . S
C99 C98 1.416 . S
C99 H101 0.930 . S
H100 C89 0.930 . S
H101 C99 0.930 . S
H102 C117 0.930 . S
H103 C124 0.930 . S
H104 C98 0.929 . S
H105 C97 0.930 . S
H106 C120 0.929 . S
H107 C87 0.931 . S
H108 C93 0.931 . S
H109 C94 0.931 . S
H110 C115 0.931 . S
H111 C90 0.929 . S
H112 C123 0.930 . S
N113 Eu84 2.600 . S
N113 C114 1.365 . S
N113 C117 1.319 . S
C114 N113 1.365 . S
C114 C116 1.405 . S
C114 C122 1.448 . S
C115 H110 0.931 . S
C115 C117 1.397 . S
C115 C118 1.367 . S
C116 C114 1.405 . S
C116 C118 1.403 . S
C116 C149 1.439 . S
C117 H102 0.930 . S
C117 N113 1.319 . S
C117 C115 1.397 . S
C118 C115 1.367 . S
C118 C116 1.403 . S
C118 H125 0.929 . S
N119 Eu84 2.562 . S
N119 C120 1.325 . S
N119 C122 1.351 . S
C120 H106 0.929 . S
C120 N119 1.325 . S
C120 C124 1.416 . S
C121 C122 1.430 . S
C121 C123 1.404 . S
C121 C150 1.387 . S
C122 C114 1.448 . S
C122 N119 1.351 . S
C122 C121 1.430 . S
C123 H112 0.930 . S
C123 C121 1.404 . S
C123 C124 1.366 . S
C124 H103 0.930 . S
C124 C120 1.416 . S
C124 C123 1.366 . S
H125 C118 0.929 . S
H126 C149 0.931 . S
H127 C150 0.931 . S
O128 Eu84 2.462 . S
O128 C148 1.252 . S
O129 Eu84 2.373 . S
O129 C140 1.249 . S
O130 Eu95 2.335 . S
O130 C140 1.264 . S
O131 Eu84 2.432 . S
O131 C148 1.268 . S
O132 Eu84 2.291 . S
O132 C147 1.255 . S
O133 Eu95 2.372 . S
O133 C147 1.257 . S
O134 Eu95 2.462 . S
O134 C159 1.252 . S
O135 Eu95 2.373 . S
O135 C151 1.249 . S
O136 Eu84 2.335 . S
O136 C151 1.264 . S
O137 Eu95 2.432 . S
O137 C159 1.268 . S
O138 Eu95 2.291 . S
O138 C158 1.255 . S
O139 Eu84 2.372 . S
O139 C158 1.257 . S
C140 O129 1.249 . S
C140 O130 1.264 . S
C141 C144 1.382 . S
C141 C146 1.390 . S
C141 C148 1.506 . S
C142 C143 1.398 . S
C142 C146 1.392 1_554 S
C143 C142 1.398 . S
C143 C145 1.372 . S
C143 H160 0.931 . S
C144 C141 1.382 . S
C144 C145 1.390 1_556 S
C144 H161 0.931 . S
C145 C143 1.372 . S
C145 C144 1.390 1_554 S
C145 H162 0.929 . S
C146 C141 1.390 . S
C146 C142 1.392 1_556 S
C146 H163 0.930 . S
C147 O132 1.255 . S
C147 O133 1.257 . S
C148 Eu84 2.787 . S
C148 O128 1.252 . S
C148 O131 1.268 . S
C148 C141 1.506 . S
C149 C116 1.439 . S
C149 H126 0.931 . S
C149 C150 1.374 . S
C150 C121 1.387 . S
C150 H127 0.931 . S
C150 C149 1.374 . S
C151 O135 1.249 . S
C151 O136 1.264 . S
C152 C155 1.382 . S
C152 C156 1.390 . S
C152 C159 1.506 . S
C153 C154 1.398 . S
C153 C156 1.392 . S
C154 C153 1.398 . S
C154 C157 1.372 . S
C154 H164 0.931 . S
C155 C152 1.382 . S
C155 C157 1.390 . S
C155 H165 0.931 . S
C156 C152 1.390 . S
C156 C153 1.392 . S
C156 H166 0.930 . S
C157 C154 1.372 . S
C157 C155 1.390 . S
C157 H167 0.929 . S
C158 O138 1.255 . S
C158 O139 1.257 . S
C159 Eu95 2.787 . S
C159 O134 1.252 . S
C159 O137 1.268 . S
C159 C152 1.506 . S
H160 C143 0.931 . S
H161 C144 0.931 . S
H162 C145 0.929 . S
H163 C146 0.930 . S
H164 C154 0.931 . S
H165 C155 0.931 . S
H166 C156 0.930 . S
H167 C157 0.929 . S
Eu168 N197 2.600 . S
Eu168 N203 2.562 . S
Eu168 O212 2.462 . S
Eu168 O213 2.373 1_554 S
Eu168 O215 2.432 . S
Eu168 O216 2.291 1_565 S
Eu168 O220 2.335 1_565 S
Eu168 O223 2.372 . S
Eu168 C232 2.787 . S
C169 N170 1.365 . S
C169 C172 1.405 . S
C169 C176 1.448 . S
N170 C169 1.365 . S
N170 C173 1.319 . S
N170 Eu179 2.600 . S
C171 C173 1.397 . S
C171 C174 1.367 . S
C171 H191 0.931 . S
C172 C169 1.405 . S
C172 C174 1.403 . S
C172 C178 1.439 . S
C173 N170 1.319 . S
C173 C171 1.397 . S
C173 H184 0.930 . S
C174 C171 1.367 . S
C174 C172 1.403 . S
C174 H195 0.929 . S
C175 C176 1.430 . S
C175 C177 1.387 . S
C175 C181 1.404 . S
C176 C169 1.448 . S
C176 C175 1.430 . S
C176 N180 1.351 . S
C177 C175 1.387 . S
C177 C178 1.374 . S
C177 H192 0.931 . S
C178 C172 1.439 . S
C178 C177 1.374 . S
C178 H193 0.931 . S
Eu179 N170 2.600 . S
Eu179 N180 2.562 . S
Eu179 O214 2.335 1_545 S
Eu179 O217 2.372 . S
Eu179 O218 2.462 . S
Eu179 O219 2.373 1_556 S
Eu179 O221 2.432 . S
Eu179 O222 2.291 1_545 S
Eu179 C243 2.787 . S
N180 C176 1.351 . S
N180 Eu179 2.562 . S
N180 C182 1.325 . S
C181 C175 1.404 . S
C181 C183 1.366 . S
C181 H189 0.930 . S
C182 N180 1.325 . S
C182 C183 1.416 . S
C182 H188 0.929 . S
C183 C181 1.366 . S
C183 C182 1.416 . S
C183 H185 0.930 . S
H184 C173 0.930 . S
H185 C183 0.930 . S
H186 C201 0.930 . S
H187 C208 0.930 . S
H188 C182 0.929 . S
H189 C181 0.930 . S
H190 C204 0.929 . S
H191 C171 0.931 . S
H192 C177 0.931 . S
H193 C178 0.931 . S
H194 C199 0.931 . S
H195 C174 0.929 . S
H196 C207 0.930 . S
N197 Eu168 2.600 . S
N197 C198 1.365 . S
N197 C201 1.319 . S
C198 N197 1.365 . S
C198 C200 1.405 . S
C198 C206 1.448 . S
C199 H194 0.931 . S
C199 C201 1.397 . S
C199 C202 1.367 . S
C200 C198 1.405 . S
C200 C202 1.403 . S
C200 C233 1.439 . S
C201 H186 0.930 . S
C201 N197 1.319 . S
C201 C199 1.397 . S
C202 C199 1.367 . S
C202 C200 1.403 . S
C202 H209 0.929 . S
N203 Eu168 2.562 . S
N203 C204 1.325 . S
N203 C206 1.351 . S
C204 H190 0.929 . S
C204 N203 1.325 . S
C204 C208 1.416 . S
C205 C206 1.430 . S
C205 C207 1.404 . S
C205 C234 1.387 . S
C206 C198 1.448 . S
C206 N203 1.351 . S
C206 C205 1.430 . S
C207 H196 0.930 . S
C207 C205 1.404 . S
C207 C208 1.366 . S
C208 H187 0.930 . S
C208 C204 1.416 . S
C208 C207 1.366 . S
H209 C202 0.929 . S
H210 C233 0.931 . S
H211 C234 0.931 . S
O212 Eu168 2.462 . S
O212 C232 1.252 . S
O213 Eu168 2.373 1_556 S
O213 C224 1.249 . S
O214 Eu179 2.335 1_565 S
O214 C224 1.264 . S
O215 Eu168 2.432 . S
O215 C232 1.268 . S
O216 Eu168 2.291 1_545 S
O216 C231 1.255 . S
O217 Eu179 2.372 . S
O217 C231 1.257 1_556 S
O218 Eu179 2.462 . S
O218 C243 1.252 . S
O219 Eu179 2.373 1_554 S
O219 C235 1.249 . S
O220 Eu168 2.335 1_545 S
O220 C235 1.264 . S
O221 Eu179 2.432 . S
O221 C243 1.268 . S
O222 Eu179 2.291 1_565 S
O222 C242 1.255 . S
O223 Eu168 2.372 . S
O223 C242 1.257 1_554 S
C224 O213 1.249 . S
C224 O214 1.264 . S
C225 C228 1.382 . S
C225 C230 1.390 1_565 S
C225 C232 1.506 . S
C226 C227 1.398 1_545 S
C226 C230 1.392 . S
C227 C226 1.398 1_565 S
C227 C229 1.372 . S
C227 H244 0.931 . S
C228 C225 1.382 . S
C228 C229 1.390 . S
C228 H245 0.931 . S
C229 C227 1.372 . S
C229 C228 1.390 . S
C229 H246 0.929 . S
C230 C225 1.390 1_545 S
C230 C226 1.392 . S
C230 H247 0.930 . S
C231 O216 1.255 . S
C231 O217 1.257 1_554 S
C232 Eu168 2.787 . S
C232 O212 1.252 . S
C232 O215 1.268 . S
C232 C225 1.506 . S
C233 C200 1.439 . S
C233 H210 0.931 . S
C233 C234 1.374 . S
C234 C205 1.387 . S
C234 H211 0.931 . S
C234 C233 1.374 . S
C235 O219 1.249 . S
C235 O220 1.264 . S
C236 C239 1.382 . S
C236 C240 1.390 1_545 S
C236 C243 1.506 . S
C237 C238 1.398 1_565 S
C237 C240 1.392 . S
C238 C237 1.398 1_545 S
C238 C241 1.372 . S
C238 H248 0.931 . S
C239 C236 1.382 . S
C239 C241 1.390 . S
C239 H249 0.931 . S
C240 C236 1.390 1_565 S
C240 C237 1.392 . S
C240 H250 0.930 . S
C241 C238 1.372 . S
C241 C239 1.390 . S
C241 H251 0.929 . S
C242 O222 1.255 . S
C242 O223 1.257 1_556 S
C243 Eu179 2.787 . S
C243 O218 1.252 . S
C243 O221 1.268 . S
C243 C236 1.506 . S
H244 C227 0.931 . S
H245 C228 0.931 . S
H246 C229 0.929 . S
H247 C230 0.930 . S
H248 C238 0.931 . S
H249 C239 0.931 . S
H250 C240 0.930 . S
H251 C241 0.929 . S
Eu252 N281 2.600 . S
Eu252 N287 2.562 . S
Eu252 O296 2.462 . S
Eu252 O297 2.373 . S
Eu252 O299 2.432 . S
Eu252 O300 2.291 . S
Eu252 O304 2.335 . S
Eu252 O307 2.372 . S
Eu252 C316 2.787 . S
C253 N254 1.365 . S
C253 C256 1.405 . S
C253 C260 1.448 . S
N254 C253 1.365 . S
N254 C257 1.319 . S
N254 Eu263 2.600 . S
C255 C257 1.397 . S
C255 C258 1.367 . S
C255 H275 0.931 . S
C256 C253 1.405 . S
C256 C258 1.403 . S
C256 C262 1.439 . S
C257 N254 1.319 . S
C257 C255 1.397 . S
C257 H268 0.930 . S
C258 C255 1.367 . S
C258 C256 1.403 . S
C258 H279 0.929 . S
C259 C260 1.430 . S
C259 C261 1.387 . S
C259 C265 1.404 . S
C260 C253 1.448 . S
C260 C259 1.430 . S
C260 N264 1.351 . S
C261 C259 1.387 . S
C261 C262 1.374 . S
C261 H276 0.931 . S
C262 C256 1.439 . S
C262 C261 1.374 . S
C262 H277 0.931 . S
Eu263 N254 2.600 . S
Eu263 N264 2.562 . S
Eu263 O298 2.335 . S
Eu263 O301 2.372 . S
Eu263 O302 2.462 . S
Eu263 O303 2.373 . S
Eu263 O305 2.432 . S
Eu263 O306 2.291 . S
Eu263 C327 2.787 . S
N264 C260 1.351 . S
N264 Eu263 2.562 . S
N264 C266 1.325 . S
C265 C259 1.404 . S
C265 C267 1.366 . S
C265 H273 0.930 . S
C266 N264 1.325 . S
C266 C267 1.416 . S
C266 H272 0.929 . S
C267 C265 1.366 . S
C267 C266 1.416 . S
C267 H269 0.930 . S
H268 C257 0.930 . S
H269 C267 0.930 . S
H270 C285 0.930 . S
H271 C292 0.930 . S
H272 C266 0.929 . S
H273 C265 0.930 . S
H274 C288 0.929 . S
H275 C255 0.931 . S
H276 C261 0.931 . S
H277 C262 0.931 . S
H278 C283 0.931 . S
H279 C258 0.929 . S
H280 C291 0.930 . S
N281 Eu252 2.600 . S
N281 C282 1.365 . S
N281 C285 1.319 . S
C282 N281 1.365 . S
C282 C284 1.405 . S
C282 C290 1.448 . S
C283 H278 0.931 . S
C283 C285 1.397 . S
C283 C286 1.367 . S
C284 C282 1.405 . S
C284 C286 1.403 . S
C284 C317 1.439 . S
C285 H270 0.930 . S
C285 N281 1.319 . S
C285 C283 1.397 . S
C286 C283 1.367 . S
C286 C284 1.403 . S
C286 H293 0.929 . S
N287 Eu252 2.562 . S
N287 C288 1.325 . S
N287 C290 1.351 . S
C288 H274 0.929 . S
C288 N287 1.325 . S
C288 C292 1.416 . S
C289 C290 1.430 . S
C289 C291 1.404 . S
C289 C318 1.387 . S
C290 C282 1.448 . S
C290 N287 1.351 . S
C290 C289 1.430 . S
C291 H280 0.930 . S
C291 C289 1.404 . S
C291 C292 1.366 . S
C292 H271 0.930 . S
C292 C288 1.416 . S
C292 C291 1.366 . S
H293 C286 0.929 . S
H294 C317 0.931 . S
H295 C318 0.931 . S
O296 Eu252 2.462 . S
O296 C316 1.252 . S
O297 Eu252 2.373 . S
O297 C308 1.249 . S
O298 Eu263 2.335 . S
O298 C308 1.264 . S
O299 Eu252 2.432 . S
O299 C316 1.268 . S
O300 Eu252 2.291 . S
O300 C315 1.255 . S
O301 Eu263 2.372 . S
O301 C315 1.257 . S
O302 Eu263 2.462 . S
O302 C327 1.252 . S
O303 Eu263 2.373 . S
O303 C319 1.249 . S
O304 Eu252 2.335 . S
O304 C319 1.264 . S
O305 Eu263 2.432 . S
O305 C327 1.268 . S
O306 Eu263 2.291 . S
O306 C326 1.255 . S
O307 Eu252 2.372 . S
O307 C326 1.257 . S
C308 O297 1.249 . S
C308 O298 1.264 . S
C309 C312 1.382 . S
C309 C314 1.390 . S
C309 C316 1.506 . S
C310 C311 1.398 . S
C310 C314 1.392 1_556 S
C311 C310 1.398 . S
C311 C313 1.372 . S
C311 H328 0.931 . S
C312 C309 1.382 . S
C312 C313 1.390 1_554 S
C312 H329 0.931 . S
C313 C311 1.372 . S
C313 C312 1.390 1_556 S
C313 H330 0.929 . S
C314 C309 1.390 . S
C314 C310 1.392 1_554 S
C314 H331 0.930 . S
C315 O300 1.255 . S
C315 O301 1.257 . S
C316 Eu252 2.787 . S
C316 O296 1.252 . S
C316 O299 1.268 . S
C316 C309 1.506 . S
C317 C284 1.439 . S
C317 H294 0.931 . S
C317 C318 1.374 . S
C318 C289 1.387 . S
C318 H295 0.931 . S
C318 C317 1.374 . S
C319 O303 1.249 . S
C319 O304 1.264 . S
C320 C323 1.382 . S
C320 C324 1.390 . S
C320 C327 1.506 . S
C321 C322 1.398 . S
C321 C324 1.392 . S
C322 C321 1.398 . S
C322 C325 1.372 . S
C322 H332 0.931 . S
C323 C320 1.382 . S
C323 C325 1.390 . S
C323 H333 0.931 . S
C324 C320 1.390 . S
C324 C321 1.392 . S
C324 H334 0.930 . S
C325 C322 1.372 . S
C325 C323 1.390 . S
C325 H335 0.929 . S
C326 O306 1.255 . S
C326 O307 1.257 . S
C327 Eu263 2.787 . S
C327 O302 1.252 . S
C327 O305 1.268 . S
C327 C320 1.506 . S
H328 C311 0.931 . S
H329 C312 0.931 . S
H330 C313 0.929 . S
H331 C314 0.930 . S
H332 C322 0.931 . S
H333 C323 0.931 . S
H334 C324 0.930 . S
H335 C325 0.929 . S
Eu336 N365 2.600 . S
Eu336 N371 2.562 . S
Eu336 O380 2.462 . S
Eu336 O381 2.373 . S
Eu336 O383 2.432 . S
Eu336 O384 2.291 . S
Eu336 O388 2.335 . S
Eu336 O391 2.372 . S
Eu336 C400 2.787 . S
C337 N338 1.365 . S
C337 C340 1.405 . S
C337 C344 1.448 . S
N338 C337 1.365 . S
N338 C341 1.319 . S
N338 Eu347 2.600 . S
C339 C341 1.397 . S
C339 C342 1.367 . S
C339 H359 0.931 . S
C340 C337 1.405 . S
C340 C342 1.403 . S
C340 C346 1.439 . S
C341 N338 1.319 . S
C341 C339 1.397 . S
C341 H352 0.930 . S
C342 C339 1.367 . S
C342 C340 1.403 . S
C342 H363 0.929 . S
C343 C344 1.430 . S
C343 C345 1.387 . S
C343 C349 1.404 . S
C344 C337 1.448 . S
C344 C343 1.430 . S
C344 N348 1.351 . S
C345 C343 1.387 . S
C345 C346 1.374 . S
C345 H360 0.931 . S
C346 C340 1.439 . S
C346 C345 1.374 . S
C346 H361 0.931 . S
Eu347 N338 2.600 . S
Eu347 N348 2.562 . S
Eu347 O382 2.335 . S
Eu347 O385 2.372 . S
Eu347 O386 2.462 . S
Eu347 O387 2.373 . S
Eu347 O389 2.432 . S
Eu347 O390 2.291 . S
Eu347 C411 2.787 . S
N348 C344 1.351 . S
N348 Eu347 2.562 . S
N348 C350 1.325 . S
C349 C343 1.404 . S
C349 C351 1.366 . S
C349 H357 0.930 . S
C350 N348 1.325 . S
C350 C351 1.416 . S
C350 H356 0.929 . S
C351 C349 1.366 . S
C351 C350 1.416 . S
C351 H353 0.930 . S
H352 C341 0.930 . S
H353 C351 0.930 . S
H354 C369 0.930 . S
H355 C376 0.930 . S
H356 C350 0.929 . S
H357 C349 0.930 . S
H358 C372 0.929 . S
H359 C339 0.931 . S
H360 C345 0.931 . S
H361 C346 0.931 . S
H362 C367 0.931 . S
H363 C342 0.929 . S
H364 C375 0.930 . S
N365 Eu336 2.600 . S
N365 C366 1.365 . S
N365 C369 1.319 . S
C366 N365 1.365 . S
C366 C368 1.405 . S
C366 C374 1.448 . S
C367 H362 0.931 . S
C367 C369 1.397 . S
C367 C370 1.367 . S
C368 C366 1.405 . S
C368 C370 1.403 . S
C368 C401 1.439 . S
C369 H354 0.930 . S
C369 N365 1.319 . S
C369 C367 1.397 . S
C370 C367 1.367 . S
C370 C368 1.403 . S
C370 H377 0.929 . S
N371 Eu336 2.562 . S
N371 C372 1.325 . S
N371 C374 1.351 . S
C372 H358 0.929 . S
C372 N371 1.325 . S
C372 C376 1.416 . S
C373 C374 1.430 . S
C373 C375 1.404 . S
C373 C402 1.387 . S
C374 C366 1.448 . S
C374 N371 1.351 . S
C374 C373 1.430 . S
C375 H364 0.930 . S
C375 C373 1.404 . S
C375 C376 1.366 . S
C376 H355 0.930 . S
C376 C372 1.416 . S
C376 C375 1.366 . S
H377 C370 0.929 . S
H378 C401 0.931 . S
H379 C402 0.931 . S
O380 Eu336 2.462 . S
O380 C400 1.252 . S
O381 Eu336 2.373 . S
O381 C392 1.249 . S
O382 Eu347 2.335 . S
O382 C392 1.264 . S
O383 Eu336 2.432 . S
O383 C400 1.268 . S
O384 Eu336 2.291 . S
O384 C399 1.255 . S
O385 Eu347 2.372 . S
O385 C399 1.257 . S
O386 Eu347 2.462 . S
O386 C411 1.252 . S
O387 Eu347 2.373 . S
O387 C403 1.249 . S
O388 Eu336 2.335 . S
O388 C403 1.264 . S
O389 Eu347 2.432 . S
O389 C411 1.268 . S
O390 Eu347 2.291 . S
O390 C410 1.255 . S
O391 Eu336 2.372 . S
O391 C410 1.257 . S
C392 O381 1.249 . S
C392 O382 1.264 . S
C393 C396 1.382 . S
C393 C398 1.390 . S
C393 C400 1.506 . S
C394 C395 1.398 . S
C394 C398 1.392 . S
C395 C394 1.398 . S
C395 C397 1.372 . S
C395 H412 0.931 . S
C396 C393 1.382 . S
C396 C397 1.390 . S
C396 H413 0.931 . S
C397 C395 1.372 . S
C397 C396 1.390 . S
C397 H414 0.929 . S
C398 C393 1.390 . S
C398 C394 1.392 . S
C398 H415 0.930 . S
C399 O384 1.255 . S
C399 O385 1.257 . S
C400 Eu336 2.787 . S
C400 O380 1.252 . S
C400 O383 1.268 . S
C400 C393 1.506 . S
C401 C368 1.439 . S
C401 H378 0.931 . S
C401 C402 1.374 . S
C402 C373 1.387 . S
C402 H379 0.931 . S
C402 C401 1.374 . S
C403 O387 1.249 . S
C403 O388 1.264 . S
C404 C407 1.382 . S
C404 C408 1.390 . S
C404 C411 1.506 . S
C405 C406 1.398 . S
C405 C408 1.392 1_556 S
C406 C405 1.398 . S
C406 C409 1.372 . S
C406 H416 0.931 . S
C407 C404 1.382 . S
C407 C409 1.390 1_554 S
C407 H417 0.931 . S
C408 C404 1.390 . S
C408 C405 1.392 1_554 S
C408 H418 0.930 . S
C409 C406 1.372 . S
C409 C407 1.390 1_556 S
C409 H419 0.929 . S
C410 O390 1.255 . S
C410 O391 1.257 . S
C411 Eu347 2.787 . S
C411 O386 1.252 . S
C411 O389 1.268 . S
C411 C404 1.506 . S
H412 C395 0.931 . S
H413 C396 0.931 . S
H414 C397 0.929 . S
H415 C398 0.930 . S
H416 C406 0.931 . S
H417 C407 0.931 . S
H418 C408 0.930 . S
H419 C409 0.929 . S
Eu420 N449 2.600 . S
Eu420 N455 2.562 . S
Eu420 O464 2.462 . S
Eu420 O465 2.373 . S
Eu420 O467 2.432 . S
Eu420 O468 2.291 . S
Eu420 O472 2.335 . S
Eu420 O475 2.372 . S
Eu420 C484 2.787 . S
C421 N422 1.365 . S
C421 C424 1.405 . S
C421 C428 1.448 . S
N422 C421 1.365 . S
N422 C425 1.319 . S
N422 Eu431 2.600 . S
C423 C425 1.397 . S
C423 C426 1.367 . S
C423 H443 0.931 . S
C424 C421 1.405 . S
C424 C426 1.403 . S
C424 C430 1.439 . S
C425 N422 1.319 . S
C425 C423 1.397 . S
C425 H436 0.930 . S
C426 C423 1.367 . S
C426 C424 1.403 . S
C426 H447 0.929 . S
C427 C428 1.430 . S
C427 C429 1.387 . S
C427 C433 1.404 . S
C428 C421 1.448 . S
C428 C427 1.430 . S
C428 N432 1.351 . S
C429 C427 1.387 . S
C429 C430 1.374 . S
C429 H444 0.931 . S
C430 C424 1.439 . S
C430 C429 1.374 . S
C430 H445 0.931 . S
Eu431 N422 2.600 . S
Eu431 N432 2.562 . S
Eu431 O466 2.335 . S
Eu431 O469 2.372 . S
Eu431 O470 2.462 . S
Eu431 O471 2.373 . S
Eu431 O473 2.432 . S
Eu431 O474 2.291 . S
Eu431 C495 2.787 . S
N432 C428 1.351 . S
N432 Eu431 2.562 . S
N432 C434 1.325 . S
C433 C427 1.404 . S
C433 C435 1.366 . S
C433 H441 0.930 . S
C434 N432 1.325 . S
C434 C435 1.416 . S
C434 H440 0.929 . S
C435 C433 1.366 . S
C435 C434 1.416 . S
C435 H437 0.930 . S
H436 C425 0.930 . S
H437 C435 0.930 . S
H438 C453 0.930 . S
H439 C460 0.930 . S
H440 C434 0.929 . S
H441 C433 0.930 . S
H442 C456 0.929 . S
H443 C423 0.931 . S
H444 C429 0.931 . S
H445 C430 0.931 . S
H446 C451 0.931 . S
H447 C426 0.929 . S
H448 C459 0.930 . S
N449 Eu420 2.600 . S
N449 C450 1.365 . S
N449 C453 1.319 . S
C450 N449 1.365 . S
C450 C452 1.405 . S
C450 C458 1.448 . S
C451 H446 0.931 . S
C451 C453 1.397 . S
C451 C454 1.367 . S
C452 C450 1.405 . S
C452 C454 1.403 . S
C452 C485 1.439 . S
C453 H438 0.930 . S
C453 N449 1.319 . S
C453 C451 1.397 . S
C454 C451 1.367 . S
C454 C452 1.403 . S
C454 H461 0.929 . S
N455 Eu420 2.562 . S
N455 C456 1.325 . S
N455 C458 1.351 . S
C456 H442 0.929 . S
C456 N455 1.325 . S
C456 C460 1.416 . S
C457 C458 1.430 . S
C457 C459 1.404 . S
C457 C486 1.387 . S
C458 C450 1.448 . S
C458 N455 1.351 . S
C458 C457 1.430 . S
C459 H448 0.930 . S
C459 C457 1.404 . S
C459 C460 1.366 . S
C460 H439 0.930 . S
C460 C456 1.416 . S
C460 C459 1.366 . S
H461 C454 0.929 . S
H462 C485 0.931 . S
H463 C486 0.931 . S
O464 Eu420 2.462 . S
O464 C484 1.252 . S
O465 Eu420 2.373 . S
O465 C476 1.249 . S
O466 Eu431 2.335 . S
O466 C476 1.264 . S
O467 Eu420 2.432 . S
O467 C484 1.268 . S
O468 Eu420 2.291 . S
O468 C483 1.255 . S
O469 Eu431 2.372 . S
O469 C483 1.257 . S
O470 Eu431 2.462 . S
O470 C495 1.252 . S
O471 Eu431 2.373 . S
O471 C487 1.249 . S
O472 Eu420 2.335 . S
O472 C487 1.264 . S
O473 Eu431 2.432 . S
O473 C495 1.268 . S
O474 Eu431 2.291 . S
O474 C494 1.255 . S
O475 Eu420 2.372 . S
O475 C494 1.257 . S
C476 O465 1.249 . S
C476 O466 1.264 . S
C477 C480 1.382 . S
C477 C482 1.390 . S
C477 C484 1.506 . S
C478 C479 1.398 . S
C478 C482 1.392 . S
C479 C478 1.398 . S
C479 C481 1.372 . S
C479 H496 0.931 . S
C480 C477 1.382 . S
C480 C481 1.390 . S
C480 H497 0.931 . S
C481 C479 1.372 . S
C481 C480 1.390 . S
C481 H498 0.929 . S
C482 C477 1.390 . S
C482 C478 1.392 . S
C482 H499 0.930 . S
C483 O468 1.255 . S
C483 O469 1.257 . S
C484 Eu420 2.787 . S
C484 O464 1.252 . S
C484 O467 1.268 . S
C484 C477 1.506 . S
C485 C452 1.439 . S
C485 H462 0.931 . S
C485 C486 1.374 . S
C486 C457 1.387 . S
C486 H463 0.931 . S
C486 C485 1.374 . S
C487 O471 1.249 . S
C487 O472 1.264 . S
C488 C491 1.382 . S
C488 C492 1.390 . S
C488 C495 1.506 . S
C489 C490 1.398 . S
C489 C492 1.392 1_554 S
C490 C489 1.398 . S
C490 C493 1.372 . S
C490 H500 0.931 . S
C491 C488 1.382 . S
C491 C493 1.390 1_556 S
C491 H501 0.931 . S
C492 C488 1.390 . S
C492 C489 1.392 1_556 S
C492 H502 0.930 . S
C493 C490 1.372 . S
C493 C491 1.390 1_554 S
C493 H503 0.929 . S
C494 O474 1.255 . S
C494 O475 1.257 . S
C495 Eu431 2.787 . S
C495 O470 1.252 . S
C495 O473 1.268 . S
C495 C488 1.506 . S
H496 C479 0.931 . S
H497 C480 0.931 . S
H498 C481 0.929 . S
H499 C482 0.930 . S
H500 C490 0.931 . S
H501 C491 0.931 . S
H502 C492 0.930 . S
H503 C493 0.929 . S
Eu504 N533 2.600 . S
Eu504 N539 2.562 . S
Eu504 O548 2.462 . S
Eu504 O549 2.373 1_554 S
Eu504 O551 2.432 . S
Eu504 O552 2.291 . S
Eu504 O556 2.335 . S
Eu504 O559 2.372 . S
Eu504 C568 2.787 . S
C505 N506 1.365 . S
C505 C508 1.405 . S
C505 C512 1.448 . S
N506 C505 1.365 . S
N506 C509 1.319 . S
N506 Eu515 2.600 . S
C507 C509 1.397 . S
C507 C510 1.367 . S
C507 H527 0.931 . S
C508 C505 1.405 . S
C508 C510 1.403 . S
C508 C514 1.439 . S
C509 N506 1.319 . S
C509 C507 1.397 . S
C509 H520 0.930 . S
C510 C507 1.367 . S
C510 C508 1.403 . S
C510 H531 0.929 . S
C511 C512 1.430 . S
C511 C513 1.387 . S
C511 C517 1.404 . S
C512 C505 1.448 . S
C512 C511 1.430 . S
C512 N516 1.351 . S
C513 C511 1.387 . S
C513 C514 1.374 . S
C513 H528 0.931 . S
C514 C508 1.439 . S
C514 C513 1.374 . S
C514 H529 0.931 . S
Eu515 N506 2.600 . S
Eu515 N516 2.562 . S
Eu515 O550 2.335 . S
Eu515 O553 2.372 . S
Eu515 O554 2.462 . S
Eu515 O555 2.373 1_556 S
Eu515 O557 2.432 . S
Eu515 O558 2.291 . S
Eu515 C579 2.787 . S
N516 C512 1.351 . S
N516 Eu515 2.562 . S
N516 C518 1.325 . S
C517 C511 1.404 . S
C517 C519 1.366 . S
C517 H525 0.930 . S
C518 N516 1.325 . S
C518 C519 1.416 . S
C518 H524 0.929 . S
C519 C517 1.366 . S
C519 C518 1.416 . S
C519 H521 0.930 . S
H520 C509 0.930 . S
H521 C519 0.930 . S
H522 C537 0.930 . S
H523 C544 0.930 . S
H524 C518 0.929 . S
H525 C517 0.930 . S
H526 C540 0.929 . S
H527 C507 0.931 . S
H528 C513 0.931 . S
H529 C514 0.931 . S
H530 C535 0.931 . S
H531 C510 0.929 . S
H532 C543 0.930 . S
N533 Eu504 2.600 . S
N533 C534 1.365 . S
N533 C537 1.319 . S
C534 N533 1.365 . S
C534 C536 1.405 . S
C534 C542 1.448 . S
C535 H530 0.931 . S
C535 C537 1.397 . S
C535 C538 1.367 . S
C536 C534 1.405 . S
C536 C538 1.403 . S
C536 C569 1.439 . S
C537 H522 0.930 . S
C537 N533 1.319 . S
C537 C535 1.397 . S
C538 C535 1.367 . S
C538 C536 1.403 . S
C538 H545 0.929 . S
N539 Eu504 2.562 . S
N539 C540 1.325 . S
N539 C542 1.351 . S
C540 H526 0.929 . S
C540 N539 1.325 . S
C540 C544 1.416 . S
C541 C542 1.430 . S
C541 C543 1.404 . S
C541 C570 1.387 . S
C542 C534 1.448 . S
C542 N539 1.351 . S
C542 C541 1.430 . S
C543 H532 0.930 . S
C543 C541 1.404 . S
C543 C544 1.366 . S
C544 H523 0.930 . S
C544 C540 1.416 . S
C544 C543 1.366 . S
H545 C538 0.929 . S
H546 C569 0.931 . S
H547 C570 0.931 . S
O548 Eu504 2.462 . S
O548 C568 1.252 . S
O549 Eu504 2.373 1_556 S
O549 C560 1.249 . S
O550 Eu515 2.335 . S
O550 C560 1.264 . S
O551 Eu504 2.432 . S
O551 C568 1.268 . S
O552 Eu504 2.291 . S
O552 C567 1.255 . S
O553 Eu515 2.372 . S
O553 C567 1.257 1_556 S
O554 Eu515 2.462 . S
O554 C579 1.252 . S
O555 Eu515 2.373 1_554 S
O555 C571 1.249 . S
O556 Eu504 2.335 . S
O556 C571 1.264 . S
O557 Eu515 2.432 . S
O557 C579 1.268 . S
O558 Eu515 2.291 . S
O558 C578 1.255 . S
O559 Eu504 2.372 . S
O559 C578 1.257 1_554 S
C560 O549 1.249 . S
C560 O550 1.264 . S
C561 C564 1.382 . S
C561 C566 1.390 . S
C561 C568 1.506 . S
C562 C563 1.398 . S
C562 C566 1.392 . S
C563 C562 1.398 . S
C563 C565 1.372 . S
C563 H580 0.931 . S
C564 C561 1.382 . S
C564 C565 1.390 . S
C564 H581 0.931 . S
C565 C563 1.372 . S
C565 C564 1.390 . S
C565 H582 0.929 . S
C566 C561 1.390 . S
C566 C562 1.392 . S
C566 H583 0.930 . S
C567 O552 1.255 . S
C567 O553 1.257 1_554 S
C568 Eu504 2.787 . S
C568 O548 1.252 . S
C568 O551 1.268 . S
C568 C561 1.506 . S
C569 C536 1.439 . S
C569 H546 0.931 . S
C569 C570 1.374 . S
C570 C541 1.387 . S
C570 H547 0.931 . S
C570 C569 1.374 . S
C571 O555 1.249 . S
C571 O556 1.264 . S
C572 C575 1.382 . S
C572 C576 1.390 . S
C572 C579 1.506 . S
C573 C574 1.398 . S
C573 C576 1.392 . S
C574 C573 1.398 . S
C574 C577 1.372 . S
C574 H584 0.931 . S
C575 C572 1.382 . S
C575 C577 1.390 . S
C575 H585 0.931 . S
C576 C572 1.390 . S
C576 C573 1.392 . S
C576 H586 0.930 . S
C577 C574 1.372 . S
C577 C575 1.390 . S
C577 H587 0.929 . S
C578 O558 1.255 . S
C578 O559 1.257 1_556 S
C579 Eu515 2.787 . S
C579 O554 1.252 . S
C579 O557 1.268 . S
C579 C572 1.506 . S
H580 C563 0.931 . S
H581 C564 0.931 . S
H582 C565 0.929 . S
H583 C566 0.930 . S
H584 C574 0.931 . S
H585 C575 0.931 . S
H586 C576 0.930 . S
H587 C577 0.929 . S
Eu588 N617 2.601 . S
Eu588 N623 2.539 1_455 S
Eu588 O632 2.457 1_455 S
Eu588 O633 2.359 1_455 S
Eu588 O635 2.446 . S
Eu588 O636 2.274 1_455 S
Eu588 O640 2.352 . S
Eu588 O643 2.392 . S
Eu588 C652 2.792 . S
C589 N590 1.365 1_455 S
C589 C592 1.405 . S
C589 C596 1.448 . S
N590 C589 1.365 1_655 S
N590 C593 1.319 . S
N590 Eu599 2.601 . S
C591 C593 1.397 . S
C591 C594 1.367 . S
C591 H611 0.931 . S
C592 C589 1.405 . S
C592 C594 1.403 1_455 S
C592 C598 1.439 . S
C593 N590 1.319 . S
C593 C591 1.397 . S
C593 H604 0.930 . S
C594 C591 1.367 . S
C594 C592 1.403 1_655 S
C594 H615 0.929 . S
C595 C596 1.430 . S
C595 C597 1.387 . S
C595 C601 1.404 . S
C596 C589 1.448 . S
C596 C595 1.430 . S
C596 N600 1.351 . S
C597 C595 1.387 . S
C597 C598 1.374 . S
C597 H612 0.931 . S
C598 C592 1.439 . S
C598 C597 1.374 . S
C598 H613 0.931 . S
Eu599 N590 2.601 . S
Eu599 N600 2.548 1_655 S
Eu599 O634 2.345 . S
Eu599 O637 2.385 . S
Eu599 O638 2.459 1_655 S
Eu599 O639 2.364 1_655 S
Eu599 O641 2.441 . S
Eu599 O642 2.280 1_655 S
Eu599 C663 2.790 . S
N600 C596 1.351 . S
N600 Eu599 2.548 1_455 S
N600 C602 1.325 . S
C601 C595 1.404 . S
C601 C603 1.366 . S
C601 H609 0.930 . S
C602 N600 1.325 . S
C602 C603 1.416 . S
C602 H608 0.929 . S
C603 C601 1.366 . S
C603 C602 1.416 . S
C603 H605 0.930 . S
H604 C593 0.930 . S
H605 C603 0.930 . S
H606 C621 0.930 . S
H607 C628 0.930 . S
H608 C602 0.929 . S
H609 C601 0.930 . S
H610 C624 0.929 . S
H611 C591 0.931 . S
H612 C597 0.931 . S
H613 C598 0.931 . S
H614 C619 0.931 . S
H615 C594 0.929 . S
H616 C627 0.930 . S
N617 Eu588 2.601 . S
N617 C618 1.365 1_455 S
N617 C621 1.319 . S
C618 N617 1.365 1_655 S
C618 C620 1.405 . S
C618 C626 1.448 . S
C619 H614 0.931 . S
C619 C621 1.397 . S
C619 C622 1.367 . S
C620 C618 1.405 . S
C620 C622 1.403 1_655 S
C620 C653 1.439 . S
C621 H606 0.930 . S
C621 N617 1.319 . S
C621 C619 1.397 . S
C622 C619 1.367 . S
C622 C620 1.403 1_455 S
C622 H629 0.929 . S
N623 Eu588 2.539 1_655 S
N623 C624 1.325 . S
N623 C626 1.351 . S
C624 H610 0.929 . S
C624 N623 1.325 . S
C624 C628 1.416 . S
C625 C626 1.430 . S
C625 C627 1.404 . S
C625 C654 1.387 . S
C626 C618 1.448 . S
C626 N623 1.351 . S
C626 C625 1.430 . S
C627 H616 0.930 . S
C627 C625 1.404 . S
C627 C628 1.366 . S
C628 H607 0.930 . S
C628 C624 1.416 . S
C628 C627 1.366 . S
H629 C622 0.929 . S
H630 C653 0.931 . S
H631 C654 0.931 . S
O632 Eu588 2.457 1_655 S
O632 C652 1.252 1_655 S
O633 Eu588 2.359 1_655 S
O633 C644 1.249 . S
O634 Eu599 2.345 . S
O634 C644 1.264 . S
O635 Eu588 2.446 . S
O635 C652 1.268 . S
O636 Eu588 2.274 1_655 S
O636 C651 1.255 . S
O637 Eu599 2.385 . S
O637 C651 1.257 . S
O638 Eu599 2.459 1_455 S
O638 C663 1.252 1_455 S
O639 Eu599 2.364 1_455 S
O639 C655 1.249 . S
O640 Eu588 2.352 . S
O640 C655 1.264 . S
O641 Eu599 2.441 . S
O641 C663 1.268 . S
O642 Eu599 2.280 1_455 S
O642 C662 1.255 . S
O643 Eu588 2.392 . S
O643 C662 1.257 . S
C644 O633 1.249 . S
C644 O634 1.264 . S
C645 C648 1.382 . S
C645 C650 1.390 . S
C645 C652 1.506 . S
C646 C647 1.398 . S
C646 C650 1.392 . S
C647 C646 1.398 . S
C647 C649 1.372 . S
C647 H664 0.931 . S
C648 C645 1.382 . S
C648 C649 1.390 . S
C648 H665 0.931 . S
C649 C647 1.372 . S
C649 C648 1.390 . S
C649 H666 0.929 . S
C650 C645 1.390 . S
C650 C646 1.392 . S
C650 H667 0.930 1_455 S
C651 O636 1.255 . S
C651 O637 1.257 . S
C652 Eu588 2.792 . S
C652 O632 1.252 1_455 S
C652 O635 1.268 . S
C652 C645 1.506 . S
C653 C620 1.439 . S
C653 H630 0.931 . S
C653 C654 1.374 . S
C654 C625 1.387 . S
C654 H631 0.931 . S
C654 C653 1.374 . S
C655 O639 1.249 . S
C655 O640 1.264 . S
C656 C659 1.382 . S
C656 C660 1.390 . S
C656 C663 1.506 . S
C657 C658 1.398 . S
C657 C660 1.392 . S
C658 C657 1.398 . S
C658 C661 1.372 . S
C658 H668 0.931 . S
C659 C656 1.382 . S
C659 C661 1.390 . S
C659 H669 0.931 . S
C660 C656 1.390 . S
C660 C657 1.392 . S
C660 H670 0.930 1_655 S
C661 C658 1.372 . S
C661 C659 1.390 . S
C661 H671 0.929 . S
C662 O642 1.255 . S
C662 O643 1.257 . S
C663 Eu599 2.790 . S
C663 O638 1.252 1_655 S
C663 O641 1.268 . S
C663 C656 1.506 . S
H664 C647 0.931 . S
H665 C648 0.931 . S
H666 C649 0.929 . S
H667 C650 0.930 1_655 S
H668 C658 0.931 . S
H669 C659 0.931 . S
H670 C660 0.930 1_455 S
H671 C661 0.929 . S
H672 C690 0.951 . S
H673 C692 0.951 . S
H674 C694 0.950 . S
H675 C695 0.950 . S
H676 C697 0.950 . S
H677 C700 0.950 . S
H678 C701 0.950 . S
H679 C703 0.950 . S
H680 C704 0.950 . S
H681 C705 0.951 . S
H682 C707 0.951 . S
H683 C709 0.950 . S
H684 C710 0.950 . S
H685 C712 0.950 . S
H686 C715 0.950 . S
H687 C716 0.950 . S
H688 C718 0.950 . S
H689 C719 0.950 . S
C690 H672 0.951 . S
C690 C691 1.366 . S
C690 C692 1.388 . S
C691 C690 1.366 . S
C691 C695 1.385 . S
C692 H673 0.951 . S
C692 C690 1.388 . S
C692 C693 1.366 . S
C693 C692 1.366 . S
C693 C694 1.414 . S
C693 C696 1.499 . S
C694 H674 0.950 . S
C694 C693 1.414 . S
C694 C695 1.374 . S
C695 H675 0.950 . S
C695 C691 1.385 . S
C695 C694 1.374 . S
C696 C693 1.499 . S
C696 C697 1.373 . S
C696 C698 1.389 . S
C697 H676 0.950 . S
C697 C696 1.373 . S
C697 C713 1.377 . S
C698 C696 1.389 . S
C698 C699 1.524 . S
C698 C712 1.377 . S
C699 C698 1.524 . S
C699 C700 1.397 . S
C699 C704 1.363 . S
C700 H677 0.950 . S
C700 C699 1.397 . S
C700 C701 1.334 . S
C701 H678 0.950 . S
C701 C700 1.334 . S
C701 C702 1.287 . S
C702 C701 1.287 . S
C702 C703 1.524 . S
C702 H721 0.913 . S
C703 H679 0.950 . S
C703 C702 1.524 . S
C703 C704 1.415 . S
C704 H680 0.950 . S
C704 C699 1.363 . S
C704 C703 1.415 . S
C705 H681 0.951 . S
C705 C706 1.366 . S
C705 C707 1.388 . S
C706 C705 1.366 . S
C706 C710 1.385 . S
C707 H682 0.951 . S
C707 C705 1.388 . S
C707 C708 1.366 . S
C708 C707 1.366 . S
C708 C709 1.414 . S
C708 C711 1.499 . S
C709 H683 0.950 . S
C709 C708 1.414 . S
C709 C710 1.374 . S
C710 H684 0.950 . S
C710 C706 1.385 . S
C710 C709 1.374 . S
C711 C708 1.499 . S
C711 C712 1.373 . S
C711 C713 1.389 . S
C712 H685 0.950 . S
C712 C698 1.377 . S
C712 C711 1.373 . S
C713 C697 1.377 . S
C713 C711 1.389 . S
C713 C714 1.524 . S
C714 C713 1.524 . S
C714 C715 1.397 . S
C714 C719 1.363 . S
C715 H686 0.950 . S
C715 C714 1.397 . S
C715 C716 1.334 . S
C716 H687 0.950 . S
C716 C715 1.334 . S
C716 C717 1.287 . S
C717 C716 1.287 . S
C717 C718 1.524 . S
C717 H720 0.999 . S
C718 H688 0.950 . S
C718 C717 1.524 . S
C718 C719 1.415 . S
C719 H689 0.950 . S
C719 C714 1.363 . S
C719 C718 1.415 . S
H720 C717 0.999 . S
H721 C702 0.913 . S
H722 C740 0.951 . S
H723 C742 0.951 . S
H724 C744 0.950 . S
H725 C745 0.950 . S
H726 C747 0.950 . S
H727 C750 0.950 . S
H728 C751 0.950 . S
H729 C753 0.950 . S
H730 C754 0.950 . S
H731 C755 0.951 . S
H732 C757 0.951 . S
H733 C759 0.950 . S
H734 C760 0.950 . S
H735 C762 0.950 . S
H736 C765 0.950 . S
H737 C766 0.950 . S
H738 C768 0.950 . S
H739 C769 0.950 . S
C740 H722 0.951 . S
C740 C741 1.366 . S
C740 C742 1.388 . S
C741 C740 1.366 . S
C741 C745 1.385 . S
C742 H723 0.951 . S
C742 C740 1.388 . S
C742 C743 1.366 . S
C743 C742 1.366 . S
C743 C744 1.414 . S
C743 C746 1.499 . S
C744 H724 0.950 . S
C744 C743 1.414 . S
C744 C745 1.374 . S
C745 H725 0.950 . S
C745 C741 1.385 . S
C745 C744 1.374 . S
C746 C743 1.499 . S
C746 C747 1.373 . S
C746 C748 1.389 . S
C747 H726 0.950 . S
C747 C746 1.373 . S
C747 C763 1.377 . S
C748 C746 1.389 . S
C748 C749 1.524 . S
C748 C762 1.377 . S
C749 C748 1.524 . S
C749 C750 1.397 . S
C749 C754 1.363 . S
C750 H727 0.950 . S
C750 C749 1.397 . S
C750 C751 1.334 . S
C751 H728 0.950 . S
C751 C750 1.334 . S
C751 C752 1.287 . S
C752 C751 1.287 . S
C752 C753 1.524 . S
C752 H771 0.913 . S
C753 H729 0.950 . S
C753 C752 1.524 . S
C753 C754 1.415 . S
C754 H730 0.950 . S
C754 C749 1.363 . S
C754 C753 1.415 . S
C755 H731 0.951 . S
C755 C756 1.366 . S
C755 C757 1.388 . S
C756 C755 1.366 . S
C756 C760 1.385 . S
C757 H732 0.951 . S
C757 C755 1.388 . S
C757 C758 1.366 . S
C758 C757 1.366 . S
C758 C759 1.414 . S
C758 C761 1.499 . S
C759 H733 0.950 . S
C759 C758 1.414 . S
C759 C760 1.374 . S
C760 H734 0.950 . S
C760 C756 1.385 . S
C760 C759 1.374 . S
C761 C758 1.499 . S
C761 C762 1.373 . S
C761 C763 1.389 . S
C762 H735 0.950 . S
C762 C748 1.377 . S
C762 C761 1.373 . S
C763 C747 1.377 . S
C763 C761 1.389 . S
C763 C764 1.524 . S
C764 C763 1.524 . S
C764 C765 1.397 . S
C764 C769 1.363 . S
C765 H736 0.950 . S
C765 C764 1.397 . S
C765 C766 1.334 . S
C766 H737 0.950 . S
C766 C765 1.334 . S
C766 C767 1.287 . S
C767 C766 1.287 . S
C767 C768 1.524 . S
C767 H770 0.999 . S
C768 H738 0.950 . S
C768 C767 1.524 . S
C768 C769 1.415 . S
C769 H739 0.950 . S
C769 C764 1.363 . S
C769 C768 1.415 . S
H770 C767 0.999 . S
H771 C752 0.913 . S
H772 C790 0.951 . S
H773 C792 0.951 . S
H774 C794 0.950 . S
H775 C795 0.950 . S
H776 C797 0.950 . S
H777 C800 0.950 . S
H778 C801 0.950 . S
H779 C803 0.950 1_554 S
H780 C804 0.950 . S
H781 C805 0.951 . S
H782 C807 0.951 . S
H783 C809 0.950 . S
H784 C810 0.950 . S
H785 C812 0.950 . S
H786 C815 0.950 . S
H787 C816 0.950 . S
H788 C818 0.950 . S
H789 C819 0.950 . S
C790 H772 0.951 . S
C790 C791 1.366 . S
C790 C792 1.388 . S
C791 C790 1.366 . S
C791 C795 1.385 . S
C792 H773 0.951 . S
C792 C790 1.388 . S
C792 C793 1.366 . S
C793 C792 1.366 . S
C793 C794 1.414 . S
C793 C796 1.499 . S
C794 H774 0.950 . S
C794 C793 1.414 . S
C794 C795 1.374 . S
C795 H775 0.950 . S
C795 C791 1.385 . S
C795 C794 1.374 . S
C796 C793 1.499 . S
C796 C797 1.373 . S
C796 C798 1.389 . S
C797 H776 0.950 . S
C797 C796 1.373 . S
C797 C813 1.377 . S
C798 C796 1.389 . S
C798 C799 1.524 . S
C798 C812 1.377 . S
C799 C798 1.524 . S
C799 C800 1.397 . S
C799 C804 1.363 . S
C800 H777 0.950 . S
C800 C799 1.397 . S
C800 C801 1.334 . S
C801 H778 0.950 . S
C801 C800 1.334 . S
C801 C802 1.287 . S
C802 C801 1.287 . S
C802 C803 1.524 . S
C802 H821 0.913 1_556 S
C803 H779 0.950 1_556 S
C803 C802 1.524 . S
C803 C804 1.415 . S
C804 H780 0.950 . S
C804 C799 1.363 . S
C804 C803 1.415 . S
C805 H781 0.951 . S
C805 C806 1.366 . S
C805 C807 1.388 . S
C806 C805 1.366 . S
C806 C810 1.385 . S
C807 H782 0.951 . S
C807 C805 1.388 . S
C807 C808 1.366 . S
C808 C807 1.366 . S
C808 C809 1.414 . S
C808 C811 1.499 . S
C809 H783 0.950 . S
C809 C808 1.414 . S
C809 C810 1.374 . S
C810 H784 0.950 . S
C810 C806 1.385 . S
C810 C809 1.374 . S
C811 C808 1.499 . S
C811 C812 1.373 . S
C811 C813 1.389 . S
C812 H785 0.950 . S
C812 C798 1.377 . S
C812 C811 1.373 . S
C813 C797 1.377 . S
C813 C811 1.389 . S
C813 C814 1.524 . S
C814 C813 1.524 . S
C814 C815 1.397 . S
C814 C819 1.363 . S
C815 H786 0.950 . S
C815 C814 1.397 . S
C815 C816 1.334 . S
C816 H787 0.950 . S
C816 C815 1.334 . S
C816 C817 1.287 . S
C817 C816 1.287 . S
C817 C818 1.524 . S
C817 H820 0.999 . S
C818 H788 0.950 . S
C818 C817 1.524 . S
C818 C819 1.415 . S
C819 H789 0.950 . S
C819 C814 1.363 . S
C819 C818 1.415 . S
H820 C817 0.999 . S
H821 C802 0.913 1_554 S
H822 C840 0.951 . S
H823 C842 0.951 . S
H824 C844 0.950 . S
H825 C845 0.950 . S
H826 C847 0.950 . S
H827 C850 0.950 . S
H828 C851 0.950 . S
H829 C853 0.950 . S
H830 C854 0.950 . S
H831 C855 0.951 . S
H832 C857 0.951 . S
H833 C859 0.950 . S
H834 C860 0.950 . S
H835 C862 0.950 . S
H836 C865 0.950 . S
H837 C866 0.950 . S
H838 C868 0.950 . S
H839 C869 0.950 . S
C840 H822 0.951 . S
C840 C841 1.366 . S
C840 C842 1.388 . S
C841 C840 1.366 . S
C841 C845 1.385 . S
C842 H823 0.951 . S
C842 C840 1.388 . S
C842 C843 1.366 . S
C843 C842 1.366 . S
C843 C844 1.414 . S
C843 C846 1.499 . S
C844 H824 0.950 . S
C844 C843 1.414 . S
C844 C845 1.374 . S
C845 H825 0.950 . S
C845 C841 1.385 . S
C845 C844 1.374 . S
C846 C843 1.499 . S
C846 C847 1.373 . S
C846 C848 1.389 . S
C847 H826 0.950 . S
C847 C846 1.373 . S
C847 C863 1.377 . S
C848 C846 1.389 . S
C848 C849 1.524 . S
C848 C862 1.377 . S
C849 C848 1.524 . S
C849 C850 1.397 . S
C849 C854 1.363 . S
C850 H827 0.950 . S
C850 C849 1.397 . S
C850 C851 1.334 . S
C851 H828 0.950 . S
C851 C850 1.334 . S
C851 C852 1.287 . S
C852 C851 1.287 . S
C852 C853 1.524 . S
C852 H871 0.913 . S
C853 H829 0.950 . S
C853 C852 1.524 . S
C853 C854 1.415 . S
C854 H830 0.950 . S
C854 C849 1.363 . S
C854 C853 1.415 . S
C855 H831 0.951 . S
C855 C856 1.366 . S
C855 C857 1.388 . S
C856 C855 1.366 . S
C856 C860 1.385 . S
C857 H832 0.951 . S
C857 C855 1.388 . S
C857 C858 1.366 . S
C858 C857 1.366 . S
C858 C859 1.414 . S
C858 C861 1.499 . S
C859 H833 0.950 . S
C859 C858 1.414 . S
C859 C860 1.374 . S
C860 H834 0.950 . S
C860 C856 1.385 . S
C860 C859 1.374 . S
C861 C858 1.499 . S
C861 C862 1.373 . S
C861 C863 1.389 . S
C862 H835 0.950 . S
C862 C848 1.377 . S
C862 C861 1.373 . S
C863 C847 1.377 . S
C863 C861 1.389 . S
C863 C864 1.524 . S
C864 C863 1.524 . S
C864 C865 1.397 . S
C864 C869 1.363 . S
C865 H836 0.950 . S
C865 C864 1.397 . S
C865 C866 1.334 . S
C866 H837 0.950 . S
C866 C865 1.334 . S
C866 C867 1.287 . S
C867 C866 1.287 . S
C867 C868 1.524 1_554 S
C867 H870 0.999 1_554 S
C868 H838 0.950 . S
C868 C867 1.524 1_556 S
C868 C869 1.415 1_556 S
C869 H839 0.950 . S
C869 C864 1.363 . S
C869 C868 1.415 1_554 S
H870 C867 0.999 1_556 S
H871 C852 0.913 . S
H872 C890 0.951 . S
H873 C892 0.951 . S
H874 C894 0.950 . S
H875 C895 0.950 . S
H876 C897 0.950 . S
H877 C900 0.950 . S
H878 C901 0.950 . S
H879 C903 0.950 . S
H880 C904 0.950 . S
H881 C905 0.951 . S
H882 C907 0.951 . S
H883 C909 0.950 . S
H884 C910 0.950 . S
H885 C912 0.950 . S
H886 C915 0.950 . S
H887 C916 0.950 . S
H888 C918 0.950 . S
H889 C919 0.950 . S
C890 H872 0.951 . S
C890 C891 1.366 . S
C890 C892 1.388 . S
C891 C890 1.366 . S
C891 C895 1.385 . S
C892 H873 0.951 . S
C892 C890 1.388 . S
C892 C893 1.366 . S
C893 C892 1.366 . S
C893 C894 1.414 . S
C893 C896 1.499 . S
C894 H874 0.950 . S
C894 C893 1.414 . S
C894 C895 1.374 . S
C895 H875 0.950 . S
C895 C891 1.385 . S
C895 C894 1.374 . S
C896 C893 1.499 . S
C896 C897 1.373 . S
C896 C898 1.389 . S
C897 H876 0.950 . S
C897 C896 1.373 . S
C897 C913 1.377 . S
C898 C896 1.389 . S
C898 C899 1.524 . S
C898 C912 1.377 . S
C899 C898 1.524 . S
C899 C900 1.397 . S
C899 C904 1.363 . S
C900 H877 0.950 . S
C900 C899 1.397 . S
C900 C901 1.334 . S
C901 H878 0.950 . S
C901 C900 1.334 . S
C901 C902 1.287 . S
C902 C901 1.287 . S
C902 C903 1.524 . S
C902 H921 0.913 . S
C903 H879 0.950 . S
C903 C902 1.524 . S
C903 C904 1.415 . S
C904 H880 0.950 . S
C904 C899 1.363 . S
C904 C903 1.415 . S
C905 H881 0.951 . S
C905 C906 1.366 . S
C905 C907 1.388 . S
C906 C905 1.366 . S
C906 C910 1.385 . S
C907 H882 0.951 . S
C907 C905 1.388 . S
C907 C908 1.366 . S
C908 C907 1.366 . S
C908 C909 1.414 . S
C908 C911 1.499 . S
C909 H883 0.950 . S
C909 C908 1.414 . S
C909 C910 1.374 . S
C910 H884 0.950 . S
C910 C906 1.385 . S
C910 C909 1.374 . S
C911 C908 1.499 . S
C911 C912 1.373 . S
C911 C913 1.389 . S
C912 H885 0.950 . S
C912 C898 1.377 . S
C912 C911 1.373 . S
C913 C897 1.377 . S
C913 C911 1.389 . S
C913 C914 1.524 . S
C914 C913 1.524 . S
C914 C915 1.397 . S
C914 C919 1.363 . S
C915 H886 0.950 . S
C915 C914 1.397 . S
C915 C916 1.334 . S
C916 H887 0.950 . S
C916 C915 1.334 . S
C916 C917 1.287 . S
C917 C916 1.287 . S
C917 C918 1.524 . S
C917 H920 0.999 . S
C918 H888 0.950 . S
C918 C917 1.524 . S
C918 C919 1.415 . S
C919 H889 0.950 . S
C919 C914 1.363 . S
C919 C918 1.415 . S
H920 C917 0.999 . S
H921 C902 0.913 . S
H922 C940 0.951 . S
H923 C942 0.951 . S
H924 C944 0.950 . S
H925 C945 0.950 . S
H926 C947 0.950 . S
H927 C950 0.950 . S
H928 C951 0.950 . S
H929 C953 0.950 . S
H930 C954 0.950 . S
H931 C955 0.951 . S
H932 C957 0.951 . S
H933 C959 0.950 . S
H934 C960 0.950 . S
H935 C962 0.950 . S
H936 C965 0.950 . S
H937 C966 0.950 . S
H938 C968 0.950 . S
H939 C969 0.950 . S
C940 H922 0.951 . S
C940 C941 1.366 . S
C940 C942 1.388 . S
C941 C940 1.366 . S
C941 C945 1.385 . S
C942 H923 0.951 . S
C942 C940 1.388 . S
C942 C943 1.366 . S
C943 C942 1.366 . S
C943 C944 1.414 . S
C943 C946 1.499 . S
C944 H924 0.950 . S
C944 C943 1.414 . S
C944 C945 1.374 . S
C945 H925 0.950 . S
C945 C941 1.385 . S
C945 C944 1.374 . S
C946 C943 1.499 . S
C946 C947 1.373 . S
C946 C948 1.389 . S
C947 H926 0.950 . S
C947 C946 1.373 . S
C947 C963 1.377 . S
C948 C946 1.389 . S
C948 C949 1.524 . S
C948 C962 1.377 . S
C949 C948 1.524 . S
C949 C950 1.397 . S
C949 C954 1.363 . S
C950 H927 0.950 . S
C950 C949 1.397 . S
C950 C951 1.334 . S
C951 H928 0.950 . S
C951 C950 1.334 . S
C951 C952 1.287 . S
C952 C951 1.287 . S
C952 C953 1.524 . S
C952 H971 0.913 . S
C953 H929 0.950 . S
C953 C952 1.524 . S
C953 C954 1.415 . S
C954 H930 0.950 . S
C954 C949 1.363 . S
C954 C953 1.415 . S
C955 H931 0.951 . S
C955 C956 1.366 . S
C955 C957 1.388 . S
C956 C955 1.366 . S
C956 C960 1.385 . S
C957 H932 0.951 . S
C957 C955 1.388 . S
C957 C958 1.366 . S
C958 C957 1.366 . S
C958 C959 1.414 . S
C958 C961 1.499 . S
C959 H933 0.950 . S
C959 C958 1.414 . S
C959 C960 1.374 . S
C960 H934 0.950 . S
C960 C956 1.385 . S
C960 C959 1.374 . S
C961 C958 1.499 . S
C961 C962 1.373 . S
C961 C963 1.389 . S
C962 H935 0.950 . S
C962 C948 1.377 . S
C962 C961 1.373 . S
C963 C947 1.377 . S
C963 C961 1.389 . S
C963 C964 1.524 . S
C964 C963 1.524 . S
C964 C965 1.397 . S
C964 C969 1.363 . S
C965 H936 0.950 . S
C965 C964 1.397 . S
C965 C966 1.334 . S
C966 H937 0.950 . S
C966 C965 1.334 . S
C966 C967 1.287 . S
C967 C966 1.287 . S
C967 C968 1.524 . S
C967 H970 0.999 . S
C968 H938 0.950 . S
C968 C967 1.524 . S
C968 C969 1.415 . S
C969 H939 0.950 . S
C969 C964 1.363 . S
C969 C968 1.415 . S
H970 C967 0.999 . S
H971 C952 0.913 . S
H972 C990 0.951 . S
H973 C992 0.951 . S
H974 C994 0.950 . S
H975 C995 0.950 . S
H976 C997 0.950 . S
H977 C1000 0.950 . S
H978 C1001 0.950 . S
H979 C1003 0.950 . S
H980 C1004 0.950 . S
H981 C1005 0.951 . S
H982 C1007 0.951 . S
H983 C1009 0.950 . S
H984 C1010 0.950 . S
H985 C1012 0.950 . S
H986 C1015 0.950 . S
H987 C1016 0.950 . S
H988 C1018 0.950 . S
H989 C1019 0.950 . S
C990 H972 0.951 . S
C990 C991 1.366 . S
C990 C992 1.388 . S
C991 C990 1.366 . S
C991 C995 1.385 . S
C992 H973 0.951 . S
C992 C990 1.388 . S
C992 C993 1.366 . S
C993 C992 1.366 . S
C993 C994 1.414 . S
C993 C996 1.499 . S
C994 H974 0.950 . S
C994 C993 1.414 . S
C994 C995 1.374 . S
C995 H975 0.950 . S
C995 C991 1.385 . S
C995 C994 1.374 . S
C996 C993 1.499 . S
C996 C997 1.373 . S
C996 C998 1.389 . S
C997 H976 0.950 . S
C997 C996 1.373 . S
C997 C1013 1.377 . S
C998 C996 1.389 . S
C998 C999 1.524 . S
C998 C1012 1.377 . S
C999 C998 1.524 . S
C999 C1000 1.397 . S
C999 C1004 1.363 . S
C1000 H977 0.950 . S
C1000 C999 1.397 . S
C1000 C1001 1.334 . S
C1001 H978 0.950 . S
C1001 C1000 1.334 . S
C1001 C1002 1.287 . S
C1002 C1001 1.287 . S
C1002 C1003 1.524 . S
C1002 H1021 0.913 . S
C1003 H979 0.950 . S
C1003 C1002 1.524 . S
C1003 C1004 1.415 . S
C1004 H980 0.950 . S
C1004 C999 1.363 . S
C1004 C1003 1.415 . S
C1005 H981 0.951 . S
C1005 C1006 1.366 . S
C1005 C1007 1.388 . S
C1006 C1005 1.366 . S
C1006 C1010 1.385 . S
C1007 H982 0.951 . S
C1007 C1005 1.388 . S
C1007 C1008 1.366 . S
C1008 C1007 1.366 . S
C1008 C1009 1.414 . S
C1008 C1011 1.499 . S
C1009 H983 0.950 . S
C1009 C1008 1.414 . S
C1009 C1010 1.374 . S
C1010 H984 0.950 . S
C1010 C1006 1.385 . S
C1010 C1009 1.374 . S
C1011 C1008 1.499 . S
C1011 C1012 1.373 . S
C1011 C1013 1.389 . S
C1012 H985 0.950 . S
C1012 C998 1.377 . S
C1012 C1011 1.373 . S
C1013 C997 1.377 . S
C1013 C1011 1.389 . S
C1013 C1014 1.524 . S
C1014 C1013 1.524 . S
C1014 C1015 1.397 . S
C1014 C1019 1.363 . S
C1015 H986 0.950 . S
C1015 C1014 1.397 . S
C1015 C1016 1.334 1_554 S
C1016 H987 0.950 . S
C1016 C1015 1.334 1_556 S
C1016 C1017 1.287 . S
C1017 C1016 1.287 . S
C1017 C1018 1.524 . S
C1017 H1020 0.999 . S
C1018 H988 0.950 . S
C1018 C1017 1.524 . S
C1018 C1019 1.415 1_556 S
C1019 H989 0.950 . S
C1019 C1014 1.363 . S
C1019 C1018 1.415 1_554 S
H1020 C1017 0.999 . S
H1021 C1002 0.913 . S
H1022 C1040 0.951 . S
H1023 C1042 0.951 . S
H1024 C1044 0.950 . S
H1025 C1045 0.950 . S
H1026 C1047 0.950 . S
H1027 C1050 0.950 . S
H1028 C1051 0.950 . S
H1029 C1053 0.950 . S
H1030 C1054 0.950 . S
H1031 C1055 0.951 . S
H1032 C1057 0.951 . S
H1033 C1059 0.950 . S
H1034 C1060 0.950 . S
H1035 C1062 0.950 . S
H1036 C1065 0.950 . S
H1037 C1066 0.950 . S
H1038 C1068 0.950 . S
H1039 C1069 0.950 . S
C1040 H1022 0.951 . S
C1040 C1041 1.366 . S
C1040 C1042 1.388 . S
C1041 C1040 1.366 . S
C1041 C1045 1.385 . S
C1042 H1023 0.951 . S
C1042 C1040 1.388 . S
C1042 C1043 1.366 . S
C1043 C1042 1.366 . S
C1043 C1044 1.414 . S
C1043 C1046 1.499 . S
C1044 H1024 0.950 . S
C1044 C1043 1.414 . S
C1044 C1045 1.374 . S
C1045 H1025 0.950 . S
C1045 C1041 1.385 . S
C1045 C1044 1.374 . S
C1046 C1043 1.499 . S
C1046 C1047 1.373 . S
C1046 C1048 1.389 . S
C1047 H1026 0.950 . S
C1047 C1046 1.373 . S
C1047 C1063 1.377 . S
C1048 C1046 1.389 . S
C1048 C1049 1.524 . S
C1048 C1062 1.377 . S
C1049 C1048 1.524 . S
C1049 C1050 1.397 . S
C1049 C1054 1.363 . S
C1050 H1027 0.950 . S
C1050 C1049 1.397 . S
C1050 C1051 1.334 . S
C1051 H1028 0.950 . S
C1051 C1050 1.334 . S
C1051 C1052 1.287 . S
C1052 C1051 1.287 . S
C1052 C1053 1.524 . S
C1052 H1071 0.913 . S
C1053 H1029 0.950 . S
C1053 C1052 1.524 . S
C1053 C1054 1.415 . S
C1054 H1030 0.950 . S
C1054 C1049 1.363 . S
C1054 C1053 1.415 . S
C1055 H1031 0.951 . S
C1055 C1056 1.366 . S
C1055 C1057 1.388 . S
C1056 C1055 1.366 . S
C1056 C1060 1.385 . S
C1057 H1032 0.951 . S
C1057 C1055 1.388 . S
C1057 C1058 1.366 . S
C1058 C1057 1.366 . S
C1058 C1059 1.414 . S
C1058 C1061 1.499 . S
C1059 H1033 0.950 . S
C1059 C1058 1.414 . S
C1059 C1060 1.374 . S
C1060 H1034 0.950 . S
C1060 C1056 1.385 . S
C1060 C1059 1.374 . S
C1061 C1058 1.499 . S
C1061 C1062 1.373 . S
C1061 C1063 1.389 . S
C1062 H1035 0.950 . S
C1062 C1048 1.377 . S
C1062 C1061 1.373 . S
C1063 C1047 1.377 . S
C1063 C1061 1.389 . S
C1063 C1064 1.524 . S
C1064 C1063 1.524 . S
C1064 C1065 1.397 . S
C1064 C1069 1.363 . S
C1065 H1036 0.950 . S
C1065 C1064 1.397 . S
C1065 C1066 1.334 . S
C1066 H1037 0.950 . S
C1066 C1065 1.334 . S
C1066 C1067 1.287 . S
C1067 C1066 1.287 . S
C1067 C1068 1.524 . S
C1067 H1070 0.999 . S
C1068 H1038 0.950 . S
C1068 C1067 1.524 . S
C1068 C1069 1.415 . S
C1069 H1039 0.950 . S
C1069 C1064 1.363 . S
C1069 C1068 1.415 . S
H1070 C1067 0.999 . S
H1071 C1052 0.913 . S
H1072 C1090 0.951 . S
H1073 C1092 0.951 . S
H1074 C1094 0.950 . S
H1075 C1095 0.950 . S
H1076 C1097 0.950 . S
H1077 C1100 0.950 . S
H1078 C1101 0.950 . S
H1079 C1103 0.950 . S
H1080 C1104 0.950 . S
H1081 C1105 0.951 . S
H1082 C1107 0.951 . S
H1083 C1109 0.950 . S
H1084 C1110 0.950 . S
H1085 C1112 0.950 . S
H1086 C1115 0.950 . S
H1087 C1116 0.950 . S
H1088 C1118 0.950 . S
H1089 C1119 0.950 . S
C1090 H1072 0.951 . S
C1090 C1091 1.366 . S
C1090 C1092 1.388 . S
C1091 C1090 1.366 . S
C1091 C1095 1.385 . S
C1092 H1073 0.951 . S
C1092 C1090 1.388 . S
C1092 C1093 1.366 . S
C1093 C1092 1.366 . S
C1093 C1094 1.414 . S
C1093 C1096 1.499 . S
C1094 H1074 0.950 . S
C1094 C1093 1.414 . S
C1094 C1095 1.374 . S
C1095 H1075 0.950 . S
C1095 C1091 1.385 . S
C1095 C1094 1.374 . S
C1096 C1093 1.499 . S
C1096 C1097 1.373 . S
C1096 C1098 1.389 . S
C1097 H1076 0.950 . S
C1097 C1096 1.373 . S
C1097 C1113 1.377 . S
C1098 C1096 1.389 . S
C1098 C1099 1.524 . S
C1098 C1112 1.377 . S
C1099 C1098 1.524 . S
C1099 C1100 1.397 . S
C1099 C1104 1.363 . S
C1100 H1077 0.950 . S
C1100 C1099 1.397 . S
C1100 C1101 1.334 1_556 S
C1101 H1078 0.950 . S
C1101 C1100 1.334 1_554 S
C1101 C1102 1.287 . S
C1102 C1101 1.287 . S
C1102 C1103 1.524 . S
C1102 H1121 0.913 . S
C1103 H1079 0.950 . S
C1103 C1102 1.524 . S
C1103 C1104 1.415 1_554 S
C1104 H1080 0.950 . S
C1104 C1099 1.363 . S
C1104 C1103 1.415 1_556 S
C1105 H1081 0.951 . S
C1105 C1106 1.366 . S
C1105 C1107 1.388 . S
C1106 C1105 1.366 . S
C1106 C1110 1.385 . S
C1107 H1082 0.951 . S
C1107 C1105 1.388 . S
C1107 C1108 1.366 . S
C1108 C1107 1.366 . S
C1108 C1109 1.414 . S
C1108 C1111 1.499 . S
C1109 H1083 0.950 . S
C1109 C1108 1.414 . S
C1109 C1110 1.374 . S
C1110 H1084 0.950 . S
C1110 C1106 1.385 . S
C1110 C1109 1.374 . S
C1111 C1108 1.499 . S
C1111 C1112 1.373 . S
C1111 C1113 1.389 . S
C1112 H1085 0.950 . S
C1112 C1098 1.377 . S
C1112 C1111 1.373 . S
C1113 C1097 1.377 . S
C1113 C1111 1.389 . S
C1113 C1114 1.524 . S
C1114 C1113 1.524 . S
C1114 C1115 1.397 . S
C1114 C1119 1.363 . S
C1115 H1086 0.950 . S
C1115 C1114 1.397 . S
C1115 C1116 1.334 . S
C1116 H1087 0.950 . S
C1116 C1115 1.334 . S
C1116 C1117 1.287 . S
C1117 C1116 1.287 . S
C1117 C1118 1.524 . S
C1117 H1120 0.999 . S
C1118 H1088 0.950 . S
C1118 C1117 1.524 . S
C1118 C1119 1.415 . S
C1119 H1089 0.950 . S
C1119 C1114 1.363 . S
C1119 C1118 1.415 . S
H1120 C1117 0.999 . S
H1121 C1102 0.913 . S
H1122 C1140 0.951 . S
H1123 C1142 0.951 . S
H1124 C1144 0.950 . S
H1125 C1145 0.950 . S
H1126 C1147 0.950 . S
H1127 C1150 0.950 . S
H1128 C1151 0.950 . S
H1129 C1153 0.950 . S
H1130 C1154 0.950 . S
H1131 C1155 0.951 . S
H1132 C1157 0.951 . S
H1133 C1159 0.950 . S
H1134 C1160 0.950 . S
H1135 C1162 0.950 . S
H1136 C1165 0.950 . S
H1137 C1166 0.950 . S
H1138 C1168 0.950 . S
H1139 C1169 0.950 . S
C1140 H1122 0.951 . S
C1140 C1141 1.366 . S
C1140 C1142 1.388 . S
C1141 C1140 1.366 . S
C1141 C1145 1.385 . S
C1142 H1123 0.951 . S
C1142 C1140 1.388 . S
C1142 C1143 1.366 . S
C1143 C1142 1.366 . S
C1143 C1144 1.414 . S
C1143 C1146 1.499 . S
C1144 H1124 0.950 . S
C1144 C1143 1.414 . S
C1144 C1145 1.374 . S
C1145 H1125 0.950 . S
C1145 C1141 1.385 . S
C1145 C1144 1.374 . S
C1146 C1143 1.499 . S
C1146 C1147 1.373 . S
C1146 C1148 1.389 . S
C1147 H1126 0.950 . S
C1147 C1146 1.373 . S
C1147 C1163 1.377 . S
C1148 C1146 1.389 . S
C1148 C1149 1.524 . S
C1148 C1162 1.377 . S
C1149 C1148 1.524 . S
C1149 C1150 1.397 . S
C1149 C1154 1.363 . S
C1150 H1127 0.950 . S
C1150 C1149 1.397 . S
C1150 C1151 1.334 . S
C1151 H1128 0.950 . S
C1151 C1150 1.334 . S
C1151 C1152 1.287 . S
C1152 C1151 1.287 . S
C1152 C1153 1.524 . S
C1152 H1171 0.913 1_554 S
C1153 H1129 0.950 . S
C1153 C1152 1.524 . S
C1153 C1154 1.415 . S
C1154 H1130 0.950 . S
C1154 C1149 1.363 . S
C1154 C1153 1.415 . S
C1155 H1131 0.951 . S
C1155 C1156 1.366 . S
C1155 C1157 1.388 . S
C1156 C1155 1.366 . S
C1156 C1160 1.385 . S
C1157 H1132 0.951 . S
C1157 C1155 1.388 . S
C1157 C1158 1.366 . S
C1158 C1157 1.366 . S
C1158 C1159 1.414 . S
C1158 C1161 1.499 . S
C1159 H1133 0.950 . S
C1159 C1158 1.414 . S
C1159 C1160 1.374 . S
C1160 H1134 0.950 . S
C1160 C1156 1.385 . S
C1160 C1159 1.374 . S
C1161 C1158 1.499 . S
C1161 C1162 1.373 . S
C1161 C1163 1.389 . S
C1162 H1135 0.950 . S
C1162 C1148 1.377 . S
C1162 C1161 1.373 . S
C1163 C1147 1.377 . S
C1163 C1161 1.389 . S
C1163 C1164 1.524 . S
C1164 C1163 1.524 . S
C1164 C1165 1.397 . S
C1164 C1169 1.363 . S
C1165 H1136 0.950 . S
C1165 C1164 1.397 . S
C1165 C1166 1.334 . S
C1166 H1137 0.950 . S
C1166 C1165 1.334 . S
C1166 C1167 1.287 . S
C1167 C1166 1.287 . S
C1167 C1168 1.524 . S
C1167 H1170 0.999 . S
C1168 H1138 0.950 . S
C1168 C1167 1.524 . S
C1168 C1169 1.415 . S
C1169 H1139 0.950 . S
C1169 C1164 1.363 . S
C1169 C1168 1.415 . S
H1170 C1167 0.999 . S
H1171 C1152 0.913 1_556 S
H1172 C1190 0.951 . S
H1173 C1192 0.951 . S
H1174 C1194 0.950 . S
H1175 C1195 0.950 . S
H1176 C1197 0.950 . S
H1177 C1200 0.950 . S
H1178 C1201 0.950 . S
H1179 C1203 0.950 . S
H1180 C1204 0.950 . S
H1181 C1205 0.951 . S
H1182 C1207 0.951 . S
H1183 C1209 0.950 . S
H1184 C1210 0.950 . S
H1185 C1212 0.950 . S
H1186 C1215 0.950 . S
H1187 C1216 0.950 . S
H1188 C1218 0.950 . S
H1189 C1219 0.950 . S
C1190 H1172 0.951 . S
C1190 C1191 1.366 . S
C1190 C1192 1.388 . S
C1191 C1190 1.366 . S
C1191 C1195 1.385 . S
C1192 H1173 0.951 . S
C1192 C1190 1.388 . S
C1192 C1193 1.366 . S
C1193 C1192 1.366 . S
C1193 C1194 1.414 . S
C1193 C1196 1.499 . S
C1194 H1174 0.950 . S
C1194 C1193 1.414 . S
C1194 C1195 1.374 . S
C1195 H1175 0.950 . S
C1195 C1191 1.385 . S
C1195 C1194 1.374 . S
C1196 C1193 1.499 . S
C1196 C1197 1.373 . S
C1196 C1198 1.389 . S
C1197 H1176 0.950 . S
C1197 C1196 1.373 . S
C1197 C1213 1.377 . S
C1198 C1196 1.389 . S
C1198 C1199 1.524 . S
C1198 C1212 1.377 . S
C1199 C1198 1.524 . S
C1199 C1200 1.397 . S
C1199 C1204 1.363 . S
C1200 H1177 0.950 . S
C1200 C1199 1.397 . S
C1200 C1201 1.334 . S
C1201 H1178 0.950 . S
C1201 C1200 1.334 . S
C1201 C1202 1.287 . S
C1202 C1201 1.287 . S
C1202 C1203 1.524 . S
C1202 H1221 0.913 . S
C1203 H1179 0.950 . S
C1203 C1202 1.524 . S
C1203 C1204 1.415 . S
C1204 H1180 0.950 . S
C1204 C1199 1.363 . S
C1204 C1203 1.415 . S
C1205 H1181 0.951 . S
C1205 C1206 1.366 . S
C1205 C1207 1.388 . S
C1206 C1205 1.366 . S
C1206 C1210 1.385 . S
C1207 H1182 0.951 . S
C1207 C1205 1.388 . S
C1207 C1208 1.366 . S
C1208 C1207 1.366 . S
C1208 C1209 1.414 . S
C1208 C1211 1.499 . S
C1209 H1183 0.950 . S
C1209 C1208 1.414 . S
C1209 C1210 1.374 . S
C1210 H1184 0.950 . S
C1210 C1206 1.385 . S
C1210 C1209 1.374 . S
C1211 C1208 1.499 . S
C1211 C1212 1.373 . S
C1211 C1213 1.389 . S
C1212 H1185 0.950 . S
C1212 C1198 1.377 . S
C1212 C1211 1.373 . S
C1213 C1197 1.377 . S
C1213 C1211 1.389 . S
C1213 C1214 1.524 . S
C1214 C1213 1.524 . S
C1214 C1215 1.397 . S
C1214 C1219 1.363 . S
C1215 H1186 0.950 . S
C1215 C1214 1.397 . S
C1215 C1216 1.334 . S
C1216 H1187 0.950 . S
C1216 C1215 1.334 . S
C1216 C1217 1.287 . S
C1217 C1216 1.287 . S
C1217 C1218 1.524 . S
C1217 H1220 0.999 . S
C1218 H1188 0.950 . S
C1218 C1217 1.524 . S
C1218 C1219 1.415 . S
C1219 H1189 0.950 . S
C1219 C1214 1.363 . S
C1219 C1218 1.415 . S
H1220 C1217 0.999 . S
H1221 C1202 0.913 . S
H1222 C1240 0.951 . S
H1223 C1242 0.951 . S
H1224 C1244 0.950 . S
H1225 C1245 0.950 . S
H1226 C1247 0.950 . S
H1227 C1250 0.950 . S
H1228 C1251 0.950 . S
H1229 C1253 0.950 . S
H1230 C1254 0.950 . S
H1231 C1255 0.951 . S
H1232 C1257 0.951 . S
H1233 C1259 0.950 . S
H1234 C1260 0.950 . S
H1235 C1262 0.950 . S
H1236 C1265 0.950 . S
H1237 C1266 0.950 . S
H1238 C1268 0.950 . S
H1239 C1269 0.950 . S
C1240 H1222 0.951 . S
C1240 C1241 1.366 . S
C1240 C1242 1.388 . S
C1241 C1240 1.366 . S
C1241 C1245 1.385 . S
C1242 H1223 0.951 . S
C1242 C1240 1.388 . S
C1242 C1243 1.366 . S
C1243 C1242 1.366 . S
C1243 C1244 1.414 . S
C1243 C1246 1.499 . S
C1244 H1224 0.950 . S
C1244 C1243 1.414 . S
C1244 C1245 1.374 . S
C1245 H1225 0.950 . S
C1245 C1241 1.385 . S
C1245 C1244 1.374 . S
C1246 C1243 1.499 . S
C1246 C1247 1.373 . S
C1246 C1248 1.389 . S
C1247 H1226 0.950 . S
C1247 C1246 1.373 . S
C1247 C1263 1.377 . S
C1248 C1246 1.389 . S
C1248 C1249 1.524 . S
C1248 C1262 1.377 . S
C1249 C1248 1.524 . S
C1249 C1250 1.397 . S
C1249 C1254 1.363 . S
C1250 H1227 0.950 . S
C1250 C1249 1.397 . S
C1250 C1251 1.334 . S
C1251 H1228 0.950 . S
C1251 C1250 1.334 . S
C1251 C1252 1.287 . S
C1252 C1251 1.287 . S
C1252 C1253 1.524 . S
C1252 H1271 0.913 . S
C1253 H1229 0.950 . S
C1253 C1252 1.524 . S
C1253 C1254 1.415 . S
C1254 H1230 0.950 . S
C1254 C1249 1.363 . S
C1254 C1253 1.415 . S
C1255 H1231 0.951 . S
C1255 C1256 1.366 . S
C1255 C1257 1.388 . S
C1256 C1255 1.366 . S
C1256 C1260 1.385 . S
C1257 H1232 0.951 . S
C1257 C1255 1.388 . S
C1257 C1258 1.366 . S
C1258 C1257 1.366 . S
C1258 C1259 1.414 . S
C1258 C1261 1.499 . S
C1259 H1233 0.950 . S
C1259 C1258 1.414 . S
C1259 C1260 1.374 . S
C1260 H1234 0.950 . S
C1260 C1256 1.385 . S
C1260 C1259 1.374 . S
C1261 C1258 1.499 . S
C1261 C1262 1.373 . S
C1261 C1263 1.389 . S
C1262 H1235 0.950 . S
C1262 C1248 1.377 . S
C1262 C1261 1.373 . S
C1263 C1247 1.377 . S
C1263 C1261 1.389 . S
C1263 C1264 1.524 . S
C1264 C1263 1.524 . S
C1264 C1265 1.397 . S
C1264 C1269 1.363 . S
C1265 H1236 0.950 . S
C1265 C1264 1.397 . S
C1265 C1266 1.334 . S
C1266 H1237 0.950 . S
C1266 C1265 1.334 . S
C1266 C1267 1.287 . S
C1267 C1266 1.287 . S
C1267 C1268 1.524 . S
C1267 H1270 0.999 . S
C1268 H1238 0.950 . S
C1268 C1267 1.524 . S
C1268 C1269 1.415 . S
C1269 H1239 0.950 . S
C1269 C1264 1.363 . S
C1269 C1268 1.415 . S
H1270 C1267 0.999 . S
H1271 C1252 0.913 . S
H1272 C1290 0.951 . S
H1273 C1292 0.951 . S
H1274 C1294 0.950 . S
H1275 C1295 0.950 . S
H1276 C1297 0.950 . S
H1277 C1300 0.950 . S
H1278 C1301 0.950 . S
H1279 C1303 0.950 . S
H1280 C1304 0.950 . S
H1281 C1305 0.949 1_556 S
H1282 C1307 0.951 . S
H1283 C1309 0.950 . S
H1284 C1310 0.950 . S
H1285 C1312 0.950 . S
H1286 C1315 0.950 . S
H1287 C1316 0.950 . S
H1288 C1318 0.950 . S
H1289 C1319 0.950 . S
C1290 H1272 0.951 . S
C1290 C1291 1.366 . S
C1290 C1292 1.388 . S
C1291 C1290 1.366 . S
C1291 C1295 1.385 . S
C1292 H1273 0.951 . S
C1292 C1290 1.388 . S
C1292 C1293 1.366 . S
C1293 C1292 1.366 . S
C1293 C1294 1.414 . S
C1293 C1296 1.499 . S
C1294 H1274 0.950 . S
C1294 C1293 1.414 . S
C1294 C1295 1.374 . S
C1295 H1275 0.950 . S
C1295 C1291 1.385 . S
C1295 C1294 1.374 . S
C1296 C1293 1.499 . S
C1296 C1297 1.373 . S
C1296 C1298 1.389 . S
C1297 H1276 0.950 . S
C1297 C1296 1.373 . S
C1297 C1313 1.377 . S
C1298 C1296 1.389 . S
C1298 C1299 1.524 . S
C1298 C1312 1.377 . S
C1299 C1298 1.524 . S
C1299 C1300 1.397 . S
C1299 C1304 1.363 . S
C1300 H1277 0.950 . S
C1300 C1299 1.397 . S
C1300 C1301 1.334 . S
C1301 H1278 0.950 . S
C1301 C1300 1.334 . S
C1301 C1302 1.287 . S
C1302 C1301 1.287 . S
C1302 C1303 1.524 . S
C1302 H1321 0.913 . S
C1303 H1279 0.950 . S
C1303 C1302 1.524 . S
C1303 C1304 1.415 . S
C1304 H1280 0.950 . S
C1304 C1299 1.363 . S
C1304 C1303 1.415 . S
C1305 H1281 0.949 1_554 S
C1305 C1306 1.366 . S
C1305 C1307 1.388 . S
C1306 C1305 1.366 . S
C1306 C1310 1.385 . S
C1307 H1282 0.951 . S
C1307 C1305 1.388 . S
C1307 C1308 1.366 . S
C1308 C1307 1.366 . S
C1308 C1309 1.414 . S
C1308 C1311 1.499 . S
C1309 H1283 0.950 . S
C1309 C1308 1.414 . S
C1309 C1310 1.374 . S
C1310 H1284 0.950 . S
C1310 C1306 1.385 . S
C1310 C1309 1.374 . S
C1311 C1308 1.499 . S
C1311 C1312 1.373 . S
C1311 C1313 1.389 . S
C1312 H1285 0.950 . S
C1312 C1298 1.377 . S
C1312 C1311 1.373 . S
C1313 C1297 1.377 . S
C1313 C1311 1.389 . S
C1313 C1314 1.524 . S
C1314 C1313 1.524 . S
C1314 C1315 1.397 . S
C1314 C1319 1.363 . S
C1315 H1286 0.950 . S
C1315 C1314 1.397 . S
C1315 C1316 1.334 . S
C1316 H1287 0.950 . S
C1316 C1315 1.334 . S
C1316 C1317 1.287 1_554 S
C1317 C1316 1.287 1_556 S
C1317 C1318 1.524 . S
C1317 H1320 0.999 . S
C1318 H1288 0.950 . S
C1318 C1317 1.524 . S
C1318 C1319 1.415 1_556 S
C1319 H1289 0.950 . S
C1319 C1314 1.363 . S
C1319 C1318 1.415 1_554 S
H1320 C1317 0.999 . S
H1321 C1302 0.913 . S
H1322 C1340 0.951 . S
H1323 C1342 0.951 . S
H1324 C1344 0.950 . S
H1325 C1345 0.950 . S
H1326 C1347 0.950 . S
H1327 C1350 0.950 . S
H1328 C1351 0.950 . S
H1329 C1353 0.950 . S
H1330 C1354 0.950 . S
H1331 C1355 0.951 . S
H1332 C1357 0.951 . S
H1333 C1359 0.950 . S
H1334 C1360 0.950 . S
H1335 C1362 0.950 . S
H1336 C1365 0.950 . S
H1337 C1366 0.950 . S
H1338 C1368 0.950 . S
H1339 C1369 0.950 . S
C1340 H1322 0.951 . S
C1340 C1341 1.366 . S
C1340 C1342 1.388 . S
C1341 C1340 1.366 . S
C1341 C1345 1.385 . S
C1342 H1323 0.951 . S
C1342 C1340 1.388 . S
C1342 C1343 1.366 . S
C1343 C1342 1.366 . S
C1343 C1344 1.414 . S
C1343 C1346 1.499 . S
C1344 H1324 0.950 . S
C1344 C1343 1.414 . S
C1344 C1345 1.374 . S
C1345 H1325 0.950 . S
C1345 C1341 1.385 . S
C1345 C1344 1.374 . S
C1346 C1343 1.499 . S
C1346 C1347 1.373 . S
C1346 C1348 1.389 . S
C1347 H1326 0.950 . S
C1347 C1346 1.373 . S
C1347 C1363 1.377 . S
C1348 C1346 1.389 . S
C1348 C1349 1.524 . S
C1348 C1362 1.377 . S
C1349 C1348 1.524 . S
C1349 C1350 1.397 . S
C1349 C1354 1.363 . S
C1350 H1327 0.950 . S
C1350 C1349 1.397 . S
C1350 C1351 1.334 . S
C1351 H1328 0.950 . S
C1351 C1350 1.334 . S
C1351 C1352 1.287 . S
C1352 C1351 1.287 . S
C1352 C1353 1.524 . S
C1352 H1371 0.913 . S
C1353 H1329 0.950 . S
C1353 C1352 1.524 . S
C1353 C1354 1.415 . S
C1354 H1330 0.950 . S
C1354 C1349 1.363 . S
C1354 C1353 1.415 . S
C1355 H1331 0.951 . S
C1355 C1356 1.366 . S
C1355 C1357 1.388 . S
C1356 C1355 1.366 . S
C1356 C1360 1.385 . S
C1357 H1332 0.951 . S
C1357 C1355 1.388 . S
C1357 C1358 1.366 . S
C1358 C1357 1.366 . S
C1358 C1359 1.414 . S
C1358 C1361 1.499 . S
C1359 H1333 0.950 . S
C1359 C1358 1.414 . S
C1359 C1360 1.374 . S
C1360 H1334 0.950 . S
C1360 C1356 1.385 . S
C1360 C1359 1.374 . S
C1361 C1358 1.499 . S
C1361 C1362 1.373 . S
C1361 C1363 1.389 . S
C1362 H1335 0.950 . S
C1362 C1348 1.377 . S
C1362 C1361 1.373 . S
C1363 C1347 1.377 . S
C1363 C1361 1.389 . S
C1363 C1364 1.524 . S
C1364 C1363 1.524 . S
C1364 C1365 1.397 . S
C1364 C1369 1.363 . S
C1365 H1336 0.950 . S
C1365 C1364 1.397 . S
C1365 C1366 1.334 . S
C1366 H1337 0.950 . S
C1366 C1365 1.334 . S
C1366 C1367 1.287 . S
C1367 C1366 1.287 . S
C1367 C1368 1.524 . S
C1367 H1370 0.999 . S
C1368 H1338 0.950 . S
C1368 C1367 1.524 . S
C1368 C1369 1.415 . S
C1369 H1339 0.950 . S
C1369 C1364 1.363 . S
C1369 C1368 1.415 . S
H1370 C1367 0.999 . S
H1371 C1352 0.913 . S
H1372 C1390 0.951 . S
H1373 C1392 0.951 . S
H1374 C1394 0.950 . S
H1375 C1395 0.950 . S
H1376 C1397 0.950 . S
H1377 C1400 0.950 . S
H1378 C1401 0.950 . S
H1379 C1403 0.950 . S
H1380 C1404 0.950 . S
H1381 C1405 0.951 . S
H1382 C1407 0.951 . S
H1383 C1409 0.950 . S
H1384 C1410 0.950 . S
H1385 C1412 0.950 . S
H1386 C1415 0.950 . S
H1387 C1416 0.950 . S
H1388 C1418 0.950 . S
H1389 C1419 0.950 . S
C1390 H1372 0.951 . S
C1390 C1391 1.366 . S
C1390 C1392 1.388 . S
C1391 C1390 1.366 . S
C1391 C1395 1.385 . S
C1392 H1373 0.951 . S
C1392 C1390 1.388 . S
C1392 C1393 1.366 . S
C1393 C1392 1.366 . S
C1393 C1394 1.414 . S
C1393 C1396 1.499 . S
C1394 H1374 0.950 . S
C1394 C1393 1.414 . S
C1394 C1395 1.374 . S
C1395 H1375 0.950 . S
C1395 C1391 1.385 . S
C1395 C1394 1.374 . S
C1396 C1393 1.499 . S
C1396 C1397 1.373 . S
C1396 C1398 1.389 . S
C1397 H1376 0.950 . S
C1397 C1396 1.373 . S
C1397 C1413 1.377 . S
C1398 C1396 1.389 . S
C1398 C1399 1.524 . S
C1398 C1412 1.377 . S
C1399 C1398 1.524 . S
C1399 C1400 1.397 . S
C1399 C1404 1.363 . S
C1400 H1377 0.950 . S
C1400 C1399 1.397 . S
C1400 C1401 1.334 . S
C1401 H1378 0.950 . S
C1401 C1400 1.334 . S
C1401 C1402 1.287 . S
C1402 C1401 1.287 . S
C1402 C1403 1.524 . S
C1402 H1421 0.913 . S
C1403 H1379 0.950 . S
C1403 C1402 1.524 . S
C1403 C1404 1.415 . S
C1404 H1380 0.950 . S
C1404 C1399 1.363 . S
C1404 C1403 1.415 . S
C1405 H1381 0.951 . S
C1405 C1406 1.366 . S
C1405 C1407 1.388 . S
C1406 C1405 1.366 . S
C1406 C1410 1.385 . S
C1407 H1382 0.951 . S
C1407 C1405 1.388 . S
C1407 C1408 1.366 . S
C1408 C1407 1.366 . S
C1408 C1409 1.414 . S
C1408 C1411 1.499 . S
C1409 H1383 0.950 . S
C1409 C1408 1.414 . S
C1409 C1410 1.374 . S
C1410 H1384 0.950 . S
C1410 C1406 1.385 . S
C1410 C1409 1.374 . S
C1411 C1408 1.499 . S
C1411 C1412 1.373 . S
C1411 C1413 1.389 . S
C1412 H1385 0.950 . S
C1412 C1398 1.377 . S
C1412 C1411 1.373 . S
C1413 C1397 1.377 . S
C1413 C1411 1.389 . S
C1413 C1414 1.524 . S
C1414 C1413 1.524 . S
C1414 C1415 1.397 . S
C1414 C1419 1.363 . S
C1415 H1386 0.950 . S
C1415 C1414 1.397 . S
C1415 C1416 1.334 . S
C1416 H1387 0.950 . S
C1416 C1415 1.334 . S
C1416 C1417 1.287 . S
C1417 C1416 1.287 . S
C1417 C1418 1.524 . S
C1417 H1420 0.999 . S
C1418 H1388 0.950 . S
C1418 C1417 1.524 . S
C1418 C1419 1.415 . S
C1419 H1389 0.950 . S
C1419 C1414 1.363 . S
C1419 C1418 1.415 . S
H1420 C1417 0.999 . S
H1421 C1402 0.913 . S
H1422 C1440 0.951 . S
H1423 C1442 0.951 . S
H1424 C1444 0.950 . S
H1425 C1445 0.950 . S
H1426 C1447 0.950 . S
H1427 C1450 0.950 . S
H1428 C1451 0.950 . S
H1429 C1453 0.950 . S
H1430 C1454 0.950 . S
H1431 C1455 0.951 . S
H1432 C1457 0.951 . S
H1433 C1459 0.950 . S
H1434 C1460 0.950 . S
H1435 C1462 0.950 . S
H1436 C1465 0.950 . S
H1437 C1466 0.950 . S
H1438 C1468 0.950 . S
H1439 C1469 0.950 . S
C1440 H1422 0.951 . S
C1440 C1441 1.366 . S
C1440 C1442 1.388 . S
C1441 C1440 1.366 . S
C1441 C1445 1.385 . S
C1442 H1423 0.951 . S
C1442 C1440 1.388 . S
C1442 C1443 1.366 . S
C1443 C1442 1.366 . S
C1443 C1444 1.414 . S
C1443 C1446 1.499 . S
C1444 H1424 0.950 . S
C1444 C1443 1.414 . S
C1444 C1445 1.374 . S
C1445 H1425 0.950 . S
C1445 C1441 1.385 . S
C1445 C1444 1.374 . S
C1446 C1443 1.499 . S
C1446 C1447 1.373 . S
C1446 C1448 1.389 . S
C1447 H1426 0.950 . S
C1447 C1446 1.373 . S
C1447 C1463 1.377 . S
C1448 C1446 1.389 . S
C1448 C1449 1.524 . S
C1448 C1462 1.377 . S
C1449 C1448 1.524 . S
C1449 C1450 1.397 . S
C1449 C1454 1.363 . S
C1450 H1427 0.950 . S
C1450 C1449 1.397 . S
C1450 C1451 1.334 . S
C1451 H1428 0.950 . S
C1451 C1450 1.334 . S
C1451 C1452 1.287 . S
C1452 C1451 1.287 . S
C1452 C1453 1.524 . S
C1452 H1471 0.913 . S
C1453 H1429 0.950 . S
C1453 C1452 1.524 . S
C1453 C1454 1.415 . S
C1454 H1430 0.950 . S
C1454 C1449 1.363 . S
C1454 C1453 1.415 . S
C1455 H1431 0.951 . S
C1455 C1456 1.366 . S
C1455 C1457 1.388 . S
C1456 C1455 1.366 . S
C1456 C1460 1.385 . S
C1457 H1432 0.951 . S
C1457 C1455 1.388 . S
C1457 C1458 1.366 . S
C1458 C1457 1.366 . S
C1458 C1459 1.414 . S
C1458 C1461 1.499 . S
C1459 H1433 0.950 . S
C1459 C1458 1.414 . S
C1459 C1460 1.374 . S
C1460 H1434 0.950 . S
C1460 C1456 1.385 . S
C1460 C1459 1.374 . S
C1461 C1458 1.499 . S
C1461 C1462 1.373 . S
C1461 C1463 1.389 . S
C1462 H1435 0.950 . S
C1462 C1448 1.377 . S
C1462 C1461 1.373 . S
C1463 C1447 1.377 . S
C1463 C1461 1.389 . S
C1463 C1464 1.524 . S
C1464 C1463 1.524 . S
C1464 C1465 1.397 . S
C1464 C1469 1.363 . S
C1465 H1436 0.950 . S
C1465 C1464 1.397 . S
C1465 C1466 1.334 . S
C1466 H1437 0.950 . S
C1466 C1465 1.334 . S
C1466 C1467 1.287 . S
C1467 C1466 1.287 . S
C1467 C1468 1.524 . S
C1467 H1470 0.999 . S
C1468 H1438 0.950 . S
C1468 C1467 1.524 . S
C1468 C1469 1.415 . S
C1469 H1439 0.950 . S
C1469 C1464 1.363 . S
C1469 C1468 1.415 . S
H1470 C1467 0.999 . S
H1471 C1452 0.913 . S
H1472 C1490 0.951 . S
H1473 C1492 0.951 . S
H1474 C1494 0.950 . S
H1475 C1495 0.950 . S
H1476 C1497 0.950 . S
H1477 C1500 0.950 . S
H1478 C1501 0.950 . S
H1479 C1503 0.950 1_565 S
H1480 C1504 0.950 . S
H1481 C1505 0.951 . S
H1482 C1507 0.951 . S
H1483 C1509 0.950 . S
H1484 C1510 0.950 . S
H1485 C1512 0.950 . S
H1486 C1515 0.950 . S
H1487 C1516 0.950 . S
H1488 C1518 0.950 1_545 S
H1489 C1519 0.950 . S
C1490 H1472 0.951 . S
C1490 C1491 1.366 . S
C1490 C1492 1.388 . S
C1491 C1490 1.366 . S
C1491 C1495 1.385 1_665 S
C1492 H1473 0.951 . S
C1492 C1490 1.388 . S
C1492 C1493 1.366 . S
C1493 C1492 1.366 . S
C1493 C1494 1.414 1_665 S
C1493 C1496 1.500 . S
C1494 H1474 0.950 . S
C1494 C1493 1.414 1_445 S
C1494 C1495 1.374 . S
C1495 H1475 0.950 . S
C1495 C1491 1.385 1_445 S
C1495 C1494 1.374 . S
C1496 C1493 1.500 . S
C1496 C1497 1.354 1_655 S
C1496 C1498 1.408 1_565 S
C1497 H1476 0.950 . S
C1497 C1496 1.354 1_455 S
C1497 C1513 1.377 1_556 S
C1498 C1496 1.408 1_545 S
C1498 C1499 1.524 . S
C1498 C1512 1.377 1_556 S
C1499 C1498 1.524 . S
C1499 C1500 1.397 . S
C1499 C1504 1.363 1_545 S
C1500 H1477 0.950 . S
C1500 C1499 1.397 . S
C1500 C1501 1.334 . S
C1501 H1478 0.950 . S
C1501 C1500 1.334 . S
C1501 C1502 1.287 . S
C1502 C1501 1.287 . S
C1502 C1503 1.524 . S
C1502 H1521 0.913 . S
C1503 H1479 0.950 1_545 S
C1503 C1502 1.524 . S
C1503 C1504 1.415 1_545 S
C1504 H1480 0.950 . S
C1504 C1499 1.363 1_565 S
C1504 C1503 1.415 1_565 S
C1505 H1481 0.951 . S
C1505 C1506 1.366 . S
C1505 C1507 1.388 . S
C1506 C1505 1.366 . S
C1506 C1510 1.385 1_445 S
C1507 H1482 0.951 . S
C1507 C1505 1.388 . S
C1507 C1508 1.366 . S
C1508 C1507 1.366 . S
C1508 C1509 1.414 1_445 S
C1508 C1511 1.502 . S
C1509 H1483 0.950 . S
C1509 C1508 1.414 1_665 S
C1509 C1510 1.374 . S
C1510 H1484 0.950 . S
C1510 C1506 1.385 1_665 S
C1510 C1509 1.374 . S
C1511 C1508 1.502 . S
C1511 C1512 1.346 1_455 S
C1511 C1513 1.416 1_545 S
C1512 H1485 0.950 . S
C1512 C1498 1.377 1_554 S
C1512 C1511 1.346 1_655 S
C1513 C1497 1.377 1_554 S
C1513 C1511 1.416 1_565 S
C1513 C1514 1.524 . S
C1514 C1513 1.524 . S
C1514 C1515 1.397 . S
C1514 C1519 1.363 1_565 S
C1515 H1486 0.950 . S
C1515 C1514 1.397 . S
C1515 C1516 1.334 . S
C1516 H1487 0.950 . S
C1516 C1515 1.334 . S
C1516 C1517 1.287 . S
C1517 C1516 1.287 . S
C1517 C1518 1.524 . S
C1517 H1520 0.999 . S
C1518 H1488 0.950 1_565 S
C1518 C1517 1.524 . S
C1518 C1519 1.415 1_565 S
C1519 H1489 0.950 . S
C1519 C1514 1.363 1_545 S
C1519 C1518 1.415 1_545 S
H1520 C1517 0.999 . S
H1521 C1502 0.913 . S
H1522 C1540 0.951 . S
H1523 C1542 0.951 . S
H1524 C1544 0.950 . S
H1525 C1545 0.950 . S
H1526 C1547 0.950 . S
H1527 C1550 0.950 . S
H1528 C1551 0.950 . S
H1529 C1553 0.950 . S
H1530 C1554 0.950 . S
H1531 C1555 0.951 . S
H1532 C1557 0.951 . S
H1533 C1559 0.950 . S
H1534 C1560 0.950 . S
H1535 C1562 0.950 . S
H1536 C1565 0.950 . S
H1537 C1566 0.950 . S
H1538 C1568 0.950 . S
H1539 C1569 0.950 . S
C1540 H1522 0.951 . S
C1540 C1541 1.366 . S
C1540 C1542 1.388 . S
C1541 C1540 1.366 . S
C1541 C1545 1.385 . S
C1542 H1523 0.951 . S
C1542 C1540 1.388 . S
C1542 C1543 1.366 . S
C1543 C1542 1.366 . S
C1543 C1544 1.414 . S
C1543 C1546 1.499 . S
C1544 H1524 0.950 . S
C1544 C1543 1.414 . S
C1544 C1545 1.374 . S
C1545 H1525 0.950 . S
C1545 C1541 1.385 . S
C1545 C1544 1.374 . S
C1546 C1543 1.499 . S
C1546 C1547 1.373 . S
C1546 C1548 1.389 . S
C1547 H1526 0.950 . S
C1547 C1546 1.373 . S
C1547 C1563 1.377 . S
C1548 C1546 1.389 . S
C1548 C1549 1.524 . S
C1548 C1562 1.377 . S
C1549 C1548 1.524 . S
C1549 C1550 1.397 . S
C1549 C1554 1.363 . S
C1550 H1527 0.950 . S
C1550 C1549 1.397 . S
C1550 C1551 1.334 . S
C1551 H1528 0.950 . S
C1551 C1550 1.334 . S
C1551 C1552 1.287 . S
C1552 C1551 1.287 . S
C1552 C1553 1.524 . S
C1552 H1571 0.913 . S
C1553 H1529 0.950 . S
C1553 C1552 1.524 . S
C1553 C1554 1.415 . S
C1554 H1530 0.950 . S
C1554 C1549 1.363 . S
C1554 C1553 1.415 . S
C1555 H1531 0.951 . S
C1555 C1556 1.366 . S
C1555 C1557 1.388 . S
C1556 C1555 1.366 . S
C1556 C1560 1.385 . S
C1557 H1532 0.951 . S
C1557 C1555 1.388 . S
C1557 C1558 1.366 . S
C1558 C1557 1.366 . S
C1558 C1559 1.414 . S
C1558 C1561 1.499 . S
C1559 H1533 0.950 . S
C1559 C1558 1.414 . S
C1559 C1560 1.374 . S
C1560 H1534 0.950 . S
C1560 C1556 1.385 . S
C1560 C1559 1.374 . S
C1561 C1558 1.499 . S
C1561 C1562 1.373 . S
C1561 C1563 1.389 . S
C1562 H1535 0.950 . S
C1562 C1548 1.377 . S
C1562 C1561 1.373 . S
C1563 C1547 1.377 . S
C1563 C1561 1.389 . S
C1563 C1564 1.524 . S
C1564 C1563 1.524 . S
C1564 C1565 1.397 . S
C1564 C1569 1.363 . S
C1565 H1536 0.950 . S
C1565 C1564 1.397 . S
C1565 C1566 1.334 . S
C1566 H1537 0.950 . S
C1566 C1565 1.334 . S
C1566 C1567 1.287 . S
C1567 C1566 1.287 . S
C1567 C1568 1.524 . S
C1567 H1570 0.999 . S
C1568 H1538 0.950 . S
C1568 C1567 1.524 . S
C1568 C1569 1.415 . S
C1569 H1539 0.950 . S
C1569 C1564 1.363 . S
C1569 C1568 1.415 . S
H1570 C1567 0.999 . S
H1571 C1552 0.913 . S
H1572 C1590 0.951 . S
H1573 C1592 0.951 . S
H1574 C1594 0.950 . S
H1575 C1595 0.950 . S
H1576 C1597 0.950 1_545 S
H1577 C1600 0.950 . S
H1578 C1601 0.950 . S
H1579 C1603 0.950 . S
H1580 C1604 0.950 . S
H1581 C1605 0.951 . S
H1582 C1607 0.951 . S
H1583 C1609 0.950 . S
H1584 C1610 0.950 . S
H1585 C1612 0.950 . S
H1586 C1615 0.950 . S
H1587 C1616 0.950 . S
H1588 C1618 0.950 . S
H1589 C1619 0.950 . S
C1590 H1572 0.951 . S
C1590 C1591 1.366 . S
C1590 C1592 1.388 . S
C1591 C1590 1.366 . S
C1591 C1595 1.385 1_565 S
C1592 H1573 0.951 . S
C1592 C1590 1.388 . S
C1592 C1593 1.366 . S
C1593 C1592 1.366 . S
C1593 C1594 1.414 1_565 S
C1593 C1596 1.502 . S
C1594 H1574 0.950 . S
C1594 C1593 1.414 1_545 S
C1594 C1595 1.374 . S
C1595 H1575 0.950 . S
C1595 C1591 1.385 1_545 S
C1595 C1594 1.374 . S
C1596 C1593 1.502 . S
C1596 C1597 1.373 . S
C1596 C1598 1.389 . S
C1597 H1576 0.950 1_565 S
C1597 C1596 1.373 . S
C1597 C1613 1.376 1_565 S
C1598 C1596 1.389 . S
C1598 C1599 1.524 1_565 S
C1598 C1612 1.376 1_565 S
C1599 C1598 1.524 1_545 S
C1599 C1600 1.397 . S
C1599 C1604 1.363 1_545 S
C1600 H1577 0.950 . S
C1600 C1599 1.397 . S
C1600 C1601 1.334 . S
C1601 H1578 0.950 . S
C1601 C1600 1.334 . S
C1601 C1602 1.287 . S
C1602 C1601 1.287 . S
C1602 C1603 1.524 1_545 S
C1602 H1621 0.913 . S
C1603 H1579 0.950 . S
C1603 C1602 1.524 1_565 S
C1603 C1604 1.415 . S
C1604 H1580 0.950 . S
C1604 C1599 1.363 1_565 S
C1604 C1603 1.415 . S
C1605 H1581 0.951 . S
C1605 C1606 1.366 . S
C1605 C1607 1.388 . S
C1606 C1605 1.366 . S
C1606 C1610 1.385 1_545 S
C1607 H1582 0.951 . S
C1607 C1605 1.388 . S
C1607 C1608 1.366 . S
C1608 C1607 1.366 . S
C1608 C1609 1.414 1_545 S
C1608 C1611 1.503 . S
C1609 H1583 0.950 . S
C1609 C1608 1.414 1_565 S
C1609 C1610 1.374 . S
C1610 H1584 0.950 . S
C1610 C1606 1.385 1_565 S
C1610 C1609 1.374 . S
C1611 C1608 1.503 . S
C1611 C1612 1.373 . S
C1611 C1613 1.389 . S
C1612 H1585 0.950 . S
C1612 C1598 1.376 1_545 S
C1612 C1611 1.373 . S
C1613 C1597 1.376 1_545 S
C1613 C1611 1.389 . S
C1613 C1614 1.523 1_545 S
C1614 C1613 1.523 1_565 S
C1614 C1615 1.397 . S
C1614 C1619 1.363 1_565 S
C1615 H1586 0.950 . S
C1615 C1614 1.397 . S
C1615 C1616 1.334 . S
C1616 H1587 0.950 . S
C1616 C1615 1.334 . S
C1616 C1617 1.287 . S
C1617 C1616 1.287 . S
C1617 C1618 1.524 1_565 S
C1617 H1620 0.999 . S
C1618 H1588 0.950 . S
C1618 C1617 1.524 1_545 S
C1618 C1619 1.415 . S
C1619 H1589 0.950 . S
C1619 C1614 1.363 1_545 S
C1619 C1618 1.415 . S
H1620 C1617 0.999 . S
H1621 C1602 0.913 . S
H1622 C1640 0.951 . S
H1623 C1642 0.951 . S
H1624 C1644 0.950 . S
H1625 C1645 0.950 . S
H1626 C1647 0.950 . S
H1627 C1650 0.950 . S
H1628 C1651 0.950 . S
H1629 C1653 0.950 . S
H1630 C1654 0.950 . S
H1631 C1655 0.951 . S
H1632 C1657 0.951 . S
H1633 C1659 0.950 . S
H1634 C1660 0.950 . S
H1635 C1662 0.950 . S
H1636 C1665 0.950 . S
H1637 C1666 0.950 . S
H1638 C1668 0.950 . S
H1639 C1669 0.950 . S
C1640 H1622 0.951 . S
C1640 C1641 1.366 . S
C1640 C1642 1.388 . S
C1641 C1640 1.366 . S
C1641 C1645 1.385 . S
C1642 H1623 0.951 . S
C1642 C1640 1.388 . S
C1642 C1643 1.366 . S
C1643 C1642 1.366 . S
C1643 C1644 1.414 . S
C1643 C1646 1.499 . S
C1644 H1624 0.950 . S
C1644 C1643 1.414 . S
C1644 C1645 1.374 . S
C1645 H1625 0.950 . S
C1645 C1641 1.385 . S
C1645 C1644 1.374 . S
C1646 C1643 1.499 . S
C1646 C1647 1.373 . S
C1646 C1648 1.389 . S
C1647 H1626 0.950 . S
C1647 C1646 1.373 . S
C1647 C1663 1.377 . S
C1648 C1646 1.389 . S
C1648 C1649 1.524 . S
C1648 C1662 1.377 . S
C1649 C1648 1.524 . S
C1649 C1650 1.397 . S
C1649 C1654 1.363 . S
C1650 H1627 0.950 . S
C1650 C1649 1.397 . S
C1650 C1651 1.334 . S
C1651 H1628 0.950 . S
C1651 C1650 1.334 . S
C1651 C1652 1.287 . S
C1652 C1651 1.287 . S
C1652 C1653 1.524 . S
C1652 H1671 0.913 . S
C1653 H1629 0.950 . S
C1653 C1652 1.524 . S
C1653 C1654 1.415 . S
C1654 H1630 0.950 . S
C1654 C1649 1.363 . S
C1654 C1653 1.415 . S
C1655 H1631 0.951 . S
C1655 C1656 1.366 . S
C1655 C1657 1.388 . S
C1656 C1655 1.366 . S
C1656 C1660 1.385 . S
C1657 H1632 0.951 . S
C1657 C1655 1.388 . S
C1657 C1658 1.366 . S
C1658 C1657 1.366 . S
C1658 C1659 1.414 . S
C1658 C1661 1.499 . S
C1659 H1633 0.950 . S
C1659 C1658 1.414 . S
C1659 C1660 1.374 . S
C1660 H1634 0.950 . S
C1660 C1656 1.385 . S
C1660 C1659 1.374 . S
C1661 C1658 1.499 . S
C1661 C1662 1.373 . S
C1661 C1663 1.389 . S
C1662 H1635 0.950 . S
C1662 C1648 1.377 . S
C1662 C1661 1.373 . S
C1663 C1647 1.377 . S
C1663 C1661 1.389 . S
C1663 C1664 1.524 . S
C1664 C1663 1.524 . S
C1664 C1665 1.397 . S
C1664 C1669 1.363 . S
C1665 H1636 0.950 . S
C1665 C1664 1.397 . S
C1665 C1666 1.334 . S
C1666 H1637 0.950 . S
C1666 C1665 1.334 . S
C1666 C1667 1.287 . S
C1667 C1666 1.287 . S
C1667 C1668 1.524 . S
C1667 H1670 0.999 . S
C1668 H1638 0.950 . S
C1668 C1667 1.524 . S
C1668 C1669 1.415 . S
C1669 H1639 0.950 . S
C1669 C1664 1.363 . S
C1669 C1668 1.415 . S
H1670 C1667 0.999 . S
H1671 C1652 0.913 . S
H1672 C1690 0.951 . S
H1673 C1692 0.951 . S
H1674 C1694 0.950 . S
H1675 C1695 0.950 . S
H1676 C1697 0.950 . S
H1677 C1700 0.950 . S
H1678 C1701 0.950 . S
H1679 C1703 0.950 . S
H1680 C1704 0.950 . S
H1681 C1705 0.951 . S
H1682 C1707 0.951 . S
H1683 C1709 0.950 . S
H1684 C1710 0.950 . S
H1685 C1712 0.950 . S
H1686 C1715 0.950 . S
H1687 C1716 0.950 . S
H1688 C1718 0.950 . S
H1689 C1719 0.950 . S
C1690 H1672 0.951 . S
C1690 C1691 1.366 . S
C1690 C1692 1.388 . S
C1691 C1690 1.366 . S
C1691 C1695 1.385 . S
C1692 H1673 0.951 . S
C1692 C1690 1.388 . S
C1692 C1693 1.366 . S
C1693 C1692 1.366 . S
C1693 C1694 1.414 . S
C1693 C1696 1.499 . S
C1694 H1674 0.950 . S
C1694 C1693 1.414 . S
C1694 C1695 1.374 . S
C1695 H1675 0.950 . S
C1695 C1691 1.385 . S
C1695 C1694 1.374 . S
C1696 C1693 1.499 . S
C1696 C1697 1.373 . S
C1696 C1698 1.389 . S
C1697 H1676 0.950 . S
C1697 C1696 1.373 . S
C1697 C1713 1.377 . S
C1698 C1696 1.389 . S
C1698 C1699 1.524 . S
C1698 C1712 1.377 . S
C1699 C1698 1.524 . S
C1699 C1700 1.397 . S
C1699 C1704 1.363 . S
C1700 H1677 0.950 . S
C1700 C1699 1.397 . S
C1700 C1701 1.334 . S
C1701 H1678 0.950 . S
C1701 C1700 1.334 . S
C1701 C1702 1.287 . S
C1702 C1701 1.287 . S
C1702 C1703 1.524 . S
C1702 H1721 0.913 . S
C1703 H1679 0.950 . S
C1703 C1702 1.524 . S
C1703 C1704 1.415 . S
C1704 H1680 0.950 . S
C1704 C1699 1.363 . S
C1704 C1703 1.415 . S
C1705 H1681 0.951 . S
C1705 C1706 1.366 . S
C1705 C1707 1.388 . S
C1706 C1705 1.366 . S
C1706 C1710 1.385 . S
C1707 H1682 0.951 . S
C1707 C1705 1.388 . S
C1707 C1708 1.366 . S
C1708 C1707 1.366 . S
C1708 C1709 1.414 . S
C1708 C1711 1.499 . S
C1709 H1683 0.950 . S
C1709 C1708 1.414 . S
C1709 C1710 1.374 . S
C1710 H1684 0.950 . S
C1710 C1706 1.385 . S
C1710 C1709 1.374 . S
C1711 C1708 1.499 . S
C1711 C1712 1.373 . S
C1711 C1713 1.389 . S
C1712 H1685 0.950 . S
C1712 C1698 1.377 . S
C1712 C1711 1.373 . S
C1713 C1697 1.377 . S
C1713 C1711 1.389 . S
C1713 C1714 1.524 . S
C1714 C1713 1.524 . S
C1714 C1715 1.397 . S
C1714 C1719 1.363 . S
C1715 H1686 0.950 . S
C1715 C1714 1.397 . S
C1715 C1716 1.334 . S
C1716 H1687 0.950 . S
C1716 C1715 1.334 . S
C1716 C1717 1.287 . S
C1717 C1716 1.287 . S
C1717 C1718 1.524 . S
C1717 H1720 0.999 . S
C1718 H1688 0.950 . S
C1718 C1717 1.524 . S
C1718 C1719 1.415 . S
C1719 H1689 0.950 . S
C1719 C1714 1.363 . S
C1719 C1718 1.415 . S
H1720 C1717 0.999 . S
H1721 C1702 0.913 . S
H1722 C1740 0.951 . S
H1723 C1742 0.951 . S
H1724 C1744 0.950 . S
H1725 C1745 0.950 . S
H1726 C1747 0.950 . S
H1727 C1750 0.950 . S
H1728 C1751 0.950 . S
H1729 C1753 0.950 . S
H1730 C1754 0.950 . S
H1731 C1755 0.951 . S
H1732 C1757 0.951 . S
H1733 C1759 0.950 . S
H1734 C1760 0.950 . S
H1735 C1762 0.950 . S
H1736 C1765 0.950 . S
H1737 C1766 0.950 . S
H1738 C1768 0.950 . S
H1739 C1769 0.950 . S
C1740 H1722 0.951 . S
C1740 C1741 1.366 . S
C1740 C1742 1.388 . S
C1741 C1740 1.366 . S
C1741 C1745 1.385 . S
C1742 H1723 0.951 . S
C1742 C1740 1.388 . S
C1742 C1743 1.366 . S
C1743 C1742 1.366 . S
C1743 C1744 1.414 . S
C1743 C1746 1.499 . S
C1744 H1724 0.950 . S
C1744 C1743 1.414 . S
C1744 C1745 1.374 . S
C1745 H1725 0.950 . S
C1745 C1741 1.385 . S
C1745 C1744 1.374 . S
C1746 C1743 1.499 . S
C1746 C1747 1.373 . S
C1746 C1748 1.389 . S
C1747 H1726 0.950 . S
C1747 C1746 1.373 . S
C1747 C1763 1.377 . S
C1748 C1746 1.389 . S
C1748 C1749 1.524 . S
C1748 C1762 1.377 . S
C1749 C1748 1.524 . S
C1749 C1750 1.397 . S
C1749 C1754 1.363 . S
C1750 H1727 0.950 . S
C1750 C1749 1.397 . S
C1750 C1751 1.334 . S
C1751 H1728 0.950 . S
C1751 C1750 1.334 . S
C1751 C1752 1.287 . S
C1752 C1751 1.287 . S
C1752 C1753 1.524 . S
C1752 H1771 0.913 . S
C1753 H1729 0.950 . S
C1753 C1752 1.524 . S
C1753 C1754 1.415 . S
C1754 H1730 0.950 . S
C1754 C1749 1.363 . S
C1754 C1753 1.415 . S
C1755 H1731 0.951 . S
C1755 C1756 1.366 . S
C1755 C1757 1.388 . S
C1756 C1755 1.366 . S
C1756 C1760 1.385 . S
C1757 H1732 0.951 . S
C1757 C1755 1.388 . S
C1757 C1758 1.366 . S
C1758 C1757 1.366 . S
C1758 C1759 1.414 . S
C1758 C1761 1.499 . S
C1759 H1733 0.950 . S
C1759 C1758 1.414 . S
C1759 C1760 1.374 . S
C1760 H1734 0.950 . S
C1760 C1756 1.385 . S
C1760 C1759 1.374 . S
C1761 C1758 1.499 . S
C1761 C1762 1.373 . S
C1761 C1763 1.389 . S
C1762 H1735 0.950 . S
C1762 C1748 1.377 . S
C1762 C1761 1.373 . S
C1763 C1747 1.377 . S
C1763 C1761 1.389 . S
C1763 C1764 1.524 . S
C1764 C1763 1.524 . S
C1764 C1765 1.397 . S
C1764 C1769 1.363 . S
C1765 H1736 0.950 . S
C1765 C1764 1.397 . S
C1765 C1766 1.334 . S
C1766 H1737 0.950 . S
C1766 C1765 1.334 . S
C1766 C1767 1.287 . S
C1767 C1766 1.287 . S
C1767 C1768 1.524 . S
C1767 H1770 0.999 . S
C1768 H1738 0.950 . S
C1768 C1767 1.524 . S
C1768 C1769 1.415 . S
C1769 H1739 0.950 . S
C1769 C1764 1.363 . S
C1769 C1768 1.415 . S
H1770 C1767 0.999 . S
H1771 C1752 0.913 . S
H1772 C1790 0.951 . S
H1773 C1792 0.951 . S
H1774 C1794 0.950 . S
H1775 C1795 0.950 . S
H1776 C1797 0.950 . S
H1777 C1800 0.950 . S
H1778 C1801 0.950 . S
H1779 C1803 0.950 . S
H1780 C1804 0.950 . S
H1781 C1805 0.951 . S
H1782 C1807 0.951 . S
H1783 C1809 0.950 . S
H1784 C1810 0.950 . S
H1785 C1812 0.950 . S
H1786 C1815 0.950 . S
H1787 C1816 0.950 . S
H1788 C1818 0.950 . S
H1789 C1819 0.950 . S
C1790 H1772 0.951 . S
C1790 C1791 1.366 . S
C1790 C1792 1.388 . S
C1791 C1790 1.366 . S
C1791 C1795 1.385 . S
C1792 H1773 0.951 . S
C1792 C1790 1.388 . S
C1792 C1793 1.366 . S
C1793 C1792 1.366 . S
C1793 C1794 1.414 . S
C1793 C1796 1.499 . S
C1794 H1774 0.950 . S
C1794 C1793 1.414 . S
C1794 C1795 1.374 . S
C1795 H1775 0.950 . S
C1795 C1791 1.385 . S
C1795 C1794 1.374 . S
C1796 C1793 1.499 . S
C1796 C1797 1.373 . S
C1796 C1798 1.389 . S
C1797 H1776 0.950 . S
C1797 C1796 1.373 . S
C1797 C1813 1.377 . S
C1798 C1796 1.389 . S
C1798 C1799 1.524 . S
C1798 C1812 1.377 . S
C1799 C1798 1.524 . S
C1799 C1800 1.397 . S
C1799 C1804 1.363 . S
C1800 H1777 0.950 . S
C1800 C1799 1.397 . S
C1800 C1801 1.334 . S
C1801 H1778 0.950 . S
C1801 C1800 1.334 . S
C1801 C1802 1.287 . S
C1802 C1801 1.287 . S
C1802 C1803 1.524 . S
C1802 H1821 0.913 . S
C1803 H1779 0.950 . S
C1803 C1802 1.524 . S
C1803 C1804 1.415 . S
C1804 H1780 0.950 . S
C1804 C1799 1.363 . S
C1804 C1803 1.415 . S
C1805 H1781 0.951 . S
C1805 C1806 1.366 . S
C1805 C1807 1.388 . S
C1806 C1805 1.366 . S
C1806 C1810 1.385 . S
C1807 H1782 0.951 . S
C1807 C1805 1.388 . S
C1807 C1808 1.366 . S
C1808 C1807 1.366 . S
C1808 C1809 1.414 . S
C1808 C1811 1.499 . S
C1809 H1783 0.950 . S
C1809 C1808 1.414 . S
C1809 C1810 1.374 . S
C1810 H1784 0.950 . S
C1810 C1806 1.385 . S
C1810 C1809 1.374 . S
C1811 C1808 1.499 . S
C1811 C1812 1.373 . S
C1811 C1813 1.389 . S
C1812 H1785 0.950 . S
C1812 C1798 1.377 . S
C1812 C1811 1.373 . S
C1813 C1797 1.377 . S
C1813 C1811 1.389 . S
C1813 C1814 1.524 . S
C1814 C1813 1.524 . S
C1814 C1815 1.397 . S
C1814 C1819 1.363 . S
C1815 H1786 0.950 . S
C1815 C1814 1.397 . S
C1815 C1816 1.334 . S
C1816 H1787 0.950 . S
C1816 C1815 1.334 . S
C1816 C1817 1.287 . S
C1817 C1816 1.287 . S
C1817 C1818 1.524 . S
C1817 H1820 0.999 . S
C1818 H1788 0.950 . S
C1818 C1817 1.524 . S
C1818 C1819 1.415 . S
C1819 H1789 0.950 . S
C1819 C1814 1.363 . S
C1819 C1818 1.415 . S
H1820 C1817 0.999 . S
H1821 C1802 0.913 . S
H1822 C1840 0.951 . S
H1823 C1842 0.951 . S
H1824 C1844 0.950 . S
H1825 C1845 0.950 . S
H1826 C1847 0.950 . S
H1827 C1850 0.950 . S
H1828 C1851 0.950 . S
H1829 C1853 0.950 . S
H1830 C1854 0.952 1_554 S
H1831 C1855 0.951 . S
H1832 C1857 0.951 . S
H1833 C1859 0.950 . S
H1834 C1860 0.950 . S
H1835 C1862 0.950 . S
H1836 C1865 0.950 . S
H1837 C1866 0.950 . S
H1838 C1868 0.950 . S
H1839 C1869 0.952 1_556 S
C1840 H1822 0.951 . S
C1840 C1841 1.366 1_655 S
C1840 C1842 1.388 . S
C1841 C1840 1.366 1_455 S
C1841 C1845 1.385 . S
C1842 H1823 0.951 . S
C1842 C1840 1.388 . S
C1842 C1843 1.366 1_655 S
C1843 C1842 1.366 1_455 S
C1843 C1844 1.414 . S
C1843 C1846 1.499 . S
C1844 H1824 0.950 . S
C1844 C1843 1.414 . S
C1844 C1845 1.374 . S
C1845 H1825 0.950 . S
C1845 C1841 1.385 . S
C1845 C1844 1.374 . S
C1846 C1843 1.499 . S
C1846 C1847 1.373 1_455 S
C1846 C1848 1.389 . S
C1847 H1826 0.950 . S
C1847 C1846 1.373 1_655 S
C1847 C1863 1.377 1_556 S
C1848 C1846 1.389 . S
C1848 C1849 1.524 . S
C1848 C1862 1.377 1_556 S
C1849 C1848 1.524 . S
C1849 C1850 1.397 . S
C1849 C1854 1.363 . S
C1850 H1827 0.950 . S
C1850 C1849 1.397 . S
C1850 C1851 1.334 . S
C1851 H1828 0.950 . S
C1851 C1850 1.334 . S
C1851 C1852 1.287 . S
C1852 C1851 1.287 . S
C1852 C1853 1.524 . S
C1852 H1871 0.913 . S
C1853 H1829 0.950 . S
C1853 C1852 1.524 . S
C1853 C1854 1.415 . S
C1854 H1830 0.952 1_556 S
C1854 C1849 1.363 . S
C1854 C1853 1.415 . S
C1855 H1831 0.951 . S
C1855 C1856 1.366 1_455 S
C1855 C1857 1.388 . S
C1856 C1855 1.366 1_655 S
C1856 C1860 1.385 . S
C1857 H1832 0.951 . S
C1857 C1855 1.388 . S
C1857 C1858 1.366 1_455 S
C1858 C1857 1.366 1_655 S
C1858 C1859 1.414 . S
C1858 C1861 1.499 . S
C1859 H1833 0.950 . S
C1859 C1858 1.414 . S
C1859 C1860 1.374 . S
C1860 H1834 0.950 . S
C1860 C1856 1.385 . S
C1860 C1859 1.374 . S
C1861 C1858 1.499 . S
C1861 C1862 1.373 1_655 S
C1861 C1863 1.389 . S
C1862 H1835 0.950 . S
C1862 C1848 1.377 1_554 S
C1862 C1861 1.373 1_455 S
C1863 C1847 1.377 1_554 S
C1863 C1861 1.389 . S
C1863 C1864 1.524 . S
C1864 C1863 1.524 . S
C1864 C1865 1.397 . S
C1864 C1869 1.363 . S
C1865 H1836 0.950 . S
C1865 C1864 1.397 . S
C1865 C1866 1.334 . S
C1866 H1837 0.950 . S
C1866 C1865 1.334 . S
C1866 C1867 1.287 . S
C1867 C1866 1.287 . S
C1867 C1868 1.524 . S
C1867 H1870 0.999 . S
C1868 H1838 0.950 . S
C1868 C1867 1.524 . S
C1868 C1869 1.415 . S
C1869 H1839 0.952 1_554 S
C1869 C1864 1.363 . S
C1869 C1868 1.415 . S
H1870 C1867 0.999 . S
H1871 C1852 0.913 . S
C691 C56 1.498 . S
C706 C308 1.491 . S
C741 C63 1.490 . S
C756 C140 1.498 . S
C791 C147 1.494 . S
C806 C224 1.507 . S
C841 C231 1.493 . S
C856 C315 1.489 . S
C891 C67 1.498 . S
C906 C487 1.504 . S
C941 C74 1.489 . S
C956 C403 1.496 . S
C991 C410 1.494 . S
C1006 C235 1.499 . S
C1041 C494 1.493 . S
C1056 C242 1.498 . S
C1091 C560 1.498 . S
C1106 C476 1.499 . S
C1141 C392 1.497 . S
C1156 C567 1.487 . S
C1191 C644 1.503 . S
C1206 C399 1.497 . S
C1241 C483 1.494 . S
C1256 C651 1.497 . S
C1291 C319 1.497 . S
C1306 C571 1.497 . S
C1341 C578 1.489 . S
C1356 C151 1.498 . S
C1391 C158 1.494 . S
C1406 C655 1.499 . S
C1441 C326 1.494 . S
C1456 C662 1.491 . S
C1491 C58 1.466 . S
C1506 C69 1.469 . S
C1541 C153 1.456 . S
C1556 C142 1.456 . S
C1591 C237 1.461 . S
C1606 C226 1.461 . S
C1641 C310 1.456 . S
C1656 C321 1.456 . S
C1691 C405 1.456 . S
C1706 C394 1.456 . S
C1741 C478 1.457 . S
C1756 C489 1.457 . S
C1791 C573 1.458 . S
C1806 C562 1.458 . S
C1841 C646 1.462 . S
C1856 C657 1.462 . S
