# Generated by pormake.
# Topology mdf, (4)-cn, num edge types: 1
# Building blocks:
#     Node 0, Type 0, BuildingBlock: CEKHIL_clean_sbu_0, # of connection points: 4
#     Node 1, Type 0, BuildingBlock: CEKHIL_clean_sbu_0, # of connection points: 4
#     Node 2, Type 0, BuildingBlock: CEKHIL_clean_sbu_0, # of connection points: 4
#     Node 3, Type 0, BuildingBlock: CEKHIL_clean_sbu_0, # of connection points: 4
#     Node 4, Type 0, BuildingBlock: CEKHIL_clean_sbu_0, # of connection points: 4
#     Node 5, Type 0, BuildingBlock: CEKHIL_clean_sbu_0, # of connection points: 4
#     Node 6, Type 0, BuildingBlock: CEKHIL_clean_sbu_0, # of connection points: 4
#     Node 7, Type 0, BuildingBlock: CEKHIL_clean_sbu_0, # of connection points: 4
#     Edge 8, Type (0, 0), BuildingBlock: TEMPAE_clean_linker_10, # of connection points: 2
#     Edge 9, Type (0, 0), BuildingBlock: TEMPAE_clean_linker_10, # of connection points: 2
#     Edge 10, Type (0, 0), BuildingBlock: TEMPAE_clean_linker_10, # of connection points: 2
#     Edge 11, Type (0, 0), BuildingBlock: TEMPAE_clean_linker_10, # of connection points: 2
#     Edge 12, Type (0, 0), BuildingBlock: TEMPAE_clean_linker_10, # of connection points: 2
#     Edge 13, Type (0, 0), BuildingBlock: TEMPAE_clean_linker_10, # of connection points: 2
#     Edge 14, Type (0, 0), BuildingBlock: TEMPAE_clean_linker_10, # of connection points: 2
#     Edge 15, Type (0, 0), BuildingBlock: TEMPAE_clean_linker_10, # of connection points: 2
#     Edge 16, Type (0, 0), BuildingBlock: TEMPAE_clean_linker_10, # of connection points: 2
#     Edge 17, Type (0, 0), BuildingBlock: TEMPAE_clean_linker_10, # of connection points: 2
#     Edge 18, Type (0, 0), BuildingBlock: TEMPAE_clean_linker_10, # of connection points: 2
#     Edge 19, Type (0, 0), BuildingBlock: TEMPAE_clean_linker_10, # of connection points: 2
#     Edge 20, Type (0, 0), BuildingBlock: TEMPAE_clean_linker_10, # of connection points: 2
#     Edge 21, Type (0, 0), BuildingBlock: TEMPAE_clean_linker_10, # of connection points: 2
#     Edge 22, Type (0, 0), BuildingBlock: TEMPAE_clean_linker_10, # of connection points: 2
#     Edge 23, Type (0, 0), BuildingBlock: TEMPAE_clean_linker_10, # of connection points: 2
# Relax obj value: 0.019
# Max RMSD: 0.044
# Mean RMSD: 0.044
data_MOF--net-mdf--node1-CEKHIL_clean_sbu_0--edge1-TEMPAE_clean_linker_10
_symmetry_space_group_name_H-M    P1
_symmetry_Int_Tables_number       1
_symmetry_cell_setting            triclinic
loop_
_symmetry_equiv_pos_as_xyz
'x, y, z'
_cell_length_a     38.324495
_cell_length_b     38.355482
_cell_length_c     11.477666
_cell_angle_alpha  90.136535
_cell_angle_beta   90.014512
_cell_angle_gamma 91.455071
loop_
_atom_site_label
_atom_site_type_symbol
_atom_site_fract_x
_atom_site_fract_y
_atom_site_fract_z
_atom_type_partial_charge
Co0 Co 0.25656 0.53576 0.35811 0.0
O1 O 0.22109 0.5705 0.35501 0.0
O2 O 0.2371 0.54225 0.51306 0.0
C3 C 0.29535 0.56642 0.25029 0.0
O4 O 0.29369 0.49936 0.39443 0.0
Co5 Co 0.28141 0.50103 0.12764 0.0
O6 O 0.3208 0.48635 0.22628 0.0
C7 C 0.21345 0.48012 0.23008 0.0
C8 C 0.21754 0.56569 0.46613 0.0
C9 C 0.31865 0.48508 0.33698 0.0
O10 O 0.22042 0.49823 0.32216 0.0
O11 O 0.23328 0.47971 0.14033 0.0
O12 O 0.2927 0.57271 0.36123 0.0
O13 O 0.27291 0.5443 0.20767 0.0
Co14 Co 0.4705 0.75134 0.6019 0.0
O15 O 0.43414 0.78526 0.60455 0.0
O16 O 0.46537 0.77235 0.44893 0.0
C17 C 0.44006 0.71018 0.70036 0.0
O18 O 0.50882 0.71629 0.56529 0.0
Co19 Co 0.50323 0.72475 0.83401 0.0
O20 O 0.52583 0.69042 0.73176 0.0
C21 C 0.52395 0.79403 0.74161 0.0
C22 C 0.44038 0.7902 0.49478 0.0
C23 C 0.52646 0.69345 0.62136 0.0
O24 O 0.50646 0.78822 0.64741 0.0
O25 O 0.52379 0.77319 0.82857 0.0
O26 O 0.43494 0.71395 0.58919 0.0
O27 O 0.46078 0.73283 0.7488 0.0
Co28 Co 0.2507 0.9696 0.87516 0.0
O29 O 0.28547 0.93445 0.88774 0.0
O30 O 0.26545 0.96447 0.03679 0.0
C31 C 0.21513 0.93776 0.75795 0.0
O32 O 0.21341 0.00686 0.89509 0.0
Co33 Co 0.23294 1.00131 0.63315 0.0
O34 O 0.1947 0.02382 0.71835 0.0
C35 C 0.297 0.02453 0.75698 0.0
C36 C 0.28597 0.94035 0.99888 0.0
C37 C 0.19302 0.02456 0.8292 0.0
O38 O 0.28828 0.00647 0.84733 0.0
O39 O 0.2797 0.02405 0.66158 0.0
O40 O 0.21371 0.93347 0.87019 0.0
O41 O 0.23911 0.95904 0.72074 0.0
Co42 Co 0.03973 0.75263 0.09759 0.0
O43 O 0.07618 0.71978 0.07463 0.0
O44 O 0.04138 0.73802 0.93481 0.0
C45 C 0.07249 0.78959 0.20603 0.0
O46 O 1.00053 0.78803 0.08975 0.0
Co47 Co 0.01306 0.76797 0.34774 0.0
O48 O 0.99151 0.80857 0.27092 0.0
C49 C 0.99402 0.70163 0.23266 0.0
C50 C 0.06745 0.71893 0.96572 0.0
C51 C 0.9867 0.80984 0.16104 0.0
O52 O 0.00542 0.7136 0.13483 0.0
O53 O 0.99781 0.71773 0.3298 0.0
O54 O 0.07406 0.79128 0.09305 0.0
O55 O 0.05351 0.76455 0.24852 0.0
Co56 Co 0.75291 0.03435 0.90356 0.0
O57 O 0.71632 0.06777 0.9152 0.0
O58 O 0.73573 0.03656 0.0627 0.0
C59 C 0.78932 0.06899 0.80116 0.0
O60 O 0.79095 0.99803 0.92462 0.0
Co61 Co 0.77743 0.00685 0.66297 0.0
O62 O 0.81797 0.99027 0.75275 0.0
C63 C 0.71027 0.98158 0.76325 0.0
C64 C 0.7147 0.06015 0.02494 0.0
C65 C 0.81596 0.98578 0.8625 0.0
O66 O 0.71727 0.99707 0.86047 0.0
O67 O 0.7297 0.98435 0.67276 0.0
O68 O 0.78846 0.07161 0.91393 0.0
O69 O 0.76699 0.04765 0.75401 0.0
Co70 Co 0.96826 0.25152 0.14863 0.0
O71 O 0.93261 0.28601 0.14524 0.0
O72 O 0.96161 0.26842 0.99039 0.0
C73 C 0.93796 0.21394 0.26266 0.0
O74 O 0.00564 0.21495 0.11925 0.0
Co75 Co 1.00244 0.2314 0.38496 0.0
O76 O 0.02606 0.19562 0.29129 0.0
C77 C 0.02261 0.29772 0.27086 0.0
C78 C 0.93759 0.28808 0.03385 0.0
C79 C 0.02493 0.19474 0.18039 0.0
O80 O 0.00505 0.289 0.17913 0.0
O81 O 0.02232 0.27971 0.36461 0.0
O82 O 0.93246 0.2142 0.15086 0.0
O83 O 0.95933 0.23764 0.30154 0.0
Co84 Co 0.75692 0.46808 0.39037 0.0
O85 O 0.78865 0.43083 0.41576 0.0
O86 O 0.76879 0.46494 0.55527 0.0
C87 C 0.72096 0.43706 0.2726 0.0
O88 O 0.72209 0.50789 0.39479 0.0
Co89 Co 0.74747 0.49661 0.13909 0.0
O90 O 0.70835 0.52211 0.21036 0.0
C91 C 0.81171 0.51312 0.26918 0.0
C92 C 0.78793 0.43877 0.52534 0.0
C93 C 0.70396 0.52498 0.32014 0.0
O94 O 0.79724 0.50189 0.3635 0.0
O95 O 0.79774 0.50972 0.16838 0.0
O96 O 0.71759 0.43455 0.38502 0.0
O97 O 0.7472 0.45567 0.23655 0.0
Co98 Co 0.53789 0.25321 0.63302 0.0
O99 O 0.57099 0.21644 0.62057 0.0
O100 O 0.53981 0.23603 0.47342 0.0
C101 C 0.57309 0.28924 0.73607 0.0
O102 O 0.50177 0.29154 0.61346 0.0
Co103 Co 0.511 0.27703 0.87481 0.0
O104 O 0.49379 0.31761 0.78696 0.0
C105 C 0.48528 0.21031 0.77283 0.0
C106 C 0.56321 0.2147 0.51089 0.0
C107 C 0.48933 0.31615 0.67703 0.0
O108 O 0.50043 0.21774 0.67551 0.0
O109 O 0.48846 0.22933 0.86427 0.0
O110 O 0.57534 0.2886 0.62317 0.0
O111 O 0.55169 0.26692 0.78272 0.0
C112 C 0.38608 0.67663 0.75216 0.0
C113 C 0.42164 0.68363 0.77042 0.0
C114 C 0.36688 0.65583 0.83088 0.0
C115 C 0.38413 0.64084 0.92711 0.0
C116 C 0.42053 0.64619 0.94147 0.0
C117 C 0.43875 0.66816 0.86405 0.0
C118 C 0.32792 0.65141 0.81447 0.0
C119 C 0.44004 0.62953 0.0403 0.0
C120 C 0.33015 0.61941 0.1956 0.0
C121 C 0.32101 0.58441 0.17517 0.0
C122 C 0.35094 0.63813 0.11561 0.0
C123 C 0.36376 0.62091 0.01556 0.0
C124 C 0.35607 0.58502 0.99815 0.0
C125 C 0.33415 0.56735 0.07715 0.0
C126 C 0.35791 0.67662 0.13558 0.0
C127 C 0.37041 0.56547 0.89505 0.0
H128 H 0.37291 0.68905 0.6803 0.0
H129 H 0.46636 0.67357 0.87749 0.0
H130 H 0.32038 0.62334 0.80995 0.0
H131 H 0.3142 0.66262 0.89048 0.0
H132 H 0.31863 0.66437 0.73414 0.0
H133 H 0.46877 0.63316 0.0314 0.0
H134 H 0.43196 0.64111 0.12439 0.0
H135 H 0.43361 0.60118 0.0442 0.0
H136 H 0.31962 0.63259 0.27101 0.0
H137 H 0.32717 0.54017 0.06185 0.0
H138 H 0.34719 0.6917 0.06194 0.0
H139 H 0.38641 0.6823 0.13863 0.0
H140 H 0.34608 0.68601 0.21787 0.0
H141 H 0.35875 0.57528 0.81338 0.0
H142 H 0.36483 0.53696 0.9007 0.0
H143 H 0.39907 0.56995 0.88878 0.0
C144 C 0.43341 0.83728 0.34589 0.0
C145 C 0.41847 0.8136 0.42525 0.0
C146 C 0.41241 0.86007 0.28205 0.0
C147 C 0.37556 0.85798 0.29419 0.0
C148 C 0.36046 0.83369 0.3735 0.0
C149 C 0.38215 0.81236 0.43979 0.0
C150 C 0.42965 0.88636 0.20158 0.0
C151 C 0.32134 0.82946 0.38586 0.0
C152 C 0.31767 0.93136 0.18866 0.0
C153 C 0.30854 0.9197 0.07659 0.0
C154 C 0.33997 0.91192 0.25994 0.0
C155 C 0.35267 0.87965 0.21923 0.0
C156 C 0.34297 0.86758 0.10686 0.0
C157 C 0.32145 0.88789 0.03669 0.0
C158 C 0.35022 0.92605 0.37823 0.0
C159 C 0.35496 0.83292 0.06101 0.0
H160 H 0.46153 0.83849 0.33568 0.0
H161 H 0.37061 0.79387 0.50082 0.0
H162 H 0.42258 0.88026 0.10996 0.0
H163 H 0.42017 0.91286 0.22096 0.0
H164 H 0.45855 0.88673 0.20945 0.0
H165 H 0.31375 0.80937 0.45133 0.0
H166 H 0.30987 0.85457 0.4118 0.0
H167 H 0.30967 0.82189 0.30069 0.0
H168 H 0.30792 0.95597 0.21979 0.0
H169 H 0.3143 0.87852 0.95054 0.0
H170 H 0.37909 0.92798 0.38533 0.0
H171 H 0.34084 0.90796 0.44733 0.0
H172 H 0.33939 0.95218 0.39513 0.0
H173 H 0.38385 0.83299 0.05576 0.0
H174 H 0.34419 0.82676 0.97326 0.0
H175 H 0.34686 0.81173 0.12168 0.0
C176 C 0.11174 0.79855 0.37432 0.0
C177 C 0.0928 0.81292 0.28283 0.0
C178 C 0.13114 0.8199 0.45068 0.0
C179 C 0.13027 0.85657 0.43783 0.0
C180 C 0.11047 0.87124 0.3467 0.0
C181 C 0.09245 0.84908 0.26837 0.0
C182 C 0.15297 0.80317 0.54379 0.0
C183 C 0.108 0.91023 0.33298 0.0
C184 C 0.15863 0.90762 0.70695 0.0
C185 C 0.19256 0.91819 0.67601 0.0
C186 C 0.13737 0.88878 0.62802 0.0
C187 C 0.15104 0.87931 0.51796 0.0
C188 C 0.18542 0.8899 0.48691 0.0
C189 C 0.20553 0.90977 0.56566 0.0
C190 C 0.10045 0.8788 0.66259 0.0
C191 C 0.20143 0.87925 0.37229 0.0
H192 H 0.11192 0.77044 0.38459 0.0
H193 H 0.07728 0.85996 0.19811 0.0
H194 H 0.18065 0.81201 0.53497 0.0
H195 H 0.14403 0.81131 0.63135 0.0
H196 H 0.15169 0.77422 0.5391 0.0
H197 H 0.08989 0.91739 0.26182 0.0
H198 H 0.09885 0.92199 0.4156 0.0
H199 H 0.13415 0.92189 0.314 0.0
H200 H 0.14859 0.91447 0.79208 0.0
H201 H 0.23195 0.91778 0.54226 0.0
H202 H 0.09775 0.85007 0.67128 0.0
H203 H 0.08195 0.88683 0.59388 0.0
H204 H 0.0928 0.89092 0.74649 0.0
H205 H 0.20178 0.85038 0.36624 0.0
H206 H 0.22856 0.88969 0.3617 0.0
H207 H 0.18548 0.88858 0.29862 0.0
C208 C 0.12388 0.69661 0.89509 0.0
C209 C 0.08756 0.69782 0.88267 0.0
C210 C 0.14391 0.67526 0.82329 0.0
C211 C 0.12709 0.65345 0.73964 0.0
C212 C 0.09029 0.65455 0.72662 0.0
C213 C 0.07097 0.67725 0.7971 0.0
C214 C 0.18312 0.67601 0.83735 0.0
C215 C 0.07126 0.63107 0.64068 0.0
C216 C 0.18296 0.61951 0.49185 0.0
C217 C 0.19325 0.58713 0.53502 0.0
C218 C 0.16109 0.64111 0.55665 0.0
C219 C 0.14831 0.62969 0.6662 0.0
C220 C 0.15778 0.59653 0.70874 0.0
C221 C 0.18055 0.57586 0.64341 0.0
C222 C 0.15266 0.67668 0.50958 0.0
C223 C 0.14413 0.58304 0.82392 0.0
H224 H 0.13672 0.71267 0.96102 0.0
H225 H 0.04283 0.67789 0.78853 0.0
H226 H 0.19194 0.65013 0.86643 0.0
H227 H 0.19587 0.68163 0.7524 0.0
H228 H 0.19227 0.69593 0.90162 0.0
H229 H 0.04262 0.6349 0.6415 0.0
H230 H 0.08114 0.63596 0.55126 0.0
H231 H 0.0763 0.60339 0.6614 0.0
H232 H 0.19286 0.6285 0.40841 0.0
H233 H 0.18821 0.55076 0.67675 0.0
H234 H 0.16293 0.69719 0.56974 0.0
H235 H 0.124 0.67964 0.5043 0.0
H236 H 0.16401 0.68136 0.42178 0.0
H237 H 0.15477 0.59945 0.89595 0.0
H238 H 0.15137 0.55559 0.83983 0.0
H239 H 0.11528 0.58469 0.82679 0.0
C240 C 0.79948 0.11533 0.65641 0.0
C241 C 0.81313 0.0899 0.72905 0.0
C242 C 0.82122 0.13447 0.58084 0.0
C243 C 0.85719 0.12699 0.57566 0.0
C244 C 0.87095 0.10081 0.64812 0.0
C245 C 0.84868 0.08278 0.72557 0.0
C246 C 0.80572 0.16276 0.50709 0.0
C247 C 0.90896 0.09155 0.6425 0.0
C248 C 0.90285 0.15941 0.30189 0.0
C249 C 0.91932 0.19005 0.34271 0.0
C250 C 0.88373 0.13765 0.37812 0.0
C251 C 0.88038 0.14745 0.49665 0.0
C252 C 0.8974 0.17816 0.5383 0.0
C253 C 0.91704 0.19885 0.46102 0.0
C254 C 0.86657 0.10461 0.33149 0.0
C255 C 0.89368 0.18997 0.66331 0.0
H256 H 0.77176 0.12034 0.65935 0.0
H257 H 0.85877 0.06248 0.78092 0.0
H258 H 0.8196 0.18801 0.52398 0.0
H259 H 0.80905 0.15659 0.41338 0.0
H260 H 0.77746 0.16597 0.52459 0.0
H261 H 0.91516 0.06958 0.70132 0.0
H262 H 0.91596 0.08426 0.552 0.0
H263 H 0.92561 0.11449 0.66686 0.0
H264 H 0.90485 0.15251 0.21053 0.0
H265 H 0.92963 0.22267 0.49267 0.0
H266 H 0.83778 0.10689 0.33394 0.0
H267 H 0.87329 0.08211 0.38701 0.0
H268 H 0.8745 0.09903 0.24037 0.0
H269 H 0.86588 0.19516 0.68208 0.0
H270 H 0.90945 0.21401 0.68245 0.0
H271 H 0.90182 0.16913 0.72358 0.0
C272 C 0.92784 0.32384 0.85379 0.0
C273 C 0.91598 0.31123 0.96157 0.0
C274 C 0.90738 0.34636 0.78698 0.0
C275 C 0.87384 0.35561 0.82732 0.0
C276 C 0.86168 0.34261 0.93568 0.0
C277 C 0.88307 0.32105 0.00206 0.0
C278 C 0.92164 0.36024 0.67312 0.0
C279 C 0.82569 0.35076 0.98026 0.0
C280 C 0.82775 0.4339 0.69805 0.0
C281 C 0.80775 0.41797 0.60974 0.0
C282 C 0.84973 0.41403 0.76901 0.0
C283 C 0.8507 0.37732 0.75359 0.0
C284 C 0.82936 0.36113 0.66734 0.0
C285 C 0.80872 0.38172 0.59519 0.0
C286 C 0.87271 0.43241 0.85791 0.0
C287 C 0.82844 0.32204 0.65071 0.0
H288 H 0.95334 0.31655 0.82257 0.0
H289 H 0.87363 0.31118 0.085 0.0
H290 H 0.90545 0.35013 0.59976 0.0
H291 H 0.92036 0.38911 0.67167 0.0
H292 H 0.94909 0.35273 0.65816 0.0
H293 H 0.82013 0.33861 0.06626 0.0
H294 H 0.82285 0.37936 0.98854 0.0
H295 H 0.80566 0.34124 0.9171 0.0
H296 H 0.82732 0.46199 0.70824 0.0
H297 H 0.79312 0.36939 0.52704 0.0
H298 H 0.90052 0.42729 0.8389 0.0
H299 H 0.86708 0.42209 0.94627 0.0
H300 H 0.86909 0.46106 0.8587 0.0
H301 H 0.85445 0.31319 0.62265 0.0
H302 H 0.80885 0.31339 0.58465 0.0
H303 H 0.8222 0.30889 0.73446 0.0
C304 C 0.7111 0.40809 0.08182 0.0
C305 C 0.69792 0.41824 0.19022 0.0
C306 C 0.6905 0.38839 0.00391 0.0
C307 C 0.65554 0.37971 0.03385 0.0
C308 C 0.64169 0.39109 0.14152 0.0
C309 C 0.66333 0.40975 0.21962 0.0
C310 C 0.70662 0.37571 0.89187 0.0
C311 C 0.60422 0.38314 0.17477 0.0
C312 C 0.59618 0.34849 0.78772 0.0
C313 C 0.59468 0.3126 0.80865 0.0
C314 C 0.61529 0.37094 0.86218 0.0
C315 C 0.63429 0.35672 0.956 0.0
C316 C 0.63342 0.32026 0.97505 0.0
C317 C 0.61292 0.29871 0.90249 0.0
C318 C 0.61466 0.40979 0.84192 0.0
C319 C 0.65428 0.30395 0.07146 0.0
H320 H 0.738 0.41449 0.05957 0.0
H321 H 0.65315 0.41794 0.30319 0.0
H322 H 0.70606 0.34676 0.89026 0.0
H323 H 0.69129 0.38451 0.81597 0.0
H324 H 0.73409 0.38513 0.88122 0.0
H325 H 0.59657 0.39685 0.25586 0.0
H326 H 0.58649 0.39083 0.10335 0.0
H327 H 0.6003 0.35469 0.18824 0.0
H328 H 0.58153 0.35901 0.7156 0.0
H329 H 0.61163 0.2708 0.91776 0.0
H330 H 0.6414 0.42008 0.82384 0.0
H331 H 0.60536 0.42311 0.92162 0.0
H332 H 0.59748 0.41668 0.76791 0.0
H333 H 0.68211 0.31249 0.06515 0.0
H334 H 0.65278 0.275 0.06864 0.0
H335 H 0.64452 0.31268 0.15737 0.0
C336 C 0.65507 0.0786 0.07936 0.0
C337 C 0.69095 0.07899 0.10244 0.0
C338 C 0.63238 0.09912 0.14511 0.0
C339 C 0.64619 0.12177 0.23236 0.0
C340 C 0.68259 0.12227 0.2554 0.0
C341 C 0.70445 0.10036 0.19143 0.0
C342 C 0.59368 0.09673 0.12072 0.0
C343 C 0.69861 0.14672 0.345 0.0
C344 C 0.59283 0.20012 0.32307 0.0
C345 C 0.58124 0.18998 0.43391 0.0
C346 C 0.61395 0.17818 0.25614 0.0
C347 C 0.62263 0.14489 0.29973 0.0
C348 C 0.60951 0.13401 0.40949 0.0
C349 C 0.58959 0.15696 0.47612 0.0
C350 C 0.62822 0.19129 0.14129 0.0
C351 C 0.61689 0.09831 0.45738 0.0
H352 H 0.64478 0.06215 0.00975 0.0
H353 H 0.73235 0.10106 0.2074 0.0
H354 H 0.57916 0.09111 0.20248 0.0
H355 H 0.5846 0.12204 0.08734 0.0
H356 H 0.58691 0.07611 0.0558 0.0
H357 H 0.72744 0.14461 0.35016 0.0
H358 H 0.69235 0.17404 0.32328 0.0
H359 H 0.68743 0.1411 0.43223 0.0
H360 H 0.58679 0.22586 0.29117 0.0
H361 H 0.58051 0.14907 0.56181 0.0
H362 H 0.62213 0.17231 0.0707 0.0
H363 H 0.65707 0.19401 0.14692 0.0
H364 H 0.61755 0.21692 0.11684 0.0
H365 H 0.60988 0.07794 0.39204 0.0
H366 H 0.60223 0.09272 0.53901 0.0
H367 H 0.64517 0.09626 0.47574 0.0
C368 C 0.37879 0.46188 0.34985 0.0
C369 C 0.34529 0.46441 0.39821 0.0
C370 C 0.40345 0.43937 0.39679 0.0
C371 C 0.39427 0.41817 0.49333 0.0
C372 C 0.36078 0.42125 0.54468 0.0
C373 C 0.33679 0.44463 0.49723 0.0
C374 C 0.43909 0.43772 0.34118 0.0
C375 C 0.34981 0.39887 0.64691 0.0
C376 C 0.44454 0.3342 0.53078 0.0
C377 C 0.4669 0.34281 0.62371 0.0
C378 C 0.4205 0.35831 0.48849 0.0
C379 C 0.41944 0.39218 0.53822 0.0
C380 C 0.4428 0.40133 0.62952 0.0
C381 C 0.46587 0.37643 0.67211 0.0
C382 C 0.39572 0.3473 0.39221 0.0
C383 C 0.44338 0.43741 0.68258 0.0
H384 H 0.38564 0.47731 0.27379 0.0
H385 H 0.31088 0.44623 0.53434 0.0
H386 H 0.45974 0.44154 0.40809 0.0
H387 H 0.44257 0.41159 0.30187 0.0
H388 H 0.44299 0.4577 0.27216 0.0
H389 H 0.32331 0.40502 0.67889 0.0
H390 H 0.35001 0.37095 0.62126 0.0
H391 H 0.36863 0.40242 0.71967 0.0
H392 H 0.44492 0.30816 0.49396 0.0
H393 H 0.48323 0.3833 0.74363 0.0
H394 H 0.3996 0.36446 0.31542 0.0
H395 H 0.36836 0.35016 0.42169 0.0
H396 H 0.39931 0.31985 0.36459 0.0
H397 H 0.44784 0.45729 0.61372 0.0
H398 H 0.46401 0.44078 0.74996 0.0
H399 H 0.41776 0.44263 0.72303 0.0
C400 C 0.67632 0.93332 0.66657 0.0
C401 C 0.67898 0.95831 0.75583 0.0
C402 C 0.64822 0.90933 0.66211 0.0
C403 C 0.62183 0.91068 0.748 0.0
C404 C 0.6234 0.93688 0.83506 0.0
C405 C 0.65219 0.96024 0.83864 0.0
C406 C 0.64777 0.88143 0.5689 0.0
C407 C 0.59533 0.93948 0.92669 0.0
C408 C 0.5406 0.85519 0.68365 0.0
C409 C 0.54736 0.82511 0.74813 0.0
C410 C 0.56383 0.88411 0.68687 0.0
C411 C 0.59485 0.88233 0.75345 0.0
C412 C 0.60151 0.85216 0.81966 0.0
C413 C 0.57749 0.82411 0.81721 0.0
C414 C 0.55556 0.91624 0.61745 0.0
C415 C 0.63469 0.8489 0.88959 0.0
H416 H 0.69689 0.93161 0.60217 0.0
H417 H 0.65384 0.9798 0.90691 0.0
H418 H 0.65066 0.85548 0.60989 0.0
H419 H 0.62245 0.88092 0.52206 0.0
H420 H 0.66908 0.88537 0.50429 0.0
H421 H 0.59808 0.96385 0.97878 0.0
H422 H 0.56911 0.93849 0.88561 0.0
H423 H 0.59668 0.91694 0.98676 0.0
H424 H 0.51716 0.85611 0.63091 0.0
H425 H 0.58299 0.80079 0.86643 0.0
H426 H 0.5747 0.91964 0.54566 0.0
H427 H 0.55781 0.9398 0.67355 0.0
H428 H 0.52892 0.91472 0.5793 0.0
H429 H 0.6576 0.85041 0.83051 0.0
H430 H 0.63546 0.82397 0.93849 0.0
H431 H 0.63743 0.87078 0.95252 0.0
C432 C 0.08378 0.17017 0.15472 0.0
C433 C 0.04857 0.17037 0.12179 0.0
C434 C 0.10673 0.14601 0.10705 0.0
C435 C 0.09391 0.1205 0.02739 0.0
C436 C 0.05818 0.12039 0.99452 0.0
C437 C 0.03602 0.14576 0.04074 0.0
C438 C 0.14477 0.14798 0.14143 0.0
C439 C 0.04327 0.09311 0.91227 0.0
C440 C 0.15928 0.07931 0.82295 0.0
C441 C 0.16754 0.04854 0.88187 0.0
C442 C 0.13534 0.10274 0.86907 0.0
C443 C 0.11835 0.09491 0.97563 0.0
C444 C 0.12608 0.06357 0.03482 0.0
C445 C 0.15102 0.04099 0.98813 0.0
C446 C 0.12884 0.13628 0.80477 0.0
C447 C 0.10794 0.05386 0.14726 0.0
H448 H 0.09346 0.18925 0.21754 0.0
H449 H 0.00865 0.14561 0.01675 0.0
H450 H 0.15219 0.12341 0.1845 0.0
H451 H 0.16132 0.15104 0.06259 0.0
H452 H 0.15075 0.17006 0.20163 0.0
H453 H 0.01476 0.0958 0.89866 0.0
H454 H 0.05653 0.09502 0.82658 0.0
H455 H 0.04806 0.06669 0.94712 0.0
H456 H 0.17219 0.08549 0.74125 0.0
H457 H 0.15706 0.01713 0.03348 0.0
H458 H 0.1357 0.15891 0.86148 0.0
H459 H 0.10077 0.13803 0.78277 0.0
H460 H 0.14426 0.13851 0.72305 0.0
H461 H 0.11483 0.07326 0.21583 0.0
H462 H 0.1151 0.02759 0.17847 0.0
H463 H 0.07922 0.05431 0.13527 0.0
C464 C 0.97988 0.64245 0.3104 0.0
C465 C 0.97265 0.66936 0.23255 0.0
C466 C 0.95757 0.61296 0.31844 0.0
C467 C 0.92662 0.6114 0.25101 0.0
C468 C 0.91955 0.63848 0.17122 0.0
C469 C 0.94311 0.66685 0.16132 0.0
C470 C 0.9667 0.58391 0.40064 0.0
C471 C 0.8863 0.63837 0.10045 0.0
C472 C 0.87057 0.53043 0.19462 0.0
C473 C 0.84409 0.53434 0.27731 0.0
C474 C 0.8992 0.55391 0.19077 0.0
C475 C 0.90039 0.58272 0.26814 0.0
C476 C 0.87428 0.58596 0.35465 0.0
C477 C 0.84672 0.56127 0.35949 0.0
C478 C 0.92729 0.54877 0.1006 0.0
C479 C 0.87402 0.61685 0.43649 0.0
H480 H 1.0029 0.64458 0.36515 0.0
H481 H 0.9375 0.68803 0.10227 0.0
H482 H 0.94809 0.58311 0.47458 0.0
H483 H 0.96448 0.55836 0.35533 0.0
H484 H 0.99356 0.58725 0.43615 0.0
H485 H 0.88473 0.66156 0.04303 0.0
H486 H 0.88437 0.61459 0.04552 0.0
H487 H 0.8634 0.63792 0.15967 0.0
H488 H 0.8685 0.50939 0.1315 0.0
H489 H 0.82595 0.56439 0.42255 0.0
H490 H 0.95354 0.55256 0.14017 0.0
H491 H 0.92484 0.56842 0.03055 0.0
H492 H 0.92549 0.5224 0.06042 0.0
H493 H 0.89938 0.61979 0.48237 0.0
H494 H 0.85291 0.6145 0.50256 0.0
H495 H 0.87025 0.64106 0.38571 0.0
C496 C 0.32607 0.08082 0.70564 0.0
C497 C 0.32727 0.04886 0.76411 0.0
C498 C 0.35399 0.10493 0.71137 0.0
C499 C 0.38429 0.09647 0.77467 0.0
C500 C 0.38598 0.06394 0.8324 0.0
C501 C 0.3571 0.04063 0.82795 0.0
C502 C 0.35076 0.13972 0.65124 0.0
C503 C 0.41825 0.05381 0.89827 0.0
C504 C 0.46246 0.15345 0.69155 0.0
C505 C 0.46189 0.17907 0.7789 0.0
C506 C 0.43868 0.12502 0.693 0.0
C507 C 0.41345 0.12254 0.78288 0.0
C508 C 0.41364 0.14753 0.87367 0.0
C509 C 0.438 0.17536 0.87101 0.0
C510 C 0.43962 0.09847 0.59581 0.0
C511 C 0.38682 0.14608 0.97012 0.0
H512 H 0.30282 0.08735 0.65728 0.0
H513 H 0.35805 0.01578 0.87248 0.0
H514 H 0.35392 0.16119 0.71569 0.0
H515 H 0.37177 0.1432 0.58552 0.0
H516 H 0.32519 0.14232 0.60695 0.0
H517 H 0.41586 0.02703 0.93463 0.0
H518 H 0.4413 0.05525 0.83979 0.0
H519 H 0.42332 0.07239 0.97086 0.0
H520 H 0.48117 0.15585 0.62097 0.0
H521 H 0.43737 0.19495 0.93908 0.0
H522 H 0.41654 0.10141 0.53865 0.0
H523 H 0.43835 0.07164 0.63172 0.0
H524 H 0.46353 0.10149 0.54164 0.0
H525 H 0.3606 0.15092 0.93337 0.0
H526 H 0.39238 0.16574 0.03934 0.0
H527 H 0.38572 0.11983 0.01041 0.0
C528 C 0.83225 0.93828 0.0004 0.0
C529 C 0.84222 0.9632 0.91692 0.0
C530 C 0.85605 0.91364 0.04066 0.0
C531 C 0.89093 0.91463 0.99905 0.0
C532 C 0.90143 0.94079 0.91852 0.0
C533 C 0.87683 0.96436 0.87708 0.0
C534 C 0.84357 0.8858 0.12467 0.0
C535 C 0.93854 0.9436 0.87475 0.0
C536 C 0.95888 0.86801 0.17959 0.0
C537 C 0.96338 0.83714 0.11579 0.0
C538 C 0.93592 0.89364 0.14163 0.0
C539 C 0.91628 0.88806 0.03847 0.0
C540 C 0.92083 0.85704 0.97323 0.0
C541 C 0.94462 0.83215 0.01191 0.0
C542 C 0.93266 0.92669 0.21213 0.0
C543 C 0.90004 0.84982 0.86369 0.0
H544 H 0.80541 0.93702 0.0302 0.0
H545 H 0.88465 0.9837 0.81278 0.0
H546 H 0.84678 0.85966 0.08494 0.0
H547 H 0.85958 0.88676 0.20514 0.0
H548 H 0.81572 0.88863 0.14899 0.0
H549 H 0.94308 0.96685 0.81867 0.0
H550 H 0.95697 0.94509 0.94931 0.0
H551 H 0.94479 0.91996 0.82379 0.0
H552 H 0.97353 0.87227 0.25939 0.0
H553 H 0.94778 0.80832 0.96251 0.0
H554 H 0.9056 0.9288 0.2451 0.0
H555 H 0.93809 0.94976 0.15621 0.0
H556 H 0.95083 0.92769 0.28758 0.0
H557 H 0.87171 0.85001 0.88365 0.0
H558 H 0.90621 0.82428 0.8238 0.0
H559 H 0.90536 0.87064 0.79871 0.0
C560 C 0.07479 0.33098 0.34347 0.0
C561 C 0.04636 0.32865 0.26658 0.0
C562 C 0.09943 0.35839 0.33598 0.0
C563 C 0.09522 0.38457 0.25096 0.0
C564 C 0.0658 0.38329 0.17622 0.0
C565 C 0.04186 0.35503 0.18395 0.0
C566 C 0.1308 0.35844 0.41588 0.0
C567 C 0.06013 0.41126 0.08641 0.0
C568 C 0.15344 0.46447 0.30225 0.0
C569 C 0.18169 0.4575 0.22885 0.0
C570 C 0.12397 0.44201 0.30528 0.0
C571 C 0.12323 0.41154 0.23538 0.0
C572 C 0.15125 0.40492 0.15887 0.0
C573 C 0.17998 0.42818 0.15572 0.0
C574 C 0.09417 0.45026 0.38597 0.0
C575 C 0.15176 0.37234 0.08467 0.0
H576 H 0.0786 0.31059 0.40714 0.0
H577 H 0.01976 0.3535 0.12502 0.0
H578 H 0.15498 0.35612 0.3635 0.0
H579 H 0.13293 0.3834 0.46459 0.0
H580 H 0.12958 0.33669 0.47964 0.0
H581 H 0.03418 0.40844 0.04373 0.0
H582 H 0.06238 0.43746 0.12734 0.0
H583 H 0.08058 0.41001 0.0183 0.0
H584 H 0.15446 0.48738 0.35781 0.0
H585 H 0.20176 0.4226 0.09899 0.0
H586 H 0.09331 0.43131 0.45883 0.0
H587 H 0.06891 0.44776 0.33908 0.0
H588 H 0.09678 0.47697 0.42315 0.0
H589 H 0.15267 0.34905 0.14168 0.0
H590 H 0.17458 0.37209 0.025 0.0
H591 H 0.12759 0.36989 0.03189 0.0
C592 C 0.53929 0.63931 0.50993 0.0
C593 C 0.55086 0.67103 0.55859 0.0
C594 C 0.56329 0.61497 0.4685 0.0
C595 C 0.59964 0.62267 0.47616 0.0
C596 C 0.61124 0.6552 0.52278 0.0
C597 C 0.5867 0.67883 0.56428 0.0
C598 C 0.54982 0.58057 0.42007 0.0
C599 C 0.64963 0.66469 0.53158 0.0
C600 C 0.66529 0.54931 0.47725 0.0
C601 C 0.67706 0.54961 0.36145 0.0
C602 C 0.63963 0.57244 0.51527 0.0
C603 C 0.62566 0.59679 0.43612 0.0
C604 C 0.63743 0.5972 0.31932 0.0
C605 C 0.66275 0.5736 0.28342 0.0
C606 C 0.62755 0.57092 0.64035 0.0
C607 C 0.6236 0.62293 0.23236 0.0
H608 H 0.51154 0.63303 0.50825 0.0
H609 H 0.59554 0.70315 0.60416 0.0
H610 H 0.56016 0.57652 0.33094 0.0
H611 H 0.55914 0.55891 0.47489 0.0
H612 H 0.52085 0.57902 0.41668 0.0
H613 H 0.65429 0.69156 0.56554 0.0
H614 H 0.6627 0.64614 0.59024 0.0
H615 H 0.66214 0.66262 0.44476 0.0
H616 H 0.67593 0.53081 0.53813 0.0
H617 H 0.67163 0.57431 0.1938 0.0
H618 H 0.5988 0.56685 0.64371 0.0
H619 H 0.63375 0.5961 0.68441 0.0
H620 H 0.63995 0.54969 0.68985 0.0
H621 H 0.59479 0.62 0.22579 0.0
H622 H 0.63497 0.61952 0.14418 0.0
H623 H 0.62956 0.64995 0.26237 0.0
loop_
_geom_bond_atom_site_label_1
_geom_bond_atom_site_label_2
_geom_bond_distance
_geom_bond_site_symmetry_2
_ccdc_geom_bond_type
Co0 O1 2.216 . S
Co0 O2 2.091 . S
Co0 O4 2.004 . S
Co0 O10 2.021 . S
Co0 O12 2.137 . S
Co0 O13 2.244 . S
O1 Co0 2.216 . S
O1 C8 1.247 . S
O2 Co0 2.091 . S
O2 C8 1.261 . S
C3 O12 1.247 . S
C3 O13 1.272 . S
O4 Co0 2.004 . S
O4 C9 1.259 . S
Co5 O6 2.061 . S
Co5 O11 2.052 . S
Co5 O13 2.135 . S
O6 Co5 2.061 . S
O6 C9 1.235 . S
C7 O10 1.238 . S
C7 O11 1.241 . S
C8 O1 1.247 . S
C8 O2 1.261 . S
C9 O4 1.259 . S
C9 O6 1.235 . S
O10 Co0 2.021 . S
O10 C7 1.238 . S
O11 Co5 2.052 . S
O11 C7 1.241 . S
O12 Co0 2.137 . S
O12 C3 1.247 . S
O13 Co0 2.244 . S
O13 C3 1.272 . S
O13 Co5 2.135 . S
Co14 O15 2.216 . S
Co14 O16 2.091 . S
Co14 O18 2.004 . S
Co14 O24 2.021 . S
Co14 O26 2.137 . S
Co14 O27 2.244 . S
O15 Co14 2.216 . S
O15 C22 1.247 . S
O16 Co14 2.091 . S
O16 C22 1.261 . S
C17 O26 1.247 . S
C17 O27 1.272 . S
O18 Co14 2.004 . S
O18 C23 1.259 . S
Co19 O20 2.061 . S
Co19 O25 2.052 . S
Co19 O27 2.135 . S
O20 Co19 2.061 . S
O20 C23 1.235 . S
C21 O24 1.238 . S
C21 O25 1.241 . S
C22 O15 1.247 . S
C22 O16 1.261 . S
C23 O18 1.259 . S
C23 O20 1.235 . S
O24 Co14 2.021 . S
O24 C21 1.238 . S
O25 Co19 2.052 . S
O25 C21 1.241 . S
O26 Co14 2.137 . S
O26 C17 1.247 . S
O27 Co14 2.244 . S
O27 C17 1.272 . S
O27 Co19 2.135 . S
Co28 O29 2.216 . S
Co28 O30 2.091 1_556 S
Co28 O32 2.015 . S
Co28 O38 2.021 1_565 S
Co28 O40 2.137 . S
Co28 O41 2.244 . S
O29 Co28 2.216 . S
O29 C36 1.247 1_556 S
O30 Co28 2.091 1_554 S
O30 C36 1.261 . S
C31 O40 1.247 . S
C31 O41 1.272 . S
O32 Co28 2.015 . S
O32 C37 1.246 1_565 S
Co33 O34 2.061 . S
Co33 O39 2.052 . S
Co33 O41 2.135 1_545 S
O34 Co33 2.061 . S
O34 C37 1.235 . S
C35 O38 1.238 . S
C35 O39 1.241 . S
C36 O29 1.247 1_554 S
C36 O30 1.261 . S
C37 O32 1.246 1_545 S
C37 O34 1.235 . S
O38 Co28 2.021 1_545 S
O38 C35 1.238 . S
O39 Co33 2.052 . S
O39 C35 1.241 . S
O40 Co28 2.137 . S
O40 C31 1.247 . S
O41 Co28 2.244 . S
O41 C31 1.272 . S
O41 Co33 2.135 1_565 S
Co42 O43 2.216 . S
Co42 O44 2.091 1_554 S
Co42 O46 2.015 . S
Co42 O52 2.021 1_455 S
Co42 O54 2.137 . S
Co42 O55 2.244 . S
O43 Co42 2.216 . S
O43 C50 1.247 1_554 S
O44 Co42 2.091 1_556 S
O44 C50 1.261 . S
C45 O54 1.247 . S
C45 O55 1.272 . S
O46 Co42 2.015 . S
O46 C51 1.246 1_455 S
Co47 O48 2.061 . S
Co47 O53 2.052 . S
Co47 O55 2.135 1_655 S
O48 Co47 2.061 . S
O48 C51 1.235 . S
C49 O52 1.238 . S
C49 O53 1.241 . S
C50 O43 1.247 1_556 S
C50 O44 1.261 . S
C51 O46 1.246 1_655 S
C51 O48 1.235 . S
O52 Co42 2.021 1_655 S
O52 C49 1.238 . S
O53 Co47 2.052 . S
O53 C49 1.241 . S
O54 Co42 2.137 . S
O54 C45 1.247 . S
O55 Co42 2.244 . S
O55 C45 1.272 . S
O55 Co47 2.135 1_455 S
Co56 O57 2.216 . S
Co56 O58 2.091 1_556 S
Co56 O60 2.015 . S
Co56 O66 2.021 1_545 S
Co56 O68 2.137 . S
Co56 O69 2.244 . S
O57 Co56 2.216 . S
O57 C64 1.247 1_556 S
O58 Co56 2.091 1_554 S
O58 C64 1.261 . S
C59 O68 1.247 . S
C59 O69 1.272 . S
O60 Co56 2.015 . S
O60 C65 1.246 1_545 S
Co61 O62 2.061 . S
Co61 O67 2.052 . S
Co61 O69 2.135 1_565 S
O62 Co61 2.061 . S
O62 C65 1.235 . S
C63 O66 1.238 . S
C63 O67 1.241 . S
C64 O57 1.247 1_554 S
C64 O58 1.261 . S
C65 O60 1.246 1_565 S
C65 O62 1.235 . S
O66 Co56 2.021 1_565 S
O66 C63 1.238 . S
O67 Co61 2.052 . S
O67 C63 1.241 . S
O68 Co56 2.137 . S
O68 C59 1.247 . S
O69 Co56 2.244 . S
O69 C59 1.272 . S
O69 Co61 2.135 1_545 S
Co70 O71 2.216 . S
Co70 O72 2.091 1_554 S
Co70 O74 2.015 . S
Co70 O80 2.021 1_655 S
Co70 O82 2.137 . S
Co70 O83 2.244 . S
O71 Co70 2.216 . S
O71 C78 1.247 1_554 S
O72 Co70 2.091 1_556 S
O72 C78 1.261 . S
C73 O82 1.247 . S
C73 O83 1.272 . S
O74 Co70 2.015 . S
O74 C79 1.246 1_655 S
Co75 O76 2.061 . S
Co75 O81 2.052 . S
Co75 O83 2.135 1_455 S
O76 Co75 2.061 . S
O76 C79 1.235 . S
C77 O80 1.238 . S
C77 O81 1.241 . S
C78 O71 1.247 1_556 S
C78 O72 1.261 . S
C79 O74 1.246 1_455 S
C79 O76 1.235 . S
O80 Co70 2.021 1_455 S
O80 C77 1.238 . S
O81 Co75 2.052 . S
O81 C77 1.241 . S
O82 Co70 2.137 . S
O82 C73 1.247 . S
O83 Co70 2.244 . S
O83 C73 1.272 . S
O83 Co75 2.135 1_655 S
Co84 O85 2.216 . S
Co84 O86 2.091 . S
Co84 O88 2.004 . S
Co84 O94 2.021 . S
Co84 O96 2.137 . S
Co84 O97 2.244 . S
O85 Co84 2.216 . S
O85 C92 1.247 . S
O86 Co84 2.091 . S
O86 C92 1.261 . S
C87 O96 1.247 . S
C87 O97 1.272 . S
O88 Co84 2.004 . S
O88 C93 1.259 . S
Co89 O90 2.061 . S
Co89 O95 2.052 . S
Co89 O97 2.135 . S
O90 Co89 2.061 . S
O90 C93 1.235 . S
C91 O94 1.238 . S
C91 O95 1.241 . S
C92 O85 1.247 . S
C92 O86 1.261 . S
C93 O88 1.259 . S
C93 O90 1.235 . S
O94 Co84 2.021 . S
O94 C91 1.238 . S
O95 Co89 2.052 . S
O95 C91 1.241 . S
O96 Co84 2.137 . S
O96 C87 1.247 . S
O97 Co84 2.244 . S
O97 C87 1.272 . S
O97 Co89 2.135 . S
Co98 O99 2.216 . S
Co98 O100 2.091 . S
Co98 O102 2.004 . S
Co98 O108 2.021 . S
Co98 O110 2.137 . S
Co98 O111 2.244 . S
O99 Co98 2.216 . S
O99 C106 1.247 . S
O100 Co98 2.091 . S
O100 C106 1.261 . S
C101 O110 1.247 . S
C101 O111 1.272 . S
O102 Co98 2.004 . S
O102 C107 1.259 . S
Co103 O104 2.061 . S
Co103 O109 2.052 . S
Co103 O111 2.135 . S
O104 Co103 2.061 . S
O104 C107 1.235 . S
C105 O108 1.238 . S
C105 O109 1.241 . S
C106 O99 1.247 . S
C106 O100 1.261 . S
C107 O102 1.259 . S
C107 O104 1.235 . S
O108 Co98 2.021 . S
O108 C105 1.238 . S
O109 Co103 2.052 . S
O109 C105 1.241 . S
O110 Co98 2.137 . S
O110 C101 1.247 . S
O111 Co98 2.244 . S
O111 C101 1.272 . S
O111 Co103 2.135 . S
C112 C113 1.391 . S
C112 C114 1.394 . S
C112 H128 0.931 . S
C113 C112 1.391 . S
C113 C117 1.376 . S
C114 C112 1.394 . S
C114 C115 1.369 . S
C114 C118 1.531 . S
C115 C114 1.369 . S
C115 C116 1.410 . S
C115 C123 1.503 1_556 S
C116 C115 1.410 . S
C116 C117 1.392 . S
C116 C119 1.511 1_556 S
C117 C113 1.376 . S
C117 C116 1.392 . S
C117 H129 0.929 . S
C118 C114 1.531 . S
C118 H130 0.960 . S
C118 H131 0.962 . S
C118 H132 0.960 . S
C119 C116 1.511 1_554 S
C119 H133 0.961 . S
C119 H134 0.961 . S
C119 H135 0.961 . S
C120 C121 1.370 . S
C120 C122 1.363 . S
C120 H136 0.931 . S
C121 C120 1.370 . S
C121 C125 1.408 . S
C122 C120 1.363 . S
C122 C123 1.370 . S
C122 C126 1.524 . S
C123 C115 1.503 1_554 S
C123 C122 1.370 . S
C123 C124 1.403 1_554 S
C124 C123 1.403 1_556 S
C124 C125 1.404 1_556 S
C124 C127 1.539 . S
C125 C121 1.408 . S
C125 C124 1.404 1_554 S
C125 H137 0.930 . S
C126 C122 1.524 . S
C126 H138 0.956 . S
C126 H139 0.961 . S
C126 H140 0.961 . S
C127 C124 1.539 . S
C127 H141 0.958 . S
C127 H142 0.961 . S
C127 H143 0.960 . S
H128 C112 0.931 . S
H129 C117 0.929 . S
H130 C118 0.960 . S
H131 C118 0.962 . S
H132 C118 0.960 . S
H133 C119 0.961 . S
H134 C119 0.961 . S
H135 C119 0.961 . S
H136 C120 0.931 . S
H137 C125 0.930 . S
H138 C126 0.956 . S
H139 C126 0.961 . S
H140 C126 0.961 . S
H141 C127 0.958 . S
H142 C127 0.961 . S
H143 C127 0.960 . S
C144 C145 1.391 . S
C144 C146 1.394 . S
C144 H160 0.931 . S
C145 C144 1.391 . S
C145 C149 1.376 . S
C146 C144 1.394 . S
C146 C147 1.369 . S
C146 C150 1.531 . S
C147 C146 1.369 . S
C147 C148 1.410 . S
C147 C155 1.503 . S
C148 C147 1.410 . S
C148 C149 1.392 . S
C148 C151 1.511 . S
C149 C145 1.376 . S
C149 C148 1.392 . S
C149 H161 0.929 . S
C150 C146 1.531 . S
C150 H162 0.960 . S
C150 H163 0.962 . S
C150 H164 0.960 . S
C151 C148 1.511 . S
C151 H165 0.961 . S
C151 H166 0.961 . S
C151 H167 0.961 . S
C152 C153 1.370 . S
C152 C154 1.363 . S
C152 H168 0.931 . S
C153 C152 1.370 . S
C153 C157 1.408 . S
C154 C152 1.363 . S
C154 C155 1.370 . S
C154 C158 1.524 . S
C155 C147 1.503 . S
C155 C154 1.370 . S
C155 C156 1.403 . S
C156 C155 1.403 . S
C156 C157 1.404 . S
C156 C159 1.539 . S
C157 C153 1.408 . S
C157 C156 1.404 . S
C157 H169 0.930 1_554 S
C158 C154 1.524 . S
C158 H170 0.956 . S
C158 H171 0.961 . S
C158 H172 0.961 . S
C159 C156 1.539 . S
C159 H173 0.958 1_554 S
C159 H174 0.961 1_554 S
C159 H175 0.960 . S
H160 C144 0.931 . S
H161 C149 0.929 . S
H162 C150 0.960 . S
H163 C150 0.962 . S
H164 C150 0.960 . S
H165 C151 0.961 . S
H166 C151 0.961 . S
H167 C151 0.961 . S
H168 C152 0.931 . S
H169 C157 0.930 1_556 S
H170 C158 0.956 . S
H171 C158 0.961 . S
H172 C158 0.961 . S
H173 C159 0.958 1_556 S
H174 C159 0.961 1_556 S
H175 C159 0.960 . S
C176 C177 1.391 . S
C176 C178 1.394 . S
C176 H192 0.931 . S
C177 C176 1.391 . S
C177 C181 1.376 . S
C178 C176 1.394 . S
C178 C179 1.369 . S
C178 C182 1.531 . S
C179 C178 1.369 . S
C179 C180 1.410 . S
C179 C187 1.503 . S
C180 C179 1.410 . S
C180 C181 1.392 . S
C180 C183 1.511 . S
C181 C177 1.376 . S
C181 C180 1.392 . S
C181 H193 0.929 . S
C182 C178 1.531 . S
C182 H194 0.960 . S
C182 H195 0.962 . S
C182 H196 0.960 . S
C183 C180 1.511 . S
C183 H197 0.961 . S
C183 H198 0.961 . S
C183 H199 0.961 . S
C184 C185 1.370 . S
C184 C186 1.363 . S
C184 H200 0.931 . S
C185 C184 1.370 . S
C185 C189 1.408 . S
C186 C184 1.363 . S
C186 C187 1.370 . S
C186 C190 1.524 . S
C187 C179 1.503 . S
C187 C186 1.370 . S
C187 C188 1.403 . S
C188 C187 1.403 . S
C188 C189 1.404 . S
C188 C191 1.539 . S
C189 C185 1.408 . S
C189 C188 1.404 . S
C189 H201 0.930 . S
C190 C186 1.524 . S
C190 H202 0.956 . S
C190 H203 0.961 . S
C190 H204 0.961 . S
C191 C188 1.539 . S
C191 H205 0.958 . S
C191 H206 0.961 . S
C191 H207 0.960 . S
H192 C176 0.931 . S
H193 C181 0.929 . S
H194 C182 0.960 . S
H195 C182 0.962 . S
H196 C182 0.960 . S
H197 C183 0.961 . S
H198 C183 0.961 . S
H199 C183 0.961 . S
H200 C184 0.931 . S
H201 C189 0.930 . S
H202 C190 0.956 . S
H203 C190 0.961 . S
H204 C190 0.961 . S
H205 C191 0.958 . S
H206 C191 0.961 . S
H207 C191 0.960 . S
C208 C209 1.391 . S
C208 C210 1.394 . S
C208 H224 0.931 . S
C209 C208 1.391 . S
C209 C213 1.376 . S
C210 C208 1.394 . S
C210 C211 1.369 . S
C210 C214 1.531 . S
C211 C210 1.369 . S
C211 C212 1.410 . S
C211 C219 1.503 . S
C212 C211 1.410 . S
C212 C213 1.392 . S
C212 C215 1.511 . S
C213 C209 1.376 . S
C213 C212 1.392 . S
C213 H225 0.929 . S
C214 C210 1.531 . S
C214 H226 0.960 . S
C214 H227 0.962 . S
C214 H228 0.960 . S
C215 C212 1.511 . S
C215 H229 0.961 . S
C215 H230 0.961 . S
C215 H231 0.961 . S
C216 C217 1.370 . S
C216 C218 1.363 . S
C216 H232 0.931 . S
C217 C216 1.370 . S
C217 C221 1.408 . S
C218 C216 1.363 . S
C218 C219 1.370 . S
C218 C222 1.524 . S
C219 C211 1.503 . S
C219 C218 1.370 . S
C219 C220 1.403 . S
C220 C219 1.403 . S
C220 C221 1.404 . S
C220 C223 1.539 . S
C221 C217 1.408 . S
C221 C220 1.404 . S
C221 H233 0.930 . S
C222 C218 1.524 . S
C222 H234 0.956 . S
C222 H235 0.961 . S
C222 H236 0.961 . S
C223 C220 1.539 . S
C223 H237 0.958 . S
C223 H238 0.961 . S
C223 H239 0.960 . S
H224 C208 0.931 . S
H225 C213 0.929 . S
H226 C214 0.960 . S
H227 C214 0.962 . S
H228 C214 0.960 . S
H229 C215 0.961 . S
H230 C215 0.961 . S
H231 C215 0.961 . S
H232 C216 0.931 . S
H233 C221 0.930 . S
H234 C222 0.956 . S
H235 C222 0.961 . S
H236 C222 0.961 . S
H237 C223 0.958 . S
H238 C223 0.961 . S
H239 C223 0.960 . S
C240 C241 1.391 . S
C240 C242 1.394 . S
C240 H256 0.931 . S
C241 C240 1.391 . S
C241 C245 1.376 . S
C242 C240 1.394 . S
C242 C243 1.369 . S
C242 C246 1.531 . S
C243 C242 1.369 . S
C243 C244 1.410 . S
C243 C251 1.503 . S
C244 C243 1.410 . S
C244 C245 1.392 . S
C244 C247 1.511 . S
C245 C241 1.376 . S
C245 C244 1.392 . S
C245 H257 0.929 . S
C246 C242 1.531 . S
C246 H258 0.960 . S
C246 H259 0.962 . S
C246 H260 0.960 . S
C247 C244 1.511 . S
C247 H261 0.961 . S
C247 H262 0.961 . S
C247 H263 0.961 . S
C248 C249 1.370 . S
C248 C250 1.363 . S
C248 H264 0.931 . S
C249 C248 1.370 . S
C249 C253 1.408 . S
C250 C248 1.363 . S
C250 C251 1.370 . S
C250 C254 1.524 . S
C251 C243 1.503 . S
C251 C250 1.370 . S
C251 C252 1.403 . S
C252 C251 1.403 . S
C252 C253 1.404 . S
C252 C255 1.539 . S
C253 C249 1.408 . S
C253 C252 1.404 . S
C253 H265 0.930 . S
C254 C250 1.524 . S
C254 H266 0.956 . S
C254 H267 0.961 . S
C254 H268 0.961 . S
C255 C252 1.539 . S
C255 H269 0.958 . S
C255 H270 0.961 . S
C255 H271 0.960 . S
H256 C240 0.931 . S
H257 C245 0.929 . S
H258 C246 0.960 . S
H259 C246 0.962 . S
H260 C246 0.960 . S
H261 C247 0.961 . S
H262 C247 0.961 . S
H263 C247 0.961 . S
H264 C248 0.931 . S
H265 C253 0.930 . S
H266 C254 0.956 . S
H267 C254 0.961 . S
H268 C254 0.961 . S
H269 C255 0.958 . S
H270 C255 0.961 . S
H271 C255 0.960 . S
C272 C273 1.391 . S
C272 C274 1.394 . S
C272 H288 0.931 . S
C273 C272 1.391 . S
C273 C277 1.376 . S
C274 C272 1.394 . S
C274 C275 1.369 . S
C274 C278 1.531 . S
C275 C274 1.369 . S
C275 C276 1.410 . S
C275 C283 1.503 . S
C276 C275 1.410 . S
C276 C277 1.392 . S
C276 C279 1.511 . S
C277 C273 1.376 . S
C277 C276 1.392 . S
C277 H289 0.929 1_556 S
C278 C274 1.531 . S
C278 H290 0.960 . S
C278 H291 0.962 . S
C278 H292 0.960 . S
C279 C276 1.511 . S
C279 H293 0.961 1_556 S
C279 H294 0.961 . S
C279 H295 0.961 . S
C280 C281 1.370 . S
C280 C282 1.363 . S
C280 H296 0.931 . S
C281 C280 1.370 . S
C281 C285 1.408 . S
C282 C280 1.363 . S
C282 C283 1.370 . S
C282 C286 1.524 . S
C283 C275 1.503 . S
C283 C282 1.370 . S
C283 C284 1.403 . S
C284 C283 1.403 . S
C284 C285 1.404 . S
C284 C287 1.539 . S
C285 C281 1.408 . S
C285 C284 1.404 . S
C285 H297 0.930 . S
C286 C282 1.524 . S
C286 H298 0.956 . S
C286 H299 0.961 . S
C286 H300 0.961 . S
C287 C284 1.539 . S
C287 H301 0.958 . S
C287 H302 0.961 . S
C287 H303 0.960 . S
H288 C272 0.931 . S
H289 C277 0.929 1_554 S
H290 C278 0.960 . S
H291 C278 0.962 . S
H292 C278 0.960 . S
H293 C279 0.961 1_554 S
H294 C279 0.961 . S
H295 C279 0.961 . S
H296 C280 0.931 . S
H297 C285 0.930 . S
H298 C286 0.956 . S
H299 C286 0.961 . S
H300 C286 0.961 . S
H301 C287 0.958 . S
H302 C287 0.961 . S
H303 C287 0.960 . S
C304 C305 1.391 . S
C304 C306 1.394 . S
C304 H320 0.931 . S
C305 C304 1.391 . S
C305 C309 1.376 . S
C306 C304 1.394 . S
C306 C307 1.369 . S
C306 C310 1.531 1_554 S
C307 C306 1.369 . S
C307 C308 1.410 . S
C307 C315 1.503 1_554 S
C308 C307 1.410 . S
C308 C309 1.392 . S
C308 C311 1.511 . S
C309 C305 1.376 . S
C309 C308 1.392 . S
C309 H321 0.929 . S
C310 C306 1.531 1_556 S
C310 H322 0.960 . S
C310 H323 0.962 . S
C310 H324 0.960 . S
C311 C308 1.511 . S
C311 H325 0.961 . S
C311 H326 0.961 . S
C311 H327 0.961 . S
C312 C313 1.370 . S
C312 C314 1.363 . S
C312 H328 0.931 . S
C313 C312 1.370 . S
C313 C317 1.408 . S
C314 C312 1.363 . S
C314 C315 1.370 . S
C314 C318 1.524 . S
C315 C307 1.503 1_556 S
C315 C314 1.370 . S
C315 C316 1.403 . S
C316 C315 1.403 . S
C316 C317 1.404 . S
C316 C319 1.539 1_556 S
C317 C313 1.408 . S
C317 C316 1.404 . S
C317 H329 0.930 . S
C318 C314 1.524 . S
C318 H330 0.956 . S
C318 H331 0.961 . S
C318 H332 0.961 . S
C319 C316 1.539 1_554 S
C319 H333 0.958 1_554 S
C319 H334 0.961 . S
C319 H335 0.960 . S
H320 C304 0.931 . S
H321 C309 0.929 . S
H322 C310 0.960 . S
H323 C310 0.962 . S
H324 C310 0.960 . S
H325 C311 0.961 . S
H326 C311 0.961 . S
H327 C311 0.961 . S
H328 C312 0.931 . S
H329 C317 0.930 . S
H330 C318 0.956 . S
H331 C318 0.961 . S
H332 C318 0.961 . S
H333 C319 0.958 1_556 S
H334 C319 0.961 . S
H335 C319 0.960 . S
C336 C337 1.391 . S
C336 C338 1.394 . S
C336 H352 0.931 . S
C337 C336 1.391 . S
C337 C341 1.376 . S
C338 C336 1.394 . S
C338 C339 1.369 . S
C338 C342 1.531 . S
C339 C338 1.369 . S
C339 C340 1.410 . S
C339 C347 1.503 . S
C340 C339 1.410 . S
C340 C341 1.392 . S
C340 C343 1.511 . S
C341 C337 1.376 . S
C341 C340 1.392 . S
C341 H353 0.929 . S
C342 C338 1.531 . S
C342 H354 0.960 . S
C342 H355 0.962 . S
C342 H356 0.960 . S
C343 C340 1.511 . S
C343 H357 0.961 . S
C343 H358 0.961 . S
C343 H359 0.961 . S
C344 C345 1.370 . S
C344 C346 1.363 . S
C344 H360 0.931 . S
C345 C344 1.370 . S
C345 C349 1.408 . S
C346 C344 1.363 . S
C346 C347 1.370 . S
C346 C350 1.524 . S
C347 C339 1.503 . S
C347 C346 1.370 . S
C347 C348 1.403 . S
C348 C347 1.403 . S
C348 C349 1.404 . S
C348 C351 1.539 . S
C349 C345 1.408 . S
C349 C348 1.404 . S
C349 H361 0.930 . S
C350 C346 1.524 . S
C350 H362 0.956 . S
C350 H363 0.961 . S
C350 H364 0.961 . S
C351 C348 1.539 . S
C351 H365 0.958 . S
C351 H366 0.961 . S
C351 H367 0.960 . S
H352 C336 0.931 . S
H353 C341 0.929 . S
H354 C342 0.960 . S
H355 C342 0.962 . S
H356 C342 0.960 . S
H357 C343 0.961 . S
H358 C343 0.961 . S
H359 C343 0.961 . S
H360 C344 0.931 . S
H361 C349 0.930 . S
H362 C350 0.956 . S
H363 C350 0.961 . S
H364 C350 0.961 . S
H365 C351 0.958 . S
H366 C351 0.961 . S
H367 C351 0.960 . S
C368 C369 1.391 . S
C368 C370 1.394 . S
C368 H384 0.931 . S
C369 C368 1.391 . S
C369 C373 1.376 . S
C370 C368 1.394 . S
C370 C371 1.369 . S
C370 C374 1.531 . S
C371 C370 1.369 . S
C371 C372 1.410 . S
C371 C379 1.503 . S
C372 C371 1.410 . S
C372 C373 1.392 . S
C372 C375 1.511 . S
C373 C369 1.376 . S
C373 C372 1.392 . S
C373 H385 0.929 . S
C374 C370 1.531 . S
C374 H386 0.960 . S
C374 H387 0.962 . S
C374 H388 0.960 . S
C375 C372 1.511 . S
C375 H389 0.961 . S
C375 H390 0.961 . S
C375 H391 0.961 . S
C376 C377 1.370 . S
C376 C378 1.363 . S
C376 H392 0.931 . S
C377 C376 1.370 . S
C377 C381 1.408 . S
C378 C376 1.363 . S
C378 C379 1.370 . S
C378 C382 1.524 . S
C379 C371 1.503 . S
C379 C378 1.370 . S
C379 C380 1.403 . S
C380 C379 1.403 . S
C380 C381 1.404 . S
C380 C383 1.539 . S
C381 C377 1.408 . S
C381 C380 1.404 . S
C381 H393 0.930 . S
C382 C378 1.524 . S
C382 H394 0.956 . S
C382 H395 0.961 . S
C382 H396 0.961 . S
C383 C380 1.539 . S
C383 H397 0.958 . S
C383 H398 0.961 . S
C383 H399 0.960 . S
H384 C368 0.931 . S
H385 C373 0.929 . S
H386 C374 0.960 . S
H387 C374 0.962 . S
H388 C374 0.960 . S
H389 C375 0.961 . S
H390 C375 0.961 . S
H391 C375 0.961 . S
H392 C376 0.931 . S
H393 C381 0.930 . S
H394 C382 0.956 . S
H395 C382 0.961 . S
H396 C382 0.961 . S
H397 C383 0.958 . S
H398 C383 0.961 . S
H399 C383 0.960 . S
C400 C401 1.391 . S
C400 C402 1.394 . S
C400 H416 0.931 . S
C401 C400 1.391 . S
C401 C405 1.376 . S
C402 C400 1.394 . S
C402 C403 1.369 . S
C402 C406 1.531 . S
C403 C402 1.369 . S
C403 C404 1.410 . S
C403 C411 1.503 . S
C404 C403 1.410 . S
C404 C405 1.392 . S
C404 C407 1.511 . S
C405 C401 1.376 . S
C405 C404 1.392 . S
C405 H417 0.929 . S
C406 C402 1.531 . S
C406 H418 0.960 . S
C406 H419 0.962 . S
C406 H420 0.960 . S
C407 C404 1.511 . S
C407 H421 0.961 1_556 S
C407 H422 0.961 . S
C407 H423 0.961 1_556 S
C408 C409 1.370 . S
C408 C410 1.363 . S
C408 H424 0.931 . S
C409 C408 1.370 . S
C409 C413 1.408 . S
C410 C408 1.363 . S
C410 C411 1.370 . S
C410 C414 1.524 . S
C411 C403 1.503 . S
C411 C410 1.370 . S
C411 C412 1.403 . S
C412 C411 1.403 . S
C412 C413 1.404 . S
C412 C415 1.539 . S
C413 C409 1.408 . S
C413 C412 1.404 . S
C413 H425 0.930 . S
C414 C410 1.524 . S
C414 H426 0.956 . S
C414 H427 0.961 . S
C414 H428 0.961 . S
C415 C412 1.539 . S
C415 H429 0.958 . S
C415 H430 0.961 . S
C415 H431 0.960 . S
H416 C400 0.931 . S
H417 C405 0.929 . S
H418 C406 0.960 . S
H419 C406 0.962 . S
H420 C406 0.960 . S
H421 C407 0.961 1_554 S
H422 C407 0.961 . S
H423 C407 0.961 1_554 S
H424 C408 0.931 . S
H425 C413 0.930 . S
H426 C414 0.956 . S
H427 C414 0.961 . S
H428 C414 0.961 . S
H429 C415 0.958 . S
H430 C415 0.961 . S
H431 C415 0.960 . S
C432 C433 1.391 . S
C432 C434 1.394 . S
C432 H448 0.931 . S
C433 C432 1.391 . S
C433 C437 1.376 . S
C434 C432 1.394 . S
C434 C435 1.369 . S
C434 C438 1.531 . S
C435 C434 1.369 . S
C435 C436 1.410 1_554 S
C435 C443 1.503 . S
C436 C435 1.410 1_556 S
C436 C437 1.392 1_556 S
C436 C439 1.511 . S
C437 C433 1.376 . S
C437 C436 1.392 1_554 S
C437 H449 0.929 1_554 S
C438 C434 1.531 . S
C438 H450 0.960 . S
C438 H451 0.962 . S
C438 H452 0.960 . S
C439 C436 1.511 . S
C439 H453 0.961 . S
C439 H454 0.961 . S
C439 H455 0.961 1_556 S
C440 C441 1.370 . S
C440 C442 1.363 . S
C440 H456 0.931 . S
C441 C440 1.370 . S
C441 C445 1.408 1_556 S
C442 C440 1.363 . S
C442 C443 1.370 1_556 S
C442 C446 1.524 . S
C443 C435 1.503 . S
C443 C442 1.370 1_554 S
C443 C444 1.403 . S
C444 C443 1.403 . S
C444 C445 1.404 . S
C444 C447 1.539 . S
C445 C441 1.408 1_554 S
C445 C444 1.404 . S
C445 H457 0.930 . S
C446 C442 1.524 . S
C446 H458 0.956 . S
C446 H459 0.961 . S
C446 H460 0.961 . S
C447 C444 1.539 . S
C447 H461 0.958 . S
C447 H462 0.961 . S
C447 H463 0.960 . S
H448 C432 0.931 . S
H449 C437 0.929 1_556 S
H450 C438 0.960 . S
H451 C438 0.962 . S
H452 C438 0.960 . S
H453 C439 0.961 . S
H454 C439 0.961 . S
H455 C439 0.961 1_554 S
H456 C440 0.931 . S
H457 C445 0.930 . S
H458 C446 0.956 . S
H459 C446 0.961 . S
H460 C446 0.961 . S
H461 C447 0.958 . S
H462 C447 0.961 . S
H463 C447 0.960 . S
C464 C465 1.391 . S
C464 C466 1.394 . S
C464 H480 0.931 . S
C465 C464 1.391 . S
C465 C469 1.376 . S
C466 C464 1.394 . S
C466 C467 1.369 . S
C466 C470 1.531 . S
C467 C466 1.369 . S
C467 C468 1.410 . S
C467 C475 1.503 . S
C468 C467 1.410 . S
C468 C469 1.392 . S
C468 C471 1.511 . S
C469 C465 1.376 . S
C469 C468 1.392 . S
C469 H481 0.929 . S
C470 C466 1.531 . S
C470 H482 0.960 . S
C470 H483 0.962 . S
C470 H484 0.960 . S
C471 C468 1.511 . S
C471 H485 0.961 . S
C471 H486 0.961 . S
C471 H487 0.961 . S
C472 C473 1.370 . S
C472 C474 1.363 . S
C472 H488 0.931 . S
C473 C472 1.370 . S
C473 C477 1.408 . S
C474 C472 1.363 . S
C474 C475 1.370 . S
C474 C478 1.524 . S
C475 C467 1.503 . S
C475 C474 1.370 . S
C475 C476 1.403 . S
C476 C475 1.403 . S
C476 C477 1.404 . S
C476 C479 1.539 . S
C477 C473 1.408 . S
C477 C476 1.404 . S
C477 H489 0.930 . S
C478 C474 1.524 . S
C478 H490 0.956 . S
C478 H491 0.961 . S
C478 H492 0.961 . S
C479 C476 1.539 . S
C479 H493 0.958 . S
C479 H494 0.961 . S
C479 H495 0.960 . S
H480 C464 0.931 . S
H481 C469 0.929 . S
H482 C470 0.960 . S
H483 C470 0.962 . S
H484 C470 0.960 . S
H485 C471 0.961 . S
H486 C471 0.961 . S
H487 C471 0.961 . S
H488 C472 0.931 . S
H489 C477 0.930 . S
H490 C478 0.956 . S
H491 C478 0.961 . S
H492 C478 0.961 . S
H493 C479 0.958 . S
H494 C479 0.961 . S
H495 C479 0.960 . S
C496 C497 1.391 . S
C496 C498 1.394 . S
C496 H512 0.931 . S
C497 C496 1.391 . S
C497 C501 1.376 . S
C498 C496 1.394 . S
C498 C499 1.369 . S
C498 C502 1.531 . S
C499 C498 1.369 . S
C499 C500 1.410 . S
C499 C507 1.503 . S
C500 C499 1.410 . S
C500 C501 1.392 . S
C500 C503 1.511 . S
C501 C497 1.376 . S
C501 C500 1.392 . S
C501 H513 0.929 . S
C502 C498 1.531 . S
C502 H514 0.960 . S
C502 H515 0.962 . S
C502 H516 0.960 . S
C503 C500 1.511 . S
C503 H517 0.961 . S
C503 H518 0.961 . S
C503 H519 0.961 . S
C504 C505 1.370 . S
C504 C506 1.363 . S
C504 H520 0.931 . S
C505 C504 1.370 . S
C505 C509 1.408 . S
C506 C504 1.363 . S
C506 C507 1.370 . S
C506 C510 1.524 . S
C507 C499 1.503 . S
C507 C506 1.370 . S
C507 C508 1.403 . S
C508 C507 1.403 . S
C508 C509 1.404 . S
C508 C511 1.539 . S
C509 C505 1.408 . S
C509 C508 1.404 . S
C509 H521 0.930 . S
C510 C506 1.524 . S
C510 H522 0.956 . S
C510 H523 0.961 . S
C510 H524 0.961 . S
C511 C508 1.539 . S
C511 H525 0.958 . S
C511 H526 0.961 1_556 S
C511 H527 0.960 . S
H512 C496 0.931 . S
H513 C501 0.929 . S
H514 C502 0.960 . S
H515 C502 0.962 . S
H516 C502 0.960 . S
H517 C503 0.961 . S
H518 C503 0.961 . S
H519 C503 0.961 . S
H520 C504 0.931 . S
H521 C509 0.930 . S
H522 C510 0.956 . S
H523 C510 0.961 . S
H524 C510 0.961 . S
H525 C511 0.958 . S
H526 C511 0.961 1_554 S
H527 C511 0.960 . S
C528 C529 1.391 . S
C528 C530 1.394 . S
C528 H544 0.931 . S
C529 C528 1.391 . S
C529 C533 1.376 . S
C530 C528 1.394 . S
C530 C531 1.369 . S
C530 C534 1.531 . S
C531 C530 1.369 . S
C531 C532 1.410 . S
C531 C539 1.503 . S
C532 C531 1.410 . S
C532 C533 1.392 . S
C532 C535 1.511 . S
C533 C529 1.376 . S
C533 C532 1.392 . S
C533 H545 0.929 . S
C534 C530 1.531 . S
C534 H546 0.960 . S
C534 H547 0.962 1_556 S
C534 H548 0.960 . S
C535 C532 1.511 . S
C535 H549 0.961 . S
C535 H550 0.961 . S
C535 H551 0.961 . S
C536 C537 1.370 . S
C536 C538 1.363 . S
C536 H552 0.931 . S
C537 C536 1.370 . S
C537 C541 1.408 1_554 S
C538 C536 1.363 . S
C538 C539 1.370 1_554 S
C538 C542 1.524 . S
C539 C531 1.503 . S
C539 C538 1.370 1_556 S
C539 C540 1.403 . S
C540 C539 1.403 . S
C540 C541 1.404 . S
C540 C543 1.539 . S
C541 C537 1.408 1_556 S
C541 C540 1.404 . S
C541 H553 0.930 . S
C542 C538 1.524 . S
C542 H554 0.956 . S
C542 H555 0.961 . S
C542 H556 0.961 . S
C543 C540 1.539 . S
C543 H557 0.958 . S
C543 H558 0.961 . S
C543 H559 0.960 . S
H544 C528 0.931 . S
H545 C533 0.929 . S
H546 C534 0.960 . S
H547 C534 0.962 1_554 S
H548 C534 0.960 . S
H549 C535 0.961 . S
H550 C535 0.961 . S
H551 C535 0.961 . S
H552 C536 0.931 . S
H553 C541 0.930 . S
H554 C542 0.956 . S
H555 C542 0.961 . S
H556 C542 0.961 . S
H557 C543 0.958 . S
H558 C543 0.961 . S
H559 C543 0.960 . S
C560 C561 1.391 . S
C560 C562 1.394 . S
C560 H576 0.931 . S
C561 C560 1.391 . S
C561 C565 1.376 . S
C562 C560 1.394 . S
C562 C563 1.369 . S
C562 C566 1.531 . S
C563 C562 1.369 . S
C563 C564 1.410 . S
C563 C571 1.503 . S
C564 C563 1.410 . S
C564 C565 1.392 . S
C564 C567 1.511 . S
C565 C561 1.376 . S
C565 C564 1.392 . S
C565 H577 0.929 . S
C566 C562 1.531 . S
C566 H578 0.960 . S
C566 H579 0.962 . S
C566 H580 0.960 . S
C567 C564 1.511 . S
C567 H581 0.961 . S
C567 H582 0.961 . S
C567 H583 0.961 1_554 S
C568 C569 1.370 . S
C568 C570 1.363 . S
C568 H584 0.931 . S
C569 C568 1.370 . S
C569 C573 1.408 . S
C570 C568 1.363 . S
C570 C571 1.370 . S
C570 C574 1.524 . S
C571 C563 1.503 . S
C571 C570 1.370 . S
C571 C572 1.403 . S
C572 C571 1.403 . S
C572 C573 1.404 . S
C572 C575 1.539 . S
C573 C569 1.408 . S
C573 C572 1.404 . S
C573 H585 0.930 . S
C574 C570 1.524 . S
C574 H586 0.956 . S
C574 H587 0.961 . S
C574 H588 0.961 . S
C575 C572 1.539 . S
C575 H589 0.958 . S
C575 H590 0.961 . S
C575 H591 0.960 . S
H576 C560 0.931 . S
H577 C565 0.929 . S
H578 C566 0.960 . S
H579 C566 0.962 . S
H580 C566 0.960 . S
H581 C567 0.961 . S
H582 C567 0.961 . S
H583 C567 0.961 1_556 S
H584 C568 0.931 . S
H585 C573 0.930 . S
H586 C574 0.956 . S
H587 C574 0.961 . S
H588 C574 0.961 . S
H589 C575 0.958 . S
H590 C575 0.961 . S
H591 C575 0.960 . S
C592 C593 1.391 . S
C592 C594 1.394 . S
C592 H608 0.931 . S
C593 C592 1.391 . S
C593 C597 1.376 . S
C594 C592 1.394 . S
C594 C595 1.369 . S
C594 C598 1.531 . S
C595 C594 1.369 . S
C595 C596 1.410 . S
C595 C603 1.503 . S
C596 C595 1.410 . S
C596 C597 1.392 . S
C596 C599 1.511 . S
C597 C593 1.376 . S
C597 C596 1.392 . S
C597 H609 0.929 . S
C598 C594 1.531 . S
C598 H610 0.960 . S
C598 H611 0.962 . S
C598 H612 0.960 . S
C599 C596 1.511 . S
C599 H613 0.961 . S
C599 H614 0.961 . S
C599 H615 0.961 . S
C600 C601 1.370 . S
C600 C602 1.363 . S
C600 H616 0.931 . S
C601 C600 1.370 . S
C601 C605 1.408 . S
C602 C600 1.363 . S
C602 C603 1.370 . S
C602 C606 1.524 . S
C603 C595 1.503 . S
C603 C602 1.370 . S
C603 C604 1.403 . S
C604 C603 1.403 . S
C604 C605 1.404 . S
C604 C607 1.539 . S
C605 C601 1.408 . S
C605 C604 1.404 . S
C605 H617 0.930 . S
C606 C602 1.524 . S
C606 H618 0.956 . S
C606 H619 0.961 . S
C606 H620 0.961 . S
C607 C604 1.539 . S
C607 H621 0.958 . S
C607 H622 0.961 . S
C607 H623 0.960 . S
H608 C592 0.931 . S
H609 C597 0.929 . S
H610 C598 0.960 . S
H611 C598 0.962 . S
H612 C598 0.960 . S
H613 C599 0.961 . S
H614 C599 0.961 . S
H615 C599 0.961 . S
H616 C600 0.931 . S
H617 C605 0.930 . S
H618 C606 0.956 . S
H619 C606 0.961 . S
H620 C606 0.961 . S
H621 C607 0.958 . S
H622 C607 0.961 . S
H623 C607 0.960 . S
C113 C17 1.422 . S
C121 C3 1.434 . S
C145 C22 1.428 . S
C153 C36 1.435 . S
C177 C45 1.424 . S
C185 C31 1.436 . S
C209 C50 1.433 . S
C217 C8 1.433 . S
C241 C59 1.423 . S
C249 C73 1.436 . S
C273 C78 1.430 . S
C281 C92 1.435 . S
C305 C87 1.429 . S
C313 C101 1.435 . S
C337 C64 1.429 . S
C345 C106 1.435 . S
C369 C9 1.437 . S
C377 C107 1.431 . S
C401 C63 1.420 . S
C409 C21 1.429 . S
C433 C79 1.410 . S
C441 C37 1.441 . S
C465 C49 1.415 . S
C473 C91 1.437 . S
C497 C35 1.443 . S
C505 C105 1.434 . S
C529 C65 1.406 . S
C537 C51 1.442 . S
C561 C77 1.428 . S
C569 C7 1.430 . S
C593 C23 1.449 . S
C601 C93 1.423 . S
