# Generated by pormake.
# Topology wme, (6)-cn, num edge types: 1
# Building blocks:
#     Node 0, Type 0, BuildingBlock: FUNLAD_clean_sbu_0, # of connection points: 6
#     Node 1, Type 0, BuildingBlock: FUNLAD_clean_sbu_0, # of connection points: 6
#     Node 2, Type 0, BuildingBlock: FUNLAD_clean_sbu_0, # of connection points: 6
#     Node 3, Type 0, BuildingBlock: FUNLAD_clean_sbu_0, # of connection points: 6
#     Node 4, Type 0, BuildingBlock: FUNLAD_clean_sbu_0, # of connection points: 6
#     Node 5, Type 0, BuildingBlock: FUNLAD_clean_sbu_0, # of connection points: 6
#     Node 6, Type 0, BuildingBlock: FUNLAD_clean_sbu_0, # of connection points: 6
#     Node 7, Type 0, BuildingBlock: FUNLAD_clean_sbu_0, # of connection points: 6
#     Node 8, Type 0, BuildingBlock: FUNLAD_clean_sbu_0, # of connection points: 6
#     Node 9, Type 0, BuildingBlock: FUNLAD_clean_sbu_0, # of connection points: 6
#     Node 10, Type 0, BuildingBlock: FUNLAD_clean_sbu_0, # of connection points: 6
#     Node 11, Type 0, BuildingBlock: FUNLAD_clean_sbu_0, # of connection points: 6
#     Edge 12, Type (0, 0), BuildingBlock: ZUJKAS_clean_linker_0, # of connection points: 2
#     Edge 13, Type (0, 0), BuildingBlock: ZUJKAS_clean_linker_0, # of connection points: 2
#     Edge 14, Type (0, 0), BuildingBlock: ZUJKAS_clean_linker_0, # of connection points: 2
#     Edge 15, Type (0, 0), BuildingBlock: ZUJKAS_clean_linker_0, # of connection points: 2
#     Edge 16, Type (0, 0), BuildingBlock: ZUJKAS_clean_linker_0, # of connection points: 2
#     Edge 17, Type (0, 0), BuildingBlock: ZUJKAS_clean_linker_0, # of connection points: 2
#     Edge 18, Type (0, 0), BuildingBlock: ZUJKAS_clean_linker_0, # of connection points: 2
#     Edge 19, Type (0, 0), BuildingBlock: ZUJKAS_clean_linker_0, # of connection points: 2
#     Edge 20, Type (0, 0), BuildingBlock: ZUJKAS_clean_linker_0, # of connection points: 2
#     Edge 21, Type (0, 0), BuildingBlock: ZUJKAS_clean_linker_0, # of connection points: 2
#     Edge 22, Type (0, 0), BuildingBlock: ZUJKAS_clean_linker_0, # of connection points: 2
#     Edge 23, Type (0, 0), BuildingBlock: ZUJKAS_clean_linker_0, # of connection points: 2
#     Edge 24, Type (0, 0), BuildingBlock: ZUJKAS_clean_linker_0, # of connection points: 2
#     Edge 25, Type (0, 0), BuildingBlock: ZUJKAS_clean_linker_0, # of connection points: 2
#     Edge 26, Type (0, 0), BuildingBlock: ZUJKAS_clean_linker_0, # of connection points: 2
#     Edge 27, Type (0, 0), BuildingBlock: ZUJKAS_clean_linker_0, # of connection points: 2
#     Edge 28, Type (0, 0), BuildingBlock: ZUJKAS_clean_linker_0, # of connection points: 2
#     Edge 29, Type (0, 0), BuildingBlock: ZUJKAS_clean_linker_0, # of connection points: 2
#     Edge 30, Type (0, 0), BuildingBlock: ZUJKAS_clean_linker_0, # of connection points: 2
#     Edge 31, Type (0, 0), BuildingBlock: ZUJKAS_clean_linker_0, # of connection points: 2
#     Edge 32, Type (0, 0), BuildingBlock: ZUJKAS_clean_linker_0, # of connection points: 2
#     Edge 33, Type (0, 0), BuildingBlock: ZUJKAS_clean_linker_0, # of connection points: 2
#     Edge 34, Type (0, 0), BuildingBlock: ZUJKAS_clean_linker_0, # of connection points: 2
#     Edge 35, Type (0, 0), BuildingBlock: ZUJKAS_clean_linker_0, # of connection points: 2
#     Edge 36, Type (0, 0), BuildingBlock: ZUJKAS_clean_linker_0, # of connection points: 2
#     Edge 37, Type (0, 0), BuildingBlock: ZUJKAS_clean_linker_0, # of connection points: 2
#     Edge 38, Type (0, 0), BuildingBlock: ZUJKAS_clean_linker_0, # of connection points: 2
#     Edge 39, Type (0, 0), BuildingBlock: ZUJKAS_clean_linker_0, # of connection points: 2
#     Edge 40, Type (0, 0), BuildingBlock: ZUJKAS_clean_linker_0, # of connection points: 2
#     Edge 41, Type (0, 0), BuildingBlock: ZUJKAS_clean_linker_0, # of connection points: 2
#     Edge 42, Type (0, 0), BuildingBlock: ZUJKAS_clean_linker_0, # of connection points: 2
#     Edge 43, Type (0, 0), BuildingBlock: ZUJKAS_clean_linker_0, # of connection points: 2
#     Edge 44, Type (0, 0), BuildingBlock: ZUJKAS_clean_linker_0, # of connection points: 2
#     Edge 45, Type (0, 0), BuildingBlock: ZUJKAS_clean_linker_0, # of connection points: 2
#     Edge 46, Type (0, 0), BuildingBlock: ZUJKAS_clean_linker_0, # of connection points: 2
#     Edge 47, Type (0, 0), BuildingBlock: ZUJKAS_clean_linker_0, # of connection points: 2
# Relax obj value: 0.184
# Max RMSD: 0.207
# Mean RMSD: 0.207
data_MOF--net-wme--node1-FUNLAD_clean_sbu_0--edge1-ZUJKAS_clean_linker_0
_symmetry_space_group_name_H-M    P1
_symmetry_Int_Tables_number       1
_symmetry_cell_setting            triclinic
loop_
_symmetry_equiv_pos_as_xyz
'x, y, z'
_cell_length_a     36.193233
_cell_length_b     36.205002
_cell_length_c     102.34993
_cell_angle_alpha  90.03222
_cell_angle_beta   89.968185
_cell_angle_gamma 120.00695
loop_
_atom_site_label
_atom_site_type_symbol
_atom_site_fract_x
_atom_site_fract_y
_atom_site_fract_z
_atom_type_partial_charge
C0 C 0.27115 0.26428 0.14377 0.0
N1 N 0.25259 0.31655 0.1096 0.0
C2 C 0.28773 0.31678 0.10477 0.0
C3 C 0.29167 0.31215 0.09139 0.0
C4 C 0.25903 0.3069 0.08284 0.0
C5 C 0.22311 0.30686 0.08811 0.0
C6 C 0.22056 0.31182 0.10157 0.0
Zn7 Zn 0.24884 0.32299 0.12937 0.0
C8 C 0.16475 0.26464 0.14037 0.0
N9 N 0.24472 0.33544 0.17087 0.0
C10 C 0.27209 0.33413 0.17973 0.0
C11 C 0.2111 0.33972 0.1748 0.0
C12 C 0.20425 0.34349 0.18799 0.0
C13 C 0.23179 0.34221 0.19736 0.0
C14 C 0.26598 0.33716 0.19314 0.0
Zn15 Zn 0.25018 0.32944 0.15108 0.0
O16 O 0.26643 0.27636 0.13255 0.0
C17 C 0.33337 0.39009 0.14016 0.0
O18 O 0.26687 0.28207 0.15392 0.0
H19 H 0.18907 0.3398 0.16769 0.0
H20 H 0.31285 0.32059 0.11131 0.0
H21 H 0.29849 0.33051 0.17643 0.0
O22 O 0.31334 0.37197 0.12975 0.0
O23 O 0.31467 0.37764 0.15114 0.0
H24 H 0.19287 0.31167 0.10561 0.0
O25 O 0.23277 0.37609 0.14778 0.0
O26 O 0.23008 0.36889 0.12647 0.0
O27 O 0.18553 0.28195 0.15072 0.0
O28 O 0.18376 0.27499 0.1294 0.0
C29 C 0.22521 0.38616 0.13663 0.0
H30 H 0.32029 0.31313 0.08779 0.0
H31 H 0.19692 0.30243 0.08193 0.0
H32 H 0.17708 0.34655 0.19086 0.0
H33 H 0.28789 0.33602 0.20011 0.0
C34 C 0.00492 0.27943 0.6426 0.0
N35 N 0.92883 0.25717 0.60942 0.0
C36 C 0.96302 0.29274 0.60448 0.0
C37 C 0.97058 0.2971 0.59105 0.0
C38 C 0.9427 0.26459 0.58255 0.0
C39 C 0.90747 0.22829 0.58791 0.0
C40 C 0.90111 0.22523 0.60144 0.0
Zn41 Zn 0.92083 0.25224 0.62929 0.0
C42 C 0.90213 0.16955 0.6396 0.0
N43 N 0.90916 0.24577 0.67096 0.0
C44 C 0.9355 0.27542 0.67979 0.0
C45 C 0.87474 0.20859 0.67495 0.0
C46 C 0.86598 0.19968 0.68817 0.0
C47 C 0.89277 0.22921 0.69754 0.0
C48 C 0.92774 0.2678 0.69323 0.0
Zn49 Zn 0.91851 0.25282 0.65109 0.0
O50 O 0.98619 0.27334 0.63165 0.0
C51 C 0.93478 0.33466 0.64078 0.0
O52 O 0.98395 0.27387 0.6531 0.0
H53 H 0.85391 0.18541 0.66785 0.0
H54 H 0.9848 0.3177 0.61099 0.0
H55 H 0.96269 0.30476 0.67642 0.0
O56 O 0.93299 0.31538 0.63021 0.0
O57 O 0.93035 0.31592 0.65166 0.0
H58 H 0.8741 0.19723 0.60556 0.0
O59 O 0.85297 0.23098 0.64871 0.0
O60 O 0.85492 0.23005 0.62731 0.0
O61 O 0.90613 0.18968 0.65013 0.0
O62 O 0.90747 0.18847 0.62873 0.0
C63 C 0.83377 0.22315 0.63782 0.0
H64 H -0.00151 0.32535 0.5874 0.0
H65 H 0.88488 0.20265 0.58172 0.0
H66 H 0.8382 0.16994 0.69103 0.0
H67 H 0.94925 0.2914 0.70015 0.0
C68 C 0.71934 0.00177 0.14383 0.0
N69 N 0.66499 0.9333 0.10932 0.0
C70 C 0.66626 0.96929 0.10483 0.0
C71 C 0.66991 0.97821 0.09148 0.0
C72 C 0.67227 0.94986 0.0826 0.0
C73 C 0.67093 0.91295 0.08751 0.0
C74 C 0.66724 0.90525 0.10096 0.0
Zn75 Zn 0.65964 0.92204 0.12903 0.0
C76 C 0.71857 0.89547 0.13898 0.0
N77 N 0.64916 0.90223 0.17039 0.0
C78 C 0.64819 0.92918 0.17949 0.0
C79 C 0.64729 0.86514 0.17399 0.0
C80 C 0.64411 0.85375 0.1871 0.0
C81 C 0.643 0.88075 0.19673 0.0
C82 C 0.64527 0.91907 0.19281 0.0
Zn83 Zn 0.65431 0.91496 0.15071 0.0
O84 O 0.70698 0.98594 0.1325 0.0
C85 C 0.59326 0.93865 0.14073 0.0
O86 O 0.7015 0.97893 0.15384 0.0
H87 H 0.64856 0.84426 0.16668 0.0
H88 H 0.66457 0.99125 0.11164 0.0
H89 H 0.64978 0.95853 0.17642 0.0
O90 O 0.61118 0.93809 0.1301 0.0
O91 O 0.60576 0.93079 0.15144 0.0
H92 H 0.66609 0.87678 0.10473 0.0
O93 O 0.60797 0.85086 0.1472 0.0
O94 O 0.61322 0.85758 0.12589 0.0
O95 O 0.70229 0.89847 0.14963 0.0
O96 O 0.70712 0.90452 0.12829 0.0
C97 C 0.5971 0.83431 0.13592 0.0
H98 H 0.67144 0.00735 0.08817 0.0
H99 H 0.67216 0.88996 0.08102 0.0
H100 H 0.64331 0.82435 0.18968 0.0
H101 H 0.64438 0.94073 0.19994 0.0
C102 C 0.71596 0.72307 0.64361 0.0
N103 N 0.72319 0.66499 0.60902 0.0
C104 C 0.69005 0.66919 0.60459 0.0
C105 C 0.68527 0.67361 0.59125 0.0
C106 C 0.71484 0.67366 0.58234 0.0
C107 C 0.74866 0.66909 0.58719 0.0
C108 C 0.75227 0.66482 0.60062 0.0
Zn109 Zn 0.72919 0.6593 0.6287 0.0
C110 C 0.81634 0.71265 0.63828 0.0
N111 N 0.73941 0.64826 0.67 0.0
C112 C 0.71593 0.65393 0.67936 0.0
C113 C 0.77205 0.64162 0.67331 0.0
C114 C 0.78265 0.64112 0.68635 0.0
C115 C 0.76005 0.64823 0.69623 0.0
C116 C 0.72578 0.65405 0.69261 0.0
Zn117 Zn 0.73102 0.65322 0.65036 0.0
O118 O 0.71723 0.70964 0.63224 0.0
C119 C 0.64456 0.5975 0.64079 0.0
O120 O 0.72025 0.70448 0.65354 0.0
H121 H 0.79077 0.63762 0.66581 0.0
H122 H 0.66722 0.66913 0.61142 0.0
H123 H 0.69027 0.65941 0.67653 0.0
O124 O 0.66349 0.61418 0.63009 0.0
O125 O 0.66534 0.60913 0.65146 0.0
H126 H 0.77846 0.66156 0.60435 0.0
O127 O 0.74243 0.60262 0.64673 0.0
O128 O 0.74249 0.60966 0.62545 0.0
O129 O 0.79688 0.69666 0.64892 0.0
O130 O 0.79533 0.70343 0.62768 0.0
C131 C 0.7471 0.59136 0.63538 0.0
H132 H 0.65839 0.67645 0.58793 0.0
H133 H 0.77246 0.66944 0.58069 0.0
H134 H 0.80869 0.63557 0.68862 0.0
H135 H 0.70761 0.65993 0.69989 0.0
C136 C 0.98183 0.71382 0.1436 0.0
N137 N 0.05176 0.72993 0.10935 0.0
C138 C 0.01575 0.69549 0.10473 0.0
C139 C 0.00682 0.691 0.09138 0.0
C140 C 0.03524 0.72219 0.08263 0.0
C141 C 0.07233 0.75732 0.08765 0.0
C142 C 0.07996 0.76061 0.10111 0.0
Zn143 Zn 0.06246 0.73488 0.12908 0.0
C144 C 0.08857 0.81973 0.13954 0.0
N145 N 0.08037 0.7419 0.1705 0.0
C146 C 0.0531 0.71395 0.17953 0.0
C147 C 0.11769 0.77672 0.17419 0.0
C148 C 0.12899 0.7845 0.18731 0.0
C149 C 0.10167 0.75637 0.19688 0.0
C150 C 0.06311 0.72073 0.19288 0.0
Zn151 Zn 0.06811 0.73519 0.15079 0.0
O152 O -0.00155 0.7176 0.13239 0.0
C153 C 0.04496 0.65115 0.14044 0.0
O154 O 0.00408 0.71894 0.15377 0.0
H155 H 0.13884 0.79893 0.16694 0.0
H156 H -0.00618 0.67136 0.11143 0.0
H157 H 0.02356 0.68651 0.1764 0.0
O158 O 0.04679 0.67031 0.12984 0.0
O159 O 0.05154 0.67082 0.15125 0.0
H160 H 0.10834 0.7878 0.10499 0.0
O161 O 0.13237 0.75243 0.14739 0.0
O162 O 0.1269 0.75338 0.12608 0.0
O163 O 0.08525 0.79959 0.15001 0.0
O164 O 0.0797 0.80006 0.12868 0.0
C165 C 0.14954 0.7592 0.13617 0.0
H166 H 0.97817 0.66309 0.08792 0.0
H167 H 0.09489 0.78231 0.08128 0.0
H168 H 0.15859 0.81282 0.18995 0.0
H169 H 0.04119 0.6982 0.19995 0.0
C170 C 0.26072 0.98685 0.64241 0.0
N171 N 0.31949 0.05868 0.60888 0.0
C172 C 0.31868 0.02293 0.60437 0.0
C173 C 0.3147 0.01385 0.59103 0.0
C174 C 0.3116 0.04185 0.58219 0.0
C175 C 0.31334 0.07895 0.58709 0.0
C176 C 0.31721 0.08674 0.60054 0.0
Zn177 Zn 0.32192 0.06837 0.62864 0.0
C178 C 0.26065 0.09323 0.6377 0.0
N179 N 0.32488 0.08437 0.67012 0.0
C180 C 0.32592 0.05743 0.6792 0.0
C181 C 0.32418 0.12017 0.67379 0.0
C182 C 0.32399 0.12984 0.68695 0.0
C183 C 0.32451 0.10251 0.69656 0.0
C184 C 0.32589 0.06603 0.69256 0.0
Zn185 Zn 0.32323 0.07343 0.65038 0.0
O186 O 0.27514 0.00393 0.63135 0.0
C187 C 0.38722 0.05224 0.64129 0.0
O188 O 0.27606 0.00882 0.65274 0.0
H189 H 0.32358 0.14141 0.66649 0.0
H190 H 0.32064 0.00109 0.61116 0.0
H191 H 0.32643 0.02914 0.67609 0.0
O192 O 0.37113 0.05358 0.63038 0.0
O193 O 0.37227 0.0584 0.65179 0.0
H194 H 0.31777 0.1149 0.60434 0.0
O195 O 0.3694 0.1382 0.64762 0.0
O196 O 0.36765 0.13325 0.62625 0.0
O197 O 0.27509 0.08934 0.64858 0.0
O198 O 0.27381 0.08488 0.62722 0.0
C199 C 0.38169 0.15578 0.63651 0.0
H200 H 0.31415 0.98521 0.58766 0.0
H201 H 0.31067 0.1012 0.58064 0.0
H202 H 0.32377 0.15873 0.68955 0.0
H203 H 0.32615 0.04401 0.69967 0.0
C204 C 0.72053 0.70878 0.38381 0.0
N205 N 0.66477 0.72664 0.41739 0.0
C206 C 0.66456 0.69153 0.42222 0.0
C207 C 0.66761 0.68688 0.43564 0.0
C208 C 0.67091 0.71865 0.44424 0.0
C209 C 0.67087 0.75451 0.43899 0.0
C210 C 0.66773 0.75786 0.42548 0.0
Zn211 Zn 0.66143 0.73213 0.39758 0.0
C212 C 0.72331 0.81626 0.38756 0.0
N213 N 0.65546 0.74033 0.35602 0.0
C214 C 0.65329 0.71149 0.34706 0.0
C215 C 0.65669 0.77694 0.3522 0.0
C216 C 0.65634 0.78607 0.33902 0.0
C217 C 0.65471 0.75737 0.32952 0.0
C218 C 0.65272 0.71936 0.33366 0.0
Zn219 Zn 0.6582 0.7327 0.37582 0.0
O220 O 0.70767 0.71354 0.39491 0.0
C221 C 0.59442 0.64946 0.38579 0.0
O222 O 0.70401 0.71384 0.3735 0.0
H223 H 0.65819 0.79948 0.35941 0.0
H224 H 0.66236 0.66715 0.41563 0.0
H225 H 0.65236 0.68259 0.35029 0.0
O226 O 0.61168 0.66815 0.39646 0.0
O227 O 0.60849 0.66915 0.37503 0.0
H228 H 0.66777 0.78548 0.42145 0.0
O229 O 0.61292 0.75232 0.37849 0.0
O230 O 0.61594 0.75198 0.39988 0.0
O231 O 0.70748 0.79642 0.37696 0.0
O232 O 0.71034 0.79666 0.39835 0.0
C233 C 0.60108 0.75883 0.38951 0.0
H234 H 0.66812 0.659 0.43922 0.0
H235 H 0.67286 0.77955 0.44526 0.0
H236 H 0.65703 0.81532 0.3363 0.0
H237 H 0.65154 0.69642 0.32664 0.0
C238 C 0.00132 0.72377 0.88473 0.0
N239 N 0.92781 0.66445 0.91796 0.0
C240 C 0.96338 0.6654 0.92271 0.0
C241 C 0.97136 0.66873 0.93612 0.0
C242 C 0.94249 0.67111 0.94478 0.0
C243 C 0.90582 0.66968 0.93961 0.0
C244 C 0.89906 0.66631 0.9261 0.0
Zn245 Zn 0.91923 0.66189 0.89814 0.0
C246 C 0.89421 0.72238 0.8886 0.0
N247 N 0.90599 0.65833 0.85656 0.0
C248 C 0.93439 0.65943 0.84762 0.0
C249 C 0.86934 0.65698 0.85271 0.0
C250 C 0.86017 0.65706 0.83952 0.0
C251 C 0.88906 0.65894 0.83004 0.0
C252 C 0.92649 0.65973 0.83422 0.0
Zn253 Zn 0.91588 0.66019 0.87636 0.0
O254 O 0.98357 0.70944 0.89572 0.0
C255 C 0.93793 0.59757 0.88594 0.0
O256 O 0.98015 0.708 0.87429 0.0
H257 H 0.84708 0.65619 0.85991 0.0
H258 H 0.98594 0.66407 0.91607 0.0
H259 H 0.96338 0.66059 0.85088 0.0
O260 O 0.93539 0.61368 0.8967 0.0
O261 O 0.93211 0.61189 0.87525 0.0
H262 H 0.87097 0.66547 0.92212 0.0
O263 O 0.85157 0.61307 0.87882 0.0
O264 O 0.85434 0.61502 0.90023 0.0
O265 O 0.89883 0.70778 0.87783 0.0
O266 O 0.90172 0.70927 0.89923 0.0
C267 C 0.83303 0.60027 0.88977 0.0
H268 H 0.00035 0.67033 0.93963 0.0
H269 H 0.88245 0.67091 0.94592 0.0
H270 H 0.83051 0.6555 0.8368 0.0
H271 H 0.94979 0.66144 0.82724 0.0
C272 C 0.27193 0.00315 0.38455 0.0
N273 N 0.25582 0.92928 0.41787 0.0
C274 C 0.29072 0.96455 0.42263 0.0
C275 C 0.29541 0.97253 0.43605 0.0
C276 C 0.26391 0.94394 0.44469 0.0
C277 C 0.22834 0.90759 0.4395 0.0
C278 C 0.22492 0.90084 0.426 0.0
Zn279 Zn 0.24989 0.92049 0.39807 0.0
C280 C 0.16512 0.89738 0.38832 0.0
N281 N 0.24063 0.90696 0.35649 0.0
C282 C 0.26919 0.93363 0.34748 0.0
C283 C 0.20407 0.87136 0.35275 0.0
C284 C 0.19473 0.8616 0.33959 0.0
C285 C 0.22317 0.88861 0.33003 0.0
C286 C 0.26111 0.9249 0.3341 0.0
Zn287 Zn 0.24872 0.91733 0.37629 0.0
O288 O 0.26782 0.98514 0.39554 0.0
C289 C 0.3326 0.93722 0.38597 0.0
O290 O 0.26674 0.98206 0.37411 0.0
H291 H 0.18177 0.85029 0.36 0.0
H292 H 0.31484 0.98685 0.416 0.0
H293 H 0.29806 0.96175 0.35065 0.0
O294 O 0.31412 0.93525 0.39673 0.0
O295 O 0.31261 0.93193 0.37529 0.0
H296 H 0.19745 0.87298 0.42201 0.0
O297 O 0.22975 0.85243 0.37886 0.0
O298 O 0.23059 0.85541 0.40026 0.0
O299 O 0.18481 0.90202 0.37766 0.0
O300 O 0.1851 0.90416 0.39905 0.0
C301 C 0.2235 0.83388 0.38983 0.0
H302 H 0.32305 0.00128 0.43957 0.0
H303 H 0.20354 0.88443 0.44581 0.0
H304 H 0.16556 0.83284 0.33693 0.0
H305 H 0.28386 0.94663 0.32702 0.0
C306 C 0.26061 0.27498 0.88482 0.0
N307 N 0.31993 0.26085 0.91805 0.0
C308 C 0.32067 0.29626 0.92284 0.0
C309 C 0.31692 0.30077 0.93624 0.0
C310 C 0.31205 0.26841 0.94485 0.0
C311 C 0.31193 0.2324 0.93963 0.0
C312 C 0.31601 0.22929 0.92615 0.0
Zn313 Zn 0.32257 0.25479 0.89822 0.0
C314 C 0.26178 0.16896 0.88873 0.0
N315 N 0.32592 0.24458 0.85663 0.0
C316 C 0.32654 0.27279 0.84772 0.0
C317 C 0.32718 0.20924 0.85275 0.0
C318 C 0.32954 0.2013 0.83956 0.0
C319 C 0.33056 0.22987 0.83013 0.0
C320 C 0.3287 0.26592 0.83432 0.0
Zn321 Zn 0.32358 0.25241 0.87644 0.0
O322 O 0.27544 0.27215 0.8958 0.0
C323 C 0.38682 0.33732 0.8859 0.0
O324 O 0.27571 0.26875 0.87437 0.0
H325 H 0.32637 0.18693 0.85992 0.0
H326 H 0.32377 0.32097 0.91624 0.0
H327 H 0.32553 0.30068 0.851 0.0
O328 O 0.37134 0.31904 0.89676 0.0
O329 O 0.37165 0.31685 0.87531 0.0
H330 H 0.3154 0.20135 0.92214 0.0
O331 O 0.37077 0.2353 0.87892 0.0
O332 O 0.36897 0.23619 0.90033 0.0
O333 O 0.27626 0.18783 0.87792 0.0
O334 O 0.27477 0.18998 0.8993 0.0
C335 C 0.38357 0.2295 0.88986 0.0
H336 H 0.31795 0.32944 0.9398 0.0
H337 H 0.30775 0.2064 0.94585 0.0
H338 H 0.33004 0.17269 0.83678 0.0
H339 H 0.32956 0.28883 0.82735 0.0
C340 C 0.98425 0.26258 0.38353 0.0
N341 N 0.05176 0.32024 0.41786 0.0
C342 C 0.0147 0.31649 0.42241 0.0
C343 C 0.00553 0.3116 0.43575 0.0
C344 C 0.0348 0.31064 0.44456 0.0
C345 C 0.07298 0.31492 0.43961 0.0
C346 C 0.08081 0.31962 0.42616 0.0
Zn347 Zn 0.06271 0.32592 0.39812 0.0
C348 C 0.09436 0.27078 0.38818 0.0
N349 N 0.08158 0.33615 0.35669 0.0
C350 C 0.05213 0.33184 0.34763 0.0
C351 C 0.12071 0.34312 0.35299 0.0
C352 C 0.13175 0.34653 0.33984 0.0
C353 C 0.10209 0.34207 0.33028 0.0
C354 C 0.06169 0.33438 0.33427 0.0
Zn355 Zn 0.06927 0.33083 0.37642 0.0
O356 O -0.00031 0.27641 0.39481 0.0
C357 C 0.04106 0.38859 0.3863 0.0
O358 O 0.0068 0.28031 0.37347 0.0
H359 H 0.1435 0.34563 0.36027 0.0
H360 H -0.00793 0.31718 0.41566 0.0
H361 H 0.02116 0.32615 0.35075 0.0
O362 O 0.04363 0.37231 0.39703 0.0
O363 O 0.04864 0.37564 0.37562 0.0
H364 H 0.11002 0.32251 0.42234 0.0
O365 O 0.1318 0.38081 0.37981 0.0
O366 O 0.12624 0.37469 0.40113 0.0
O367 O 0.0908 0.2867 0.37754 0.0
O368 O 0.08341 0.28069 0.39883 0.0
C369 C 0.14853 0.39241 0.39104 0.0
H370 H 0.97599 0.30904 0.43915 0.0
H371 H 0.09624 0.31393 0.44602 0.0
H372 H 0.16296 0.35174 0.33716 0.0
H373 H 0.03798 0.3308 0.32715 0.0
C374 C 0.71222 0.98635 0.884 0.0
N375 N 0.72246 0.05623 0.91782 0.0
C376 C 0.68818 0.01998 0.92239 0.0
C377 C 0.68314 0.01135 0.93576 0.0
C378 C 0.71364 0.0403 0.94458 0.0
C379 C 0.74851 0.07769 0.9396 0.0
C380 C 0.75234 0.08503 0.92613 0.0
Zn381 Zn 0.72921 0.06637 0.89806 0.0
C382 C 0.81603 0.09482 0.88882 0.0
N383 N 0.74116 0.08391 0.85661 0.0
C384 C 0.71432 0.05617 0.84746 0.0
C385 C 0.77582 0.12154 0.85305 0.0
C386 C 0.7845 0.13274 0.83994 0.0
C387 C 0.75745 0.10498 0.83025 0.0
C388 C 0.72204 0.06606 0.83413 0.0
Zn389 Zn 0.73252 0.07206 0.87633 0.0
O390 O 0.71391 0.00271 0.89513 0.0
C391 C 0.64651 0.04696 0.88557 0.0
O392 O 0.71819 0.00849 0.87375 0.0
H393 H 0.79712 0.14309 0.8604 0.0
H394 H 0.66473 -0.00246 0.91563 0.0
H395 H 0.68697 0.02641 0.85048 0.0
O396 O 0.66443 0.04913 0.89645 0.0
O397 O 0.66766 0.05391 0.87504 0.0
H398 H 0.77943 0.11359 0.9223 0.0
O399 O 0.74773 0.13577 0.87932 0.0
O400 O 0.74591 0.13058 0.90068 0.0
O401 O 0.79746 0.09103 0.87799 0.0
O402 O 0.79452 0.08518 0.89933 0.0
C403 C 0.75262 0.15298 0.89047 0.0
H404 H 0.65545 0.98243 0.93917 0.0
H405 H 0.77302 0.10067 0.94602 0.0
H406 H 0.81261 0.16266 0.8374 0.0
H407 H 0.70032 0.0438 0.82695 0.0
H408 H 0.10397 0.86842 0.16128 0.0
H409 H 0.14306 0.94597 0.16269 0.0
H410 H 0.15524 0.9546 0.12073 0.0
H411 H 0.11631 0.8765 0.11918 0.0
H412 H 0.23365 0.00477 0.13529 0.0
H413 H 0.10173 0.02943 0.15233 0.0
H414 H 0.10823 0.99079 0.16151 0.0
H415 H 0.09238 0.98057 0.14466 0.0
C416 C 0.11437 0.88671 0.15231 0.0
C417 C 0.10696 0.86636 0.1401 0.0
C418 C 0.13667 0.93102 0.15315 0.0
C419 C 0.15176 0.9558 0.14182 0.0
C420 C 0.1437 0.93579 0.12957 0.0
H421 H 0.28191 0.21989 0.12406 0.0
H422 H 0.26209 0.14505 0.12476 0.0
C423 C 0.12123 0.89129 0.12871 0.0
C424 C 0.17707 0.00263 0.14288 0.0
H425 H 0.1713 0.08925 0.15293 0.0
C426 C 0.22014 0.0234 0.13911 0.0
C427 C 0.15925 0.0265 0.14797 0.0
C428 C 0.11278 0.00583 0.15176 0.0
C429 C 0.24606 0.06775 0.14039 0.0
C430 C 0.22812 0.09165 0.14542 0.0
C431 C 0.18513 0.07071 0.14926 0.0
C432 C 0.25157 0.13873 0.14565 0.0
C433 C 0.29236 0.08857 0.13646 0.0
C434 C 0.25392 0.16045 0.15726 0.0
C435 C 0.26492 0.2033 0.15689 0.0
C436 C 0.27326 0.22475 0.14487 0.0
C437 C 0.27529 0.20412 0.13347 0.0
C438 C 0.26425 0.16133 0.13385 0.0
H439 H 0.30423 0.06561 0.13684 0.0
H440 H 0.29585 0.10025 0.12626 0.0
H441 H 0.31266 0.11619 0.14286 0.0
H442 H 0.24421 0.14344 0.16647 0.0
H443 H 0.2633 0.21837 0.16585 0.0
H444 H 0.23705 0.12167 0.61626 0.0
H445 H 0.20346 0.16596 0.61624 0.0
H446 H 0.19142 0.15544 0.65818 0.0
H447 H 0.22518 0.11163 0.65835 0.0
H448 H 0.12407 0.14892 0.62577 0.0
H449 H 0.25593 0.28501 0.65201 0.0
H450 H 0.26173 0.2428 0.64467 0.0
H451 H 0.23615 0.23493 0.66031 0.0
C452 C 0.22668 0.12827 0.62545 0.0
C453 C 0.23398 0.1134 0.63731 0.0
C454 C 0.20786 0.15383 0.62543 0.0
C455 C 0.19626 0.16492 0.63725 0.0
C456 C 0.2014 0.14824 0.64901 0.0
H457 H 0.04406 0.26517 0.66321 0.0
H458 H 0.10085 0.24765 0.66138 0.0
C459 C 0.22022 0.1228 0.64906 0.0
C460 C 0.17775 0.1931 0.63733 0.0
H461 H 0.18998 0.28536 0.65043 0.0
C462 C 0.13873 0.17907 0.63098 0.0
C463 C 0.19722 0.23242 0.64413 0.0
C464 C 0.24029 0.24995 0.65056 0.0
C465 C 0.11749 0.20237 0.63175 0.0
C466 C 0.1363 0.24105 0.63888 0.0
C467 C 0.17591 0.25576 0.64495 0.0
C468 C 0.11299 0.26425 0.64092 0.0
C469 C 0.07419 0.18448 0.62541 0.0
C470 C 0.10356 0.28232 0.63025 0.0
C471 C 0.07102 0.29215 0.63123 0.0
C472 C 0.04773 0.28409 0.64291 0.0
C473 C 0.06124 0.27143 0.65406 0.0
C474 C 0.09366 0.26137 0.65304 0.0
H475 H 0.06121 0.15094 0.62216 0.0
H476 H 0.05107 0.18575 0.63227 0.0
H477 H 0.07684 0.20398 0.61672 0.0
H478 H 0.1187 0.28524 0.62088 0.0
H479 H 0.06169 0.3025 0.62253 0.0
H480 H 0.76446 0.03842 0.16616 0.0
H481 H 0.83951 0.0939 0.16721 0.0
H482 H 0.84032 0.1121 0.12555 0.0
H483 H 0.76537 0.05749 0.12442 0.0
H484 H 0.89525 0.07689 0.15414 0.0
H485 H 0.91822 0.23308 0.13813 0.0
H486 H 0.86733 0.1903 0.14372 0.0
H487 H 0.88476 0.19048 0.12724 0.0
C488 C 0.78012 0.05543 0.1573 0.0
C489 C 0.75923 0.04305 0.14516 0.0
C490 C 0.82304 0.08706 0.15792 0.0
C491 C 0.84547 0.10697 0.14646 0.0
C492 C 0.82352 0.09761 0.13454 0.0
H493 H 0.1072 0.23404 0.12024 0.0
H494 H 0.02919 0.19463 0.12204 0.0
C495 C 0.78064 0.0661 0.1339 0.0
C496 C 0.8926 0.13099 0.1465 0.0
H497 H 0.97946 0.22384 0.13662 0.0
C498 C 0.91372 0.10929 0.15051 0.0
C499 C 0.91647 0.17294 0.14156 0.0
C500 C 0.89554 0.19821 0.13753 0.0
C501 C 0.95805 0.128 0.1494 0.0
C502 C 0.98184 0.16968 0.1443 0.0
C503 C 0.96091 0.1917 0.14044 0.0
C504 C 0.02868 0.19128 0.14315 0.0
C505 C 0.97897 0.10259 0.15333 0.0
C506 C 0.05387 0.2018 0.15442 0.0
C507 C 0.0982 0.22403 0.15344 0.0
C508 C 0.11813 0.2363 0.14115 0.0
C509 C 0.09277 0.22475 0.12983 0.0
C510 C 0.0483 0.20256 0.13084 0.0
H511 H 0.95549 0.06797 0.15413 0.0
H512 H 0.00399 0.10706 0.14619 0.0
H513 H -0.00556 0.11385 0.163 0.0
H514 H 0.03921 0.19372 0.16401 0.0
H515 H 0.11682 0.2326 0.16235 0.0
H516 H 0.73085 0.77041 0.66583 0.0
H517 H 0.75356 0.84628 0.66675 0.0
H518 H 0.72947 0.84542 0.62545 0.0
H519 H 0.70614 0.7697 0.62446 0.0
H520 H 0.82486 0.90003 0.65229 0.0
H521 H 0.6907 0.92575 0.63944 0.0
H522 H 0.68263 0.87496 0.6451 0.0
H523 H 0.69655 0.89065 0.62833 0.0
C524 C 0.72881 0.78597 0.65705 0.0
C525 C 0.7174 0.7643 0.64503 0.0
C526 C 0.74189 0.82933 0.65759 0.0
C527 C 0.74325 0.85138 0.64617 0.0
C528 C 0.72809 0.82888 0.63441 0.0
H529 H 0.8731 0.11234 0.6194 0.0
H530 H 0.8364 0.03443 0.62114 0.0
C531 C 0.71501 0.78559 0.63386 0.0
C532 C 0.76726 0.89843 0.64597 0.0
H533 H 0.76122 0.98591 0.63699 0.0
C534 C 0.81083 0.91891 0.64913 0.0
C535 C 0.74893 0.92273 0.64166 0.0
C536 C 0.70203 0.90244 0.63855 0.0
C537 C 0.83689 0.96309 0.64778 0.0
C538 C 0.81868 0.98732 0.64332 0.0
C539 C 0.77503 0.967 0.6403 0.0
C540 C 0.84416 0.03407 0.64209 0.0
C541 C 0.88388 0.98336 0.6508 0.0
C542 C 0.86119 0.05929 0.65327 0.0
C543 C 0.88222 0.10358 0.65232 0.0
C544 C 0.88634 0.12336 0.64016 0.0
C545 C 0.87065 0.09801 0.62888 0.0
C546 C 0.84946 0.05359 0.62986 0.0
H547 H 0.89459 0.95947 0.651 0.0
H548 H 0.90324 0.00828 0.64348 0.0
H549 H 0.89025 -0.0012 0.66054 0.0
H550 H 0.85693 0.04469 0.6628 0.0
H551 H 0.89386 0.12224 0.66119 0.0
H552 H 0.94689 0.73028 0.16494 0.0
H553 H 0.8912 0.74963 0.16436 0.0
H554 H 0.86818 0.7141 0.1237 0.0
H555 H 0.92379 0.6948 0.12415 0.0
H556 H 0.8996 0.80237 0.1296 0.0
H557 H 0.75938 0.69467 0.16009 0.0
H558 H 0.8108 0.71157 0.16725 0.0
H559 H 0.79458 0.6781 0.15301 0.0
C560 C 0.92876 0.72486 0.15603 0.0
C561 C 0.94022 0.71181 0.14453 0.0
C562 C 0.89688 0.73588 0.15572 0.0
C563 C 0.87587 0.73346 0.14396 0.0
C564 C 0.88416 0.71617 0.13285 0.0
H565 H 0.74273 0.86498 0.11821 0.0
H566 H 0.78106 0.82535 0.11899 0.0
C567 C 0.91596 0.70521 0.13314 0.0
C568 C 0.852 0.75639 0.1426 0.0
H569 H 0.76522 0.76045 0.15358 0.0
C570 C 0.86993 0.79299 0.13471 0.0
C571 C 0.81381 0.74428 0.14945 0.0
C572 C 0.79319 0.70483 0.15787 0.0
C573 C 0.85111 0.81852 0.1337 0.0
C574 C 0.8128 0.80644 0.14054 0.0
C575 C 0.79463 0.76955 0.14834 0.0
C576 C 0.79142 0.83204 0.1399 0.0
C577 C 0.87322 0.85891 0.1257 0.0
C578 C 0.78451 0.84876 0.1514 0.0
C579 C 0.7624 0.87108 0.151 0.0
C580 C 0.74683 0.87708 0.13908 0.0
C581 C 0.75482 0.86133 0.12751 0.0
C582 C 0.77668 0.83867 0.12794 0.0
H583 H 0.90743 0.86936 0.12409 0.0
H584 H 0.85762 0.85308 0.116 0.0
H585 H 0.87104 0.88525 0.13052 0.0
H586 H 0.79575 0.84402 0.16071 0.0
H587 H 0.75665 0.88277 0.16008 0.0
H588 H 0.87003 0.74184 0.61718 0.0
H589 H 0.94818 0.77939 0.61748 0.0
H590 H 0.94665 0.77967 0.65962 0.0
H591 H 0.86888 0.74171 0.65944 0.0
H592 H 0.00423 0.85729 0.62818 0.0
H593 H 0.02352 0.73015 0.65176 0.0
H594 H 0.97344 0.72051 0.64495 0.0
H595 H 0.98996 0.74421 0.66087 0.0
C596 C 0.88637 0.75008 0.6265 0.0
C597 C 0.86331 0.73869 0.63828 0.0
C598 C 0.93094 0.77128 0.62666 0.0
C599 C 0.95303 0.78124 0.63858 0.0
C600 C 0.93013 0.7711 0.65033 0.0
H601 H 0.20789 0.94935 0.66333 0.0
H602 H 0.1336 0.8917 0.66221 0.0
C603 C 0.88568 0.74982 0.65019 0.0
C604 C 0.00015 0.80406 0.63879 0.0
H605 H 0.08588 0.79964 0.65087 0.0
C606 C 0.02211 0.84447 0.63298 0.0
C607 C 0.02329 0.78713 0.64508 0.0
C608 C 0.00138 0.74293 0.65091 0.0
C609 C 0.06662 0.86915 0.63369 0.0
C610 C 0.08966 0.85266 0.64024 0.0
C611 C 0.0679 0.81198 0.64586 0.0
C612 C 0.1363 0.87865 0.64172 0.0
C613 C 0.08869 0.91327 0.62777 0.0
C614 C 0.16269 0.88832 0.63075 0.0
C615 C 0.20503 0.92117 0.63134 0.0
C616 C 0.22143 0.9448 0.64291 0.0
C617 C 0.19613 0.93187 0.65426 0.0
C618 C 0.15369 0.89899 0.65364 0.0
H619 H 0.06576 0.92371 0.62486 0.0
H620 H 0.11195 0.93684 0.63478 0.0
H621 H 0.10659 0.91342 0.61894 0.0
H622 H 0.14971 0.87256 0.6215 0.0
H623 H 0.22389 0.93007 0.62246 0.0
H624 H 0.11539 0.88422 0.36697 0.0
H625 H 0.03779 0.84436 0.3659 0.0
H626 H 0.03122 0.82834 0.40775 0.0
H627 H 0.10938 0.8679 0.40894 0.0
H628 H 0.9819 0.75151 0.39318 0.0
H629 H 0.95217 0.88092 0.37722 0.0
H630 H 0.9907 0.87602 0.36745 0.0
H631 H 0.00215 0.89141 0.38432 0.0
C632 C 0.09754 0.8729 0.376 0.0
C633 C 0.11849 0.87927 0.38806 0.0
C634 C 0.05319 0.85016 0.37535 0.0
C635 C 0.02896 0.83369 0.38674 0.0
C636 C 0.04958 0.84094 0.39886 0.0
H637 H 0.76392 0.69848 0.40394 0.0
H638 H 0.83916 0.7194 0.40369 0.0
C639 C 0.09412 0.86379 0.39953 0.0
C640 C 0.98214 0.80741 0.38584 0.0
H641 H 0.8938 0.81034 0.37601 0.0
C642 C 0.96248 0.76428 0.38948 0.0
C643 C 0.9572 0.82428 0.38093 0.0
C644 C 0.97651 0.87078 0.37736 0.0
C645 C 0.91826 0.73733 0.38819 0.0
C646 C 0.89339 0.75424 0.38325 0.0
C647 C 0.91316 0.79734 0.37959 0.0
C648 C 0.84638 0.72941 0.38279 0.0
C649 C 0.89857 0.69105 0.39201 0.0
C650 C 0.82508 0.72616 0.37103 0.0
C651 C 0.78203 0.71445 0.37113 0.0
C652 C 0.75997 0.70638 0.38305 0.0
C653 C 0.78018 0.70493 0.39461 0.0
C654 C 0.82319 0.71663 0.39449 0.0
H655 H 0.92252 0.6804 0.39197 0.0
H656 H 0.8854 0.68673 0.40204 0.0
H657 H 0.87206 0.67033 0.38531 0.0
H658 H 0.84257 0.73592 0.3619 0.0
H659 H 0.7673 0.71557 0.36204 0.0
H660 H 0.0573 0.76119 0.90483 0.0
H661 H 0.11281 0.83616 0.90603 0.0
H662 H 0.09392 0.85204 0.86529 0.0
H663 H 0.03853 0.777 0.86392 0.0
H664 H 0.1832 0.90373 0.87582 0.0
H665 H 0.05684 0.91413 0.90396 0.0
H666 H 0.07182 0.8766 0.90978 0.0
H667 H 0.04572 0.86808 0.89426 0.0
C668 C 0.06594 0.78023 0.896 0.0
C669 C 0.0429 0.76354 0.88435 0.0
C670 C 0.09761 0.82302 0.89672 0.0
C671 C 0.10651 0.84955 0.88583 0.0
C672 C 0.08713 0.8319 0.87381 0.0
H673 H 0.22634 0.11596 0.86788 0.0
H674 H 0.19004 0.0382 0.86785 0.0
C675 C 0.05554 0.78902 0.87305 0.0
C676 C 0.13031 0.89622 0.88743 0.0
H677 H 0.12079 0.97811 0.90023 0.0
C678 C 0.16984 0.9201 0.88122 0.0
C679 C 0.11243 0.9172 0.89445 0.0
C680 C 0.06924 0.89288 0.90093 0.0
C681 C 0.19214 0.9648 0.88185 0.0
C682 C 0.17377 0.98578 0.88863 0.0
C683 C 0.13464 0.96179 0.89505 0.0
C684 C 0.19387 0.03266 0.88879 0.0
C685 C 0.23519 0.98915 0.87533 0.0
C686 C 0.20588 0.05501 0.90066 0.0
C687 C 0.22614 0.0995 0.90075 0.0
C688 C 0.23453 0.12216 0.88894 0.0
C689 C 0.22058 0.09944 0.87713 0.0
C690 C 0.20027 0.05505 0.87707 0.0
H691 H 0.24985 0.96884 0.87386 0.0
H692 H 0.23131 0.00023 0.86559 0.0
H693 H 0.25737 0.01755 0.88117 0.0
H694 H 0.20059 0.03809 0.90982 0.0
H695 H 0.23658 0.11611 0.91 0.0
H696 H 0.11743 0.24144 0.36697 0.0
H697 H 0.15638 0.20256 0.36675 0.0
H698 H 0.15785 0.20252 0.40889 0.0
H699 H 0.11818 0.24091 0.40923 0.0
H700 H 0.23677 0.22816 0.37717 0.0
H701 H 0.11179 0.07726 0.39963 0.0
H702 H 0.10061 0.11716 0.39331 0.0
H703 H 0.12531 0.12421 0.40905 0.0
C704 C 0.12554 0.23272 0.37621 0.0
C705 C 0.11449 0.24401 0.38813 0.0
C706 C 0.148 0.21072 0.37605 0.0
C707 C 0.15973 0.19951 0.38779 0.0
C708 C 0.14848 0.21036 0.39972 0.0
H709 H 0.28516 0.05648 0.40503 0.0
H710 H 0.26695 0.11285 0.40566 0.0
C711 C 0.12583 0.23226 0.3999 0.0
C712 C 0.18419 0.17689 0.38749 0.0
H713 H 0.17946 0.08385 0.39629 0.0
C714 C 0.22432 0.19661 0.38135 0.0
C715 C 0.16768 0.13571 0.3929 0.0
C716 C 0.12383 0.11209 0.39899 0.0
C717 C 0.24853 0.17616 0.38056 0.0
C718 C 0.23202 0.13517 0.38603 0.0
C719 C 0.19211 0.11561 0.39224 0.0
C720 C 0.25418 0.11047 0.38496 0.0
C721 C 0.29154 0.19835 0.37397 0.0
C722 C 0.25496 0.09209 0.37298 0.0
C723 C 0.2652 0.05966 0.37256 0.0
C724 C 0.2744 0.04509 0.38417 0.0
C725 C 0.27779 0.06669 0.39594 0.0
C726 C 0.26745 0.09894 0.39633 0.0
H727 H 0.303 0.23272 0.37227 0.0
H728 H 0.31545 0.19529 0.37997 0.0
H729 H 0.28926 0.18297 0.36439 0.0
H730 H 0.24438 0.10039 0.36412 0.0
H731 H 0.26238 0.04371 0.36335 0.0
H732 H 0.22439 0.29475 0.905 0.0
H733 H 0.14985 0.27673 0.90638 0.0
H734 H 0.13218 0.24082 0.86572 0.0
H735 H 0.2068 0.259 0.86418 0.0
H736 H 0.08255 0.2808 0.87637 0.0
H737 H 0.06923 0.14294 0.90456 0.0
H738 H 0.10789 0.1953 0.91022 0.0
H739 H 0.1153 0.17681 0.8947 0.0
C740 C 0.20507 0.28438 0.89623 0.0
C741 C 0.22112 0.27732 0.88455 0.0
C742 C 0.16252 0.2741 0.89705 0.0
C743 C 0.1356 0.25662 0.88623 0.0
C744 C 0.15264 0.25409 0.87418 0.0
H745 H 0.86969 0.114 0.86807 0.0
H746 H 0.94743 0.15544 0.86826 0.0
C747 C 0.19528 0.26453 0.87332 0.0
C748 C 0.08897 0.23473 0.88794 0.0
H749 H 0.00598 0.14422 0.90077 0.0
C750 C 0.06571 0.25114 0.88178 0.0
C751 C 0.06738 0.19599 0.89499 0.0
C752 C 0.09103 0.17638 0.90144 0.0
C753 C 0.02101 0.22954 0.88245 0.0
C754 C -0.00061 0.19019 0.8892 0.0
C755 C 0.02278 0.17438 0.89561 0.0
C756 C 0.95243 0.16389 0.88924 0.0
C757 C -0.00264 0.24902 0.87596 0.0
C758 C 0.92973 0.15308 0.90105 0.0
C759 C 0.88522 0.12883 0.90101 0.0
C760 C 0.86289 0.11499 0.88914 0.0
C761 C 0.88594 0.12441 0.87738 0.0
C762 C 0.93033 0.14849 0.87744 0.0
H763 H 0.01814 0.284 0.87466 0.0
H764 H 0.98651 0.23458 0.86615 0.0
H765 H 0.96887 0.24295 0.88173 0.0
H766 H 0.94641 0.16424 0.91027 0.0
H767 H 0.86834 0.12215 0.91023 0.0
H768 H 0.9495 0.21483 0.36152 0.0
H769 H 0.89563 0.13916 0.36095 0.0
H770 H 0.8757 0.14156 0.40242 0.0
H771 H 0.92883 0.21712 0.40307 0.0
H772 H 0.91432 0.08593 0.37539 0.0
H773 H 0.75527 0.06095 0.3892 0.0
H774 H 0.79764 0.11141 0.38319 0.0
H775 H 0.79724 0.09647 0.39997 0.0
C776 C 0.93247 0.19968 0.37042 0.0
C777 C 0.94392 0.22171 0.38239 0.0
C778 C 0.90177 0.15643 0.37008 0.0
C779 C 0.88185 0.13484 0.38165 0.0
C780 C 0.89027 0.15774 0.39336 0.0
H781 H 0.7507 0.87265 0.40799 0.0
H782 H 0.79139 0.95069 0.40657 0.0
C783 C 0.92091 0.20094 0.39372 0.0
C784 C 0.8587 0.08781 0.38198 0.0
H785 H 0.76525 0.00054 0.39121 0.0
C786 C 0.88152 0.06717 0.37867 0.0
C787 C 0.81624 0.06367 0.38648 0.0
C788 C 0.79001 0.0842 0.38981 0.0
C789 C 0.86325 0.02298 0.37999 0.0
C790 C 0.82089 -0.00113 0.38456 0.0
C791 C 0.7979 0.01936 0.38779 0.0
C792 C 0.79935 0.95205 0.38559 0.0
C793 C 0.88972 0.00257 0.37679 0.0
C794 C 0.79111 0.92737 0.37428 0.0
C795 C 0.76818 0.88304 0.37505 0.0
C796 C 0.75287 0.86265 0.38715 0.0
C797 C 0.76234 0.88747 0.39854 0.0
C798 C 0.78526 0.93195 0.39775 0.0
H799 H 0.92439 0.02632 0.37663 0.0
H800 H 0.88396 0.97726 0.38397 0.0
H801 H 0.88066 0.98765 0.36697 0.0
H802 H 0.80132 0.94241 0.3648 0.0
H803 H 0.76128 0.86482 0.36609 0.0
H804 H 0.88255 0.76209 0.86773 0.0
H805 H 0.84405 0.80145 0.86732 0.0
H806 H 0.82348 0.78377 0.90891 0.0
H807 H 0.86278 0.74509 0.90949 0.0
H808 H 0.75991 0.77038 0.8743 0.0
H809 H 0.86835 0.91075 0.90455 0.0
H810 H 0.88434 0.87475 0.89786 0.0
H811 H 0.85169 0.86035 0.91229 0.0
C812 C 0.87048 0.7672 0.87684 0.0
C813 C 0.87584 0.75066 0.88866 0.0
C814 C 0.84831 0.78948 0.87656 0.0
C815 C 0.83114 0.79564 0.88808 0.0
C816 C 0.83714 0.77995 0.89995 0.0
H817 H 0.69492 0.92968 0.90379 0.0
H818 H 0.71473 0.87445 0.90447 0.0
C819 C 0.8596 0.75788 0.90026 0.0
C820 C 0.80569 0.81721 0.88755 0.0
H821 H 0.80193 0.90385 0.8988 0.0
C822 C 0.76902 0.79957 0.87965 0.0
C823 C 0.81775 0.85521 0.89455 0.0
C824 C 0.85788 0.87666 0.9027 0.0
C825 C 0.74398 0.81903 0.87859 0.0
C826 C 0.75617 0.85703 0.88557 0.0
C827 C 0.7925 0.87435 0.89357 0.0
C828 C 0.73367 0.88134 0.88418 0.0
C829 C 0.70471 0.79886 0.87009 0.0
C830 C 0.73583 0.90187 0.87235 0.0
C831 C 0.72452 0.93351 0.8719 0.0
C832 C 0.71139 0.94524 0.88334 0.0
C833 C 0.70533 0.92164 0.89484 0.0
C834 C 0.71661 0.89006 0.89527 0.0
H835 H 0.69394 0.76483 0.86801 0.0
H836 H 0.67817 0.80102 0.87478 0.0
H837 H 0.71206 0.81615 0.86064 0.0
H838 H 0.74943 0.89589 0.86373 0.0
H839 H 0.72952 0.95111 0.8629 0.0
H840 H 0.03688 0.60324 0.11885 0.0
H841 H 0.05719 0.54845 0.1174 0.0
H842 H 0.07159 0.55129 0.15926 0.0
H843 H 0.05156 0.60626 0.16086 0.0
H844 H 0.148 0.5788 0.14329 0.0
H845 H 0.01304 0.42095 0.1281 0.0
H846 H 0.01878 0.46741 0.11982 0.0
H847 H 0.00497 0.45981 0.13682 0.0
C848 C 0.04281 0.59112 0.12781 0.0
C849 C 0.04354 0.60973 0.13995 0.0
C850 C 0.05421 0.55964 0.12695 0.0
C851 C 0.06604 0.54615 0.13821 0.0
C852 C 0.06248 0.56142 0.15047 0.0
H853 H 0.21298 0.42846 0.15658 0.0
H854 H 0.17527 0.46832 0.15589 0.0
C855 C 0.05103 0.59284 0.15135 0.0
C856 C 0.08997 0.52327 0.13702 0.0
H857 H 0.08195 0.42852 0.12846 0.0
C858 C 0.13356 0.54587 0.1401 0.0
C859 C 0.07108 0.48078 0.13257 0.0
C860 C 0.02432 0.45552 0.12918 0.0
C861 C 0.15887 0.5269 0.13898 0.0
C862 C 0.13979 0.48392 0.13494 0.0
C863 C 0.09635 0.46151 0.13156 0.0
C864 C 0.16388 0.46099 0.13505 0.0
C865 C 0.20588 0.55314 0.14205 0.0
C866 C 0.16967 0.44346 0.12353 0.0
C867 C 0.19125 0.42046 0.12388 0.0
C868 C 0.20693 0.41446 0.13579 0.0
C869 C 0.20156 0.43273 0.14724 0.0
C870 C 0.18007 0.45558 0.14687 0.0
H871 H 0.21764 0.58785 0.14112 0.0
H872 H 0.21135 0.5469 0.15228 0.0
H873 H 0.22499 0.54467 0.1355 0.0
H874 H 0.15721 0.44729 0.11433 0.0
H875 H 0.19461 0.40647 0.11492 0.0
H876 H 0.78131 0.20822 0.65861 0.0
H877 H 0.70359 0.17024 0.65877 0.0
H878 H 0.70188 0.15441 0.61697 0.0
H879 H 0.78013 0.19222 0.61668 0.0
H880 H 0.64971 0.19227 0.6451 0.0
H881 H 0.62215 0.03193 0.63105 0.0
H882 H 0.67305 0.07387 0.63693 0.0
H883 H 0.65663 0.07532 0.62048 0.0
C884 C 0.76453 0.19684 0.64942 0.0
C885 C 0.78688 0.20319 0.63762 0.0
C886 C 0.72012 0.17503 0.64955 0.0
C887 C 0.69716 0.15895 0.63793 0.0
C888 C 0.71918 0.16591 0.62607 0.0
H889 H 0.43036 0.04506 0.62045 0.0
H890 H 0.50538 0.06454 0.62011 0.0
C891 C 0.7638 0.18787 0.62591 0.0
C892 C 0.65012 0.13623 0.6383 0.0
H893 H 0.56093 0.03924 0.6334 0.0
C894 C 0.63027 0.15879 0.64258 0.0
C895 C 0.62508 0.09259 0.63498 0.0
C896 C 0.64516 0.06676 0.63069 0.0
C897 C 0.58583 0.139 0.64352 0.0
C898 C 0.56072 0.09523 0.64036 0.0
C899 C 0.58047 0.07265 0.63596 0.0
C900 C 0.51376 0.07349 0.64101 0.0
C901 C 0.56606 0.16536 0.64764 0.0
C902 C 0.49321 0.06953 0.65297 0.0
C903 C 0.45036 0.0586 0.65322 0.0
C904 C 0.4276 0.05143 0.64148 0.0
C905 C 0.44715 0.0509 0.62965 0.0
C906 C 0.49001 0.06195 0.62942 0.0
H907 H 0.58913 0.20013 0.64701 0.0
H908 H 0.53795 0.15796 0.64148 0.0
H909 H 0.55513 0.15774 0.65793 0.0
H910 H 0.51106 0.0777 0.66203 0.0
H911 H 0.43611 0.05883 0.66251 0.0
H912 H 0.55732 0.77705 0.15551 0.0
H913 H 0.52146 0.69953 0.15407 0.0
H914 H 0.541 0.70783 0.11237 0.0
H915 H 0.57698 0.78587 0.11366 0.0
H916 H 0.45765 0.64534 0.12091 0.0
H917 H 0.5843 0.63225 0.14733 0.0
H918 H 0.56595 0.66355 0.15579 0.0
H919 H 0.59275 0.68172 0.14034 0.0
C920 C 0.55369 0.7625 0.14599 0.0
C921 C 0.57021 0.78761 0.1347 0.0
C922 C 0.53357 0.71822 0.14522 0.0
C923 C 0.52975 0.69823 0.13318 0.0
C924 C 0.54429 0.72291 0.12178 0.0
H925 H 0.38282 0.42402 0.11843 0.0
H926 H 0.439 0.49823 0.11559 0.0
C927 C 0.56454 0.76738 0.12253 0.0
C928 C 0.50975 0.6514 0.1326 0.0
H929 H 0.51673 0.56791 0.14527 0.0
C930 C 0.47083 0.62829 0.12601 0.0
C931 C 0.52731 0.62954 0.13927 0.0
C932 C 0.57009 0.65301 0.14598 0.0
C933 C 0.4476 0.58365 0.12656 0.0
C934 C 0.46438 0.56178 0.13367 0.0
C935 C 0.50414 0.58487 0.13982 0.0
C936 C 0.43885 0.51534 0.13583 0.0
C937 C 0.40424 0.56041 0.12015 0.0
C938 C 0.42269 0.49992 0.14834 0.0
C939 C 0.39087 0.45749 0.15004 0.0
C940 C 0.3747 0.43007 0.1392 0.0
C941 C 0.39421 0.44456 0.12693 0.0
C942 C 0.42617 0.48695 0.12527 0.0
H943 H 0.39286 0.58248 0.11711 0.0
H944 H 0.406 0.54357 0.11132 0.0
H945 H 0.38031 0.53623 0.12689 0.0
H946 H 0.43243 0.52143 0.15662 0.0
H947 H 0.37671 0.44724 0.15963 0.0
H948 H 0.77992 0.57512 0.61347 0.0
H949 H 0.82035 0.53752 0.61254 0.0
H950 H 0.79376 0.50488 0.65332 0.0
H951 H 0.75377 0.5426 0.6544 0.0
H952 H 0.88217 0.5473 0.64627 0.0
H953 H 0.78118 0.4088 0.61407 0.0
H954 H 0.79371 0.46053 0.60814 0.0
H955 H 0.76054 0.4388 0.62232 0.0
C956 C 0.78179 0.55902 0.62215 0.0
C957 C 0.76383 0.56191 0.63402 0.0
C958 C 0.80495 0.53767 0.6216 0.0
C959 C 0.81002 0.51865 0.63287 0.0
C960 C 0.7903 0.51963 0.64454 0.0
H961 H 0.91776 0.37478 0.66051 0.0
H962 H 0.89737 0.42914 0.65787 0.0
C963 C 0.76731 0.54099 0.64512 0.0
C964 C 0.83799 0.49993 0.63284 0.0
H965 H 0.84583 0.41575 0.62147 0.0
C966 C 0.87449 0.51869 0.64079 0.0
C967 C 0.82794 0.46298 0.62556 0.0
C968 C 0.78859 0.44128 0.61709 0.0
C969 C 0.90079 0.50071 0.6419 0.0
C970 C 0.88984 0.46281 0.63502 0.0
C971 C 0.85421 0.445 0.62669 0.0
C972 C 0.91198 0.43846 0.6372 0.0
C973 C 0.93976 0.52217 0.65052 0.0
C974 C 0.92825 0.42676 0.62655 0.0
C975 C 0.93963 0.39547 0.628 0.0
C976 C 0.93459 0.37522 0.64013 0.0
C977 C 0.92202 0.38981 0.65105 0.0
C978 C 0.9105 0.42103 0.64956 0.0
H979 H 0.95125 0.55679 0.65158 0.0
H980 H 0.93148 0.50765 0.6604 0.0
H981 H 0.9661 0.5181 0.64658 0.0
H982 H 0.92961 0.43992 0.61693 0.0
H983 H 0.94958 0.38515 0.61943 0.0
H984 H 0.55841 0.95554 0.11953 0.0
H985 H 0.48452 0.93896 0.11735 0.0
H986 H 0.46373 0.90781 0.15835 0.0
H987 H 0.53759 0.92475 0.16068 0.0
H988 H 0.42267 0.85602 0.12219 0.0
H989 H 0.39363 0.966 0.15233 0.0
H990 H 0.4464 0.97875 0.14708 0.0
H991 H 0.42199 0.94484 0.16102 0.0
C992 C 0.53856 0.9466 0.12819 0.0
C993 C 0.5536 0.94075 0.14024 0.0
C994 C 0.49635 0.93715 0.12691 0.0
C995 C 0.46872 0.92211 0.13767 0.0
C996 C 0.48471 0.92 0.14996 0.0
H997 H 0.20546 0.77082 0.15569 0.0
H998 H 0.28321 0.81145 0.15468 0.0
C999 C 0.52696 0.92952 0.15126 0.0
C1000 C 0.42216 0.90153 0.13567 0.0
H1001 H 0.33214 0.89799 0.14724 0.0
C1002 C 0.40285 0.86566 0.12746 0.0
C1003 C 0.39655 0.91404 0.14264 0.0
C1004 C 0.41573 0.95328 0.15117 0.0
C1005 C 0.35838 0.84063 0.12653 0.0
C1006 C 0.33274 0.85231 0.13385 0.0
C1007 C 0.35203 0.88907 0.14169 0.0
C1008 C 0.28581 0.82564 0.13406 0.0
C1009 C 0.33924 0.80081 0.11824 0.0
C1010 C 0.26169 0.81957 0.12271 0.0
C1011 C 0.21717 0.79597 0.12321 0.0
C1012 C 0.19622 0.77852 0.13511 0.0
C1013 C 0.22063 0.78378 0.14637 0.0
C1014 C 0.26503 0.80719 0.14584 0.0
H1015 H 0.36324 0.79164 0.11545 0.0
H1016 H 0.31266 0.77367 0.12348 0.0
H1017 H 0.32617 0.80649 0.10914 0.0
H1018 H 0.27724 0.83405 0.11356 0.0
H1019 H 0.19923 0.79282 0.11441 0.0
H1020 H 0.6019 0.54218 0.66072 0.0
H1021 H 0.54408 0.46872 0.65817 0.0
H1022 H 0.53275 0.49194 0.61746 0.0
H1023 H 0.59092 0.56544 0.61984 0.0
H1024 H 0.45732 0.42168 0.64709 0.0
H1025 H 0.58153 0.40884 0.61845 0.0
H1026 H 0.59403 0.45461 0.62848 0.0
H1027 H 0.56799 0.44779 0.61301 0.0
C1028 C 0.58616 0.53221 0.65133 0.0
C1029 C 0.60171 0.55923 0.64039 0.0
C1030 C 0.5531 0.49018 0.64989 0.0
C1031 C 0.5351 0.47486 0.63756 0.0
C1032 C 0.5469 0.50318 0.627 0.0
H1033 H 0.40327 0.20559 0.61457 0.0
H1034 H 0.43722 0.28347 0.61372 0.0
C1035 C 0.58007 0.54516 0.6284 0.0
C1036 C 0.50975 0.42844 0.63538 0.0
H1037 H 0.5175 0.34562 0.62248 0.0
C1038 C 0.47012 0.40499 0.64158 0.0
C1039 C 0.52682 0.40694 0.62821 0.0
C1040 C 0.57004 0.43063 0.62171 0.0
C1041 C 0.44729 0.36029 0.64098 0.0
C1042 C 0.46519 0.33881 0.63424 0.0
C1043 C 0.50403 0.36233 0.62764 0.0
C1044 C 0.4456 0.29197 0.63465 0.0
C1045 C 0.40443 0.33644 0.64764 0.0
C1046 C 0.44078 0.27137 0.64665 0.0
C1047 C 0.42176 0.22712 0.64716 0.0
C1048 C 0.40746 0.20267 0.63567 0.0
C1049 C 0.41405 0.22356 0.62359 0.0
C1050 C 0.4331 0.26795 0.62309 0.0
H1051 H 0.38975 0.35683 0.64885 0.0
H1052 H 0.38213 0.30745 0.64204 0.0
H1053 H 0.40863 0.32638 0.6575 0.0
H1054 H 0.45143 0.28955 0.65563 0.0
H1055 H 0.41733 0.21203 0.65662 0.0
H1056 H 0.38173 0.94459 0.40715 0.0
H1057 H 0.43617 0.92374 0.40809 0.0
H1058 H 0.42981 0.9081 0.36623 0.0
H1059 H 0.37501 0.92853 0.36517 0.0
H1060 H 0.40675 0.83322 0.38121 0.0
H1061 H 0.56214 0.96949 0.39729 0.0
H1062 H 0.51609 0.96116 0.40641 0.0
H1063 H 0.52131 0.97673 0.38956 0.0
C1064 C 0.39293 0.93816 0.39808 0.0
C1065 C 0.37351 0.93746 0.3861 0.0
C1066 C 0.42423 0.92645 0.39864 0.0
C1067 C 0.43682 0.9143 0.38724 0.0
C1068 C 0.42042 0.91743 0.37514 0.0
H1069 H 0.56248 0.77364 0.36902 0.0
H1070 H 0.52185 0.81062 0.36931 0.0
C1071 C 0.38915 0.92918 0.37455 0.0
C1072 C 0.4608 0.89133 0.38816 0.0
H1073 H 0.55582 0.90092 0.3973 0.0
C1074 C 0.43946 0.84808 0.38465 0.0
C1075 C 0.50303 0.91068 0.39291 0.0
C1076 C 0.52724 0.95716 0.39669 0.0
C1077 C 0.45932 0.82354 0.3857 0.0
C1078 C 0.5019 0.84306 0.39016 0.0
C1079 C 0.52311 0.88616 0.3939 0.0
C1080 C 0.52564 0.81974 0.39026 0.0
C1081 C 0.43437 0.77682 0.38217 0.0
C1082 C 0.5415 0.81297 0.40197 0.0
C1083 C 0.5649 0.79177 0.40186 0.0
C1084 C 0.573 0.77746 0.39 0.0
C1085 C 0.5566 0.78401 0.37833 0.0
C1086 C 0.5333 0.80508 0.37846 0.0
H1087 H 0.39941 0.76429 0.38259 0.0
H1088 H 0.44252 0.77251 0.37204 0.0
H1089 H 0.44234 0.75753 0.3888 0.0
H1090 H 0.53593 0.82425 0.41116 0.0
H1091 H 0.57741 0.78748 0.41099 0.0
H1092 H 0.77995 0.5764 0.91105 0.0
H1093 H 0.70168 0.53595 0.91088 0.0
H1094 H 0.70289 0.52167 0.86907 0.0
H1095 H 0.78054 0.56124 0.86913 0.0
H1096 H 0.64752 0.55822 0.89672 0.0
H1097 H 0.62305 0.39996 0.88207 0.0
H1098 H 0.67316 0.44179 0.88843 0.0
H1099 H 0.65918 0.44264 0.87161 0.0
C1100 C 0.7635 0.56393 0.90187 0.0
C1101 C 0.78638 0.57182 0.89011 0.0
C1102 C 0.7189 0.54115 0.90178 0.0
C1103 C 0.69673 0.52569 0.88998 0.0
C1104 C 0.7195 0.53283 0.8783 0.0
H1105 H 0.43675 0.37901 0.86483 0.0
H1106 H 0.51209 0.43365 0.8656 0.0
C1107 C 0.7639 0.55552 0.87836 0.0
C1108 C 0.64972 0.50326 0.88966 0.0
H1109 H 0.56288 0.40957 0.88052 0.0
C1110 C 0.62885 0.52561 0.89328 0.0
C1111 C 0.62572 0.46083 0.88514 0.0
C1112 C 0.64634 0.43472 0.8817 0.0
C1113 C 0.58438 0.50677 0.89218 0.0
C1114 C 0.56057 0.46463 0.88741 0.0
C1115 C 0.58146 0.44221 0.88396 0.0
C1116 C 0.51361 0.44163 0.88658 0.0
C1117 C 0.56325 0.53214 0.89587 0.0
C1118 C 0.48924 0.42982 0.89805 0.0
C1119 C 0.44617 0.39862 0.89766 0.0
C1120 C 0.4271 0.37854 0.88578 0.0
C1121 C 0.45056 0.39365 0.87414 0.0
C1122 C 0.49363 0.42483 0.87456 0.0
H1123 H 0.58655 0.56689 0.89633 0.0
H1124 H 0.53773 0.52657 0.88879 0.0
H1125 H 0.54834 0.52176 0.90565 0.0
H1126 H 0.50423 0.44208 0.90744 0.0
H1127 H 0.42887 0.38787 0.90679 0.0
H1128 H 0.19517 0.78149 0.41127 0.0
H1129 H 0.15646 0.70324 0.41135 0.0
H1130 H 0.1678 0.70271 0.36941 0.0
H1131 H 0.20675 0.78036 0.36921 0.0
H1132 H 0.07855 0.64825 0.39792 0.0
H1133 H 0.21116 0.6236 0.38195 0.0
H1134 H 0.21991 0.67392 0.38827 0.0
H1135 H 0.20351 0.65921 0.37159 0.0
C1136 C 0.19002 0.76466 0.40209 0.0
C1137 C 0.20424 0.78709 0.39024 0.0
C1138 C 0.16768 0.72006 0.40216 0.0
C1139 C 0.15964 0.69739 0.39039 0.0
C1140 C 0.17429 0.7197 0.3786 0.0
H1141 H 0.04487 0.43766 0.3655 0.0
H1142 H 0.06444 0.51261 0.36653 0.0
C1143 C 0.19652 0.7641 0.37852 0.0
C1144 C 0.13506 0.65035 0.39027 0.0
H1145 H 0.1413 0.56332 0.38095 0.0
C1146 C 0.09222 0.62952 0.39431 0.0
C1147 C 0.15316 0.62625 0.38556 0.0
C1148 C 0.19957 0.6468 0.38171 0.0
C1149 C 0.0666 0.58498 0.39341 0.0
C1150 C 0.08453 0.56109 0.3884 0.0
C1151 C 0.1275 0.58195 0.38457 0.0
C1152 C 0.06052 0.51412 0.38759 0.0
C1153 C 0.0205 0.56383 0.39756 0.0
C1154 C 0.04956 0.48976 0.39906 0.0
C1155 C 0.03831 0.44686 0.39852 0.0
C1156 C 0.03842 0.428 0.3865 0.0
C1157 C 0.04485 0.45132 0.37492 0.0
C1158 C 0.05608 0.49418 0.37548 0.0
H1159 H 0.00915 0.58713 0.39844 0.0
H1160 H -0.00015 0.53859 0.39049 0.0
H1161 H 0.01689 0.5485 0.40722 0.0
H1162 H 0.05323 0.50471 0.40851 0.0
H1163 H 0.03325 0.42969 0.40761 0.0
H1164 H 0.59519 0.0369 0.90642 0.0
H1165 H 0.54047 0.05734 0.90712 0.0
H1166 H 0.54937 0.07468 0.86533 0.0
H1167 H 0.6045 0.05469 0.86451 0.0
H1168 H 0.57348 0.1492 0.8805 0.0
H1169 H 0.41568 0.01531 0.89591 0.0
H1170 H 0.46073 0.02183 0.90519 0.0
H1171 H 0.45597 0.00692 0.88828 0.0
C1172 C 0.58441 0.04348 0.8973 0.0
C1173 C 0.60484 0.04511 0.88544 0.0
C1174 C 0.55292 0.05495 0.89773 0.0
C1175 C 0.54114 0.0677 0.88629 0.0
C1176 C 0.55817 0.06492 0.87426 0.0
H1177 H 0.42253 0.21603 0.86918 0.0
H1178 H 0.46167 0.17754 0.86905 0.0
C1179 C 0.58964 0.05344 0.87381 0.0
C1180 C 0.51818 0.09168 0.8872 0.0
H1181 H 0.42447 0.08497 0.89644 0.0
C1182 C 0.54076 0.13508 0.88388 0.0
C1183 C 0.47595 0.07329 0.89189 0.0
C1184 C 0.45042 0.02669 0.89545 0.0
C1185 C 0.5222 0.16075 0.88512 0.0
C1186 C 0.47967 0.14226 0.88956 0.0
C1187 C 0.45716 0.09895 0.89305 0.0
C1188 C 0.45736 0.16695 0.88993 0.0
C1189 C 0.54849 0.20758 0.88183 0.0
C1190 C 0.44188 0.17357 0.90175 0.0
C1191 C 0.41936 0.19566 0.90188 0.0
C1192 C 0.41176 0.211 0.89016 0.0
C1193 C 0.42805 0.20486 0.87839 0.0
C1194 C 0.45048 0.1829 0.87828 0.0
H1195 H 0.58324 0.21897 0.88223 0.0
H1196 H 0.54075 0.21284 0.87176 0.0
H1197 H 0.54138 0.22717 0.88862 0.0
H1198 H 0.44689 0.16132 0.91082 0.0
H1199 H 0.40688 0.19958 0.91107 0.0
H1200 H 0.19933 0.41118 0.41268 0.0
H1201 H 0.27751 0.45261 0.41326 0.0
H1202 H 0.27979 0.48087 0.37223 0.0
H1203 H 0.20219 0.44028 0.37157 0.0
H1204 H 0.3312 0.43368 0.39792 0.0
H1205 H 0.3612 0.5971 0.38837 0.0
H1206 H 0.31008 0.5544 0.3938 0.0
H1207 H 0.32499 0.55862 0.37686 0.0
C1208 C 0.2165 0.42709 0.40386 0.0
C1209 C 0.19468 0.42254 0.39208 0.0
C1210 C 0.26106 0.45045 0.4042 0.0
C1211 C 0.2842 0.46988 0.3928 0.0
C1212 C 0.26241 0.46662 0.38117 0.0
H1213 H 0.54041 0.60847 0.36545 0.0
H1214 H 0.46457 0.55624 0.36736 0.0
C1215 C 0.21805 0.4433 0.38081 0.0
C1216 C 0.33116 0.49134 0.39271 0.0
H1217 H 0.41978 0.58531 0.38485 0.0
C1218 C 0.35075 0.46697 0.39523 0.0
C1219 C 0.3563 0.53468 0.38918 0.0
C1220 C 0.33713 0.56286 0.38702 0.0
C1221 C 0.39499 0.48463 0.39383 0.0
C1222 C 0.4198 0.52752 0.38986 0.0
C1223 C 0.40032 0.5521 0.38767 0.0
C1224 C 0.4664 0.54865 0.38827 0.0
C1225 C 0.41486 0.45727 0.39625 0.0
C1226 C 0.49263 0.55973 0.39931 0.0
C1227 C 0.53599 0.58962 0.39828 0.0
C1228 C 0.55344 0.60901 0.38618 0.0
C1229 C 0.52789 0.59434 0.37492 0.0
C1230 C 0.48454 0.56455 0.37598 0.0
H1231 H 0.39049 0.42293 0.39709 0.0
H1232 H 0.43732 0.46136 0.38824 0.0
H1233 H 0.43338 0.46745 0.40548 0.0
H1234 H 0.47902 0.54799 0.40889 0.0
H1235 H 0.55493 0.60003 0.40712 0.0
H1236 H 0.9542 0.56121 0.90683 0.0
H1237 H 0.93553 0.48666 0.90869 0.0
H1238 H 0.9043 0.46819 0.86766 0.0
H1239 H 0.92328 0.54275 0.86566 0.0
H1240 H 0.85133 0.42713 0.90356 0.0
H1241 H 0.95903 0.39439 0.87347 0.0
H1242 H 0.97353 0.44737 0.87899 0.0
H1243 H 0.93954 0.42461 0.86498 0.0
C1244 C 0.94484 0.5417 0.89809 0.0
C1245 C 0.9395 0.55763 0.88614 0.0
C1246 C 0.93419 0.49912 0.89918 0.0
C1247 C 0.91843 0.47196 0.88833 0.0
C1248 C 0.91698 0.48879 0.87612 0.0
H1249 H 0.76398 0.20792 0.8707 0.0
H1250 H 0.80457 0.28569 0.8714 0.0
C1251 C 0.92772 0.53144 0.875 0.0
C1252 C 0.89643 0.4253 0.8902 0.0
H1253 H 0.89071 0.33414 0.87879 0.0
C1254 C 0.86033 0.40675 0.89834 0.0
C1255 C 0.90811 0.39899 0.88327 0.0
C1256 C 0.94741 0.41735 0.87478 0.0
C1257 C 0.83445 0.3624 0.89929 0.0
C1258 C 0.84548 0.33605 0.89209 0.0
C1259 C 0.8823 0.35457 0.88425 0.0
C1260 C 0.81832 0.28918 0.89208 0.0
C1261 C 0.79454 0.34415 0.90753 0.0
C1262 C 0.81188 0.26555 0.90356 0.0
C1263 C 0.78827 0.22103 0.90323 0.0
C1264 C 0.77123 0.19959 0.89137 0.0
C1265 C 0.77666 0.2235 0.87999 0.0
C1266 C 0.80005 0.2679 0.88035 0.0
H1267 H 0.78575 0.36861 0.91007 0.0
H1268 H 0.76725 0.31745 0.90238 0.0
H1269 H 0.79993 0.33151 0.91677 0.0
H1270 H 0.82623 0.28147 0.91268 0.0
H1271 H 0.785 0.20347 0.91213 0.0
H1272 H 0.17453 0.4028 0.31841 0.0
H1273 H 0.19652 0.40436 0.29572 0.0
H1274 H 0.0788 0.28766 0.28802 0.0
H1275 H 0.05619 0.2867 0.31066 0.0
H1276 H 0.21164 0.34887 0.28334 0.0
H1277 H 0.0824 0.35879 0.25749 0.0
H1278 H 0.09051 0.36689 0.27488 0.0
H1279 H 0.06272 0.31373 0.26824 0.0
C1280 C 0.15316 0.37775 0.31182 0.0
C1281 C 0.11359 0.34471 0.31626 0.0
C1282 C 0.16576 0.37863 0.29887 0.0
C1283 C 0.13918 0.34639 0.2901 0.0
C1284 C 0.09943 0.31348 0.29449 0.0
H1285 H 0.22818 0.29025 0.21731 0.0
H1286 H 0.20715 0.29125 0.24003 0.0
C1287 C 0.08656 0.31288 0.30743 0.0
C1288 C 0.1541 0.3464 0.27656 0.0
H1289 H 0.12793 0.34414 0.24442 0.0
C1290 C 0.19342 0.34804 0.27483 0.0
C1291 C 0.13058 0.34578 0.26544 0.0
C1292 C 0.08943 0.34664 0.26657 0.0
C1293 C 0.20977 0.34889 0.26231 0.0
C1294 C 0.18557 0.34683 0.2512 0.0
C1295 C 0.14634 0.34538 0.25293 0.0
C1296 C 0.2006 0.34717 0.23765 0.0
C1297 C 0.25328 0.35308 0.26115 0.0
C1298 C 0.20344 0.37786 0.22871 0.0
C1299 C 0.21483 0.37693 0.21573 0.0
C1300 C 0.22382 0.34539 0.21142 0.0
C1301 C 0.22203 0.31527 0.22043 0.0
C1302 C 0.2101 0.3159 0.23341 0.0
H1303 H 0.27249 0.36683 0.27016 0.0
H1304 H 0.24948 0.32101 0.25966 0.0
H1305 H 0.27127 0.37351 0.25273 0.0
H1306 H 0.19634 0.40232 0.23174 0.0
H1307 H 0.21618 0.40066 0.209 0.0
H1308 H 0.89484 0.28165 0.71726 0.0
H1309 H 0.87386 0.26234 0.74017 0.0
H1310 H 0.84747 0.13433 0.73237 0.0
H1311 H 0.86938 0.15359 0.70969 0.0
H1312 H 0.79354 0.19883 0.74897 0.0
H1313 H 0.91987 0.16541 0.7654 0.0
H1314 H 0.92446 0.19458 0.75061 0.0
H1315 H 0.89315 0.13729 0.75079 0.0
C1316 C 0.88539 0.24967 0.72051 0.0
C1317 C 0.88366 0.21913 0.71166 0.0
C1318 C 0.87315 0.2386 0.73356 0.0
C1319 C 0.85949 0.19701 0.738 0.0
C1320 C 0.85855 0.16678 0.72923 0.0
H1321 H 0.75495 0.05465 0.80986 0.0
H1322 H 0.7771 0.07656 0.78719 0.0
C1323 C 0.87067 0.17775 0.71623 0.0
C1324 C 0.84394 0.1843 0.75158 0.0
H1325 H 0.85942 0.14155 0.77935 0.0
C1326 C 0.80814 0.18666 0.75566 0.0
C1327 C 0.86289 0.16817 0.76025 0.0
C1328 C 0.90246 0.16654 0.75661 0.0
C1329 C 0.7902 0.17243 0.7681 0.0
C1330 C 0.80896 0.15599 0.77673 0.0
C1331 C 0.8449 0.15387 0.77267 0.0
C1332 C 0.79262 0.14195 0.79017 0.0
C1333 C 0.75075 0.1742 0.7718 0.0
C1334 C 0.79377 0.17137 0.79931 0.0
C1335 C 0.78103 0.15894 0.8122 0.0
C1336 C 0.7671 0.11685 0.81626 0.0
C1337 C 0.76509 0.08715 0.80701 0.0
C1338 C 0.778 0.09969 0.79409 0.0
H1339 H 0.73407 0.17695 0.76307 0.0
H1340 H 0.72813 0.14538 0.7774 0.0
H1341 H 0.76003 0.20254 0.77806 0.0
H1342 H 0.80551 0.20427 0.79654 0.0
H1343 H 0.78262 0.18248 0.81907 0.0
H1344 H 0.59241 0.80251 0.20775 0.0
H1345 H 0.59273 0.78114 0.23038 0.0
H1346 H 0.68836 0.91018 0.23999 0.0
H1347 H 0.68821 0.93184 0.21732 0.0
H1348 H 0.66161 0.78607 0.24365 0.0
H1349 H 0.6006 0.88033 0.26904 0.0
H1350 H 0.596 0.87175 0.2516 0.0
H1351 H 0.64567 0.91144 0.25864 0.0
C1352 C 0.61337 0.82641 0.2147 0.0
C1353 C 0.64039 0.86887 0.21074 0.0
C1354 C 0.61343 0.81415 0.22763 0.0
C1355 C 0.64029 0.8441 0.2369 0.0
C1356 C 0.66675 0.88671 0.23306 0.0
H1357 H 0.70432 0.834 0.31752 0.0
H1358 H 0.70076 0.85308 0.29486 0.0
C1359 C 0.66663 0.89905 0.22011 0.0
C1360 C 0.64215 0.83014 0.25038 0.0
H1361 H 0.62861 0.84657 0.28245 0.0
C1362 C 0.65414 0.79907 0.25214 0.0
C1363 C 0.6324 0.84718 0.26143 0.0
C1364 C 0.61756 0.87923 0.26012 0.0
C1365 C 0.65755 0.78526 0.26467 0.0
C1366 C 0.64812 0.80255 0.27571 0.0
C1367 C 0.63589 0.83342 0.27396 0.0
C1368 C 0.65151 0.78977 0.28922 0.0
C1369 C 0.67227 0.75313 0.26601 0.0
C1370 C 0.62518 0.74769 0.29355 0.0
C1371 C 0.62707 0.73665 0.30655 0.0
C1372 C 0.65504 0.76765 0.31545 0.0
C1373 C 0.68196 0.80952 0.31097 0.0
C1374 C 0.68008 0.82047 0.29801 0.0
H1375 H 0.6877 0.75061 0.25692 0.0
H1376 H 0.69516 0.76168 0.27423 0.0
H1377 H 0.64433 0.72128 0.26809 0.0
H1378 H 0.6024 0.72366 0.28697 0.0
H1379 H 0.60561 0.70428 0.30973 0.0
H1380 H 0.84129 0.68483 0.70585 0.0
H1381 H 0.86372 0.68562 0.72832 0.0
H1382 H 0.7323 0.621 0.74082 0.0
H1383 H 0.70929 0.61799 0.71815 0.0
H1384 H 0.85405 0.72199 0.74964 0.0
H1385 H 0.77421 0.54701 0.75709 0.0
H1386 H 0.7792 0.57061 0.7412 0.0
H1387 H 0.73827 0.56519 0.75232 0.0
C1388 C 0.81698 0.67008 0.71332 0.0
C1389 C 0.77337 0.65066 0.71012 0.0
C1390 C 0.82995 0.67093 0.7262 0.0
C1391 C 0.79971 0.65263 0.73623 0.0
C1392 C 0.75618 0.63437 0.73319 0.0
H1393 H 0.85431 0.7029 0.81866 0.0
H1394 H 0.83399 0.70132 0.79589 0.0
C1395 C 0.74309 0.6332 0.72024 0.0
C1396 C 0.8142 0.65359 0.74987 0.0
H1397 H 0.80502 0.59042 0.77587 0.0
C1398 C 0.84341 0.69319 0.75536 0.0
C1399 C 0.80096 0.61595 0.75725 0.0
C1400 C 0.77178 0.57224 0.75163 0.0
C1401 C 0.85923 0.69628 0.76807 0.0
C1402 C 0.84461 0.65882 0.77564 0.0
C1403 C 0.81595 0.61914 0.77009 0.0
C1404 C 0.85785 0.66021 0.78944 0.0
C1405 C 0.89203 0.7396 0.77316 0.0
C1406 C 0.87725 0.63684 0.79348 0.0
C1407 C 0.88827 0.63703 0.8066 0.0
C1408 C 0.87982 0.66039 0.81593 0.0
C1409 C 0.8608 0.68409 0.81178 0.0
C1410 C 0.84964 0.68371 0.79872 0.0
H1411 H 0.90939 0.76209 0.76505 0.0
H1412 H 0.87573 0.7532 0.77894 0.0
H1413 H 0.91565 0.73745 0.77955 0.0
H1414 H 0.88364 0.61826 0.78648 0.0
H1415 H 0.90241 0.61806 0.80948 0.0
H1416 H 0.0507 0.75075 0.2175 0.0
H1417 H 0.07265 0.77272 0.24018 0.0
H1418 H 0.20118 0.80436 0.23054 0.0
H1419 H 0.17956 0.78246 0.20793 0.0
H1420 H 0.11136 0.74524 0.25886 0.0
H1421 H 0.21654 0.91583 0.24602 0.0
H1422 H 0.17772 0.87771 0.2348 0.0
H1423 H 0.22778 0.87955 0.23727 0.0
C1424 C 0.08348 0.76184 0.22026 0.0
C1425 C 0.11351 0.76535 0.21089 0.0
C1426 C 0.09603 0.77459 0.23319 0.0
C1427 C 0.13875 0.79109 0.23695 0.0
C1428 C 0.16831 0.7928 0.22776 0.0
H1429 H 0.27624 0.89284 0.31018 0.0
H1430 H 0.25652 0.86947 0.28746 0.0
C1431 C 0.15587 0.78018 0.21486 0.0
C1432 C 0.15259 0.80697 0.25043 0.0
H1433 H 0.21877 0.89635 0.26798 0.0
C1434 C 0.13473 0.77829 0.26087 0.0
C1435 C 0.1832 0.85011 0.253 0.0
C1436 C 0.20221 0.88274 0.24221 0.0
C1437 C 0.14705 0.79147 0.27383 0.0
C1438 C 0.17748 0.83464 0.2764 0.0
C1439 C 0.19554 0.86327 0.26596 0.0
C1440 C 0.19005 0.85085 0.28991 0.0
C1441 C 0.12789 0.7589 0.28463 0.0
C1442 C 0.15954 0.84941 0.29866 0.0
C1443 C 0.17071 0.86286 0.31156 0.0
C1444 C 0.21272 0.87823 0.31599 0.0
C1445 C 0.24369 0.88131 0.30706 0.0
C1446 C 0.23242 0.86776 0.29411 0.0
H1447 H 0.11416 0.72583 0.28086 0.0
H1448 H 0.15212 0.76435 0.29219 0.0
H1449 H 0.10182 0.7617 0.28938 0.0
H1450 H 0.12693 0.83754 0.29552 0.0
H1451 H 0.14631 0.86095 0.31812 0.0
H1452 H 0.38071 0.20221 0.81878 0.0
H1453 H 0.38063 0.18199 0.79599 0.0
H1454 H 0.28608 0.21726 0.78682 0.0
H1455 H 0.28589 0.23751 0.80967 0.0
H1456 H 0.31119 0.11928 0.78232 0.0
H1457 H 0.37545 0.27688 0.75814 0.0
H1458 H 0.3796 0.27139 0.77553 0.0
H1459 H 0.33028 0.26258 0.76854 0.0
C1460 C 0.35998 0.20582 0.81191 0.0
C1461 C 0.33315 0.22132 0.81604 0.0
C1462 C 0.36009 0.19437 0.79888 0.0
C1463 C 0.33361 0.1984 0.78969 0.0
C1464 C 0.30736 0.21463 0.79371 0.0
H1465 H 0.27582 0.13147 0.70816 0.0
H1466 H 0.27781 0.15305 0.73088 0.0
C1467 C 0.30729 0.2262 0.80676 0.0
C1468 C 0.33203 0.18356 0.77608 0.0
H1469 H 0.34835 0.21631 0.74427 0.0
C1470 C 0.31951 0.14052 0.774 0.0
C1471 C 0.34286 0.21133 0.76525 0.0
C1472 C 0.35818 0.25821 0.76693 0.0
C1473 C 0.31677 0.12429 0.76135 0.0
C1474 C 0.32751 0.15203 0.75052 0.0
C1475 C 0.34011 0.19509 0.7526 0.0
C1476 C 0.32534 0.13701 0.7369 0.0
C1477 C 0.30144 0.0774 0.75966 0.0
C1478 C 0.35132 0.12064 0.73275 0.0
C1479 C 0.35032 0.1083 0.71972 0.0
C1480 C 0.32361 0.11254 0.71061 0.0
C1481 C 0.2972 0.12837 0.71488 0.0
C1482 C 0.29818 0.1406 0.72788 0.0
H1483 H 0.28462 0.05877 0.76851 0.0
H1484 H 0.2796 0.06414 0.75116 0.0
H1485 H 0.32927 0.07306 0.75788 0.0
H1486 H 0.37309 0.11831 0.7395 0.0
H1487 H 0.37142 0.09675 0.7167 0.0
H1488 H 0.26648 0.30055 0.95691 0.0
H1489 H 0.25836 0.30761 0.98031 0.0
H1490 H 0.33441 0.24918 0.98858 0.0
H1491 H 0.34448 0.24387 0.96519 0.0
H1492 H 0.22223 0.2464 0.99899 0.0
H1493 H 0.39269 0.35579 1.01078 0.0
H1494 H 0.37305 0.34493 0.99421 0.0
H1495 H 0.38316 0.3076 1.00284 0.0
C1496 C 0.28215 0.28986 0.96369 0.0
C1497 C 0.30652 0.27201 0.95913 0.0
C1498 C 0.27714 0.29359 0.97707 0.0
C1499 C 0.29636 0.27959 0.9862 0.0
C1500 C 0.32007 0.26108 0.98172 0.0
H1501 H 0.29166 0.26191 0.07066 0.0
H1502 H 0.29977 0.25516 0.04722 0.0
C1503 C 0.32531 0.25754 0.96832 0.0
C1504 C 0.29072 0.28356 1.0004 0.0
H1505 H 0.34527 0.32604 0.02879 0.0
C1506 C 0.24912 0.264 1.00549 0.0
C1507 C 0.32586 0.30664 1.00887 0.0
C1508 C 0.37118 0.33029 1.0039 0.0
C1509 C 0.24175 0.26629 0.01886 0.0
C1510 C 0.27688 0.28896 0.02732 0.0
C1511 C 0.31845 0.30854 0.02226 0.0
C1512 C 0.27119 0.29272 0.04148 0.0
C1513 C 0.19652 0.24385 0.02391 0.0
C1514 C 0.25267 0.31635 0.046 0.0
C1515 C 0.2484 0.32073 0.05941 0.0
C1516 C 0.26262 0.30155 0.06855 0.0
C1517 C 0.28096 0.27769 0.06393 0.0
C1518 C 0.28541 0.27354 0.05054 0.0
H1519 H 0.17371 0.22095 0.01666 0.0
H1520 H 0.19407 0.22641 0.03309 0.0
H1521 H 0.18687 0.26785 0.02611 0.0
H1522 H 0.2421 0.33193 0.03914 0.0
H1523 H 0.23478 0.33989 0.0626 0.0
H1524 H 0.95888 0.25657 0.45648 0.0
H1525 H 0.943 0.24859 0.47987 0.0
H1526 H 0.07329 0.3437 0.48827 0.0
H1527 H 0.08948 0.35198 0.46486 0.0
H1528 H 0.04293 0.27213 0.50414 0.0
H1529 H 0.92956 0.33313 0.50303 0.0
H1530 H 0.91635 0.28991 0.4919 0.0
H1531 H 0.96465 0.34002 0.48956 0.0
C1532 C 0.98408 0.27611 0.4633 0.0
C1533 C 0.02539 0.30516 0.4588 0.0
C1534 C 0.97493 0.27151 0.47666 0.0
C1535 C 0.00678 0.29608 0.48579 0.0
C1536 C 0.04821 0.32454 0.48137 0.0
H1537 H 0.97024 0.33567 0.56726 0.0
H1538 H 0.98655 0.34282 0.5439 0.0
C1539 C 0.05744 0.3291 0.468 0.0
C1540 C -0.00302 0.29175 0.49997 0.0
H1541 H 0.93395 0.30173 0.52291 0.0
C1542 C 0.01918 0.27868 0.50826 0.0
C1543 C 0.96636 0.30085 0.50534 0.0
C1544 C 0.94311 0.31715 0.49703 0.0
C1545 C 0.01114 0.27386 0.52176 0.0
C1546 C 0.97956 0.28165 0.52706 0.0
C1547 C 0.95781 0.29532 0.5188 0.0
C1548 C 0.96931 0.27684 0.54121 0.0
C1549 C 0.03712 0.26127 0.53025 0.0
C1550 C 0.95358 0.2372 0.54741 0.0
C1551 C 0.94453 0.23306 0.5608 0.0
C1552 C 0.9508 0.26847 0.56822 0.0
C1553 C 0.96574 0.30793 0.56189 0.0
C1554 C 0.9748 0.31202 0.54852 0.0
H1555 H 0.06695 0.26723 0.52531 0.0
H1556 H 0.04562 0.27901 0.53964 0.0
H1557 H 0.01805 0.22669 0.53247 0.0
H1558 H 0.94832 0.20943 0.5419 0.0
H1559 H 0.93335 0.2023 0.56536 0.0
H1560 H 0.7221 0.93809 0.06479 0.0
H1561 H 0.72876 0.95359 0.04137 0.0
H1562 H 0.63904 -0.00148 0.04474 0.0
H1563 H 0.6311 0.98184 0.06808 0.0
H1564 H 0.62284 0.94448 0.02357 0.0
H1565 H 0.79284 0.07233 0.02476 0.0
H1566 H 0.78281 0.02282 0.03187 0.0
H1567 H 0.76071 0.05246 0.03934 0.0
C1568 C 0.70351 0.95094 0.06054 0.0
C1569 C 0.67621 0.95891 0.06834 0.0
C1570 C 0.70774 0.96025 0.04718 0.0
C1571 C 0.68496 0.97789 0.04137 0.0
C1572 C 0.65719 0.98526 0.04906 0.0
H1573 H 0.72903 0.0962 0.9647 0.0
H1574 H 0.72138 0.08096 0.98816 0.0
C1575 C 0.65293 0.97598 0.06241 0.0
C1576 C 0.68945 0.98803 0.02722 0.0
H1577 H 0.76169 0.04865 1.00379 0.0
C1578 C 0.65316 0.96732 0.01924 0.0
C1579 C 0.72892 0.01828 0.02164 0.0
C1580 C 0.7685 0.0431 0.02984 0.0
C1581 C 0.65542 0.97552 1.00577 0.0
C1582 C 0.69519 0.00472 1.00012 0.0
C1583 C 0.73133 0.02598 1.00813 0.0
C1584 C 0.69993 0.0138 0.9859 0.0
C1585 C 0.61509 0.95336 0.99775 0.0
C1586 C 0.69099 0.98121 0.97687 0.0
C1587 C 0.69543 0.98982 0.96348 0.0
C1588 C 0.7092 0.0313 0.95884 0.0
C1589 C 0.71871 0.06401 0.96794 0.0
C1590 C 0.71419 0.05533 0.98134 0.0
H1591 H 0.58611 0.9411 1.00396 0.0
H1592 H 0.61424 0.97521 0.9903 0.0
H1593 H 0.6139 0.92581 0.9926 0.0
H1594 H 0.68091 0.94915 0.98019 0.0
H1595 H 0.68866 0.96408 0.95675 0.0
H1596 H 0.69284 0.72737 0.57025 0.0
H1597 H 0.6847 0.73464 0.54683 0.0
H1598 H 0.71909 0.63879 0.53874 0.0
H1599 H 0.72707 0.6311 0.56216 0.0
H1600 H 0.76133 0.71096 0.52291 0.0
H1601 H 0.58677 0.64954 0.52356 0.0
H1602 H 0.61661 0.69259 0.53476 0.0
H1603 H 0.6146 0.6424 0.53708 0.0
C1604 C 0.69821 0.70748 0.5635 0.0
C1605 C 0.71037 0.67846 0.56809 0.0
C1606 C 0.69355 0.71169 0.55012 0.0
C1607 C 0.70065 0.68679 0.54107 0.0
C1608 C 0.71334 0.65822 0.54558 0.0
H1609 H 0.62809 0.64692 0.4593 0.0
H1610 H 0.63641 0.63954 0.48271 0.0
C1611 C 0.71807 0.65401 0.55896 0.0
C1612 C 0.69555 0.69102 0.52687 0.0
H1613 H 0.62306 0.68053 0.5037 0.0
C1614 C 0.7311 0.70423 0.51869 0.0
C1615 C 0.65593 0.68171 0.52139 0.0
C1616 C 0.61616 0.66538 0.52961 0.0
C1617 C 0.72826 0.709 0.50518 0.0
C1618 C 0.68896 0.70094 0.49976 0.0
C1619 C 0.65325 0.68711 0.50791 0.0
C1620 C 0.684 0.70583 0.48559 0.0
C1621 C 0.76715 0.72189 0.49679 0.0
C1622 C 0.70758 0.7457 0.47949 0.0
C1623 C 0.70311 0.74998 0.4661 0.0
C1624 C 0.6748 0.71448 0.45856 0.0
C1625 C 0.65068 0.67475 0.46477 0.0
C1626 C 0.65517 0.67052 0.47816 0.0
H1627 H 0.79113 0.71639 0.50185 0.0
H1628 H 0.7583 0.70398 0.48743 0.0
H1629 H 0.78235 0.7564 0.49451 0.0
H1630 H 0.72947 0.77352 0.4851 0.0
H1631 H 0.72238 0.78096 0.46161 0.0
H1632 H 0.92991 0.72161 0.96208 0.0
H1633 H 0.94559 0.73024 0.98549 0.0
H1634 H -0.00861 0.64103 0.98316 0.0
H1635 H 0.97447 0.63106 0.95985 0.0
H1636 H 0.93813 0.62643 1.00432 0.0
H1637 H 0.06453 0.79674 1.00176 0.0
H1638 H 0.0146 0.78559 0.99468 0.0
H1639 H 0.04441 0.76329 0.98745 0.0
C1640 C 0.94292 0.70349 0.96657 0.0
C1641 C 0.95111 0.67578 0.95907 0.0
C1642 C 0.95235 0.70887 0.97992 0.0
C1643 C 0.97038 0.68687 0.98601 0.0
C1644 C 0.97785 0.6586 0.97862 0.0
H1645 H 0.09112 0.73851 0.06244 0.0
H1646 H 0.07535 0.72965 0.03901 0.0
C1647 C 0.96841 0.65317 0.96528 0.0
C1648 C 0.98091 0.6928 1.00013 0.0
H1649 H 0.04163 0.76748 0.02298 0.0
C1650 C 0.96082 0.65723 1.00841 0.0
C1651 C 0.01099 0.73291 1.00539 0.0
C1652 C 0.03523 0.77177 0.99686 0.0
C1653 C 0.96947 0.66081 0.02186 0.0
C1654 C -0.00154 0.70121 0.02719 0.0
C1655 C 0.0191 0.73664 0.01888 0.0
C1656 C 0.008 0.70728 0.04137 0.0
C1657 C 0.94804 0.62118 0.03021 0.0
C1658 C 0.97551 0.69839 0.05044 0.0
C1659 C 0.98442 0.70348 0.06381 0.0
C1660 C 0.0261 0.71791 0.06838 0.0
C1661 C 0.05877 0.72766 0.05924 0.0
C1662 C 0.04978 0.72245 0.04586 0.0
H1663 H 0.93604 0.59172 0.02424 0.0
H1664 H 0.97028 0.62138 0.03771 0.0
H1665 H 0.92037 0.61993 0.0353 0.0
H1666 H 0.94325 0.68765 0.04717 0.0
H1667 H 0.95871 0.6965 0.07058 0.0
H1668 H 0.33598 0.97523 0.45975 0.0
H1669 H 0.343 0.99141 0.4831 0.0
H1670 H 0.20826 0.94723 0.48546 0.0
H1671 H 0.20117 0.93234 0.46199 0.0
H1672 H 0.25811 0.02461 0.498 0.0
H1673 H 0.30408 0.906 0.51318 0.0
H1674 H 0.33714 0.94139 0.5005 0.0
H1675 H 0.28166 0.90476 0.49733 0.0
C1676 C 0.30784 0.96913 0.46521 0.0
C1677 C 0.26797 0.95239 0.45899 0.0
C1678 C 0.31184 0.97796 0.47859 0.0
C1679 C 0.27604 0.96992 0.48605 0.0
C1680 C 0.23624 0.95337 0.47989 0.0
H1681 H 0.26009 0.96463 0.57065 0.0
H1682 H 0.25087 0.94791 0.54732 0.0
C1683 C 0.23219 0.94456 0.4665 0.0
C1684 C 0.2803 0.97978 0.50021 0.0
H1685 H 0.31093 0.95668 0.52918 0.0
C1686 C 0.2695 0.00967 0.50484 0.0
C1687 C 0.29471 0.95986 0.50912 0.0
C1688 C 0.30469 0.92591 0.50483 0.0
C1689 C 0.27336 0.0207 0.51812 0.0
C1690 C 0.28911 0.00182 0.52696 0.0
C1691 C 0.29927 0.97143 0.52236 0.0
C1692 C 0.29458 0.0125 0.54107 0.0
C1693 C 0.25985 0.0519 0.52261 0.0
C1694 C 0.32253 0.05432 0.5453 0.0
C1695 C 0.32793 0.06398 0.55865 0.0
C1696 C 0.30579 0.03188 0.568 0.0
C1697 C 0.27802 0.98998 0.56371 0.0
C1698 C 0.27255 0.9804 0.55038 0.0
H1699 H 0.23834 0.05466 0.51542 0.0
H1700 H 0.24329 0.04227 0.53219 0.0
H1701 H 0.28855 0.0839 0.52374 0.0
H1702 H 0.34058 0.07939 0.53829 0.0
H1703 H 0.35002 0.09642 0.56164 0.0
loop_
_geom_bond_atom_site_label_1
_geom_bond_atom_site_label_2
_geom_bond_distance
_geom_bond_site_symmetry_2
_ccdc_geom_bond_type
C0 O16 1.251 . S
C0 O18 1.254 . S
N1 C2 1.333 . S
N1 C6 1.307 . S
N1 Zn7 2.020 . S
C2 N1 1.333 . S
C2 C3 1.379 . S
C2 H20 0.952 . S
C3 C2 1.379 . S
C3 C4 1.390 . S
C3 H30 0.949 . S
C4 C3 1.390 . S
C4 C5 1.357 . S
C5 C4 1.357 . S
C5 C6 1.370 . S
C5 H31 0.950 . S
C6 N1 1.307 . S
C6 C5 1.370 . S
C6 H24 0.948 . S
Zn7 N1 2.020 . S
Zn7 O16 2.039 . S
Zn7 O22 2.034 . S
Zn7 O26 2.025 . S
Zn7 O28 2.024 . S
C8 O27 1.246 . S
C8 O28 1.249 . S
N9 C10 1.307 . S
N9 C11 1.333 . S
N9 Zn15 2.020 . S
C10 N9 1.307 . S
C10 C14 1.370 . S
C10 H21 0.948 . S
C11 N9 1.333 . S
C11 C12 1.379 . S
C11 H19 0.952 . S
C12 C11 1.379 . S
C12 C13 1.390 . S
C12 H32 0.949 . S
C13 C12 1.390 . S
C13 C14 1.357 . S
C14 C10 1.370 . S
C14 C13 1.357 . S
C14 H33 0.950 . S
Zn15 N9 2.020 . S
Zn15 O18 2.025 . S
Zn15 O23 2.024 . S
Zn15 O25 2.039 . S
Zn15 O27 2.034 . S
O16 C0 1.251 . S
O16 Zn7 2.039 . S
C17 O22 1.246 . S
C17 O23 1.249 . S
O18 C0 1.254 . S
O18 Zn15 2.025 . S
H19 C11 0.952 . S
H20 C2 0.952 . S
H21 C10 0.948 . S
O22 Zn7 2.034 . S
O22 C17 1.246 . S
O23 Zn15 2.024 . S
O23 C17 1.249 . S
H24 C6 0.948 . S
O25 Zn15 2.039 . S
O25 C29 1.251 . S
O26 Zn7 2.025 . S
O26 C29 1.254 . S
O27 C8 1.246 . S
O27 Zn15 2.034 . S
O28 Zn7 2.024 . S
O28 C8 1.249 . S
C29 O25 1.251 . S
C29 O26 1.254 . S
H30 C3 0.949 . S
H31 C5 0.950 . S
H32 C12 0.949 . S
H33 C14 0.950 . S
C34 O50 1.251 . S
C34 O52 1.254 . S
N35 C36 1.333 . S
N35 C40 1.307 . S
N35 Zn41 2.020 . S
C36 N35 1.333 . S
C36 C37 1.379 . S
C36 H54 0.952 . S
C37 C36 1.379 . S
C37 C38 1.390 . S
C37 H64 0.949 . S
C38 C37 1.390 . S
C38 C39 1.357 . S
C39 C38 1.357 . S
C39 C40 1.370 . S
C39 H65 0.950 . S
C40 N35 1.307 . S
C40 C39 1.370 . S
C40 H58 0.948 . S
Zn41 N35 2.020 . S
Zn41 O50 2.039 . S
Zn41 O56 2.034 . S
Zn41 O60 2.025 . S
Zn41 O62 2.024 . S
C42 O61 1.246 . S
C42 O62 1.249 . S
N43 C44 1.307 . S
N43 C45 1.333 . S
N43 Zn49 2.020 . S
C44 N43 1.307 . S
C44 C48 1.370 . S
C44 H55 0.948 . S
C45 N43 1.333 . S
C45 C46 1.379 . S
C45 H53 0.952 . S
C46 C45 1.379 . S
C46 C47 1.390 . S
C46 H66 0.949 . S
C47 C46 1.390 . S
C47 C48 1.357 . S
C48 C44 1.370 . S
C48 C47 1.357 . S
C48 H67 0.950 . S
Zn49 N43 2.020 . S
Zn49 O52 2.025 . S
Zn49 O57 2.024 . S
Zn49 O59 2.039 . S
Zn49 O61 2.034 . S
O50 C34 1.251 . S
O50 Zn41 2.039 . S
C51 O56 1.246 . S
C51 O57 1.249 . S
O52 C34 1.254 . S
O52 Zn49 2.025 . S
H53 C45 0.952 . S
H54 C36 0.952 . S
H55 C44 0.948 . S
O56 Zn41 2.034 . S
O56 C51 1.246 . S
O57 Zn49 2.024 . S
O57 C51 1.249 . S
H58 C40 0.948 . S
O59 Zn49 2.039 . S
O59 C63 1.251 . S
O60 Zn41 2.025 . S
O60 C63 1.254 . S
O61 C42 1.246 . S
O61 Zn49 2.034 . S
O62 Zn41 2.024 . S
O62 C42 1.249 . S
C63 O59 1.251 . S
C63 O60 1.254 . S
H64 C37 0.949 . S
H65 C39 0.950 . S
H66 C46 0.949 . S
H67 C48 0.950 . S
C68 O84 1.251 . S
C68 O86 1.254 . S
N69 C70 1.333 . S
N69 C74 1.307 . S
N69 Zn75 2.020 . S
C70 N69 1.333 . S
C70 C71 1.379 . S
C70 H88 0.952 . S
C71 C70 1.379 . S
C71 C72 1.390 . S
C71 H98 0.949 . S
C72 C71 1.390 . S
C72 C73 1.357 . S
C73 C72 1.357 . S
C73 C74 1.370 . S
C73 H99 0.950 . S
C74 N69 1.307 . S
C74 C73 1.370 . S
C74 H92 0.948 . S
Zn75 N69 2.020 . S
Zn75 O84 2.039 . S
Zn75 O90 2.034 . S
Zn75 O94 2.025 . S
Zn75 O96 2.024 . S
C76 O95 1.246 . S
C76 O96 1.249 . S
N77 C78 1.307 . S
N77 C79 1.333 . S
N77 Zn83 2.020 . S
C78 N77 1.307 . S
C78 C82 1.370 . S
C78 H89 0.948 . S
C79 N77 1.333 . S
C79 C80 1.379 . S
C79 H87 0.952 . S
C80 C79 1.379 . S
C80 C81 1.390 . S
C80 H100 0.949 . S
C81 C80 1.390 . S
C81 C82 1.357 . S
C82 C78 1.370 . S
C82 C81 1.357 . S
C82 H101 0.950 . S
Zn83 N77 2.020 . S
Zn83 O86 2.025 . S
Zn83 O91 2.024 . S
Zn83 O93 2.039 . S
Zn83 O95 2.034 . S
O84 C68 1.251 . S
O84 Zn75 2.039 . S
C85 O90 1.246 . S
C85 O91 1.249 . S
O86 C68 1.254 . S
O86 Zn83 2.025 . S
H87 C79 0.952 . S
H88 C70 0.952 . S
H89 C78 0.948 . S
O90 Zn75 2.034 . S
O90 C85 1.246 . S
O91 Zn83 2.024 . S
O91 C85 1.249 . S
H92 C74 0.948 . S
O93 Zn83 2.039 . S
O93 C97 1.251 . S
O94 Zn75 2.025 . S
O94 C97 1.254 . S
O95 C76 1.246 . S
O95 Zn83 2.034 . S
O96 Zn75 2.024 . S
O96 C76 1.249 . S
C97 O93 1.251 . S
C97 O94 1.254 . S
H98 C71 0.949 . S
H99 C73 0.950 . S
H100 C80 0.949 . S
H101 C82 0.950 . S
C102 O118 1.251 . S
C102 O120 1.254 . S
N103 C104 1.333 . S
N103 C108 1.307 . S
N103 Zn109 2.020 . S
C104 N103 1.333 . S
C104 C105 1.379 . S
C104 H122 0.952 . S
C105 C104 1.379 . S
C105 C106 1.390 . S
C105 H132 0.949 . S
C106 C105 1.390 . S
C106 C107 1.357 . S
C107 C106 1.357 . S
C107 C108 1.370 . S
C107 H133 0.950 . S
C108 N103 1.307 . S
C108 C107 1.370 . S
C108 H126 0.948 . S
Zn109 N103 2.020 . S
Zn109 O118 2.039 . S
Zn109 O124 2.034 . S
Zn109 O128 2.025 . S
Zn109 O130 2.024 . S
C110 O129 1.246 . S
C110 O130 1.249 . S
N111 C112 1.307 . S
N111 C113 1.333 . S
N111 Zn117 2.020 . S
C112 N111 1.307 . S
C112 C116 1.370 . S
C112 H123 0.948 . S
C113 N111 1.333 . S
C113 C114 1.379 . S
C113 H121 0.952 . S
C114 C113 1.379 . S
C114 C115 1.390 . S
C114 H134 0.949 . S
C115 C114 1.390 . S
C115 C116 1.357 . S
C116 C112 1.370 . S
C116 C115 1.357 . S
C116 H135 0.950 . S
Zn117 N111 2.020 . S
Zn117 O120 2.025 . S
Zn117 O125 2.024 . S
Zn117 O127 2.039 . S
Zn117 O129 2.034 . S
O118 C102 1.251 . S
O118 Zn109 2.039 . S
C119 O124 1.246 . S
C119 O125 1.249 . S
O120 C102 1.254 . S
O120 Zn117 2.025 . S
H121 C113 0.952 . S
H122 C104 0.952 . S
H123 C112 0.948 . S
O124 Zn109 2.034 . S
O124 C119 1.246 . S
O125 Zn117 2.024 . S
O125 C119 1.249 . S
H126 C108 0.948 . S
O127 Zn117 2.039 . S
O127 C131 1.251 . S
O128 Zn109 2.025 . S
O128 C131 1.254 . S
O129 C110 1.246 . S
O129 Zn117 2.034 . S
O130 Zn109 2.024 . S
O130 C110 1.249 . S
C131 O127 1.251 . S
C131 O128 1.254 . S
H132 C105 0.949 . S
H133 C107 0.950 . S
H134 C114 0.949 . S
H135 C116 0.950 . S
C136 O152 1.251 . S
C136 O154 1.254 . S
N137 C138 1.333 . S
N137 C142 1.307 . S
N137 Zn143 2.020 . S
C138 N137 1.333 . S
C138 C139 1.379 . S
C138 H156 0.952 . S
C139 C138 1.379 . S
C139 C140 1.390 . S
C139 H166 0.949 . S
C140 C139 1.390 . S
C140 C141 1.357 . S
C141 C140 1.357 . S
C141 C142 1.370 . S
C141 H167 0.950 . S
C142 N137 1.307 . S
C142 C141 1.370 . S
C142 H160 0.948 . S
Zn143 N137 2.020 . S
Zn143 O152 2.039 . S
Zn143 O158 2.034 . S
Zn143 O162 2.025 . S
Zn143 O164 2.024 . S
C144 O163 1.246 . S
C144 O164 1.249 . S
N145 C146 1.307 . S
N145 C147 1.333 . S
N145 Zn151 2.020 . S
C146 N145 1.307 . S
C146 C150 1.370 . S
C146 H157 0.948 . S
C147 N145 1.333 . S
C147 C148 1.379 . S
C147 H155 0.952 . S
C148 C147 1.379 . S
C148 C149 1.390 . S
C148 H168 0.949 . S
C149 C148 1.390 . S
C149 C150 1.357 . S
C150 C146 1.370 . S
C150 C149 1.357 . S
C150 H169 0.950 . S
Zn151 N145 2.020 . S
Zn151 O154 2.025 . S
Zn151 O159 2.024 . S
Zn151 O161 2.039 . S
Zn151 O163 2.034 . S
O152 C136 1.251 . S
O152 Zn143 2.039 . S
C153 O158 1.246 . S
C153 O159 1.249 . S
O154 C136 1.254 . S
O154 Zn151 2.025 . S
H155 C147 0.952 . S
H156 C138 0.952 . S
H157 C146 0.948 . S
O158 Zn143 2.034 . S
O158 C153 1.246 . S
O159 Zn151 2.024 . S
O159 C153 1.249 . S
H160 C142 0.948 . S
O161 Zn151 2.039 . S
O161 C165 1.251 . S
O162 Zn143 2.025 . S
O162 C165 1.254 . S
O163 C144 1.246 . S
O163 Zn151 2.034 . S
O164 Zn143 2.024 . S
O164 C144 1.249 . S
C165 O161 1.251 . S
C165 O162 1.254 . S
H166 C139 0.949 . S
H167 C141 0.950 . S
H168 C148 0.949 . S
H169 C150 0.950 . S
C170 O186 1.251 . S
C170 O188 1.254 . S
N171 C172 1.333 . S
N171 C176 1.307 . S
N171 Zn177 2.020 . S
C172 N171 1.333 . S
C172 C173 1.379 . S
C172 H190 0.952 . S
C173 C172 1.379 . S
C173 C174 1.390 . S
C173 H200 0.949 . S
C174 C173 1.390 . S
C174 C175 1.357 . S
C175 C174 1.357 . S
C175 C176 1.370 . S
C175 H201 0.950 . S
C176 N171 1.307 . S
C176 C175 1.370 . S
C176 H194 0.948 . S
Zn177 N171 2.020 . S
Zn177 O186 2.039 . S
Zn177 O192 2.034 . S
Zn177 O196 2.025 . S
Zn177 O198 2.024 . S
C178 O197 1.246 . S
C178 O198 1.249 . S
N179 C180 1.307 . S
N179 C181 1.333 . S
N179 Zn185 2.020 . S
C180 N179 1.307 . S
C180 C184 1.370 . S
C180 H191 0.948 . S
C181 N179 1.333 . S
C181 C182 1.379 . S
C181 H189 0.952 . S
C182 C181 1.379 . S
C182 C183 1.390 . S
C182 H202 0.949 . S
C183 C182 1.390 . S
C183 C184 1.357 . S
C184 C180 1.370 . S
C184 C183 1.357 . S
C184 H203 0.950 . S
Zn185 N179 2.020 . S
Zn185 O188 2.025 . S
Zn185 O193 2.024 . S
Zn185 O195 2.039 . S
Zn185 O197 2.034 . S
O186 C170 1.251 . S
O186 Zn177 2.039 . S
C187 O192 1.246 . S
C187 O193 1.249 . S
O188 C170 1.254 . S
O188 Zn185 2.025 . S
H189 C181 0.952 . S
H190 C172 0.952 . S
H191 C180 0.948 . S
O192 Zn177 2.034 . S
O192 C187 1.246 . S
O193 Zn185 2.024 . S
O193 C187 1.249 . S
H194 C176 0.948 . S
O195 Zn185 2.039 . S
O195 C199 1.251 . S
O196 Zn177 2.025 . S
O196 C199 1.254 . S
O197 C178 1.246 . S
O197 Zn185 2.034 . S
O198 Zn177 2.024 . S
O198 C178 1.249 . S
C199 O195 1.251 . S
C199 O196 1.254 . S
H200 C173 0.949 . S
H201 C175 0.950 . S
H202 C182 0.949 . S
H203 C184 0.950 . S
C204 O220 1.251 . S
C204 O222 1.254 . S
N205 C206 1.333 . S
N205 C210 1.307 . S
N205 Zn211 2.020 . S
C206 N205 1.333 . S
C206 C207 1.379 . S
C206 H224 0.952 . S
C207 C206 1.379 . S
C207 C208 1.390 . S
C207 H234 0.949 . S
C208 C207 1.390 . S
C208 C209 1.357 . S
C209 C208 1.357 . S
C209 C210 1.370 . S
C209 H235 0.950 . S
C210 N205 1.307 . S
C210 C209 1.370 . S
C210 H228 0.948 . S
Zn211 N205 2.020 . S
Zn211 O220 2.039 . S
Zn211 O226 2.034 . S
Zn211 O230 2.025 . S
Zn211 O232 2.024 . S
C212 O231 1.246 . S
C212 O232 1.249 . S
N213 C214 1.307 . S
N213 C215 1.333 . S
N213 Zn219 2.020 . S
C214 N213 1.307 . S
C214 C218 1.370 . S
C214 H225 0.948 . S
C215 N213 1.333 . S
C215 C216 1.379 . S
C215 H223 0.952 . S
C216 C215 1.379 . S
C216 C217 1.390 . S
C216 H236 0.949 . S
C217 C216 1.390 . S
C217 C218 1.357 . S
C218 C214 1.370 . S
C218 C217 1.357 . S
C218 H237 0.950 . S
Zn219 N213 2.020 . S
Zn219 O222 2.025 . S
Zn219 O227 2.024 . S
Zn219 O229 2.039 . S
Zn219 O231 2.034 . S
O220 C204 1.251 . S
O220 Zn211 2.039 . S
C221 O226 1.246 . S
C221 O227 1.249 . S
O222 C204 1.254 . S
O222 Zn219 2.025 . S
H223 C215 0.952 . S
H224 C206 0.952 . S
H225 C214 0.948 . S
O226 Zn211 2.034 . S
O226 C221 1.246 . S
O227 Zn219 2.024 . S
O227 C221 1.249 . S
H228 C210 0.948 . S
O229 Zn219 2.039 . S
O229 C233 1.251 . S
O230 Zn211 2.025 . S
O230 C233 1.254 . S
O231 C212 1.246 . S
O231 Zn219 2.034 . S
O232 Zn211 2.024 . S
O232 C212 1.249 . S
C233 O229 1.251 . S
C233 O230 1.254 . S
H234 C207 0.949 . S
H235 C209 0.950 . S
H236 C216 0.949 . S
H237 C218 0.950 . S
C238 O254 1.251 . S
C238 O256 1.254 . S
N239 C240 1.333 . S
N239 C244 1.307 . S
N239 Zn245 2.020 . S
C240 N239 1.333 . S
C240 C241 1.379 . S
C240 H258 0.952 . S
C241 C240 1.379 . S
C241 C242 1.390 . S
C241 H268 0.949 . S
C242 C241 1.390 . S
C242 C243 1.357 . S
C243 C242 1.357 . S
C243 C244 1.370 . S
C243 H269 0.950 . S
C244 N239 1.307 . S
C244 C243 1.370 . S
C244 H262 0.948 . S
Zn245 N239 2.020 . S
Zn245 O254 2.039 . S
Zn245 O260 2.034 . S
Zn245 O264 2.025 . S
Zn245 O266 2.024 . S
C246 O265 1.246 . S
C246 O266 1.249 . S
N247 C248 1.307 . S
N247 C249 1.333 . S
N247 Zn253 2.020 . S
C248 N247 1.307 . S
C248 C252 1.370 . S
C248 H259 0.948 . S
C249 N247 1.333 . S
C249 C250 1.379 . S
C249 H257 0.952 . S
C250 C249 1.379 . S
C250 C251 1.390 . S
C250 H270 0.949 . S
C251 C250 1.390 . S
C251 C252 1.357 . S
C252 C248 1.370 . S
C252 C251 1.357 . S
C252 H271 0.950 . S
Zn253 N247 2.020 . S
Zn253 O256 2.025 . S
Zn253 O261 2.024 . S
Zn253 O263 2.039 . S
Zn253 O265 2.034 . S
O254 C238 1.251 . S
O254 Zn245 2.039 . S
C255 O260 1.246 . S
C255 O261 1.249 . S
O256 C238 1.254 . S
O256 Zn253 2.025 . S
H257 C249 0.952 . S
H258 C240 0.952 . S
H259 C248 0.948 . S
O260 Zn245 2.034 . S
O260 C255 1.246 . S
O261 Zn253 2.024 . S
O261 C255 1.249 . S
H262 C244 0.948 . S
O263 Zn253 2.039 . S
O263 C267 1.251 . S
O264 Zn245 2.025 . S
O264 C267 1.254 . S
O265 C246 1.246 . S
O265 Zn253 2.034 . S
O266 Zn245 2.024 . S
O266 C246 1.249 . S
C267 O263 1.251 . S
C267 O264 1.254 . S
H268 C241 0.949 . S
H269 C243 0.950 . S
H270 C250 0.949 . S
H271 C252 0.950 . S
C272 O288 1.251 . S
C272 O290 1.254 . S
N273 C274 1.333 . S
N273 C278 1.307 . S
N273 Zn279 2.020 . S
C274 N273 1.333 . S
C274 C275 1.379 . S
C274 H292 0.952 . S
C275 C274 1.379 . S
C275 C276 1.390 . S
C275 H302 0.949 . S
C276 C275 1.390 . S
C276 C277 1.357 . S
C277 C276 1.357 . S
C277 C278 1.370 . S
C277 H303 0.950 . S
C278 N273 1.307 . S
C278 C277 1.370 . S
C278 H296 0.948 . S
Zn279 N273 2.020 . S
Zn279 O288 2.039 . S
Zn279 O294 2.034 . S
Zn279 O298 2.025 . S
Zn279 O300 2.024 . S
C280 O299 1.246 . S
C280 O300 1.249 . S
N281 C282 1.307 . S
N281 C283 1.333 . S
N281 Zn287 2.020 . S
C282 N281 1.307 . S
C282 C286 1.370 . S
C282 H293 0.948 . S
C283 N281 1.333 . S
C283 C284 1.379 . S
C283 H291 0.952 . S
C284 C283 1.379 . S
C284 C285 1.390 . S
C284 H304 0.949 . S
C285 C284 1.390 . S
C285 C286 1.357 . S
C286 C282 1.370 . S
C286 C285 1.357 . S
C286 H305 0.950 . S
Zn287 N281 2.020 . S
Zn287 O290 2.025 . S
Zn287 O295 2.024 . S
Zn287 O297 2.039 . S
Zn287 O299 2.034 . S
O288 C272 1.251 . S
O288 Zn279 2.039 . S
C289 O294 1.246 . S
C289 O295 1.249 . S
O290 C272 1.254 . S
O290 Zn287 2.025 . S
H291 C283 0.952 . S
H292 C274 0.952 . S
H293 C282 0.948 . S
O294 Zn279 2.034 . S
O294 C289 1.246 . S
O295 Zn287 2.024 . S
O295 C289 1.249 . S
H296 C278 0.948 . S
O297 Zn287 2.039 . S
O297 C301 1.251 . S
O298 Zn279 2.025 . S
O298 C301 1.254 . S
O299 C280 1.246 . S
O299 Zn287 2.034 . S
O300 Zn279 2.024 . S
O300 C280 1.249 . S
C301 O297 1.251 . S
C301 O298 1.254 . S
H302 C275 0.949 . S
H303 C277 0.950 . S
H304 C284 0.949 . S
H305 C286 0.950 . S
C306 O322 1.251 . S
C306 O324 1.254 . S
N307 C308 1.333 . S
N307 C312 1.307 . S
N307 Zn313 2.020 . S
C308 N307 1.333 . S
C308 C309 1.379 . S
C308 H326 0.952 . S
C309 C308 1.379 . S
C309 C310 1.390 . S
C309 H336 0.949 . S
C310 C309 1.390 . S
C310 C311 1.357 . S
C311 C310 1.357 . S
C311 C312 1.370 . S
C311 H337 0.950 . S
C312 N307 1.307 . S
C312 C311 1.370 . S
C312 H330 0.948 . S
Zn313 N307 2.020 . S
Zn313 O322 2.039 . S
Zn313 O328 2.034 . S
Zn313 O332 2.025 . S
Zn313 O334 2.024 . S
C314 O333 1.246 . S
C314 O334 1.249 . S
N315 C316 1.307 . S
N315 C317 1.333 . S
N315 Zn321 2.020 . S
C316 N315 1.307 . S
C316 C320 1.370 . S
C316 H327 0.948 . S
C317 N315 1.333 . S
C317 C318 1.379 . S
C317 H325 0.952 . S
C318 C317 1.379 . S
C318 C319 1.390 . S
C318 H338 0.949 . S
C319 C318 1.390 . S
C319 C320 1.357 . S
C320 C316 1.370 . S
C320 C319 1.357 . S
C320 H339 0.950 . S
Zn321 N315 2.020 . S
Zn321 O324 2.025 . S
Zn321 O329 2.024 . S
Zn321 O331 2.039 . S
Zn321 O333 2.034 . S
O322 C306 1.251 . S
O322 Zn313 2.039 . S
C323 O328 1.246 . S
C323 O329 1.249 . S
O324 C306 1.254 . S
O324 Zn321 2.025 . S
H325 C317 0.952 . S
H326 C308 0.952 . S
H327 C316 0.948 . S
O328 Zn313 2.034 . S
O328 C323 1.246 . S
O329 Zn321 2.024 . S
O329 C323 1.249 . S
H330 C312 0.948 . S
O331 Zn321 2.039 . S
O331 C335 1.251 . S
O332 Zn313 2.025 . S
O332 C335 1.254 . S
O333 C314 1.246 . S
O333 Zn321 2.034 . S
O334 Zn313 2.024 . S
O334 C314 1.249 . S
C335 O331 1.251 . S
C335 O332 1.254 . S
H336 C309 0.949 . S
H337 C311 0.950 . S
H338 C318 0.949 . S
H339 C320 0.950 . S
C340 O356 1.251 . S
C340 O358 1.254 . S
N341 C342 1.333 . S
N341 C346 1.307 . S
N341 Zn347 2.020 . S
C342 N341 1.333 . S
C342 C343 1.379 . S
C342 H360 0.952 . S
C343 C342 1.379 . S
C343 C344 1.390 . S
C343 H370 0.949 . S
C344 C343 1.390 . S
C344 C345 1.357 . S
C345 C344 1.357 . S
C345 C346 1.370 . S
C345 H371 0.950 . S
C346 N341 1.307 . S
C346 C345 1.370 . S
C346 H364 0.948 . S
Zn347 N341 2.020 . S
Zn347 O356 2.039 . S
Zn347 O362 2.034 . S
Zn347 O366 2.025 . S
Zn347 O368 2.024 . S
C348 O367 1.246 . S
C348 O368 1.249 . S
N349 C350 1.307 . S
N349 C351 1.333 . S
N349 Zn355 2.020 . S
C350 N349 1.307 . S
C350 C354 1.370 . S
C350 H361 0.948 . S
C351 N349 1.333 . S
C351 C352 1.379 . S
C351 H359 0.952 . S
C352 C351 1.379 . S
C352 C353 1.390 . S
C352 H372 0.949 . S
C353 C352 1.390 . S
C353 C354 1.357 . S
C354 C350 1.370 . S
C354 C353 1.357 . S
C354 H373 0.950 . S
Zn355 N349 2.020 . S
Zn355 O358 2.025 . S
Zn355 O363 2.024 . S
Zn355 O365 2.039 . S
Zn355 O367 2.034 . S
O356 C340 1.251 . S
O356 Zn347 2.039 . S
C357 O362 1.246 . S
C357 O363 1.249 . S
O358 C340 1.254 . S
O358 Zn355 2.025 . S
H359 C351 0.952 . S
H360 C342 0.952 . S
H361 C350 0.948 . S
O362 Zn347 2.034 . S
O362 C357 1.246 . S
O363 Zn355 2.024 . S
O363 C357 1.249 . S
H364 C346 0.948 . S
O365 Zn355 2.039 . S
O365 C369 1.251 . S
O366 Zn347 2.025 . S
O366 C369 1.254 . S
O367 C348 1.246 . S
O367 Zn355 2.034 . S
O368 Zn347 2.024 . S
O368 C348 1.249 . S
C369 O365 1.251 . S
C369 O366 1.254 . S
H370 C343 0.949 . S
H371 C345 0.950 . S
H372 C352 0.949 . S
H373 C354 0.950 . S
C374 O390 1.251 . S
C374 O392 1.254 . S
N375 C376 1.333 . S
N375 C380 1.307 . S
N375 Zn381 2.020 . S
C376 N375 1.333 . S
C376 C377 1.379 . S
C376 H394 0.952 . S
C377 C376 1.379 . S
C377 C378 1.390 . S
C377 H404 0.949 . S
C378 C377 1.390 . S
C378 C379 1.357 . S
C379 C378 1.357 . S
C379 C380 1.370 . S
C379 H405 0.950 . S
C380 N375 1.307 . S
C380 C379 1.370 . S
C380 H398 0.948 . S
Zn381 N375 2.020 . S
Zn381 O390 2.039 . S
Zn381 O396 2.034 . S
Zn381 O400 2.025 . S
Zn381 O402 2.024 . S
C382 O401 1.246 . S
C382 O402 1.249 . S
N383 C384 1.307 . S
N383 C385 1.333 . S
N383 Zn389 2.020 . S
C384 N383 1.307 . S
C384 C388 1.370 . S
C384 H395 0.948 . S
C385 N383 1.333 . S
C385 C386 1.379 . S
C385 H393 0.952 . S
C386 C385 1.379 . S
C386 C387 1.390 . S
C386 H406 0.949 . S
C387 C386 1.390 . S
C387 C388 1.357 . S
C388 C384 1.370 . S
C388 C387 1.357 . S
C388 H407 0.950 . S
Zn389 N383 2.020 . S
Zn389 O392 2.025 . S
Zn389 O397 2.024 . S
Zn389 O399 2.039 . S
Zn389 O401 2.034 . S
O390 C374 1.251 . S
O390 Zn381 2.039 . S
C391 O396 1.246 . S
C391 O397 1.249 . S
O392 C374 1.254 . S
O392 Zn389 2.025 . S
H393 C385 0.952 . S
H394 C376 0.952 . S
H395 C384 0.948 . S
O396 Zn381 2.034 . S
O396 C391 1.246 . S
O397 Zn389 2.024 . S
O397 C391 1.249 . S
H398 C380 0.948 . S
O399 Zn389 2.039 . S
O399 C403 1.251 . S
O400 Zn381 2.025 . S
O400 C403 1.254 . S
O401 C382 1.246 . S
O401 Zn389 2.034 . S
O402 Zn381 2.024 . S
O402 C382 1.249 . S
C403 O399 1.251 . S
C403 O400 1.254 . S
H404 C377 0.949 . S
H405 C379 0.950 . S
H406 C386 0.949 . S
H407 C388 0.950 . S
H408 C416 0.929 . S
H409 C418 0.930 1_545 S
H410 C420 0.930 . S
H411 C423 0.929 . S
H412 C426 0.930 . S
H413 C428 0.960 . S
H414 C428 0.960 . S
H415 C428 0.960 1_565 S
C416 H408 0.929 . S
C416 C417 1.377 . S
C416 C418 1.384 . S
C417 C416 1.377 . S
C417 C423 1.390 . S
C418 H409 0.930 1_565 S
C418 C416 1.384 . S
C418 C419 1.372 . S
C419 C418 1.372 . S
C419 C420 1.400 . S
C419 C424 1.490 1_565 S
C420 H410 0.930 . S
C420 C419 1.400 . S
C420 C423 1.386 . S
H421 C437 0.930 . S
H422 C438 0.931 . S
C423 H411 0.929 . S
C423 C417 1.390 . S
C423 C420 1.386 . S
C424 C419 1.490 1_545 S
C424 C426 1.395 . S
C424 C427 1.403 . S
H425 C431 0.930 . S
C426 H412 0.930 . S
C426 C424 1.395 . S
C426 C429 1.403 . S
C427 C424 1.403 . S
C427 C428 1.524 . S
C427 C431 1.400 . S
C428 H413 0.960 . S
C428 H414 0.960 . S
C428 H415 0.960 1_545 S
C428 C427 1.524 . S
C429 C426 1.403 . S
C429 C430 1.392 . S
C429 C433 1.495 . S
C430 C429 1.392 . S
C430 C431 1.385 . S
C430 C432 1.478 . S
C431 H425 0.930 . S
C431 C427 1.400 . S
C431 C430 1.385 . S
C432 C430 1.478 . S
C432 C434 1.381 . S
C432 C438 1.383 . S
C433 C429 1.495 . S
C433 H439 0.959 . S
C433 H440 0.961 . S
C433 H441 0.960 . S
C434 C432 1.381 . S
C434 C435 1.394 . S
C434 H442 0.930 . S
C435 C434 1.394 . S
C435 C436 1.383 . S
C435 H443 0.929 . S
C436 C435 1.383 . S
C436 C437 1.377 . S
C437 H421 0.930 . S
C437 C436 1.377 . S
C437 C438 1.379 . S
C438 H422 0.931 . S
C438 C432 1.383 . S
C438 C437 1.379 . S
H439 C433 0.959 . S
H440 C433 0.961 . S
H441 C433 0.960 . S
H442 C434 0.930 . S
H443 C435 0.929 . S
H444 C452 0.929 . S
H445 C454 0.930 . S
H446 C456 0.930 . S
H447 C459 0.929 . S
H448 C462 0.930 . S
H449 C464 0.960 . S
H450 C464 0.960 . S
H451 C464 0.960 . S
C452 H444 0.929 . S
C452 C453 1.377 . S
C452 C454 1.384 . S
C453 C452 1.377 . S
C453 C459 1.390 . S
C454 H445 0.930 . S
C454 C452 1.384 . S
C454 C455 1.372 . S
C455 C454 1.372 . S
C455 C456 1.400 . S
C455 C460 1.490 . S
C456 H446 0.930 . S
C456 C455 1.400 . S
C456 C459 1.386 . S
H457 C473 0.930 . S
H458 C474 0.931 . S
C459 H447 0.929 . S
C459 C453 1.390 . S
C459 C456 1.386 . S
C460 C455 1.490 . S
C460 C462 1.395 . S
C460 C463 1.403 . S
H461 C467 0.930 . S
C462 H448 0.930 . S
C462 C460 1.395 . S
C462 C465 1.403 . S
C463 C460 1.403 . S
C463 C464 1.524 . S
C463 C467 1.400 . S
C464 H449 0.960 . S
C464 H450 0.960 . S
C464 H451 0.960 . S
C464 C463 1.524 . S
C465 C462 1.403 . S
C465 C466 1.392 . S
C465 C469 1.495 . S
C466 C465 1.392 . S
C466 C467 1.385 . S
C466 C468 1.478 . S
C467 H461 0.930 . S
C467 C463 1.400 . S
C467 C466 1.385 . S
C468 C466 1.478 . S
C468 C470 1.381 . S
C468 C474 1.383 . S
C469 C465 1.495 . S
C469 H475 0.959 . S
C469 H476 0.961 . S
C469 H477 0.960 . S
C470 C468 1.381 . S
C470 C471 1.394 1_455 S
C470 H478 0.930 . S
C471 C470 1.394 1_655 S
C471 C472 1.383 . S
C471 H479 0.929 . S
C472 C471 1.383 . S
C472 C473 1.377 . S
C473 H457 0.930 . S
C473 C472 1.377 . S
C473 C474 1.379 1_655 S
C474 H458 0.931 . S
C474 C468 1.383 . S
C474 C473 1.379 1_455 S
H475 C469 0.959 . S
H476 C469 0.961 . S
H477 C469 0.960 . S
H478 C470 0.930 . S
H479 C471 0.929 . S
H480 C488 0.929 . S
H481 C490 0.930 . S
H482 C492 0.930 . S
H483 C495 0.929 . S
H484 C498 0.930 . S
H485 C500 0.960 . S
H486 C500 0.960 . S
H487 C500 0.960 . S
C488 H480 0.929 . S
C488 C489 1.377 . S
C488 C490 1.384 1_565 S
C489 C488 1.377 . S
C489 C495 1.390 . S
C490 H481 0.930 . S
C490 C488 1.384 1_545 S
C490 C491 1.372 . S
C491 C490 1.372 . S
C491 C492 1.400 . S
C491 C496 1.490 . S
C492 H482 0.930 . S
C492 C491 1.400 . S
C492 C495 1.386 1_545 S
H493 C509 0.930 . S
H494 C510 0.931 . S
C495 H483 0.929 . S
C495 C489 1.390 . S
C495 C492 1.386 1_565 S
C496 C491 1.490 . S
C496 C498 1.395 . S
C496 C499 1.403 . S
H497 C503 0.930 . S
C498 H484 0.930 . S
C498 C496 1.395 . S
C498 C501 1.403 . S
C499 C496 1.403 . S
C499 C500 1.524 . S
C499 C503 1.400 . S
C500 H485 0.960 . S
C500 H486 0.960 . S
C500 H487 0.960 . S
C500 C499 1.524 . S
C501 C498 1.403 . S
C501 C502 1.392 . S
C501 C505 1.495 . S
C502 C501 1.392 . S
C502 C503 1.385 . S
C502 C504 1.478 1_655 S
C503 H497 0.930 . S
C503 C499 1.400 . S
C503 C502 1.385 . S
C504 C502 1.478 1_455 S
C504 C506 1.381 . S
C504 C510 1.383 . S
C505 C501 1.495 . S
C505 H511 0.959 . S
C505 H512 0.961 1_655 S
C505 H513 0.960 1_655 S
C506 C504 1.381 . S
C506 C507 1.394 . S
C506 H514 0.930 . S
C507 C506 1.394 . S
C507 C508 1.383 . S
C507 H515 0.929 . S
C508 C507 1.383 . S
C508 C509 1.377 . S
C509 H493 0.930 . S
C509 C508 1.377 . S
C509 C510 1.379 . S
C510 H494 0.931 . S
C510 C504 1.383 . S
C510 C509 1.379 . S
H511 C505 0.959 . S
H512 C505 0.961 1_455 S
H513 C505 0.960 1_455 S
H514 C506 0.930 . S
H515 C507 0.929 . S
H516 C524 0.929 . S
H517 C526 0.930 . S
H518 C528 0.930 . S
H519 C531 0.929 . S
H520 C534 0.930 . S
H521 C536 0.960 . S
H522 C536 0.960 . S
H523 C536 0.960 . S
C524 H516 0.929 . S
C524 C525 1.377 . S
C524 C526 1.384 . S
C525 C524 1.377 . S
C525 C531 1.390 . S
C526 H517 0.930 . S
C526 C524 1.384 . S
C526 C527 1.372 . S
C527 C526 1.372 . S
C527 C528 1.400 . S
C527 C532 1.490 . S
C528 H518 0.930 . S
C528 C527 1.400 . S
C528 C531 1.386 . S
H529 C545 0.930 . S
H530 C546 0.931 . S
C531 H519 0.929 . S
C531 C525 1.390 . S
C531 C528 1.386 . S
C532 C527 1.490 . S
C532 C534 1.395 . S
C532 C535 1.403 . S
H533 C539 0.930 . S
C534 H520 0.930 . S
C534 C532 1.395 . S
C534 C537 1.403 . S
C535 C532 1.403 . S
C535 C536 1.524 . S
C535 C539 1.400 . S
C536 H521 0.960 . S
C536 H522 0.960 . S
C536 H523 0.960 . S
C536 C535 1.524 . S
C537 C534 1.403 . S
C537 C538 1.392 . S
C537 C541 1.495 . S
C538 C537 1.392 . S
C538 C539 1.385 . S
C538 C540 1.478 1_565 S
C539 H533 0.930 . S
C539 C535 1.400 . S
C539 C538 1.385 . S
C540 C538 1.478 1_545 S
C540 C542 1.381 . S
C540 C546 1.383 . S
C541 C537 1.495 . S
C541 H547 0.959 . S
C541 H548 0.961 1_565 S
C541 H549 0.960 1_565 S
C542 C540 1.381 . S
C542 C543 1.394 . S
C542 H550 0.930 . S
C543 C542 1.394 . S
C543 C544 1.383 . S
C543 H551 0.929 . S
C544 C543 1.383 . S
C544 C545 1.377 . S
C545 H529 0.930 . S
C545 C544 1.377 . S
C545 C546 1.379 . S
C546 H530 0.931 . S
C546 C540 1.383 . S
C546 C545 1.379 . S
H547 C541 0.959 . S
H548 C541 0.961 1_545 S
H549 C541 0.960 1_545 S
H550 C542 0.930 . S
H551 C543 0.929 . S
H552 C560 0.929 . S
H553 C562 0.930 . S
H554 C564 0.930 . S
H555 C567 0.929 . S
H556 C570 0.930 . S
H557 C572 0.960 . S
H558 C572 0.960 . S
H559 C572 0.960 . S
C560 H552 0.929 . S
C560 C561 1.377 . S
C560 C562 1.384 . S
C561 C560 1.377 . S
C561 C567 1.390 1_455 S
C562 H553 0.930 . S
C562 C560 1.384 . S
C562 C563 1.372 1_455 S
C563 C562 1.372 1_655 S
C563 C564 1.400 . S
C563 C568 1.490 . S
C564 H554 0.930 . S
C564 C563 1.400 . S
C564 C567 1.386 . S
H565 C581 0.930 . S
H566 C582 0.931 . S
C567 H555 0.929 . S
C567 C561 1.390 1_655 S
C567 C564 1.386 . S
C568 C563 1.490 . S
C568 C570 1.395 . S
C568 C571 1.403 . S
H569 C575 0.930 . S
C570 H556 0.930 . S
C570 C568 1.395 . S
C570 C573 1.403 . S
C571 C568 1.403 . S
C571 C572 1.524 . S
C571 C575 1.400 . S
C572 H557 0.960 . S
C572 H558 0.960 . S
C572 H559 0.960 . S
C572 C571 1.524 . S
C573 C570 1.403 . S
C573 C574 1.392 . S
C573 C577 1.495 . S
C574 C573 1.392 . S
C574 C575 1.385 . S
C574 C576 1.478 . S
C575 H569 0.930 . S
C575 C571 1.400 . S
C575 C574 1.385 . S
C576 C574 1.478 . S
C576 C578 1.381 . S
C576 C582 1.383 . S
C577 C573 1.495 . S
C577 H583 0.959 . S
C577 H584 0.961 . S
C577 H585 0.960 . S
C578 C576 1.381 . S
C578 C579 1.394 . S
C578 H586 0.930 . S
C579 C578 1.394 . S
C579 C580 1.383 . S
C579 H587 0.929 . S
C580 C579 1.383 . S
C580 C581 1.377 . S
C581 H565 0.930 . S
C581 C580 1.377 . S
C581 C582 1.379 . S
C582 H566 0.931 . S
C582 C576 1.383 . S
C582 C581 1.379 . S
H583 C577 0.959 . S
H584 C577 0.961 . S
H585 C577 0.960 . S
H586 C578 0.930 . S
H587 C579 0.929 . S
H588 C596 0.929 . S
H589 C598 0.930 . S
H590 C600 0.930 . S
H591 C603 0.929 . S
H592 C606 0.930 . S
H593 C608 0.960 . S
H594 C608 0.960 . S
H595 C608 0.960 . S
C596 H588 0.929 . S
C596 C597 1.377 . S
C596 C598 1.384 . S
C597 C596 1.377 . S
C597 C603 1.390 . S
C598 H589 0.930 . S
C598 C596 1.384 . S
C598 C599 1.372 . S
C599 C598 1.372 . S
C599 C600 1.400 . S
C599 C604 1.490 1_655 S
C600 H590 0.930 . S
C600 C599 1.400 . S
C600 C603 1.386 . S
H601 C617 0.930 . S
H602 C618 0.931 . S
C603 H591 0.929 . S
C603 C597 1.390 . S
C603 C600 1.386 . S
C604 C599 1.490 1_455 S
C604 C606 1.395 . S
C604 C607 1.403 . S
H605 C611 0.930 . S
C606 H592 0.930 . S
C606 C604 1.395 . S
C606 C609 1.403 . S
C607 C604 1.403 . S
C607 C608 1.524 . S
C607 C611 1.400 . S
C608 H593 0.960 . S
C608 H594 0.960 . S
C608 H595 0.960 . S
C608 C607 1.524 . S
C609 C606 1.403 . S
C609 C610 1.392 . S
C609 C613 1.495 . S
C610 C609 1.392 . S
C610 C611 1.385 . S
C610 C612 1.478 . S
C611 H605 0.930 . S
C611 C607 1.400 . S
C611 C610 1.385 . S
C612 C610 1.478 . S
C612 C614 1.381 . S
C612 C618 1.383 . S
C613 C609 1.495 . S
C613 H619 0.959 . S
C613 H620 0.961 . S
C613 H621 0.960 . S
C614 C612 1.381 . S
C614 C615 1.394 1_565 S
C614 H622 0.930 . S
C615 C614 1.394 1_545 S
C615 C616 1.383 . S
C615 H623 0.929 . S
C616 C615 1.383 . S
C616 C617 1.377 . S
C617 H601 0.930 . S
C617 C616 1.377 . S
C617 C618 1.379 1_545 S
C618 H602 0.931 . S
C618 C612 1.383 . S
C618 C617 1.379 1_565 S
H619 C613 0.959 . S
H620 C613 0.961 . S
H621 C613 0.960 . S
H622 C614 0.930 . S
H623 C615 0.929 . S
H624 C632 0.929 . S
H625 C634 0.937 . S
H626 C636 0.930 . S
H627 C639 0.929 . S
H628 C642 0.930 . S
H629 C644 0.960 . S
H630 C644 0.953 1_455 S
H631 C644 0.960 1_455 S
C632 H624 0.929 . S
C632 C633 1.377 . S
C632 C634 1.384 . S
C633 C632 1.377 . S
C633 C639 1.390 . S
C634 H625 0.937 . S
C634 C632 1.384 . S
C634 C635 1.372 . S
C635 C634 1.372 . S
C635 C636 1.400 . S
C635 C640 1.490 1_455 S
C636 H626 0.930 . S
C636 C635 1.400 . S
C636 C639 1.386 . S
H637 C653 0.930 . S
H638 C654 0.931 . S
C639 H627 0.929 . S
C639 C633 1.390 . S
C639 C636 1.386 . S
C640 C635 1.490 1_655 S
C640 C642 1.395 . S
C640 C643 1.403 . S
H641 C647 0.930 . S
C642 H628 0.930 . S
C642 C640 1.395 . S
C642 C645 1.403 . S
C643 C640 1.403 . S
C643 C644 1.524 . S
C643 C647 1.400 . S
C644 H629 0.960 . S
C644 H630 0.953 1_655 S
C644 H631 0.960 1_655 S
C644 C643 1.524 . S
C645 C642 1.403 . S
C645 C646 1.392 . S
C645 C649 1.495 . S
C646 C645 1.392 . S
C646 C647 1.385 . S
C646 C648 1.478 . S
C647 H641 0.930 . S
C647 C643 1.400 . S
C647 C646 1.385 . S
C648 C646 1.478 . S
C648 C650 1.381 . S
C648 C654 1.383 . S
C649 C645 1.495 . S
C649 H655 0.959 . S
C649 H656 0.961 . S
C649 H657 0.960 . S
C650 C648 1.381 . S
C650 C651 1.394 . S
C650 H658 0.930 . S
C651 C650 1.394 . S
C651 C652 1.383 . S
C651 H659 0.929 . S
C652 C651 1.383 . S
C652 C653 1.377 . S
C653 H637 0.930 . S
C653 C652 1.377 . S
C653 C654 1.379 . S
C654 H638 0.931 . S
C654 C648 1.383 . S
C654 C653 1.379 . S
H655 C649 0.959 . S
H656 C649 0.961 . S
H657 C649 0.960 . S
H658 C650 0.930 . S
H659 C651 0.929 . S
H660 C668 0.929 . S
H661 C670 0.930 . S
H662 C672 0.930 . S
H663 C675 0.929 . S
H664 C678 0.930 . S
H665 C680 0.960 . S
H666 C680 0.960 . S
H667 C680 0.960 . S
C668 H660 0.929 . S
C668 C669 1.377 1_455 S
C668 C670 1.384 . S
C669 C668 1.377 1_655 S
C669 C675 1.390 . S
C670 H661 0.930 . S
C670 C668 1.384 . S
C670 C671 1.372 . S
C671 C670 1.372 . S
C671 C672 1.400 1_455 S
C671 C676 1.490 . S
C672 H662 0.930 . S
C672 C671 1.400 1_655 S
C672 C675 1.386 . S
H673 C689 0.930 . S
H674 C690 0.931 . S
C675 H663 0.929 . S
C675 C669 1.390 . S
C675 C672 1.386 . S
C676 C671 1.490 . S
C676 C678 1.395 . S
C676 C679 1.403 . S
H677 C683 0.930 . S
C678 H664 0.930 . S
C678 C676 1.395 . S
C678 C681 1.403 . S
C679 C676 1.403 . S
C679 C680 1.524 . S
C679 C683 1.400 . S
C680 H665 0.960 . S
C680 H666 0.960 . S
C680 H667 0.960 . S
C680 C679 1.524 . S
C681 C678 1.403 . S
C681 C682 1.392 . S
C681 C685 1.495 . S
C682 C681 1.392 . S
C682 C683 1.385 . S
C682 C684 1.478 1_565 S
C683 H677 0.930 . S
C683 C679 1.400 . S
C683 C682 1.385 . S
C684 C682 1.478 1_545 S
C684 C686 1.381 . S
C684 C690 1.383 . S
C685 C681 1.495 . S
C685 H691 0.959 . S
C685 H692 0.961 . S
C685 H693 0.960 . S
C686 C684 1.381 . S
C686 C687 1.394 . S
C686 H694 0.930 1_545 S
C687 C686 1.394 . S
C687 C688 1.383 . S
C687 H695 0.929 . S
C688 C687 1.383 . S
C688 C689 1.377 . S
C689 H673 0.930 . S
C689 C688 1.377 . S
C689 C690 1.379 . S
C690 H674 0.931 . S
C690 C684 1.383 . S
C690 C689 1.379 . S
H691 C685 0.959 . S
H692 C685 0.961 . S
H693 C685 0.960 . S
H694 C686 0.930 1_565 S
H695 C687 0.929 . S
H696 C704 0.929 . S
H697 C706 0.930 . S
H698 C708 0.930 . S
H699 C711 0.929 . S
H700 C714 0.930 . S
H701 C716 0.960 . S
H702 C716 0.960 . S
H703 C716 0.960 . S
C704 H696 0.929 . S
C704 C705 1.377 . S
C704 C706 1.384 . S
C705 C704 1.377 . S
C705 C711 1.390 . S
C706 H697 0.930 . S
C706 C704 1.384 . S
C706 C707 1.372 . S
C707 C706 1.372 . S
C707 C708 1.400 . S
C707 C712 1.490 . S
C708 H698 0.930 . S
C708 C707 1.400 . S
C708 C711 1.386 . S
H709 C725 0.930 . S
H710 C726 0.931 . S
C711 H699 0.929 . S
C711 C705 1.390 . S
C711 C708 1.386 . S
C712 C707 1.490 . S
C712 C714 1.395 . S
C712 C715 1.403 . S
H713 C719 0.930 . S
C714 H700 0.930 . S
C714 C712 1.395 . S
C714 C717 1.403 . S
C715 C712 1.403 . S
C715 C716 1.524 . S
C715 C719 1.400 . S
C716 H701 0.960 . S
C716 H702 0.960 . S
C716 H703 0.960 . S
C716 C715 1.524 . S
C717 C714 1.403 . S
C717 C718 1.392 . S
C717 C721 1.495 . S
C718 C717 1.392 . S
C718 C719 1.385 . S
C718 C720 1.478 . S
C719 H713 0.930 . S
C719 C715 1.400 . S
C719 C718 1.385 . S
C720 C718 1.478 . S
C720 C722 1.381 . S
C720 C726 1.383 . S
C721 C717 1.495 . S
C721 H727 0.959 . S
C721 H728 0.961 . S
C721 H729 0.960 . S
C722 C720 1.381 . S
C722 C723 1.394 1_545 S
C722 H730 0.930 . S
C723 C722 1.394 1_565 S
C723 C724 1.383 . S
C723 H731 0.929 . S
C724 C723 1.383 . S
C724 C725 1.377 . S
C725 H709 0.930 . S
C725 C724 1.377 . S
C725 C726 1.379 1_565 S
C726 H710 0.931 . S
C726 C720 1.383 . S
C726 C725 1.379 1_545 S
H727 C721 0.959 . S
H728 C721 0.961 . S
H729 C721 0.960 . S
H730 C722 0.930 . S
H731 C723 0.929 . S
H732 C740 0.929 . S
H733 C742 0.930 . S
H734 C744 0.930 . S
H735 C747 0.929 . S
H736 C750 0.930 . S
H737 C752 0.960 . S
H738 C752 0.960 . S
H739 C752 0.960 . S
C740 H732 0.929 . S
C740 C741 1.377 . S
C740 C742 1.384 . S
C741 C740 1.377 . S
C741 C747 1.390 . S
C742 H733 0.930 . S
C742 C740 1.384 . S
C742 C743 1.372 . S
C743 C742 1.372 . S
C743 C744 1.400 . S
C743 C748 1.490 . S
C744 H734 0.930 . S
C744 C743 1.400 . S
C744 C747 1.386 . S
H745 C761 0.930 . S
H746 C762 0.931 . S
C747 H735 0.929 . S
C747 C741 1.390 . S
C747 C744 1.386 . S
C748 C743 1.490 . S
C748 C750 1.395 . S
C748 C751 1.403 . S
H749 C755 0.930 . S
C750 H736 0.930 . S
C750 C748 1.395 . S
C750 C753 1.403 . S
C751 C748 1.403 . S
C751 C752 1.524 . S
C751 C755 1.400 . S
C752 H737 0.960 . S
C752 H738 0.960 . S
C752 H739 0.960 . S
C752 C751 1.524 . S
C753 C750 1.403 . S
C753 C754 1.392 . S
C753 C757 1.495 . S
C754 C753 1.392 . S
C754 C755 1.385 . S
C754 C756 1.478 1_455 S
C755 H749 0.930 . S
C755 C751 1.400 . S
C755 C754 1.385 . S
C756 C754 1.478 1_655 S
C756 C758 1.381 . S
C756 C762 1.383 . S
C757 C753 1.495 . S
C757 H763 0.959 . S
C757 H764 0.961 . S
C757 H765 0.960 . S
C758 C756 1.381 . S
C758 C759 1.394 . S
C758 H766 0.930 . S
C759 C758 1.394 . S
C759 C760 1.383 . S
C759 H767 0.929 . S
C760 C759 1.383 . S
C760 C761 1.377 . S
C761 H745 0.930 . S
C761 C760 1.377 . S
C761 C762 1.379 . S
C762 H746 0.931 . S
C762 C756 1.383 . S
C762 C761 1.379 . S
H763 C757 0.959 . S
H764 C757 0.961 . S
H765 C757 0.960 . S
H766 C758 0.930 . S
H767 C759 0.929 . S
H768 C776 0.929 . S
H769 C778 0.930 . S
H770 C780 0.930 . S
H771 C783 0.929 . S
H772 C786 0.930 . S
H773 C788 0.960 . S
H774 C788 0.960 . S
H775 C788 0.960 . S
C776 H768 0.929 . S
C776 C777 1.377 . S
C776 C778 1.384 1_455 S
C777 C776 1.377 . S
C777 C783 1.390 . S
C778 H769 0.930 . S
C778 C776 1.384 1_655 S
C778 C779 1.372 . S
C779 C778 1.372 . S
C779 C780 1.400 . S
C779 C784 1.490 . S
C780 H770 0.930 . S
C780 C779 1.400 . S
C780 C783 1.386 1_655 S
H781 C797 0.930 . S
H782 C798 0.931 . S
C783 H771 0.929 . S
C783 C777 1.390 . S
C783 C780 1.386 1_455 S
C784 C779 1.490 . S
C784 C786 1.395 . S
C784 C787 1.403 . S
H785 C791 0.930 . S
C786 H772 0.930 . S
C786 C784 1.395 . S
C786 C789 1.403 . S
C787 C784 1.403 . S
C787 C788 1.524 . S
C787 C791 1.400 . S
C788 H773 0.960 . S
C788 H774 0.960 . S
C788 H775 0.960 . S
C788 C787 1.524 . S
C789 C786 1.403 . S
C789 C790 1.392 . S
C789 C793 1.495 . S
C790 C789 1.392 . S
C790 C791 1.385 . S
C790 C792 1.478 1_545 S
C791 H785 0.930 . S
C791 C787 1.400 . S
C791 C790 1.385 . S
C792 C790 1.478 1_565 S
C792 C794 1.381 . S
C792 C798 1.383 . S
C793 C789 1.495 . S
C793 H799 0.959 . S
C793 H800 0.961 1_545 S
C793 H801 0.960 1_545 S
C794 C792 1.381 . S
C794 C795 1.394 . S
C794 H802 0.930 . S
C795 C794 1.394 . S
C795 C796 1.383 . S
C795 H803 0.929 . S
C796 C795 1.383 . S
C796 C797 1.377 . S
C797 H781 0.930 . S
C797 C796 1.377 . S
C797 C798 1.379 . S
C798 H782 0.931 . S
C798 C792 1.383 . S
C798 C797 1.379 . S
H799 C793 0.959 . S
H800 C793 0.961 1_565 S
H801 C793 0.960 1_565 S
H802 C794 0.930 . S
H803 C795 0.929 . S
H804 C812 0.929 . S
H805 C814 0.930 . S
H806 C816 0.930 . S
H807 C819 0.929 . S
H808 C822 0.930 . S
H809 C824 0.960 . S
H810 C824 0.960 . S
H811 C824 0.960 . S
C812 H804 0.929 . S
C812 C813 1.377 . S
C812 C814 1.384 . S
C813 C812 1.377 . S
C813 C819 1.390 . S
C814 H805 0.930 . S
C814 C812 1.384 . S
C814 C815 1.372 . S
C815 C814 1.372 . S
C815 C816 1.400 . S
C815 C820 1.490 . S
C816 H806 0.930 . S
C816 C815 1.400 . S
C816 C819 1.386 . S
H817 C833 0.930 . S
H818 C834 0.931 . S
C819 H807 0.929 . S
C819 C813 1.390 . S
C819 C816 1.386 . S
C820 C815 1.490 . S
C820 C822 1.395 . S
C820 C823 1.403 . S
H821 C827 0.930 . S
C822 H808 0.930 . S
C822 C820 1.395 . S
C822 C825 1.403 . S
C823 C820 1.403 . S
C823 C824 1.524 . S
C823 C827 1.400 . S
C824 H809 0.960 . S
C824 H810 0.960 . S
C824 H811 0.960 . S
C824 C823 1.524 . S
C825 C822 1.403 . S
C825 C826 1.392 . S
C825 C829 1.495 . S
C826 C825 1.392 . S
C826 C827 1.385 . S
C826 C828 1.478 . S
C827 H821 0.930 . S
C827 C823 1.400 . S
C827 C826 1.385 . S
C828 C826 1.478 . S
C828 C830 1.381 . S
C828 C834 1.383 . S
C829 C825 1.495 . S
C829 H835 0.959 . S
C829 H836 0.961 . S
C829 H837 0.960 . S
C830 C828 1.381 . S
C830 C831 1.394 1_565 S
C830 H838 0.930 . S
C831 C830 1.394 1_545 S
C831 C832 1.383 . S
C831 H839 0.929 . S
C832 C831 1.383 . S
C832 C833 1.377 . S
C833 H817 0.930 . S
C833 C832 1.377 . S
C833 C834 1.379 1_545 S
C834 H818 0.931 . S
C834 C828 1.383 . S
C834 C833 1.379 1_565 S
H835 C829 0.959 . S
H836 C829 0.961 . S
H837 C829 0.960 . S
H838 C830 0.930 . S
H839 C831 0.929 . S
H840 C848 0.929 . S
H841 C850 0.930 . S
H842 C852 0.930 . S
H843 C855 0.929 . S
H844 C858 0.930 . S
H845 C860 0.960 . S
H846 C860 0.960 . S
H847 C860 0.960 . S
C848 H840 0.929 . S
C848 C849 1.377 . S
C848 C850 1.384 . S
C849 C848 1.377 . S
C849 C855 1.390 . S
C850 H841 0.930 . S
C850 C848 1.384 . S
C850 C851 1.372 . S
C851 C850 1.372 . S
C851 C852 1.400 . S
C851 C856 1.490 . S
C852 H842 0.930 . S
C852 C851 1.400 . S
C852 C855 1.386 . S
H853 C869 0.930 . S
H854 C870 0.931 . S
C855 H843 0.929 . S
C855 C849 1.390 . S
C855 C852 1.386 . S
C856 C851 1.490 . S
C856 C858 1.395 . S
C856 C859 1.403 . S
H857 C863 0.930 . S
C858 H844 0.930 . S
C858 C856 1.395 . S
C858 C861 1.403 . S
C859 C856 1.403 . S
C859 C860 1.524 . S
C859 C863 1.400 . S
C860 H845 0.960 . S
C860 H846 0.960 . S
C860 H847 0.960 . S
C860 C859 1.524 . S
C861 C858 1.403 . S
C861 C862 1.392 . S
C861 C865 1.495 . S
C862 C861 1.392 . S
C862 C863 1.385 . S
C862 C864 1.478 . S
C863 H857 0.930 . S
C863 C859 1.400 . S
C863 C862 1.385 . S
C864 C862 1.478 . S
C864 C866 1.381 . S
C864 C870 1.383 . S
C865 C861 1.495 . S
C865 H871 0.959 . S
C865 H872 0.961 . S
C865 H873 0.960 . S
C866 C864 1.381 . S
C866 C867 1.394 . S
C866 H874 0.930 . S
C867 C866 1.394 . S
C867 C868 1.383 . S
C867 H875 0.929 . S
C868 C867 1.383 . S
C868 C869 1.377 . S
C869 H853 0.930 . S
C869 C868 1.377 . S
C869 C870 1.379 . S
C870 H854 0.931 . S
C870 C864 1.383 . S
C870 C869 1.379 . S
H871 C865 0.959 . S
H872 C865 0.961 . S
H873 C865 0.960 . S
H874 C866 0.930 . S
H875 C867 0.929 . S
H876 C884 0.929 . S
H877 C886 0.930 . S
H878 C888 0.930 . S
H879 C891 0.929 . S
H880 C894 0.930 . S
H881 C896 0.960 . S
H882 C896 0.960 . S
H883 C896 0.960 . S
C884 H876 0.929 . S
C884 C885 1.377 . S
C884 C886 1.384 . S
C885 C884 1.377 . S
C885 C891 1.390 . S
C886 H877 0.930 . S
C886 C884 1.384 . S
C886 C887 1.372 . S
C887 C886 1.372 . S
C887 C888 1.400 . S
C887 C892 1.490 . S
C888 H878 0.930 . S
C888 C887 1.400 . S
C888 C891 1.386 . S
H889 C905 0.930 . S
H890 C906 0.931 . S
C891 H879 0.929 . S
C891 C885 1.390 . S
C891 C888 1.386 . S
C892 C887 1.490 . S
C892 C894 1.395 . S
C892 C895 1.403 . S
H893 C899 0.930 . S
C894 H880 0.930 . S
C894 C892 1.395 . S
C894 C897 1.403 . S
C895 C892 1.403 . S
C895 C896 1.524 . S
C895 C899 1.400 . S
C896 H881 0.960 . S
C896 H882 0.960 . S
C896 H883 0.960 . S
C896 C895 1.524 . S
C897 C894 1.403 . S
C897 C898 1.392 . S
C897 C901 1.495 . S
C898 C897 1.392 . S
C898 C899 1.385 . S
C898 C900 1.478 . S
C899 H893 0.930 . S
C899 C895 1.400 . S
C899 C898 1.385 . S
C900 C898 1.478 . S
C900 C902 1.381 . S
C900 C906 1.383 . S
C901 C897 1.495 . S
C901 H907 0.959 . S
C901 H908 0.961 . S
C901 H909 0.960 . S
C902 C900 1.381 . S
C902 C903 1.394 . S
C902 H910 0.930 . S
C903 C902 1.394 . S
C903 C904 1.383 . S
C903 H911 0.929 . S
C904 C903 1.383 . S
C904 C905 1.377 . S
C905 H889 0.930 . S
C905 C904 1.377 . S
C905 C906 1.379 . S
C906 H890 0.931 . S
C906 C900 1.383 . S
C906 C905 1.379 . S
H907 C901 0.959 . S
H908 C901 0.961 . S
H909 C901 0.960 . S
H910 C902 0.930 . S
H911 C903 0.929 . S
H912 C920 0.929 . S
H913 C922 0.930 . S
H914 C924 0.930 . S
H915 C927 0.929 . S
H916 C930 0.930 . S
H917 C932 0.960 . S
H918 C932 0.960 . S
H919 C932 0.960 . S
C920 H912 0.929 . S
C920 C921 1.377 . S
C920 C922 1.384 . S
C921 C920 1.377 . S
C921 C927 1.390 . S
C922 H913 0.930 . S
C922 C920 1.384 . S
C922 C923 1.372 . S
C923 C922 1.372 . S
C923 C924 1.400 . S
C923 C928 1.490 . S
C924 H914 0.930 . S
C924 C923 1.400 . S
C924 C927 1.386 . S
H925 C941 0.930 . S
H926 C942 0.931 . S
C927 H915 0.929 . S
C927 C921 1.390 . S
C927 C924 1.386 . S
C928 C923 1.490 . S
C928 C930 1.395 . S
C928 C931 1.403 . S
H929 C935 0.930 . S
C930 H916 0.930 . S
C930 C928 1.395 . S
C930 C933 1.403 . S
C931 C928 1.403 . S
C931 C932 1.524 . S
C931 C935 1.400 . S
C932 H917 0.960 . S
C932 H918 0.960 . S
C932 H919 0.960 . S
C932 C931 1.524 . S
C933 C930 1.403 . S
C933 C934 1.392 . S
C933 C937 1.495 . S
C934 C933 1.392 . S
C934 C935 1.385 . S
C934 C936 1.478 . S
C935 H929 0.930 . S
C935 C931 1.400 . S
C935 C934 1.385 . S
C936 C934 1.478 . S
C936 C938 1.381 . S
C936 C942 1.383 . S
C937 C933 1.495 . S
C937 H943 0.959 . S
C937 H944 0.961 . S
C937 H945 0.960 . S
C938 C936 1.381 . S
C938 C939 1.394 . S
C938 H946 0.930 . S
C939 C938 1.394 . S
C939 C940 1.383 . S
C939 H947 0.929 . S
C940 C939 1.383 . S
C940 C941 1.377 . S
C941 H925 0.930 . S
C941 C940 1.377 . S
C941 C942 1.379 . S
C942 H926 0.931 . S
C942 C936 1.383 . S
C942 C941 1.379 . S
H943 C937 0.959 . S
H944 C937 0.961 . S
H945 C937 0.960 . S
H946 C938 0.930 . S
H947 C939 0.929 . S
H948 C956 0.929 . S
H949 C958 0.930 . S
H950 C960 0.930 . S
H951 C963 0.929 . S
H952 C966 0.930 . S
H953 C968 0.960 . S
H954 C968 0.960 . S
H955 C968 0.960 . S
C956 H948 0.929 . S
C956 C957 1.377 . S
C956 C958 1.384 . S
C957 C956 1.377 . S
C957 C963 1.390 . S
C958 H949 0.930 . S
C958 C956 1.384 . S
C958 C959 1.372 . S
C959 C958 1.372 . S
C959 C960 1.400 . S
C959 C964 1.490 . S
C960 H950 0.930 . S
C960 C959 1.400 . S
C960 C963 1.386 . S
H961 C977 0.930 . S
H962 C978 0.931 . S
C963 H951 0.929 . S
C963 C957 1.390 . S
C963 C960 1.386 . S
C964 C959 1.490 . S
C964 C966 1.395 . S
C964 C967 1.403 . S
H965 C971 0.930 . S
C966 H952 0.930 . S
C966 C964 1.395 . S
C966 C969 1.403 . S
C967 C964 1.403 . S
C967 C968 1.524 . S
C967 C971 1.400 . S
C968 H953 0.960 . S
C968 H954 0.960 . S
C968 H955 0.960 . S
C968 C967 1.524 . S
C969 C966 1.403 . S
C969 C970 1.392 . S
C969 C973 1.495 . S
C970 C969 1.392 . S
C970 C971 1.385 . S
C970 C972 1.478 . S
C971 H965 0.930 . S
C971 C967 1.400 . S
C971 C970 1.385 . S
C972 C970 1.478 . S
C972 C974 1.381 . S
C972 C978 1.383 . S
C973 C969 1.495 . S
C973 H979 0.959 . S
C973 H980 0.961 . S
C973 H981 0.960 . S
C974 C972 1.381 . S
C974 C975 1.394 . S
C974 H982 0.930 . S
C975 C974 1.394 . S
C975 C976 1.383 . S
C975 H983 0.929 . S
C976 C975 1.383 . S
C976 C977 1.377 . S
C977 H961 0.930 . S
C977 C976 1.377 . S
C977 C978 1.379 . S
C978 H962 0.931 . S
C978 C972 1.383 . S
C978 C977 1.379 . S
H979 C973 0.959 . S
H980 C973 0.961 . S
H981 C973 0.960 . S
H982 C974 0.930 . S
H983 C975 0.929 . S
H984 C992 0.929 . S
H985 C994 0.930 . S
H986 C996 0.930 . S
H987 C999 0.929 . S
H988 C1002 0.930 . S
H989 C1004 0.960 . S
H990 C1004 0.960 . S
H991 C1004 0.960 . S
C992 H984 0.929 . S
C992 C993 1.377 . S
C992 C994 1.384 . S
C993 C992 1.377 . S
C993 C999 1.390 . S
C994 H985 0.930 . S
C994 C992 1.384 . S
C994 C995 1.372 . S
C995 C994 1.372 . S
C995 C996 1.400 . S
C995 C1000 1.490 . S
C996 H986 0.930 . S
C996 C995 1.400 . S
C996 C999 1.386 . S
H997 C1013 0.930 . S
H998 C1014 0.931 . S
C999 H987 0.929 . S
C999 C993 1.390 . S
C999 C996 1.386 . S
C1000 C995 1.490 . S
C1000 C1002 1.395 . S
C1000 C1003 1.403 . S
H1001 C1007 0.930 . S
C1002 H988 0.930 . S
C1002 C1000 1.395 . S
C1002 C1005 1.403 . S
C1003 C1000 1.403 . S
C1003 C1004 1.524 . S
C1003 C1007 1.400 . S
C1004 H989 0.960 . S
C1004 H990 0.960 . S
C1004 H991 0.960 . S
C1004 C1003 1.524 . S
C1005 C1002 1.403 . S
C1005 C1006 1.392 . S
C1005 C1009 1.495 . S
C1006 C1005 1.392 . S
C1006 C1007 1.385 . S
C1006 C1008 1.478 . S
C1007 H1001 0.930 . S
C1007 C1003 1.400 . S
C1007 C1006 1.385 . S
C1008 C1006 1.478 . S
C1008 C1010 1.381 . S
C1008 C1014 1.383 . S
C1009 C1005 1.495 . S
C1009 H1015 0.959 . S
C1009 H1016 0.961 . S
C1009 H1017 0.960 . S
C1010 C1008 1.381 . S
C1010 C1011 1.394 . S
C1010 H1018 0.930 . S
C1011 C1010 1.394 . S
C1011 C1012 1.383 . S
C1011 H1019 0.929 . S
C1012 C1011 1.383 . S
C1012 C1013 1.377 . S
C1013 H997 0.930 . S
C1013 C1012 1.377 . S
C1013 C1014 1.379 . S
C1014 H998 0.931 . S
C1014 C1008 1.383 . S
C1014 C1013 1.379 . S
H1015 C1009 0.959 . S
H1016 C1009 0.961 . S
H1017 C1009 0.960 . S
H1018 C1010 0.930 . S
H1019 C1011 0.929 . S
H1020 C1028 0.929 . S
H1021 C1030 0.930 . S
H1022 C1032 0.930 . S
H1023 C1035 0.929 . S
H1024 C1038 0.930 . S
H1025 C1040 0.960 . S
H1026 C1040 0.960 . S
H1027 C1040 0.960 . S
C1028 H1020 0.929 . S
C1028 C1029 1.377 . S
C1028 C1030 1.384 . S
C1029 C1028 1.377 . S
C1029 C1035 1.390 . S
C1030 H1021 0.930 . S
C1030 C1028 1.384 . S
C1030 C1031 1.372 . S
C1031 C1030 1.372 . S
C1031 C1032 1.400 . S
C1031 C1036 1.490 . S
C1032 H1022 0.930 . S
C1032 C1031 1.400 . S
C1032 C1035 1.386 . S
H1033 C1049 0.930 . S
H1034 C1050 0.931 . S
C1035 H1023 0.929 . S
C1035 C1029 1.390 . S
C1035 C1032 1.386 . S
C1036 C1031 1.490 . S
C1036 C1038 1.395 . S
C1036 C1039 1.403 . S
H1037 C1043 0.930 . S
C1038 H1024 0.930 . S
C1038 C1036 1.395 . S
C1038 C1041 1.403 . S
C1039 C1036 1.403 . S
C1039 C1040 1.524 . S
C1039 C1043 1.400 . S
C1040 H1025 0.960 . S
C1040 H1026 0.960 . S
C1040 H1027 0.960 . S
C1040 C1039 1.524 . S
C1041 C1038 1.403 . S
C1041 C1042 1.392 . S
C1041 C1045 1.495 . S
C1042 C1041 1.392 . S
C1042 C1043 1.385 . S
C1042 C1044 1.478 . S
C1043 H1037 0.930 . S
C1043 C1039 1.400 . S
C1043 C1042 1.385 . S
C1044 C1042 1.478 . S
C1044 C1046 1.381 . S
C1044 C1050 1.383 . S
C1045 C1041 1.495 . S
C1045 H1051 0.959 . S
C1045 H1052 0.961 . S
C1045 H1053 0.960 . S
C1046 C1044 1.381 . S
C1046 C1047 1.394 . S
C1046 H1054 0.930 . S
C1047 C1046 1.394 . S
C1047 C1048 1.383 . S
C1047 H1055 0.929 . S
C1048 C1047 1.383 . S
C1048 C1049 1.377 . S
C1049 H1033 0.930 . S
C1049 C1048 1.377 . S
C1049 C1050 1.379 . S
C1050 H1034 0.931 . S
C1050 C1044 1.383 . S
C1050 C1049 1.379 . S
H1051 C1045 0.959 . S
H1052 C1045 0.961 . S
H1053 C1045 0.960 . S
H1054 C1046 0.930 . S
H1055 C1047 0.929 . S
H1056 C1064 0.929 . S
H1057 C1066 0.930 . S
H1058 C1068 0.930 . S
H1059 C1071 0.929 . S
H1060 C1074 0.930 . S
H1061 C1076 0.960 . S
H1062 C1076 0.960 . S
H1063 C1076 0.960 . S
C1064 H1056 0.929 . S
C1064 C1065 1.377 . S
C1064 C1066 1.384 . S
C1065 C1064 1.377 . S
C1065 C1071 1.390 . S
C1066 H1057 0.930 . S
C1066 C1064 1.384 . S
C1066 C1067 1.372 . S
C1067 C1066 1.372 . S
C1067 C1068 1.400 . S
C1067 C1072 1.490 . S
C1068 H1058 0.930 . S
C1068 C1067 1.400 . S
C1068 C1071 1.386 . S
H1069 C1085 0.930 . S
H1070 C1086 0.931 . S
C1071 H1059 0.929 . S
C1071 C1065 1.390 . S
C1071 C1068 1.386 . S
C1072 C1067 1.490 . S
C1072 C1074 1.395 . S
C1072 C1075 1.403 . S
H1073 C1079 0.930 . S
C1074 H1060 0.930 . S
C1074 C1072 1.395 . S
C1074 C1077 1.403 . S
C1075 C1072 1.403 . S
C1075 C1076 1.524 . S
C1075 C1079 1.400 . S
C1076 H1061 0.960 . S
C1076 H1062 0.960 . S
C1076 H1063 0.960 . S
C1076 C1075 1.524 . S
C1077 C1074 1.403 . S
C1077 C1078 1.392 . S
C1077 C1081 1.495 . S
C1078 C1077 1.392 . S
C1078 C1079 1.385 . S
C1078 C1080 1.478 . S
C1079 H1073 0.930 . S
C1079 C1075 1.400 . S
C1079 C1078 1.385 . S
C1080 C1078 1.478 . S
C1080 C1082 1.381 . S
C1080 C1086 1.383 . S
C1081 C1077 1.495 . S
C1081 H1087 0.959 . S
C1081 H1088 0.961 . S
C1081 H1089 0.960 . S
C1082 C1080 1.381 . S
C1082 C1083 1.394 . S
C1082 H1090 0.930 . S
C1083 C1082 1.394 . S
C1083 C1084 1.383 . S
C1083 H1091 0.929 . S
C1084 C1083 1.383 . S
C1084 C1085 1.377 . S
C1085 H1069 0.930 . S
C1085 C1084 1.377 . S
C1085 C1086 1.379 . S
C1086 H1070 0.931 . S
C1086 C1080 1.383 . S
C1086 C1085 1.379 . S
H1087 C1081 0.959 . S
H1088 C1081 0.961 . S
H1089 C1081 0.960 . S
H1090 C1082 0.930 . S
H1091 C1083 0.929 . S
H1092 C1100 0.929 . S
H1093 C1102 0.930 . S
H1094 C1104 0.930 . S
H1095 C1107 0.929 . S
H1096 C1110 0.930 . S
H1097 C1112 0.960 . S
H1098 C1112 0.960 . S
H1099 C1112 0.960 . S
C1100 H1092 0.929 . S
C1100 C1101 1.377 . S
C1100 C1102 1.384 . S
C1101 C1100 1.377 . S
C1101 C1107 1.390 . S
C1102 H1093 0.930 . S
C1102 C1100 1.384 . S
C1102 C1103 1.372 . S
C1103 C1102 1.372 . S
C1103 C1104 1.400 . S
C1103 C1108 1.490 . S
C1104 H1094 0.930 . S
C1104 C1103 1.400 . S
C1104 C1107 1.386 . S
H1105 C1121 0.930 . S
H1106 C1122 0.931 . S
C1107 H1095 0.929 . S
C1107 C1101 1.390 . S
C1107 C1104 1.386 . S
C1108 C1103 1.490 . S
C1108 C1110 1.395 . S
C1108 C1111 1.403 . S
H1109 C1115 0.930 . S
C1110 H1096 0.930 . S
C1110 C1108 1.395 . S
C1110 C1113 1.403 . S
C1111 C1108 1.403 . S
C1111 C1112 1.524 . S
C1111 C1115 1.400 . S
C1112 H1097 0.960 . S
C1112 H1098 0.960 . S
C1112 H1099 0.960 . S
C1112 C1111 1.524 . S
C1113 C1110 1.403 . S
C1113 C1114 1.392 . S
C1113 C1117 1.495 . S
C1114 C1113 1.392 . S
C1114 C1115 1.385 . S
C1114 C1116 1.478 . S
C1115 H1109 0.930 . S
C1115 C1111 1.400 . S
C1115 C1114 1.385 . S
C1116 C1114 1.478 . S
C1116 C1118 1.381 . S
C1116 C1122 1.383 . S
C1117 C1113 1.495 . S
C1117 H1123 0.959 . S
C1117 H1124 0.961 . S
C1117 H1125 0.960 . S
C1118 C1116 1.381 . S
C1118 C1119 1.394 . S
C1118 H1126 0.930 . S
C1119 C1118 1.394 . S
C1119 C1120 1.383 . S
C1119 H1127 0.929 . S
C1120 C1119 1.383 . S
C1120 C1121 1.377 . S
C1121 H1105 0.930 . S
C1121 C1120 1.377 . S
C1121 C1122 1.379 . S
C1122 H1106 0.931 . S
C1122 C1116 1.383 . S
C1122 C1121 1.379 . S
H1123 C1117 0.959 . S
H1124 C1117 0.961 . S
H1125 C1117 0.960 . S
H1126 C1118 0.930 . S
H1127 C1119 0.929 . S
H1128 C1136 0.929 . S
H1129 C1138 0.930 . S
H1130 C1140 0.930 . S
H1131 C1143 0.929 . S
H1132 C1146 0.930 . S
H1133 C1148 0.960 . S
H1134 C1148 0.960 . S
H1135 C1148 0.960 . S
C1136 H1128 0.929 . S
C1136 C1137 1.377 . S
C1136 C1138 1.384 . S
C1137 C1136 1.377 . S
C1137 C1143 1.390 . S
C1138 H1129 0.930 . S
C1138 C1136 1.384 . S
C1138 C1139 1.372 . S
C1139 C1138 1.372 . S
C1139 C1140 1.400 . S
C1139 C1144 1.490 . S
C1140 H1130 0.930 . S
C1140 C1139 1.400 . S
C1140 C1143 1.386 . S
H1141 C1157 0.930 . S
H1142 C1158 0.931 . S
C1143 H1131 0.929 . S
C1143 C1137 1.390 . S
C1143 C1140 1.386 . S
C1144 C1139 1.490 . S
C1144 C1146 1.395 . S
C1144 C1147 1.403 . S
H1145 C1151 0.930 . S
C1146 H1132 0.930 . S
C1146 C1144 1.395 . S
C1146 C1149 1.403 . S
C1147 C1144 1.403 . S
C1147 C1148 1.524 . S
C1147 C1151 1.400 . S
C1148 H1133 0.960 . S
C1148 H1134 0.960 . S
C1148 H1135 0.960 . S
C1148 C1147 1.524 . S
C1149 C1146 1.403 . S
C1149 C1150 1.392 . S
C1149 C1153 1.495 . S
C1150 C1149 1.392 . S
C1150 C1151 1.385 . S
C1150 C1152 1.478 . S
C1151 H1145 0.930 . S
C1151 C1147 1.400 . S
C1151 C1150 1.385 . S
C1152 C1150 1.478 . S
C1152 C1154 1.381 . S
C1152 C1158 1.383 . S
C1153 C1149 1.495 . S
C1153 H1159 0.959 . S
C1153 H1160 0.961 . S
C1153 H1161 0.960 . S
C1154 C1152 1.381 . S
C1154 C1155 1.394 . S
C1154 H1162 0.930 . S
C1155 C1154 1.394 . S
C1155 C1156 1.383 . S
C1155 H1163 0.929 . S
C1156 C1155 1.383 . S
C1156 C1157 1.377 . S
C1157 H1141 0.930 . S
C1157 C1156 1.377 . S
C1157 C1158 1.379 . S
C1158 H1142 0.931 . S
C1158 C1152 1.383 . S
C1158 C1157 1.379 . S
H1159 C1153 0.959 . S
H1160 C1153 0.961 . S
H1161 C1153 0.960 . S
H1162 C1154 0.930 . S
H1163 C1155 0.929 . S
H1164 C1172 0.929 . S
H1165 C1174 0.930 . S
H1166 C1176 0.930 . S
H1167 C1179 0.929 . S
H1168 C1182 0.930 . S
H1169 C1184 0.960 . S
H1170 C1184 0.960 . S
H1171 C1184 0.960 . S
C1172 H1164 0.929 . S
C1172 C1173 1.377 . S
C1172 C1174 1.384 . S
C1173 C1172 1.377 . S
C1173 C1179 1.390 . S
C1174 H1165 0.930 . S
C1174 C1172 1.384 . S
C1174 C1175 1.372 . S
C1175 C1174 1.372 . S
C1175 C1176 1.400 . S
C1175 C1180 1.490 . S
C1176 H1166 0.930 . S
C1176 C1175 1.400 . S
C1176 C1179 1.386 . S
H1177 C1193 0.930 . S
H1178 C1194 0.931 . S
C1179 H1167 0.929 . S
C1179 C1173 1.390 . S
C1179 C1176 1.386 . S
C1180 C1175 1.490 . S
C1180 C1182 1.395 . S
C1180 C1183 1.403 . S
H1181 C1187 0.930 . S
C1182 H1168 0.930 . S
C1182 C1180 1.395 . S
C1182 C1185 1.403 . S
C1183 C1180 1.403 . S
C1183 C1184 1.524 . S
C1183 C1187 1.400 . S
C1184 H1169 0.960 . S
C1184 H1170 0.960 . S
C1184 H1171 0.960 . S
C1184 C1183 1.524 . S
C1185 C1182 1.403 . S
C1185 C1186 1.392 . S
C1185 C1189 1.495 . S
C1186 C1185 1.392 . S
C1186 C1187 1.385 . S
C1186 C1188 1.478 . S
C1187 H1181 0.930 . S
C1187 C1183 1.400 . S
C1187 C1186 1.385 . S
C1188 C1186 1.478 . S
C1188 C1190 1.381 . S
C1188 C1194 1.383 . S
C1189 C1185 1.495 . S
C1189 H1195 0.959 . S
C1189 H1196 0.961 . S
C1189 H1197 0.960 . S
C1190 C1188 1.381 . S
C1190 C1191 1.394 . S
C1190 H1198 0.930 . S
C1191 C1190 1.394 . S
C1191 C1192 1.383 . S
C1191 H1199 0.929 . S
C1192 C1191 1.383 . S
C1192 C1193 1.377 . S
C1193 H1177 0.930 . S
C1193 C1192 1.377 . S
C1193 C1194 1.379 . S
C1194 H1178 0.931 . S
C1194 C1188 1.383 . S
C1194 C1193 1.379 . S
H1195 C1189 0.959 . S
H1196 C1189 0.961 . S
H1197 C1189 0.960 . S
H1198 C1190 0.930 . S
H1199 C1191 0.929 . S
H1200 C1208 0.929 . S
H1201 C1210 0.930 . S
H1202 C1212 0.930 . S
H1203 C1215 0.929 . S
H1204 C1218 0.930 . S
H1205 C1220 0.960 . S
H1206 C1220 0.960 . S
H1207 C1220 0.960 . S
C1208 H1200 0.929 . S
C1208 C1209 1.377 . S
C1208 C1210 1.384 . S
C1209 C1208 1.377 . S
C1209 C1215 1.390 . S
C1210 H1201 0.930 . S
C1210 C1208 1.384 . S
C1210 C1211 1.372 . S
C1211 C1210 1.372 . S
C1211 C1212 1.400 . S
C1211 C1216 1.490 . S
C1212 H1202 0.930 . S
C1212 C1211 1.400 . S
C1212 C1215 1.386 . S
H1213 C1229 0.930 . S
H1214 C1230 0.931 . S
C1215 H1203 0.929 . S
C1215 C1209 1.390 . S
C1215 C1212 1.386 . S
C1216 C1211 1.490 . S
C1216 C1218 1.395 . S
C1216 C1219 1.403 . S
H1217 C1223 0.930 . S
C1218 H1204 0.930 . S
C1218 C1216 1.395 . S
C1218 C1221 1.403 . S
C1219 C1216 1.403 . S
C1219 C1220 1.524 . S
C1219 C1223 1.400 . S
C1220 H1205 0.960 . S
C1220 H1206 0.960 . S
C1220 H1207 0.960 . S
C1220 C1219 1.524 . S
C1221 C1218 1.403 . S
C1221 C1222 1.392 . S
C1221 C1225 1.495 . S
C1222 C1221 1.392 . S
C1222 C1223 1.385 . S
C1222 C1224 1.478 . S
C1223 H1217 0.930 . S
C1223 C1219 1.400 . S
C1223 C1222 1.385 . S
C1224 C1222 1.478 . S
C1224 C1226 1.381 . S
C1224 C1230 1.383 . S
C1225 C1221 1.495 . S
C1225 H1231 0.959 . S
C1225 H1232 0.961 . S
C1225 H1233 0.960 . S
C1226 C1224 1.381 . S
C1226 C1227 1.394 . S
C1226 H1234 0.930 . S
C1227 C1226 1.394 . S
C1227 C1228 1.383 . S
C1227 H1235 0.929 . S
C1228 C1227 1.383 . S
C1228 C1229 1.377 . S
C1229 H1213 0.930 . S
C1229 C1228 1.377 . S
C1229 C1230 1.379 . S
C1230 H1214 0.931 . S
C1230 C1224 1.383 . S
C1230 C1229 1.379 . S
H1231 C1225 0.959 . S
H1232 C1225 0.961 . S
H1233 C1225 0.960 . S
H1234 C1226 0.930 . S
H1235 C1227 0.929 . S
H1236 C1244 0.929 . S
H1237 C1246 0.930 . S
H1238 C1248 0.930 . S
H1239 C1251 0.929 . S
H1240 C1254 0.930 . S
H1241 C1256 0.960 . S
H1242 C1256 0.960 . S
H1243 C1256 0.960 . S
C1244 H1236 0.929 . S
C1244 C1245 1.377 . S
C1244 C1246 1.384 . S
C1245 C1244 1.377 . S
C1245 C1251 1.390 . S
C1246 H1237 0.930 . S
C1246 C1244 1.384 . S
C1246 C1247 1.372 . S
C1247 C1246 1.372 . S
C1247 C1248 1.400 . S
C1247 C1252 1.490 . S
C1248 H1238 0.930 . S
C1248 C1247 1.400 . S
C1248 C1251 1.386 . S
H1249 C1265 0.930 . S
H1250 C1266 0.931 . S
C1251 H1239 0.929 . S
C1251 C1245 1.390 . S
C1251 C1248 1.386 . S
C1252 C1247 1.490 . S
C1252 C1254 1.395 . S
C1252 C1255 1.403 . S
H1253 C1259 0.930 . S
C1254 H1240 0.930 . S
C1254 C1252 1.395 . S
C1254 C1257 1.403 . S
C1255 C1252 1.403 . S
C1255 C1256 1.524 . S
C1255 C1259 1.400 . S
C1256 H1241 0.960 . S
C1256 H1242 0.960 . S
C1256 H1243 0.960 . S
C1256 C1255 1.524 . S
C1257 C1254 1.403 . S
C1257 C1258 1.392 . S
C1257 C1261 1.495 . S
C1258 C1257 1.392 . S
C1258 C1259 1.385 . S
C1258 C1260 1.478 . S
C1259 H1253 0.930 . S
C1259 C1255 1.400 . S
C1259 C1258 1.385 . S
C1260 C1258 1.478 . S
C1260 C1262 1.381 . S
C1260 C1266 1.383 . S
C1261 C1257 1.495 . S
C1261 H1267 0.959 . S
C1261 H1268 0.961 . S
C1261 H1269 0.960 . S
C1262 C1260 1.381 . S
C1262 C1263 1.394 . S
C1262 H1270 0.930 . S
C1263 C1262 1.394 . S
C1263 C1264 1.383 . S
C1263 H1271 0.929 . S
C1264 C1263 1.383 . S
C1264 C1265 1.377 . S
C1265 H1249 0.930 . S
C1265 C1264 1.377 . S
C1265 C1266 1.379 . S
C1266 H1250 0.931 . S
C1266 C1260 1.383 . S
C1266 C1265 1.379 . S
H1267 C1261 0.959 . S
H1268 C1261 0.961 . S
H1269 C1261 0.960 . S
H1270 C1262 0.930 . S
H1271 C1263 0.929 . S
H1272 C1280 0.929 . S
H1273 C1282 0.930 . S
H1274 C1284 0.930 . S
H1275 C1287 0.929 . S
H1276 C1290 0.930 . S
H1277 C1292 0.960 . S
H1278 C1292 0.960 . S
H1279 C1292 0.960 . S
C1280 H1272 0.929 . S
C1280 C1281 1.377 . S
C1280 C1282 1.384 . S
C1281 C1280 1.377 . S
C1281 C1287 1.390 . S
C1282 H1273 0.930 . S
C1282 C1280 1.384 . S
C1282 C1283 1.372 . S
C1283 C1282 1.372 . S
C1283 C1284 1.400 . S
C1283 C1288 1.490 . S
C1284 H1274 0.930 . S
C1284 C1283 1.400 . S
C1284 C1287 1.386 . S
H1285 C1301 0.930 . S
H1286 C1302 0.931 . S
C1287 H1275 0.929 . S
C1287 C1281 1.390 . S
C1287 C1284 1.386 . S
C1288 C1283 1.490 . S
C1288 C1290 1.395 . S
C1288 C1291 1.403 . S
H1289 C1295 0.930 . S
C1290 H1276 0.930 . S
C1290 C1288 1.395 . S
C1290 C1293 1.403 . S
C1291 C1288 1.403 . S
C1291 C1292 1.524 . S
C1291 C1295 1.400 . S
C1292 H1277 0.960 . S
C1292 H1278 0.960 . S
C1292 H1279 0.960 . S
C1292 C1291 1.524 . S
C1293 C1290 1.403 . S
C1293 C1294 1.392 . S
C1293 C1297 1.495 . S
C1294 C1293 1.392 . S
C1294 C1295 1.385 . S
C1294 C1296 1.478 . S
C1295 H1289 0.930 . S
C1295 C1291 1.400 . S
C1295 C1294 1.385 . S
C1296 C1294 1.478 . S
C1296 C1298 1.381 . S
C1296 C1302 1.383 . S
C1297 C1293 1.495 . S
C1297 H1303 0.959 . S
C1297 H1304 0.961 . S
C1297 H1305 0.960 . S
C1298 C1296 1.381 . S
C1298 C1299 1.394 . S
C1298 H1306 0.930 . S
C1299 C1298 1.394 . S
C1299 C1300 1.383 . S
C1299 H1307 0.929 . S
C1300 C1299 1.383 . S
C1300 C1301 1.377 . S
C1301 H1285 0.930 . S
C1301 C1300 1.377 . S
C1301 C1302 1.379 . S
C1302 H1286 0.931 . S
C1302 C1296 1.383 . S
C1302 C1301 1.379 . S
H1303 C1297 0.959 . S
H1304 C1297 0.961 . S
H1305 C1297 0.960 . S
H1306 C1298 0.930 . S
H1307 C1299 0.929 . S
H1308 C1316 0.929 . S
H1309 C1318 0.930 . S
H1310 C1320 0.930 . S
H1311 C1323 0.929 . S
H1312 C1326 0.930 . S
H1313 C1328 0.960 . S
H1314 C1328 0.960 . S
H1315 C1328 0.960 . S
C1316 H1308 0.929 . S
C1316 C1317 1.377 . S
C1316 C1318 1.384 . S
C1317 C1316 1.377 . S
C1317 C1323 1.390 . S
C1318 H1309 0.930 . S
C1318 C1316 1.384 . S
C1318 C1319 1.372 . S
C1319 C1318 1.372 . S
C1319 C1320 1.400 . S
C1319 C1324 1.490 . S
C1320 H1310 0.930 . S
C1320 C1319 1.400 . S
C1320 C1323 1.386 . S
H1321 C1337 0.930 . S
H1322 C1338 0.931 . S
C1323 H1311 0.929 . S
C1323 C1317 1.390 . S
C1323 C1320 1.386 . S
C1324 C1319 1.490 . S
C1324 C1326 1.395 . S
C1324 C1327 1.403 . S
H1325 C1331 0.930 . S
C1326 H1312 0.930 . S
C1326 C1324 1.395 . S
C1326 C1329 1.403 . S
C1327 C1324 1.403 . S
C1327 C1328 1.524 . S
C1327 C1331 1.400 . S
C1328 H1313 0.960 . S
C1328 H1314 0.960 . S
C1328 H1315 0.960 . S
C1328 C1327 1.524 . S
C1329 C1326 1.403 . S
C1329 C1330 1.392 . S
C1329 C1333 1.495 . S
C1330 C1329 1.392 . S
C1330 C1331 1.385 . S
C1330 C1332 1.478 . S
C1331 H1325 0.930 . S
C1331 C1327 1.400 . S
C1331 C1330 1.385 . S
C1332 C1330 1.478 . S
C1332 C1334 1.381 . S
C1332 C1338 1.383 . S
C1333 C1329 1.495 . S
C1333 H1339 0.959 . S
C1333 H1340 0.961 . S
C1333 H1341 0.960 . S
C1334 C1332 1.381 . S
C1334 C1335 1.394 . S
C1334 H1342 0.930 . S
C1335 C1334 1.394 . S
C1335 C1336 1.383 . S
C1335 H1343 0.929 . S
C1336 C1335 1.383 . S
C1336 C1337 1.377 . S
C1337 H1321 0.930 . S
C1337 C1336 1.377 . S
C1337 C1338 1.379 . S
C1338 H1322 0.931 . S
C1338 C1332 1.383 . S
C1338 C1337 1.379 . S
H1339 C1333 0.959 . S
H1340 C1333 0.961 . S
H1341 C1333 0.960 . S
H1342 C1334 0.930 . S
H1343 C1335 0.929 . S
H1344 C1352 0.929 . S
H1345 C1354 0.930 . S
H1346 C1356 0.930 . S
H1347 C1359 0.929 . S
H1348 C1362 0.930 . S
H1349 C1364 0.960 . S
H1350 C1364 0.960 . S
H1351 C1364 0.960 . S
C1352 H1344 0.929 . S
C1352 C1353 1.377 . S
C1352 C1354 1.384 . S
C1353 C1352 1.377 . S
C1353 C1359 1.390 . S
C1354 H1345 0.930 . S
C1354 C1352 1.384 . S
C1354 C1355 1.372 . S
C1355 C1354 1.372 . S
C1355 C1356 1.400 . S
C1355 C1360 1.490 . S
C1356 H1346 0.930 . S
C1356 C1355 1.400 . S
C1356 C1359 1.386 . S
H1357 C1373 0.930 . S
H1358 C1374 0.931 . S
C1359 H1347 0.929 . S
C1359 C1353 1.390 . S
C1359 C1356 1.386 . S
C1360 C1355 1.490 . S
C1360 C1362 1.395 . S
C1360 C1363 1.403 . S
H1361 C1367 0.930 . S
C1362 H1348 0.930 . S
C1362 C1360 1.395 . S
C1362 C1365 1.403 . S
C1363 C1360 1.403 . S
C1363 C1364 1.524 . S
C1363 C1367 1.400 . S
C1364 H1349 0.960 . S
C1364 H1350 0.960 . S
C1364 H1351 0.960 . S
C1364 C1363 1.524 . S
C1365 C1362 1.403 . S
C1365 C1366 1.392 . S
C1365 C1369 1.495 . S
C1366 C1365 1.392 . S
C1366 C1367 1.385 . S
C1366 C1368 1.478 . S
C1367 H1361 0.930 . S
C1367 C1363 1.400 . S
C1367 C1366 1.385 . S
C1368 C1366 1.478 . S
C1368 C1370 1.381 . S
C1368 C1374 1.383 . S
C1369 C1365 1.495 . S
C1369 H1375 0.959 . S
C1369 H1376 0.961 . S
C1369 H1377 0.960 . S
C1370 C1368 1.381 . S
C1370 C1371 1.394 . S
C1370 H1378 0.930 . S
C1371 C1370 1.394 . S
C1371 C1372 1.383 . S
C1371 H1379 0.929 . S
C1372 C1371 1.383 . S
C1372 C1373 1.377 . S
C1373 H1357 0.930 . S
C1373 C1372 1.377 . S
C1373 C1374 1.379 . S
C1374 H1358 0.931 . S
C1374 C1368 1.383 . S
C1374 C1373 1.379 . S
H1375 C1369 0.959 . S
H1376 C1369 0.961 . S
H1377 C1369 0.960 . S
H1378 C1370 0.930 . S
H1379 C1371 0.929 . S
H1380 C1388 0.929 . S
H1381 C1390 0.930 . S
H1382 C1392 0.930 . S
H1383 C1395 0.929 . S
H1384 C1398 0.930 . S
H1385 C1400 0.960 . S
H1386 C1400 0.960 . S
H1387 C1400 0.960 . S
C1388 H1380 0.929 . S
C1388 C1389 1.377 . S
C1388 C1390 1.384 . S
C1389 C1388 1.377 . S
C1389 C1395 1.390 . S
C1390 H1381 0.930 . S
C1390 C1388 1.384 . S
C1390 C1391 1.372 . S
C1391 C1390 1.372 . S
C1391 C1392 1.400 . S
C1391 C1396 1.490 . S
C1392 H1382 0.930 . S
C1392 C1391 1.400 . S
C1392 C1395 1.386 . S
H1393 C1409 0.930 . S
H1394 C1410 0.931 . S
C1395 H1383 0.929 . S
C1395 C1389 1.390 . S
C1395 C1392 1.386 . S
C1396 C1391 1.490 . S
C1396 C1398 1.395 . S
C1396 C1399 1.403 . S
H1397 C1403 0.930 . S
C1398 H1384 0.930 . S
C1398 C1396 1.395 . S
C1398 C1401 1.403 . S
C1399 C1396 1.403 . S
C1399 C1400 1.524 . S
C1399 C1403 1.400 . S
C1400 H1385 0.960 . S
C1400 H1386 0.960 . S
C1400 H1387 0.960 . S
C1400 C1399 1.524 . S
C1401 C1398 1.403 . S
C1401 C1402 1.392 . S
C1401 C1405 1.495 . S
C1402 C1401 1.392 . S
C1402 C1403 1.385 . S
C1402 C1404 1.478 . S
C1403 H1397 0.930 . S
C1403 C1399 1.400 . S
C1403 C1402 1.385 . S
C1404 C1402 1.478 . S
C1404 C1406 1.381 . S
C1404 C1410 1.383 . S
C1405 C1401 1.495 . S
C1405 H1411 0.959 . S
C1405 H1412 0.961 . S
C1405 H1413 0.960 . S
C1406 C1404 1.381 . S
C1406 C1407 1.394 . S
C1406 H1414 0.930 . S
C1407 C1406 1.394 . S
C1407 C1408 1.383 . S
C1407 H1415 0.929 . S
C1408 C1407 1.383 . S
C1408 C1409 1.377 . S
C1409 H1393 0.930 . S
C1409 C1408 1.377 . S
C1409 C1410 1.379 . S
C1410 H1394 0.931 . S
C1410 C1404 1.383 . S
C1410 C1409 1.379 . S
H1411 C1405 0.959 . S
H1412 C1405 0.961 . S
H1413 C1405 0.960 . S
H1414 C1406 0.930 . S
H1415 C1407 0.929 . S
H1416 C1424 0.929 . S
H1417 C1426 0.930 . S
H1418 C1428 0.930 . S
H1419 C1431 0.929 . S
H1420 C1434 0.930 . S
H1421 C1436 0.960 . S
H1422 C1436 0.960 . S
H1423 C1436 0.960 . S
C1424 H1416 0.929 . S
C1424 C1425 1.377 . S
C1424 C1426 1.384 . S
C1425 C1424 1.377 . S
C1425 C1431 1.390 . S
C1426 H1417 0.930 . S
C1426 C1424 1.384 . S
C1426 C1427 1.372 . S
C1427 C1426 1.372 . S
C1427 C1428 1.400 . S
C1427 C1432 1.490 . S
C1428 H1418 0.930 . S
C1428 C1427 1.400 . S
C1428 C1431 1.386 . S
H1429 C1445 0.930 . S
H1430 C1446 0.931 . S
C1431 H1419 0.929 . S
C1431 C1425 1.390 . S
C1431 C1428 1.386 . S
C1432 C1427 1.490 . S
C1432 C1434 1.395 . S
C1432 C1435 1.403 . S
H1433 C1439 0.930 . S
C1434 H1420 0.930 . S
C1434 C1432 1.395 . S
C1434 C1437 1.403 . S
C1435 C1432 1.403 . S
C1435 C1436 1.524 . S
C1435 C1439 1.400 . S
C1436 H1421 0.960 . S
C1436 H1422 0.960 . S
C1436 H1423 0.960 . S
C1436 C1435 1.524 . S
C1437 C1434 1.403 . S
C1437 C1438 1.392 . S
C1437 C1441 1.495 . S
C1438 C1437 1.392 . S
C1438 C1439 1.385 . S
C1438 C1440 1.478 . S
C1439 H1433 0.930 . S
C1439 C1435 1.400 . S
C1439 C1438 1.385 . S
C1440 C1438 1.478 . S
C1440 C1442 1.381 . S
C1440 C1446 1.383 . S
C1441 C1437 1.495 . S
C1441 H1447 0.959 . S
C1441 H1448 0.961 . S
C1441 H1449 0.960 . S
C1442 C1440 1.381 . S
C1442 C1443 1.394 . S
C1442 H1450 0.930 . S
C1443 C1442 1.394 . S
C1443 C1444 1.383 . S
C1443 H1451 0.929 . S
C1444 C1443 1.383 . S
C1444 C1445 1.377 . S
C1445 H1429 0.930 . S
C1445 C1444 1.377 . S
C1445 C1446 1.379 . S
C1446 H1430 0.931 . S
C1446 C1440 1.383 . S
C1446 C1445 1.379 . S
H1447 C1441 0.959 . S
H1448 C1441 0.961 . S
H1449 C1441 0.960 . S
H1450 C1442 0.930 . S
H1451 C1443 0.929 . S
H1452 C1460 0.929 . S
H1453 C1462 0.930 . S
H1454 C1464 0.930 . S
H1455 C1467 0.929 . S
H1456 C1470 0.930 . S
H1457 C1472 0.960 . S
H1458 C1472 0.960 . S
H1459 C1472 0.960 . S
C1460 H1452 0.929 . S
C1460 C1461 1.377 . S
C1460 C1462 1.384 . S
C1461 C1460 1.377 . S
C1461 C1467 1.390 . S
C1462 H1453 0.930 . S
C1462 C1460 1.384 . S
C1462 C1463 1.372 . S
C1463 C1462 1.372 . S
C1463 C1464 1.400 . S
C1463 C1468 1.490 . S
C1464 H1454 0.930 . S
C1464 C1463 1.400 . S
C1464 C1467 1.386 . S
H1465 C1481 0.930 . S
H1466 C1482 0.931 . S
C1467 H1455 0.929 . S
C1467 C1461 1.390 . S
C1467 C1464 1.386 . S
C1468 C1463 1.490 . S
C1468 C1470 1.395 . S
C1468 C1471 1.403 . S
H1469 C1475 0.930 . S
C1470 H1456 0.930 . S
C1470 C1468 1.395 . S
C1470 C1473 1.403 . S
C1471 C1468 1.403 . S
C1471 C1472 1.524 . S
C1471 C1475 1.400 . S
C1472 H1457 0.960 . S
C1472 H1458 0.960 . S
C1472 H1459 0.960 . S
C1472 C1471 1.524 . S
C1473 C1470 1.403 . S
C1473 C1474 1.392 . S
C1473 C1477 1.495 . S
C1474 C1473 1.392 . S
C1474 C1475 1.385 . S
C1474 C1476 1.478 . S
C1475 H1469 0.930 . S
C1475 C1471 1.400 . S
C1475 C1474 1.385 . S
C1476 C1474 1.478 . S
C1476 C1478 1.381 . S
C1476 C1482 1.383 . S
C1477 C1473 1.495 . S
C1477 H1483 0.959 . S
C1477 H1484 0.961 . S
C1477 H1485 0.960 . S
C1478 C1476 1.381 . S
C1478 C1479 1.394 . S
C1478 H1486 0.930 . S
C1479 C1478 1.394 . S
C1479 C1480 1.383 . S
C1479 H1487 0.929 . S
C1480 C1479 1.383 . S
C1480 C1481 1.377 . S
C1481 H1465 0.930 . S
C1481 C1480 1.377 . S
C1481 C1482 1.379 . S
C1482 H1466 0.931 . S
C1482 C1476 1.383 . S
C1482 C1481 1.379 . S
H1483 C1477 0.959 . S
H1484 C1477 0.961 . S
H1485 C1477 0.960 . S
H1486 C1478 0.930 . S
H1487 C1479 0.929 . S
H1488 C1496 0.929 . S
H1489 C1498 0.930 . S
H1490 C1500 0.930 . S
H1491 C1503 0.929 . S
H1492 C1506 0.930 . S
H1493 C1508 0.960 1_554 S
H1494 C1508 0.960 . S
H1495 C1508 0.960 . S
C1496 H1488 0.929 . S
C1496 C1497 1.377 . S
C1496 C1498 1.384 . S
C1497 C1496 1.377 . S
C1497 C1503 1.390 . S
C1498 H1489 0.930 . S
C1498 C1496 1.384 . S
C1498 C1499 1.372 . S
C1499 C1498 1.372 . S
C1499 C1500 1.400 . S
C1499 C1504 1.490 . S
C1500 H1490 0.930 . S
C1500 C1499 1.400 . S
C1500 C1503 1.386 . S
H1501 C1517 0.930 . S
H1502 C1518 0.931 . S
C1503 H1491 0.929 . S
C1503 C1497 1.390 . S
C1503 C1500 1.386 . S
C1504 C1499 1.490 . S
C1504 C1506 1.395 . S
C1504 C1507 1.403 . S
H1505 C1511 0.930 . S
C1506 H1492 0.930 . S
C1506 C1504 1.395 . S
C1506 C1509 1.403 1_556 S
C1507 C1504 1.403 . S
C1507 C1508 1.524 . S
C1507 C1511 1.400 1_556 S
C1508 H1493 0.960 1_556 S
C1508 H1494 0.960 . S
C1508 H1495 0.960 . S
C1508 C1507 1.524 . S
C1509 C1506 1.403 1_554 S
C1509 C1510 1.392 . S
C1509 C1513 1.495 . S
C1510 C1509 1.392 . S
C1510 C1511 1.385 . S
C1510 C1512 1.478 . S
C1511 H1505 0.930 . S
C1511 C1507 1.400 1_554 S
C1511 C1510 1.385 . S
C1512 C1510 1.478 . S
C1512 C1514 1.381 . S
C1512 C1518 1.383 . S
C1513 C1509 1.495 . S
C1513 H1519 0.959 1_554 S
C1513 H1520 0.961 . S
C1513 H1521 0.960 . S
C1514 C1512 1.381 . S
C1514 C1515 1.394 . S
C1514 H1522 0.930 . S
C1515 C1514 1.394 . S
C1515 C1516 1.383 . S
C1515 H1523 0.929 . S
C1516 C1515 1.383 . S
C1516 C1517 1.377 . S
C1517 H1501 0.930 . S
C1517 C1516 1.377 . S
C1517 C1518 1.379 . S
C1518 H1502 0.931 . S
C1518 C1512 1.383 . S
C1518 C1517 1.379 . S
H1519 C1513 0.959 1_556 S
H1520 C1513 0.961 . S
H1521 C1513 0.960 . S
H1522 C1514 0.930 . S
H1523 C1515 0.929 . S
H1524 C1532 0.929 . S
H1525 C1534 0.916 1_655 S
H1526 C1536 0.930 . S
H1527 C1539 0.929 . S
H1528 C1542 0.930 . S
H1529 C1544 0.960 . S
H1530 C1544 0.960 1_655 S
H1531 C1544 0.960 . S
C1532 H1524 0.929 . S
C1532 C1533 1.377 . S
C1532 C1534 1.384 . S
C1533 C1532 1.377 . S
C1533 C1539 1.390 . S
C1534 H1525 0.916 1_455 S
C1534 C1532 1.384 . S
C1534 C1535 1.372 . S
C1535 C1534 1.372 . S
C1535 C1536 1.400 . S
C1535 C1540 1.490 . S
C1536 H1526 0.930 . S
C1536 C1535 1.400 . S
C1536 C1539 1.386 . S
H1537 C1553 0.930 . S
H1538 C1554 0.931 1_455 S
C1539 H1527 0.929 . S
C1539 C1533 1.390 . S
C1539 C1536 1.386 . S
C1540 C1535 1.490 . S
C1540 C1542 1.395 . S
C1540 C1543 1.403 . S
H1541 C1547 0.930 . S
C1542 H1528 0.930 . S
C1542 C1540 1.395 . S
C1542 C1545 1.403 1_455 S
C1543 C1540 1.403 . S
C1543 C1544 1.524 . S
C1543 C1547 1.400 1_455 S
C1544 H1529 0.960 . S
C1544 H1530 0.960 1_455 S
C1544 H1531 0.960 . S
C1544 C1543 1.524 . S
C1545 C1542 1.403 1_655 S
C1545 C1546 1.392 . S
C1545 C1549 1.495 . S
C1546 C1545 1.392 . S
C1546 C1547 1.385 . S
C1546 C1548 1.478 . S
C1547 H1541 0.930 . S
C1547 C1543 1.400 1_655 S
C1547 C1546 1.385 . S
C1548 C1546 1.478 . S
C1548 C1550 1.381 . S
C1548 C1554 1.383 . S
C1549 C1545 1.495 . S
C1549 H1555 0.959 . S
C1549 H1556 0.961 . S
C1549 H1557 0.960 . S
C1550 C1548 1.381 . S
C1550 C1551 1.394 . S
C1550 H1558 0.930 . S
C1551 C1550 1.394 . S
C1551 C1552 1.383 . S
C1551 H1559 0.929 . S
C1552 C1551 1.383 . S
C1552 C1553 1.377 . S
C1553 H1537 0.930 . S
C1553 C1552 1.377 . S
C1553 C1554 1.379 . S
C1554 H1538 0.931 1_655 S
C1554 C1548 1.383 . S
C1554 C1553 1.379 . S
H1555 C1549 0.959 . S
H1556 C1549 0.961 . S
H1557 C1549 0.960 . S
H1558 C1550 0.930 . S
H1559 C1551 0.929 . S
H1560 C1568 0.929 . S
H1561 C1570 0.930 . S
H1562 C1572 0.930 1_545 S
H1563 C1575 0.929 . S
H1564 C1578 0.949 . S
H1565 C1580 0.960 . S
H1566 C1580 0.960 . S
H1567 C1580 0.960 . S
C1568 H1560 0.929 . S
C1568 C1569 1.377 . S
C1568 C1570 1.384 . S
C1569 C1568 1.377 . S
C1569 C1575 1.390 . S
C1570 H1561 0.930 . S
C1570 C1568 1.384 . S
C1570 C1571 1.372 . S
C1571 C1570 1.372 . S
C1571 C1572 1.400 . S
C1571 C1576 1.490 . S
C1572 H1562 0.930 1_565 S
C1572 C1571 1.400 . S
C1572 C1575 1.386 . S
H1573 C1589 0.930 . S
H1574 C1590 0.931 . S
C1575 H1563 0.929 . S
C1575 C1569 1.390 . S
C1575 C1572 1.386 . S
C1576 C1571 1.490 . S
C1576 C1578 1.466 . S
C1576 C1579 1.403 1_565 S
H1577 C1583 0.930 . S
C1578 H1564 0.949 . S
C1578 C1576 1.466 . S
C1578 C1581 1.320 1_554 S
C1579 C1576 1.403 1_545 S
C1579 C1580 1.524 . S
C1579 C1583 1.400 1_554 S
C1580 H1565 0.960 . S
C1580 H1566 0.960 . S
C1580 H1567 0.960 . S
C1580 C1579 1.524 . S
C1581 C1578 1.320 1_556 S
C1581 C1582 1.392 1_565 S
C1581 C1585 1.495 . S
C1582 C1581 1.392 1_545 S
C1582 C1583 1.385 . S
C1582 C1584 1.478 . S
C1583 H1577 0.930 . S
C1583 C1579 1.400 1_556 S
C1583 C1582 1.385 . S
C1584 C1582 1.478 . S
C1584 C1586 1.381 . S
C1584 C1590 1.383 . S
C1585 C1581 1.495 . S
C1585 H1591 0.959 . S
C1585 H1592 0.961 . S
C1585 H1593 0.960 . S
C1586 C1584 1.381 . S
C1586 C1587 1.394 . S
C1586 H1594 0.930 1_545 S
C1587 C1586 1.394 . S
C1587 C1588 1.383 . S
C1587 H1595 0.929 . S
C1588 C1587 1.383 . S
C1588 C1589 1.377 . S
C1589 H1573 0.930 . S
C1589 C1588 1.377 . S
C1589 C1590 1.379 . S
C1590 H1574 0.931 . S
C1590 C1584 1.383 . S
C1590 C1589 1.379 . S
H1591 C1585 0.959 . S
H1592 C1585 0.961 . S
H1593 C1585 0.960 . S
H1594 C1586 0.930 1_565 S
H1595 C1587 0.929 . S
H1596 C1604 0.929 . S
H1597 C1606 0.930 . S
H1598 C1608 0.930 . S
H1599 C1611 0.929 . S
H1600 C1614 0.930 . S
H1601 C1616 0.960 . S
H1602 C1616 0.960 . S
H1603 C1616 0.960 . S
C1604 H1596 0.929 . S
C1604 C1605 1.377 . S
C1604 C1606 1.384 . S
C1605 C1604 1.377 . S
C1605 C1611 1.390 . S
C1606 H1597 0.930 . S
C1606 C1604 1.384 . S
C1606 C1607 1.372 . S
C1607 C1606 1.372 . S
C1607 C1608 1.400 . S
C1607 C1612 1.490 . S
C1608 H1598 0.930 . S
C1608 C1607 1.400 . S
C1608 C1611 1.386 . S
H1609 C1625 0.930 . S
H1610 C1626 0.931 . S
C1611 H1599 0.929 . S
C1611 C1605 1.390 . S
C1611 C1608 1.386 . S
C1612 C1607 1.490 . S
C1612 C1614 1.395 . S
C1612 C1615 1.403 . S
H1613 C1619 0.930 . S
C1614 H1600 0.930 . S
C1614 C1612 1.395 . S
C1614 C1617 1.403 . S
C1615 C1612 1.403 . S
C1615 C1616 1.524 . S
C1615 C1619 1.400 . S
C1616 H1601 0.960 . S
C1616 H1602 0.960 . S
C1616 H1603 0.960 . S
C1616 C1615 1.524 . S
C1617 C1614 1.403 . S
C1617 C1618 1.392 . S
C1617 C1621 1.495 . S
C1618 C1617 1.392 . S
C1618 C1619 1.385 . S
C1618 C1620 1.478 . S
C1619 H1613 0.930 . S
C1619 C1615 1.400 . S
C1619 C1618 1.385 . S
C1620 C1618 1.478 . S
C1620 C1622 1.381 . S
C1620 C1626 1.383 . S
C1621 C1617 1.495 . S
C1621 H1627 0.959 . S
C1621 H1628 0.961 . S
C1621 H1629 0.960 . S
C1622 C1620 1.381 . S
C1622 C1623 1.394 . S
C1622 H1630 0.930 . S
C1623 C1622 1.394 . S
C1623 C1624 1.383 . S
C1623 H1631 0.929 . S
C1624 C1623 1.383 . S
C1624 C1625 1.377 . S
C1625 H1609 0.930 . S
C1625 C1624 1.377 . S
C1625 C1626 1.379 . S
C1626 H1610 0.931 . S
C1626 C1620 1.383 . S
C1626 C1625 1.379 . S
H1627 C1621 0.959 . S
H1628 C1621 0.961 . S
H1629 C1621 0.960 . S
H1630 C1622 0.930 . S
H1631 C1623 0.929 . S
H1632 C1640 0.929 . S
H1633 C1642 0.930 . S
H1634 C1644 0.930 . S
H1635 C1647 0.929 . S
H1636 C1650 0.940 . S
H1637 C1652 0.960 . S
H1638 C1652 0.960 . S
H1639 C1652 0.960 . S
C1640 H1632 0.929 . S
C1640 C1641 1.377 . S
C1640 C1642 1.384 . S
C1641 C1640 1.377 . S
C1641 C1647 1.390 . S
C1642 H1633 0.930 . S
C1642 C1640 1.384 . S
C1642 C1643 1.372 . S
C1643 C1642 1.372 . S
C1643 C1644 1.400 . S
C1643 C1648 1.490 . S
C1644 H1634 0.930 . S
C1644 C1643 1.400 . S
C1644 C1647 1.386 . S
H1645 C1661 0.930 . S
H1646 C1662 0.931 . S
C1647 H1635 0.929 . S
C1647 C1641 1.390 . S
C1647 C1644 1.386 . S
C1648 C1643 1.490 . S
C1648 C1650 1.443 . S
C1648 C1651 1.403 1_655 S
H1649 C1655 0.930 . S
C1650 H1636 0.940 . S
C1650 C1648 1.443 . S
C1650 C1653 1.348 1_556 S
C1651 C1648 1.403 1_455 S
C1651 C1652 1.524 . S
C1651 C1655 1.400 1_556 S
C1652 H1637 0.960 . S
C1652 H1638 0.960 . S
C1652 H1639 0.960 . S
C1652 C1651 1.524 . S
C1653 C1650 1.348 1_554 S
C1653 C1654 1.392 1_655 S
C1653 C1657 1.495 . S
C1654 C1653 1.392 1_455 S
C1654 C1655 1.385 . S
C1654 C1656 1.478 . S
C1655 H1649 0.930 . S
C1655 C1651 1.400 1_554 S
C1655 C1654 1.385 . S
C1656 C1654 1.478 . S
C1656 C1658 1.381 . S
C1656 C1662 1.383 . S
C1657 C1653 1.495 . S
C1657 H1663 0.959 . S
C1657 H1664 0.961 . S
C1657 H1665 0.960 . S
C1658 C1656 1.381 . S
C1658 C1659 1.394 . S
C1658 H1666 0.926 1_455 S
C1659 C1658 1.394 . S
C1659 C1660 1.383 . S
C1659 H1667 0.929 . S
C1660 C1659 1.383 . S
C1660 C1661 1.377 . S
C1661 H1645 0.930 . S
C1661 C1660 1.377 . S
C1661 C1662 1.379 . S
C1662 H1646 0.931 . S
C1662 C1656 1.383 . S
C1662 C1661 1.379 . S
H1663 C1657 0.959 . S
H1664 C1657 0.961 . S
H1665 C1657 0.960 . S
H1666 C1658 0.926 1_655 S
H1667 C1659 0.929 . S
H1668 C1676 0.929 . S
H1669 C1678 0.930 . S
H1670 C1680 0.930 . S
H1671 C1683 0.929 . S
H1672 C1686 0.930 . S
H1673 C1688 0.960 . S
H1674 C1688 0.960 . S
H1675 C1688 0.960 . S
C1676 H1668 0.929 . S
C1676 C1677 1.377 . S
C1676 C1678 1.384 . S
C1677 C1676 1.377 . S
C1677 C1683 1.390 . S
C1678 H1669 0.930 . S
C1678 C1676 1.384 . S
C1678 C1679 1.372 . S
C1679 C1678 1.372 . S
C1679 C1680 1.400 . S
C1679 C1684 1.490 . S
C1680 H1670 0.930 . S
C1680 C1679 1.400 . S
C1680 C1683 1.386 . S
H1681 C1697 0.930 . S
H1682 C1698 0.931 . S
C1683 H1671 0.929 . S
C1683 C1677 1.390 . S
C1683 C1680 1.386 . S
C1684 C1679 1.490 . S
C1684 C1686 1.395 1_565 S
C1684 C1687 1.403 . S
H1685 C1691 0.930 . S
C1686 H1672 0.930 . S
C1686 C1684 1.395 1_545 S
C1686 C1689 1.403 . S
C1687 C1684 1.403 . S
C1687 C1688 1.524 . S
C1687 C1691 1.400 . S
C1688 H1673 0.960 . S
C1688 H1674 0.960 . S
C1688 H1675 0.960 . S
C1688 C1687 1.524 . S
C1689 C1686 1.403 . S
C1689 C1690 1.392 . S
C1689 C1693 1.495 . S
C1690 C1689 1.392 . S
C1690 C1691 1.385 1_545 S
C1690 C1692 1.478 . S
C1691 H1685 0.930 . S
C1691 C1687 1.400 . S
C1691 C1690 1.385 1_565 S
C1692 C1690 1.478 . S
C1692 C1694 1.381 . S
C1692 C1698 1.383 . S
C1693 C1689 1.495 . S
C1693 H1699 0.959 . S
C1693 H1700 0.961 . S
C1693 H1701 0.960 . S
C1694 C1692 1.381 . S
C1694 C1695 1.394 . S
C1694 H1702 0.930 . S
C1695 C1694 1.394 . S
C1695 C1696 1.383 . S
C1695 H1703 0.929 . S
C1696 C1695 1.383 . S
C1696 C1697 1.377 . S
C1697 H1681 0.930 . S
C1697 C1696 1.377 . S
C1697 C1698 1.379 . S
C1698 H1682 0.931 . S
C1698 C1692 1.383 . S
C1698 C1697 1.379 . S
H1699 C1693 0.959 . S
H1700 C1693 0.961 . S
H1701 C1693 0.960 . S
H1702 C1694 0.930 . S
H1703 C1695 0.929 . S
C417 C144 0.704 . S
C436 C0 0.725 . S
C453 C178 0.703 . S
C472 C34 0.673 . S
C489 C68 0.713 . S
C508 C8 0.709 . S
C525 C102 0.713 . S
C544 C42 0.709 . S
C561 C136 0.705 . S
C580 C76 0.707 . S
C597 C110 0.703 . S
C616 C170 0.670 . S
C633 C280 0.704 . S
C652 C204 0.738 . S
C669 C238 0.708 . S
C688 C314 0.701 . S
C705 C348 0.705 . S
C724 C272 0.743 . S
C741 C306 0.701 . S
C760 C382 0.700 . S
C777 C340 0.713 . S
C796 C212 0.709 . S
C813 C246 0.705 . S
C832 C374 0.742 . S
C849 C153 0.998 . S
C868 C29 0.999 . S
C885 C63 1.006 . S
C904 C187 0.985 . S
C921 C97 1.005 . S
C940 C17 0.980 . S
C957 C131 1.007 . S
C976 C51 1.017 . S
C993 C85 1.004 . S
C1012 C165 1.008 . S
C1029 C119 0.999 . S
C1048 C199 1.008 . S
C1065 C289 0.998 . S
C1084 C233 0.999 . S
C1101 C267 1.006 . S
C1120 C323 1.007 . S
C1137 C301 1.006 . S
C1156 C357 1.012 . S
C1173 C391 1.002 . S
C1192 C335 1.002 . S
C1209 C369 1.007 . S
C1228 C221 1.017 . S
C1245 C255 1.003 . S
C1264 C403 1.004 . S
C1281 C353 1.589 . S
C1300 C13 1.580 . S
C1317 C47 1.587 . S
C1336 C387 1.592 . S
C1353 C81 1.590 . S
C1372 C217 1.577 . S
C1389 C115 1.591 . S
C1408 C251 1.577 . S
C1425 C149 1.589 . S
C1444 C285 1.593 . S
C1461 C319 1.590 . S
C1480 C183 1.575 . S
C1497 C310 1.785 . S
C1516 C4 1.788 . S
C1533 C344 1.784 . S
C1552 C38 1.782 . S
C1569 C72 1.787 . S
C1588 C378 1.773 . S
C1605 C106 1.784 . S
C1624 C208 1.780 . S
C1641 C242 1.787 . S
C1660 C140 1.772 . S
C1677 C276 1.787 . S
C1696 C174 1.794 . S
