# Generated by pormake.
# Topology gis, (4)-cn, num edge types: 1
# Building blocks:
#     Node 0, Type 0, BuildingBlock: KUFVIS_clean_sbu_0, # of connection points: 4
#     Node 1, Type 0, BuildingBlock: KUFVIS_clean_sbu_0, # of connection points: 4
#     Node 2, Type 0, BuildingBlock: KUFVIS_clean_sbu_0, # of connection points: 4
#     Node 3, Type 0, BuildingBlock: KUFVIS_clean_sbu_0, # of connection points: 4
#     Node 4, Type 0, BuildingBlock: KUFVIS_clean_sbu_0, # of connection points: 4
#     Node 5, Type 0, BuildingBlock: KUFVIS_clean_sbu_0, # of connection points: 4
#     Node 6, Type 0, BuildingBlock: KUFVIS_clean_sbu_0, # of connection points: 4
#     Node 7, Type 0, BuildingBlock: KUFVIS_clean_sbu_0, # of connection points: 4
#     Node 8, Type 0, BuildingBlock: KUFVIS_clean_sbu_0, # of connection points: 4
#     Node 9, Type 0, BuildingBlock: KUFVIS_clean_sbu_0, # of connection points: 4
#     Node 10, Type 0, BuildingBlock: KUFVIS_clean_sbu_0, # of connection points: 4
#     Node 11, Type 0, BuildingBlock: KUFVIS_clean_sbu_0, # of connection points: 4
#     Node 12, Type 0, BuildingBlock: KUFVIS_clean_sbu_0, # of connection points: 4
#     Node 13, Type 0, BuildingBlock: KUFVIS_clean_sbu_0, # of connection points: 4
#     Node 14, Type 0, BuildingBlock: KUFVIS_clean_sbu_0, # of connection points: 4
#     Node 15, Type 0, BuildingBlock: KUFVIS_clean_sbu_0, # of connection points: 4
#     Edge 16, Type (0, 0), BuildingBlock: TEMPAE_clean_linker_10, # of connection points: 2
#     Edge 17, Type (0, 0), BuildingBlock: TEMPAE_clean_linker_10, # of connection points: 2
#     Edge 18, Type (0, 0), BuildingBlock: TEMPAE_clean_linker_10, # of connection points: 2
#     Edge 19, Type (0, 0), BuildingBlock: TEMPAE_clean_linker_10, # of connection points: 2
#     Edge 20, Type (0, 0), BuildingBlock: TEMPAE_clean_linker_10, # of connection points: 2
#     Edge 21, Type (0, 0), BuildingBlock: TEMPAE_clean_linker_10, # of connection points: 2
#     Edge 22, Type (0, 0), BuildingBlock: TEMPAE_clean_linker_10, # of connection points: 2
#     Edge 23, Type (0, 0), BuildingBlock: TEMPAE_clean_linker_10, # of connection points: 2
#     Edge 24, Type (0, 0), BuildingBlock: TEMPAE_clean_linker_10, # of connection points: 2
#     Edge 25, Type (0, 0), BuildingBlock: TEMPAE_clean_linker_10, # of connection points: 2
#     Edge 26, Type (0, 0), BuildingBlock: TEMPAE_clean_linker_10, # of connection points: 2
#     Edge 27, Type (0, 0), BuildingBlock: TEMPAE_clean_linker_10, # of connection points: 2
#     Edge 28, Type (0, 0), BuildingBlock: TEMPAE_clean_linker_10, # of connection points: 2
#     Edge 29, Type (0, 0), BuildingBlock: TEMPAE_clean_linker_10, # of connection points: 2
#     Edge 30, Type (0, 0), BuildingBlock: TEMPAE_clean_linker_10, # of connection points: 2
#     Edge 31, Type (0, 0), BuildingBlock: TEMPAE_clean_linker_10, # of connection points: 2
#     Edge 32, Type (0, 0), BuildingBlock: TEMPAE_clean_linker_10, # of connection points: 2
#     Edge 33, Type (0, 0), BuildingBlock: TEMPAE_clean_linker_10, # of connection points: 2
#     Edge 34, Type (0, 0), BuildingBlock: TEMPAE_clean_linker_10, # of connection points: 2
#     Edge 35, Type (0, 0), BuildingBlock: TEMPAE_clean_linker_10, # of connection points: 2
#     Edge 36, Type (0, 0), BuildingBlock: TEMPAE_clean_linker_10, # of connection points: 2
#     Edge 37, Type (0, 0), BuildingBlock: TEMPAE_clean_linker_10, # of connection points: 2
#     Edge 38, Type (0, 0), BuildingBlock: TEMPAE_clean_linker_10, # of connection points: 2
#     Edge 39, Type (0, 0), BuildingBlock: TEMPAE_clean_linker_10, # of connection points: 2
#     Edge 40, Type (0, 0), BuildingBlock: TEMPAE_clean_linker_10, # of connection points: 2
#     Edge 41, Type (0, 0), BuildingBlock: TEMPAE_clean_linker_10, # of connection points: 2
#     Edge 42, Type (0, 0), BuildingBlock: TEMPAE_clean_linker_10, # of connection points: 2
#     Edge 43, Type (0, 0), BuildingBlock: TEMPAE_clean_linker_10, # of connection points: 2
#     Edge 44, Type (0, 0), BuildingBlock: TEMPAE_clean_linker_10, # of connection points: 2
#     Edge 45, Type (0, 0), BuildingBlock: TEMPAE_clean_linker_10, # of connection points: 2
#     Edge 46, Type (0, 0), BuildingBlock: TEMPAE_clean_linker_10, # of connection points: 2
#     Edge 47, Type (0, 0), BuildingBlock: TEMPAE_clean_linker_10, # of connection points: 2
# Relax obj value: 0.089
# Max RMSD: 0.145
# Mean RMSD: 0.139
data_MOF--net-gis--node1-KUFVIS_clean_sbu_0--edge1-TEMPAE_clean_linker_10
_symmetry_space_group_name_H-M    P1
_symmetry_Int_Tables_number       1
_symmetry_cell_setting            triclinic
loop_
_symmetry_equiv_pos_as_xyz
'x, y, z'
_cell_length_a     50.48216
_cell_length_b     54.588438
_cell_length_c     38.617821
_cell_angle_alpha  90.440634
_cell_angle_beta   90.234407
_cell_angle_gamma 90.133982
loop_
_atom_site_label
_atom_site_type_symbol
_atom_site_fract_x
_atom_site_fract_y
_atom_site_fract_z
_atom_type_partial_charge
Mn0 Mn 0.12899 0.60745 0.11725 0.0
Mn1 Mn 0.09997 0.63037 0.18882 0.0
C2 C 0.08495 0.61851 0.11569 0.0
C3 C 0.14051 0.57315 0.08429 0.0
C4 C 0.13396 0.66105 0.1414 0.0
O5 O 0.15542 0.59882 0.15479 0.0
O6 O 0.13476 0.61555 0.20052 0.0
C7 C 0.09018 0.58257 0.22222 0.0
N8 N 0.08093 0.60439 0.21041 0.0
C9 C 0.03699 0.59548 0.23068 0.0
C10 C 0.04605 0.57295 0.24321 0.0
C11 C 0.07274 0.56641 0.23878 0.0
C12 C 0.05521 0.61064 0.21391 0.0
H13 H 0.11072 0.57757 0.21906 0.0
C14 C 0.15431 0.60423 0.18685 0.0
O15 O 0.1531 0.59379 0.08069 0.0
O16 O 0.12206 0.5725 0.10742 0.0
N17 N 0.06618 0.64548 0.1827 0.0
C18 C 0.06049 0.66757 0.16833 0.0
C19 C 0.03488 0.67724 0.17155 0.0
C20 C 0.01548 0.66419 0.18975 0.0
C21 C 0.02158 0.6412 0.20354 0.0
C22 C 0.04752 0.63264 0.19987 0.0
H23 H 0.07541 0.67778 0.15467 0.0
O24 O 0.09847 0.61648 0.08736 0.0
O25 O 0.09741 0.61328 0.14428 0.0
O26 O 0.14053 0.64377 0.12051 0.0
O27 O 0.11861 0.658 0.16731 0.0
C28 C 0.00303 0.62654 0.2211 0.0
C29 C 0.01064 0.60355 0.23425 0.0
H30 H 0.0327 0.56052 0.25624 0.0
H31 H 0.07987 0.54903 0.24831 0.0
H32 H 0.0302 0.69485 0.16043 0.0
H33 H 0.99595 0.672 0.19292 0.0
H34 H 0.98281 0.63268 0.2244 0.0
H35 H 0.99612 0.5923 0.24729 0.0
Mn36 Mn 0.66093 0.88018 0.39544 0.0
Mn37 Mn 0.65431 0.86069 0.47767 0.0
C38 C 0.66114 0.83868 0.40693 0.0
C39 C 0.68792 0.89394 0.35096 0.0
C40 C 0.60786 0.87696 0.43347 0.0
O41 O 0.66706 0.91129 0.42336 0.0
O42 O 0.66371 0.89616 0.47715 0.0
C43 C 0.71073 0.86613 0.49758 0.0
N44 N 0.68863 0.85191 0.49445 0.0
C45 C 0.71127 0.81717 0.51841 0.0
C46 C 0.73423 0.83147 0.52209 0.0
C47 C 0.73399 0.85604 0.51147 0.0
C48 C 0.68879 0.82816 0.50401 0.0
H49 H 0.71061 0.88503 0.4895 0.0
C50 C 0.66769 0.91383 0.45615 0.0
O51 O 0.66271 0.89866 0.35108 0.0
O52 O 0.69737 0.88169 0.37683 0.0
N53 N 0.64548 0.82686 0.48322 0.0
C54 C 0.62177 0.8155 0.47764 0.0
C55 C 0.61842 0.79106 0.48779 0.0
C56 C 0.63938 0.77865 0.50389 0.0
C57 C 0.66372 0.79058 0.50897 0.0
C58 C 0.66578 0.81503 0.49868 0.0
H59 H 0.60557 0.82498 0.46549 0.0
O60 O 0.6564 0.84658 0.37597 0.0
O61 O 0.66668 0.85531 0.43025 0.0
O62 O 0.6213 0.88205 0.40648 0.0
O63 O 0.61809 0.86878 0.46148 0.0
C64 C 0.68593 0.77925 0.52414 0.0
C65 C 0.70978 0.79246 0.5285 0.0
H66 H 0.75216 0.82379 0.53296 0.0
H67 H 0.75165 0.86718 0.51412 0.0
H68 H 0.59964 0.78189 0.48353 0.0
H69 H 0.6365 0.76002 0.51249 0.0
H70 H 0.68493 0.76035 0.53238 0.0
H71 H 0.7268 0.78348 0.53985 0.0
Mn72 Mn 0.34236 0.39588 0.60412 0.0
Mn73 Mn 0.35984 0.36499 0.67617 0.0
C74 C 0.38645 0.38655 0.61348 0.0
C75 C 0.33349 0.43162 0.57407 0.0
C76 C 0.33667 0.3404 0.61295 0.0
O77 O 0.30998 0.40034 0.63446 0.0
O78 O 0.32338 0.37797 0.67989 0.0
C79 C 0.36014 0.4069 0.72529 0.0
N80 N 0.3725 0.38717 0.71091 0.0
C81 C 0.40799 0.38965 0.7525 0.0
C82 C 0.39567 0.41001 0.76782 0.0
C83 C 0.37175 0.4188 0.75395 0.0
C84 C 0.39575 0.37888 0.72358 0.0
H85 H 0.34146 0.41332 0.71516 0.0
C86 C 0.30625 0.39097 0.66407 0.0
O87 O 0.32359 0.41072 0.56429 0.0
O88 O 0.34783 0.43189 0.60208 0.0
N89 N 0.39444 0.35096 0.67775 0.0
C90 C 0.40457 0.33228 0.65839 0.0
C91 C 0.42902 0.32201 0.66783 0.0
C92 C 0.44236 0.33057 0.6976 0.0
C93 C 0.43139 0.3497 0.71727 0.0
C94 C 0.40729 0.35954 0.70617 0.0
H95 H 0.39394 0.32518 0.63612 0.0
O96 O 0.37736 0.39087 0.58267 0.0
O97 O 0.36938 0.38806 0.63885 0.0
O98 O 0.33306 0.35972 0.59528 0.0
O99 O 0.34725 0.3403 0.64293 0.0
C100 C 0.44336 0.35941 0.74747 0.0
C101 C 0.43185 0.37955 0.76482 0.0
H102 H 0.40442 0.41905 0.79018 0.0
H103 H 0.36211 0.43448 0.76563 0.0
H104 H 0.43737 0.30726 0.65253 0.0
H105 H 0.46103 0.32237 0.70501 0.0
H106 H 0.46151 0.3517 0.75751 0.0
H107 H 0.44158 0.38719 0.78752 0.0
Mn108 Mn 0.86645 0.10123 0.88065 0.0
Mn109 Mn 0.88742 0.12904 0.808 0.0
C110 C 0.9112 0.10915 0.87358 0.0
C111 C 0.85547 0.06687 0.91305 0.0
C112 C 0.86464 0.15681 0.86818 0.0
O113 O 0.83501 0.09621 0.84871 0.0
O114 O 0.84979 0.11847 0.8042 0.0
C115 C 0.88444 0.08517 0.76246 0.0
N116 N 0.89822 0.10477 0.77516 0.0
C117 C 0.93344 0.09826 0.73443 0.0
C118 C 0.91963 0.07803 0.72079 0.0
C119 C 0.89513 0.07133 0.7351 0.0
C120 C 0.92207 0.111 0.76218 0.0
H121 H 0.86536 0.08029 0.77292 0.0
C122 C 0.83186 0.10586 0.81915 0.0
O123 O 0.84591 0.08832 0.92041 0.0
O124 O 0.87076 0.06525 0.88619 0.0
N125 N 0.92303 0.14072 0.80566 0.0
C126 C 0.93458 0.15957 0.82344 0.0
C127 C 0.95937 0.16839 0.81286 0.0
C128 C 0.97179 0.15802 0.78377 0.0
C129 C 0.95963 0.13847 0.76602 0.0
C130 C 0.93503 0.13036 0.77795 0.0
H131 H 0.92489 0.16781 0.84542 0.0
O132 O 0.90085 0.10646 0.90401 0.0
O133 O 0.89501 0.10693 0.84717 0.0
O134 O 0.8576 0.13804 0.88542 0.0
O135 O 0.87725 0.15556 0.83972 0.0
C136 C 0.97087 0.12666 0.73699 0.0
C137 C 0.95796 0.10637 0.7215 0.0
H138 H 0.92766 0.0675 0.69941 0.0
H139 H 0.88434 0.05574 0.72474 0.0
H140 H 0.96871 0.18339 0.82679 0.0
H141 H 0.99066 0.16523 0.77546 0.0
H142 H 0.98952 0.13278 0.72648 0.0
H143 H 0.96709 0.09715 0.69969 0.0
Mn144 Mn 0.15079 0.37995 0.89505 0.0
Mn145 Mn 0.14356 0.36021 0.97708 0.0
C146 C 0.15449 0.33871 0.90646 0.0
C147 C 0.17673 0.39645 0.85157 0.0
C148 C 0.09743 0.37281 0.93023 0.0
O149 O 0.15282 0.41135 0.92353 0.0
O150 O 0.15204 0.39583 0.97729 0.0
C151 C 0.19928 0.36689 0.99951 0.0
N152 N 0.17773 0.35212 0.99509 0.0
C153 C 0.20108 0.31753 0.01829 0.0
C154 C 0.22348 0.3324 0.02334 0.0
C155 C 0.2226 0.35716 0.01376 0.0
C156 C 0.1785 0.32819 0.00367 0.0
H157 H 0.19871 0.38592 0.99213 0.0
C158 C 0.15429 0.41377 0.95632 0.0
O159 O 0.15116 0.3988 0.85129 0.0
O160 O 0.18727 0.38513 0.87767 0.0
N161 N 0.13558 0.32611 0.98158 0.0
C162 C 0.11222 0.3143 0.97521 0.0
C163 C 0.10962 0.2895 0.98392 0.0
C164 C 0.13087 0.27723 0.99961 0.0
C165 C 0.15466 0.28977 0.00609 0.0
C166 C 0.15604 0.31452 0.99705 0.0
H167 H 0.09566 0.32372 0.96368 0.0
O168 O 0.15049 0.3463 0.87516 0.0
O169 O 0.15767 0.35561 0.93016 0.0
O170 O 0.11119 0.37748 0.9035 0.0
O171 O 0.10729 0.36741 0.95975 0.0
C172 C 0.17698 0.27877 0.02147 0.0
C173 C 0.20027 0.29257 0.02722 0.0
H174 H 0.24146 0.32499 0.03446 0.0
H175 H 0.23983 0.36874 0.01743 0.0
H176 H 0.0912 0.27992 0.97887 0.0
H177 H 0.12859 0.25825 0.00693 0.0
H178 H 0.1765 0.25967 0.02887 0.0
H179 H 0.21738 0.28383 0.03872 0.0
Mn180 Mn 0.86212 0.89197 0.11183 0.0
Mn181 Mn 0.88102 0.86321 0.18503 0.0
C182 C 0.90646 0.88299 0.12032 0.0
C183 C 0.85234 0.9269 0.08 0.0
C184 C 0.85735 0.83649 0.12401 0.0
O185 O 0.83011 0.89702 0.14276 0.0
O186 O 0.84412 0.87532 0.18847 0.0
C187 C 0.88052 0.90691 0.23088 0.0
N188 N 0.89332 0.88695 0.2179 0.0
C189 C 0.92954 0.8925 0.2578 0.0
C190 C 0.91675 0.9131 0.27172 0.0
C191 C 0.89223 0.92045 0.25799 0.0
C192 C 0.91713 0.88002 0.23041 0.0
H193 H 0.86144 0.91233 0.22082 0.0
C194 C 0.82662 0.88786 0.17257 0.0
O195 O 0.8425 0.90566 0.07169 0.0
O196 O 0.86722 0.92797 0.10747 0.0
N197 N 0.91602 0.85007 0.18717 0.0
C198 C 0.92645 0.8308 0.16931 0.0
C199 C 0.95139 0.82167 0.17892 0.0
C200 C 0.96495 0.83199 0.2074 0.0
C201 C 0.9537 0.8517 0.22555 0.0
C202 C 0.92903 0.86027 0.2144 0.0
H203 H 0.9157 0.8224 0.14806 0.0
O204 O 0.89676 0.88654 0.08962 0.0
O205 O 0.88986 0.88519 0.14613 0.0
O206 O 0.85293 0.85541 0.10566 0.0
O207 O 0.86879 0.8372 0.15348 0.0
C208 C 0.96597 0.86326 0.25421 0.0
C209 C 0.95406 0.88381 0.27006 0.0
H210 H 0.92561 0.92344 0.29286 0.0
H211 H 0.88223 0.93634 0.26857 0.0
H212 H 0.95998 0.80647 0.16477 0.0
H213 H 0.98401 0.82468 0.21499 0.0
H214 H 0.98466 0.85671 0.26415 0.0
H215 H 0.96398 0.89284 0.29158 0.0
Mn216 Mn 0.35937 0.60729 0.38057 0.0
Mn217 Mn 0.38054 0.63469 0.30749 0.0
C218 C 0.40404 0.61517 0.37423 0.0
C219 C 0.34693 0.57292 0.41158 0.0
C220 C 0.35577 0.6623 0.36711 0.0
O221 O 0.32791 0.60334 0.34827 0.0
O222 O 0.34423 0.62138 0.30088 0.0
C223 C 0.38344 0.59074 0.26232 0.0
N224 N 0.39501 0.61115 0.27617 0.0
C225 C 0.43284 0.60694 0.23902 0.0
C226 C 0.42136 0.58587 0.22425 0.0
C227 C 0.39665 0.57762 0.23618 0.0
C228 C 0.41898 0.61894 0.26543 0.0
H229 H 0.36419 0.5847 0.27094 0.0
C230 C 0.32581 0.61017 0.31698 0.0
O231 O 0.33813 0.59454 0.41951 0.0
O232 O 0.36258 0.57116 0.38505 0.0
N233 N 0.41517 0.6488 0.30844 0.0
C234 C 0.42427 0.66831 0.32723 0.0
C235 C 0.44922 0.67828 0.31961 0.0
C236 C 0.46416 0.66854 0.29215 0.0
C237 C 0.45431 0.6485 0.27309 0.0
C238 C 0.42957 0.63907 0.28231 0.0
H239 H 0.41245 0.67629 0.34765 0.0
O240 O 0.39363 0.61156 0.40443 0.0
O241 O 0.388 0.61324 0.34758 0.0
O242 O 0.35185 0.64393 0.38657 0.0
O243 O 0.36632 0.66079 0.33726 0.0
C244 C 0.46798 0.63748 0.24531 0.0
C245 C 0.45742 0.61656 0.22854 0.0
H246 H 0.43135 0.57587 0.20381 0.0
H247 H 0.38766 0.56138 0.22493 0.0
H248 H 0.45674 0.69371 0.33446 0.0
H249 H 0.48315 0.67659 0.28601 0.0
H250 H 0.48671 0.64477 0.2367 0.0
H251 H 0.46843 0.60795 0.20775 0.0
Mn252 Mn 0.63972 0.10991 0.61092 0.0
Mn253 Mn 0.61191 0.13445 0.68235 0.0
C254 C 0.59599 0.12207 0.60915 0.0
C255 C 0.65107 0.07468 0.57995 0.0
C256 C 0.64823 0.16276 0.63459 0.0
O257 O 0.66616 0.10196 0.64905 0.0
O258 O 0.64413 0.11598 0.69553 0.0
C259 C 0.59523 0.08833 0.71569 0.0
N260 N 0.58913 0.11089 0.7032 0.0
C261 C 0.54399 0.10722 0.72214 0.0
C262 C 0.54977 0.08397 0.73535 0.0
C263 C 0.57546 0.07442 0.7319 0.0
C264 C 0.56438 0.12004 0.70574 0.0
H265 H 0.61503 0.08107 0.71334 0.0
C266 C 0.66399 0.10531 0.68161 0.0
O267 O 0.66371 0.09517 0.57527 0.0
O268 O 0.63243 0.07471 0.60289 0.0
N269 N 0.5805 0.15309 0.6744 0.0
C270 C 0.57805 0.17547 0.65934 0.0
C271 C 0.55362 0.18766 0.66062 0.0
C272 C 0.53215 0.17692 0.6779 0.0
C273 C 0.53511 0.15384 0.69312 0.0
C274 C 0.5599 0.14256 0.69093 0.0
H275 H 0.59469 0.18409 0.6468 0.0
O276 O 0.60916 0.11857 0.58078 0.0
O277 O 0.60852 0.11727 0.63785 0.0
O278 O 0.65159 0.14599 0.61175 0.0
O279 O 0.63457 0.15998 0.66207 0.0
C280 C 0.51454 0.14167 0.71066 0.0
C281 C 0.51886 0.11823 0.7247 0.0
H282 H 0.53463 0.07328 0.74812 0.0
H283 H 0.58007 0.05647 0.74196 0.0
H284 H 0.55147 0.20546 0.6488 0.0
H285 H 0.51349 0.18661 0.67941 0.0
H286 H 0.49524 0.15009 0.71329 0.0
H287 H 0.50276 0.10889 0.73758 0.0
Mn288 Mn 0.85716 0.38494 0.89167 0.0
Mn289 Mn 0.88285 0.35778 0.82093 0.0
C290 C 0.90084 0.37236 0.89231 0.0
C291 C 0.84655 0.42093 0.921 0.0
C292 C 0.8463 0.332 0.87128 0.0
O293 O 0.83023 0.39224 0.85375 0.0
O294 O 0.85164 0.37746 0.80712 0.0
C295 C 0.90192 0.40183 0.78436 0.0
N296 N 0.9068 0.37947 0.79834 0.0
C297 C 0.95193 0.38019 0.77869 0.0
C298 C 0.94741 0.40322 0.76396 0.0
C299 C 0.92235 0.41416 0.76702 0.0
C300 C 0.93097 0.36902 0.79622 0.0
H301 H 0.88258 0.41014 0.78638 0.0
C302 C 0.83218 0.38871 0.82116 0.0
O303 O 0.83395 0.40064 0.92712 0.0
O304 O 0.86492 0.42026 0.89764 0.0
N305 N 0.91322 0.33795 0.82997 0.0
C306 C 0.91456 0.31613 0.84679 0.0
C307 C 0.93828 0.30278 0.84632 0.0
C308 C 0.96018 0.31177 0.82802 0.0
C309 C 0.95835 0.3343 0.81096 0.0
C310 C 0.93427 0.34687 0.81258 0.0
H311 H 0.89758 0.30882 0.86017 0.0
O312 O 0.88845 0.37671 0.92108 0.0
O313 O 0.88752 0.37637 0.86403 0.0
O314 O 0.84463 0.34924 0.89362 0.0
O315 O 0.85897 0.33387 0.84283 0.0
C316 C 0.97935 0.34467 0.7921 0.0
C317 C 0.97631 0.36779 0.7765 0.0
H318 H 0.96304 0.41267 0.75028 0.0
H319 H 0.91872 0.43194 0.75579 0.0
H320 H 0.93955 0.28543 0.85959 0.0
H321 H 0.97834 0.30124 0.82731 0.0
H322 H 0.99798 0.33506 0.78954 0.0
H323 H 0.99279 0.37578 0.76267 0.0
Mn324 Mn 0.34646 0.12412 0.59447 0.0
Mn325 Mn 0.35658 0.13978 0.51103 0.0
C326 C 0.3437 0.16455 0.57888 0.0
C327 C 0.31883 0.10991 0.63792 0.0
C328 C 0.4009 0.12844 0.5615 0.0
O329 O 0.34509 0.09166 0.56874 0.0
O330 O 0.34676 0.10451 0.51344 0.0
C331 C 0.30135 0.13394 0.48618 0.0
N332 N 0.32337 0.14813 0.49037 0.0
C333 C 0.30206 0.18242 0.46324 0.0
C334 C 0.27926 0.16808 0.45824 0.0
C335 C 0.27888 0.14376 0.4699 0.0
C336 C 0.32382 0.17165 0.47971 0.0
H337 H 0.30091 0.11532 0.49534 0.0
C338 C 0.34413 0.08776 0.5362 0.0
O339 O 0.34432 0.1071 0.63969 0.0
O340 O 0.30937 0.12031 0.61039 0.0
N341 N 0.36599 0.17339 0.50422 0.0
C342 C 0.38938 0.18489 0.51149 0.0
C343 C 0.39292 0.2094 0.50175 0.0
C344 C 0.37259 0.22171 0.48414 0.0
C345 C 0.34886 0.2094 0.47645 0.0
C346 C 0.34652 0.18492 0.48663 0.0
H347 H 0.40519 0.17549 0.52474 0.0
O348 O 0.34658 0.15857 0.61112 0.0
O349 O 0.34113 0.1466 0.55671 0.0
O350 O 0.38629 0.12574 0.58801 0.0
O351 O 0.392 0.13224 0.53095 0.0
C352 C 0.32741 0.22045 0.45916 0.0
C353 C 0.30396 0.20703 0.45278 0.0
H354 H 0.26188 0.1756 0.44572 0.0
H355 H 0.26129 0.13263 0.46638 0.0
H356 H 0.41132 0.21877 0.5077 0.0
H357 H 0.37547 0.24056 0.4765 0.0
H358 H 0.32866 0.23932 0.45086 0.0
H359 H 0.28748 0.21583 0.43988 0.0
Mn360 Mn 0.64682 0.60704 0.39588 0.0
Mn361 Mn 0.63139 0.63175 0.3191 0.0
C362 C 0.60336 0.61951 0.38573 0.0
C363 C 0.65358 0.57153 0.42795 0.0
C364 C 0.66155 0.65874 0.37609 0.0
O365 O 0.67881 0.59951 0.36533 0.0
O366 O 0.66137 0.60893 0.31339 0.0
C367 C 0.61227 0.58712 0.28278 0.0
N368 N 0.60812 0.61056 0.29375 0.0
C369 C 0.5655 0.61173 0.26586 0.0
C370 C 0.56931 0.58763 0.2541 0.0
C371 C 0.59272 0.57521 0.26285 0.0
C372 C 0.58532 0.62238 0.2865 0.0
H373 H 0.63037 0.57763 0.28915 0.0
C374 C 0.67935 0.59946 0.33234 0.0
O375 O 0.66485 0.5921 0.43668 0.0
O376 O 0.63879 0.5716 0.40043 0.0
N377 N 0.60258 0.6544 0.31986 0.0
C378 C 0.60267 0.6781 0.33138 0.0
C379 C 0.5811 0.69335 0.32382 0.0
C380 C 0.56001 0.68435 0.30362 0.0
C381 C 0.56068 0.66016 0.29121 0.0
C382 C 0.58263 0.64577 0.29971 0.0
H383 H 0.61913 0.68548 0.346 0.0
O384 O 0.61166 0.61526 0.41693 0.0
O385 O 0.62054 0.61531 0.36151 0.0
O386 O 0.65833 0.64276 0.39965 0.0
O387 O 0.65479 0.65522 0.34442 0.0
C388 C 0.54079 0.65003 0.26987 0.0
C389 C 0.54305 0.62576 0.25742 0.0
H390 H 0.55445 0.57854 0.23826 0.0
H391 H 0.5958 0.55659 0.25393 0.0
H392 H 0.5809 0.71209 0.33317 0.0
H393 H 0.54347 0.69621 0.2976 0.0
H394 H 0.52387 0.66094 0.26263 0.0
H395 H 0.52756 0.61813 0.2411 0.0
Mn396 Mn 0.14993 0.88898 0.10621 0.0
Mn397 Mn 0.13444 0.86936 0.18542 0.0
C398 C 0.10595 0.87926 0.1178 0.0
C399 C 0.15871 0.92289 0.07182 0.0
C400 C 0.16253 0.83832 0.13112 0.0
O401 O 0.18291 0.89573 0.13565 0.0
O402 O 0.16543 0.89161 0.18876 0.0
C403 C 0.11713 0.91619 0.217 0.0
N404 N 0.11202 0.89242 0.20834 0.0
C405 C 0.06884 0.89432 0.23426 0.0
C406 C 0.07366 0.9188 0.24364 0.0
C407 C 0.09785 0.92983 0.23476 0.0
C408 C 0.08855 0.88184 0.21588 0.0
H409 H 0.13578 0.92466 0.21039 0.0
C410 C 0.18412 0.89804 0.16849 0.0
O411 O 0.16841 0.90148 0.06418 0.0
O412 O 0.14424 0.92447 0.09937 0.0
N413 N 0.10475 0.84755 0.18673 0.0
C414 C 0.10378 0.82337 0.17759 0.0
C415 C 0.08126 0.80942 0.18562 0.0
C416 C 0.06025 0.82027 0.20375 0.0
C417 C 0.06201 0.84495 0.21377 0.0
C418 C 0.08492 0.85795 0.20506 0.0
H419 H 0.1201 0.81463 0.16454 0.0
O420 O 0.11395 0.88192 0.08617 0.0
O421 O 0.12378 0.88361 0.1414 0.0
O422 O 0.15889 0.85259 0.10552 0.0
O423 O 0.15691 0.84411 0.16249 0.0
C424 C 0.04213 0.85698 0.23274 0.0
C425 C 0.04541 0.88171 0.24277 0.0
H426 H 0.05895 0.92928 0.25769 0.0
H427 H 0.1017 0.94873 0.24182 0.0
H428 H 0.08018 0.79031 0.17813 0.0
H429 H 0.04293 0.80945 0.21 0.0
H430 H 0.02433 0.84725 0.23979 0.0
H431 H 0.02986 0.89078 0.25721 0.0
Mn432 Mn 0.83509 0.61799 0.09971 0.0
Mn433 Mn 0.84649 0.63523 0.01709 0.0
C434 C 0.83703 0.65902 0.08669 0.0
C435 C 0.80686 0.60494 0.14316 0.0
C436 C 0.8898 0.61955 0.0663 0.0
O437 O 0.82988 0.58648 0.0724 0.0
O438 O 0.83487 0.60041 0.01817 0.0
C439 C 0.79072 0.63248 0.99333 0.0
N440 N 0.8135 0.64557 0.99771 0.0
C441 C 0.7936 0.68154 0.97321 0.0
C442 C 0.76997 0.66839 0.96821 0.0
C443 C 0.76851 0.64378 0.97842 0.0
C444 C 0.81499 0.66936 0.98847 0.0
H445 H 0.78948 0.61359 0.00127 0.0
C446 C 0.82988 0.58333 0.03972 0.0
O447 O 0.83192 0.5998 0.14379 0.0
O448 O 0.79804 0.61713 0.11675 0.0
N449 N 0.85781 0.66837 0.01094 0.0
C450 C 0.8824 0.67813 0.01621 0.0
C451 C 0.8875 0.70235 0.00627 0.0
C452 C 0.86745 0.71612 0.99041 0.0
C453 C 0.84243 0.70561 0.98478 0.0
C454 C 0.83861 0.68128 0.99486 0.0
H455 H 0.89804 0.66751 0.02788 0.0
O456 O 0.8393 0.65171 0.11843 0.0
O457 O 0.83206 0.64217 0.06342 0.0
O458 O 0.8748 0.61611 0.09226 0.0
O459 O 0.88151 0.6257 0.03626 0.0
C460 C 0.82124 0.71819 0.96914 0.0
C461 C 0.79676 0.70623 0.96364 0.0
H462 H 0.75283 0.67702 0.95661 0.0
H463 H 0.75031 0.63354 0.97478 0.0
H464 H 0.9069 0.71032 0.01053 0.0
H465 H 0.87163 0.73461 0.98211 0.0
H466 H 0.82355 0.73708 0.96128 0.0
H467 H 0.78057 0.71613 0.95177 0.0
Mn468 Mn 0.15465 0.10626 0.88784 0.0
Mn469 Mn 0.13793 0.13061 0.81111 0.0
C470 C 0.11056 0.11594 0.87716 0.0
C471 C 0.16338 0.0709 0.91928 0.0
C472 C 0.16418 0.15954 0.86958 0.0
O473 O 0.18754 0.10099 0.85823 0.0
O474 O 0.17101 0.11164 0.80631 0.0
C475 C 0.12599 0.08419 0.77405 0.0
N476 N 0.11833 0.10689 0.7849 0.0
C477 C 0.07587 0.10236 0.75716 0.0
C478 C 0.08331 0.07899 0.74551 0.0
C479 C 0.10843 0.0698 0.7542 0.0
C480 C 0.09394 0.11558 0.77764 0.0
H481 H 0.14533 0.07714 0.78052 0.0
C482 C 0.1891 0.10256 0.82544 0.0
O483 O 0.17313 0.09198 0.92883 0.0
O484 O 0.14908 0.07046 0.89135 0.0
N485 N 0.10624 0.14967 0.81064 0.0
C486 C 0.10311 0.17341 0.82112 0.0
C487 C 0.07962 0.18584 0.81296 0.0
C488 C 0.05991 0.17401 0.79323 0.0
C489 C 0.06398 0.14992 0.78165 0.0
C490 C 0.08776 0.13845 0.7906 0.0
H491 H 0.11846 0.18291 0.83542 0.0
O492 O 0.11888 0.11203 0.90842 0.0
O493 O 0.12816 0.113 0.85303 0.0
O494 O 0.16337 0.14268 0.89232 0.0
O495 O 0.15725 0.1563 0.83789 0.0
C496 C 0.04577 0.13719 0.76051 0.0
C497 C 0.05146 0.11327 0.74872 0.0
H498 H 0.06996 0.06799 0.72977 0.0
H499 H 0.11432 0.05176 0.74538 0.0
H500 H 0.07682 0.20456 0.82156 0.0
H501 H 0.04186 0.18369 0.78681 0.0
H502 H 0.02753 0.14582 0.75281 0.0
H503 H 0.03715 0.10365 0.73263 0.0
Mn504 Mn 0.63037 0.39465 0.6229 0.0
Mn505 Mn 0.60732 0.37417 0.69916 0.0
C506 C 0.5857 0.38642 0.62928 0.0
C507 C 0.64192 0.42741 0.58745 0.0
C508 C 0.63164 0.34062 0.64573 0.0
O509 O 0.66138 0.40176 0.65508 0.0
O510 O 0.64487 0.38448 0.70282 0.0
C511 C 0.6095 0.42319 0.73253 0.0
N512 N 0.59539 0.40288 0.72311 0.0
C513 C 0.55567 0.41934 0.74826 0.0
C514 C 0.56977 0.4404 0.75829 0.0
C515 C 0.59679 0.44237 0.75022 0.0
C516 C 0.56923 0.40112 0.72984 0.0
H517 H 0.6303 0.42479 0.7266 0.0
C518 C 0.66358 0.39491 0.68634 0.0
O519 O 0.65171 0.40568 0.58224 0.0
O520 O 0.62597 0.42999 0.6134 0.0
N521 N 0.57137 0.36333 0.70166 0.0
C522 C 0.56199 0.34026 0.69573 0.0
C523 C 0.53578 0.33447 0.70436 0.0
C524 C 0.51975 0.35219 0.72021 0.0
C525 C 0.53035 0.37527 0.72843 0.0
C526 C 0.55661 0.37999 0.71903 0.0
H527 H 0.57445 0.32637 0.68457 0.0
O528 O 0.59619 0.38767 0.5988 0.0
O529 O 0.60142 0.39111 0.65534 0.0
O530 O 0.63869 0.35763 0.62495 0.0
O531 O 0.61871 0.3444 0.6738 0.0
C532 C 0.51635 0.39327 0.74721 0.0
C533 C 0.52886 0.41547 0.75657 0.0
H534 H 0.56012 0.45506 0.77243 0.0
H535 H 0.60783 0.45856 0.75786 0.0
H536 H 0.52803 0.3163 0.69914 0.0
H537 H 0.49967 0.34753 0.72696 0.0
H538 H 0.49609 0.39007 0.75512 0.0
H539 H 0.51789 0.42914 0.77104 0.0
Mn540 Mn 0.35639 0.88052 0.38486 0.0
Mn541 Mn 0.3637 0.8658 0.46905 0.0
C542 C 0.35741 0.84 0.40036 0.0
C543 C 0.32799 0.89153 0.34 0.0
C544 C 0.40913 0.88214 0.42325 0.0
O545 O 0.35037 0.91261 0.41022 0.0
O546 O 0.35037 0.89998 0.46565 0.0
C547 C 0.30709 0.86621 0.4886 0.0
N548 N 0.33061 0.85416 0.48633 0.0
C549 C 0.31173 0.8178 0.51105 0.0
C550 C 0.28735 0.82988 0.51393 0.0
C551 C 0.285 0.85417 0.50255 0.0
C552 C 0.33302 0.83072 0.49685 0.0
H553 H 0.30518 0.88484 0.47972 0.0
C554 C 0.34747 0.91645 0.44254 0.0
O555 O 0.353 0.89724 0.3391 0.0
O556 O 0.31961 0.88015 0.36717 0.0
N557 N 0.37632 0.83325 0.4767 0.0
C558 C 0.40106 0.82404 0.47142 0.0
C559 C 0.40662 0.79981 0.48101 0.0
C560 C 0.38684 0.78546 0.4964 0.0
C561 C 0.36167 0.79547 0.50212 0.0
C562 C 0.35731 0.81973 0.49212 0.0
H563 H 0.4164 0.83502 0.45981 0.0
O564 O 0.36114 0.84627 0.36842 0.0
O565 O 0.3519 0.8576 0.42205 0.0
O566 O 0.39611 0.88321 0.39487 0.0
O567 O 0.39881 0.87701 0.45256 0.0
C568 C 0.34069 0.78231 0.51723 0.0
C569 C 0.31569 0.7934 0.52145 0.0
H570 H 0.27026 0.82065 0.52466 0.0
H571 H 0.26621 0.86358 0.5045 0.0
H572 H 0.42611 0.79223 0.47658 0.0
H573 H 0.39122 0.76681 0.50381 0.0
H574 H 0.34352 0.76359 0.52553 0.0
H575 H 0.29963 0.78297 0.53266 0.0
C576 C 0.15883 0.80052 0.09501 0.0
C577 C 0.16952 0.8125 0.12413 0.0
C578 C 0.15826 0.77484 0.09298 0.0
C579 C 0.1692 0.76096 0.12035 0.0
C580 C 0.18302 0.77307 0.14752 0.0
C581 C 0.18264 0.79875 0.14941 0.0
C582 C 0.14301 0.76279 0.06376 0.0
C583 C 0.19573 0.75897 0.17663 0.0
C584 C 0.1297 0.70612 0.14984 0.0
C585 C 0.14354 0.68636 0.13521 0.0
C586 C 0.1377 0.73031 0.14453 0.0
C587 C 0.16075 0.73507 0.12494 0.0
C588 C 0.17517 0.71529 0.11039 0.0
C589 C 0.16618 0.6911 0.11533 0.0
C590 C 0.12132 0.75081 0.15996 0.0
C591 C 0.20024 0.71968 0.09022 0.0
H592 H 0.1486 0.81108 0.07544 0.0
H593 H 0.19122 0.80799 0.17176 0.0
H594 H 0.15304 0.7459 0.05465 0.0
H595 H 0.12309 0.75746 0.07322 0.0
H596 H 0.1404 0.77531 0.04147 0.0
H597 H 0.21049 0.77032 0.19097 0.0
H598 H 0.18023 0.75315 0.19514 0.0
H599 H 0.20563 0.74224 0.16667 0.0
H600 H 0.11229 0.70279 0.16538 0.0
H601 H 0.17714 0.67592 0.10423 0.0
H602 H 0.11529 0.76382 0.13945 0.0
H603 H 0.13324 0.76122 0.17929 0.0
H604 H 0.10316 0.74399 0.17293 0.0
H605 H 0.19644 0.73252 0.06866 0.0
H606 H 0.20859 0.70244 0.07943 0.0
H607 H 0.21531 0.72838 0.10735 0.0
C608 C 0.45271 0.87212 0.39725 0.0
C609 C 0.43807 0.88508 0.42202 0.0
C610 C 0.48049 0.87217 0.39829 0.0
C611 C 0.49384 0.88621 0.42401 0.0
C612 C 0.47905 0.90034 0.44797 0.0
C613 C 0.45127 0.89919 0.44715 0.0
C614 C 0.4955 0.85622 0.37301 0.0
C615 C 0.49254 0.91618 0.47501 0.0
C616 C 0.5622 0.86567 0.45258 0.0
C617 C 0.57875 0.88013 0.43197 0.0
C618 C 0.53456 0.86736 0.44999 0.0
C619 C 0.52315 0.88468 0.42732 0.0
C620 C 0.53972 0.90003 0.40742 0.0
C621 C 0.56735 0.89727 0.40953 0.0
C622 C 0.51758 0.85018 0.47096 0.0
C623 C 0.52828 0.91932 0.38394 0.0
H624 H 0.4424 0.86095 0.37815 0.0
H625 H 0.43982 0.90924 0.46622 0.0
H626 H 0.51021 0.86729 0.3587 0.0
H627 H 0.50661 0.84198 0.38737 0.0
H628 H 0.48218 0.847 0.35398 0.0
H629 H 0.47832 0.92821 0.48889 0.0
H630 H 0.50262 0.90443 0.49429 0.0
H631 H 0.50794 0.92779 0.46286 0.0
H632 H 0.5708 0.85253 0.47016 0.0
H633 H 0.58004 0.90875 0.39389 0.0
H634 H 0.50434 0.83947 0.45349 0.0
H635 H 0.50476 0.8608 0.48881 0.0
H636 H 0.52958 0.8372 0.48648 0.0
H637 H 0.51646 0.9105 0.36301 0.0
H638 H 0.54388 0.93082 0.37193 0.0
H639 H 0.51468 0.93139 0.39875 0.0
C640 C 0.32007 0.29808 0.61963 0.0
C641 C 0.32975 0.3164 0.5979 0.0
C642 C 0.31883 0.27369 0.60847 0.0
C643 C 0.32798 0.26746 0.57492 0.0
C644 C 0.3355 0.28623 0.5518 0.0
C645 C 0.33619 0.31065 0.56357 0.0
C646 C 0.3101 0.25436 0.63382 0.0
C647 C 0.34516 0.28047 0.5158 0.0
C648 C 0.36179 0.2064 0.58099 0.0
C649 C 0.34168 0.1905 0.57006 0.0
C650 C 0.35852 0.23178 0.57915 0.0
C651 C 0.33409 0.24139 0.56728 0.0
C652 C 0.31425 0.22534 0.55434 0.0
C653 C 0.3182 0.19992 0.55623 0.0
C654 C 0.38044 0.24822 0.59253 0.0
C655 C 0.2882 0.23489 0.5409 0.0
H656 H 0.31473 0.30268 0.64607 0.0
H657 H 0.34368 0.32488 0.54677 0.0
H658 H 0.29616 0.24128 0.62127 0.0
H659 H 0.32761 0.24381 0.64264 0.0
H660 H 0.30034 0.26246 0.65694 0.0
H661 H 0.34303 0.29648 0.49844 0.0
H662 H 0.36646 0.27559 0.51707 0.0
H663 H 0.33424 0.26472 0.50441 0.0
H664 H 0.37981 0.19891 0.59199 0.0
H665 H 0.30247 0.18744 0.54848 0.0
H666 H 0.37442 0.25658 0.61757 0.0
H667 H 0.38422 0.26333 0.57414 0.0
H668 H 0.39922 0.23806 0.59664 0.0
H669 H 0.27712 0.22065 0.52604 0.0
H670 H 0.29137 0.251 0.52405 0.0
H671 H 0.2758 0.24093 0.56302 0.0
C672 C 0.06926 0.09222 0.87022 0.0
C673 C 0.0819 0.11504 0.87045 0.0
C674 C 0.04154 0.0904 0.87056 0.0
C675 C 0.02603 0.112 0.8681 0.0
C676 C 0.03896 0.13513 0.86731 0.0
C677 C 0.06665 0.13633 0.8706 0.0
C678 C 0.02965 0.06526 0.87557 0.0
C679 C 0.02366 0.15862 0.86274 0.0
C680 C 0.95392 0.10068 0.84248 0.0
C681 C 0.94043 0.1105 0.87091 0.0
C682 C 0.98172 0.10186 0.84052 0.0
C683 C 0.9965 0.11078 0.86931 0.0
C684 C 0.98288 0.11814 0.89971 0.0
C685 C 0.95514 0.11891 0.8995 0.0
C686 C 0.99514 0.09369 0.8076 0.0
C687 C 0.99702 0.1248 0.93308 0.0
H688 H 0.08111 0.07571 0.87201 0.0
H689 H 0.07635 0.15391 0.87353 0.0
H690 H 0.00795 0.06539 0.87978 0.0
H691 H 0.03414 0.05362 0.85264 0.0
H692 H 0.03914 0.05634 0.8982 0.0
H693 H 0.01269 0.15772 0.83784 0.0
H694 H 0.0089 0.16111 0.88354 0.0
H695 H 0.03672 0.175 0.8627 0.0
H696 H 0.94275 0.09199 0.82182 0.0
H697 H 0.94494 0.12543 0.92244 0.0
H698 H 0.00826 0.07789 0.81254 0.0
H699 H 0.00763 0.10881 0.79776 0.0
H700 H 0.98071 0.08814 0.78725 0.0
H701 H 0.01801 0.11887 0.93365 0.0
H702 H 0.98671 0.11632 0.95537 0.0
H703 H 0.99616 0.14492 0.93719 0.0
C704 C 0.1368 0.29666 0.90104 0.0
C705 C 0.15714 0.31226 0.91229 0.0
C706 C 0.14042 0.27123 0.89973 0.0
C707 C 0.16542 0.26125 0.90852 0.0
C708 C 0.18575 0.2769 0.92124 0.0
C709 C 0.18137 0.30234 0.92289 0.0
C710 C 0.11787 0.25519 0.88722 0.0
C711 C 0.21258 0.26702 0.9311 0.0
C712 C 0.16526 0.1919 0.91564 0.0
C713 C 0.17009 0.18491 0.88121 0.0
C714 C 0.1653 0.21667 0.92563 0.0
C715 C 0.1707 0.23491 0.90075 0.0
C716 C 0.17783 0.22778 0.86667 0.0
C717 C 0.17716 0.2029 0.85721 0.0
C718 C 0.15728 0.22321 0.96203 0.0
C719 C 0.18447 0.24656 0.83953 0.0
H720 H 0.11819 0.30449 0.89245 0.0
H721 H 0.19728 0.31456 0.9308 0.0
H722 H 0.12272 0.24736 0.86142 0.0
H723 H 0.11488 0.23967 0.90518 0.0
H724 H 0.09898 0.26548 0.88503 0.0
H725 H 0.22483 0.28093 0.94497 0.0
H726 H 0.21052 0.25068 0.94777 0.0
H727 H 0.22322 0.2612 0.90733 0.0
H728 H 0.15963 0.17817 0.93438 0.0
H729 H 0.18119 0.19762 0.83063 0.0
H730 H 0.1359 0.22786 0.96208 0.0
H731 H 0.1685 0.2393 0.97175 0.0
H732 H 0.16038 0.20771 0.98006 0.0
H733 H 0.16622 0.25654 0.83203 0.0
H734 H 0.19303 0.23803 0.81589 0.0
H735 H 0.19875 0.26023 0.85001 0.0
C736 C 0.94906 0.89115 0.15233 0.0
C737 C 0.93559 0.88092 0.124 0.0
C738 C 0.97686 0.89015 0.15465 0.0
C739 C 0.99172 0.88083 0.12635 0.0
C740 C 0.9781 0.87254 0.09624 0.0
C741 C 0.95034 0.87178 0.09608 0.0
C742 C 0.99019 0.89877 0.18753 0.0
C743 C 0.99223 0.86502 0.0634 0.0
C744 C 0.06386 0.90174 0.12367 0.0
C745 C 0.07731 0.8794 0.12478 0.0
C746 C 0.03607 0.9026 0.12363 0.0
C747 C 0.02133 0.88059 0.12756 0.0
C748 C 0.03509 0.85798 0.12976 0.0
C749 C 0.06282 0.85762 0.12642 0.0
C750 C 0.0232 0.92718 0.1176 0.0
C751 C 0.0206 0.83418 0.13565 0.0
H752 H 0.93788 0.90019 0.17251 0.0
H753 H 0.94013 0.86481 0.07327 0.0
H754 H 0.00473 0.91345 0.18226 0.0
H755 H 0.97582 0.90582 0.20685 0.0
H756 H 0.00113 0.88321 0.19886 0.0
H757 H 0.98198 0.87289 0.04055 0.0
H758 H 0.01326 0.8709 0.06274 0.0
H759 H 0.99126 0.84481 0.06038 0.0
H760 H 0.07508 0.91856 0.12071 0.0
H761 H 0.07314 0.84031 0.12496 0.0
H762 H 0.02669 0.93916 0.14053 0.0
H763 H 0.00162 0.92607 0.11247 0.0
H764 H 0.03271 0.93633 0.09524 0.0
H765 H 0.00926 0.83555 0.16011 0.0
H766 H 0.03425 0.8183 0.13723 0.0
H767 H 0.00622 0.83045 0.11457 0.0
C768 C 0.34172 0.70513 0.35682 0.0
C769 C 0.34957 0.68703 0.38017 0.0
C770 C 0.34017 0.7297 0.36713 0.0
C771 C 0.34718 0.73637 0.40148 0.0
C772 C 0.35345 0.71796 0.42578 0.0
C773 C 0.35439 0.69337 0.41486 0.0
C774 C 0.33285 0.74869 0.3405 0.0
C775 C 0.36112 0.7243 0.46252 0.0
C776 C 0.37801 0.79915 0.39994 0.0
C777 C 0.35651 0.81393 0.40884 0.0
C778 C 0.37597 0.77361 0.40096 0.0
C779 C 0.35147 0.76269 0.40983 0.0
C780 C 0.33011 0.77761 0.42075 0.0
C781 C 0.33283 0.8032 0.41984 0.0
C782 C 0.39944 0.7584 0.38986 0.0
C783 C 0.3038 0.76668 0.43078 0.0
H784 H 0.33769 0.70015 0.33006 0.0
H785 H 0.36058 0.67936 0.4329 0.0
H786 H 0.3177 0.76139 0.35101 0.0
H787 H 0.3506 0.75974 0.33402 0.0
H788 H 0.32504 0.74026 0.31624 0.0
H789 H 0.35999 0.70812 0.47973 0.0
H790 H 0.38177 0.73128 0.46297 0.0
H791 H 0.34817 0.7389 0.47299 0.0
H792 H 0.39618 0.80764 0.39105 0.0
H793 H 0.31604 0.81479 0.42592 0.0
H794 H 0.39551 0.75033 0.36387 0.0
H795 H 0.40266 0.74306 0.40806 0.0
H796 H 0.41791 0.76945 0.38852 0.0
H797 H 0.29313 0.76053 0.40708 0.0
H798 H 0.29118 0.78016 0.44469 0.0
H799 H 0.30663 0.75044 0.44745 0.0
C800 C 0.5495 0.1109 0.62287 0.0
C801 C 0.56739 0.12677 0.60693 0.0
C802 C 0.52221 0.1126 0.61625 0.0
C803 C 0.51278 0.13023 0.59244 0.0
C804 C 0.53082 0.14669 0.57693 0.0
C805 C 0.55798 0.14461 0.58416 0.0
C806 C 0.50361 0.09495 0.63374 0.0
C807 C 0.52156 0.16595 0.55181 0.0
C808 C 0.44734 0.11632 0.54695 0.0
C809 C 0.42962 0.12956 0.56756 0.0
C810 C 0.4746 0.11648 0.55461 0.0
C811 C 0.4842 0.13079 0.58284 0.0
C812 C 0.46632 0.14509 0.60247 0.0
C813 C 0.43922 0.14396 0.59499 0.0
C814 C 0.49305 0.10096 0.53305 0.0
C815 C 0.47567 0.16121 0.63186 0.0
H816 H 0.55697 0.09654 0.63949 0.0
H817 H 0.572 0.15657 0.5714 0.0
H818 H 0.48785 0.10518 0.64756 0.0
H819 H 0.49379 0.08316 0.61396 0.0
H820 H 0.51401 0.08305 0.65262 0.0
H821 H 0.53781 0.17854 0.54419 0.0
H822 H 0.51354 0.15696 0.52811 0.0
H823 H 0.50532 0.17692 0.56333 0.0
H824 H 0.43977 0.10526 0.52565 0.0
H825 H 0.42543 0.15452 0.61053 0.0
H826 H 0.50278 0.08711 0.54969 0.0
H827 H 0.50892 0.11253 0.52192 0.0
H828 H 0.48255 0.09131 0.51158 0.0
H829 H 0.48292 0.14946 0.65302 0.0
H830 H 0.45969 0.17314 0.64218 0.0
H831 H 0.49233 0.17294 0.62335 0.0
C832 C 0.87602 0.20063 0.87597 0.0
C833 C 0.85786 0.18157 0.88085 0.0
C834 C 0.86893 0.22503 0.8818 0.0
C835 C 0.84278 0.23062 0.89235 0.0
C836 C 0.82482 0.21136 0.89967 0.0
C837 C 0.83265 0.18691 0.89395 0.0
C838 C 0.889 0.2449 0.87425 0.0
C839 C 0.79685 0.21651 0.91114 0.0
C840 C 0.84029 0.29801 0.91331 0.0
C841 C 0.83642 0.30737 0.87997 0.0
C842 C 0.83922 0.27264 0.91911 0.0
C843 C 0.83402 0.25657 0.89093 0.0
C844 C 0.82653 0.26631 0.85845 0.0
C845 C 0.82806 0.29162 0.85329 0.0
C846 C 0.84678 0.26302 0.95428 0.0
C847 C 0.82013 0.24988 0.8279 0.0
H848 H 0.89562 0.19655 0.86633 0.0
H849 H 0.81855 0.17216 0.89767 0.0
H850 H 0.88271 0.25527 0.85103 0.0
H851 H 0.8903 0.25807 0.89621 0.0
H852 H 0.90909 0.23738 0.86938 0.0
H853 H 0.78799 0.20044 0.92429 0.0
H854 H 0.79607 0.23258 0.92886 0.0
H855 H 0.78451 0.22072 0.88811 0.0
H856 H 0.84668 0.31018 0.93406 0.0
H857 H 0.82465 0.29892 0.82761 0.0
H858 H 0.86801 0.2578 0.95414 0.0
H859 H 0.83508 0.24646 0.96074 0.0
H860 H 0.84386 0.27708 0.97486 0.0
H861 H 0.83875 0.24189 0.81765 0.0
H862 H 0.81027 0.26008 0.80667 0.0
H863 H 0.80712 0.23453 0.83578 0.0
C864 C 0.66584 0.69187 0.42069 0.0
C865 C 0.66985 0.6838 0.38656 0.0
C866 C 0.66755 0.71682 0.42944 0.0
C867 C 0.67381 0.73411 0.4036 0.0
C868 C 0.68039 0.72577 0.36988 0.0
C869 C 0.67808 0.70075 0.36166 0.0
C870 C 0.66018 0.72467 0.46555 0.0
C871 C 0.688 0.74347 0.34176 0.0
C872 C 0.64226 0.79698 0.40154 0.0
C873 C 0.6631 0.81211 0.41247 0.0
C874 C 0.64502 0.77144 0.40083 0.0
C875 C 0.66965 0.76082 0.40996 0.0
C876 C 0.69056 0.77605 0.42208 0.0
C877 C 0.68703 0.80161 0.42311 0.0
C878 C 0.6219 0.75589 0.38884 0.0
C879 C 0.71709 0.76554 0.43205 0.0
H880 H 0.65943 0.67897 0.44016 0.0
H881 H 0.68155 0.69463 0.33529 0.0
H882 H 0.67294 0.73995 0.47462 0.0
H883 H 0.63934 0.73108 0.46533 0.0
H884 H 0.66179 0.70936 0.48423 0.0
H885 H 0.69629 0.73393 0.31873 0.0
H886 H 0.67025 0.75389 0.33348 0.0
H887 H 0.70282 0.75689 0.35159 0.0
H888 H 0.62387 0.80523 0.39293 0.0
H889 H 0.70336 0.81345 0.43071 0.0
H890 H 0.61821 0.74091 0.40748 0.0
H891 H 0.62655 0.74729 0.36346 0.0
H892 H 0.60345 0.76676 0.38599 0.0
H893 H 0.7146 0.74934 0.4489 0.0
H894 H 0.72974 0.77922 0.44577 0.0
H895 H 0.72755 0.75935 0.40835 0.0
C896 C 0.86266 0.69746 0.08963 0.0
C897 C 0.83948 0.68527 0.07952 0.0
C898 C 0.86414 0.72306 0.08924 0.0
C899 C 0.84141 0.73681 0.0802 0.0
C900 C 0.81826 0.7245 0.06847 0.0
C901 C 0.81755 0.69874 0.06836 0.0
C902 C 0.88953 0.73537 0.10082 0.0
C903 C 0.79361 0.73839 0.05861 0.0
C904 C 0.83971 0.79474 0.13411 0.0
C905 C 0.84925 0.81219 0.11086 0.0
C906 C 0.83507 0.77053 0.12352 0.0
C907 C 0.84079 0.7634 0.08902 0.0
C908 C 0.84904 0.78131 0.06492 0.0
C909 C 0.85296 0.80563 0.0761 0.0
C910 C 0.8255 0.75226 0.14991 0.0
C911 C 0.85557 0.77457 0.02807 0.0
H912 H 0.87948 0.68688 0.0986 0.0
H913 H 0.79945 0.68918 0.06127 0.0
H914 H 0.89475 0.75048 0.08303 0.0
H915 H 0.8868 0.74344 0.12702 0.0
H916 H 0.90635 0.7223 0.10187 0.0
H917 H 0.77951 0.72672 0.04365 0.0
H918 H 0.78358 0.74487 0.08249 0.0
H919 H 0.79858 0.75474 0.04304 0.0
H920 H 0.83646 0.79994 0.16092 0.0
H921 H 0.8604 0.81915 0.05814 0.0
H922 H 0.84179 0.73945 0.15638 0.0
H923 H 0.80887 0.74123 0.13917 0.0
H924 H 0.81883 0.7613 0.17421 0.0
H925 H 0.87535 0.76576 0.02752 0.0
H926 H 0.85618 0.7909 0.0111 0.0
H927 H 0.84092 0.76135 0.0174 0.0
C928 C 0.62048 0.29623 0.6448 0.0
C929 C 0.63835 0.31498 0.63686 0.0
C930 C 0.62675 0.27162 0.63879 0.0
C931 C 0.65184 0.26547 0.62497 0.0
C932 C 0.66976 0.28433 0.61582 0.0
C933 C 0.66269 0.30897 0.62162 0.0
C934 C 0.60674 0.25216 0.6483 0.0
C935 C 0.69676 0.2785 0.60136 0.0
C936 C 0.66753 0.20196 0.65543 0.0
C937 C 0.65763 0.18782 0.62786 0.0
C938 C 0.66888 0.22753 0.65318 0.0
C939 C 0.65944 0.23918 0.62293 0.0
C940 C 0.65205 0.22481 0.59371 0.0
C941 C 0.6514 0.19915 0.59647 0.0
C942 C 0.67754 0.24209 0.68465 0.0
C943 C 0.64192 0.23648 0.56097 0.0
H944 H 0.60146 0.30076 0.65582 0.0
H945 H 0.67659 0.32346 0.61546 0.0
H946 H 0.60316 0.23962 0.62601 0.0
H947 H 0.61456 0.24097 0.66991 0.0
H948 H 0.58747 0.2601 0.65641 0.0
H949 H 0.70664 0.29499 0.5907 0.0
H950 H 0.70946 0.27099 0.62223 0.0
H951 H 0.69531 0.26432 0.58071 0.0
H952 H 0.67248 0.19311 0.67966 0.0
H953 H 0.64354 0.18821 0.57522 0.0
H954 H 0.6598 0.2494 0.69808 0.0
H955 H 0.69001 0.2579 0.67708 0.0
H956 H 0.68882 0.23066 0.70325 0.0
H957 H 0.62108 0.24228 0.56486 0.0
H958 H 0.64247 0.2235 0.53867 0.0
H959 H 0.65362 0.25302 0.55449 0.0
C960 C 0.05902 0.35685 0.89744 0.0
C961 C 0.06863 0.37084 0.92525 0.0
C962 C 0.03183 0.35464 0.89114 0.0
C963 C 0.01374 0.36759 0.91232 0.0
C964 C 0.02342 0.38164 0.94079 0.0
C965 C 0.05085 0.38275 0.94732 0.0
C966 C 0.02292 0.33906 0.86098 0.0
C967 C 0.00485 0.39596 0.96378 0.0
C968 C 0.94633 0.38493 0.87591 0.0
C969 C 0.92966 0.36859 0.89312 0.0
C970 C 0.97386 0.3843 0.88104 0.0
C971 C 0.98485 0.36707 0.90426 0.0
C972 C 0.96808 0.34984 0.92055 0.0
C973 C 0.94059 0.35108 0.91522 0.0
C974 C 0.99109 0.40257 0.86249 0.0
C975 C 0.97918 0.33035 0.94395 0.0
H976 H 0.07288 0.34739 0.88063 0.0
H977 H 0.05843 0.39354 0.96887 0.0
H978 H 0.00298 0.3312 0.86519 0.0
H979 H 0.02249 0.35067 0.8376 0.0
H980 H 0.03699 0.32382 0.856 0.0
H981 H 0.0155 0.40595 0.98481 0.0
H982 H 0.99368 0.4094 0.94804 0.0
H983 H 0.99015 0.38345 0.9756 0.0
H984 H 0.93772 0.39886 0.85949 0.0
H985 H 0.92754 0.33858 0.92868 0.0
H986 H 0.00604 0.39278 0.84666 0.0
H987 H 0.00195 0.41408 0.88166 0.0
H988 H 0.97944 0.4147 0.84521 0.0
H989 H 0.99462 0.31974 0.93005 0.0
H990 H 0.96366 0.31747 0.95304 0.0
H991 H 0.98878 0.33902 0.96687 0.0
C992 C 0.56035 0.64142 0.3773 0.0
C993 C 0.57465 0.6196 0.37912 0.0
C994 C 0.5327 0.64111 0.37291 0.0
C995 C 0.5188 0.61849 0.37424 0.0
C996 C 0.53328 0.59647 0.37884 0.0
C997 C 0.56104 0.59729 0.37979 0.0
C998 C 0.51847 0.66496 0.36655 0.0
C999 C 0.52015 0.57191 0.3844 0.0
C1000 C 0.44698 0.62692 0.40101 0.0
C1001 C 0.43318 0.61761 0.37219 0.0
C1002 C 0.47469 0.62635 0.40269 0.0
C1003 C 0.48924 0.61818 0.37348 0.0
C1004 C 0.47536 0.6088 0.34421 0.0
C1005 C 0.44754 0.60751 0.34474 0.0
C1006 C 0.48773 0.6339 0.43646 0.0
C1007 C 0.48982 0.60016 0.31233 0.0
H1008 H 0.57075 0.6587 0.37935 0.0
H1009 H 0.57211 0.58042 0.38294 0.0
H1010 H 0.50858 0.66406 0.34088 0.0
H1011 H 0.50288 0.66817 0.38609 0.0
H1012 H 0.53209 0.68095 0.3672 0.0
H1013 H 0.52903 0.56291 0.40738 0.0
H1014 H 0.49845 0.57301 0.38832 0.0
H1015 H 0.52421 0.55978 0.36183 0.0
H1016 H 0.43604 0.63382 0.42314 0.0
H1017 H 0.43706 0.59827 0.32395 0.0
H1018 H 0.4864 0.65408 0.43964 0.0
H1019 H 0.50879 0.62834 0.4384 0.0
H1020 H 0.47689 0.62574 0.45855 0.0
H1021 H 0.47607 0.59409 0.29147 0.0
H1022 H 0.50304 0.58465 0.31848 0.0
H1023 H 0.50234 0.61529 0.30265 0.0
C1024 C 0.54299 0.4082 0.63229 0.0
C1025 C 0.55671 0.38601 0.63204 0.0
C1026 C 0.51534 0.40877 0.62846 0.0
C1027 C 0.50086 0.38641 0.62743 0.0
C1028 C 0.51487 0.36388 0.62797 0.0
C1029 C 0.54269 0.36408 0.62812 0.0
C1030 C 0.50249 0.43351 0.6239 0.0
C1031 C 0.50067 0.33951 0.62774 0.0
C1032 C 0.42761 0.39436 0.64821 0.0
C1033 C 0.41547 0.38515 0.61829 0.0
C1034 C 0.45526 0.3939 0.65212 0.0
C1035 C 0.47137 0.38641 0.62396 0.0
C1036 C 0.45909 0.37922 0.59236 0.0
C1037 C 0.43138 0.37779 0.59045 0.0
C1038 C 0.46703 0.40065 0.68678 0.0
C1039 C 0.4745 0.37375 0.55975 0.0
H1040 H 0.55405 0.42526 0.63333 0.0
H1041 H 0.55351 0.34702 0.62573 0.0
H1042 H 0.48126 0.43252 0.61661 0.0
H1043 H 0.50457 0.44429 0.64826 0.0
H1044 H 0.5131 0.44388 0.60355 0.0
H1045 H 0.51382 0.32438 0.63611 0.0
H1046 H 0.48313 0.34012 0.64493 0.0
H1047 H 0.49377 0.3351 0.60116 0.0
H1048 H 0.4155 0.40215 0.66848 0.0
H1049 H 0.42216 0.37171 0.56645 0.0
H1050 H 0.48176 0.41556 0.68447 0.0
H1051 H 0.4774 0.38439 0.69698 0.0
H1052 H 0.45181 0.40658 0.7057 0.0
H1053 H 0.49582 0.37848 0.56167 0.0
H1054 H 0.46586 0.3841 0.53779 0.0
H1055 H 0.47242 0.35403 0.55307 0.0
C1056 C 0.04556 0.63913 0.09109 0.0
C1057 C 0.0561 0.62145 0.11323 0.0
C1058 C 0.01832 0.6398 0.08384 0.0
C1059 C 0.00143 0.62196 0.0985 0.0
C1060 C 0.01199 0.60436 0.12151 0.0
C1061 C 0.03931 0.60422 0.1284 0.0
C1062 C 0.00775 0.65922 0.05987 0.0
C1063 C 0.99462 0.58517 0.13791 0.0
C1064 C 0.92748 0.63322 0.1021 0.0
C1065 C 0.91838 0.61998 0.07327 0.0
C1066 C 0.95446 0.63447 0.11005 0.0
C1067 C 0.97278 0.6215 0.08934 0.0
C1068 C 0.96367 0.60809 0.05997 0.0
C1069 C 0.93646 0.60783 0.05189 0.0
C1070 C 0.96322 0.6496 0.14074 0.0
C1071 C 0.9826 0.59385 0.03741 0.0
H1072 H 0.05875 0.65219 0.07898 0.0
H1073 H 0.0477 0.59006 0.1446 0.0
H1074 H -0.00036 0.65049 0.03605 0.0
H1075 H 0.99128 0.6693 0.07245 0.0
H1076 H 0.02326 0.67261 0.05233 0.0
H1077 H 0.97827 0.59405 0.15239 0.0
H1078 H 0.9855 0.57349 0.11744 0.0
H1079 H 0.00583 0.57329 0.15601 0.0
H1080 H 0.91341 0.64299 0.11822 0.0
H1081 H 0.92926 0.59768 0.02951 0.0
H1082 H 0.94677 0.66034 0.15231 0.0
H1083 H 0.97913 0.66245 0.13297 0.0
H1084 H 0.9713 0.63728 0.16077 0.0
H1085 H 0.97233 0.58418 0.01578 0.0
H1086 H 0.99332 0.58015 0.05325 0.0
H1087 H 0.99767 0.60638 0.02642 0.0
C1088 C 0.16916 0.54873 0.04355 0.0
C1089 C 0.1457 0.5513 0.0625 0.0
C1090 C 0.17393 0.5274 0.02378 0.0
C1091 C 0.15455 0.50856 0.02262 0.0
C1092 C 0.13061 0.51144 0.04111 0.0
C1093 C 0.1266 0.53263 0.06097 0.0
C1094 C 0.19981 0.52479 0.00474 0.0
C1095 C 0.10925 0.49198 0.04026 0.0
C1096 C 0.14989 0.45942 0.95292 0.0
C1097 C 0.15791 0.43862 0.97129 0.0
C1098 C 0.15023 0.48273 0.96859 0.0
C1099 C 0.1592 0.48531 0.00323 0.0
C1100 C 0.16907 0.46464 0.02099 0.0
C1101 C 0.16808 0.44153 0.00494 0.0
C1102 C 0.13926 0.50425 0.94889 0.0
C1103 C 0.17923 0.46667 0.05774 0.0
H1104 H 0.18397 0.56313 0.04471 0.0
H1105 H 0.10827 0.5346 0.07524 0.0
H1106 H 0.21099 0.50897 0.01514 0.0
H1107 H 0.19608 0.52099 0.97688 0.0
H1108 H 0.21237 0.54146 0.00714 0.0
H1109 H 0.09128 0.49759 0.05479 0.0
H1110 H 0.10343 0.48784 0.0131 0.0
H1111 H 0.1169 0.47479 0.05166 0.0
H1112 H 0.14206 0.45732 0.92688 0.0
H1113 H 0.17473 0.4256 0.01912 0.0
H1114 H 0.15258 0.52036 0.95145 0.0
H1115 H 0.11982 0.50951 0.95997 0.0
H1116 H 0.13643 0.49997 0.92095 0.0
H1117 H 0.19296 0.48246 0.06053 0.0
H1118 H 0.18967 0.44979 0.06605 0.0
H1119 H 0.16236 0.46989 0.07552 0.0
C1120 C 0.73236 0.90323 0.32707 0.0
C1121 C 0.7051 0.90038 0.32161 0.0
C1122 C 0.74982 0.9052 0.29913 0.0
C1123 C 0.73979 0.90363 0.26488 0.0
C1124 C 0.71208 0.90233 0.25922 0.0
C1125 C 0.69497 0.90096 0.28779 0.0
C1126 C 0.77918 0.90718 0.30635 0.0
C1127 C 0.70063 0.90039 0.22314 0.0
C1128 C 0.79093 0.91533 0.19489 0.0
C1129 C 0.80138 0.89177 0.19062 0.0
C1130 C 0.76971 0.91951 0.21769 0.0
C1131 C 0.75861 0.89953 0.23589 0.0
C1132 C 0.7679 0.87547 0.22941 0.0
C1133 C 0.78942 0.87195 0.20723 0.0
C1134 C 0.76056 0.94542 0.22417 0.0
C1135 C 0.75626 0.85356 0.24761 0.0
H1136 H 0.74018 0.90308 0.35327 0.0
H1137 H 0.67386 0.89869 0.28355 0.0
H1138 H 0.78888 0.8895 0.29997 0.0
H1139 H 0.78829 0.92145 0.28989 0.0
H1140 H 0.78341 0.91168 0.33394 0.0
H1141 H 0.67894 0.90377 0.22284 0.0
H1142 H 0.71039 0.91355 0.20552 0.0
H1143 H 0.70427 0.88171 0.21271 0.0
H1144 H 0.8004 0.93065 0.18217 0.0
H1145 H 0.79748 0.85371 0.20364 0.0
H1146 H 0.76814 0.95179 0.24972 0.0
H1147 H 0.73863 0.94635 0.22504 0.0
H1148 H 0.76784 0.95817 0.20403 0.0
H1149 H 0.76173 0.85425 0.27546 0.0
H1150 H 0.76348 0.83597 0.23654 0.0
H1151 H 0.73432 0.85383 0.24591 0.0
C1152 C 0.34653 0.47425 0.55887 0.0
C1153 C 0.33067 0.45361 0.55239 0.0
C1154 C 0.34677 0.49397 0.53585 0.0
C1155 C 0.33053 0.49309 0.5059 0.0
C1156 C 0.31345 0.47287 0.50016 0.0
C1157 C 0.31384 0.45326 0.52341 0.0
C1158 C 0.36533 0.51521 0.54277 0.0
C1159 C 0.29555 0.47151 0.46878 0.0
C1160 C 0.32156 0.55342 0.45939 0.0
C1161 C 0.34076 0.55158 0.43335 0.0
C1162 C 0.31725 0.53411 0.48246 0.0
C1163 C 0.33275 0.51265 0.4796 0.0
C1164 C 0.35156 0.51039 0.45266 0.0
C1165 C 0.35522 0.52986 0.42969 0.0
C1166 C 0.29674 0.53699 0.51054 0.0
C1167 C 0.36856 0.4878 0.44892 0.0
H1168 H 0.3596 0.4746 0.58121 0.0
H1169 H 0.30142 0.43739 0.5184 0.0
H1170 H 0.38049 0.51604 0.52208 0.0
H1171 H 0.35428 0.53274 0.5423 0.0
H1172 H 0.37562 0.51368 0.56815 0.0
H1173 H 0.28165 0.45573 0.46986 0.0
H1174 H 0.28388 0.48862 0.46638 0.0
H1175 H 0.3077 0.4697 0.44503 0.0
H1176 H 0.31019 0.57013 0.46216 0.0
H1177 H 0.3701 0.52837 0.40963 0.0
H1178 H 0.30666 0.53777 0.53621 0.0
H1179 H 0.28321 0.52095 0.51061 0.0
H1180 H 0.28476 0.55388 0.50735 0.0
H1181 H 0.38133 0.48583 0.47219 0.0
H1182 H 0.38144 0.48849 0.42569 0.0
H1183 H 0.35593 0.47118 0.44712 0.0
C1184 C 0.68689 0.10684 0.73911 0.0
C1185 C 0.68656 0.09879 0.70447 0.0
C1186 C 0.70974 0.10475 0.75958 0.0
C1187 C 0.73273 0.09401 0.74528 0.0
C1188 C 0.7319 0.08403 0.71133 0.0
C1189 C 0.70886 0.08668 0.6912 0.0
C1190 C 0.70983 0.11579 0.79557 0.0
C1191 C 0.75588 0.07196 0.69547 0.0
C1192 C 0.79832 0.11992 0.77638 0.0
C1193 C 0.80639 0.10251 0.8007 0.0
C1194 C 0.77444 0.11724 0.7582 0.0
C1195 C 0.7584 0.09637 0.76397 0.0
C1196 C 0.76655 0.07852 0.78819 0.0
C1197 C 0.79037 0.08194 0.80661 0.0
C1198 C 0.76622 0.13696 0.73311 0.0
C1199 C 0.75016 0.05584 0.79449 0.0
H1200 H 0.66975 0.11605 0.74983 0.0
H1201 H 0.70873 0.08009 0.66465 0.0
H1202 H 0.71851 0.10287 0.81447 0.0
H1203 H 0.72233 0.13255 0.79585 0.0
H1204 H 0.68962 0.12084 0.80432 0.0
H1205 H 0.75084 0.06177 0.67131 0.0
H1206 H 0.77085 0.08614 0.6892 0.0
H1207 H 0.76516 0.05913 0.71405 0.0
H1208 H 0.81054 0.13593 0.77188 0.0
H1209 H 0.79668 0.06832 0.82516 0.0
H1210 H 0.7468 0.1447 0.74087 0.0
H1211 H 0.76378 0.12902 0.70676 0.0
H1212 H 0.78088 0.15213 0.73185 0.0
H1213 H 0.73035 0.06103 0.80439 0.0
H1214 H 0.75967 0.04334 0.81338 0.0
H1215 H 0.74701 0.04573 0.76977 0.0
C1216 C 0.81731 0.44676 0.95874 0.0
C1217 C 0.8409 0.44383 0.94015 0.0
C1218 C 0.81197 0.46873 0.97661 0.0
C1219 C 0.83092 0.48789 0.97632 0.0
C1220 C 0.8549 0.48483 0.95791 0.0
C1221 C 0.85946 0.46294 0.93981 0.0
C1222 C 0.786 0.47156 0.99544 0.0
C1223 C 0.87582 0.50468 0.95737 0.0
C1224 C 0.816 0.55491 0.99204 0.0
C1225 C 0.82589 0.55834 0.02571 0.0
C1226 C 0.8156 0.5316 0.97654 0.0
C1227 C 0.82597 0.51138 0.99486 0.0
C1228 C 0.83468 0.51452 0.02952 0.0
C1229 C 0.83427 0.53796 0.04468 0.0
C1230 C 0.80553 0.5289 0.93984 0.0
C1231 C 0.84627 0.49351 0.04972 0.0
H1232 H 0.80287 0.43203 0.95891 0.0
H1233 H 0.87782 0.4607 0.92568 0.0
H1234 H 0.78968 0.47541 0.02329 0.0
H1235 H 0.77496 0.48742 0.98491 0.0
H1236 H 0.77334 0.45495 0.9931 0.0
H1237 H 0.89376 0.49903 0.94281 0.0
H1238 H 0.86767 0.52143 0.94527 0.0
H1239 H 0.8818 0.5096 0.98422 0.0
H1240 H 0.8092 0.5706 0.97744 0.0
H1241 H 0.84202 0.54054 0.07068 0.0
H1242 H 0.79224 0.51275 0.93743 0.0
H1243 H 0.82248 0.52586 0.92213 0.0
H1244 H 0.79463 0.54542 0.93113 0.0
H1245 H 0.83322 0.47717 0.04796 0.0
H1246 H 0.84933 0.49828 0.07747 0.0
H1247 H 0.86568 0.48835 0.03845 0.0
C1248 C 0.21287 0.07674 0.78303 0.0
C1249 C 0.21358 0.09555 0.80781 0.0
C1250 C 0.23291 0.0746 0.75816 0.0
C1251 C 0.25347 0.09227 0.75753 0.0
C1252 C 0.25534 0.11008 0.78436 0.0
C1253 C 0.23535 0.11137 0.80945 0.0
C1254 C 0.23062 0.05491 0.73066 0.0
C1255 C 0.27671 0.12946 0.78441 0.0
C1256 C 0.31089 0.08868 0.69422 0.0
C1257 C 0.30152 0.10338 0.66718 0.0
C1258 C 0.29517 0.08412 0.72344 0.0
C1259 C 0.26983 0.095 0.72588 0.0
C1260 C 0.26013 0.10946 0.6983 0.0
C1261 C 0.27599 0.11325 0.66915 0.0
C1262 C 0.30583 0.06808 0.75192 0.0
C1263 C 0.23329 0.12162 0.69999 0.0
H1264 H 0.19579 0.06467 0.78174 0.0
H1265 H 0.2355 0.12618 0.82835 0.0
H1266 H 0.22263 0.06299 0.70652 0.0
H1267 H 0.25032 0.04704 0.72462 0.0
H1268 H 0.21713 0.03991 0.73872 0.0
H1269 H 0.27767 0.13962 0.80943 0.0
H1270 H 0.29636 0.12122 0.77921 0.0
H1271 H 0.27261 0.14276 0.76348 0.0
H1272 H 0.33059 0.08091 0.6927 0.0
H1273 H 0.2687 0.12471 0.6484 0.0
H1274 H 0.29113 0.05376 0.75862 0.0
H1275 H 0.30936 0.07927 0.7756 0.0
H1276 H 0.32471 0.05906 0.74455 0.0
H1277 H 0.21756 0.10762 0.7032 0.0
H1278 H 0.22878 0.13239 0.67639 0.0
H1279 H 0.23244 0.13409 0.7228 0.0
C1280 C 0.64033 0.52866 0.44196 0.0
C1281 C 0.65622 0.54919 0.44923 0.0
C1282 C 0.64067 0.5081 0.46352 0.0
C1283 C 0.65752 0.50793 0.4929 0.0
C1284 C 0.67455 0.52811 0.49947 0.0
C1285 C 0.67357 0.5486 0.47766 0.0
C1286 C 0.62201 0.48707 0.45575 0.0
C1287 C 0.69304 0.52847 0.53028 0.0
C1288 C 0.63325 0.47016 0.56841 0.0
C1289 C 0.64749 0.44829 0.5643 0.0
C1290 C 0.63679 0.48981 0.54577 0.0
C1291 C 0.65527 0.48774 0.51845 0.0
C1292 C 0.67032 0.466 0.5147 0.0
C1293 C 0.66613 0.44643 0.53758 0.0
C1294 C 0.62013 0.51255 0.55051 0.0
C1295 C 0.69044 0.46327 0.48615 0.0
H1296 H 0.6269 0.52894 0.42 0.0
H1297 H 0.68605 0.56433 0.48328 0.0
H1298 H 0.63298 0.4695 0.45524 0.0
H1299 H 0.60698 0.48579 0.47656 0.0
H1300 H 0.61156 0.48927 0.4306 0.0
H1301 H 0.70706 0.54417 0.52959 0.0
H1302 H 0.68135 0.52975 0.55449 0.0
H1303 H 0.70456 0.5112 0.53137 0.0
H1304 H 0.61879 0.47177 0.58896 0.0
H1305 H 0.67728 0.42963 0.53436 0.0
H1306 H 0.60745 0.51527 0.52732 0.0
H1307 H 0.63304 0.52892 0.55318 0.0
H1308 H 0.60717 0.5115 0.57364 0.0
H1309 H 0.68028 0.46342 0.46063 0.0
H1310 H 0.70192 0.44601 0.48831 0.0
H1311 H 0.70444 0.47897 0.48666 0.0
C1312 C 0.28677 0.88215 0.30738 0.0
C1313 C 0.30975 0.8964 0.31087 0.0
C1314 C 0.26894 0.88592 0.28014 0.0
C1315 C 0.27383 0.90485 0.2561 0.0
C1316 C 0.29698 0.91941 0.25945 0.0
C1317 C 0.31492 0.9148 0.28666 0.0
C1318 C 0.24476 0.86962 0.27726 0.0
C1319 C 0.30249 0.94008 0.23477 0.0
C1320 C 0.23293 0.89457 0.17516 0.0
C1321 C 0.20916 0.90575 0.18497 0.0
C1322 C 0.25537 0.89595 0.19673 0.0
C1323 C 0.25399 0.90932 0.22828 0.0
C1324 C 0.23094 0.92301 0.23606 0.0
C1325 C 0.2086 0.9207 0.21459 0.0
C1326 C 0.27935 0.88079 0.18765 0.0
C1327 C 0.2289 0.9381 0.26884 0.0
H1328 H 0.28284 0.86773 0.32582 0.0
H1329 H 0.33266 0.92588 0.28941 0.0
H1330 H 0.22655 0.88071 0.28065 0.0
H1331 H 0.24376 0.86102 0.25115 0.0
H1332 H 0.24471 0.85487 0.29692 0.0
H1333 H 0.32181 0.94916 0.24018 0.0
H1334 H 0.30247 0.93318 0.20768 0.0
H1335 H 0.28655 0.95397 0.23676 0.0
H1336 H 0.23327 0.88285 0.15236 0.0
H1337 H 0.1902 0.92948 0.22201 0.0
H1338 H 0.27934 0.8639 0.20348 0.0
H1339 H 0.29792 0.8909 0.19355 0.0
H1340 H 0.27937 0.87533 0.15987 0.0
H1341 H 0.22541 0.92579 0.2911 0.0
H1342 H 0.21228 0.95138 0.26755 0.0
H1343 H 0.24758 0.94828 0.27393 0.0
C1344 C 0.68065 0.04931 0.54177 0.0
C1345 C 0.65672 0.05225 0.5596 0.0
C1346 C 0.68594 0.0276 0.52314 0.0
C1347 C 0.6666 0.00875 0.52187 0.0
C1348 C 0.64224 0.01192 0.53935 0.0
C1349 C 0.63773 0.03349 0.55821 0.0
C1350 C 0.71229 0.02466 0.50529 0.0
C1351 C 0.62089 0.99246 0.53823 0.0
C1352 C 0.66389 0.95942 0.45225 0.0
C1353 C 0.67149 0.93868 0.47102 0.0
C1354 C 0.66362 0.98273 0.4679 0.0
C1355 C 0.6716 0.98537 0.50294 0.0
C1356 C 0.68111 0.96476 0.52118 0.0
C1357 C 0.68068 0.94162 0.50512 0.0
C1358 C 0.65301 0.00417 0.44768 0.0
C1359 C 0.69028 0.96688 0.55835 0.0
H1360 H 0.6954 0.06375 0.54289 0.0
H1361 H 0.61908 0.03575 0.57168 0.0
H1362 H 0.72292 0.00866 0.51609 0.0
H1363 H 0.70922 0.02099 0.47727 0.0
H1364 H 0.72505 0.04116 0.50833 0.0
H1365 H 0.60267 0.99822 0.55208 0.0
H1366 H 0.61558 0.98806 0.51097 0.0
H1367 H 0.62833 0.97538 0.55019 0.0
H1368 H 0.65671 0.95728 0.4259 0.0
H1369 H 0.68693 0.9257 0.51963 0.0
H1370 H 0.66628 0.02028 0.4505 0.0
H1371 H 0.63337 0.00948 0.45812 0.0
H1372 H 0.65067 -0.00022 0.4197 0.0
H1373 H 0.70389 0.98272 0.56168 0.0
H1374 H 0.70055 0.95005 0.56717 0.0
H1375 H 0.67295 0.97009 0.57535 0.0
C1376 C 0.26832 0.37606 0.69792 0.0
C1377 C 0.28146 0.39571 0.68254 0.0
C1378 C 0.24817 0.38009 0.722 0.0
C1379 C 0.24155 0.40442 0.73151 0.0
C1380 C 0.25358 0.42436 0.7143 0.0
C1381 C 0.2734 0.41973 0.68966 0.0
C1382 C 0.23542 0.35827 0.73914 0.0
C1383 C 0.24714 0.45052 0.72385 0.0
C1384 C 0.18122 0.407 0.78911 0.0
C1385 C 0.19296 0.40385 0.82175 0.0
C1386 C 0.19685 0.40916 0.7593 0.0
C1387 C 0.22476 0.40845 0.76249 0.0
C1388 C 0.23663 0.40757 0.79576 0.0
C1389 C 0.22056 0.40506 0.825 0.0
C1390 C 0.18347 0.41008 0.72432 0.0
C1391 C 0.26636 0.40732 0.80031 0.0
H1392 H 0.27466 0.35749 0.6922 0.0
H1393 H 0.28389 0.43489 0.67793 0.0
H1394 H 0.24224 0.35718 0.76645 0.0
H1395 H 0.21356 0.36025 0.7394 0.0
H1396 H 0.24046 0.34077 0.72588 0.0
H1397 H 0.25403 0.46354 0.70382 0.0
H1398 H 0.22553 0.45294 0.72763 0.0
H1399 H 0.25709 0.45528 0.74869 0.0
H1400 H 0.15984 0.40616 0.7865 0.0
H1401 H 0.22968 0.40299 0.85027 0.0
H1402 H 0.18474 0.39179 0.71172 0.0
H1403 H 0.19352 0.42337 0.70717 0.0
H1404 H 0.16223 0.41513 0.72646 0.0
H1405 H 0.27427 0.38943 0.79129 0.0
H1406 H 0.27234 0.41007 0.82779 0.0
H1407 H 0.2757 0.42181 0.78447 0.0
C1408 C 0.8659 0.02428 0.93175 0.0
C1409 C 0.85084 0.04564 0.93584 0.0
C1410 C 0.86386 0.00498 0.95536 0.0
C1411 C 0.84609 0.00697 0.98352 0.0
C1412 C 0.83001 0.02805 0.98697 0.0
C1413 C 0.8327 0.04723 0.96319 0.0
C1414 C 0.88146 0.98285 0.9509 0.0
C1415 C 0.81055 0.03065 0.01634 0.0
C1416 C 0.83074 0.94739 0.02954 0.0
C1417 C 0.8485 0.94845 0.05755 0.0
C1418 C 0.82892 0.96677 0.00595 0.0
C1419 C 0.8455 0.98752 0.01028 0.0
C1420 C 0.86281 0.98903 0.03917 0.0
C1421 C 0.86398 0.96953 0.06258 0.0
C1422 C 0.80993 0.96467 0.97577 0.0
C1423 C 0.88092 0.0108 0.04459 0.0
H1424 H 0.87999 0.02295 0.91072 0.0
H1425 H 0.82091 0.06365 0.96639 0.0
H1426 H 0.89512 0.98144 0.97339 0.0
H1427 H 0.86935 0.96588 0.95013 0.0
H1428 H 0.89346 0.98371 0.92688 0.0
H1429 H 0.79797 0.04721 0.01372 0.0
H1430 H 0.79753 0.01428 0.01754 0.0
H1431 H 0.82143 0.03187 0.04132 0.0
H1432 H 0.8186 0.93119 0.02562 0.0
H1433 H 0.87777 0.97046 0.08414 0.0
H1434 H 0.82122 0.96314 0.95127 0.0
H1435 H 0.79753 0.98137 0.97401 0.0
H1436 H 0.79671 0.94844 0.97786 0.0
H1437 H 0.89519 0.01191 0.02286 0.0
H1438 H 0.89226 0.00971 0.06924 0.0
H1439 H 0.86931 0.02802 0.04469 0.0
C1440 C 0.19849 0.58448 0.19705 0.0
C1441 C 0.17775 0.59935 0.20896 0.0
C1442 C 0.22226 0.5826 0.21586 0.0
C1443 C 0.22547 0.59626 0.24691 0.0
C1444 C 0.20411 0.61022 0.25999 0.0
C1445 C 0.18045 0.61142 0.24102 0.0
C1446 C 0.24442 0.56705 0.20155 0.0
C1447 C 0.20683 0.62528 0.29281 0.0
C1448 C 0.28325 0.58699 0.30881 0.0
C1449 C 0.30064 0.60557 0.2983 0.0
C1450 C 0.25907 0.58304 0.2915 0.0
C1451 C 0.25194 0.5984 0.26361 0.0
C1452 C 0.26957 0.61698 0.25269 0.0
C1453 C 0.29379 0.62017 0.26995 0.0
C1454 C 0.24099 0.56272 0.30332 0.0
C1455 C 0.26252 0.63402 0.22343 0.0
H1456 H 0.19648 0.57485 0.17252 0.0
H1457 H 0.16456 0.62293 0.25056 0.0
H1458 H 0.26029 0.57908 0.19141 0.0
H1459 H 0.25329 0.5557 0.22227 0.0
H1460 H 0.23752 0.55482 0.18022 0.0
H1461 H 0.18769 0.63343 0.30105 0.0
H1462 H 0.21462 0.61391 0.3142 0.0
H1463 H 0.22123 0.64036 0.2886 0.0
H1464 H 0.28859 0.57548 0.3305 0.0
H1465 H 0.30707 0.63463 0.26178 0.0
H1466 H 0.23525 0.5509 0.281 0.0
H1467 H 0.22252 0.57061 0.31407 0.0
H1468 H 0.25038 0.55114 0.32345 0.0
H1469 H 0.25817 0.62333 0.19953 0.0
H1470 H 0.27863 0.64729 0.21779 0.0
H1471 H 0.24436 0.64445 0.23008 0.0
C1472 C 0.32392 0.05695 0.49614 0.0
C1473 C 0.34092 0.06238 0.52391 0.0
C1474 C 0.32179 0.03298 0.4831 0.0
C1475 C 0.33789 0.01435 0.49729 0.0
C1476 C 0.35494 0.01977 0.52556 0.0
C1477 C 0.35586 0.04369 0.53897 0.0
C1478 C 0.30267 0.02767 0.4538 0.0
C1479 C 0.37306 0.0006 0.54067 0.0
C1480 C 0.32553 0.94655 0.48191 0.0
C1481 C 0.34274 0.94173 0.45436 0.0
C1482 C 0.32268 0.97043 0.49508 0.0
C1483 C 0.33828 0.98957 0.48124 0.0
C1484 C 0.35547 0.98475 0.45312 0.0
C1485 C 0.35712 0.96093 0.4396 0.0
C1486 C 0.30343 0.97508 0.52419 0.0
C1487 C 0.37304 0.0045 0.43837 0.0
H1488 H 0.31224 0.07145 0.4847 0.0
H1489 H 0.36916 0.04804 0.56028 0.0
H1490 H 0.31381 0.02308 0.42994 0.0
H1491 H 0.29016 0.01157 0.46008 0.0
H1492 H 0.28958 0.04351 0.4483 0.0
H1493 H 0.38496 0.00779 0.56279 0.0
H1494 H 0.36136 0.98467 0.54964 0.0
H1495 H 0.3868 0.99382 0.52039 0.0
H1496 H 0.31435 0.93163 0.49317 0.0
H1497 H 0.37067 0.95706 0.41855 0.0
H1498 H 0.29051 0.99088 0.51794 0.0
H1499 H 0.31444 0.97982 0.54823 0.0
H1500 H 0.29074 0.95887 0.52936 0.0
H1501 H 0.36091 0.02012 0.42935 0.0
H1502 H 0.38516 0.99773 0.41634 0.0
H1503 H 0.38658 0.0116 0.45885 0.0
C1504 C 0.7972 0.58096 0.19661 0.0
C1505 C 0.78955 0.59873 0.17252 0.0
C1506 C 0.78165 0.57617 0.22589 0.0
C1507 C 0.75834 0.58996 0.23151 0.0
C1508 C 0.75046 0.60777 0.20703 0.0
C1509 C 0.766 0.61171 0.17763 0.0
C1510 C 0.79023 0.5566 0.25092 0.0
C1511 C 0.72588 0.6231 0.21223 0.0
C1512 C 0.69943 0.57408 0.2863 0.0
C1513 C 0.7028 0.59049 0.314 0.0
C1514 C 0.71904 0.5715 0.26097 0.0
C1515 C 0.74202 0.58634 0.26298 0.0
C1516 C 0.74657 0.60117 0.29273 0.0
C1517 C 0.72687 0.60289 0.31819 0.0
C1518 C 0.7138 0.55487 0.23028 0.0
C1519 C 0.77068 0.61746 0.29575 0.0
H1520 H 0.81538 0.57081 0.19261 0.0
H1521 H 0.76014 0.62558 0.15919 0.0
H1522 H 0.79517 0.56504 0.27636 0.0
H1523 H 0.77379 0.54346 0.25525 0.0
H1524 H 0.8078 0.54633 0.24152 0.0
H1525 H 0.7229 0.63656 0.19115 0.0
H1526 H 0.70815 0.6111 0.2134 0.0
H1527 H 0.72721 0.63321 0.23723 0.0
H1528 H 0.68067 0.56458 0.28315 0.0
H1529 H 0.7292 0.61585 0.33943 0.0
H1530 H 0.73213 0.54522 0.2223 0.0
H1531 H 0.70699 0.56599 0.20804 0.0
H1532 H 0.69826 0.54106 0.236 0.0
H1533 H 0.78882 0.6075 0.28786 0.0
H1534 H 0.77346 0.62461 0.32253 0.0
H1535 H 0.76834 0.63328 0.27811 0.0
C1536 C 0.148 0.96579 0.05551 0.0
C1537 C 0.16306 0.94459 0.04983 0.0
C1538 C 0.15064 0.98626 0.03414 0.0
C1539 C 0.16908 0.9857 0.00665 0.0
C1540 C 0.18498 0.96465 0.00141 0.0
C1541 C 0.18163 0.94422 0.02293 0.0
C1542 C 0.13302 0.00819 0.04034 0.0
C1543 C 0.20512 0.96356 0.97266 0.0
C1544 C 0.15203 0.02748 0.93203 0.0
C1545 C 0.16701 0.04846 0.93999 0.0
C1546 C 0.15326 0.00661 0.95285 0.0
C1547 C 0.17019 0.00656 0.98215 0.0
C1548 C 0.18628 0.02727 0.98948 0.0
C1549 C 0.18435 0.0481 0.96843 0.0
C1550 C 0.13551 0.98504 0.94437 0.0
C1551 C 0.20486 0.02772 0.0202 0.0
H1552 H 0.13358 0.96621 0.07622 0.0
H1553 H 0.19345 0.92794 0.0186 0.0
H1554 H 0.14521 0.02498 0.04374 0.0
H1555 H 0.12004 0.01105 0.01747 0.0
H1556 H 0.12032 0.00602 0.06354 0.0
H1557 H 0.21744 0.94675 0.97384 0.0
H1558 H 0.19486 0.96396 0.94721 0.0
H1559 H 0.21833 0.97982 0.97397 0.0
H1560 H 0.13858 0.0276 0.91008 0.0
H1561 H 0.19612 0.06421 0.97456 0.0
H1562 H 0.12084 0.98259 0.96539 0.0
H1563 H 0.14731 0.96797 0.9427 0.0
H1564 H 0.12463 0.98744 0.91957 0.0
H1565 H 0.19323 0.02791 0.04451 0.0
H1566 H 0.21806 0.04404 0.02018 0.0
H1567 H 0.21726 0.01097 0.02041 0.0
C1568 C 0.70677 0.41692 0.69634 0.0
C1569 C 0.68915 0.39799 0.70464 0.0
C1570 C 0.73097 0.41958 0.71422 0.0
C1571 C 0.73783 0.40252 0.7402 0.0
C1572 C 0.72008 0.38336 0.74848 0.0
C1573 C 0.6959 0.38151 0.73088 0.0
C1574 C 0.7492 0.44053 0.70529 0.0
C1575 C 0.72684 0.36443 0.77548 0.0
C1576 C 0.80824 0.38674 0.76445 0.0
C1577 C 0.8099 0.39608 0.79838 0.0
C1578 C 0.78548 0.39016 0.7442 0.0
C1579 C 0.76398 0.4036 0.75795 0.0
C1580 C 0.76636 0.41479 0.79103 0.0
C1581 C 0.78922 0.41072 0.81102 0.0
C1582 C 0.78365 0.37763 0.70924 0.0
C1583 C 0.74408 0.42975 0.80623 0.0
H1584 H 0.7015 0.4298 0.67624 0.0
H1585 H 0.68246 0.36669 0.73718 0.0
H1586 H 0.75414 0.45126 0.72899 0.0
H1587 H 0.76808 0.43332 0.69481 0.0
H1588 H 0.7403 0.45302 0.68589 0.0
H1589 H 0.71084 0.35063 0.77869 0.0
H1590 H 0.74529 0.35472 0.76812 0.0
H1591 H 0.73049 0.37349 0.80086 0.0
H1592 H 0.82413 0.37552 0.75425 0.0
H1593 H 0.79047 0.41834 0.83698 0.0
H1594 H 0.77602 0.39041 0.6894 0.0
H1595 H 0.7695 0.36209 0.71073 0.0
H1596 H 0.8031 0.37043 0.70053 0.0
H1597 H 0.7358 0.44238 0.78662 0.0
H1598 H 0.75067 0.44062 0.82915 0.0
H1599 H 0.72787 0.41734 0.81439 0.0
loop_
_geom_bond_atom_site_label_1
_geom_bond_atom_site_label_2
_geom_bond_distance
_geom_bond_site_symmetry_2
_ccdc_geom_bond_type
Mn0 O5 2.095 . S
Mn0 O15 2.162 . S
Mn0 O16 2.297 . S
Mn0 O24 2.385 . S
Mn0 O25 2.209 . S
Mn0 O26 2.094 . S
Mn1 O6 2.121 . S
Mn1 N8 2.257 . S
Mn1 N17 2.282 . S
Mn1 O25 2.215 . S
Mn1 O27 2.117 . S
C2 O24 1.234 . S
C2 O25 1.283 . S
C3 O15 1.281 . S
C3 O16 1.236 . S
C4 O26 1.240 . S
C4 O27 1.264 . S
O5 Mn0 2.095 . S
O5 C14 1.250 . S
O6 Mn1 2.121 . S
O6 C14 1.258 . S
C7 N8 1.326 . S
C7 C11 1.460 . S
C7 H13 0.929 . S
N8 Mn1 2.257 . S
N8 C7 1.326 . S
N8 C12 1.362 . S
C9 C10 1.258 . S
C9 C12 1.431 . S
C9 C29 1.449 . S
C10 C9 1.258 . S
C10 C11 1.477 . S
C10 H30 0.931 . S
C11 C7 1.460 . S
C11 C10 1.477 . S
C11 H31 0.930 . S
C12 N8 1.362 . S
C12 C9 1.431 . S
C12 C22 1.476 . S
H13 C7 0.929 . S
C14 O5 1.250 . S
C14 O6 1.258 . S
O15 Mn0 2.162 . S
O15 C3 1.281 . S
O16 Mn0 2.297 . S
O16 C3 1.236 . S
N17 Mn1 2.282 . S
N17 C18 1.328 . S
N17 C22 1.318 . S
C18 N17 1.328 . S
C18 C19 1.457 . S
C18 H23 0.929 . S
C19 C18 1.457 . S
C19 C20 1.291 . S
C19 H32 0.931 . S
C20 C19 1.291 . S
C20 C21 1.373 . S
C20 H33 0.929 . S
C21 C20 1.373 . S
C21 C22 1.396 . S
C21 C28 1.403 . S
C22 C12 1.476 . S
C22 N17 1.318 . S
C22 C21 1.396 . S
H23 C18 0.929 . S
O24 Mn0 2.385 . S
O24 C2 1.234 . S
O25 Mn0 2.209 . S
O25 Mn1 2.215 . S
O25 C2 1.283 . S
O26 Mn0 2.094 . S
O26 C4 1.240 . S
O27 Mn1 2.117 . S
O27 C4 1.264 . S
C28 C21 1.403 . S
C28 C29 1.399 . S
C28 H34 0.929 . S
C29 C9 1.449 . S
C29 C28 1.399 . S
C29 H35 0.930 . S
H30 C10 0.931 . S
H31 C11 0.930 . S
H32 C19 0.931 . S
H33 C20 0.929 . S
H34 C28 0.929 . S
H35 C29 0.930 . S
Mn36 O41 2.095 . S
Mn36 O51 2.162 . S
Mn36 O52 2.297 . S
Mn36 O60 2.385 . S
Mn36 O61 2.209 . S
Mn36 O62 2.094 . S
Mn37 O42 2.121 . S
Mn37 N44 2.257 . S
Mn37 N53 2.282 . S
Mn37 O61 2.215 . S
Mn37 O63 2.117 . S
C38 O60 1.234 . S
C38 O61 1.283 . S
C39 O51 1.281 . S
C39 O52 1.236 . S
C40 O62 1.240 . S
C40 O63 1.264 . S
O41 Mn36 2.095 . S
O41 C50 1.250 . S
O42 Mn37 2.121 . S
O42 C50 1.258 . S
C43 N44 1.326 . S
C43 C47 1.460 . S
C43 H49 0.929 . S
N44 Mn37 2.257 . S
N44 C43 1.326 . S
N44 C48 1.362 . S
C45 C46 1.258 . S
C45 C48 1.431 . S
C45 C65 1.449 . S
C46 C45 1.258 . S
C46 C47 1.477 . S
C46 H66 0.931 . S
C47 C43 1.460 . S
C47 C46 1.477 . S
C47 H67 0.930 . S
C48 N44 1.362 . S
C48 C45 1.431 . S
C48 C58 1.476 . S
H49 C43 0.929 . S
C50 O41 1.250 . S
C50 O42 1.258 . S
O51 Mn36 2.162 . S
O51 C39 1.281 . S
O52 Mn36 2.297 . S
O52 C39 1.236 . S
N53 Mn37 2.282 . S
N53 C54 1.328 . S
N53 C58 1.318 . S
C54 N53 1.328 . S
C54 C55 1.457 . S
C54 H59 0.929 . S
C55 C54 1.457 . S
C55 C56 1.291 . S
C55 H68 0.931 . S
C56 C55 1.291 . S
C56 C57 1.373 . S
C56 H69 0.929 . S
C57 C56 1.373 . S
C57 C58 1.396 . S
C57 C64 1.403 . S
C58 C48 1.476 . S
C58 N53 1.318 . S
C58 C57 1.396 . S
H59 C54 0.929 . S
O60 Mn36 2.385 . S
O60 C38 1.234 . S
O61 Mn36 2.209 . S
O61 Mn37 2.215 . S
O61 C38 1.283 . S
O62 Mn36 2.094 . S
O62 C40 1.240 . S
O63 Mn37 2.117 . S
O63 C40 1.264 . S
C64 C57 1.403 . S
C64 C65 1.399 . S
C64 H70 0.929 . S
C65 C45 1.449 . S
C65 C64 1.399 . S
C65 H71 0.930 . S
H66 C46 0.931 . S
H67 C47 0.930 . S
H68 C55 0.931 . S
H69 C56 0.929 . S
H70 C64 0.929 . S
H71 C65 0.930 . S
Mn72 O77 2.095 . S
Mn72 O87 2.162 . S
Mn72 O88 2.297 . S
Mn72 O96 2.385 . S
Mn72 O97 2.209 . S
Mn72 O98 2.094 . S
Mn73 O78 2.121 . S
Mn73 N80 2.257 . S
Mn73 N89 2.282 . S
Mn73 O97 2.215 . S
Mn73 O99 2.117 . S
C74 O96 1.234 . S
C74 O97 1.283 . S
C75 O87 1.281 . S
C75 O88 1.236 . S
C76 O98 1.240 . S
C76 O99 1.264 . S
O77 Mn72 2.095 . S
O77 C86 1.250 . S
O78 Mn73 2.121 . S
O78 C86 1.258 . S
C79 N80 1.326 . S
C79 C83 1.460 . S
C79 H85 0.929 . S
N80 Mn73 2.257 . S
N80 C79 1.326 . S
N80 C84 1.362 . S
C81 C82 1.258 . S
C81 C84 1.431 . S
C81 C101 1.449 . S
C82 C81 1.258 . S
C82 C83 1.477 . S
C82 H102 0.931 . S
C83 C79 1.460 . S
C83 C82 1.477 . S
C83 H103 0.930 . S
C84 N80 1.362 . S
C84 C81 1.431 . S
C84 C94 1.476 . S
H85 C79 0.929 . S
C86 O77 1.250 . S
C86 O78 1.258 . S
O87 Mn72 2.162 . S
O87 C75 1.281 . S
O88 Mn72 2.297 . S
O88 C75 1.236 . S
N89 Mn73 2.282 . S
N89 C90 1.328 . S
N89 C94 1.318 . S
C90 N89 1.328 . S
C90 C91 1.457 . S
C90 H95 0.929 . S
C91 C90 1.457 . S
C91 C92 1.291 . S
C91 H104 0.931 . S
C92 C91 1.291 . S
C92 C93 1.373 . S
C92 H105 0.929 . S
C93 C92 1.373 . S
C93 C94 1.396 . S
C93 C100 1.403 . S
C94 C84 1.476 . S
C94 N89 1.318 . S
C94 C93 1.396 . S
H95 C90 0.929 . S
O96 Mn72 2.385 . S
O96 C74 1.234 . S
O97 Mn72 2.209 . S
O97 Mn73 2.215 . S
O97 C74 1.283 . S
O98 Mn72 2.094 . S
O98 C76 1.240 . S
O99 Mn73 2.117 . S
O99 C76 1.264 . S
C100 C93 1.403 . S
C100 C101 1.399 . S
C100 H106 0.929 . S
C101 C81 1.449 . S
C101 C100 1.399 . S
C101 H107 0.930 . S
H102 C82 0.931 . S
H103 C83 0.930 . S
H104 C91 0.931 . S
H105 C92 0.929 . S
H106 C100 0.929 . S
H107 C101 0.930 . S
Mn108 O113 2.095 . S
Mn108 O123 2.162 . S
Mn108 O124 2.297 . S
Mn108 O132 2.385 . S
Mn108 O133 2.209 . S
Mn108 O134 2.094 . S
Mn109 O114 2.121 . S
Mn109 N116 2.257 . S
Mn109 N125 2.282 . S
Mn109 O133 2.215 . S
Mn109 O135 2.117 . S
C110 O132 1.234 . S
C110 O133 1.283 . S
C111 O123 1.281 . S
C111 O124 1.236 . S
C112 O134 1.240 . S
C112 O135 1.264 . S
O113 Mn108 2.095 . S
O113 C122 1.250 . S
O114 Mn109 2.121 . S
O114 C122 1.258 . S
C115 N116 1.326 . S
C115 C119 1.460 . S
C115 H121 0.929 . S
N116 Mn109 2.257 . S
N116 C115 1.326 . S
N116 C120 1.362 . S
C117 C118 1.258 . S
C117 C120 1.431 . S
C117 C137 1.449 . S
C118 C117 1.258 . S
C118 C119 1.477 . S
C118 H138 0.931 . S
C119 C115 1.460 . S
C119 C118 1.477 . S
C119 H139 0.930 . S
C120 N116 1.362 . S
C120 C117 1.431 . S
C120 C130 1.476 . S
H121 C115 0.929 . S
C122 O113 1.250 . S
C122 O114 1.258 . S
O123 Mn108 2.162 . S
O123 C111 1.281 . S
O124 Mn108 2.297 . S
O124 C111 1.236 . S
N125 Mn109 2.282 . S
N125 C126 1.328 . S
N125 C130 1.318 . S
C126 N125 1.328 . S
C126 C127 1.457 . S
C126 H131 0.929 . S
C127 C126 1.457 . S
C127 C128 1.291 . S
C127 H140 0.931 . S
C128 C127 1.291 . S
C128 C129 1.373 . S
C128 H141 0.929 . S
C129 C128 1.373 . S
C129 C130 1.396 . S
C129 C136 1.403 . S
C130 C120 1.476 . S
C130 N125 1.318 . S
C130 C129 1.396 . S
H131 C126 0.929 . S
O132 Mn108 2.385 . S
O132 C110 1.234 . S
O133 Mn108 2.209 . S
O133 Mn109 2.215 . S
O133 C110 1.283 . S
O134 Mn108 2.094 . S
O134 C112 1.240 . S
O135 Mn109 2.117 . S
O135 C112 1.264 . S
C136 C129 1.403 . S
C136 C137 1.399 . S
C136 H142 0.929 . S
C137 C117 1.449 . S
C137 C136 1.399 . S
C137 H143 0.930 . S
H138 C118 0.931 . S
H139 C119 0.930 . S
H140 C127 0.931 . S
H141 C128 0.929 . S
H142 C136 0.929 . S
H143 C137 0.930 . S
Mn144 O149 2.095 . S
Mn144 O159 2.162 . S
Mn144 O160 2.297 . S
Mn144 O168 2.385 . S
Mn144 O169 2.209 . S
Mn144 O170 2.094 . S
Mn145 O150 2.121 . S
Mn145 N152 2.257 . S
Mn145 N161 2.282 . S
Mn145 O169 2.215 . S
Mn145 O171 2.117 . S
C146 O168 1.234 . S
C146 O169 1.283 . S
C147 O159 1.281 . S
C147 O160 1.236 . S
C148 O170 1.240 . S
C148 O171 1.264 . S
O149 Mn144 2.095 . S
O149 C158 1.250 . S
O150 Mn145 2.121 . S
O150 C158 1.258 . S
C151 N152 1.326 1_554 S
C151 C155 1.460 . S
C151 H157 0.929 . S
N152 Mn145 2.257 . S
N152 C151 1.326 1_556 S
N152 C156 1.363 1_556 S
C153 C154 1.258 . S
C153 C156 1.428 . S
C153 C173 1.449 . S
C154 C153 1.258 . S
C154 C155 1.477 . S
C154 H174 0.931 . S
C155 C151 1.460 . S
C155 C154 1.477 . S
C155 H175 0.930 . S
C156 N152 1.363 1_554 S
C156 C153 1.428 . S
C156 C166 1.478 1_554 S
H157 C151 0.929 . S
C158 O149 1.250 . S
C158 O150 1.258 . S
O159 Mn144 2.162 . S
O159 C147 1.281 . S
O160 Mn144 2.297 . S
O160 C147 1.236 . S
N161 Mn145 2.282 . S
N161 C162 1.328 . S
N161 C166 1.318 . S
C162 N161 1.328 . S
C162 C163 1.457 . S
C162 H167 0.929 . S
C163 C162 1.457 . S
C163 C164 1.291 . S
C163 H176 0.931 . S
C164 C163 1.291 . S
C164 C165 1.373 . S
C164 H177 0.929 . S
C165 C164 1.373 . S
C165 C166 1.396 . S
C165 C172 1.403 1_556 S
C166 C156 1.478 1_556 S
C166 N161 1.318 . S
C166 C165 1.396 . S
H167 C162 0.929 . S
O168 Mn144 2.385 . S
O168 C146 1.234 . S
O169 Mn144 2.209 . S
O169 Mn145 2.215 . S
O169 C146 1.283 . S
O170 Mn144 2.094 . S
O170 C148 1.240 . S
O171 Mn145 2.117 . S
O171 C148 1.264 . S
C172 C165 1.403 1_554 S
C172 C173 1.399 . S
C172 H178 0.929 . S
C173 C153 1.449 . S
C173 C172 1.399 . S
C173 H179 0.930 . S
H174 C154 0.931 . S
H175 C155 0.930 . S
H176 C163 0.931 . S
H177 C164 0.929 . S
H178 C172 0.929 . S
H179 C173 0.930 . S
Mn180 O185 2.095 . S
Mn180 O195 2.162 . S
Mn180 O196 2.297 . S
Mn180 O204 2.385 . S
Mn180 O205 2.209 . S
Mn180 O206 2.094 . S
Mn181 O186 2.121 . S
Mn181 N188 2.257 . S
Mn181 N197 2.282 . S
Mn181 O205 2.215 . S
Mn181 O207 2.117 . S
C182 O204 1.234 . S
C182 O205 1.283 . S
C183 O195 1.281 . S
C183 O196 1.236 . S
C184 O206 1.240 . S
C184 O207 1.264 . S
O185 Mn180 2.095 . S
O185 C194 1.250 . S
O186 Mn181 2.121 . S
O186 C194 1.258 . S
C187 N188 1.326 . S
C187 C191 1.460 . S
C187 H193 0.929 . S
N188 Mn181 2.257 . S
N188 C187 1.326 . S
N188 C192 1.362 . S
C189 C190 1.258 . S
C189 C192 1.431 . S
C189 C209 1.449 . S
C190 C189 1.258 . S
C190 C191 1.477 . S
C190 H210 0.931 . S
C191 C187 1.460 . S
C191 C190 1.477 . S
C191 H211 0.930 . S
C192 N188 1.362 . S
C192 C189 1.431 . S
C192 C202 1.476 . S
H193 C187 0.929 . S
C194 O185 1.250 . S
C194 O186 1.258 . S
O195 Mn180 2.162 . S
O195 C183 1.281 . S
O196 Mn180 2.297 . S
O196 C183 1.236 . S
N197 Mn181 2.282 . S
N197 C198 1.328 . S
N197 C202 1.318 . S
C198 N197 1.328 . S
C198 C199 1.457 . S
C198 H203 0.929 . S
C199 C198 1.457 . S
C199 C200 1.291 . S
C199 H212 0.931 . S
C200 C199 1.291 . S
C200 C201 1.373 . S
C200 H213 0.929 . S
C201 C200 1.373 . S
C201 C202 1.396 . S
C201 C208 1.403 . S
C202 C192 1.476 . S
C202 N197 1.318 . S
C202 C201 1.396 . S
H203 C198 0.929 . S
O204 Mn180 2.385 . S
O204 C182 1.234 . S
O205 Mn180 2.209 . S
O205 Mn181 2.215 . S
O205 C182 1.283 . S
O206 Mn180 2.094 . S
O206 C184 1.240 . S
O207 Mn181 2.117 . S
O207 C184 1.264 . S
C208 C201 1.403 . S
C208 C209 1.399 . S
C208 H214 0.929 . S
C209 C189 1.449 . S
C209 C208 1.399 . S
C209 H215 0.930 . S
H210 C190 0.931 . S
H211 C191 0.930 . S
H212 C199 0.931 . S
H213 C200 0.929 . S
H214 C208 0.929 . S
H215 C209 0.930 . S
Mn216 O221 2.095 . S
Mn216 O231 2.162 . S
Mn216 O232 2.297 . S
Mn216 O240 2.385 . S
Mn216 O241 2.209 . S
Mn216 O242 2.094 . S
Mn217 O222 2.121 . S
Mn217 N224 2.257 . S
Mn217 N233 2.282 . S
Mn217 O241 2.215 . S
Mn217 O243 2.117 . S
C218 O240 1.234 . S
C218 O241 1.283 . S
C219 O231 1.281 . S
C219 O232 1.236 . S
C220 O242 1.240 . S
C220 O243 1.264 . S
O221 Mn216 2.095 . S
O221 C230 1.250 . S
O222 Mn217 2.121 . S
O222 C230 1.258 . S
C223 N224 1.326 . S
C223 C227 1.460 . S
C223 H229 0.929 . S
N224 Mn217 2.257 . S
N224 C223 1.326 . S
N224 C228 1.362 . S
C225 C226 1.258 . S
C225 C228 1.431 . S
C225 C245 1.449 . S
C226 C225 1.258 . S
C226 C227 1.477 . S
C226 H246 0.931 . S
C227 C223 1.460 . S
C227 C226 1.477 . S
C227 H247 0.930 . S
C228 N224 1.362 . S
C228 C225 1.431 . S
C228 C238 1.476 . S
H229 C223 0.929 . S
C230 O221 1.250 . S
C230 O222 1.258 . S
O231 Mn216 2.162 . S
O231 C219 1.281 . S
O232 Mn216 2.297 . S
O232 C219 1.236 . S
N233 Mn217 2.282 . S
N233 C234 1.328 . S
N233 C238 1.318 . S
C234 N233 1.328 . S
C234 C235 1.457 . S
C234 H239 0.929 . S
C235 C234 1.457 . S
C235 C236 1.291 . S
C235 H248 0.931 . S
C236 C235 1.291 . S
C236 C237 1.373 . S
C236 H249 0.929 . S
C237 C236 1.373 . S
C237 C238 1.396 . S
C237 C244 1.403 . S
C238 C228 1.476 . S
C238 N233 1.318 . S
C238 C237 1.396 . S
H239 C234 0.929 . S
O240 Mn216 2.385 . S
O240 C218 1.234 . S
O241 Mn216 2.209 . S
O241 Mn217 2.215 . S
O241 C218 1.283 . S
O242 Mn216 2.094 . S
O242 C220 1.240 . S
O243 Mn217 2.117 . S
O243 C220 1.264 . S
C244 C237 1.403 . S
C244 C245 1.399 . S
C244 H250 0.929 . S
C245 C225 1.449 . S
C245 C244 1.399 . S
C245 H251 0.930 . S
H246 C226 0.931 . S
H247 C227 0.930 . S
H248 C235 0.931 . S
H249 C236 0.929 . S
H250 C244 0.929 . S
H251 C245 0.930 . S
Mn252 O257 2.095 . S
Mn252 O267 2.162 . S
Mn252 O268 2.297 . S
Mn252 O276 2.385 . S
Mn252 O277 2.209 . S
Mn252 O278 2.094 . S
Mn253 O258 2.121 . S
Mn253 N260 2.257 . S
Mn253 N269 2.282 . S
Mn253 O277 2.215 . S
Mn253 O279 2.117 . S
C254 O276 1.234 . S
C254 O277 1.283 . S
C255 O267 1.281 . S
C255 O268 1.236 . S
C256 O278 1.240 . S
C256 O279 1.264 . S
O257 Mn252 2.095 . S
O257 C266 1.250 . S
O258 Mn253 2.121 . S
O258 C266 1.258 . S
C259 N260 1.326 . S
C259 C263 1.460 . S
C259 H265 0.929 . S
N260 Mn253 2.257 . S
N260 C259 1.326 . S
N260 C264 1.362 . S
C261 C262 1.258 . S
C261 C264 1.431 . S
C261 C281 1.449 . S
C262 C261 1.258 . S
C262 C263 1.477 . S
C262 H282 0.931 . S
C263 C259 1.460 . S
C263 C262 1.477 . S
C263 H283 0.930 . S
C264 N260 1.362 . S
C264 C261 1.431 . S
C264 C274 1.476 . S
H265 C259 0.929 . S
C266 O257 1.250 . S
C266 O258 1.258 . S
O267 Mn252 2.162 . S
O267 C255 1.281 . S
O268 Mn252 2.297 . S
O268 C255 1.236 . S
N269 Mn253 2.282 . S
N269 C270 1.328 . S
N269 C274 1.318 . S
C270 N269 1.328 . S
C270 C271 1.457 . S
C270 H275 0.929 . S
C271 C270 1.457 . S
C271 C272 1.291 . S
C271 H284 0.931 . S
C272 C271 1.291 . S
C272 C273 1.373 . S
C272 H285 0.929 . S
C273 C272 1.373 . S
C273 C274 1.396 . S
C273 C280 1.403 . S
C274 C264 1.476 . S
C274 N269 1.318 . S
C274 C273 1.396 . S
H275 C270 0.929 . S
O276 Mn252 2.385 . S
O276 C254 1.234 . S
O277 Mn252 2.209 . S
O277 Mn253 2.215 . S
O277 C254 1.283 . S
O278 Mn252 2.094 . S
O278 C256 1.240 . S
O279 Mn253 2.117 . S
O279 C256 1.264 . S
C280 C273 1.403 . S
C280 C281 1.399 . S
C280 H286 0.929 . S
C281 C261 1.449 . S
C281 C280 1.399 . S
C281 H287 0.930 . S
H282 C262 0.931 . S
H283 C263 0.930 . S
H284 C271 0.931 . S
H285 C272 0.929 . S
H286 C280 0.929 . S
H287 C281 0.930 . S
Mn288 O293 2.095 . S
Mn288 O303 2.162 . S
Mn288 O304 2.297 . S
Mn288 O312 2.385 . S
Mn288 O313 2.209 . S
Mn288 O314 2.094 . S
Mn289 O294 2.121 . S
Mn289 N296 2.257 . S
Mn289 N305 2.282 . S
Mn289 O313 2.215 . S
Mn289 O315 2.117 . S
C290 O312 1.234 . S
C290 O313 1.283 . S
C291 O303 1.281 . S
C291 O304 1.236 . S
C292 O314 1.240 . S
C292 O315 1.264 . S
O293 Mn288 2.095 . S
O293 C302 1.250 . S
O294 Mn289 2.121 . S
O294 C302 1.258 . S
C295 N296 1.326 . S
C295 C299 1.460 . S
C295 H301 0.929 . S
N296 Mn289 2.257 . S
N296 C295 1.326 . S
N296 C300 1.362 . S
C297 C298 1.258 . S
C297 C300 1.431 . S
C297 C317 1.449 . S
C298 C297 1.258 . S
C298 C299 1.477 . S
C298 H318 0.931 . S
C299 C295 1.460 . S
C299 C298 1.477 . S
C299 H319 0.930 . S
C300 N296 1.362 . S
C300 C297 1.431 . S
C300 C310 1.476 . S
H301 C295 0.929 . S
C302 O293 1.250 . S
C302 O294 1.258 . S
O303 Mn288 2.162 . S
O303 C291 1.281 . S
O304 Mn288 2.297 . S
O304 C291 1.236 . S
N305 Mn289 2.282 . S
N305 C306 1.328 . S
N305 C310 1.318 . S
C306 N305 1.328 . S
C306 C307 1.457 . S
C306 H311 0.929 . S
C307 C306 1.457 . S
C307 C308 1.291 . S
C307 H320 0.931 . S
C308 C307 1.291 . S
C308 C309 1.373 . S
C308 H321 0.929 . S
C309 C308 1.373 . S
C309 C310 1.396 . S
C309 C316 1.403 . S
C310 C300 1.476 . S
C310 N305 1.318 . S
C310 C309 1.396 . S
H311 C306 0.929 . S
O312 Mn288 2.385 . S
O312 C290 1.234 . S
O313 Mn288 2.209 . S
O313 Mn289 2.215 . S
O313 C290 1.283 . S
O314 Mn288 2.094 . S
O314 C292 1.240 . S
O315 Mn289 2.117 . S
O315 C292 1.264 . S
C316 C309 1.403 . S
C316 C317 1.399 . S
C316 H322 0.929 . S
C317 C297 1.449 . S
C317 C316 1.399 . S
C317 H323 0.930 . S
H318 C298 0.931 . S
H319 C299 0.930 . S
H320 C307 0.931 . S
H321 C308 0.929 . S
H322 C316 0.929 . S
H323 C317 0.930 . S
Mn324 O329 2.095 . S
Mn324 O339 2.162 . S
Mn324 O340 2.297 . S
Mn324 O348 2.385 . S
Mn324 O349 2.209 . S
Mn324 O350 2.094 . S
Mn325 O330 2.121 . S
Mn325 N332 2.257 . S
Mn325 N341 2.282 . S
Mn325 O349 2.215 . S
Mn325 O351 2.117 . S
C326 O348 1.234 . S
C326 O349 1.283 . S
C327 O339 1.281 . S
C327 O340 1.236 . S
C328 O350 1.240 . S
C328 O351 1.264 . S
O329 Mn324 2.095 . S
O329 C338 1.250 . S
O330 Mn325 2.121 . S
O330 C338 1.258 . S
C331 N332 1.326 . S
C331 C335 1.460 . S
C331 H337 0.929 . S
N332 Mn325 2.257 . S
N332 C331 1.326 . S
N332 C336 1.362 . S
C333 C334 1.258 . S
C333 C336 1.431 . S
C333 C353 1.449 . S
C334 C333 1.258 . S
C334 C335 1.477 . S
C334 H354 0.931 . S
C335 C331 1.460 . S
C335 C334 1.477 . S
C335 H355 0.930 . S
C336 N332 1.362 . S
C336 C333 1.431 . S
C336 C346 1.476 . S
H337 C331 0.929 . S
C338 O329 1.250 . S
C338 O330 1.258 . S
O339 Mn324 2.162 . S
O339 C327 1.281 . S
O340 Mn324 2.297 . S
O340 C327 1.236 . S
N341 Mn325 2.282 . S
N341 C342 1.328 . S
N341 C346 1.318 . S
C342 N341 1.328 . S
C342 C343 1.457 . S
C342 H347 0.929 . S
C343 C342 1.457 . S
C343 C344 1.291 . S
C343 H356 0.931 . S
C344 C343 1.291 . S
C344 C345 1.373 . S
C344 H357 0.929 . S
C345 C344 1.373 . S
C345 C346 1.396 . S
C345 C352 1.403 . S
C346 C336 1.476 . S
C346 N341 1.318 . S
C346 C345 1.396 . S
H347 C342 0.929 . S
O348 Mn324 2.385 . S
O348 C326 1.234 . S
O349 Mn324 2.209 . S
O349 Mn325 2.215 . S
O349 C326 1.283 . S
O350 Mn324 2.094 . S
O350 C328 1.240 . S
O351 Mn325 2.117 . S
O351 C328 1.264 . S
C352 C345 1.403 . S
C352 C353 1.399 . S
C352 H358 0.929 . S
C353 C333 1.449 . S
C353 C352 1.399 . S
C353 H359 0.930 . S
H354 C334 0.931 . S
H355 C335 0.930 . S
H356 C343 0.931 . S
H357 C344 0.929 . S
H358 C352 0.929 . S
H359 C353 0.930 . S
Mn360 O365 2.095 . S
Mn360 O375 2.162 . S
Mn360 O376 2.297 . S
Mn360 O384 2.385 . S
Mn360 O385 2.209 . S
Mn360 O386 2.094 . S
Mn361 O366 2.121 . S
Mn361 N368 2.257 . S
Mn361 N377 2.282 . S
Mn361 O385 2.215 . S
Mn361 O387 2.117 . S
C362 O384 1.234 . S
C362 O385 1.283 . S
C363 O375 1.281 . S
C363 O376 1.236 . S
C364 O386 1.240 . S
C364 O387 1.264 . S
O365 Mn360 2.095 . S
O365 C374 1.250 . S
O366 Mn361 2.121 . S
O366 C374 1.258 . S
C367 N368 1.326 . S
C367 C371 1.460 . S
C367 H373 0.929 . S
N368 Mn361 2.257 . S
N368 C367 1.326 . S
N368 C372 1.362 . S
C369 C370 1.258 . S
C369 C372 1.431 . S
C369 C389 1.449 . S
C370 C369 1.258 . S
C370 C371 1.477 . S
C370 H390 0.931 . S
C371 C367 1.460 . S
C371 C370 1.477 . S
C371 H391 0.930 . S
C372 N368 1.362 . S
C372 C369 1.431 . S
C372 C382 1.476 . S
H373 C367 0.929 . S
C374 O365 1.250 . S
C374 O366 1.258 . S
O375 Mn360 2.162 . S
O375 C363 1.281 . S
O376 Mn360 2.297 . S
O376 C363 1.236 . S
N377 Mn361 2.282 . S
N377 C378 1.328 . S
N377 C382 1.318 . S
C378 N377 1.328 . S
C378 C379 1.457 . S
C378 H383 0.929 . S
C379 C378 1.457 . S
C379 C380 1.291 . S
C379 H392 0.931 . S
C380 C379 1.291 . S
C380 C381 1.373 . S
C380 H393 0.929 . S
C381 C380 1.373 . S
C381 C382 1.396 . S
C381 C388 1.403 . S
C382 C372 1.476 . S
C382 N377 1.318 . S
C382 C381 1.396 . S
H383 C378 0.929 . S
O384 Mn360 2.385 . S
O384 C362 1.234 . S
O385 Mn360 2.209 . S
O385 Mn361 2.215 . S
O385 C362 1.283 . S
O386 Mn360 2.094 . S
O386 C364 1.240 . S
O387 Mn361 2.117 . S
O387 C364 1.264 . S
C388 C381 1.403 . S
C388 C389 1.399 . S
C388 H394 0.929 . S
C389 C369 1.449 . S
C389 C388 1.399 . S
C389 H395 0.930 . S
H390 C370 0.931 . S
H391 C371 0.930 . S
H392 C379 0.931 . S
H393 C380 0.929 . S
H394 C388 0.929 . S
H395 C389 0.930 . S
Mn396 O401 2.095 . S
Mn396 O411 2.162 . S
Mn396 O412 2.297 . S
Mn396 O420 2.385 . S
Mn396 O421 2.209 . S
Mn396 O422 2.094 . S
Mn397 O402 2.121 . S
Mn397 N404 2.257 . S
Mn397 N413 2.282 . S
Mn397 O421 2.215 . S
Mn397 O423 2.117 . S
C398 O420 1.234 . S
C398 O421 1.283 . S
C399 O411 1.281 . S
C399 O412 1.236 . S
C400 O422 1.240 . S
C400 O423 1.264 . S
O401 Mn396 2.095 . S
O401 C410 1.250 . S
O402 Mn397 2.121 . S
O402 C410 1.258 . S
C403 N404 1.326 . S
C403 C407 1.460 . S
C403 H409 0.929 . S
N404 Mn397 2.257 . S
N404 C403 1.326 . S
N404 C408 1.362 . S
C405 C406 1.258 . S
C405 C408 1.431 . S
C405 C425 1.449 . S
C406 C405 1.258 . S
C406 C407 1.477 . S
C406 H426 0.931 . S
C407 C403 1.460 . S
C407 C406 1.477 . S
C407 H427 0.930 . S
C408 N404 1.362 . S
C408 C405 1.431 . S
C408 C418 1.476 . S
H409 C403 0.929 . S
C410 O401 1.250 . S
C410 O402 1.258 . S
O411 Mn396 2.162 . S
O411 C399 1.281 . S
O412 Mn396 2.297 . S
O412 C399 1.236 . S
N413 Mn397 2.282 . S
N413 C414 1.328 . S
N413 C418 1.318 . S
C414 N413 1.328 . S
C414 C415 1.457 . S
C414 H419 0.929 . S
C415 C414 1.457 . S
C415 C416 1.291 . S
C415 H428 0.931 . S
C416 C415 1.291 . S
C416 C417 1.373 . S
C416 H429 0.929 . S
C417 C416 1.373 . S
C417 C418 1.396 . S
C417 C424 1.403 . S
C418 C408 1.476 . S
C418 N413 1.318 . S
C418 C417 1.396 . S
H419 C414 0.929 . S
O420 Mn396 2.385 . S
O420 C398 1.234 . S
O421 Mn396 2.209 . S
O421 Mn397 2.215 . S
O421 C398 1.283 . S
O422 Mn396 2.094 . S
O422 C400 1.240 . S
O423 Mn397 2.117 . S
O423 C400 1.264 . S
C424 C417 1.403 . S
C424 C425 1.399 . S
C424 H430 0.929 . S
C425 C405 1.449 . S
C425 C424 1.399 . S
C425 H431 0.930 . S
H426 C406 0.931 . S
H427 C407 0.930 . S
H428 C415 0.931 . S
H429 C416 0.929 . S
H430 C424 0.929 . S
H431 C425 0.930 . S
Mn432 O437 2.095 . S
Mn432 O447 2.162 . S
Mn432 O448 2.297 . S
Mn432 O456 2.385 . S
Mn432 O457 2.209 . S
Mn432 O458 2.094 . S
Mn433 O438 2.121 . S
Mn433 N440 2.257 . S
Mn433 N449 2.282 . S
Mn433 O457 2.215 . S
Mn433 O459 2.117 . S
C434 O456 1.234 . S
C434 O457 1.283 . S
C435 O447 1.281 . S
C435 O448 1.236 . S
C436 O458 1.240 . S
C436 O459 1.264 . S
O437 Mn432 2.095 . S
O437 C446 1.250 . S
O438 Mn433 2.121 . S
O438 C446 1.258 . S
C439 N440 1.326 1_556 S
C439 C443 1.460 . S
C439 H445 0.929 . S
N440 Mn433 2.257 . S
N440 C439 1.326 1_554 S
N440 C444 1.369 . S
C441 C442 1.258 . S
C441 C444 1.408 1_556 S
C441 C461 1.449 . S
C442 C441 1.258 . S
C442 C443 1.477 . S
C442 H462 0.931 . S
C443 C439 1.460 . S
C443 C442 1.477 . S
C443 H463 0.930 . S
C444 N440 1.369 . S
C444 C441 1.408 1_554 S
C444 C454 1.494 . S
H445 C439 0.929 . S
C446 O437 1.250 . S
C446 O438 1.258 . S
O447 Mn432 2.162 . S
O447 C435 1.281 . S
O448 Mn432 2.297 . S
O448 C435 1.236 . S
N449 Mn433 2.282 . S
N449 C450 1.328 . S
N449 C454 1.318 . S
C450 N449 1.328 . S
C450 C451 1.457 . S
C450 H455 0.929 . S
C451 C450 1.457 . S
C451 C452 1.291 . S
C451 H464 0.931 . S
C452 C451 1.291 . S
C452 C453 1.373 . S
C452 H465 0.929 . S
C453 C452 1.373 . S
C453 C454 1.396 . S
C453 C460 1.403 1_554 S
C454 C444 1.494 . S
C454 N449 1.318 . S
C454 C453 1.396 . S
H455 C450 0.929 . S
O456 Mn432 2.385 . S
O456 C434 1.234 . S
O457 Mn432 2.209 . S
O457 Mn433 2.215 . S
O457 C434 1.283 . S
O458 Mn432 2.094 . S
O458 C436 1.240 . S
O459 Mn433 2.117 . S
O459 C436 1.264 . S
C460 C453 1.403 1_556 S
C460 C461 1.399 . S
C460 H466 0.929 . S
C461 C441 1.449 . S
C461 C460 1.399 . S
C461 H467 0.930 . S
H462 C442 0.931 . S
H463 C443 0.930 . S
H464 C451 0.931 . S
H465 C452 0.929 . S
H466 C460 0.929 . S
H467 C461 0.930 . S
Mn468 O473 2.095 . S
Mn468 O483 2.162 . S
Mn468 O484 2.297 . S
Mn468 O492 2.385 . S
Mn468 O493 2.209 . S
Mn468 O494 2.094 . S
Mn469 O474 2.121 . S
Mn469 N476 2.257 . S
Mn469 N485 2.282 . S
Mn469 O493 2.215 . S
Mn469 O495 2.117 . S
C470 O492 1.234 . S
C470 O493 1.283 . S
C471 O483 1.281 . S
C471 O484 1.236 . S
C472 O494 1.240 . S
C472 O495 1.264 . S
O473 Mn468 2.095 . S
O473 C482 1.250 . S
O474 Mn469 2.121 . S
O474 C482 1.258 . S
C475 N476 1.326 . S
C475 C479 1.460 . S
C475 H481 0.929 . S
N476 Mn469 2.257 . S
N476 C475 1.326 . S
N476 C480 1.362 . S
C477 C478 1.258 . S
C477 C480 1.431 . S
C477 C497 1.449 . S
C478 C477 1.258 . S
C478 C479 1.477 . S
C478 H498 0.931 . S
C479 C475 1.460 . S
C479 C478 1.477 . S
C479 H499 0.930 . S
C480 N476 1.362 . S
C480 C477 1.431 . S
C480 C490 1.476 . S
H481 C475 0.929 . S
C482 O473 1.250 . S
C482 O474 1.258 . S
O483 Mn468 2.162 . S
O483 C471 1.281 . S
O484 Mn468 2.297 . S
O484 C471 1.236 . S
N485 Mn469 2.282 . S
N485 C486 1.328 . S
N485 C490 1.318 . S
C486 N485 1.328 . S
C486 C487 1.457 . S
C486 H491 0.929 . S
C487 C486 1.457 . S
C487 C488 1.291 . S
C487 H500 0.931 . S
C488 C487 1.291 . S
C488 C489 1.373 . S
C488 H501 0.929 . S
C489 C488 1.373 . S
C489 C490 1.396 . S
C489 C496 1.403 . S
C490 C480 1.476 . S
C490 N485 1.318 . S
C490 C489 1.396 . S
H491 C486 0.929 . S
O492 Mn468 2.385 . S
O492 C470 1.234 . S
O493 Mn468 2.209 . S
O493 Mn469 2.215 . S
O493 C470 1.283 . S
O494 Mn468 2.094 . S
O494 C472 1.240 . S
O495 Mn469 2.117 . S
O495 C472 1.264 . S
C496 C489 1.403 . S
C496 C497 1.399 . S
C496 H502 0.929 . S
C497 C477 1.449 . S
C497 C496 1.399 . S
C497 H503 0.930 . S
H498 C478 0.931 . S
H499 C479 0.930 . S
H500 C487 0.931 . S
H501 C488 0.929 . S
H502 C496 0.929 . S
H503 C497 0.930 . S
Mn504 O509 2.095 . S
Mn504 O519 2.162 . S
Mn504 O520 2.297 . S
Mn504 O528 2.385 . S
Mn504 O529 2.209 . S
Mn504 O530 2.094 . S
Mn505 O510 2.121 . S
Mn505 N512 2.257 . S
Mn505 N521 2.282 . S
Mn505 O529 2.215 . S
Mn505 O531 2.117 . S
C506 O528 1.234 . S
C506 O529 1.283 . S
C507 O519 1.281 . S
C507 O520 1.236 . S
C508 O530 1.240 . S
C508 O531 1.264 . S
O509 Mn504 2.095 . S
O509 C518 1.250 . S
O510 Mn505 2.121 . S
O510 C518 1.258 . S
C511 N512 1.326 . S
C511 C515 1.460 . S
C511 H517 0.929 . S
N512 Mn505 2.257 . S
N512 C511 1.326 . S
N512 C516 1.362 . S
C513 C514 1.258 . S
C513 C516 1.431 . S
C513 C533 1.449 . S
C514 C513 1.258 . S
C514 C515 1.477 . S
C514 H534 0.931 . S
C515 C511 1.460 . S
C515 C514 1.477 . S
C515 H535 0.930 . S
C516 N512 1.362 . S
C516 C513 1.431 . S
C516 C526 1.476 . S
H517 C511 0.929 . S
C518 O509 1.250 . S
C518 O510 1.258 . S
O519 Mn504 2.162 . S
O519 C507 1.281 . S
O520 Mn504 2.297 . S
O520 C507 1.236 . S
N521 Mn505 2.282 . S
N521 C522 1.328 . S
N521 C526 1.318 . S
C522 N521 1.328 . S
C522 C523 1.457 . S
C522 H527 0.929 . S
C523 C522 1.457 . S
C523 C524 1.291 . S
C523 H536 0.931 . S
C524 C523 1.291 . S
C524 C525 1.373 . S
C524 H537 0.929 . S
C525 C524 1.373 . S
C525 C526 1.396 . S
C525 C532 1.403 . S
C526 C516 1.476 . S
C526 N521 1.318 . S
C526 C525 1.396 . S
H527 C522 0.929 . S
O528 Mn504 2.385 . S
O528 C506 1.234 . S
O529 Mn504 2.209 . S
O529 Mn505 2.215 . S
O529 C506 1.283 . S
O530 Mn504 2.094 . S
O530 C508 1.240 . S
O531 Mn505 2.117 . S
O531 C508 1.264 . S
C532 C525 1.403 . S
C532 C533 1.399 . S
C532 H538 0.929 . S
C533 C513 1.449 . S
C533 C532 1.399 . S
C533 H539 0.930 . S
H534 C514 0.931 . S
H535 C515 0.930 . S
H536 C523 0.931 . S
H537 C524 0.929 . S
H538 C532 0.929 . S
H539 C533 0.930 . S
Mn540 O545 2.095 . S
Mn540 O555 2.162 . S
Mn540 O556 2.297 . S
Mn540 O564 2.385 . S
Mn540 O565 2.209 . S
Mn540 O566 2.094 . S
Mn541 O546 2.121 . S
Mn541 N548 2.257 . S
Mn541 N557 2.282 . S
Mn541 O565 2.215 . S
Mn541 O567 2.117 . S
C542 O564 1.234 . S
C542 O565 1.283 . S
C543 O555 1.281 . S
C543 O556 1.236 . S
C544 O566 1.240 . S
C544 O567 1.264 . S
O545 Mn540 2.095 . S
O545 C554 1.250 . S
O546 Mn541 2.121 . S
O546 C554 1.258 . S
C547 N548 1.326 . S
C547 C551 1.460 . S
C547 H553 0.929 . S
N548 Mn541 2.257 . S
N548 C547 1.326 . S
N548 C552 1.362 . S
C549 C550 1.258 . S
C549 C552 1.431 . S
C549 C569 1.449 . S
C550 C549 1.258 . S
C550 C551 1.477 . S
C550 H570 0.931 . S
C551 C547 1.460 . S
C551 C550 1.477 . S
C551 H571 0.930 . S
C552 N548 1.362 . S
C552 C549 1.431 . S
C552 C562 1.476 . S
H553 C547 0.929 . S
C554 O545 1.250 . S
C554 O546 1.258 . S
O555 Mn540 2.162 . S
O555 C543 1.281 . S
O556 Mn540 2.297 . S
O556 C543 1.236 . S
N557 Mn541 2.282 . S
N557 C558 1.328 . S
N557 C562 1.318 . S
C558 N557 1.328 . S
C558 C559 1.457 . S
C558 H563 0.929 . S
C559 C558 1.457 . S
C559 C560 1.291 . S
C559 H572 0.931 . S
C560 C559 1.291 . S
C560 C561 1.373 . S
C560 H573 0.929 . S
C561 C560 1.373 . S
C561 C562 1.396 . S
C561 C568 1.403 . S
C562 C552 1.476 . S
C562 N557 1.318 . S
C562 C561 1.396 . S
H563 C558 0.929 . S
O564 Mn540 2.385 . S
O564 C542 1.234 . S
O565 Mn540 2.209 . S
O565 Mn541 2.215 . S
O565 C542 1.283 . S
O566 Mn540 2.094 . S
O566 C544 1.240 . S
O567 Mn541 2.117 . S
O567 C544 1.264 . S
C568 C561 1.403 . S
C568 C569 1.399 . S
C568 H574 0.929 . S
C569 C549 1.449 . S
C569 C568 1.399 . S
C569 H575 0.930 . S
H570 C550 0.931 . S
H571 C551 0.930 . S
H572 C559 0.931 . S
H573 C560 0.929 . S
H574 C568 0.929 . S
H575 C569 0.930 . S
C576 C577 1.391 . S
C576 C578 1.394 . S
C576 H592 0.931 . S
C577 C576 1.391 . S
C577 C581 1.376 . S
C578 C576 1.394 . S
C578 C579 1.369 . S
C578 C582 1.531 . S
C579 C578 1.369 . S
C579 C580 1.410 . S
C579 C587 1.503 . S
C580 C579 1.410 . S
C580 C581 1.392 . S
C580 C583 1.511 . S
C581 C577 1.376 . S
C581 C580 1.392 . S
C581 H593 0.929 . S
C582 C578 1.531 . S
C582 H594 0.960 . S
C582 H595 0.962 . S
C582 H596 0.960 . S
C583 C580 1.511 . S
C583 H597 0.961 . S
C583 H598 0.961 . S
C583 H599 0.961 . S
C584 C585 1.370 . S
C584 C586 1.363 . S
C584 H600 0.931 . S
C585 C584 1.370 . S
C585 C589 1.408 . S
C586 C584 1.363 . S
C586 C587 1.370 . S
C586 C590 1.524 . S
C587 C579 1.503 . S
C587 C586 1.370 . S
C587 C588 1.403 . S
C588 C587 1.403 . S
C588 C589 1.404 . S
C588 C591 1.539 . S
C589 C585 1.408 . S
C589 C588 1.404 . S
C589 H601 0.930 . S
C590 C586 1.524 . S
C590 H602 0.956 . S
C590 H603 0.961 . S
C590 H604 0.961 . S
C591 C588 1.539 . S
C591 H605 0.958 . S
C591 H606 0.961 . S
C591 H607 0.960 . S
H592 C576 0.931 . S
H593 C581 0.929 . S
H594 C582 0.960 . S
H595 C582 0.962 . S
H596 C582 0.960 . S
H597 C583 0.961 . S
H598 C583 0.961 . S
H599 C583 0.961 . S
H600 C584 0.931 . S
H601 C589 0.930 . S
H602 C590 0.956 . S
H603 C590 0.961 . S
H604 C590 0.961 . S
H605 C591 0.958 . S
H606 C591 0.961 . S
H607 C591 0.960 . S
C608 C609 1.391 . S
C608 C610 1.394 . S
C608 H624 0.931 . S
C609 C608 1.391 . S
C609 C613 1.376 . S
C610 C608 1.394 . S
C610 C611 1.369 . S
C610 C614 1.531 . S
C611 C610 1.369 . S
C611 C612 1.410 . S
C611 C619 1.503 . S
C612 C611 1.410 . S
C612 C613 1.392 . S
C612 C615 1.511 . S
C613 C609 1.376 . S
C613 C612 1.392 . S
C613 H625 0.929 . S
C614 C610 1.531 . S
C614 H626 0.960 . S
C614 H627 0.962 . S
C614 H628 0.960 . S
C615 C612 1.511 . S
C615 H629 0.961 . S
C615 H630 0.961 . S
C615 H631 0.961 . S
C616 C617 1.370 . S
C616 C618 1.363 . S
C616 H632 0.931 . S
C617 C616 1.370 . S
C617 C621 1.408 . S
C618 C616 1.363 . S
C618 C619 1.370 . S
C618 C622 1.524 . S
C619 C611 1.503 . S
C619 C618 1.370 . S
C619 C620 1.403 . S
C620 C619 1.403 . S
C620 C621 1.404 . S
C620 C623 1.539 . S
C621 C617 1.408 . S
C621 C620 1.404 . S
C621 H633 0.930 . S
C622 C618 1.524 . S
C622 H634 0.956 . S
C622 H635 0.961 . S
C622 H636 0.961 . S
C623 C620 1.539 . S
C623 H637 0.958 . S
C623 H638 0.961 . S
C623 H639 0.960 . S
H624 C608 0.931 . S
H625 C613 0.929 . S
H626 C614 0.960 . S
H627 C614 0.962 . S
H628 C614 0.960 . S
H629 C615 0.961 . S
H630 C615 0.961 . S
H631 C615 0.961 . S
H632 C616 0.931 . S
H633 C621 0.930 . S
H634 C622 0.956 . S
H635 C622 0.961 . S
H636 C622 0.961 . S
H637 C623 0.958 . S
H638 C623 0.961 . S
H639 C623 0.960 . S
C640 C641 1.391 . S
C640 C642 1.394 . S
C640 H656 0.931 . S
C641 C640 1.391 . S
C641 C645 1.376 . S
C642 C640 1.394 . S
C642 C643 1.369 . S
C642 C646 1.531 . S
C643 C642 1.369 . S
C643 C644 1.410 . S
C643 C651 1.503 . S
C644 C643 1.410 . S
C644 C645 1.392 . S
C644 C647 1.511 . S
C645 C641 1.376 . S
C645 C644 1.392 . S
C645 H657 0.929 . S
C646 C642 1.531 . S
C646 H658 0.960 . S
C646 H659 0.962 . S
C646 H660 0.960 . S
C647 C644 1.511 . S
C647 H661 0.961 . S
C647 H662 0.961 . S
C647 H663 0.961 . S
C648 C649 1.370 . S
C648 C650 1.363 . S
C648 H664 0.931 . S
C649 C648 1.370 . S
C649 C653 1.408 . S
C650 C648 1.363 . S
C650 C651 1.370 . S
C650 C654 1.524 . S
C651 C643 1.503 . S
C651 C650 1.370 . S
C651 C652 1.403 . S
C652 C651 1.403 . S
C652 C653 1.404 . S
C652 C655 1.539 . S
C653 C649 1.408 . S
C653 C652 1.404 . S
C653 H665 0.930 . S
C654 C650 1.524 . S
C654 H666 0.956 . S
C654 H667 0.961 . S
C654 H668 0.961 . S
C655 C652 1.539 . S
C655 H669 0.958 . S
C655 H670 0.961 . S
C655 H671 0.960 . S
H656 C640 0.931 . S
H657 C645 0.929 . S
H658 C646 0.960 . S
H659 C646 0.962 . S
H660 C646 0.960 . S
H661 C647 0.961 . S
H662 C647 0.961 . S
H663 C647 0.961 . S
H664 C648 0.931 . S
H665 C653 0.930 . S
H666 C654 0.956 . S
H667 C654 0.961 . S
H668 C654 0.961 . S
H669 C655 0.958 . S
H670 C655 0.961 . S
H671 C655 0.960 . S
C672 C673 1.391 . S
C672 C674 1.394 . S
C672 H688 0.931 . S
C673 C672 1.391 . S
C673 C677 1.376 . S
C674 C672 1.394 . S
C674 C675 1.369 . S
C674 C678 1.531 . S
C675 C674 1.369 . S
C675 C676 1.410 . S
C675 C683 1.503 1_455 S
C676 C675 1.410 . S
C676 C677 1.392 . S
C676 C679 1.511 . S
C677 C673 1.376 . S
C677 C676 1.392 . S
C677 H689 0.929 . S
C678 C674 1.531 . S
C678 H690 0.960 1_455 S
C678 H691 0.962 . S
C678 H692 0.960 . S
C679 C676 1.511 . S
C679 H693 0.961 . S
C679 H694 0.961 1_455 S
C679 H695 0.961 . S
C680 C681 1.370 . S
C680 C682 1.363 . S
C680 H696 0.931 . S
C681 C680 1.370 . S
C681 C685 1.408 . S
C682 C680 1.363 . S
C682 C683 1.370 . S
C682 C686 1.524 . S
C683 C675 1.503 1_655 S
C683 C682 1.370 . S
C683 C684 1.403 . S
C684 C683 1.403 . S
C684 C685 1.404 . S
C684 C687 1.539 . S
C685 C681 1.408 . S
C685 C684 1.404 . S
C685 H697 0.930 . S
C686 C682 1.524 . S
C686 H698 0.964 . S
C686 H699 0.961 1_655 S
C686 H700 0.961 . S
C687 C684 1.539 . S
C687 H701 0.958 . S
C687 H702 0.961 . S
C687 H703 0.960 . S
H688 C672 0.931 . S
H689 C677 0.929 . S
H690 C678 0.960 1_655 S
H691 C678 0.962 . S
H692 C678 0.960 . S
H693 C679 0.961 . S
H694 C679 0.961 1_655 S
H695 C679 0.961 . S
H696 C680 0.931 . S
H697 C685 0.930 . S
H698 C686 0.964 . S
H699 C686 0.961 1_455 S
H700 C686 0.961 . S
H701 C687 0.958 . S
H702 C687 0.961 . S
H703 C687 0.960 . S
C704 C705 1.391 . S
C704 C706 1.394 . S
C704 H720 0.931 . S
C705 C704 1.391 . S
C705 C709 1.376 . S
C706 C704 1.394 . S
C706 C707 1.369 . S
C706 C710 1.531 . S
C707 C706 1.369 . S
C707 C708 1.410 . S
C707 C715 1.503 . S
C708 C707 1.410 . S
C708 C709 1.392 . S
C708 C711 1.511 . S
C709 C705 1.376 . S
C709 C708 1.392 . S
C709 H721 0.929 . S
C710 C706 1.531 . S
C710 H722 0.960 . S
C710 H723 0.962 . S
C710 H724 0.960 . S
C711 C708 1.511 . S
C711 H725 0.961 . S
C711 H726 0.961 . S
C711 H727 0.961 . S
C712 C713 1.370 . S
C712 C714 1.363 . S
C712 H728 0.931 . S
C713 C712 1.370 . S
C713 C717 1.408 . S
C714 C712 1.363 . S
C714 C715 1.370 . S
C714 C718 1.524 . S
C715 C707 1.503 . S
C715 C714 1.370 . S
C715 C716 1.403 . S
C716 C715 1.403 . S
C716 C717 1.404 . S
C716 C719 1.539 . S
C717 C713 1.408 . S
C717 C716 1.404 . S
C717 H729 0.930 . S
C718 C714 1.524 . S
C718 H730 0.956 . S
C718 H731 0.961 . S
C718 H732 0.961 . S
C719 C716 1.539 . S
C719 H733 0.958 . S
C719 H734 0.961 . S
C719 H735 0.960 . S
H720 C704 0.931 . S
H721 C709 0.929 . S
H722 C710 0.960 . S
H723 C710 0.962 . S
H724 C710 0.960 . S
H725 C711 0.961 . S
H726 C711 0.961 . S
H727 C711 0.961 . S
H728 C712 0.931 . S
H729 C717 0.930 . S
H730 C718 0.956 . S
H731 C718 0.961 . S
H732 C718 0.961 . S
H733 C719 0.958 . S
H734 C719 0.961 . S
H735 C719 0.960 . S
C736 C737 1.391 . S
C736 C738 1.394 . S
C736 H752 0.931 . S
C737 C736 1.391 . S
C737 C741 1.376 . S
C738 C736 1.394 . S
C738 C739 1.369 . S
C738 C742 1.531 . S
C739 C738 1.369 . S
C739 C740 1.410 . S
C739 C747 1.503 1_655 S
C740 C739 1.410 . S
C740 C741 1.392 . S
C740 C743 1.511 . S
C741 C737 1.376 . S
C741 C740 1.392 . S
C741 H753 0.929 . S
C742 C738 1.531 . S
C742 H754 0.960 1_655 S
C742 H755 0.962 . S
C742 H756 0.960 . S
C743 C740 1.511 . S
C743 H757 0.961 . S
C743 H758 0.930 1_655 S
C743 H759 0.961 . S
C744 C745 1.370 . S
C744 C746 1.363 . S
C744 H760 0.931 . S
C745 C744 1.370 . S
C745 C749 1.408 . S
C746 C744 1.363 . S
C746 C747 1.370 . S
C746 C750 1.524 . S
C747 C739 1.503 1_455 S
C747 C746 1.370 . S
C747 C748 1.403 . S
C748 C747 1.403 . S
C748 C749 1.404 . S
C748 C751 1.539 . S
C749 C745 1.408 . S
C749 C748 1.404 . S
C749 H761 0.930 . S
C750 C746 1.524 . S
C750 H762 0.956 1_455 S
C750 H763 0.961 1_455 S
C750 H764 0.961 . S
C751 C748 1.539 . S
C751 H765 0.958 . S
C751 H766 0.961 . S
C751 H767 0.960 . S
H752 C736 0.931 . S
H753 C741 0.929 . S
H754 C742 0.960 1_455 S
H755 C742 0.962 . S
H756 C742 0.960 . S
H757 C743 0.961 . S
H758 C743 0.930 1_455 S
H759 C743 0.961 . S
H760 C744 0.931 . S
H761 C749 0.930 . S
H762 C750 0.956 1_655 S
H763 C750 0.961 1_655 S
H764 C750 0.961 . S
H765 C751 0.958 . S
H766 C751 0.961 . S
H767 C751 0.960 . S
C768 C769 1.391 . S
C768 C770 1.394 . S
C768 H784 0.931 . S
C769 C768 1.391 . S
C769 C773 1.376 . S
C770 C768 1.394 . S
C770 C771 1.369 . S
C770 C774 1.531 . S
C771 C770 1.369 . S
C771 C772 1.410 . S
C771 C779 1.503 . S
C772 C771 1.410 . S
C772 C773 1.392 . S
C772 C775 1.511 . S
C773 C769 1.376 . S
C773 C772 1.392 . S
C773 H785 0.929 . S
C774 C770 1.531 . S
C774 H786 0.960 . S
C774 H787 0.962 . S
C774 H788 0.960 . S
C775 C772 1.511 . S
C775 H789 0.961 . S
C775 H790 0.961 . S
C775 H791 0.961 . S
C776 C777 1.370 . S
C776 C778 1.363 . S
C776 H792 0.931 . S
C777 C776 1.370 . S
C777 C781 1.408 . S
C778 C776 1.363 . S
C778 C779 1.370 . S
C778 C782 1.524 . S
C779 C771 1.503 . S
C779 C778 1.370 . S
C779 C780 1.403 . S
C780 C779 1.403 . S
C780 C781 1.404 . S
C780 C783 1.539 . S
C781 C777 1.408 . S
C781 C780 1.404 . S
C781 H793 0.930 . S
C782 C778 1.524 . S
C782 H794 0.956 . S
C782 H795 0.961 . S
C782 H796 0.961 . S
C783 C780 1.539 . S
C783 H797 0.958 . S
C783 H798 0.961 . S
C783 H799 0.960 . S
H784 C768 0.931 . S
H785 C773 0.929 . S
H786 C774 0.960 . S
H787 C774 0.962 . S
H788 C774 0.960 . S
H789 C775 0.961 . S
H790 C775 0.961 . S
H791 C775 0.961 . S
H792 C776 0.931 . S
H793 C781 0.930 . S
H794 C782 0.956 . S
H795 C782 0.961 . S
H796 C782 0.961 . S
H797 C783 0.958 . S
H798 C783 0.961 . S
H799 C783 0.960 . S
C800 C801 1.391 . S
C800 C802 1.394 . S
C800 H816 0.931 . S
C801 C800 1.391 . S
C801 C805 1.376 . S
C802 C800 1.394 . S
C802 C803 1.369 . S
C802 C806 1.531 . S
C803 C802 1.369 . S
C803 C804 1.410 . S
C803 C811 1.503 . S
C804 C803 1.410 . S
C804 C805 1.392 . S
C804 C807 1.511 . S
C805 C801 1.376 . S
C805 C804 1.392 . S
C805 H817 0.929 . S
C806 C802 1.531 . S
C806 H818 0.960 . S
C806 H819 0.962 . S
C806 H820 0.960 . S
C807 C804 1.511 . S
C807 H821 0.961 . S
C807 H822 0.961 . S
C807 H823 0.961 . S
C808 C809 1.370 . S
C808 C810 1.363 . S
C808 H824 0.931 . S
C809 C808 1.370 . S
C809 C813 1.408 . S
C810 C808 1.363 . S
C810 C811 1.370 . S
C810 C814 1.524 . S
C811 C803 1.503 . S
C811 C810 1.370 . S
C811 C812 1.403 . S
C812 C811 1.403 . S
C812 C813 1.404 . S
C812 C815 1.539 . S
C813 C809 1.408 . S
C813 C812 1.404 . S
C813 H825 0.930 . S
C814 C810 1.524 . S
C814 H826 0.956 . S
C814 H827 0.961 . S
C814 H828 0.961 . S
C815 C812 1.539 . S
C815 H829 0.958 . S
C815 H830 0.961 . S
C815 H831 0.960 . S
H816 C800 0.931 . S
H817 C805 0.929 . S
H818 C806 0.960 . S
H819 C806 0.962 . S
H820 C806 0.960 . S
H821 C807 0.961 . S
H822 C807 0.961 . S
H823 C807 0.961 . S
H824 C808 0.931 . S
H825 C813 0.930 . S
H826 C814 0.956 . S
H827 C814 0.961 . S
H828 C814 0.961 . S
H829 C815 0.958 . S
H830 C815 0.961 . S
H831 C815 0.960 . S
C832 C833 1.391 . S
C832 C834 1.394 . S
C832 H848 0.931 . S
C833 C832 1.391 . S
C833 C837 1.376 . S
C834 C832 1.394 . S
C834 C835 1.369 . S
C834 C838 1.531 . S
C835 C834 1.369 . S
C835 C836 1.410 . S
C835 C843 1.503 . S
C836 C835 1.410 . S
C836 C837 1.392 . S
C836 C839 1.511 . S
C837 C833 1.376 . S
C837 C836 1.392 . S
C837 H849 0.929 . S
C838 C834 1.531 . S
C838 H850 0.960 . S
C838 H851 0.962 . S
C838 H852 0.960 . S
C839 C836 1.511 . S
C839 H853 0.961 . S
C839 H854 0.961 . S
C839 H855 0.961 . S
C840 C841 1.370 . S
C840 C842 1.363 . S
C840 H856 0.931 . S
C841 C840 1.370 . S
C841 C845 1.408 . S
C842 C840 1.363 . S
C842 C843 1.370 . S
C842 C846 1.524 . S
C843 C835 1.503 . S
C843 C842 1.370 . S
C843 C844 1.403 . S
C844 C843 1.403 . S
C844 C845 1.404 . S
C844 C847 1.539 . S
C845 C841 1.408 . S
C845 C844 1.404 . S
C845 H857 0.930 . S
C846 C842 1.524 . S
C846 H858 0.956 . S
C846 H859 0.961 . S
C846 H860 0.961 . S
C847 C844 1.539 . S
C847 H861 0.958 . S
C847 H862 0.961 . S
C847 H863 0.960 . S
H848 C832 0.931 . S
H849 C837 0.929 . S
H850 C838 0.960 . S
H851 C838 0.962 . S
H852 C838 0.960 . S
H853 C839 0.961 . S
H854 C839 0.961 . S
H855 C839 0.961 . S
H856 C840 0.931 . S
H857 C845 0.930 . S
H858 C846 0.956 . S
H859 C846 0.961 . S
H860 C846 0.961 . S
H861 C847 0.958 . S
H862 C847 0.961 . S
H863 C847 0.960 . S
C864 C865 1.391 . S
C864 C866 1.394 . S
C864 H880 0.931 . S
C865 C864 1.391 . S
C865 C869 1.376 . S
C866 C864 1.394 . S
C866 C867 1.369 . S
C866 C870 1.531 . S
C867 C866 1.369 . S
C867 C868 1.410 . S
C867 C875 1.503 . S
C868 C867 1.410 . S
C868 C869 1.392 . S
C868 C871 1.511 . S
C869 C865 1.376 . S
C869 C868 1.392 . S
C869 H881 0.929 . S
C870 C866 1.531 . S
C870 H882 0.960 . S
C870 H883 0.962 . S
C870 H884 0.960 . S
C871 C868 1.511 . S
C871 H885 0.961 . S
C871 H886 0.961 . S
C871 H887 0.961 . S
C872 C873 1.370 . S
C872 C874 1.363 . S
C872 H888 0.931 . S
C873 C872 1.370 . S
C873 C877 1.408 . S
C874 C872 1.363 . S
C874 C875 1.370 . S
C874 C878 1.524 . S
C875 C867 1.503 . S
C875 C874 1.370 . S
C875 C876 1.403 . S
C876 C875 1.403 . S
C876 C877 1.404 . S
C876 C879 1.539 . S
C877 C873 1.408 . S
C877 C876 1.404 . S
C877 H889 0.930 . S
C878 C874 1.524 . S
C878 H890 0.956 . S
C878 H891 0.961 . S
C878 H892 0.961 . S
C879 C876 1.539 . S
C879 H893 0.958 . S
C879 H894 0.961 . S
C879 H895 0.960 . S
H880 C864 0.931 . S
H881 C869 0.929 . S
H882 C870 0.960 . S
H883 C870 0.962 . S
H884 C870 0.960 . S
H885 C871 0.961 . S
H886 C871 0.961 . S
H887 C871 0.961 . S
H888 C872 0.931 . S
H889 C877 0.930 . S
H890 C878 0.956 . S
H891 C878 0.961 . S
H892 C878 0.961 . S
H893 C879 0.958 . S
H894 C879 0.961 . S
H895 C879 0.960 . S
C896 C897 1.391 . S
C896 C898 1.394 . S
C896 H912 0.931 . S
C897 C896 1.391 . S
C897 C901 1.376 . S
C898 C896 1.394 . S
C898 C899 1.369 . S
C898 C902 1.531 . S
C899 C898 1.369 . S
C899 C900 1.410 . S
C899 C907 1.503 . S
C900 C899 1.410 . S
C900 C901 1.392 . S
C900 C903 1.511 . S
C901 C897 1.376 . S
C901 C900 1.392 . S
C901 H913 0.929 . S
C902 C898 1.531 . S
C902 H914 0.960 . S
C902 H915 0.962 . S
C902 H916 0.960 . S
C903 C900 1.511 . S
C903 H917 0.961 . S
C903 H918 0.961 . S
C903 H919 0.961 . S
C904 C905 1.370 . S
C904 C906 1.363 . S
C904 H920 0.931 . S
C905 C904 1.370 . S
C905 C909 1.408 . S
C906 C904 1.363 . S
C906 C907 1.370 . S
C906 C910 1.524 . S
C907 C899 1.503 . S
C907 C906 1.370 . S
C907 C908 1.403 . S
C908 C907 1.403 . S
C908 C909 1.404 . S
C908 C911 1.539 . S
C909 C905 1.408 . S
C909 C908 1.404 . S
C909 H921 0.930 . S
C910 C906 1.524 . S
C910 H922 0.956 . S
C910 H923 0.961 . S
C910 H924 0.961 . S
C911 C908 1.539 . S
C911 H925 0.958 . S
C911 H926 0.961 . S
C911 H927 0.960 . S
H912 C896 0.931 . S
H913 C901 0.929 . S
H914 C902 0.960 . S
H915 C902 0.962 . S
H916 C902 0.960 . S
H917 C903 0.961 . S
H918 C903 0.961 . S
H919 C903 0.961 . S
H920 C904 0.931 . S
H921 C909 0.930 . S
H922 C910 0.956 . S
H923 C910 0.961 . S
H924 C910 0.961 . S
H925 C911 0.958 . S
H926 C911 0.961 . S
H927 C911 0.960 . S
C928 C929 1.391 . S
C928 C930 1.394 . S
C928 H944 0.931 . S
C929 C928 1.391 . S
C929 C933 1.376 . S
C930 C928 1.394 . S
C930 C931 1.369 . S
C930 C934 1.531 . S
C931 C930 1.369 . S
C931 C932 1.410 . S
C931 C939 1.503 . S
C932 C931 1.410 . S
C932 C933 1.392 . S
C932 C935 1.511 . S
C933 C929 1.376 . S
C933 C932 1.392 . S
C933 H945 0.929 . S
C934 C930 1.531 . S
C934 H946 0.960 . S
C934 H947 0.962 . S
C934 H948 0.960 . S
C935 C932 1.511 . S
C935 H949 0.961 . S
C935 H950 0.961 . S
C935 H951 0.961 . S
C936 C937 1.370 . S
C936 C938 1.363 . S
C936 H952 0.931 . S
C937 C936 1.370 . S
C937 C941 1.408 . S
C938 C936 1.363 . S
C938 C939 1.370 . S
C938 C942 1.524 . S
C939 C931 1.503 . S
C939 C938 1.370 . S
C939 C940 1.403 . S
C940 C939 1.403 . S
C940 C941 1.404 . S
C940 C943 1.539 . S
C941 C937 1.408 . S
C941 C940 1.404 . S
C941 H953 0.930 . S
C942 C938 1.524 . S
C942 H954 0.956 . S
C942 H955 0.961 . S
C942 H956 0.961 . S
C943 C940 1.539 . S
C943 H957 0.958 . S
C943 H958 0.961 . S
C943 H959 0.960 . S
H944 C928 0.931 . S
H945 C933 0.929 . S
H946 C934 0.960 . S
H947 C934 0.962 . S
H948 C934 0.960 . S
H949 C935 0.961 . S
H950 C935 0.961 . S
H951 C935 0.961 . S
H952 C936 0.931 . S
H953 C941 0.930 . S
H954 C942 0.956 . S
H955 C942 0.961 . S
H956 C942 0.961 . S
H957 C943 0.958 . S
H958 C943 0.961 . S
H959 C943 0.960 . S
C960 C961 1.391 . S
C960 C962 1.394 . S
C960 H976 0.931 . S
C961 C960 1.391 . S
C961 C965 1.376 . S
C962 C960 1.394 . S
C962 C963 1.369 . S
C962 C966 1.531 . S
C963 C962 1.369 . S
C963 C964 1.410 . S
C963 C971 1.503 1_455 S
C964 C963 1.410 . S
C964 C965 1.392 . S
C964 C967 1.511 . S
C965 C961 1.376 . S
C965 C964 1.392 . S
C965 H977 0.929 . S
C966 C962 1.531 . S
C966 H978 0.960 1_455 S
C966 H979 0.962 1_455 S
C966 H980 0.960 . S
C967 C964 1.511 . S
C967 H981 0.961 . S
C967 H982 0.961 1_455 S
C967 H983 0.961 . S
C968 C969 1.370 . S
C968 C970 1.363 . S
C968 H984 0.931 . S
C969 C968 1.370 . S
C969 C973 1.408 . S
C970 C968 1.363 . S
C970 C971 1.370 . S
C970 C974 1.524 . S
C971 C963 1.503 1_655 S
C971 C970 1.370 . S
C971 C972 1.403 . S
C972 C971 1.403 . S
C972 C973 1.404 . S
C972 C975 1.539 . S
C973 C969 1.408 . S
C973 C972 1.404 . S
C973 H985 0.930 . S
C974 C970 1.524 . S
C974 H986 0.956 . S
C974 H987 0.961 . S
C974 H988 0.961 . S
C975 C972 1.539 . S
C975 H989 0.958 . S
C975 H990 0.961 . S
C975 H991 0.960 . S
H976 C960 0.931 . S
H977 C965 0.929 . S
H978 C966 0.960 1_655 S
H979 C966 0.962 1_655 S
H980 C966 0.960 . S
H981 C967 0.961 . S
H982 C967 0.961 1_655 S
H983 C967 0.961 . S
H984 C968 0.931 . S
H985 C973 0.930 . S
H986 C974 0.956 . S
H987 C974 0.961 . S
H988 C974 0.961 . S
H989 C975 0.958 . S
H990 C975 0.961 . S
H991 C975 0.960 . S
C992 C993 1.391 . S
C992 C994 1.394 . S
C992 H1008 0.931 . S
C993 C992 1.391 . S
C993 C997 1.376 . S
C994 C992 1.394 . S
C994 C995 1.369 . S
C994 C998 1.531 . S
C995 C994 1.369 . S
C995 C996 1.410 . S
C995 C1003 1.503 . S
C996 C995 1.410 . S
C996 C997 1.392 . S
C996 C999 1.511 . S
C997 C993 1.376 . S
C997 C996 1.392 . S
C997 H1009 0.929 . S
C998 C994 1.531 . S
C998 H1010 0.960 . S
C998 H1011 0.962 . S
C998 H1012 0.960 . S
C999 C996 1.511 . S
C999 H1013 0.961 . S
C999 H1014 0.961 . S
C999 H1015 0.961 . S
C1000 C1001 1.370 . S
C1000 C1002 1.363 . S
C1000 H1016 0.931 . S
C1001 C1000 1.370 . S
C1001 C1005 1.408 . S
C1002 C1000 1.363 . S
C1002 C1003 1.370 . S
C1002 C1006 1.524 . S
C1003 C995 1.503 . S
C1003 C1002 1.370 . S
C1003 C1004 1.403 . S
C1004 C1003 1.403 . S
C1004 C1005 1.404 . S
C1004 C1007 1.539 . S
C1005 C1001 1.408 . S
C1005 C1004 1.404 . S
C1005 H1017 0.930 . S
C1006 C1002 1.524 . S
C1006 H1018 0.956 . S
C1006 H1019 0.961 . S
C1006 H1020 0.961 . S
C1007 C1004 1.539 . S
C1007 H1021 0.958 . S
C1007 H1022 0.961 . S
C1007 H1023 0.960 . S
H1008 C992 0.931 . S
H1009 C997 0.929 . S
H1010 C998 0.960 . S
H1011 C998 0.962 . S
H1012 C998 0.960 . S
H1013 C999 0.961 . S
H1014 C999 0.961 . S
H1015 C999 0.961 . S
H1016 C1000 0.931 . S
H1017 C1005 0.930 . S
H1018 C1006 0.956 . S
H1019 C1006 0.961 . S
H1020 C1006 0.961 . S
H1021 C1007 0.958 . S
H1022 C1007 0.961 . S
H1023 C1007 0.960 . S
C1024 C1025 1.391 . S
C1024 C1026 1.394 . S
C1024 H1040 0.931 . S
C1025 C1024 1.391 . S
C1025 C1029 1.376 . S
C1026 C1024 1.394 . S
C1026 C1027 1.369 . S
C1026 C1030 1.531 . S
C1027 C1026 1.369 . S
C1027 C1028 1.410 . S
C1027 C1035 1.503 . S
C1028 C1027 1.410 . S
C1028 C1029 1.392 . S
C1028 C1031 1.511 . S
C1029 C1025 1.376 . S
C1029 C1028 1.392 . S
C1029 H1041 0.929 . S
C1030 C1026 1.531 . S
C1030 H1042 0.960 . S
C1030 H1043 0.962 . S
C1030 H1044 0.960 . S
C1031 C1028 1.511 . S
C1031 H1045 0.961 . S
C1031 H1046 0.961 . S
C1031 H1047 0.961 . S
C1032 C1033 1.370 . S
C1032 C1034 1.363 . S
C1032 H1048 0.931 . S
C1033 C1032 1.370 . S
C1033 C1037 1.408 . S
C1034 C1032 1.363 . S
C1034 C1035 1.370 . S
C1034 C1038 1.524 . S
C1035 C1027 1.503 . S
C1035 C1034 1.370 . S
C1035 C1036 1.403 . S
C1036 C1035 1.403 . S
C1036 C1037 1.404 . S
C1036 C1039 1.539 . S
C1037 C1033 1.408 . S
C1037 C1036 1.404 . S
C1037 H1049 0.930 . S
C1038 C1034 1.524 . S
C1038 H1050 0.956 . S
C1038 H1051 0.961 . S
C1038 H1052 0.961 . S
C1039 C1036 1.539 . S
C1039 H1053 0.958 . S
C1039 H1054 0.961 . S
C1039 H1055 0.960 . S
H1040 C1024 0.931 . S
H1041 C1029 0.929 . S
H1042 C1030 0.960 . S
H1043 C1030 0.962 . S
H1044 C1030 0.960 . S
H1045 C1031 0.961 . S
H1046 C1031 0.961 . S
H1047 C1031 0.961 . S
H1048 C1032 0.931 . S
H1049 C1037 0.930 . S
H1050 C1038 0.956 . S
H1051 C1038 0.961 . S
H1052 C1038 0.961 . S
H1053 C1039 0.958 . S
H1054 C1039 0.961 . S
H1055 C1039 0.960 . S
C1056 C1057 1.391 . S
C1056 C1058 1.394 . S
C1056 H1072 0.931 . S
C1057 C1056 1.391 . S
C1057 C1061 1.376 . S
C1058 C1056 1.394 . S
C1058 C1059 1.369 . S
C1058 C1062 1.531 . S
C1059 C1058 1.369 . S
C1059 C1060 1.410 . S
C1059 C1067 1.503 1_455 S
C1060 C1059 1.410 . S
C1060 C1061 1.392 . S
C1060 C1063 1.511 . S
C1061 C1057 1.376 . S
C1061 C1060 1.392 . S
C1061 H1073 0.929 . S
C1062 C1058 1.531 . S
C1062 H1074 0.960 . S
C1062 H1075 0.962 . S
C1062 H1076 0.960 . S
C1063 C1060 1.511 . S
C1063 H1077 0.961 . S
C1063 H1078 0.961 . S
C1063 H1079 0.961 . S
C1064 C1065 1.370 . S
C1064 C1066 1.363 . S
C1064 H1080 0.931 . S
C1065 C1064 1.370 . S
C1065 C1069 1.408 . S
C1066 C1064 1.363 . S
C1066 C1067 1.370 . S
C1066 C1070 1.524 . S
C1067 C1059 1.503 1_655 S
C1067 C1066 1.370 . S
C1067 C1068 1.403 . S
C1068 C1067 1.403 . S
C1068 C1069 1.404 . S
C1068 C1071 1.539 . S
C1069 C1065 1.408 . S
C1069 C1068 1.404 . S
C1069 H1081 0.930 . S
C1070 C1066 1.524 . S
C1070 H1082 0.956 1_655 S
C1070 H1083 0.961 1_655 S
C1070 H1084 0.961 . S
C1071 C1068 1.539 . S
C1071 H1085 0.958 . S
C1071 H1086 0.961 . S
C1071 H1087 0.960 1_655 S
H1072 C1056 0.931 . S
H1073 C1061 0.929 . S
H1074 C1062 0.960 . S
H1075 C1062 0.962 . S
H1076 C1062 0.960 . S
H1077 C1063 0.961 . S
H1078 C1063 0.961 . S
H1079 C1063 0.961 . S
H1080 C1064 0.931 . S
H1081 C1069 0.930 . S
H1082 C1070 0.956 1_455 S
H1083 C1070 0.961 1_455 S
H1084 C1070 0.961 . S
H1085 C1071 0.958 . S
H1086 C1071 0.961 . S
H1087 C1071 0.960 1_455 S
C1088 C1089 1.391 . S
C1088 C1090 1.394 1_554 S
C1088 H1104 0.931 . S
C1089 C1088 1.391 . S
C1089 C1093 1.376 . S
C1090 C1088 1.394 1_556 S
C1090 C1091 1.369 1_556 S
C1090 C1094 1.531 . S
C1091 C1090 1.369 1_554 S
C1091 C1092 1.410 . S
C1091 C1099 1.503 1_554 S
C1092 C1091 1.410 . S
C1092 C1093 1.392 . S
C1092 C1095 1.511 . S
C1093 C1089 1.376 . S
C1093 C1092 1.392 . S
C1093 H1105 0.929 . S
C1094 C1090 1.531 . S
C1094 H1106 0.960 . S
C1094 H1107 0.962 . S
C1094 H1108 0.960 . S
C1095 C1092 1.511 . S
C1095 H1109 0.961 . S
C1095 H1110 0.961 . S
C1095 H1111 0.961 . S
C1096 C1097 1.370 . S
C1096 C1098 1.363 . S
C1096 H1112 0.931 . S
C1097 C1096 1.370 . S
C1097 C1101 1.408 . S
C1098 C1096 1.363 . S
C1098 C1099 1.370 . S
C1098 C1102 1.524 . S
C1099 C1091 1.503 1_556 S
C1099 C1098 1.370 . S
C1099 C1100 1.403 . S
C1100 C1099 1.403 . S
C1100 C1101 1.404 . S
C1100 C1103 1.539 1_556 S
C1101 C1097 1.408 . S
C1101 C1100 1.404 . S
C1101 H1113 0.930 . S
C1102 C1098 1.524 . S
C1102 H1114 0.956 . S
C1102 H1115 0.961 . S
C1102 H1116 0.961 . S
C1103 C1100 1.539 1_554 S
C1103 H1117 0.958 . S
C1103 H1118 0.961 . S
C1103 H1119 0.960 . S
H1104 C1088 0.931 . S
H1105 C1093 0.929 . S
H1106 C1094 0.960 . S
H1107 C1094 0.962 . S
H1108 C1094 0.960 . S
H1109 C1095 0.961 . S
H1110 C1095 0.961 . S
H1111 C1095 0.961 . S
H1112 C1096 0.931 . S
H1113 C1101 0.930 . S
H1114 C1102 0.956 . S
H1115 C1102 0.961 . S
H1116 C1102 0.961 . S
H1117 C1103 0.958 . S
H1118 C1103 0.961 . S
H1119 C1103 0.960 . S
C1120 C1121 1.391 . S
C1120 C1122 1.394 . S
C1120 H1136 0.931 . S
C1121 C1120 1.391 . S
C1121 C1125 1.376 . S
C1122 C1120 1.394 . S
C1122 C1123 1.369 . S
C1122 C1126 1.531 . S
C1123 C1122 1.369 . S
C1123 C1124 1.410 . S
C1123 C1131 1.503 . S
C1124 C1123 1.410 . S
C1124 C1125 1.392 . S
C1124 C1127 1.511 . S
C1125 C1121 1.376 . S
C1125 C1124 1.392 . S
C1125 H1137 0.929 . S
C1126 C1122 1.531 . S
C1126 H1138 0.960 . S
C1126 H1139 0.962 . S
C1126 H1140 0.960 . S
C1127 C1124 1.511 . S
C1127 H1141 0.961 . S
C1127 H1142 0.961 . S
C1127 H1143 0.961 . S
C1128 C1129 1.370 . S
C1128 C1130 1.363 . S
C1128 H1144 0.931 . S
C1129 C1128 1.370 . S
C1129 C1133 1.408 . S
C1130 C1128 1.363 . S
C1130 C1131 1.370 . S
C1130 C1134 1.524 . S
C1131 C1123 1.503 . S
C1131 C1130 1.370 . S
C1131 C1132 1.403 . S
C1132 C1131 1.403 . S
C1132 C1133 1.404 . S
C1132 C1135 1.539 . S
C1133 C1129 1.408 . S
C1133 C1132 1.404 . S
C1133 H1145 0.930 . S
C1134 C1130 1.524 . S
C1134 H1146 0.956 . S
C1134 H1147 0.961 . S
C1134 H1148 0.961 . S
C1135 C1132 1.539 . S
C1135 H1149 0.958 . S
C1135 H1150 0.961 . S
C1135 H1151 0.960 . S
H1136 C1120 0.931 . S
H1137 C1125 0.929 . S
H1138 C1126 0.960 . S
H1139 C1126 0.962 . S
H1140 C1126 0.960 . S
H1141 C1127 0.961 . S
H1142 C1127 0.961 . S
H1143 C1127 0.961 . S
H1144 C1128 0.931 . S
H1145 C1133 0.930 . S
H1146 C1134 0.956 . S
H1147 C1134 0.961 . S
H1148 C1134 0.961 . S
H1149 C1135 0.958 . S
H1150 C1135 0.961 . S
H1151 C1135 0.960 . S
C1152 C1153 1.391 . S
C1152 C1154 1.394 . S
C1152 H1168 0.931 . S
C1153 C1152 1.391 . S
C1153 C1157 1.376 . S
C1154 C1152 1.394 . S
C1154 C1155 1.369 . S
C1154 C1158 1.531 . S
C1155 C1154 1.369 . S
C1155 C1156 1.410 . S
C1155 C1163 1.503 . S
C1156 C1155 1.410 . S
C1156 C1157 1.392 . S
C1156 C1159 1.511 . S
C1157 C1153 1.376 . S
C1157 C1156 1.392 . S
C1157 H1169 0.929 . S
C1158 C1154 1.531 . S
C1158 H1170 0.960 . S
C1158 H1171 0.962 . S
C1158 H1172 0.960 . S
C1159 C1156 1.511 . S
C1159 H1173 0.961 . S
C1159 H1174 0.961 . S
C1159 H1175 0.961 . S
C1160 C1161 1.370 . S
C1160 C1162 1.363 . S
C1160 H1176 0.931 . S
C1161 C1160 1.370 . S
C1161 C1165 1.408 . S
C1162 C1160 1.363 . S
C1162 C1163 1.370 . S
C1162 C1166 1.524 . S
C1163 C1155 1.503 . S
C1163 C1162 1.370 . S
C1163 C1164 1.403 . S
C1164 C1163 1.403 . S
C1164 C1165 1.404 . S
C1164 C1167 1.539 . S
C1165 C1161 1.408 . S
C1165 C1164 1.404 . S
C1165 H1177 0.930 . S
C1166 C1162 1.524 . S
C1166 H1178 0.956 . S
C1166 H1179 0.961 . S
C1166 H1180 0.961 . S
C1167 C1164 1.539 . S
C1167 H1181 0.958 . S
C1167 H1182 0.961 . S
C1167 H1183 0.960 . S
H1168 C1152 0.931 . S
H1169 C1157 0.929 . S
H1170 C1158 0.960 . S
H1171 C1158 0.962 . S
H1172 C1158 0.960 . S
H1173 C1159 0.961 . S
H1174 C1159 0.961 . S
H1175 C1159 0.961 . S
H1176 C1160 0.931 . S
H1177 C1165 0.930 . S
H1178 C1166 0.956 . S
H1179 C1166 0.961 . S
H1180 C1166 0.961 . S
H1181 C1167 0.958 . S
H1182 C1167 0.961 . S
H1183 C1167 0.960 . S
C1184 C1185 1.391 . S
C1184 C1186 1.394 . S
C1184 H1200 0.931 . S
C1185 C1184 1.391 . S
C1185 C1189 1.376 . S
C1186 C1184 1.394 . S
C1186 C1187 1.369 . S
C1186 C1190 1.531 . S
C1187 C1186 1.369 . S
C1187 C1188 1.410 . S
C1187 C1195 1.503 . S
C1188 C1187 1.410 . S
C1188 C1189 1.392 . S
C1188 C1191 1.511 . S
C1189 C1185 1.376 . S
C1189 C1188 1.392 . S
C1189 H1201 0.929 . S
C1190 C1186 1.531 . S
C1190 H1202 0.960 . S
C1190 H1203 0.962 . S
C1190 H1204 0.960 . S
C1191 C1188 1.511 . S
C1191 H1205 0.961 . S
C1191 H1206 0.961 . S
C1191 H1207 0.961 . S
C1192 C1193 1.370 . S
C1192 C1194 1.363 . S
C1192 H1208 0.931 . S
C1193 C1192 1.370 . S
C1193 C1197 1.408 . S
C1194 C1192 1.363 . S
C1194 C1195 1.370 . S
C1194 C1198 1.524 . S
C1195 C1187 1.503 . S
C1195 C1194 1.370 . S
C1195 C1196 1.403 . S
C1196 C1195 1.403 . S
C1196 C1197 1.404 . S
C1196 C1199 1.539 . S
C1197 C1193 1.408 . S
C1197 C1196 1.404 . S
C1197 H1209 0.930 . S
C1198 C1194 1.524 . S
C1198 H1210 0.956 . S
C1198 H1211 0.961 . S
C1198 H1212 0.961 . S
C1199 C1196 1.539 . S
C1199 H1213 0.958 . S
C1199 H1214 0.961 . S
C1199 H1215 0.960 . S
H1200 C1184 0.931 . S
H1201 C1189 0.929 . S
H1202 C1190 0.960 . S
H1203 C1190 0.962 . S
H1204 C1190 0.960 . S
H1205 C1191 0.961 . S
H1206 C1191 0.961 . S
H1207 C1191 0.961 . S
H1208 C1192 0.931 . S
H1209 C1197 0.930 . S
H1210 C1198 0.956 . S
H1211 C1198 0.961 . S
H1212 C1198 0.961 . S
H1213 C1199 0.958 . S
H1214 C1199 0.961 . S
H1215 C1199 0.960 . S
C1216 C1217 1.391 . S
C1216 C1218 1.394 1_556 S
C1216 H1232 0.931 1_556 S
C1217 C1216 1.391 . S
C1217 C1221 1.376 . S
C1218 C1216 1.394 1_554 S
C1218 C1219 1.369 1_554 S
C1218 C1222 1.531 . S
C1219 C1218 1.369 1_556 S
C1219 C1220 1.410 . S
C1219 C1227 1.503 1_556 S
C1220 C1219 1.410 . S
C1220 C1221 1.392 . S
C1220 C1223 1.511 . S
C1221 C1217 1.376 . S
C1221 C1220 1.392 . S
C1221 H1233 0.929 . S
C1222 C1218 1.531 . S
C1222 H1234 0.960 . S
C1222 H1235 0.962 . S
C1222 H1236 0.960 . S
C1223 C1220 1.511 . S
C1223 H1237 0.961 . S
C1223 H1238 0.961 . S
C1223 H1239 0.961 . S
C1224 C1225 1.370 . S
C1224 C1226 1.363 . S
C1224 H1240 0.931 . S
C1225 C1224 1.370 . S
C1225 C1229 1.408 . S
C1226 C1224 1.363 . S
C1226 C1227 1.370 . S
C1226 C1230 1.524 . S
C1227 C1219 1.503 1_554 S
C1227 C1226 1.370 . S
C1227 C1228 1.403 . S
C1228 C1227 1.403 . S
C1228 C1229 1.404 . S
C1228 C1231 1.539 . S
C1229 C1225 1.408 . S
C1229 C1228 1.404 . S
C1229 H1241 0.930 . S
C1230 C1226 1.524 . S
C1230 H1242 0.956 . S
C1230 H1243 0.961 . S
C1230 H1244 0.961 . S
C1231 C1228 1.539 . S
C1231 H1245 0.958 . S
C1231 H1246 0.968 . S
C1231 H1247 0.960 1_554 S
H1232 C1216 0.931 1_554 S
H1233 C1221 0.929 . S
H1234 C1222 0.960 . S
H1235 C1222 0.962 . S
H1236 C1222 0.960 . S
H1237 C1223 0.961 . S
H1238 C1223 0.961 . S
H1239 C1223 0.961 . S
H1240 C1224 0.931 . S
H1241 C1229 0.930 . S
H1242 C1230 0.956 . S
H1243 C1230 0.961 . S
H1244 C1230 0.961 . S
H1245 C1231 0.958 . S
H1246 C1231 0.968 . S
H1247 C1231 0.960 1_556 S
C1248 C1249 1.391 . S
C1248 C1250 1.394 . S
C1248 H1264 0.931 . S
C1249 C1248 1.391 . S
C1249 C1253 1.376 . S
C1250 C1248 1.394 . S
C1250 C1251 1.369 . S
C1250 C1254 1.531 . S
C1251 C1250 1.369 . S
C1251 C1252 1.410 . S
C1251 C1259 1.503 . S
C1252 C1251 1.410 . S
C1252 C1253 1.392 . S
C1252 C1255 1.511 . S
C1253 C1249 1.376 . S
C1253 C1252 1.392 . S
C1253 H1265 0.929 . S
C1254 C1250 1.531 . S
C1254 H1266 0.960 . S
C1254 H1267 0.962 . S
C1254 H1268 0.960 . S
C1255 C1252 1.511 . S
C1255 H1269 0.961 . S
C1255 H1270 0.961 . S
C1255 H1271 0.961 . S
C1256 C1257 1.370 . S
C1256 C1258 1.363 . S
C1256 H1272 0.931 . S
C1257 C1256 1.370 . S
C1257 C1261 1.408 . S
C1258 C1256 1.363 . S
C1258 C1259 1.370 . S
C1258 C1262 1.524 . S
C1259 C1251 1.503 . S
C1259 C1258 1.370 . S
C1259 C1260 1.403 . S
C1260 C1259 1.403 . S
C1260 C1261 1.404 . S
C1260 C1263 1.539 . S
C1261 C1257 1.408 . S
C1261 C1260 1.404 . S
C1261 H1273 0.930 . S
C1262 C1258 1.524 . S
C1262 H1274 0.956 . S
C1262 H1275 0.961 . S
C1262 H1276 0.961 . S
C1263 C1260 1.539 . S
C1263 H1277 0.958 . S
C1263 H1278 0.961 . S
C1263 H1279 0.960 . S
H1264 C1248 0.931 . S
H1265 C1253 0.929 . S
H1266 C1254 0.960 . S
H1267 C1254 0.962 . S
H1268 C1254 0.960 . S
H1269 C1255 0.961 . S
H1270 C1255 0.961 . S
H1271 C1255 0.961 . S
H1272 C1256 0.931 . S
H1273 C1261 0.930 . S
H1274 C1262 0.956 . S
H1275 C1262 0.961 . S
H1276 C1262 0.961 . S
H1277 C1263 0.958 . S
H1278 C1263 0.961 . S
H1279 C1263 0.960 . S
C1280 C1281 1.391 . S
C1280 C1282 1.394 . S
C1280 H1296 0.931 . S
C1281 C1280 1.391 . S
C1281 C1285 1.376 . S
C1282 C1280 1.394 . S
C1282 C1283 1.369 . S
C1282 C1286 1.531 . S
C1283 C1282 1.369 . S
C1283 C1284 1.410 . S
C1283 C1291 1.503 . S
C1284 C1283 1.410 . S
C1284 C1285 1.392 . S
C1284 C1287 1.511 . S
C1285 C1281 1.376 . S
C1285 C1284 1.392 . S
C1285 H1297 0.929 . S
C1286 C1282 1.531 . S
C1286 H1298 0.960 . S
C1286 H1299 0.962 . S
C1286 H1300 0.960 . S
C1287 C1284 1.511 . S
C1287 H1301 0.961 . S
C1287 H1302 0.961 . S
C1287 H1303 0.961 . S
C1288 C1289 1.370 . S
C1288 C1290 1.363 . S
C1288 H1304 0.931 . S
C1289 C1288 1.370 . S
C1289 C1293 1.408 . S
C1290 C1288 1.363 . S
C1290 C1291 1.370 . S
C1290 C1294 1.524 . S
C1291 C1283 1.503 . S
C1291 C1290 1.370 . S
C1291 C1292 1.403 . S
C1292 C1291 1.403 . S
C1292 C1293 1.404 . S
C1292 C1295 1.539 . S
C1293 C1289 1.408 . S
C1293 C1292 1.404 . S
C1293 H1305 0.930 . S
C1294 C1290 1.524 . S
C1294 H1306 0.956 . S
C1294 H1307 0.961 . S
C1294 H1308 0.961 . S
C1295 C1292 1.539 . S
C1295 H1309 0.958 . S
C1295 H1310 0.961 . S
C1295 H1311 0.960 . S
H1296 C1280 0.931 . S
H1297 C1285 0.929 . S
H1298 C1286 0.960 . S
H1299 C1286 0.962 . S
H1300 C1286 0.960 . S
H1301 C1287 0.961 . S
H1302 C1287 0.961 . S
H1303 C1287 0.961 . S
H1304 C1288 0.931 . S
H1305 C1293 0.930 . S
H1306 C1294 0.956 . S
H1307 C1294 0.961 . S
H1308 C1294 0.961 . S
H1309 C1295 0.958 . S
H1310 C1295 0.961 . S
H1311 C1295 0.960 . S
C1312 C1313 1.391 . S
C1312 C1314 1.394 . S
C1312 H1328 0.931 . S
C1313 C1312 1.391 . S
C1313 C1317 1.376 . S
C1314 C1312 1.394 . S
C1314 C1315 1.369 . S
C1314 C1318 1.531 . S
C1315 C1314 1.369 . S
C1315 C1316 1.410 . S
C1315 C1323 1.503 . S
C1316 C1315 1.410 . S
C1316 C1317 1.392 . S
C1316 C1319 1.511 . S
C1317 C1313 1.376 . S
C1317 C1316 1.392 . S
C1317 H1329 0.929 . S
C1318 C1314 1.531 . S
C1318 H1330 0.960 . S
C1318 H1331 0.962 . S
C1318 H1332 0.960 . S
C1319 C1316 1.511 . S
C1319 H1333 0.961 . S
C1319 H1334 0.961 . S
C1319 H1335 0.961 . S
C1320 C1321 1.370 . S
C1320 C1322 1.363 . S
C1320 H1336 0.931 . S
C1321 C1320 1.370 . S
C1321 C1325 1.408 . S
C1322 C1320 1.363 . S
C1322 C1323 1.370 . S
C1322 C1326 1.524 . S
C1323 C1315 1.503 . S
C1323 C1322 1.370 . S
C1323 C1324 1.403 . S
C1324 C1323 1.403 . S
C1324 C1325 1.404 . S
C1324 C1327 1.539 . S
C1325 C1321 1.408 . S
C1325 C1324 1.404 . S
C1325 H1337 0.930 . S
C1326 C1322 1.524 . S
C1326 H1338 0.956 . S
C1326 H1339 0.961 . S
C1326 H1340 0.961 . S
C1327 C1324 1.539 . S
C1327 H1341 0.958 . S
C1327 H1342 0.961 . S
C1327 H1343 0.960 . S
H1328 C1312 0.931 . S
H1329 C1317 0.929 . S
H1330 C1318 0.960 . S
H1331 C1318 0.962 . S
H1332 C1318 0.960 . S
H1333 C1319 0.961 . S
H1334 C1319 0.961 . S
H1335 C1319 0.961 . S
H1336 C1320 0.931 . S
H1337 C1325 0.930 . S
H1338 C1326 0.956 . S
H1339 C1326 0.961 . S
H1340 C1326 0.961 . S
H1341 C1327 0.958 . S
H1342 C1327 0.961 . S
H1343 C1327 0.960 . S
C1344 C1345 1.391 . S
C1344 C1346 1.394 . S
C1344 H1360 0.931 . S
C1345 C1344 1.391 . S
C1345 C1349 1.376 . S
C1346 C1344 1.394 . S
C1346 C1347 1.369 . S
C1346 C1350 1.531 1_545 S
C1347 C1346 1.369 . S
C1347 C1348 1.410 . S
C1347 C1355 1.503 1_545 S
C1348 C1347 1.410 . S
C1348 C1349 1.392 . S
C1348 C1351 1.511 . S
C1349 C1345 1.376 . S
C1349 C1348 1.392 . S
C1349 H1361 0.929 . S
C1350 C1346 1.531 1_565 S
C1350 H1362 0.960 . S
C1350 H1363 0.962 1_565 S
C1350 H1364 0.962 . S
C1351 C1348 1.511 . S
C1351 H1365 0.961 . S
C1351 H1366 0.961 . S
C1351 H1367 0.961 . S
C1352 C1353 1.370 . S
C1352 C1354 1.363 . S
C1352 H1368 0.931 . S
C1353 C1352 1.370 . S
C1353 C1357 1.408 . S
C1354 C1352 1.363 . S
C1354 C1355 1.370 . S
C1354 C1358 1.524 1_565 S
C1355 C1347 1.503 1_565 S
C1355 C1354 1.370 . S
C1355 C1356 1.403 . S
C1356 C1355 1.403 . S
C1356 C1357 1.404 . S
C1356 C1359 1.539 . S
C1357 C1353 1.408 . S
C1357 C1356 1.404 . S
C1357 H1369 0.930 . S
C1358 C1354 1.524 1_545 S
C1358 H1370 0.956 . S
C1358 H1371 0.961 . S
C1358 H1372 0.961 . S
C1359 C1356 1.539 . S
C1359 H1373 0.958 . S
C1359 H1374 0.961 . S
C1359 H1375 0.960 . S
H1360 C1344 0.931 . S
H1361 C1349 0.929 . S
H1362 C1350 0.960 . S
H1363 C1350 0.962 1_545 S
H1364 C1350 0.962 . S
H1365 C1351 0.961 . S
H1366 C1351 0.961 . S
H1367 C1351 0.961 . S
H1368 C1352 0.931 . S
H1369 C1357 0.930 . S
H1370 C1358 0.956 . S
H1371 C1358 0.961 . S
H1372 C1358 0.961 . S
H1373 C1359 0.958 . S
H1374 C1359 0.961 . S
H1375 C1359 0.960 . S
C1376 C1377 1.391 . S
C1376 C1378 1.394 . S
C1376 H1392 0.931 . S
C1377 C1376 1.391 . S
C1377 C1381 1.376 . S
C1378 C1376 1.394 . S
C1378 C1379 1.369 . S
C1378 C1382 1.531 . S
C1379 C1378 1.369 . S
C1379 C1380 1.410 . S
C1379 C1387 1.503 . S
C1380 C1379 1.410 . S
C1380 C1381 1.392 . S
C1380 C1383 1.511 . S
C1381 C1377 1.376 . S
C1381 C1380 1.392 . S
C1381 H1393 0.929 . S
C1382 C1378 1.531 . S
C1382 H1394 0.960 . S
C1382 H1395 0.962 . S
C1382 H1396 0.960 . S
C1383 C1380 1.511 . S
C1383 H1397 0.961 . S
C1383 H1398 0.961 . S
C1383 H1399 0.961 . S
C1384 C1385 1.370 . S
C1384 C1386 1.363 . S
C1384 H1400 0.931 . S
C1385 C1384 1.370 . S
C1385 C1389 1.408 . S
C1386 C1384 1.363 . S
C1386 C1387 1.370 . S
C1386 C1390 1.524 . S
C1387 C1379 1.503 . S
C1387 C1386 1.370 . S
C1387 C1388 1.403 . S
C1388 C1387 1.403 . S
C1388 C1389 1.404 . S
C1388 C1391 1.539 . S
C1389 C1385 1.408 . S
C1389 C1388 1.404 . S
C1389 H1401 0.930 . S
C1390 C1386 1.524 . S
C1390 H1402 0.956 . S
C1390 H1403 0.961 . S
C1390 H1404 0.961 . S
C1391 C1388 1.539 . S
C1391 H1405 0.958 . S
C1391 H1406 0.961 . S
C1391 H1407 0.960 . S
H1392 C1376 0.931 . S
H1393 C1381 0.929 . S
H1394 C1382 0.960 . S
H1395 C1382 0.962 . S
H1396 C1382 0.960 . S
H1397 C1383 0.961 . S
H1398 C1383 0.961 . S
H1399 C1383 0.961 . S
H1400 C1384 0.931 . S
H1401 C1389 0.930 . S
H1402 C1390 0.956 . S
H1403 C1390 0.961 . S
H1404 C1390 0.961 . S
H1405 C1391 0.958 . S
H1406 C1391 0.961 . S
H1407 C1391 0.960 . S
C1408 C1409 1.391 . S
C1408 C1410 1.394 . S
C1408 H1424 0.931 . S
C1409 C1408 1.391 . S
C1409 C1413 1.376 . S
C1410 C1408 1.394 . S
C1410 C1411 1.369 . S
C1410 C1414 1.531 1_556 S
C1411 C1410 1.369 . S
C1411 C1412 1.410 . S
C1411 C1419 1.503 1_546 S
C1412 C1411 1.410 . S
C1412 C1413 1.392 . S
C1412 C1415 1.511 . S
C1413 C1409 1.376 . S
C1413 C1412 1.392 . S
C1413 H1425 0.929 . S
C1414 C1410 1.531 1_554 S
C1414 H1426 0.960 . S
C1414 H1427 0.962 1_554 S
C1414 H1428 0.960 . S
C1415 C1412 1.511 . S
C1415 H1429 0.961 . S
C1415 H1430 0.961 1_545 S
C1415 H1431 0.961 . S
C1416 C1417 1.370 . S
C1416 C1418 1.363 1_554 S
C1416 H1432 0.931 1_554 S
C1417 C1416 1.370 . S
C1417 C1421 1.408 . S
C1418 C1416 1.363 1_556 S
C1418 C1419 1.370 1_556 S
C1418 C1422 1.524 . S
C1419 C1411 1.503 1_564 S
C1419 C1418 1.370 1_554 S
C1419 C1420 1.403 . S
C1420 C1419 1.403 . S
C1420 C1421 1.404 . S
C1420 C1423 1.539 1_565 S
C1421 C1417 1.408 . S
C1421 C1420 1.404 . S
C1421 H1433 0.930 . S
C1422 C1418 1.524 . S
C1422 H1434 0.956 . S
C1422 H1435 0.961 . S
C1422 H1436 0.961 . S
C1423 C1420 1.539 1_545 S
C1423 H1437 0.958 . S
C1423 H1438 0.966 . S
C1423 H1439 0.960 . S
H1424 C1408 0.931 . S
H1425 C1413 0.929 . S
H1426 C1414 0.960 . S
H1427 C1414 0.962 1_556 S
H1428 C1414 0.960 . S
H1429 C1415 0.961 . S
H1430 C1415 0.961 1_565 S
H1431 C1415 0.961 . S
H1432 C1416 0.931 1_556 S
H1433 C1421 0.930 . S
H1434 C1422 0.956 . S
H1435 C1422 0.961 . S
H1436 C1422 0.961 . S
H1437 C1423 0.958 . S
H1438 C1423 0.966 . S
H1439 C1423 0.960 . S
C1440 C1441 1.391 . S
C1440 C1442 1.394 . S
C1440 H1456 0.931 . S
C1441 C1440 1.391 . S
C1441 C1445 1.376 . S
C1442 C1440 1.394 . S
C1442 C1443 1.369 . S
C1442 C1446 1.531 . S
C1443 C1442 1.369 . S
C1443 C1444 1.410 . S
C1443 C1451 1.503 . S
C1444 C1443 1.410 . S
C1444 C1445 1.392 . S
C1444 C1447 1.511 . S
C1445 C1441 1.376 . S
C1445 C1444 1.392 . S
C1445 H1457 0.929 . S
C1446 C1442 1.531 . S
C1446 H1458 0.960 . S
C1446 H1459 0.962 . S
C1446 H1460 0.960 . S
C1447 C1444 1.511 . S
C1447 H1461 0.961 . S
C1447 H1462 0.961 . S
C1447 H1463 0.961 . S
C1448 C1449 1.370 . S
C1448 C1450 1.363 . S
C1448 H1464 0.931 . S
C1449 C1448 1.370 . S
C1449 C1453 1.408 . S
C1450 C1448 1.363 . S
C1450 C1451 1.370 . S
C1450 C1454 1.524 . S
C1451 C1443 1.503 . S
C1451 C1450 1.370 . S
C1451 C1452 1.403 . S
C1452 C1451 1.403 . S
C1452 C1453 1.404 . S
C1452 C1455 1.539 . S
C1453 C1449 1.408 . S
C1453 C1452 1.404 . S
C1453 H1465 0.930 . S
C1454 C1450 1.524 . S
C1454 H1466 0.956 . S
C1454 H1467 0.961 . S
C1454 H1468 0.961 . S
C1455 C1452 1.539 . S
C1455 H1469 0.958 . S
C1455 H1470 0.961 . S
C1455 H1471 0.960 . S
H1456 C1440 0.931 . S
H1457 C1445 0.929 . S
H1458 C1446 0.960 . S
H1459 C1446 0.962 . S
H1460 C1446 0.960 . S
H1461 C1447 0.961 . S
H1462 C1447 0.961 . S
H1463 C1447 0.961 . S
H1464 C1448 0.931 . S
H1465 C1453 0.930 . S
H1466 C1454 0.956 . S
H1467 C1454 0.961 . S
H1468 C1454 0.961 . S
H1469 C1455 0.958 . S
H1470 C1455 0.961 . S
H1471 C1455 0.960 . S
C1472 C1473 1.391 . S
C1472 C1474 1.394 . S
C1472 H1488 0.931 . S
C1473 C1472 1.391 . S
C1473 C1477 1.376 . S
C1474 C1472 1.394 . S
C1474 C1475 1.369 . S
C1474 C1478 1.531 . S
C1475 C1474 1.369 . S
C1475 C1476 1.410 . S
C1475 C1483 1.503 1_545 S
C1476 C1475 1.410 . S
C1476 C1477 1.392 . S
C1476 C1479 1.511 1_545 S
C1477 C1473 1.376 . S
C1477 C1476 1.392 . S
C1477 H1489 0.929 . S
C1478 C1474 1.531 . S
C1478 H1490 0.960 . S
C1478 H1491 0.962 . S
C1478 H1492 0.960 . S
C1479 C1476 1.511 1_565 S
C1479 H1493 0.961 . S
C1479 H1494 0.961 . S
C1479 H1495 0.961 . S
C1480 C1481 1.370 . S
C1480 C1482 1.363 . S
C1480 H1496 0.931 . S
C1481 C1480 1.370 . S
C1481 C1485 1.408 . S
C1482 C1480 1.363 . S
C1482 C1483 1.370 . S
C1482 C1486 1.524 . S
C1483 C1475 1.503 1_565 S
C1483 C1482 1.370 . S
C1483 C1484 1.403 . S
C1484 C1483 1.403 . S
C1484 C1485 1.404 . S
C1484 C1487 1.539 1_565 S
C1485 C1481 1.408 . S
C1485 C1484 1.404 . S
C1485 H1497 0.930 . S
C1486 C1482 1.524 . S
C1486 H1498 0.956 . S
C1486 H1499 0.961 . S
C1486 H1500 0.961 . S
C1487 C1484 1.539 1_545 S
C1487 H1501 0.958 . S
C1487 H1502 0.961 1_545 S
C1487 H1503 0.960 . S
H1488 C1472 0.931 . S
H1489 C1477 0.929 . S
H1490 C1478 0.960 . S
H1491 C1478 0.962 . S
H1492 C1478 0.960 . S
H1493 C1479 0.961 . S
H1494 C1479 0.961 . S
H1495 C1479 0.961 . S
H1496 C1480 0.931 . S
H1497 C1485 0.930 . S
H1498 C1486 0.956 . S
H1499 C1486 0.961 . S
H1500 C1486 0.961 . S
H1501 C1487 0.958 . S
H1502 C1487 0.961 1_565 S
H1503 C1487 0.960 . S
C1504 C1505 1.391 . S
C1504 C1506 1.394 . S
C1504 H1520 0.931 . S
C1505 C1504 1.391 . S
C1505 C1509 1.376 . S
C1506 C1504 1.394 . S
C1506 C1507 1.369 . S
C1506 C1510 1.531 . S
C1507 C1506 1.369 . S
C1507 C1508 1.410 . S
C1507 C1515 1.503 . S
C1508 C1507 1.410 . S
C1508 C1509 1.392 . S
C1508 C1511 1.511 . S
C1509 C1505 1.376 . S
C1509 C1508 1.392 . S
C1509 H1521 0.929 . S
C1510 C1506 1.531 . S
C1510 H1522 0.960 . S
C1510 H1523 0.962 . S
C1510 H1524 0.960 . S
C1511 C1508 1.511 . S
C1511 H1525 0.961 . S
C1511 H1526 0.961 . S
C1511 H1527 0.961 . S
C1512 C1513 1.370 . S
C1512 C1514 1.363 . S
C1512 H1528 0.931 . S
C1513 C1512 1.370 . S
C1513 C1517 1.408 . S
C1514 C1512 1.363 . S
C1514 C1515 1.370 . S
C1514 C1518 1.524 . S
C1515 C1507 1.503 . S
C1515 C1514 1.370 . S
C1515 C1516 1.403 . S
C1516 C1515 1.403 . S
C1516 C1517 1.404 . S
C1516 C1519 1.539 . S
C1517 C1513 1.408 . S
C1517 C1516 1.404 . S
C1517 H1529 0.930 . S
C1518 C1514 1.524 . S
C1518 H1530 0.956 . S
C1518 H1531 0.961 . S
C1518 H1532 0.961 . S
C1519 C1516 1.539 . S
C1519 H1533 0.958 . S
C1519 H1534 0.961 . S
C1519 H1535 0.960 . S
H1520 C1504 0.931 . S
H1521 C1509 0.929 . S
H1522 C1510 0.960 . S
H1523 C1510 0.962 . S
H1524 C1510 0.960 . S
H1525 C1511 0.961 . S
H1526 C1511 0.961 . S
H1527 C1511 0.961 . S
H1528 C1512 0.931 . S
H1529 C1517 0.930 . S
H1530 C1518 0.956 . S
H1531 C1518 0.961 . S
H1532 C1518 0.961 . S
H1533 C1519 0.958 . S
H1534 C1519 0.961 . S
H1535 C1519 0.960 . S
C1536 C1537 1.391 . S
C1536 C1538 1.394 . S
C1536 H1552 0.931 . S
C1537 C1536 1.391 . S
C1537 C1541 1.376 . S
C1538 C1536 1.394 . S
C1538 C1539 1.369 . S
C1538 C1542 1.531 1_565 S
C1539 C1538 1.369 . S
C1539 C1540 1.410 1_554 S
C1539 C1547 1.503 1_564 S
C1540 C1539 1.410 1_556 S
C1540 C1541 1.392 1_556 S
C1540 C1543 1.511 . S
C1541 C1537 1.376 . S
C1541 C1540 1.392 1_554 S
C1541 H1553 0.941 . S
C1542 C1538 1.531 1_545 S
C1542 H1554 0.960 . S
C1542 H1555 0.962 . S
C1542 H1556 0.960 . S
C1543 C1540 1.511 . S
C1543 H1557 0.961 . S
C1543 H1558 0.961 . S
C1543 H1559 0.961 . S
C1544 C1545 1.370 . S
C1544 C1546 1.363 . S
C1544 H1560 0.931 . S
C1545 C1544 1.370 . S
C1545 C1549 1.408 . S
C1546 C1544 1.363 . S
C1546 C1547 1.370 . S
C1546 C1550 1.524 . S
C1547 C1539 1.503 1_546 S
C1547 C1546 1.370 . S
C1547 C1548 1.403 . S
C1548 C1547 1.403 . S
C1548 C1549 1.404 . S
C1548 C1551 1.539 . S
C1549 C1545 1.408 . S
C1549 C1548 1.404 . S
C1549 H1561 0.930 . S
C1550 C1546 1.524 . S
C1550 H1562 0.956 1_556 S
C1550 H1563 0.961 1_545 S
C1550 H1564 0.961 . S
C1551 C1548 1.539 . S
C1551 H1565 0.958 1_556 S
C1551 H1566 0.961 . S
C1551 H1567 0.989 . S
H1552 C1536 0.931 . S
H1553 C1541 0.941 . S
H1554 C1542 0.960 . S
H1555 C1542 0.962 . S
H1556 C1542 0.960 . S
H1557 C1543 0.961 . S
H1558 C1543 0.961 . S
H1559 C1543 0.961 . S
H1560 C1544 0.931 . S
H1561 C1549 0.930 . S
H1562 C1550 0.956 1_554 S
H1563 C1550 0.961 1_565 S
H1564 C1550 0.961 . S
H1565 C1551 0.958 1_554 S
H1566 C1551 0.961 . S
H1567 C1551 0.989 . S
C1568 C1569 1.391 . S
C1568 C1570 1.394 . S
C1568 H1584 0.931 . S
C1569 C1568 1.391 . S
C1569 C1573 1.376 . S
C1570 C1568 1.394 . S
C1570 C1571 1.369 . S
C1570 C1574 1.531 . S
C1571 C1570 1.369 . S
C1571 C1572 1.410 . S
C1571 C1579 1.503 . S
C1572 C1571 1.410 . S
C1572 C1573 1.392 . S
C1572 C1575 1.511 . S
C1573 C1569 1.376 . S
C1573 C1572 1.392 . S
C1573 H1585 0.929 . S
C1574 C1570 1.531 . S
C1574 H1586 0.960 . S
C1574 H1587 0.962 . S
C1574 H1588 0.960 . S
C1575 C1572 1.511 . S
C1575 H1589 0.961 . S
C1575 H1590 0.961 . S
C1575 H1591 0.961 . S
C1576 C1577 1.370 . S
C1576 C1578 1.363 . S
C1576 H1592 0.931 . S
C1577 C1576 1.370 . S
C1577 C1581 1.408 . S
C1578 C1576 1.363 . S
C1578 C1579 1.370 . S
C1578 C1582 1.524 . S
C1579 C1571 1.503 . S
C1579 C1578 1.370 . S
C1579 C1580 1.403 . S
C1580 C1579 1.403 . S
C1580 C1581 1.404 . S
C1580 C1583 1.539 . S
C1581 C1577 1.408 . S
C1581 C1580 1.404 . S
C1581 H1593 0.930 . S
C1582 C1578 1.524 . S
C1582 H1594 0.956 . S
C1582 H1595 0.961 . S
C1582 H1596 0.961 . S
C1583 C1580 1.539 . S
C1583 H1597 0.958 . S
C1583 H1598 0.961 . S
C1583 H1599 0.960 . S
H1584 C1568 0.931 . S
H1585 C1573 0.929 . S
H1586 C1574 0.960 . S
H1587 C1574 0.962 . S
H1588 C1574 0.960 . S
H1589 C1575 0.961 . S
H1590 C1575 0.961 . S
H1591 C1575 0.961 . S
H1592 C1576 0.931 . S
H1593 C1581 0.930 . S
H1594 C1582 0.956 . S
H1595 C1582 0.961 . S
H1596 C1582 0.961 . S
H1597 C1583 0.958 . S
H1598 C1583 0.961 . S
H1599 C1583 0.960 . S
C577 C400 1.281 . S
C585 C4 1.265 . S
C609 C544 1.318 . S
C617 C40 1.308 . S
C641 C76 1.390 . S
C649 C326 1.382 . S
C673 C470 1.394 . S
C681 C110 1.407 . S
C705 C146 1.306 . S
C713 C472 1.321 . S
C737 C182 1.343 . S
C745 C398 1.351 . S
C769 C220 1.403 . S
C777 C542 1.388 . S
C801 C254 1.421 . S
C809 C328 1.430 . S
C833 C112 1.274 . S
C841 C292 1.279 . S
C865 C364 1.297 . S
C873 C38 1.278 . S
C897 C434 1.275 . S
C905 C184 1.293 . S
C929 C508 1.314 . S
C937 C256 1.300 . S
C961 C148 1.378 . S
C969 C290 1.388 . S
C993 C362 1.476 . S
C1001 C218 1.471 . S
C1025 C506 1.407 . S
C1033 C74 1.429 . S
C1057 C2 1.404 . S
C1065 C436 1.399 . S
C1089 C3 1.196 . S
C1097 C158 1.163 . S
C1121 C39 1.291 . S
C1129 C194 1.231 . S
C1153 C75 1.309 . S
C1161 C219 1.299 . S
C1185 C266 1.260 . S
C1193 C122 1.236 . S
C1217 C291 1.157 . S
C1225 C446 1.118 . S
C1249 C482 1.291 . S
C1257 C327 1.349 . S
C1281 C363 1.224 . S
C1289 C507 1.236 . S
C1313 C543 1.264 . S
C1321 C410 1.226 . S
C1345 C255 1.115 . S
C1353 C50 1.078 . S
C1377 C86 1.256 . S
C1385 C147 1.339 . S
C1409 C111 1.240 . S
C1417 C183 1.229 . S
C1441 C14 1.229 . S
C1449 C230 1.271 . S
C1473 C338 1.147 . S
C1481 C554 1.162 . S
C1505 C435 1.328 . S
C1513 C374 1.286 . S
C1537 C399 1.224 . S
C1545 C471 1.223 . S
C1569 C518 1.217 . S
C1577 C302 1.238 . S
