# Generated by pormake.
# Topology lhb, (8)-cn, num edge types: 1
# Building blocks:
#     Node 0, Type 0, BuildingBlock: LIZSOE_clean_sbu_0, # of connection points: 8
#     Node 1, Type 0, BuildingBlock: LIZSOE_clean_sbu_0, # of connection points: 8
#     Node 2, Type 0, BuildingBlock: LIZSOE_clean_sbu_0, # of connection points: 8
#     Node 3, Type 0, BuildingBlock: LIZSOE_clean_sbu_0, # of connection points: 8
#     Node 4, Type 0, BuildingBlock: LIZSOE_clean_sbu_0, # of connection points: 8
#     Node 5, Type 0, BuildingBlock: LIZSOE_clean_sbu_0, # of connection points: 8
#     Node 6, Type 0, BuildingBlock: LIZSOE_clean_sbu_0, # of connection points: 8
#     Node 7, Type 0, BuildingBlock: LIZSOE_clean_sbu_0, # of connection points: 8
#     Edge 8, Type (0, 0), BuildingBlock: UVAHIK_clean_linker_0, # of connection points: 2
#     Edge 9, Type (0, 0), BuildingBlock: UVAHIK_clean_linker_0, # of connection points: 2
#     Edge 10, Type (0, 0), BuildingBlock: UVAHIK_clean_linker_0, # of connection points: 2
#     Edge 11, Type (0, 0), BuildingBlock: UVAHIK_clean_linker_0, # of connection points: 2
#     Edge 12, Type (0, 0), BuildingBlock: UVAHIK_clean_linker_0, # of connection points: 2
#     Edge 13, Type (0, 0), BuildingBlock: UVAHIK_clean_linker_0, # of connection points: 2
#     Edge 14, Type (0, 0), BuildingBlock: UVAHIK_clean_linker_0, # of connection points: 2
#     Edge 15, Type (0, 0), BuildingBlock: UVAHIK_clean_linker_0, # of connection points: 2
#     Edge 16, Type (0, 0), BuildingBlock: UVAHIK_clean_linker_0, # of connection points: 2
#     Edge 17, Type (0, 0), BuildingBlock: UVAHIK_clean_linker_0, # of connection points: 2
#     Edge 18, Type (0, 0), BuildingBlock: UVAHIK_clean_linker_0, # of connection points: 2
#     Edge 19, Type (0, 0), BuildingBlock: UVAHIK_clean_linker_0, # of connection points: 2
#     Edge 20, Type (0, 0), BuildingBlock: UVAHIK_clean_linker_0, # of connection points: 2
#     Edge 21, Type (0, 0), BuildingBlock: UVAHIK_clean_linker_0, # of connection points: 2
#     Edge 22, Type (0, 0), BuildingBlock: UVAHIK_clean_linker_0, # of connection points: 2
#     Edge 23, Type (0, 0), BuildingBlock: UVAHIK_clean_linker_0, # of connection points: 2
#     Edge 24, Type (0, 0), BuildingBlock: UVAHIK_clean_linker_0, # of connection points: 2
#     Edge 25, Type (0, 0), BuildingBlock: UVAHIK_clean_linker_0, # of connection points: 2
#     Edge 26, Type (0, 0), BuildingBlock: UVAHIK_clean_linker_0, # of connection points: 2
#     Edge 27, Type (0, 0), BuildingBlock: UVAHIK_clean_linker_0, # of connection points: 2
#     Edge 28, Type (0, 0), BuildingBlock: UVAHIK_clean_linker_0, # of connection points: 2
#     Edge 29, Type (0, 0), BuildingBlock: UVAHIK_clean_linker_0, # of connection points: 2
#     Edge 30, Type (0, 0), BuildingBlock: UVAHIK_clean_linker_0, # of connection points: 2
#     Edge 31, Type (0, 0), BuildingBlock: UVAHIK_clean_linker_0, # of connection points: 2
#     Edge 32, Type (0, 0), BuildingBlock: UVAHIK_clean_linker_0, # of connection points: 2
#     Edge 33, Type (0, 0), BuildingBlock: UVAHIK_clean_linker_0, # of connection points: 2
#     Edge 34, Type (0, 0), BuildingBlock: UVAHIK_clean_linker_0, # of connection points: 2
#     Edge 35, Type (0, 0), BuildingBlock: UVAHIK_clean_linker_0, # of connection points: 2
#     Edge 36, Type (0, 0), BuildingBlock: UVAHIK_clean_linker_0, # of connection points: 2
#     Edge 37, Type (0, 0), BuildingBlock: UVAHIK_clean_linker_0, # of connection points: 2
#     Edge 38, Type (0, 0), BuildingBlock: UVAHIK_clean_linker_0, # of connection points: 2
#     Edge 39, Type (0, 0), BuildingBlock: UVAHIK_clean_linker_0, # of connection points: 2
# Relax obj value: 0.095
# Max RMSD: 0.208
# Mean RMSD: 0.208
data_MOF--net-lhb--node1-LIZSOE_clean_sbu_0--edge1-UVAHIK_clean_linker_0
_symmetry_space_group_name_H-M    P1
_symmetry_Int_Tables_number       1
_symmetry_cell_setting            triclinic
loop_
_symmetry_equiv_pos_as_xyz
'x, y, z'
_cell_length_a     52.117468
_cell_length_b     19.550545
_cell_length_c     57.12618
_cell_angle_alpha  89.895307
_cell_angle_beta   89.9445
_cell_angle_gamma 89.890824
loop_
_atom_site_label
_atom_site_type_symbol
_atom_site_fract_x
_atom_site_fract_y
_atom_site_fract_z
_atom_type_partial_charge
Co0 Co 0.06117 0.12884 1.00194 0.0
N1 N 0.09589 0.14884 1.0022 0.0
C2 C 0.10873 0.15833 0.98194 0.0
N3 N 0.13627 0.18084 1.01 0.0
C4 C 0.11326 0.16347 0.01918 0.0
C5 C 0.13344 0.17798 0.98665 0.0
Co6 Co 0.95855 0.92542 1.00166 0.0
N7 N 0.92353 0.9074 1.00195 0.0
N8 N 0.88228 0.88527 1.01033 0.0
C9 C 0.88442 0.89465 0.98711 0.0
C10 C 0.90967 0.90716 0.982 0.0
C11 C 0.90625 0.8926 0.01907 0.0
Co12 Co 0.01007 0.02656 1.00425 0.0
C13 C 0.98977 0.88063 0.01686 0.0
H14 H 0.91748 0.9158 0.9647 0.0
O15 O 0.02752 0.11929 1.00282 0.0
O16 O 0.98619 0.0606 0.0303 0.0
O17 O 0.03395 0.99258 0.0304 0.0
O18 O 0.03389 0.98859 0.97885 0.0
O19 O 0.06753 0.05842 0.98045 0.0
O20 O 0.95386 0.98759 0.02568 0.0
O21 O 0.99243 0.93362 1.00273 0.0
O22 O 0.9529 0.99543 0.97975 0.0
O23 O 0.06593 0.06746 0.02642 0.0
O24 O 0.05253 0.19295 0.02213 0.0
O25 O 0.98656 0.06511 0.97874 0.0
O26 O 0.96658 0.86208 0.02232 0.0
C27 C 0.05568 1.01746 0.0369 0.0
C28 C 0.91265 0.88399 0.04457 0.0
H29 H 0.93113 0.90729 0.04943 0.0
H30 H 0.8972 0.90623 0.05559 0.0
H31 H 0.91388 0.82859 0.04863 0.0
C32 C 0.96417 0.03681 0.03638 0.0
C33 C 0.05648 1.00604 0.97214 0.0
H34 H 0.10034 0.1531 0.96472 0.0
H35 H 0.11295 0.21846 0.0516 0.0
H36 H 0.1193 0.12922 0.05436 0.0
H37 H 0.08703 0.15811 0.04904 0.0
C38 C 0.10742 0.16731 0.04491 0.0
C39 C 0.02956 0.17284 0.01668 0.0
C40 C 0.96414 0.04783 0.97163 0.0
H41 H 0.14811 0.19063 0.97393 0.0
H42 H 0.86878 0.89172 0.97468 0.0
Co43 Co 0.20984 0.37902 0.25132 0.0
N44 N 0.17525 0.40096 0.25087 0.0
C45 C 0.16332 0.4147 0.23044 0.0
N46 N 0.13479 0.43403 0.25802 0.0
C47 C 0.15732 0.41397 0.26756 0.0
C48 C 0.13855 0.43487 0.23476 0.0
Co49 Co 0.31106 0.17027 0.25176 0.0
N50 N 0.34597 0.15052 0.25208 0.0
N51 N 0.38703 0.12671 0.2607 0.0
C52 C 0.38516 0.13628 0.23747 0.0
C53 C 0.36 0.1498 0.23221 0.0
C54 C 0.36302 0.13494 0.26929 0.0
Co55 Co 0.26011 0.27387 0.2544 0.0
C56 C 0.27958 0.1272 0.26705 0.0
H57 H 0.35239 0.15894 0.21488 0.0
O58 O 0.24335 0.36767 0.253 0.0
O59 O 0.28406 0.30665 0.28052 0.0
O60 O 0.23589 0.24097 0.28029 0.0
O61 O 0.23619 0.2371 0.22895 0.0
O62 O 0.20409 0.31247 0.22821 0.0
O63 O 0.31608 0.23258 0.27568 0.0
O64 O 0.27721 0.18011 0.25285 0.0
O65 O 0.31715 0.23979 0.22973 0.0
O66 O 0.20368 0.31443 0.27475 0.0
O67 O 0.21798 0.43948 0.27288 0.0
O68 O 0.28396 0.31137 0.22898 0.0
O69 O 0.30266 0.10765 0.27252 0.0
C70 C 0.21362 0.26471 0.28572 0.0
C71 C 0.35634 0.12633 0.29475 0.0
H72 H 0.33801 0.15081 0.29957 0.0
H73 H 0.37186 0.14731 0.30591 0.0
H74 H 0.35461 0.07095 0.29867 0.0
C75 C 0.30604 0.28217 0.28647 0.0
C76 C 0.21476 0.2585 0.22057 0.0
H77 H 0.17243 0.41242 0.21345 0.0
H78 H 0.15718 0.46573 0.30058 0.0
H79 H 0.14958 0.37709 0.30218 0.0
H80 H 0.18236 0.40299 0.29808 0.0
C81 C 0.16228 0.41468 0.29347 0.0
C82 C 0.24105 0.41986 0.26742 0.0
C83 C 0.30622 0.29292 0.22173 0.0
H84 H 0.12448 0.45049 0.22186 0.0
H85 H 0.40092 0.13305 0.22515 0.0
Co86 Co 0.70865 0.87755 0.25159 0.0
N87 N 0.67395 0.89796 0.25195 0.0
C88 C 0.66107 0.90744 0.23173 0.0
N89 N 0.63355 0.92985 0.25988 0.0
C90 C 0.6566 0.91258 0.26899 0.0
C91 C 0.63633 0.927 0.23652 0.0
Co92 Co 0.81117 0.67291 0.25103 0.0
N93 N 0.84617 0.65446 0.25132 0.0
N94 N 0.88735 0.63165 0.2598 0.0
C95 C 0.88539 0.64178 0.2366 0.0
C96 C 0.86017 0.6547 0.23143 0.0
C97 C 0.86332 0.63894 0.26846 0.0
Co98 Co 0.75967 0.77457 0.25372 0.0
C99 C 0.7799 0.62828 0.26615 0.0
H100 H 0.85249 0.66398 0.21413 0.0
O101 O 0.74227 0.86754 0.25237 0.0
O102 O 0.7835 0.80808 0.2798 0.0
O103 O 0.73578 0.74072 0.27988 0.0
O104 O 0.73583 0.73698 0.22833 0.0
O105 O 0.70223 0.80721 0.23014 0.0
O106 O 0.8158 0.73464 0.2752 0.0
O107 O 0.77729 0.68148 0.2521 0.0
O108 O 0.81693 0.74326 0.22929 0.0
O109 O 0.7039 0.81628 0.27609 0.0
O110 O 0.71733 0.94157 0.27175 0.0
O111 O 0.78323 0.81309 0.22824 0.0
O112 O 0.80307 0.60928 0.27154 0.0
C113 C 0.71412 0.76604 0.28651 0.0
C114 C 0.85672 0.62949 0.29389 0.0
H115 H 0.83829 0.65326 0.2988 0.0
H116 H 0.87216 0.65071 0.30509 0.0
H117 H 0.85525 0.57397 0.29767 0.0
C118 C 0.80547 0.78394 0.28593 0.0
C119 C 0.71321 0.7547 0.22175 0.0
H120 H 0.66942 0.90212 0.21448 0.0
H121 H 0.65709 0.96805 0.30129 0.0
H122 H 0.65055 0.87905 0.30426 0.0
H123 H 0.68288 0.90701 0.29878 0.0
C124 C 0.6625 0.91665 0.29469 0.0
C125 C 0.74028 0.92114 0.26623 0.0
C126 C 0.80571 0.79582 0.2212 0.0
H127 H 0.62159 0.9395 0.22386 0.0
H128 H 0.90113 0.63918 0.22424 0.0
Co129 Co 0.05957 0.62669 0.50081 0.0
N130 N 0.09412 0.6488 0.50002 0.0
C131 C 0.10559 0.66326 0.47943 0.0
N132 N 0.13463 0.68233 0.50652 0.0
C133 C 0.11235 0.66166 0.51642 0.0
C134 C 0.13037 0.68366 0.48333 0.0
Co135 Co 0.95885 0.41722 0.50148 0.0
N136 N 0.92398 0.39719 0.50173 0.0
N137 N 0.88285 0.37413 0.51031 0.0
C138 C 0.88478 0.38417 0.4871 0.0
C139 C 0.90997 0.39722 0.48187 0.0
C140 C 0.90688 0.38155 0.5189 0.0
Co141 Co 1.00943 0.52155 0.50413 0.0
C142 C 0.99039 0.37446 0.51672 0.0
H143 H 0.91758 0.40686 0.46456 0.0
O144 O 0.02604 0.61539 0.50273 0.0
O145 O 0.98531 0.55408 0.5303 0.0
O146 O 0.03374 0.48892 0.52996 0.0
O147 O 0.03336 0.48483 0.47862 0.0
O148 O 0.0653 0.56023 0.47767 0.0
O149 O 0.95366 0.47912 0.52547 0.0
O150 O 0.99261 0.42756 0.50259 0.0
O151 O 0.95259 0.48693 0.47965 0.0
O152 O 0.06597 0.56206 0.52426 0.0
O153 O 0.05149 0.68704 0.52245 0.0
O154 O 0.98549 0.55908 0.47877 0.0
O155 O 0.96737 0.35439 0.52212 0.0
C156 C 0.05601 0.51252 0.53529 0.0
C157 C 0.91353 0.37219 0.54431 0.0
H158 H 0.93179 0.39668 0.5492 0.0
H159 H 0.89795 0.39275 0.5555 0.0
H160 H 0.91534 0.3167 0.54803 0.0
C161 C 0.96346 0.5289 0.53628 0.0
C162 C 0.0547 0.50623 0.4701 0.0
H163 H 0.09614 0.66137 0.46261 0.0
H164 H 0.11378 0.71138 0.5498 0.0
H165 H 0.12023 0.62189 0.55059 0.0
H166 H 0.08773 0.6514 0.54724 0.0
C167 C 0.10789 0.66136 0.5424 0.0
C168 C 0.02841 0.66749 0.51718 0.0
C169 C 0.96325 0.54032 0.47166 0.0
H170 H 0.14411 0.69978 0.47021 0.0
H171 H 0.86902 0.38183 0.4748 0.0
Co172 Co 0.20851 0.87771 0.75023 0.0
N173 N 0.17366 0.89836 0.75021 0.0
C174 C 0.16003 0.90246 0.73018 0.0
N175 N 0.13263 0.92334 0.75856 0.0
C176 C 0.15639 0.91272 0.76738 0.0
C177 C 0.13487 0.91664 0.73526 0.0
Co178 Co 0.30913 0.66742 0.74963 0.0
N179 N 0.34386 0.64602 0.74903 0.0
N180 N 0.38492 0.61924 0.75643 0.0
C181 C 0.38208 0.62542 0.73317 0.0
C182 C 0.35688 0.64067 0.72868 0.0
C183 C 0.36151 0.63124 0.76581 0.0
Co184 Co 0.25894 0.77281 0.75321 0.0
C185 C 0.27814 0.62679 0.76627 0.0
H186 H 0.34846 0.64664 0.71154 0.0
O187 O 0.24223 0.86703 0.75181 0.0
O188 O 0.28327 0.80489 0.779 0.0
O189 O 0.23501 0.74042 0.77934 0.0
O190 O 0.2349 0.73603 0.72797 0.0
O191 O 0.20296 0.81174 0.72677 0.0
O192 O 0.31553 0.73238 0.77273 0.0
O193 O 0.27554 0.67861 0.75167 0.0
O194 O 0.3145 0.73371 0.72618 0.0
O195 O 0.20256 0.8124 0.77335 0.0
O196 O 0.21654 0.93727 0.77208 0.0
O197 O 0.2827 0.80974 0.72765 0.0
O198 O 0.3013 0.60758 0.77156 0.0
C199 C 0.21259 0.76337 0.78453 0.0
C200 C 0.356 0.62624 0.7916 0.0
H201 H 0.33782 0.65098 0.7967 0.0
H202 H 0.37197 0.64914 0.80174 0.0
H203 H 0.35475 0.57147 0.79655 0.0
C204 C 0.30569 0.78153 0.78398 0.0
C205 C 0.21367 0.7576 0.7193 0.0
H206 H 0.16796 0.89606 0.71285 0.0
H207 H 0.16453 0.97336 0.79755 0.0
H208 H 0.14675 0.89703 0.8037 0.0
H209 H 0.18069 0.8928 0.79784 0.0
C210 C 0.16261 0.91848 0.793 0.0
C211 C 0.23968 0.9186 0.76647 0.0
C212 C 0.30384 0.78805 0.7188 0.0
H213 H 0.11939 0.92261 0.72278 0.0
H214 H 0.39714 0.61819 0.72033 0.0
Co215 Co 0.81014 0.16698 0.75144 0.0
N216 N 0.84472 0.14524 0.75107 0.0
C217 C 0.85663 0.13045 0.73073 0.0
N218 N 0.88526 0.1132 0.75838 0.0
C219 C 0.86272 0.13369 0.76781 0.0
C220 C 0.88144 0.1108 0.73514 0.0
Co221 Co 0.70953 0.37656 0.74953 0.0
N222 N 0.67487 0.39743 0.74814 0.0
N223 N 0.63387 0.42713 0.75437 0.0
C224 C 0.63803 0.4265 0.73116 0.0
C225 C 0.66314 0.40831 0.72741 0.0
C226 C 0.65645 0.41009 0.76443 0.0
Co227 Co 0.75981 0.27196 0.75422 0.0
C228 C 0.74011 0.4179 0.76665 0.0
H229 H 0.6725 0.40476 0.71055 0.0
O230 O 0.77651 0.17808 0.75312 0.0
O231 O 0.73521 0.24031 0.77994 0.0
O232 O 0.7837 0.30462 0.78024 0.0
O233 O 0.78402 0.30845 0.72905 0.0
O234 O 0.816 0.2328 0.7279 0.0
O235 O 0.70274 0.3117 0.77285 0.0
O236 O 0.74315 0.36596 0.75223 0.0
O237 O 0.70468 0.31032 0.72609 0.0
O238 O 0.81626 0.23219 0.77469 0.0
O239 O 0.80194 0.10707 0.77329 0.0
O240 O 0.73638 0.23428 0.72871 0.0
O241 O 0.71678 0.43698 0.77137 0.0
C242 C 0.80607 0.28157 0.78561 0.0
C243 C 0.66088 0.41349 0.7904 0.0
H244 H 0.68059 0.39958 0.7956 0.0
H245 H 0.64723 0.37918 0.79949 0.0
H246 H 0.65675 0.46619 0.79655 0.0
C247 C 0.71259 0.26317 0.7845 0.0
C248 C 0.80529 0.28697 0.72045 0.0
H249 H 0.84753 0.13208 0.71372 0.0
H250 H 0.86568 0.08966 0.80218 0.0
H251 H 0.86859 0.18046 0.80116 0.0
H252 H 0.83749 0.14191 0.7983 0.0
C253 C 0.85798 0.13657 0.79374 0.0
C254 C 0.77885 0.12626 0.76775 0.0
C255 C 0.71554 0.25574 0.7193 0.0
H256 H 0.89552 0.0947 0.72232 0.0
H257 H 0.62397 0.4394 0.71793 0.0
Co258 Co 0.55993 0.13154 0.50181 0.0
N259 N 0.59438 0.15485 0.50148 0.0
C260 C 0.60627 0.16989 0.48114 0.0
N261 N 0.63469 0.18858 0.50882 0.0
C262 C 0.61223 0.16752 0.51824 0.0
C263 C 0.63095 0.19046 0.48556 0.0
Co264 Co 0.4604 0.91864 0.50093 0.0
N265 N 0.42561 0.8974 0.50015 0.0
N266 N 0.3843 0.8727 0.50736 0.0
C267 C 0.38741 0.87862 0.4841 0.0
C268 C 0.41273 0.89258 0.47974 0.0
C269 C 0.40772 0.88351 0.51684 0.0
Co270 Co 0.51033 1.02452 0.50474 0.0
C271 C 0.49128 0.8784 0.5179 0.0
H272 H 0.42128 0.89846 0.46264 0.0
O273 O 0.52645 0.11894 0.5034 0.0
O274 O 0.4858 0.05613 0.53053 0.0
O275 O 0.5346 0.99263 0.53076 0.0
O276 O 0.53471 0.9887 0.47946 0.0
O277 O 0.56632 0.06521 0.47868 0.0
O278 O 0.45363 0.98427 0.52373 0.0
O279 O 0.49407 0.92985 0.50316 0.0
O280 O 0.4552 0.98405 0.47721 0.0
O281 O 0.5664 0.06715 0.52524 0.0
O282 O 0.55126 0.19153 0.52337 0.0
O283 O 0.48646 0.06117 0.4792 0.0
O284 O 0.46805 0.85973 0.52315 0.0
C285 C 0.55672 1.0171 0.53618 0.0
C286 C 0.41304 0.87833 0.54265 0.0
H287 H 0.43107 0.90346 0.54785 0.0
H288 H 0.3969 0.90067 0.55278 0.0
H289 H 0.41457 0.82352 0.54751 0.0
C290 C 0.46326 0.03324 0.53515 0.0
C291 C 0.55603 1.01075 0.47109 0.0
H292 H 0.59723 0.16794 0.46413 0.0
H293 H 0.61396 0.21446 0.55213 0.0
H294 H 0.61872 0.12424 0.55208 0.0
H295 H 0.5869 0.15818 0.54864 0.0
C296 C 0.60729 0.16594 0.54415 0.0
C297 C 0.52836 0.17108 0.51788 0.0
C298 C 0.46565 0.0388 0.47003 0.0
H299 H 0.64499 0.20674 0.47273 0.0
H300 H 0.37241 0.87235 0.47118 0.0
Co301 Co 0.56015 0.62832 1.0004 0.0
N302 N 0.59475 0.64971 0.99982 0.0
C303 C 0.60641 0.66441 0.97934 0.0
N304 N 0.63519 0.68316 1.0067 0.0
C305 C 0.61282 0.66233 0.01638 0.0
C306 C 0.63116 0.68482 0.98348 0.0
Co307 Co 0.45838 0.42214 1.00174 0.0
N308 N 0.42341 0.40341 1.00247 0.0
N309 N 0.38232 0.38115 1.01147 0.0
C310 C 0.38403 0.39069 0.98823 0.0
C311 C 0.40918 0.40332 0.98274 0.0
C312 C 0.40645 0.38848 0.01985 0.0
Co313 Co 0.50959 0.52456 1.00368 0.0
C314 C 0.48996 0.37815 0.01657 0.0
H315 H 0.41665 0.41235 0.96534 0.0
O316 O 0.52659 0.61782 1.0021 0.0
O317 O 0.48582 0.55832 0.02987 0.0
O318 O 0.53375 0.49174 0.02959 0.0
O319 O 0.53338 0.48688 0.9782 0.0
O320 O 0.56586 0.56075 0.97763 0.0
O321 O 0.45381 0.48414 0.02578 0.0
O322 O 0.49226 0.43114 1.0024 0.0
O323 O 0.4522 0.49199 0.97992 0.0
O324 O 0.56614 0.56461 0.02424 0.0
O325 O 0.55204 0.68987 0.02164 0.0
O326 O 0.48571 0.56213 0.97826 0.0
O327 O 0.46691 0.35903 0.0223 0.0
C328 C 0.55595 0.51531 0.03521 0.0
C329 C 0.41329 0.38003 0.04526 0.0
H330 H 0.43189 0.40318 0.04984 0.0
H331 H 0.39807 0.40251 0.05649 0.0
H332 H 0.41453 0.32466 0.04936 0.0
C333 C 0.46402 0.53386 0.03627 0.0
C334 C 0.55499 0.50725 0.96993 0.0
H335 H 0.5971 0.6628 0.96244 0.0
H336 H 0.61545 0.70898 0.05029 0.0
H337 H 0.6193 0.61837 0.05014 0.0
H338 H 0.58777 0.65481 0.047 0.0
C339 C 0.6082 0.66101 0.04234 0.0
C340 C 0.52896 0.67035 0.01636 0.0
C341 C 0.4632 0.5444 0.97153 0.0
H342 H 0.645 0.70128 0.9705 0.0
H343 H 0.36815 0.38801 0.97605 0.0
C344 C 0.05789 1.01338 0.08067 0.0
C345 C 0.06903 0.99748 0.05893 0.0
C346 C 0.07337 0.02585 0.10045 0.0
C347 C 0.14244 1.02506 0.12236 0.0
H348 H 0.11837 0.17879 0.15895 0.0
C349 C 0.20346 0.14907 0.19835 0.0
C350 C 0.20079 0.22013 0.20169 0.0
C351 C 0.18773 0.11395 0.18215 0.0
C352 C 0.12567 0.1362 0.14884 0.0
H353 H 0.10514 0.97788 0.0415 0.0
H354 H 0.13187 0.99806 0.07555 0.0
H355 H 0.09045 0.12842 0.12988 0.0
H356 H 0.18028 0.30982 0.18938 0.0
H357 H 0.15391 0.2502 0.16125 0.0
H358 H 0.17821 0.03547 0.14073 0.0
C359 C 0.11127 1.00049 0.07778 0.0
C360 C 0.10928 0.10611 0.1323 0.0
C361 C 0.09582 0.9881 0.0581 0.0
C362 C 0.18272 0.25505 0.18774 0.0
C363 C 0.16729 0.22042 0.17159 0.0
C364 C 0.15895 0.05554 0.13888 0.0
C365 C 0.10047 1.02315 0.09903 0.0
C366 C 0.11738 0.05044 0.11847 0.0
C367 C 0.16899 0.149 0.16878 0.0
C368 C 0.15102 0.11255 0.15215 0.0
H369 H 0.03743 1.02277 0.08186 0.0
H370 H 0.06405 0.04118 0.11655 0.0
H371 H 0.14953 0.98181 0.11246 0.0
H372 H 0.21703 0.12023 0.2088 0.0
H373 H 0.18977 0.05903 0.18066 0.0
C374 C 0.9607 0.03184 0.07988 0.0
C375 C 0.95079 0.05559 0.05847 0.0
C376 C 0.94432 1.01825 0.09898 0.0
C377 C 0.87511 0.9755 0.11038 0.0
H378 H 0.89678 0.97539 0.1752 0.0
C379 C 0.8085 0.88149 0.18732 0.0
C380 C 0.82043 0.83802 0.20374 0.0
C381 C 0.82321 0.9168 0.17034 0.0
C382 C 0.89037 0.97478 0.15717 0.0
H383 H 0.91597 0.08715 0.04094 0.0
H384 H 0.88778 0.06798 0.07437 0.0
H385 H 0.9247 1.02429 0.1453 0.0
H386 H 0.8575 0.80058 0.2155 0.0
H387 H 0.88262 0.86142 0.1865 0.0
H388 H 0.84079 0.92562 0.1224 0.0
C389 C 0.90807 0.05782 0.07643 0.0
C390 C 0.90652 1.00282 0.1399 0.0
C391 C 0.9244 0.0708 0.05736 0.0
C392 C 0.84742 0.83272 0.20307 0.0
C393 C 0.862 0.8684 0.18647 0.0
C394 C 0.85887 0.94793 0.12771 0.0
C395 C 0.9175 0.02818 0.09724 0.0
C396 C 0.89939 1.00295 0.1161 0.0
C397 C 0.85025 0.91065 0.16966 0.0
C398 C 0.8664 0.94607 0.15136 0.0
H399 H 0.9807 1.01695 0.08111 0.0
H400 H 0.95255 0.99508 0.11447 0.0
H401 H 0.86888 0.97297 0.09233 0.0
H402 H 0.78782 0.88705 0.18725 0.0
H403 H 0.81341 0.94917 0.1578 0.0
C404 C 0.06554 0.39701 0.44748 0.0
C405 C 0.06866 0.46776 0.45118 0.0
C406 C 0.08112 0.36168 0.43117 0.0
C407 C 0.14354 0.38147 0.39828 0.0
H408 H 0.11862 0.23143 0.36055 0.0
C409 C 0.21074 0.25839 0.32947 0.0
C410 C 0.19964 0.24539 0.30752 0.0
C411 C 0.19521 0.27052 0.34928 0.0
C412 C 0.12601 0.27342 0.37083 0.0
H413 H 0.08987 0.55673 0.43939 0.0
H414 H 0.11604 0.49674 0.4111 0.0
H415 H 0.0902 0.2852 0.38913 0.0
H416 H 0.16352 0.23015 0.28969 0.0
H417 H 0.13668 0.24967 0.3238 0.0
H418 H 0.17884 0.37238 0.37943 0.0
C419 C 0.10238 0.46734 0.42123 0.0
C420 C 0.10965 0.30395 0.38753 0.0
C421 C 0.08707 0.50219 0.43748 0.0
C422 C 0.17278 0.23834 0.30643 0.0
C423 C 0.15728 0.25026 0.32615 0.0
C424 C 0.1598 0.35131 0.38158 0.0
C425 C 0.10018 0.39619 0.41805 0.0
C426 C 0.11798 0.35946 0.40128 0.0
C427 C 0.16811 0.27019 0.34767 0.0
C428 C 0.15131 0.29725 0.36726 0.0
H429 H 0.05169 0.36854 0.45773 0.0
H430 H 0.07871 0.30696 0.42938 0.0
H431 H 0.15112 0.42285 0.40875 0.0
H432 H 0.23128 0.26576 0.33089 0.0
H433 H 0.20452 0.28367 0.36558 0.0
C434 C 0.84522 0.81322 0.30772 0.0
C435 C 0.81853 0.80172 0.30825 0.0
C436 C 0.86072 0.79867 0.32724 0.0
C437 C 0.86112 0.67915 0.37735 0.0
H438 H 0.92324 0.77314 0.39597 0.0
C439 C 0.92103 0.57716 0.45476 0.0
C440 C 0.948 0.58188 0.45441 0.0
C441 C 0.90586 0.61097 0.43815 0.0
C442 C 0.90615 0.74561 0.39087 0.0
H443 H 0.78721 0.76898 0.3304 0.0
H444 H 0.81402 0.74525 0.36468 0.0
H445 H 0.89526 0.82362 0.36613 0.0
H446 H 0.97998 0.62874 0.43634 0.0
H447 H 0.95347 0.68679 0.40669 0.0
H448 H 0.87213 0.60008 0.40117 0.0
C449 C 0.82306 0.76527 0.34903 0.0
C450 C 0.88995 0.77493 0.37377 0.0
C451 C 0.80752 0.78056 0.32953 0.0
C452 C 0.95931 0.62368 0.43717 0.0
C453 C 0.944 0.65718 0.42018 0.0
C454 C 0.87735 0.64963 0.39419 0.0
C455 C 0.85005 0.77119 0.34784 0.0
C456 C 0.86704 0.74234 0.36685 0.0
C457 C 0.91695 0.6504 0.42015 0.0
C458 C 0.9001 0.68239 0.40148 0.0
H459 H 0.85446 0.82719 0.2914 0.0
H460 H 0.88132 0.8036 0.32543 0.0
H461 H 0.84415 0.65123 0.3721 0.0
H462 H 0.91142 0.54697 0.46804 0.0
H463 H 0.88523 0.60593 0.43955 0.0
C464 C 0.05856 0.50829 0.57903 0.0
C465 C 0.0698 0.49373 0.55722 0.0
C466 C 0.07397 0.52107 0.59882 0.0
C467 C 0.14276 0.52208 0.62099 0.0
H468 H 0.11836 0.67704 0.65683 0.0
C469 C 0.20227 0.64748 0.69766 0.0
C470 C 0.19999 0.71887 0.70036 0.0
C471 C 0.18681 0.61202 0.68137 0.0
C472 C 0.1257 0.63403 0.64696 0.0
H473 H 0.106 0.47634 0.53967 0.0
H474 H 0.13264 0.49666 0.57384 0.0
H475 H 0.09068 0.62567 0.6277 0.0
H476 H 0.18072 0.80873 0.68668 0.0
H477 H 0.15455 0.7483 0.65853 0.0
H478 H 0.17829 0.53283 0.63974 0.0
C479 C 0.11202 0.49812 0.57604 0.0
C480 C 0.10949 0.60347 0.63038 0.0
C481 C 0.09664 0.48571 0.55631 0.0
C482 C 0.18267 0.75374 0.68564 0.0
C483 C 0.16743 0.7187 0.66944 0.0
C484 C 0.15905 0.55289 0.63761 0.0
C485 C 0.10106 0.51969 0.59735 0.0
C486 C 0.11776 0.54741 0.61682 0.0
C487 C 0.16872 0.64704 0.66729 0.0
C488 C 0.15097 0.61028 0.6506 0.0
H489 H 0.03804 0.51646 0.5803 0.0
H490 H 0.06459 0.53561 0.61498 0.0
H491 H 0.14993 0.47864 0.61125 0.0
H492 H 0.2153 0.61872 0.7087 0.0
H493 H 0.18849 0.55691 0.68035 0.0
C494 C 0.81927 0.39767 0.70073 0.0
C495 C 0.81875 0.32563 0.7014 0.0
C496 C 0.83442 0.43251 0.68402 0.0
C497 C 0.86221 0.41653 0.62531 0.0
H498 H 0.9158 0.54207 0.64437 0.0
C499 C 0.92243 0.55722 0.55594 0.0
C500 C 0.94918 0.54836 0.55787 0.0
C501 C 0.90603 0.54318 0.57483 0.0
C502 C 0.90085 0.5074 0.63874 0.0
H503 H 0.83331 0.23426 0.68452 0.0
H504 H 0.85849 0.29468 0.65493 0.0
H505 H 0.8872 0.49106 0.67397 0.0
H506 H 0.97959 0.52185 0.58198 0.0
H507 H 0.95101 0.50029 0.61543 0.0
H508 H 0.87541 0.43275 0.59023 0.0
C509 C 0.84764 0.32431 0.66754 0.0
C510 C 0.88436 0.47851 0.65569 0.0
C511 C 0.83316 0.28967 0.68454 0.0
C512 C 0.95923 0.5315 0.58002 0.0
C513 C 0.94274 0.51796 0.59912 0.0
C514 C 0.8782 0.44656 0.60839 0.0
C515 C 0.8488 0.39615 0.66719 0.0
C516 C 0.86504 0.43191 0.64921 0.0
C517 C 0.91582 0.52021 0.59641 0.0
C518 C 0.898 0.49187 0.6148 0.0
H519 H 0.80866 0.42701 0.71358 0.0
H520 H 0.83481 0.48789 0.68417 0.0
H521 H 0.84758 0.38089 0.61968 0.0
H522 H 0.91395 0.56834 0.53904 0.0
H523 H 0.88551 0.54647 0.5721 0.0
C524 C 0.17223 0.73718 0.80613 0.0
C525 C 0.19905 0.74642 0.80676 0.0
C526 C 0.15684 0.75154 0.82576 0.0
C527 C 0.15746 0.86764 0.87658 0.0
H528 H 0.09484 0.77553 0.89514 0.0
C529 C 0.09848 0.96909 0.9547 0.0
C530 C 0.07149 0.96468 0.95467 0.0
C531 C 0.11339 0.93548 0.93786 0.0
C532 C 0.11207 0.80259 0.89006 0.0
H533 H 0.23066 0.77495 0.82916 0.0
H534 H 0.204 0.79871 0.86356 0.0
H535 H 0.12229 0.7255 0.86481 0.0
H536 H 0.03922 0.9189 0.93681 0.0
H537 H 0.06525 0.86145 0.90674 0.0
H538 H 0.1471 0.94596 0.90083 0.0
C539 C 0.19479 0.78047 0.84778 0.0
C540 C 0.12797 0.77348 0.87268 0.0
C541 C 0.21023 0.76522 0.82819 0.0
C542 C 0.05991 0.92362 0.93744 0.0
C543 C 0.07496 0.89043 0.9202 0.0
C544 C 0.14151 0.89702 0.89366 0.0
C545 C 0.16776 0.7767 0.84655 0.0
C546 C 0.15105 0.80534 0.86579 0.0
C547 C 0.10203 0.89673 0.91989 0.0
C548 C 0.11859 0.86494 0.90096 0.0
H549 H 0.16289 0.72495 0.78973 0.0
H550 H 0.1362 0.7483 0.82394 0.0
H551 H 0.17459 0.89499 0.87136 0.0
H552 H 0.10829 0.99898 0.96789 0.0
H553 H 0.13404 0.94017 0.93906 0.0
C554 C 0.84582 0.31708 0.80646 0.0
C555 C 0.8196 0.30029 0.8076 0.0
C556 C 0.86215 0.30607 0.82569 0.0
C557 C 0.86379 0.2531 0.88933 0.0
H558 H 0.92985 0.1761 0.87229 0.0
C559 C 0.92258 0.08451 0.95316 0.0
C560 C 0.94955 0.08978 0.95399 0.0
C561 C 0.90812 0.11989 0.93638 0.0
C562 C 0.91168 0.19839 0.87747 0.0
H563 H 0.78992 0.26104 0.83035 0.0
H564 H 0.81808 0.24181 0.86384 0.0
H565 H 0.90181 0.22251 0.84197 0.0
H566 H 0.98227 0.13841 0.9376 0.0
H567 H 0.9569 0.20003 0.90784 0.0
H568 H 0.87337 0.22666 0.92474 0.0
C569 C 0.82618 0.26494 0.84828 0.0
C570 C 0.89548 0.2254 0.86 0.0
C571 C 0.80979 0.27685 0.82909 0.0
C572 C 0.9616 0.1329 0.93755 0.0
C573 C 0.94702 0.16791 0.92039 0.0
C574 C 0.8799 0.22567 0.90674 0.0
C575 C 0.85288 0.27647 0.84658 0.0
C576 C 0.87107 0.2526 0.86556 0.0
C577 C 0.92 0.1618 0.91956 0.0
C578 C 0.90397 0.19694 0.9011 0.0
H579 H 0.85416 0.33339 0.78999 0.0
H580 H 0.88236 0.31732 0.82366 0.0
H581 H 0.8455 0.27445 0.89459 0.0
H582 H 0.91241 0.05262 0.96559 0.0
H583 H 0.88751 0.11293 0.9363 0.0
C584 C 0.7013 0.14459 0.7002 0.0
C585 C 0.70266 0.21656 0.70011 0.0
C586 C 0.68633 0.10964 0.68345 0.0
C587 C 0.6594 0.12443 0.62403 0.0
H588 H 0.60521 1.00153 0.64393 0.0
C589 C 0.59762 0.98529 0.55566 0.0
C590 C 0.57106 0.9973 0.5577 0.0
C591 C 0.61429 0.99758 0.57449 0.0
C592 C 0.62035 0.03538 0.63807 0.0
H593 H 0.68988 0.3076 0.68181 0.0
H594 H 0.66499 0.24691 0.65222 0.0
H595 H 0.63418 0.05223 0.67314 0.0
H596 H 0.54118 0.02761 0.58184 0.0
H597 H 0.57018 0.04717 0.61501 0.0
H598 H 0.64583 0.10796 0.58907 0.0
C599 C 0.67506 0.21741 0.66541 0.0
C600 C 0.63705 0.06412 0.65481 0.0
C601 C 0.68937 0.25223 0.68242 0.0
C602 C 0.56137 1.01574 0.57982 0.0
C603 C 0.57811 0.02799 0.59877 0.0
C604 C 0.64316 0.09458 0.60732 0.0
C605 C 0.67297 0.14572 0.66584 0.0
C606 C 0.65658 0.10987 0.64803 0.0
C607 C 0.60494 1.02257 0.59595 0.0
C608 C 0.62317 0.0502 0.61405 0.0
H609 H 0.71103 0.11551 0.7137 0.0
H610 H 0.68521 0.05438 0.68424 0.0
H611 H 0.67418 0.15939 0.61815 0.0
H612 H 0.60584 0.97285 0.53876 0.0
H613 H 0.63475 0.99197 0.57171 0.0
C614 C 0.42175 0.05616 0.55528 0.0
C615 C 0.44869 0.05143 0.55675 0.0
C616 C 0.40611 0.04342 0.57482 0.0
C617 C 0.40855 0.94364 0.63038 0.0
H618 H 0.33898 1.01068 0.63805 0.0
C619 C 0.33518 0.79228 0.68535 0.0
C620 C 0.31752 0.8269 0.6998 0.0
C621 C 0.3505 0.82742 0.66917 0.0
C622 C 0.35842 0.99168 0.63638 0.0
H623 H 0.48019 0.03401 0.58061 0.0
H624 H 0.45307 1.01463 0.61503 0.0
H625 H 0.36743 0.06434 0.60936 0.0
H626 H 0.3017 0.92678 0.70762 0.0
H627 H 0.32857 0.98876 0.6792 0.0
H628 H 0.39973 0.8714 0.6574 0.0
C629 C 0.4439 0.02682 0.59855 0.0
C630 C 0.37477 1.02216 0.61968 0.0
C631 C 0.4596 0.03973 0.5789 0.0
C632 C 0.31498 0.89818 0.69681 0.0
C633 C 0.33048 0.93374 0.68049 0.0
C634 C 0.39225 0.91329 0.64701 0.0
C635 C 0.41685 1.02522 0.59659 0.0
C636 C 0.40006 0.99804 0.61612 0.0
C637 C 0.34891 0.89895 0.66673 0.0
C638 C 0.36673 0.93577 0.65004 0.0
H639 H 0.41266 0.06328 0.53839 0.0
H640 H 0.38554 0.04237 0.57226 0.0
H641 H 0.42761 0.9225 0.6282 0.0
H642 H 0.33735 0.73739 0.68658 0.0
H643 H 0.36368 0.79804 0.65851 0.0
C644 C 0.58791 0.50207 0.93778 0.0
C645 C 0.56888 0.46848 0.95102 0.0
C646 C 0.60299 0.46693 0.92143 0.0
C647 C 0.6085 0.3056 0.8864 0.0
H648 H 0.67857 0.36847 0.87931 0.0
C649 C 0.67123 0.2407 0.805 0.0
C650 C 0.69817 0.24514 0.80622 0.0
C651 C 0.6558 0.25279 0.82474 0.0
C652 C 0.65926 0.34894 0.88116 0.0
H653 H 0.55059 0.37044 0.95663 0.0
H654 H 0.57722 0.30831 0.92809 0.0
H655 H 0.65128 0.41893 0.90898 0.0
H656 H 0.72995 0.26087 0.82987 0.0
H657 H 0.70325 0.27895 0.8646 0.0
H658 H 0.61676 0.23458 0.85876 0.0
C659 C 0.5803 0.36263 0.93035 0.0
C660 C 0.64327 0.37912 0.89807 0.0
C661 C 0.56495 0.39828 0.94677 0.0
C662 C 0.70933 0.25567 0.82831 0.0
C663 C 0.69386 0.26787 0.84816 0.0
C664 C 0.6246 0.27503 0.86949 0.0
C665 C 0.59993 0.39627 0.91767 0.0
C666 C 0.61741 0.35918 0.90071 0.0
C667 C 0.66677 0.27009 0.84647 0.0
C668 C 0.6502 0.29692 0.86627 0.0
H669 H 0.59137 0.55619 0.94011 0.0
H670 H 0.61714 0.49575 0.91166 0.0
H671 H 0.58881 0.28847 0.88771 0.0
H672 H 0.66194 0.23425 0.78818 0.0
H673 H 0.63521 0.25421 0.82231 0.0
C674 C 0.45966 0.62474 0.9362 0.0
C675 C 0.44814 0.58573 0.95408 0.0
C676 C 0.44448 0.65751 0.91895 0.0
C677 C 0.37737 0.65239 0.89379 0.0
H678 H 0.3972 0.82049 0.86276 0.0
C679 C 0.30854 0.78144 0.82765 0.0
C680 C 0.31959 0.79866 0.80597 0.0
C681 C 0.32411 0.76694 0.84722 0.0
C682 C 0.39135 0.77345 0.87123 0.0
H683 H 0.41141 0.555 0.96851 0.0
H684 H 0.38546 0.61301 0.93959 0.0
H685 H 0.42487 0.77164 0.89315 0.0
H686 H 0.35566 0.81805 0.78842 0.0
H687 H 0.38259 0.79586 0.82253 0.0
H688 H 0.34393 0.65409 0.872 0.0
C689 C 0.4061 0.61631 0.93791 0.0
C690 C 0.40736 0.74503 0.88865 0.0
C691 C 0.42114 0.58313 0.95478 0.0
C692 C 0.34643 0.80701 0.80501 0.0
C693 C 0.36195 0.79336 0.82459 0.0
C694 C 0.36132 0.68107 0.87663 0.0
C695 C 0.41737 0.65283 0.91928 0.0
C696 C 0.40064 0.68392 0.90033 0.0
C697 C 0.35115 0.76985 0.84571 0.0
C698 C 0.36795 0.74211 0.86504 0.0
H699 H 0.48036 0.62801 0.93507 0.0
H700 H 0.4541 0.68479 0.90498 0.0
H701 H 0.37159 0.60436 0.9016 0.0
H702 H 0.28808 0.77247 0.82891 0.0
H703 H 0.31497 0.75004 0.86325 0.0
C704 C 0.55806 0.52042 0.07875 0.0
C705 C 0.56901 0.4979 0.05762 0.0
C706 C 0.57358 0.53492 0.09828 0.0
C707 C 0.64014 0.52152 0.12364 0.0
H708 H 0.62325 0.69844 0.14987 0.0
C709 C 0.70943 0.67078 0.18745 0.0
C710 C 0.69805 0.71359 0.20436 0.0
C711 C 0.69425 0.63764 0.17035 0.0
C712 C 0.6282 0.64832 0.14322 0.0
H713 H 0.60475 0.46877 0.04112 0.0
H714 H 0.63157 0.49056 0.07534 0.0
H715 H 0.59535 0.6481 0.12072 0.0
H716 H 0.66139 0.75095 0.21715 0.0
H717 H 0.63545 0.69257 0.18851 0.0
H718 H 0.67311 0.52202 0.14628 0.0
C719 C 0.61103 0.49741 0.07695 0.0
C720 C 0.61201 0.61925 0.12633 0.0
C721 C 0.59555 0.48399 0.05732 0.0
C722 C 0.6711 0.71978 0.20421 0.0
C723 C 0.65606 0.68636 0.18748 0.0
C724 C 0.65631 0.55043 0.1408 0.0
C725 C 0.6005 0.52671 0.09732 0.0
C726 C 0.61757 0.55526 0.11627 0.0
C727 C 0.66725 0.64586 0.16984 0.0
C728 C 0.65056 0.61436 0.15102 0.0
H729 H 0.53786 0.53357 0.07945 0.0
H730 H 0.56461 0.55615 0.11376 0.0
H731 H 0.64518 0.47222 0.11633 0.0
H732 H 0.73008 0.66455 0.18699 0.0
H733 H 0.7038 0.60715 0.15715 0.0
C734 C 0.34795 0.3279 0.20315 0.0
C735 C 0.32101 0.3345 0.20415 0.0
C736 C 0.36255 0.36337 0.18649 0.0
C737 C 0.35922 0.44464 0.12804 0.0
H738 H 0.42542 0.51923 0.14536 0.0
C739 C 0.42446 0.56789 0.05751 0.0
C740 C 0.45084 0.55257 0.05846 0.0
C741 C 0.40824 0.55468 0.07666 0.0
C742 C 0.40714 0.49824 0.14003 0.0
H743 H 0.28852 0.38551 0.18818 0.0
H744 H 0.31411 0.44715 0.15861 0.0
H745 H 0.39765 0.46998 0.17531 0.0
H746 H 0.48086 0.51338 0.08085 0.0
H747 H 0.45293 0.49104 0.11432 0.0
H748 H 0.36897 0.47038 0.09266 0.0
C749 C 0.32386 0.41398 0.17094 0.0
C750 C 0.39108 0.47002 0.15734 0.0
C751 C 0.30916 0.37893 0.18798 0.0
C752 C 0.46087 0.52841 0.07977 0.0
C753 C 0.44461 0.51455 0.09893 0.0
C754 C 0.37538 0.47233 0.11067 0.0
C755 C 0.35084 0.40664 0.16995 0.0
C756 C 0.36696 0.44202 0.15162 0.0
C757 C 0.41779 0.52463 0.09736 0.0
C758 C 0.39978 0.49918 0.11629 0.0
H759 H 0.35798 0.29498 0.21536 0.0
H760 H 0.38312 0.35551 0.18627 0.0
H761 H 0.34101 0.42288 0.12281 0.0
H762 H 0.41593 0.58452 0.04117 0.0
H763 H 0.38794 0.56501 0.07472 0.0
C764 C 0.58889 1.00673 0.43881 0.0
C765 C 0.5703 0.97235 0.45233 0.0
C766 C 0.60426 0.97188 0.42259 0.0
C767 C 0.61147 0.8077 0.38903 0.0
H768 H 0.68038 0.87718 0.38007 0.0
C769 C 0.67402 0.73795 0.30797 0.0
C770 C 0.70084 0.7464 0.30863 0.0
C771 C 0.65872 0.75086 0.32774 0.0
C772 C 0.66142 0.85578 0.38246 0.0
H773 H 0.55319 0.87318 0.45866 0.0
H774 H 0.58036 0.81164 0.43048 0.0
H775 H 0.65282 0.92819 0.40938 0.0
H776 H 0.73265 0.77051 0.33137 0.0
H777 H 0.7063 0.78968 0.36624 0.0
H778 H 0.62042 0.73405 0.36242 0.0
C779 C 0.58283 0.86632 0.43231 0.0
C780 C 0.64523 0.8863 0.39915 0.0
C781 C 0.56716 0.90164 0.44855 0.0
C782 C 0.71216 0.76184 0.3303 0.0
C783 C 0.69683 0.77479 0.35019 0.0
C784 C 0.62778 0.77672 0.37239 0.0
C785 C 0.60199 0.90077 0.41929 0.0
C786 C 0.61975 0.86392 0.40246 0.0
C787 C 0.66971 0.77309 0.34894 0.0
C788 C 0.65298 0.80087 0.3685 0.0
H789 H 0.59175 0.06123 0.44082 0.0
H790 H 0.61799 1.00132 0.41255 0.0
H791 H 0.59209 0.78859 0.39084 0.0
H792 H 0.66457 0.72808 0.29142 0.0
H793 H 0.6381 0.74916 0.32562 0.0
C794 C 0.45348 0.14904 0.44856 0.0
C795 C 0.45198 0.0774 0.45096 0.0
C796 C 0.43778 0.18414 0.43227 0.0
C797 C 0.37706 0.15978 0.39766 0.0
H798 H 0.39996 0.31698 0.36207 0.0
C799 C 0.30875 0.28592 0.33022 0.0
C800 C 0.31979 0.3011 0.30837 0.0
C801 C 0.32435 0.27263 0.3499 0.0
C802 C 0.39315 0.27306 0.37181 0.0
H803 H 0.43388 0.98686 0.43674 0.0
H804 H 0.40725 0.04676 0.40865 0.0
H805 H 0.42878 0.2637 0.39054 0.0
H806 H 0.35586 0.31819 0.29057 0.0
H807 H 0.3828 0.29672 0.32449 0.0
H808 H 0.34191 0.16701 0.37847 0.0
C809 C 0.41973 0.0767 0.41976 0.0
C810 C 0.40972 0.24276 0.38839 0.0
C811 C 0.43523 0.04201 0.43593 0.0
C812 C 0.34664 0.30865 0.30727 0.0
C813 C 0.3622 0.29549 0.32683 0.0
C814 C 0.36056 0.18995 0.38115 0.0
C815 C 0.42021 0.1485 0.41794 0.0
C816 C 0.40212 0.18473 0.40132 0.0
C817 C 0.35143 0.27401 0.34824 0.0
C818 C 0.36836 0.24662 0.36765 0.0
H819 H 0.46603 0.1782 0.45986 0.0
H820 H 0.43884 0.23939 0.43148 0.0
H821 H 0.37011 0.11617 0.40748 0.0
H822 H 0.28825 0.27773 0.33161 0.0
H823 H 0.31514 0.25777 0.36611 0.0
C824 C 0.01003 0.78414 0.03804 0.0
C825 C 1.00778 0.82156 0.01707 0.0
C826 C 0.01307 0.71266 0.03781 0.0
C827 C 0.02327 0.55863 0.99884 0.0
H828 H 0.98137 0.4692 0.04589 0.0
C829 C 1.0066 0.26521 0.9955 0.0
C830 C 0.01095 0.23053 0.01676 0.0
C831 C 1.00321 0.33677 0.99503 0.0
C832 C 0.9933 0.49296 0.03266 0.0
H833 H 0.00957 0.81289 0.97937 0.0
H834 H 0.01533 0.6891 0.97883 0.0
H835 H 0.98609 0.59296 0.04642 0.0
H836 H 0.01231 0.24365 0.05429 0.0
H837 H 1.00519 0.36674 0.05368 0.0
H838 H 0.03029 0.45824 0.98503 0.0
C839 C 0.0147 0.71457 0.99563 0.0
C840 C 0.99622 0.56449 0.03305 0.0
C841 C 0.01187 0.78632 0.9959 0.0
C842 C 1.00839 0.26815 0.03763 0.0
C843 C 1.00477 0.33944 0.03721 0.0
C844 C 0.02026 0.487 0.9984 0.0
C845 C 0.01383 0.67605 0.01656 0.0
C846 C 0.01142 0.59882 0.01626 0.0
C847 C 1.00364 0.37554 0.01585 0.0
C848 C 1.00531 0.45276 0.01537 0.0
H849 H 1.00651 0.80918 0.05465 0.0
H850 H 0.01325 0.68578 0.05439 0.0
H851 H 0.0353 0.58229 0.98567 0.0
H852 H 1.00901 0.23849 0.97903 0.0
H853 H 1.00175 0.36213 0.97821 0.0
C854 C 0.2614 0.51593 0.28854 0.0
C855 C 0.2593 0.47818 0.26766 0.0
C856 C 0.2648 0.58725 0.28811 0.0
C857 C 0.24943 0.73429 0.24905 0.0
H858 H 0.28278 0.841 0.29721 0.0
C859 C 0.25743 0.03341 0.24615 0.0
C860 C 0.26133 0.06889 0.26727 0.0
C861 C 0.25458 0.9617 0.24598 0.0
C862 C 0.27287 0.81231 0.2838 0.0
H863 H 0.26184 0.48593 0.22995 0.0
H864 H 0.26871 0.60965 0.22913 0.0
H865 H 0.28781 0.71726 0.29686 0.0
H866 H 0.26213 0.05716 0.30488 0.0
H867 H 0.25535 0.93383 0.30481 0.0
H868 H 0.23429 0.82931 0.23609 0.0
C869 C 0.26706 0.58435 0.24594 0.0
C870 C 0.27598 0.74081 0.28352 0.0
C871 C 0.26388 0.51278 0.24642 0.0
C872 C 0.25877 0.03189 0.2883 0.0
C873 C 0.25571 0.96045 0.28818 0.0
C874 C 0.24623 0.80588 0.24938 0.0
C875 C 0.26617 0.62321 0.26673 0.0
C876 C 0.26428 0.70037 0.26617 0.0
C877 C 0.25524 0.92353 0.26699 0.0
C878 C 0.25778 0.84633 0.26685 0.0
H879 H 0.25731 0.49147 0.30517 0.0
H880 H 0.26405 0.61466 0.30455 0.0
H881 H 0.23963 0.70531 0.23564 0.0
H882 H 0.25996 0.05965 0.22959 0.0
H883 H 0.25415 0.93599 0.22923 0.0
C884 C 0.76148 1.01625 0.28707 0.0
C885 C 0.75891 0.9786 0.26622 0.0
C886 C 0.76507 0.08752 0.28662 0.0
C887 C 0.7495 0.23506 0.24777 0.0
H888 H 0.78354 0.34094 0.29574 0.0
C889 C 0.75779 0.53434 0.24521 0.0
C890 C 0.76181 0.56956 0.26637 0.0
C891 C 0.75497 0.4626 0.24494 0.0
C892 C 0.77345 0.3125 0.28238 0.0
H893 H 0.76081 0.98641 0.22849 0.0
H894 H 0.76803 0.10999 0.2276 0.0
H895 H 0.78835 0.21715 0.29522 0.0
H896 H 0.76296 0.55722 0.30395 0.0
H897 H 0.75625 0.43387 0.30371 0.0
H898 H 0.73442 0.33042 0.23503 0.0
C899 C 0.7666 0.0847 0.24443 0.0
C900 C 0.77642 0.24095 0.282 0.0
C901 C 0.76324 1.01317 0.24493 0.0
C902 C 0.75949 0.53219 0.28735 0.0
C903 C 0.75646 0.46074 0.28713 0.0
C904 C 0.74645 0.30672 0.24819 0.0
C905 C 0.76616 0.12355 0.26523 0.0
C906 C 0.76446 0.20078 0.26473 0.0
C907 C 0.75579 0.42411 0.26588 0.0
C908 C 0.75825 0.34687 0.2656 0.0
H909 H 0.75759 0.99185 0.30375 0.0
H910 H 0.76465 0.11487 0.30307 0.0
H911 H 0.7395 0.20634 0.23441 0.0
H912 H 0.76014 0.56086 0.22868 0.0
H913 H 0.75439 0.43712 0.22815 0.0
C914 C 1.0061 0.76156 0.49635 0.0
C915 C 0.01018 0.72603 0.51749 0.0
C916 C 1.00337 0.83332 0.49611 0.0
C917 C 0.02232 0.98232 0.53354 0.0
H918 H 0.98877 0.08994 0.4855 0.0
C919 C 0.01123 0.27891 0.53787 0.0
C920 C 1.00889 0.31654 0.51694 0.0
C921 C 0.01464 0.20755 0.53754 0.0
C922 C 0.99866 0.06077 0.49887 0.0
H923 H 0.01136 0.73778 0.55508 0.0
H924 H 1.00477 0.86125 0.55489 0.0
H925 H 0.9832 0.96608 0.48621 0.0
H926 H 0.01102 0.30858 0.47923 0.0
H927 H 0.01795 0.18486 0.47857 0.0
H928 H 0.03758 0.07707 0.54631 0.0
C929 C 1.00492 0.83459 0.5383 0.0
C930 C 0.99532 0.98927 0.49935 0.0
C931 C 1.00787 0.76309 0.53849 0.0
C932 C 0.01329 0.28183 0.49573 0.0
C933 C 0.01648 0.21024 0.49535 0.0
C934 C 0.02556 0.05374 0.53311 0.0
C935 C 1.0043 0.87149 0.51706 0.0
C936 C 1.00699 0.94861 0.51678 0.0
C937 C 0.01577 0.17149 0.51621 0.0
C938 C 0.01376 0.09438 0.5158 0.0
H939 H 1.00841 0.73525 0.4798 0.0
H940 H 1.00282 0.85903 0.47932 0.0
H941 H 0.03232 0.95344 0.54691 0.0
H942 H 1.00728 0.30347 0.55448 0.0
H943 H 0.01403 0.18022 0.55403 0.0
C944 C 0.26219 1.01243 0.74563 0.0
C945 C 0.25765 0.97755 0.76682 0.0
C946 C 0.26534 0.084 0.74526 0.0
C947 C 0.2745 0.23992 0.78293 0.0
H948 H 0.23233 0.3289 0.73596 0.0
C949 C 0.25789 0.53121 0.78789 0.0
C950 C 0.26004 0.56814 0.76681 0.0
C951 C 0.25473 0.45981 0.78783 0.0
C952 C 0.24441 0.30535 0.74912 0.0
H953 H 0.25558 0.99035 0.80435 0.0
H954 H 0.2623 0.11361 0.8039 0.0
H955 H 0.2376 0.20489 0.73536 0.0
H956 H 0.25789 0.55886 0.72915 0.0
H957 H 0.25199 0.43528 0.72891 0.0
H958 H 0.28157 0.33997 0.7966 0.0
C959 C 0.26306 0.08638 0.78743 0.0
C960 C 0.24756 0.23376 0.7487 0.0
C961 C 0.25967 1.01505 0.78776 0.0
C962 C 0.25569 0.53266 0.74576 0.0
C963 C 0.25277 0.46099 0.74566 0.0
C964 C 0.27147 0.31144 0.78328 0.0
C965 C 0.26445 0.12257 0.76611 0.0
C966 C 0.26259 0.19969 0.76565 0.0
C967 C 0.25378 0.42285 0.76666 0.0
C968 C 0.25622 0.34564 0.76648 0.0
H969 H 0.26016 0.98579 0.72912 0.0
H970 H 0.26698 0.10952 0.72849 0.0
H971 H 0.28645 0.21619 0.79615 0.0
H972 H 0.26158 0.5565 0.8044 0.0
H973 H 0.25464 0.43324 0.80447 0.0
C974 C 0.75946 0.51395 0.7886 0.0
C975 C 0.75817 0.47661 0.76758 0.0
C976 C 0.76291 0.58528 0.78845 0.0
C977 C 0.74877 0.73307 0.74948 0.0
H978 H 0.78142 0.83881 0.79828 0.0
C979 C 0.75685 0.03204 0.74688 0.0
C980 C 0.76078 0.06751 0.76801 0.0
C981 C 0.75398 0.96035 0.74671 0.0
C982 C 0.77169 0.81043 0.78469 0.0
H983 H 0.76204 0.48514 0.72999 0.0
H984 H 0.76889 0.60889 0.72967 0.0
H985 H 0.78619 0.71499 0.79787 0.0
H986 H 0.76162 0.05573 0.80561 0.0
H987 H 0.75469 0.93248 0.80554 0.0
H988 H 0.73397 0.82833 0.73644 0.0
C989 C 0.76666 0.58323 0.74636 0.0
C990 C 0.77466 0.73888 0.78437 0.0
C991 C 0.76348 0.51165 0.74657 0.0
C992 C 0.75826 0.03048 0.78903 0.0
C993 C 0.75511 0.95906 0.7889 0.0
C994 C 0.74565 0.80468 0.74987 0.0
C995 C 0.76506 0.62165 0.76721 0.0
C996 C 0.76325 0.69881 0.76678 0.0
C997 C 0.75458 0.92212 0.76771 0.0
C998 C 0.75698 0.84485 0.76755 0.0
H999 H 0.75478 0.48915 0.80504 0.0
H1000 H 0.76158 0.6124 0.80491 0.0
H1001 H 0.7392 0.70432 0.73587 0.0
H1002 H 0.75934 0.05831 0.73031 0.0
H1003 H 0.75352 0.93472 0.72994 0.0
C1004 C 0.51353 0.78368 0.49739 0.0
C1005 C 0.50917 0.81914 0.51846 0.0
C1006 C 0.51615 0.7119 0.49723 0.0
C1007 C 0.49642 0.56289 0.53454 0.0
H1008 H 0.53052 0.45532 0.48687 0.0
C1009 C 0.50727 0.26619 0.53898 0.0
C1010 C 0.5098 0.22884 0.51805 0.0
C1011 C 0.50389 0.33756 0.53865 0.0
C1012 C 0.52048 0.48449 0.50013 0.0
H1013 H 0.50734 0.80724 0.55604 0.0
H1014 H 0.51373 0.68369 0.55601 0.0
H1015 H 0.53626 0.5791 0.48761 0.0
H1016 H 0.50791 0.23726 0.48033 0.0
H1017 H 0.50106 0.36099 0.47967 0.0
H1018 H 0.48087 0.46817 0.54719 0.0
C1019 C 0.51389 0.71043 0.5394 0.0
C1020 C 0.52391 0.55594 0.50063 0.0
C1021 C 0.51104 0.78195 0.53951 0.0
C1022 C 0.50553 0.2638 0.49683 0.0
C1023 C 0.50238 0.33539 0.49645 0.0
C1024 C 0.4931 0.49151 0.5341 0.0
C1025 C 0.51482 0.67364 0.51819 0.0
C1026 C 0.51204 0.59657 0.51792 0.0
C1027 C 0.50296 0.37386 0.51732 0.0
C1028 C 0.50508 0.45092 0.51692 0.0
H1029 H 0.51156 0.8101 0.4808 0.0
H1030 H 0.51695 0.68629 0.48047 0.0
H1031 H 0.48627 0.59176 0.54779 0.0
H1032 H 0.51109 0.24142 0.55561 0.0
H1033 H 0.50437 0.3647 0.55514 0.0
C1034 C 0.50832 0.76572 0.0377 0.0
C1035 C 0.51066 0.72875 0.01668 0.0
C1036 C 0.50522 0.83718 0.03754 0.0
C1037 C 0.49515 0.9919 0.99869 0.0
H1038 H 0.53725 0.08022 0.04565 0.0
C1039 C 0.51241 0.28504 0.99534 0.0
C1040 C 0.50819 0.31957 0.01661 0.0
C1041 C 0.51564 0.21345 0.99486 0.0
C1042 C 0.52526 0.05676 0.03245 0.0
H1043 H 0.50884 0.73808 0.979 0.0
H1044 H 0.50297 0.8618 0.97858 0.0
H1045 H 0.53233 0.9565 0.04616 0.0
H1046 H 0.50678 0.30609 0.05414 0.0
H1047 H 0.51358 0.18286 0.05352 0.0
H1048 H 0.48827 0.09254 0.98493 0.0
C1049 C 0.50361 0.83604 0.99535 0.0
C1050 C 0.52223 0.98527 0.03283 0.0
C1051 C 0.50649 0.76431 0.99556 0.0
C1052 C 0.51062 0.28169 0.03748 0.0
C1053 C 0.51406 0.21034 0.03705 0.0
C1054 C 0.49827 0.06349 0.99827 0.0
C1055 C 0.50447 0.87417 0.01632 0.0
C1056 C 0.50696 0.95135 0.01607 0.0
C1057 C 0.51512 0.17448 0.01568 0.0
C1058 C 0.51331 0.09731 0.0152 0.0
H1059 H 0.51187 0.7404 0.05428 0.0
H1060 H 0.50503 0.86378 0.05414 0.0
H1061 H 0.48307 0.96855 0.98555 0.0
H1062 H 0.51005 0.31196 0.97888 0.0
H1063 H 0.51704 0.18825 0.97804 0.0
C1064 C 0.33741 0.40859 0.0199 0.0
C1065 C 0.35896 0.36735 0.02393 0.0
C1066 C 0.31357 0.39047 0.02904 0.0
C1067 C 0.27828 0.23611 0.04367 0.0
H1068 H 0.2244 0.36765 0.05682 0.0
C1069 C 0.17177 0.16176 0.03772 0.0
C1070 C 0.15875 0.20443 0.02192 0.0
C1071 C 0.19542 0.18193 0.04699 0.0
C1072 C 0.23929 0.33017 0.05346 0.0
H1073 H 0.37291 0.2759 0.0411 0.0
H1074 H 0.33113 0.24417 0.05752 0.0
H1075 H 0.26921 0.40389 0.05775 0.0
H1076 H 0.15914 0.30183 1.00407 0.0
H1077 H 0.20032 0.33772 0.02026 0.0
H1078 H 0.24831 0.16328 0.03823 0.0
C1079 C 0.33267 0.2907 0.0473 0.0
C1080 C 0.26491 0.35089 0.05393 0.0
C1081 C 0.3566 0.30911 0.03815 0.0
C1082 C 0.16899 0.26855 0.01631 0.0
C1083 C 0.19237 0.2891 0.02574 0.0
C1084 C 0.25266 0.21532 0.04333 0.0
C1085 C 0.31075 0.33025 0.0423 0.0
C1086 C 0.2846 0.30489 0.04788 0.0
C1087 C 0.20616 0.24536 0.04073 0.0
C1088 C 0.23289 0.26296 0.04711 0.0
H1089 H 0.33891 0.45358 1.0089 0.0
H1090 H 0.29709 0.42155 0.02446 0.0
H1091 H 0.2929 0.19941 0.03876 0.0
H1092 H 0.16423 0.11169 0.04197 0.0
H1093 H 0.20568 0.14722 0.05846 0.0
C1094 C 0.85618 0.81221 0.03634 0.0
C1095 C 0.85873 0.87096 0.0224 0.0
C1096 C 0.83209 0.79316 0.04498 0.0
C1097 C 0.76415 0.85218 0.05082 0.0
H1098 H 0.74812 0.66511 0.03393 0.0
C1099 C 0.66814 0.77044 1.01295 0.0
C1100 C 0.65806 0.70588 0.01823 0.0
C1101 C 0.69164 0.79067 0.02224 0.0
C1102 C 0.7523 0.71697 0.03934 0.0
H1103 H 0.83884 0.95741 1.00734 0.0
H1104 H 0.79676 0.92435 0.02206 0.0
H1105 H 0.79264 0.70182 0.03512 0.0
H1106 H 0.66409 0.61189 0.03747 0.0
H1107 H 0.70565 0.64696 0.05375 0.0
H1108 H 0.72359 0.86822 0.05347 0.0
C1109 C 0.81319 0.89332 0.02679 0.0
C1110 C 0.77787 0.73808 0.04007 0.0
C1111 C 0.83719 0.91207 0.01815 0.0
C1112 C 0.67145 0.66232 0.03349 0.0
C1113 C 0.69519 0.68223 0.04263 0.0
C1114 C 0.73858 0.83114 0.04999 0.0
C1115 C 0.81021 0.83259 0.03974 0.0
C1116 C 0.784 0.80671 0.04476 0.0
C1117 C 0.7057 0.74624 0.03677 0.0
C1118 C 0.73238 0.76412 0.04323 0.0
H1119 H 0.87249 0.77912 0.03944 0.0
H1120 H 0.83042 0.74624 0.05497 0.0
H1121 H 0.76831 0.90504 0.05499 0.0
H1122 H 0.65802 0.80452 1.00117 0.0
H1123 H 0.6994 0.83979 0.01705 0.0
C1124 C 0.10174 0.52106 0.26471 0.0
C1125 C 0.11191 0.45633 0.2697 0.0
C1126 C 0.0781 0.54068 0.27396 0.0
C1127 C 0.01754 0.46498 0.29007 0.0
H1128 H 1.00035 0.6523 0.30598 0.0
C1129 C 0.91332 0.55821 0.28581 0.0
C1130 C 0.91081 0.61716 0.27195 0.0
C1131 C 0.93732 0.53939 0.29472 0.0
C1132 C 1.00484 0.59963 0.30175 0.0
H1133 H 0.10595 0.36139 0.28836 0.0
H1134 H 0.06419 0.39542 0.30463 0.0
H1135 H 0.04526 0.61652 0.30505 0.0
H1136 H 0.93065 0.70409 0.25727 0.0
H1137 H 0.97259 0.67142 0.27247 0.0
H1138 H 0.97737 0.44903 0.2852 0.0
C1139 C 0.07465 0.4313 0.29378 0.0
C1140 C 0.03052 0.57918 0.30125 0.0
C1141 C 0.09851 0.412 0.28465 0.0
C1142 C 0.93228 0.65859 0.26802 0.0
C1143 C 0.95618 0.64008 0.27693 0.0
C1144 C 0.99187 0.48548 0.29047 0.0
C1145 C 0.06402 0.49543 0.28815 0.0
C1146 C 0.03715 0.51249 0.29437 0.0
C1147 C 0.95914 0.57927 0.28985 0.0
C1148 C 0.98533 0.55386 0.29525 0.0
H1149 H 0.11187 0.55565 0.25313 0.0
H1150 H 0.07024 0.5899 0.26896 0.0
H1151 H 0.02206 0.41336 0.28455 0.0
H1152 H 0.89706 0.5249 0.28868 0.0
H1153 H 0.93899 0.49237 0.30466 0.0
C1154 C 0.33899 0.9002 0.51361 0.0
C1155 C 0.36033 0.85936 0.51884 0.0
C1156 C 0.31479 0.883 0.52215 0.0
C1157 C 0.2783 0.73155 0.53728 0.0
H1158 H 0.22533 0.86571 0.55041 0.0
C1159 C 0.17132 0.66081 0.53275 0.0
C1160 C 0.15771 0.70472 0.51777 0.0
C1161 C 0.1954 0.67999 0.54133 0.0
C1162 C 0.23994 0.82753 0.54697 0.0
H1163 H 0.37356 0.7694 0.53733 0.0
H1164 H 0.33102 0.73886 0.55253 0.0
H1165 H 0.27035 0.90007 0.55083 0.0
H1166 H 0.15768 0.8032 0.50061 0.0
H1167 H 0.19967 0.83711 0.51544 0.0
H1168 H 0.24789 0.65989 0.53217 0.0
C1169 C 0.33304 0.78453 0.54193 0.0
C1170 C 0.26569 0.84717 0.54721 0.0
C1171 C 0.35735 0.80218 0.53345 0.0
C1172 C 0.16794 0.76891 0.51222 0.0
C1173 C 0.19181 0.78836 0.5209 0.0
C1174 C 0.25256 0.71188 0.53708 0.0
C1175 C 0.31141 0.82401 0.53593 0.0
C1176 C 0.28505 0.8001 0.54132 0.0
C1177 C 0.20608 0.74353 0.53512 0.0
C1178 C 0.23307 0.7604 0.54089 0.0
H1179 H 0.341 0.9443 0.50226 0.0
H1180 H 0.29853 0.91387 0.51684 0.0
H1181 H 0.29273 0.69413 0.5325 0.0
H1182 H 0.16389 0.61055 0.53687 0.0
H1183 H 0.20597 0.64442 0.55224 0.0
C1184 C 0.83805 0.40317 0.51857 0.0
C1185 C 0.85934 0.36095 0.52259 0.0
C1186 C 0.81409 0.38602 0.52764 0.0
C1187 C 0.77765 0.23354 0.54185 0.0
H1188 H 0.72492 0.36763 0.55585 0.0
C1189 C 0.67056 0.16548 0.53586 0.0
C1190 C 0.6576 0.20999 0.5206 0.0
C1191 C 0.69444 0.1838 0.54508 0.0
C1192 C 0.73947 0.32943 0.55223 0.0
H1193 H 0.87272 0.26888 0.53973 0.0
H1194 H 0.83065 0.23861 0.55595 0.0
H1195 H 0.77002 0.40121 0.55674 0.0
H1196 H 0.65848 0.30876 0.50365 0.0
H1197 H 0.70014 0.34119 0.51963 0.0
H1198 H 0.74707 0.16273 0.53614 0.0
C1199 C 0.83251 0.28518 0.5458 0.0
C1200 C 0.76526 0.34863 0.5527 0.0
C1201 C 0.85659 0.30267 0.53673 0.0
C1202 C 0.66825 0.27397 0.51544 0.0
C1203 C 0.69191 0.29259 0.52478 0.0
C1204 C 0.75186 0.21428 0.54148 0.0
C1205 C 0.81086 0.32581 0.54082 0.0
C1206 C 0.78454 0.30174 0.54638 0.0
C1207 C 0.70556 0.24709 0.53926 0.0
C1208 C 0.73248 0.26289 0.54556 0.0
H1209 H 0.83987 0.44824 0.50764 0.0
H1210 H 0.79782 0.41791 0.5231 0.0
H1211 H 0.79197 0.19623 0.53673 0.0
H1212 H 0.6628 0.1154 0.53972 0.0
H1213 H 0.70456 0.14774 0.55616 0.0
C1214 C 0.91887 0.02779 0.76514 0.0
C1215 C 0.9082 0.09189 0.77017 0.0
C1216 C 0.9425 1.00903 0.77456 0.0
C1217 C 1.00237 0.08677 0.79106 0.0
H1218 H 0.02047 0.89922 0.806 0.0
C1219 C 0.10684 0.99505 0.78522 0.0
C1220 C 0.10915 0.93747 0.77075 0.0
C1221 C 0.08293 1.01324 0.7945 0.0
C1222 C 0.01573 0.95198 0.80209 0.0
H1223 H 0.91327 0.18648 0.78916 0.0
H1224 H 0.95505 0.15393 0.8057 0.0
H1225 H 0.97542 0.93375 0.80571 0.0
H1226 H 0.0891 0.85234 0.75525 0.0
H1227 H 0.04731 0.88376 0.7712 0.0
H1228 H 0.04245 0.10402 0.78586 0.0
C1229 C 0.94496 0.11791 0.79467 0.0
C1230 C 0.98997 0.97172 0.80195 0.0
C1231 C 0.9211 0.13637 0.78538 0.0
C1232 C 0.0876 0.89677 0.76647 0.0
C1233 C 0.0638 0.91451 0.77581 0.0
C1234 C 0.02813 0.06698 0.79114 0.0
C1235 C 0.95609 0.05447 0.78899 0.0
C1236 C 0.983 0.03843 0.79531 0.0
C1237 C 0.06105 0.9739 0.78946 0.0
C1238 C 0.03495 0.99854 0.79551 0.0
H1239 H 0.90913 0.99301 0.75341 0.0
H1240 H 0.95074 0.96033 0.7695 0.0
H1241 H 0.99758 0.13845 0.78575 0.0
H1242 H 0.12321 0.0277 0.78837 0.0
H1243 H 0.08138 0.05924 0.80495 0.0
C1244 C 0.59709 0.40191 0.78003 0.0
C1245 C 0.61047 0.44755 0.76552 0.0
C1246 C 0.57294 0.41964 0.78886 0.0
C1247 C 0.52825 0.56566 0.79696 0.0
H1248 H 0.47545 0.43546 0.77999 0.0
C1249 C 0.43013 0.64462 0.76363 0.0
C1250 C 0.4086 0.60395 0.76806 0.0
C1251 C 0.45409 0.62572 0.77229 0.0
C1252 C 0.48988 0.47182 0.7855 0.0
H1253 H 0.61 0.54729 0.74928 0.0
H1254 H 0.56786 0.57891 0.76465 0.0
H1255 H 0.5203 0.40063 0.77915 0.0
H1256 H 0.3947 0.51257 0.78521 0.0
H1257 H 0.43688 0.47882 0.80054 0.0
H1258 H 0.49787 0.63795 0.80204 0.0
C1259 C 0.57597 0.52988 0.76953 0.0
C1260 C 0.51561 0.45184 0.78499 0.0
C1261 C 0.5999 0.5118 0.76056 0.0
C1262 C 0.4111 0.54515 0.78198 0.0
C1263 C 0.43518 0.52574 0.79054 0.0
C1264 C 0.50253 0.58558 0.79752 0.0
C1265 C 0.562 0.48351 0.7834 0.0
C1266 C 0.53508 0.49952 0.78964 0.0
C1267 C 0.45702 0.56517 0.78535 0.0
C1268 C 0.48319 0.5398 0.7907 0.0
H1269 H 0.60489 0.35164 0.78369 0.0
H1270 H 0.56255 0.3829 0.79943 0.0
H1271 H 0.54288 0.60306 0.80103 0.0
H1272 H 0.42845 0.68993 0.7528 0.0
H1273 H 0.47056 0.65658 0.76759 0.0
C1274 C 0.59812 0.90986 0.28762 0.0
C1275 C 0.61101 0.95298 0.27189 0.0
C1276 C 0.57438 0.92949 0.29692 0.0
C1277 C 0.52983 0.07675 0.30344 0.0
H1278 H 0.47692 0.94512 0.28817 0.0
C1279 C 0.43196 0.15365 0.26893 0.0
C1280 C 0.41044 0.11251 0.27299 0.0
C1281 C 0.45577 0.13564 0.27817 0.0
C1282 C 0.49135 0.98202 0.29324 0.0
H1283 H 0.6103 0.05061 0.25421 0.0
H1284 H 0.56895 0.08557 0.27044 0.0
H1285 H 0.52167 0.9098 0.28798 0.0
H1286 H 0.3965 1.02125 0.29022 0.0
H1287 H 0.43826 0.98959 0.30677 0.0
H1288 H 0.49956 0.1499 0.30749 0.0
C1289 C 0.57707 0.03702 0.27586 0.0
C1290 C 0.51705 0.96171 0.2931 0.0
C1291 C 0.60056 1.01701 0.26639 0.0
C1292 C 0.41281 0.05433 0.28724 0.0
C1293 C 0.43671 0.036 0.29649 0.0
C1294 C 0.50413 0.09699 0.30369 0.0
C1295 C 0.56342 0.99281 0.29076 0.0
C1296 C 0.53658 1.00972 0.29706 0.0
C1297 C 0.45858 0.07563 0.29156 0.0
C1298 C 0.48472 0.05068 0.29742 0.0
H1299 H 0.60584 0.85984 0.29177 0.0
H1300 H 0.56422 0.89442 0.30832 0.0
H1301 H 0.54453 0.11448 0.30694 0.0
H1302 H 0.43044 0.19858 0.2579 0.0
H1303 H 0.47222 0.16672 0.27365 0.0
loop_
_geom_bond_atom_site_label_1
_geom_bond_atom_site_label_2
_geom_bond_distance
_geom_bond_site_symmetry_2
_ccdc_geom_bond_type
Co0 N1 2.034 . S
Co0 O15 2.262 . S
Co0 O19 1.958 . S
Co0 O23 1.950 1_556 S
Co0 O24 2.061 . S
N1 Co0 2.034 . S
N1 C2 1.366 . S
N1 C4 1.332 1_556 S
C2 N1 1.366 . S
C2 C5 1.377 . S
C2 H34 0.931 . S
N3 C4 1.346 . S
N3 C5 1.337 1_554 S
C4 N1 1.332 1_554 S
C4 N3 1.346 . S
C4 C38 1.361 . S
C5 C2 1.377 . S
C5 N3 1.337 1_556 S
C5 H41 0.930 . S
Co6 N7 2.034 . S
Co6 O20 1.950 1_556 S
Co6 O21 2.262 . S
Co6 O22 1.958 . S
Co6 O26 2.061 . S
N7 Co6 2.034 . S
N7 C10 1.366 . S
N7 C11 1.332 1_556 S
N8 C9 1.337 1_554 S
N8 C11 1.346 . S
C9 N8 1.337 1_556 S
C9 C10 1.377 . S
C9 H42 0.930 . S
C10 N7 1.366 . S
C10 C9 1.377 . S
C10 H14 0.931 . S
C11 N7 1.332 1_554 S
C11 N8 1.346 . S
C11 C28 1.361 . S
Co12 O15 2.097 . S
Co12 O16 2.065 1_456 S
Co12 O17 2.065 1_546 S
Co12 O18 2.042 1_545 S
Co12 O21 2.097 1_445 S
Co12 O25 2.042 1_455 S
C13 O21 1.253 . S
C13 O26 1.265 . S
H14 C10 0.931 . S
O15 Co0 2.262 . S
O15 Co12 2.097 . S
O15 C39 1.253 . S
O16 Co12 2.065 1_654 S
O16 C32 1.221 . S
O17 Co12 2.065 1_564 S
O17 C27 1.221 1_565 S
O18 Co12 2.042 1_565 S
O18 C33 1.237 . S
O19 Co0 1.958 . S
O19 C33 1.278 1_545 S
O20 Co6 1.950 1_554 S
O20 C32 1.277 1_565 S
O21 Co6 2.262 . S
O21 Co12 2.097 1_665 S
O21 C13 1.253 . S
O22 Co6 1.958 . S
O22 C40 1.278 1_565 S
O23 Co0 1.950 1_554 S
O23 C27 1.277 . S
O24 Co0 2.061 . S
O24 C39 1.265 . S
O25 Co12 2.042 1_655 S
O25 C40 1.237 . S
O26 Co6 2.061 . S
O26 C13 1.265 . S
C27 O17 1.221 1_545 S
C27 O23 1.277 . S
C28 C11 1.361 . S
C28 H29 0.960 . S
C28 H30 0.961 . S
C28 H31 0.961 . S
H29 C28 0.960 . S
H30 C28 0.961 . S
H31 C28 0.961 . S
C32 O16 1.221 . S
C32 O20 1.277 1_545 S
C33 O18 1.237 . S
C33 O19 1.278 1_565 S
H34 C2 0.931 . S
H35 C38 0.961 . S
H36 C38 0.961 . S
H37 C38 0.960 . S
C38 C4 1.361 . S
C38 H35 0.961 . S
C38 H36 0.961 . S
C38 H37 0.960 . S
C39 O15 1.253 . S
C39 O24 1.265 . S
C40 O22 1.278 1_545 S
C40 O25 1.237 . S
H41 C5 0.930 . S
H42 C9 0.930 . S
Co43 N44 2.034 . S
Co43 O58 2.262 . S
Co43 O62 1.958 . S
Co43 O66 1.950 . S
Co43 O67 2.057 . S
N44 Co43 2.034 . S
N44 C45 1.366 . S
N44 C47 1.332 . S
C45 N44 1.366 . S
C45 C48 1.377 . S
C45 H77 0.931 . S
N46 C47 1.346 . S
N46 C48 1.337 . S
C47 N44 1.332 . S
C47 N46 1.346 . S
C47 C81 1.361 . S
C48 C45 1.377 . S
C48 N46 1.337 . S
C48 H84 0.930 . S
Co49 N50 2.034 . S
Co49 O63 1.950 . S
Co49 O64 2.262 . S
Co49 O65 1.958 . S
Co49 O69 2.057 . S
N50 Co49 2.034 . S
N50 C53 1.366 . S
N50 C54 1.332 . S
N51 C52 1.337 . S
N51 C54 1.346 . S
C52 N51 1.337 . S
C52 C53 1.377 . S
C52 H85 0.930 . S
C53 N50 1.366 . S
C53 C52 1.377 . S
C53 H57 0.931 . S
C54 N50 1.332 . S
C54 N51 1.346 . S
C54 C71 1.361 . S
Co55 O58 2.097 . S
Co55 O59 2.065 . S
Co55 O60 2.065 . S
Co55 O61 2.042 . S
Co55 O64 2.097 . S
Co55 O68 2.042 . S
C56 O64 1.253 . S
C56 O69 1.263 . S
H57 C53 0.931 . S
O58 Co43 2.262 . S
O58 Co55 2.097 . S
O58 C82 1.253 . S
O59 Co55 2.065 . S
O59 C75 1.221 . S
O60 Co55 2.065 . S
O60 C70 1.221 . S
O61 Co55 2.042 . S
O61 C76 1.237 . S
O62 Co43 1.958 . S
O62 C76 1.278 . S
O63 Co49 1.950 . S
O63 C75 1.277 . S
O64 Co49 2.262 . S
O64 Co55 2.097 . S
O64 C56 1.253 . S
O65 Co49 1.958 . S
O65 C83 1.278 . S
O66 Co43 1.950 . S
O66 C70 1.277 . S
O67 Co43 2.057 . S
O67 C82 1.263 . S
O68 Co55 2.042 . S
O68 C83 1.237 . S
O69 Co49 2.057 . S
O69 C56 1.263 . S
C70 O60 1.221 . S
C70 O66 1.277 . S
C71 C54 1.361 . S
C71 H72 0.960 . S
C71 H73 0.961 . S
C71 H74 0.961 . S
H72 C71 0.960 . S
H73 C71 0.961 . S
H74 C71 0.961 . S
C75 O59 1.221 . S
C75 O63 1.277 . S
C76 O61 1.237 . S
C76 O62 1.278 . S
H77 C45 0.931 . S
H78 C81 0.961 . S
H79 C81 0.961 . S
H80 C81 0.960 . S
C81 C47 1.361 . S
C81 H78 0.961 . S
C81 H79 0.961 . S
C81 H80 0.960 . S
C82 O58 1.253 . S
C82 O67 1.263 . S
C83 O65 1.278 . S
C83 O68 1.237 . S
H84 C48 0.930 . S
H85 C52 0.930 . S
Co86 N87 2.034 . S
Co86 O101 2.262 . S
Co86 O105 1.958 . S
Co86 O109 1.950 . S
Co86 O110 2.057 . S
N87 Co86 2.034 . S
N87 C88 1.366 . S
N87 C90 1.332 . S
C88 N87 1.366 . S
C88 C91 1.377 . S
C88 H120 0.931 . S
N89 C90 1.346 . S
N89 C91 1.337 . S
C90 N87 1.332 . S
C90 N89 1.346 . S
C90 C124 1.361 . S
C91 C88 1.377 . S
C91 N89 1.337 . S
C91 H127 0.930 . S
Co92 N93 2.034 . S
Co92 O106 1.950 . S
Co92 O107 2.262 . S
Co92 O108 1.958 . S
Co92 O112 2.057 . S
N93 Co92 2.034 . S
N93 C96 1.366 . S
N93 C97 1.332 . S
N94 C95 1.337 . S
N94 C97 1.346 . S
C95 N94 1.337 . S
C95 C96 1.377 . S
C95 H128 0.930 . S
C96 N93 1.366 . S
C96 C95 1.377 . S
C96 H100 0.931 . S
C97 N93 1.332 . S
C97 N94 1.346 . S
C97 C114 1.361 . S
Co98 O101 2.097 . S
Co98 O102 2.065 . S
Co98 O103 2.065 . S
Co98 O104 2.042 . S
Co98 O107 2.097 . S
Co98 O111 2.042 . S
C99 O107 1.253 . S
C99 O112 1.263 . S
H100 C96 0.931 . S
O101 Co86 2.262 . S
O101 Co98 2.097 . S
O101 C125 1.253 . S
O102 Co98 2.065 . S
O102 C118 1.221 . S
O103 Co98 2.065 . S
O103 C113 1.221 . S
O104 Co98 2.042 . S
O104 C119 1.237 . S
O105 Co86 1.958 . S
O105 C119 1.278 . S
O106 Co92 1.950 . S
O106 C118 1.277 . S
O107 Co92 2.262 . S
O107 Co98 2.097 . S
O107 C99 1.253 . S
O108 Co92 1.958 . S
O108 C126 1.278 . S
O109 Co86 1.950 . S
O109 C113 1.277 . S
O110 Co86 2.057 . S
O110 C125 1.263 . S
O111 Co98 2.042 . S
O111 C126 1.237 . S
O112 Co92 2.057 . S
O112 C99 1.263 . S
C113 O103 1.221 . S
C113 O109 1.277 . S
C114 C97 1.361 . S
C114 H115 0.960 . S
C114 H116 0.961 . S
C114 H117 0.961 . S
H115 C114 0.960 . S
H116 C114 0.961 . S
H117 C114 0.961 . S
C118 O102 1.221 . S
C118 O106 1.277 . S
C119 O104 1.237 . S
C119 O105 1.278 . S
H120 C88 0.931 . S
H121 C124 0.961 . S
H122 C124 0.961 . S
H123 C124 0.960 . S
C124 C90 1.361 . S
C124 H121 0.961 . S
C124 H122 0.961 . S
C124 H123 0.960 . S
C125 O101 1.253 . S
C125 O110 1.263 . S
C126 O108 1.278 . S
C126 O111 1.237 . S
H127 C91 0.930 . S
H128 C95 0.930 . S
Co129 N130 2.034 . S
Co129 O144 2.262 . S
Co129 O148 1.958 . S
Co129 O152 1.950 . S
Co129 O153 2.057 . S
N130 Co129 2.034 . S
N130 C131 1.366 . S
N130 C133 1.332 . S
C131 N130 1.366 . S
C131 C134 1.377 . S
C131 H163 0.931 . S
N132 C133 1.346 . S
N132 C134 1.337 . S
C133 N130 1.332 . S
C133 N132 1.346 . S
C133 C167 1.361 . S
C134 C131 1.377 . S
C134 N132 1.337 . S
C134 H170 0.930 . S
Co135 N136 2.034 . S
Co135 O149 1.950 . S
Co135 O150 2.262 . S
Co135 O151 1.958 . S
Co135 O155 2.057 . S
N136 Co135 2.034 . S
N136 C139 1.366 . S
N136 C140 1.332 . S
N137 C138 1.337 . S
N137 C140 1.346 . S
C138 N137 1.337 . S
C138 C139 1.377 . S
C138 H171 0.930 . S
C139 N136 1.366 . S
C139 C138 1.377 . S
C139 H143 0.931 . S
C140 N136 1.332 . S
C140 N137 1.346 . S
C140 C157 1.361 . S
Co141 O144 2.097 . S
Co141 O145 2.065 1_455 S
Co141 O146 2.065 . S
Co141 O147 2.042 . S
Co141 O150 2.097 1_455 S
Co141 O154 2.042 1_455 S
C142 O150 1.253 . S
C142 O155 1.263 . S
H143 C139 0.931 . S
O144 Co129 2.262 . S
O144 Co141 2.097 . S
O144 C168 1.253 . S
O145 Co141 2.065 1_655 S
O145 C161 1.221 . S
O146 Co141 2.065 . S
O146 C156 1.221 . S
O147 Co141 2.042 . S
O147 C162 1.237 . S
O148 Co129 1.958 . S
O148 C162 1.278 . S
O149 Co135 1.950 . S
O149 C161 1.277 . S
O150 Co135 2.262 . S
O150 Co141 2.097 1_655 S
O150 C142 1.253 . S
O151 Co135 1.958 . S
O151 C169 1.278 . S
O152 Co129 1.950 . S
O152 C156 1.277 . S
O153 Co129 2.057 . S
O153 C168 1.263 . S
O154 Co141 2.042 1_655 S
O154 C169 1.237 . S
O155 Co135 2.057 . S
O155 C142 1.263 . S
C156 O146 1.221 . S
C156 O152 1.277 . S
C157 C140 1.361 . S
C157 H158 0.960 . S
C157 H159 0.961 . S
C157 H160 0.961 . S
H158 C157 0.960 . S
H159 C157 0.961 . S
H160 C157 0.961 . S
C161 O145 1.221 . S
C161 O149 1.277 . S
C162 O147 1.237 . S
C162 O148 1.278 . S
H163 C131 0.931 . S
H164 C167 0.961 . S
H165 C167 0.961 . S
H166 C167 0.960 . S
C167 C133 1.361 . S
C167 H164 0.961 . S
C167 H165 0.961 . S
C167 H166 0.960 . S
C168 O144 1.253 . S
C168 O153 1.263 . S
C169 O151 1.278 . S
C169 O154 1.237 . S
H170 C134 0.930 . S
H171 C138 0.930 . S
Co172 N173 2.034 . S
Co172 O187 2.262 . S
Co172 O191 1.958 . S
Co172 O195 1.950 . S
Co172 O196 2.057 . S
N173 Co172 2.034 . S
N173 C174 1.366 . S
N173 C176 1.332 . S
C174 N173 1.366 . S
C174 C177 1.377 . S
C174 H206 0.931 . S
N175 C176 1.346 . S
N175 C177 1.337 . S
C176 N173 1.332 . S
C176 N175 1.346 . S
C176 C210 1.361 . S
C177 C174 1.377 . S
C177 N175 1.337 . S
C177 H213 0.930 . S
Co178 N179 2.034 . S
Co178 O192 1.950 . S
Co178 O193 2.262 . S
Co178 O194 1.958 . S
Co178 O198 2.057 . S
N179 Co178 2.034 . S
N179 C182 1.366 . S
N179 C183 1.332 . S
N180 C181 1.337 . S
N180 C183 1.346 . S
C181 N180 1.337 . S
C181 C182 1.377 . S
C181 H214 0.930 . S
C182 N179 1.366 . S
C182 C181 1.377 . S
C182 H186 0.931 . S
C183 N179 1.332 . S
C183 N180 1.346 . S
C183 C200 1.361 . S
Co184 O187 2.097 . S
Co184 O188 2.065 . S
Co184 O189 2.065 . S
Co184 O190 2.042 . S
Co184 O193 2.097 . S
Co184 O197 2.042 . S
C185 O193 1.253 . S
C185 O198 1.263 . S
H186 C182 0.931 . S
O187 Co172 2.262 . S
O187 Co184 2.097 . S
O187 C211 1.253 . S
O188 Co184 2.065 . S
O188 C204 1.221 . S
O189 Co184 2.065 . S
O189 C199 1.221 . S
O190 Co184 2.042 . S
O190 C205 1.237 . S
O191 Co172 1.958 . S
O191 C205 1.278 . S
O192 Co178 1.950 . S
O192 C204 1.277 . S
O193 Co178 2.262 . S
O193 Co184 2.097 . S
O193 C185 1.253 . S
O194 Co178 1.958 . S
O194 C212 1.278 . S
O195 Co172 1.950 . S
O195 C199 1.277 . S
O196 Co172 2.057 . S
O196 C211 1.263 . S
O197 Co184 2.042 . S
O197 C212 1.237 . S
O198 Co178 2.057 . S
O198 C185 1.263 . S
C199 O189 1.221 . S
C199 O195 1.277 . S
C200 C183 1.361 . S
C200 H201 0.960 . S
C200 H202 0.961 . S
C200 H203 0.961 . S
H201 C200 0.960 . S
H202 C200 0.961 . S
H203 C200 0.961 . S
C204 O188 1.221 . S
C204 O192 1.277 . S
C205 O190 1.237 . S
C205 O191 1.278 . S
H206 C174 0.931 . S
H207 C210 0.961 . S
H208 C210 0.961 . S
H209 C210 0.960 . S
C210 C176 1.361 . S
C210 H207 0.961 . S
C210 H208 0.961 . S
C210 H209 0.960 . S
C211 O187 1.253 . S
C211 O196 1.263 . S
C212 O194 1.278 . S
C212 O197 1.237 . S
H213 C177 0.930 . S
H214 C181 0.930 . S
Co215 N216 2.034 . S
Co215 O230 2.262 . S
Co215 O234 1.958 . S
Co215 O238 1.950 . S
Co215 O239 2.057 . S
N216 Co215 2.034 . S
N216 C217 1.366 . S
N216 C219 1.332 . S
C217 N216 1.366 . S
C217 C220 1.377 . S
C217 H249 0.931 . S
N218 C219 1.346 . S
N218 C220 1.337 . S
C219 N216 1.332 . S
C219 N218 1.346 . S
C219 C253 1.361 . S
C220 C217 1.377 . S
C220 N218 1.337 . S
C220 H256 0.930 . S
Co221 N222 2.034 . S
Co221 O235 1.950 . S
Co221 O236 2.262 . S
Co221 O237 1.958 . S
Co221 O241 2.057 . S
N222 Co221 2.034 . S
N222 C225 1.366 . S
N222 C226 1.332 . S
N223 C224 1.337 . S
N223 C226 1.346 . S
C224 N223 1.337 . S
C224 C225 1.377 . S
C224 H257 0.930 . S
C225 N222 1.366 . S
C225 C224 1.377 . S
C225 H229 0.931 . S
C226 N222 1.332 . S
C226 N223 1.346 . S
C226 C243 1.361 . S
Co227 O230 2.097 . S
Co227 O231 2.065 . S
Co227 O232 2.065 . S
Co227 O233 2.042 . S
Co227 O236 2.097 . S
Co227 O240 2.042 . S
C228 O236 1.253 . S
C228 O241 1.263 . S
H229 C225 0.931 . S
O230 Co215 2.262 . S
O230 Co227 2.097 . S
O230 C254 1.253 . S
O231 Co227 2.065 . S
O231 C247 1.221 . S
O232 Co227 2.065 . S
O232 C242 1.221 . S
O233 Co227 2.042 . S
O233 C248 1.237 . S
O234 Co215 1.958 . S
O234 C248 1.278 . S
O235 Co221 1.950 . S
O235 C247 1.277 . S
O236 Co221 2.262 . S
O236 Co227 2.097 . S
O236 C228 1.253 . S
O237 Co221 1.958 . S
O237 C255 1.278 . S
O238 Co215 1.950 . S
O238 C242 1.277 . S
O239 Co215 2.057 . S
O239 C254 1.263 . S
O240 Co227 2.042 . S
O240 C255 1.237 . S
O241 Co221 2.057 . S
O241 C228 1.263 . S
C242 O232 1.221 . S
C242 O238 1.277 . S
C243 C226 1.361 . S
C243 H244 0.960 . S
C243 H245 0.961 . S
C243 H246 0.961 . S
H244 C243 0.960 . S
H245 C243 0.961 . S
H246 C243 0.961 . S
C247 O231 1.221 . S
C247 O235 1.277 . S
C248 O233 1.237 . S
C248 O234 1.278 . S
H249 C217 0.931 . S
H250 C253 0.961 . S
H251 C253 0.961 . S
H252 C253 0.960 . S
C253 C219 1.361 . S
C253 H250 0.961 . S
C253 H251 0.961 . S
C253 H252 0.960 . S
C254 O230 1.253 . S
C254 O239 1.263 . S
C255 O237 1.278 . S
C255 O240 1.237 . S
H256 C220 0.930 . S
H257 C224 0.930 . S
Co258 N259 2.034 . S
Co258 O273 2.262 . S
Co258 O277 1.958 . S
Co258 O281 1.950 . S
Co258 O282 2.057 . S
N259 Co258 2.034 . S
N259 C260 1.366 . S
N259 C262 1.332 . S
C260 N259 1.366 . S
C260 C263 1.377 . S
C260 H292 0.931 . S
N261 C262 1.346 . S
N261 C263 1.337 . S
C262 N259 1.332 . S
C262 N261 1.346 . S
C262 C296 1.361 . S
C263 C260 1.377 . S
C263 N261 1.337 . S
C263 H299 0.930 . S
Co264 N265 2.034 . S
Co264 O278 1.950 . S
Co264 O279 2.262 . S
Co264 O280 1.958 . S
Co264 O284 2.057 . S
N265 Co264 2.034 . S
N265 C268 1.366 . S
N265 C269 1.332 . S
N266 C267 1.337 . S
N266 C269 1.346 . S
C267 N266 1.337 . S
C267 C268 1.377 . S
C267 H300 0.930 . S
C268 N265 1.366 . S
C268 C267 1.377 . S
C268 H272 0.931 . S
C269 N265 1.332 . S
C269 N266 1.346 . S
C269 C286 1.361 . S
Co270 O273 2.097 . S
Co270 O274 2.065 . S
Co270 O275 2.065 1_545 S
Co270 O276 2.042 1_545 S
Co270 O279 2.097 1_545 S
Co270 O283 2.042 . S
C271 O279 1.253 . S
C271 O284 1.263 . S
H272 C268 0.931 . S
O273 Co258 2.262 . S
O273 Co270 2.097 . S
O273 C297 1.253 . S
O274 Co270 2.065 . S
O274 C290 1.221 . S
O275 Co270 2.065 1_565 S
O275 C285 1.221 1_565 S
O276 Co270 2.042 1_565 S
O276 C291 1.237 . S
O277 Co258 1.958 . S
O277 C291 1.278 1_545 S
O278 Co264 1.950 . S
O278 C290 1.277 1_565 S
O279 Co264 2.262 . S
O279 Co270 2.097 1_565 S
O279 C271 1.253 . S
O280 Co264 1.958 . S
O280 C298 1.278 1_565 S
O281 Co258 1.950 . S
O281 C285 1.277 . S
O282 Co258 2.057 . S
O282 C297 1.263 . S
O283 Co270 2.042 . S
O283 C298 1.237 . S
O284 Co264 2.057 . S
O284 C271 1.263 . S
C285 O275 1.221 1_545 S
C285 O281 1.277 . S
C286 C269 1.361 . S
C286 H287 0.960 . S
C286 H288 0.961 . S
C286 H289 0.961 . S
H287 C286 0.960 . S
H288 C286 0.961 . S
H289 C286 0.961 . S
C290 O274 1.221 . S
C290 O278 1.277 1_545 S
C291 O276 1.237 . S
C291 O277 1.278 1_565 S
H292 C260 0.931 . S
H293 C296 0.961 . S
H294 C296 0.961 . S
H295 C296 0.960 . S
C296 C262 1.361 . S
C296 H293 0.961 . S
C296 H294 0.961 . S
C296 H295 0.960 . S
C297 O273 1.253 . S
C297 O282 1.263 . S
C298 O280 1.278 1_545 S
C298 O283 1.237 . S
H299 C263 0.930 . S
H300 C267 0.930 . S
Co301 N302 2.034 . S
Co301 O316 2.262 . S
Co301 O320 1.958 . S
Co301 O324 1.950 1_556 S
Co301 O325 2.061 . S
N302 Co301 2.034 . S
N302 C303 1.366 . S
N302 C305 1.332 1_556 S
C303 N302 1.366 . S
C303 C306 1.377 . S
C303 H335 0.931 . S
N304 C305 1.346 . S
N304 C306 1.337 1_554 S
C305 N302 1.332 1_554 S
C305 N304 1.346 . S
C305 C339 1.361 . S
C306 C303 1.377 . S
C306 N304 1.337 1_556 S
C306 H342 0.930 . S
Co307 N308 2.034 . S
Co307 O321 1.950 1_556 S
Co307 O322 2.262 . S
Co307 O323 1.958 . S
Co307 O327 2.061 . S
N308 Co307 2.034 . S
N308 C311 1.366 . S
N308 C312 1.332 1_556 S
N309 C310 1.337 1_554 S
N309 C312 1.346 . S
C310 N309 1.337 1_556 S
C310 C311 1.377 . S
C310 H343 0.930 . S
C311 N308 1.366 . S
C311 C310 1.377 . S
C311 H315 0.931 . S
C312 N308 1.332 1_554 S
C312 N309 1.346 . S
C312 C329 1.361 . S
Co313 O316 2.097 . S
Co313 O317 2.065 1_556 S
Co313 O318 2.065 1_556 S
Co313 O319 2.042 . S
Co313 O322 2.097 . S
Co313 O326 2.042 . S
C314 O322 1.253 . S
C314 O327 1.265 . S
H315 C311 0.931 . S
O316 Co301 2.262 . S
O316 Co313 2.097 . S
O316 C340 1.253 . S
O317 Co313 2.065 1_554 S
O317 C333 1.221 . S
O318 Co313 2.065 1_554 S
O318 C328 1.221 . S
O319 Co313 2.042 . S
O319 C334 1.237 . S
O320 Co301 1.958 . S
O320 C334 1.278 . S
O321 Co307 1.950 1_554 S
O321 C333 1.277 . S
O322 Co307 2.262 . S
O322 Co313 2.097 . S
O322 C314 1.253 . S
O323 Co307 1.958 . S
O323 C341 1.278 . S
O324 Co301 1.950 1_554 S
O324 C328 1.277 . S
O325 Co301 2.061 . S
O325 C340 1.265 . S
O326 Co313 2.042 . S
O326 C341 1.237 . S
O327 Co307 2.061 . S
O327 C314 1.265 . S
C328 O318 1.221 . S
C328 O324 1.277 . S
C329 C312 1.361 . S
C329 H330 0.960 . S
C329 H331 0.961 . S
C329 H332 0.961 . S
H330 C329 0.960 . S
H331 C329 0.961 . S
H332 C329 0.961 . S
C333 O317 1.221 . S
C333 O321 1.277 . S
C334 O319 1.237 . S
C334 O320 1.278 . S
H335 C303 0.931 . S
H336 C339 0.961 . S
H337 C339 0.961 . S
H338 C339 0.960 . S
C339 C305 1.361 . S
C339 H336 0.961 . S
C339 H337 0.961 . S
C339 H338 0.960 . S
C340 O316 1.253 . S
C340 O325 1.265 . S
C341 O323 1.278 . S
C341 O326 1.237 . S
H342 C306 0.930 . S
H343 C310 0.930 . S
C344 C345 1.349 . S
C344 C346 1.327 . S
C344 H369 0.950 . S
C345 C344 1.349 . S
C345 C361 1.349 1_545 S
C346 C344 1.327 . S
C346 C365 1.429 . S
C346 H370 0.950 . S
C347 C364 1.574 . S
C347 C366 1.368 . S
C347 H371 0.949 . S
H348 C352 0.949 . S
C349 C350 1.349 . S
C349 C351 1.327 . S
C349 H372 0.950 . S
C350 C349 1.349 . S
C350 C362 1.349 . S
C351 C349 1.327 . S
C351 C367 1.429 . S
C351 H373 0.950 . S
C352 H348 0.949 . S
C352 C360 1.574 . S
C352 C368 1.368 . S
H353 C361 0.950 . S
H354 C359 0.948 1_565 S
H355 C360 0.949 . S
H356 C362 0.950 . S
H357 C363 0.950 . S
H358 C364 0.949 . S
C359 H354 0.948 1_545 S
C359 C361 1.326 1_545 S
C359 C365 1.432 . S
C360 C352 1.574 . S
C360 H355 0.949 . S
C360 C366 1.368 . S
C361 C345 1.349 1_565 S
C361 H353 0.950 . S
C361 C359 1.326 1_565 S
C362 C350 1.349 . S
C362 H356 0.950 . S
C362 C363 1.327 . S
C363 H357 0.950 . S
C363 C362 1.327 . S
C363 C367 1.429 . S
C364 C347 1.574 . S
C364 H358 0.949 . S
C364 C368 1.368 . S
C365 C346 1.429 . S
C365 C359 1.432 . S
C365 C366 1.523 . S
C366 C347 1.368 . S
C366 C360 1.368 . S
C366 C365 1.523 . S
C367 C351 1.429 . S
C367 C363 1.429 . S
C367 C368 1.523 . S
C368 C352 1.368 . S
C368 C364 1.368 . S
C368 C367 1.523 . S
H369 C344 0.950 . S
H370 C346 0.950 . S
H371 C347 0.949 . S
H372 C349 0.950 . S
H373 C351 0.950 . S
C374 C375 1.349 1_545 S
C374 C376 1.327 1_545 S
C374 H399 0.950 . S
C375 C374 1.349 1_565 S
C375 C391 1.349 . S
C376 C374 1.327 1_565 S
C376 C395 1.429 . S
C376 H400 0.950 1_565 S
C377 C394 1.574 . S
C377 C396 1.368 . S
C377 H401 0.949 . S
H378 C382 0.949 . S
C379 C380 1.349 . S
C379 C381 1.327 . S
C379 H402 0.950 . S
C380 C379 1.349 . S
C380 C392 1.349 . S
C381 C379 1.327 . S
C381 C397 1.429 . S
C381 H403 0.950 . S
C382 H378 0.949 . S
C382 C390 1.574 . S
C382 C398 1.368 . S
H383 C391 0.950 . S
H384 C389 0.950 . S
H385 C390 0.949 . S
H386 C392 0.950 . S
H387 C393 0.950 . S
H388 C394 0.949 . S
C389 H384 0.950 . S
C389 C391 1.327 . S
C389 C395 1.429 . S
C390 C382 1.574 . S
C390 H385 0.949 . S
C390 C396 1.368 . S
C391 C375 1.349 . S
C391 H383 0.950 . S
C391 C389 1.327 . S
C392 C380 1.349 . S
C392 H386 0.950 . S
C392 C393 1.327 . S
C393 H387 0.950 . S
C393 C392 1.327 . S
C393 C397 1.429 . S
C394 C377 1.574 . S
C394 H388 0.949 . S
C394 C398 1.368 . S
C395 C376 1.429 . S
C395 C389 1.429 . S
C395 C396 1.523 . S
C396 C377 1.368 . S
C396 C390 1.368 . S
C396 C395 1.523 . S
C397 C381 1.429 . S
C397 C393 1.429 . S
C397 C398 1.523 . S
C398 C382 1.368 . S
C398 C394 1.368 . S
C398 C397 1.523 . S
H399 C374 0.950 . S
H400 C376 0.950 1_545 S
H401 C377 0.949 . S
H402 C379 0.950 . S
H403 C381 0.950 . S
C404 C405 1.349 . S
C404 C406 1.327 . S
C404 H429 0.950 . S
C405 C404 1.349 . S
C405 C421 1.349 . S
C406 C404 1.327 . S
C406 C425 1.429 . S
C406 H430 0.950 . S
C407 C424 1.574 . S
C407 C426 1.368 . S
C407 H431 0.949 . S
H408 C412 0.949 . S
C409 C410 1.349 . S
C409 C411 1.327 . S
C409 H432 0.950 . S
C410 C409 1.349 . S
C410 C422 1.349 . S
C411 C409 1.327 . S
C411 C427 1.429 . S
C411 H433 0.950 . S
C412 H408 0.949 . S
C412 C420 1.574 . S
C412 C428 1.368 . S
H413 C421 0.950 . S
H414 C419 0.950 . S
H415 C420 0.949 . S
H416 C422 0.950 . S
H417 C423 0.950 . S
H418 C424 0.949 . S
C419 H414 0.950 . S
C419 C421 1.327 . S
C419 C425 1.429 . S
C420 C412 1.574 . S
C420 H415 0.949 . S
C420 C426 1.368 . S
C421 C405 1.349 . S
C421 H413 0.950 . S
C421 C419 1.327 . S
C422 C410 1.349 . S
C422 H416 0.950 . S
C422 C423 1.327 . S
C423 H417 0.950 . S
C423 C422 1.327 . S
C423 C427 1.429 . S
C424 C407 1.574 . S
C424 H418 0.949 . S
C424 C428 1.368 . S
C425 C406 1.429 . S
C425 C419 1.429 . S
C425 C426 1.523 . S
C426 C407 1.368 . S
C426 C420 1.368 . S
C426 C425 1.523 . S
C427 C411 1.429 . S
C427 C423 1.429 . S
C427 C428 1.523 . S
C428 C412 1.368 . S
C428 C424 1.368 . S
C428 C427 1.523 . S
H429 C404 0.950 . S
H430 C406 0.950 . S
H431 C407 0.949 . S
H432 C409 0.950 . S
H433 C411 0.950 . S
C434 C435 1.349 . S
C434 C436 1.327 . S
C434 H459 0.950 . S
C435 C434 1.349 . S
C435 C451 1.349 . S
C436 C434 1.327 . S
C436 C455 1.429 . S
C436 H460 0.950 . S
C437 C454 1.574 . S
C437 C456 1.368 . S
C437 H461 0.949 . S
H438 C442 0.949 . S
C439 C440 1.349 . S
C439 C441 1.327 . S
C439 H462 0.950 . S
C440 C439 1.349 . S
C440 C452 1.349 . S
C441 C439 1.327 . S
C441 C457 1.429 . S
C441 H463 0.950 . S
C442 H438 0.949 . S
C442 C450 1.574 . S
C442 C458 1.368 . S
H443 C451 0.950 . S
H444 C449 0.950 . S
H445 C450 0.949 . S
H446 C452 0.950 . S
H447 C453 0.950 . S
H448 C454 0.949 . S
C449 H444 0.950 . S
C449 C451 1.327 . S
C449 C455 1.429 . S
C450 C442 1.574 . S
C450 H445 0.949 . S
C450 C456 1.368 . S
C451 C435 1.349 . S
C451 H443 0.950 . S
C451 C449 1.327 . S
C452 C440 1.349 . S
C452 H446 0.950 . S
C452 C453 1.327 . S
C453 H447 0.950 . S
C453 C452 1.327 . S
C453 C457 1.429 . S
C454 C437 1.574 . S
C454 H448 0.949 . S
C454 C458 1.368 . S
C455 C436 1.429 . S
C455 C449 1.429 . S
C455 C456 1.523 . S
C456 C437 1.368 . S
C456 C450 1.368 . S
C456 C455 1.523 . S
C457 C441 1.429 . S
C457 C453 1.429 . S
C457 C458 1.523 . S
C458 C442 1.368 . S
C458 C454 1.368 . S
C458 C457 1.523 . S
H459 C434 0.950 . S
H460 C436 0.950 . S
H461 C437 0.949 . S
H462 C439 0.950 . S
H463 C441 0.950 . S
C464 C465 1.349 . S
C464 C466 1.327 . S
C464 H489 0.950 . S
C465 C464 1.349 . S
C465 C481 1.349 . S
C466 C464 1.327 . S
C466 C485 1.429 . S
C466 H490 0.950 . S
C467 C484 1.574 . S
C467 C486 1.368 . S
C467 H491 0.949 . S
H468 C472 0.949 . S
C469 C470 1.349 . S
C469 C471 1.327 . S
C469 H492 0.950 . S
C470 C469 1.349 . S
C470 C482 1.349 . S
C471 C469 1.327 . S
C471 C487 1.429 . S
C471 H493 0.950 . S
C472 H468 0.949 . S
C472 C480 1.574 . S
C472 C488 1.368 . S
H473 C481 0.950 . S
H474 C479 0.950 . S
H475 C480 0.949 . S
H476 C482 0.950 . S
H477 C483 0.950 . S
H478 C484 0.949 . S
C479 H474 0.950 . S
C479 C481 1.327 . S
C479 C485 1.429 . S
C480 C472 1.574 . S
C480 H475 0.949 . S
C480 C486 1.368 . S
C481 C465 1.349 . S
C481 H473 0.950 . S
C481 C479 1.327 . S
C482 C470 1.349 . S
C482 H476 0.950 . S
C482 C483 1.327 . S
C483 H477 0.950 . S
C483 C482 1.327 . S
C483 C487 1.429 . S
C484 C467 1.574 . S
C484 H478 0.949 . S
C484 C488 1.368 . S
C485 C466 1.429 . S
C485 C479 1.429 . S
C485 C486 1.523 . S
C486 C467 1.368 . S
C486 C480 1.368 . S
C486 C485 1.523 . S
C487 C471 1.429 . S
C487 C483 1.429 . S
C487 C488 1.523 . S
C488 C472 1.368 . S
C488 C484 1.368 . S
C488 C487 1.523 . S
H489 C464 0.950 . S
H490 C466 0.950 . S
H491 C467 0.949 . S
H492 C469 0.950 . S
H493 C471 0.950 . S
C494 C495 1.349 . S
C494 C496 1.327 . S
C494 H519 0.950 . S
C495 C494 1.349 . S
C495 C511 1.349 . S
C496 C494 1.327 . S
C496 C515 1.429 . S
C496 H520 0.950 . S
C497 C514 1.574 . S
C497 C516 1.368 . S
C497 H521 0.949 . S
H498 C502 0.949 . S
C499 C500 1.349 . S
C499 C501 1.327 . S
C499 H522 0.950 . S
C500 C499 1.349 . S
C500 C512 1.349 . S
C501 C499 1.327 . S
C501 C517 1.429 . S
C501 H523 0.950 . S
C502 H498 0.949 . S
C502 C510 1.574 . S
C502 C518 1.368 . S
H503 C511 0.950 . S
H504 C509 0.950 . S
H505 C510 0.949 . S
H506 C512 0.950 . S
H507 C513 0.950 . S
H508 C514 0.949 . S
C509 H504 0.950 . S
C509 C511 1.327 . S
C509 C515 1.429 . S
C510 C502 1.574 . S
C510 H505 0.949 . S
C510 C516 1.368 . S
C511 C495 1.349 . S
C511 H503 0.950 . S
C511 C509 1.327 . S
C512 C500 1.349 . S
C512 H506 0.950 . S
C512 C513 1.327 . S
C513 H507 0.950 . S
C513 C512 1.327 . S
C513 C517 1.429 . S
C514 C497 1.574 . S
C514 H508 0.949 . S
C514 C518 1.368 . S
C515 C496 1.429 . S
C515 C509 1.429 . S
C515 C516 1.523 . S
C516 C497 1.368 . S
C516 C510 1.368 . S
C516 C515 1.523 . S
C517 C501 1.429 . S
C517 C513 1.429 . S
C517 C518 1.523 . S
C518 C502 1.368 . S
C518 C514 1.368 . S
C518 C517 1.523 . S
H519 C494 0.950 . S
H520 C496 0.950 . S
H521 C497 0.949 . S
H522 C499 0.950 . S
H523 C501 0.950 . S
C524 C525 1.349 . S
C524 C526 1.327 . S
C524 H549 0.950 . S
C525 C524 1.349 . S
C525 C541 1.349 . S
C526 C524 1.327 . S
C526 C545 1.429 . S
C526 H550 0.950 . S
C527 C544 1.574 . S
C527 C546 1.368 . S
C527 H551 0.949 . S
H528 C532 0.949 . S
C529 C530 1.349 . S
C529 C531 1.327 . S
C529 H552 0.950 1_565 S
C530 C529 1.349 . S
C530 C542 1.349 . S
C531 C529 1.327 . S
C531 C547 1.429 . S
C531 H553 0.950 . S
C532 H528 0.949 . S
C532 C540 1.574 . S
C532 C548 1.368 . S
H533 C541 0.950 . S
H534 C539 0.950 . S
H535 C540 0.949 . S
H536 C542 0.950 . S
H537 C543 0.950 . S
H538 C544 0.949 . S
C539 H534 0.950 . S
C539 C541 1.327 . S
C539 C545 1.429 . S
C540 C532 1.574 . S
C540 H535 0.949 . S
C540 C546 1.368 . S
C541 C525 1.349 . S
C541 H533 0.950 . S
C541 C539 1.327 . S
C542 C530 1.349 . S
C542 H536 0.950 . S
C542 C543 1.327 . S
C543 H537 0.950 . S
C543 C542 1.327 . S
C543 C547 1.429 . S
C544 C527 1.574 . S
C544 H538 0.949 . S
C544 C548 1.368 . S
C545 C526 1.429 . S
C545 C539 1.429 . S
C545 C546 1.523 . S
C546 C527 1.368 . S
C546 C540 1.368 . S
C546 C545 1.523 . S
C547 C531 1.429 . S
C547 C543 1.429 . S
C547 C548 1.523 . S
C548 C532 1.368 . S
C548 C544 1.368 . S
C548 C547 1.523 . S
H549 C524 0.950 . S
H550 C526 0.950 . S
H551 C527 0.949 . S
H552 C529 0.950 1_545 S
H553 C531 0.950 . S
C554 C555 1.349 . S
C554 C556 1.327 . S
C554 H579 0.950 . S
C555 C554 1.349 . S
C555 C571 1.349 . S
C556 C554 1.327 . S
C556 C575 1.429 . S
C556 H580 0.950 . S
C557 C574 1.574 . S
C557 C576 1.368 . S
C557 H581 0.949 . S
H558 C562 0.949 . S
C559 C560 1.349 . S
C559 C561 1.327 . S
C559 H582 0.950 . S
C560 C559 1.349 . S
C560 C572 1.349 . S
C561 C559 1.327 . S
C561 C577 1.429 . S
C561 H583 0.950 . S
C562 H558 0.949 . S
C562 C570 1.574 . S
C562 C578 1.368 . S
H563 C571 0.950 . S
H564 C569 0.950 . S
H565 C570 0.949 . S
H566 C572 0.950 1_565 S
H567 C573 0.950 . S
H568 C574 0.949 . S
C569 H564 0.950 . S
C569 C571 1.327 . S
C569 C575 1.429 . S
C570 C562 1.574 . S
C570 H565 0.949 . S
C570 C576 1.368 . S
C571 C555 1.349 . S
C571 H563 0.950 . S
C571 C569 1.327 . S
C572 C560 1.349 . S
C572 H566 0.950 1_545 S
C572 C573 1.327 . S
C573 H567 0.950 . S
C573 C572 1.327 . S
C573 C577 1.429 . S
C574 C557 1.574 . S
C574 H568 0.949 . S
C574 C578 1.368 . S
C575 C556 1.429 . S
C575 C569 1.429 . S
C575 C576 1.523 . S
C576 C557 1.368 . S
C576 C570 1.368 . S
C576 C575 1.523 . S
C577 C561 1.429 . S
C577 C573 1.429 . S
C577 C578 1.523 . S
C578 C562 1.368 . S
C578 C574 1.368 . S
C578 C577 1.523 . S
H579 C554 0.950 . S
H580 C556 0.950 . S
H581 C557 0.949 . S
H582 C559 0.950 . S
H583 C561 0.950 . S
C584 C585 1.349 . S
C584 C586 1.327 . S
C584 H609 0.950 . S
C585 C584 1.349 . S
C585 C601 1.349 . S
C586 C584 1.327 . S
C586 C605 1.429 . S
C586 H610 0.950 . S
C587 C604 1.574 . S
C587 C606 1.368 . S
C587 H611 0.949 . S
H588 C592 0.949 . S
C589 C590 1.349 . S
C589 C591 1.327 . S
C589 H612 0.950 . S
C590 C589 1.349 . S
C590 C602 1.349 1_545 S
C591 C589 1.327 . S
C591 C607 1.429 . S
C591 H613 0.950 . S
C592 H588 0.949 . S
C592 C600 1.574 . S
C592 C608 1.368 . S
H593 C601 0.950 . S
H594 C599 0.950 . S
H595 C600 0.949 . S
H596 C602 0.950 . S
H597 C603 0.950 1_565 S
H598 C604 0.949 . S
C599 H594 0.950 . S
C599 C601 1.327 . S
C599 C605 1.429 . S
C600 C592 1.574 . S
C600 H595 0.949 . S
C600 C606 1.368 . S
C601 C585 1.349 . S
C601 H593 0.950 . S
C601 C599 1.327 . S
C602 C590 1.349 1_565 S
C602 H596 0.950 . S
C602 C603 1.327 1_565 S
C603 H597 0.950 1_545 S
C603 C602 1.327 1_545 S
C603 C607 1.429 . S
C604 C587 1.574 . S
C604 H598 0.949 . S
C604 C608 1.368 . S
C605 C586 1.429 . S
C605 C599 1.429 . S
C605 C606 1.523 . S
C606 C587 1.368 . S
C606 C600 1.368 . S
C606 C605 1.523 . S
C607 C591 1.429 . S
C607 C603 1.429 . S
C607 C608 1.523 . S
C608 C592 1.368 . S
C608 C604 1.368 . S
C608 C607 1.523 . S
H609 C584 0.950 . S
H610 C586 0.950 . S
H611 C587 0.949 . S
H612 C589 0.950 . S
H613 C591 0.950 . S
C614 C615 1.349 1_545 S
C614 C616 1.327 . S
C614 H639 0.950 . S
C615 C614 1.349 1_565 S
C615 C631 1.349 . S
C616 C614 1.327 . S
C616 C635 1.429 1_545 S
C616 H640 0.950 . S
C617 C634 1.574 . S
C617 C636 1.368 . S
C617 H641 0.949 . S
H618 C622 0.949 . S
C619 C620 1.349 . S
C619 C621 1.327 . S
C619 H642 0.950 . S
C620 C619 1.349 . S
C620 C632 1.349 . S
C621 C619 1.327 . S
C621 C637 1.429 . S
C621 H643 0.950 . S
C622 H618 0.949 . S
C622 C630 1.574 . S
C622 C638 1.368 . S
H623 C631 0.950 . S
H624 C629 0.950 . S
H625 C630 0.949 1_545 S
H626 C632 0.950 . S
H627 C633 0.950 . S
H628 C634 0.949 . S
C629 H624 0.950 . S
C629 C631 1.327 . S
C629 C635 1.429 . S
C630 C622 1.574 . S
C630 H625 0.949 1_565 S
C630 C636 1.368 . S
C631 C615 1.349 . S
C631 H623 0.950 . S
C631 C629 1.327 . S
C632 C620 1.349 . S
C632 H626 0.950 . S
C632 C633 1.327 . S
C633 H627 0.950 . S
C633 C632 1.327 . S
C633 C637 1.429 . S
C634 C617 1.574 . S
C634 H628 0.949 . S
C634 C638 1.368 . S
C635 C616 1.429 1_565 S
C635 C629 1.429 . S
C635 C636 1.523 . S
C636 C617 1.368 . S
C636 C630 1.368 . S
C636 C635 1.523 . S
C637 C621 1.429 . S
C637 C633 1.429 . S
C637 C638 1.523 . S
C638 C622 1.368 . S
C638 C634 1.368 . S
C638 C637 1.523 . S
H639 C614 0.950 . S
H640 C616 0.950 . S
H641 C617 0.949 . S
H642 C619 0.950 . S
H643 C621 0.950 . S
C644 C645 1.349 . S
C644 C646 1.327 . S
C644 H669 0.950 . S
C645 C644 1.349 . S
C645 C661 1.349 . S
C646 C644 1.327 . S
C646 C665 1.429 . S
C646 H670 0.950 . S
C647 C664 1.574 . S
C647 C666 1.368 . S
C647 H671 0.949 . S
H648 C652 0.949 . S
C649 C650 1.349 . S
C649 C651 1.327 . S
C649 H672 0.950 . S
C650 C649 1.349 . S
C650 C662 1.349 . S
C651 C649 1.327 . S
C651 C667 1.429 . S
C651 H673 0.950 . S
C652 H648 0.949 . S
C652 C660 1.574 . S
C652 C668 1.368 . S
H653 C661 0.950 . S
H654 C659 0.950 . S
H655 C660 0.949 . S
H656 C662 0.950 . S
H657 C663 0.950 . S
H658 C664 0.949 . S
C659 H654 0.950 . S
C659 C661 1.327 . S
C659 C665 1.429 . S
C660 C652 1.574 . S
C660 H655 0.949 . S
C660 C666 1.368 . S
C661 C645 1.349 . S
C661 H653 0.950 . S
C661 C659 1.327 . S
C662 C650 1.349 . S
C662 H656 0.950 . S
C662 C663 1.327 . S
C663 H657 0.950 . S
C663 C662 1.327 . S
C663 C667 1.429 . S
C664 C647 1.574 . S
C664 H658 0.949 . S
C664 C668 1.368 . S
C665 C646 1.429 . S
C665 C659 1.429 . S
C665 C666 1.523 . S
C666 C647 1.368 . S
C666 C660 1.368 . S
C666 C665 1.523 . S
C667 C651 1.429 . S
C667 C663 1.429 . S
C667 C668 1.523 . S
C668 C652 1.368 . S
C668 C664 1.368 . S
C668 C667 1.523 . S
H669 C644 0.950 . S
H670 C646 0.950 . S
H671 C647 0.949 . S
H672 C649 0.950 . S
H673 C651 0.950 . S
C674 C675 1.349 . S
C674 C676 1.327 . S
C674 H699 0.950 . S
C675 C674 1.349 . S
C675 C691 1.349 . S
C676 C674 1.327 . S
C676 C695 1.429 . S
C676 H700 0.950 . S
C677 C694 1.574 . S
C677 C696 1.368 . S
C677 H701 0.949 . S
H678 C682 0.949 . S
C679 C680 1.349 . S
C679 C681 1.327 . S
C679 H702 0.950 . S
C680 C679 1.349 . S
C680 C692 1.349 . S
C681 C679 1.327 . S
C681 C697 1.429 . S
C681 H703 0.950 . S
C682 H678 0.949 . S
C682 C690 1.574 . S
C682 C698 1.368 . S
H683 C691 0.950 . S
H684 C689 0.950 . S
H685 C690 0.949 . S
H686 C692 0.950 . S
H687 C693 0.950 . S
H688 C694 0.949 . S
C689 H684 0.950 . S
C689 C691 1.327 . S
C689 C695 1.429 . S
C690 C682 1.574 . S
C690 H685 0.949 . S
C690 C696 1.368 . S
C691 C675 1.349 . S
C691 H683 0.950 . S
C691 C689 1.327 . S
C692 C680 1.349 . S
C692 H686 0.950 . S
C692 C693 1.327 . S
C693 H687 0.950 . S
C693 C692 1.327 . S
C693 C697 1.429 . S
C694 C677 1.574 . S
C694 H688 0.949 . S
C694 C698 1.368 . S
C695 C676 1.429 . S
C695 C689 1.429 . S
C695 C696 1.523 . S
C696 C677 1.368 . S
C696 C690 1.368 . S
C696 C695 1.523 . S
C697 C681 1.429 . S
C697 C693 1.429 . S
C697 C698 1.523 . S
C698 C682 1.368 . S
C698 C694 1.368 . S
C698 C697 1.523 . S
H699 C674 0.950 . S
H700 C676 0.950 . S
H701 C677 0.949 . S
H702 C679 0.950 . S
H703 C681 0.950 . S
C704 C705 1.349 . S
C704 C706 1.327 . S
C704 H729 0.950 . S
C705 C704 1.349 . S
C705 C721 1.349 . S
C706 C704 1.327 . S
C706 C725 1.429 . S
C706 H730 0.950 . S
C707 C724 1.574 . S
C707 C726 1.368 . S
C707 H731 0.949 . S
H708 C712 0.949 . S
C709 C710 1.349 . S
C709 C711 1.327 . S
C709 H732 0.950 . S
C710 C709 1.349 . S
C710 C722 1.349 . S
C711 C709 1.327 . S
C711 C727 1.429 . S
C711 H733 0.950 . S
C712 H708 0.949 . S
C712 C720 1.574 . S
C712 C728 1.368 . S
H713 C721 0.950 . S
H714 C719 0.950 . S
H715 C720 0.949 . S
H716 C722 0.950 . S
H717 C723 0.950 . S
H718 C724 0.949 . S
C719 H714 0.950 . S
C719 C721 1.327 . S
C719 C725 1.429 . S
C720 C712 1.574 . S
C720 H715 0.949 . S
C720 C726 1.368 . S
C721 C705 1.349 . S
C721 H713 0.950 . S
C721 C719 1.327 . S
C722 C710 1.349 . S
C722 H716 0.950 . S
C722 C723 1.327 . S
C723 H717 0.950 . S
C723 C722 1.327 . S
C723 C727 1.429 . S
C724 C707 1.574 . S
C724 H718 0.949 . S
C724 C728 1.368 . S
C725 C706 1.429 . S
C725 C719 1.429 . S
C725 C726 1.523 . S
C726 C707 1.368 . S
C726 C720 1.368 . S
C726 C725 1.523 . S
C727 C711 1.429 . S
C727 C723 1.429 . S
C727 C728 1.523 . S
C728 C712 1.368 . S
C728 C724 1.368 . S
C728 C727 1.523 . S
H729 C704 0.950 . S
H730 C706 0.950 . S
H731 C707 0.949 . S
H732 C709 0.950 . S
H733 C711 0.950 . S
C734 C735 1.349 . S
C734 C736 1.327 . S
C734 H759 0.950 . S
C735 C734 1.349 . S
C735 C751 1.349 . S
C736 C734 1.327 . S
C736 C755 1.429 . S
C736 H760 0.950 . S
C737 C754 1.574 . S
C737 C756 1.368 . S
C737 H761 0.949 . S
H738 C742 0.949 . S
C739 C740 1.349 . S
C739 C741 1.327 . S
C739 H762 0.950 . S
C740 C739 1.349 . S
C740 C752 1.349 . S
C741 C739 1.327 . S
C741 C757 1.429 . S
C741 H763 0.950 . S
C742 H738 0.949 . S
C742 C750 1.574 . S
C742 C758 1.368 . S
H743 C751 0.950 . S
H744 C749 0.950 . S
H745 C750 0.949 . S
H746 C752 0.950 . S
H747 C753 0.950 . S
H748 C754 0.949 . S
C749 H744 0.950 . S
C749 C751 1.327 . S
C749 C755 1.429 . S
C750 C742 1.574 . S
C750 H745 0.949 . S
C750 C756 1.368 . S
C751 C735 1.349 . S
C751 H743 0.950 . S
C751 C749 1.327 . S
C752 C740 1.349 . S
C752 H746 0.950 . S
C752 C753 1.327 . S
C753 H747 0.950 . S
C753 C752 1.327 . S
C753 C757 1.429 . S
C754 C737 1.574 . S
C754 H748 0.949 . S
C754 C758 1.368 . S
C755 C736 1.429 . S
C755 C749 1.429 . S
C755 C756 1.523 . S
C756 C737 1.368 . S
C756 C750 1.368 . S
C756 C755 1.523 . S
C757 C741 1.429 . S
C757 C753 1.429 . S
C757 C758 1.523 . S
C758 C742 1.368 . S
C758 C754 1.368 . S
C758 C757 1.523 . S
H759 C734 0.950 . S
H760 C736 0.950 . S
H761 C737 0.949 . S
H762 C739 0.950 . S
H763 C741 0.950 . S
C764 C765 1.352 . S
C764 C766 1.329 . S
C764 H789 0.945 1_565 S
C765 C764 1.352 . S
C765 C781 1.349 . S
C766 C764 1.329 . S
C766 C785 1.429 . S
C766 H790 0.950 1_565 S
C767 C784 1.574 . S
C767 C786 1.368 . S
C767 H791 0.949 . S
H768 C772 0.949 . S
C769 C770 1.349 . S
C769 C771 1.327 . S
C769 H792 0.950 . S
C770 C769 1.349 . S
C770 C782 1.349 . S
C771 C769 1.327 . S
C771 C787 1.429 . S
C771 H793 0.950 . S
C772 H768 0.949 . S
C772 C780 1.574 . S
C772 C788 1.368 . S
H773 C781 0.950 . S
H774 C779 0.950 . S
H775 C780 0.949 . S
H776 C782 0.950 . S
H777 C783 0.950 . S
H778 C784 0.949 . S
C779 H774 0.950 . S
C779 C781 1.327 . S
C779 C785 1.429 . S
C780 C772 1.574 . S
C780 H775 0.949 . S
C780 C786 1.368 . S
C781 C765 1.349 . S
C781 H773 0.950 . S
C781 C779 1.327 . S
C782 C770 1.349 . S
C782 H776 0.950 . S
C782 C783 1.327 . S
C783 H777 0.950 . S
C783 C782 1.327 . S
C783 C787 1.429 . S
C784 C767 1.574 . S
C784 H778 0.949 . S
C784 C788 1.368 . S
C785 C766 1.429 . S
C785 C779 1.429 . S
C785 C786 1.523 . S
C786 C767 1.368 . S
C786 C780 1.368 . S
C786 C785 1.523 . S
C787 C771 1.429 . S
C787 C783 1.429 . S
C787 C788 1.523 . S
C788 C772 1.368 . S
C788 C784 1.368 . S
C788 C787 1.523 . S
H789 C764 0.945 1_545 S
H790 C766 0.950 1_545 S
H791 C767 0.949 . S
H792 C769 0.950 . S
H793 C771 0.950 . S
C794 C795 1.349 . S
C794 C796 1.327 . S
C794 H819 0.950 . S
C795 C794 1.349 . S
C795 C811 1.353 . S
C796 C794 1.327 . S
C796 C815 1.429 . S
C796 H820 0.950 . S
C797 C814 1.574 . S
C797 C816 1.368 . S
C797 H821 0.949 . S
H798 C802 0.949 . S
C799 C800 1.349 . S
C799 C801 1.327 . S
C799 H822 0.950 . S
C800 C799 1.349 . S
C800 C812 1.349 . S
C801 C799 1.327 . S
C801 C817 1.429 . S
C801 H823 0.950 . S
C802 H798 0.949 . S
C802 C810 1.574 . S
C802 C818 1.368 . S
H803 C811 0.944 1_565 S
H804 C809 0.950 1_565 S
H805 C810 0.949 . S
H806 C812 0.950 . S
H807 C813 0.950 . S
H808 C814 0.949 . S
C809 H804 0.950 1_545 S
C809 C811 1.329 . S
C809 C815 1.429 . S
C810 C802 1.574 . S
C810 H805 0.949 . S
C810 C816 1.368 . S
C811 C795 1.353 . S
C811 H803 0.944 1_545 S
C811 C809 1.329 . S
C812 C800 1.349 . S
C812 H806 0.950 . S
C812 C813 1.327 . S
C813 H807 0.950 . S
C813 C812 1.327 . S
C813 C817 1.429 . S
C814 C797 1.574 . S
C814 H808 0.949 . S
C814 C818 1.368 . S
C815 C796 1.429 . S
C815 C809 1.429 . S
C815 C816 1.523 . S
C816 C797 1.368 . S
C816 C810 1.368 . S
C816 C815 1.523 . S
C817 C801 1.429 . S
C817 C813 1.429 . S
C817 C818 1.523 . S
C818 C802 1.368 . S
C818 C814 1.368 . S
C818 C817 1.523 . S
H819 C794 0.950 . S
H820 C796 0.950 . S
H821 C797 0.949 . S
H822 C799 0.950 . S
H823 C801 0.950 . S
C824 C825 1.322 1_554 S
C824 C826 1.327 . S
C824 H849 0.950 . S
C825 C824 1.322 1_556 S
C825 C841 1.376 1_655 S
C826 C824 1.327 . S
C826 C845 1.403 1_554 S
C826 H850 0.950 . S
C827 C844 1.574 . S
C827 C846 1.379 1_455 S
C827 H851 0.949 . S
H828 C832 0.949 . S
C829 C830 1.376 . S
C829 C831 1.327 . S
C829 H852 0.950 . S
C830 C829 1.376 . S
C830 C842 1.322 1_456 S
C831 C829 1.327 . S
C831 C847 1.455 . S
C831 H853 0.950 . S
C832 H828 0.949 . S
C832 C840 1.574 . S
C832 C848 1.315 1_654 S
H833 C841 0.950 . S
H834 C839 0.950 . S
H835 C840 0.949 . S
H836 C842 0.950 . S
H837 C843 0.950 . S
H838 C844 0.949 . S
C839 H834 0.950 . S
C839 C841 1.327 . S
C839 C845 1.455 1_455 S
C840 C832 1.574 . S
C840 H835 0.949 . S
C840 C846 1.359 1_554 S
C841 C825 1.376 1_455 S
C841 H833 0.950 . S
C841 C839 1.327 . S
C842 C830 1.322 1_654 S
C842 H836 0.950 . S
C842 C843 1.327 . S
C843 H837 0.950 . S
C843 C842 1.327 . S
C843 C847 1.403 1_654 S
C844 C827 1.574 . S
C844 H838 0.949 . S
C844 C848 1.421 . S
C845 C826 1.403 1_556 S
C845 C839 1.455 1_655 S
C845 C846 1.525 . S
C846 C827 1.379 1_655 S
C846 C840 1.359 1_556 S
C846 C845 1.525 . S
C847 C831 1.455 . S
C847 C843 1.403 1_456 S
C847 C848 1.525 . S
C848 C832 1.315 1_456 S
C848 C844 1.421 . S
C848 C847 1.525 . S
H849 C824 0.950 . S
H850 C826 0.950 . S
H851 C827 0.949 . S
H852 C829 0.950 . S
H853 C831 0.950 . S
C854 C855 1.349 . S
C854 C856 1.327 . S
C854 H879 0.950 . S
C855 C854 1.349 . S
C855 C871 1.349 . S
C856 C854 1.327 . S
C856 C875 1.429 . S
C856 H880 0.950 . S
C857 C874 1.574 . S
C857 C876 1.368 . S
C857 H881 0.949 . S
H858 C862 0.949 . S
C859 C860 1.349 1_565 S
C859 C861 1.327 . S
C859 H882 0.950 1_565 S
C860 C859 1.349 1_545 S
C860 C872 1.349 1_545 S
C861 C859 1.327 . S
C861 C877 1.429 . S
C861 H883 0.950 . S
C862 H858 0.949 . S
C862 C870 1.574 . S
C862 C878 1.368 . S
H863 C871 0.950 . S
H864 C869 0.950 . S
H865 C870 0.949 . S
H866 C872 0.950 1_545 S
H867 C873 0.950 . S
H868 C874 0.949 . S
C869 H864 0.950 . S
C869 C871 1.327 . S
C869 C875 1.429 . S
C870 C862 1.574 . S
C870 H865 0.949 . S
C870 C876 1.368 . S
C871 C855 1.349 . S
C871 H863 0.950 . S
C871 C869 1.327 . S
C872 C860 1.349 1_565 S
C872 H866 0.950 1_565 S
C872 C873 1.327 . S
C873 H867 0.950 . S
C873 C872 1.327 . S
C873 C877 1.429 . S
C874 C857 1.574 . S
C874 H868 0.949 . S
C874 C878 1.368 . S
C875 C856 1.429 . S
C875 C869 1.429 . S
C875 C876 1.523 . S
C876 C857 1.368 . S
C876 C870 1.368 . S
C876 C875 1.523 . S
C877 C861 1.429 . S
C877 C873 1.429 . S
C877 C878 1.523 . S
C878 C862 1.368 . S
C878 C874 1.368 . S
C878 C877 1.523 . S
H879 C854 0.950 . S
H880 C856 0.950 . S
H881 C857 0.949 . S
H882 C859 0.950 1_545 S
H883 C861 0.950 . S
C884 C885 1.349 1_545 S
C884 C886 1.327 . S
C884 H909 0.950 1_545 S
C885 C884 1.349 1_565 S
C885 C901 1.349 1_565 S
C886 C884 1.327 . S
C886 C905 1.429 . S
C886 H910 0.950 . S
C887 C904 1.574 . S
C887 C906 1.368 . S
C887 H911 0.949 . S
H888 C892 0.949 . S
C889 C890 1.349 . S
C889 C891 1.327 . S
C889 H912 0.950 . S
C890 C889 1.349 . S
C890 C902 1.349 . S
C891 C889 1.327 . S
C891 C907 1.429 . S
C891 H913 0.950 . S
C892 H888 0.949 . S
C892 C900 1.574 . S
C892 C908 1.368 . S
H893 C901 0.950 1_565 S
H894 C899 0.950 . S
H895 C900 0.949 . S
H896 C902 0.950 . S
H897 C903 0.950 . S
H898 C904 0.949 . S
C899 H894 0.950 . S
C899 C901 1.327 . S
C899 C905 1.429 . S
C900 C892 1.574 . S
C900 H895 0.949 . S
C900 C906 1.368 . S
C901 C885 1.349 1_545 S
C901 H893 0.950 1_545 S
C901 C899 1.327 . S
C902 C890 1.349 . S
C902 H896 0.950 . S
C902 C903 1.327 . S
C903 H897 0.950 . S
C903 C902 1.327 . S
C903 C907 1.429 . S
C904 C887 1.574 . S
C904 H898 0.949 . S
C904 C908 1.368 . S
C905 C886 1.429 . S
C905 C899 1.429 . S
C905 C906 1.523 . S
C906 C887 1.368 . S
C906 C900 1.368 . S
C906 C905 1.523 . S
C907 C891 1.429 . S
C907 C903 1.429 . S
C907 C908 1.523 . S
C908 C892 1.368 . S
C908 C904 1.368 . S
C908 C907 1.523 . S
H909 C884 0.950 1_565 S
H910 C886 0.950 . S
H911 C887 0.949 . S
H912 C889 0.950 . S
H913 C891 0.950 . S
C914 C915 1.349 1_655 S
C914 C916 1.327 . S
C914 H939 0.950 . S
C915 C914 1.349 1_455 S
C915 C931 1.349 . S
C916 C914 1.327 . S
C916 C935 1.429 1_655 S
C916 H940 0.950 . S
C917 C934 1.574 1_565 S
C917 C936 1.393 . S
C917 H941 0.949 . S
H918 C922 0.949 . S
C919 C920 1.349 1_455 S
C919 C921 1.327 . S
C919 H942 0.950 . S
C920 C919 1.349 1_655 S
C920 C932 1.349 . S
C921 C919 1.327 . S
C921 C937 1.429 1_455 S
C921 H943 0.950 . S
C922 H918 0.949 . S
C922 C930 1.574 1_545 S
C922 C938 1.387 . S
H923 C931 0.950 . S
H924 C929 0.950 . S
H925 C930 0.949 . S
H926 C932 0.950 . S
H927 C933 0.950 . S
H928 C934 0.949 . S
C929 H924 0.950 . S
C929 C931 1.327 . S
C929 C935 1.429 . S
C930 C922 1.574 1_565 S
C930 H925 0.949 . S
C930 C936 1.344 1_655 S
C931 C915 1.349 . S
C931 H923 0.950 . S
C931 C929 1.327 . S
C932 C920 1.349 . S
C932 H926 0.950 . S
C932 C933 1.327 . S
C933 H927 0.950 . S
C933 C932 1.327 . S
C933 C937 1.429 . S
C934 C917 1.574 1_545 S
C934 H928 0.949 . S
C934 C938 1.349 1_455 S
C935 C916 1.429 1_455 S
C935 C929 1.429 . S
C935 C936 1.525 . S
C936 C917 1.393 . S
C936 C930 1.344 1_455 S
C936 C935 1.525 . S
C937 C921 1.429 1_655 S
C937 C933 1.429 . S
C937 C938 1.525 . S
C938 C922 1.387 . S
C938 C934 1.349 1_655 S
C938 C937 1.525 . S
H939 C914 0.950 . S
H940 C916 0.950 . S
H941 C917 0.949 . S
H942 C919 0.950 . S
H943 C921 0.950 . S
C944 C945 1.349 1_545 S
C944 C946 1.327 . S
C944 H969 0.950 1_545 S
C945 C944 1.349 1_565 S
C945 C961 1.349 1_565 S
C946 C944 1.327 . S
C946 C965 1.429 . S
C946 H970 0.950 . S
C947 C964 1.574 . S
C947 C966 1.368 . S
C947 H971 0.949 . S
H948 C952 0.949 . S
C949 C950 1.349 . S
C949 C951 1.327 . S
C949 H972 0.950 . S
C950 C949 1.349 . S
C950 C962 1.349 . S
C951 C949 1.327 . S
C951 C967 1.429 . S
C951 H973 0.950 . S
C952 H948 0.949 . S
C952 C960 1.574 . S
C952 C968 1.368 . S
H953 C961 0.950 1_565 S
H954 C959 0.950 . S
H955 C960 0.949 . S
H956 C962 0.950 . S
H957 C963 0.950 . S
H958 C964 0.949 . S
C959 H954 0.950 . S
C959 C961 1.327 . S
C959 C965 1.429 . S
C960 C952 1.574 . S
C960 H955 0.949 . S
C960 C966 1.368 . S
C961 C945 1.349 1_545 S
C961 H953 0.950 1_545 S
C961 C959 1.327 . S
C962 C950 1.349 . S
C962 H956 0.950 . S
C962 C963 1.327 . S
C963 H957 0.950 . S
C963 C962 1.327 . S
C963 C967 1.429 . S
C964 C947 1.574 . S
C964 H958 0.949 . S
C964 C968 1.368 . S
C965 C946 1.429 . S
C965 C959 1.429 . S
C965 C966 1.523 . S
C966 C947 1.368 . S
C966 C960 1.368 . S
C966 C965 1.523 . S
C967 C951 1.429 . S
C967 C963 1.429 . S
C967 C968 1.523 . S
C968 C952 1.368 . S
C968 C964 1.368 . S
C968 C967 1.523 . S
H969 C944 0.950 1_565 S
H970 C946 0.950 . S
H971 C947 0.949 . S
H972 C949 0.950 . S
H973 C951 0.950 . S
C974 C975 1.349 . S
C974 C976 1.327 . S
C974 H999 0.950 . S
C975 C974 1.349 . S
C975 C991 1.349 . S
C976 C974 1.327 . S
C976 C995 1.429 . S
C976 H1000 0.950 . S
C977 C994 1.574 . S
C977 C996 1.368 . S
C977 H1001 0.949 . S
H978 C982 0.949 . S
C979 C980 1.349 1_565 S
C979 C981 1.327 . S
C979 H1002 0.950 1_565 S
C980 C979 1.349 1_545 S
C980 C992 1.349 1_545 S
C981 C979 1.327 . S
C981 C997 1.429 . S
C981 H1003 0.950 . S
C982 H978 0.949 . S
C982 C990 1.574 . S
C982 C998 1.368 . S
H983 C991 0.950 . S
H984 C989 0.950 . S
H985 C990 0.949 . S
H986 C992 0.950 1_545 S
H987 C993 0.950 . S
H988 C994 0.949 . S
C989 H984 0.950 . S
C989 C991 1.327 . S
C989 C995 1.429 . S
C990 C982 1.574 . S
C990 H985 0.949 . S
C990 C996 1.368 . S
C991 C975 1.349 . S
C991 H983 0.950 . S
C991 C989 1.327 . S
C992 C980 1.349 1_565 S
C992 H986 0.950 1_565 S
C992 C993 1.327 . S
C993 H987 0.950 . S
C993 C992 1.327 . S
C993 C997 1.429 . S
C994 C977 1.574 . S
C994 H988 0.949 . S
C994 C998 1.368 . S
C995 C976 1.429 . S
C995 C989 1.429 . S
C995 C996 1.523 . S
C996 C977 1.368 . S
C996 C990 1.368 . S
C996 C995 1.523 . S
C997 C981 1.429 . S
C997 C993 1.429 . S
C997 C998 1.523 . S
C998 C982 1.368 . S
C998 C994 1.368 . S
C998 C997 1.523 . S
H999 C974 0.950 . S
H1000 C976 0.950 . S
H1001 C977 0.949 . S
H1002 C979 0.950 1_545 S
H1003 C981 0.950 . S
C1004 C1005 1.349 . S
C1004 C1006 1.327 . S
C1004 H1029 0.950 . S
C1005 C1004 1.349 . S
C1005 C1021 1.349 . S
C1006 C1004 1.327 . S
C1006 C1025 1.429 . S
C1006 H1030 0.950 . S
C1007 C1024 1.574 . S
C1007 C1026 1.368 . S
C1007 H1031 0.949 . S
H1008 C1012 0.949 . S
C1009 C1010 1.349 . S
C1009 C1011 1.327 . S
C1009 H1032 0.950 . S
C1010 C1009 1.349 . S
C1010 C1022 1.349 . S
C1011 C1009 1.327 . S
C1011 C1027 1.429 . S
C1011 H1033 0.950 . S
C1012 H1008 0.949 . S
C1012 C1020 1.574 . S
C1012 C1028 1.368 . S
H1013 C1021 0.950 . S
H1014 C1019 0.950 . S
H1015 C1020 0.949 . S
H1016 C1022 0.950 . S
H1017 C1023 0.950 . S
H1018 C1024 0.949 . S
C1019 H1014 0.950 . S
C1019 C1021 1.327 . S
C1019 C1025 1.429 . S
C1020 C1012 1.574 . S
C1020 H1015 0.949 . S
C1020 C1026 1.368 . S
C1021 C1005 1.349 . S
C1021 H1013 0.950 . S
C1021 C1019 1.327 . S
C1022 C1010 1.349 . S
C1022 H1016 0.950 . S
C1022 C1023 1.327 . S
C1023 H1017 0.950 . S
C1023 C1022 1.327 . S
C1023 C1027 1.429 . S
C1024 C1007 1.574 . S
C1024 H1018 0.949 . S
C1024 C1028 1.368 . S
C1025 C1006 1.429 . S
C1025 C1019 1.429 . S
C1025 C1026 1.523 . S
C1026 C1007 1.368 . S
C1026 C1020 1.368 . S
C1026 C1025 1.523 . S
C1027 C1011 1.429 . S
C1027 C1023 1.429 . S
C1027 C1028 1.523 . S
C1028 C1012 1.368 . S
C1028 C1024 1.368 . S
C1028 C1027 1.523 . S
H1029 C1004 0.950 . S
H1030 C1006 0.950 . S
H1031 C1007 0.949 . S
H1032 C1009 0.950 . S
H1033 C1011 0.950 . S
C1034 C1035 1.322 1_554 S
C1034 C1036 1.327 . S
C1034 H1059 0.950 . S
C1035 C1034 1.322 1_556 S
C1035 C1051 1.376 . S
C1036 C1034 1.327 . S
C1036 C1055 1.403 1_554 S
C1036 H1060 0.950 . S
C1037 C1054 1.574 1_565 S
C1037 C1056 1.397 . S
C1037 H1061 0.949 . S
H1038 C1042 0.949 . S
C1039 C1040 1.376 . S
C1039 C1041 1.327 . S
C1039 H1062 0.950 . S
C1040 C1039 1.376 . S
C1040 C1052 1.322 1_556 S
C1041 C1039 1.327 . S
C1041 C1057 1.455 . S
C1041 H1063 0.950 . S
C1042 H1038 0.949 . S
C1042 C1050 1.574 1_545 S
C1042 C1058 1.340 1_554 S
H1043 C1051 0.950 . S
H1044 C1049 0.950 . S
H1045 C1050 0.949 . S
H1046 C1052 0.950 . S
H1047 C1053 0.950 . S
H1048 C1054 0.949 . S
C1049 H1044 0.950 . S
C1049 C1051 1.327 . S
C1049 C1055 1.455 . S
C1050 C1042 1.574 1_565 S
C1050 H1045 0.949 . S
C1050 C1056 1.340 1_554 S
C1051 C1035 1.376 . S
C1051 H1043 0.950 . S
C1051 C1049 1.327 . S
C1052 C1040 1.322 1_554 S
C1052 H1046 0.950 . S
C1052 C1053 1.327 . S
C1053 H1047 0.950 . S
C1053 C1052 1.327 . S
C1053 C1057 1.403 1_554 S
C1054 C1037 1.574 1_545 S
C1054 H1048 0.949 . S
C1054 C1058 1.397 . S
C1055 C1036 1.403 1_556 S
C1055 C1049 1.455 . S
C1055 C1056 1.523 . S
C1056 C1037 1.397 . S
C1056 C1050 1.340 1_556 S
C1056 C1055 1.523 . S
C1057 C1041 1.455 . S
C1057 C1053 1.403 1_556 S
C1057 C1058 1.523 . S
C1058 C1042 1.340 1_556 S
C1058 C1054 1.397 . S
C1058 C1057 1.523 . S
H1059 C1034 0.950 . S
H1060 C1036 0.950 . S
H1061 C1037 0.949 . S
H1062 C1039 0.950 . S
H1063 C1041 0.950 . S
C1064 C1065 1.349 . S
C1064 C1066 1.327 . S
C1064 H1089 0.950 . S
C1065 C1064 1.349 . S
C1065 C1081 1.349 1_554 S
C1066 C1064 1.327 . S
C1066 C1085 1.429 . S
C1066 H1090 0.950 . S
C1067 C1084 1.574 . S
C1067 C1086 1.368 1_556 S
C1067 H1091 0.949 . S
H1068 C1072 0.949 . S
C1069 C1070 1.349 1_556 S
C1069 C1071 1.327 . S
C1069 H1092 0.950 . S
C1070 C1069 1.349 1_554 S
C1070 C1082 1.349 . S
C1071 C1069 1.327 . S
C1071 C1087 1.429 1_556 S
C1071 H1093 0.950 . S
C1072 H1068 0.949 . S
C1072 C1080 1.574 . S
C1072 C1088 1.368 . S
H1073 C1081 0.950 . S
H1074 C1079 0.950 . S
H1075 C1080 0.949 . S
H1076 C1082 0.950 . S
H1077 C1083 0.950 . S
H1078 C1084 0.949 . S
C1079 H1074 0.950 . S
C1079 C1081 1.327 . S
C1079 C1085 1.429 1_556 S
C1080 C1072 1.574 . S
C1080 H1075 0.949 . S
C1080 C1086 1.368 . S
C1081 C1065 1.349 1_556 S
C1081 H1073 0.950 . S
C1081 C1079 1.327 . S
C1082 C1070 1.349 . S
C1082 H1076 0.950 . S
C1082 C1083 1.327 . S
C1083 H1077 0.950 . S
C1083 C1082 1.327 . S
C1083 C1087 1.429 . S
C1084 C1067 1.574 . S
C1084 H1078 0.949 . S
C1084 C1088 1.368 1_556 S
C1085 C1066 1.429 . S
C1085 C1079 1.429 1_554 S
C1085 C1086 1.523 . S
C1086 C1067 1.368 1_554 S
C1086 C1080 1.368 . S
C1086 C1085 1.523 . S
C1087 C1071 1.429 1_554 S
C1087 C1083 1.429 . S
C1087 C1088 1.523 . S
C1088 C1072 1.368 . S
C1088 C1084 1.368 1_554 S
C1088 C1087 1.523 . S
H1089 C1064 0.950 . S
H1090 C1066 0.950 . S
H1091 C1067 0.949 . S
H1092 C1069 0.950 . S
H1093 C1071 0.950 . S
C1094 C1095 1.349 1_556 S
C1094 C1096 1.327 . S
C1094 H1119 0.950 . S
C1095 C1094 1.349 1_554 S
C1095 C1111 1.349 . S
C1096 C1094 1.327 . S
C1096 C1115 1.429 1_556 S
C1096 H1120 0.950 . S
C1097 C1114 1.574 . S
C1097 C1116 1.368 . S
C1097 H1121 0.949 . S
H1098 C1102 0.949 . S
C1099 C1100 1.349 . S
C1099 C1101 1.327 . S
C1099 H1122 0.950 . S
C1100 C1099 1.349 . S
C1100 C1112 1.349 1_554 S
C1101 C1099 1.327 . S
C1101 C1117 1.429 . S
C1101 H1123 0.950 . S
C1102 H1098 0.949 . S
C1102 C1110 1.574 . S
C1102 C1118 1.368 1_556 S
H1103 C1111 0.950 . S
H1104 C1109 0.950 . S
H1105 C1110 0.949 . S
H1106 C1112 0.950 . S
H1107 C1113 0.950 . S
H1108 C1114 0.949 . S
C1109 H1104 0.950 . S
C1109 C1111 1.327 . S
C1109 C1115 1.429 . S
C1110 C1102 1.574 . S
C1110 H1105 0.949 . S
C1110 C1116 1.368 1_556 S
C1111 C1095 1.349 . S
C1111 H1103 0.950 . S
C1111 C1109 1.327 . S
C1112 C1100 1.349 1_556 S
C1112 H1106 0.950 . S
C1112 C1113 1.327 . S
C1113 H1107 0.950 . S
C1113 C1112 1.327 . S
C1113 C1117 1.429 1_556 S
C1114 C1097 1.574 . S
C1114 H1108 0.949 . S
C1114 C1118 1.368 . S
C1115 C1096 1.429 1_554 S
C1115 C1109 1.429 . S
C1115 C1116 1.523 . S
C1116 C1097 1.368 . S
C1116 C1110 1.368 1_554 S
C1116 C1115 1.523 . S
C1117 C1101 1.429 . S
C1117 C1113 1.429 1_554 S
C1117 C1118 1.523 . S
C1118 C1102 1.368 1_554 S
C1118 C1114 1.368 . S
C1118 C1117 1.523 . S
H1119 C1094 0.950 . S
H1120 C1096 0.950 . S
H1121 C1097 0.949 . S
H1122 C1099 0.950 . S
H1123 C1101 0.950 . S
C1124 C1125 1.349 . S
C1124 C1126 1.327 . S
C1124 H1149 0.950 . S
C1125 C1124 1.349 . S
C1125 C1141 1.349 . S
C1126 C1124 1.327 . S
C1126 C1145 1.429 . S
C1126 H1150 0.950 . S
C1127 C1144 1.574 1_455 S
C1127 C1146 1.368 . S
C1127 H1151 0.949 . S
H1128 C1132 0.949 . S
C1129 C1130 1.349 . S
C1129 C1131 1.327 . S
C1129 H1152 0.950 . S
C1130 C1129 1.349 . S
C1130 C1142 1.349 . S
C1131 C1129 1.327 . S
C1131 C1147 1.429 . S
C1131 H1153 0.950 . S
C1132 H1128 0.949 . S
C1132 C1140 1.574 1_655 S
C1132 C1148 1.368 . S
H1133 C1141 0.950 . S
H1134 C1139 0.950 . S
H1135 C1140 0.949 . S
H1136 C1142 0.950 . S
H1137 C1143 0.950 . S
H1138 C1144 0.949 . S
C1139 H1134 0.950 . S
C1139 C1141 1.327 . S
C1139 C1145 1.429 . S
C1140 C1132 1.574 1_455 S
C1140 H1135 0.949 . S
C1140 C1146 1.368 . S
C1141 C1125 1.349 . S
C1141 H1133 0.950 . S
C1141 C1139 1.327 . S
C1142 C1130 1.349 . S
C1142 H1136 0.950 . S
C1142 C1143 1.327 . S
C1143 H1137 0.950 . S
C1143 C1142 1.327 . S
C1143 C1147 1.429 . S
C1144 C1127 1.574 1_655 S
C1144 H1138 0.949 . S
C1144 C1148 1.368 . S
C1145 C1126 1.429 . S
C1145 C1139 1.429 . S
C1145 C1146 1.523 . S
C1146 C1127 1.368 . S
C1146 C1140 1.368 . S
C1146 C1145 1.523 . S
C1147 C1131 1.429 . S
C1147 C1143 1.429 . S
C1147 C1148 1.523 . S
C1148 C1132 1.368 . S
C1148 C1144 1.368 . S
C1148 C1147 1.523 . S
H1149 C1124 0.950 . S
H1150 C1126 0.950 . S
H1151 C1127 0.949 . S
H1152 C1129 0.950 . S
H1153 C1131 0.950 . S
C1154 C1155 1.349 . S
C1154 C1156 1.327 . S
C1154 H1179 0.950 . S
C1155 C1154 1.349 . S
C1155 C1171 1.349 . S
C1156 C1154 1.327 . S
C1156 C1175 1.429 . S
C1156 H1180 0.950 . S
C1157 C1174 1.574 . S
C1157 C1176 1.368 . S
C1157 H1181 0.949 . S
H1158 C1162 0.949 . S
C1159 C1160 1.349 . S
C1159 C1161 1.327 . S
C1159 H1182 0.950 . S
C1160 C1159 1.349 . S
C1160 C1172 1.349 . S
C1161 C1159 1.327 . S
C1161 C1177 1.429 . S
C1161 H1183 0.950 . S
C1162 H1158 0.949 . S
C1162 C1170 1.574 . S
C1162 C1178 1.368 . S
H1163 C1171 0.950 . S
H1164 C1169 0.950 . S
H1165 C1170 0.949 . S
H1166 C1172 0.950 . S
H1167 C1173 0.950 . S
H1168 C1174 0.949 . S
C1169 H1164 0.950 . S
C1169 C1171 1.327 . S
C1169 C1175 1.429 . S
C1170 C1162 1.574 . S
C1170 H1165 0.949 . S
C1170 C1176 1.368 . S
C1171 C1155 1.349 . S
C1171 H1163 0.950 . S
C1171 C1169 1.327 . S
C1172 C1160 1.349 . S
C1172 H1166 0.950 . S
C1172 C1173 1.327 . S
C1173 H1167 0.950 . S
C1173 C1172 1.327 . S
C1173 C1177 1.429 . S
C1174 C1157 1.574 . S
C1174 H1168 0.949 . S
C1174 C1178 1.368 . S
C1175 C1156 1.429 . S
C1175 C1169 1.429 . S
C1175 C1176 1.523 . S
C1176 C1157 1.368 . S
C1176 C1170 1.368 . S
C1176 C1175 1.523 . S
C1177 C1161 1.429 . S
C1177 C1173 1.429 . S
C1177 C1178 1.523 . S
C1178 C1162 1.368 . S
C1178 C1174 1.368 . S
C1178 C1177 1.523 . S
H1179 C1154 0.950 . S
H1180 C1156 0.950 . S
H1181 C1157 0.949 . S
H1182 C1159 0.950 . S
H1183 C1161 0.950 . S
C1184 C1185 1.349 . S
C1184 C1186 1.327 . S
C1184 H1209 0.950 . S
C1185 C1184 1.349 . S
C1185 C1201 1.349 . S
C1186 C1184 1.327 . S
C1186 C1205 1.429 . S
C1186 H1210 0.950 . S
C1187 C1204 1.574 . S
C1187 C1206 1.368 . S
C1187 H1211 0.949 . S
H1188 C1192 0.949 . S
C1189 C1190 1.349 . S
C1189 C1191 1.327 . S
C1189 H1212 0.950 . S
C1190 C1189 1.349 . S
C1190 C1202 1.349 . S
C1191 C1189 1.327 . S
C1191 C1207 1.429 . S
C1191 H1213 0.950 . S
C1192 H1188 0.949 . S
C1192 C1200 1.574 . S
C1192 C1208 1.368 . S
H1193 C1201 0.950 . S
H1194 C1199 0.950 . S
H1195 C1200 0.949 . S
H1196 C1202 0.950 . S
H1197 C1203 0.950 . S
H1198 C1204 0.949 . S
C1199 H1194 0.950 . S
C1199 C1201 1.327 . S
C1199 C1205 1.429 . S
C1200 C1192 1.574 . S
C1200 H1195 0.949 . S
C1200 C1206 1.368 . S
C1201 C1185 1.349 . S
C1201 H1193 0.950 . S
C1201 C1199 1.327 . S
C1202 C1190 1.349 . S
C1202 H1196 0.950 . S
C1202 C1203 1.327 . S
C1203 H1197 0.950 . S
C1203 C1202 1.327 . S
C1203 C1207 1.429 . S
C1204 C1187 1.574 . S
C1204 H1198 0.949 . S
C1204 C1208 1.368 . S
C1205 C1186 1.429 . S
C1205 C1199 1.429 . S
C1205 C1206 1.523 . S
C1206 C1187 1.368 . S
C1206 C1200 1.368 . S
C1206 C1205 1.523 . S
C1207 C1191 1.429 . S
C1207 C1203 1.429 . S
C1207 C1208 1.523 . S
C1208 C1192 1.368 . S
C1208 C1204 1.368 . S
C1208 C1207 1.523 . S
H1209 C1184 0.950 . S
H1210 C1186 0.950 . S
H1211 C1187 0.949 . S
H1212 C1189 0.950 . S
H1213 C1191 0.950 . S
C1214 C1215 1.349 1_565 S
C1214 C1216 1.327 . S
C1214 H1239 0.950 . S
C1215 C1214 1.349 1_545 S
C1215 C1231 1.349 . S
C1216 C1214 1.327 . S
C1216 C1235 1.429 1_565 S
C1216 H1240 0.950 . S
C1217 C1234 1.574 1_655 S
C1217 C1236 1.368 . S
C1217 H1241 0.949 . S
H1218 C1222 0.949 . S
C1219 C1220 1.349 1_545 S
C1219 C1221 1.327 . S
C1219 H1242 0.950 . S
C1220 C1219 1.349 1_565 S
C1220 C1232 1.349 . S
C1221 C1219 1.327 . S
C1221 C1237 1.429 1_545 S
C1221 H1243 0.950 . S
C1222 H1218 0.949 . S
C1222 C1230 1.574 1_455 S
C1222 C1238 1.368 . S
H1223 C1231 0.950 . S
H1224 C1229 0.950 . S
H1225 C1230 0.949 . S
H1226 C1232 0.950 . S
H1227 C1233 0.950 . S
H1228 C1234 0.949 . S
C1229 H1224 0.950 . S
C1229 C1231 1.327 . S
C1229 C1235 1.429 . S
C1230 C1222 1.574 1_655 S
C1230 H1225 0.949 . S
C1230 C1236 1.368 1_565 S
C1231 C1215 1.349 . S
C1231 H1223 0.950 . S
C1231 C1229 1.327 . S
C1232 C1220 1.349 . S
C1232 H1226 0.950 . S
C1232 C1233 1.327 . S
C1233 H1227 0.950 . S
C1233 C1232 1.327 . S
C1233 C1237 1.429 . S
C1234 C1217 1.574 1_455 S
C1234 H1228 0.949 . S
C1234 C1238 1.368 1_545 S
C1235 C1216 1.429 1_545 S
C1235 C1229 1.429 . S
C1235 C1236 1.523 . S
C1236 C1217 1.368 . S
C1236 C1230 1.368 1_545 S
C1236 C1235 1.523 . S
C1237 C1221 1.429 1_565 S
C1237 C1233 1.429 . S
C1237 C1238 1.523 . S
C1238 C1222 1.368 . S
C1238 C1234 1.368 1_565 S
C1238 C1237 1.523 . S
H1239 C1214 0.950 . S
H1240 C1216 0.950 . S
H1241 C1217 0.949 . S
H1242 C1219 0.950 . S
H1243 C1221 0.950 . S
C1244 C1245 1.349 . S
C1244 C1246 1.327 . S
C1244 H1269 0.950 . S
C1245 C1244 1.349 . S
C1245 C1261 1.349 . S
C1246 C1244 1.327 . S
C1246 C1265 1.429 . S
C1246 H1270 0.950 . S
C1247 C1264 1.574 . S
C1247 C1266 1.368 . S
C1247 H1271 0.949 . S
H1248 C1252 0.949 . S
C1249 C1250 1.349 . S
C1249 C1251 1.327 . S
C1249 H1272 0.950 . S
C1250 C1249 1.349 . S
C1250 C1262 1.349 . S
C1251 C1249 1.327 . S
C1251 C1267 1.429 . S
C1251 H1273 0.950 . S
C1252 H1248 0.949 . S
C1252 C1260 1.574 . S
C1252 C1268 1.368 . S
H1253 C1261 0.950 . S
H1254 C1259 0.950 . S
H1255 C1260 0.949 . S
H1256 C1262 0.950 . S
H1257 C1263 0.950 . S
H1258 C1264 0.949 . S
C1259 H1254 0.950 . S
C1259 C1261 1.327 . S
C1259 C1265 1.429 . S
C1260 C1252 1.574 . S
C1260 H1255 0.949 . S
C1260 C1266 1.368 . S
C1261 C1245 1.349 . S
C1261 H1253 0.950 . S
C1261 C1259 1.327 . S
C1262 C1250 1.349 . S
C1262 H1256 0.950 . S
C1262 C1263 1.327 . S
C1263 H1257 0.950 . S
C1263 C1262 1.327 . S
C1263 C1267 1.429 . S
C1264 C1247 1.574 . S
C1264 H1258 0.949 . S
C1264 C1268 1.368 . S
C1265 C1246 1.429 . S
C1265 C1259 1.429 . S
C1265 C1266 1.523 . S
C1266 C1247 1.368 . S
C1266 C1260 1.368 . S
C1266 C1265 1.523 . S
C1267 C1251 1.429 . S
C1267 C1263 1.429 . S
C1267 C1268 1.523 . S
C1268 C1252 1.368 . S
C1268 C1264 1.368 . S
C1268 C1267 1.523 . S
H1269 C1244 0.950 . S
H1270 C1246 0.950 . S
H1271 C1247 0.949 . S
H1272 C1249 0.950 . S
H1273 C1251 0.950 . S
C1274 C1275 1.349 . S
C1274 C1276 1.327 . S
C1274 H1299 0.950 . S
C1275 C1274 1.349 . S
C1275 C1291 1.349 1_565 S
C1276 C1274 1.327 . S
C1276 C1295 1.429 . S
C1276 H1300 0.950 . S
C1277 C1294 1.574 . S
C1277 C1296 1.368 1_545 S
C1277 H1301 0.949 . S
H1278 C1282 0.949 . S
C1279 C1280 1.349 . S
C1279 C1281 1.327 . S
C1279 H1302 0.950 . S
C1280 C1279 1.349 . S
C1280 C1292 1.349 1_545 S
C1281 C1279 1.327 . S
C1281 C1297 1.429 . S
C1281 H1303 0.950 . S
C1282 H1278 0.949 . S
C1282 C1290 1.574 . S
C1282 C1298 1.368 1_565 S
H1283 C1291 0.950 . S
H1284 C1289 0.950 . S
H1285 C1290 0.949 . S
H1286 C1292 0.950 . S
H1287 C1293 0.950 . S
H1288 C1294 0.949 . S
C1289 H1284 0.950 . S
C1289 C1291 1.327 . S
C1289 C1295 1.429 1_545 S
C1290 C1282 1.574 . S
C1290 H1285 0.949 . S
C1290 C1296 1.368 . S
C1291 C1275 1.349 1_545 S
C1291 H1283 0.950 . S
C1291 C1289 1.327 . S
C1292 C1280 1.349 1_565 S
C1292 H1286 0.950 . S
C1292 C1293 1.327 . S
C1293 H1287 0.950 . S
C1293 C1292 1.327 . S
C1293 C1297 1.429 1_565 S
C1294 C1277 1.574 . S
C1294 H1288 0.949 . S
C1294 C1298 1.368 . S
C1295 C1276 1.429 . S
C1295 C1289 1.429 1_565 S
C1295 C1296 1.523 . S
C1296 C1277 1.368 1_565 S
C1296 C1290 1.368 . S
C1296 C1295 1.523 . S
C1297 C1281 1.429 . S
C1297 C1293 1.429 1_545 S
C1297 C1298 1.523 . S
C1298 C1282 1.368 1_545 S
C1298 C1294 1.368 . S
C1298 C1297 1.523 . S
H1299 C1274 0.950 . S
H1300 C1276 0.950 . S
H1301 C1277 0.949 . S
H1302 C1279 0.950 . S
H1303 C1281 0.950 . S
C345 C27 1.644 . S
C350 C76 1.780 . S
C375 C32 1.644 1_565 S
C380 C126 1.783 . S
C405 C162 1.784 . S
C410 C70 1.643 . S
C435 C118 1.644 . S
C440 C169 1.785 . S
C465 C156 1.644 . S
C470 C205 1.783 . S
C495 C248 1.784 . S
C500 C161 1.645 . S
C525 C199 1.644 . S
C530 C33 1.786 . S
C555 C242 1.644 . S
C560 C40 1.786 . S
C585 C255 1.784 . S
C590 C285 1.644 . S
C615 C290 1.644 1_565 S
C620 C212 1.784 . S
C645 C334 1.784 . S
C650 C247 1.646 . S
C675 C341 1.784 . S
C680 C204 1.646 . S
C705 C328 1.644 . S
C710 C119 1.781 . S
C735 C83 1.784 . S
C740 C333 1.641 . S
C765 C291 1.784 . S
C770 C113 1.644 . S
C795 C298 1.783 . S
C800 C75 1.643 . S
C825 C13 1.597 . S
C830 C39 1.597 . S
C855 C82 1.595 . S
C860 C56 1.595 . S
C885 C125 1.595 . S
C890 C99 1.595 . S
C915 C168 1.595 . S
C920 C142 1.595 . S
C945 C211 1.595 . S
C950 C185 1.595 . S
C975 C228 1.595 . S
C980 C254 1.595 . S
C1005 C271 1.595 . S
C1010 C297 1.595 . S
C1035 C340 1.597 . S
C1040 C314 1.597 . S
C1065 N309 1.252 . S
C1070 N3 1.249 . S
C1095 N8 1.252 . S
C1100 N304 1.254 . S
C1125 N46 1.252 . S
C1130 N94 1.252 . S
C1155 N266 1.252 . S
C1160 N132 1.250 . S
C1185 N137 1.252 . S
C1190 N261 1.253 . S
C1215 N218 1.252 . S
C1220 N175 1.252 . S
C1245 N223 1.252 . S
C1250 N180 1.252 . S
C1275 N89 1.252 . S
C1280 N51 1.252 . S
