# Generated by pormake.
# Topology umf, (4)-cn, num edge types: 1
# Building blocks:
#     Node 0, Type 0, BuildingBlock: QUQFOY_clean_sbu_1, # of connection points: 4
#     Node 1, Type 0, BuildingBlock: QUQFOY_clean_sbu_1, # of connection points: 4
#     Node 2, Type 0, BuildingBlock: QUQFOY_clean_sbu_1, # of connection points: 4
#     Node 3, Type 0, BuildingBlock: QUQFOY_clean_sbu_1, # of connection points: 4
#     Node 4, Type 0, BuildingBlock: QUQFOY_clean_sbu_1, # of connection points: 4
#     Node 5, Type 0, BuildingBlock: QUQFOY_clean_sbu_1, # of connection points: 4
#     Node 6, Type 0, BuildingBlock: QUQFOY_clean_sbu_1, # of connection points: 4
#     Node 7, Type 0, BuildingBlock: QUQFOY_clean_sbu_1, # of connection points: 4
#     Edge 8, Type (0, 0), BuildingBlock: UVAHIK_clean_linker_0, # of connection points: 2
#     Edge 9, Type (0, 0), BuildingBlock: UVAHIK_clean_linker_0, # of connection points: 2
#     Edge 10, Type (0, 0), BuildingBlock: UVAHIK_clean_linker_0, # of connection points: 2
#     Edge 11, Type (0, 0), BuildingBlock: UVAHIK_clean_linker_0, # of connection points: 2
#     Edge 12, Type (0, 0), BuildingBlock: UVAHIK_clean_linker_0, # of connection points: 2
#     Edge 13, Type (0, 0), BuildingBlock: UVAHIK_clean_linker_0, # of connection points: 2
#     Edge 14, Type (0, 0), BuildingBlock: UVAHIK_clean_linker_0, # of connection points: 2
#     Edge 15, Type (0, 0), BuildingBlock: UVAHIK_clean_linker_0, # of connection points: 2
#     Edge 16, Type (0, 0), BuildingBlock: UVAHIK_clean_linker_0, # of connection points: 2
#     Edge 17, Type (0, 0), BuildingBlock: UVAHIK_clean_linker_0, # of connection points: 2
#     Edge 18, Type (0, 0), BuildingBlock: UVAHIK_clean_linker_0, # of connection points: 2
#     Edge 19, Type (0, 0), BuildingBlock: UVAHIK_clean_linker_0, # of connection points: 2
#     Edge 20, Type (0, 0), BuildingBlock: UVAHIK_clean_linker_0, # of connection points: 2
#     Edge 21, Type (0, 0), BuildingBlock: UVAHIK_clean_linker_0, # of connection points: 2
#     Edge 22, Type (0, 0), BuildingBlock: UVAHIK_clean_linker_0, # of connection points: 2
#     Edge 23, Type (0, 0), BuildingBlock: UVAHIK_clean_linker_0, # of connection points: 2
# Relax obj value: 0.062
# Max RMSD: 0.219
# Mean RMSD: 0.219
data_MOF--net-umf--node1-QUQFOY_clean_sbu_1--edge1-UVAHIK_clean_linker_0
_symmetry_space_group_name_H-M    P1
_symmetry_Int_Tables_number       1
_symmetry_cell_setting            triclinic
loop_
_symmetry_equiv_pos_as_xyz
'x, y, z'
_cell_length_a     37.746417
_cell_length_b     37.716552
_cell_length_c     68.507047
_cell_angle_alpha  89.928137
_cell_angle_beta   90.123867
_cell_angle_gamma 89.996151
loop_
_atom_site_label
_atom_site_type_symbol
_atom_site_fract_x
_atom_site_fract_y
_atom_site_fract_z
_atom_type_partial_charge
O0 O 0.01799 0.25172 0.1389 0.0
Cd1 Cd 0.01947 0.25098 0.16892 0.0
Cd2 Cd 0.08735 0.23059 0.16114 0.0
O3 O 0.07534 0.24793 0.13274 0.0
O4 O 0.98329 0.28589 0.17882 0.0
O5 O 0.04115 0.29342 0.18145 0.0
C6 C 0.00964 0.30568 0.18396 0.0
C7 C 0.13194 0.24736 0.18304 0.0
C8 C 0.0435 0.2522 0.12679 0.0
C9 C 0.03811 0.17688 0.17913 0.0
O10 O 0.06616 0.18284 0.16944 0.0
O11 O 0.01597 0.20168 0.18234 0.0
O12 O 0.1391 0.22685 0.16845 0.0
O13 O 0.10077 0.26126 0.1837 0.0
O14 O 0.80252 0.05989 0.6699 0.0
Cd15 Cd 0.75679 0.08504 0.66153 0.0
Cd16 Cd 0.73072 0.01954 0.66919 0.0
O17 O 0.77912 0.01189 0.68312 0.0
O18 O 0.76498 0.13652 0.66818 0.0
O19 O 0.72788 0.10176 0.68414 0.0
C20 C 0.74429 0.13165 0.68297 0.0
C21 C 0.6749 0.01516 0.68374 0.0
C22 C 0.80587 0.03159 0.67981 0.0
C23 C 0.73291 0.04311 0.62703 0.0
O24 O 0.73105 0.01761 0.63917 0.0
O25 O 0.73917 0.07457 0.63304 0.0
O26 O 0.69229 0.98697 0.67896 0.0
O27 O 0.6901 0.04538 0.68112 0.0
O28 O 0.97615 0.73587 0.13915 0.0
Cd29 Cd 0.97435 0.73578 0.16916 0.0
Cd30 Cd 0.90856 0.76092 0.16142 0.0
O31 O 0.91899 0.74242 0.13311 0.0
O32 O 0.00755 0.69792 0.17907 0.0
O33 O 0.94923 0.69484 0.18125 0.0
C34 C 0.97967 0.68013 0.18393 0.0
C35 C 0.86265 0.74803 0.18323 0.0
C36 C 0.9505 0.73677 0.12707 0.0
C37 C 0.96135 0.81094 0.17932 0.0
O38 O 0.93323 0.80721 0.16929 0.0
O39 O 0.98118 0.78437 0.18291 0.0
O40 O 0.85708 0.76829 0.1683 0.0
O41 O 0.89288 0.73227 0.18439 0.0
O42 O 0.17859 0.92882 0.66923 0.0
Cd43 Cd 0.22689 0.90827 0.6615 0.0
Cd44 Cd 0.24576 0.97676 0.66905 0.0
O45 O 0.19636 0.97929 0.68234 0.0
O46 O 0.22389 0.85649 0.66896 0.0
O47 O 0.25707 0.89566 0.68445 0.0
C48 C 0.24384 0.8642 0.68373 0.0
C49 C 0.30042 0.98706 0.68413 0.0
C50 C 0.17199 0.95675 0.67892 0.0
C51 C 0.24827 0.95206 0.62712 0.0
O52 O 0.24658 0.97784 0.63904 0.0
O53 O 0.24496 0.9202 0.63326 0.0
O54 O 0.28039 0.01329 0.67901 0.0
O55 O 0.28838 0.95544 0.6816 0.0
O56 O 0.01588 0.73215 0.9097 0.0
Cd57 Cd 0.01782 0.73211 0.87969 0.0
Cd58 Cd 0.08319 0.75824 0.88751 0.0
O59 O 0.0728 0.74013 0.9159 0.0
O60 O 0.98525 0.69378 0.86978 0.0
O61 O 0.04361 0.69158 0.86763 0.0
C62 C 0.01341 0.67642 0.86494 0.0
C63 C 0.12967 0.74602 0.86596 0.0
C64 C 0.04136 0.73381 0.92186 0.0
C65 C 0.0297 0.80743 0.86936 0.0
O66 O 0.05795 0.80407 0.87933 0.0
O67 O 0.01013 0.78063 0.86591 0.0
O68 O 0.1346 0.76654 0.88083 0.0
O69 O 0.09979 0.72961 0.86476 0.0
O70 O 0.18687 0.06391 0.38 0.0
Cd71 Cd 0.23347 0.08782 0.38793 0.0
Cd72 Cd 0.25813 0.02237 0.37993 0.0
O73 O 0.20949 0.01631 0.36604 0.0
O74 O 0.22714 0.13939 0.38088 0.0
O75 O 0.26241 0.10276 0.36496 0.0
C76 C 0.24723 0.13333 0.36599 0.0
C77 C 0.31362 0.01517 0.36534 0.0
C78 C 0.18301 0.03611 0.36975 0.0
C79 C 0.25716 0.04516 0.42216 0.0
O80 O 0.25803 0.01978 0.40994 0.0
O81 O 0.25164 0.07685 0.41626 0.0
O82 O 0.29469 0.98793 0.37004 0.0
O83 O 0.30014 0.04616 0.36806 0.0
O84 O 0.97546 0.24856 0.90985 0.0
Cd85 Cd 0.9743 0.24756 0.87983 0.0
Cd86 Cd 0.90585 0.22861 0.88744 0.0
O87 O 0.91792 0.24642 0.91572 0.0
O88 O 0.01088 0.28204 0.86982 0.0
O89 O 0.9531 0.29014 0.86716 0.0
C90 C 0.98473 0.30208 0.86462 0.0
C91 C 0.86174 0.24579 0.8653 0.0
C92 C 0.94976 0.24996 0.92181 0.0
C93 C 0.95427 0.1737 0.86995 0.0
O94 O 0.92631 0.18031 0.87958 0.0
O95 O 0.97684 0.19807 0.8666 0.0
O96 O 0.85408 0.2257 0.88001 0.0
O97 O 0.89318 0.25903 0.8646 0.0
O98 O 0.81127 0.93179 0.37875 0.0
Cd99 Cd 0.76387 0.90986 0.38711 0.0
Cd100 Cd 0.74336 0.97845 0.37985 0.0
O101 O 0.79247 0.98266 0.36646 0.0
O102 O 0.76862 0.85808 0.37995 0.0
O103 O 0.73329 0.89558 0.36461 0.0
C104 C 0.74781 0.86469 0.36538 0.0
C105 C 0.68835 0.98629 0.36477 0.0
C106 C 0.8172 0.96028 0.36938 0.0
C107 C 0.74231 0.95293 0.42175 0.0
O108 O 0.74282 0.97887 0.40986 0.0
O109 O 0.7465 0.92125 0.41554 0.0
O110 O 0.70695 0.01343 0.37005 0.0
O111 O 0.70198 0.95529 0.36719 0.0
C112 C 0.0338 0.3647 0.19392 0.0
C113 C 0.00436 0.34256 0.1908 0.0
C114 C 0.02926 0.40082 0.19764 0.0
C115 C 0.96437 0.47226 0.18892 0.0
H116 H 0.03016 0.52784 0.21987 0.0
C117 C 0.95083 0.6236 0.19449 0.0
C118 C 0.98196 0.64287 0.1907 0.0
C119 C 0.95225 0.58719 0.19818 0.0
C120 C 0.01163 0.51265 0.21115 0.0
H121 H 0.94698 0.34063 0.1903 0.0
H122 H 0.93897 0.40358 0.19729 0.0
H123 H 0.03407 0.46317 0.22028 0.0
H124 H 0.03919 0.63932 0.18885 0.0
H125 H 0.04167 0.57563 0.19535 0.0
H126 H 0.94219 0.52167 0.17964 0.0
C127 C 0.96565 0.39317 0.19637 0.0
C128 C 0.01387 0.47559 0.21135 0.0
C129 C 0.97021 0.357 0.19252 0.0
C130 C 0.01473 0.62525 0.19171 0.0
C131 C 0.01615 0.58877 0.1955 0.0
C132 C 0.96198 0.50922 0.18885 0.0
C133 C 0.99515 0.41573 0.19846 0.0
C134 C 0.99062 0.45492 0.19997 0.0
C135 C 0.98483 0.5692 0.19826 0.0
C136 C 0.98588 0.52987 0.19973 0.0
H137 H 0.06051 0.35446 0.1927 0.0
H138 H 0.05264 0.41729 0.19894 0.0
H139 H 0.94645 0.45741 0.17966 0.0
H140 H 0.92514 0.63636 0.19394 0.0
H141 H 0.92771 0.57295 0.20055 0.0
C142 C 0.35942 0.96317 0.69431 0.0
C143 C 0.33732 0.99256 0.69091 0.0
C144 C 0.39556 0.96777 0.69794 0.0
C145 C 0.46707 0.03219 0.68853 0.0
H146 H 0.52262 0.96709 0.72002 0.0
C147 C 0.61858 0.04488 0.69382 0.0
C148 C 0.63759 0.01343 0.69038 0.0
C149 C 0.58219 0.04388 0.69748 0.0
C150 C 0.50744 0.98542 0.71115 0.0
H151 H 0.33548 0.04996 0.68984 0.0
H152 H 0.39848 0.05809 0.69668 0.0
H153 H 0.458 0.96354 0.72057 0.0
H154 H 0.63357 0.95614 0.68908 0.0
H155 H 0.56994 0.9544 0.69554 0.0
H156 H 0.51646 0.05381 0.67897 0.0
C157 C 0.38802 0.03139 0.69604 0.0
C158 C 0.47041 0.98339 0.71143 0.0
C159 C 0.35183 0.02677 0.69229 0.0
C160 C 0.61971 0.98083 0.69167 0.0
C161 C 0.58326 0.97983 0.69544 0.0
C162 C 0.50402 0.03439 0.68838 0.0
C163 C 0.41054 0.0019 0.69841 0.0
C164 C 0.44973 0.00637 0.69985 0.0
C165 C 0.56395 0.01142 0.69789 0.0
C166 C 0.52466 0.01069 0.69945 0.0
H167 H 0.34915 0.93641 0.69336 0.0
H168 H 0.41198 0.94438 0.69945 0.0
H169 H 0.45221 0.0499 0.67913 0.0
H170 H 0.63154 0.07046 0.69304 0.0
H171 H 0.56816 0.06863 0.6996 0.0
C172 C 0.02454 0.35328 0.85628 0.0
C173 C 0.99031 0.3389 0.85771 0.0
C174 C 0.02927 0.38944 0.85241 0.0
C175 C 0.98153 0.47193 0.8369 0.0
H176 H 0.05202 0.518 0.86934 0.0
C177 C 0.97908 0.62127 0.85683 0.0
C178 C 0.01166 0.63916 0.85816 0.0
C179 C 0.97807 0.58483 0.85297 0.0
C180 C 0.03258 0.50555 0.85993 0.0
H181 H 0.93425 0.35089 0.85524 0.0
H182 H 0.9424 0.41368 0.84896 0.0
H183 H 0.048 0.45371 0.8692 0.0
H184 H 0.06863 0.63314 0.85545 0.0
H185 H 0.06678 0.56975 0.84872 0.0
H186 H 0.96529 0.52419 0.8283 0.0
C187 C 0.96572 0.39718 0.85051 0.0
C188 C 0.03033 0.46858 0.8598 0.0
C189 C 0.96102 0.36108 0.85425 0.0
C190 C 0.04307 0.62017 0.85464 0.0
C191 C 0.04206 0.58378 0.85089 0.0
C192 C 0.98362 0.50899 0.83716 0.0
C193 C -0.00013 0.41205 0.85 0.0
C194 C 0.00446 0.45124 0.84849 0.0
C195 C 0.00963 0.56553 0.85046 0.0
C196 C 0.00891 0.52622 0.84887 0.0
H197 H 0.04767 0.33688 0.85876 0.0
H198 H 0.05599 0.39982 0.85174 0.0
H199 H 0.96165 0.45952 0.82777 0.0
H200 H 0.95442 0.63512 0.85948 0.0
H201 H 0.95266 0.57149 0.85286 0.0
C202 C 0.36578 0.97768 0.35588 0.0
C203 C 0.35077 0.01134 0.35873 0.0
C204 C 0.40203 0.97415 0.35208 0.0
C205 C 0.48386 0.02517 0.33923 0.0
H206 H 0.53042 0.94967 0.36789 0.0
C207 C 0.63397 0.02294 0.35819 0.0
C208 C 0.65126 0.98993 0.35793 0.0
C209 C 0.59749 0.02516 0.35457 0.0
C210 C 0.51784 0.97058 0.35953 0.0
H211 H 0.36177 0.06781 0.35899 0.0
H212 H 0.42483 0.06165 0.35286 0.0
H213 H 0.46623 0.95371 0.3682 0.0
H214 H 0.64422 0.9337 0.35242 0.0
H215 H 0.58088 0.93767 0.34605 0.0
H216 H 0.53596 0.04267 0.33123 0.0
C217 C 0.40871 0.03792 0.35321 0.0
C218 C 0.48092 0.97286 0.35965 0.0
C219 C 0.37247 0.04145 0.35685 0.0
C220 C 0.6317 0.95953 0.35291 0.0
C221 C 0.59534 0.96174 0.34935 0.0
C222 C 0.52091 0.02303 0.33924 0.0
C223 C 0.42416 0.00418 0.35121 0.0
C224 C 0.46339 0.00035 0.34965 0.0
C225 C 0.57762 0.9944 0.35067 0.0
C226 C 0.5383 0.99584 0.34951 0.0
H227 H 0.34975 0.95397 0.3571 0.0
H228 H 0.41284 0.94777 0.35021 0.0
H229 H 0.4713 0.04641 0.33113 0.0
H230 H 0.64828 0.04685 0.36202 0.0
H231 H 0.58458 0.05071 0.35577 0.0
C232 C 0.93125 0.25502 0.95724 0.0
C233 C 0.95798 0.2543 0.94297 0.0
C234 C 0.94 0.25736 0.97715 0.0
C235 C 0.01489 0.27982 1.01097 0.0
H236 H 0.96146 0.22378 0.04808 0.0
C237 C 0.06133 0.25486 0.09116 0.0
C238 C 0.03497 0.25615 0.10563 0.0
C239 C 0.05213 0.25653 0.07128 0.0
C240 C 0.97649 0.23987 0.03795 0.0
H241 H 0.01499 0.25587 0.93866 0.0
H242 H 0.02998 0.25922 0.97297 0.0
H243 H 0.9441 0.22392 1.01382 0.0
H244 H 0.97826 0.26113 0.11035 0.0
H245 H 0.96258 0.26406 0.07605 0.0
H246 H 0.04762 0.29523 0.03516 0.0
C247 C 0.00224 0.25867 0.96893 0.0
C248 C 0.96641 0.24007 1.01826 0.0
C249 C 0.99354 0.25648 0.94914 0.0
C250 C -0.00061 0.25982 0.09971 0.0
C251 C 0.99026 0.26129 0.07996 0.0
C252 C 0.02509 0.27943 0.03065 0.0
C253 C 0.97568 0.25897 0.98327 0.0
C254 C 0.9855 0.25997 1.00445 0.0
C255 C 0.01639 0.25927 0.06545 0.0
C256 C 0.00601 0.25946 0.0444 0.0
H257 H 0.90362 0.25345 0.95305 0.0
H258 H 0.91876 0.25798 0.98773 0.0
H259 H 0.02995 0.29596 1.00088 0.0
H260 H 0.08895 0.25201 0.09515 0.0
H261 H 0.07293 0.25476 0.06046 0.0
C262 C 0.73313 0.06134 0.59143 0.0
C263 C 0.72972 0.03492 0.60582 0.0
C264 C 0.73234 0.05242 0.57152 0.0
C265 C 0.74803 0.97663 0.53833 0.0
H266 H 0.69626 0.03277 0.50044 0.0
C267 C 0.73619 0.93367 0.45705 0.0
C268 C 0.73808 0.96073 0.44295 0.0
C269 C 0.73335 0.94202 0.47699 0.0
C270 C 0.71123 0.01696 0.51076 0.0
H271 H 0.72194 0.97841 0.61035 0.0
H272 H 0.72058 0.96317 0.57595 0.0
H273 H 0.69546 0.0498 0.53476 0.0
H274 H 0.73846 0.0179 0.43896 0.0
H275 H 0.73435 0.03218 0.47328 0.0
H276 H 0.76439 0.94415 0.51438 0.0
C277 C 0.72428 0.99069 0.57998 0.0
C278 C 0.71072 0.02678 0.53047 0.0
C279 C 0.72483 -0.00043 0.59977 0.0
C280 C 0.73684 -0.00379 0.4493 0.0
C281 C 0.73421 0.0045 0.4691 0.0
C282 C 0.74877 0.96695 0.5186 0.0
C283 C 0.7284 0.01687 0.56558 0.0
C284 C 0.72911 0.00675 0.54452 0.0
C285 C 0.73245 0.97762 0.48329 0.0
C286 C 0.73047 0.98702 0.50449 0.0
H287 H 0.73699 0.0888 0.59552 0.0
H288 H 0.73575 0.07323 0.56078 0.0
H289 H 0.76288 0.96084 0.54872 0.0
H290 H 0.73701 0.90608 0.45272 0.0
H291 H 0.73164 0.92054 0.48744 0.0
C292 C 0.93161 0.73276 0.09163 0.0
C293 C 0.95848 0.73286 0.10588 0.0
C294 C 0.94013 0.73061 0.07171 0.0
C295 C 0.01466 0.70785 0.03781 0.0
H296 H 0.96049 0.76336 1.00065 0.0
C297 C 0.05971 0.73251 0.95747 0.0
C298 C 0.03318 0.73024 0.94306 0.0
C299 C 0.05084 0.73116 0.97737 0.0
C300 C 0.97574 0.74746 1.01081 0.0
H301 H 0.0155 0.73065 0.11016 0.0
H302 H 0.03013 0.72778 0.07584 0.0
H303 H 0.9437 0.76357 0.03497 0.0
H304 H 0.97651 0.72404 0.93849 0.0
H305 H 0.96138 0.72178 0.97287 0.0
H306 H 0.0471 0.69236 1.01358 0.0
C307 C 0.00243 0.72852 0.07988 0.0
C308 C 0.96599 0.74743 0.03053 0.0
C309 C 0.99395 0.73043 0.09969 0.0
C310 C -0.00224 0.72602 0.94908 0.0
C311 C 0.98895 0.72495 0.96886 0.0
C312 C 0.02458 0.70812 1.01811 0.0
C313 C 0.97574 0.72867 0.06555 0.0
C314 C 0.98532 0.72768 0.04435 0.0
C315 C 0.01526 0.72784 0.98329 0.0
C316 C 0.00522 0.7279 1.00435 0.0
H317 H 0.90403 0.73453 0.09585 0.0
H318 H 0.91876 0.73033 0.06115 0.0
H319 H 0.0299 0.69178 0.04788 0.0
H320 H 0.08721 0.73582 0.95339 0.0
H321 H 0.07175 0.73361 0.98814 0.0
C322 C 0.26546 0.00117 0.44924 0.0
C323 C 0.26069 0.03664 0.44333 0.0
C324 C 0.26628 0.99199 0.469 0.0
C325 C 0.2804 0.02739 0.51862 0.0
H326 H 0.22685 0.9445 0.53455 0.0
C327 C 0.25397 0.99575 0.59972 0.0
C328 C 0.25284 0.96018 0.60597 0.0
C329 C 0.25678 0.00431 0.57994 0.0
C330 C 0.24244 0.96737 0.53037 0.0
H331 H 0.25392 0.0904 0.45383 0.0
H332 H 0.25558 0.07431 0.48851 0.0
H333 H 0.2282 0.96167 0.50026 0.0
H334 H 0.25435 0.90566 0.59606 0.0
H335 H 0.25996 0.92059 0.5614 0.0
H336 H 0.29491 0.033 0.54867 0.0
C337 C 0.25872 0.05363 0.4777 0.0
C338 C 0.2431 0.97732 0.51067 0.0
C339 C 0.25769 0.06286 0.45782 0.0
C340 C 0.25508 0.93331 0.59181 0.0
C341 C 0.25806 0.94193 0.57191 0.0
C342 C 0.27994 0.01731 0.53832 0.0
C343 C 0.26252 0.01797 0.48351 0.0
C344 C 0.26196 0.00754 0.50454 0.0
C345 C 0.25878 0.97761 0.5657 0.0
C346 C 0.26075 0.98727 0.54452 0.0
H347 H 0.26807 0.98015 0.43858 0.0
H348 H 0.26989 0.96439 0.47292 0.0
H349 H 0.29562 0.05047 0.51438 0.0
H350 H 0.25213 0.01729 0.6101 0.0
H351 H 0.25654 0.03203 0.57582 0.0
C352 C 0.14675 0.27196 0.216 0.0
C353 C 0.15589 0.24997 0.20022 0.0
C354 C 0.16375 0.26839 0.23406 0.0
C355 C 0.23926 0.22533 0.2603 0.0
H356 H 0.17139 0.21915 0.30256 0.0
C357 C 0.26567 0.14782 0.33177 0.0
C358 C 0.24815 0.1579 0.349 0.0
C359 C 0.26015 0.16638 0.31432 0.0
C360 C 0.19101 0.22151 0.29113 0.0
H361 H 0.19203 0.20882 0.19072 0.0
H362 H 0.22162 0.20251 0.22224 0.0
H363 H 0.15197 0.23871 0.27057 0.0
H364 H 0.21334 0.19729 0.36169 0.0
H365 H 0.20449 0.23031 0.33141 0.0
H366 H 0.27815 0.20724 0.28089 0.0
C367 C 0.20138 0.22265 0.22064 0.0
C368 C 0.17979 0.23274 0.27266 0.0
C369 C 0.18439 0.22628 0.20252 0.0
C370 C 0.22713 0.18866 0.34869 0.0
C371 C 0.22175 0.20738 0.33123 0.0
C372 C 0.25056 0.2142 0.27886 0.0
C373 C 0.19029 0.24268 0.23686 0.0
C374 C 0.20358 0.23427 0.2569 0.0
C375 C 0.23709 0.19568 0.31364 0.0
C376 C 0.22644 0.21153 0.29446 0.0
H377 H 0.12509 0.29068 0.21472 0.0
H378 H 0.15508 0.28484 0.24609 0.0
H379 H 0.2584 0.22657 0.24857 0.0
H380 H 0.28205 0.12424 0.33144 0.0
H381 H 0.27231 0.15632 0.30114 0.0
C382 C 0.84765 0.27021 0.83217 0.0
C383 C 0.83793 0.24866 0.84806 0.0
C384 C 0.83065 0.26678 0.81411 0.0
C385 C 0.75423 0.22538 0.78799 0.0
H386 H 0.82219 0.21642 0.74595 0.0
C387 C 0.72589 0.14756 0.71697 0.0
C388 C 0.74398 0.15664 0.69974 0.0
C389 C 0.73184 0.16628 0.7343 0.0
C390 C 0.80256 0.21958 0.75731 0.0
H391 H 0.8008 0.20853 0.85775 0.0
H392 H 0.77117 0.20248 0.82623 0.0
H393 H 0.84194 0.23596 0.77786 0.0
H394 H 0.78028 0.19453 0.68689 0.0
H395 H 0.78986 0.22789 0.71694 0.0
H396 H 0.71495 0.20817 0.76743 0.0
C397 C 0.79189 0.22215 0.82774 0.0
C398 C 0.81398 0.23079 0.77573 0.0
C399 C 0.8089 0.22563 0.84586 0.0
C400 C 0.76603 0.18667 0.6999 0.0
C401 C 0.77183 0.20556 0.71723 0.0
C402 C 0.74272 0.21431 0.76948 0.0
C403 C 0.80352 0.24167 0.81143 0.0
C404 C 0.79012 0.23331 0.79142 0.0
C405 C 0.75589 0.19477 0.73485 0.0
C406 C 0.76687 0.21064 0.75395 0.0
H407 H 0.86974 0.28843 0.83337 0.0
H408 H 0.83977 0.28283 0.802 0.0
H409 H 0.73505 0.22739 0.79968 0.0
H410 H 0.7087 0.12457 0.71743 0.0
H411 H 0.71919 0.15692 0.7475 0.0
C412 C 0.72329 0.84932 0.33247 0.0
C413 C 0.74544 0.84055 0.3483 0.0
C414 C 0.72698 0.83222 0.31448 0.0
C415 C 0.77027 0.75684 0.28857 0.0
H416 H 0.77669 0.82468 0.24617 0.0
C417 C 0.8477 0.72974 0.21741 0.0
C418 C 0.83796 0.74744 0.20012 0.0
C419 C 0.82909 0.73545 0.23477 0.0
C420 C 0.77424 0.80506 0.25763 0.0
H421 H 0.78698 0.80491 0.35799 0.0
H422 H 0.79344 0.77507 0.32659 0.0
H423 H 0.75703 0.84418 0.27806 0.0
H424 H 0.79911 0.78275 0.18722 0.0
H425 H 0.76595 0.79187 0.21734 0.0
H426 H 0.78825 0.71782 0.26813 0.0
C427 C 0.77312 0.79515 0.32809 0.0
C428 C 0.76298 0.81634 0.27604 0.0
C429 C 0.76941 0.81227 0.34614 0.0
C430 C 0.80747 0.76883 0.20028 0.0
C431 C 0.78868 0.77436 0.21764 0.0
C432 C 0.78138 0.74546 0.27007 0.0
C433 C 0.75293 0.80591 0.31183 0.0
C434 C 0.76138 0.79256 0.29185 0.0
C435 C 0.80005 0.75884 0.2353 0.0
C436 C 0.78415 0.76957 0.25441 0.0
H437 H 0.70436 0.8708 0.33363 0.0
H438 H 0.71043 0.84065 0.3024 0.0
H439 H 0.76898 0.73773 0.30036 0.0
H440 H 0.87105 0.71307 0.21786 0.0
H441 H 0.83892 0.72314 0.248 0.0
C442 C 0.22356 0.81135 0.70312 0.0
C443 C 0.24658 0.84042 0.70098 0.0
C444 C 0.22 0.79434 0.72123 0.0
C445 C 0.22841 0.81638 0.77329 0.0
H446 H 0.206 0.71721 0.78145 0.0
C447 C 0.18451 0.76804 0.84904 0.0
C448 C 0.15456 0.74589 0.84917 0.0
C449 C 0.20332 0.77398 0.83172 0.0
C450 C 0.21207 0.74502 0.77943 0.0
H451 H 0.2862 0.87229 0.71578 0.0
H452 H 0.28045 0.84231 0.74712 0.0
H453 H 0.22521 0.73743 0.74925 0.0
H454 H 0.12255 0.71059 0.83143 0.0
H455 H 0.15477 0.72131 0.80136 0.0
H456 H 0.21401 0.82451 0.80307 0.0
C457 C 0.26449 0.83317 0.73497 0.0
C458 C 0.22314 0.75659 0.76095 0.0
C459 C 0.268 0.85018 0.71692 0.0
C460 C 0.14548 0.72785 0.8319 0.0
C461 C 0.16413 0.73394 0.81458 0.0
C462 C 0.21722 0.8049 0.79168 0.0
C463 C 0.23942 0.80599 0.73759 0.0
C464 C 0.231 0.79254 0.75757 0.0
C465 C 0.19254 0.75807 0.81407 0.0
C466 C 0.20835 0.76915 0.79499 0.0
H467 H 0.20656 0.80322 0.69119 0.0
H468 H 0.20036 0.77358 0.72269 0.0
H469 H 0.23354 0.84438 0.77119 0.0
H470 H 0.19237 0.78225 0.86208 0.0
H471 H 0.22559 0.79207 0.83204 0.0
C472 C -0.00307 0.12761 0.18883 0.0
C473 C 0.0315 0.14037 0.18608 0.0
C474 C 0.99115 0.09167 0.19294 0.0
C475 C 0.03565 0.00511 0.18629 0.0
H476 H 0.95602 0.96955 0.21609 0.0
C477 C 0.006 0.85547 0.19126 0.0
C478 C 0.97096 0.84689 0.18616 0.0
C479 C 0.01523 0.8906 0.19554 0.0
C480 C 0.97845 0.97914 0.20778 0.0
H481 H 0.08719 0.12632 0.187 0.0
H482 H 0.07726 0.06427 0.19481 0.0
H483 H 0.96869 0.0331 0.21586 0.0
H484 H 0.91776 0.86791 0.18275 0.0
H485 H 0.93383 0.92878 0.19024 0.0
H486 H 0.04505 0.95132 0.17794 0.0
C487 C 0.05447 0.08145 0.19307 0.0
C488 C 0.98561 0.01554 0.20756 0.0
C489 C 0.06019 0.1171 0.18869 0.0
C490 C 0.94508 0.8737 0.18645 0.0
C491 C 0.9542 0.90858 0.19092 0.0
C492 C 0.02866 0.96878 0.18663 0.0
C493 C 0.01988 0.06797 0.19463 0.0
C494 C 0.01392 0.02907 0.1965 0.0
C495 C 0.98949 0.9176 0.19507 0.0
C496 C -0.00042 0.95546 0.19705 0.0
H497 H 0.97434 0.14497 0.18688 0.0
H498 H 0.96412 0.08223 0.19389 0.0
H499 H 0.05727 0.01448 0.17729 0.0
H500 H 0.02649 0.83538 0.1912 0.0
H501 H 0.04262 0.89678 0.19883 0.0
C502 C 0.12224 -0.00299 0.68905 0.0
C503 C 0.13528 0.9627 0.68567 0.0
C504 C 0.08627 0.00227 0.69316 0.0
C505 C -1e-05 0.95767 0.68559 0.0
H506 H 0.96423 0.03481 0.71725 0.0
C507 C 0.85031 0.98624 0.6911 0.0
C508 C 0.84164 0.02161 0.68677 0.0
C509 C 0.88544 0.97681 0.69528 0.0
C510 C 0.97387 0.01307 0.70842 0.0
H511 H 0.12159 0.90685 0.68541 0.0
H512 H 0.05949 0.91586 0.69318 0.0
H513 H 0.02781 0.02262 0.71664 0.0
H514 H 0.86244 0.07513 0.68469 0.0
H515 H 0.92328 0.05874 0.69202 0.0
H516 H 0.9462 0.94852 0.6771 0.0
C517 C 0.0765 0.93887 0.69196 0.0
C518 C 0.01029 0.0062 0.70798 0.0
C519 C 0.11219 0.93369 0.68759 0.0
C520 C 0.86832 0.04757 0.68779 0.0
C521 C 0.90318 0.03825 0.69217 0.0
C522 C 0.96363 0.96438 0.68614 0.0
C523 C 0.06279 0.97326 0.69422 0.0
C524 C 0.02389 0.97882 0.69626 0.0
C525 C 0.91233 0.00267 0.69548 0.0
C526 C 0.95023 0.99259 0.69724 0.0
H527 H 0.13943 0.01986 0.68764 0.0
H528 H 0.07664 0.02916 0.69466 0.0
H529 H 0.00941 0.93677 0.6761 0.0
H530 H 0.83032 0.96568 0.69046 0.0
H531 H 0.89172 0.94919 0.69792 0.0
C532 C 0.99456 0.12393 0.85989 0.0
C533 C 0.96026 0.13697 0.8632 0.0
C534 C -0.00013 0.08793 0.85581 0.0
C535 C 0.95538 0.00158 0.86338 0.0
H536 H 0.03274 0.96577 0.83194 0.0
C537 C 0.98435 0.85181 0.85802 0.0
C538 C 0.01968 0.84325 0.86247 0.0
C539 C 0.97486 0.88693 0.85383 0.0
C540 C 0.01093 0.97542 0.84071 0.0
H541 H 0.90446 0.12322 0.86336 0.0
H542 H 0.91355 0.06105 0.85564 0.0
H543 H 0.02039 0.02938 0.83242 0.0
H544 H 0.07307 0.86423 0.86477 0.0
H545 H 0.05658 0.92507 0.8574 0.0
H546 H 0.94632 0.94778 0.87192 0.0
C547 C 0.93653 0.0781 0.8569 0.0
C548 C 0.00397 0.01186 0.84107 0.0
C549 C 0.9313 0.11383 0.86123 0.0
C550 C 0.04555 0.87002 0.86158 0.0
C551 C 0.03616 0.90488 0.85717 0.0
C552 C 0.96217 0.96521 0.86289 0.0
C553 C 0.97092 0.06441 0.85471 0.0
C554 C 0.97652 0.02547 0.85272 0.0
C555 C 0.00063 0.91392 0.85372 0.0
C556 C 0.99047 0.9518 0.85188 0.0
H557 H 0.01738 0.14116 0.86134 0.0
H558 H 0.02676 0.07831 0.85437 0.0
H559 H 0.93443 0.01102 0.8728 0.0
H560 H 0.96387 0.83173 0.85857 0.0
H561 H 0.94728 0.89314 0.85108 0.0
C562 C 0.87677 0.93838 0.35952 0.0
C563 C 0.85364 0.96706 0.36245 0.0
C564 C 0.91237 0.94415 0.35517 0.0
C565 C 0.97834 0.01338 0.34131 0.0
H566 H 0.04256 0.9526 0.37033 0.0
C567 C 0.12031 0.0528 0.36274 0.0
C568 C 0.14704 0.02682 0.36282 0.0
C569 C 0.08541 0.04391 0.35818 0.0
C570 C 0.02509 0.96938 0.36181 0.0
H571 H 0.84924 0.02431 0.36226 0.0
H572 H 0.9119 0.03459 0.35528 0.0
H573 H 0.97941 0.94053 0.37089 0.0
H574 H 0.15837 0.97139 0.35731 0.0
H575 H 0.09694 0.95567 0.34953 0.0
H576 H 0.02432 0.04316 0.33304 0.0
C577 C 0.90238 0.00754 0.35597 0.0
C578 C 0.98877 0.96248 0.36211 0.0
C579 C 0.86649 0.00171 0.36005 0.0
C580 C 0.13834 0.99196 0.35742 0.0
C581 C 0.1032 0.98295 0.35305 0.0
C582 C 0.01474 0.02044 0.34115 0.0
C583 C 0.92595 0.97878 0.35396 0.0
C584 C 0.96482 0.98468 0.35211 0.0
C585 C 0.07629 0.00876 0.35374 0.0
C586 C 0.03842 -0.00117 0.35166 0.0
H587 H 0.86748 0.91132 0.36095 0.0
H588 H 0.92944 0.92137 0.35319 0.0
H589 H 0.96078 0.03067 0.33318 0.0
H590 H 0.12618 0.07999 0.36667 0.0
H591 H 0.06528 0.06432 0.35903 0.0
loop_
_geom_bond_atom_site_label_1
_geom_bond_atom_site_label_2
_geom_bond_distance
_geom_bond_site_symmetry_2
_ccdc_geom_bond_type
O0 Cd1 2.223 . S
O0 C8 1.315 . S
Cd1 O0 2.223 . S
Cd1 O4 2.297 . S
Cd1 O5 2.439 . S
Cd1 O11 2.240 . S
Cd2 O3 2.240 . S
Cd2 O10 2.223 . S
Cd2 O12 2.297 . S
Cd2 O13 2.439 . S
O3 Cd2 2.240 . S
O3 C8 1.279 . S
O4 Cd1 2.297 . S
O4 C6 1.247 . S
O5 Cd1 2.439 . S
O5 C6 1.208 . S
C6 O4 1.247 . S
C6 O5 1.208 . S
C7 O12 1.247 . S
C7 O13 1.208 . S
C8 O0 1.315 . S
C8 O3 1.279 . S
C9 O10 1.315 . S
C9 O11 1.279 . S
O10 Cd2 2.223 . S
O10 C9 1.315 . S
O11 Cd1 2.240 . S
O11 C9 1.279 . S
O12 Cd2 2.297 . S
O12 C7 1.247 . S
O13 Cd2 2.439 . S
O13 C7 1.208 . S
O14 Cd15 2.223 . S
O14 C22 1.315 . S
Cd15 O14 2.223 . S
Cd15 O18 2.297 . S
Cd15 O19 2.439 . S
Cd15 O25 2.240 . S
Cd16 O17 2.240 . S
Cd16 O24 2.223 . S
Cd16 O26 2.297 . S
Cd16 O27 2.439 . S
O17 Cd16 2.240 . S
O17 C22 1.279 . S
O18 Cd15 2.297 . S
O18 C20 1.247 . S
O19 Cd15 2.439 . S
O19 C20 1.208 . S
C20 O18 1.247 . S
C20 O19 1.208 . S
C21 O26 1.247 . S
C21 O27 1.208 . S
C22 O14 1.315 . S
C22 O17 1.279 . S
C23 O24 1.315 . S
C23 O25 1.279 . S
O24 Cd16 2.223 . S
O24 C23 1.315 . S
O25 Cd15 2.240 . S
O25 C23 1.279 . S
O26 Cd16 2.297 . S
O26 C21 1.247 . S
O27 Cd16 2.439 . S
O27 C21 1.208 . S
O28 Cd29 2.223 . S
O28 C36 1.315 . S
Cd29 O28 2.223 . S
Cd29 O32 2.297 . S
Cd29 O33 2.439 . S
Cd29 O39 2.240 . S
Cd30 O31 2.240 . S
Cd30 O38 2.223 . S
Cd30 O40 2.297 . S
Cd30 O41 2.439 . S
O31 Cd30 2.240 . S
O31 C36 1.279 . S
O32 Cd29 2.297 . S
O32 C34 1.247 . S
O33 Cd29 2.439 . S
O33 C34 1.208 . S
C34 O32 1.247 . S
C34 O33 1.208 . S
C35 O40 1.247 . S
C35 O41 1.208 . S
C36 O28 1.315 . S
C36 O31 1.279 . S
C37 O38 1.315 . S
C37 O39 1.279 . S
O38 Cd30 2.223 . S
O38 C37 1.315 . S
O39 Cd29 2.240 . S
O39 C37 1.279 . S
O40 Cd30 2.297 . S
O40 C35 1.247 . S
O41 Cd30 2.439 . S
O41 C35 1.208 . S
O42 Cd43 2.223 . S
O42 C50 1.315 . S
Cd43 O42 2.223 . S
Cd43 O46 2.297 . S
Cd43 O47 2.439 . S
Cd43 O53 2.240 . S
Cd44 O45 2.240 . S
Cd44 O52 2.223 . S
Cd44 O54 2.297 . S
Cd44 O55 2.439 . S
O45 Cd44 2.240 . S
O45 C50 1.279 . S
O46 Cd43 2.297 . S
O46 C48 1.247 . S
O47 Cd43 2.439 . S
O47 C48 1.208 . S
C48 O46 1.247 . S
C48 O47 1.208 . S
C49 O54 1.247 . S
C49 O55 1.208 . S
C50 O42 1.315 . S
C50 O45 1.279 . S
C51 O52 1.315 . S
C51 O53 1.279 . S
O52 Cd44 2.223 . S
O52 C51 1.315 . S
O53 Cd43 2.240 . S
O53 C51 1.279 . S
O54 Cd44 2.297 . S
O54 C49 1.247 . S
O55 Cd44 2.439 . S
O55 C49 1.208 . S
O56 Cd57 2.223 . S
O56 C64 1.315 . S
Cd57 O56 2.223 . S
Cd57 O60 2.297 . S
Cd57 O61 2.439 . S
Cd57 O67 2.240 . S
Cd58 O59 2.240 . S
Cd58 O66 2.223 . S
Cd58 O68 2.297 . S
Cd58 O69 2.439 . S
O59 Cd58 2.240 . S
O59 C64 1.279 . S
O60 Cd57 2.297 . S
O60 C62 1.247 . S
O61 Cd57 2.439 . S
O61 C62 1.208 . S
C62 O60 1.247 . S
C62 O61 1.208 . S
C63 O68 1.247 . S
C63 O69 1.208 . S
C64 O56 1.315 . S
C64 O59 1.279 . S
C65 O66 1.315 . S
C65 O67 1.279 . S
O66 Cd58 2.223 . S
O66 C65 1.315 . S
O67 Cd57 2.240 . S
O67 C65 1.279 . S
O68 Cd58 2.297 . S
O68 C63 1.247 . S
O69 Cd58 2.439 . S
O69 C63 1.208 . S
O70 Cd71 2.223 . S
O70 C78 1.315 . S
Cd71 O70 2.223 . S
Cd71 O74 2.297 . S
Cd71 O75 2.439 . S
Cd71 O81 2.240 . S
Cd72 O73 2.240 . S
Cd72 O80 2.223 . S
Cd72 O82 2.297 . S
Cd72 O83 2.439 . S
O73 Cd72 2.240 . S
O73 C78 1.279 . S
O74 Cd71 2.297 . S
O74 C76 1.247 . S
O75 Cd71 2.439 . S
O75 C76 1.208 . S
C76 O74 1.247 . S
C76 O75 1.208 . S
C77 O82 1.247 . S
C77 O83 1.208 . S
C78 O70 1.315 . S
C78 O73 1.279 . S
C79 O80 1.315 . S
C79 O81 1.279 . S
O80 Cd72 2.223 . S
O80 C79 1.315 . S
O81 Cd71 2.240 . S
O81 C79 1.279 . S
O82 Cd72 2.297 . S
O82 C77 1.247 . S
O83 Cd72 2.439 . S
O83 C77 1.208 . S
O84 Cd85 2.223 . S
O84 C92 1.315 . S
Cd85 O84 2.223 . S
Cd85 O88 2.297 . S
Cd85 O89 2.439 . S
Cd85 O95 2.240 . S
Cd86 O87 2.240 . S
Cd86 O94 2.223 . S
Cd86 O96 2.297 . S
Cd86 O97 2.439 . S
O87 Cd86 2.240 . S
O87 C92 1.279 . S
O88 Cd85 2.297 . S
O88 C90 1.247 . S
O89 Cd85 2.439 . S
O89 C90 1.208 . S
C90 O88 1.247 . S
C90 O89 1.208 . S
C91 O96 1.247 . S
C91 O97 1.208 . S
C92 O84 1.315 . S
C92 O87 1.279 . S
C93 O94 1.315 . S
C93 O95 1.279 . S
O94 Cd86 2.223 . S
O94 C93 1.315 . S
O95 Cd85 2.240 . S
O95 C93 1.279 . S
O96 Cd86 2.297 . S
O96 C91 1.247 . S
O97 Cd86 2.439 . S
O97 C91 1.208 . S
O98 Cd99 2.223 . S
O98 C106 1.315 . S
Cd99 O98 2.223 . S
Cd99 O102 2.297 . S
Cd99 O103 2.439 . S
Cd99 O109 2.240 . S
Cd100 O101 2.240 . S
Cd100 O108 2.223 . S
Cd100 O110 2.297 . S
Cd100 O111 2.439 . S
O101 Cd100 2.240 . S
O101 C106 1.279 . S
O102 Cd99 2.297 . S
O102 C104 1.247 . S
O103 Cd99 2.439 . S
O103 C104 1.208 . S
C104 O102 1.247 . S
C104 O103 1.208 . S
C105 O110 1.247 . S
C105 O111 1.208 . S
C106 O98 1.315 . S
C106 O101 1.279 . S
C107 O108 1.315 . S
C107 O109 1.279 . S
O108 Cd100 2.223 . S
O108 C107 1.315 . S
O109 Cd99 2.240 . S
O109 C107 1.279 . S
O110 Cd100 2.297 . S
O110 C105 1.247 . S
O111 Cd100 2.439 . S
O111 C105 1.208 . S
C112 C113 1.349 . S
C112 C114 1.327 . S
C112 H137 0.950 . S
C113 C112 1.349 . S
C113 C129 1.349 . S
C114 C112 1.327 . S
C114 C133 1.429 . S
C114 H138 0.950 . S
C115 C132 1.574 . S
C115 C134 1.368 1_655 S
C115 H139 0.949 . S
H116 C120 0.949 . S
C117 C118 1.349 . S
C117 C119 1.327 . S
C117 H140 0.950 . S
C118 C117 1.349 . S
C118 C130 1.349 . S
C119 C117 1.327 . S
C119 C135 1.429 . S
C119 H141 0.950 . S
C120 H116 0.949 . S
C120 C128 1.574 . S
C120 C136 1.368 1_455 S
H121 C129 0.950 . S
H122 C127 0.950 1_655 S
H123 C128 0.949 . S
H124 C130 0.950 . S
H125 C131 0.950 1_455 S
H126 C132 0.949 . S
C127 H122 0.950 1_455 S
C127 C129 1.327 . S
C127 C133 1.429 . S
C128 C120 1.574 . S
C128 H123 0.949 . S
C128 C134 1.368 . S
C129 C113 1.349 . S
C129 H121 0.950 . S
C129 C127 1.327 . S
C130 C118 1.349 . S
C130 H124 0.950 . S
C130 C131 1.327 . S
C131 H125 0.950 1_655 S
C131 C130 1.327 . S
C131 C135 1.429 . S
C132 C115 1.574 . S
C132 H126 0.949 . S
C132 C136 1.368 . S
C133 C114 1.429 . S
C133 C127 1.429 . S
C133 C134 1.523 . S
C134 C115 1.368 1_455 S
C134 C128 1.368 . S
C134 C133 1.523 . S
C135 C119 1.429 . S
C135 C131 1.429 . S
C135 C136 1.523 . S
C136 C120 1.368 1_655 S
C136 C132 1.368 . S
C136 C135 1.523 . S
H137 C112 0.950 . S
H138 C114 0.950 . S
H139 C115 0.949 . S
H140 C117 0.950 . S
H141 C119 0.950 . S
C142 C143 1.349 . S
C142 C144 1.327 . S
C142 H167 0.950 . S
C143 C142 1.349 . S
C143 C159 1.349 . S
C144 C142 1.327 . S
C144 C163 1.429 . S
C144 H168 0.950 . S
C145 C162 1.574 . S
C145 C164 1.368 1_545 S
C145 H169 0.949 . S
H146 C150 0.949 . S
C147 C148 1.349 . S
C147 C149 1.327 . S
C147 H170 0.950 . S
C148 C147 1.349 . S
C148 C160 1.349 . S
C149 C147 1.327 . S
C149 C165 1.429 . S
C149 H171 0.950 . S
C150 H146 0.949 . S
C150 C158 1.574 . S
C150 C166 1.368 1_565 S
H151 C159 0.950 . S
H152 C157 0.950 1_545 S
H153 C158 0.949 . S
H154 C160 0.950 . S
H155 C161 0.950 1_565 S
H156 C162 0.949 . S
C157 H152 0.950 1_565 S
C157 C159 1.327 . S
C157 C163 1.429 . S
C158 C150 1.574 . S
C158 H153 0.949 . S
C158 C164 1.368 . S
C159 C143 1.349 . S
C159 H151 0.950 . S
C159 C157 1.327 . S
C160 C148 1.349 . S
C160 H154 0.950 . S
C160 C161 1.327 . S
C161 H155 0.950 1_545 S
C161 C160 1.327 . S
C161 C165 1.429 . S
C162 C145 1.574 . S
C162 H156 0.949 . S
C162 C166 1.368 . S
C163 C144 1.429 . S
C163 C157 1.429 . S
C163 C164 1.523 . S
C164 C145 1.368 1_565 S
C164 C158 1.368 . S
C164 C163 1.523 . S
C165 C149 1.429 . S
C165 C161 1.429 . S
C165 C166 1.523 . S
C166 C150 1.368 1_545 S
C166 C162 1.368 . S
C166 C165 1.523 . S
H167 C142 0.950 . S
H168 C144 0.950 . S
H169 C145 0.949 . S
H170 C147 0.950 . S
H171 C149 0.950 . S
C172 C173 1.349 . S
C172 C174 1.327 . S
C172 H197 0.950 . S
C173 C172 1.349 . S
C173 C189 1.349 . S
C174 C172 1.327 . S
C174 C193 1.429 . S
C174 H198 0.950 1_655 S
C175 C192 1.574 . S
C175 C194 1.368 . S
C175 H199 0.949 . S
H176 C180 0.949 . S
C177 C178 1.349 . S
C177 C179 1.327 . S
C177 H200 0.950 . S
C178 C177 1.349 . S
C178 C190 1.349 . S
C179 C177 1.327 . S
C179 C195 1.429 . S
C179 H201 0.950 1_455 S
C180 H176 0.949 . S
C180 C188 1.574 . S
C180 C196 1.368 . S
H181 C189 0.950 . S
H182 C187 0.950 . S
H183 C188 0.949 . S
H184 C190 0.950 . S
H185 C191 0.950 . S
H186 C192 0.949 . S
C187 H182 0.950 . S
C187 C189 1.327 . S
C187 C193 1.429 . S
C188 C180 1.574 . S
C188 H183 0.949 . S
C188 C194 1.368 1_455 S
C189 C173 1.349 . S
C189 H181 0.950 . S
C189 C187 1.327 . S
C190 C178 1.349 . S
C190 H184 0.950 . S
C190 C191 1.327 . S
C191 H185 0.950 . S
C191 C190 1.327 . S
C191 C195 1.429 . S
C192 C175 1.574 . S
C192 H186 0.949 . S
C192 C196 1.368 1_655 S
C193 C174 1.429 . S
C193 C187 1.429 . S
C193 C194 1.523 . S
C194 C175 1.368 . S
C194 C188 1.368 1_655 S
C194 C193 1.523 . S
C195 C179 1.429 . S
C195 C191 1.429 . S
C195 C196 1.523 . S
C196 C180 1.368 . S
C196 C192 1.368 1_455 S
C196 C195 1.523 . S
H197 C172 0.950 . S
H198 C174 0.950 1_455 S
H199 C175 0.949 . S
H200 C177 0.950 . S
H201 C179 0.950 1_655 S
C202 C203 1.349 . S
C202 C204 1.327 . S
C202 H227 0.950 . S
C203 C202 1.349 . S
C203 C219 1.349 . S
C204 C202 1.327 . S
C204 C223 1.429 . S
C204 H228 0.950 1_545 S
C205 C222 1.574 . S
C205 C224 1.368 . S
C205 H229 0.949 . S
H206 C210 0.949 . S
C207 C208 1.349 . S
C207 C209 1.327 . S
C207 H230 0.950 . S
C208 C207 1.349 . S
C208 C220 1.349 . S
C209 C207 1.327 . S
C209 C225 1.429 . S
C209 H231 0.950 1_565 S
C210 H206 0.949 . S
C210 C218 1.574 . S
C210 C226 1.368 . S
H211 C219 0.950 . S
H212 C217 0.950 . S
H213 C218 0.949 . S
H214 C220 0.950 . S
H215 C221 0.950 . S
H216 C222 0.949 . S
C217 H212 0.950 . S
C217 C219 1.327 . S
C217 C223 1.429 . S
C218 C210 1.574 . S
C218 H213 0.949 . S
C218 C224 1.368 1_565 S
C219 C203 1.349 . S
C219 H211 0.950 . S
C219 C217 1.327 . S
C220 C208 1.349 . S
C220 H214 0.950 . S
C220 C221 1.327 . S
C221 H215 0.950 . S
C221 C220 1.327 . S
C221 C225 1.429 . S
C222 C205 1.574 . S
C222 H216 0.949 . S
C222 C226 1.368 1_545 S
C223 C204 1.429 . S
C223 C217 1.429 . S
C223 C224 1.523 . S
C224 C205 1.368 . S
C224 C218 1.368 1_545 S
C224 C223 1.523 . S
C225 C209 1.429 . S
C225 C221 1.429 . S
C225 C226 1.523 . S
C226 C210 1.368 . S
C226 C222 1.368 1_565 S
C226 C225 1.523 . S
H227 C202 0.950 . S
H228 C204 0.950 1_565 S
H229 C205 0.949 . S
H230 C207 0.950 . S
H231 C209 0.950 1_545 S
C232 C233 1.349 . S
C232 C234 1.327 . S
C232 H257 0.950 . S
C233 C232 1.349 . S
C233 C249 1.349 . S
C234 C232 1.327 . S
C234 C253 1.429 . S
C234 H258 0.950 . S
C235 C252 1.574 1_556 S
C235 C254 1.368 1_455 S
C235 H259 0.949 . S
H236 C240 0.949 . S
C237 C238 1.349 . S
C237 C239 1.327 . S
C237 H260 0.950 . S
C238 C237 1.349 . S
C238 C250 1.349 . S
C239 C237 1.327 . S
C239 C255 1.429 . S
C239 H261 0.950 . S
C240 H236 0.949 . S
C240 C248 1.574 1_554 S
C240 C256 1.368 1_655 S
H241 C249 0.950 . S
H242 C247 0.950 . S
H243 C248 0.949 . S
H244 C250 0.950 . S
H245 C251 0.950 . S
H246 C252 0.949 . S
C247 H242 0.950 . S
C247 C249 1.327 . S
C247 C253 1.429 . S
C248 C240 1.574 1_556 S
C248 H243 0.949 . S
C248 C254 1.368 . S
C249 C233 1.349 . S
C249 H241 0.950 . S
C249 C247 1.327 . S
C250 C238 1.349 . S
C250 H244 0.950 . S
C250 C251 1.327 . S
C251 H245 0.950 . S
C251 C250 1.327 . S
C251 C255 1.429 . S
C252 C235 1.574 1_554 S
C252 H246 0.949 . S
C252 C256 1.368 . S
C253 C234 1.429 . S
C253 C247 1.429 . S
C253 C254 1.523 . S
C254 C235 1.368 1_655 S
C254 C248 1.368 . S
C254 C253 1.523 . S
C255 C239 1.429 . S
C255 C251 1.429 . S
C255 C256 1.523 . S
C256 C240 1.368 1_455 S
C256 C252 1.368 . S
C256 C255 1.523 . S
H257 C232 0.950 . S
H258 C234 0.950 . S
H259 C235 0.949 . S
H260 C237 0.950 . S
H261 C239 0.950 . S
C262 C263 1.349 . S
C262 C264 1.327 . S
C262 H287 0.950 . S
C263 C262 1.349 . S
C263 C279 1.349 . S
C264 C262 1.327 . S
C264 C283 1.429 . S
C264 H288 0.950 . S
C265 C282 1.574 . S
C265 C284 1.368 1_565 S
C265 H289 0.949 . S
H266 C270 0.949 . S
C267 C268 1.349 . S
C267 C269 1.327 . S
C267 H290 0.950 . S
C268 C267 1.349 . S
C268 C280 1.349 . S
C269 C267 1.327 . S
C269 C285 1.429 . S
C269 H291 0.950 . S
C270 H266 0.949 . S
C270 C278 1.574 . S
C270 C286 1.368 1_545 S
H271 C279 0.950 . S
H272 C277 0.950 . S
H273 C278 0.949 . S
H274 C280 0.950 . S
H275 C281 0.950 . S
H276 C282 0.949 . S
C277 H272 0.950 . S
C277 C279 1.327 . S
C277 C283 1.429 . S
C278 C270 1.574 . S
C278 H273 0.949 . S
C278 C284 1.368 . S
C279 C263 1.349 . S
C279 H271 0.950 . S
C279 C277 1.327 . S
C280 C268 1.349 . S
C280 H274 0.950 . S
C280 C281 1.327 . S
C281 H275 0.950 . S
C281 C280 1.327 . S
C281 C285 1.429 . S
C282 C265 1.574 . S
C282 H276 0.949 . S
C282 C286 1.368 . S
C283 C264 1.429 . S
C283 C277 1.429 . S
C283 C284 1.523 . S
C284 C265 1.368 1_545 S
C284 C278 1.368 . S
C284 C283 1.523 . S
C285 C269 1.429 . S
C285 C281 1.429 . S
C285 C286 1.523 . S
C286 C270 1.368 1_565 S
C286 C282 1.368 . S
C286 C285 1.523 . S
H287 C262 0.950 . S
H288 C264 0.950 . S
H289 C265 0.949 . S
H290 C267 0.950 . S
H291 C269 0.950 . S
C292 C293 1.349 . S
C292 C294 1.327 . S
C292 H317 0.950 . S
C293 C292 1.349 . S
C293 C309 1.349 . S
C294 C292 1.327 . S
C294 C313 1.429 . S
C294 H318 0.950 . S
C295 C312 1.574 1_554 S
C295 C314 1.368 1_455 S
C295 H319 0.949 . S
H296 C300 0.949 . S
C297 C298 1.349 . S
C297 C299 1.327 . S
C297 H320 0.950 . S
C298 C297 1.349 . S
C298 C310 1.349 . S
C299 C297 1.327 . S
C299 C315 1.429 . S
C299 H321 0.950 . S
C300 H296 0.949 . S
C300 C308 1.574 1_556 S
C300 C316 1.368 1_655 S
H301 C309 0.950 . S
H302 C307 0.950 . S
H303 C308 0.949 . S
H304 C310 0.950 . S
H305 C311 0.950 . S
H306 C312 0.949 . S
C307 H302 0.950 . S
C307 C309 1.327 . S
C307 C313 1.429 . S
C308 C300 1.574 1_554 S
C308 H303 0.949 . S
C308 C314 1.368 . S
C309 C293 1.349 . S
C309 H301 0.950 . S
C309 C307 1.327 . S
C310 C298 1.349 . S
C310 H304 0.950 . S
C310 C311 1.327 . S
C311 H305 0.950 . S
C311 C310 1.327 . S
C311 C315 1.429 . S
C312 C295 1.574 1_556 S
C312 H306 0.949 . S
C312 C316 1.368 . S
C313 C294 1.429 . S
C313 C307 1.429 . S
C313 C314 1.523 . S
C314 C295 1.368 1_655 S
C314 C308 1.368 . S
C314 C313 1.523 . S
C315 C299 1.429 . S
C315 C311 1.429 . S
C315 C316 1.523 . S
C316 C300 1.368 1_455 S
C316 C312 1.368 . S
C316 C315 1.523 . S
H317 C292 0.950 . S
H318 C294 0.950 . S
H319 C295 0.949 . S
H320 C297 0.950 . S
H321 C299 0.950 . S
C322 C323 1.349 . S
C322 C324 1.327 . S
C322 H347 0.950 . S
C323 C322 1.349 . S
C323 C339 1.349 . S
C324 C322 1.327 . S
C324 C343 1.429 . S
C324 H348 0.950 . S
C325 C342 1.574 . S
C325 C344 1.368 . S
C325 H349 0.949 . S
H326 C330 0.949 . S
C327 C328 1.349 . S
C327 C329 1.327 . S
C327 H350 0.950 . S
C328 C327 1.349 . S
C328 C340 1.349 . S
C329 C327 1.327 . S
C329 C345 1.429 . S
C329 H351 0.950 . S
C330 H326 0.949 . S
C330 C338 1.574 . S
C330 C346 1.368 . S
H331 C339 0.950 . S
H332 C337 0.950 . S
H333 C338 0.949 . S
H334 C340 0.950 . S
H335 C341 0.950 . S
H336 C342 0.949 . S
C337 H332 0.950 . S
C337 C339 1.327 . S
C337 C343 1.429 . S
C338 C330 1.574 . S
C338 H333 0.949 . S
C338 C344 1.368 1_565 S
C339 C323 1.349 . S
C339 H331 0.950 . S
C339 C337 1.327 . S
C340 C328 1.349 . S
C340 H334 0.950 . S
C340 C341 1.327 . S
C341 H335 0.950 . S
C341 C340 1.327 . S
C341 C345 1.429 . S
C342 C325 1.574 . S
C342 H336 0.949 . S
C342 C346 1.368 1_545 S
C343 C324 1.429 . S
C343 C337 1.429 . S
C343 C344 1.523 . S
C344 C325 1.368 . S
C344 C338 1.368 1_545 S
C344 C343 1.523 . S
C345 C329 1.429 . S
C345 C341 1.429 . S
C345 C346 1.523 . S
C346 C330 1.368 . S
C346 C342 1.368 1_565 S
C346 C345 1.523 . S
H347 C322 0.950 . S
H348 C324 0.950 . S
H349 C325 0.949 . S
H350 C327 0.950 . S
H351 C329 0.950 . S
C352 C353 1.349 . S
C352 C354 1.327 . S
C352 H377 0.950 . S
C353 C352 1.349 . S
C353 C369 1.349 . S
C354 C352 1.327 . S
C354 C373 1.429 . S
C354 H378 0.950 . S
C355 C372 1.574 . S
C355 C374 1.368 . S
C355 H379 0.949 . S
H356 C360 0.949 . S
C357 C358 1.349 . S
C357 C359 1.327 . S
C357 H380 0.950 . S
C358 C357 1.349 . S
C358 C370 1.349 . S
C359 C357 1.327 . S
C359 C375 1.429 . S
C359 H381 0.950 . S
C360 H356 0.949 . S
C360 C368 1.574 . S
C360 C376 1.368 . S
H361 C369 0.950 . S
H362 C367 0.950 . S
H363 C368 0.949 . S
H364 C370 0.950 . S
H365 C371 0.950 . S
H366 C372 0.949 . S
C367 H362 0.950 . S
C367 C369 1.327 . S
C367 C373 1.429 . S
C368 C360 1.574 . S
C368 H363 0.949 . S
C368 C374 1.368 . S
C369 C353 1.349 . S
C369 H361 0.950 . S
C369 C367 1.327 . S
C370 C358 1.349 . S
C370 H364 0.950 . S
C370 C371 1.327 . S
C371 H365 0.950 . S
C371 C370 1.327 . S
C371 C375 1.429 . S
C372 C355 1.574 . S
C372 H366 0.949 . S
C372 C376 1.368 . S
C373 C354 1.429 . S
C373 C367 1.429 . S
C373 C374 1.523 . S
C374 C355 1.368 . S
C374 C368 1.368 . S
C374 C373 1.523 . S
C375 C359 1.429 . S
C375 C371 1.429 . S
C375 C376 1.523 . S
C376 C360 1.368 . S
C376 C372 1.368 . S
C376 C375 1.523 . S
H377 C352 0.950 . S
H378 C354 0.950 . S
H379 C355 0.949 . S
H380 C357 0.950 . S
H381 C359 0.950 . S
C382 C383 1.349 . S
C382 C384 1.327 . S
C382 H407 0.950 . S
C383 C382 1.349 . S
C383 C399 1.349 . S
C384 C382 1.327 . S
C384 C403 1.429 . S
C384 H408 0.950 . S
C385 C402 1.574 . S
C385 C404 1.368 . S
C385 H409 0.949 . S
H386 C390 0.949 . S
C387 C388 1.349 . S
C387 C389 1.327 . S
C387 H410 0.950 . S
C388 C387 1.349 . S
C388 C400 1.349 . S
C389 C387 1.327 . S
C389 C405 1.429 . S
C389 H411 0.950 . S
C390 H386 0.949 . S
C390 C398 1.574 . S
C390 C406 1.368 . S
H391 C399 0.950 . S
H392 C397 0.950 . S
H393 C398 0.949 . S
H394 C400 0.950 . S
H395 C401 0.950 . S
H396 C402 0.949 . S
C397 H392 0.950 . S
C397 C399 1.327 . S
C397 C403 1.429 . S
C398 C390 1.574 . S
C398 H393 0.949 . S
C398 C404 1.368 . S
C399 C383 1.349 . S
C399 H391 0.950 . S
C399 C397 1.327 . S
C400 C388 1.349 . S
C400 H394 0.950 . S
C400 C401 1.327 . S
C401 H395 0.950 . S
C401 C400 1.327 . S
C401 C405 1.429 . S
C402 C385 1.574 . S
C402 H396 0.949 . S
C402 C406 1.368 . S
C403 C384 1.429 . S
C403 C397 1.429 . S
C403 C404 1.523 . S
C404 C385 1.368 . S
C404 C398 1.368 . S
C404 C403 1.523 . S
C405 C389 1.429 . S
C405 C401 1.429 . S
C405 C406 1.523 . S
C406 C390 1.368 . S
C406 C402 1.368 . S
C406 C405 1.523 . S
H407 C382 0.950 . S
H408 C384 0.950 . S
H409 C385 0.949 . S
H410 C387 0.950 . S
H411 C389 0.950 . S
C412 C413 1.349 . S
C412 C414 1.327 . S
C412 H437 0.950 . S
C413 C412 1.349 . S
C413 C429 1.349 . S
C414 C412 1.327 . S
C414 C433 1.429 . S
C414 H438 0.950 . S
C415 C432 1.574 . S
C415 C434 1.368 . S
C415 H439 0.949 . S
H416 C420 0.949 . S
C417 C418 1.349 . S
C417 C419 1.327 . S
C417 H440 0.950 . S
C418 C417 1.349 . S
C418 C430 1.349 . S
C419 C417 1.327 . S
C419 C435 1.429 . S
C419 H441 0.950 . S
C420 H416 0.949 . S
C420 C428 1.574 . S
C420 C436 1.368 . S
H421 C429 0.950 . S
H422 C427 0.950 . S
H423 C428 0.949 . S
H424 C430 0.950 . S
H425 C431 0.950 . S
H426 C432 0.949 . S
C427 H422 0.950 . S
C427 C429 1.327 . S
C427 C433 1.429 . S
C428 C420 1.574 . S
C428 H423 0.949 . S
C428 C434 1.368 . S
C429 C413 1.349 . S
C429 H421 0.950 . S
C429 C427 1.327 . S
C430 C418 1.349 . S
C430 H424 0.950 . S
C430 C431 1.327 . S
C431 H425 0.950 . S
C431 C430 1.327 . S
C431 C435 1.429 . S
C432 C415 1.574 . S
C432 H426 0.949 . S
C432 C436 1.368 . S
C433 C414 1.429 . S
C433 C427 1.429 . S
C433 C434 1.523 . S
C434 C415 1.368 . S
C434 C428 1.368 . S
C434 C433 1.523 . S
C435 C419 1.429 . S
C435 C431 1.429 . S
C435 C436 1.523 . S
C436 C420 1.368 . S
C436 C432 1.368 . S
C436 C435 1.523 . S
H437 C412 0.950 . S
H438 C414 0.950 . S
H439 C415 0.949 . S
H440 C417 0.950 . S
H441 C419 0.950 . S
C442 C443 1.349 . S
C442 C444 1.327 . S
C442 H467 0.950 . S
C443 C442 1.349 . S
C443 C459 1.349 . S
C444 C442 1.327 . S
C444 C463 1.429 . S
C444 H468 0.950 . S
C445 C462 1.574 . S
C445 C464 1.368 . S
C445 H469 0.949 . S
H446 C450 0.949 . S
C447 C448 1.349 . S
C447 C449 1.327 . S
C447 H470 0.950 . S
C448 C447 1.349 . S
C448 C460 1.349 . S
C449 C447 1.327 . S
C449 C465 1.429 . S
C449 H471 0.950 . S
C450 H446 0.949 . S
C450 C458 1.574 . S
C450 C466 1.368 . S
H451 C459 0.950 . S
H452 C457 0.950 . S
H453 C458 0.949 . S
H454 C460 0.950 . S
H455 C461 0.950 . S
H456 C462 0.949 . S
C457 H452 0.950 . S
C457 C459 1.327 . S
C457 C463 1.429 . S
C458 C450 1.574 . S
C458 H453 0.949 . S
C458 C464 1.368 . S
C459 C443 1.349 . S
C459 H451 0.950 . S
C459 C457 1.327 . S
C460 C448 1.349 . S
C460 H454 0.950 . S
C460 C461 1.327 . S
C461 H455 0.950 . S
C461 C460 1.327 . S
C461 C465 1.429 . S
C462 C445 1.574 . S
C462 H456 0.949 . S
C462 C466 1.368 . S
C463 C444 1.429 . S
C463 C457 1.429 . S
C463 C464 1.523 . S
C464 C445 1.368 . S
C464 C458 1.368 . S
C464 C463 1.523 . S
C465 C449 1.429 . S
C465 C461 1.429 . S
C465 C466 1.523 . S
C466 C450 1.368 . S
C466 C462 1.368 . S
C466 C465 1.523 . S
H467 C442 0.950 . S
H468 C444 0.950 . S
H469 C445 0.949 . S
H470 C447 0.950 . S
H471 C449 0.950 . S
C472 C473 1.349 . S
C472 C474 1.327 . S
C472 H497 0.950 . S
C473 C472 1.349 . S
C473 C489 1.349 . S
C474 C472 1.327 . S
C474 C493 1.429 . S
C474 H498 0.950 1_455 S
C475 C492 1.574 1_545 S
C475 C494 1.368 . S
C475 H499 0.949 . S
H476 C480 0.949 . S
C477 C478 1.349 . S
C477 C479 1.327 . S
C477 H500 0.950 . S
C478 C477 1.349 . S
C478 C490 1.349 . S
C479 C477 1.327 . S
C479 C495 1.429 . S
C479 H501 0.950 1_655 S
C480 H476 0.949 . S
C480 C488 1.574 1_565 S
C480 C496 1.368 . S
H481 C489 0.950 . S
H482 C487 0.950 . S
H483 C488 0.949 . S
H484 C490 0.950 . S
H485 C491 0.950 . S
H486 C492 0.949 . S
C487 H482 0.950 . S
C487 C489 1.327 . S
C487 C493 1.429 . S
C488 C480 1.574 1_545 S
C488 H483 0.949 . S
C488 C494 1.368 1_655 S
C489 C473 1.349 . S
C489 H481 0.950 . S
C489 C487 1.327 . S
C490 C478 1.349 . S
C490 H484 0.950 . S
C490 C491 1.327 . S
C491 H485 0.950 . S
C491 C490 1.327 . S
C491 C495 1.429 . S
C492 C475 1.574 1_565 S
C492 H486 0.949 . S
C492 C496 1.368 1_455 S
C493 C474 1.429 . S
C493 C487 1.429 . S
C493 C494 1.523 . S
C494 C475 1.368 . S
C494 C488 1.368 1_455 S
C494 C493 1.523 . S
C495 C479 1.429 . S
C495 C491 1.429 . S
C495 C496 1.523 . S
C496 C480 1.368 . S
C496 C492 1.368 1_655 S
C496 C495 1.523 . S
H497 C472 0.950 . S
H498 C474 0.950 1_655 S
H499 C475 0.949 . S
H500 C477 0.950 . S
H501 C479 0.950 1_455 S
C502 C503 1.349 . S
C502 C504 1.327 . S
C502 H527 0.950 . S
C503 C502 1.349 . S
C503 C519 1.349 . S
C504 C502 1.327 . S
C504 C523 1.429 . S
C504 H528 0.950 1_565 S
C505 C522 1.574 1_455 S
C505 C524 1.368 . S
C505 H529 0.949 . S
H506 C510 0.949 . S
C507 C508 1.349 . S
C507 C509 1.327 . S
C507 H530 0.950 . S
C508 C507 1.349 . S
C508 C520 1.349 . S
C509 C507 1.327 . S
C509 C525 1.429 . S
C509 H531 0.950 1_545 S
C510 H506 0.949 . S
C510 C518 1.574 1_655 S
C510 C526 1.368 . S
H511 C519 0.950 . S
H512 C517 0.950 . S
H513 C518 0.949 . S
H514 C520 0.950 . S
H515 C521 0.950 . S
H516 C522 0.949 . S
C517 H512 0.950 . S
C517 C519 1.327 . S
C517 C523 1.429 . S
C518 C510 1.574 1_455 S
C518 H513 0.949 . S
C518 C524 1.368 1_545 S
C519 C503 1.349 . S
C519 H511 0.950 . S
C519 C517 1.327 . S
C520 C508 1.349 . S
C520 H514 0.950 . S
C520 C521 1.327 . S
C521 H515 0.950 . S
C521 C520 1.327 . S
C521 C525 1.429 . S
C522 C505 1.574 1_655 S
C522 H516 0.949 . S
C522 C526 1.368 1_565 S
C523 C504 1.429 . S
C523 C517 1.429 . S
C523 C524 1.523 . S
C524 C505 1.368 . S
C524 C518 1.368 1_565 S
C524 C523 1.523 . S
C525 C509 1.429 . S
C525 C521 1.429 . S
C525 C526 1.523 . S
C526 C510 1.368 . S
C526 C522 1.368 1_545 S
C526 C525 1.523 . S
H527 C502 0.950 . S
H528 C504 0.950 1_545 S
H529 C505 0.949 . S
H530 C507 0.950 . S
H531 C509 0.950 1_565 S
C532 C533 1.349 . S
C532 C534 1.327 . S
C532 H557 0.950 . S
C533 C532 1.349 . S
C533 C549 1.349 . S
C534 C532 1.327 . S
C534 C553 1.429 . S
C534 H558 0.950 1_655 S
C535 C552 1.574 1_545 S
C535 C554 1.368 . S
C535 H559 0.949 . S
H536 C540 0.949 . S
C537 C538 1.349 . S
C537 C539 1.327 . S
C537 H560 0.950 . S
C538 C537 1.349 . S
C538 C550 1.349 . S
C539 C537 1.327 . S
C539 C555 1.429 . S
C539 H561 0.950 1_455 S
C540 H536 0.949 . S
C540 C548 1.574 1_565 S
C540 C556 1.368 . S
H541 C549 0.950 . S
H542 C547 0.950 . S
H543 C548 0.949 . S
H544 C550 0.950 . S
H545 C551 0.950 . S
H546 C552 0.949 . S
C547 H542 0.950 . S
C547 C549 1.327 . S
C547 C553 1.429 . S
C548 C540 1.574 1_545 S
C548 H543 0.949 . S
C548 C554 1.368 1_455 S
C549 C533 1.349 . S
C549 H541 0.950 . S
C549 C547 1.327 . S
C550 C538 1.349 . S
C550 H544 0.950 . S
C550 C551 1.327 . S
C551 H545 0.950 . S
C551 C550 1.327 . S
C551 C555 1.429 . S
C552 C535 1.574 1_565 S
C552 H546 0.949 . S
C552 C556 1.368 1_655 S
C553 C534 1.429 . S
C553 C547 1.429 . S
C553 C554 1.523 . S
C554 C535 1.368 . S
C554 C548 1.368 1_655 S
C554 C553 1.523 . S
C555 C539 1.429 . S
C555 C551 1.429 . S
C555 C556 1.523 . S
C556 C540 1.368 . S
C556 C552 1.368 1_455 S
C556 C555 1.523 . S
H557 C532 0.950 . S
H558 C534 0.950 1_455 S
H559 C535 0.949 . S
H560 C537 0.950 . S
H561 C539 0.950 1_655 S
C562 C563 1.349 . S
C562 C564 1.327 . S
C562 H587 0.950 . S
C563 C562 1.349 . S
C563 C579 1.349 . S
C564 C562 1.327 . S
C564 C583 1.429 . S
C564 H588 0.950 . S
C565 C582 1.574 1_655 S
C565 C584 1.368 1_545 S
C565 H589 0.949 . S
H566 C570 0.949 . S
C567 C568 1.349 . S
C567 C569 1.327 . S
C567 H590 0.950 . S
C568 C567 1.349 . S
C568 C580 1.349 . S
C569 C567 1.327 . S
C569 C585 1.429 . S
C569 H591 0.950 . S
C570 H566 0.949 . S
C570 C578 1.574 1_455 S
C570 C586 1.368 1_565 S
H571 C579 0.950 . S
H572 C577 0.950 1_545 S
H573 C578 0.949 . S
H574 C580 0.950 . S
H575 C581 0.950 1_565 S
H576 C582 0.949 . S
C577 H572 0.950 1_565 S
C577 C579 1.327 . S
C577 C583 1.429 . S
C578 C570 1.574 1_655 S
C578 H573 0.949 . S
C578 C584 1.368 . S
C579 C563 1.349 . S
C579 H571 0.950 . S
C579 C577 1.327 . S
C580 C568 1.349 . S
C580 H574 0.950 . S
C580 C581 1.327 . S
C581 H575 0.950 1_545 S
C581 C580 1.327 . S
C581 C585 1.429 . S
C582 C565 1.574 1_455 S
C582 H576 0.949 . S
C582 C586 1.368 . S
C583 C564 1.429 . S
C583 C577 1.429 . S
C583 C584 1.523 . S
C584 C565 1.368 1_565 S
C584 C578 1.368 . S
C584 C583 1.523 . S
C585 C569 1.429 . S
C585 C581 1.429 . S
C585 C586 1.523 . S
C586 C570 1.368 1_545 S
C586 C582 1.368 . S
C586 C585 1.523 . S
H587 C562 0.950 . S
H588 C564 0.950 . S
H589 C565 0.949 . S
H590 C567 0.950 . S
H591 C569 0.950 . S
C113 C6 1.465 . S
C118 C34 1.465 . S
C143 C49 1.465 . S
C148 C21 1.465 . S
C173 C90 1.465 . S
C178 C62 1.465 . S
C203 C77 1.465 . S
C208 C105 1.465 . S
C233 C92 1.276 . S
C238 C8 1.276 . S
C263 C23 1.276 . S
C268 C107 1.276 . S
C293 C36 1.276 . S
C298 C64 1.276 . S
C323 C79 1.276 . S
C328 C51 1.276 . S
C353 C7 1.528 . S
C358 C76 1.528 . S
C383 C91 1.528 . S
C388 C20 1.528 . S
C413 C104 1.528 . S
C418 C35 1.528 . S
C443 C48 1.528 . S
C448 C63 1.528 . S
C473 C9 1.192 . S
C478 C37 1.192 . S
C503 C50 1.192 . S
C508 C22 1.192 . S
C533 C93 1.192 . S
C538 C65 1.192 . S
C563 C106 1.192 . S
C568 C78 1.192 . S
