# Generated by pormake.
# Topology crs, (6)-cn, num edge types: 1
# Building blocks:
#     Node 0, Type 0, BuildingBlock: MIFKUJ_clean_sbu_0, # of connection points: 6
#     Node 1, Type 0, BuildingBlock: MIFKUJ_clean_sbu_0, # of connection points: 6
#     Node 2, Type 0, BuildingBlock: MIFKUJ_clean_sbu_0, # of connection points: 6
#     Node 3, Type 0, BuildingBlock: MIFKUJ_clean_sbu_0, # of connection points: 6
#     Node 4, Type 0, BuildingBlock: MIFKUJ_clean_sbu_0, # of connection points: 6
#     Node 5, Type 0, BuildingBlock: MIFKUJ_clean_sbu_0, # of connection points: 6
#     Node 6, Type 0, BuildingBlock: MIFKUJ_clean_sbu_0, # of connection points: 6
#     Node 7, Type 0, BuildingBlock: MIFKUJ_clean_sbu_0, # of connection points: 6
#     Node 8, Type 0, BuildingBlock: MIFKUJ_clean_sbu_0, # of connection points: 6
#     Node 9, Type 0, BuildingBlock: MIFKUJ_clean_sbu_0, # of connection points: 6
#     Node 10, Type 0, BuildingBlock: MIFKUJ_clean_sbu_0, # of connection points: 6
#     Node 11, Type 0, BuildingBlock: MIFKUJ_clean_sbu_0, # of connection points: 6
#     Node 12, Type 0, BuildingBlock: MIFKUJ_clean_sbu_0, # of connection points: 6
#     Node 13, Type 0, BuildingBlock: MIFKUJ_clean_sbu_0, # of connection points: 6
#     Node 14, Type 0, BuildingBlock: MIFKUJ_clean_sbu_0, # of connection points: 6
#     Node 15, Type 0, BuildingBlock: MIFKUJ_clean_sbu_0, # of connection points: 6
#     Edge 16, Type (0, 0), BuildingBlock: TEMPAE_clean_linker_10, # of connection points: 2
#     Edge 17, Type (0, 0), BuildingBlock: TEMPAE_clean_linker_10, # of connection points: 2
#     Edge 18, Type (0, 0), BuildingBlock: TEMPAE_clean_linker_10, # of connection points: 2
#     Edge 19, Type (0, 0), BuildingBlock: TEMPAE_clean_linker_10, # of connection points: 2
#     Edge 20, Type (0, 0), BuildingBlock: TEMPAE_clean_linker_10, # of connection points: 2
#     Edge 21, Type (0, 0), BuildingBlock: TEMPAE_clean_linker_10, # of connection points: 2
#     Edge 22, Type (0, 0), BuildingBlock: TEMPAE_clean_linker_10, # of connection points: 2
#     Edge 23, Type (0, 0), BuildingBlock: TEMPAE_clean_linker_10, # of connection points: 2
#     Edge 24, Type (0, 0), BuildingBlock: TEMPAE_clean_linker_10, # of connection points: 2
#     Edge 25, Type (0, 0), BuildingBlock: TEMPAE_clean_linker_10, # of connection points: 2
#     Edge 26, Type (0, 0), BuildingBlock: TEMPAE_clean_linker_10, # of connection points: 2
#     Edge 27, Type (0, 0), BuildingBlock: TEMPAE_clean_linker_10, # of connection points: 2
#     Edge 28, Type (0, 0), BuildingBlock: TEMPAE_clean_linker_10, # of connection points: 2
#     Edge 29, Type (0, 0), BuildingBlock: TEMPAE_clean_linker_10, # of connection points: 2
#     Edge 30, Type (0, 0), BuildingBlock: TEMPAE_clean_linker_10, # of connection points: 2
#     Edge 31, Type (0, 0), BuildingBlock: TEMPAE_clean_linker_10, # of connection points: 2
#     Edge 32, Type (0, 0), BuildingBlock: TEMPAE_clean_linker_10, # of connection points: 2
#     Edge 33, Type (0, 0), BuildingBlock: TEMPAE_clean_linker_10, # of connection points: 2
#     Edge 34, Type (0, 0), BuildingBlock: TEMPAE_clean_linker_10, # of connection points: 2
#     Edge 35, Type (0, 0), BuildingBlock: TEMPAE_clean_linker_10, # of connection points: 2
#     Edge 36, Type (0, 0), BuildingBlock: TEMPAE_clean_linker_10, # of connection points: 2
#     Edge 37, Type (0, 0), BuildingBlock: TEMPAE_clean_linker_10, # of connection points: 2
#     Edge 38, Type (0, 0), BuildingBlock: TEMPAE_clean_linker_10, # of connection points: 2
#     Edge 39, Type (0, 0), BuildingBlock: TEMPAE_clean_linker_10, # of connection points: 2
#     Edge 40, Type (0, 0), BuildingBlock: TEMPAE_clean_linker_10, # of connection points: 2
#     Edge 41, Type (0, 0), BuildingBlock: TEMPAE_clean_linker_10, # of connection points: 2
#     Edge 42, Type (0, 0), BuildingBlock: TEMPAE_clean_linker_10, # of connection points: 2
#     Edge 43, Type (0, 0), BuildingBlock: TEMPAE_clean_linker_10, # of connection points: 2
#     Edge 44, Type (0, 0), BuildingBlock: TEMPAE_clean_linker_10, # of connection points: 2
#     Edge 45, Type (0, 0), BuildingBlock: TEMPAE_clean_linker_10, # of connection points: 2
#     Edge 46, Type (0, 0), BuildingBlock: TEMPAE_clean_linker_10, # of connection points: 2
#     Edge 47, Type (0, 0), BuildingBlock: TEMPAE_clean_linker_10, # of connection points: 2
#     Edge 48, Type (0, 0), BuildingBlock: TEMPAE_clean_linker_10, # of connection points: 2
#     Edge 49, Type (0, 0), BuildingBlock: TEMPAE_clean_linker_10, # of connection points: 2
#     Edge 50, Type (0, 0), BuildingBlock: TEMPAE_clean_linker_10, # of connection points: 2
#     Edge 51, Type (0, 0), BuildingBlock: TEMPAE_clean_linker_10, # of connection points: 2
#     Edge 52, Type (0, 0), BuildingBlock: TEMPAE_clean_linker_10, # of connection points: 2
#     Edge 53, Type (0, 0), BuildingBlock: TEMPAE_clean_linker_10, # of connection points: 2
#     Edge 54, Type (0, 0), BuildingBlock: TEMPAE_clean_linker_10, # of connection points: 2
#     Edge 55, Type (0, 0), BuildingBlock: TEMPAE_clean_linker_10, # of connection points: 2
#     Edge 56, Type (0, 0), BuildingBlock: TEMPAE_clean_linker_10, # of connection points: 2
#     Edge 57, Type (0, 0), BuildingBlock: TEMPAE_clean_linker_10, # of connection points: 2
#     Edge 58, Type (0, 0), BuildingBlock: TEMPAE_clean_linker_10, # of connection points: 2
#     Edge 59, Type (0, 0), BuildingBlock: TEMPAE_clean_linker_10, # of connection points: 2
#     Edge 60, Type (0, 0), BuildingBlock: TEMPAE_clean_linker_10, # of connection points: 2
#     Edge 61, Type (0, 0), BuildingBlock: TEMPAE_clean_linker_10, # of connection points: 2
#     Edge 62, Type (0, 0), BuildingBlock: TEMPAE_clean_linker_10, # of connection points: 2
#     Edge 63, Type (0, 0), BuildingBlock: TEMPAE_clean_linker_10, # of connection points: 2
# Relax obj value: 0.319
# Max RMSD: 0.287
# Mean RMSD: 0.246
data_MOF--net-crs--node1-MIFKUJ_clean_sbu_0--edge1-TEMPAE_clean_linker_10
_symmetry_space_group_name_H-M    P1
_symmetry_Int_Tables_number       1
_symmetry_cell_setting            triclinic
loop_
_symmetry_equiv_pos_as_xyz
'x, y, z'
_cell_length_a     43.601922
_cell_length_b     44.322475
_cell_length_c     45.43781
_cell_angle_alpha  89.984657
_cell_angle_beta   89.916904
_cell_angle_gamma 79.195233
loop_
_atom_site_label
_atom_site_type_symbol
_atom_site_fract_x
_atom_site_fract_y
_atom_site_fract_z
_atom_type_partial_charge
Zn0 Zn 0.02916 0.02569 0.98667 0.0
Zn1 Zn 0.97541 0.96182 0.00087 0.0
C2 C 0.02048 0.08202 0.015 0.0
O3 O 0.02538 0.08972 0.9877 0.0
C4 C -0.002 0.93609 0.94325 0.0
O5 O 0.01728 0.95557 0.94323 0.0
O6 O 0.06532 0.03633 0.96481 0.0
O7 O 0.03095 0.98147 -0.00133 0.0
O8 O 0.01219 0.95138 0.02862 0.0
C9 C 0.09448 0.0279 0.96099 0.0
O10 O 0.10963 0.00317 0.97415 0.0
O11 O 0.02045 0.05404 0.02094 0.0
C12 C 0.91291 0.97615 0.02862 0.0
O13 O 0.91388 0.00548 0.02609 0.0
O14 O 0.93621 0.95607 0.02073 0.0
O15 O 0.9749 0.00565 0.98979 0.0
O16 O 0.99272 0.03479 0.9585 0.0
O17 O 0.98007 0.93508 0.96514 0.0
C18 C 0.03184 0.96871 0.02378 0.0
C19 C 0.97286 0.01818 0.96462 0.0
Zn20 Zn 0.97563 0.24062 0.25531 0.0
Zn21 Zn 0.02131 0.26951 0.22548 0.0
C22 C 0.99064 0.25918 0.31316 0.0
O23 O 0.98895 0.2305 0.31896 0.0
C24 C -0.00102 0.24522 0.1707 0.0
O25 O 0.98492 0.27337 0.16453 0.0
O26 O 0.94572 0.21857 0.27519 0.0
O27 O 0.95345 0.26619 0.22294 0.0
O28 O 0.98182 0.30084 0.23295 0.0
C29 C 0.91988 0.23466 0.2832 0.0
O30 O 0.91199 0.2628 0.27302 0.0
O31 O 0.98626 0.269 0.28692 0.0
C32 C 0.07782 0.26928 0.19754 0.0
O33 O 0.08009 0.24059 0.20598 0.0
O34 O 0.05396 0.28879 0.20544 0.0
O35 O 0.04195 0.24348 0.25917 0.0
O36 O 0.01356 0.20965 0.24629 0.0
O37 O 0.01357 0.23946 0.19476 0.0
C38 C 0.9558 0.29419 0.22537 0.0
C39 C 0.03871 0.21567 0.25668 0.0
Zn40 Zn 0.79289 0.24527 0.5269 0.0
Zn41 Zn 0.75576 0.21551 0.48518 0.0
C42 C 0.84443 0.23728 0.48751 0.0
O43 O 0.84782 0.26356 0.4992 0.0
C44 C 0.69459 0.2397 0.51028 0.0
O45 O 0.68313 0.22945 0.48636 0.0
O46 O 0.81583 0.26955 0.55325 0.0
O47 O 0.76404 0.27713 0.5032 0.0
O48 O 0.77317 0.24846 0.46362 0.0
C49 C 0.80194 0.29512 0.5636 0.0
O50 O 0.7714 0.30247 0.56133 0.0
O51 O 0.82364 0.22358 0.49771 0.0
C52 C 0.73582 0.16518 0.45456 0.0
O53 O 0.76031 0.14841 0.46718 0.0
O54 O 0.73162 0.19423 0.45683 0.0
O55 O 0.78122 0.18293 0.51127 0.0
O56 O 0.77616 0.21354 0.54994 0.0
O57 O 0.72389 0.23716 0.5131 0.0
C58 C 0.76743 0.27497 0.47542 0.0
C59 C 0.77883 0.18676 0.53905 0.0
Zn60 Zn 0.76996 0.0044 0.77074 0.0
Zn61 Zn 0.71961 0.99599 0.73212 0.0
C62 C 0.74533 0.97741 0.82076 0.0
O63 O 0.75562 -0.00035 0.83443 0.0
C64 C 0.74569 0.02033 0.68027 0.0
O65 O 0.75128 0.99141 0.67204 0.0
O66 O 0.80501 0.01094 0.79681 0.0
O67 O 0.79017 0.98246 0.73517 0.0
O68 O 0.7515 0.95727 0.73269 0.0
C69 C 0.82344 0.98689 0.8055 0.0
O70 O 0.81917 0.95995 0.79611 0.0
O71 O 0.74857 0.97475 0.79305 0.0
C72 C 0.66084 0.00727 0.70598 0.0
O73 O 0.66123 0.03456 0.7171 0.0
O74 O 0.68341 0.98547 0.71137 0.0
O75 O 0.70323 0.01671 0.76971 0.0
O76 O 0.73953 0.04449 0.7658 0.0
O77 O 0.73346 0.02751 0.70533 0.0
C78 C 0.77997 0.9584 0.72828 0.0
C79 C 0.71182 0.0423 0.77281 0.0
Zn80 Zn 0.48309 0.76004 0.29859 0.0
Zn81 Zn 0.53916 0.77008 0.26937 0.0
C82 C 0.47494 0.80232 0.34895 0.0
O83 O 0.45146 0.78884 0.35547 0.0
C84 C 0.52107 0.74097 0.21688 0.0
O85 O 0.53063 0.76406 0.20393 0.0
O86 O 0.44281 0.7482 0.31042 0.0
O87 O 0.47397 0.77993 0.25909 0.0
O88 O 0.50746 0.80989 0.268 0.0
C89 C 0.41788 0.76768 0.30611 0.0
O90 O 0.41955 0.79409 0.29368 0.0
O91 O 0.49213 0.79308 0.32685 0.0
C92 C 0.59552 0.75119 0.23911 0.0
O93 O 0.59031 0.72462 0.24871 0.0
O94 O 0.57741 0.77567 0.24729 0.0
O95 O 0.55267 0.75039 0.30837 0.0
O96 O 0.51677 0.72242 0.30191 0.0
O97 O 0.52256 0.73861 0.24472 0.0
C98 C 0.4821 0.80577 0.25635 0.0
C99 C 0.54363 0.72493 0.31125 0.0
Zn100 Zn 0.19967 0.77159 0.48668 0.0
Zn101 Zn 0.25481 0.80189 0.50538 0.0
C102 C 0.22774 0.71551 0.51417 0.0
O103 O 0.22162 0.70494 0.48824 0.0
C104 C 0.25597 0.8606 0.47802 0.0
O105 O 0.26909 0.86595 0.50299 0.0
O106 O 0.1665 0.7486 0.47407 0.0
O107 O 0.18072 0.81163 0.50481 0.0
O108 O 0.22011 0.806 0.53555 0.0
C109 C 0.14957 0.73989 0.49395 0.0
O110 O 0.15042 0.75098 0.52067 0.0
O111 O 0.22207 0.74432 0.51858 0.0
C112 C 0.3178 0.80805 0.51048 0.0
O113 O 0.3167 0.80092 0.4825 0.0
O114 O 0.29361 0.80847 0.52624 0.0
O115 O 0.26719 0.76232 0.48265 0.0
O116 O 0.22763 0.77326 0.45242 0.0
O117 O 0.24578 0.83571 0.47482 0.0
C118 C 0.19102 0.81426 0.53061 0.0
C119 C 0.25625 0.76225 0.45675 0.0
Zn120 Zn 0.29359 0.53988 0.77156 0.0
Zn121 Zn 0.24463 0.52774 0.72628 0.0
C122 C 0.26538 0.50852 0.81489 0.0
O123 O 0.26948 0.53285 0.8298 0.0
C124 C 0.26693 0.56164 0.67793 0.0
O125 O 0.28581 0.53559 0.67209 0.0
O126 O 0.32545 0.54585 0.8023 0.0
O127 O 0.31803 0.52387 0.73593 0.0
O128 O 0.28344 0.49529 0.7252 0.0
C129 C 0.34175 0.52091 0.81189 0.0
O130 O 0.33776 0.49474 0.80038 0.0
O131 O 0.27374 0.50588 0.7881 0.0
C132 C 0.18698 0.5249 0.69794 0.0
O133 O 0.18252 0.55478 0.70192 0.0
O134 O 0.21185 0.50826 0.70753 0.0
O135 O 0.22715 0.54518 0.76479 0.0
O136 O 0.25959 0.57752 0.7673 0.0
O137 O 0.24871 0.56338 0.69995 0.0
C138 C 0.31142 0.49956 0.725 0.0
C139 C 0.2325 0.57152 0.77134 0.0
Zn140 Zn 0.04618 0.4939 0.49222 0.0
Zn141 Zn -0.0042 0.45699 0.51351 0.0
C142 C 0.00969 0.5487 0.51429 0.0
O143 O 0.01386 0.5572 0.48709 0.0
C144 C 0.0284 0.4038 0.47486 0.0
O145 O 0.05651 0.40686 0.48308 0.0
O146 O 0.07432 0.52174 0.47794 0.0
O147 O 0.07086 0.4589 0.51412 0.0
O148 O 0.03048 0.45839 0.54299 0.0
C149 C 0.09051 0.5324 0.49719 0.0
O150 O 0.09216 0.52087 0.5239 0.0
O151 O 0.01942 0.52089 0.52158 0.0
C152 C 0.93645 0.44305 0.52048 0.0
O153 O 0.93833 0.44603 0.4918 0.0
O154 O 0.95887 0.44834 0.53628 0.0
O155 O 0.97996 0.49314 0.487 0.0
O156 O 0.02114 0.484 0.45836 0.0
O157 O 0.00461 0.42122 0.4856 0.0
C158 C 0.05987 0.45519 0.53946 0.0
C159 C 0.99181 0.4916 0.46132 0.0
Zn160 Zn 0.20569 0.2506 0.99299 0.0
Zn161 Zn 0.25833 0.31504 0.99371 0.0
C162 C 0.23193 0.22453 0.04942 0.0
O163 O 0.254 0.24077 0.04638 0.0
C164 C 0.2197 0.34855 0.94657 0.0
O165 O 0.19749 0.35508 0.96639 0.0
O166 O 0.17047 0.23884 0.97041 0.0
O167 O 0.20453 0.2961 -0.00063 0.0
O168 O 0.22476 0.32941 0.02414 0.0
C169 C 0.15117 0.22616 0.98449 0.0
O170 O 0.14926 0.22964 0.01318 0.0
O171 O 0.2104 0.22659 0.03038 0.0
C172 C 0.31688 0.33228 0.98367 0.0
O173 O 0.3065 0.33366 0.9565 0.0
O174 O 0.3 0.32481 0.00426 0.0
O175 O 0.2607 0.26983 0.99392 0.0
O176 O 0.24385 0.23626 0.96708 0.0
O177 O 0.24554 0.3318 0.95365 0.0
C178 C 0.20474 0.31191 0.02274 0.0
C179 C 0.26445 0.25241 0.97173 0.0
Zn180 Zn 0.2842 0.0154 0.24522 0.0
Zn181 Zn 0.23273 0.99583 0.21567 0.0
C182 C 0.27111 0.99681 0.30292 0.0
O183 O 0.2681 0.02656 0.30702 0.0
C184 C 0.24707 0.02969 0.16323 0.0
O185 O 0.24304 0.00574 0.1477 0.0
O186 O 0.31893 0.03336 0.26088 0.0
O187 O 0.29924 0.99169 0.20876 0.0
O188 O 0.26838 0.95989 0.21997 0.0
C189 C 0.34226 0.01395 0.26964 0.0
O190 O 0.34497 0.98527 0.26102 0.0
O191 O 0.27738 0.98582 0.2773 0.0
C192 C 0.1749 0.00616 0.18699 0.0
O193 O 0.17473 0.03334 0.19861 0.0
O194 O 0.19755 0.98434 0.19266 0.0
O195 O 0.21498 0.01748 0.2526 0.0
O196 O 0.24705 0.04938 0.24471 0.0
O197 O 0.24539 0.02884 0.19104 0.0
C198 C 0.29476 0.96433 0.21088 0.0
C199 C 0.22108 0.04439 0.25429 0.0
Zn200 Zn 0.47267 0.25422 0.77557 0.0
Zn201 Zn 0.51764 0.26277 0.72953 0.0
C202 C 0.50477 0.27809 0.82237 0.0
O203 O 0.49726 0.25442 0.83612 0.0
C204 C 0.48365 0.2388 0.68285 0.0
O205 O 0.47581 0.26787 0.67543 0.0
O206 O 0.44057 0.24687 0.80504 0.0
O207 O 0.44824 0.27755 0.74262 0.0
O208 O 0.48677 0.30176 0.73341 0.0
C209 C 0.42412 0.27091 0.81616 0.0
O210 O 0.42888 0.29792 0.80742 0.0
O211 O 0.49678 0.283 0.79567 0.0
C212 C 0.57183 0.24968 0.69595 0.0
O213 O 0.57189 0.22268 0.70795 0.0
O214 O 0.55086 0.27224 0.70341 0.0
O215 O 0.53891 0.24247 0.76532 0.0
O216 O 0.50267 0.21433 0.76755 0.0
O217 O 0.49992 0.23144 0.70584 0.0
C218 C 0.45784 0.30116 0.73332 0.0
C219 C 0.53097 0.21701 0.77099 0.0
Zn220 Zn 0.9604 0.72836 0.76616 0.0
Zn221 Zn 0.00161 0.74616 0.71635 0.0
C222 C 0.98975 0.76397 0.80525 0.0
O223 O -0.00434 0.73733 0.81884 0.0
C224 C 0.97893 0.71114 0.67008 0.0
O225 O 0.96031 0.73733 0.66426 0.0
O226 O 0.9334 0.7181 0.79968 0.0
O227 O 0.93164 0.74152 0.73242 0.0
O228 O 0.96046 0.77487 0.71852 0.0
C229 C 0.91623 0.74143 0.8114 0.0
O230 O 0.91606 0.76876 0.80015 0.0
O231 O 0.9755 0.76593 0.78077 0.0
C232 C 0.05579 0.75225 0.6851 0.0
O233 O 0.06234 0.7228 0.6914 0.0
O234 O 0.03015 0.76812 0.69399 0.0
O235 O 0.02479 0.73125 0.75308 0.0
O236 O -0.00193 0.69445 0.76013 0.0
O237 O -0.00226 0.70942 0.69161 0.0
C238 C 0.9341 0.76676 0.7203 0.0
C239 C 0.02369 0.70416 0.76136 0.0
Zn240 Zn 0.76939 0.50019 0.29956 0.0
Zn241 Zn 0.71091 0.49164 0.27298 0.0
C242 C 0.77775 0.46251 0.3528 0.0
O243 O 0.79961 0.47833 0.35864 0.0
C244 C 0.72742 0.5203 0.21894 0.0
O245 O 0.71525 0.49867 0.20625 0.0
O246 O 0.81127 0.51002 0.30884 0.0
O247 O 0.77544 0.47914 0.26026 0.0
O248 O 0.74129 0.45106 0.27265 0.0
C249 C 0.83495 0.48883 0.30476 0.0
O250 O 0.83095 0.46269 0.29318 0.0
O251 O 0.76115 0.46863 0.32977 0.0
C252 C 0.65405 0.51007 0.24322 0.0
O253 O 0.65905 0.53684 0.25244 0.0
O254 O 0.67206 0.48584 0.25205 0.0
O255 O 0.69932 0.51293 0.3116 0.0
O256 O 0.73682 0.53877 0.30358 0.0
O257 O 0.72805 0.52181 0.24686 0.0
C258 C 0.76638 0.45363 0.25949 0.0
C259 C 0.70982 0.53772 0.31366 0.0
Zn260 Zn 0.76198 0.72631 0.04912 0.0
Zn261 Zn 0.72859 0.79913 0.00173 0.0
C262 C 0.78966 0.6763 0.08419 0.0
O263 O 0.79708 0.66489 0.05789 0.0
C264 C 0.6856 0.82996 0.96029 0.0
O265 O 0.674 0.84468 0.9841 0.0
O266 O 0.72471 0.70817 0.03883 0.0
O267 O 0.74598 0.77126 0.05421 0.0
O268 O 0.70124 0.7936 0.03603 0.0
C269 C 0.70557 0.71646 0.01802 0.0
O270 O 0.71074 0.73753 -0.00068 0.0
O271 O 0.77743 0.70457 0.08646 0.0
C272 C 0.7578 0.85021 0.98929 0.0
O273 O 0.75956 0.83837 0.9627 0.0
O274 O 0.7459 0.83685 0.0099 0.0
O275 O 0.76431 0.76287 -0.00192 0.0
O276 O 0.79259 0.72041 0.01524 0.0
O277 O 0.7064 0.80598 0.96327 0.0
C278 C 0.71666 0.77946 0.05718 0.0
C279 C 0.78695 0.74045 0.99491 0.0
Zn280 Zn 0.45709 0.0157 0.51807 0.0
Zn281 Zn 0.49778 0.0492 0.48441 0.0
C282 C 0.40469 0.02751 0.47777 0.0
O283 O 0.39269 0.00827 0.49422 0.0
C284 C 0.55253 0.01635 0.51517 0.0
O285 O 0.56804 0.01825 0.49064 0.0
O286 O 0.43354 0.98825 0.54002 0.0
O287 O 0.4912 0.98647 0.49721 0.0
O288 O 0.48619 0.01613 0.45823 0.0
C289 C 0.4478 0.96263 0.54995 0.0
O290 O 0.47848 0.95697 0.55026 0.0
O291 O 0.4299 0.03549 0.48561 0.0
C292 C 0.53899 0.08989 0.47839 0.0
O293 O 0.53084 0.09318 0.50622 0.0
O294 O 0.52653 0.07193 0.46248 0.0
O295 O 0.46587 0.08053 0.50632 0.0
O296 O 0.46653 0.04912 0.54407 0.0
O297 O 0.52366 0.02763 0.51652 0.0
C298 C 0.49119 0.9893 0.46937 0.0
C299 C 0.46337 0.0763 0.53394 0.0
Zn300 Zn 0.5094 0.54936 0.03469 0.0
Zn301 Zn 0.54028 0.46421 0.99466 0.0
C302 C 0.47102 0.58127 0.08152 0.0
O303 O 0.45012 0.58911 0.06073 0.0
C304 C 0.57756 0.42888 0.95224 0.0
O305 O 0.58955 0.41443 0.97602 0.0
O306 O 0.53348 0.58039 0.02 0.0
O307 O 0.53919 0.50959 0.03392 0.0
O308 O 0.57012 0.46577 0.02932 0.0
C309 C 0.52448 0.6092 0.02289 0.0
O310 O 0.4973 0.61991 0.03506 0.0
O311 O 0.49567 0.56202 0.0756 0.0
C312 C 0.49774 0.43253 0.02243 0.0
O313 O 0.49308 0.45746 0.03875 0.0
O314 O 0.51847 0.42949 0.00251 0.0
O315 O 0.50506 0.50201 0.99291 0.0
O316 O 0.4758 0.5461 0.00486 0.0
O317 O 0.5597 0.45484 0.95515 0.0
C318 C 0.56084 0.48972 0.04455 0.0
C319 C 0.48148 0.52295 0.98772 0.0
C320 C 0.02023 0.13539 0.03213 0.0
C321 C 0.01598 0.10549 0.03839 0.0
C322 C 0.01724 0.15779 0.05418 0.0
C323 C 0.00878 0.15032 0.08297 0.0
C324 C 0.00383 0.12034 0.08935 0.0
C325 C 0.00787 0.09812 0.06702 0.0
C326 C 0.02376 0.18923 0.04679 0.0
C327 C 0.99427 0.11176 0.11973 0.0
C328 C 0.02862 0.19914 0.14583 0.0
C329 C 0.00081 0.22065 0.14881 0.0
C330 C 0.03156 0.17605 0.12446 0.0
C331 C 0.00564 0.17389 0.10642 0.0
C332 C 0.97717 0.19503 0.10998 0.0
C333 C 0.97529 0.21864 0.13083 0.0
C334 C 0.06262 0.1546 0.12064 0.0
C335 C 0.94881 0.19275 0.0917 0.0
H336 H 0.02633 0.14128 0.01002 0.0
H337 H 0.00449 0.07504 0.07195 0.0
H338 H 0.00321 0.2072 0.05219 0.0
H339 H 0.04358 0.19388 0.06026 0.0
H340 H 0.02961 0.19144 0.02317 0.0
H341 H 0.98956 0.08799 0.12058 0.0
H342 H 0.01298 0.11358 0.13576 0.0
H343 H 0.97299 0.12794 0.12691 0.0
H344 H 0.04845 0.20096 0.15967 0.0
H345 H 0.95376 0.23521 0.13343 0.0
H346 H 0.07159 0.15689 0.09803 0.0
H347 H 0.05981 0.13041 0.12336 0.0
H348 H 0.08038 0.15935 0.13663 0.0
H349 H 0.95357 0.19676 0.06818 0.0
H350 H 0.92789 0.20964 0.09861 0.0
H351 H 0.94347 0.16929 0.09345 0.0
C352 C 0.88255 0.24215 0.44776 0.0
C353 C 0.85892 0.22783 0.45881 0.0
C354 C 0.89248 0.23778 0.41849 0.0
C355 C 0.87812 0.21889 0.39988 0.0
C356 C 0.85563 0.20288 0.41139 0.0
C357 C 0.84642 0.20739 0.44085 0.0
C358 C 0.91702 0.25482 0.40706 0.0
C359 C 0.83978 0.18265 0.39216 0.0
C360 C 0.87788 0.24513 0.32093 0.0
C361 C 0.90451 0.22576 0.30992 0.0
C362 C 0.86771 0.24173 0.34976 0.0
C363 C 0.88463 0.21845 0.36788 0.0
C364 C 0.9098 0.19712 0.35606 0.0
C365 C 0.91936 0.20092 0.32707 0.0
C366 C 0.84038 0.26462 0.36148 0.0
C367 C 0.92829 0.17191 0.37469 0.0
H368 H 0.89244 0.25777 0.46164 0.0
H369 H 0.82809 0.19624 0.44925 0.0
H370 H 0.93565 0.23886 0.39527 0.0
H371 H 0.90627 0.27264 0.39109 0.0
H372 H 0.92791 0.26623 0.42497 0.0
H373 H 0.82613 0.16859 0.40527 0.0
H374 H 0.82363 0.19721 0.37678 0.0
H375 H 0.85717 0.16708 0.37865 0.0
H376 H 0.86609 0.26415 0.30767 0.0
H377 H 0.93988 0.18568 0.31865 0.0
H378 H 0.84886 0.28021 0.37736 0.0
H379 H 0.82389 0.25271 0.37341 0.0
H380 H 0.82754 0.27876 0.34363 0.0
H381 H 0.94326 0.18204 0.39015 0.0
H382 H 0.94355 0.15435 0.36111 0.0
H383 H 0.91256 0.16041 0.38808 0.0
C384 C 0.7329 0.07377 0.66044 0.0
C385 C 0.75174 0.04444 0.65978 0.0
C386 C 0.7373 0.0964 0.64003 0.0
C387 C 0.76178 0.08981 0.61911 0.0
C388 C 0.78124 0.06038 0.61876 0.0
C389 C 0.77565 0.03788 0.6388 0.0
C390 C 0.71546 0.12718 0.6406 0.0
C391 C 0.80814 0.05276 0.5974 0.0
C392 C 0.75867 0.13887 0.55 0.0
C393 C 0.77636 0.16071 0.55854 0.0
C394 C 0.75354 0.11574 0.56954 0.0
C395 C 0.76731 0.11388 0.59789 0.0
C396 C 0.78602 0.13536 0.60619 0.0
C397 C 0.78982 0.15888 0.5866 0.0
C398 C 0.73261 0.09392 0.56017 0.0
C399 C 0.80183 0.13365 0.63585 0.0
H400 H 0.71414 0.07876 0.67642 0.0
H401 H 0.79031 0.01524 0.63835 0.0
H402 H 0.72877 0.14575 0.64479 0.0
H403 H 0.704 0.13185 0.61885 0.0
H404 H 0.69709 0.12833 0.65775 0.0
H405 H 0.82163 0.02911 0.60055 0.0
H406 H 0.79935 0.05498 0.57447 0.0
H407 H 0.82417 0.06927 0.60011 0.0
H408 H 0.74778 0.14066 0.52848 0.0
H409 H 0.80348 0.17582 0.59316 0.0
H410 H 0.71239 0.096 0.57539 0.0
H411 H 0.74543 0.06986 0.56145 0.0
H412 H 0.7237 0.09847 0.53738 0.0
H413 H 0.78402 0.1376 0.65357 0.0
H414 H 0.81721 0.15086 0.63815 0.0
H415 H 0.81605 0.1104 0.63927 0.0
C416 C 0.96206 0.01077 0.91151 0.0
C417 C 0.95357 0.00852 0.94109 0.0
C418 C 0.94292 0.00354 0.88886 0.0
C419 C 0.91431 0.99465 0.89603 0.0
C420 C 0.90631 0.99102 0.92585 0.0
C421 C 0.92623 -0.00218 0.94803 0.0
C422 C 0.95271 0.00659 0.85728 0.0
C423 C 0.876 0.98156 0.93442 0.0
C424 C 0.84856 0.01704 0.84147 0.0
C425 C 0.84751 0.98891 0.82783 0.0
C426 C 0.87016 0.01908 0.86379 0.0
C427 C 0.89137 0.99238 0.87251 0.0
C428 C 0.89065 0.96392 0.85872 0.0
C429 C 0.86869 0.96253 0.83647 0.0
C430 C 0.87006 0.04979 0.87827 0.0
C431 C 0.91302 0.93504 0.86742 0.0
H432 H 0.98356 0.01843 0.90604 0.0
H433 H 0.91975 0.99595 0.97077 0.0
H434 H 0.95093 0.98551 0.84476 0.0
H435 H 0.93681 0.02603 0.8467 0.0
H436 H 0.97701 0.01071 0.85548 0.0
H437 H 0.87522 0.97598 0.95821 0.0
H438 H 0.85624 0.00057 0.92944 0.0
H439 H 0.87239 0.96128 0.92151 0.0
H440 H 0.83217 0.03747 0.83501 0.0
H441 H 0.86805 0.94071 0.82594 0.0
H442 H 0.89306 0.05662 0.87515 0.0
H443 H 0.86624 0.04802 0.90231 0.0
H444 H 0.85166 0.06822 0.86924 0.0
H445 H 0.93708 0.93689 0.8607 0.0
H446 H 0.90697 0.91424 0.85706 0.0
H447 H 0.91315 0.932 0.89164 0.0
C448 C 0.07289 0.99581 0.04345 0.0
C449 C 0.0497 0.97843 0.04853 0.0
C450 C 0.09158 0.00307 0.06652 0.0
C451 C 0.08657 0.993 0.09541 0.0
C452 C 0.06202 0.97694 0.10095 0.0
C453 C 0.04406 0.96961 0.0774 0.0
C454 C 0.11759 0.0202 0.05971 0.0
C455 C 0.05548 0.96647 0.13158 0.0
C456 C 0.15559 0.97578 0.14721 0.0
C457 C 0.15125 0.00222 0.16477 0.0
C458 C 0.13479 0.97273 0.12442 0.0
C459 C 0.10878 0.99652 0.11931 0.0
C460 C 0.10389 0.02309 0.13726 0.0
C461 C 0.12531 0.02569 0.15973 0.0
C462 C 0.14091 0.94415 0.10556 0.0
C463 C 0.07615 0.04874 0.13265 0.0
H464 H 0.07699 0.00301 0.0213 0.0
H465 H 0.02585 0.95654 0.08163 0.0
H466 H 0.11677 0.03985 0.07497 0.0
H467 H 0.14044 0.00465 0.06292 0.0
H468 H 0.11645 0.02895 0.03673 0.0
H469 H 0.03354 0.95718 0.13265 0.0
H470 H 0.07505 0.94829 0.13888 0.0
H471 H 0.05376 0.98581 0.14737 0.0
H472 H 0.17568 0.95768 0.15082 0.0
H473 H 0.12182 0.04621 0.17324 0.0
H474 H 0.14295 0.95053 0.08212 0.0
H475 H 0.12102 0.93187 0.10726 0.0
H476 H 0.16258 0.9281 0.11203 0.0
H477 H 0.07679 0.05837 0.11017 0.0
H478 H 0.07546 0.06766 0.14882 0.0
H479 H 0.05415 0.0397 0.13451 0.0
C480 C 0.04906 0.36125 0.43949 0.0
C481 C 0.02371 0.38148 0.45179 0.0
C482 C 0.0445 0.34073 0.41704 0.0
C483 C 0.0139 0.34056 0.40666 0.0
C484 C 0.98823 0.36083 0.41907 0.0
C485 C 0.99344 0.38096 0.44147 0.0
C486 C 0.07241 0.3194 0.40425 0.0
C487 C 0.95524 0.36138 0.40859 0.0
C488 C 0.0027 0.30926 0.33045 0.0
C489 C -0.00293 0.27985 0.33698 0.0
C490 C 0.00857 0.32914 0.35291 0.0
C491 C 0.00864 0.3194 0.3826 0.0
C492 C 0.00284 0.28979 0.38934 0.0
C493 C -0.00276 0.27033 0.36643 0.0
C494 C 0.01439 0.36066 0.3449 0.0
C495 C 0.00219 0.2788 0.42076 0.0
H496 H 0.07249 0.36151 0.4473 0.0
H497 H 0.97364 0.39656 0.45073 0.0
H498 H 0.06951 0.2952 0.40679 0.0
H499 H 0.07414 0.32382 0.38032 0.0
H500 H 0.09462 0.32215 0.41493 0.0
H501 H 0.93788 0.37873 0.42043 0.0
H502 H 0.95346 0.36657 0.3847 0.0
H503 H 0.94898 0.33846 0.41174 0.0
H504 H 0.00255 0.31679 0.30774 0.0
H505 H 0.99264 0.24773 0.37167 0.0
H506 H 0.03716 0.36395 0.35392 0.0
H507 H -0.00391 0.37854 0.35486 0.0
H508 H 0.01444 0.36437 0.32072 0.0
H509 H 0.02473 0.27973 0.43168 0.0
H510 H -0.00222 0.25496 0.42223 0.0
H511 H 0.98365 0.29417 0.43323 0.0
C512 C 0.64471 0.24154 0.53758 0.0
C513 C 0.67464 0.24868 0.53614 0.0
C514 C 0.62785 0.24482 0.564 0.0
C515 C 0.64128 0.25565 0.58933 0.0
C516 C 0.67063 0.26468 0.58751 0.0
C517 C 0.68699 0.26109 0.56086 0.0
C518 C 0.59648 0.23506 0.56522 0.0
C519 C 0.68554 0.27648 0.61406 0.0
C520 C 0.58753 0.27961 0.65393 0.0
C521 C 0.59234 0.25258 0.67074 0.0
C522 C 0.60389 0.28126 0.62764 0.0
C523 C 0.62564 0.25532 0.61816 0.0
C524 C 0.63167 0.22846 0.6357 0.0
C525 C 0.61487 0.22741 0.66183 0.0
C526 C 0.59702 0.31026 0.60944 0.0
C527 C 0.65505 0.20046 0.62637 0.0
H528 H 0.6351 0.23191 0.51853 0.0
H529 H 0.71005 0.26687 0.55976 0.0
H530 H 0.5981 0.21446 0.57942 0.0
H531 H 0.57873 0.25349 0.57512 0.0
H532 H 0.58828 0.22947 0.54309 0.0
H533 H 0.70687 0.2855 0.60819 0.0
H534 H 0.66881 0.29496 0.62511 0.0
H535 H 0.69206 0.25759 0.6302 0.0
H536 H 0.57014 0.29918 0.66073 0.0
H537 H 0.61879 0.20653 0.67484 0.0
H538 H 0.58602 0.3055 0.58836 0.0
H539 H 0.61899 0.31822 0.60394 0.0
H540 H 0.58111 0.3291 0.62095 0.0
H541 H 0.64745 0.1913 0.60543 0.0
H542 H 0.65786 0.18192 0.64315 0.0
H543 H 0.67816 0.20672 0.6223 0.0
C544 C 0.71035 0.9389 0.82439 0.0
C545 C 0.7316 0.95485 0.83762 0.0
C546 C 0.69751 0.91711 0.84033 0.0
C547 C 0.70686 0.91068 0.86983 0.0
C548 C 0.72855 0.92659 0.88314 0.0
C549 C 0.7403 0.9488 0.86697 0.0
C550 C 0.67417 0.90085 0.82563 0.0
C551 C 0.73979 0.9198 0.91435 0.0
C552 C 0.66456 0.87562 0.92929 0.0
C553 C 0.68376 0.84661 0.93193 0.0
C554 C 0.66968 0.89589 0.90689 0.0
C555 C 0.69479 0.88695 0.88704 0.0
C556 C 0.71176 0.85644 0.88749 0.0
C557 C 0.70578 0.83648 0.90978 0.0
C558 C 0.65033 0.92791 0.90643 0.0
C559 C 0.73879 0.8458 0.86684 0.0
H560 H 0.70353 0.9437 0.80168 0.0
H561 H 0.75698 0.9609 0.87711 0.0
H562 H 0.68369 0.87586 0.82441 0.0
H563 H 0.65241 0.90378 0.83888 0.0
H564 H 0.66824 0.90955 0.80302 0.0
H565 H 0.75745 0.93354 0.92109 0.0
H566 H 0.71979 0.92471 0.92984 0.0
H567 H 0.75027 0.89508 0.91659 0.0
H568 H 0.64708 0.88342 0.94599 0.0
H569 H 0.72049 0.81392 0.91133 0.0
H570 H 0.64463 0.9356 0.88351 0.0
H571 H 0.66388 0.9441 0.91645 0.0
H572 H 0.62825 0.9293 0.91903 0.0
H573 H 0.7345 0.85628 0.84472 0.0
H574 H 0.74357 0.82042 0.86442 0.0
H575 H 0.76005 0.85274 0.87594 0.0
C576 C 0.16083 0.29282 0.04728 0.0
C577 C 0.18788 0.3054 0.04951 0.0
C578 C 0.14416 0.28724 0.07253 0.0
C579 C 0.15504 0.29419 0.10064 0.0
C580 C 0.18262 0.30648 0.10302 0.0
C581 C 0.1986 0.31215 0.0774 0.0
C582 C 0.11491 0.27395 0.06913 0.0
C583 C 0.19528 0.31352 0.13263 0.0
C584 C 0.09487 0.3062 0.16208 0.0
C585 C 0.09996 0.27715 0.17539 0.0
C586 C 0.11327 0.31233 0.13823 0.0
C587 C 0.13732 0.28888 0.12753 0.0
C588 C 0.1435 0.25999 0.14177 0.0
C589 C 0.12472 0.25448 0.16548 0.0
C590 C 0.1061 0.34348 0.12367 0.0
C591 C 0.1687 0.23421 0.13103 0.0
H592 H 0.15239 0.28793 0.02572 0.0
H593 H 0.21968 0.32166 0.07925 0.0
H594 H 0.11895 0.25034 0.07832 0.0
H595 H 0.09532 0.28782 0.08161 0.0
H596 H 0.10777 0.27293 0.04575 0.0
H597 H 0.21714 0.32283 0.13071 0.0
H598 H 0.17766 0.33045 0.14458 0.0
H599 H 0.20005 0.29233 0.1462 0.0
H600 H 0.0758 0.32384 0.16961 0.0
H601 H 0.12887 0.23193 0.17562 0.0
H602 H 0.09806 0.341 0.10079 0.0
H603 H 0.1275 0.35359 0.1224 0.0
H604 H 0.08777 0.35973 0.1356 0.0
H605 H 0.1599 0.22357 0.11147 0.0
H606 H 0.17515 0.21606 0.14798 0.0
H607 H 0.19002 0.24277 0.12437 0.0
C608 C 0.80086 0.4195 0.3859 0.0
C609 C 0.77458 0.43602 0.37149 0.0
C610 C 0.79885 0.39345 0.4028 0.0
C611 C 0.76965 0.3842 0.40598 0.0
C612 C 0.74288 0.4012 0.39196 0.0
C613 C 0.74577 0.42667 0.37445 0.0
C614 C 0.82816 0.37535 0.41651 0.0
C615 C 0.71125 0.39243 0.3954 0.0
C616 C 0.77104 0.30091 0.42684 0.0
C617 C 0.76659 0.30301 0.45741 0.0
C618 C 0.77133 0.32727 0.40975 0.0
C619 C 0.76738 0.35636 0.42358 0.0
C620 C 0.76253 0.35869 0.45436 0.0
C621 C 0.76218 0.332 0.4709 0.0
C622 C 0.77663 0.32388 0.37698 0.0
C623 C 0.75823 0.38931 0.46991 0.0
H624 H 0.82327 0.42644 0.38328 0.0
H625 H 0.72544 0.43951 0.36338 0.0
H626 H 0.82435 0.37107 0.44016 0.0
H627 H 0.83423 0.35262 0.40558 0.0
H628 H 0.84834 0.38725 0.41442 0.0
H629 H 0.69256 0.40871 0.38398 0.0
H630 H 0.71182 0.36907 0.38641 0.0
H631 H 0.70516 0.39176 0.41909 0.0
H632 H 0.77463 0.27862 0.41623 0.0
H633 H 0.75883 0.33388 0.49452 0.0
H634 H 0.79991 0.32901 0.37143 0.0
H635 H 0.75904 0.3405 0.36476 0.0
H636 H 0.77549 0.30038 0.36916 0.0
H637 H 0.77959 0.39929 0.46741 0.0
H638 H 0.75336 0.38737 0.49378 0.0
H639 H 0.73868 0.40563 0.45977 0.0
C640 C 0.55153 0.9973 0.56628 0.0
C641 C 0.56868 0.00604 0.54267 0.0
C642 C 0.56447 0.99328 0.59444 0.0
C643 C 0.5951 -0.00155 0.59894 0.0
C644 C 0.61323 0.00532 0.5748 0.0
C645 C 0.59979 0.00885 0.54676 0.0
C646 C 0.54468 0.98545 0.61959 0.0
C647 C 0.64607 0.01096 0.57891 0.0
C648 C 0.61872 0.02935 0.67103 0.0
C649 C 0.63896 0.00361 0.6822 0.0
C650 C 0.60288 0.02757 0.64452 0.0
C651 C 0.60739 -0.00068 0.62911 0.0
C652 C 0.62574 0.97271 0.64147 0.0
C653 C 0.64133 0.97516 0.66798 0.0
C654 C 0.58306 0.05638 0.63207 0.0
C655 C 0.63059 0.94214 0.62578 0.0
H656 H 0.52749 0.99486 0.56298 0.0
H657 H 0.61297 0.01572 0.52849 0.0
H658 H 0.55816 0.9671 0.63354 0.0
H659 H 0.53756 0.006 0.63372 0.0
H660 H 0.52325 0.97782 0.61172 0.0
H661 H 0.65777 0.01377 0.55761 0.0
H662 H 0.64547 0.03209 0.59217 0.0
H663 H 0.66036 0.99166 0.59116 0.0
H664 H 0.61658 0.05133 0.68209 0.0
H665 H 0.65668 0.95507 0.67672 0.0
H666 H 0.55974 0.05202 0.62565 0.0
H667 H 0.5943 0.06343 0.61193 0.0
H668 H 0.57983 0.07576 0.64797 0.0
H669 H 0.608 0.93711 0.61791 0.0
H670 H 0.64196 0.92298 0.64012 0.0
H671 H 0.64559 0.943 0.60617 0.0
C672 C 0.97349 0.89741 0.91704 0.0
C673 C -0.00292 0.91497 0.9183 0.0
C674 C 0.97332 0.87551 0.89493 0.0
C675 C -0.00251 0.87086 0.8737 0.0
C676 C 0.02044 0.88958 0.87386 0.0
C677 C 0.01994 0.91155 0.8962 0.0
C678 C 0.94786 0.8566 0.89493 0.0
C679 C 0.04604 0.88566 0.85102 0.0
C680 C 0.01351 0.78919 0.84597 0.0
C681 C -0.00406 0.79182 0.82002 0.0
C682 C 0.01583 0.81518 0.8627 0.0
C683 C 9e-05 0.84445 0.85325 0.0
C684 C 0.98404 0.84749 0.82604 0.0
C685 C 0.98215 0.82106 0.80972 0.0
C686 C 0.03355 0.81105 0.89141 0.0
C687 C 0.96685 0.87812 0.81494 0.0
H688 H 0.95531 0.90041 0.93366 0.0
H689 H 0.03798 0.92536 0.89683 0.0
H690 H 0.93694 0.85715 0.87285 0.0
H691 H 0.95806 0.83228 0.89995 0.0
H692 H 0.92933 0.8649 0.91139 0.0
H693 H 0.06071 0.90354 0.85284 0.0
H694 H 0.06125 0.86275 0.85356 0.0
H695 H 0.03582 0.88662 0.82861 0.0
H696 H 0.02456 0.76668 0.85383 0.0
H697 H 0.96858 0.82328 0.78959 0.0
H698 H 0.01687 0.81602 0.91004 0.0
H699 H 0.04985 0.82744 0.89285 0.0
H700 H 0.04708 0.78735 0.89408 0.0
H701 H 0.94223 0.88147 0.82246 0.0
H702 H 0.96664 0.87872 0.7905 0.0
H703 H 0.97713 0.89757 0.82318 0.0
C704 C 0.13874 0.05608 0.96265 0.0
C705 C 0.11091 0.05161 0.94954 0.0
C706 C 0.14779 0.08481 0.961 0.0
C707 C 0.12837 0.10928 0.94606 0.0
C708 C 0.10278 0.10346 0.92939 0.0
C709 C 0.09449 0.07452 0.93116 0.0
C710 C 0.17591 0.08994 0.97825 0.0
C711 C 0.08168 0.12875 0.9129 0.0
C712 C 0.12011 0.1846 0.98702 0.0
C713 C 0.14003 0.19986 0.97102 0.0
C714 C 0.11532 0.15553 0.97838 0.0
C715 C 0.13077 0.14144 0.95305 0.0
C716 C 0.14918 0.1576 0.93563 0.0
C717 C 0.1535 0.18675 0.94476 0.0
C718 C 0.09506 0.13921 0.99733 0.0
C719 C 0.16608 0.14335 0.90855 0.0
H720 H 0.15162 0.03838 0.97673 0.0
H721 H 0.07319 0.07088 0.92058 0.0
H722 H 0.18934 0.1046 0.96571 0.0
H723 H 0.16806 0.10202 -0.0009 0.0
H724 H 0.19163 0.06793 0.98377 0.0
H725 H 0.06715 0.11939 0.89641 0.0
H726 H 0.06582 0.14298 0.92878 0.0
H727 H 0.09535 0.14401 0.90154 0.0
H728 H 0.10948 0.19468 0.0072 0.0
H729 H 0.16905 0.19834 0.93227 0.0
H730 H 0.10948 0.11849 0.00738 0.0
H731 H 0.07697 0.13142 0.98366 0.0
H732 H 0.08338 0.15404 0.01531 0.0
H733 H 0.18684 0.12631 0.9154 0.0
H734 H 0.17411 0.16082 0.89443 0.0
H735 H 0.15101 0.13101 0.89529 0.0
C736 C 0.68987 0.59305 0.30436 0.0
C737 C 0.68806 0.56649 0.32048 0.0
C738 C 0.66655 0.61936 0.30675 0.0
C739 C 0.6414 0.6194 0.32651 0.0
C740 C 0.64064 0.59334 0.34436 0.0
C741 C 0.66371 0.56688 0.34069 0.0
C742 C 0.66775 0.64629 0.28665 0.0
C743 C 0.61478 0.59295 0.36638 0.0
C744 C 0.59114 0.69824 0.33793 0.0
C745 C 0.5666 0.69708 0.31837 0.0
C746 C 0.61478 0.67237 0.34234 0.0
C747 C 0.61436 0.64533 0.32587 0.0
C748 C 0.5892 0.64394 0.30657 0.0
C749 C 0.56535 0.66968 0.30345 0.0
C750 C 0.64068 0.67431 0.36384 0.0
C751 C 0.58832 0.61588 0.2879 0.0
H752 H 0.70851 0.59265 0.28845 0.0
H753 H 0.66244 0.54634 0.35323 0.0
H754 H 0.64765 0.64936 0.27125 0.0
H755 H 0.66579 0.66777 0.29959 0.0
H756 H 0.68963 0.64313 0.27351 0.0
H757 H 0.62026 0.57315 0.38172 0.0
H758 H 0.61043 0.61452 0.37939 0.0
H759 H 0.59285 0.59142 0.35462 0.0
H760 H 0.59199 0.71943 0.34954 0.0
H761 H 0.54655 0.66889 0.28803 0.0
H762 H 0.6626 0.675 0.35166 0.0
H763 H 0.64506 0.65367 0.37817 0.0
H764 H 0.63523 0.69511 0.37793 0.0
H765 H 0.60875 0.61178 0.27284 0.0
H766 H 0.56672 0.61831 0.27447 0.0
H767 H 0.58987 0.59524 0.30201 0.0
C768 C 0.36413 0.8322 0.50147 0.0
C769 C 0.34345 0.82253 0.52148 0.0
C770 C 0.38418 0.85172 0.51037 0.0
C771 C 0.38383 0.86136 0.54009 0.0
C772 C 0.36518 0.84935 0.56093 0.0
C773 C 0.34496 0.83021 0.55132 0.0
C774 C 0.40372 0.86406 0.48741 0.0
C775 C 0.36487 0.85845 0.59294 0.0
C776 C 0.44646 0.90714 0.55877 0.0
C777 C 0.43045 0.93723 0.55366 0.0
C778 C 0.43116 0.88206 0.55624 0.0
C779 C 0.39928 0.88731 0.54814 0.0
C780 C 0.38257 0.91774 0.54488 0.0
C781 C 0.3983 0.94233 0.54795 0.0
C782 C 0.44961 0.84996 0.56035 0.0
C783 C 0.34853 0.92432 0.53611 0.0
H784 H 0.36326 0.82621 0.47839 0.0
H785 H 0.32932 0.82245 0.56697 0.0
H786 H 0.39401 0.8887 0.48341 0.0
H787 H 0.42806 0.86245 0.4952 0.0
H788 H 0.40417 0.8516 0.46615 0.0
H789 H 0.3536 0.84314 0.607 0.0
H790 H 0.38896 0.85797 0.60101 0.0
H791 H 0.35175 0.8823 0.59549 0.0
H792 H 0.47129 0.90298 0.56333 0.0
H793 H 0.38567 0.96549 0.5442 0.0
H794 H 0.45511 0.83911 0.5385 0.0
H795 H 0.43587 0.83553 0.5728 0.0
H796 H 0.47194 0.84998 0.57209 0.0
H797 H 0.34599 0.9154 0.51359 0.0
H798 H 0.33847 0.94927 0.53633 0.0
H799 H 0.33465 0.91244 0.55118 0.0
C800 C 0.06101 0.6546 0.75784 0.0
C801 C 0.05294 0.68404 0.76988 0.0
C802 C 0.09127 0.63749 0.76139 0.0
C803 C 0.11339 0.64992 0.77809 0.0
C804 C 0.10459 0.67889 0.7918 0.0
C805 C 0.07454 0.69587 0.78708 0.0
C806 C 0.10004 0.60689 0.74596 0.0
C807 C 0.12722 0.69242 0.81049 0.0
C808 C 0.18435 0.59108 0.79927 0.0
C809 C 0.20552 0.59571 0.77733 0.0
C810 C 0.15485 0.61003 0.80109 0.0
C811 C 0.14615 0.63326 0.77971 0.0
C812 C 0.16809 0.63883 0.75827 0.0
C813 C 0.19781 0.62012 0.75759 0.0
C814 C 0.13243 0.60402 0.82477 0.0
C815 C 0.15943 0.66299 0.73473 0.0
H816 H 0.04431 0.64579 0.74419 0.0
H817 H 0.06806 0.71873 0.79637 0.0
H818 H 0.11878 0.60792 0.72963 0.0
H819 H 0.10937 0.58864 0.76202 0.0
H820 H 0.0799 0.60022 0.73436 0.0
H821 H 0.11561 0.71341 0.82234 0.0
H822 H 0.13858 0.67534 0.82685 0.0
H823 H 0.14593 0.6985 0.79637 0.0
H824 H 0.19046 0.57186 0.81427 0.0
H825 H 0.21413 0.62307 0.74025 0.0
H826 H 0.11377 0.59344 0.81483 0.0
H827 H 0.12103 0.62587 0.83527 0.0
H828 H 0.14427 0.58831 0.84206 0.0
H829 H 0.14098 0.65671 0.72044 0.0
H830 H 0.1797 0.66551 0.7207 0.0
H831 H 0.14978 0.68555 0.74482 0.0
C832 C 0.80544 0.34976 0.57436 0.0
C833 C 0.8204 0.3192 0.56985 0.0
C834 C 0.82218 0.37386 0.57256 0.0
C835 C 0.85442 0.36712 0.56577 0.0
C836 C 0.87011 0.33616 0.5641 0.0
C837 C 0.85294 0.31256 0.56644 0.0
C838 C 0.8048 0.40653 0.57538 0.0
C839 C 0.90452 0.32793 0.55694 0.0
C840 C 0.89068 0.41749 0.51447 0.0
C841 C 0.91149 0.42863 0.53323 0.0
C842 C 0.87049 0.39895 0.52521 0.0
C843 C 0.8708 0.39172 0.55558 0.0
C844 C 0.88977 0.40507 0.57506 0.0
C845 C 0.91016 0.42321 0.5636 0.0
C846 C 0.85053 0.3853 0.50362 0.0
C847 C 0.88992 0.39874 0.60769 0.0
H848 H 0.78035 0.35511 0.57742 0.0
H849 H 0.86479 0.28899 0.56337 0.0
H850 H 0.81918 0.42106 0.58682 0.0
H851 H 0.79933 0.41631 0.55311 0.0
H852 H 0.78246 0.40777 0.58753 0.0
H853 H 0.91379 0.30295 0.55947 0.0
H854 H 0.90839 0.33452 0.53385 0.0
H855 H 0.91812 0.34073 0.57133 0.0
H856 H 0.89127 0.42185 0.49101 0.0
H857 H 0.92589 0.43211 0.57831 0.0
H858 H 0.82595 0.38896 0.51126 0.0
H859 H 0.85906 0.36013 0.50204 0.0
H860 H 0.85102 0.39535 0.48127 0.0
H861 H 0.86584 0.39949 0.61597 0.0
H862 H 0.90075 0.41548 0.6203 0.0
H863 H 0.90344 0.37537 0.61205 0.0
C864 C 0.34923 0.94218 0.19579 0.0
C865 C 0.32224 0.9393 0.2115 0.0
C866 C 0.37717 0.92106 0.19974 0.0
C867 C 0.37818 0.89697 0.22035 0.0
C868 C 0.35076 0.89352 0.23573 0.0
C869 C 0.32299 0.91457 0.23085 0.0
C870 C 0.4058 0.92505 0.18256 0.0
C871 C 0.35106 0.86835 0.25824 0.0
C872 C 0.44054 0.82521 0.2204 0.0
C873 C 0.45954 0.8312 0.24368 0.0
C874 C 0.415 0.84725 0.21131 0.0
C875 C 0.40794 0.87559 0.22643 0.0
C876 C 0.42794 0.88232 0.2491 0.0
C877 C 0.45385 0.86004 0.25727 0.0
C878 C 0.39461 0.83951 0.18665 0.0
C879 C 0.42083 0.91215 0.26602 0.0
H880 H 0.34864 0.96139 0.18089 0.0
H881 H 0.30229 0.91258 0.2434 0.0
H882 H 0.42366 0.93089 0.19781 0.0
H883 H 0.41623 0.90326 0.17142 0.0
H884 H 0.40049 0.94348 0.16574 0.0
H885 H 0.32766 0.8687 0.2681 0.0
H886 H 0.35922 0.84556 0.24795 0.0
H887 H 0.36765 0.87086 0.27617 0.0
H888 H 0.44511 0.80282 0.20992 0.0
H889 H 0.46836 0.86442 0.27554 0.0
H890 H 0.3898 0.85867 0.17059 0.0
H891 H 0.37184 0.8362 0.19573 0.0
H892 H 0.40547 0.81823 0.17484 0.0
H893 H 0.41682 0.93197 0.25069 0.0
H894 H 0.43993 0.91481 0.2814 0.0
H895 H 0.39905 0.91305 0.27895 0.0
C896 C 0.36471 0.46913 0.73257 0.0
C897 C 0.33645 0.47374 0.71715 0.0
C898 C 0.38555 0.44102 0.73082 0.0
C899 C 0.37835 0.41758 0.71233 0.0
C900 C 0.35142 0.42338 0.69439 0.0
C901 C 0.33043 0.45128 0.69741 0.0
C902 C 0.41381 0.43553 0.75068 0.0
C903 C 0.34368 0.39941 0.6735 0.0
C904 C 0.44404 0.34905 0.7039 0.0
C905 C 0.43557 0.3289 0.72487 0.0
C906 C 0.42465 0.3774 0.69817 0.0
C907 C 0.39687 0.38607 0.71466 0.0
C908 C 0.38775 0.3653 0.73516 0.0
C909 C 0.407 0.33664 0.7396 0.0
C910 C 0.43443 0.39844 0.67529 0.0
C911 C 0.35855 0.37398 0.75359 0.0
H912 H 0.36942 0.48656 0.74775 0.0
H913 H 0.3087 0.45507 0.68517 0.0
H914 H 0.41106 0.41805 0.76749 0.0
H915 H 0.4352 0.42639 0.73789 0.0
H916 H 0.41719 0.45678 0.76218 0.0
H917 H 0.32549 0.40944 0.65735 0.0
H918 H 0.36483 0.3881 0.66136 0.0
H919 H 0.33489 0.38138 0.68617 0.0
H920 H 0.46605 0.3428 0.69228 0.0
H921 H 0.40051 0.32101 0.7558 0.0
H922 H 0.44222 0.41801 0.6863 0.0
H923 H 0.41442 0.40807 0.66092 0.0
H924 H 0.45387 0.38641 0.66133 0.0
H925 H 0.3602 0.39435 0.76729 0.0
H926 H 0.35471 0.35505 0.76837 0.0
H927 H 0.33783 0.38035 0.7392 0.0
C928 C 0.13758 0.81566 0.55087 0.0
C929 C 0.16902 0.81714 0.5557 0.0
C930 C 0.11852 0.80948 0.57408 0.0
C931 C 0.13099 0.80569 0.60287 0.0
C932 C 0.16154 0.81073 0.60839 0.0
C933 C 0.18033 0.81622 0.58465 0.0
C934 C 0.0861 0.80404 0.56724 0.0
C935 C 0.17532 0.80779 0.63894 0.0
C936 C 0.07296 0.7982 0.66341 0.0
C937 C 0.07676 0.76618 0.66603 0.0
C938 C 0.0914 0.81158 0.64381 0.0
C939 C 0.11364 0.7924 0.62609 0.0
C940 C 0.11816 0.76007 0.62924 0.0
C941 C 0.09982 0.74736 0.64938 0.0
C942 C 0.08652 0.84613 0.64148 0.0
C943 C 0.14156 0.7388 0.61055 0.0
H944 H 0.12849 0.81677 0.52863 0.0
H945 H 0.20446 0.81791 0.58865 0.0
H946 H 0.06888 0.81628 0.58319 0.0
H947 H 0.07855 0.8116 0.54464 0.0
H948 H 0.08576 0.77914 0.56918 0.0
H949 H 0.19659 0.81814 0.64044 0.0
H950 H 0.15806 0.81893 0.65543 0.0
H951 H 0.18181 0.78312 0.64483 0.0
H952 H 0.05536 0.81284 0.67649 0.0
H953 H 0.10285 0.7226 0.65134 0.0
H954 H 0.07622 0.85357 0.61975 0.0
H955 H 0.10921 0.85393 0.64295 0.0
H956 H 0.07074 0.85774 0.65895 0.0
H957 H 0.13519 0.74204 0.58696 0.0
H958 H 0.14273 0.71424 0.61628 0.0
H959 H 0.16517 0.74434 0.61322 0.0
C960 C 0.25092 0.98817 0.35295 0.0
C961 C 0.26815 0.97648 0.32807 0.0
C962 C 0.24822 0.96936 0.37728 0.0
C963 C 0.26383 0.93833 0.377 0.0
C964 C 0.28159 0.92651 0.35203 0.0
C965 C 0.28322 0.94564 0.32767 0.0
C966 C 0.2286 0.98268 0.40324 0.0
C967 C 0.29943 0.89388 0.35131 0.0
C968 C 0.27999 0.89956 0.45138 0.0
C969 C 0.25708 0.88121 0.45262 0.0
C970 C 0.28284 0.91782 0.42666 0.0
C971 C 0.2617 0.91836 0.40296 0.0
C972 C 0.23828 0.90014 0.40425 0.0
C973 C 0.23651 0.88144 0.42892 0.0
C974 C 0.3086 0.93635 0.42587 0.0
C975 C 0.21501 0.90051 0.37962 0.0
H976 H 0.23919 0.01201 0.35326 0.0
H977 H 0.29692 0.93667 0.30859 0.0
H978 H 0.21061 0.96866 0.40805 0.0
H979 H 0.24347 0.98205 0.4231 0.0
H980 H 0.21676 0.00681 0.39938 0.0
H981 H 0.31213 0.88817 0.33022 0.0
H982 H 0.31658 0.8903 0.36959 0.0
H983 H 0.28328 0.8776 0.35469 0.0
H984 H 0.2963 0.89907 0.46945 0.0
H985 H 0.21885 0.8672 0.4298 0.0
H986 H 0.29832 0.9612 0.42585 0.0
H987 H 0.32248 0.93146 0.40535 0.0
H988 H 0.32461 0.93147 0.445 0.0
H989 H 0.20227 0.92433 0.37587 0.0
H990 H 0.19773 0.88563 0.38435 0.0
H991 H 0.22737 0.89259 0.35887 0.0
C992 C 0.95413 0.68172 0.63322 0.0
C993 C 0.98031 0.68491 0.6499 0.0
C994 C 0.95585 0.65821 0.61228 0.0
C995 C 0.98469 0.63812 0.60738 0.0
C996 C 0.01106 0.64089 0.62461 0.0
C997 C 0.00842 0.66404 0.64599 0.0
C998 C 0.92706 0.65537 0.59486 0.0
C999 C 0.04243 0.62036 0.61954 0.0
C1000 C 0.99083 0.56335 0.56519 0.0
C1001 C -0.00046 0.57203 0.53718 0.0
C1002 C 0.9847 0.5849 0.58808 0.0
C1003 C 0.98799 0.61562 0.58286 0.0
C1004 C -0.00398 0.62464 0.55442 0.0
C1005 C 0.00143 0.60278 0.53185 0.0
C1006 C 0.97564 0.57461 0.618 0.0
C1007 C 0.00021 0.6571 0.54812 0.0
H1008 H 0.93232 0.69773 0.63643 0.0
H1009 H 0.02876 0.66665 0.65874 0.0
H1010 H 0.93036 0.66121 0.57148 0.0
H1011 H 0.92318 0.63134 0.59548 0.0
H1012 H 0.90582 0.67077 0.60334 0.0
H1013 H 0.06021 0.62453 0.63577 0.0
H1014 H 0.04026 0.59587 0.6208 0.0
H1015 H 0.05097 0.62438 0.59712 0.0
H1016 H 0.98935 0.53957 0.56938 0.0
H1017 H 0.00851 0.60955 0.51033 0.0
H1018 H 0.95458 0.59037 0.62629 0.0
H1019 H -0.00523 0.57539 0.63388 0.0
H1020 H 0.97086 0.55086 0.6176 0.0
H1021 H 0.97874 0.67365 0.55405 0.0
H1022 H 0.00568 0.66056 0.52462 0.0
H1023 H 0.01945 0.66265 0.56184 0.0
C1024 C 0.30995 0.74716 0.43631 0.0
C1025 C 0.27769 0.75478 0.43155 0.0
C1026 C 0.33097 0.74579 0.41285 0.0
C1027 C 0.31933 0.7513 0.38389 0.0
C1028 C 0.28682 0.7562 0.37866 0.0
C1029 C 0.2663 0.75813 0.40264 0.0
C1030 C 0.36552 0.74094 0.41938 0.0
C1031 C 0.27366 0.7613 0.34797 0.0
C1032 C 0.37096 0.78935 0.33516 0.0
C1033 C 0.38931 0.76388 0.32157 0.0
C1034 C 0.34728 0.78562 0.35485 0.0
C1035 C 0.34106 0.75583 0.35997 0.0
C1036 C 0.3579 0.73034 0.34444 0.0
C1037 C 0.38239 0.73459 0.3258 0.0
C1038 C 0.33033 0.81329 0.37155 0.0
C1039 C 0.35112 0.69845 0.34863 0.0
H1040 H 0.31891 0.74391 0.45855 0.0
H1041 H 0.24135 0.76352 0.39875 0.0
H1042 H 0.37856 0.7225 0.40525 0.0
H1043 H 0.37431 0.76232 0.41437 0.0
H1044 H 0.3708 0.73481 0.44278 0.0
H1045 H 0.24877 0.75889 0.34706 0.0
H1046 H 0.27526 0.78479 0.34053 0.0
H1047 H 0.28726 0.74483 0.33225 0.0
H1048 H 0.37652 0.81198 0.33201 0.0
H1049 H 0.39658 0.71495 0.31506 0.0
H1050 H 0.33291 0.8093 0.39561 0.0
H1051 H 0.30503 0.81716 0.36645 0.0
H1052 H 0.33933 0.83443 0.36606 0.0
H1053 H 0.35979 0.68948 0.37047 0.0
H1054 H 0.36254 0.68228 0.33148 0.0
H1055 H 0.32559 0.69893 0.34812 0.0
C1056 C 0.24336 0.08638 0.16552 0.0
C1057 C 0.24877 0.05918 0.14888 0.0
C1058 C 0.24166 0.11505 0.15209 0.0
C1059 C 0.24579 0.11651 0.12132 0.0
C1060 C 0.25243 0.08912 0.10452 0.0
C1061 C 0.25364 0.06072 0.11851 0.0
C1062 C 0.23385 0.1437 0.17073 0.0
C1063 C 0.25734 0.08988 0.07164 0.0
C1064 C 0.20883 0.18601 0.07722 0.0
C1065 C 0.23452 0.20003 0.07166 0.0
C1066 C 0.21183 0.15968 0.09473 0.0
C1067 C 0.24144 0.14666 0.1063 0.0
C1068 C 0.26715 0.1615 0.10197 0.0
C1069 C 0.2633 0.18828 0.08486 0.0
C1070 C 0.1836 0.1451 0.09977 0.0
C1071 C 0.299 0.14826 0.11422 0.0
H1072 H 0.23929 0.08544 0.189 0.0
H1073 H 0.2579 0.03977 0.10561 0.0
H1074 H 0.24787 0.16103 0.16409 0.0
H1075 H 0.20887 0.15416 0.16765 0.0
H1076 H 0.23783 0.13858 0.19449 0.0
H1077 H 0.26456 0.06652 0.06216 0.0
H1078 H 0.23537 0.10115 0.0608 0.0
H1079 H 0.27543 0.10362 0.06632 0.0
H1080 H 0.18645 0.19521 0.06724 0.0
H1081 H 0.28324 0.19902 0.08056 0.0
H1082 H 0.18069 0.1409 0.12359 0.0
H1083 H 0.18694 0.12252 0.08848 0.0
H1084 H 0.16177 0.15962 0.09142 0.0
H1085 H 0.29742 0.14418 0.13821 0.0
H1086 H 0.31609 0.16356 0.1104 0.0
H1087 H 0.30797 0.12572 0.10372 0.0
C1088 C 0.83718 0.72227 0.9681 0.0
C1089 C 0.80614 0.73798 0.96791 0.0
C1090 C 0.85588 0.72114 0.94277 0.0
C1091 C 0.84288 0.73524 0.91648 0.0
C1092 C 0.8112 0.75022 0.91598 0.0
C1093 C 0.79338 0.75185 0.94183 0.0
C1094 C 0.88981 0.70578 0.94441 0.0
C1095 C 0.79618 0.76504 0.88831 0.0
C1096 C 0.89452 0.76277 0.85912 0.0
C1097 C 0.89845 0.73877 0.83859 0.0
C1098 C 0.87726 0.76145 0.88496 0.0
C1099 C 0.86277 0.73588 0.88995 0.0
C1100 C 0.86664 0.71153 0.86924 0.0
C1101 C 0.88493 0.71303 0.84395 0.0
C1102 C 0.87443 0.78752 0.90681 0.0
C1103 C 0.85069 0.68439 0.87338 0.0
H1104 H 0.84712 0.71169 0.9883 0.0
H1105 H 0.76929 0.76384 0.94156 0.0
H1106 H 0.8951 0.68756 0.92744 0.0
H1107 H 0.90482 0.72286 0.93975 0.0
H1108 H 0.89617 0.69539 0.96633 0.0
H1109 H 0.77036 0.77107 0.89033 0.0
H1110 H 0.80515 0.78637 0.88367 0.0
H1111 H 0.80208 0.74952 0.86913 0.0
H1112 H 0.90529 0.78256 0.85512 0.0
H1113 H 0.88783 0.69458 0.82794 0.0
H1114 H 0.88134 0.77845 0.92907 0.0
H1115 H 0.84978 0.79963 0.90818 0.0
H1116 H 0.88915 0.80449 0.90071 0.0
H1117 H 0.85777 0.67285 0.89462 0.0
H1118 H 0.85621 0.66729 0.85536 0.0
H1119 H 0.82501 0.69243 0.87423 0.0
C1120 C 0.28876 0.58984 0.63782 0.0
C1121 C 0.26418 0.58754 0.65707 0.0
C1122 C 0.28531 0.6126 0.61598 0.0
C1123 C 0.2563 0.63293 0.61287 0.0
C1124 C 0.23172 0.63134 0.63288 0.0
C1125 C 0.23611 0.60887 0.655 0.0
C1126 C 0.31227 0.61409 0.59548 0.0
C1127 C 0.20025 0.65226 0.62997 0.0
C1128 C 0.24822 0.70447 0.56525 0.0
C1129 C 0.23724 0.69409 0.53882 0.0
C1130 C 0.25528 0.68464 0.58941 0.0
C1131 C 0.25072 0.65393 0.58716 0.0
C1132 C 0.24002 0.64327 0.5604 0.0
C1133 C 0.23355 0.66344 0.53652 0.0
C1134 C 0.26721 0.69662 0.61742 0.0
C1135 C 0.23439 0.61081 0.55725 0.0
H1136 H 0.31059 0.57355 0.63958 0.0
H1137 H 0.21698 0.6071 0.66979 0.0
H1138 H 0.30664 0.60681 0.57309 0.0
H1139 H 0.31628 0.63803 0.5938 0.0
H1140 H 0.33422 0.59905 0.60287 0.0
H1141 H 0.1844 0.64961 0.64857 0.0
H1142 H 0.20297 0.67661 0.62885 0.0
H1143 H 0.189 0.64702 0.60916 0.0
H1144 H 0.25111 0.72816 0.56711 0.0
H1145 H 0.22469 0.65536 0.51628 0.0
H1146 H 0.28923 0.68147 0.62436 0.0
H1147 H 0.24998 0.69644 0.63538 0.0
H1148 H 0.27153 0.7204 0.61491 0.0
H1149 H 0.25519 0.59402 0.5644 0.0
H1150 H 0.22883 0.60533 0.53424 0.0
H1151 H 0.21464 0.60766 0.57164 0.0
C1152 C 0.37663 0.99708 0.31245 0.0
C1153 C 0.35826 0.02097 0.29662 0.0
C1154 C 0.38489 0.0014 0.34167 0.0
C1155 C 0.37472 0.03034 0.35513 0.0
C1156 C 0.35823 0.05516 0.33862 0.0
C1157 C 0.35038 0.05024 0.3094 0.0
C1158 C 0.40248 0.97433 0.35865 0.0
C1159 C 0.34685 0.08625 0.35242 0.0
C1160 C 0.36616 0.02523 0.43765 0.0
C1161 C 0.39395 0.03353 0.44724 0.0
C1162 C 0.35869 0.02575 0.40765 0.0
C1163 C 0.37997 0.03403 0.38693 0.0
C1164 C 0.40733 0.04372 0.39657 0.0
C1165 C 0.41369 0.04392 0.42668 0.0
C1166 C 0.32888 0.0159 0.39808 0.0
C1167 C 0.43101 0.05171 0.37504 0.0
H1168 H 0.38287 0.97442 0.30272 0.0
H1169 H 0.33629 0.06886 0.29722 0.0
H1170 H 0.42059 0.98133 0.37285 0.0
H1171 H 0.38601 0.96508 0.37322 0.0
H1172 H 0.4137 0.95556 0.34379 0.0
H1173 H 0.33669 0.10379 0.33592 0.0
H1174 H 0.32871 0.08436 0.36913 0.0
H1175 H 0.36621 0.09435 0.36393 0.0
H1176 H 0.35076 0.01735 0.45347 0.0
H1177 H 0.43516 0.05053 0.43389 0.0
H1178 H 0.33448 0.9927 0.38804 0.0
H1179 H 0.31664 0.03181 0.38117 0.0
H1180 H 0.3127 0.01504 0.41684 0.0
H1181 H 0.44207 0.03067 0.36299 0.0
H1182 H 0.44966 0.06144 0.38614 0.0
H1183 H 0.41951 0.06846 0.35848 0.0
C1184 C 0.79301 0.88634 0.97598 0.0
C1185 C 0.7721 0.87706 0.99592 0.0
C1186 C 0.81051 0.90851 0.9839 0.0
C1187 C 0.80664 0.9219 0.0123 0.0
C1188 C 0.78335 0.91484 0.03136 0.0
C1189 C 0.76651 0.8922 0.02307 0.0
C1190 C 0.83477 0.91591 0.96268 0.0
C1191 C 0.77765 0.92966 0.06127 0.0
C1192 C 0.88362 0.93536 0.04131 0.0
C1193 C 0.88305 0.96577 0.03269 0.0
C1194 C 0.85778 0.92147 0.0368 0.0
C1195 C 0.83062 0.93861 0.0236 0.0
C1196 C 0.8287 0.97031 0.01785 0.0
C1197 C 0.85512 0.98361 0.02245 0.0
C1198 C 0.86079 0.88763 0.04349 0.0
C1199 C 0.79989 0.98959 0.00451 0.0
H1200 H 0.79703 0.87505 0.95478 0.0
H1201 H 0.74976 0.88564 0.0383 0.0
H1202 H 0.83153 0.94109 0.9594 0.0
H1203 H 0.85846 0.90809 0.97196 0.0
H1204 H 0.83362 0.90482 0.94089 0.0
H1205 H 0.75499 0.92647 0.07078 0.0
H1206 H 0.79655 0.91926 0.07651 0.0
H1207 H 0.77794 0.95461 0.05994 0.0
H1208 H 0.90514 0.92169 0.04959 0.0
H1209 H 0.8546 0.00717 0.01573 0.0
H1210 H 0.8611 0.87463 0.02258 0.0
H1211 H 0.8405 0.88341 0.05653 0.0
H1212 H 0.88246 0.87835 0.05587 0.0
H1213 H 0.8011 0.98728 0.9802 0.0
H1214 H 0.79826 0.01428 0.00996 0.0
H1215 H 0.77832 0.98208 0.01212 0.0
C1216 C 0.68297 0.1689 0.43219 0.0
C1217 C 0.70903 0.15108 0.44592 0.0
C1218 C 0.65436 0.15882 0.43097 0.0
C1219 C 0.6518 0.13045 0.44409 0.0
C1220 C 0.67877 0.1111 0.45542 0.0
C1221 C 0.70717 0.12158 0.45598 0.0
C1222 C 0.62633 0.17979 0.41807 0.0
C1223 C 0.67704 0.08067 0.46964 0.0
C1224 C 0.57823 0.12339 0.48548 0.0
C1225 C 0.56529 0.10347 0.46735 0.0
C1226 C 0.60569 0.13336 0.47745 0.0
C1227 C 0.62056 0.12325 0.45054 0.0
C1228 C 0.60668 0.10459 0.43131 0.0
C1229 C 0.57916 0.09483 0.43999 0.0
C1230 C 0.61957 0.15355 0.49851 0.0
C1231 C 0.62161 0.09382 0.40224 0.0
H1232 H 0.68436 0.1916 0.42402 0.0
H1233 H 0.72721 0.10759 0.46653 0.0
H1234 H 0.61167 0.16654 0.40532 0.0
H1235 H 0.61174 0.19168 0.43616 0.0
H1236 H 0.63329 0.19751 0.40351 0.0
H1237 H 0.70057 0.06667 0.47378 0.0
H1238 H 0.66461 0.08481 0.49102 0.0
H1239 H 0.66366 0.06723 0.45566 0.0
H1240 H 0.56746 0.13047 0.5065 0.0
H1241 H 0.5692 0.07954 0.4258 0.0
H1242 H 0.62383 0.1745 0.48709 0.0
H1243 H 0.64245 0.14102 0.50662 0.0
H1244 H 0.60424 0.16068 0.5178 0.0
H1245 H 0.62872 0.11319 0.39021 0.0
H1246 H 0.60569 0.08337 0.38804 0.0
H1247 H 0.64302 0.07641 0.40624 0.0
C1248 C 0.79404 0.39955 0.26494 0.0
C1249 C 0.78834 0.42677 0.24859 0.0
C1250 C 0.81993 0.37651 0.25855 0.0
C1251 C 0.83994 0.38077 0.2349 0.0
C1252 C 0.83272 0.40722 0.21696 0.0
C1253 C 0.80718 0.43014 0.22429 0.0
C1254 C 0.82717 0.34877 0.27843 0.0
C1255 C 0.85309 0.41227 0.1912 0.0
C1256 C 0.92545 0.34458 0.24194 0.0
C1257 C 0.92714 0.31785 0.22511 0.0
C1258 C 0.89713 0.36526 0.24526 0.0
C1259 C 0.87009 0.35931 0.23086 0.0
C1260 C 0.87192 0.33296 0.21293 0.0
C1261 C 0.90042 0.31233 0.2105 0.0
C1262 C 0.89594 0.39297 0.26492 0.0
C1263 C 0.84369 0.32628 0.1968 0.0
H1264 H 0.77964 0.39724 0.28399 0.0
H1265 H 0.80262 0.4513 0.21169 0.0
H1266 H 0.83199 0.32734 0.26526 0.0
H1267 H 0.8485 0.34983 0.29139 0.0
H1268 H 0.80778 0.34746 0.29399 0.0
H1269 H 0.84191 0.43178 0.17717 0.0
H1270 H 0.87558 0.41721 0.19942 0.0
H1271 H 0.85849 0.39128 0.17741 0.0
H1272 H 0.94597 0.34869 0.25357 0.0
H1273 H 0.90172 0.29165 0.19746 0.0
H1274 H 0.87898 0.39237 0.28305 0.0
H1275 H 0.88776 0.41435 0.25224 0.0
H1276 H 0.91904 0.39413 0.2747 0.0
H1277 H 0.82571 0.32228 0.21288 0.0
H1278 H 0.8495 0.3058 0.18233 0.0
H1279 H 0.83316 0.34633 0.18318 0.0
C1280 C 0.08419 0.58323 0.47222 0.0
C1281 C 0.10074 0.56182 0.49193 0.0
C1282 C 0.09023 0.61315 0.47037 0.0
C1283 C 0.11403 0.62149 0.48799 0.0
C1284 C 0.13172 0.59955 0.50699 0.0
C1285 C 0.12452 0.57007 0.50907 0.0
C1286 C 0.07018 0.63621 0.45063 0.0
C1287 C 0.15775 0.60741 0.52566 0.0
C1288 C 0.14898 0.69076 0.4675 0.0
C1289 C 0.13642 0.71189 0.48935 0.0
C1290 C 0.14139 0.66142 0.46641 0.0
C1291 C 0.12005 0.65337 0.48712 0.0
C1292 C 0.10579 0.67527 0.50806 0.0
C1293 C 0.1145 0.70417 0.50919 0.0
C1294 C 0.15763 0.63846 0.44422 0.0
C1295 C 0.08237 0.66778 0.5301 0.0
H1296 H 0.06541 0.5771 0.45928 0.0
H1297 H 0.13722 0.55358 0.52442 0.0
H1298 H 0.05684 0.65503 0.46421 0.0
H1299 H 0.085 0.64673 0.43532 0.0
H1300 H 0.0534 0.62574 0.43753 0.0
H1301 H 0.17139 0.58688 0.53677 0.0
H1302 H 0.17385 0.61815 0.51195 0.0
H1303 H 0.14789 0.62434 0.54276 0.0
H1304 H 0.16621 0.69644 0.45229 0.0
H1305 H 0.10476 0.72043 0.52613 0.0
H1306 H 0.14029 0.62846 0.43149 0.0
H1307 H 0.17279 0.61928 0.45592 0.0
H1308 H 0.17228 0.64887 0.42859 0.0
H1309 H 0.06533 0.65573 0.51925 0.0
H1310 H 0.06944 0.6887 0.54118 0.0
H1311 H 0.09465 0.65217 0.54719 0.0
C1312 C 0.66381 0.06846 0.79816 0.0
C1313 C 0.68776 0.06967 0.7779 0.0
C1314 C 0.63816 0.09268 0.80036 0.0
C1315 C 0.63604 0.11804 0.78106 0.0
C1316 C 0.66055 0.11959 0.76093 0.0
C1317 C 0.68645 0.0955 0.75992 0.0
C1318 C 0.6129 0.09067 0.82265 0.0
C1319 C 0.65871 0.14591 0.73946 0.0
C1320 C 0.55585 0.16279 0.76141 0.0
C1321 C 0.55558 0.19024 0.77666 0.0
C1322 C 0.58185 0.13883 0.76293 0.0
C1323 C 0.60754 0.14226 0.78087 0.0
C1324 C 0.60655 0.1694 0.79751 0.0
C1325 C 0.58073 0.19334 0.79478 0.0
C1326 C 0.58245 0.11051 0.74428 0.0
C1327 C 0.63311 0.17349 0.81749 0.0
H1328 H 0.66495 0.0483 0.81194 0.0
H1329 H 0.70479 0.09603 0.74388 0.0
H1330 H 0.60754 0.11217 0.83571 0.0
H1331 H 0.59116 0.08799 0.81114 0.0
H1332 H 0.61963 0.07099 0.83795 0.0
H1333 H 0.67995 0.14381 0.7255 0.0
H1334 H 0.63815 0.14676 0.7249 0.0
H1335 H 0.65549 0.16806 0.75147 0.0
H1336 H 0.53652 0.16075 0.74702 0.0
H1337 H 0.58035 0.21473 0.80651 0.0
H1338 H 0.58655 0.08965 0.75828 0.0
H1339 H 0.60203 0.10817 0.72829 0.0
H1340 H 0.56037 0.11126 0.7319 0.0
H1341 H 0.63925 0.15341 0.83237 0.0
H1342 H 0.62732 0.19465 0.83105 0.0
H1343 H 0.65412 0.17483 0.80413 0.0
C1344 C 0.7629 0.55797 0.21249 0.0
C1345 C 0.74004 0.54286 0.20099 0.0
C1346 C 0.77495 0.57961 0.19563 0.0
C1347 C 0.76324 0.58681 0.16694 0.0
C1348 C 0.74005 0.57166 0.1553 0.0
C1349 C 0.72901 0.54958 0.17236 0.0
C1350 C 0.79998 0.59494 0.20858 0.0
C1351 C 0.72641 0.57922 0.12505 0.0
C1352 C 0.76543 0.66363 0.13132 0.0
C1353 C 0.78766 0.65515 0.10901 0.0
C1354 C 0.75841 0.64184 0.1514 0.0
C1355 C 0.7742 0.61097 0.14927 0.0
C1356 C 0.79832 0.6028 0.12826 0.0
C1357 C 0.80457 0.62496 0.10817 0.0
C1358 C 0.73238 0.65136 0.17337 0.0
C1359 C 0.81628 0.57029 0.12589 0.0
H1360 H 0.7716 0.55262 0.23459 0.0
H1361 H 0.71114 0.53809 0.16354 0.0
H1362 H 0.82045 0.59205 0.1936 0.0
H1363 H 0.79108 0.61997 0.21087 0.0
H1364 H 0.80784 0.58549 0.23052 0.0
H1365 H 0.70851 0.56537 0.1193 0.0
H1366 H 0.71548 0.60391 0.12394 0.0
H1367 H 0.74517 0.57508 0.10822 0.0
H1368 H 0.75198 0.68681 0.13193 0.0
H1369 H 0.82188 0.61834 0.09106 0.0
H1370 H 0.73897 0.64152 0.1954 0.0
H1371 H 0.71148 0.64245 0.16611 0.0
H1372 H 0.72601 0.67667 0.17551 0.0
H1373 H 0.8241 0.56124 0.14795 0.0
H1374 H 0.83702 0.56864 0.11132 0.0
H1375 H 0.80087 0.5553 0.11683 0.0
C1376 C 0.93922 0.49676 0.43838 0.0
C1377 C 0.97146 0.4949 0.43515 0.0
C1378 C 0.92001 0.49652 0.41378 0.0
C1379 C 0.93325 0.49544 0.38525 0.0
C1380 C 0.96555 0.49501 0.38174 0.0
C1381 C 0.98438 0.49442 0.4068 0.0
C1382 C 0.88566 0.49654 0.41841 0.0
C1383 C 0.98026 0.49451 0.3516 0.0
C1384 C 0.88418 0.46376 0.32906 0.0
C1385 C 0.86446 0.49073 0.31969 0.0
C1386 C 0.9083 0.46497 0.34909 0.0
C1387 C 0.91306 0.49389 0.35935 0.0
C1388 C 0.89521 0.52122 0.34766 0.0
C1389 C 0.8708 0.51931 0.32817 0.0
C1390 C 0.92664 0.43528 0.36127 0.0
C1391 C 0.90033 0.55245 0.35743 0.0
H1392 H 0.92902 0.49753 0.46018 0.0
H1393 H 0.00929 0.49325 0.40415 0.0
H1394 H 0.87143 0.51677 0.40744 0.0
H1395 H 0.87943 0.47571 0.4083 0.0
H1396 H 0.87919 0.49704 0.44209 0.0
H1397 H 0.00506 0.49722 0.35265 0.0
H1398 H 0.97923 0.47243 0.34052 0.0
H1399 H 0.96713 0.51313 0.3377 0.0
H1400 H 0.87937 0.44159 0.32253 0.0
H1401 H 0.85579 0.54019 0.32061 0.0
H1402 H 0.91902 0.43218 0.38422 0.0
H1403 H 0.95194 0.43583 0.36192 0.0
H1404 H 0.92315 0.41503 0.34816 0.0
H1405 H 0.89096 0.55717 0.38002 0.0
H1406 H 0.88846 0.57101 0.34269 0.0
H1407 H 0.92561 0.55318 0.35808 0.0
C1408 C 0.16902 0.47912 0.67692 0.0
C1409 C 0.16552 0.51116 0.67928 0.0
C1410 C 0.15133 0.46573 0.6567 0.0
C1411 C 0.12995 0.48487 0.63821 0.0
C1412 C 0.12532 0.5172 0.64138 0.0
C1413 C 0.14305 0.52996 0.66204 0.0
C1414 C 0.15645 0.43117 0.65428 0.0
C1415 C 0.10268 0.53838 0.62201 0.0
C1416 C 0.11109 0.45936 0.56205 0.0
C1417 C 0.08001 0.45578 0.56557 0.0
C1418 C 0.12818 0.46743 0.58592 0.0
C1419 C 0.11404 0.4714 0.61406 0.0
C1420 C 0.08371 0.46514 0.61828 0.0
C1421 C 0.06699 0.45747 0.59394 0.0
C1422 C 0.16052 0.47393 0.58052 0.0
C1423 C 0.06809 0.46859 0.64809 0.0
H1424 H 0.18616 0.46445 0.69041 0.0
H1425 H 0.14016 0.55472 0.6638 0.0
H1426 H 0.13377 0.42326 0.65454 0.0
H1427 H 0.16801 0.4238 0.63302 0.0
H1428 H 0.17125 0.41959 0.67239 0.0
H1429 H 0.10095 0.56293 0.62807 0.0
H1430 H 0.11025 0.53541 0.59869 0.0
H1431 H 0.07909 0.53252 0.62351 0.0
H1432 H 0.12148 0.4578 0.54028 0.0
H1433 H 0.04309 0.45442 0.59696 0.0
H1434 H 0.17725 0.46165 0.59682 0.0
H1435 H 0.16015 0.49888 0.58325 0.0
H1436 H 0.16922 0.46708 0.55805 0.0
H1437 H 0.08437 0.45772 0.66544 0.0
H1438 H 0.04677 0.45825 0.64865 0.0
H1439 H 0.06131 0.49334 0.65356 0.0
C1440 C 0.62512 0.78029 0.20593 0.0
C1441 C 0.61763 0.75223 0.21466 0.0
C1442 C 0.64268 0.78235 0.18041 0.0
C1443 C 0.65278 0.75574 0.16314 0.0
C1444 C 0.64617 0.72714 0.17234 0.0
C1445 C 0.62874 0.7257 0.1981 0.0
C1446 C 0.64953 0.81321 0.17138 0.0
C1447 C 0.65609 0.6983 0.15435 0.0
C1448 C 0.6683 0.7712 0.08302 0.0
C1449 C 0.70066 0.76983 0.08319 0.0
C1450 C 0.65253 0.76532 0.1087 0.0
C1451 C 0.66957 0.75823 0.1351 0.0
C1452 C 0.70243 0.75545 0.13503 0.0
C1453 C 0.71759 0.76123 0.10902 0.0
C1454 C 0.61752 0.76791 0.10784 0.0
C1455 C 0.72149 0.74818 0.16272 0.0
H1456 H 0.61663 0.80083 0.21869 0.0
H1457 H 0.62278 0.70397 0.20453 0.0
H1458 H 0.67505 0.81175 0.16869 0.0
H1459 H 0.63851 0.82003 0.14978 0.0
H1460 H 0.64076 0.83149 0.18768 0.0
H1461 H 0.65632 0.6773 0.16776 0.0
H1462 H 0.63934 0.69812 0.13602 0.0
H1463 H 0.67956 0.69732 0.14452 0.0
H1464 H 0.65519 0.77749 0.06298 0.0
H1465 H 0.74262 0.76029 0.10929 0.0
H1466 H 0.6063 0.78712 0.12217 0.0
H1467 H 0.61094 0.7466 0.11651 0.0
H1468 H 0.60798 0.77201 0.08523 0.0
H1469 H 0.74647 0.73913 0.15769 0.0
H1470 H 0.71238 0.73126 0.17659 0.0
H1471 H 0.72013 0.76949 0.17583 0.0
C1472 C 0.62676 0.48029 0.20854 0.0
C1473 C 0.63417 0.50842 0.2172 0.0
C1474 C 0.61277 0.47719 0.1812 0.0
C1475 C 0.60651 0.50272 0.16196 0.0
C1476 C 0.61265 0.53152 0.17114 0.0
C1477 C 0.6262 0.53407 0.19876 0.0
C1478 C 0.60603 0.44624 0.17238 0.0
C1479 C 0.60685 0.55921 0.15111 0.0
C1480 C 0.60495 0.48669 0.07993 0.0
C1481 C 0.5729 0.49331 0.07423 0.0
C1482 C 0.61627 0.48999 0.10844 0.0
C1483 C 0.59486 0.49904 0.13174 0.0
C1484 C 0.56239 0.50498 0.12607 0.0
C1485 C 0.55183 0.50245 0.09724 0.0
C1486 C 0.65109 0.484 0.11361 0.0
C1487 C 0.53885 0.51337 0.15051 0.0
H1488 H 0.63283 0.46042 0.22275 0.0
H1489 H 0.63214 0.55584 0.20514 0.0
H1490 H 0.58175 0.4486 0.16417 0.0
H1491 H 0.62184 0.43662 0.15416 0.0
H1492 H 0.60932 0.42962 0.19093 0.0
H1493 H 0.60673 0.5809 0.16341 0.0
H1494 H 0.62567 0.55679 0.13433 0.0
H1495 H 0.58436 0.56103 0.13926 0.0
H1496 H 0.62112 0.4795 0.06201 0.0
H1497 H 0.52697 0.50669 0.0928 0.0
H1498 H 0.65751 0.46536 0.13003 0.0
H1499 H 0.65815 0.50487 0.12278 0.0
H1500 H 0.66457 0.47737 0.0931 0.0
H1501 H 0.53993 0.49354 0.16562 0.0
H1502 H 0.5146 0.51985 0.14207 0.0
H1503 H 0.54444 0.53267 0.16367 0.0
C1504 C 0.44565 0.42119 0.03536 0.0
C1505 C 0.47525 0.41152 0.02291 0.0
C1506 C 0.42185 0.40444 0.03086 0.0
C1507 C 0.42812 0.37707 0.01407 0.0
C1508 C 0.45867 0.36585 0.00354 0.0
C1509 C 0.48187 0.38343 0.00783 0.0
C1510 C 0.38943 0.41734 0.04214 0.0
C1511 C 0.46643 0.33637 0.98615 0.0
C1512 C 0.36329 0.33097 0.01603 0.0
C1513 C 0.34696 0.34119 0.99028 0.0
C1514 C 0.39094 0.34107 0.02331 0.0
C1515 C 0.40183 0.36244 0.00476 0.0
C1516 C 0.38595 0.372 0.97821 0.0
C1517 C 0.35887 0.36093 0.97113 0.0
C1518 C 0.40798 0.32959 0.05122 0.0
C1519 C 0.39665 0.39507 0.95798 0.0
H1520 H 0.44042 0.44288 0.04702 0.0
H1521 H 0.50487 0.37572 -0.0016 0.0
H1522 H 0.3736 0.42438 0.02323 0.0
H1523 H 0.37995 0.39961 0.05457 0.0
H1524 H 0.38899 0.4376 0.05663 0.0
H1525 H 0.49203 0.32774 0.98494 0.0
H1526 H 0.45516 0.31829 0.99601 0.0
H1527 H 0.45748 0.34043 0.96338 0.0
H1528 H 0.35433 0.31527 0.03059 0.0
H1529 H 0.34626 0.36882 0.95118 0.0
H1530 H 0.40578 0.34855 0.06746 0.0
H1531 H 0.43324 0.32181 0.04669 0.0
H1532 H 0.39863 0.31032 0.06129 0.0
H1533 H 0.39542 0.41723 0.96971 0.0
H1534 H 0.38223 0.3993 0.93773 0.0
H1535 H 0.42133 0.38696 0.95143 0.0
C1536 C 0.08568 0.19117 0.2849 0.0
C1537 C 0.06542 0.19072 0.26114 0.0
C1538 C 0.1114 0.16726 0.28882 0.0
C1539 C 0.11731 0.14327 0.26783 0.0
C1540 C 0.09682 0.14291 0.24375 0.0
C1541 C 0.07078 0.16645 0.24099 0.0
C1542 C 0.13249 0.16789 0.31504 0.0
C1543 C 0.1029 0.11822 0.22036 0.0
C1544 C 0.19844 0.09999 0.2521 0.0
C1545 C 0.19644 0.07055 0.26224 0.0
C1546 C 0.17334 0.12448 0.25529 0.0
C1547 C 0.14591 0.11946 0.26958 0.0
C1548 C 0.14469 0.09041 0.28198 0.0
C1549 C 0.16992 0.06606 0.27779 0.0
C1550 C 0.17533 0.1549 0.24109 0.0
C1551 C 0.11612 0.0846 0.29818 0.0
H1552 H 0.08119 0.21 0.3005 0.0
H1553 H 0.05514 0.16645 0.22244 0.0
H1554 H 0.13576 0.14562 0.32689 0.0
H1555 H 0.15586 0.17117 0.30753 0.0
H1556 H 0.12306 0.18662 0.33067 0.0
H1557 H 0.08466 0.12148 0.20299 0.0
H1558 H 0.12587 0.1182 0.20979 0.0
H1559 H 0.10388 0.09528 0.23046 0.0
H1560 H 0.21894 0.10361 0.24009 0.0
H1561 H 0.16855 0.04338 0.28601 0.0
H1562 H 0.16512 0.17442 0.25547 0.0
H1563 H 0.16182 0.15721 0.22026 0.0
H1564 H 0.1998 0.15677 0.23589 0.0
H1565 H 0.1075 0.10366 0.31369 0.0
H1566 H 0.12085 0.06266 0.31065 0.0
H1567 H 0.09716 0.08353 0.28218 0.0
C1568 C 0.24238 0.35927 0.89821 0.0
C1569 C 0.21789 0.36587 0.91865 0.0
C1570 C 0.24588 0.38024 0.87598 0.0
C1571 C 0.22431 0.40831 0.87422 0.0
C1572 C 0.19732 0.41314 0.89223 0.0
C1573 C 0.19443 0.39181 0.91439 0.0
C1574 C 0.27474 0.37376 0.85691 0.0
C1575 C 0.17321 0.44233 0.89026 0.0
C1576 C 0.2597 0.47844 0.85976 0.0
C1577 C 0.25362 0.48357 0.8298 0.0
C1578 C 0.25021 0.45397 0.87433 0.0
C1579 C 0.2334 0.4347 0.85868 0.0
C1580 C 0.22648 0.44023 0.82851 0.0
C1581 C 0.23716 0.46443 0.81424 0.0
C1582 C 0.25882 0.44836 0.90635 0.0
C1583 C 0.20823 0.42043 0.81134 0.0
H1584 H 0.26019 0.3388 0.90087 0.0
H1585 H 0.17506 0.39675 0.92971 0.0
H1586 H 0.2707 0.38449 0.83489 0.0
H1587 H 0.29361 0.38333 0.86775 0.0
H1588 H 0.28295 0.34866 0.85397 0.0
H1589 H 0.15086 0.43974 0.90083 0.0
H1590 H 0.1821 0.46111 0.90163 0.0
H1591 H 0.16864 0.44934 0.867 0.0
H1592 H 0.27276 0.49306 0.87167 0.0
H1593 H 0.2324 0.46857 0.79102 0.0
H1594 H 0.27305 0.42499 0.90909 0.0
H1595 H 0.23741 0.44956 0.91985 0.0
H1596 H 0.2723 0.4653 0.91512 0.0
H1597 H 0.22179 0.39666 0.80984 0.0
H1598 H 0.20277 0.42923 0.78868 0.0
H1599 H 0.18606 0.41918 0.82287 0.0
C1600 C 0.27955 0.25673 0.91925 0.0
C1601 C 0.28749 0.25603 0.94908 0.0
C1602 C 0.30148 0.26061 0.89765 0.0
C1603 C 0.33223 0.26274 0.90619 0.0
C1604 C 0.34025 0.26216 0.93639 0.0
C1605 C 0.31758 0.25916 0.95753 0.0
C1606 C 0.29169 0.26284 0.86575 0.0
C1607 C 0.37271 0.26458 0.94637 0.0
C1608 C 0.39557 0.24004 0.84882 0.0
C1609 C 0.40066 0.26875 0.83919 0.0
C1610 C 0.37357 0.23782 0.87086 0.0
C1611 C 0.35612 0.26494 0.88341 0.0
C1612 C 0.36126 0.29399 0.87389 0.0
C1613 C 0.38354 0.29552 0.85195 0.0
C1614 C 0.36909 0.20643 0.88088 0.0
C1615 C 0.34385 0.32352 0.88717 0.0
H1616 H 0.25602 0.25487 0.91287 0.0
H1617 H 0.32351 0.25875 0.98072 0.0
H1618 H 0.29593 0.28479 0.8563 0.0
H1619 H 0.30594 0.24391 0.85297 0.0
H1620 H 0.26662 0.26172 0.86288 0.0
H1621 H 0.37555 0.26198 0.97058 0.0
H1622 H 0.39024 0.24672 0.93538 0.0
H1623 H 0.37788 0.28725 0.93999 0.0
H1624 H 0.40884 0.21925 0.83919 0.0
H1625 H 0.38756 0.31782 0.84487 0.0
H1626 H 0.34474 0.20365 0.87655 0.0
H1627 H 0.37297 0.20407 0.90497 0.0
H1628 H 0.38523 0.1876 0.86958 0.0
H1629 H 0.31925 0.32214 0.89217 0.0
H1630 H 0.34419 0.34342 0.8724 0.0
H1631 H 0.35522 0.32796 0.90812 0.0
C1632 C 0.47364 0.5078 0.93597 0.0
C1633 C 0.46091 0.52043 0.96255 0.0
C1634 C 0.45482 0.50777 0.91095 0.0
C1635 C 0.42237 0.51955 0.91299 0.0
C1636 C 0.40927 0.53125 0.94015 0.0
C1637 C 0.42884 0.5321 0.96449 0.0
C1638 C 0.46979 0.49614 0.88213 0.0
C1639 C 0.37462 0.543 0.94344 0.0
C1640 C 0.37562 0.54653 0.84423 0.0
C1641 C 0.36282 0.5207 0.83732 0.0
C1642 C 0.39558 0.54626 0.86851 0.0
C1643 C 0.40212 0.51984 0.88667 0.0
C1644 C 0.38902 0.49379 0.8799 0.0
C1645 C 0.36983 0.49442 0.85509 0.0
C1646 C 0.40975 0.57419 0.87467 0.0
C1647 C 0.39493 0.46541 0.89906 0.0
H1648 H 0.49855 0.49906 0.93444 0.0
H1649 H 0.41903 0.54169 0.98516 0.0
H1650 H 0.45823 0.47795 0.87299 0.0
H1651 H 0.46666 0.51514 0.86586 0.0
H1652 H 0.49516 0.48685 0.88446 0.0
H1653 H 0.36796 0.54979 0.96645 0.0
H1654 H 0.36723 0.56318 0.92895 0.0
H1655 H 0.3615 0.52505 0.93646 0.0
H1656 H 0.37036 0.56679 0.83043 0.0
H1657 H 0.35973 0.47448 0.84998 0.0
H1658 H 0.43556 0.56756 0.8757 0.0
H1659 H 0.40168 0.58404 0.89639 0.0
H1660 H 0.40351 0.59228 0.85765 0.0
H1661 H 0.42027 0.45557 0.89959 0.0
H1662 H 0.38227 0.44743 0.89117 0.0
H1663 H 0.38756 0.47154 0.92201 0.0
C1664 C 0.67043 0.68319 0.03801 0.0
C1665 C 0.67662 0.70385 0.01642 0.0
C1666 C 0.64315 0.67094 0.03713 0.0
C1667 C 0.6215 0.67957 0.01408 0.0
C1668 C 0.62718 0.70093 0.99255 0.0
C1669 C 0.65479 0.71284 0.99395 0.0
C1670 C 0.63784 0.64825 0.06059 0.0
C1671 C 0.60437 0.7108 0.96786 0.0
C1672 C 0.57317 0.61906 -0.00058 0.0
C1673 C 0.54653 0.62978 0.01641 0.0
C1674 C 0.59696 0.63614 0.99686 0.0
C1675 C 0.594 0.66454 0.01179 0.0
C1676 C 0.56626 0.67646 0.02741 0.0
C1677 C 0.54271 0.6589 0.02948 0.0
C1678 C 0.62616 0.62274 0.97989 0.0
C1679 C 0.56231 0.70669 0.0436 0.0
H1680 H 0.687 0.67639 0.05565 0.0
H1681 H 0.6593 0.72904 0.97737 0.0
H1682 H 0.61505 0.65624 0.07161 0.0
H1683 H 0.63704 0.62569 0.05034 0.0
H1684 H 0.65645 0.64488 0.0776 0.0
H1685 H 0.6113 0.72904 0.95397 0.0
H1686 H 0.60277 0.69078 0.95368 0.0
H1687 H 0.58071 0.71941 0.97692 0.0
H1688 H 0.57602 0.5967 0.98899 0.0
H1689 H 0.52213 0.66728 0.04266 0.0
H1690 H 0.64584 0.61599 0.99547 0.0
H1691 H 0.63266 0.64008 0.96467 0.0
H1692 H 0.62335 0.60218 0.96694 0.0
H1693 H 0.57732 0.70393 0.06349 0.0
H1694 H 0.53776 0.71493 0.05067 0.0
H1695 H 0.56977 0.72453 0.02962 0.0
C1696 C 0.88039 0.79381 0.73175 0.0
C1697 C 0.90611 0.78931 0.71277 0.0
C1698 C 0.85737 0.82038 0.72961 0.0
C1699 C 0.85979 0.84213 0.70728 0.0
C1700 C 0.88382 0.83578 0.686 0.0
C1701 C 0.90716 0.80964 0.68936 0.0
C1702 C 0.83236 0.82658 0.75303 0.0
C1703 C 0.88633 0.85774 0.6611 0.0
C1704 C 0.7908 0.908 0.70246 0.0
C1705 C 0.80164 0.93049 0.71908 0.0
C1706 C 0.81014 0.87958 0.6968 0.0
C1707 C 0.84042 0.87329 0.70914 0.0
C1708 C 0.85179 0.89636 0.72509 0.0
C1709 C 0.83243 0.92498 0.72929 0.0
C1710 C 0.79778 0.85602 0.6786 0.0
C1711 C 0.8838 0.89033 0.73909 0.0
H1712 H 0.87967 0.77799 0.74983 0.0
H1713 H 0.92698 0.80582 0.67447 0.0
H1714 H 0.83663 0.8457 0.76729 0.0
H1715 H 0.80901 0.83378 0.74292 0.0
H1716 H 0.83197 0.80615 0.76711 0.0
H1717 H 0.90202 0.8466 0.64334 0.0
H1718 H 0.863 0.86683 0.65157 0.0
H1719 H 0.89588 0.87755 0.66956 0.0
H1720 H 0.76704 0.91248 0.69425 0.0
H1721 H 0.84085 0.94243 0.74201 0.0
H1722 H 0.79212 0.83775 0.69318 0.0
H1723 H 0.81567 0.84492 0.66262 0.0
H1724 H 0.77632 0.86633 0.66637 0.0
H1725 H 0.88561 0.87096 0.75488 0.0
H1726 H 0.88889 0.9107 0.75104 0.0
H1727 H 0.90202 0.8836 0.72206 0.0
C1728 C 0.49904 0.18749 0.65922 0.0
C1729 C 0.47718 0.2148 0.66255 0.0
C1730 C 0.49487 0.16572 0.6379 0.0
C1731 C 0.46765 0.17098 0.6202 0.0
C1732 C 0.44495 0.19803 0.62427 0.0
C1733 C 0.45029 0.21993 0.64505 0.0
C1734 C 0.52004 0.13757 0.63373 0.0
C1735 C 0.41515 0.20392 0.60656 0.0
C1736 C 0.47173 0.12901 0.54695 0.0
C1737 C 0.46069 0.10236 0.55472 0.0
C1738 C 0.47381 0.15176 0.56798 0.0
C1739 C 0.46335 0.14833 0.59711 0.0
C1740 C 0.45031 0.1224 0.60454 0.0
C1741 C 0.44962 0.09948 0.58338 0.0
C1742 C 0.48863 0.17867 0.55937 0.0
C1743 C 0.43793 0.1184 0.63506 0.0
H1744 H 0.52006 0.1837 0.6725 0.0
H1745 H 0.43335 0.24103 0.64772 0.0
H1746 H 0.51031 0.11647 0.63733 0.0
H1747 H 0.52891 0.13674 0.61078 0.0
H1748 H 0.54001 0.13717 0.64898 0.0
H1749 H 0.39895 0.22503 0.61379 0.0
H1750 H 0.42061 0.20636 0.58293 0.0
H1751 H 0.40304 0.18411 0.60852 0.0
H1752 H 0.48017 0.13145 0.52481 0.0
H1753 H 0.44075 0.07904 0.58942 0.0
H1754 H 0.51004 0.17843 0.57263 0.0
H1755 H 0.4725 0.20059 0.56414 0.0
H1756 H 0.49505 0.17824 0.53568 0.0
H1757 H 0.45753 0.11434 0.65099 0.0
H1758 H 0.42543 0.09877 0.63634 0.0
H1759 H 0.42177 0.1396 0.64205 0.0
C1760 C 0.5176 0.30254 0.86885 0.0
C1761 C 0.52066 0.29972 0.83825 0.0
C1762 C 0.53073 0.32439 0.8842 0.0
C1763 C 0.54804 0.3433 0.86862 0.0
C1764 C 0.55223 0.33972 0.83785 0.0
C1765 C 0.53809 0.31821 0.82292 0.0
C1766 C 0.52508 0.32796 0.91697 0.0
C1767 C 0.57112 0.35899 0.82066 0.0
C1768 C 0.54819 0.41841 0.90764 0.0
C1769 C 0.57484 0.41076 0.92539 0.0
C1770 C 0.54014 0.39721 0.88758 0.0
C1771 C 0.55974 0.36808 0.88457 0.0
C1772 C 0.58835 0.36153 0.90007 0.0
C1773 C 0.5954 0.38284 0.92064 0.0
C1774 C 0.50915 0.40486 0.87186 0.0
C1775 C 0.6103 0.33107 0.8967 0.0
H1776 H 0.50398 0.28838 0.8807 0.0
H1777 H 0.54069 0.31583 0.79925 0.0
H1778 H 0.54763 0.3251 0.92885 0.0
H1779 H 0.51202 0.35142 0.92183 0.0
H1780 H 0.51156 0.31106 0.92581 0.0
H1781 H 0.57482 0.35122 0.79747 0.0
H1782 H 0.55896 0.38332 0.82068 0.0
H1783 H 0.5942 0.35817 0.8312 0.0
H1784 H 0.53209 0.4399 0.91119 0.0
H1785 H 0.61614 0.37694 0.93416 0.0
H1786 H 0.49301 0.39057 0.88092 0.0
H1787 H 0.51204 0.39959 0.84806 0.0
H1788 H 0.49807 0.42937 0.87442 0.0
H1789 H 0.6006 0.31304 0.90852 0.0
H1790 H 0.63377 0.33172 0.90587 0.0
H1791 H 0.61283 0.32427 0.87319 0.0
C1792 C 0.50921 0.83761 0.36758 0.0
C1793 C 0.47971 0.82947 0.36595 0.0
C1794 C 0.51372 0.86335 0.38393 0.0
C1795 C 0.48791 0.8818 0.39818 0.0
C1796 C 0.45796 0.87397 0.39605 0.0
C1797 C 0.45432 0.84768 0.38029 0.0
C1798 C 0.54612 0.87054 0.38632 0.0
C1799 C 0.42966 0.89358 0.41016 0.0
C1800 C 0.49746 0.9324 0.46355 0.0
C1801 C 0.49331 0.96164 0.45059 0.0
C1802 C 0.49689 0.90611 0.44656 0.0
C1803 C 0.492 0.90905 0.41583 0.0
C1804 C 0.48882 0.93834 0.40243 0.0
C1805 C 0.48952 0.96432 0.41998 0.0
C1806 C 0.50062 0.87527 0.46167 0.0
C1807 C 0.48425 0.94231 0.36963 0.0
H1808 H 0.52888 0.82351 0.35654 0.0
H1809 H 0.43137 0.84171 0.37873 0.0
H1810 H 0.54648 0.89358 0.377 0.0
H1811 H 0.55291 0.87113 0.40981 0.0
H1812 H 0.56384 0.85341 0.37464 0.0
H1813 H 0.40796 0.88446 0.40624 0.0
H1814 H 0.43319 0.89503 0.43425 0.0
H1815 H 0.4264 0.91731 0.40131 0.0
H1816 H 0.50051 0.93005 0.48716 0.0
H1817 H 0.4864 0.98679 0.40976 0.0
H1818 H 0.51911 0.85844 0.45065 0.0
H1819 H 0.47855 0.86634 0.46 0.0
H1820 H 0.50664 0.87656 0.48534 0.0
H1821 H 0.50602 0.93174 0.35806 0.0
H1822 H 0.4783 0.96688 0.36312 0.0
H1823 H 0.46556 0.93038 0.36191 0.0
C1824 C 0.49654 0.59553 0.12724 0.0
C1825 C 0.47106 0.60097 0.10785 0.0
C1826 C 0.50122 0.61766 0.14789 0.0
C1827 C 0.47996 0.64596 0.14912 0.0
C1828 C 0.45275 0.65053 0.13148 0.0
C1829 C 0.44858 0.62791 0.11102 0.0
C1830 C 0.5305 0.61169 0.16639 0.0
C1831 C 0.42925 0.6802 0.13266 0.0
C1832 C 0.49098 0.69848 0.21258 0.0
C1833 C 0.50906 0.71776 0.1993 0.0
C1834 C 0.48023 0.67569 0.19626 0.0
C1835 C 0.48827 0.67184 0.16614 0.0
C1836 C 0.50623 0.6915 0.15255 0.0
C1837 C 0.51616 0.71443 0.16927 0.0
C1838 C 0.46116 0.65514 0.21142 0.0
C1839 C 0.51582 0.68769 0.12058 0.0
H1840 H 0.51408 0.57483 0.12504 0.0
H1841 H 0.42871 0.63226 0.09629 0.0
H1842 H 0.54891 0.62171 0.15521 0.0
H1843 H 0.52662 0.62232 0.18848 0.0
H1844 H 0.53932 0.58674 0.16929 0.0
H1845 H 0.40727 0.6784 0.12102 0.0
H1846 H 0.42362 0.68712 0.1558 0.0
H1847 H 0.43935 0.69874 0.12215 0.0
H1848 H 0.48528 0.70114 0.23579 0.0
H1849 H 0.53027 0.72919 0.15897 0.0
H1850 H 0.47474 0.63133 0.21233 0.0
H1851 H 0.43956 0.65444 0.19876 0.0
H1852 H 0.4546 0.66284 0.23422 0.0
H1853 H 0.53086 0.66481 0.11722 0.0
H1854 H 0.52886 0.70556 0.1131 0.0
H1855 H 0.49494 0.68873 0.10643 0.0
loop_
_geom_bond_atom_site_label_1
_geom_bond_atom_site_label_2
_geom_bond_distance
_geom_bond_site_symmetry_2
_ccdc_geom_bond_type
Zn0 O6 1.969 1_554 S
Zn0 O7 1.965 . S
Zn0 O11 2.024 1_455 S
Zn0 O16 1.969 1_454 S
Zn1 O8 1.969 1_656 S
Zn1 O14 1.969 1_556 S
Zn1 O15 1.965 1_565 S
Zn1 O17 2.024 1_655 S
C2 O3 1.229 . S
C2 O11 1.058 . S
O3 C2 1.229 . S
C4 O5 1.229 . S
C4 O17 1.058 . S
O5 C4 1.229 . S
O6 Zn0 1.969 1_556 S
O6 C9 1.267 . S
O7 Zn0 1.965 . S
O7 C18 1.260 1_545 S
O8 Zn1 1.969 1_454 S
O8 C18 1.258 . S
C9 O6 1.267 . S
C9 O10 1.228 1_556 S
O10 C9 1.228 1_554 S
O11 Zn0 2.024 1_655 S
O11 C2 1.058 . S
C12 O13 1.228 1_554 S
C12 O14 1.267 . S
O13 C12 1.228 1_556 S
O14 Zn1 1.969 1_554 S
O14 C12 1.267 . S
O15 Zn1 1.965 1_545 S
O15 C19 1.260 . S
O16 Zn0 1.969 1_656 S
O16 C19 1.258 . S
O17 Zn1 2.024 1_455 S
O17 C4 1.058 . S
C18 O7 1.260 1_565 S
C18 O8 1.258 . S
C19 O15 1.260 . S
C19 O16 1.258 . S
Zn20 O26 1.969 1_455 S
Zn20 O27 1.965 1_455 S
Zn20 O31 2.024 . S
Zn20 O36 1.969 . S
Zn21 O28 1.969 1_455 S
Zn21 O34 1.969 . S
Zn21 O35 1.965 . S
Zn21 O37 2.024 . S
C22 O23 1.229 . S
C22 O31 1.058 . S
O23 C22 1.229 . S
C24 O25 1.229 . S
C24 O37 1.058 . S
O25 C24 1.229 . S
O26 Zn20 1.969 1_655 S
O26 C29 1.267 . S
O27 Zn20 1.965 1_655 S
O27 C38 1.260 . S
O28 Zn21 1.969 1_655 S
O28 C38 1.258 . S
C29 O26 1.267 . S
C29 O30 1.228 . S
O30 C29 1.228 . S
O31 Zn20 2.024 . S
O31 C22 1.058 . S
C32 O33 1.228 . S
C32 O34 1.267 . S
O33 C32 1.228 . S
O34 Zn21 1.969 . S
O34 C32 1.267 . S
O35 Zn21 1.965 . S
O35 C39 1.260 . S
O36 Zn20 1.969 . S
O36 C39 1.258 . S
O37 Zn21 2.024 . S
O37 C24 1.058 . S
C38 O27 1.260 . S
C38 O28 1.258 . S
C39 O35 1.260 . S
C39 O36 1.258 . S
Zn40 O46 1.969 . S
Zn40 O47 1.965 . S
Zn40 O51 2.024 . S
Zn40 O56 1.969 . S
Zn41 O48 1.969 . S
Zn41 O54 1.969 . S
Zn41 O55 1.965 . S
Zn41 O57 2.024 . S
C42 O43 1.229 . S
C42 O51 1.058 . S
O43 C42 1.229 . S
C44 O45 1.229 . S
C44 O57 1.058 . S
O45 C44 1.229 . S
O46 Zn40 1.969 . S
O46 C49 1.267 . S
O47 Zn40 1.965 . S
O47 C58 1.260 . S
O48 Zn41 1.969 . S
O48 C58 1.258 . S
C49 O46 1.267 . S
C49 O50 1.228 . S
O50 C49 1.228 . S
O51 Zn40 2.024 . S
O51 C42 1.058 . S
C52 O53 1.228 . S
C52 O54 1.267 . S
O53 C52 1.228 . S
O54 Zn41 1.969 . S
O54 C52 1.267 . S
O55 Zn41 1.965 . S
O55 C59 1.260 . S
O56 Zn40 1.969 . S
O56 C59 1.258 . S
O57 Zn41 2.024 . S
O57 C44 1.058 . S
C58 O47 1.260 . S
C58 O48 1.258 . S
C59 O55 1.260 . S
C59 O56 1.258 . S
Zn60 O66 1.969 . S
Zn60 O67 1.965 . S
Zn60 O71 2.024 1_545 S
Zn60 O76 1.969 . S
Zn61 O68 1.969 . S
Zn61 O74 1.969 . S
Zn61 O75 1.965 . S
Zn61 O77 2.024 . S
C62 O63 1.229 1_565 S
C62 O71 1.058 . S
O63 C62 1.229 1_545 S
C64 O65 1.229 . S
C64 O77 1.058 . S
O65 C64 1.229 . S
O66 Zn60 1.969 . S
O66 C69 1.267 . S
O67 Zn60 1.965 . S
O67 C78 1.260 . S
O68 Zn61 1.969 . S
O68 C78 1.258 . S
C69 O66 1.267 . S
C69 O70 1.228 . S
O70 C69 1.228 . S
O71 Zn60 2.024 1_565 S
O71 C62 1.058 . S
C72 O73 1.228 . S
C72 O74 1.267 . S
O73 C72 1.228 . S
O74 Zn61 1.969 . S
O74 C72 1.267 . S
O75 Zn61 1.965 . S
O75 C79 1.260 . S
O76 Zn60 1.969 . S
O76 C79 1.258 . S
O77 Zn61 2.024 . S
O77 C64 1.058 . S
C78 O67 1.260 . S
C78 O68 1.258 . S
C79 O75 1.260 . S
C79 O76 1.258 . S
Zn80 O86 1.969 . S
Zn80 O87 1.965 . S
Zn80 O91 2.024 . S
Zn80 O96 1.969 . S
Zn81 O88 1.969 . S
Zn81 O94 1.969 . S
Zn81 O95 1.965 . S
Zn81 O97 2.024 . S
C82 O83 1.229 . S
C82 O91 1.058 . S
O83 C82 1.229 . S
C84 O85 1.229 . S
C84 O97 1.058 . S
O85 C84 1.229 . S
O86 Zn80 1.969 . S
O86 C89 1.267 . S
O87 Zn80 1.965 . S
O87 C98 1.260 . S
O88 Zn81 1.969 . S
O88 C98 1.258 . S
C89 O86 1.267 . S
C89 O90 1.228 . S
O90 C89 1.228 . S
O91 Zn80 2.024 . S
O91 C82 1.058 . S
C92 O93 1.228 . S
C92 O94 1.267 . S
O93 C92 1.228 . S
O94 Zn81 1.969 . S
O94 C92 1.267 . S
O95 Zn81 1.965 . S
O95 C99 1.260 . S
O96 Zn80 1.969 . S
O96 C99 1.258 . S
O97 Zn81 2.024 . S
O97 C84 1.058 . S
C98 O87 1.260 . S
C98 O88 1.258 . S
C99 O95 1.260 . S
C99 O96 1.258 . S
Zn100 O106 1.969 . S
Zn100 O107 1.965 . S
Zn100 O111 2.024 . S
Zn100 O116 1.969 . S
Zn101 O108 1.969 . S
Zn101 O114 1.969 . S
Zn101 O115 1.965 . S
Zn101 O117 2.024 . S
C102 O103 1.229 . S
C102 O111 1.058 . S
O103 C102 1.229 . S
C104 O105 1.229 . S
C104 O117 1.058 . S
O105 C104 1.229 . S
O106 Zn100 1.969 . S
O106 C109 1.267 . S
O107 Zn100 1.965 . S
O107 C118 1.260 . S
O108 Zn101 1.969 . S
O108 C118 1.258 . S
C109 O106 1.267 . S
C109 O110 1.228 . S
O110 C109 1.228 . S
O111 Zn100 2.024 . S
O111 C102 1.058 . S
C112 O113 1.228 . S
C112 O114 1.267 . S
O113 C112 1.228 . S
O114 Zn101 1.969 . S
O114 C112 1.267 . S
O115 Zn101 1.965 . S
O115 C119 1.260 . S
O116 Zn100 1.969 . S
O116 C119 1.258 . S
O117 Zn101 2.024 . S
O117 C104 1.058 . S
C118 O107 1.260 . S
C118 O108 1.258 . S
C119 O115 1.260 . S
C119 O116 1.258 . S
Zn120 O126 1.969 . S
Zn120 O127 1.965 . S
Zn120 O131 2.024 . S
Zn120 O136 1.969 . S
Zn121 O128 1.969 . S
Zn121 O134 1.969 . S
Zn121 O135 1.965 . S
Zn121 O137 2.024 . S
C122 O123 1.229 . S
C122 O131 1.058 . S
O123 C122 1.229 . S
C124 O125 1.229 . S
C124 O137 1.058 . S
O125 C124 1.229 . S
O126 Zn120 1.969 . S
O126 C129 1.267 . S
O127 Zn120 1.965 . S
O127 C138 1.260 . S
O128 Zn121 1.969 . S
O128 C138 1.258 . S
C129 O126 1.267 . S
C129 O130 1.228 . S
O130 C129 1.228 . S
O131 Zn120 2.024 . S
O131 C122 1.058 . S
C132 O133 1.228 . S
C132 O134 1.267 . S
O133 C132 1.228 . S
O134 Zn121 1.969 . S
O134 C132 1.267 . S
O135 Zn121 1.965 . S
O135 C139 1.260 . S
O136 Zn120 1.969 . S
O136 C139 1.258 . S
O137 Zn121 2.024 . S
O137 C124 1.058 . S
C138 O127 1.260 . S
C138 O128 1.258 . S
C139 O135 1.260 . S
C139 O136 1.258 . S
Zn140 O146 1.969 . S
Zn140 O147 1.965 . S
Zn140 O151 2.024 . S
Zn140 O156 1.969 1_455 S
Zn141 O148 1.969 . S
Zn141 O154 1.969 1_455 S
Zn141 O155 1.965 1_455 S
Zn141 O157 2.024 . S
C142 O143 1.229 . S
C142 O151 1.058 1_655 S
O143 C142 1.229 . S
C144 O145 1.229 . S
C144 O157 1.058 . S
O145 C144 1.229 . S
O146 Zn140 1.969 . S
O146 C149 1.267 . S
O147 Zn140 1.965 . S
O147 C158 1.260 . S
O148 Zn141 1.969 . S
O148 C158 1.258 . S
C149 O146 1.267 . S
C149 O150 1.228 . S
O150 C149 1.228 . S
O151 Zn140 2.024 . S
O151 C142 1.058 1_455 S
C152 O153 1.228 . S
C152 O154 1.267 . S
O153 C152 1.228 . S
O154 Zn141 1.969 1_655 S
O154 C152 1.267 . S
O155 Zn141 1.965 1_655 S
O155 C159 1.260 . S
O156 Zn140 1.969 1_655 S
O156 C159 1.258 . S
O157 Zn141 2.024 . S
O157 C144 1.058 . S
C158 O147 1.260 . S
C158 O148 1.258 . S
C159 O155 1.260 . S
C159 O156 1.258 . S
Zn160 O166 1.969 1_554 S
Zn160 O167 1.965 . S
Zn160 O171 2.024 . S
Zn160 O176 1.969 1_554 S
Zn161 O168 1.969 1_556 S
Zn161 O174 1.969 1_556 S
Zn161 O175 1.965 . S
Zn161 O177 2.024 . S
C162 O163 1.229 . S
C162 O171 1.058 . S
O163 C162 1.229 . S
C164 O165 1.229 . S
C164 O177 1.058 . S
O165 C164 1.229 . S
O166 Zn160 1.969 1_556 S
O166 C169 1.267 . S
O167 Zn160 1.965 . S
O167 C178 1.260 . S
O168 Zn161 1.969 1_554 S
O168 C178 1.258 . S
C169 O166 1.267 . S
C169 O170 1.228 1_556 S
O170 C169 1.228 1_554 S
O171 Zn160 2.024 . S
O171 C162 1.058 . S
C172 O173 1.228 1_554 S
C172 O174 1.267 . S
O173 C172 1.228 1_556 S
O174 Zn161 1.969 1_554 S
O174 C172 1.267 . S
O175 Zn161 1.965 . S
O175 C179 1.260 . S
O176 Zn160 1.969 1_556 S
O176 C179 1.258 . S
O177 Zn161 2.024 . S
O177 C164 1.058 . S
C178 O167 1.260 . S
C178 O168 1.258 . S
C179 O175 1.260 . S
C179 O176 1.258 . S
Zn180 O186 1.969 1_565 S
Zn180 O187 1.965 . S
Zn180 O191 2.024 . S
Zn180 O196 1.969 1_565 S
Zn181 O188 1.969 1_545 S
Zn181 O194 1.969 1_545 S
Zn181 O195 1.965 . S
Zn181 O197 2.024 . S
C182 O183 1.229 . S
C182 O191 1.058 . S
O183 C182 1.229 . S
C184 O185 1.229 . S
C184 O197 1.058 . S
O185 C184 1.229 . S
O186 Zn180 1.969 1_545 S
O186 C189 1.284 . S
O187 Zn180 1.965 . S
O187 C198 1.260 . S
O188 Zn181 1.969 1_565 S
O188 C198 1.258 . S
C189 O186 1.284 . S
C189 O190 1.192 1_545 S
O190 C189 1.192 1_565 S
O191 Zn180 2.024 . S
O191 C182 1.058 . S
C192 O193 1.217 1_565 S
C192 O194 1.273 . S
O193 C192 1.217 1_545 S
O194 Zn181 1.969 1_565 S
O194 C192 1.273 . S
O195 Zn181 1.965 . S
O195 C199 1.260 . S
O196 Zn180 1.969 1_545 S
O196 C199 1.258 . S
O197 Zn181 2.024 . S
O197 C184 1.058 . S
C198 O187 1.260 . S
C198 O188 1.258 . S
C199 O195 1.260 . S
C199 O196 1.258 . S
Zn200 O206 1.969 . S
Zn200 O207 1.965 . S
Zn200 O211 2.024 . S
Zn200 O216 1.969 . S
Zn201 O208 1.969 . S
Zn201 O214 1.969 . S
Zn201 O215 1.965 . S
Zn201 O217 2.024 . S
C202 O203 1.229 . S
C202 O211 1.058 . S
O203 C202 1.229 . S
C204 O205 1.229 . S
C204 O217 1.058 . S
O205 C204 1.229 . S
O206 Zn200 1.969 . S
O206 C209 1.267 . S
O207 Zn200 1.965 . S
O207 C218 1.260 . S
O208 Zn201 1.969 . S
O208 C218 1.258 . S
C209 O206 1.267 . S
C209 O210 1.228 . S
O210 C209 1.228 . S
O211 Zn200 2.024 . S
O211 C202 1.058 . S
C212 O213 1.228 . S
C212 O214 1.267 . S
O213 C212 1.228 . S
O214 Zn201 1.969 . S
O214 C212 1.267 . S
O215 Zn201 1.965 . S
O215 C219 1.260 . S
O216 Zn200 1.969 . S
O216 C219 1.258 . S
O217 Zn201 2.024 . S
O217 C204 1.058 . S
C218 O207 1.260 . S
C218 O208 1.258 . S
C219 O215 1.260 . S
C219 O216 1.258 . S
Zn220 O226 1.969 . S
Zn220 O227 1.965 . S
Zn220 O231 2.024 1_655 S
Zn220 O236 1.969 1_655 S
Zn221 O228 1.969 1_455 S
Zn221 O234 1.969 . S
Zn221 O235 1.965 . S
Zn221 O237 2.024 1_455 S
C222 O223 1.229 . S
C222 O231 1.058 . S
O223 C222 1.229 . S
C224 O225 1.229 . S
C224 O237 1.058 . S
O225 C224 1.229 . S
O226 Zn220 1.969 . S
O226 C229 1.267 . S
O227 Zn220 1.965 . S
O227 C238 1.260 . S
O228 Zn221 1.969 1_655 S
O228 C238 1.258 . S
C229 O226 1.267 . S
C229 O230 1.228 . S
O230 C229 1.228 . S
O231 Zn220 2.024 1_455 S
O231 C222 1.058 . S
C232 O233 1.228 . S
C232 O234 1.267 . S
O233 C232 1.228 . S
O234 Zn221 1.969 . S
O234 C232 1.267 . S
O235 Zn221 1.965 . S
O235 C239 1.260 . S
O236 Zn220 1.969 1_455 S
O236 C239 1.258 . S
O237 Zn221 2.024 1_655 S
O237 C224 1.058 . S
C238 O227 1.260 . S
C238 O228 1.258 . S
C239 O235 1.260 . S
C239 O236 1.258 . S
Zn240 O246 1.969 . S
Zn240 O247 1.965 . S
Zn240 O251 2.024 . S
Zn240 O256 1.969 . S
Zn241 O248 1.969 . S
Zn241 O254 1.969 . S
Zn241 O255 1.965 . S
Zn241 O257 2.024 . S
C242 O243 1.229 . S
C242 O251 1.058 . S
O243 C242 1.229 . S
C244 O245 1.229 . S
C244 O257 1.058 . S
O245 C244 1.229 . S
O246 Zn240 1.969 . S
O246 C249 1.267 . S
O247 Zn240 1.965 . S
O247 C258 1.260 . S
O248 Zn241 1.969 . S
O248 C258 1.258 . S
C249 O246 1.267 . S
C249 O250 1.228 . S
O250 C249 1.228 . S
O251 Zn240 2.024 . S
O251 C242 1.058 . S
C252 O253 1.228 . S
C252 O254 1.267 . S
O253 C252 1.228 . S
O254 Zn241 1.969 . S
O254 C252 1.267 . S
O255 Zn241 1.965 . S
O255 C259 1.260 . S
O256 Zn240 1.969 . S
O256 C259 1.258 . S
O257 Zn241 2.024 . S
O257 C244 1.058 . S
C258 O247 1.260 . S
C258 O248 1.258 . S
C259 O255 1.260 . S
C259 O256 1.258 . S
Zn260 O266 1.969 1_554 S
Zn260 O267 1.965 . S
Zn260 O271 2.024 . S
Zn260 O276 1.969 1_554 S
Zn261 O268 1.969 . S
Zn261 O274 1.969 . S
Zn261 O275 1.965 1_554 S
Zn261 O277 2.024 1_554 S
C262 O263 1.229 . S
C262 O271 1.058 . S
O263 C262 1.229 . S
C264 O265 1.229 . S
C264 O277 1.058 . S
O265 C264 1.229 . S
O266 Zn260 1.969 1_556 S
O266 C269 1.267 1_556 S
O267 Zn260 1.965 . S
O267 C278 1.260 . S
O268 Zn261 1.969 . S
O268 C278 1.258 . S
C269 O266 1.267 1_554 S
C269 O270 1.228 . S
O270 C269 1.228 . S
O271 Zn260 2.024 . S
O271 C262 1.058 . S
C272 O273 1.228 1_554 S
C272 O274 1.267 . S
O273 C272 1.228 1_556 S
O274 Zn261 1.969 . S
O274 C272 1.267 . S
O275 Zn261 1.965 1_556 S
O275 C279 1.260 . S
O276 Zn260 1.969 1_556 S
O276 C279 1.258 . S
O277 Zn261 2.024 1_556 S
O277 C264 1.058 . S
C278 O267 1.260 . S
C278 O268 1.258 . S
C279 O275 1.260 . S
C279 O276 1.258 . S
Zn280 O286 1.969 1_545 S
Zn280 O287 1.965 1_545 S
Zn280 O291 2.024 . S
Zn280 O296 1.969 . S
Zn281 O288 1.987 . S
Zn281 O294 1.969 . S
Zn281 O295 1.965 . S
Zn281 O297 2.024 . S
C282 O283 1.229 . S
C282 O291 1.058 . S
O283 C282 1.229 . S
C284 O285 1.229 . S
C284 O297 1.058 . S
O285 C284 1.229 . S
O286 Zn280 1.969 1_565 S
O286 C289 1.267 . S
O287 Zn280 1.965 1_565 S
O287 C298 1.260 . S
O288 Zn281 1.987 . S
O288 C298 1.244 1_545 S
C289 O286 1.267 . S
C289 O290 1.228 . S
O290 C289 1.228 . S
O291 Zn280 2.024 . S
O291 C282 1.058 . S
C292 O293 1.228 . S
C292 O294 1.267 . S
O293 C292 1.228 . S
O294 Zn281 1.969 . S
O294 C292 1.267 . S
O295 Zn281 1.965 . S
O295 C299 1.260 . S
O296 Zn280 1.969 . S
O296 C299 1.258 . S
O297 Zn281 2.024 . S
O297 C284 1.058 . S
C298 O287 1.260 . S
C298 O288 1.244 1_565 S
C299 O295 1.260 . S
C299 O296 1.258 . S
Zn300 O306 1.969 1_554 S
Zn300 O307 1.965 . S
Zn300 O311 2.024 . S
Zn300 O316 1.969 1_554 S
Zn301 O308 1.969 . S
Zn301 O314 1.969 . S
Zn301 O315 1.965 1_554 S
Zn301 O317 2.024 1_554 S
C302 O303 1.229 . S
C302 O311 1.058 . S
O303 C302 1.229 . S
C304 O305 1.229 . S
C304 O317 1.058 . S
O305 C304 1.229 . S
O306 Zn300 1.969 1_556 S
O306 C309 1.267 1_556 S
O307 Zn300 1.965 . S
O307 C318 1.260 . S
O308 Zn301 1.969 . S
O308 C318 1.258 . S
C309 O306 1.267 1_554 S
C309 O310 1.228 . S
O310 C309 1.228 . S
O311 Zn300 2.024 . S
O311 C302 1.058 . S
C312 O313 1.228 1_554 S
C312 O314 1.267 . S
O313 C312 1.228 1_556 S
O314 Zn301 1.969 . S
O314 C312 1.267 . S
O315 Zn301 1.965 1_556 S
O315 C319 1.260 . S
O316 Zn300 1.969 1_556 S
O316 C319 1.258 . S
O317 Zn301 2.024 1_556 S
O317 C304 1.058 . S
C318 O307 1.260 . S
C318 O308 1.258 . S
C319 O315 1.260 . S
C319 O316 1.258 . S
C320 C321 1.391 . S
C320 C322 1.394 . S
C320 H336 0.931 . S
C321 C320 1.391 . S
C321 C325 1.376 . S
C322 C320 1.394 . S
C322 C323 1.369 . S
C322 C326 1.531 . S
C323 C322 1.369 . S
C323 C324 1.410 . S
C323 C331 1.503 . S
C324 C323 1.410 . S
C324 C325 1.392 . S
C324 C327 1.511 . S
C325 C321 1.376 . S
C325 C324 1.392 . S
C325 H337 0.929 . S
C326 C322 1.531 . S
C326 H338 0.960 . S
C326 H339 0.962 1_655 S
C326 H340 0.960 . S
C327 C324 1.511 . S
C327 H341 0.961 . S
C327 H342 0.961 . S
C327 H343 0.961 . S
C328 C329 1.370 . S
C328 C330 1.363 . S
C328 H344 0.931 . S
C329 C328 1.370 . S
C329 C333 1.408 1_455 S
C330 C328 1.363 . S
C330 C331 1.370 1_455 S
C330 C334 1.524 . S
C331 C323 1.503 . S
C331 C330 1.370 1_655 S
C331 C332 1.403 . S
C332 C331 1.403 . S
C332 C333 1.404 . S
C332 C335 1.539 . S
C333 C329 1.408 1_655 S
C333 C332 1.404 . S
C333 H345 0.930 . S
C334 C330 1.524 . S
C334 H346 0.956 . S
C334 H347 0.961 . S
C334 H348 0.961 . S
C335 C332 1.539 . S
C335 H349 0.958 . S
C335 H350 0.961 . S
C335 H351 0.960 . S
H336 C320 0.931 . S
H337 C325 0.929 . S
H338 C326 0.960 . S
H339 C326 0.962 1_455 S
H340 C326 0.960 . S
H341 C327 0.961 . S
H342 C327 0.961 . S
H343 C327 0.961 . S
H344 C328 0.931 . S
H345 C333 0.930 . S
H346 C334 0.956 . S
H347 C334 0.961 . S
H348 C334 0.961 . S
H349 C335 0.958 . S
H350 C335 0.961 . S
H351 C335 0.960 . S
C352 C353 1.391 . S
C352 C354 1.394 . S
C352 H368 0.931 . S
C353 C352 1.391 . S
C353 C357 1.376 . S
C354 C352 1.394 . S
C354 C355 1.369 . S
C354 C358 1.531 . S
C355 C354 1.369 . S
C355 C356 1.410 . S
C355 C363 1.503 . S
C356 C355 1.410 . S
C356 C357 1.392 . S
C356 C359 1.511 . S
C357 C353 1.376 . S
C357 C356 1.392 . S
C357 H369 0.929 . S
C358 C354 1.531 . S
C358 H370 0.960 . S
C358 H371 0.962 . S
C358 H372 0.960 . S
C359 C356 1.511 . S
C359 H373 0.961 . S
C359 H374 0.961 . S
C359 H375 0.961 . S
C360 C361 1.370 . S
C360 C362 1.363 . S
C360 H376 0.931 . S
C361 C360 1.370 . S
C361 C365 1.408 . S
C362 C360 1.363 . S
C362 C363 1.370 . S
C362 C366 1.524 . S
C363 C355 1.503 . S
C363 C362 1.370 . S
C363 C364 1.403 . S
C364 C363 1.403 . S
C364 C365 1.404 . S
C364 C367 1.539 . S
C365 C361 1.408 . S
C365 C364 1.404 . S
C365 H377 0.930 . S
C366 C362 1.524 . S
C366 H378 0.956 . S
C366 H379 0.961 . S
C366 H380 0.961 . S
C367 C364 1.539 . S
C367 H381 0.958 . S
C367 H382 0.961 . S
C367 H383 0.960 . S
H368 C352 0.931 . S
H369 C357 0.929 . S
H370 C358 0.960 . S
H371 C358 0.962 . S
H372 C358 0.960 . S
H373 C359 0.961 . S
H374 C359 0.961 . S
H375 C359 0.961 . S
H376 C360 0.931 . S
H377 C365 0.930 . S
H378 C366 0.956 . S
H379 C366 0.961 . S
H380 C366 0.961 . S
H381 C367 0.958 . S
H382 C367 0.961 . S
H383 C367 0.960 . S
C384 C385 1.391 . S
C384 C386 1.394 . S
C384 H400 0.931 . S
C385 C384 1.391 . S
C385 C389 1.376 . S
C386 C384 1.394 . S
C386 C387 1.369 . S
C386 C390 1.531 . S
C387 C386 1.369 . S
C387 C388 1.410 . S
C387 C395 1.503 . S
C388 C387 1.410 . S
C388 C389 1.392 . S
C388 C391 1.511 . S
C389 C385 1.376 . S
C389 C388 1.392 . S
C389 H401 0.929 . S
C390 C386 1.531 . S
C390 H402 0.960 . S
C390 H403 0.962 . S
C390 H404 0.960 . S
C391 C388 1.511 . S
C391 H405 0.961 . S
C391 H406 0.961 . S
C391 H407 0.961 . S
C392 C393 1.370 . S
C392 C394 1.363 . S
C392 H408 0.931 . S
C393 C392 1.370 . S
C393 C397 1.408 . S
C394 C392 1.363 . S
C394 C395 1.370 . S
C394 C398 1.524 . S
C395 C387 1.503 . S
C395 C394 1.370 . S
C395 C396 1.403 . S
C396 C395 1.403 . S
C396 C397 1.404 . S
C396 C399 1.539 . S
C397 C393 1.408 . S
C397 C396 1.404 . S
C397 H409 0.930 . S
C398 C394 1.524 . S
C398 H410 0.956 . S
C398 H411 0.961 . S
C398 H412 0.961 . S
C399 C396 1.539 . S
C399 H413 0.958 . S
C399 H414 0.961 . S
C399 H415 0.960 . S
H400 C384 0.931 . S
H401 C389 0.929 . S
H402 C390 0.960 . S
H403 C390 0.962 . S
H404 C390 0.960 . S
H405 C391 0.961 . S
H406 C391 0.961 . S
H407 C391 0.961 . S
H408 C392 0.931 . S
H409 C397 0.930 . S
H410 C398 0.956 . S
H411 C398 0.961 . S
H412 C398 0.961 . S
H413 C399 0.958 . S
H414 C399 0.961 . S
H415 C399 0.960 . S
C416 C417 1.391 . S
C416 C418 1.394 . S
C416 H432 0.931 . S
C417 C416 1.391 . S
C417 C421 1.376 . S
C418 C416 1.394 . S
C418 C419 1.369 . S
C418 C422 1.531 1_545 S
C419 C418 1.369 . S
C419 C420 1.410 . S
C419 C427 1.503 . S
C420 C419 1.410 . S
C420 C421 1.392 . S
C420 C423 1.511 . S
C421 C417 1.376 . S
C421 C420 1.392 . S
C421 H433 0.929 . S
C422 C418 1.531 1_565 S
C422 H434 0.960 . S
C422 H435 0.962 1_565 S
C422 H436 0.960 . S
C423 C420 1.511 . S
C423 H437 0.961 . S
C423 H438 0.961 . S
C423 H439 0.961 . S
C424 C425 1.370 . S
C424 C426 1.363 . S
C424 H440 0.931 . S
C425 C424 1.370 . S
C425 C429 1.408 . S
C426 C424 1.363 . S
C426 C427 1.370 . S
C426 C430 1.524 . S
C427 C419 1.503 . S
C427 C426 1.370 . S
C427 C428 1.403 . S
C428 C427 1.403 . S
C428 C429 1.404 . S
C428 C431 1.539 1_545 S
C429 C425 1.408 . S
C429 C428 1.404 . S
C429 H441 0.926 1_545 S
C430 C426 1.524 . S
C430 H442 0.956 . S
C430 H443 0.961 . S
C430 H444 0.961 . S
C431 C428 1.539 1_565 S
C431 H445 0.958 . S
C431 H446 0.961 . S
C431 H447 0.960 . S
H432 C416 0.931 . S
H433 C421 0.929 . S
H434 C422 0.960 . S
H435 C422 0.962 1_545 S
H436 C422 0.960 . S
H437 C423 0.961 . S
H438 C423 0.961 . S
H439 C423 0.961 . S
H440 C424 0.931 . S
H441 C429 0.926 1_565 S
H442 C430 0.956 . S
H443 C430 0.961 . S
H444 C430 0.961 . S
H445 C431 0.958 . S
H446 C431 0.961 . S
H447 C431 0.960 . S
C448 C449 1.391 1_545 S
C448 C450 1.394 . S
C448 H464 0.931 . S
C449 C448 1.391 1_565 S
C449 C453 1.376 . S
C450 C448 1.394 . S
C450 C451 1.369 1_545 S
C450 C454 1.531 . S
C451 C450 1.369 1_565 S
C451 C452 1.410 . S
C451 C459 1.503 . S
C452 C451 1.410 . S
C452 C453 1.392 . S
C452 C455 1.511 . S
C453 C449 1.376 . S
C453 C452 1.392 . S
C453 H465 0.929 . S
C454 C450 1.531 . S
C454 H466 0.960 . S
C454 H467 0.962 . S
C454 H468 0.960 . S
C455 C452 1.511 . S
C455 H469 0.961 . S
C455 H470 0.961 . S
C455 H471 0.961 . S
C456 C457 1.370 . S
C456 C458 1.363 . S
C456 H472 0.931 . S
C457 C456 1.370 . S
C457 C461 1.408 1_565 S
C458 C456 1.363 . S
C458 C459 1.370 . S
C458 C462 1.524 . S
C459 C451 1.503 . S
C459 C458 1.370 . S
C459 C460 1.403 1_565 S
C460 C459 1.403 1_545 S
C460 C461 1.404 . S
C460 C463 1.539 . S
C461 C457 1.408 1_545 S
C461 C460 1.404 . S
C461 H473 0.930 . S
C462 C458 1.524 . S
C462 H474 0.956 . S
C462 H475 0.961 . S
C462 H476 0.961 . S
C463 C460 1.539 . S
C463 H477 0.958 . S
C463 H478 0.961 . S
C463 H479 0.960 . S
H464 C448 0.931 . S
H465 C453 0.929 . S
H466 C454 0.960 . S
H467 C454 0.962 . S
H468 C454 0.960 . S
H469 C455 0.961 . S
H470 C455 0.961 . S
H471 C455 0.961 . S
H472 C456 0.931 . S
H473 C461 0.930 . S
H474 C462 0.956 . S
H475 C462 0.961 . S
H476 C462 0.961 . S
H477 C463 0.958 . S
H478 C463 0.961 . S
H479 C463 0.960 . S
C480 C481 1.391 . S
C480 C482 1.394 . S
C480 H496 0.931 . S
C481 C480 1.391 . S
C481 C485 1.376 . S
C482 C480 1.394 . S
C482 C483 1.369 . S
C482 C486 1.531 . S
C483 C482 1.369 . S
C483 C484 1.410 . S
C483 C491 1.503 . S
C484 C483 1.410 . S
C484 C485 1.392 . S
C484 C487 1.511 1_455 S
C485 C481 1.376 . S
C485 C484 1.392 . S
C485 H497 0.929 . S
C486 C482 1.531 . S
C486 H498 0.960 . S
C486 H499 0.962 . S
C486 H500 0.960 . S
C487 C484 1.511 1_655 S
C487 H501 0.961 . S
C487 H502 0.961 . S
C487 H503 0.961 . S
C488 C489 1.370 . S
C488 C490 1.363 . S
C488 H504 0.931 . S
C489 C488 1.370 . S
C489 C493 1.408 . S
C490 C488 1.363 . S
C490 C491 1.370 . S
C490 C494 1.524 . S
C491 C483 1.503 . S
C491 C490 1.370 . S
C491 C492 1.403 . S
C492 C491 1.403 . S
C492 C493 1.404 . S
C492 C495 1.539 . S
C493 C489 1.408 . S
C493 C492 1.404 . S
C493 H505 0.930 . S
C494 C490 1.524 . S
C494 H506 0.956 . S
C494 H507 0.961 . S
C494 H508 0.961 . S
C495 C492 1.539 . S
C495 H509 0.958 . S
C495 H510 0.961 . S
C495 H511 0.960 . S
H496 C480 0.931 . S
H497 C485 0.929 . S
H498 C486 0.960 . S
H499 C486 0.962 . S
H500 C486 0.960 . S
H501 C487 0.961 . S
H502 C487 0.961 . S
H503 C487 0.961 . S
H504 C488 0.931 . S
H505 C493 0.930 . S
H506 C494 0.956 . S
H507 C494 0.961 . S
H508 C494 0.961 . S
H509 C495 0.958 . S
H510 C495 0.961 . S
H511 C495 0.960 . S
C512 C513 1.391 . S
C512 C514 1.394 . S
C512 H528 0.931 . S
C513 C512 1.391 . S
C513 C517 1.376 . S
C514 C512 1.394 . S
C514 C515 1.369 . S
C514 C518 1.531 . S
C515 C514 1.369 . S
C515 C516 1.410 . S
C515 C523 1.503 . S
C516 C515 1.410 . S
C516 C517 1.392 . S
C516 C519 1.511 . S
C517 C513 1.376 . S
C517 C516 1.392 . S
C517 H529 0.929 . S
C518 C514 1.531 . S
C518 H530 0.960 . S
C518 H531 0.962 . S
C518 H532 0.960 . S
C519 C516 1.511 . S
C519 H533 0.961 . S
C519 H534 0.961 . S
C519 H535 0.961 . S
C520 C521 1.370 . S
C520 C522 1.363 . S
C520 H536 0.931 . S
C521 C520 1.370 . S
C521 C525 1.408 . S
C522 C520 1.363 . S
C522 C523 1.370 . S
C522 C526 1.524 . S
C523 C515 1.503 . S
C523 C522 1.370 . S
C523 C524 1.403 . S
C524 C523 1.403 . S
C524 C525 1.404 . S
C524 C527 1.539 . S
C525 C521 1.408 . S
C525 C524 1.404 . S
C525 H537 0.930 . S
C526 C522 1.524 . S
C526 H538 0.956 . S
C526 H539 0.961 . S
C526 H540 0.961 . S
C527 C524 1.539 . S
C527 H541 0.958 . S
C527 H542 0.961 . S
C527 H543 0.960 . S
H528 C512 0.931 . S
H529 C517 0.929 . S
H530 C518 0.960 . S
H531 C518 0.962 . S
H532 C518 0.960 . S
H533 C519 0.961 . S
H534 C519 0.961 . S
H535 C519 0.961 . S
H536 C520 0.931 . S
H537 C525 0.930 . S
H538 C526 0.956 . S
H539 C526 0.961 . S
H540 C526 0.961 . S
H541 C527 0.958 . S
H542 C527 0.961 . S
H543 C527 0.960 . S
C544 C545 1.391 . S
C544 C546 1.394 . S
C544 H560 0.931 . S
C545 C544 1.391 . S
C545 C549 1.376 . S
C546 C544 1.394 . S
C546 C547 1.369 . S
C546 C550 1.531 . S
C547 C546 1.369 . S
C547 C548 1.410 . S
C547 C555 1.503 . S
C548 C547 1.410 . S
C548 C549 1.392 . S
C548 C551 1.511 . S
C549 C545 1.376 . S
C549 C548 1.392 . S
C549 H561 0.929 . S
C550 C546 1.531 . S
C550 H562 0.960 . S
C550 H563 0.962 . S
C550 H564 0.960 . S
C551 C548 1.511 . S
C551 H565 0.961 . S
C551 H566 0.961 . S
C551 H567 0.961 . S
C552 C553 1.370 . S
C552 C554 1.363 . S
C552 H568 0.931 . S
C553 C552 1.370 . S
C553 C557 1.408 . S
C554 C552 1.363 . S
C554 C555 1.370 . S
C554 C558 1.524 . S
C555 C547 1.503 . S
C555 C554 1.370 . S
C555 C556 1.403 . S
C556 C555 1.403 . S
C556 C557 1.404 . S
C556 C559 1.539 . S
C557 C553 1.408 . S
C557 C556 1.404 . S
C557 H569 0.930 . S
C558 C554 1.524 . S
C558 H570 0.956 . S
C558 H571 0.961 . S
C558 H572 0.961 . S
C559 C556 1.539 . S
C559 H573 0.958 . S
C559 H574 0.961 . S
C559 H575 0.960 . S
H560 C544 0.931 . S
H561 C549 0.929 . S
H562 C550 0.960 . S
H563 C550 0.962 . S
H564 C550 0.960 . S
H565 C551 0.961 . S
H566 C551 0.961 . S
H567 C551 0.961 . S
H568 C552 0.931 . S
H569 C557 0.930 . S
H570 C558 0.956 . S
H571 C558 0.961 . S
H572 C558 0.961 . S
H573 C559 0.958 . S
H574 C559 0.961 . S
H575 C559 0.960 . S
C576 C577 1.391 . S
C576 C578 1.394 . S
C576 H592 0.931 . S
C577 C576 1.391 . S
C577 C581 1.376 . S
C578 C576 1.394 . S
C578 C579 1.369 . S
C578 C582 1.531 . S
C579 C578 1.369 . S
C579 C580 1.410 . S
C579 C587 1.503 . S
C580 C579 1.410 . S
C580 C581 1.392 . S
C580 C583 1.511 . S
C581 C577 1.376 . S
C581 C580 1.392 . S
C581 H593 0.929 . S
C582 C578 1.531 . S
C582 H594 0.960 . S
C582 H595 0.962 . S
C582 H596 0.960 . S
C583 C580 1.511 . S
C583 H597 0.961 . S
C583 H598 0.961 . S
C583 H599 0.961 . S
C584 C585 1.370 . S
C584 C586 1.363 . S
C584 H600 0.931 . S
C585 C584 1.370 . S
C585 C589 1.408 . S
C586 C584 1.363 . S
C586 C587 1.370 . S
C586 C590 1.524 . S
C587 C579 1.503 . S
C587 C586 1.370 . S
C587 C588 1.403 . S
C588 C587 1.403 . S
C588 C589 1.404 . S
C588 C591 1.539 . S
C589 C585 1.408 . S
C589 C588 1.404 . S
C589 H601 0.930 . S
C590 C586 1.524 . S
C590 H602 0.956 . S
C590 H603 0.961 . S
C590 H604 0.961 . S
C591 C588 1.539 . S
C591 H605 0.958 . S
C591 H606 0.961 . S
C591 H607 0.960 . S
H592 C576 0.931 . S
H593 C581 0.929 . S
H594 C582 0.960 . S
H595 C582 0.962 . S
H596 C582 0.960 . S
H597 C583 0.961 . S
H598 C583 0.961 . S
H599 C583 0.961 . S
H600 C584 0.931 . S
H601 C589 0.930 . S
H602 C590 0.956 . S
H603 C590 0.961 . S
H604 C590 0.961 . S
H605 C591 0.958 . S
H606 C591 0.961 . S
H607 C591 0.960 . S
C608 C609 1.391 . S
C608 C610 1.394 . S
C608 H624 0.931 . S
C609 C608 1.391 . S
C609 C613 1.376 . S
C610 C608 1.394 . S
C610 C611 1.369 . S
C610 C614 1.531 . S
C611 C610 1.369 . S
C611 C612 1.410 . S
C611 C619 1.503 . S
C612 C611 1.410 . S
C612 C613 1.392 . S
C612 C615 1.511 . S
C613 C609 1.376 . S
C613 C612 1.392 . S
C613 H625 0.929 . S
C614 C610 1.531 . S
C614 H626 0.960 . S
C614 H627 0.962 . S
C614 H628 0.960 . S
C615 C612 1.511 . S
C615 H629 0.961 . S
C615 H630 0.961 . S
C615 H631 0.961 . S
C616 C617 1.370 . S
C616 C618 1.363 . S
C616 H632 0.931 . S
C617 C616 1.370 . S
C617 C621 1.408 . S
C618 C616 1.363 . S
C618 C619 1.370 . S
C618 C622 1.524 . S
C619 C611 1.503 . S
C619 C618 1.370 . S
C619 C620 1.403 . S
C620 C619 1.403 . S
C620 C621 1.404 . S
C620 C623 1.539 . S
C621 C617 1.408 . S
C621 C620 1.404 . S
C621 H633 0.930 . S
C622 C618 1.524 . S
C622 H634 0.956 . S
C622 H635 0.961 . S
C622 H636 0.961 . S
C623 C620 1.539 . S
C623 H637 0.958 . S
C623 H638 0.961 . S
C623 H639 0.960 . S
H624 C608 0.931 . S
H625 C613 0.929 . S
H626 C614 0.960 . S
H627 C614 0.962 . S
H628 C614 0.960 . S
H629 C615 0.961 . S
H630 C615 0.961 . S
H631 C615 0.961 . S
H632 C616 0.931 . S
H633 C621 0.930 . S
H634 C622 0.956 . S
H635 C622 0.961 . S
H636 C622 0.961 . S
H637 C623 0.958 . S
H638 C623 0.961 . S
H639 C623 0.960 . S
C640 C641 1.391 . S
C640 C642 1.394 . S
C640 H656 0.931 . S
C641 C640 1.391 . S
C641 C645 1.376 1_565 S
C642 C640 1.394 . S
C642 C643 1.369 1_565 S
C642 C646 1.531 . S
C643 C642 1.369 1_545 S
C643 C644 1.410 . S
C643 C651 1.503 . S
C644 C643 1.410 . S
C644 C645 1.392 . S
C644 C647 1.511 . S
C645 C641 1.376 1_545 S
C645 C644 1.392 . S
C645 H657 0.929 . S
C646 C642 1.531 . S
C646 H658 0.960 . S
C646 H659 0.962 . S
C646 H660 0.960 . S
C647 C644 1.511 . S
C647 H661 0.961 . S
C647 H662 0.961 . S
C647 H663 0.961 . S
C648 C649 1.370 . S
C648 C650 1.363 . S
C648 H664 0.931 . S
C649 C648 1.370 . S
C649 C653 1.408 1_545 S
C650 C648 1.363 . S
C650 C651 1.370 . S
C650 C654 1.524 . S
C651 C643 1.503 . S
C651 C650 1.370 . S
C651 C652 1.403 1_545 S
C652 C651 1.403 1_565 S
C652 C653 1.404 . S
C652 C655 1.539 . S
C653 C649 1.408 1_565 S
C653 C652 1.404 . S
C653 H665 0.930 . S
C654 C650 1.524 . S
C654 H666 0.956 . S
C654 H667 0.961 . S
C654 H668 0.961 . S
C655 C652 1.539 . S
C655 H669 0.958 . S
C655 H670 0.961 . S
C655 H671 0.960 . S
H656 C640 0.931 . S
H657 C645 0.929 . S
H658 C646 0.960 . S
H659 C646 0.962 . S
H660 C646 0.960 . S
H661 C647 0.961 . S
H662 C647 0.961 . S
H663 C647 0.961 . S
H664 C648 0.931 . S
H665 C653 0.930 . S
H666 C654 0.956 . S
H667 C654 0.961 . S
H668 C654 0.961 . S
H669 C655 0.958 . S
H670 C655 0.961 . S
H671 C655 0.960 . S
C672 C673 1.391 . S
C672 C674 1.393 . S
C672 H688 0.931 1_455 S
C673 C672 1.391 . S
C673 C677 1.376 . S
C674 C672 1.393 . S
C674 C675 1.366 . S
C674 C678 1.534 1_455 S
C675 C674 1.366 . S
C675 C676 1.410 . S
C675 C683 1.503 . S
C676 C675 1.410 . S
C676 C677 1.392 . S
C676 C679 1.511 . S
C677 C673 1.376 . S
C677 C676 1.392 . S
C677 H689 0.929 . S
C678 C674 1.534 1_655 S
C678 H690 0.960 . S
C678 H691 0.962 . S
C678 H692 0.960 . S
C679 C676 1.511 . S
C679 H693 0.961 . S
C679 H694 0.961 . S
C679 H695 0.961 . S
C680 C681 1.370 . S
C680 C682 1.363 . S
C680 H696 0.931 . S
C681 C680 1.370 . S
C681 C685 1.408 . S
C682 C680 1.363 . S
C682 C683 1.370 . S
C682 C686 1.524 . S
C683 C675 1.503 . S
C683 C682 1.370 . S
C683 C684 1.403 . S
C684 C683 1.403 . S
C684 C685 1.404 . S
C684 C687 1.539 . S
C685 C681 1.408 . S
C685 C684 1.404 . S
C685 H697 0.930 . S
C686 C682 1.524 . S
C686 H698 0.956 1_455 S
C686 H699 0.961 . S
C686 H700 0.961 . S
C687 C684 1.539 . S
C687 H701 0.958 . S
C687 H702 0.961 . S
C687 H703 0.960 . S
H688 C672 0.931 1_655 S
H689 C677 0.929 . S
H690 C678 0.960 . S
H691 C678 0.962 . S
H692 C678 0.960 . S
H693 C679 0.961 . S
H694 C679 0.961 . S
H695 C679 0.961 . S
H696 C680 0.931 . S
H697 C685 0.930 . S
H698 C686 0.956 1_655 S
H699 C686 0.961 . S
H700 C686 0.961 . S
H701 C687 0.958 . S
H702 C687 0.961 . S
H703 C687 0.960 . S
C704 C705 1.391 . S
C704 C706 1.394 . S
C704 H720 0.931 . S
C705 C704 1.391 . S
C705 C709 1.376 1_556 S
C706 C704 1.394 . S
C706 C707 1.369 . S
C706 C710 1.531 . S
C707 C706 1.369 . S
C707 C708 1.406 1_556 S
C707 C715 1.503 . S
C708 C707 1.406 1_554 S
C708 C709 1.393 . S
C708 C711 1.515 . S
C709 C705 1.376 1_554 S
C709 C708 1.393 . S
C709 H721 0.929 . S
C710 C706 1.531 . S
C710 H722 0.960 . S
C710 H723 0.962 . S
C710 H724 0.960 . S
C711 C708 1.515 . S
C711 H725 0.961 . S
C711 H726 0.961 . S
C711 H727 0.961 . S
C712 C713 1.370 1_554 S
C712 C714 1.363 . S
C712 H728 0.931 . S
C713 C712 1.370 1_556 S
C713 C717 1.408 . S
C714 C712 1.363 . S
C714 C715 1.370 1_554 S
C714 C718 1.524 . S
C715 C707 1.503 . S
C715 C714 1.370 1_556 S
C715 C716 1.403 . S
C716 C715 1.403 . S
C716 C717 1.404 . S
C716 C719 1.539 . S
C717 C713 1.408 . S
C717 C716 1.404 . S
C717 H729 0.930 . S
C718 C714 1.524 . S
C718 H730 0.956 . S
C718 H731 0.961 . S
C718 H732 0.961 . S
C719 C716 1.539 . S
C719 H733 0.958 . S
C719 H734 0.961 . S
C719 H735 0.960 . S
H720 C704 0.931 . S
H721 C709 0.929 . S
H722 C710 0.960 . S
H723 C710 0.962 . S
H724 C710 0.960 . S
H725 C711 0.961 . S
H726 C711 0.961 . S
H727 C711 0.961 . S
H728 C712 0.931 . S
H729 C717 0.930 . S
H730 C718 0.956 . S
H731 C718 0.961 . S
H732 C718 0.961 . S
H733 C719 0.958 . S
H734 C719 0.961 . S
H735 C719 0.960 . S
C736 C737 1.391 . S
C736 C738 1.394 . S
C736 H752 0.931 . S
C737 C736 1.391 . S
C737 C741 1.376 . S
C738 C736 1.394 . S
C738 C739 1.369 . S
C738 C742 1.531 . S
C739 C738 1.369 . S
C739 C740 1.410 . S
C739 C747 1.503 . S
C740 C739 1.410 . S
C740 C741 1.392 . S
C740 C743 1.511 . S
C741 C737 1.376 . S
C741 C740 1.392 . S
C741 H753 0.929 . S
C742 C738 1.531 . S
C742 H754 0.960 . S
C742 H755 0.962 . S
C742 H756 0.960 . S
C743 C740 1.511 . S
C743 H757 0.961 . S
C743 H758 0.961 . S
C743 H759 0.961 . S
C744 C745 1.370 . S
C744 C746 1.363 . S
C744 H760 0.931 . S
C745 C744 1.370 . S
C745 C749 1.408 . S
C746 C744 1.363 . S
C746 C747 1.370 . S
C746 C750 1.524 . S
C747 C739 1.503 . S
C747 C746 1.370 . S
C747 C748 1.403 . S
C748 C747 1.403 . S
C748 C749 1.404 . S
C748 C751 1.539 . S
C749 C745 1.408 . S
C749 C748 1.404 . S
C749 H761 0.930 . S
C750 C746 1.524 . S
C750 H762 0.956 . S
C750 H763 0.961 . S
C750 H764 0.961 . S
C751 C748 1.539 . S
C751 H765 0.958 . S
C751 H766 0.961 . S
C751 H767 0.960 . S
H752 C736 0.931 . S
H753 C741 0.929 . S
H754 C742 0.960 . S
H755 C742 0.962 . S
H756 C742 0.960 . S
H757 C743 0.961 . S
H758 C743 0.961 . S
H759 C743 0.961 . S
H760 C744 0.931 . S
H761 C749 0.930 . S
H762 C750 0.956 . S
H763 C750 0.961 . S
H764 C750 0.961 . S
H765 C751 0.958 . S
H766 C751 0.961 . S
H767 C751 0.960 . S
C768 C769 1.391 . S
C768 C770 1.394 . S
C768 H784 0.931 . S
C769 C768 1.391 . S
C769 C773 1.376 . S
C770 C768 1.394 . S
C770 C771 1.369 . S
C770 C774 1.531 . S
C771 C770 1.369 . S
C771 C772 1.410 . S
C771 C779 1.503 . S
C772 C771 1.410 . S
C772 C773 1.392 . S
C772 C775 1.511 . S
C773 C769 1.376 . S
C773 C772 1.392 . S
C773 H785 0.929 . S
C774 C770 1.531 . S
C774 H786 0.960 . S
C774 H787 0.962 . S
C774 H788 0.960 . S
C775 C772 1.511 . S
C775 H789 0.961 . S
C775 H790 0.961 . S
C775 H791 0.961 . S
C776 C777 1.370 . S
C776 C778 1.363 . S
C776 H792 0.931 . S
C777 C776 1.370 . S
C777 C781 1.408 . S
C778 C776 1.363 . S
C778 C779 1.370 . S
C778 C782 1.524 . S
C779 C771 1.503 . S
C779 C778 1.370 . S
C779 C780 1.403 . S
C780 C779 1.403 . S
C780 C781 1.404 . S
C780 C783 1.539 . S
C781 C777 1.408 . S
C781 C780 1.404 . S
C781 H793 0.930 . S
C782 C778 1.524 . S
C782 H794 0.956 . S
C782 H795 0.961 . S
C782 H796 0.961 . S
C783 C780 1.539 . S
C783 H797 0.958 . S
C783 H798 0.961 . S
C783 H799 0.960 . S
H784 C768 0.931 . S
H785 C773 0.929 . S
H786 C774 0.960 . S
H787 C774 0.962 . S
H788 C774 0.960 . S
H789 C775 0.961 . S
H790 C775 0.961 . S
H791 C775 0.961 . S
H792 C776 0.931 . S
H793 C781 0.930 . S
H794 C782 0.956 . S
H795 C782 0.961 . S
H796 C782 0.961 . S
H797 C783 0.958 . S
H798 C783 0.961 . S
H799 C783 0.960 . S
C800 C801 1.391 . S
C800 C802 1.394 . S
C800 H816 0.931 . S
C801 C800 1.391 . S
C801 C805 1.376 . S
C802 C800 1.394 . S
C802 C803 1.369 . S
C802 C806 1.531 . S
C803 C802 1.369 . S
C803 C804 1.410 . S
C803 C811 1.503 . S
C804 C803 1.410 . S
C804 C805 1.392 . S
C804 C807 1.511 . S
C805 C801 1.376 . S
C805 C804 1.392 . S
C805 H817 0.929 . S
C806 C802 1.531 . S
C806 H818 0.960 . S
C806 H819 0.962 . S
C806 H820 0.960 . S
C807 C804 1.511 . S
C807 H821 0.961 . S
C807 H822 0.961 . S
C807 H823 0.961 . S
C808 C809 1.370 . S
C808 C810 1.363 . S
C808 H824 0.931 . S
C809 C808 1.370 . S
C809 C813 1.408 . S
C810 C808 1.363 . S
C810 C811 1.370 . S
C810 C814 1.524 . S
C811 C803 1.503 . S
C811 C810 1.370 . S
C811 C812 1.403 . S
C812 C811 1.403 . S
C812 C813 1.404 . S
C812 C815 1.539 . S
C813 C809 1.408 . S
C813 C812 1.404 . S
C813 H825 0.930 . S
C814 C810 1.524 . S
C814 H826 0.956 . S
C814 H827 0.961 . S
C814 H828 0.961 . S
C815 C812 1.539 . S
C815 H829 0.958 . S
C815 H830 0.961 . S
C815 H831 0.960 . S
H816 C800 0.931 . S
H817 C805 0.929 . S
H818 C806 0.960 . S
H819 C806 0.962 . S
H820 C806 0.960 . S
H821 C807 0.961 . S
H822 C807 0.961 . S
H823 C807 0.961 . S
H824 C808 0.931 . S
H825 C813 0.930 . S
H826 C814 0.956 . S
H827 C814 0.961 . S
H828 C814 0.961 . S
H829 C815 0.958 . S
H830 C815 0.961 . S
H831 C815 0.960 . S
C832 C833 1.391 . S
C832 C834 1.394 . S
C832 H848 0.931 . S
C833 C832 1.391 . S
C833 C837 1.376 . S
C834 C832 1.394 . S
C834 C835 1.369 . S
C834 C838 1.531 . S
C835 C834 1.369 . S
C835 C836 1.410 . S
C835 C843 1.503 . S
C836 C835 1.410 . S
C836 C837 1.392 . S
C836 C839 1.511 . S
C837 C833 1.376 . S
C837 C836 1.392 . S
C837 H849 0.929 . S
C838 C834 1.531 . S
C838 H850 0.960 . S
C838 H851 0.962 . S
C838 H852 0.960 . S
C839 C836 1.511 . S
C839 H853 0.961 . S
C839 H854 0.961 . S
C839 H855 0.961 . S
C840 C841 1.370 . S
C840 C842 1.363 . S
C840 H856 0.931 . S
C841 C840 1.370 . S
C841 C845 1.408 . S
C842 C840 1.363 . S
C842 C843 1.370 . S
C842 C846 1.524 . S
C843 C835 1.503 . S
C843 C842 1.370 . S
C843 C844 1.403 . S
C844 C843 1.403 . S
C844 C845 1.404 . S
C844 C847 1.539 . S
C845 C841 1.408 . S
C845 C844 1.404 . S
C845 H857 0.930 . S
C846 C842 1.524 . S
C846 H858 0.956 . S
C846 H859 0.961 . S
C846 H860 0.961 . S
C847 C844 1.539 . S
C847 H861 0.958 . S
C847 H862 0.961 . S
C847 H863 0.960 . S
H848 C832 0.931 . S
H849 C837 0.929 . S
H850 C838 0.960 . S
H851 C838 0.962 . S
H852 C838 0.960 . S
H853 C839 0.961 . S
H854 C839 0.961 . S
H855 C839 0.961 . S
H856 C840 0.931 . S
H857 C845 0.930 . S
H858 C846 0.956 . S
H859 C846 0.961 . S
H860 C846 0.961 . S
H861 C847 0.958 . S
H862 C847 0.961 . S
H863 C847 0.960 . S
C864 C865 1.391 . S
C864 C866 1.394 . S
C864 H880 0.931 . S
C865 C864 1.391 . S
C865 C869 1.376 . S
C866 C864 1.394 . S
C866 C867 1.369 . S
C866 C870 1.531 . S
C867 C866 1.369 . S
C867 C868 1.410 . S
C867 C875 1.503 . S
C868 C867 1.410 . S
C868 C869 1.392 . S
C868 C871 1.511 . S
C869 C865 1.376 . S
C869 C868 1.392 . S
C869 H881 0.929 . S
C870 C866 1.531 . S
C870 H882 0.960 . S
C870 H883 0.962 . S
C870 H884 0.960 . S
C871 C868 1.511 . S
C871 H885 0.961 . S
C871 H886 0.961 . S
C871 H887 0.961 . S
C872 C873 1.370 . S
C872 C874 1.363 . S
C872 H888 0.931 . S
C873 C872 1.370 . S
C873 C877 1.408 . S
C874 C872 1.363 . S
C874 C875 1.370 . S
C874 C878 1.524 . S
C875 C867 1.503 . S
C875 C874 1.370 . S
C875 C876 1.403 . S
C876 C875 1.403 . S
C876 C877 1.404 . S
C876 C879 1.539 . S
C877 C873 1.408 . S
C877 C876 1.404 . S
C877 H889 0.930 . S
C878 C874 1.524 . S
C878 H890 0.956 . S
C878 H891 0.961 . S
C878 H892 0.961 . S
C879 C876 1.539 . S
C879 H893 0.958 . S
C879 H894 0.961 . S
C879 H895 0.960 . S
H880 C864 0.931 . S
H881 C869 0.929 . S
H882 C870 0.960 . S
H883 C870 0.962 . S
H884 C870 0.960 . S
H885 C871 0.961 . S
H886 C871 0.961 . S
H887 C871 0.961 . S
H888 C872 0.931 . S
H889 C877 0.930 . S
H890 C878 0.956 . S
H891 C878 0.961 . S
H892 C878 0.961 . S
H893 C879 0.958 . S
H894 C879 0.961 . S
H895 C879 0.960 . S
C896 C897 1.391 . S
C896 C898 1.394 . S
C896 H912 0.931 . S
C897 C896 1.391 . S
C897 C901 1.376 . S
C898 C896 1.394 . S
C898 C899 1.369 . S
C898 C902 1.531 . S
C899 C898 1.369 . S
C899 C900 1.410 . S
C899 C907 1.503 . S
C900 C899 1.410 . S
C900 C901 1.392 . S
C900 C903 1.511 . S
C901 C897 1.376 . S
C901 C900 1.392 . S
C901 H913 0.929 . S
C902 C898 1.531 . S
C902 H914 0.960 . S
C902 H915 0.962 . S
C902 H916 0.960 . S
C903 C900 1.511 . S
C903 H917 0.961 . S
C903 H918 0.961 . S
C903 H919 0.961 . S
C904 C905 1.370 . S
C904 C906 1.363 . S
C904 H920 0.931 . S
C905 C904 1.370 . S
C905 C909 1.408 . S
C906 C904 1.363 . S
C906 C907 1.370 . S
C906 C910 1.524 . S
C907 C899 1.503 . S
C907 C906 1.370 . S
C907 C908 1.403 . S
C908 C907 1.403 . S
C908 C909 1.404 . S
C908 C911 1.539 . S
C909 C905 1.408 . S
C909 C908 1.404 . S
C909 H921 0.930 . S
C910 C906 1.524 . S
C910 H922 0.956 . S
C910 H923 0.961 . S
C910 H924 0.961 . S
C911 C908 1.539 . S
C911 H925 0.958 . S
C911 H926 0.961 . S
C911 H927 0.960 . S
H912 C896 0.931 . S
H913 C901 0.929 . S
H914 C902 0.960 . S
H915 C902 0.962 . S
H916 C902 0.960 . S
H917 C903 0.961 . S
H918 C903 0.961 . S
H919 C903 0.961 . S
H920 C904 0.931 . S
H921 C909 0.930 . S
H922 C910 0.956 . S
H923 C910 0.961 . S
H924 C910 0.961 . S
H925 C911 0.958 . S
H926 C911 0.961 . S
H927 C911 0.960 . S
C928 C929 1.391 . S
C928 C930 1.394 . S
C928 H944 0.931 . S
C929 C928 1.391 . S
C929 C933 1.376 . S
C930 C928 1.394 . S
C930 C931 1.369 . S
C930 C934 1.531 . S
C931 C930 1.369 . S
C931 C932 1.410 . S
C931 C939 1.503 . S
C932 C931 1.410 . S
C932 C933 1.392 . S
C932 C935 1.511 . S
C933 C929 1.376 . S
C933 C932 1.392 . S
C933 H945 0.929 . S
C934 C930 1.531 . S
C934 H946 0.960 . S
C934 H947 0.962 . S
C934 H948 0.960 . S
C935 C932 1.511 . S
C935 H949 0.961 . S
C935 H950 0.961 . S
C935 H951 0.961 . S
C936 C937 1.370 . S
C936 C938 1.363 . S
C936 H952 0.931 . S
C937 C936 1.370 . S
C937 C941 1.408 . S
C938 C936 1.363 . S
C938 C939 1.370 . S
C938 C942 1.524 . S
C939 C931 1.503 . S
C939 C938 1.370 . S
C939 C940 1.403 . S
C940 C939 1.403 . S
C940 C941 1.404 . S
C940 C943 1.539 . S
C941 C937 1.408 . S
C941 C940 1.404 . S
C941 H953 0.930 . S
C942 C938 1.524 . S
C942 H954 0.956 . S
C942 H955 0.961 . S
C942 H956 0.961 . S
C943 C940 1.539 . S
C943 H957 0.958 . S
C943 H958 0.961 . S
C943 H959 0.960 . S
H944 C928 0.931 . S
H945 C933 0.929 . S
H946 C934 0.960 . S
H947 C934 0.962 . S
H948 C934 0.960 . S
H949 C935 0.961 . S
H950 C935 0.961 . S
H951 C935 0.961 . S
H952 C936 0.931 . S
H953 C941 0.930 . S
H954 C942 0.956 . S
H955 C942 0.961 . S
H956 C942 0.961 . S
H957 C943 0.958 . S
H958 C943 0.961 . S
H959 C943 0.960 . S
C960 C961 1.391 . S
C960 C962 1.394 . S
C960 H976 0.931 . S
C961 C960 1.391 . S
C961 C965 1.376 . S
C962 C960 1.394 . S
C962 C963 1.369 . S
C962 C966 1.531 . S
C963 C962 1.369 . S
C963 C964 1.410 . S
C963 C971 1.503 . S
C964 C963 1.410 . S
C964 C965 1.392 . S
C964 C967 1.511 . S
C965 C961 1.376 . S
C965 C964 1.392 . S
C965 H977 0.929 . S
C966 C962 1.531 . S
C966 H978 0.960 . S
C966 H979 0.962 . S
C966 H980 0.960 . S
C967 C964 1.511 . S
C967 H981 0.961 . S
C967 H982 0.961 . S
C967 H983 0.961 . S
C968 C969 1.370 . S
C968 C970 1.363 . S
C968 H984 0.931 . S
C969 C968 1.370 . S
C969 C973 1.408 . S
C970 C968 1.363 . S
C970 C971 1.370 . S
C970 C974 1.524 . S
C971 C963 1.503 . S
C971 C970 1.370 . S
C971 C972 1.403 . S
C972 C971 1.403 . S
C972 C973 1.404 . S
C972 C975 1.539 . S
C973 C969 1.408 . S
C973 C972 1.404 . S
C973 H985 0.930 . S
C974 C970 1.524 . S
C974 H986 0.956 . S
C974 H987 0.961 . S
C974 H988 0.961 . S
C975 C972 1.539 . S
C975 H989 0.958 . S
C975 H990 0.961 . S
C975 H991 0.960 . S
H976 C960 0.931 . S
H977 C965 0.929 . S
H978 C966 0.960 . S
H979 C966 0.962 . S
H980 C966 0.960 . S
H981 C967 0.961 . S
H982 C967 0.961 . S
H983 C967 0.961 . S
H984 C968 0.931 . S
H985 C973 0.930 . S
H986 C974 0.956 . S
H987 C974 0.961 . S
H988 C974 0.961 . S
H989 C975 0.958 . S
H990 C975 0.961 . S
H991 C975 0.960 . S
C992 C993 1.391 . S
C992 C994 1.394 . S
C992 H1008 0.931 . S
C993 C992 1.391 . S
C993 C997 1.376 1_655 S
C994 C992 1.394 . S
C994 C995 1.369 . S
C994 C998 1.531 . S
C995 C994 1.369 . S
C995 C996 1.410 1_655 S
C995 C1003 1.503 . S
C996 C995 1.410 1_455 S
C996 C997 1.392 . S
C996 C999 1.511 . S
C997 C993 1.376 1_455 S
C997 C996 1.392 . S
C997 H1009 0.929 . S
C998 C994 1.531 . S
C998 H1010 0.960 . S
C998 H1011 0.962 . S
C998 H1012 0.960 . S
C999 C996 1.511 . S
C999 H1013 0.961 . S
C999 H1014 0.961 . S
C999 H1015 0.961 . S
C1000 C1001 1.370 . S
C1000 C1002 1.363 . S
C1000 H1016 0.931 . S
C1001 C1000 1.370 . S
C1001 C1005 1.408 . S
C1002 C1000 1.363 . S
C1002 C1003 1.370 . S
C1002 C1006 1.524 . S
C1003 C995 1.503 . S
C1003 C1002 1.370 . S
C1003 C1004 1.403 . S
C1004 C1003 1.403 . S
C1004 C1005 1.404 . S
C1004 C1007 1.539 . S
C1005 C1001 1.408 . S
C1005 C1004 1.404 . S
C1005 H1017 0.930 . S
C1006 C1002 1.524 . S
C1006 H1018 0.956 . S
C1006 H1019 0.961 1_655 S
C1006 H1020 0.961 . S
C1007 C1004 1.539 . S
C1007 H1021 0.958 . S
C1007 H1022 0.961 . S
C1007 H1023 0.960 . S
H1008 C992 0.931 . S
H1009 C997 0.929 . S
H1010 C998 0.960 . S
H1011 C998 0.962 . S
H1012 C998 0.960 . S
H1013 C999 0.961 . S
H1014 C999 0.961 . S
H1015 C999 0.961 . S
H1016 C1000 0.931 . S
H1017 C1005 0.930 . S
H1018 C1006 0.956 . S
H1019 C1006 0.961 1_455 S
H1020 C1006 0.961 . S
H1021 C1007 0.958 . S
H1022 C1007 0.961 . S
H1023 C1007 0.960 . S
C1024 C1025 1.391 . S
C1024 C1026 1.394 . S
C1024 H1040 0.931 . S
C1025 C1024 1.391 . S
C1025 C1029 1.376 . S
C1026 C1024 1.394 . S
C1026 C1027 1.369 . S
C1026 C1030 1.531 . S
C1027 C1026 1.369 . S
C1027 C1028 1.410 . S
C1027 C1035 1.503 . S
C1028 C1027 1.410 . S
C1028 C1029 1.392 . S
C1028 C1031 1.511 . S
C1029 C1025 1.376 . S
C1029 C1028 1.392 . S
C1029 H1041 0.929 . S
C1030 C1026 1.531 . S
C1030 H1042 0.960 . S
C1030 H1043 0.962 . S
C1030 H1044 0.960 . S
C1031 C1028 1.511 . S
C1031 H1045 0.961 . S
C1031 H1046 0.961 . S
C1031 H1047 0.961 . S
C1032 C1033 1.370 . S
C1032 C1034 1.363 . S
C1032 H1048 0.931 . S
C1033 C1032 1.370 . S
C1033 C1037 1.408 . S
C1034 C1032 1.363 . S
C1034 C1035 1.370 . S
C1034 C1038 1.524 . S
C1035 C1027 1.503 . S
C1035 C1034 1.370 . S
C1035 C1036 1.403 . S
C1036 C1035 1.403 . S
C1036 C1037 1.404 . S
C1036 C1039 1.539 . S
C1037 C1033 1.408 . S
C1037 C1036 1.404 . S
C1037 H1049 0.930 . S
C1038 C1034 1.524 . S
C1038 H1050 0.956 . S
C1038 H1051 0.961 . S
C1038 H1052 0.961 . S
C1039 C1036 1.539 . S
C1039 H1053 0.958 . S
C1039 H1054 0.961 . S
C1039 H1055 0.960 . S
H1040 C1024 0.931 . S
H1041 C1029 0.929 . S
H1042 C1030 0.960 . S
H1043 C1030 0.962 . S
H1044 C1030 0.960 . S
H1045 C1031 0.961 . S
H1046 C1031 0.961 . S
H1047 C1031 0.961 . S
H1048 C1032 0.931 . S
H1049 C1037 0.930 . S
H1050 C1038 0.956 . S
H1051 C1038 0.961 . S
H1052 C1038 0.961 . S
H1053 C1039 0.958 . S
H1054 C1039 0.961 . S
H1055 C1039 0.960 . S
C1056 C1057 1.391 . S
C1056 C1058 1.394 . S
C1056 H1072 0.931 . S
C1057 C1056 1.391 . S
C1057 C1061 1.376 . S
C1058 C1056 1.394 . S
C1058 C1059 1.369 . S
C1058 C1062 1.531 . S
C1059 C1058 1.369 . S
C1059 C1060 1.410 . S
C1059 C1067 1.503 . S
C1060 C1059 1.410 . S
C1060 C1061 1.392 . S
C1060 C1063 1.511 . S
C1061 C1057 1.376 . S
C1061 C1060 1.392 . S
C1061 H1073 0.929 . S
C1062 C1058 1.531 . S
C1062 H1074 0.960 . S
C1062 H1075 0.962 . S
C1062 H1076 0.960 . S
C1063 C1060 1.511 . S
C1063 H1077 0.961 . S
C1063 H1078 0.961 . S
C1063 H1079 0.961 . S
C1064 C1065 1.370 . S
C1064 C1066 1.363 . S
C1064 H1080 0.931 . S
C1065 C1064 1.370 . S
C1065 C1069 1.408 . S
C1066 C1064 1.363 . S
C1066 C1067 1.370 . S
C1066 C1070 1.524 . S
C1067 C1059 1.503 . S
C1067 C1066 1.370 . S
C1067 C1068 1.403 . S
C1068 C1067 1.403 . S
C1068 C1069 1.404 . S
C1068 C1071 1.539 . S
C1069 C1065 1.408 . S
C1069 C1068 1.404 . S
C1069 H1081 0.930 . S
C1070 C1066 1.524 . S
C1070 H1082 0.956 . S
C1070 H1083 0.961 . S
C1070 H1084 0.961 . S
C1071 C1068 1.539 . S
C1071 H1085 0.958 . S
C1071 H1086 0.961 . S
C1071 H1087 0.960 . S
H1072 C1056 0.931 . S
H1073 C1061 0.929 . S
H1074 C1062 0.960 . S
H1075 C1062 0.962 . S
H1076 C1062 0.960 . S
H1077 C1063 0.961 . S
H1078 C1063 0.961 . S
H1079 C1063 0.961 . S
H1080 C1064 0.931 . S
H1081 C1069 0.930 . S
H1082 C1070 0.956 . S
H1083 C1070 0.961 . S
H1084 C1070 0.961 . S
H1085 C1071 0.958 . S
H1086 C1071 0.961 . S
H1087 C1071 0.960 . S
C1088 C1089 1.391 . S
C1088 C1090 1.394 . S
C1088 H1104 0.931 . S
C1089 C1088 1.391 . S
C1089 C1093 1.376 . S
C1090 C1088 1.394 . S
C1090 C1091 1.369 . S
C1090 C1094 1.531 . S
C1091 C1090 1.369 . S
C1091 C1092 1.410 . S
C1091 C1099 1.503 . S
C1092 C1091 1.410 . S
C1092 C1093 1.392 . S
C1092 C1095 1.511 . S
C1093 C1089 1.376 . S
C1093 C1092 1.392 . S
C1093 H1105 0.929 . S
C1094 C1090 1.531 . S
C1094 H1106 0.960 . S
C1094 H1107 0.962 . S
C1094 H1108 0.960 . S
C1095 C1092 1.511 . S
C1095 H1109 0.961 . S
C1095 H1110 0.961 . S
C1095 H1111 0.961 . S
C1096 C1097 1.370 . S
C1096 C1098 1.363 . S
C1096 H1112 0.931 . S
C1097 C1096 1.370 . S
C1097 C1101 1.408 . S
C1098 C1096 1.363 . S
C1098 C1099 1.370 . S
C1098 C1102 1.524 . S
C1099 C1091 1.503 . S
C1099 C1098 1.370 . S
C1099 C1100 1.403 . S
C1100 C1099 1.403 . S
C1100 C1101 1.404 . S
C1100 C1103 1.539 . S
C1101 C1097 1.408 . S
C1101 C1100 1.404 . S
C1101 H1113 0.930 . S
C1102 C1098 1.524 . S
C1102 H1114 0.956 . S
C1102 H1115 0.961 . S
C1102 H1116 0.961 . S
C1103 C1100 1.539 . S
C1103 H1117 0.958 . S
C1103 H1118 0.961 . S
C1103 H1119 0.960 . S
H1104 C1088 0.931 . S
H1105 C1093 0.929 . S
H1106 C1094 0.960 . S
H1107 C1094 0.962 . S
H1108 C1094 0.960 . S
H1109 C1095 0.961 . S
H1110 C1095 0.961 . S
H1111 C1095 0.961 . S
H1112 C1096 0.931 . S
H1113 C1101 0.930 . S
H1114 C1102 0.956 . S
H1115 C1102 0.961 . S
H1116 C1102 0.961 . S
H1117 C1103 0.958 . S
H1118 C1103 0.961 . S
H1119 C1103 0.960 . S
C1120 C1121 1.391 . S
C1120 C1122 1.394 . S
C1120 H1136 0.931 . S
C1121 C1120 1.391 . S
C1121 C1125 1.376 . S
C1122 C1120 1.394 . S
C1122 C1123 1.369 . S
C1122 C1126 1.531 . S
C1123 C1122 1.369 . S
C1123 C1124 1.410 . S
C1123 C1131 1.503 . S
C1124 C1123 1.410 . S
C1124 C1125 1.392 . S
C1124 C1127 1.511 . S
C1125 C1121 1.376 . S
C1125 C1124 1.392 . S
C1125 H1137 0.929 . S
C1126 C1122 1.531 . S
C1126 H1138 0.960 . S
C1126 H1139 0.962 . S
C1126 H1140 0.960 . S
C1127 C1124 1.511 . S
C1127 H1141 0.961 . S
C1127 H1142 0.961 . S
C1127 H1143 0.961 . S
C1128 C1129 1.370 . S
C1128 C1130 1.363 . S
C1128 H1144 0.931 . S
C1129 C1128 1.370 . S
C1129 C1133 1.408 . S
C1130 C1128 1.363 . S
C1130 C1131 1.370 . S
C1130 C1134 1.524 . S
C1131 C1123 1.503 . S
C1131 C1130 1.370 . S
C1131 C1132 1.403 . S
C1132 C1131 1.403 . S
C1132 C1133 1.404 . S
C1132 C1135 1.539 . S
C1133 C1129 1.408 . S
C1133 C1132 1.404 . S
C1133 H1145 0.930 . S
C1134 C1130 1.524 . S
C1134 H1146 0.956 . S
C1134 H1147 0.961 . S
C1134 H1148 0.961 . S
C1135 C1132 1.539 . S
C1135 H1149 0.958 . S
C1135 H1150 0.961 . S
C1135 H1151 0.960 . S
H1136 C1120 0.931 . S
H1137 C1125 0.929 . S
H1138 C1126 0.960 . S
H1139 C1126 0.962 . S
H1140 C1126 0.960 . S
H1141 C1127 0.961 . S
H1142 C1127 0.961 . S
H1143 C1127 0.961 . S
H1144 C1128 0.931 . S
H1145 C1133 0.930 . S
H1146 C1134 0.956 . S
H1147 C1134 0.961 . S
H1148 C1134 0.961 . S
H1149 C1135 0.958 . S
H1150 C1135 0.961 . S
H1151 C1135 0.960 . S
C1152 C1153 1.391 1_565 S
C1152 C1154 1.394 1_565 S
C1152 H1168 0.931 . S
C1153 C1152 1.391 1_545 S
C1153 C1157 1.376 . S
C1154 C1152 1.394 1_545 S
C1154 C1155 1.369 . S
C1154 C1158 1.531 1_545 S
C1155 C1154 1.369 . S
C1155 C1156 1.410 . S
C1155 C1163 1.503 . S
C1156 C1155 1.410 . S
C1156 C1157 1.392 . S
C1156 C1159 1.511 . S
C1157 C1153 1.376 . S
C1157 C1156 1.392 . S
C1157 H1169 0.929 . S
C1158 C1154 1.531 1_565 S
C1158 H1170 0.960 . S
C1158 H1171 0.962 1_565 S
C1158 H1172 0.960 . S
C1159 C1156 1.511 . S
C1159 H1173 0.961 . S
C1159 H1174 0.961 . S
C1159 H1175 0.961 . S
C1160 C1161 1.370 . S
C1160 C1162 1.363 . S
C1160 H1176 0.931 . S
C1161 C1160 1.370 . S
C1161 C1165 1.408 . S
C1162 C1160 1.363 . S
C1162 C1163 1.370 . S
C1162 C1166 1.524 . S
C1163 C1155 1.503 . S
C1163 C1162 1.370 . S
C1163 C1164 1.403 . S
C1164 C1163 1.403 . S
C1164 C1165 1.404 . S
C1164 C1167 1.539 1_545 S
C1165 C1161 1.408 . S
C1165 C1164 1.404 . S
C1165 H1177 0.930 . S
C1166 C1162 1.524 . S
C1166 H1178 0.956 . S
C1166 H1179 0.961 . S
C1166 H1180 0.961 . S
C1167 C1164 1.539 1_565 S
C1167 H1181 0.958 . S
C1167 H1182 0.961 . S
C1167 H1183 0.960 . S
H1168 C1152 0.931 . S
H1169 C1157 0.929 . S
H1170 C1158 0.960 . S
H1171 C1158 0.962 1_545 S
H1172 C1158 0.960 . S
H1173 C1159 0.961 . S
H1174 C1159 0.961 . S
H1175 C1159 0.961 . S
H1176 C1160 0.931 . S
H1177 C1165 0.930 . S
H1178 C1166 0.956 . S
H1179 C1166 0.961 . S
H1180 C1166 0.961 . S
H1181 C1167 0.958 . S
H1182 C1167 0.961 . S
H1183 C1167 0.960 . S
C1184 C1185 1.391 1_556 S
C1184 C1186 1.394 . S
C1184 H1200 0.931 . S
C1185 C1184 1.391 1_554 S
C1185 C1189 1.376 . S
C1186 C1184 1.394 . S
C1186 C1187 1.369 1_556 S
C1186 C1190 1.531 . S
C1187 C1186 1.369 1_554 S
C1187 C1188 1.410 . S
C1187 C1195 1.503 . S
C1188 C1187 1.410 . S
C1188 C1189 1.392 . S
C1188 C1191 1.511 . S
C1189 C1185 1.376 . S
C1189 C1188 1.392 . S
C1189 H1201 0.929 . S
C1190 C1186 1.531 . S
C1190 H1202 0.960 . S
C1190 H1203 0.962 . S
C1190 H1204 0.960 . S
C1191 C1188 1.511 . S
C1191 H1205 0.961 . S
C1191 H1206 0.961 . S
C1191 H1207 0.961 . S
C1192 C1193 1.370 . S
C1192 C1194 1.363 . S
C1192 H1208 0.931 . S
C1193 C1192 1.370 . S
C1193 C1197 1.408 . S
C1194 C1192 1.363 . S
C1194 C1195 1.370 . S
C1194 C1198 1.524 . S
C1195 C1187 1.503 . S
C1195 C1194 1.370 . S
C1195 C1196 1.403 . S
C1196 C1195 1.403 . S
C1196 C1197 1.404 . S
C1196 C1199 1.539 1_554 S
C1197 C1193 1.408 . S
C1197 C1196 1.404 . S
C1197 H1209 0.930 1_554 S
C1198 C1194 1.524 . S
C1198 H1210 0.956 . S
C1198 H1211 0.961 . S
C1198 H1212 0.961 . S
C1199 C1196 1.539 1_556 S
C1199 H1213 0.958 . S
C1199 H1214 0.961 1_556 S
C1199 H1215 0.960 1_556 S
H1200 C1184 0.931 . S
H1201 C1189 0.929 . S
H1202 C1190 0.960 . S
H1203 C1190 0.962 . S
H1204 C1190 0.960 . S
H1205 C1191 0.961 . S
H1206 C1191 0.961 . S
H1207 C1191 0.961 . S
H1208 C1192 0.931 . S
H1209 C1197 0.930 1_556 S
H1210 C1198 0.956 . S
H1211 C1198 0.961 . S
H1212 C1198 0.961 . S
H1213 C1199 0.958 . S
H1214 C1199 0.961 1_554 S
H1215 C1199 0.960 1_554 S
C1216 C1217 1.391 . S
C1216 C1218 1.394 . S
C1216 H1232 0.931 . S
C1217 C1216 1.391 . S
C1217 C1221 1.376 . S
C1218 C1216 1.394 . S
C1218 C1219 1.369 . S
C1218 C1222 1.531 . S
C1219 C1218 1.369 . S
C1219 C1220 1.410 . S
C1219 C1227 1.503 . S
C1220 C1219 1.410 . S
C1220 C1221 1.392 . S
C1220 C1223 1.511 . S
C1221 C1217 1.376 . S
C1221 C1220 1.392 . S
C1221 H1233 0.929 . S
C1222 C1218 1.531 . S
C1222 H1234 0.960 . S
C1222 H1235 0.962 . S
C1222 H1236 0.960 . S
C1223 C1220 1.511 . S
C1223 H1237 0.961 . S
C1223 H1238 0.961 . S
C1223 H1239 0.961 . S
C1224 C1225 1.370 . S
C1224 C1226 1.363 . S
C1224 H1240 0.931 . S
C1225 C1224 1.370 . S
C1225 C1229 1.408 . S
C1226 C1224 1.363 . S
C1226 C1227 1.370 . S
C1226 C1230 1.524 . S
C1227 C1219 1.503 . S
C1227 C1226 1.370 . S
C1227 C1228 1.403 . S
C1228 C1227 1.403 . S
C1228 C1229 1.404 . S
C1228 C1231 1.539 . S
C1229 C1225 1.408 . S
C1229 C1228 1.404 . S
C1229 H1241 0.930 . S
C1230 C1226 1.524 . S
C1230 H1242 0.956 . S
C1230 H1243 0.961 . S
C1230 H1244 0.961 . S
C1231 C1228 1.539 . S
C1231 H1245 0.958 . S
C1231 H1246 0.961 . S
C1231 H1247 0.960 . S
H1232 C1216 0.931 . S
H1233 C1221 0.929 . S
H1234 C1222 0.960 . S
H1235 C1222 0.962 . S
H1236 C1222 0.960 . S
H1237 C1223 0.961 . S
H1238 C1223 0.961 . S
H1239 C1223 0.961 . S
H1240 C1224 0.931 . S
H1241 C1229 0.930 . S
H1242 C1230 0.956 . S
H1243 C1230 0.961 . S
H1244 C1230 0.961 . S
H1245 C1231 0.958 . S
H1246 C1231 0.961 . S
H1247 C1231 0.960 . S
C1248 C1249 1.391 . S
C1248 C1250 1.394 . S
C1248 H1264 0.931 . S
C1249 C1248 1.391 . S
C1249 C1253 1.376 . S
C1250 C1248 1.394 . S
C1250 C1251 1.369 . S
C1250 C1254 1.531 . S
C1251 C1250 1.369 . S
C1251 C1252 1.410 . S
C1251 C1259 1.503 . S
C1252 C1251 1.410 . S
C1252 C1253 1.392 . S
C1252 C1255 1.511 . S
C1253 C1249 1.376 . S
C1253 C1252 1.392 . S
C1253 H1265 0.929 . S
C1254 C1250 1.531 . S
C1254 H1266 0.960 . S
C1254 H1267 0.962 . S
C1254 H1268 0.960 . S
C1255 C1252 1.511 . S
C1255 H1269 0.961 . S
C1255 H1270 0.961 . S
C1255 H1271 0.961 . S
C1256 C1257 1.370 . S
C1256 C1258 1.363 . S
C1256 H1272 0.931 . S
C1257 C1256 1.370 . S
C1257 C1261 1.408 . S
C1258 C1256 1.363 . S
C1258 C1259 1.370 . S
C1258 C1262 1.524 . S
C1259 C1251 1.503 . S
C1259 C1258 1.370 . S
C1259 C1260 1.403 . S
C1260 C1259 1.403 . S
C1260 C1261 1.404 . S
C1260 C1263 1.539 . S
C1261 C1257 1.408 . S
C1261 C1260 1.404 . S
C1261 H1273 0.930 . S
C1262 C1258 1.524 . S
C1262 H1274 0.956 . S
C1262 H1275 0.961 . S
C1262 H1276 0.961 . S
C1263 C1260 1.539 . S
C1263 H1277 0.958 . S
C1263 H1278 0.961 . S
C1263 H1279 0.960 . S
H1264 C1248 0.931 . S
H1265 C1253 0.929 . S
H1266 C1254 0.960 . S
H1267 C1254 0.962 . S
H1268 C1254 0.960 . S
H1269 C1255 0.961 . S
H1270 C1255 0.961 . S
H1271 C1255 0.961 . S
H1272 C1256 0.931 . S
H1273 C1261 0.930 . S
H1274 C1262 0.956 . S
H1275 C1262 0.961 . S
H1276 C1262 0.961 . S
H1277 C1263 0.958 . S
H1278 C1263 0.961 . S
H1279 C1263 0.960 . S
C1280 C1281 1.391 . S
C1280 C1282 1.394 . S
C1280 H1296 0.931 . S
C1281 C1280 1.391 . S
C1281 C1285 1.376 . S
C1282 C1280 1.394 . S
C1282 C1283 1.369 . S
C1282 C1286 1.531 . S
C1283 C1282 1.369 . S
C1283 C1284 1.410 . S
C1283 C1291 1.503 . S
C1284 C1283 1.410 . S
C1284 C1285 1.392 . S
C1284 C1287 1.511 . S
C1285 C1281 1.376 . S
C1285 C1284 1.392 . S
C1285 H1297 0.929 . S
C1286 C1282 1.531 . S
C1286 H1298 0.960 . S
C1286 H1299 0.962 . S
C1286 H1300 0.960 . S
C1287 C1284 1.511 . S
C1287 H1301 0.961 . S
C1287 H1302 0.961 . S
C1287 H1303 0.961 . S
C1288 C1289 1.370 . S
C1288 C1290 1.363 . S
C1288 H1304 0.931 . S
C1289 C1288 1.370 . S
C1289 C1293 1.408 . S
C1290 C1288 1.363 . S
C1290 C1291 1.370 . S
C1290 C1294 1.524 . S
C1291 C1283 1.503 . S
C1291 C1290 1.370 . S
C1291 C1292 1.403 . S
C1292 C1291 1.403 . S
C1292 C1293 1.404 . S
C1292 C1295 1.539 . S
C1293 C1289 1.408 . S
C1293 C1292 1.404 . S
C1293 H1305 0.930 . S
C1294 C1290 1.524 . S
C1294 H1306 0.956 . S
C1294 H1307 0.961 . S
C1294 H1308 0.961 . S
C1295 C1292 1.539 . S
C1295 H1309 0.958 . S
C1295 H1310 0.961 . S
C1295 H1311 0.960 . S
H1296 C1280 0.931 . S
H1297 C1285 0.929 . S
H1298 C1286 0.960 . S
H1299 C1286 0.962 . S
H1300 C1286 0.960 . S
H1301 C1287 0.961 . S
H1302 C1287 0.961 . S
H1303 C1287 0.961 . S
H1304 C1288 0.931 . S
H1305 C1293 0.930 . S
H1306 C1294 0.956 . S
H1307 C1294 0.961 . S
H1308 C1294 0.961 . S
H1309 C1295 0.958 . S
H1310 C1295 0.961 . S
H1311 C1295 0.960 . S
C1312 C1313 1.391 . S
C1312 C1314 1.394 . S
C1312 H1328 0.931 . S
C1313 C1312 1.391 . S
C1313 C1317 1.376 . S
C1314 C1312 1.394 . S
C1314 C1315 1.369 . S
C1314 C1318 1.531 . S
C1315 C1314 1.369 . S
C1315 C1316 1.410 . S
C1315 C1323 1.503 . S
C1316 C1315 1.410 . S
C1316 C1317 1.392 . S
C1316 C1319 1.511 . S
C1317 C1313 1.376 . S
C1317 C1316 1.392 . S
C1317 H1329 0.929 . S
C1318 C1314 1.531 . S
C1318 H1330 0.960 . S
C1318 H1331 0.962 . S
C1318 H1332 0.960 . S
C1319 C1316 1.511 . S
C1319 H1333 0.961 . S
C1319 H1334 0.961 . S
C1319 H1335 0.961 . S
C1320 C1321 1.370 . S
C1320 C1322 1.363 . S
C1320 H1336 0.931 . S
C1321 C1320 1.370 . S
C1321 C1325 1.408 . S
C1322 C1320 1.363 . S
C1322 C1323 1.370 . S
C1322 C1326 1.524 . S
C1323 C1315 1.503 . S
C1323 C1322 1.370 . S
C1323 C1324 1.403 . S
C1324 C1323 1.403 . S
C1324 C1325 1.404 . S
C1324 C1327 1.539 . S
C1325 C1321 1.408 . S
C1325 C1324 1.404 . S
C1325 H1337 0.930 . S
C1326 C1322 1.524 . S
C1326 H1338 0.956 . S
C1326 H1339 0.961 . S
C1326 H1340 0.961 . S
C1327 C1324 1.539 . S
C1327 H1341 0.958 . S
C1327 H1342 0.961 . S
C1327 H1343 0.960 . S
H1328 C1312 0.931 . S
H1329 C1317 0.929 . S
H1330 C1318 0.960 . S
H1331 C1318 0.962 . S
H1332 C1318 0.960 . S
H1333 C1319 0.961 . S
H1334 C1319 0.961 . S
H1335 C1319 0.961 . S
H1336 C1320 0.931 . S
H1337 C1325 0.930 . S
H1338 C1326 0.956 . S
H1339 C1326 0.961 . S
H1340 C1326 0.961 . S
H1341 C1327 0.958 . S
H1342 C1327 0.961 . S
H1343 C1327 0.960 . S
C1344 C1345 1.391 . S
C1344 C1346 1.394 . S
C1344 H1360 0.931 . S
C1345 C1344 1.391 . S
C1345 C1349 1.376 . S
C1346 C1344 1.394 . S
C1346 C1347 1.369 . S
C1346 C1350 1.531 . S
C1347 C1346 1.369 . S
C1347 C1348 1.410 . S
C1347 C1355 1.503 . S
C1348 C1347 1.410 . S
C1348 C1349 1.392 . S
C1348 C1351 1.511 . S
C1349 C1345 1.376 . S
C1349 C1348 1.392 . S
C1349 H1361 0.929 . S
C1350 C1346 1.531 . S
C1350 H1362 0.960 . S
C1350 H1363 0.962 . S
C1350 H1364 0.960 . S
C1351 C1348 1.511 . S
C1351 H1365 0.961 . S
C1351 H1366 0.961 . S
C1351 H1367 0.961 . S
C1352 C1353 1.370 . S
C1352 C1354 1.363 . S
C1352 H1368 0.931 . S
C1353 C1352 1.370 . S
C1353 C1357 1.408 . S
C1354 C1352 1.363 . S
C1354 C1355 1.370 . S
C1354 C1358 1.524 . S
C1355 C1347 1.503 . S
C1355 C1354 1.370 . S
C1355 C1356 1.403 . S
C1356 C1355 1.403 . S
C1356 C1357 1.404 . S
C1356 C1359 1.539 . S
C1357 C1353 1.408 . S
C1357 C1356 1.404 . S
C1357 H1369 0.930 . S
C1358 C1354 1.524 . S
C1358 H1370 0.956 . S
C1358 H1371 0.961 . S
C1358 H1372 0.961 . S
C1359 C1356 1.539 . S
C1359 H1373 0.958 . S
C1359 H1374 0.961 . S
C1359 H1375 0.960 . S
H1360 C1344 0.931 . S
H1361 C1349 0.929 . S
H1362 C1350 0.960 . S
H1363 C1350 0.962 . S
H1364 C1350 0.960 . S
H1365 C1351 0.961 . S
H1366 C1351 0.961 . S
H1367 C1351 0.961 . S
H1368 C1352 0.931 . S
H1369 C1357 0.930 . S
H1370 C1358 0.956 . S
H1371 C1358 0.961 . S
H1372 C1358 0.961 . S
H1373 C1359 0.958 . S
H1374 C1359 0.961 . S
H1375 C1359 0.960 . S
C1376 C1377 1.391 . S
C1376 C1378 1.394 . S
C1376 H1392 0.931 . S
C1377 C1376 1.391 . S
C1377 C1381 1.376 . S
C1378 C1376 1.394 . S
C1378 C1379 1.369 . S
C1378 C1382 1.531 . S
C1379 C1378 1.369 . S
C1379 C1380 1.410 . S
C1379 C1387 1.503 . S
C1380 C1379 1.410 . S
C1380 C1381 1.392 . S
C1380 C1383 1.511 . S
C1381 C1377 1.376 . S
C1381 C1380 1.392 . S
C1381 H1393 0.929 . S
C1382 C1378 1.531 . S
C1382 H1394 0.960 . S
C1382 H1395 0.962 . S
C1382 H1396 0.960 . S
C1383 C1380 1.511 . S
C1383 H1397 0.961 . S
C1383 H1398 0.961 . S
C1383 H1399 0.961 . S
C1384 C1385 1.370 . S
C1384 C1386 1.363 . S
C1384 H1400 0.931 . S
C1385 C1384 1.370 . S
C1385 C1389 1.408 . S
C1386 C1384 1.363 . S
C1386 C1387 1.370 . S
C1386 C1390 1.524 . S
C1387 C1379 1.503 . S
C1387 C1386 1.370 . S
C1387 C1388 1.403 . S
C1388 C1387 1.403 . S
C1388 C1389 1.404 . S
C1388 C1391 1.539 . S
C1389 C1385 1.408 . S
C1389 C1388 1.404 . S
C1389 H1401 0.930 . S
C1390 C1386 1.524 . S
C1390 H1402 0.956 . S
C1390 H1403 0.961 . S
C1390 H1404 0.961 . S
C1391 C1388 1.539 . S
C1391 H1405 0.958 . S
C1391 H1406 0.961 . S
C1391 H1407 0.960 . S
H1392 C1376 0.931 . S
H1393 C1381 0.929 . S
H1394 C1382 0.960 . S
H1395 C1382 0.962 . S
H1396 C1382 0.960 . S
H1397 C1383 0.961 . S
H1398 C1383 0.961 . S
H1399 C1383 0.961 . S
H1400 C1384 0.931 . S
H1401 C1389 0.930 . S
H1402 C1390 0.956 . S
H1403 C1390 0.961 . S
H1404 C1390 0.961 . S
H1405 C1391 0.958 . S
H1406 C1391 0.961 . S
H1407 C1391 0.960 . S
C1408 C1409 1.391 . S
C1408 C1410 1.394 . S
C1408 H1424 0.931 . S
C1409 C1408 1.391 . S
C1409 C1413 1.376 . S
C1410 C1408 1.394 . S
C1410 C1411 1.369 . S
C1410 C1414 1.531 . S
C1411 C1410 1.369 . S
C1411 C1412 1.410 . S
C1411 C1419 1.503 . S
C1412 C1411 1.410 . S
C1412 C1413 1.392 . S
C1412 C1415 1.511 . S
C1413 C1409 1.376 . S
C1413 C1412 1.392 . S
C1413 H1425 0.929 . S
C1414 C1410 1.531 . S
C1414 H1426 0.960 . S
C1414 H1427 0.962 . S
C1414 H1428 0.960 . S
C1415 C1412 1.511 . S
C1415 H1429 0.961 . S
C1415 H1430 0.961 . S
C1415 H1431 0.961 . S
C1416 C1417 1.370 . S
C1416 C1418 1.363 . S
C1416 H1432 0.931 . S
C1417 C1416 1.370 . S
C1417 C1421 1.408 . S
C1418 C1416 1.363 . S
C1418 C1419 1.370 . S
C1418 C1422 1.524 . S
C1419 C1411 1.503 . S
C1419 C1418 1.370 . S
C1419 C1420 1.403 . S
C1420 C1419 1.403 . S
C1420 C1421 1.404 . S
C1420 C1423 1.539 . S
C1421 C1417 1.408 . S
C1421 C1420 1.404 . S
C1421 H1433 0.930 . S
C1422 C1418 1.524 . S
C1422 H1434 0.956 . S
C1422 H1435 0.961 . S
C1422 H1436 0.961 . S
C1423 C1420 1.539 . S
C1423 H1437 0.958 . S
C1423 H1438 0.961 . S
C1423 H1439 0.960 . S
H1424 C1408 0.931 . S
H1425 C1413 0.929 . S
H1426 C1414 0.960 . S
H1427 C1414 0.962 . S
H1428 C1414 0.960 . S
H1429 C1415 0.961 . S
H1430 C1415 0.961 . S
H1431 C1415 0.961 . S
H1432 C1416 0.931 . S
H1433 C1421 0.930 . S
H1434 C1422 0.956 . S
H1435 C1422 0.961 . S
H1436 C1422 0.961 . S
H1437 C1423 0.958 . S
H1438 C1423 0.961 . S
H1439 C1423 0.960 . S
C1440 C1441 1.391 . S
C1440 C1442 1.394 . S
C1440 H1456 0.931 . S
C1441 C1440 1.391 . S
C1441 C1445 1.376 . S
C1442 C1440 1.394 . S
C1442 C1443 1.369 . S
C1442 C1446 1.531 . S
C1443 C1442 1.369 . S
C1443 C1444 1.410 . S
C1443 C1451 1.503 . S
C1444 C1443 1.410 . S
C1444 C1445 1.392 . S
C1444 C1447 1.511 . S
C1445 C1441 1.376 . S
C1445 C1444 1.392 . S
C1445 H1457 0.929 . S
C1446 C1442 1.531 . S
C1446 H1458 0.960 . S
C1446 H1459 0.962 . S
C1446 H1460 0.960 . S
C1447 C1444 1.511 . S
C1447 H1461 0.961 . S
C1447 H1462 0.961 . S
C1447 H1463 0.961 . S
C1448 C1449 1.370 . S
C1448 C1450 1.363 . S
C1448 H1464 0.931 . S
C1449 C1448 1.370 . S
C1449 C1453 1.408 . S
C1450 C1448 1.363 . S
C1450 C1451 1.370 . S
C1450 C1454 1.524 . S
C1451 C1443 1.503 . S
C1451 C1450 1.370 . S
C1451 C1452 1.403 . S
C1452 C1451 1.403 . S
C1452 C1453 1.404 . S
C1452 C1455 1.539 . S
C1453 C1449 1.408 . S
C1453 C1452 1.404 . S
C1453 H1465 0.930 . S
C1454 C1450 1.524 . S
C1454 H1466 0.956 . S
C1454 H1467 0.961 . S
C1454 H1468 0.961 . S
C1455 C1452 1.539 . S
C1455 H1469 0.958 . S
C1455 H1470 0.961 . S
C1455 H1471 0.960 . S
H1456 C1440 0.931 . S
H1457 C1445 0.929 . S
H1458 C1446 0.960 . S
H1459 C1446 0.962 . S
H1460 C1446 0.960 . S
H1461 C1447 0.961 . S
H1462 C1447 0.961 . S
H1463 C1447 0.961 . S
H1464 C1448 0.931 . S
H1465 C1453 0.930 . S
H1466 C1454 0.956 . S
H1467 C1454 0.961 . S
H1468 C1454 0.961 . S
H1469 C1455 0.958 . S
H1470 C1455 0.961 . S
H1471 C1455 0.960 . S
C1472 C1473 1.391 . S
C1472 C1474 1.394 . S
C1472 H1488 0.931 . S
C1473 C1472 1.391 . S
C1473 C1477 1.376 . S
C1474 C1472 1.394 . S
C1474 C1475 1.369 . S
C1474 C1478 1.531 . S
C1475 C1474 1.369 . S
C1475 C1476 1.410 . S
C1475 C1483 1.503 . S
C1476 C1475 1.410 . S
C1476 C1477 1.392 . S
C1476 C1479 1.511 . S
C1477 C1473 1.376 . S
C1477 C1476 1.392 . S
C1477 H1489 0.929 . S
C1478 C1474 1.531 . S
C1478 H1490 0.960 . S
C1478 H1491 0.962 . S
C1478 H1492 0.960 . S
C1479 C1476 1.511 . S
C1479 H1493 0.961 . S
C1479 H1494 0.961 . S
C1479 H1495 0.961 . S
C1480 C1481 1.370 . S
C1480 C1482 1.363 . S
C1480 H1496 0.931 . S
C1481 C1480 1.370 . S
C1481 C1485 1.408 . S
C1482 C1480 1.363 . S
C1482 C1483 1.370 . S
C1482 C1486 1.524 . S
C1483 C1475 1.503 . S
C1483 C1482 1.370 . S
C1483 C1484 1.403 . S
C1484 C1483 1.403 . S
C1484 C1485 1.404 . S
C1484 C1487 1.539 . S
C1485 C1481 1.408 . S
C1485 C1484 1.404 . S
C1485 H1497 0.930 . S
C1486 C1482 1.524 . S
C1486 H1498 0.956 . S
C1486 H1499 0.961 . S
C1486 H1500 0.961 . S
C1487 C1484 1.539 . S
C1487 H1501 0.958 . S
C1487 H1502 0.961 . S
C1487 H1503 0.960 . S
H1488 C1472 0.931 . S
H1489 C1477 0.929 . S
H1490 C1478 0.960 . S
H1491 C1478 0.962 . S
H1492 C1478 0.960 . S
H1493 C1479 0.961 . S
H1494 C1479 0.961 . S
H1495 C1479 0.961 . S
H1496 C1480 0.931 . S
H1497 C1485 0.930 . S
H1498 C1486 0.956 . S
H1499 C1486 0.961 . S
H1500 C1486 0.961 . S
H1501 C1487 0.958 . S
H1502 C1487 0.961 . S
H1503 C1487 0.960 . S
C1504 C1505 1.391 . S
C1504 C1506 1.394 . S
C1504 H1520 0.931 . S
C1505 C1504 1.391 . S
C1505 C1509 1.376 . S
C1506 C1504 1.394 . S
C1506 C1507 1.369 . S
C1506 C1510 1.531 1_554 S
C1507 C1506 1.369 . S
C1507 C1508 1.410 . S
C1507 C1515 1.503 . S
C1508 C1507 1.410 . S
C1508 C1509 1.392 . S
C1508 C1511 1.511 . S
C1509 C1505 1.376 . S
C1509 C1508 1.392 . S
C1509 H1521 0.929 . S
C1510 C1506 1.531 1_556 S
C1510 H1522 0.960 . S
C1510 H1523 0.962 1_556 S
C1510 H1524 0.960 . S
C1511 C1508 1.511 . S
C1511 H1525 0.961 . S
C1511 H1526 0.961 . S
C1511 H1527 0.961 . S
C1512 C1513 1.370 . S
C1512 C1514 1.363 . S
C1512 H1528 0.931 . S
C1513 C1512 1.370 . S
C1513 C1517 1.408 1_554 S
C1514 C1512 1.363 . S
C1514 C1515 1.370 . S
C1514 C1518 1.524 . S
C1515 C1507 1.503 . S
C1515 C1514 1.370 . S
C1515 C1516 1.403 1_554 S
C1516 C1515 1.403 1_556 S
C1516 C1517 1.404 . S
C1516 C1519 1.539 . S
C1517 C1513 1.408 1_556 S
C1517 C1516 1.404 . S
C1517 H1529 0.930 . S
C1518 C1514 1.524 . S
C1518 H1530 0.956 . S
C1518 H1531 0.961 . S
C1518 H1532 0.961 . S
C1519 C1516 1.539 . S
C1519 H1533 0.958 . S
C1519 H1534 0.961 . S
C1519 H1535 0.960 . S
H1520 C1504 0.931 . S
H1521 C1509 0.929 . S
H1522 C1510 0.960 . S
H1523 C1510 0.962 1_554 S
H1524 C1510 0.960 . S
H1525 C1511 0.961 . S
H1526 C1511 0.961 . S
H1527 C1511 0.961 . S
H1528 C1512 0.931 . S
H1529 C1517 0.930 . S
H1530 C1518 0.956 . S
H1531 C1518 0.961 . S
H1532 C1518 0.961 . S
H1533 C1519 0.958 . S
H1534 C1519 0.961 . S
H1535 C1519 0.960 . S
C1536 C1537 1.391 . S
C1536 C1538 1.394 . S
C1536 H1552 0.931 . S
C1537 C1536 1.391 . S
C1537 C1541 1.376 . S
C1538 C1536 1.394 . S
C1538 C1539 1.369 . S
C1538 C1542 1.531 . S
C1539 C1538 1.369 . S
C1539 C1540 1.410 . S
C1539 C1547 1.503 . S
C1540 C1539 1.410 . S
C1540 C1541 1.392 . S
C1540 C1543 1.511 . S
C1541 C1537 1.376 . S
C1541 C1540 1.392 . S
C1541 H1553 0.929 . S
C1542 C1538 1.531 . S
C1542 H1554 0.960 . S
C1542 H1555 0.962 . S
C1542 H1556 0.960 . S
C1543 C1540 1.511 . S
C1543 H1557 0.961 . S
C1543 H1558 0.961 . S
C1543 H1559 0.961 . S
C1544 C1545 1.370 . S
C1544 C1546 1.363 . S
C1544 H1560 0.931 . S
C1545 C1544 1.370 . S
C1545 C1549 1.408 . S
C1546 C1544 1.363 . S
C1546 C1547 1.370 . S
C1546 C1550 1.524 . S
C1547 C1539 1.503 . S
C1547 C1546 1.370 . S
C1547 C1548 1.403 . S
C1548 C1547 1.403 . S
C1548 C1549 1.404 . S
C1548 C1551 1.539 . S
C1549 C1545 1.408 . S
C1549 C1548 1.404 . S
C1549 H1561 0.930 . S
C1550 C1546 1.524 . S
C1550 H1562 0.956 . S
C1550 H1563 0.961 . S
C1550 H1564 0.961 . S
C1551 C1548 1.539 . S
C1551 H1565 0.958 . S
C1551 H1566 0.961 . S
C1551 H1567 0.960 . S
H1552 C1536 0.931 . S
H1553 C1541 0.929 . S
H1554 C1542 0.960 . S
H1555 C1542 0.962 . S
H1556 C1542 0.960 . S
H1557 C1543 0.961 . S
H1558 C1543 0.961 . S
H1559 C1543 0.961 . S
H1560 C1544 0.931 . S
H1561 C1549 0.930 . S
H1562 C1550 0.956 . S
H1563 C1550 0.961 . S
H1564 C1550 0.961 . S
H1565 C1551 0.958 . S
H1566 C1551 0.961 . S
H1567 C1551 0.960 . S
C1568 C1569 1.391 . S
C1568 C1570 1.394 . S
C1568 H1584 0.931 . S
C1569 C1568 1.391 . S
C1569 C1573 1.376 . S
C1570 C1568 1.394 . S
C1570 C1571 1.369 . S
C1570 C1574 1.531 . S
C1571 C1570 1.369 . S
C1571 C1572 1.410 . S
C1571 C1579 1.503 . S
C1572 C1571 1.410 . S
C1572 C1573 1.392 . S
C1572 C1575 1.511 . S
C1573 C1569 1.376 . S
C1573 C1572 1.392 . S
C1573 H1585 0.929 . S
C1574 C1570 1.531 . S
C1574 H1586 0.960 . S
C1574 H1587 0.962 . S
C1574 H1588 0.960 . S
C1575 C1572 1.511 . S
C1575 H1589 0.961 . S
C1575 H1590 0.961 . S
C1575 H1591 0.961 . S
C1576 C1577 1.370 . S
C1576 C1578 1.363 . S
C1576 H1592 0.931 . S
C1577 C1576 1.370 . S
C1577 C1581 1.408 . S
C1578 C1576 1.363 . S
C1578 C1579 1.370 . S
C1578 C1582 1.524 . S
C1579 C1571 1.503 . S
C1579 C1578 1.370 . S
C1579 C1580 1.403 . S
C1580 C1579 1.403 . S
C1580 C1581 1.404 . S
C1580 C1583 1.539 . S
C1581 C1577 1.408 . S
C1581 C1580 1.404 . S
C1581 H1593 0.930 . S
C1582 C1578 1.524 . S
C1582 H1594 0.956 . S
C1582 H1595 0.961 . S
C1582 H1596 0.961 . S
C1583 C1580 1.539 . S
C1583 H1597 0.958 . S
C1583 H1598 0.961 . S
C1583 H1599 0.960 . S
H1584 C1568 0.931 . S
H1585 C1573 0.929 . S
H1586 C1574 0.960 . S
H1587 C1574 0.962 . S
H1588 C1574 0.960 . S
H1589 C1575 0.961 . S
H1590 C1575 0.961 . S
H1591 C1575 0.961 . S
H1592 C1576 0.931 . S
H1593 C1581 0.930 . S
H1594 C1582 0.956 . S
H1595 C1582 0.961 . S
H1596 C1582 0.961 . S
H1597 C1583 0.958 . S
H1598 C1583 0.961 . S
H1599 C1583 0.960 . S
C1600 C1601 1.391 . S
C1600 C1602 1.394 . S
C1600 H1616 0.931 . S
C1601 C1600 1.391 . S
C1601 C1605 1.376 . S
C1602 C1600 1.394 . S
C1602 C1603 1.369 . S
C1602 C1606 1.531 . S
C1603 C1602 1.369 . S
C1603 C1604 1.410 . S
C1603 C1611 1.503 . S
C1604 C1603 1.410 . S
C1604 C1605 1.392 . S
C1604 C1607 1.511 . S
C1605 C1601 1.376 . S
C1605 C1604 1.392 . S
C1605 H1617 0.929 . S
C1606 C1602 1.531 . S
C1606 H1618 0.960 . S
C1606 H1619 0.962 . S
C1606 H1620 0.960 . S
C1607 C1604 1.511 . S
C1607 H1621 0.961 . S
C1607 H1622 0.961 . S
C1607 H1623 0.961 . S
C1608 C1609 1.370 . S
C1608 C1610 1.363 . S
C1608 H1624 0.931 . S
C1609 C1608 1.370 . S
C1609 C1613 1.408 . S
C1610 C1608 1.363 . S
C1610 C1611 1.370 . S
C1610 C1614 1.524 . S
C1611 C1603 1.503 . S
C1611 C1610 1.370 . S
C1611 C1612 1.403 . S
C1612 C1611 1.403 . S
C1612 C1613 1.404 . S
C1612 C1615 1.539 . S
C1613 C1609 1.408 . S
C1613 C1612 1.404 . S
C1613 H1625 0.930 . S
C1614 C1610 1.524 . S
C1614 H1626 0.956 . S
C1614 H1627 0.961 . S
C1614 H1628 0.961 . S
C1615 C1612 1.539 . S
C1615 H1629 0.958 . S
C1615 H1630 0.961 . S
C1615 H1631 0.960 . S
H1616 C1600 0.931 . S
H1617 C1605 0.929 . S
H1618 C1606 0.960 . S
H1619 C1606 0.962 . S
H1620 C1606 0.960 . S
H1621 C1607 0.961 . S
H1622 C1607 0.961 . S
H1623 C1607 0.961 . S
H1624 C1608 0.931 . S
H1625 C1613 0.930 . S
H1626 C1614 0.956 . S
H1627 C1614 0.961 . S
H1628 C1614 0.961 . S
H1629 C1615 0.958 . S
H1630 C1615 0.961 . S
H1631 C1615 0.960 . S
C1632 C1633 1.391 . S
C1632 C1634 1.394 . S
C1632 H1648 0.931 . S
C1633 C1632 1.391 . S
C1633 C1637 1.376 . S
C1634 C1632 1.394 . S
C1634 C1635 1.369 . S
C1634 C1638 1.531 . S
C1635 C1634 1.369 . S
C1635 C1636 1.410 . S
C1635 C1643 1.503 . S
C1636 C1635 1.410 . S
C1636 C1637 1.392 . S
C1636 C1639 1.511 . S
C1637 C1633 1.376 . S
C1637 C1636 1.392 . S
C1637 H1649 0.929 . S
C1638 C1634 1.531 . S
C1638 H1650 0.960 . S
C1638 H1651 0.962 . S
C1638 H1652 0.960 . S
C1639 C1636 1.511 . S
C1639 H1653 0.961 . S
C1639 H1654 0.961 . S
C1639 H1655 0.961 . S
C1640 C1641 1.370 . S
C1640 C1642 1.363 . S
C1640 H1656 0.931 . S
C1641 C1640 1.370 . S
C1641 C1645 1.408 . S
C1642 C1640 1.363 . S
C1642 C1643 1.370 . S
C1642 C1646 1.524 . S
C1643 C1635 1.503 . S
C1643 C1642 1.370 . S
C1643 C1644 1.403 . S
C1644 C1643 1.403 . S
C1644 C1645 1.404 . S
C1644 C1647 1.539 . S
C1645 C1641 1.408 . S
C1645 C1644 1.404 . S
C1645 H1657 0.930 . S
C1646 C1642 1.524 . S
C1646 H1658 0.956 . S
C1646 H1659 0.961 . S
C1646 H1660 0.961 . S
C1647 C1644 1.539 . S
C1647 H1661 0.958 . S
C1647 H1662 0.961 . S
C1647 H1663 0.960 . S
H1648 C1632 0.931 . S
H1649 C1637 0.929 . S
H1650 C1638 0.960 . S
H1651 C1638 0.962 . S
H1652 C1638 0.960 . S
H1653 C1639 0.961 . S
H1654 C1639 0.961 . S
H1655 C1639 0.961 . S
H1656 C1640 0.931 . S
H1657 C1645 0.930 . S
H1658 C1646 0.956 . S
H1659 C1646 0.961 . S
H1660 C1646 0.961 . S
H1661 C1647 0.958 . S
H1662 C1647 0.961 . S
H1663 C1647 0.960 . S
C1664 C1665 1.391 1_554 S
C1664 C1666 1.394 . S
C1664 H1680 0.931 . S
C1665 C1664 1.391 1_556 S
C1665 C1669 1.376 . S
C1666 C1664 1.394 . S
C1666 C1667 1.383 . S
C1666 C1670 1.531 . S
C1667 C1666 1.383 . S
C1667 C1668 1.395 1_554 S
C1667 C1675 1.502 1_554 S
C1668 C1667 1.395 1_556 S
C1668 C1669 1.392 . S
C1668 C1671 1.511 . S
C1669 C1665 1.376 . S
C1669 C1668 1.392 . S
C1669 H1681 0.929 . S
C1670 C1666 1.531 . S
C1670 H1682 0.960 . S
C1670 H1683 0.962 . S
C1670 H1684 0.960 . S
C1671 C1668 1.511 . S
C1671 H1685 0.961 . S
C1671 H1686 0.961 . S
C1671 H1687 0.961 . S
C1672 C1673 1.370 . S
C1672 C1674 1.363 . S
C1672 H1688 0.931 . S
C1673 C1672 1.370 . S
C1673 C1677 1.408 1_556 S
C1674 C1672 1.363 . S
C1674 C1675 1.384 . S
C1674 C1678 1.524 . S
C1675 C1667 1.502 1_556 S
C1675 C1674 1.384 . S
C1675 C1676 1.390 1_556 S
C1676 C1675 1.390 1_554 S
C1676 C1677 1.404 . S
C1676 C1679 1.539 . S
C1677 C1673 1.408 1_554 S
C1677 C1676 1.404 . S
C1677 H1689 0.930 . S
C1678 C1674 1.524 . S
C1678 H1690 0.956 . S
C1678 H1691 0.961 . S
C1678 H1692 0.961 . S
C1679 C1676 1.539 . S
C1679 H1693 0.958 . S
C1679 H1694 0.961 . S
C1679 H1695 0.960 . S
H1680 C1664 0.931 . S
H1681 C1669 0.929 . S
H1682 C1670 0.960 . S
H1683 C1670 0.962 . S
H1684 C1670 0.960 . S
H1685 C1671 0.961 . S
H1686 C1671 0.961 . S
H1687 C1671 0.961 . S
H1688 C1672 0.931 . S
H1689 C1677 0.930 . S
H1690 C1678 0.956 . S
H1691 C1678 0.961 . S
H1692 C1678 0.961 . S
H1693 C1679 0.958 . S
H1694 C1679 0.961 . S
H1695 C1679 0.960 . S
C1696 C1697 1.391 . S
C1696 C1698 1.394 . S
C1696 H1712 0.931 . S
C1697 C1696 1.391 . S
C1697 C1701 1.376 . S
C1698 C1696 1.394 . S
C1698 C1699 1.369 . S
C1698 C1702 1.531 . S
C1699 C1698 1.369 . S
C1699 C1700 1.410 . S
C1699 C1707 1.503 . S
C1700 C1699 1.410 . S
C1700 C1701 1.392 . S
C1700 C1703 1.511 . S
C1701 C1697 1.376 . S
C1701 C1700 1.392 . S
C1701 H1713 0.929 . S
C1702 C1698 1.531 . S
C1702 H1714 0.960 . S
C1702 H1715 0.962 . S
C1702 H1716 0.960 . S
C1703 C1700 1.511 . S
C1703 H1717 0.961 . S
C1703 H1718 0.961 . S
C1703 H1719 0.961 . S
C1704 C1705 1.370 . S
C1704 C1706 1.363 . S
C1704 H1720 0.931 . S
C1705 C1704 1.370 . S
C1705 C1709 1.408 . S
C1706 C1704 1.363 . S
C1706 C1707 1.370 . S
C1706 C1710 1.524 . S
C1707 C1699 1.503 . S
C1707 C1706 1.370 . S
C1707 C1708 1.403 . S
C1708 C1707 1.403 . S
C1708 C1709 1.404 . S
C1708 C1711 1.539 . S
C1709 C1705 1.408 . S
C1709 C1708 1.404 . S
C1709 H1721 0.930 . S
C1710 C1706 1.524 . S
C1710 H1722 0.956 . S
C1710 H1723 0.961 . S
C1710 H1724 0.961 . S
C1711 C1708 1.539 . S
C1711 H1725 0.958 . S
C1711 H1726 0.961 . S
C1711 H1727 0.960 . S
H1712 C1696 0.931 . S
H1713 C1701 0.929 . S
H1714 C1702 0.960 . S
H1715 C1702 0.962 . S
H1716 C1702 0.960 . S
H1717 C1703 0.961 . S
H1718 C1703 0.961 . S
H1719 C1703 0.961 . S
H1720 C1704 0.931 . S
H1721 C1709 0.930 . S
H1722 C1710 0.956 . S
H1723 C1710 0.961 . S
H1724 C1710 0.961 . S
H1725 C1711 0.958 . S
H1726 C1711 0.961 . S
H1727 C1711 0.960 . S
C1728 C1729 1.391 . S
C1728 C1730 1.394 . S
C1728 H1744 0.931 . S
C1729 C1728 1.391 . S
C1729 C1733 1.376 . S
C1730 C1728 1.394 . S
C1730 C1731 1.369 . S
C1730 C1734 1.531 . S
C1731 C1730 1.369 . S
C1731 C1732 1.410 . S
C1731 C1739 1.503 . S
C1732 C1731 1.410 . S
C1732 C1733 1.392 . S
C1732 C1735 1.511 . S
C1733 C1729 1.376 . S
C1733 C1732 1.392 . S
C1733 H1745 0.929 . S
C1734 C1730 1.531 . S
C1734 H1746 0.960 . S
C1734 H1747 0.962 . S
C1734 H1748 0.960 . S
C1735 C1732 1.511 . S
C1735 H1749 0.961 . S
C1735 H1750 0.961 . S
C1735 H1751 0.961 . S
C1736 C1737 1.370 . S
C1736 C1738 1.363 . S
C1736 H1752 0.931 . S
C1737 C1736 1.370 . S
C1737 C1741 1.408 . S
C1738 C1736 1.363 . S
C1738 C1739 1.370 . S
C1738 C1742 1.524 . S
C1739 C1731 1.503 . S
C1739 C1738 1.370 . S
C1739 C1740 1.403 . S
C1740 C1739 1.403 . S
C1740 C1741 1.404 . S
C1740 C1743 1.539 . S
C1741 C1737 1.408 . S
C1741 C1740 1.404 . S
C1741 H1753 0.930 . S
C1742 C1738 1.524 . S
C1742 H1754 0.956 . S
C1742 H1755 0.961 . S
C1742 H1756 0.961 . S
C1743 C1740 1.539 . S
C1743 H1757 0.958 . S
C1743 H1758 0.961 . S
C1743 H1759 0.960 . S
H1744 C1728 0.931 . S
H1745 C1733 0.929 . S
H1746 C1734 0.960 . S
H1747 C1734 0.962 . S
H1748 C1734 0.960 . S
H1749 C1735 0.961 . S
H1750 C1735 0.961 . S
H1751 C1735 0.961 . S
H1752 C1736 0.931 . S
H1753 C1741 0.930 . S
H1754 C1742 0.956 . S
H1755 C1742 0.961 . S
H1756 C1742 0.961 . S
H1757 C1743 0.958 . S
H1758 C1743 0.961 . S
H1759 C1743 0.960 . S
C1760 C1761 1.391 . S
C1760 C1762 1.394 . S
C1760 H1776 0.931 . S
C1761 C1760 1.391 . S
C1761 C1765 1.376 . S
C1762 C1760 1.394 . S
C1762 C1763 1.369 . S
C1762 C1766 1.531 . S
C1763 C1762 1.369 . S
C1763 C1764 1.410 . S
C1763 C1771 1.503 . S
C1764 C1763 1.410 . S
C1764 C1765 1.392 . S
C1764 C1767 1.511 . S
C1765 C1761 1.376 . S
C1765 C1764 1.392 . S
C1765 H1777 0.929 . S
C1766 C1762 1.531 . S
C1766 H1778 0.960 . S
C1766 H1779 0.962 . S
C1766 H1780 0.960 . S
C1767 C1764 1.511 . S
C1767 H1781 0.961 . S
C1767 H1782 0.961 . S
C1767 H1783 0.961 . S
C1768 C1769 1.370 . S
C1768 C1770 1.363 . S
C1768 H1784 0.931 . S
C1769 C1768 1.370 . S
C1769 C1773 1.408 . S
C1770 C1768 1.363 . S
C1770 C1771 1.370 . S
C1770 C1774 1.524 . S
C1771 C1763 1.503 . S
C1771 C1770 1.370 . S
C1771 C1772 1.403 . S
C1772 C1771 1.403 . S
C1772 C1773 1.404 . S
C1772 C1775 1.539 . S
C1773 C1769 1.408 . S
C1773 C1772 1.404 . S
C1773 H1785 0.930 . S
C1774 C1770 1.524 . S
C1774 H1786 0.956 . S
C1774 H1787 0.961 . S
C1774 H1788 0.961 . S
C1775 C1772 1.539 . S
C1775 H1789 0.958 . S
C1775 H1790 0.961 . S
C1775 H1791 0.960 . S
H1776 C1760 0.931 . S
H1777 C1765 0.929 . S
H1778 C1766 0.960 . S
H1779 C1766 0.962 . S
H1780 C1766 0.960 . S
H1781 C1767 0.961 . S
H1782 C1767 0.961 . S
H1783 C1767 0.961 . S
H1784 C1768 0.931 . S
H1785 C1773 0.930 . S
H1786 C1774 0.956 . S
H1787 C1774 0.961 . S
H1788 C1774 0.961 . S
H1789 C1775 0.958 . S
H1790 C1775 0.961 . S
H1791 C1775 0.960 . S
C1792 C1793 1.391 . S
C1792 C1794 1.394 . S
C1792 H1808 0.931 . S
C1793 C1792 1.391 . S
C1793 C1797 1.376 . S
C1794 C1792 1.394 . S
C1794 C1795 1.369 . S
C1794 C1798 1.531 . S
C1795 C1794 1.369 . S
C1795 C1796 1.410 . S
C1795 C1803 1.503 . S
C1796 C1795 1.410 . S
C1796 C1797 1.392 . S
C1796 C1799 1.511 . S
C1797 C1793 1.376 . S
C1797 C1796 1.392 . S
C1797 H1809 0.929 . S
C1798 C1794 1.531 . S
C1798 H1810 0.960 . S
C1798 H1811 0.962 . S
C1798 H1812 0.960 . S
C1799 C1796 1.511 . S
C1799 H1813 0.961 . S
C1799 H1814 0.961 . S
C1799 H1815 0.961 . S
C1800 C1801 1.370 . S
C1800 C1802 1.363 . S
C1800 H1816 0.931 . S
C1801 C1800 1.370 . S
C1801 C1805 1.408 . S
C1802 C1800 1.363 . S
C1802 C1803 1.370 . S
C1802 C1806 1.524 . S
C1803 C1795 1.503 . S
C1803 C1802 1.370 . S
C1803 C1804 1.403 . S
C1804 C1803 1.403 . S
C1804 C1805 1.404 . S
C1804 C1807 1.539 . S
C1805 C1801 1.408 . S
C1805 C1804 1.404 . S
C1805 H1817 0.930 . S
C1806 C1802 1.524 . S
C1806 H1818 0.956 . S
C1806 H1819 0.961 . S
C1806 H1820 0.961 . S
C1807 C1804 1.539 . S
C1807 H1821 0.958 . S
C1807 H1822 0.961 . S
C1807 H1823 0.960 . S
H1808 C1792 0.931 . S
H1809 C1797 0.929 . S
H1810 C1798 0.960 . S
H1811 C1798 0.962 . S
H1812 C1798 0.960 . S
H1813 C1799 0.961 . S
H1814 C1799 0.961 . S
H1815 C1799 0.961 . S
H1816 C1800 0.931 . S
H1817 C1805 0.930 . S
H1818 C1806 0.956 . S
H1819 C1806 0.961 . S
H1820 C1806 0.961 . S
H1821 C1807 0.958 . S
H1822 C1807 0.961 . S
H1823 C1807 0.960 . S
C1824 C1825 1.391 . S
C1824 C1826 1.394 . S
C1824 H1840 0.931 . S
C1825 C1824 1.391 . S
C1825 C1829 1.376 . S
C1826 C1824 1.394 . S
C1826 C1827 1.369 . S
C1826 C1830 1.531 . S
C1827 C1826 1.369 . S
C1827 C1828 1.410 . S
C1827 C1835 1.503 . S
C1828 C1827 1.410 . S
C1828 C1829 1.392 . S
C1828 C1831 1.511 . S
C1829 C1825 1.376 . S
C1829 C1828 1.392 . S
C1829 H1841 0.929 . S
C1830 C1826 1.531 . S
C1830 H1842 0.960 . S
C1830 H1843 0.962 . S
C1830 H1844 0.960 . S
C1831 C1828 1.511 . S
C1831 H1845 0.961 . S
C1831 H1846 0.961 . S
C1831 H1847 0.961 . S
C1832 C1833 1.370 . S
C1832 C1834 1.363 . S
C1832 H1848 0.931 . S
C1833 C1832 1.370 . S
C1833 C1837 1.408 . S
C1834 C1832 1.363 . S
C1834 C1835 1.370 . S
C1834 C1838 1.524 . S
C1835 C1827 1.503 . S
C1835 C1834 1.370 . S
C1835 C1836 1.403 . S
C1836 C1835 1.403 . S
C1836 C1837 1.404 . S
C1836 C1839 1.539 . S
C1837 C1833 1.408 . S
C1837 C1836 1.404 . S
C1837 H1849 0.930 . S
C1838 C1834 1.524 . S
C1838 H1850 0.956 . S
C1838 H1851 0.961 . S
C1838 H1852 0.961 . S
C1839 C1836 1.539 . S
C1839 H1853 0.958 . S
C1839 H1854 0.961 . S
C1839 H1855 0.960 . S
H1840 C1824 0.931 . S
H1841 C1829 0.929 . S
H1842 C1830 0.960 . S
H1843 C1830 0.962 . S
H1844 C1830 0.960 . S
H1845 C1831 0.961 . S
H1846 C1831 0.961 . S
H1847 C1831 0.961 . S
H1848 C1832 0.931 . S
H1849 C1837 0.930 . S
H1850 C1838 0.956 . S
H1851 C1838 0.961 . S
H1852 C1838 0.961 . S
H1853 C1839 0.958 . S
H1854 C1839 0.961 . S
H1855 C1839 0.960 . S
C321 C2 0.832 . S
C329 C24 0.795 . S
C353 C42 0.849 . S
C361 C29 0.782 . S
C385 C64 1.068 . S
C393 C59 1.074 . S
C417 C19 0.780 . S
C425 C69 0.764 . S
C449 C18 0.757 . S
C457 C192 0.752 . S
C481 C144 0.592 . S
C489 C22 0.620 . S
C513 C44 0.783 . S
C521 C212 0.902 . S
C545 C62 1.132 . S
C553 C264 1.051 . S
C577 C178 0.746 . S
C585 C32 0.737 . S
C609 C242 1.249 . S
C617 C58 1.313 . S
C641 C284 0.900 1_565 S
C649 C72 0.923 . S
C673 C4 0.809 . S
C681 C222 0.773 . S
C705 C9 0.618 . S
C713 C169 0.590 . S
C737 C259 1.850 . S
C745 C99 1.849 . S
C769 C112 0.556 . S
C777 C289 0.591 . S
C801 C239 1.548 . S
C809 C139 1.563 . S
C833 C49 0.686 . S
C841 C152 0.645 . S
C865 C198 1.587 . S
C873 C98 1.614 . S
C897 C138 1.657 . S
C905 C218 1.668 . S
C929 C118 1.153 . S
C937 C232 1.156 . S
C961 C182 0.716 . S
C969 C104 0.663 . S
C993 C224 0.747 . S
C1001 C142 0.756 . S
C1025 C119 1.396 . S
C1033 C89 1.396 . S
C1057 C184 0.833 . S
C1065 C162 0.808 . S
C1089 C279 1.181 . S
C1097 C229 1.163 . S
C1121 C124 0.716 . S
C1129 C102 0.750 . S
C1153 C189 0.774 . S
C1161 C282 0.747 . S
C1185 C272 0.546 . S
C1193 C12 0.582 . S
C1217 C52 0.645 . S
C1225 C292 0.646 . S
C1249 C258 1.594 . S
C1257 C38 1.611 . S
C1281 C149 0.577 . S
C1289 C109 0.585 . S
C1313 C79 1.667 . S
C1321 C219 1.649 . S
C1345 C244 1.134 . S
C1353 C262 1.080 . S
C1377 C159 1.410 . S
C1385 C249 1.395 . S
C1409 C132 1.149 . S
C1417 C158 1.162 . S
C1441 C92 1.132 . S
C1449 C278 1.193 . S
C1473 C252 1.192 . S
C1481 C318 1.200 . S
C1505 C312 0.504 . S
C1513 C172 0.555 . S
C1537 C39 1.475 . S
C1545 C199 1.490 . S
C1569 C164 0.828 . S
C1577 C122 0.777 . S
C1601 C179 0.780 . S
C1609 C209 0.762 . S
C1633 C319 1.150 . S
C1641 C129 1.136 . S
C1665 C269 0.602 1_556 S
C1673 C309 0.604 1_556 S
C1697 C238 1.657 . S
C1705 C78 1.670 1_565 S
C1729 C204 1.061 . S
C1737 C299 1.073 . S
C1761 C202 1.127 . S
C1769 C304 1.074 . S
C1793 C82 1.259 . S
C1801 C298 1.321 . S
C1825 C302 0.991 . S
C1833 C84 1.076 . S
